# generated using pymatgen
data_CsHo(NbBr3)6
_symmetry_space_group_name_H-M   'P 1'
_cell_length_a   9.93267982
_cell_length_b   9.93267982
_cell_length_c   18.54489500
_cell_angle_alpha   90.00000000
_cell_angle_beta   90.00000000
_cell_angle_gamma   119.99999880
_symmetry_Int_Tables_number   1
_chemical_formula_structural   CsHo(NbBr3)6
_chemical_formula_sum   'Cs2 Ho2 Nb12 Br36'
_cell_volume   1584.48410954
_cell_formula_units_Z   2
loop_
 _symmetry_equiv_pos_site_id
 _symmetry_equiv_pos_as_xyz
  1  'x, y, z'
loop_
 _atom_site_type_symbol
 _atom_site_label
 _atom_site_symmetry_multiplicity
 _atom_site_fract_x
 _atom_site_fract_y
 _atom_site_fract_z
 _atom_site_occupancy
  Cs  Cs0  1  0.33333300  0.66666700  0.75000000  1
  Cs  Cs1  1  0.66666700  0.33333300  0.25000000  1
  Ho  Ho0  1  0.66666700  0.33333300  0.75000000  1
  Ho  Ho1  1  0.33333300  0.66666700  0.25000000  1
  Nb  Nb0  1  0.85042500  0.03882400  0.56504300  1
  Nb  Nb1  1  0.14957500  0.96117600  0.43495700  1
  Nb  Nb2  1  0.96117600  0.81160100  0.56504300  1
  Nb  Nb3  1  0.85042500  0.81160100  0.93495700  1
  Nb  Nb4  1  0.03882400  0.18839900  0.43495700  1
  Nb  Nb5  1  0.14957500  0.18839900  0.06504300  1
  Nb  Nb6  1  0.18839900  0.14957500  0.56504300  1
  Nb  Nb7  1  0.96117600  0.14957500  0.93495700  1
  Nb  Nb8  1  0.81160100  0.85042500  0.43495700  1
  Nb  Nb9  1  0.03882400  0.85042500  0.06504300  1
  Nb  Nb10  1  0.18839900  0.03882400  0.93495700  1
  Nb  Nb11  1  0.81160100  0.96117600  0.06504300  1
  Br  Br0  1  0.63668600  0.08622600  0.66176000  1
  Br  Br1  1  0.36331400  0.91377400  0.33824000  1
  Br  Br2  1  0.91377400  0.55046000  0.66176000  1
  Br  Br3  1  0.63668600  0.55046000  0.83824000  1
  Br  Br4  1  0.08622600  0.44954000  0.33824000  1
  Br  Br5  1  0.36331400  0.44954000  0.16176000  1
  Br  Br6  1  0.44954000  0.36331400  0.66176000  1
  Br  Br7  1  0.91377400  0.36331400  0.83824000  1
  Br  Br8  1  0.55046000  0.63668600  0.33824000  1
  Br  Br9  1  0.08622600  0.63668600  0.16176000  1
  Br  Br10  1  0.44954000  0.08622600  0.83824000  1
  Br  Br11  1  0.55046000  0.91377400  0.16176000  1
  Br  Br12  1  0.04668400  0.23231400  0.65947100  1
  Br  Br13  1  0.95331600  0.76768600  0.34052900  1
  Br  Br14  1  0.76768600  0.81437000  0.65947100  1
  Br  Br15  1  0.04668400  0.81437000  0.84052900  1
  Br  Br16  1  0.23231400  0.18563000  0.34052900  1
  Br  Br17  1  0.95331600  0.18563000  0.15947100  1
  Br  Br18  1  0.18563000  0.95331600  0.65947100  1
  Br  Br19  1  0.76768600  0.95331600  0.84052900  1
  Br  Br20  1  0.81437000  0.04668400  0.34052900  1
  Br  Br21  1  0.23231400  0.04668400  0.15947100  1
  Br  Br22  1  0.18563000  0.23231400  0.84052900  1
  Br  Br23  1  0.81437000  0.76768600  0.15947100  1
  Br  Br24  1  0.27664100  0.41601700  0.50111100  1
  Br  Br25  1  0.72335900  0.58398300  0.49888900  1
  Br  Br26  1  0.58398300  0.86062500  0.50111100  1
  Br  Br27  1  0.27664100  0.86062500  0.99888900  1
  Br  Br28  1  0.41601700  0.13937500  0.49888900  1
  Br  Br29  1  0.72335900  0.13937500  0.00111100  1
  Br  Br30  1  0.13937500  0.72335900  0.50111100  1
  Br  Br31  1  0.58398300  0.72335900  0.99888900  1
  Br  Br32  1  0.86062500  0.27664100  0.49888900  1
  Br  Br33  1  0.41601700  0.27664100  0.00111100  1
  Br  Br34  1  0.13937500  0.41601700  0.99888900  1
  Br  Br35  1  0.86062500  0.58398300  0.00111100  1
loop_
_geom_bond_atom_site_label_1
_geom_bond_atom_site_label_2
_geom_bond_distance
_geom_bond_site_symmetry_2
Br0 Ho0 2.838984 1_555
Br0 Nb0 2.990888 1_555
Br0 Cs0 4.070225 1_545
Br1 Ho1 2.838984 1_555
Br1 Nb1 2.990888 1_555
Br1 Cs1 4.070225 1_565
Br2 Ho0 2.838987 1_555
Br2 Nb2 2.990888 1_555
Br2 Cs0 4.070223 1_655
Br3 Ho0 2.838992 1_555
Br3 Nb3 2.990888 1_555
Br3 Cs0 4.070232 1_555
Br4 Ho1 2.838987 1_555
Br4 Nb4 2.990888 1_555
Br4 Cs1 4.070223 1_455
Br5 Ho1 2.838992 1_555
Br5 Nb5 2.990888 1_555
Br5 Cs1 4.070232 1_555
Br6 Ho0 2.838992 1_555
Br6 Nb6 2.990888 1_555
Br6 Cs0 4.070232 1_555
Br7 Ho0 2.838984 1_555
Br7 Nb7 2.990888 1_555
Br7 Cs0 4.070225 1_655
Br8 Ho1 2.838992 1_555
Br8 Nb8 2.990888 1_555
Br8 Cs1 4.070232 1_555
Br9 Ho1 2.838984 1_555
Br9 Nb9 2.990888 1_555
Br9 Cs1 4.070225 1_455
Br10 Ho0 2.838987 1_555
Br10 Nb10 2.990888 1_555
Br10 Cs0 4.070223 1_545
Br11 Ho1 2.838987 1_555
Br11 Nb11 2.990888 1_555
Br11 Cs1 4.070223 1_565
Br12 Nb0 2.610319 1_455
Br12 Nb6 2.622996 1_555
Br12 Cs0 4.153857 1_555
Br13 Nb1 2.610319 1_655
Br13 Nb8 2.622996 1_555
Br13 Cs1 4.153857 1_555
Br14 Nb2 2.610319 1_555
Br14 Nb0 2.622996 1_565
Br14 Cs0 4.153858 1_555
Br15 Nb3 2.610319 1_455
Br15 Nb10 2.622996 1_565
Br15 Cs0 4.153850 1_555
Br16 Nb4 2.610319 1_555
Br16 Nb1 2.622996 1_545
Br16 Cs1 4.153858 1_555
Br17 Nb5 2.610319 1_655
Br17 Nb11 2.622996 1_545
Br17 Cs1 4.153850 1_555
Br18 Nb6 2.610319 1_565
Br18 Nb2 2.622996 1_455
Br18 Cs0 4.153850 1_555
Br19 Nb7 2.610319 1_565
Br19 Nb3 2.622996 1_555
Br19 Cs0 4.153857 1_555
Br20 Nb8 2.610319 1_545
Br20 Nb4 2.622996 1_655
Br20 Cs1 4.153850 1_555
Br21 Nb9 2.610319 1_545
Br21 Nb5 2.622996 1_555
Br21 Cs1 4.153857 1_555
Br22 Nb10 2.610319 1_555
Br22 Nb7 2.622996 1_455
Br22 Cs0 4.153858 1_555
Br23 Nb11 2.610319 1_555
Br23 Nb9 2.622996 1_655
Br23 Cs1 4.153858 1_555
Br24 Nb4 2.618368 1_555
Br24 Nb6 2.618812 1_555
Br25 Nb2 2.618368 1_555
Br25 Nb8 2.618812 1_555
Br26 Nb8 2.618373 1_555
Br26 Nb0 2.618811 1_565
Br27 Nb9 2.618364 1_556
Br27 Nb10 2.618804 1_565
Br28 Nb6 2.618373 1_555
Br28 Nb1 2.618811 1_545
Br29 Nb7 2.618364 1_554
Br29 Nb11 2.618804 1_545
Br30 Nb1 2.618364 1_555
Br30 Nb2 2.618804 1_455
Br31 Nb11 2.618368 1_556
Br31 Nb3 2.618812 1_555
Br32 Nb0 2.618364 1_555
Br32 Nb4 2.618804 1_655
Br33 Nb10 2.618368 1_554
Br33 Nb5 2.618812 1_555
Br34 Nb5 2.618373 1_556
Br34 Nb7 2.618811 1_455
Br35 Nb3 2.618373 1_554
Br35 Nb9 2.618811 1_655
