# generated using pymatgen
data_U2Ga10CoNi
_symmetry_space_group_name_H-M   'P 1'
_cell_length_a   4.24827100
_cell_length_b   4.24827100
_cell_length_c   13.61759300
_cell_angle_alpha   90.00000000
_cell_angle_beta   90.00000000
_cell_angle_gamma   90.00000000
_symmetry_Int_Tables_number   1
_chemical_formula_structural   U2Ga10CoNi
_chemical_formula_sum   'U2 Ga10 Co1 Ni1'
_cell_volume   245.76768332
_cell_formula_units_Z   1
loop_
 _symmetry_equiv_pos_site_id
 _symmetry_equiv_pos_as_xyz
  1  'x, y, z'
loop_
 _atom_site_type_symbol
 _atom_site_label
 _atom_site_symmetry_multiplicity
 _atom_site_fract_x
 _atom_site_fract_y
 _atom_site_fract_z
 _atom_site_occupancy
  U  U0  1  0.00000000  0.00000000  0.75116500  1
  U  U1  1  0.00000000  0.00000000  0.24883500  1
  Ga  Ga0  1  0.50000000  0.00000000  0.09609900  1
  Ga  Ga1  1  0.50000000  0.00000000  0.59767800  1
  Ga  Ga2  1  0.00000000  0.50000000  0.09609900  1
  Ga  Ga3  1  0.00000000  0.50000000  0.59767800  1
  Ga  Ga4  1  0.50000000  0.00000000  0.90390100  1
  Ga  Ga5  1  0.50000000  0.00000000  0.40232200  1
  Ga  Ga6  1  0.00000000  0.50000000  0.90390100  1
  Ga  Ga7  1  0.00000000  0.50000000  0.40232200  1
  Ga  Ga8  1  0.50000000  0.50000000  0.75049900  1
  Ga  Ga9  1  0.50000000  0.50000000  0.24950100  1
  Co  Co0  1  0.00000000  0.00000000  0.00000000  1
  Ni  Ni0  1  0.00000000  0.00000000  0.50000000  1
loop_
_geom_bond_atom_site_label_1
_geom_bond_atom_site_label_2
_geom_bond_distance
_geom_bond_site_symmetry_2
Ga0 Ga4 2.617274 1_554
Ga0 U1 2.972864 1_555
Ga0 U1 2.972864 1_655
Ga0 Ga9 2.979216 1_555
Ga0 Ga9 2.979216 1_545
Ga0 Ga2 3.003981 1_645
Ga0 Ga2 3.003981 1_545
Ga0 Ga2 3.003981 1_555
Ga0 Ga2 3.003981 1_655
Ga1 Ni0 2.506237 1_555
Ga1 Ni0 2.506237 1_655
Ga1 Ga5 2.660278 1_555
Ga1 Ga8 2.973674 1_555
Ga1 Ga8 2.973674 1_545
Ga1 U0 2.980028 1_655
Ga1 U0 2.980028 1_555
Ga1 Ga3 3.003981 1_645
Ga1 Ga3 3.003981 1_655
Ga1 Ga3 3.003981 1_545
Ga1 Ga3 3.003981 1_555
Ga2 Ga6 2.617274 1_554
Ga2 U1 2.972864 1_555
Ga2 U1 2.972864 1_565
Ga2 Ga9 2.979216 1_555
Ga2 Ga9 2.979216 1_455
Ga3 Ni0 2.506237 1_565
Ga3 Ni0 2.506237 1_555
Ga3 Ga7 2.660278 1_555
Ga3 Ga8 2.973674 1_555
Ga3 Ga8 2.973674 1_455
Ga3 U0 2.980028 1_565
Ga3 U0 2.980028 1_555
Ga4 U0 2.972864 1_655
Ga4 U0 2.972864 1_555
Ga4 Ga8 2.979216 1_555
Ga4 Ga8 2.979216 1_545
Ga4 Ga6 3.003981 1_655
Ga4 Ga6 3.003981 1_555
Ga4 Ga6 3.003981 1_545
Ga4 Ga6 3.003981 1_645
Ga5 Ni0 2.506237 1_555
Ga5 Ni0 2.506237 1_655
Ga5 Ga9 2.973674 1_555
Ga5 Ga9 2.973674 1_545
Ga5 U1 2.980028 1_655
Ga5 U1 2.980028 1_555
Ga5 Ga7 3.003981 1_645
Ga5 Ga7 3.003981 1_545
Ga5 Ga7 3.003981 1_555
Ga5 Ga7 3.003981 1_655
Ga6 U0 2.972864 1_565
Ga6 U0 2.972864 1_555
Ga6 Ga8 2.979216 1_555
Ga6 Ga8 2.979216 1_455
Ga7 Ni0 2.506237 1_565
Ga7 Ni0 2.506237 1_555
Ga7 Ga9 2.973674 1_555
Ga7 Ga9 2.973674 1_455
Ga7 U1 2.980028 1_565
Ga7 U1 2.980028 1_555
Ga8 U0 3.003995 1_655
Ga8 U0 3.003995 1_565
Ga8 U0 3.003995 1_555
Ga8 U0 3.003995 1_665
Ga9 U1 3.003995 1_665
Ga9 U1 3.003995 1_555
Ga9 U1 3.003995 1_565
Ga9 U1 3.003995 1_655
Co0 Ga0 2.494891 1_555
Co0 Ga2 2.494891 1_545
Co0 Ga2 2.494891 1_555
Co0 Ga0 2.494891 1_455
Co0 Ga6 2.494891 1_554
Co0 Ga4 2.494891 1_454
Co0 Ga4 2.494891 1_554
Co0 Ga6 2.494891 1_544
