# generated using pymatgen
data_La2(ErGe)3
_symmetry_space_group_name_H-M   'P 1'
_cell_length_a   8.68971034
_cell_length_b   8.68971034
_cell_length_c   6.59269400
_cell_angle_alpha   90.00000000
_cell_angle_beta   90.00000000
_cell_angle_gamma   120.00000256
_symmetry_Int_Tables_number   1
_chemical_formula_structural   La2(ErGe)3
_chemical_formula_sum   'La4 Er6 Ge6'
_cell_volume   431.12592450
_cell_formula_units_Z   2
loop_
 _symmetry_equiv_pos_site_id
 _symmetry_equiv_pos_as_xyz
  1  'x, y, z'
loop_
 _atom_site_type_symbol
 _atom_site_label
 _atom_site_symmetry_multiplicity
 _atom_site_fract_x
 _atom_site_fract_y
 _atom_site_fract_z
 _atom_site_occupancy
  La  La0  1  0.66666700  0.33333300  0.00000000  1
  La  La1  1  0.33333300  0.66666700  0.00000000  1
  La  La2  1  0.33333300  0.66666700  0.50000000  1
  La  La3  1  0.66666700  0.33333300  0.50000000  1
  Er  Er0  1  0.75713700  0.75713700  0.75000000  1
  Er  Er1  1  0.24286300  0.00000000  0.75000000  1
  Er  Er2  1  0.00000000  0.24286300  0.75000000  1
  Er  Er3  1  0.24286300  0.24286300  0.25000000  1
  Er  Er4  1  0.75713700  0.00000000  0.25000000  1
  Er  Er5  1  0.00000000  0.75713700  0.25000000  1
  Ge  Ge0  1  0.38389200  0.38389200  0.75000000  1
  Ge  Ge1  1  0.61610800  0.00000000  0.75000000  1
  Ge  Ge2  1  0.00000000  0.61610800  0.75000000  1
  Ge  Ge3  1  0.61610800  0.61610800  0.25000000  1
  Ge  Ge4  1  0.38389200  0.00000000  0.25000000  1
  Ge  Ge5  1  0.00000000  0.38389200  0.25000000  1
loop_
_geom_bond_atom_site_label_1
_geom_bond_atom_site_label_2
_geom_bond_distance
_geom_bond_site_symmetry_2
Er0 Ge1 2.922668 1_565
Er0 Ge2 2.922668 1_655
Er0 Ge0 3.243391 1_555
Er0 Ge3 3.516782 1_556
Er0 Ge3 3.516782 1_555
Er1 Ge2 2.922668 1_545
Er1 Ge0 2.922668 1_555
Er1 Ge1 3.243391 1_555
Er1 Ge4 3.516782 1_555
Er1 Ge4 3.516782 1_556
Er2 Ge1 2.922668 1_455
Er2 Ge0 2.922668 1_555
Er2 Ge2 3.243391 1_555
Er2 Ge5 3.516782 1_556
Er2 Ge5 3.516782 1_555
Er3 Ge5 2.922668 1_555
Er3 Ge4 2.922668 1_555
Er3 Ge3 3.243391 1_555
Er3 Ge0 3.516782 1_554
Er3 Ge0 3.516782 1_555
Er4 Ge5 2.922668 1_655
Er4 Ge3 2.922668 1_545
Er4 Ge4 3.243391 1_555
Er4 Ge1 3.516782 1_555
Er4 Ge1 3.516782 1_554
Er5 Ge4 2.922668 1_565
Er5 Ge3 2.922668 1_455
Er5 Ge5 3.243391 1_555
Er5 Ge2 3.516782 1_554
Er5 Ge2 3.516782 1_555
Ge0 La1 3.166553 1_556
Ge0 La2 3.166553 1_555
Ge0 La3 3.166553 1_555
Ge0 La0 3.166553 1_556
Ge1 La3 3.166546 1_555
Ge1 La0 3.166546 1_556
Ge1 La2 3.166549 1_545
Ge1 La1 3.166549 1_546
Ge2 La2 3.166546 1_555
Ge2 La1 3.166546 1_556
Ge2 La0 3.166549 1_456
Ge2 La3 3.166549 1_455
Ge3 La1 3.166553 1_555
Ge3 La2 3.166553 1_555
Ge3 La3 3.166553 1_555
Ge3 La0 3.166553 1_555
Ge4 La1 3.166546 1_545
Ge4 La2 3.166546 1_545
Ge4 La3 3.166549 1_555
Ge4 La0 3.166549 1_555
Ge5 La3 3.166546 1_455
Ge5 La0 3.166546 1_455
Ge5 La1 3.166549 1_555
Ge5 La2 3.166549 1_555
