# generated using pymatgen
data_Lu(SiOs)2
_symmetry_space_group_name_H-M   'P 1'
_cell_length_a   4.15612312
_cell_length_b   4.15612323
_cell_length_c   5.55561850
_cell_angle_alpha   111.96541232
_cell_angle_beta   111.96540822
_cell_angle_gamma   89.99999512
_symmetry_Int_Tables_number   1
_chemical_formula_structural   Lu(SiOs)2
_chemical_formula_sum   'Lu1 Si2 Os2'
_cell_volume   81.43838860
_cell_formula_units_Z   1
loop_
 _symmetry_equiv_pos_site_id
 _symmetry_equiv_pos_as_xyz
  1  'x, y, z'
loop_
 _atom_site_type_symbol
 _atom_site_label
 _atom_site_symmetry_multiplicity
 _atom_site_fract_x
 _atom_site_fract_y
 _atom_site_fract_z
 _atom_site_occupancy
  Lu  Lu0  1  0.00000000  0.00000000  -0.00000000  1
  Si  Si0  1  0.62814791  0.62814791  0.25629683  1
  Si  Si1  1  0.37185209  0.37185209  0.74370317  1
  Os  Os0  1  0.25000000  0.75000000  0.50000000  1
  Os  Os1  1  0.75000000  0.25000000  0.50000000  1
loop_
_geom_bond_atom_site_label_1
_geom_bond_atom_site_label_2
_geom_bond_distance
_geom_bond_site_symmetry_2
Lu0 Os1 3.142514 1_455
Lu0 Os0 3.142514 1_544
Lu0 Os0 3.142514 1_545
Lu0 Os1 3.142514 1_454
Lu0 Os0 3.142514 1_555
Lu0 Os1 3.142514 1_444
Lu0 Os0 3.142514 1_444
Lu0 Os1 3.142514 1_555
Lu0 Si1 3.177545 1_444
Lu0 Si0 3.177545 1_555
Lu0 Si0 3.177547 1_455
Lu0 Si1 3.177547 1_544
Lu0 Si0 3.177548 1_545
Lu0 Si1 3.177548 1_454
Lu0 Si0 3.177550 1_445
Lu0 Si1 3.177550 1_554
Os0 Si0 2.374551 1_555
Os0 Si1 2.374551 1_555
Os0 Si1 2.374555 1_565
Os0 Si0 2.374555 1_455
Os1 Si1 2.374551 1_555
Os1 Si0 2.374551 1_555
Os1 Si0 2.374555 1_545
Os1 Si1 2.374555 1_655
