# generated using pymatgen
data_DyGe2Pd
_symmetry_space_group_name_H-M   'P 1'
_cell_length_a   4.31014934
_cell_length_b   8.70231518
_cell_length_c   9.51093766
_cell_angle_alpha   117.22481903
_cell_angle_beta   103.00818385
_cell_angle_gamma   89.99864624
_symmetry_Int_Tables_number   1
_chemical_formula_structural   DyGe2Pd
_chemical_formula_sum   'Dy4 Ge8 Pd4'
_cell_volume   306.88843956
_cell_formula_units_Z   4
loop_
 _symmetry_equiv_pos_site_id
 _symmetry_equiv_pos_as_xyz
  1  'x, y, z'
loop_
 _atom_site_type_symbol
 _atom_site_label
 _atom_site_symmetry_multiplicity
 _atom_site_fract_x
 _atom_site_fract_y
 _atom_site_fract_z
 _atom_site_occupancy
  Dy  Dy0  1  0.20132169  0.20120947  0.40242318  1
  Dy  Dy1  1  0.79867122  0.79878965  0.59756715  1
  Dy  Dy2  1  0.99998517  0.76102775  0.00000156  1
  Dy  Dy3  1  0.00001414  0.23897104  -0.00000227  1
  Ge  Ge0  1  0.57409133  0.07404994  0.14808390  1
  Ge  Ge1  1  0.42591086  0.92596461  0.85192643  1
  Ge  Ge2  1  0.19788036  0.84842463  0.39646321  1
  Ge  Ge3  1  0.80212085  0.15156987  0.60353285  1
  Ge  Ge4  1  0.19796636  0.54800651  0.39647024  1
  Ge  Ge5  1  0.80202807  0.45198665  0.60352286  1
  Ge  Ge6  1  0.42592600  0.42654610  0.85306634  1
  Ge  Ge7  1  0.57407194  0.57344766  0.14693505  1
  Pd  Pd0  1  0.35215277  0.10360630  0.70425579  1
  Pd  Pd1  1  0.64786113  0.89639570  0.29575218  1
  Pd  Pd2  1  0.35206619  0.60065897  0.70426055  1
  Pd  Pd3  1  0.64793193  0.39934415  0.29574096  1
loop_
_geom_bond_atom_site_label_1
_geom_bond_atom_site_label_2
_geom_bond_distance
_geom_bond_site_symmetry_2
Dy0 Ge0 2.992984 1_555
Dy0 Ge0 2.998614 1_455
Dy0 Ge3 3.007213 1_455
Dy0 Ge5 3.007539 1_455
Dy0 Ge5 3.012684 1_555
Dy0 Ge3 3.012811 1_555
Dy0 Ge4 3.044229 1_555
Dy0 Ge2 3.044504 1_545
Dy0 Pd1 3.191593 1_545
Dy0 Pd3 3.191879 1_555
Dy0 Pd3 3.194160 1_455
Dy0 Pd1 3.194458 1_445
Dy0 Pd0 3.282658 1_555
Dy0 Pd2 3.282797 1_555
Dy1 Ge1 2.993099 1_555
Dy1 Ge1 2.998726 1_655
Dy1 Ge2 3.007176 1_655
Dy1 Ge4 3.007555 1_655
Dy1 Ge4 3.012699 1_555
Dy1 Ge2 3.012741 1_555
Dy1 Ge5 3.044293 1_555
Dy1 Ge3 3.044440 1_565
Dy1 Pd0 3.191562 1_565
Dy1 Pd2 3.191914 1_555
Dy1 Pd2 3.194193 1_655
Dy1 Pd0 3.194498 1_665
Dy1 Pd1 3.282515 1_555
Dy1 Pd3 3.282737 1_555
Dy2 Ge0 3.229071 1_565
Dy2 Ge1 3.229137 1_654
Dy2 Ge1 3.232119 1_554
Dy2 Ge0 3.232347 1_665
Dy2 Pd2 3.239140 1_654
Dy2 Pd1 3.239340 1_555
Dy2 Pd1 3.244985 1_655
Dy2 Pd2 3.245067 1_554
Dy2 Ge6 3.350942 1_654
Dy2 Ge7 3.351098 1_555
Dy2 Ge6 3.356999 1_554
Dy2 Ge7 3.357174 1_655
Dy2 Ge2 3.384151 1_655
Dy2 Ge5 3.384231 1_554
Dy3 Ge1 3.228972 1_544
Dy3 Ge0 3.229121 1_455
Dy3 Ge0 3.232088 1_555
Dy3 Ge1 3.232263 1_444
Dy3 Pd3 3.239161 1_455
Dy3 Pd0 3.239316 1_554
Dy3 Pd0 3.244903 1_454
Dy3 Pd3 3.245075 1_555
Dy3 Ge7 3.350919 1_455
Dy3 Ge6 3.351049 1_554
Dy3 Ge7 3.356962 1_555
Dy3 Ge6 3.357139 1_454
Dy3 Ge3 3.384170 1_454
Dy3 Ge4 3.384176 1_555
Ge0 Ge1 2.423131 1_544
Ge0 Pd3 2.499684 1_555
Ge0 Pd1 2.499871 1_545
Ge1 Pd2 2.499772 1_555
Ge1 Pd0 2.499794 1_565
Ge2 Pd1 2.460768 1_455
Ge2 Pd1 2.460810 1_555
Ge2 Ge4 2.614364 1_555
Ge2 Pd0 2.668136 1_565
Ge3 Pd0 2.460812 1_555
Ge3 Pd0 2.460822 1_655
Ge3 Ge5 2.614365 1_555
Ge3 Pd1 2.668039 1_545
Ge4 Pd3 2.460722 1_555
Ge4 Pd3 2.460798 1_455
Ge4 Pd2 2.667971 1_555
Ge5 Pd2 2.460764 1_555
Ge5 Pd2 2.460836 1_655
Ge5 Pd3 2.667922 1_555
Ge6 Ge7 2.404419 1_556
Ge6 Pd2 2.481808 1_555
Ge6 Pd0 2.481999 1_555
Ge7 Pd3 2.481738 1_555
Ge7 Pd1 2.482063 1_555
