# generated using pymatgen
data_Hf(FeGe)6
_symmetry_space_group_name_H-M   'P 1'
_cell_length_a   5.04739192
_cell_length_b   5.04739121
_cell_length_c   8.14786482
_cell_angle_alpha   89.99999725
_cell_angle_beta   89.99999678
_cell_angle_gamma   119.99886661
_symmetry_Int_Tables_number   1
_chemical_formula_structural   Hf(FeGe)6
_chemical_formula_sum   'Hf1 Fe6 Ge6'
_cell_volume   179.76842003
_cell_formula_units_Z   1
loop_
 _symmetry_equiv_pos_site_id
 _symmetry_equiv_pos_as_xyz
  1  'x, y, z'
loop_
 _atom_site_type_symbol
 _atom_site_label
 _atom_site_symmetry_multiplicity
 _atom_site_fract_x
 _atom_site_fract_y
 _atom_site_fract_z
 _atom_site_occupancy
  Hf  Hf0  1  0.99999992  0.99999984  0.99999012  1
  Fe  Fe0  1  0.49999962  0.99999996  0.24908391  1
  Fe  Fe1  1  0.50000048  0.50000052  0.24908338  1
  Fe  Fe2  1  0.00000003  0.49999948  0.24908384  1
  Fe  Fe3  1  0.49999926  -0.00000003  0.75091148  1
  Fe  Fe4  1  0.50000058  0.50000042  0.75091207  1
  Fe  Fe5  1  0.99999998  0.49999939  0.75091143  1
  Ge  Ge0  1  1.00000023  1.00000009  0.65775693  1
  Ge  Ge1  1  0.33332586  0.66667076  1.00004682  1
  Ge  Ge2  1  0.66667399  0.33332930  1.00004683  1
  Ge  Ge3  1  0.33332736  0.66667058  0.49996794  1
  Ge  Ge4  1  0.66667290  0.33332955  0.49996797  1
  Ge  Ge5  1  0.99999979  1.00000015  0.34223727  1
loop_
_geom_bond_atom_site_label_1
_geom_bond_atom_site_label_2
_geom_bond_distance
_geom_bond_site_symmetry_2
Fe0 Ge1 2.498067 1_554
Fe0 Ge2 2.498067 1_564
Fe0 Ge3 2.510306 1_555
Fe0 Ge4 2.510307 1_565
Fe0 Fe1 2.523695 1_555
Fe0 Fe1 2.523696 1_565
Fe0 Fe2 2.523739 1_665
Fe0 Fe2 2.523739 1_555
Fe0 Ge5 2.635360 1_455
Fe0 Ge5 2.635361 1_555
Fe0 Hf0 3.238555 1_454
Fe0 Hf0 3.238558 1_554
Fe1 Ge2 2.498089 1_554
Fe1 Ge1 2.498089 1_554
Fe1 Ge3 2.510331 1_555
Fe1 Ge4 2.510331 1_555
Fe1 Fe2 2.523696 1_555
Fe1 Fe2 2.523696 1_655
Fe1 Ge5 2.635400 1_555
Fe1 Ge5 2.635405 1_445
Fe1 Hf0 3.238584 1_554
Fe1 Hf0 3.238590 1_444
Fe2 Ge1 2.498058 1_554
Fe2 Ge2 2.498059 1_454
Fe2 Ge4 2.510301 1_455
Fe2 Ge3 2.510302 1_555
Fe2 Ge5 2.635356 1_445
Fe2 Ge5 2.635364 1_455
Fe2 Hf0 3.238554 1_444
Fe2 Hf0 3.238557 1_454
Fe3 Ge1 2.498717 1_545
Fe3 Ge2 2.498718 1_555
Fe3 Ge3 2.510702 1_545
Fe3 Ge4 2.510702 1_555
Fe3 Fe4 2.523695 1_555
Fe3 Fe4 2.523697 1_545
Fe3 Fe5 2.523739 1_445
Fe3 Fe5 2.523739 1_555
Fe3 Ge0 2.635359 1_445
Fe3 Ge0 2.635367 1_545
Fe3 Hf0 3.238476 1_445
Fe3 Hf0 3.238482 1_545
Fe4 Ge2 2.498738 1_555
Fe4 Ge1 2.498739 1_555
Fe4 Ge4 2.510726 1_555
Fe4 Ge3 2.510726 1_555
Fe4 Fe5 2.523696 1_555
Fe4 Fe5 2.523696 1_455
Fe4 Ge0 2.635404 1_555
Fe4 Ge0 2.635407 1_445
Fe4 Hf0 3.238507 1_555
Fe4 Hf0 3.238512 1_445
Fe5 Ge1 2.498709 1_655
Fe5 Ge2 2.498710 1_555
Fe5 Ge4 2.510695 1_555
Fe5 Ge3 2.510696 1_655
Fe5 Ge0 2.635360 1_545
Fe5 Ge0 2.635365 1_555
Fe5 Hf0 3.238477 1_545
Fe5 Hf0 3.238481 1_555
Ge0 Ge5 2.570812 1_555
Ge0 Hf0 2.788470 1_555
Ge1 Hf0 2.914045 1_455
Ge1 Hf0 2.914165 1_445
Ge1 Hf0 2.914179 1_555
Ge2 Hf0 2.914047 1_545
Ge2 Hf0 2.914163 1_555
Ge2 Hf0 2.914179 1_445
Ge5 Hf0 2.788584 1_554
