# generated using pymatgen
data_Li7Mn2(CoO4)3
_symmetry_space_group_name_H-M   'P 1'
_cell_length_a   2.92640200
_cell_length_b   5.11701453
_cell_length_c   14.66584115
_cell_angle_alpha   98.92292248
_cell_angle_beta   95.39123122
_cell_angle_gamma   89.76366191
_symmetry_Int_Tables_number   1
_chemical_formula_structural   Li7Mn2(CoO4)3
_chemical_formula_sum   'Li7 Mn2 Co3 O12'
_cell_volume   215.98308358
_cell_formula_units_Z   1
loop_
 _symmetry_equiv_pos_site_id
 _symmetry_equiv_pos_as_xyz
  1  'x, y, z'
loop_
 _atom_site_type_symbol
 _atom_site_label
 _atom_site_symmetry_multiplicity
 _atom_site_fract_x
 _atom_site_fract_y
 _atom_site_fract_z
 _atom_site_occupancy
  Li  Li0  1  0.41401600  0.58748000  0.84341000  1
  Li  Li1  1  0.07911700  0.92437900  0.15730600  1
  Li  Li2  1  0.75024700  0.25602000  0.50065600  1
  Li  Li3  1  0.92088300  0.07562100  0.84269400  1
  Li  Li4  1  0.58598400  0.41252000  0.15659000  1
  Li  Li5  1  0.24975300  0.74398000  0.49934400  1
  Li  Li6  1  0.50000000  0.00000000  0.00000000  1
  Mn  Mn0  1  0.33248900  0.16555100  0.66845900  1
  Mn  Mn1  1  0.66751100  0.83444900  0.33154100  1
  Co  Co0  1  0.00000000  0.50000000  0.00000000  1
  Co  Co1  1  0.83436100  0.66624900  0.66914200  1
  Co  Co2  1  0.16563900  0.33375100  0.33085800  1
  O  O0  1  0.86749000  0.34296200  0.74269400  1
  O  O1  1  0.54459500  0.68783700  0.07358000  1
  O  O2  1  0.20172600  0.01440900  0.40808500  1
  O  O3  1  0.37069800  0.89056700  0.74574700  1
  O  O4  1  0.03619500  0.24668600  0.07417800  1
  O  O5  1  0.70374500  0.55739200  0.40970500  1
  O  O6  1  0.96380500  0.75331400  0.92582200  1
  O  O7  1  0.62930200  0.10943300  0.25425300  1
  O  O8  1  0.29625500  0.44260800  0.59029500  1
  O  O9  1  0.45540500  0.31216300  0.92642000  1
  O  O10  1  0.13251000  0.65703800  0.25730600  1
  O  O11  1  0.79827400  0.98559100  0.59191500  1
loop_
_geom_bond_atom_site_label_1
_geom_bond_atom_site_label_2
_geom_bond_distance
_geom_bond_site_symmetry_2
Li0 O6 1.971938 1_455
Li0 O9 1.996098 1_555
Li0 O6 2.024143 1_555
Li0 O3 2.264117 1_555
Li0 O0 2.299928 1_555
Li0 O0 2.303150 1_455
Li1 O7 2.138858 1_465
Li1 O1 2.147848 1_455
Li1 O10 2.150399 1_555
Li1 O1 2.160552 1_555
Li1 O7 2.162236 1_565
Li1 O4 2.194392 1_565
Li2 O11 2.064822 1_545
Li2 O8 2.081657 1_555
Li2 O8 2.102720 1_655
Li2 O5 2.185898 1_555
Li2 O2 2.218144 1_655
Li2 O2 2.243768 1_555
Li3 O3 2.138858 1_645
Li3 O9 2.147848 1_655
Li3 O0 2.150399 1_555
Li3 O9 2.160552 1_555
Li3 O3 2.162236 1_545
Li3 O6 2.194392 1_545
Li4 O4 1.971938 1_655
Li4 O1 1.996098 1_555
Li4 O4 2.024143 1_555
Li4 O7 2.264117 1_555
Li4 O10 2.299928 1_555
Li4 O10 2.303150 1_655
Li5 O2 2.064822 1_565
Li5 O5 2.081657 1_555
Li5 O5 2.102720 1_455
Li5 O8 2.185898 1_555
Li5 O11 2.218144 1_455
Li5 O11 2.243768 1_555
Li6 O9 2.059017 1_554
Li6 O1 2.059017 1_545
Li6 O4 2.111025 1_555
Li6 O6 2.111025 1_544
Li6 O4 2.123347 1_655
Li6 O6 2.123347 1_444
Mn0 O3 1.935687 1_545
Mn0 O8 1.953277 1_555
Mn0 O0 1.955184 1_455
Mn0 O0 1.960982 1_555
Mn0 O11 1.978278 1_445
Mn0 O11 1.980567 1_545
Mn1 O7 1.935687 1_565
Mn1 O5 1.953277 1_555
Mn1 O10 1.955184 1_655
Mn1 O10 1.960982 1_555
Mn1 O2 1.978278 1_665
Mn1 O2 1.980567 1_565
Co0 O4 1.813704 1_555
Co0 O6 1.813704 1_454
Co0 O1 1.949956 1_455
Co0 O9 1.949956 1_554
Co0 O1 1.998982 1_555
Co0 O9 1.998982 1_454
Co1 O3 2.072289 1_555
Co1 O3 2.080061 1_655
Co1 O8 2.084289 1_655
Co1 O8 2.094915 1_555
Co1 O0 2.107646 1_555
Co1 O11 2.124704 1_555
Co2 O7 2.072289 1_555
Co2 O7 2.080061 1_455
Co2 O5 2.084289 1_455
Co2 O5 2.094915 1_555
Co2 O10 2.107646 1_555
Co2 O2 2.124704 1_555
