# generated using pymatgen
data_Mn2CrSi
_symmetry_space_group_name_H-M   'P 1'
_cell_length_a   3.92425757
_cell_length_b   3.92425757
_cell_length_c   3.92425757
_cell_angle_alpha   60.00000000
_cell_angle_beta   60.00000000
_cell_angle_gamma   60.00000000
_symmetry_Int_Tables_number   1
_chemical_formula_structural   Mn2CrSi
_chemical_formula_sum   'Mn2 Cr1 Si1'
_cell_volume   42.73242281
_cell_formula_units_Z   1
loop_
 _symmetry_equiv_pos_site_id
 _symmetry_equiv_pos_as_xyz
  1  'x, y, z'
loop_
 _atom_site_type_symbol
 _atom_site_label
 _atom_site_symmetry_multiplicity
 _atom_site_fract_x
 _atom_site_fract_y
 _atom_site_fract_z
 _atom_site_occupancy
  Mn  Mn0  1  0.25000000  0.25000000  0.25000000  1
  Mn  Mn1  1  0.75000000  0.75000000  0.75000000  1
  Cr  Cr0  1  0.50000000  0.50000000  0.50000000  1
  Si  Si0  1  0.00000000  -0.00000000  -0.00000000  1
loop_
_geom_bond_atom_site_label_1
_geom_bond_atom_site_label_2
_geom_bond_distance
_geom_bond_site_symmetry_2
Mn0 Si0 2.403107 1_565
Mn0 Si0 2.403107 1_655
Mn0 Si0 2.403107 1_556
Mn0 Si0 2.403107 1_555
Mn1 Si0 2.403107 1_566
Mn1 Si0 2.403107 1_666
Mn1 Si0 2.403107 1_665
Mn1 Si0 2.403107 1_656
Cr0 Mn1 2.403107 1_554
Cr0 Mn0 2.403107 1_565
Cr0 Mn1 2.403107 1_555
Cr0 Mn0 2.403107 1_655
Cr0 Mn1 2.403107 1_545
Cr0 Mn0 2.403107 1_555
Cr0 Mn0 2.403107 1_556
Cr0 Mn1 2.403107 1_455
