# generated using pymatgen
data_Ba2ErZn2CuO7
_symmetry_space_group_name_H-M   'P 1'
_cell_length_a   3.92208200
_cell_length_b   4.00253800
_cell_length_c   11.65125800
_cell_angle_alpha   90.00000000
_cell_angle_beta   90.00000000
_cell_angle_gamma   90.00000000
_symmetry_Int_Tables_number   1
_chemical_formula_structural   Ba2ErZn2CuO7
_chemical_formula_sum   'Ba2 Er1 Zn2 Cu1 O7'
_cell_volume   182.90473658
_cell_formula_units_Z   1
loop_
 _symmetry_equiv_pos_site_id
 _symmetry_equiv_pos_as_xyz
  1  'x, y, z'
loop_
 _atom_site_type_symbol
 _atom_site_label
 _atom_site_symmetry_multiplicity
 _atom_site_fract_x
 _atom_site_fract_y
 _atom_site_fract_z
 _atom_site_occupancy
  Ba  Ba0  1  0.50000000  0.50000000  0.18053300  1
  Ba  Ba1  1  0.50000000  0.50000000  0.81946700  1
  Er  Er0  1  0.50000000  0.50000000  0.50000000  1
  Zn  Zn0  1  0.00000000  0.00000000  0.34320700  1
  Zn  Zn1  1  0.00000000  0.00000000  0.65679300  1
  Cu  Cu0  1  0.00000000  0.00000000  0.00000000  1
  O  O0  1  0.50000000  0.00000000  0.38029800  1
  O  O1  1  0.50000000  0.00000000  0.61970200  1
  O  O2  1  0.00000000  0.50000000  0.37957200  1
  O  O3  1  0.00000000  0.50000000  0.62042800  1
  O  O4  1  0.00000000  0.00000000  0.16193600  1
  O  O5  1  0.00000000  0.00000000  0.83806400  1
  O  O6  1  0.00000000  0.50000000  0.00000000  1
loop_
_geom_bond_atom_site_label_1
_geom_bond_atom_site_label_2
_geom_bond_distance
_geom_bond_site_symmetry_2
Ba0 O4 2.810286 1_655
Ba0 O4 2.810286 1_565
Ba0 O4 2.810286 1_665
Ba0 O4 2.810286 1_555
Ba0 O6 2.875783 1_655
Ba0 O6 2.875783 1_555
Ba0 O2 3.037054 1_555
Ba0 O2 3.037054 1_655
Ba0 O0 3.069592 1_555
Ba0 O0 3.069592 1_565
Ba1 O5 2.810286 1_655
Ba1 O5 2.810286 1_665
Ba1 O5 2.810286 1_555
Ba1 O5 2.810286 1_565
Ba1 O6 2.875783 1_656
Ba1 O6 2.875783 1_556
Ba1 O3 3.037054 1_555
Ba1 O3 3.037054 1_655
Ba1 O1 3.069592 1_555
Ba1 O1 3.069592 1_565
Er0 O3 2.411323 1_555
Er0 O3 2.411323 1_655
Er0 O2 2.411323 1_555
Er0 O2 2.411323 1_655
Er0 O1 2.439305 1_565
Er0 O1 2.439305 1_555
Er0 O0 2.439305 1_555
Er0 O0 2.439305 1_565
Cu0 O4 1.886758 1_555
Cu0 O5 1.886758 1_554
Cu0 O6 2.001269 1_555
Cu0 O6 2.001269 1_545
O0 Zn0 2.008094 1_555
O0 Zn0 2.008094 1_655
O1 Zn1 2.008094 1_655
O1 Zn1 2.008094 1_555
O2 Zn0 2.045629 1_565
O2 Zn0 2.045629 1_555
O3 Zn1 2.045629 1_555
O3 Zn1 2.045629 1_565
O4 Zn0 2.112035 1_555
O5 Zn1 2.112035 1_555
