# generated using pymatgen
data_Na2Sb5C2S2N2(OF3)3
_symmetry_space_group_name_H-M   'P 1'
_cell_length_a   7.15035100
_cell_length_b   9.55283981
_cell_length_c   13.66604994
_cell_angle_alpha   74.09554908
_cell_angle_beta   77.39551676
_cell_angle_gamma   82.85713374
_symmetry_Int_Tables_number   1
_chemical_formula_structural   Na2Sb5C2S2N2(OF3)3
_chemical_formula_sum   'Na4 Sb10 C4 S4 N4 O6 F18'
_cell_volume   874.03189583
_cell_formula_units_Z   2
loop_
 _symmetry_equiv_pos_site_id
 _symmetry_equiv_pos_as_xyz
  1  'x, y, z'
loop_
 _atom_site_type_symbol
 _atom_site_label
 _atom_site_symmetry_multiplicity
 _atom_site_fract_x
 _atom_site_fract_y
 _atom_site_fract_z
 _atom_site_occupancy
  Na  Na0  1  0.87833900  0.70429100  0.45964800  1
  Na  Na1  1  0.12166100  0.29570900  0.54035200  1
  Na  Na2  1  0.33544700  0.85710600  0.58567800  1
  Na  Na3  1  0.66455300  0.14289400  0.41432200  1
  Sb  Sb0  1  0.56143400  0.35686900  0.61442800  1
  Sb  Sb1  1  0.43856600  0.64313100  0.38557200  1
  Sb  Sb2  1  0.23604200  0.08009400  0.79824700  1
  Sb  Sb3  1  0.76395800  0.91990600  0.20175300  1
  Sb  Sb4  1  0.70412700  0.95728100  0.72485600  1
  Sb  Sb5  1  0.29587300  0.04271900  0.27514400  1
  Sb  Sb6  1  0.45193600  0.65838700  0.85796000  1
  Sb  Sb7  1  0.54806400  0.34161300  0.14204000  1
  Sb  Sb8  1  0.95930900  0.57252000  0.73635300  1
  Sb  Sb9  1  0.04069100  0.42748000  0.26364700  1
  C  C0  1  0.74337800  0.26542400  0.87191800  1
  C  C1  1  0.25662200  0.73457600  0.12808200  1
  C  C2  1  0.95800700  0.71111400  0.95575200  1
  C  C3  1  0.04199300  0.28888600  0.04424800  1
  S  S0  1  0.75359300  0.09193300  0.92258900  1
  S  S1  1  0.24640700  0.90806700  0.07741100  1
  S  S2  1  0.75218700  0.70208900  0.03469500  1
  S  S3  1  0.24781300  0.29791100  0.96530500  1
  N  N0  1  0.73199400  0.39470500  0.83527300  1
  N  N1  1  0.26800600  0.60529500  0.16472700  1
  N  N2  1  0.10489500  0.72038300  0.89367400  1
  N  N3  1  0.89510500  0.27961700  0.10632600  1
  O  O0  1  0.50111500  0.14177200  0.72614300  1
  O  O1  1  0.49888500  0.85822800  0.27385700  1
  O  O2  1  0.44581800  0.87904200  0.80794200  1
  O  O3  1  0.55418200  0.12095800  0.19205800  1
  O  O4  1  0.72774100  0.70459100  0.77097700  1
  O  O5  1  0.27225900  0.29540900  0.22902300  1
  F  F0  1  0.46269700  0.25913700  0.52531000  1
  F  F1  1  0.53730300  0.74086300  0.47469000  1
  F  F2  1  0.81059500  0.23067300  0.59749100  1
  F  F3  1  0.18940500  0.76932700  0.40250900  1
  F  F4  1  0.69613600  0.47401100  0.46649200  1
  F  F5  1  0.30386400  0.52598900  0.53350800  1
  F  F6  1  0.18145600  0.02746000  0.67463000  1
  F  F7  1  0.81854400  0.97254000  0.32537000  1
  F  F8  1  0.16113200  0.28770000  0.71261600  1
  F  F9  1  0.83886800  0.71230000  0.28738400  1
  F  F10  1  0.64010900  0.94940700  0.58979900  1
  F  F11  1  0.35989100  0.05059300  0.41020100  1
  F  F12  1  0.38789200  0.64284400  0.72749900  1
  F  F13  1  0.61210800  0.35715600  0.27250100  1
  F  F14  1  0.86982000  0.52904600  0.61916200  1
  F  F15  1  0.13018000  0.47095400  0.38083800  1
  F  F16  1  0.04072700  0.76018800  0.62586700  1
  F  F17  1  0.95927300  0.23981200  0.37413300  1
loop_
_geom_bond_atom_site_label_1
_geom_bond_atom_site_label_2
_geom_bond_distance
_geom_bond_site_symmetry_2
C0 N0 1.198527 1_555
C0 S0 1.610769 1_555
C1 N1 1.198527 1_555
C1 S1 1.610769 1_555
C2 N2 1.193216 1_655
C2 S2 1.620130 1_556
C3 N3 1.193216 1_455
C3 S3 1.620130 1_554
N0 Sb8 2.413263 1_555
N1 Sb9 2.413263 1_555
N2 Sb6 2.451731 1_555
N3 Sb7 2.451731 1_555
O0 Sb2 2.013688 1_555
O0 Sb4 2.140839 1_545
O0 Sb0 2.225464 1_555
O1 Sb3 2.013688 1_555
O1 Sb5 2.140839 1_565
O1 Sb1 2.225464 1_555
O2 Sb6 2.027994 1_555
O2 Sb4 2.054794 1_555
O2 Sb2 2.277515 1_565
O3 Sb7 2.027994 1_555
O3 Sb5 2.054794 1_555
O3 Sb3 2.277515 1_545
O4 Sb8 2.005751 1_555
O4 Sb6 2.098292 1_555
O4 Sb4 2.316019 1_555
O5 Sb9 2.005751 1_555
O5 Sb7 2.098292 1_555
O5 Sb5 2.316019 1_555
F0 Sb0 2.003923 1_555
F0 Na3 2.277275 1_555
F0 Na1 2.391536 1_555
F1 Sb1 2.003923 1_555
F1 Na2 2.277275 1_555
F1 Na0 2.391536 1_555
F2 Sb0 2.029722 1_555
F2 Na1 2.294055 1_655
F3 Sb1 2.029722 1_555
F3 Na0 2.294055 1_455
F4 Sb0 2.108430 1_555
F4 Sb1 2.528770 1_555
F4 Na0 2.663100 1_555
F5 Sb1 2.108430 1_555
F5 Sb0 2.528770 1_555
F5 Na1 2.663100 1_555
F6 Sb2 2.015241 1_555
F6 Na2 2.322257 1_545
F6 Na1 2.758541 1_555
F7 Sb3 2.015241 1_555
F7 Na3 2.322257 1_565
F7 Na0 2.758541 1_555
F8 Sb2 2.080134 1_555
F8 Na1 2.411122 1_555
F9 Sb3 2.080134 1_555
F9 Na0 2.411122 1_555
F10 Sb4 2.018706 1_555
F10 Na2 2.466713 1_555
F10 Na3 2.581827 1_565
F11 Sb5 2.018706 1_555
F11 Na3 2.466713 1_555
F11 Na2 2.581827 1_545
F12 Sb6 1.982111 1_555
F12 Na2 2.457348 1_555
F13 Sb7 1.982111 1_555
F13 Na3 2.457348 1_555
F14 Sb8 2.006170 1_555
F14 Na0 2.350671 1_555
F15 Sb9 2.006170 1_555
F15 Na1 2.350671 1_555
F16 Sb8 2.055500 1_455
F16 Na2 2.302421 1_555
F17 Sb9 2.055500 1_655
F17 Na3 2.302421 1_555
