# generated using pymatgen
data_Ca2TaCrO6
_symmetry_space_group_name_H-M   'P 1'
_cell_length_a   5.45204193
_cell_length_b   11.21618844
_cell_length_c   7.82315900
_cell_angle_alpha   90.00001926
_cell_angle_beta   90.00008569
_cell_angle_gamma   89.79922064
_symmetry_Int_Tables_number   1
_chemical_formula_structural   Ca2TaCrO6
_chemical_formula_sum   'Ca8 Ta4 Cr4 O24'
_cell_volume   478.39207333
_cell_formula_units_Z   4
loop_
 _symmetry_equiv_pos_site_id
 _symmetry_equiv_pos_as_xyz
  1  'x, y, z'
loop_
 _atom_site_type_symbol
 _atom_site_label
 _atom_site_symmetry_multiplicity
 _atom_site_fract_x
 _atom_site_fract_y
 _atom_site_fract_z
 _atom_site_occupancy
  Ca  Ca0  1  0.00874000  0.48061600  0.25000100  1
  Ca  Ca1  1  0.00876300  0.98059600  0.24999800  1
  Ca  Ca2  1  0.99125100  0.01938500  0.74999500  1
  Ca  Ca3  1  0.99122100  0.51940500  0.75000200  1
  Ca  Ca4  1  0.48915000  0.21814900  0.24998900  1
  Ca  Ca5  1  0.48914900  0.71815900  0.24999400  1
  Ca  Ca6  1  0.51090300  0.28186200  0.74999300  1
  Ca  Ca7  1  0.51090100  0.78185100  0.74999000  1
  Ta  Ta0  1  0.99992300  0.24999100  0.99997700  1
  Ta  Ta1  1  0.99992500  0.74999300  0.99997300  1
  Ta  Ta2  1  0.99999900  0.25002300  0.50000400  1
  Ta  Ta3  1  0.99999700  0.75002300  0.50000000  1
  Cr  Cr0  1  0.49978000  0.49991500  0.00005700  1
  Cr  Cr1  1  0.50007900  0.99997000  0.50000600  1
  Cr  Cr2  1  0.50004600  0.99997600  0.99995000  1
  Cr  Cr3  1  0.50001400  0.50004700  0.50009100  1
  O  O0  1  0.08773600  0.23692600  0.74999200  1
  O  O1  1  0.08773600  0.73692600  0.74999700  1
  O  O2  1  0.91230000  0.26307700  0.24999800  1
  O  O3  1  0.91230100  0.76307700  0.24999200  1
  O  O4  1  0.59154300  0.01450400  0.25000300  1
  O  O5  1  0.59152700  0.51448200  0.25000900  1
  O  O6  1  0.40844400  0.48549900  0.75000700  1
  O  O7  1  0.40847100  0.98552400  0.75000700  1
  O  O8  1  0.79877700  0.39421500  0.54638300  1
  O  O9  1  0.79875600  0.89423300  0.54638700  1
  O  O10  1  0.20123400  0.10579700  0.45359700  1
  O  O11  1  0.20125900  0.60577800  0.45359400  1
  O  O12  1  0.79874000  0.39420900  0.95361700  1
  O  O13  1  0.79877300  0.89422800  0.95360300  1
  O  O14  1  0.20125900  0.10579000  0.04639500  1
  O  O15  1  0.20123000  0.60577300  0.04640800  1
  O  O16  1  0.29114400  0.35099100  0.45582200  1
  O  O17  1  0.29114800  0.85101300  0.45583200  1
  O  O18  1  0.70888500  0.14900800  0.95583300  1
  O  O19  1  0.70885500  0.64898700  0.95585100  1
  O  O20  1  0.70888200  0.14902200  0.54416000  1
  O  O21  1  0.70887500  0.64899800  0.54415200  1
  O  O22  1  0.29112900  0.35098200  0.04418100  1
  O  O23  1  0.29115600  0.85100300  0.04416300  1
loop_
_geom_bond_atom_site_label_1
_geom_bond_atom_site_label_2
_geom_bond_distance
_geom_bond_site_symmetry_2
Ca0 O5 2.304847 1_455
Ca0 O15 2.370472 1_555
Ca0 O11 2.370573 1_555
Ca0 O2 2.497769 1_455
Ca0 O16 2.657327 1_555
Ca0 O22 2.657332 1_555
Ca0 O8 2.762866 1_455
Ca0 O12 2.762983 1_454
Ca1 O4 2.304961 1_465
Ca1 O10 2.370748 1_565
Ca1 O14 2.370786 1_565
Ca1 O3 2.497575 1_455
Ca1 O17 2.657072 1_555
Ca1 O23 2.657165 1_555
Ca1 O9 2.762861 1_455
Ca1 O13 2.762879 1_454
Ca2 O7 2.304876 1_645
Ca2 O13 2.370522 1_545
Ca2 O9 2.370527 1_545
Ca2 O0 2.497843 1_655
Ca2 O18 2.657277 1_555
Ca2 O20 2.657356 1_555
Ca2 O10 2.763060 1_655
Ca2 O14 2.763098 1_656
Ca3 O6 2.304973 1_655
Ca3 O8 2.370714 1_555
Ca3 O12 2.370826 1_555
Ca3 O1 2.497659 1_655
Ca3 O19 2.657079 1_555
Ca3 O21 2.657086 1_555
Ca3 O15 2.762994 1_656
Ca3 O11 2.763096 1_655
Ca4 O4 2.349450 1_555
Ca4 O2 2.363150 1_555
Ca4 O22 2.442614 1_555
Ca4 O16 2.442770 1_555
Ca4 O14 2.569539 1_555
Ca4 O10 2.569655 1_555
Ca4 O18 2.706615 1_554
Ca4 O20 2.706660 1_555
Ca5 O5 2.349779 1_555
Ca5 O3 2.363137 1_555
Ca5 O23 2.442741 1_555
Ca5 O17 2.442866 1_555
Ca5 O11 2.569690 1_555
Ca5 O15 2.569743 1_555
Ca5 O19 2.706558 1_554
Ca5 O21 2.706668 1_555
Ca6 O6 2.349447 1_555
Ca6 O0 2.363260 1_555
Ca6 O20 2.442692 1_555
Ca6 O18 2.442829 1_555
Ca6 O12 2.569438 1_555
Ca6 O8 2.569530 1_555
Ca6 O16 2.706731 1_555
Ca6 O22 2.706854 1_556
Ca7 O7 2.349802 1_555
Ca7 O1 2.363223 1_555
Ca7 O21 2.442794 1_555
Ca7 O19 2.442938 1_555
Ca7 O9 2.569593 1_555
Ca7 O13 2.569667 1_555
Ca7 O17 2.706736 1_555
Ca7 O23 2.706787 1_556
Cr0 O5 2.025122 1_555
Cr0 O6 2.025172 1_554
Cr0 O15 2.043798 1_555
Cr0 O12 2.044714 1_554
Cr0 O22 2.053531 1_555
Cr0 O19 2.056197 1_554
Cr1 O4 2.025097 1_565
Cr1 O7 2.025196 1_555
Cr1 O9 2.043605 1_555
Cr1 O10 2.044955 1_565
Cr1 O17 2.054666 1_555
Cr1 O20 2.055119 1_565
Cr2 O7 2.024717 1_555
Cr2 O4 2.025513 1_566
Cr2 O13 2.043846 1_555
Cr2 O14 2.044670 1_566
Cr2 O23 2.054739 1_556
Cr2 O18 2.054998 1_565
Cr3 O6 2.024596 1_555
Cr3 O5 2.025670 1_555
Cr3 O11 2.044065 1_555
Cr3 O8 2.044470 1_555
Cr3 O21 2.054249 1_555
Cr3 O16 2.055511 1_555
O0 Ta2 2.018575 1_455
O0 Ta0 2.018626 1_455
O1 Ta1 2.018557 1_455
O1 Ta3 2.018646 1_455
O2 Ta2 2.018628 1_555
O2 Ta0 2.018671 1_554
O3 Ta3 2.018639 1_555
O3 Ta1 2.018655 1_554
O8 Ta2 1.984537 1_555
O9 Ta3 1.984769 1_555
O10 Ta2 1.984926 1_455
O11 Ta3 1.985178 1_455
O12 Ta0 1.984629 1_555
O13 Ta1 1.984706 1_555
O14 Ta0 1.985016 1_454
O15 Ta1 1.985121 1_454
O16 Ta2 1.983483 1_455
O17 Ta3 1.983631 1_455
O18 Ta0 1.983058 1_555
O19 Ta1 1.983316 1_555
O20 Ta2 1.983537 1_555
O21 Ta3 1.983708 1_555
O22 Ta0 1.983926 1_454
O23 Ta1 1.984139 1_454
