# generated using pymatgen
data_MgV12Zn6O24
_symmetry_space_group_name_H-M   'P 1'
_cell_length_a   6.17214466
_cell_length_b   6.15432764
_cell_length_c   18.54886377
_cell_angle_alpha   60.26950974
_cell_angle_beta   60.09306672
_cell_angle_gamma   59.98427744
_symmetry_Int_Tables_number   1
_chemical_formula_structural   MgV12Zn6O24
_chemical_formula_sum   'Mg1 V12 Zn6 O24'
_cell_volume   499.51631064
_cell_formula_units_Z   1
loop_
 _symmetry_equiv_pos_site_id
 _symmetry_equiv_pos_as_xyz
  1  'x, y, z'
loop_
 _atom_site_type_symbol
 _atom_site_label
 _atom_site_symmetry_multiplicity
 _atom_site_fract_x
 _atom_site_fract_y
 _atom_site_fract_z
 _atom_site_occupancy
  Mg  Mg0  1  0.63202182  0.63274502  0.20624826  1
  V  V0  1  0.07470190  0.47638216  0.15459174  1
  V  V1  1  0.47763313  0.48176118  0.15778005  1
  V  V2  1  0.99282508  0.49210141  0.50695184  1
  V  V3  1  0.47557081  0.07604224  0.15348370  1
  V  V4  1  0.48050388  0.47155975  0.35685901  1
  V  V5  1  0.49581906  0.49258018  0.50736645  1
  V  V6  1  0.00458403  0.50459327  0.82925319  1
  V  V7  1  0.49605893  0.98938462  0.50719341  1
  V  V8  1  0.49988762  0.00705079  0.82930777  1
  V  V9  1  0.49705947  0.49999442  0.66788205  1
  V  V10  1  0.50199314  0.50199873  0.83007051  1
  V  V11  1  0.87874484  0.88001376  0.95348926  1
  Zn  Zn0  1  0.13301225  0.13514595  0.03503270  1
  Zn  Zn1  1  0.12464298  0.11953876  0.37827721  1
  Zn  Zn2  1  0.51266894  0.51450222  0.98850686  1
  Zn  Zn3  1  0.12149327  0.12305058  0.70993074  1
  Zn  Zn4  1  0.86931707  0.86725532  0.29794574  1
  Zn  Zn5  1  0.87240853  0.87273730  0.62662170  1
  O  O0  1  0.27838521  0.28101997  0.06648276  1
  O  O1  1  0.25435429  0.25308931  0.24762374  1
  O  O2  1  0.27389947  0.73997191  0.07816129  1
  O  O3  1  0.73825202  0.27479021  0.07842108  1
  O  O4  1  0.26567981  0.72647262  0.25109015  1
  O  O5  1  0.25377349  0.24663528  0.42824701  1
  O  O6  1  0.72902593  0.26492423  0.25322344  1
  O  O7  1  0.75238677  0.75261747  0.08201517  1
  O  O8  1  0.24918440  0.70834602  0.43227950  1
  O  O9  1  0.25244432  0.25059871  0.57681327  1
  O  O10  1  0.71775467  0.71520842  0.26928515  1
  O  O11  1  0.71422710  0.24443355  0.43250704  1
  O  O12  1  0.27839134  0.73430906  0.58316111  1
  O  O13  1  0.25564171  0.27487208  0.74959575  1
  O  O14  1  0.73704857  0.27753929  0.58228786  1
  O  O15  1  0.73850087  0.73510916  0.43628320  1
  O  O16  1  0.26397238  0.26475652  0.89953829  1
  O  O17  1  0.26604981  0.71973693  0.75330316  1
  O  O18  1  0.73201211  0.73041587  0.58656866  1
  O  O19  1  0.71612845  0.25841660  0.75170628  1
  O  O20  1  0.27225909  0.76661075  0.90229719  1
  O  O21  1  0.73891228  0.74331311  0.75994133  1
  O  O22  1  0.75557937  0.27307503  0.90164565  1
  O  O23  1  0.76059876  0.75030225  0.90429773  1
loop_
_geom_bond_atom_site_label_1
_geom_bond_atom_site_label_2
_geom_bond_distance
_geom_bond_site_symmetry_2
Mg0 O10 1.838197 1_555
Mg0 O4 1.852771 1_555
Mg0 O6 1.857390 1_555
Mg0 O7 1.887166 1_555
Mg0 V0 2.232234 1_655
Mg0 V3 2.234228 1_565
Mg0 V1 2.269015 1_555
O0 Zn0 1.949017 1_555
O0 V3 2.019944 1_555
O0 V0 2.021123 1_555
O0 Zn2 2.044407 1_554
O1 Zn1 1.984353 1_555
O1 V1 1.995245 1_555
O1 V3 2.030243 1_555
O1 V0 2.031583 1_555
O2 V1 1.952561 1_555
O2 Zn0 1.989735 1_565
O2 V0 2.032074 1_555
O2 Zn2 2.159121 1_554
O3 V1 1.955873 1_555
O3 Zn0 1.989614 1_655
O3 V3 2.026625 1_555
O3 Zn2 2.171810 1_554
O4 Zn4 1.999246 1_455
O4 V1 2.309019 1_555
O4 V4 2.351260 1_555
O4 V3 2.484107 1_565
O5 V4 1.974877 1_555
O5 Zn1 2.045880 1_555
O5 V7 2.098263 1_545
O5 V2 2.101416 1_455
O6 Zn4 2.002511 1_545
O6 V4 2.279942 1_555
O6 V1 2.376335 1_555
O6 V0 2.473223 1_655
O7 V11 1.951989 1_554
O7 V3 2.365291 1_565
O7 V0 2.382657 1_655
O7 V1 2.399507 1_555
O8 V4 2.016894 1_555
O8 V5 2.068306 1_555
O8 V2 2.070333 1_455
O8 Zn1 2.075019 1_565
O9 Zn3 2.022010 1_555
O9 V7 2.053610 1_545
O9 V2 2.057562 1_455
O9 V5 2.130596 1_555
O10 Zn4 1.974444 1_555
O10 V4 2.107224 1_555
O10 V0 2.593835 1_655
O10 V3 2.632361 1_565
O11 V4 2.014828 1_555
O11 V5 2.062669 1_555
O11 V7 2.072173 1_545
O11 Zn1 2.073021 1_655
O12 Zn5 2.045893 1_455
O12 V5 2.046061 1_555
O12 V7 2.069562 1_555
O12 V9 2.071409 1_555
O13 Zn3 2.040393 1_555
O13 V9 2.041482 1_555
O13 V6 2.044524 1_555
O13 V8 2.120163 1_555
O14 Zn5 2.037524 1_545
O14 V5 2.041404 1_555
O14 V2 2.060159 1_555
O14 V9 2.090700 1_555
O15 V7 2.038173 1_555
O15 V2 2.043937 1_555
O15 Zn4 2.102101 1_555
O15 V5 2.127292 1_555
O16 V8 2.044478 1_555
O16 Zn0 2.058408 1_556
O16 V6 2.061546 1_555
O16 V10 2.083917 1_555
O17 Zn3 2.030704 1_565
O17 V10 2.041304 1_555
O17 V9 2.077434 1_555
O17 V6 2.088726 1_555
O18 Zn5 2.028994 1_555
O18 V9 2.035625 1_555
O18 V7 2.077822 1_555
O18 V2 2.083021 1_555
O19 Zn3 2.043522 1_655
O19 V8 2.046412 1_555
O19 V9 2.061214 1_555
O19 V10 2.090502 1_555
O20 V11 1.987337 1_455
O20 V8 2.047601 1_565
O20 V10 2.101637 1_555
O20 Zn2 2.183607 1_555
O21 Zn5 2.024800 1_555
O21 V8 2.061393 1_565
O21 V6 2.078164 1_655
O21 V10 2.096624 1_555
O22 V11 1.984000 1_545
O22 V10 2.051353 1_555
O22 V6 2.104896 1_655
O22 Zn2 2.188210 1_555
O23 V11 1.992467 1_555
O23 V6 2.052131 1_655
O23 Zn2 2.115995 1_555
O23 V8 2.128170 1_565
