# generated using pymatgen
data_Dy4CdPd
_symmetry_space_group_name_H-M   'P 1'
_cell_length_a   9.64027885
_cell_length_b   9.64028829
_cell_length_c   9.64029020
_cell_angle_alpha   59.99996111
_cell_angle_beta   60.00001968
_cell_angle_gamma   60.00002970
_symmetry_Int_Tables_number   1
_chemical_formula_structural   Dy4CdPd
_chemical_formula_sum   'Dy16 Cd4 Pd4'
_cell_volume   633.51187806
_cell_formula_units_Z   4
loop_
 _symmetry_equiv_pos_site_id
 _symmetry_equiv_pos_as_xyz
  1  'x, y, z'
loop_
 _atom_site_type_symbol
 _atom_site_label
 _atom_site_symmetry_multiplicity
 _atom_site_fract_x
 _atom_site_fract_y
 _atom_site_fract_z
 _atom_site_occupancy
  Dy  Dy0  1  0.60391010  0.60390908  0.60390411  1
  Dy  Dy1  1  0.60390653  0.60390602  0.18827893  1
  Dy  Dy2  1  0.60390894  0.18827797  0.60390319  1
  Dy  Dy3  1  0.18827760  0.60390906  0.60390392  1
  Dy  Dy4  1  0.06020559  0.43979668  0.43979308  1
  Dy  Dy5  1  0.43979419  0.06020350  0.06020805  1
  Dy  Dy6  1  0.43979671  0.06020564  0.43979349  1
  Dy  Dy7  1  0.06020321  0.43979415  0.06020808  1
  Dy  Dy8  1  0.43979429  0.43979407  0.06020915  1
  Dy  Dy9  1  0.06020566  0.06020481  0.43979294  1
  Dy  Dy10  1  0.18455741  0.81544546  0.81544170  1
  Dy  Dy11  1  0.81544117  0.18455821  0.18455935  1
  Dy  Dy12  1  0.81544508  0.18455815  0.81544082  1
  Dy  Dy13  1  0.18455765  0.81544137  0.18455828  1
  Dy  Dy14  1  0.81544141  0.81544117  0.18455969  1
  Dy  Dy15  1  0.18455721  0.18455687  0.81544024  1
  Cd  Cd0  1  0.83171796  0.83171896  0.83171559  1
  Cd  Cd1  1  0.83171676  0.83171785  0.50484969  1
  Cd  Cd2  1  0.83171843  0.50484648  0.83171600  1
  Cd  Cd3  1  0.50484847  0.83171814  0.83171468  1
  Pd  Pd0  1  0.39459354  0.39459872  0.39460242  1
  Pd  Pd1  1  0.39459771  0.39459564  0.81620932  1
  Pd  Pd2  1  0.39459810  0.81620692  0.39459844  1
  Pd  Pd3  1  0.81620727  0.39459609  0.39459884  1
loop_
_geom_bond_atom_site_label_1
_geom_bond_atom_site_label_2
_geom_bond_distance
_geom_bond_site_symmetry_2
Dy0 Pd2 2.853740 1_555
Dy0 Pd3 2.853748 1_555
Dy0 Pd1 2.853796 1_555
Dy0 Dy14 3.511466 1_555
Dy0 Dy12 3.511525 1_555
Dy0 Dy10 3.511543 1_555
Dy1 Pd0 2.853757 1_555
Dy1 Pd3 2.853761 1_555
Dy1 Pd2 2.853763 1_555
Dy1 Dy11 3.511498 1_555
Dy1 Dy13 3.511506 1_555
Dy1 Dy14 3.511519 1_555
Dy2 Pd0 2.853730 1_555
Dy2 Pd3 2.853731 1_555
Dy2 Pd1 2.853787 1_555
Dy3 Pd0 2.853705 1_555
Dy3 Pd2 2.853744 1_555
Dy3 Pd1 2.853794 1_555
Dy4 Pd0 2.855183 1_555
Dy4 Pd3 2.855212 1_455
Dy5 Pd2 2.855191 1_545
Dy5 Pd1 2.855209 1_554
Dy6 Pd2 2.855211 1_545
Dy6 Pd0 2.855216 1_555
Dy7 Pd3 2.855192 1_455
Dy7 Pd1 2.855224 1_554
Dy8 Pd0 2.855213 1_555
Dy8 Pd1 2.855230 1_554
Dy9 Pd3 2.855204 1_455
Dy9 Pd2 2.855209 1_545
Dy10 Pd2 3.511396 1_555
Dy10 Pd1 3.511433 1_555
Dy10 Dy3 3.511551 1_555
Dy10 Dy15 3.558332 1_565
Dy10 Dy12 3.558351 1_465
Dy10 Dy13 3.558372 1_556
Dy10 Dy14 3.558394 1_456
Dy10 Dy6 3.617544 1_565
Dy10 Dy9 3.617552 1_565
Dy10 Dy8 3.617577 1_556
Dy10 Dy7 3.617582 1_556
Dy11 Pd3 3.511385 1_555
Dy11 Pd0 3.511424 1_555
Dy11 Dy2 3.511466 1_555
Dy11 Dy13 3.558391 1_645
Dy11 Dy12 3.558391 1_554
Dy11 Dy14 3.558392 1_545
Dy11 Dy15 3.558400 1_654
Dy11 Dy6 3.617518 1_555
Dy11 Dy9 3.617525 1_655
Dy11 Dy8 3.617527 1_555
Dy11 Dy7 3.617531 1_655
Dy12 Pd3 3.511381 1_555
Dy12 Pd1 3.511407 1_555
Dy12 Dy2 3.511547 1_555
Dy12 Dy15 3.558335 1_655
Dy12 Dy14 3.558401 1_546
Dy12 Dy4 3.617540 1_655
Dy12 Dy9 3.617556 1_655
Dy12 Dy8 3.617578 1_556
Dy12 Dy5 3.617580 1_556
Dy13 Pd0 3.511385 1_555
Dy13 Pd2 3.511406 1_555
Dy13 Dy3 3.511479 1_555
Dy13 Dy14 3.558378 1_455
Dy13 Dy15 3.558390 1_564
Dy13 Dy4 3.617519 1_555
Dy13 Dy8 3.617530 1_555
Dy13 Dy9 3.617534 1_565
Dy13 Dy5 3.617540 1_565
Dy14 Pd2 3.511381 1_555
Dy14 Pd3 3.511396 1_555
Dy14 Dy4 3.617522 1_655
Dy14 Dy6 3.617530 1_565
Dy14 Dy5 3.617537 1_565
Dy14 Dy7 3.617540 1_655
Dy15 Pd0 3.511353 1_555
Dy15 Pd1 3.511414 1_555
Dy15 Dy2 3.511531 1_555
Dy15 Dy3 3.511534 1_555
Dy15 Dy6 3.617537 1_555
Dy15 Dy4 3.617538 1_555
Dy15 Dy5 3.617579 1_556
Dy15 Dy7 3.617584 1_556
Cd0 Cd1 3.151093 1_555
Cd0 Cd3 3.151121 1_555
Cd0 Cd2 3.151141 1_555
Cd0 Dy12 3.252164 1_565
Cd0 Dy10 3.252164 1_655
Cd0 Dy14 3.252183 1_556
Cd0 Dy2 3.344658 1_565
Cd0 Dy3 3.344664 1_655
Cd0 Dy1 3.344687 1_556
Cd0 Dy9 3.490844 1_665
Cd0 Dy5 3.490865 1_566
Cd0 Dy7 3.490870 1_656
Cd1 Cd3 3.151088 1_555
Cd1 Cd2 3.151108 1_555
Cd1 Dy11 3.252163 1_565
Cd1 Dy13 3.252172 1_655
Cd1 Dy14 3.252173 1_555
Cd1 Dy2 3.344630 1_565
Cd1 Dy3 3.344635 1_655
Cd1 Dy0 3.344637 1_555
Cd1 Dy9 3.490836 1_665
Cd1 Dy6 3.490842 1_565
Cd1 Dy4 3.490857 1_655
Cd2 Cd3 3.151129 1_555
Cd2 Dy12 3.252138 1_555
Cd2 Dy15 3.252153 1_655
Cd2 Dy11 3.252170 1_556
Cd2 Dy0 3.344648 1_555
Cd2 Dy3 3.344659 1_655
Cd2 Dy1 3.344681 1_556
Cd2 Dy4 3.490845 1_655
Cd2 Dy8 3.490861 1_556
Cd2 Dy7 3.490865 1_656
Cd3 Dy10 3.252146 1_555
Cd3 Dy15 3.252160 1_565
Cd3 Dy13 3.252184 1_556
Cd3 Dy0 3.344650 1_555
Cd3 Dy2 3.344656 1_565
Cd3 Dy1 3.344682 1_556
Cd3 Dy6 3.490836 1_565
Cd3 Dy8 3.490868 1_556
Cd3 Dy5 3.490875 1_566
