# generated using pymatgen
data_Li3V5O12
_symmetry_space_group_name_H-M   'P 1'
_cell_length_a   5.64446714
_cell_length_b   6.91212853
_cell_length_c   6.91809999
_cell_angle_alpha   103.89193466
_cell_angle_beta   72.62379359
_cell_angle_gamma   107.36279993
_symmetry_Int_Tables_number   1
_chemical_formula_structural   Li3V5O12
_chemical_formula_sum   'Li3 V5 O12'
_cell_volume   242.45624517
_cell_formula_units_Z   1
loop_
 _symmetry_equiv_pos_site_id
 _symmetry_equiv_pos_as_xyz
  1  'x, y, z'
loop_
 _atom_site_type_symbol
 _atom_site_label
 _atom_site_symmetry_multiplicity
 _atom_site_fract_x
 _atom_site_fract_y
 _atom_site_fract_z
 _atom_site_occupancy
  Li  Li0  1  0.75006900  0.09086800  0.09114100  1
  Li  Li1  1  0.24973800  0.28524500  0.28555300  1
  Li  Li2  1  0.74960400  0.72522600  0.72517100  1
  V  V0  1  0.73427500  0.18079500  0.62523800  1
  V  V1  1  0.76564500  0.62518400  0.18111400  1
  V  V2  1  0.24987000  0.92721300  0.92689500  1
  V  V3  1  0.20311600  0.38579500  0.84145800  1
  V  V4  1  0.29606600  0.84124900  0.38557300  1
  O  O0  1  0.63981000  0.01705600  0.80445600  1
  O  O1  1  0.86029900  0.80397600  0.01668100  1
  O  O2  1  0.66902400  0.02907500  0.39930700  1
  O  O3  1  0.83128900  0.39925900  0.02887200  1
  O  O4  1  0.17055500  0.20314100  0.00159400  1
  O  O5  1  0.33010600  0.00138300  0.20321700  1
  O  O6  1  0.56350600  0.36914500  0.69125600  1
  O  O7  1  0.93616600  0.69084600  0.36940500  1
  O  O8  1  0.06974200  0.29212200  0.59381800  1
  O  O9  1  0.43045000  0.59350900  0.29194100  1
  O  O10  1  0.31518400  0.65292800  0.88466400  1
  O  O11  1  0.18548500  0.88598400  0.65264300  1
loop_
_geom_bond_atom_site_label_1
_geom_bond_atom_site_label_2
_geom_bond_distance
_geom_bond_site_symmetry_2
Li0 O1 2.153915 1_545
Li0 O0 2.154765 1_554
Li0 O2 2.162155 1_555
Li0 O3 2.163181 1_555
Li0 O5 2.204603 1_555
Li0 O4 2.207368 1_655
Li1 O4 2.053929 1_555
Li1 O5 2.054330 1_555
Li1 O9 2.065685 1_555
Li1 O8 2.066035 1_555
Li2 O0 2.183042 1_565
Li2 O1 2.185465 1_556
Li2 O10 2.323196 1_555
Li2 O11 2.332024 1_655
Li2 O6 2.354394 1_555
Li2 O7 2.354457 1_555
O0 V0 1.738171 1_555
O0 V2 2.066590 1_545
O1 V1 1.739181 1_555
O1 V2 2.065672 1_654
O2 V0 1.733399 1_555
O2 V4 2.134298 1_545
O3 V1 1.734277 1_555
O3 V3 2.127872 1_654
O4 V3 1.807366 1_554
O4 V2 2.000810 1_544
O5 V4 1.803442 1_545
O5 V2 2.007530 1_544
O6 V0 1.741595 1_555
O6 V3 2.012655 1_555
O7 V1 1.741681 1_555
O7 V4 2.009841 1_655
O8 V0 1.785968 1_455
O8 V3 1.966672 1_555
O9 V1 1.783920 1_555
O9 V4 1.968868 1_555
O10 V3 1.746335 1_555
O10 V2 1.975483 1_555
O11 V4 1.746694 1_555
O11 V2 1.975713 1_555
