# generated using pymatgen
data_Li4Co3Sn5O16
_symmetry_space_group_name_H-M   'P 1'
_cell_length_a   6.14226312
_cell_length_b   10.59201129
_cell_length_c   9.86462113
_cell_angle_alpha   89.47136081
_cell_angle_beta   89.75337390
_cell_angle_gamma   89.71927108
_symmetry_Int_Tables_number   1
_chemical_formula_structural   Li4Co3Sn5O16
_chemical_formula_sum   'Li8 Co6 Sn10 O32'
_cell_volume   641.74075866
_cell_formula_units_Z   2
loop_
 _symmetry_equiv_pos_site_id
 _symmetry_equiv_pos_as_xyz
  1  'x, y, z'
loop_
 _atom_site_type_symbol
 _atom_site_label
 _atom_site_symmetry_multiplicity
 _atom_site_fract_x
 _atom_site_fract_y
 _atom_site_fract_z
 _atom_site_occupancy
  Li  Li0  1  0.50415300  0.16904400  0.89083000  1
  Li  Li1  1  0.00206100  0.66850600  0.89302400  1
  Li  Li2  1  0.96404100  0.01095300  0.98546500  1
  Li  Li3  1  0.46681300  0.51099000  0.98470800  1
  Li  Li4  1  0.98637800  0.00019400  0.49896300  1
  Li  Li5  1  0.49068000  0.50175100  0.49780800  1
  Li  Li6  1  0.50091700  0.83129700  0.40477800  1
  Li  Li7  1  0.00868300  0.33511400  0.40540200  1
  Co  Co0  1  0.24622600  0.58627400  0.21598200  1
  Co  Co1  1  0.74700900  0.91260000  0.71375500  1
  Co  Co2  1  0.24419400  0.41883300  0.71065300  1
  Co  Co3  1  0.74317500  0.08452000  0.21528700  1
  Co  Co4  1  0.50554700  0.66816500  0.71318700  1
  Co  Co5  1  0.00594400  0.16852700  0.71261400  1
  Sn  Sn0  1  0.50495900  0.33044400  0.21357900  1
  Sn  Sn1  1  0.99766000  0.83152100  0.21630800  1
  Sn  Sn2  1  0.51132700  0.15930600  0.49656300  1
  Sn  Sn3  1  0.00426700  0.66254800  0.49520500  1
  Sn  Sn4  1  0.25201800  0.08408500  0.21372600  1
  Sn  Sn5  1  0.75596000  0.58430500  0.21320500  1
  Sn  Sn6  1  0.25222200  0.91241100  0.71521800  1
  Sn  Sn7  1  0.75591900  0.41287100  0.71575800  1
  Sn  Sn8  1  0.51177800  0.83366800  0.98497700  1
  Sn  Sn9  1  0.01043700  0.33346300  0.98199000  1
  O  O0  1  0.51701300  0.33393900  0.58941100  1
  O  O1  1  0.00614900  0.83339300  0.59461800  1
  O  O2  1  0.27875100  0.23965300  0.34481900  1
  O  O3  1  0.76930400  0.74214600  0.34486400  1
  O  O4  1  0.51391900  0.16145900  0.10641700  1
  O  O5  1  0.99653200  0.67145700  0.10033200  1
  O  O6  1  0.98314200  0.00591800  0.31149300  1
  O  O7  1  0.50286000  0.49814200  0.31295900  1
  O  O8  1  0.98487100  0.99191000  0.80391500  1
  O  O9  1  0.48619400  0.50313900  0.79941900  1
  O  O10  1  0.24660600  0.07380000  0.58854200  1
  O  O11  1  0.73160000  0.58603100  0.60067800  1
  O  O12  1  0.73277900  0.22961600  0.33494500  1
  O  O13  1  0.22149400  0.74683300  0.34665200  1
  O  O14  1  0.51434400  0.01627100  0.33313600  1
  O  O15  1  0.99353000  0.51662900  0.34609000  1
  O  O16  1  0.23852200  0.91973400  0.09443500  1
  O  O17  1  0.74420600  0.41969500  0.09338400  1
  O  O18  1  0.75159800  0.06822200  0.60266400  1
  O  O19  1  0.25162800  0.57237500  0.59992900  1
  O  O20  1  0.48371100  0.98542500  0.84824000  1
  O  O21  1  0.99005600  0.48830200  0.84621600  1
  O  O22  1  0.29212500  0.74772900  0.83841000  1
  O  O23  1  0.77781200  0.25790100  0.84770000  1
  O  O24  1  0.51569600  0.82779100  0.61579800  1
  O  O25  1  0.01650200  0.34129900  0.60900300  1
  O  O26  1  0.75253800  0.92781600  0.10331600  1
  O  O27  1  0.25765300  0.41431400  0.09795600  1
  O  O28  1  0.73959400  0.77034600  0.84030300  1
  O  O29  1  0.23906700  0.27131900  0.83588100  1
  O  O30  1  0.50540600  0.66531800  0.09519500  1
  O  O31  1  0.99272800  0.16098800  0.09996800  1
loop_
_geom_bond_atom_site_label_1
_geom_bond_atom_site_label_2
_geom_bond_distance
_geom_bond_site_symmetry_2
Li0 O23 1.973362 1_555
Li0 O20 1.998204 1_545
Li0 O29 2.024341 1_555
Li0 O4 2.128553 1_556
Li1 O21 1.969721 1_455
Li1 O28 2.003216 1_455
Li1 O22 2.041252 1_555
Li1 O5 2.045675 1_456
Li2 O8 1.808009 1_545
Li2 O26 1.947811 1_546
Li2 O31 1.967214 1_556
Li2 O16 2.216279 1_646
Li3 O9 1.833793 1_555
Li3 O27 1.981541 1_556
Li3 O30 1.988733 1_556
Li3 O17 2.228862 1_556
Li4 O6 1.849944 1_555
Li4 O18 1.906825 1_555
Li4 O10 1.995150 1_655
Li4 O1 1.998671 1_645
Li5 O7 1.825423 1_555
Li5 O19 1.928931 1_555
Li5 O0 1.992711 1_555
Li5 O11 2.014708 1_555
Li6 O3 1.986257 1_555
Li6 O13 2.026771 1_555
Li6 O14 2.078566 1_565
Li6 O24 2.083982 1_555
Li7 O15 2.006334 1_455
Li7 O25 2.010907 1_555
Li7 O2 2.029144 1_555
Li7 O12 2.155617 1_455
Co0 O7 2.062383 1_555
Co0 O5 2.109573 1_455
Co0 O15 2.139428 1_455
Co0 O13 2.147800 1_555
Co0 O30 2.152513 1_555
Co0 O27 2.171442 1_555
Co1 O8 1.915271 1_555
Co1 O28 1.948393 1_555
Co1 O24 1.949273 1_555
Co1 O18 1.971203 1_565
Co1 O1 2.146528 1_655
Co1 O20 2.226804 1_555
Co2 O25 1.916865 1_555
Co2 O19 1.951289 1_555
Co2 O9 1.952499 1_555
Co2 O29 1.983146 1_555
Co2 O21 2.180673 1_455
Co2 O0 2.243852 1_555
Co3 O6 1.936944 1_555
Co3 O4 1.945772 1_555
Co3 O12 1.947094 1_555
Co3 O14 1.957036 1_555
Co3 O26 2.002663 1_545
Co3 O31 2.068766 1_555
Co4 O24 1.938055 1_555
Co4 O9 1.940828 1_555
Co4 O11 1.977171 1_555
Co4 O22 1.987212 1_555
Co4 O19 2.182101 1_555
Co4 O28 2.205949 1_555
Co5 O8 2.073121 1_445
Co5 O25 2.088983 1_555
Co5 O23 2.151649 1_455
Co5 O10 2.163874 1_555
Co5 O29 2.183823 1_555
Co5 O18 2.190416 1_455
O0 Sn2 2.072131 1_555
O0 Sn7 2.110149 1_555
O1 Sn3 2.066282 1_555
O1 Sn6 2.108682 1_555
O2 Sn4 2.111458 1_555
O2 Sn0 2.122736 1_555
O2 Sn2 2.233537 1_555
O3 Sn1 2.108858 1_555
O3 Sn5 2.128599 1_555
O3 Sn3 2.230818 1_655
O4 Sn0 2.087504 1_555
O4 Sn4 2.088603 1_555
O5 Sn1 2.054087 1_555
O5 Sn5 2.062914 1_555
O6 Sn4 2.080398 1_655
O6 Sn1 2.081221 1_545
O7 Sn0 2.036698 1_555
O7 Sn5 2.049927 1_555
O8 Sn6 2.039342 1_655
O9 Sn7 2.080205 1_555
O10 Sn2 2.067345 1_555
O10 Sn6 2.108378 1_545
O11 Sn3 2.127691 1_655
O11 Sn7 2.152989 1_555
O12 Sn0 2.123260 1_555
O12 Sn2 2.217193 1_555
O13 Sn1 2.080856 1_455
O13 Sn3 2.166891 1_555
O14 Sn4 2.118740 1_555
O14 Sn2 2.222432 1_555
O15 Sn5 2.085758 1_555
O15 Sn3 2.144918 1_655
O16 Sn4 2.112369 1_565
O16 Sn1 2.117691 1_455
O16 Sn8 2.191244 1_554
O17 Sn0 2.106402 1_555
O17 Sn5 2.117139 1_555
O17 Sn9 2.168924 1_654
O18 Sn2 2.045717 1_555
O19 Sn3 2.066153 1_555
O20 Sn6 2.094579 1_555
O20 Sn8 2.095755 1_555
O21 Sn7 2.099736 1_555
O21 Sn9 2.111454 1_655
O22 Sn6 2.130440 1_555
O22 Sn8 2.189148 1_555
O23 Sn7 2.089592 1_555
O23 Sn9 2.117572 1_655
O24 Sn6 2.091058 1_555
O25 Sn7 2.057637 1_455
O26 Sn1 2.127901 1_555
O26 Sn8 2.143565 1_554
O27 Sn0 2.092964 1_555
O27 Sn9 2.096076 1_554
O28 Sn8 2.106169 1_555
O29 Sn9 2.115121 1_555
O30 Sn8 2.080357 1_554
O30 Sn5 2.108074 1_555
O31 Sn4 2.108331 1_655
O31 Sn9 2.159934 1_654
