# generated using pymatgen
data_Sb2H12Pd(CCl)4
_symmetry_space_group_name_H-M   'P 1'
_cell_length_a   10.20566858
_cell_length_b   10.45607756
_cell_length_c   14.00170460
_cell_angle_alpha   90.00000000
_cell_angle_beta   105.42488136
_cell_angle_gamma   90.00000000
_symmetry_Int_Tables_number   1
_chemical_formula_structural   Sb2H12Pd(CCl)4
_chemical_formula_sum   'Sb8 H48 Pd4 C16 Cl16'
_cell_volume   1440.32065255
_cell_formula_units_Z   4
loop_
 _symmetry_equiv_pos_site_id
 _symmetry_equiv_pos_as_xyz
  1  'x, y, z'
loop_
 _atom_site_type_symbol
 _atom_site_label
 _atom_site_symmetry_multiplicity
 _atom_site_fract_x
 _atom_site_fract_y
 _atom_site_fract_z
 _atom_site_occupancy
  Sb  Sb0  1  0.20218447  0.42843929  0.39354845  1
  Sb  Sb1  1  0.79781553  0.92843929  0.10645155  1
  Sb  Sb2  1  0.79781553  0.57156071  0.60645155  1
  Sb  Sb3  1  0.20218447  0.07156071  0.89354845  1
  Sb  Sb4  1  0.35579845  0.75055124  0.38692754  1
  Sb  Sb5  1  0.64420155  0.25055124  0.11307246  1
  Sb  Sb6  1  0.64420155  0.24944876  0.61307246  1
  Sb  Sb7  1  0.35579845  0.74944876  0.88692754  1
  H  H0  1  0.02822223  0.27125563  0.44999924  1
  H  H1  1  0.97177777  0.77125563  0.05000076  1
  H  H2  1  0.97177777  0.72874437  0.55000076  1
  H  H3  1  0.02822223  0.22874437  0.94999924  1
  H  H4  1  0.13433464  0.17956560  0.38979275  1
  H  H5  1  0.86566536  0.67956560  0.11020725  1
  H  H6  1  0.86566536  0.82043440  0.61020725  1
  H  H7  1  0.13433464  0.32043440  0.88979275  1
  H  H8  1  0.19912326  0.23127726  0.51722438  1
  H  H9  1  0.80087674  0.73127726  0.98277562  1
  H  H10  1  0.80087674  0.76872274  0.48277562  1
  H  H11  1  0.19912326  0.26872274  0.01722438  1
  H  H12  1  0.19619300  0.30035957  0.22529455  1
  H  H13  1  0.80380700  0.80035957  0.27470545  1
  H  H14  1  0.80380700  0.69964043  0.77470545  1
  H  H15  1  0.19619300  0.19964043  0.72529455  1
  H  H16  1  0.07195898  0.42785862  0.19920964  1
  H  H17  1  0.92804102  0.92785862  0.30079036  1
  H  H18  1  0.92804102  0.57214138  0.80079036  1
  H  H19  1  0.07195898  0.07214138  0.69920964  1
  H  H20  1  0.24984461  0.46224478  0.21398825  1
  H  H21  1  0.75015539  0.96224478  0.28601175  1
  H  H22  1  0.75015539  0.53775522  0.78601175  1
  H  H23  1  0.24984461  0.03775522  0.71398825  1
  H  H24  1  0.30191299  0.69252984  0.19173081  1
  H  H25  1  0.69808701  0.19252984  0.30826919  1
  H  H26  1  0.69808701  0.30747016  0.80826919  1
  H  H27  1  0.30191299  0.80747016  0.69173081  1
  H  H28  1  0.14646833  0.69381799  0.23117168  1
  H  H29  1  0.85353167  0.19381799  0.26882832  1
  H  H30  1  0.85353167  0.30618201  0.76882832  1
  H  H31  1  0.14646833  0.80618201  0.73117168  1
  H  H32  1  0.22330520  0.84240019  0.20870365  1
  H  H33  1  0.77669480  0.34240019  0.29129635  1
  H  H34  1  0.77669480  0.15759981  0.79129635  1
  H  H35  1  0.22330520  0.65759981  0.70870365  1
  H  H36  1  0.58070221  0.89256658  0.45796175  1
  H  H37  1  0.41929779  0.39256658  0.04203825  1
  H  H38  1  0.41929779  0.10743342  0.54203825  1
  H  H39  1  0.58070221  0.60743342  0.95796175  1
  H  H40  1  0.54151992  0.87846983  0.32382713  1
  H  H41  1  0.45848008  0.37846983  0.17617287  1
  H  H42  1  0.45848008  0.12153017  0.67617287  1
  H  H43  1  0.54151992  0.62153017  0.82382713  1
  H  H44  1  0.44752682  0.98881386  0.37924362  1
  H  H45  1  0.55247318  0.48881386  0.12075638  1
  H  H46  1  0.55247318  0.01118614  0.62075638  1
  H  H47  1  0.44752682  0.51118614  0.87924362  1
  Pd  Pd0  1  0.37852617  0.56910485  0.51047384  1
  Pd  Pd1  1  0.62147383  0.06910485  0.98952616  1
  Pd  Pd2  1  0.62147383  0.43089515  0.48952616  1
  Pd  Pd3  1  0.37852617  0.93089515  0.01047384  1
  C  C0  1  0.13182927  0.25400837  0.44452404  1
  C  C1  1  0.86817073  0.75400837  0.05547596  1
  C  C2  1  0.86817073  0.74599163  0.55547596  1
  C  C3  1  0.13182927  0.24599163  0.94452404  1
  C  C4  1  0.17654008  0.40150678  0.23710239  1
  C  C5  1  0.82345992  0.90150678  0.26289761  1
  C  C6  1  0.82345992  0.59849322  0.76289761  1
  C  C7  1  0.17654008  0.09849322  0.73710239  1
  C  C8  1  0.24197180  0.74311930  0.23415787  1
  C  C9  1  0.75802820  0.24311930  0.26584213  1
  C  C10  1  0.75802820  0.25688070  0.76584213  1
  C  C11  1  0.24197180  0.75688070  0.73415787  1
  C  C12  1  0.50203968  0.89733385  0.38795949  1
  C  C13  1  0.49796032  0.39733385  0.11204051  1
  C  C14  1  0.49796032  0.10266615  0.61204051  1
  C  C15  1  0.50203968  0.60266615  0.88795949  1
  Cl  Cl0  1  0.98976584  0.54567643  0.36648563  1
  Cl  Cl1  1  0.01023416  0.04567643  0.13351437  1
  Cl  Cl2  1  0.01023416  0.45432357  0.63351437  1
  Cl  Cl3  1  0.98976584  0.95432357  0.86648563  1
  Cl  Cl4  1  0.19776615  0.88680122  0.44147295  1
  Cl  Cl5  1  0.80223385  0.38680122  0.05852705  1
  Cl  Cl6  1  0.80223385  0.11319878  0.55852705  1
  Cl  Cl7  1  0.19776615  0.61319878  0.94147295  1
  Cl  Cl8  1  0.40509882  0.41197152  0.63966076  1
  Cl  Cl9  1  0.59490118  0.91197152  0.86033924  1
  Cl  Cl10  1  0.59490118  0.58802848  0.36033924  1
  Cl  Cl11  1  0.40509882  0.08802848  0.13966076  1
  Cl  Cl12  1  0.54221500  0.71042246  0.61320364  1
  Cl  Cl13  1  0.45778500  0.21042246  0.88679636  1
  Cl  Cl14  1  0.45778500  0.28957754  0.38679636  1
  Cl  Cl15  1  0.54221500  0.78957754  0.11320364  1
loop_
_geom_bond_atom_site_label_1
_geom_bond_atom_site_label_2
_geom_bond_distance
_geom_bond_site_symmetry_2
Pd0 Sb4 2.536179 1_555
Pd0 Sb0 2.552471 1_555
Pd1 Sb5 2.536179 1_556
Pd1 Sb1 2.552471 1_546
Pd2 Sb6 2.536179 1_555
Pd2 Sb2 2.552471 1_555
Pd3 Sb7 2.536179 1_554
Pd3 Sb3 2.552471 1_564
C0 H8 1.091996 1_555
C0 H0 1.095249 1_555
C0 H4 1.097367 1_555
C0 Sb0 2.150368 1_555
C1 H9 1.091996 1_554
C1 H1 1.095249 1_555
C1 H5 1.097367 1_555
C1 Sb1 2.150368 1_555
C2 H10 1.091996 1_555
C2 H2 1.095249 1_555
C2 H6 1.097367 1_555
C2 Sb2 2.150368 1_555
C3 H11 1.091996 1_556
C3 H3 1.095249 1_555
C3 H7 1.097367 1_555
C3 Sb3 2.150368 1_555
C4 H16 1.093324 1_555
C4 H20 1.093870 1_555
C4 H12 1.097145 1_555
C4 Sb0 2.154339 1_555
C5 H17 1.093324 1_555
C5 H21 1.093870 1_555
C5 H13 1.097145 1_555
C5 Sb1 2.154339 1_555
C6 H18 1.093324 1_555
C6 H22 1.093870 1_555
C6 H14 1.097145 1_555
C6 Sb2 2.154339 1_555
C7 H19 1.093324 1_555
C7 H23 1.093870 1_555
C7 H15 1.097145 1_555
C7 Sb3 2.154339 1_555
C8 H28 1.093528 1_555
C8 H24 1.095556 1_555
C8 H32 1.097645 1_555
C8 Sb4 2.146900 1_555
C9 H29 1.093528 1_555
C9 H25 1.095556 1_555
C9 H33 1.097645 1_555
C9 Sb5 2.146900 1_555
C10 H30 1.093528 1_555
C10 H26 1.095556 1_555
C10 H34 1.097645 1_555
C10 Sb6 2.146900 1_555
C11 H31 1.093528 1_555
C11 H27 1.095556 1_555
C11 H35 1.097645 1_555
C11 Sb7 2.146900 1_555
C12 H36 1.090459 1_555
C12 H40 1.095469 1_555
C12 H44 1.096916 1_555
C12 Sb4 2.138173 1_555
C13 H37 1.090459 1_555
C13 H41 1.095469 1_555
C13 H45 1.096916 1_555
C13 Sb5 2.138173 1_555
C14 H38 1.090459 1_555
C14 H42 1.095469 1_555
C14 H46 1.096916 1_555
C14 Sb6 2.138173 1_555
C15 H39 1.090459 1_555
C15 H43 1.095469 1_555
C15 H47 1.096916 1_555
C15 Sb7 2.138173 1_555
Cl0 Sb0 2.430838 1_655
Cl1 Sb1 2.430838 1_445
Cl2 Sb2 2.430838 1_455
Cl3 Sb3 2.430838 1_665
Cl4 Sb4 2.422668 1_555
Cl5 Sb5 2.422668 1_555
Cl6 Sb6 2.422668 1_555
Cl7 Sb7 2.422668 1_555
Cl8 Pd0 2.404982 1_555
Cl8 Sb6 3.076398 1_555
Cl9 Pd1 2.404982 1_565
Cl9 Sb7 3.076398 1_555
Cl10 Pd2 2.404982 1_555
Cl10 Sb4 3.076398 1_555
Cl11 Pd3 2.404982 1_545
Cl11 Sb5 3.076398 1_555
Cl12 Pd0 2.401016 1_555
Cl12 Sb2 3.008811 1_555
Cl13 Pd1 2.401016 1_555
Cl13 Sb3 3.008811 1_555
Cl14 Pd2 2.401016 1_555
Cl14 Sb0 3.008811 1_555
Cl15 Pd3 2.401016 1_555
Cl15 Sb1 3.008811 1_555
