# generated using pymatgen
data_Te2Mo(WSe2)3
_symmetry_space_group_name_H-M   'P 1'
_cell_length_a   3.37792624
_cell_length_b   3.37792624
_cell_length_c   38.52153800
_cell_angle_alpha   90.00000000
_cell_angle_beta   90.00000000
_cell_angle_gamma   120.00000461
_symmetry_Int_Tables_number   1
_chemical_formula_structural   Te2Mo(WSe2)3
_chemical_formula_sum   'Te2 Mo1 W3 Se6'
_cell_volume   380.65764193
_cell_formula_units_Z   1
loop_
 _symmetry_equiv_pos_site_id
 _symmetry_equiv_pos_as_xyz
  1  'x, y, z'
loop_
 _atom_site_type_symbol
 _atom_site_label
 _atom_site_symmetry_multiplicity
 _atom_site_fract_x
 _atom_site_fract_y
 _atom_site_fract_z
 _atom_site_occupancy
  Te  Te0  1  0.33333300  0.66666700  0.04505100  1
  Te  Te1  1  0.33333300  0.66666700  0.14278800  1
  Mo  Mo0  1  0.00000000  0.00000000  0.09391300  1
  W  W0  1  0.00000000  0.00000000  0.46966700  1
  W  W1  1  0.33333300  0.66666700  0.28181400  1
  W  W2  1  0.33333300  0.66666700  0.65753300  1
  Se  Se0  1  0.00000000  0.00000000  0.32501300  1
  Se  Se1  1  0.00000000  0.00000000  0.70073700  1
  Se  Se2  1  0.33333300  0.66666700  0.42646400  1
  Se  Se3  1  0.33333300  0.66666700  0.51286400  1
  Se  Se4  1  0.00000000  0.00000000  0.23858700  1
  Se  Se5  1  0.00000000  0.00000000  0.61431500  1
loop_
_geom_bond_atom_site_label_1
_geom_bond_atom_site_label_2
_geom_bond_distance
_geom_bond_site_symmetry_2
Mo0 Te0 2.710402 1_545
Mo0 Te0 2.710404 1_445
Mo0 Te0 2.710404 1_555
Mo0 Te1 2.710750 1_545
Mo0 Te1 2.710752 1_555
Mo0 Te1 2.710752 1_445
Se0 W1 2.563719 1_545
Se0 W1 2.563721 1_445
Se0 W1 2.563721 1_555
Se1 W2 2.563844 1_545
Se1 W2 2.563846 1_555
Se1 W2 2.563846 1_445
Se2 W0 2.563819 1_565
Se2 W0 2.563821 1_555
Se2 W0 2.563821 1_665
Se3 W0 2.563669 1_565
Se3 W0 2.563671 1_665
Se3 W0 2.563671 1_555
Se4 W1 2.564419 1_545
Se4 W1 2.564422 1_445
Se4 W1 2.564422 1_555
Se5 W2 2.564194 1_545
Se5 W2 2.564197 1_445
Se5 W2 2.564197 1_555
