# generated using pymatgen
data_Gd3(P3Pd10)2
_symmetry_space_group_name_H-M   'P 1'
_cell_length_a   8.70680237
_cell_length_b   8.70680237
_cell_length_c   8.70680237
_cell_angle_alpha   60.00000000
_cell_angle_beta   60.00000000
_cell_angle_gamma   60.00000000
_symmetry_Int_Tables_number   1
_chemical_formula_structural   Gd3(P3Pd10)2
_chemical_formula_sum   'Gd3 P6 Pd20'
_cell_volume   466.72499847
_cell_formula_units_Z   1
loop_
 _symmetry_equiv_pos_site_id
 _symmetry_equiv_pos_as_xyz
  1  'x, y, z'
loop_
 _atom_site_type_symbol
 _atom_site_label
 _atom_site_symmetry_multiplicity
 _atom_site_fract_x
 _atom_site_fract_y
 _atom_site_fract_z
 _atom_site_occupancy
  Gd  Gd0  1  0.75000000  0.75000000  0.75000000  1
  Gd  Gd1  1  0.25000000  0.25000000  0.25000000  1
  Gd  Gd2  1  0.00000000  0.00000000  0.00000000  1
  P  P0  1  0.73744800  0.73744800  0.26255200  1
  P  P1  1  0.26255200  0.26255200  0.73744800  1
  P  P2  1  0.73744800  0.26255200  0.73744800  1
  P  P3  1  0.26255200  0.73744800  0.26255200  1
  P  P4  1  0.26255200  0.73744800  0.73744800  1
  P  P5  1  0.73744800  0.26255200  0.26255200  1
  Pd  Pd0  1  0.61498100  0.61498100  0.61498100  1
  Pd  Pd1  1  0.38501900  0.38501900  0.38501900  1
  Pd  Pd2  1  0.15505600  0.61498100  0.61498100  1
  Pd  Pd3  1  0.61498100  0.15505600  0.61498100  1
  Pd  Pd4  1  0.84494400  0.38501900  0.38501900  1
  Pd  Pd5  1  0.38501900  0.84494400  0.38501900  1
  Pd  Pd6  1  0.61498100  0.61498100  0.15505600  1
  Pd  Pd7  1  0.38501900  0.38501900  0.84494400  1
  Pd  Pd8  1  0.00000000  0.00000000  0.65420800  1
  Pd  Pd9  1  0.00000000  0.00000000  0.34579200  1
  Pd  Pd10  1  0.34579200  0.65420800  0.00000000  1
  Pd  Pd11  1  0.65420800  0.34579200  0.00000000  1
  Pd  Pd12  1  0.00000000  0.65420800  0.00000000  1
  Pd  Pd13  1  0.65420800  0.00000000  0.34579200  1
  Pd  Pd14  1  0.00000000  0.34579200  0.00000000  1
  Pd  Pd15  1  0.34579200  0.00000000  0.65420800  1
  Pd  Pd16  1  0.65420800  0.00000000  0.00000000  1
  Pd  Pd17  1  0.34579200  0.00000000  0.00000000  1
  Pd  Pd18  1  0.00000000  0.65420800  0.34579200  1
  Pd  Pd19  1  0.00000000  0.34579200  0.65420800  1
loop_
_geom_bond_atom_site_label_1
_geom_bond_atom_site_label_2
_geom_bond_distance
_geom_bond_site_symmetry_2
Gd0 Pd3 2.879573 1_565
Gd0 Pd6 2.879573 1_556
Gd0 Pd2 2.879573 1_655
Gd0 Pd0 2.879580 1_555
Gd0 Pd16 3.358390 1_566
Gd0 Pd19 3.358390 1_655
Gd0 Pd17 3.358390 1_566
Gd0 Pd14 3.358390 1_656
Gd0 Pd15 3.358390 1_565
Gd0 Pd12 3.358390 1_656
Gd0 Pd18 3.358390 1_655
Gd0 Pd13 3.358390 1_565
Gd0 Pd10 3.358390 1_556
Gd0 Pd8 3.358390 1_665
Gd0 Pd9 3.358390 1_665
Gd0 Pd11 3.358390 1_556
Gd1 Pd4 2.879573 1_455
Gd1 Pd5 2.879573 1_545
Gd1 Pd7 2.879573 1_554
Gd1 Pd1 2.879580 1_555
Gd1 Pd14 3.358390 1_555
Gd1 Pd17 3.358390 1_555
Gd1 Pd18 3.358390 1_555
Gd1 Pd15 3.358390 1_555
Gd1 Pd12 3.358390 1_555
Gd1 Pd19 3.358390 1_555
Gd1 Pd16 3.358390 1_555
Gd1 Pd13 3.358390 1_555
Gd1 Pd9 3.358390 1_555
Gd1 Pd10 3.358390 1_555
Gd1 Pd11 3.358390 1_555
Gd1 Pd8 3.358390 1_555
Gd2 Pd14 3.010743 1_555
Gd2 Pd8 3.010743 1_554
Gd2 Pd17 3.010743 1_555
Gd2 Pd15 3.010743 1_554
Gd2 Pd10 3.010743 1_545
Gd2 Pd16 3.010743 1_455
Gd2 Pd12 3.010743 1_545
Gd2 Pd13 3.010743 1_455
Gd2 Pd9 3.010743 1_555
Gd2 Pd19 3.010743 1_554
Gd2 Pd18 3.010743 1_545
Gd2 Pd11 3.010743 1_455
Gd2 P2 3.232876 1_454
Gd2 P1 3.232876 1_554
Gd2 P5 3.232876 1_455
Gd2 P3 3.232876 1_545
Gd2 P4 3.232876 1_544
Gd2 P0 3.232876 1_445
P0 Pd13 2.398127 1_565
P0 Pd12 2.398127 1_655
P0 Pd16 2.398127 1_565
P0 Pd18 2.398127 1_655
P0 Pd4 2.506574 1_555
P0 Pd5 2.506574 1_555
P0 Pd0 2.506574 1_555
P0 Pd6 2.506581 1_555
P1 Pd19 2.398127 1_555
P1 Pd17 2.398127 1_556
P1 Pd14 2.398127 1_556
P1 Pd15 2.398127 1_555
P1 Pd2 2.506574 1_555
P1 Pd3 2.506574 1_555
P1 Pd1 2.506574 1_555
P1 Pd7 2.506581 1_555
P2 Pd16 2.398127 1_556
P2 Pd19 2.398127 1_655
P2 Pd11 2.398127 1_556
P2 Pd8 2.398127 1_655
P2 Pd4 2.506574 1_555
P2 Pd7 2.506574 1_555
P2 Pd0 2.506574 1_555
P2 Pd3 2.506581 1_555
P3 Pd10 2.398127 1_555
P3 Pd9 2.398127 1_565
P3 Pd18 2.398127 1_555
P3 Pd17 2.398127 1_565
P3 Pd2 2.506574 1_555
P3 Pd6 2.506574 1_555
P3 Pd1 2.506574 1_555
P3 Pd5 2.506581 1_555
P4 Pd10 2.398127 1_556
P4 Pd8 2.398127 1_565
P4 Pd12 2.398127 1_556
P4 Pd15 2.398127 1_565
P4 Pd5 2.506574 1_555
P4 Pd7 2.506574 1_555
P4 Pd0 2.506574 1_555
P4 Pd2 2.506581 1_555
P5 Pd9 2.398127 1_655
P5 Pd13 2.398127 1_555
P5 Pd11 2.398127 1_555
P5 Pd14 2.398127 1_655
P5 Pd3 2.506574 1_555
P5 Pd6 2.506574 1_555
P5 Pd1 2.506574 1_555
P5 Pd4 2.506581 1_555
Pd0 Pd15 3.055354 1_565
Pd0 Pd18 3.055354 1_655
Pd0 Pd10 3.055354 1_556
Pd0 Pd13 3.055354 1_565
Pd0 Pd19 3.055354 1_655
Pd0 Pd11 3.055354 1_556
Pd1 Pd15 3.055354 1_555
Pd1 Pd10 3.055354 1_555
Pd1 Pd19 3.055354 1_555
Pd1 Pd18 3.055354 1_555
Pd1 Pd13 3.055354 1_555
Pd1 Pd11 3.055354 1_555
Pd2 Pd9 3.055352 1_565
Pd2 Pd8 3.055356 1_565
Pd3 Pd9 3.055352 1_655
Pd3 Pd8 3.055356 1_655
Pd4 Pd8 3.055352 1_655
Pd4 Pd9 3.055356 1_655
Pd5 Pd8 3.055352 1_565
Pd5 Pd9 3.055356 1_565
Pd8 Pd9 2.685317 1_555
Pd10 Pd11 2.685317 1_555
Pd10 Pd17 3.010743 1_565
Pd10 Pd12 3.010743 1_555
Pd10 Pd15 3.010743 1_564
Pd10 Pd18 3.010743 1_555
Pd10 Pd7 3.055348 1_554
Pd10 Pd6 3.055348 1_555
Pd11 Pd19 3.010743 1_654
Pd11 Pd14 3.010743 1_655
Pd11 Pd16 3.010743 1_555
Pd11 Pd13 3.010743 1_555
Pd11 Pd7 3.055348 1_554
Pd11 Pd6 3.055348 1_555
Pd12 Pd14 2.685317 1_555
Pd12 Pd8 3.010743 1_564
Pd12 Pd16 3.010743 1_465
Pd12 Pd18 3.010743 1_555
Pd12 Pd7 3.055352 1_554
Pd12 Pd4 3.055352 1_455
Pd12 Pd6 3.055356 1_455
Pd12 Pd2 3.055356 1_554
Pd13 Pd15 2.685317 1_555
Pd13 Pd9 3.010743 1_655
Pd13 Pd18 3.010743 1_645
Pd13 Pd16 3.010743 1_555
Pd13 Pd5 3.055348 1_545
Pd13 Pd3 3.055348 1_555
Pd14 Pd17 3.010743 1_555
Pd14 Pd9 3.010743 1_555
Pd14 Pd19 3.010743 1_554
Pd14 Pd6 3.055352 1_455
Pd14 Pd2 3.055352 1_554
Pd14 Pd4 3.055356 1_455
Pd14 Pd7 3.055356 1_554
Pd15 Pd17 3.010743 1_556
Pd15 Pd8 3.010743 1_555
Pd15 Pd19 3.010743 1_555
Pd15 Pd5 3.055348 1_545
Pd15 Pd3 3.055348 1_555
Pd16 Pd17 2.685317 1_555
Pd16 Pd8 3.010743 1_654
Pd16 Pd7 3.055352 1_554
Pd16 Pd5 3.055352 1_545
Pd16 Pd3 3.055356 1_554
Pd16 Pd6 3.055356 1_545
Pd17 Pd9 3.010743 1_555
Pd17 Pd6 3.055352 1_545
Pd17 Pd3 3.055352 1_554
Pd17 Pd7 3.055356 1_554
Pd17 Pd5 3.055356 1_545
Pd18 Pd19 2.685317 1_555
Pd18 Pd9 3.010743 1_565
Pd18 Pd2 3.055348 1_555
Pd18 Pd4 3.055348 1_455
Pd19 Pd8 3.010743 1_555
Pd19 Pd2 3.055348 1_555
Pd19 Pd4 3.055348 1_455
