# generated using pymatgen
data_Mg2MnN2
_symmetry_space_group_name_H-M   'P 1'
_cell_length_a   5.45703085
_cell_length_b   5.45703085
_cell_length_c   6.18345030
_cell_angle_alpha   65.59071312
_cell_angle_beta   65.59071312
_cell_angle_gamma   46.91224703
_symmetry_Int_Tables_number   1
_chemical_formula_structural   Mg2MnN2
_chemical_formula_sum   'Mg4 Mn2 N4'
_cell_volume   120.05997874
_cell_formula_units_Z   2
loop_
 _symmetry_equiv_pos_site_id
 _symmetry_equiv_pos_as_xyz
  1  'x, y, z'
loop_
 _atom_site_type_symbol
 _atom_site_label
 _atom_site_symmetry_multiplicity
 _atom_site_fract_x
 _atom_site_fract_y
 _atom_site_fract_z
 _atom_site_occupancy
  Mg  Mg0  1  0.32693700  0.32693700  0.59763500  1
  Mg  Mg1  1  0.67306300  0.67306300  0.40236500  1
  Mg  Mg2  1  0.97806900  0.97806900  0.74971500  1
  Mg  Mg3  1  0.02193100  0.02193100  0.25028500  1
  Mn  Mn0  1  0.63650800  0.63650800  0.87736800  1
  Mn  Mn1  1  0.36349200  0.36349200  0.12263200  1
  N  N0  1  0.81949500  0.81949500  0.61036200  1
  N  N1  1  0.18050500  0.18050500  0.38963800  1
  N  N2  1  0.51470700  0.51470700  0.22138200  1
  N  N3  1  0.48529300  0.48529300  0.77861800  1
loop_
_geom_bond_atom_site_label_1
_geom_bond_atom_site_label_2
_geom_bond_distance
_geom_bond_site_symmetry_2
Mg0 N0 2.173640 1_455
Mg0 N0 2.173640 1_545
Mg0 N2 2.237519 1_555
Mg0 N3 2.316191 1_555
Mg0 N1 2.345733 1_555
Mg1 N1 2.173640 1_565
Mg1 N1 2.173640 1_655
Mg1 N3 2.237519 1_555
Mg1 N2 2.316191 1_555
Mg1 N0 2.345733 1_555
Mg2 N0 2.120322 1_555
Mg2 N3 2.183361 1_565
Mg2 N3 2.183361 1_655
Mg2 N1 2.235981 1_665
Mg3 N1 2.120322 1_555
Mg3 N2 2.183361 1_545
Mg3 N2 2.183361 1_455
Mg3 N0 2.235981 1_445
Mn0 N0 1.832270 1_555
Mn0 N3 1.870274 1_555
Mn0 N2 1.917016 1_556
Mn1 N1 1.832270 1_555
Mn1 N2 1.870274 1_555
Mn1 N3 1.917016 1_554
