# generated using pymatgen
data_Cs2HgPdCl6
_symmetry_space_group_name_H-M   'P 1'
_cell_length_a   7.74739854
_cell_length_b   7.74739854
_cell_length_c   7.74739854
_cell_angle_alpha   121.00495494
_cell_angle_beta   121.00495494
_cell_angle_gamma   88.26800558
_symmetry_Int_Tables_number   1
_chemical_formula_structural   Cs2HgPdCl6
_chemical_formula_sum   'Cs2 Hg1 Pd1 Cl6'
_cell_volume   323.66062072
_cell_formula_units_Z   1
loop_
 _symmetry_equiv_pos_site_id
 _symmetry_equiv_pos_as_xyz
  1  'x, y, z'
loop_
 _atom_site_type_symbol
 _atom_site_label
 _atom_site_symmetry_multiplicity
 _atom_site_fract_x
 _atom_site_fract_y
 _atom_site_fract_z
 _atom_site_occupancy
  Cs  Cs0  1  0.75000000  0.25000000  0.50000000  1
  Cs  Cs1  1  0.25000000  0.75000000  0.50000000  1
  Hg  Hg0  1  0.50000000  0.50000000  0.00000000  1
  Pd  Pd0  1  0.00000000  0.00000000  0.00000000  1
  Cl  Cl0  1  0.71258000  0.71258000  0.00000000  1
  Cl  Cl1  1  0.28742000  0.28742000  0.00000000  1
  Cl  Cl2  1  0.21723000  0.21723000  0.43446000  1
  Cl  Cl3  1  0.78277000  0.78277000  0.56554000  1
  Cl  Cl4  1  0.21723000  0.78277000  0.00000000  1
  Cl  Cl5  1  0.78277000  0.21723000  0.00000000  1
loop_
_geom_bond_atom_site_label_1
_geom_bond_atom_site_label_2
_geom_bond_distance
_geom_bond_site_symmetry_2
Cl0 Hg0 2.364064 1_555
Cl0 Cs0 3.837341 1_554
Cl0 Cs1 3.837341 1_554
Cl0 Cs1 3.837341 1_655
Cl0 Cs0 3.837341 1_565
Cl1 Hg0 2.364064 1_555
Cl1 Cs0 3.837341 1_555
Cl1 Cs1 3.837341 1_544
Cl1 Cs1 3.837341 1_555
Cl1 Cs0 3.837341 1_454
Cl2 Pd0 2.343831 1_555
Cl2 Cs1 3.889802 1_555
Cl2 Cs0 3.889802 1_555
Cl2 Cs0 3.889802 1_455
Cl2 Cs1 3.889802 1_545
Cl3 Pd0 2.343831 1_666
Cl3 Cs1 3.889802 1_555
Cl3 Cs0 3.889802 1_555
Cl3 Cs1 3.889802 1_655
Cl3 Cs0 3.889802 1_565
Cl4 Pd0 2.343831 1_565
Cl4 Cs1 3.889802 1_555
Cl4 Cs1 3.889802 1_554
Cl4 Cs0 3.889802 1_454
Cl4 Cs0 3.889802 1_565
Cl5 Pd0 2.343831 1_655
Cl5 Cs0 3.889802 1_555
Cl5 Cs1 3.889802 1_544
Cl5 Cs0 3.889802 1_554
Cl5 Cs1 3.889802 1_655
