# generated using pymatgen
data_GeBiPd6
_symmetry_space_group_name_H-M   'P 1'
_cell_length_a   7.85968564
_cell_length_b   7.85968564
_cell_length_c   7.85968523
_cell_angle_alpha   33.74172092
_cell_angle_beta   33.74172092
_cell_angle_gamma   33.74172241
_symmetry_Int_Tables_number   1
_chemical_formula_structural   GeBiPd6
_chemical_formula_sum   'Ge1 Bi1 Pd6'
_cell_volume   133.46904550
_cell_formula_units_Z   1
loop_
 _symmetry_equiv_pos_site_id
 _symmetry_equiv_pos_as_xyz
  1  'x, y, z'
loop_
 _atom_site_type_symbol
 _atom_site_label
 _atom_site_symmetry_multiplicity
 _atom_site_fract_x
 _atom_site_fract_y
 _atom_site_fract_z
 _atom_site_occupancy
  Ge  Ge0  1  0.50000000  0.50000000  0.50000000  1
  Bi  Bi0  1  0.00000000  0.00000000  0.00000000  1
  Pd  Pd0  1  0.61205200  0.61205200  0.61205200  1
  Pd  Pd1  1  0.13339300  0.13339300  0.13339300  1
  Pd  Pd2  1  0.86660700  0.86660700  0.86660700  1
  Pd  Pd3  1  0.38794800  0.38794800  0.38794800  1
  Pd  Pd4  1  0.25488800  0.25488800  0.25488800  1
  Pd  Pd5  1  0.74511200  0.74511200  0.74511200  1
loop_
_geom_bond_atom_site_label_1
_geom_bond_atom_site_label_2
_geom_bond_distance
_geom_bond_site_symmetry_2
Ge0 Pd3 2.489311 1_555
Ge0 Pd0 2.489311 1_555
Ge0 Pd1 2.735637 1_556
Ge0 Pd2 2.735637 1_554
Ge0 Pd1 2.735637 1_565
Ge0 Pd1 2.735637 1_655
Ge0 Pd2 2.735637 1_545
Ge0 Pd2 2.735637 1_455
Bi0 Pd0 2.899897 1_445
Bi0 Pd3 2.899897 1_554
Bi0 Pd0 2.899897 1_544
Bi0 Pd0 2.899897 1_454
Bi0 Pd3 2.899897 1_455
Bi0 Pd3 2.899897 1_545
Bi0 Pd2 2.963416 1_444
Bi0 Pd1 2.963416 1_555
Bi0 Pd5 3.158220 1_445
Bi0 Pd4 3.158220 1_554
Bi0 Pd4 3.158221 1_455
Bi0 Pd5 3.158221 1_544
Bi0 Pd4 3.158221 1_545
Bi0 Pd5 3.158221 1_454
Pd0 Pd4 2.686555 1_556
Pd0 Pd4 2.686555 1_565
Pd0 Pd4 2.686555 1_655
Pd0 Pd5 2.956018 1_555
Pd0 Pd2 3.162309 1_554
Pd0 Pd2 3.162309 1_455
Pd0 Pd2 3.162309 1_545
Pd1 Pd4 2.699093 1_555
Pd1 Pd5 2.903000 1_445
Pd1 Pd5 2.903000 1_544
Pd1 Pd5 2.903000 1_454
Pd1 Pd2 3.020422 1_445
Pd1 Pd2 3.020422 1_454
Pd1 Pd2 3.020422 1_544
Pd1 Pd3 3.162309 1_554
Pd1 Pd3 3.162309 1_545
Pd1 Pd3 3.162309 1_455
Pd2 Pd5 2.699093 1_555
Pd2 Pd4 2.903000 1_665
Pd2 Pd4 2.903000 1_656
Pd2 Pd4 2.903000 1_566
Pd3 Pd5 2.686555 1_554
Pd3 Pd5 2.686555 1_455
Pd3 Pd5 2.686555 1_545
Pd3 Pd4 2.956018 1_555
