# generated using pymatgen
data_NaMg30BO31
_symmetry_space_group_name_H-M   'P 1'
_cell_length_a   8.45106500
_cell_length_b   8.56892800
_cell_length_c   8.62486500
_cell_angle_alpha   90.00000000
_cell_angle_beta   90.00000000
_cell_angle_gamma   90.00000000
_symmetry_Int_Tables_number   1
_chemical_formula_structural   NaMg30BO31
_chemical_formula_sum   'Na1 Mg30 B1 O31'
_cell_volume   624.58311852
_cell_formula_units_Z   1
loop_
 _symmetry_equiv_pos_site_id
 _symmetry_equiv_pos_as_xyz
  1  'x, y, z'
loop_
 _atom_site_type_symbol
 _atom_site_label
 _atom_site_symmetry_multiplicity
 _atom_site_fract_x
 _atom_site_fract_y
 _atom_site_fract_z
 _atom_site_occupancy
  Na  Na0  1  0.00000000  0.99879300  0.00000000  1
  Mg  Mg0  1  0.00000000  0.99846400  0.50000000  1
  Mg  Mg1  1  0.50000000  0.99742600  0.00000000  1
  Mg  Mg2  1  0.00000000  0.50064300  0.00000000  1
  Mg  Mg3  1  0.00000000  0.50914800  0.50000000  1
  Mg  Mg4  1  0.50000000  0.50145200  0.00000000  1
  Mg  Mg5  1  0.50000000  0.49761700  0.50000000  1
  Mg  Mg6  1  0.74210200  0.99984400  0.75812500  1
  Mg  Mg7  1  0.74210200  0.99984400  0.24187500  1
  Mg  Mg8  1  0.25789800  0.99984400  0.75812500  1
  Mg  Mg9  1  0.25789800  0.99984400  0.24187500  1
  Mg  Mg10  1  0.75011600  0.49954300  0.75095600  1
  Mg  Mg11  1  0.75011600  0.49954300  0.24904400  1
  Mg  Mg12  1  0.24988400  0.49954300  0.75095600  1
  Mg  Mg13  1  0.24988400  0.49954300  0.24904400  1
  Mg  Mg14  1  0.00000000  0.24677300  0.75574700  1
  Mg  Mg15  1  0.00000000  0.24677300  0.24425300  1
  Mg  Mg16  1  0.50000000  0.24753400  0.76197600  1
  Mg  Mg17  1  0.50000000  0.24753400  0.23802400  1
  Mg  Mg18  1  0.00000000  0.75258700  0.75130200  1
  Mg  Mg19  1  0.00000000  0.75258700  0.24869800  1
  Mg  Mg20  1  0.50000000  0.75405100  0.74500600  1
  Mg  Mg21  1  0.50000000  0.75405100  0.25499400  1
  Mg  Mg22  1  0.75201900  0.24880700  0.00000000  1
  Mg  Mg23  1  0.75105000  0.25213900  0.50000000  1
  Mg  Mg24  1  0.24798100  0.24880700  0.00000000  1
  Mg  Mg25  1  0.24895000  0.25213900  0.50000000  1
  Mg  Mg26  1  0.75066900  0.75081800  0.00000000  1
  Mg  Mg27  1  0.73605300  0.74750100  0.50000000  1
  Mg  Mg28  1  0.24933100  0.75081800  0.00000000  1
  Mg  Mg29  1  0.26394700  0.74750100  0.50000000  1
  B  B0  1  0.50000000  0.05578000  0.50000000  1
  O  O0  1  0.00000000  0.26278800  0.00000000  1
  O  O1  1  0.50000000  0.25583000  0.00000000  1
  O  O2  1  0.50000000  0.22827300  0.50000000  1
  O  O3  1  0.00000000  0.73677700  0.00000000  1
  O  O4  1  0.00000000  0.75674500  0.50000000  1
  O  O5  1  0.50000000  0.74436300  0.00000000  1
  O  O6  1  0.50000000  0.72473000  0.50000000  1
  O  O7  1  0.74982100  0.24795800  0.74767400  1
  O  O8  1  0.74982100  0.24795800  0.25232600  1
  O  O9  1  0.25017900  0.24795800  0.74767400  1
  O  O10  1  0.25017900  0.24795800  0.25232600  1
  O  O11  1  0.74960600  0.75177700  0.74647600  1
  O  O12  1  0.74960600  0.75177700  0.25352400  1
  O  O13  1  0.25039400  0.75177700  0.74647600  1
  O  O14  1  0.25039400  0.75177700  0.25352400  1
  O  O15  1  0.00000000  0.99955700  0.72970000  1
  O  O16  1  0.00000000  0.99955700  0.27030000  1
  O  O17  1  0.50000000  0.00378800  0.76489000  1
  O  O18  1  0.50000000  0.00378800  0.23511000  1
  O  O19  1  0.00000000  0.49943500  0.74481500  1
  O  O20  1  0.00000000  0.49943500  0.25518500  1
  O  O21  1  0.50000000  0.49300400  0.74724800  1
  O  O22  1  0.50000000  0.49300400  0.25275200  1
  O  O23  1  0.74047300  0.00007000  0.00000000  1
  O  O24  1  0.66364200  0.00242100  0.50000000  1
  O  O25  1  0.25952700  0.00007000  0.00000000  1
  O  O26  1  0.33635800  0.00242100  0.50000000  1
  O  O27  1  0.74873600  0.49970000  0.00000000  1
  O  O28  1  0.75060100  0.49415700  0.50000000  1
  O  O29  1  0.25126400  0.49970000  0.00000000  1
  O  O30  1  0.24939900  0.49415700  0.50000000  1
loop_
_geom_bond_atom_site_label_1
_geom_bond_atom_site_label_2
_geom_bond_distance
_geom_bond_site_symmetry_2
Na0 O23 2.193307 1_465
Na0 O25 2.193307 1_565
Na0 O3 2.245196 1_555
Na0 O0 2.262154 1_565
Na0 O16 2.331310 1_555
Na0 O15 2.331310 1_554
Mg0 O16 1.981154 1_555
Mg0 O15 1.981154 1_555
Mg0 O4 2.071273 1_555
Mg1 O17 2.028525 1_564
Mg1 O18 2.028525 1_565
Mg1 O25 2.032379 1_565
Mg1 O23 2.032379 1_565
Mg1 O5 2.168479 1_555
Mg1 O1 2.214245 1_565
Mg2 O3 2.023415 1_555
Mg2 O0 2.038162 1_555
Mg2 O29 2.123464 1_555
Mg2 O27 2.123464 1_455
Mg2 O20 2.200961 1_555
Mg2 O19 2.200961 1_554
Mg3 O30 2.111598 1_555
Mg3 O28 2.111598 1_455
Mg3 O19 2.113136 1_555
Mg3 O20 2.113136 1_555
Mg3 O4 2.121641 1_555
Mg4 O5 2.081487 1_555
Mg4 O27 2.102138 1_555
Mg4 O29 2.102138 1_555
Mg4 O1 2.104717 1_555
Mg4 O22 2.181153 1_555
Mg4 O21 2.181153 1_554
Mg5 O6 1.946115 1_555
Mg5 O28 2.118053 1_555
Mg5 O30 2.118053 1_555
Mg5 O22 2.132847 1_555
Mg5 O21 2.132847 1_555
Mg5 O2 2.307989 1_555
Mg6 O17 2.047131 1_565
Mg6 O23 2.086186 1_566
Mg6 O7 2.128981 1_565
Mg6 O11 2.128986 1_555
Mg6 O15 2.193259 1_655
Mg6 O24 2.323044 1_565
Mg7 O18 2.047131 1_565
Mg7 O23 2.086186 1_565
Mg7 O8 2.128981 1_565
Mg7 O12 2.128986 1_555
Mg7 O16 2.193259 1_655
Mg7 O24 2.323044 1_565
Mg8 O17 2.047131 1_565
Mg8 O25 2.086186 1_566
Mg8 O9 2.128981 1_565
Mg8 O13 2.128986 1_555
Mg8 O15 2.193259 1_555
Mg8 O26 2.323044 1_565
Mg9 O18 2.047131 1_565
Mg9 O25 2.086186 1_565
Mg9 O10 2.128981 1_565
Mg9 O14 2.128986 1_555
Mg9 O16 2.193259 1_555
Mg9 O26 2.323044 1_565
Mg10 O19 2.112450 1_655
Mg10 O21 2.114731 1_555
Mg10 O27 2.148003 1_556
Mg10 O7 2.156001 1_555
Mg10 O11 2.161725 1_555
Mg10 O28 2.164957 1_555
Mg11 O20 2.112450 1_655
Mg11 O22 2.114731 1_555
Mg11 O27 2.148003 1_555
Mg11 O8 2.156001 1_555
Mg11 O12 2.161725 1_555
Mg11 O28 2.164957 1_555
Mg12 O19 2.112450 1_555
Mg12 O21 2.114731 1_555
Mg12 O29 2.148003 1_556
Mg12 O9 2.156001 1_555
Mg12 O13 2.161725 1_555
Mg12 O30 2.164957 1_555
Mg13 O20 2.112450 1_555
Mg13 O22 2.114731 1_555
Mg13 O29 2.148003 1_555
Mg13 O10 2.156001 1_555
Mg13 O14 2.161725 1_555
Mg13 O30 2.164957 1_555
Mg14 O0 2.111114 1_556
Mg14 O9 2.115450 1_555
Mg14 O7 2.115450 1_455
Mg14 O15 2.130255 1_545
Mg14 O19 2.167095 1_555
Mg15 O0 2.111114 1_555
Mg15 O10 2.115450 1_555
Mg15 O8 2.115450 1_455
Mg15 O16 2.130255 1_545
Mg15 O20 2.167095 1_555
Mg16 O1 2.054155 1_556
Mg16 O17 2.088793 1_555
Mg16 O21 2.107247 1_555
Mg16 O7 2.114857 1_555
Mg16 O9 2.114857 1_555
Mg16 O2 2.265528 1_555
Mg17 O1 2.054155 1_555
Mg17 O18 2.088793 1_555
Mg17 O22 2.107247 1_555
Mg17 O8 2.114857 1_555
Mg17 O10 2.114857 1_555
Mg17 O2 2.265528 1_555
Mg18 O13 2.116517 1_555
Mg18 O11 2.116517 1_455
Mg18 O15 2.124454 1_555
Mg18 O3 2.149261 1_556
Mg18 O4 2.167739 1_555
Mg18 O19 2.169963 1_555
Mg19 O12 2.116517 1_455
Mg19 O14 2.116517 1_555
Mg19 O16 2.124454 1_555
Mg19 O3 2.149261 1_555
Mg19 O4 2.167739 1_555
Mg19 O20 2.169963 1_555
Mg20 O13 2.109565 1_555
Mg20 O11 2.109565 1_555
Mg20 O6 2.128028 1_555
Mg20 O17 2.146839 1_565
Mg20 O5 2.200855 1_556
Mg20 O21 2.236977 1_555
Mg21 O12 2.109565 1_555
Mg21 O14 2.109565 1_555
Mg21 O6 2.128028 1_555
Mg21 O18 2.146839 1_565
Mg21 O5 2.200855 1_555
Mg21 O22 2.236977 1_555
Mg22 O0 2.099125 1_655
Mg22 O1 2.130679 1_555
Mg22 O23 2.133642 1_555
Mg22 O27 2.150063 1_555
Mg22 O8 2.176369 1_555
Mg22 O7 2.176369 1_554
Mg23 O28 2.073838 1_555
Mg23 O2 2.131473 1_555
Mg23 O7 2.136480 1_555
Mg23 O8 2.136480 1_555
Mg23 O24 2.263730 1_555
Mg24 O0 2.099125 1_555
Mg24 O1 2.130679 1_555
Mg24 O25 2.133642 1_555
Mg24 O29 2.150063 1_555
Mg24 O10 2.176369 1_555
Mg24 O9 2.176369 1_554
Mg25 O30 2.073838 1_555
Mg25 O2 2.131473 1_555
Mg25 O9 2.136480 1_555
Mg25 O10 2.136480 1_555
Mg25 O26 2.263730 1_555
Mg26 O3 2.110545 1_655
Mg26 O5 2.119142 1_555
Mg26 O23 2.137560 1_565
Mg26 O27 2.151874 1_555
Mg26 O11 2.186644 1_554
Mg26 O12 2.186644 1_555
Mg27 O6 2.004419 1_555
Mg27 O12 2.129221 1_555
Mg27 O11 2.129221 1_555
Mg27 O28 2.174365 1_555
Mg27 O4 2.232039 1_655
Mg27 O24 2.268490 1_565
Mg28 O3 2.110545 1_555
Mg28 O5 2.119142 1_555
Mg28 O25 2.137560 1_565
Mg28 O29 2.151874 1_555
Mg28 O13 2.186644 1_554
Mg28 O14 2.186644 1_555
Mg29 O6 2.004419 1_555
Mg29 O14 2.129221 1_555
Mg29 O13 2.129221 1_555
Mg29 O30 2.174365 1_555
Mg29 O4 2.232039 1_555
Mg29 O26 2.268490 1_565
B0 O24 1.456574 1_555
B0 O26 1.456574 1_555
B0 O2 1.478080 1_555
