# generated using pymatgen
data_Ti
_symmetry_space_group_name_H-M   'P 1'
_cell_length_a   5.85615165
_cell_length_b   5.85615265
_cell_length_c   56.17468200
_cell_angle_alpha   90.00000000
_cell_angle_beta   90.00000000
_cell_angle_gamma   119.99997914
_symmetry_Int_Tables_number   1
_chemical_formula_structural   Ti
_chemical_formula_sum   Ti48
_cell_volume   1668.38412759
_cell_formula_units_Z   48
loop_
 _symmetry_equiv_pos_site_id
 _symmetry_equiv_pos_as_xyz
  1  'x, y, z'
loop_
 _atom_site_type_symbol
 _atom_site_label
 _atom_site_symmetry_multiplicity
 _atom_site_fract_x
 _atom_site_fract_y
 _atom_site_fract_z
 _atom_site_occupancy
  Ti  Ti0_0  1  0.33333350  0.16666650  0.35219100  1
  Ti  Ti0_1  1  0.33333350  0.16666650  0.85219100  1
  Ti  Ti0_2  1  0.33333350  0.66666650  0.35219100  1
  Ti  Ti0_3  1  0.33333350  0.66666650  0.85219100  1
  Ti  Ti0_4  1  0.83333350  0.16666650  0.35219100  1
  Ti  Ti0_5  1  0.83333350  0.16666650  0.85219100  1
  Ti  Ti0_6  1  0.83333350  0.66666650  0.35219100  1
  Ti  Ti0_7  1  0.83333350  0.66666650  0.85219100  1
  Ti  Ti1_0  1  0.16666650  0.33333350  0.31323200  1
  Ti  Ti1_1  1  0.16666650  0.33333350  0.81323200  1
  Ti  Ti1_2  1  0.16666650  0.83333350  0.31323200  1
  Ti  Ti1_3  1  0.16666650  0.83333350  0.81323200  1
  Ti  Ti1_4  1  0.66666650  0.33333350  0.31323200  1
  Ti  Ti1_5  1  0.66666650  0.33333350  0.81323200  1
  Ti  Ti1_6  1  0.66666650  0.83333350  0.31323200  1
  Ti  Ti1_7  1  0.66666650  0.83333350  0.81323200  1
  Ti  Ti2_0  1  0.33333350  0.16666650  0.27044800  1
  Ti  Ti2_1  1  0.33333350  0.16666650  0.77044800  1
  Ti  Ti2_2  1  0.33333350  0.66666650  0.27044800  1
  Ti  Ti2_3  1  0.33333350  0.66666650  0.77044800  1
  Ti  Ti2_4  1  0.83333350  0.16666650  0.27044800  1
  Ti  Ti2_5  1  0.83333350  0.16666650  0.77044800  1
  Ti  Ti2_6  1  0.83333350  0.66666650  0.27044800  1
  Ti  Ti2_7  1  0.83333350  0.66666650  0.77044800  1
  Ti  Ti3_0  1  0.16666650  0.33333350  0.22955200  1
  Ti  Ti3_1  1  0.16666650  0.33333350  0.72955200  1
  Ti  Ti3_2  1  0.16666650  0.83333350  0.22955200  1
  Ti  Ti3_3  1  0.16666650  0.83333350  0.72955200  1
  Ti  Ti3_4  1  0.66666650  0.33333350  0.22955200  1
  Ti  Ti3_5  1  0.66666650  0.33333350  0.72955200  1
  Ti  Ti3_6  1  0.66666650  0.83333350  0.22955200  1
  Ti  Ti3_7  1  0.66666650  0.83333350  0.72955200  1
  Ti  Ti4_0  1  0.33333350  0.16666650  0.18676800  1
  Ti  Ti4_1  1  0.33333350  0.16666650  0.68676800  1
  Ti  Ti4_2  1  0.33333350  0.66666650  0.18676800  1
  Ti  Ti4_3  1  0.33333350  0.66666650  0.68676800  1
  Ti  Ti4_4  1  0.83333350  0.16666650  0.18676800  1
  Ti  Ti4_5  1  0.83333350  0.16666650  0.68676800  1
  Ti  Ti4_6  1  0.83333350  0.66666650  0.18676800  1
  Ti  Ti4_7  1  0.83333350  0.66666650  0.68676800  1
  Ti  Ti5_0  1  0.16666650  0.33333350  0.14780900  1
  Ti  Ti5_1  1  0.16666650  0.33333350  0.64780900  1
  Ti  Ti5_2  1  0.16666650  0.83333350  0.14780900  1
  Ti  Ti5_3  1  0.16666650  0.83333350  0.64780900  1
  Ti  Ti5_4  1  0.66666650  0.33333350  0.14780900  1
  Ti  Ti5_5  1  0.66666650  0.33333350  0.64780900  1
  Ti  Ti5_6  1  0.66666650  0.83333350  0.14780900  1
  Ti  Ti5_7  1  0.66666650  0.83333350  0.64780900  1
loop_
_geom_bond_atom_site_label_1
_geom_bond_atom_site_label_2
_geom_bond_distance
_geom_bond_site_symmetry_2
Ti0_0 Ti1_4 2.765401 1_555
Ti0_0 Ti1_2 2.765402 1_545
Ti0_0 Ti1_0 2.765404 1_555
Ti0_1 Ti1_5 2.765401 1_555
Ti0_1 Ti1_3 2.765402 1_545
Ti0_1 Ti1_1 2.765404 1_555
Ti0_2 Ti1_6 2.765401 1_555
Ti0_2 Ti1_0 2.765402 1_555
Ti0_2 Ti1_2 2.765404 1_555
Ti0_3 Ti1_7 2.765401 1_555
Ti0_3 Ti1_1 2.765402 1_555
Ti0_3 Ti1_3 2.765404 1_555
Ti0_4 Ti1_0 2.765401 1_655
Ti0_4 Ti1_6 2.765402 1_545
Ti0_4 Ti1_4 2.765404 1_555
Ti0_5 Ti1_1 2.765401 1_655
Ti0_5 Ti1_7 2.765402 1_545
Ti0_5 Ti1_5 2.765404 1_555
Ti0_6 Ti1_2 2.765401 1_655
Ti0_6 Ti1_4 2.765402 1_555
Ti0_6 Ti1_6 2.765404 1_555
Ti0_7 Ti1_3 2.765401 1_655
Ti0_7 Ti1_5 2.765402 1_555
Ti0_7 Ti1_7 2.765404 1_555
Ti1_0 Ti1_4 2.928076 1_555
Ti1_0 Ti1_4 2.928076 1_455
Ti1_0 Ti1_2 2.928076 1_545
Ti1_0 Ti1_2 2.928076 1_555
Ti1_0 Ti1_6 2.928077 1_445
Ti1_0 Ti1_6 2.928077 1_555
Ti1_0 Ti2_4 2.938383 1_455
Ti1_0 Ti2_2 2.938383 1_555
Ti1_0 Ti2_0 2.938386 1_555
Ti1_1 Ti1_5 2.928076 1_555
Ti1_1 Ti1_5 2.928076 1_455
Ti1_1 Ti1_3 2.928076 1_545
Ti1_1 Ti1_3 2.928076 1_555
Ti1_1 Ti1_7 2.928077 1_555
Ti1_1 Ti1_7 2.928077 1_445
Ti1_1 Ti2_5 2.938383 1_455
Ti1_1 Ti2_3 2.938383 1_555
Ti1_1 Ti2_1 2.938386 1_555
Ti1_2 Ti1_6 2.928076 1_455
Ti1_2 Ti1_6 2.928076 1_555
Ti1_2 Ti1_4 2.928077 1_565
Ti1_2 Ti1_4 2.928077 1_455
Ti1_2 Ti2_6 2.938383 1_455
Ti1_2 Ti2_0 2.938383 1_565
Ti1_2 Ti2_2 2.938386 1_555
Ti1_3 Ti1_7 2.928076 1_555
Ti1_3 Ti1_7 2.928076 1_455
Ti1_3 Ti1_5 2.928077 1_565
Ti1_3 Ti1_5 2.928077 1_455
Ti1_3 Ti2_7 2.938383 1_455
Ti1_3 Ti2_1 2.938383 1_565
Ti1_3 Ti2_3 2.938386 1_555
Ti1_4 Ti1_6 2.928076 1_545
Ti1_4 Ti1_6 2.928076 1_555
Ti1_4 Ti2_0 2.938383 1_555
Ti1_4 Ti2_6 2.938383 1_555
Ti1_4 Ti2_4 2.938386 1_555
Ti1_5 Ti1_7 2.928076 1_545
Ti1_5 Ti1_7 2.928076 1_555
Ti1_5 Ti2_1 2.938383 1_555
Ti1_5 Ti2_7 2.938383 1_555
Ti1_5 Ti2_5 2.938386 1_555
Ti1_6 Ti2_2 2.938383 1_555
Ti1_6 Ti2_4 2.938383 1_565
Ti1_6 Ti2_6 2.938386 1_555
Ti1_7 Ti2_3 2.938383 1_555
Ti1_7 Ti2_5 2.938383 1_565
Ti1_7 Ti2_7 2.938386 1_555
Ti2_0 Ti3_4 2.852289 1_555
Ti2_0 Ti3_2 2.852289 1_545
Ti2_0 Ti3_0 2.852291 1_555
Ti2_0 Ti2_4 2.928076 1_455
Ti2_0 Ti2_4 2.928076 1_555
Ti2_0 Ti2_2 2.928076 1_555
Ti2_0 Ti2_2 2.928076 1_545
Ti2_0 Ti2_6 2.928077 1_445
Ti2_0 Ti2_6 2.928077 1_555
Ti2_1 Ti3_5 2.852289 1_555
Ti2_1 Ti3_3 2.852289 1_545
Ti2_1 Ti3_1 2.852291 1_555
Ti2_1 Ti2_5 2.928076 1_455
Ti2_1 Ti2_5 2.928076 1_555
Ti2_1 Ti2_3 2.928076 1_555
Ti2_1 Ti2_3 2.928076 1_545
Ti2_1 Ti2_7 2.928077 1_555
Ti2_1 Ti2_7 2.928077 1_445
Ti2_2 Ti3_6 2.852289 1_555
Ti2_2 Ti3_0 2.852289 1_555
Ti2_2 Ti3_2 2.852291 1_555
Ti2_2 Ti2_6 2.928076 1_555
Ti2_2 Ti2_6 2.928076 1_455
Ti2_2 Ti2_4 2.928077 1_565
Ti2_2 Ti2_4 2.928077 1_455
Ti2_3 Ti3_7 2.852289 1_555
Ti2_3 Ti3_1 2.852289 1_555
Ti2_3 Ti3_3 2.852291 1_555
Ti2_3 Ti2_7 2.928076 1_555
Ti2_3 Ti2_7 2.928076 1_455
Ti2_3 Ti2_5 2.928077 1_455
Ti2_3 Ti2_5 2.928077 1_565
Ti2_4 Ti3_0 2.852289 1_655
Ti2_4 Ti3_6 2.852289 1_545
Ti2_4 Ti3_4 2.852291 1_555
Ti2_4 Ti2_6 2.928076 1_555
Ti2_4 Ti2_6 2.928076 1_545
Ti2_5 Ti3_1 2.852289 1_655
Ti2_5 Ti3_7 2.852289 1_545
Ti2_5 Ti3_5 2.852291 1_555
Ti2_5 Ti2_7 2.928076 1_545
Ti2_5 Ti2_7 2.928076 1_555
Ti2_6 Ti3_2 2.852289 1_655
Ti2_6 Ti3_4 2.852289 1_555
Ti2_6 Ti3_6 2.852291 1_555
Ti2_7 Ti3_3 2.852289 1_655
Ti2_7 Ti3_5 2.852289 1_555
Ti2_7 Ti3_7 2.852291 1_555
Ti3_0 Ti3_4 2.928076 1_555
Ti3_0 Ti3_4 2.928076 1_455
Ti3_0 Ti3_2 2.928076 1_545
Ti3_0 Ti3_2 2.928076 1_555
Ti3_0 Ti3_6 2.928077 1_445
Ti3_0 Ti3_6 2.928077 1_555
Ti3_0 Ti4_4 2.938383 1_455
Ti3_0 Ti4_2 2.938383 1_555
Ti3_0 Ti4_0 2.938386 1_555
Ti3_1 Ti3_5 2.928076 1_555
Ti3_1 Ti3_5 2.928076 1_455
Ti3_1 Ti3_3 2.928076 1_545
Ti3_1 Ti3_3 2.928076 1_555
Ti3_1 Ti3_7 2.928077 1_445
Ti3_1 Ti3_7 2.928077 1_555
Ti3_1 Ti4_5 2.938383 1_455
Ti3_1 Ti4_3 2.938383 1_555
Ti3_1 Ti4_1 2.938386 1_555
Ti3_2 Ti3_6 2.928076 1_455
Ti3_2 Ti3_6 2.928076 1_555
Ti3_2 Ti3_4 2.928077 1_565
Ti3_2 Ti3_4 2.928077 1_455
Ti3_2 Ti4_6 2.938383 1_455
Ti3_2 Ti4_0 2.938383 1_565
Ti3_2 Ti4_2 2.938386 1_555
Ti3_3 Ti3_7 2.928076 1_555
Ti3_3 Ti3_7 2.928076 1_455
Ti3_3 Ti3_5 2.928077 1_565
Ti3_3 Ti3_5 2.928077 1_455
Ti3_3 Ti4_7 2.938383 1_455
Ti3_3 Ti4_1 2.938383 1_565
Ti3_3 Ti4_3 2.938386 1_555
Ti3_4 Ti3_6 2.928076 1_545
Ti3_4 Ti3_6 2.928076 1_555
Ti3_4 Ti4_0 2.938383 1_555
Ti3_4 Ti4_6 2.938383 1_555
Ti3_4 Ti4_4 2.938386 1_555
Ti3_5 Ti3_7 2.928076 1_545
Ti3_5 Ti3_7 2.928076 1_555
Ti3_5 Ti4_1 2.938383 1_555
Ti3_5 Ti4_7 2.938383 1_555
Ti3_5 Ti4_5 2.938386 1_555
Ti3_6 Ti4_2 2.938383 1_555
Ti3_6 Ti4_4 2.938383 1_565
Ti3_6 Ti4_6 2.938386 1_555
Ti3_7 Ti4_3 2.938383 1_555
Ti3_7 Ti4_5 2.938383 1_565
Ti3_7 Ti4_7 2.938386 1_555
Ti4_0 Ti5_4 2.765401 1_555
Ti4_0 Ti5_2 2.765402 1_545
Ti4_0 Ti5_0 2.765404 1_555
Ti4_0 Ti4_4 2.928076 1_455
Ti4_0 Ti4_4 2.928076 1_555
Ti4_0 Ti4_2 2.928076 1_555
Ti4_0 Ti4_2 2.928076 1_545
Ti4_0 Ti4_6 2.928077 1_555
Ti4_0 Ti4_6 2.928077 1_445
Ti4_1 Ti5_5 2.765401 1_555
Ti4_1 Ti5_3 2.765402 1_545
Ti4_1 Ti5_1 2.765404 1_555
Ti4_1 Ti4_5 2.928076 1_455
Ti4_1 Ti4_5 2.928076 1_555
Ti4_1 Ti4_3 2.928076 1_555
Ti4_1 Ti4_3 2.928076 1_545
Ti4_1 Ti4_7 2.928077 1_445
Ti4_1 Ti4_7 2.928077 1_555
Ti4_2 Ti5_6 2.765401 1_555
Ti4_2 Ti5_0 2.765402 1_555
Ti4_2 Ti5_2 2.765404 1_555
Ti4_2 Ti4_6 2.928076 1_555
Ti4_2 Ti4_6 2.928076 1_455
Ti4_2 Ti4_4 2.928077 1_565
Ti4_2 Ti4_4 2.928077 1_455
Ti4_3 Ti5_7 2.765401 1_555
Ti4_3 Ti5_1 2.765402 1_555
Ti4_3 Ti5_3 2.765404 1_555
Ti4_3 Ti4_7 2.928076 1_555
Ti4_3 Ti4_7 2.928076 1_455
Ti4_3 Ti4_5 2.928077 1_565
Ti4_3 Ti4_5 2.928077 1_455
Ti4_4 Ti5_0 2.765401 1_655
Ti4_4 Ti5_6 2.765402 1_545
Ti4_4 Ti5_4 2.765404 1_555
Ti4_4 Ti4_6 2.928076 1_545
Ti4_4 Ti4_6 2.928076 1_555
Ti4_5 Ti5_1 2.765401 1_655
Ti4_5 Ti5_7 2.765402 1_545
Ti4_5 Ti5_5 2.765404 1_555
Ti4_5 Ti4_7 2.928076 1_545
Ti4_5 Ti4_7 2.928076 1_555
Ti4_6 Ti5_2 2.765401 1_655
Ti4_6 Ti5_4 2.765402 1_555
Ti4_6 Ti5_6 2.765404 1_555
Ti4_7 Ti5_3 2.765401 1_655
Ti4_7 Ti5_5 2.765402 1_555
Ti4_7 Ti5_7 2.765404 1_555
