# generated using pymatgen
data_Sr7Nb34O52
_symmetry_space_group_name_H-M   'P 1'
_cell_length_a   12.85057224
_cell_length_b   12.85057224
_cell_length_c   17.17712664
_cell_angle_alpha   48.18172149
_cell_angle_beta   48.18172149
_cell_angle_gamma   38.06622116
_symmetry_Int_Tables_number   1
_chemical_formula_structural   Sr7Nb34O52
_chemical_formula_sum   'Sr7 Nb34 O52'
_cell_volume   1239.79823764
_cell_formula_units_Z   1
loop_
 _symmetry_equiv_pos_site_id
 _symmetry_equiv_pos_as_xyz
  1  'x, y, z'
loop_
 _atom_site_type_symbol
 _atom_site_label
 _atom_site_symmetry_multiplicity
 _atom_site_fract_x
 _atom_site_fract_y
 _atom_site_fract_z
 _atom_site_occupancy
  Sr  Sr0  1  0.35133800  0.35133800  0.74244400  1
  Sr  Sr1  1  0.08985500  0.08985500  0.55703300  1
  Sr  Sr2  1  0.58938600  0.58938600  0.55694900  1
  Sr  Sr3  1  0.90629900  0.90629900  0.44977100  1
  Sr  Sr4  1  0.40736900  0.40736900  0.44740600  1
  Sr  Sr5  1  0.64459100  0.64459100  0.26405300  1
  Sr  Sr6  1  0.14499900  0.14499900  0.26362500  1
  Nb  Nb0  1  0.45730000  0.95109400  0.97089100  1
  Nb  Nb1  1  0.95109400  0.45730000  0.97089100  1
  Nb  Nb2  1  0.90950800  0.90950800  0.93735000  1
  Nb  Nb3  1  0.41017800  0.41017800  0.93620400  1
  Nb  Nb4  1  0.37085800  0.87087900  0.90889500  1
  Nb  Nb5  1  0.87087900  0.37085800  0.90889500  1
  Nb  Nb6  1  0.77870500  0.27831400  0.84911500  1
  Nb  Nb7  1  0.27831400  0.77870500  0.84911500  1
  Nb  Nb8  1  0.18652100  0.69240400  0.79320800  1
  Nb  Nb9  1  0.69240400  0.18652100  0.79320800  1
  Nb  Nb10  1  0.15386400  0.15386400  0.75639200  1
  Nb  Nb11  1  0.65305500  0.65305500  0.75688500  1
  Nb  Nb12  1  0.01389300  0.51825800  0.67609100  1
  Nb  Nb13  1  0.51825800  0.01389300  0.67609100  1
  Nb  Nb14  1  0.92622900  0.42604800  0.62224900  1
  Nb  Nb15  1  0.42604800  0.92622900  0.62224900  1
  Nb  Nb16  1  0.24708900  0.75027200  0.50211400  1
  Nb  Nb17  1  0.75027200  0.24708900  0.50211400  1
  Nb  Nb18  1  0.07375900  0.57378100  0.37861500  1
  Nb  Nb19  1  0.57378100  0.07375900  0.37861500  1
  Nb  Nb20  1  0.98424800  0.48429600  0.32523500  1
  Nb  Nb21  1  0.48429600  0.98424800  0.32523500  1
  Nb  Nb22  1  0.84650300  0.84650300  0.24379300  1
  Nb  Nb23  1  0.34637700  0.34637700  0.24372100  1
  Nb  Nb24  1  0.80999400  0.30974300  0.20555700  1
  Nb  Nb25  1  0.30974300  0.80999400  0.20555700  1
  Nb  Nb26  1  0.22029400  0.72108600  0.15114700  1
  Nb  Nb27  1  0.72108600  0.22029400  0.15114700  1
  Nb  Nb28  1  0.62809900  0.12850900  0.09176100  1
  Nb  Nb29  1  0.12850900  0.62809900  0.09176100  1
  Nb  Nb30  1  0.58900500  0.58900500  0.06373300  1
  Nb  Nb31  1  0.09083300  0.09083300  0.06220300  1
  Nb  Nb32  1  0.04743100  0.54696900  0.02648800  1
  Nb  Nb33  1  0.54696900  0.04743100  0.02648800  1
  O  O0  1  0.20882000  0.20882000  0.96493200  1
  O  O1  1  0.70675100  0.70675100  0.96959600  1
  O  O2  1  0.61588100  0.61588100  0.91367000  1
  O  O3  1  0.11577800  0.11577800  0.91376300  1
  O  O4  1  0.08755300  0.56293500  0.87847600  1
  O  O5  1  0.56293500  0.08755300  0.87847600  1
  O  O6  1  0.52952100  0.52952100  0.85341100  1
  O  O7  1  0.02973400  0.02973400  0.85386100  1
  O  O8  1  0.48055300  0.00093000  0.81918600  1
  O  O9  1  0.00093000  0.48055300  0.81918600  1
  O  O10  1  0.94852800  0.94852800  0.78118800  1
  O  O11  1  0.44441500  0.44441500  0.78387100  1
  O  O12  1  0.31111300  0.80983800  0.69679400  1
  O  O13  1  0.80983800  0.31111300  0.69679400  1
  O  O14  1  0.77208000  0.77208000  0.66758500  1
  O  O15  1  0.27251600  0.27251600  0.67118200  1
  O  O16  1  0.70682400  0.23306000  0.64178500  1
  O  O17  1  0.23306000  0.70682400  0.64178500  1
  O  O18  1  0.67257200  0.67257200  0.61769100  1
  O  O19  1  0.17272700  0.17272700  0.61769500  1
  O  O20  1  0.14803400  0.63373000  0.56847600  1
  O  O21  1  0.63373000  0.14803400  0.56847600  1
  O  O22  1  0.54626700  0.04784700  0.52843000  1
  O  O23  1  0.04784700  0.54626700  0.52843000  1
  O  O24  1  0.00468000  0.00468000  0.49247300  1
  O  O25  1  0.50169700  0.50169700  0.49599600  1
  O  O26  1  0.45203100  0.95247600  0.47274200  1
  O  O27  1  0.95247600  0.45203100  0.47274200  1
  O  O28  1  0.36234100  0.86203500  0.42335000  1
  O  O29  1  0.86203500  0.36234100  0.42335000  1
  O  O30  1  0.82726600  0.82726600  0.38288800  1
  O  O31  1  0.32731800  0.32731800  0.38254300  1
  O  O32  1  0.28855700  0.78756300  0.35029500  1
  O  O33  1  0.78756300  0.28855700  0.35029500  1
  O  O34  1  0.72740300  0.72740300  0.32815400  1
  O  O35  1  0.22713600  0.22713600  0.32848900  1
  O  O36  1  0.18901800  0.68991900  0.30366400  1
  O  O37  1  0.68991900  0.18901800  0.30366400  1
  O  O38  1  0.55577400  0.55577400  0.21682800  1
  O  O39  1  0.05653400  0.05653400  0.21604000  1
  O  O40  1  0.00735500  0.50635800  0.18292800  1
  O  O41  1  0.50635800  0.00735500  0.18292800  1
  O  O42  1  0.97003600  0.97003600  0.14660700  1
  O  O43  1  0.46928300  0.46928300  0.14716700  1
  O  O44  1  0.92472000  0.42479900  0.12247100  1
  O  O45  1  0.42479900  0.92472000  0.12247100  1
  O  O46  1  0.88328700  0.88328700  0.08726200  1
  O  O47  1  0.38329100  0.38329100  0.08709200  1
  O  O48  1  0.79004600  0.79004600  0.03778100  1
  O  O49  1  0.29040500  0.29040500  0.03801600  1
  O  O50  1  0.24897100  0.74963500  0.00057800  1
  O  O51  1  0.74963500  0.24897100  0.00057800  1
loop_
_geom_bond_atom_site_label_1
_geom_bond_atom_site_label_2
_geom_bond_distance
_geom_bond_site_symmetry_2
Nb0 O1 2.069951 1_555
Nb0 O8 2.080236 1_565
Nb0 O0 2.123007 1_565
Nb0 O5 2.144791 1_565
Nb0 O45 2.159755 1_556
Nb1 O1 2.069951 1_555
Nb1 O9 2.080236 1_655
Nb1 O0 2.123007 1_655
Nb1 O4 2.144791 1_655
Nb1 O44 2.159755 1_556
Nb2 O48 2.082546 1_556
Nb2 O10 2.122918 1_555
Nb2 O7 2.163259 1_665
Nb2 O46 2.173156 1_556
Nb3 O49 2.085080 1_556
Nb3 O11 2.113842 1_555
Nb3 O6 2.147783 1_555
Nb3 O47 2.180798 1_556
Nb4 O3 2.097128 1_565
Nb4 O2 2.097230 1_555
Nb4 O8 2.129129 1_565
Nb4 O50 2.154558 1_556
Nb5 O3 2.097128 1_655
Nb5 O2 2.097230 1_555
Nb5 O9 2.129129 1_655
Nb5 O51 2.154558 1_556
Nb6 O7 2.096354 1_655
Nb6 O6 2.099069 1_555
Nb6 O13 2.140663 1_555
Nb6 O51 2.160567 1_556
Nb7 O7 2.096354 1_565
Nb7 O6 2.099069 1_555
Nb7 O12 2.140663 1_555
Nb7 O50 2.160567 1_556
Nb8 O4 2.031962 1_555
Nb8 O10 2.077232 1_455
Nb8 O11 2.123092 1_555
Nb8 O12 2.125850 1_555
Nb8 O17 2.148173 1_555
Nb9 O5 2.031962 1_555
Nb9 O10 2.077232 1_545
Nb9 O11 2.123092 1_555
Nb9 O13 2.125850 1_555
Nb9 O16 2.148173 1_555
Nb10 O19 2.084636 1_555
Nb10 O15 2.121450 1_555
Nb10 O3 2.152875 1_555
Nb10 O7 2.185342 1_555
Nb11 O18 2.083785 1_555
Nb11 O14 2.111438 1_555
Nb11 O2 2.153452 1_555
Nb11 O6 2.176555 1_555
Nb12 O9 2.072914 1_555
Nb12 O23 2.075391 1_555
Nb12 O14 2.080108 1_455
Nb12 O15 2.116741 1_555
Nb12 O20 2.170458 1_555
Nb13 O8 2.072914 1_555
Nb13 O22 2.075391 1_555
Nb13 O14 2.080108 1_545
Nb13 O15 2.116741 1_555
Nb13 O21 2.170458 1_555
Nb14 O19 2.099898 1_655
Nb14 O18 2.101666 1_555
Nb14 O13 2.112016 1_555
Nb14 O23 2.132912 1_655
Nb14 O27 2.167749 1_555
Nb15 O19 2.099898 1_565
Nb15 O18 2.101666 1_555
Nb15 O12 2.112016 1_555
Nb15 O22 2.132912 1_565
Nb15 O26 2.167749 1_555
Nb16 O17 1.973714 1_555
Nb16 O20 1.988164 1_555
Nb16 O28 2.042719 1_555
Nb16 O32 2.048586 1_555
Nb16 O24 2.085548 1_565
Nb16 O25 2.110034 1_555
Nb17 O16 1.973714 1_555
Nb17 O21 1.988164 1_555
Nb17 O29 2.042719 1_555
Nb17 O33 2.048586 1_555
Nb17 O24 2.085548 1_655
Nb17 O25 2.110034 1_555
Nb18 O31 2.100283 1_555
Nb18 O30 2.100386 1_455
Nb18 O36 2.110481 1_555
Nb18 O27 2.144034 1_455
Nb18 O23 2.165075 1_555
Nb19 O31 2.100283 1_555
Nb19 O30 2.100386 1_545
Nb19 O37 2.110481 1_555
Nb19 O26 2.144034 1_545
Nb19 O22 2.165075 1_555
Nb20 O27 2.060228 1_555
Nb20 O40 2.093852 1_655
Nb20 O34 2.099603 1_555
Nb20 O35 2.100231 1_655
Nb20 O29 2.141637 1_555
Nb21 O26 2.060228 1_555
Nb21 O41 2.093852 1_565
Nb21 O34 2.099603 1_555
Nb21 O35 2.100231 1_565
Nb21 O28 2.141637 1_555
Nb22 O30 2.086071 1_555
Nb22 O34 2.134948 1_555
Nb22 O46 2.153682 1_555
Nb22 O42 2.174173 1_555
Nb23 O31 2.083968 1_555
Nb23 O35 2.136019 1_555
Nb23 O47 2.153822 1_555
Nb23 O43 2.163630 1_555
Nb24 O44 2.051567 1_555
Nb24 O39 2.098717 1_655
Nb24 O38 2.101245 1_555
Nb24 O37 2.107830 1_555
Nb24 O33 2.145595 1_555
Nb25 O45 2.051567 1_555
Nb25 O39 2.098717 1_565
Nb25 O38 2.101245 1_555
Nb25 O36 2.107830 1_555
Nb25 O32 2.145595 1_555
Nb26 O42 2.093991 1_455
Nb26 O43 2.100874 1_555
Nb26 O36 2.153000 1_555
Nb26 O50 2.153162 1_555
Nb27 O42 2.093991 1_545
Nb27 O43 2.100874 1_555
Nb27 O37 2.153000 1_555
Nb27 O51 2.153162 1_555
Nb28 O47 2.095428 1_555
Nb28 O46 2.098868 1_545
Nb28 O51 2.144816 1_555
Nb28 O41 2.154209 1_555
Nb29 O47 2.095428 1_555
Nb29 O46 2.098868 1_455
Nb29 O50 2.144816 1_555
Nb29 O40 2.154209 1_555
Nb30 O1 2.067159 1_554
Nb30 O38 2.138280 1_555
Nb30 O43 2.152729 1_555
Nb30 O2 2.167096 1_554
Nb31 O0 2.062190 1_554
Nb31 O39 2.137936 1_555
Nb31 O3 2.165345 1_554
Nb31 O42 2.170972 1_445
Nb32 O49 2.098298 1_555
Nb32 O48 2.102144 1_455
Nb32 O40 2.113327 1_555
Nb32 O4 2.120074 1_554
Nb32 O44 2.156169 1_455
Nb33 O49 2.098298 1_555
Nb33 O48 2.102144 1_545
Nb33 O41 2.113327 1_555
Nb33 O5 2.120074 1_554
Nb33 O45 2.156169 1_545
O0 Sr0 2.815625 1_555
O4 Sr0 2.782263 1_555
O5 Sr0 2.782263 1_555
O8 Sr0 2.828656 1_555
O9 Sr0 2.828656 1_555
O10 Sr1 2.822264 1_665
O11 Sr0 2.808981 1_555
O11 Sr2 2.869189 1_555
O12 Sr2 2.872576 1_555
O12 Sr1 2.875505 1_565
O13 Sr2 2.872576 1_555
O13 Sr1 2.875505 1_655
O14 Sr3 2.724185 1_555
O15 Sr4 2.782815 1_555
O15 Sr0 2.910788 1_555
O16 Sr0 2.864733 1_555
O16 Sr2 2.919178 1_555
O16 Sr1 3.080212 1_655
O17 Sr0 2.864733 1_555
O17 Sr2 2.919178 1_555
O17 Sr1 3.080212 1_565
O18 Sr2 2.854502 1_555
O19 Sr1 2.845945 1_555
O20 Sr4 2.730054 1_555
O20 Sr3 2.804619 1_455
O20 Sr0 3.153693 1_555
O21 Sr4 2.730054 1_555
O21 Sr3 2.804619 1_545
O21 Sr0 3.153693 1_555
O22 Sr4 2.867256 1_555
O22 Sr3 2.868745 1_545
O23 Sr4 2.867256 1_555
O23 Sr3 2.868745 1_455
O24 Sr6 2.858355 1_555
O24 Sr3 2.953755 1_445
O24 Sr1 2.957970 1_555
O25 Sr5 2.900721 1_555
O25 Sr4 2.940630 1_555
O25 Sr2 2.963424 1_555
O25 Sr0 3.074167 1_555
O26 Sr1 2.891194 1_565
O26 Sr2 2.900884 1_555
O27 Sr1 2.891194 1_655
O27 Sr2 2.900884 1_555
O28 Sr2 2.857454 1_555
O28 Sr1 2.864560 1_565
O28 Sr5 3.074634 1_555
O28 Sr6 3.077919 1_565
O29 Sr2 2.857454 1_555
O29 Sr1 2.864560 1_655
O29 Sr5 3.074634 1_555
O29 Sr6 3.077919 1_655
O30 Sr3 2.849380 1_555
O31 Sr4 2.842697 1_555
O32 Sr5 2.803225 1_555
O32 Sr6 2.813995 1_565
O32 Sr4 3.125110 1_555
O32 Sr3 3.139992 1_455
O33 Sr5 2.803225 1_555
O33 Sr6 2.813995 1_655
O33 Sr4 3.125110 1_555
O33 Sr3 3.139992 1_545
O34 Sr2 2.845920 1_555
O34 Sr5 2.895799 1_555
O35 Sr1 2.839931 1_555
O35 Sr6 2.891433 1_555
O36 Sr4 2.897348 1_555
O36 Sr3 2.910280 1_455
O37 Sr4 2.897348 1_555
O37 Sr3 2.910280 1_545
O38 Sr5 2.789964 1_555
O38 Sr4 2.922717 1_555
O39 Sr6 2.786771 1_555
O39 Sr3 2.961341 1_445
O40 Sr6 2.892450 1_555
O40 Sr5 2.903107 1_455
O41 Sr6 2.892450 1_555
O41 Sr5 2.903107 1_545
O44 Sr6 2.884527 1_655
O44 Sr5 2.885542 1_555
O45 Sr6 2.884527 1_565
O45 Sr5 2.885542 1_555
O48 Sr5 2.866933 1_555
O49 Sr6 2.861080 1_555
