# generated using pymatgen
data_Nd5Sn15Rh8
_symmetry_space_group_name_H-M   'P 1'
_cell_length_a   4.47154756
_cell_length_b   7.30213819
_cell_length_c   18.67462316
_cell_angle_alpha   89.82587472
_cell_angle_beta   90.00000000
_cell_angle_gamma   90.00000000
_symmetry_Int_Tables_number   1
_chemical_formula_structural   Nd5Sn15Rh8
_chemical_formula_sum   'Nd5 Sn15 Rh8'
_cell_volume   609.75833206
_cell_formula_units_Z   1
loop_
 _symmetry_equiv_pos_site_id
 _symmetry_equiv_pos_as_xyz
  1  'x, y, z'
loop_
 _atom_site_type_symbol
 _atom_site_label
 _atom_site_symmetry_multiplicity
 _atom_site_fract_x
 _atom_site_fract_y
 _atom_site_fract_z
 _atom_site_occupancy
  Nd  Nd0  1  0.50000000  0.00324777  0.85711173  1
  Nd  Nd1  1  0.50000000  0.49847374  0.35758559  1
  Nd  Nd2  1  -0.00000000  0.99813032  0.14305197  1
  Nd  Nd3  1  -0.00000000  0.49935385  0.64040984  1
  Nd  Nd4  1  0.50000000  0.49518895  0.93096764  1
  Sn  Sn0  1  0.00000000  0.71972283  0.80483306  1
  Sn  Sn1  1  -0.00000000  0.77935401  0.30485441  1
  Sn  Sn2  1  0.50000000  0.27544468  0.19557011  1
  Sn  Sn3  1  0.50000000  0.21867598  0.69437967  1
  Sn  Sn4  1  -0.00000000  0.85553172  0.97014766  1
  Sn  Sn5  1  -0.00000000  0.63111513  0.46764967  1
  Sn  Sn6  1  0.50000000  0.13180228  0.03159353  1
  Sn  Sn7  1  0.50000000  0.36895236  0.53091642  1
  Sn  Sn8  1  0.00000000  0.30487439  0.81841444  1
  Sn  Sn9  1  0.00000000  0.19806670  0.31886185  1
  Sn  Sn10  1  0.50000000  0.69640088  0.18552732  1
  Sn  Sn11  1  0.50000000  0.80560486  0.67827940  1
  Sn  Sn12  1  0.50000000  0.02371908  0.43363294  1
  Sn  Sn13  1  -0.00000000  0.51560265  0.06749764  1
  Sn  Sn14  1  0.00000000  0.97772916  0.56736316  1
  Rh  Rh0  1  -0.00000000  0.23052798  0.96511492  1
  Rh  Rh1  1  0.00000000  0.24776472  0.46555290  1
  Rh  Rh2  1  0.50000000  0.76371247  0.04572018  1
  Rh  Rh3  1  0.50000000  0.75287631  0.53255645  1
  Rh  Rh4  1  0.00000000  0.01693830  0.71456543  1
  Rh  Rh5  1  -0.00000000  0.48366691  0.21416009  1
  Rh  Rh6  1  0.50000000  0.98682254  0.29012044  1
  Rh  Rh7  1  0.50000000  0.52069842  0.77356556  1
loop_
_geom_bond_atom_site_label_1
_geom_bond_atom_site_label_2
_geom_bond_distance
_geom_bond_site_symmetry_2
Nd0 Sn0 3.201625 1_645
Nd0 Sn0 3.201625 1_545
Nd0 Sn8 3.219058 1_655
Nd0 Sn8 3.219058 1_555
Nd0 Sn4 3.256414 1_645
Nd0 Sn4 3.256414 1_545
Nd0 Sn6 3.393648 1_556
Nd0 Sn3 3.417722 1_555
Nd0 Sn11 3.642152 1_545
Nd1 Sn1 3.187918 1_555
Nd1 Sn1 3.187918 1_655
Nd1 Sn5 3.189607 1_655
Nd1 Sn5 3.189607 1_555
Nd1 Sn9 3.216087 1_555
Nd1 Sn9 3.216087 1_655
Nd1 Sn7 3.369472 1_555
Nd1 Sn2 3.440403 1_555
Nd1 Sn10 3.519205 1_555
Nd2 Sn2 3.173833 1_465
Nd2 Sn2 3.173833 1_565
Nd2 Sn6 3.204918 1_565
Nd2 Sn6 3.204918 1_465
Nd2 Sn10 3.235992 1_455
Nd2 Sn10 3.235992 1_555
Nd2 Sn4 3.395678 1_554
Nd2 Sn1 3.413626 1_555
Nd2 Sn9 3.597210 1_565
Nd3 Sn7 3.177769 1_555
Nd3 Sn7 3.177769 1_455
Nd3 Sn3 3.194147 1_455
Nd3 Sn3 3.194147 1_555
Nd3 Sn11 3.241822 1_455
Nd3 Sn11 3.241822 1_555
Nd3 Sn5 3.363839 1_555
Nd3 Sn0 3.470975 1_555
Nd3 Sn8 3.610836 1_555
Nd4 Rh2 2.909044 1_556
Nd4 Rh7 2.944756 1_555
Nd4 Rh0 3.022044 1_655
Nd4 Rh0 3.022044 1_555
Nd4 Sn6 3.246838 1_556
Nd4 Sn8 3.371298 1_555
Nd4 Sn8 3.371298 1_655
Nd4 Sn4 3.531193 1_655
Nd4 Sn4 3.531193 1_555
Nd4 Sn0 3.634815 1_555
Nd4 Sn0 3.634815 1_655
Sn0 Sn8 3.039111 1_555
Sn0 Sn4 3.245427 1_555
Sn0 Sn11 3.311849 1_555
Sn0 Sn11 3.311849 1_455
Sn1 Sn9 3.069459 1_565
Sn1 Sn10 3.215512 1_555
Sn1 Sn10 3.215512 1_455
Sn1 Sn5 3.223999 1_555
Sn2 Sn6 3.239874 1_555
Sn2 Sn9 3.257484 1_655
Sn2 Sn9 3.257484 1_555
Sn3 Sn7 3.240717 1_555
Sn3 Sn8 3.281614 1_655
Sn3 Sn8 3.281614 1_555
Sn4 Sn6 3.224783 1_566
Sn4 Sn6 3.224783 1_466
Sn5 Sn7 3.169475 1_455
Sn5 Sn7 3.169475 1_555
Sn10 Sn2 3.079027 1_555
Sn10 Sn13 3.408468 1_655
Sn10 Sn13 3.408468 1_555
Sn11 Sn3 3.032160 1_565
Sn11 Sn14 3.294383 1_655
Sn11 Sn14 3.294383 1_555
Sn12 Sn7 3.111832 1_555
Sn12 Sn9 3.346143 1_555
Sn12 Sn9 3.346143 1_655
Sn13 Sn4 3.072290 1_554
Sn14 Sn5 3.146774 1_555
Rh0 Sn6 2.655971 1_456
Rh0 Sn6 2.655971 1_556
Rh0 Sn4 2.739601 1_545
Rh0 Sn8 2.791230 1_555
Rh0 Sn13 2.830735 1_556
Rh1 Sn7 2.697834 1_455
Rh1 Sn7 2.697834 1_555
Rh1 Sn14 2.734991 1_545
Rh1 Sn9 2.764426 1_555
Rh1 Sn5 2.799671 1_555
Rh1 Sn12 2.834868 1_455
Rh1 Sn12 2.834868 1_555
Rh2 Sn10 2.655241 1_555
Rh2 Sn6 2.699960 1_565
Rh2 Sn4 2.726574 1_654
Rh2 Sn4 2.726574 1_554
Rh2 Sn13 2.905507 1_555
Rh2 Sn13 2.905507 1_655
Rh3 Sn5 2.695361 1_655
Rh3 Sn5 2.695361 1_555
Rh3 Sn12 2.702212 1_565
Rh3 Sn11 2.749583 1_555
Rh3 Sn7 2.803726 1_555
Rh3 Sn14 2.850181 1_655
Rh3 Sn14 2.850181 1_555
Rh4 Sn3 2.703235 1_555
Rh4 Sn3 2.703235 1_455
Rh4 Sn0 2.744018 1_545
Rh4 Sn14 2.764682 1_545
Rh4 Sn11 2.801007 1_545
Rh4 Sn11 2.801007 1_445
Rh4 Sn8 2.864706 1_555
Rh5 Sn2 2.726579 1_455
Rh5 Sn2 2.726579 1_555
Rh5 Sn13 2.748070 1_555
Rh5 Sn1 2.748219 1_555
Rh5 Sn10 2.773561 1_555
Rh5 Sn10 2.773561 1_455
Rh5 Sn9 2.854393 1_555
Rh6 Sn12 2.694365 1_565
Rh6 Sn1 2.714217 1_555
Rh6 Sn1 2.714217 1_655
Rh6 Sn2 2.745333 1_565
Rh6 Sn9 2.769695 1_565
Rh6 Sn9 2.769695 1_665
Rh6 Sn10 2.887504 1_555
Rh7 Sn3 2.659023 1_555
Rh7 Sn0 2.730729 1_555
Rh7 Sn0 2.730729 1_655
Rh7 Sn11 2.733506 1_555
Rh7 Sn8 2.859341 1_655
Rh7 Sn8 2.859341 1_555
