# generated using pymatgen
data_U(Zn10Co)2
_symmetry_space_group_name_H-M   'P 1'
_cell_length_a   9.94069663
_cell_length_b   9.94069663
_cell_length_c   9.94069663
_cell_angle_alpha   60.00000000
_cell_angle_beta   60.00000000
_cell_angle_gamma   60.00000000
_symmetry_Int_Tables_number   1
_chemical_formula_structural   U(Zn10Co)2
_chemical_formula_sum   'U2 Zn40 Co4'
_cell_volume   694.60109464
_cell_formula_units_Z   2
loop_
 _symmetry_equiv_pos_site_id
 _symmetry_equiv_pos_as_xyz
  1  'x, y, z'
loop_
 _atom_site_type_symbol
 _atom_site_label
 _atom_site_symmetry_multiplicity
 _atom_site_fract_x
 _atom_site_fract_y
 _atom_site_fract_z
 _atom_site_occupancy
  U  U0  1  0.50000000  0.50000000  0.50000000  1
  U  U1  1  0.75000000  0.75000000  0.75000000  1
  Zn  Zn0  1  0.12500000  0.62500000  0.62500000  1
  Zn  Zn1  1  0.62500000  0.12500000  0.62500000  1
  Zn  Zn2  1  0.62500000  0.62500000  0.12500000  1
  Zn  Zn3  1  0.62500000  0.62500000  0.62500000  1
  Zn  Zn4  1  0.86374000  0.86374000  0.13626000  1
  Zn  Zn5  1  0.13626000  0.13626000  0.86374000  1
  Zn  Zn6  1  0.86374000  0.13626000  0.86374000  1
  Zn  Zn7  1  0.13626000  0.86374000  0.13626000  1
  Zn  Zn8  1  0.13626000  0.86374000  0.86374000  1
  Zn  Zn9  1  0.86374000  0.13626000  0.13626000  1
  Zn  Zn10  1  0.38626000  0.38626000  0.11374000  1
  Zn  Zn11  1  0.11374000  0.11374000  0.38626000  1
  Zn  Zn12  1  0.38626000  0.11374000  0.38626000  1
  Zn  Zn13  1  0.11374000  0.38626000  0.11374000  1
  Zn  Zn14  1  0.11374000  0.38626000  0.38626000  1
  Zn  Zn15  1  0.38626000  0.11374000  0.11374000  1
  Zn  Zn16  1  0.56888800  0.29985000  0.29985000  1
  Zn  Zn17  1  0.29985000  0.56888800  0.83141300  1
  Zn  Zn18  1  0.29985000  0.83141300  0.56888800  1
  Zn  Zn19  1  0.83141300  0.29985000  0.29985000  1
  Zn  Zn20  1  0.29985000  0.29985000  0.56888800  1
  Zn  Zn21  1  0.56888800  0.83141300  0.29985000  1
  Zn  Zn22  1  0.83141300  0.56888800  0.29985000  1
  Zn  Zn23  1  0.29985000  0.29985000  0.83141300  1
  Zn  Zn24  1  0.29985000  0.56888800  0.29985000  1
  Zn  Zn25  1  0.83141300  0.29985000  0.56888800  1
  Zn  Zn26  1  0.56888800  0.29985000  0.83141300  1
  Zn  Zn27  1  0.29985000  0.83141300  0.29985000  1
  Zn  Zn28  1  0.68111200  0.95015000  0.95015000  1
  Zn  Zn29  1  0.95015000  0.68111200  0.41858700  1
  Zn  Zn30  1  0.95015000  0.41858700  0.68111200  1
  Zn  Zn31  1  0.41858700  0.95015000  0.95015000  1
  Zn  Zn32  1  0.95015000  0.95015000  0.68111200  1
  Zn  Zn33  1  0.68111200  0.41858700  0.95015000  1
  Zn  Zn34  1  0.41858700  0.68111200  0.95015000  1
  Zn  Zn35  1  0.95015000  0.95015000  0.41858700  1
  Zn  Zn36  1  0.95015000  0.68111200  0.95015000  1
  Zn  Zn37  1  0.41858700  0.95015000  0.68111200  1
  Zn  Zn38  1  0.68111200  0.95015000  0.41858700  1
  Zn  Zn39  1  0.95015000  0.41858700  0.95015000  1
  Co  Co0  1  0.62500000  0.12500000  0.12500000  1
  Co  Co1  1  0.12500000  0.62500000  0.12500000  1
  Co  Co2  1  0.12500000  0.12500000  0.62500000  1
  Co  Co3  1  0.12500000  0.12500000  0.12500000  1
loop_
_geom_bond_atom_site_label_1
_geom_bond_atom_site_label_2
_geom_bond_distance
_geom_bond_site_symmetry_2
U0 Zn2 3.043704 1_555
U0 Zn3 3.043704 1_555
U0 Zn1 3.043704 1_555
U0 Zn0 3.043704 1_555
U0 Zn20 3.101589 1_555
U0 Zn24 3.101589 1_555
U0 Zn16 3.101589 1_555
U0 Zn23 3.101593 1_555
U0 Zn27 3.101593 1_555
U0 Zn19 3.101593 1_555
U0 Zn26 3.101598 1_555
U0 Zn17 3.101598 1_555
U0 Zn21 3.101598 1_555
U0 Zn18 3.101598 1_555
U0 Zn22 3.101598 1_555
U0 Zn25 3.101598 1_555
U1 Zn1 3.043704 1_565
U1 Zn3 3.043704 1_555
U1 Zn2 3.043704 1_556
U1 Zn0 3.043704 1_655
U1 Zn32 3.101589 1_555
U1 Zn36 3.101589 1_555
U1 Zn28 3.101589 1_555
U1 Zn35 3.101593 1_555
U1 Zn39 3.101593 1_555
U1 Zn31 3.101593 1_555
U1 Zn29 3.101598 1_555
U1 Zn33 3.101598 1_555
U1 Zn38 3.101598 1_555
U1 Zn37 3.101598 1_555
U1 Zn30 3.101598 1_555
U1 Zn34 3.101598 1_555
Zn0 Zn36 2.999139 1_455
Zn0 Zn32 2.999139 1_455
Zn0 Zn24 2.999139 1_555
Zn0 Zn20 2.999139 1_555
Zn0 Zn27 2.999143 1_555
Zn0 Zn23 2.999143 1_555
Zn0 Zn39 2.999143 1_455
Zn0 Zn35 2.999143 1_455
Zn0 Zn17 2.999148 1_555
Zn0 Zn18 2.999148 1_555
Zn0 Zn29 2.999148 1_455
Zn0 Zn30 2.999148 1_455
Zn1 Zn28 2.999139 1_545
Zn1 Zn32 2.999139 1_545
Zn1 Zn20 2.999139 1_555
Zn1 Zn16 2.999139 1_555
Zn1 Zn23 2.999143 1_555
Zn1 Zn19 2.999143 1_555
Zn1 Zn31 2.999143 1_545
Zn1 Zn35 2.999143 1_545
Zn1 Zn25 2.999148 1_555
Zn1 Zn26 2.999148 1_555
Zn1 Zn38 2.999148 1_545
Zn1 Zn37 2.999148 1_545
Zn2 Zn28 2.999139 1_554
Zn2 Zn36 2.999139 1_554
Zn2 Zn24 2.999139 1_555
Zn2 Zn31 2.999143 1_554
Zn2 Zn27 2.999143 1_555
Zn2 Zn39 2.999143 1_554
Zn2 Zn21 2.999148 1_555
Zn2 Zn22 2.999148 1_555
Zn2 Zn33 2.999148 1_554
Zn2 Zn34 2.999148 1_554
Zn3 Zn33 2.999139 1_555
Zn3 Zn34 2.999139 1_555
Zn3 Zn38 2.999139 1_555
Zn3 Zn37 2.999139 1_555
Zn3 Zn30 2.999139 1_555
Zn4 Zn7 2.709039 1_655
Zn4 Zn6 2.709039 1_564
Zn4 Zn8 2.709039 1_654
Zn4 Zn9 2.709039 1_565
Zn5 Zn9 2.709039 1_456
Zn5 Zn6 2.709039 1_455
Zn5 Zn8 2.709039 1_545
Zn5 Zn7 2.709039 1_546
Zn6 Zn8 2.709039 1_645
Zn6 Zn9 2.709039 1_556
Zn7 Zn9 2.709039 1_465
Zn7 Zn8 2.709039 1_554
Zn10 Zn34 2.644167 1_554
Zn10 Zn33 2.644167 1_554
Zn10 Zn15 2.709039 1_555
Zn10 Zn14 2.709039 1_555
Zn10 Zn13 2.709039 1_555
Zn10 Zn12 2.709039 1_555
Zn10 Zn26 2.768843 1_554
Zn10 Zn17 2.768843 1_554
Zn10 Zn16 2.768852 1_555
Zn10 Zn24 2.768852 1_555
Zn11 Zn32 2.644171 1_445
Zn11 Zn35 2.644176 1_445
Zn11 Zn15 2.709039 1_555
Zn11 Zn14 2.709039 1_555
Zn11 Zn13 2.709039 1_555
Zn11 Zn12 2.709039 1_555
Zn11 Zn19 2.768843 1_455
Zn11 Zn27 2.768843 1_545
Zn11 Zn18 2.768848 1_545
Zn11 Zn25 2.768848 1_455
Zn12 Zn37 2.644167 1_545
Zn12 Zn38 2.644167 1_545
Zn12 Zn15 2.709039 1_555
Zn12 Zn14 2.709039 1_555
Zn12 Zn21 2.768843 1_545
Zn12 Zn18 2.768843 1_545
Zn12 Zn16 2.768852 1_555
Zn12 Zn20 2.768852 1_555
Zn13 Zn36 2.644171 1_454
Zn13 Zn39 2.644176 1_454
Zn13 Zn15 2.709039 1_555
Zn13 Zn14 2.709039 1_555
Zn13 Zn19 2.768843 1_455
Zn13 Zn23 2.768843 1_554
Zn13 Zn17 2.768848 1_554
Zn13 Zn22 2.768848 1_455
Zn14 Zn29 2.644167 1_455
Zn14 Zn30 2.644167 1_455
Zn14 Zn25 2.768843 1_455
Zn14 Zn22 2.768843 1_455
Zn14 Zn24 2.768852 1_555
Zn14 Zn20 2.768852 1_555
Zn15 Zn28 2.644171 1_544
Zn15 Zn31 2.644176 1_544
Zn15 Zn27 2.768843 1_545
Zn15 Zn23 2.768843 1_554
Zn15 Zn21 2.768848 1_545
Zn15 Zn26 2.768848 1_554
Zn16 Zn19 2.609681 1_555
Zn16 Zn9 2.644171 1_555
Zn16 Zn20 2.674425 1_555
Zn16 Zn24 2.674425 1_555
Zn16 Zn38 2.838602 1_545
Zn16 Zn33 2.838602 1_554
Zn16 Zn2 2.999139 1_555
Zn17 Zn18 2.609681 1_555
Zn17 Zn8 2.644167 1_555
Zn17 Zn23 2.674425 1_555
Zn17 Zn26 2.674425 1_555
Zn17 Zn34 2.838586 1_555
Zn17 Zn36 2.838602 1_455
Zn17 Zn3 2.999139 1_555
Zn18 Zn8 2.644167 1_555
Zn18 Zn27 2.674425 1_555
Zn18 Zn21 2.674425 1_555
Zn18 Zn37 2.838586 1_555
Zn18 Zn32 2.838602 1_455
Zn18 Zn3 2.999139 1_555
Zn19 Zn9 2.644176 1_555
Zn19 Zn25 2.674425 1_555
Zn19 Zn22 2.674425 1_555
Zn19 Zn35 2.838602 1_545
Zn19 Zn39 2.838602 1_554
Zn19 Zn2 2.999143 1_555
Zn20 Zn23 2.609681 1_555
Zn20 Zn5 2.644171 1_555
Zn20 Zn24 2.674425 1_555
Zn20 Zn30 2.838602 1_455
Zn20 Zn37 2.838602 1_545
Zn21 Zn22 2.609681 1_555
Zn21 Zn4 2.644167 1_555
Zn21 Zn27 2.674425 1_555
Zn21 Zn38 2.838586 1_555
Zn21 Zn28 2.838602 1_554
Zn21 Zn3 2.999139 1_555
Zn22 Zn4 2.644167 1_555
Zn22 Zn25 2.674425 1_555
Zn22 Zn29 2.838586 1_555
Zn22 Zn36 2.838602 1_554
Zn22 Zn3 2.999139 1_555
Zn23 Zn5 2.644176 1_555
Zn23 Zn26 2.674425 1_555
Zn23 Zn39 2.838602 1_455
Zn23 Zn31 2.838602 1_545
Zn24 Zn27 2.609681 1_555
Zn24 Zn7 2.644171 1_555
Zn24 Zn29 2.838602 1_455
Zn24 Zn34 2.838602 1_554
Zn25 Zn26 2.609681 1_555
Zn25 Zn6 2.644167 1_555
Zn25 Zn30 2.838586 1_555
Zn25 Zn32 2.838602 1_545
Zn25 Zn3 2.999139 1_555
Zn26 Zn6 2.644167 1_555
Zn26 Zn33 2.838586 1_555
Zn26 Zn28 2.838602 1_545
Zn26 Zn3 2.999139 1_555
Zn27 Zn7 2.644176 1_555
Zn27 Zn35 2.838602 1_455
Zn27 Zn31 2.838602 1_554
Zn28 Zn31 2.609681 1_555
Zn28 Zn32 2.674425 1_555
Zn28 Zn36 2.674425 1_555
Zn28 Zn6 2.768852 1_565
Zn28 Zn4 2.768852 1_556
Zn29 Zn30 2.609681 1_555
Zn29 Zn38 2.674425 1_555
Zn29 Zn35 2.674425 1_555
Zn29 Zn4 2.768843 1_555
Zn29 Zn7 2.768848 1_655
Zn29 Zn3 2.999139 1_555
Zn30 Zn39 2.674425 1_555
Zn30 Zn33 2.674425 1_555
Zn30 Zn6 2.768843 1_555
Zn30 Zn5 2.768848 1_655
Zn31 Zn37 2.674425 1_555
Zn31 Zn34 2.674425 1_555
Zn31 Zn5 2.768843 1_565
Zn31 Zn7 2.768843 1_556
Zn32 Zn35 2.609681 1_555
Zn32 Zn36 2.674425 1_555
Zn32 Zn6 2.768852 1_565
Zn32 Zn8 2.768852 1_655
Zn33 Zn34 2.609681 1_555
Zn33 Zn39 2.674425 1_555
Zn33 Zn6 2.768843 1_555
Zn33 Zn9 2.768848 1_556
Zn34 Zn37 2.674425 1_555
Zn34 Zn8 2.768843 1_555
Zn34 Zn7 2.768848 1_556
Zn35 Zn38 2.674425 1_555
Zn35 Zn9 2.768843 1_565
Zn35 Zn7 2.768843 1_655
Zn36 Zn39 2.609681 1_555
Zn36 Zn4 2.768852 1_556
Zn36 Zn8 2.768852 1_655
Zn37 Zn38 2.609681 1_555
Zn37 Zn8 2.768843 1_555
Zn37 Zn5 2.768848 1_565
Zn38 Zn4 2.768843 1_555
Zn38 Zn9 2.768848 1_565
Zn39 Zn9 2.768843 1_556
Zn39 Zn5 2.768843 1_655
Co0 Zn15 2.490210 1_555
Co0 Zn6 2.490210 1_554
Co0 Zn12 2.490210 1_555
Co0 Zn10 2.490210 1_555
Co0 Zn4 2.490210 1_545
Co0 Zn9 2.490210 1_555
Co0 Zn38 2.726784 1_545
Co0 Zn33 2.726784 1_554
Co0 Zn21 2.726784 1_545
Co0 Zn26 2.726784 1_554
Co0 Zn16 2.726792 1_555
Co0 Zn28 2.726792 1_544
Co1 Zn13 2.490210 1_555
Co1 Zn14 2.490210 1_555
Co1 Zn10 2.490210 1_555
Co1 Zn8 2.490210 1_554
Co1 Zn4 2.490210 1_455
Co1 Zn7 2.490210 1_555
Co1 Zn29 2.726784 1_455
Co1 Zn34 2.726784 1_554
Co1 Zn17 2.726784 1_554
Co1 Zn22 2.726784 1_455
Co1 Zn24 2.726792 1_555
Co1 Zn36 2.726792 1_454
Co2 Zn11 2.490210 1_555
Co2 Zn14 2.490210 1_555
Co2 Zn12 2.490210 1_555
Co2 Zn8 2.490210 1_545
Co2 Zn6 2.490210 1_455
Co2 Zn5 2.490210 1_555
Co2 Zn37 2.726784 1_545
Co2 Zn30 2.726784 1_455
Co2 Zn18 2.726784 1_545
Co2 Zn25 2.726784 1_455
Co2 Zn20 2.726792 1_555
Co2 Zn32 2.726792 1_445
Co3 Zn5 2.490210 1_554
Co3 Zn7 2.490210 1_545
Co3 Zn9 2.490210 1_455
Co3 Zn11 2.490210 1_555
Co3 Zn13 2.490210 1_555
Co3 Zn15 2.490210 1_555
Co3 Zn35 2.726788 1_445
Co3 Zn39 2.726788 1_454
Co3 Zn31 2.726788 1_544
Co3 Zn19 2.726788 1_455
Co3 Zn27 2.726788 1_545
Co3 Zn23 2.726788 1_554
