# generated using pymatgen
data_Li9Mn7O16
_symmetry_space_group_name_H-M   'P 1'
_cell_length_a   3.03309463
_cell_length_b   19.58921634
_cell_length_c   5.11197797
_cell_angle_alpha   94.72045227
_cell_angle_beta   86.04219001
_cell_angle_gamma   89.29317678
_symmetry_Int_Tables_number   1
_chemical_formula_structural   Li9Mn7O16
_chemical_formula_sum   'Li9 Mn7 O16'
_cell_volume   301.93128649
_cell_formula_units_Z   1
loop_
 _symmetry_equiv_pos_site_id
 _symmetry_equiv_pos_as_xyz
  1  'x, y, z'
loop_
 _atom_site_type_symbol
 _atom_site_label
 _atom_site_symmetry_multiplicity
 _atom_site_fract_x
 _atom_site_fract_y
 _atom_site_fract_z
 _atom_site_occupancy
  Li  Li0  1  0.94393600  0.13277500  0.70152600  1
  Li  Li1  1  0.32032000  0.36885300  0.56571600  1
  Li  Li2  1  0.68774700  0.62460900  0.43779500  1
  Li  Li3  1  0.06225300  0.87539100  0.31220500  1
  Li  Li4  1  0.42968000  0.13114700  0.18428400  1
  Li  Li5  1  0.80606400  0.36722500  0.04847400  1
  Li  Li6  1  0.18720800  0.62472700  0.93699700  1
  Li  Li7  1  0.56279200  0.87527300  0.81300300  1
  Li  Li8  1  0.37500000  0.25000000  0.87500000  1
  Mn  Mn0  1  0.99692300  0.00080500  0.99943800  1
  Mn  Mn1  1  0.87500000  0.25000000  0.37500000  1
  Mn  Mn2  1  0.75307700  0.49919500  0.75056200  1
  Mn  Mn3  1  0.12503400  0.74997500  0.62494000  1
  Mn  Mn4  1  0.49647200  0.00053400  0.49937700  1
  Mn  Mn5  1  0.25352800  0.49946600  0.25062300  1
  Mn  Mn6  1  0.62496600  0.75002500  0.12506000  1
  O  O0  1  0.44419600  0.05762400  0.83329700  1
  O  O1  1  0.83720300  0.30900700  0.69351700  1
  O  O2  1  0.19223700  0.55839700  0.58449200  1
  O  O3  1  0.56593500  0.80819100  0.45859800  1
  O  O4  1  0.94950600  0.05605600  0.33705900  1
  O  O5  1  0.38488700  0.30366000  0.24074300  1
  O  O6  1  0.69618800  0.55804000  0.08451400  1
  O  O7  1  0.06611500  0.80820800  0.95832000  1
  O  O8  1  0.36511300  0.19634000  0.50925700  1
  O  O9  1  0.80049400  0.44394400  0.41294100  1
  O  O10  1  0.18406500  0.69180900  0.29140200  1
  O  O11  1  0.55776300  0.94160300  0.16550800  1
  O  O12  1  0.91279700  0.19099300  0.05648300  1
  O  O13  1  0.30580400  0.44237600  0.91670300  1
  O  O14  1  0.68388500  0.69179200  0.79168000  1
  O  O15  1  0.05381200  0.94196000  0.66548600  1
loop_
_geom_bond_atom_site_label_1
_geom_bond_atom_site_label_2
_geom_bond_distance
_geom_bond_site_symmetry_2
Li0 O8 2.053246 1_655
Li0 O12 2.057949 1_556
Li0 O0 2.235133 1_555
Li0 O0 2.274309 1_655
Li0 O4 2.294423 1_555
Li0 O8 2.446315 1_555
Li1 O1 1.996172 1_455
Li1 O5 2.007184 1_555
Li1 O1 2.116873 1_555
Li1 O13 2.204037 1_555
Li1 O9 2.231537 1_555
Li1 O9 2.358275 1_455
Li2 O2 2.134497 1_555
Li2 O6 2.137253 1_555
Li2 O14 2.147013 1_555
Li2 O10 2.148167 1_655
Li2 O2 2.203547 1_655
Li2 O10 2.212961 1_555
Li3 O11 2.134497 1_555
Li3 O15 2.137253 1_555
Li3 O7 2.147013 1_554
Li3 O3 2.148167 1_455
Li3 O11 2.203547 1_455
Li3 O3 2.212961 1_555
Li4 O12 1.996172 1_555
Li4 O8 2.007184 1_555
Li4 O12 2.116873 1_455
Li4 O0 2.204037 1_554
Li4 O4 2.231537 1_455
Li4 O4 2.358275 1_555
Li5 O5 2.053246 1_555
Li5 O1 2.057949 1_554
Li5 O13 2.235133 1_654
Li5 O13 2.274309 1_554
Li5 O9 2.294423 1_555
Li5 O5 2.446315 1_655
Li6 O2 2.132156 1_555
Li6 O6 2.132689 1_456
Li6 O14 2.145273 1_555
Li6 O10 2.148178 1_556
Li6 O14 2.208180 1_455
Li6 O6 2.220714 1_556
Li7 O11 2.132156 1_556
Li7 O15 2.132689 1_655
Li7 O7 2.145273 1_555
Li7 O3 2.148178 1_555
Li7 O7 2.208180 1_655
Li7 O15 2.220714 1_555
Li8 O1 2.049166 1_555
Li8 O12 2.049166 1_456
Li8 O5 2.070398 1_556
Li8 O8 2.070398 1_555
Li8 O12 2.279576 1_556
Li8 O1 2.279576 1_455
Mn0 O4 1.955843 1_556
Mn0 O0 1.958161 1_655
Mn0 O11 1.970781 1_546
Mn0 O15 1.975720 1_645
Mn0 O0 2.253186 1_555
Mn0 O11 2.296097 1_646
Mn1 O1 1.913542 1_555
Mn1 O12 1.913542 1_555
Mn1 O8 1.995009 1_555
Mn1 O5 1.995009 1_655
Mn1 O8 2.001712 1_655
Mn1 O5 2.001712 1_555
Mn2 O9 1.955843 1_555
Mn2 O13 1.958161 1_555
Mn2 O2 1.970781 1_655
Mn2 O6 1.975720 1_556
Mn2 O13 2.253186 1_655
Mn2 O2 2.296097 1_555
Mn3 O3 1.962705 1_555
Mn3 O14 1.963680 1_455
Mn3 O10 1.967378 1_555
Mn3 O7 1.967379 1_555
Mn3 O3 2.282606 1_455
Mn3 O14 2.282642 1_555
Mn4 O4 1.946178 1_555
Mn4 O0 1.957990 1_555
Mn4 O15 1.970092 1_545
Mn4 O11 1.976557 1_545
Mn4 O4 2.217608 1_455
Mn4 O15 2.281655 1_645
Mn5 O9 1.946178 1_455
Mn5 O13 1.957990 1_554
Mn5 O6 1.970092 1_555
Mn5 O2 1.976557 1_555
Mn5 O9 2.217608 1_555
Mn5 O6 2.281655 1_455
Mn6 O10 1.962705 1_555
Mn6 O7 1.963680 1_654
Mn6 O3 1.967378 1_555
Mn6 O14 1.967379 1_554
Mn6 O10 2.282606 1_655
Mn6 O7 2.282642 1_554
