# generated using pymatgen
data_Mg2AgPd
_symmetry_space_group_name_H-M   'P 1'
_cell_length_a   3.19331190
_cell_length_b   3.19331190
_cell_length_c   6.61017742
_cell_angle_alpha   90.00000000
_cell_angle_beta   90.00000000
_cell_angle_gamma   90.00000000
_symmetry_Int_Tables_number   1
_chemical_formula_structural   Mg2AgPd
_chemical_formula_sum   'Mg2 Ag1 Pd1'
_cell_volume   67.40557148
_cell_formula_units_Z   1
loop_
 _symmetry_equiv_pos_site_id
 _symmetry_equiv_pos_as_xyz
  1  'x, y, z'
loop_
 _atom_site_type_symbol
 _atom_site_label
 _atom_site_symmetry_multiplicity
 _atom_site_fract_x
 _atom_site_fract_y
 _atom_site_fract_z
 _atom_site_occupancy
  Mg  Mg0  1  0.50000000  0.50000000  0.26445245  1
  Mg  Mg1  1  0.50000000  0.50000000  0.73554755  1
  Ag  Ag0  1  -0.00000000  0.00000000  -0.00000000  1
  Pd  Pd0  1  -0.00000000  0.00000000  0.50000000  1
loop_
_geom_bond_atom_site_label_1
_geom_bond_atom_site_label_2
_geom_bond_distance
_geom_bond_site_symmetry_2
Mg0 Pd0 2.742791 1_555
Mg0 Pd0 2.742791 1_565
Mg0 Pd0 2.742791 1_655
Mg0 Pd0 2.742791 1_665
Mg1 Pd0 2.742791 1_555
Mg1 Pd0 2.742791 1_565
Mg1 Pd0 2.742791 1_655
Mg1 Pd0 2.742791 1_665
Ag0 Mg0 2.855590 1_555
Ag0 Mg1 2.855590 1_554
Ag0 Mg0 2.855590 1_445
Ag0 Mg1 2.855590 1_544
Ag0 Mg1 2.855590 1_454
Ag0 Mg0 2.855590 1_545
Ag0 Mg0 2.855590 1_455
Ag0 Mg1 2.855590 1_444
