# generated using pymatgen
data_Tb2Ga8Co
_symmetry_space_group_name_H-M   'P 1'
_cell_length_a   4.19818346
_cell_length_b   4.19818346
_cell_length_c   11.05348244
_cell_angle_alpha   90.00000000
_cell_angle_beta   90.00000000
_cell_angle_gamma   90.00000000
_symmetry_Int_Tables_number   1
_chemical_formula_structural   Tb2Ga8Co
_chemical_formula_sum   'Tb2 Ga8 Co1'
_cell_volume   194.81480233
_cell_formula_units_Z   1
loop_
 _symmetry_equiv_pos_site_id
 _symmetry_equiv_pos_as_xyz
  1  'x, y, z'
loop_
 _atom_site_type_symbol
 _atom_site_label
 _atom_site_symmetry_multiplicity
 _atom_site_fract_x
 _atom_site_fract_y
 _atom_site_fract_z
 _atom_site_occupancy
  Tb  Tb0  1  -0.00000000  0.00000000  0.69497224  1
  Tb  Tb1  1  -0.00000000  0.00000000  0.30502776  1
  Ga  Ga0  1  0.50000000  0.00000000  0.88532527  1
  Ga  Ga1  1  -0.00000000  0.50000000  0.88532527  1
  Ga  Ga2  1  0.50000000  0.00000000  0.11467473  1
  Ga  Ga3  1  -0.00000000  0.50000000  0.11467473  1
  Ga  Ga4  1  0.50000000  0.00000000  0.50000000  1
  Ga  Ga5  1  -0.00000000  0.50000000  0.50000000  1
  Ga  Ga6  1  0.50000000  0.50000000  0.69516889  1
  Ga  Ga7  1  0.50000000  0.50000000  0.30483111  1
  Co  Co0  1  -0.00000000  0.00000000  -0.00000000  1
loop_
_geom_bond_atom_site_label_1
_geom_bond_atom_site_label_2
_geom_bond_distance
_geom_bond_site_symmetry_2
Ga0 Ga2 2.535110 1_556
Ga0 Ga1 2.968564 1_555
Ga0 Ga1 2.968564 1_545
Ga0 Ga1 2.968564 1_645
Ga0 Ga1 2.968564 1_655
Ga0 Ga6 2.970543 1_545
Ga0 Ga6 2.970543 1_555
Ga0 Tb0 2.972082 1_555
Ga0 Tb0 2.972082 1_655
Ga1 Ga3 2.535110 1_556
Ga1 Ga6 2.970543 1_555
Ga1 Ga6 2.970543 1_455
Ga1 Tb0 2.972082 1_555
Ga1 Tb0 2.972082 1_565
Ga2 Ga3 2.968564 1_645
Ga2 Ga3 2.968564 1_655
Ga2 Ga3 2.968564 1_545
Ga2 Ga3 2.968564 1_555
Ga2 Ga7 2.970543 1_555
Ga2 Ga7 2.970543 1_545
Ga2 Tb1 2.972082 1_555
Ga2 Tb1 2.972082 1_655
Ga3 Ga7 2.970543 1_555
Ga3 Ga7 2.970543 1_455
Ga3 Tb1 2.972082 1_555
Ga3 Tb1 2.972082 1_565
Ga4 Ga5 2.968564 1_545
Ga4 Ga5 2.968564 1_555
Ga4 Ga5 2.968564 1_645
Ga4 Ga5 2.968564 1_655
Ga4 Tb0 3.008444 1_655
Ga4 Tb1 3.008444 1_555
Ga4 Tb1 3.008444 1_655
Ga4 Tb0 3.008444 1_555
Ga4 Ga7 3.010002 1_545
Ga4 Ga7 3.010002 1_555
Ga4 Ga6 3.010002 1_555
Ga4 Ga6 3.010002 1_545
Ga5 Tb0 3.008444 1_565
Ga5 Tb1 3.008444 1_565
Ga5 Tb1 3.008444 1_555
Ga5 Tb0 3.008444 1_555
Ga5 Ga7 3.010002 1_555
Ga5 Ga7 3.010002 1_455
Ga5 Ga6 3.010002 1_555
Ga5 Ga6 3.010002 1_455
Ga6 Tb0 2.968565 1_665
Ga6 Tb0 2.968565 1_655
Ga6 Tb0 2.968565 1_565
Ga6 Tb0 2.968565 1_555
Ga7 Tb1 2.968565 1_565
Ga7 Tb1 2.968565 1_555
Ga7 Tb1 2.968565 1_655
Ga7 Tb1 2.968565 1_665
Co0 Ga0 2.452118 1_554
Co0 Ga3 2.452118 1_545
Co0 Ga3 2.452118 1_555
Co0 Ga2 2.452118 1_555
Co0 Ga0 2.452118 1_454
Co0 Ga1 2.452118 1_554
Co0 Ga1 2.452118 1_544
Co0 Ga2 2.452118 1_455
