# generated using pymatgen
data_BaSrNdCrO6
_symmetry_space_group_name_H-M   'P 1'
_cell_length_a   5.92671948
_cell_length_b   5.89921598
_cell_length_c   8.40695631
_cell_angle_alpha   90.20786040
_cell_angle_beta   89.69521893
_cell_angle_gamma   88.98537490
_symmetry_Int_Tables_number   1
_chemical_formula_structural   BaSrNdCrO6
_chemical_formula_sum   'Ba2 Sr2 Nd2 Cr2 O12'
_cell_volume   293.88011797
_cell_formula_units_Z   2
loop_
 _symmetry_equiv_pos_site_id
 _symmetry_equiv_pos_as_xyz
  1  'x, y, z'
loop_
 _atom_site_type_symbol
 _atom_site_label
 _atom_site_symmetry_multiplicity
 _atom_site_fract_x
 _atom_site_fract_y
 _atom_site_fract_z
 _atom_site_occupancy
  Ba  Ba0  1  0.99771636  0.01201349  0.24739406  1
  Ba  Ba1  1  0.00228364  0.98798651  0.75260594  1
  Sr  Sr0  1  0.49969014  0.51582494  0.25142002  1
  Sr  Sr1  1  0.50030986  0.48417506  0.74857998  1
  Nd  Nd0  1  0.50000000  -0.00000000  0.00000000  1
  Nd  Nd1  1  0.00000000  0.50000000  0.50000000  1
  Cr  Cr0  1  0.00000000  0.50000000  0.00000000  1
  Cr  Cr1  1  0.50000000  -0.00000000  0.50000000  1
  O  O0  1  0.20093576  0.25313155  0.97428885  1
  O  O1  1  0.30011044  0.74312980  0.52644970  1
  O  O2  1  0.79906424  0.74686845  0.02571115  1
  O  O3  1  0.69988956  0.25687020  0.47355030  1
  O  O4  1  0.24720111  0.70013822  0.97211621  1
  O  O5  1  0.25993935  0.19877094  0.52203935  1
  O  O6  1  0.75279889  0.29986178  0.02788379  1
  O  O7  1  0.74006065  0.80122906  0.47796065  1
  O  O8  1  0.45653207  0.98802298  0.27390993  1
  O  O9  1  0.05871814  0.49754044  0.22444285  1
  O  O10  1  0.54346793  0.01197702  0.72609007  1
  O  O11  1  0.94128186  0.50245956  0.77555715  1
loop_
_geom_bond_atom_site_label_1
_geom_bond_atom_site_label_2
_geom_bond_distance
_geom_bond_site_symmetry_2
Ba0 O2 2.715407 1_545
Ba0 O8 2.730789 1_645
Ba0 O7 2.772830 1_545
Ba0 O6 2.891364 1_555
Ba0 O9 2.900291 1_655
Ba0 O3 2.944679 1_555
Ba0 O0 2.966542 1_654
Ba0 O5 3.006760 1_655
Ba0 O9 3.055362 1_645
Ba0 O8 3.219649 1_545
Ba0 O4 3.280759 1_644
Ba0 O1 3.347065 1_645
Ba1 O0 2.715407 1_565
Ba1 O10 2.730789 1_465
Ba1 O5 2.772830 1_565
Ba1 O4 2.891364 1_555
Ba1 O11 2.900291 1_455
Ba1 O1 2.944679 1_555
Ba1 O2 2.966542 1_456
Ba1 O7 3.006760 1_455
Ba1 O11 3.055362 1_465
Ba1 O10 3.219649 1_565
Ba1 O6 3.280759 1_466
Ba1 O3 3.347065 1_465
Nd0 O0 2.308881 1_554
Nd0 O2 2.308881 1_545
Nd0 O10 2.317224 1_554
Nd0 O8 2.317224 1_545
Nd0 O4 2.350220 1_544
Nd0 O6 2.350220 1_555
Nd1 O1 2.315707 1_555
Nd1 O3 2.315707 1_455
Nd1 O5 2.339657 1_555
Nd1 O7 2.339657 1_455
Nd1 O11 2.340714 1_455
Nd1 O9 2.340714 1_555
Cr0 O0 1.876005 1_554
Cr0 O2 1.876005 1_455
Cr0 O6 1.911809 1_455
Cr0 O4 1.911809 1_554
Cr0 O11 1.920585 1_454
Cr0 O9 1.920585 1_555
Cr1 O7 1.835788 1_545
Cr1 O5 1.835788 1_555
Cr1 O8 1.920680 1_545
Cr1 O10 1.920680 1_555
Cr1 O3 1.952533 1_555
Cr1 O1 1.952533 1_545
O0 Sr1 2.945345 1_555
O1 Sr1 2.684941 1_555
O1 Sr0 2.904400 1_555
O2 Sr0 2.945345 1_555
O3 Sr0 2.684941 1_555
O3 Sr1 2.904400 1_555
O4 Sr1 2.699999 1_555
O4 Sr0 2.988874 1_556
O5 Sr1 2.929497 1_555
O6 Sr0 2.699999 1_555
O6 Sr1 2.988874 1_554
O7 Sr0 2.929497 1_555
O8 Sr0 2.798421 1_555
O8 Sr0 3.134925 1_565
O9 Sr0 2.628622 1_555
O10 Sr1 2.798421 1_555
O10 Sr1 3.134925 1_545
O11 Sr1 2.628622 1_555
