# generated using pymatgen
data_Sc3B2Ir5
_symmetry_space_group_name_H-M   'P 1'
_cell_length_a   3.05780769
_cell_length_b   9.58299453
_cell_length_c   9.58299453
_cell_angle_alpha   90.00000000
_cell_angle_beta   90.00000000
_cell_angle_gamma   90.00000000
_symmetry_Int_Tables_number   1
_chemical_formula_structural   Sc3B2Ir5
_chemical_formula_sum   'Sc6 B4 Ir10'
_cell_volume   280.81005141
_cell_formula_units_Z   2
loop_
 _symmetry_equiv_pos_site_id
 _symmetry_equiv_pos_as_xyz
  1  'x, y, z'
loop_
 _atom_site_type_symbol
 _atom_site_label
 _atom_site_symmetry_multiplicity
 _atom_site_fract_x
 _atom_site_fract_y
 _atom_site_fract_z
 _atom_site_occupancy
  Sc  Sc0  1  -0.00000000  0.17670761  0.67670761  1
  Sc  Sc1  1  0.00000000  0.82329239  0.32329239  1
  Sc  Sc2  1  -0.00000000  0.32329239  0.17670761  1
  Sc  Sc3  1  0.00000000  0.67670761  0.82329239  1
  Sc  Sc4  1  0.00000000  0.00000000  -0.00000000  1
  Sc  Sc5  1  0.00000000  0.50000000  0.50000000  1
  B  B0  1  0.00000000  0.62233500  0.12233500  1
  B  B1  1  -0.00000000  0.37766500  0.87766500  1
  B  B2  1  -0.00000000  0.87766500  0.62233500  1
  B  B3  1  0.00000000  0.12233500  0.37766500  1
  Ir  Ir0  1  0.50000000  0.07032992  0.22271807  1
  Ir  Ir1  1  0.50000000  0.92967008  0.77728193  1
  Ir  Ir2  1  0.50000000  0.77728193  0.07032992  1
  Ir  Ir3  1  0.50000000  0.42967008  0.72271807  1
  Ir  Ir4  1  0.50000000  0.22271807  0.92967008  1
  Ir  Ir5  1  0.50000000  0.57032992  0.27728193  1
  Ir  Ir6  1  0.50000000  0.72271807  0.57032992  1
  Ir  Ir7  1  0.50000000  0.27728193  0.42967008  1
  Ir  Ir8  1  0.50000000  0.00000000  0.50000000  1
  Ir  Ir9  1  0.50000000  0.50000000  -0.00000000  1
loop_
_geom_bond_atom_site_label_1
_geom_bond_atom_site_label_2
_geom_bond_distance
_geom_bond_site_symmetry_2
B0 Ir5 2.188769 1_455
B0 Ir5 2.188769 1_555
B0 Ir2 2.188769 1_555
B0 Ir2 2.188769 1_455
B0 Ir9 2.255280 1_455
B0 Ir9 2.255280 1_555
B0 Sc1 2.723455 1_555
B0 Sc2 2.912708 1_555
B0 Sc3 2.912708 1_554
B1 Ir4 2.188769 1_555
B1 Ir4 2.188769 1_455
B1 Ir3 2.188769 1_455
B1 Ir3 2.188769 1_555
B1 Ir9 2.255280 1_556
B1 Ir9 2.255280 1_456
B1 Sc0 2.723455 1_555
B1 Sc2 2.912708 1_556
B1 Sc3 2.912708 1_555
B2 Ir1 2.188769 1_455
B2 Ir6 2.188769 1_555
B2 Ir6 2.188769 1_455
B2 Ir1 2.188769 1_555
B2 Ir8 2.255280 1_565
B2 Ir8 2.255280 1_465
B2 Sc3 2.723455 1_555
B2 Sc1 2.912708 1_555
B2 Sc0 2.912708 1_565
B3 Ir0 2.188769 1_455
B3 Ir0 2.188769 1_555
B3 Ir7 2.188769 1_455
B3 Ir7 2.188769 1_555
B3 Ir8 2.255280 1_555
B3 Ir8 2.255280 1_455
B3 Sc2 2.723455 1_555
B3 Sc1 2.912708 1_545
B3 Sc0 2.912708 1_555
Ir0 Sc4 2.710544 1_655
Ir0 Sc4 2.710544 1_555
Ir0 Sc2 2.899724 1_555
Ir0 Sc2 2.899724 1_655
Ir0 Sc1 2.978398 1_645
Ir0 Sc1 2.978398 1_545
Ir1 Sc4 2.710544 1_666
Ir1 Sc4 2.710544 1_566
Ir1 Sc3 2.899724 1_555
Ir1 Sc3 2.899724 1_655
Ir1 Sc0 2.978398 1_665
Ir1 Sc0 2.978398 1_565
Ir2 Sc4 2.710544 1_565
Ir2 Sc4 2.710544 1_665
Ir2 Sc1 2.899724 1_555
Ir2 Sc1 2.899724 1_655
Ir2 Sc3 2.978398 1_654
Ir2 Sc3 2.978398 1_554
Ir3 Sc5 2.710544 1_555
Ir3 Sc5 2.710544 1_655
Ir3 Sc0 2.899724 1_655
Ir3 Sc0 2.899724 1_555
Ir3 Sc3 2.978398 1_655
Ir3 Sc3 2.978398 1_555
Ir4 Sc4 2.710544 1_556
Ir4 Sc4 2.710544 1_656
Ir4 Sc0 2.899724 1_655
Ir4 Sc0 2.899724 1_555
Ir4 Sc2 2.978398 1_656
Ir4 Sc2 2.978398 1_556
Ir5 Sc5 2.710544 1_555
Ir5 Sc5 2.710544 1_655
Ir5 Sc1 2.899724 1_655
Ir5 Sc1 2.899724 1_555
Ir5 Sc2 2.978398 1_555
Ir5 Sc2 2.978398 1_655
Ir6 Sc5 2.710544 1_555
Ir6 Sc5 2.710544 1_655
Ir6 Sc3 2.899724 1_555
Ir6 Sc3 2.899724 1_655
Ir6 Sc1 2.978398 1_655
Ir6 Sc1 2.978398 1_555
Ir7 Sc5 2.710544 1_555
Ir7 Sc5 2.710544 1_655
Ir7 Sc2 2.899724 1_555
Ir7 Sc2 2.899724 1_655
Ir7 Sc0 2.978398 1_655
Ir7 Sc0 2.978398 1_555
Ir8 Sc0 2.841245 1_655
Ir8 Sc0 2.841245 1_555
Ir8 Sc1 2.841245 1_645
Ir8 Sc1 2.841245 1_545
Ir9 Sc2 2.841245 1_555
Ir9 Sc2 2.841245 1_655
Ir9 Sc3 2.841245 1_654
Ir9 Sc3 2.841245 1_554
