# generated using pymatgen
data_Ba6Y2Al4O15
_symmetry_space_group_name_H-M   'P 1'
_cell_length_a   5.97011700
_cell_length_b   7.95398700
_cell_length_c   18.55933872
_cell_angle_alpha   88.30291517
_cell_angle_beta   90.00000000
_cell_angle_gamma   90.00000000
_symmetry_Int_Tables_number   1
_chemical_formula_structural   Ba6Y2Al4O15
_chemical_formula_sum   'Ba12 Y4 Al8 O30'
_cell_volume   880.92651078
_cell_formula_units_Z   2
loop_
 _symmetry_equiv_pos_site_id
 _symmetry_equiv_pos_as_xyz
  1  'x, y, z'
loop_
 _atom_site_type_symbol
 _atom_site_label
 _atom_site_symmetry_multiplicity
 _atom_site_fract_x
 _atom_site_fract_y
 _atom_site_fract_z
 _atom_site_occupancy
  Ba  Ba0  1  0.75822100  0.50199000  0.08234600  1
  Ba  Ba1  1  0.24177900  0.49801000  0.91765400  1
  Ba  Ba2  1  0.75822100  0.49801000  0.41765400  1
  Ba  Ba3  1  0.24177900  0.50199000  0.58234600  1
  Ba  Ba4  1  0.74535900  0.96937200  0.08952700  1
  Ba  Ba5  1  0.25464100  0.03062800  0.91047300  1
  Ba  Ba6  1  0.74535900  0.03062800  0.41047300  1
  Ba  Ba7  1  0.25464100  0.96937200  0.58952700  1
  Ba  Ba8  1  0.72604800  0.00000000  0.75000000  1
  Ba  Ba9  1  0.27395200  0.00000000  0.25000000  1
  Ba  Ba10  1  0.67058400  0.50000000  0.75000000  1
  Ba  Ba11  1  0.32941600  0.50000000  0.25000000  1
  Y  Y0  1  0.74688100  0.75175400  0.91033800  1
  Y  Y1  1  0.25311900  0.24824600  0.08966200  1
  Y  Y2  1  0.74688100  0.24824600  0.58966200  1
  Y  Y3  1  0.25311900  0.75175400  0.41033800  1
  Al  Al0  1  0.74937300  0.75229400  0.55590600  1
  Al  Al1  1  0.25062700  0.24770600  0.44409400  1
  Al  Al2  1  0.74937300  0.24770600  0.94409400  1
  Al  Al3  1  0.25062700  0.75229400  0.05590600  1
  Al  Al4  1  0.77117600  0.77968900  0.26799500  1
  Al  Al5  1  0.22882400  0.22031100  0.73200500  1
  Al  Al6  1  0.77117600  0.22031100  0.23200500  1
  Al  Al7  1  0.22882400  0.77968900  0.76799500  1
  O  O0  1  0.20885200  0.00000000  0.75000000  1
  O  O1  1  0.79114800  0.00000000  0.25000000  1
  O  O2  1  0.49758800  0.76394900  0.00071300  1
  O  O3  1  0.50241200  0.23605100  0.99928700  1
  O  O4  1  0.49758800  0.23605100  0.49928700  1
  O  O5  1  0.50241200  0.76394900  0.50071300  1
  O  O6  1  0.76016200  0.94293000  0.60600000  1
  O  O7  1  0.23983800  0.05707000  0.39400000  1
  O  O8  1  0.76016200  0.05707000  0.89400000  1
  O  O9  1  0.23983800  0.94293000  0.10600000  1
  O  O10  1  0.01244200  0.76216100  0.99584300  1
  O  O11  1  0.98755800  0.23783900  0.00415700  1
  O  O12  1  0.01244200  0.23783900  0.50415700  1
  O  O13  1  0.98755800  0.76216100  0.49584300  1
  O  O14  1  0.31390900  0.69251000  0.68702400  1
  O  O15  1  0.68609100  0.30749000  0.31297600  1
  O  O16  1  0.31390900  0.30749000  0.81297600  1
  O  O17  1  0.68609100  0.69251000  0.18702400  1
  O  O18  1  0.45048400  0.75339700  0.83301600  1
  O  O19  1  0.54951600  0.24660300  0.16698400  1
  O  O20  1  0.45048400  0.24660300  0.66698400  1
  O  O21  1  0.54951600  0.75339700  0.33301600  1
  O  O22  1  0.97121900  0.72978800  0.81137400  1
  O  O23  1  0.02878100  0.27021200  0.18862600  1
  O  O24  1  0.97121900  0.27021200  0.68862600  1
  O  O25  1  0.02878100  0.72978800  0.31137400  1
  O  O26  1  0.75371700  0.54007700  0.59220500  1
  O  O27  1  0.24628300  0.45992300  0.40779500  1
  O  O28  1  0.75371700  0.45992300  0.90779500  1
  O  O29  1  0.24628300  0.54007700  0.09220500  1
loop_
_geom_bond_atom_site_label_1
_geom_bond_atom_site_label_2
_geom_bond_distance
_geom_bond_site_symmetry_2
Ba0 O17 2.535849 1_555
Ba0 O19 2.820878 1_555
Ba0 O11 2.928384 1_555
Ba0 O29 2.935761 1_655
Ba0 O2 2.978429 1_555
Ba0 O10 2.994421 1_654
Ba0 O3 3.062055 1_554
Ba0 O29 3.077286 1_555
Ba0 O23 3.111774 1_655
Ba0 O28 3.266738 1_554
Ba1 O16 2.535849 1_555
Ba1 O18 2.820878 1_555
Ba1 O10 2.928384 1_555
Ba1 O28 2.935761 1_455
Ba1 O3 2.978429 1_555
Ba1 O11 2.994421 1_456
Ba1 O2 3.062055 1_556
Ba1 O28 3.077286 1_555
Ba1 O22 3.111774 1_455
Ba1 O29 3.266738 1_556
Ba2 O15 2.535849 1_555
Ba2 O21 2.820878 1_555
Ba2 O13 2.928384 1_555
Ba2 O27 2.935761 1_655
Ba2 O4 2.978429 1_555
Ba2 O12 2.994421 1_655
Ba2 O5 3.062055 1_555
Ba2 O27 3.077286 1_555
Ba2 O25 3.111774 1_655
Ba2 O26 3.266738 1_555
Ba3 O14 2.535849 1_555
Ba3 O20 2.820878 1_555
Ba3 O12 2.928384 1_555
Ba3 O26 2.935761 1_455
Ba3 O5 2.978429 1_555
Ba3 O13 2.994421 1_455
Ba3 O4 3.062055 1_555
Ba3 O26 3.077286 1_555
Ba3 O24 3.111774 1_455
Ba3 O27 3.266738 1_555
Ba4 O2 2.781069 1_555
Ba4 O17 2.830705 1_555
Ba4 O10 2.907190 1_654
Ba4 O19 2.912693 1_565
Ba4 O9 2.974689 1_655
Ba4 O11 2.993428 1_565
Ba4 O1 3.007850 1_565
Ba4 O3 3.032749 1_564
Ba4 O9 3.040121 1_555
Ba5 O3 2.781069 1_555
Ba5 O16 2.830705 1_555
Ba5 O11 2.907190 1_456
Ba5 O18 2.912693 1_545
Ba5 O8 2.974689 1_455
Ba5 O10 2.993428 1_545
Ba5 O0 3.007850 1_555
Ba5 O2 3.032749 1_546
Ba5 O8 3.040121 1_555
Ba6 O4 2.781069 1_555
Ba6 O15 2.830705 1_555
Ba6 O12 2.907190 1_655
Ba6 O21 2.912693 1_545
Ba6 O7 2.974689 1_655
Ba6 O13 2.993428 1_545
Ba6 O1 3.007850 1_555
Ba6 O5 3.032749 1_545
Ba6 O7 3.040121 1_555
Ba7 O5 2.781069 1_555
Ba7 O14 2.830705 1_555
Ba7 O13 2.907190 1_455
Ba7 O20 2.912693 1_565
Ba7 O6 2.974689 1_455
Ba7 O12 2.993428 1_565
Ba7 O0 3.007850 1_565
Ba7 O4 3.032749 1_565
Ba7 O6 3.040121 1_555
Ba8 O8 2.731646 1_555
Ba8 O6 2.731646 1_545
Ba8 O22 2.813219 1_545
Ba8 O24 2.813219 1_555
Ba8 O0 2.882396 1_655
Ba8 O20 2.957826 1_555
Ba8 O18 2.957826 1_545
Ba8 O0 3.087721 1_555
Ba9 O7 2.731646 1_555
Ba9 O9 2.731646 1_545
Ba9 O23 2.813219 1_555
Ba9 O25 2.813219 1_545
Ba9 O1 2.882396 1_455
Ba9 O19 2.957826 1_555
Ba9 O21 2.957826 1_545
Ba9 O1 3.087721 1_555
Ba10 O22 2.825380 1_555
Ba10 O24 2.825380 1_555
Ba10 O16 2.852897 1_555
Ba10 O14 2.852897 1_555
Ba10 O20 2.889069 1_555
Ba10 O18 2.889069 1_555
Ba10 O28 2.978116 1_555
Ba10 O26 2.978116 1_555
Ba11 O25 2.825380 1_555
Ba11 O23 2.825380 1_555
Ba11 O15 2.852897 1_555
Ba11 O17 2.852897 1_555
Ba11 O19 2.889069 1_555
Ba11 O21 2.889069 1_555
Ba11 O27 2.978116 1_555
Ba11 O29 2.978116 1_555
Al0 O5 1.796126 1_555
Al0 O26 1.799004 1_555
Al0 O6 1.803116 1_555
Al0 O13 1.807114 1_555
Al1 O4 1.796126 1_555
Al1 O27 1.799004 1_555
Al1 O7 1.803116 1_555
Al1 O12 1.807114 1_555
Al2 O3 1.796126 1_555
Al2 O28 1.799004 1_555
Al2 O8 1.803116 1_555
Al2 O11 1.807114 1_556
Al3 O2 1.796126 1_555
Al3 O29 1.799004 1_555
Al3 O9 1.803116 1_555
Al3 O10 1.807114 1_554
Al4 O17 1.748970 1_555
Al4 O25 1.775390 1_655
Al4 O1 1.778152 1_565
Al4 O21 1.798956 1_555
Al5 O16 1.748970 1_555
Al5 O24 1.775390 1_455
Al5 O0 1.778152 1_555
Al5 O20 1.798956 1_555
Al6 O15 1.748970 1_555
Al6 O23 1.775390 1_655
Al6 O1 1.778152 1_555
Al6 O19 1.798956 1_555
Al7 O14 1.748970 1_555
Al7 O22 1.775390 1_455
Al7 O0 1.778152 1_565
Al7 O18 1.798956 1_555
O2 Y0 2.246652 1_554
O3 Y1 2.246652 1_556
O4 Y2 2.246652 1_555
O5 Y3 2.246652 1_555
O6 Y2 2.439698 1_565
O7 Y3 2.439698 1_545
O8 Y0 2.439698 1_545
O9 Y1 2.439698 1_565
O10 Y0 2.246447 1_455
O11 Y1 2.246447 1_655
O12 Y2 2.246447 1_455
O13 Y3 2.246447 1_655
O18 Y0 2.278077 1_555
O19 Y1 2.278077 1_555
O20 Y2 2.278077 1_555
O21 Y3 2.278077 1_555
O22 Y0 2.284034 1_555
O23 Y1 2.284034 1_555
O24 Y2 2.284034 1_555
O25 Y3 2.284034 1_555
O26 Y2 2.323455 1_555
O27 Y3 2.323455 1_555
O28 Y0 2.323455 1_555
O29 Y1 2.323455 1_555
