# generated using pymatgen
data_V2ZnP2O9
_symmetry_space_group_name_H-M   'P 1'
_cell_length_a   6.30484700
_cell_length_b   7.44561200
_cell_length_c   14.32497600
_cell_angle_alpha   90.00000000
_cell_angle_beta   90.00000000
_cell_angle_gamma   90.00000000
_symmetry_Int_Tables_number   1
_chemical_formula_structural   V2ZnP2O9
_chemical_formula_sum   'V8 Zn4 P8 O36'
_cell_volume   672.46371555
_cell_formula_units_Z   4
loop_
 _symmetry_equiv_pos_site_id
 _symmetry_equiv_pos_as_xyz
  1  'x, y, z'
loop_
 _atom_site_type_symbol
 _atom_site_label
 _atom_site_symmetry_multiplicity
 _atom_site_fract_x
 _atom_site_fract_y
 _atom_site_fract_z
 _atom_site_occupancy
  V  V0  1  0.75000000  0.85286400  0.87759500  1
  V  V1  1  0.25000000  0.14713600  0.12240500  1
  V  V2  1  0.25000000  0.35286400  0.62240500  1
  V  V3  1  0.75000000  0.64713600  0.37759500  1
  V  V4  1  0.50000000  0.50000000  0.00000000  1
  V  V5  1  0.50000000  0.00000000  0.50000000  1
  V  V6  1  0.00000000  0.00000000  0.50000000  1
  V  V7  1  0.00000000  0.50000000  0.00000000  1
  Zn  Zn0  1  0.75000000  0.42951600  0.76876700  1
  Zn  Zn1  1  0.75000000  0.07048400  0.26876700  1
  Zn  Zn2  1  0.25000000  0.92951600  0.73123300  1
  Zn  Zn3  1  0.25000000  0.57048400  0.23123300  1
  P  P0  1  0.25000000  0.86642200  0.92935600  1
  P  P1  1  0.75000000  0.13357800  0.07064400  1
  P  P2  1  0.75000000  0.36642200  0.57064400  1
  P  P3  1  0.25000000  0.63357800  0.42935600  1
  P  P4  1  0.75000000  0.88644700  0.69416200  1
  P  P5  1  0.75000000  0.61355300  0.19416200  1
  P  P6  1  0.25000000  0.38644700  0.80583800  1
  P  P7  1  0.25000000  0.11355300  0.30583800  1
  O  O0  1  0.03912200  0.10514900  0.36398800  1
  O  O1  1  0.53912200  0.89485100  0.63601200  1
  O  O2  1  0.96087800  0.60514900  0.13601200  1
  O  O3  1  0.46087800  0.39485100  0.86398800  1
  O  O4  1  0.96087800  0.89485100  0.63601200  1
  O  O5  1  0.46087800  0.10514900  0.36398800  1
  O  O6  1  0.03912200  0.39485100  0.86398800  1
  O  O7  1  0.53912200  0.60514900  0.13601200  1
  O  O8  1  0.25000000  0.82295900  0.47490700  1
  O  O9  1  0.75000000  0.17704100  0.52509300  1
  O  O10  1  0.75000000  0.32295900  0.02509300  1
  O  O11  1  0.25000000  0.67704100  0.97490700  1
  O  O12  1  0.75000000  0.63233800  0.95285300  1
  O  O13  1  0.25000000  0.36766200  0.04714700  1
  O  O14  1  0.25000000  0.13233800  0.54714700  1
  O  O15  1  0.75000000  0.86766200  0.45285300  1
  O  O16  1  0.75000000  0.70688000  0.75298500  1
  O  O17  1  0.25000000  0.29312000  0.24701500  1
  O  O18  1  0.25000000  0.20688000  0.74701500  1
  O  O19  1  0.75000000  0.79312000  0.25298500  1
  O  O20  1  0.43766200  0.62216500  0.35864800  1
  O  O21  1  0.93766200  0.37783500  0.64135200  1
  O  O22  1  0.56233800  0.12216500  0.14135200  1
  O  O23  1  0.06233800  0.87783500  0.85864800  1
  O  O24  1  0.56233800  0.37783500  0.64135200  1
  O  O25  1  0.06233800  0.62216500  0.35864800  1
  O  O26  1  0.43766200  0.87783500  0.85864800  1
  O  O27  1  0.93766200  0.12216500  0.14135200  1
  O  O28  1  0.75000000  0.98843500  0.99859100  1
  O  O29  1  0.25000000  0.53811000  0.73199700  1
  O  O30  1  0.25000000  0.96189000  0.23199700  1
  O  O31  1  0.75000000  0.03811000  0.76800300  1
  O  O32  1  0.75000000  0.51156500  0.49859100  1
  O  O33  1  0.25000000  0.48843500  0.50140900  1
  O  O34  1  0.25000000  0.01156500  0.00140900  1
  O  O35  1  0.75000000  0.46189000  0.26800300  1
loop_
_geom_bond_atom_site_label_1
_geom_bond_atom_site_label_2
_geom_bond_distance
_geom_bond_site_symmetry_2
O0 P7 1.570195 1_555
O0 V6 2.114216 1_555
O0 Zn1 2.291304 1_455
O1 P4 1.570195 1_555
O1 V5 2.114216 1_565
O1 Zn2 2.291304 1_555
O2 P5 1.570195 1_555
O2 V7 2.114216 1_655
O2 Zn3 2.291304 1_655
O3 P6 1.570195 1_555
O3 V4 2.114216 1_556
O3 Zn0 2.291304 1_555
O4 P4 1.570195 1_555
O4 V6 2.114216 1_665
O4 Zn2 2.291304 1_655
O5 P7 1.570195 1_555
O5 V5 2.114216 1_555
O5 Zn1 2.291304 1_555
O6 P6 1.570195 1_555
O6 V7 2.114216 1_556
O6 Zn0 2.291304 1_455
O7 P5 1.570195 1_555
O7 V4 2.114216 1_555
O7 Zn3 2.291304 1_555
O8 P3 1.553718 1_555
O8 V6 2.085964 1_565
O8 V5 2.085964 1_565
O9 P2 1.553718 1_555
O9 V6 2.085964 1_655
O9 V5 2.085964 1_555
O10 P1 1.553718 1_555
O10 V4 2.085964 1_555
O10 V7 2.085964 1_655
O11 P0 1.553718 1_555
O11 V7 2.085964 1_556
O11 V4 2.085964 1_556
O12 V0 1.964239 1_555
O12 V4 1.977744 1_556
O12 V7 1.977744 1_656
O13 V1 1.964239 1_555
O13 V7 1.977744 1_555
O13 V4 1.977744 1_555
O14 V2 1.964239 1_555
O14 V5 1.977744 1_555
O14 V6 1.977744 1_555
O15 V3 1.964239 1_555
O15 V6 1.977744 1_665
O15 V5 1.977744 1_565
O16 P4 1.580371 1_555
O16 Zn0 2.077482 1_555
O16 V0 2.089926 1_555
O17 P7 1.580371 1_555
O17 Zn3 2.077482 1_555
O17 V1 2.089926 1_555
O18 P6 1.580371 1_555
O18 Zn2 2.077482 1_545
O18 V2 2.089926 1_555
O19 P5 1.580371 1_555
O19 Zn1 2.077482 1_565
O19 V3 2.089926 1_555
O20 P3 1.559834 1_555
O20 V3 1.996535 1_555
O20 Zn3 2.208936 1_555
O21 P2 1.559834 1_555
O21 V2 1.996535 1_655
O21 Zn0 2.208936 1_555
O22 P1 1.559834 1_555
O22 V1 1.996535 1_555
O22 Zn1 2.208936 1_555
O23 P0 1.559834 1_555
O23 V0 1.996535 1_455
O23 Zn2 2.208936 1_555
O24 P2 1.559834 1_555
O24 V2 1.996535 1_555
O24 Zn0 2.208936 1_555
O25 P3 1.559834 1_555
O25 V3 1.996535 1_455
O25 Zn3 2.208936 1_555
O26 P0 1.559834 1_555
O26 V0 1.996535 1_555
O26 Zn2 2.208936 1_555
O27 P1 1.559834 1_555
O27 V1 1.996535 1_655
O27 Zn1 2.208936 1_555
O28 P1 1.494395 1_566
O28 V0 2.005770 1_555
O29 P6 1.547264 1_555
O29 V2 2.089732 1_555
O30 P7 1.547264 1_565
O30 V1 2.089732 1_565
O31 P4 1.547264 1_545
O31 V0 2.089732 1_545
O32 P2 1.494395 1_555
O32 V3 2.005770 1_555
O33 P3 1.494395 1_555
O33 V2 2.005770 1_555
O34 P0 1.494395 1_544
O34 V1 2.005770 1_555
O35 P5 1.547264 1_555
O35 V3 2.089732 1_555
