# generated using pymatgen
data_Al2P2NO8
_symmetry_space_group_name_H-M   'P 1'
_cell_length_a   9.37392107
_cell_length_b   9.37392107
_cell_length_c   8.81971310
_cell_angle_alpha   82.54722486
_cell_angle_beta   82.54722486
_cell_angle_gamma   89.90756072
_symmetry_Int_Tables_number   1
_chemical_formula_structural   Al2P2NO8
_chemical_formula_sum   'Al8 P8 N4 O32'
_cell_volume   761.86170526
_cell_formula_units_Z   4
loop_
 _symmetry_equiv_pos_site_id
 _symmetry_equiv_pos_as_xyz
  1  'x, y, z'
loop_
 _atom_site_type_symbol
 _atom_site_label
 _atom_site_symmetry_multiplicity
 _atom_site_fract_x
 _atom_site_fract_y
 _atom_site_fract_z
 _atom_site_occupancy
  Al  Al0  1  0.54923400  0.28777700  0.55542200  1
  Al  Al1  1  0.45076600  0.71222300  0.44457800  1
  Al  Al2  1  0.71222300  0.45076600  0.94457800  1
  Al  Al3  1  0.28777700  0.54923400  0.05542200  1
  Al  Al4  1  0.80449900  0.92420900  0.89248300  1
  Al  Al5  1  0.19550100  0.07579100  0.10751700  1
  Al  Al6  1  0.07579100  0.19550100  0.60751700  1
  Al  Al7  1  0.92420900  0.80449900  0.39248300  1
  P  P0  1  0.41981100  0.29805700  0.90997100  1
  P  P1  1  0.58018900  0.70194300  0.09002900  1
  P  P2  1  0.70194300  0.58018900  0.59002900  1
  P  P3  1  0.29805700  0.41981100  0.40997100  1
  P  P4  1  0.79321800  0.05836100  0.54203600  1
  P  P5  1  0.20678200  0.94163900  0.45796400  1
  P  P6  1  0.94163900  0.20678200  0.95796400  1
  P  P7  1  0.05836100  0.79321800  0.04203600  1
  N  N0  1  0.42954400  0.92637000  0.77497600  1
  N  N1  1  0.57045600  0.07363000  0.22502400  1
  N  N2  1  0.07363000  0.57045600  0.72502400  1
  N  N3  1  0.92637000  0.42954400  0.27497600  1
  O  O0  1  0.56075200  0.33496500  0.96991800  1
  O  O1  1  0.43924800  0.66503500  0.03008200  1
  O  O2  1  0.66503500  0.43924800  0.53008200  1
  O  O3  1  0.33496500  0.56075200  0.46991800  1
  O  O4  1  0.78280200  0.95851100  0.69678100  1
  O  O5  1  0.21719800  0.04148900  0.30321900  1
  O  O6  1  0.04148900  0.21719800  0.80321900  1
  O  O7  1  0.95851100  0.78280200  0.19678100  1
  O  O8  1  0.64890600  0.83737200  0.99257400  1
  O  O9  1  0.35109400  0.16262800  0.00742600  1
  O  O10  1  0.16262800  0.35109400  0.50742600  1
  O  O11  1  0.83737200  0.64890600  0.49257400  1
  O  O12  1  0.17414500  0.03573200  0.58909700  1
  O  O13  1  0.82585500  0.96426800  0.41090300  1
  O  O14  1  0.96426800  0.82585500  0.91090300  1
  O  O15  1  0.03573200  0.17414500  0.08909700  1
  O  O16  1  0.57554500  0.68573300  0.57824800  1
  O  O17  1  0.42445500  0.31426700  0.42175200  1
  O  O18  1  0.31426700  0.42445500  0.92175200  1
  O  O19  1  0.68573300  0.57554500  0.07824800  1
  O  O20  1  0.82637600  0.08804700  0.96528100  1
  O  O21  1  0.17362400  0.91195300  0.03471900  1
  O  O22  1  0.91195300  0.17362400  0.53471900  1
  O  O23  1  0.08804700  0.82637600  0.46528100  1
  O  O24  1  0.45146200  0.27017100  0.74110800  1
  O  O25  1  0.54853800  0.72982900  0.25889200  1
  O  O26  1  0.72982900  0.54853800  0.75889200  1
  O  O27  1  0.27017100  0.45146200  0.24110800  1
  O  O28  1  0.34942900  0.86467600  0.47551400  1
  O  O29  1  0.65057100  0.13532400  0.52448600  1
  O  O30  1  0.13532400  0.65057100  0.02448600  1
  O  O31  1  0.86467600  0.34942900  0.97551400  1
loop_
_geom_bond_atom_site_label_1
_geom_bond_atom_site_label_2
_geom_bond_distance
_geom_bond_site_symmetry_2
Al0 O29 1.746028 1_555
Al0 O24 1.757917 1_555
Al0 O17 1.760826 1_555
Al0 O2 1.761831 1_555
Al1 O28 1.746028 1_555
Al1 O25 1.757917 1_555
Al1 O16 1.760826 1_555
Al1 O3 1.761831 1_555
Al2 O31 1.746028 1_555
Al2 O26 1.757917 1_555
Al2 O19 1.760826 1_556
Al2 O0 1.761831 1_555
Al3 O30 1.746028 1_555
Al3 O27 1.757917 1_555
Al3 O18 1.760826 1_554
Al3 O1 1.761831 1_555
Al4 O8 1.747160 1_555
Al4 O4 1.752380 1_555
Al4 O20 1.761808 1_565
Al4 O14 1.771781 1_555
Al5 O9 1.747160 1_555
Al5 O5 1.752380 1_555
Al5 O21 1.761808 1_545
Al5 O15 1.771781 1_555
Al6 O10 1.747160 1_555
Al6 O6 1.752380 1_555
Al6 O22 1.761808 1_455
Al6 O12 1.771781 1_555
Al7 O11 1.747160 1_555
Al7 O7 1.752380 1_555
Al7 O23 1.761808 1_655
Al7 O13 1.771781 1_555
O0 P0 1.541059 1_555
O1 P1 1.541059 1_555
O2 P2 1.541059 1_555
O3 P3 1.541059 1_555
O4 P4 1.543578 1_565
O5 P5 1.543578 1_545
O6 P6 1.543578 1_455
O7 P7 1.543578 1_655
O8 P1 1.530125 1_556
O9 P0 1.530125 1_554
O10 P3 1.530125 1_555
O11 P2 1.530125 1_555
O12 P5 1.543098 1_545
O13 P4 1.543098 1_565
O14 P7 1.543098 1_656
O15 P6 1.543098 1_454
O16 P2 1.547571 1_555
O17 P3 1.547571 1_555
O18 P0 1.547571 1_555
O19 P1 1.547571 1_555
O20 P6 1.541923 1_555
O21 P7 1.541923 1_555
O22 P4 1.541923 1_555
O23 P5 1.541923 1_555
O24 P0 1.536410 1_555
O25 P1 1.536410 1_555
O26 P2 1.536410 1_555
O27 P3 1.536410 1_555
O28 P5 1.534293 1_555
O29 P4 1.534293 1_555
O30 P7 1.534293 1_555
O31 P6 1.534293 1_555
