# generated using pymatgen
data_Sc57Pt13
_symmetry_space_group_name_H-M   'P 1'
_cell_length_a   14.50173938
_cell_length_b   14.50173938
_cell_length_c   14.50173938
_cell_angle_alpha   90.00000000
_cell_angle_beta   90.00000000
_cell_angle_gamma   90.00000000
_symmetry_Int_Tables_number   1
_chemical_formula_structural   Sc57Pt13
_chemical_formula_sum   'Sc114 Pt26'
_cell_volume   3049.72224555
_cell_formula_units_Z   2
loop_
 _symmetry_equiv_pos_site_id
 _symmetry_equiv_pos_as_xyz
  1  'x, y, z'
loop_
 _atom_site_type_symbol
 _atom_site_label
 _atom_site_symmetry_multiplicity
 _atom_site_fract_x
 _atom_site_fract_y
 _atom_site_fract_z
 _atom_site_occupancy
  Sc  Sc0  1  -0.00000000  0.37431108  0.00000000  1
  Sc  Sc1  1  -0.00000000  0.62568892  0.00000000  1
  Sc  Sc2  1  -0.00000000  -0.00000000  0.37431108  1
  Sc  Sc3  1  -0.00000000  -0.00000000  0.62568892  1
  Sc  Sc4  1  0.37431108  -0.00000000  0.00000000  1
  Sc  Sc5  1  0.62568892  -0.00000000  0.00000000  1
  Sc  Sc6  1  -0.00000000  0.22274381  0.50000000  1
  Sc  Sc7  1  -0.00000000  0.77725619  0.50000000  1
  Sc  Sc8  1  0.50000000  -0.00000000  0.22274381  1
  Sc  Sc9  1  0.50000000  -0.00000000  0.77725619  1
  Sc  Sc10  1  0.22274381  0.50000000  0.00000000  1
  Sc  Sc11  1  0.77725619  0.50000000  0.00000000  1
  Sc  Sc12  1  0.50000000  0.85941218  0.50000000  1
  Sc  Sc13  1  0.50000000  0.14058782  0.50000000  1
  Sc  Sc14  1  0.50000000  0.50000000  0.85941218  1
  Sc  Sc15  1  0.50000000  0.50000000  0.14058782  1
  Sc  Sc16  1  0.85941218  0.50000000  0.50000000  1
  Sc  Sc17  1  0.14058782  0.50000000  0.50000000  1
  Sc  Sc18  1  0.62734536  -0.00000000  0.39251874  1
  Sc  Sc19  1  0.37265464  -0.00000000  0.60748126  1
  Sc  Sc20  1  0.37265464  -0.00000000  0.39251874  1
  Sc  Sc21  1  0.62734536  -0.00000000  0.60748126  1
  Sc  Sc22  1  0.39251874  0.62734536  0.00000000  1
  Sc  Sc23  1  0.60748126  0.37265464  0.00000000  1
  Sc  Sc24  1  0.39251874  0.37265464  0.00000000  1
  Sc  Sc25  1  0.60748126  0.62734536  0.00000000  1
  Sc  Sc26  1  -0.00000000  0.39251874  0.62734536  1
  Sc  Sc27  1  -0.00000000  0.60748126  0.37265464  1
  Sc  Sc28  1  -0.00000000  0.39251874  0.37265464  1
  Sc  Sc29  1  -0.00000000  0.60748126  0.62734536  1
  Sc  Sc30  1  0.89314251  -0.00000000  0.17663347  1
  Sc  Sc31  1  0.10685749  -0.00000000  0.82336653  1
  Sc  Sc32  1  0.10685749  -0.00000000  0.17663347  1
  Sc  Sc33  1  0.89314251  -0.00000000  0.82336653  1
  Sc  Sc34  1  0.17663347  0.89314251  0.00000000  1
  Sc  Sc35  1  0.82336653  0.10685749  0.00000000  1
  Sc  Sc36  1  0.17663347  0.10685749  0.00000000  1
  Sc  Sc37  1  0.82336653  0.89314251  0.00000000  1
  Sc  Sc38  1  -0.00000000  0.17663347  0.89314251  1
  Sc  Sc39  1  -0.00000000  0.82336653  0.10685749  1
  Sc  Sc40  1  -0.00000000  0.17663347  0.10685749  1
  Sc  Sc41  1  -0.00000000  0.82336653  0.89314251  1
  Sc  Sc42  1  0.10135184  0.50000000  0.82586071  1
  Sc  Sc43  1  0.89864816  0.50000000  0.17413929  1
  Sc  Sc44  1  0.89864816  0.50000000  0.82586071  1
  Sc  Sc45  1  0.10135184  0.50000000  0.17413929  1
  Sc  Sc46  1  0.82586071  0.10135184  0.50000000  1
  Sc  Sc47  1  0.17413929  0.89864816  0.50000000  1
  Sc  Sc48  1  0.82586071  0.89864816  0.50000000  1
  Sc  Sc49  1  0.17413929  0.10135184  0.50000000  1
  Sc  Sc50  1  0.50000000  0.82586071  0.10135184  1
  Sc  Sc51  1  0.50000000  0.17413929  0.89864816  1
  Sc  Sc52  1  0.50000000  0.82586071  0.89864816  1
  Sc  Sc53  1  0.50000000  0.17413929  0.10135184  1
  Sc  Sc54  1  0.39196580  0.50000000  0.67315893  1
  Sc  Sc55  1  0.60803420  0.50000000  0.32684107  1
  Sc  Sc56  1  0.60803420  0.50000000  0.67315893  1
  Sc  Sc57  1  0.39196580  0.50000000  0.32684107  1
  Sc  Sc58  1  0.67315893  0.39196580  0.50000000  1
  Sc  Sc59  1  0.32684107  0.60803420  0.50000000  1
  Sc  Sc60  1  0.67315893  0.60803420  0.50000000  1
  Sc  Sc61  1  0.32684107  0.39196580  0.50000000  1
  Sc  Sc62  1  0.50000000  0.67315893  0.39196580  1
  Sc  Sc63  1  0.50000000  0.32684107  0.60803420  1
  Sc  Sc64  1  0.50000000  0.67315893  0.60803420  1
  Sc  Sc65  1  0.50000000  0.32684107  0.39196580  1
  Sc  Sc66  1  0.70279912  0.11087138  0.18703052  1
  Sc  Sc67  1  0.29720088  0.11087138  0.81296948  1
  Sc  Sc68  1  0.29720088  0.88912862  0.18703052  1
  Sc  Sc69  1  0.70279912  0.88912862  0.81296948  1
  Sc  Sc70  1  0.18703052  0.70279912  0.11087138  1
  Sc  Sc71  1  0.81296948  0.29720088  0.11087138  1
  Sc  Sc72  1  0.18703052  0.29720088  0.88912862  1
  Sc  Sc73  1  0.81296948  0.70279912  0.88912862  1
  Sc  Sc74  1  0.11087138  0.18703052  0.70279912  1
  Sc  Sc75  1  0.11087138  0.81296948  0.29720088  1
  Sc  Sc76  1  0.88912862  0.18703052  0.29720088  1
  Sc  Sc77  1  0.88912862  0.81296948  0.70279912  1
  Sc  Sc78  1  0.29720088  0.88912862  0.81296948  1
  Sc  Sc79  1  0.70279912  0.88912862  0.18703052  1
  Sc  Sc80  1  0.70279912  0.11087138  0.81296948  1
  Sc  Sc81  1  0.29720088  0.11087138  0.18703052  1
  Sc  Sc82  1  0.81296948  0.29720088  0.88912862  1
  Sc  Sc83  1  0.18703052  0.70279912  0.88912862  1
  Sc  Sc84  1  0.81296948  0.70279912  0.11087138  1
  Sc  Sc85  1  0.18703052  0.29720088  0.11087138  1
  Sc  Sc86  1  0.88912862  0.81296948  0.29720088  1
  Sc  Sc87  1  0.88912862  0.18703052  0.70279912  1
  Sc  Sc88  1  0.11087138  0.81296948  0.70279912  1
  Sc  Sc89  1  0.11087138  0.18703052  0.29720088  1
  Sc  Sc90  1  0.20853356  0.61432914  0.67756087  1
  Sc  Sc91  1  0.79146644  0.61432914  0.32243913  1
  Sc  Sc92  1  0.79146644  0.38567086  0.67756087  1
  Sc  Sc93  1  0.20853356  0.38567086  0.32243913  1
  Sc  Sc94  1  0.67756087  0.20853356  0.61432914  1
  Sc  Sc95  1  0.32243913  0.79146644  0.61432914  1
  Sc  Sc96  1  0.67756087  0.79146644  0.38567086  1
  Sc  Sc97  1  0.32243913  0.20853356  0.38567086  1
  Sc  Sc98  1  0.61432914  0.67756087  0.20853356  1
  Sc  Sc99  1  0.61432914  0.32243913  0.79146644  1
  Sc  Sc100  1  0.38567086  0.67756087  0.79146644  1
  Sc  Sc101  1  0.38567086  0.32243913  0.20853356  1
  Sc  Sc102  1  0.79146644  0.38567086  0.32243913  1
  Sc  Sc103  1  0.20853356  0.38567086  0.67756087  1
  Sc  Sc104  1  0.20853356  0.61432914  0.32243913  1
  Sc  Sc105  1  0.79146644  0.61432914  0.67756087  1
  Sc  Sc106  1  0.32243913  0.79146644  0.38567086  1
  Sc  Sc107  1  0.67756087  0.20853356  0.38567086  1
  Sc  Sc108  1  0.32243913  0.20853356  0.61432914  1
  Sc  Sc109  1  0.67756087  0.79146644  0.61432914  1
  Sc  Sc110  1  0.38567086  0.32243913  0.79146644  1
  Sc  Sc111  1  0.38567086  0.67756087  0.20853356  1
  Sc  Sc112  1  0.61432914  0.32243913  0.20853356  1
  Sc  Sc113  1  0.61432914  0.67756087  0.79146644  1
  Pt  Pt0  1  -0.00000000  -0.00000000  0.00000000  1
  Pt  Pt1  1  0.50000000  0.50000000  0.50000000  1
  Pt  Pt2  1  0.79853753  -0.00000000  0.33294949  1
  Pt  Pt3  1  0.20146247  -0.00000000  0.66705051  1
  Pt  Pt4  1  0.20146247  -0.00000000  0.33294949  1
  Pt  Pt5  1  0.79853753  -0.00000000  0.66705051  1
  Pt  Pt6  1  0.33294949  0.79853753  0.00000000  1
  Pt  Pt7  1  0.66705051  0.20146247  0.00000000  1
  Pt  Pt8  1  0.33294949  0.20146247  0.00000000  1
  Pt  Pt9  1  0.66705051  0.79853753  0.00000000  1
  Pt  Pt10  1  -0.00000000  0.33294949  0.79853753  1
  Pt  Pt11  1  -0.00000000  0.66705051  0.20146247  1
  Pt  Pt12  1  -0.00000000  0.33294949  0.20146247  1
  Pt  Pt13  1  -0.00000000  0.66705051  0.79853753  1
  Pt  Pt14  1  0.30003943  0.50000000  0.83262727  1
  Pt  Pt15  1  0.69996057  0.50000000  0.16737273  1
  Pt  Pt16  1  0.69996057  0.50000000  0.83262727  1
  Pt  Pt17  1  0.30003943  0.50000000  0.16737273  1
  Pt  Pt18  1  0.83262727  0.30003943  0.50000000  1
  Pt  Pt19  1  0.16737273  0.69996057  0.50000000  1
  Pt  Pt20  1  0.83262727  0.69996057  0.50000000  1
  Pt  Pt21  1  0.16737273  0.30003943  0.50000000  1
  Pt  Pt22  1  0.50000000  0.83262727  0.30003943  1
  Pt  Pt23  1  0.50000000  0.16737273  0.69996057  1
  Pt  Pt24  1  0.50000000  0.83262727  0.69996057  1
  Pt  Pt25  1  0.50000000  0.16737273  0.30003943  1
loop_
_geom_bond_atom_site_label_1
_geom_bond_atom_site_label_2
_geom_bond_distance
_geom_bond_site_symmetry_2
Pt0 Sc33 2.993754 1_454
Pt0 Sc39 2.993754 1_545
Pt0 Sc31 2.993754 1_554
Pt0 Sc37 2.993754 1_445
Pt0 Sc35 2.993754 1_455
Pt0 Sc41 2.993754 1_544
Pt0 Sc36 2.993754 1_555
Pt0 Sc40 2.993754 1_555
Pt0 Sc38 2.993754 1_554
Pt0 Sc34 2.993754 1_545
Pt0 Sc32 2.993754 1_555
Pt0 Sc30 2.993754 1_455
Pt1 Sc55 2.959755 1_555
Pt1 Sc59 2.959755 1_555
Pt1 Sc63 2.959755 1_555
Pt1 Sc57 2.959755 1_555
Pt1 Sc61 2.959755 1_555
Pt1 Sc65 2.959755 1_555
Pt1 Sc56 2.959755 1_555
Pt1 Sc60 2.959755 1_555
Pt1 Sc64 2.959755 1_555
Pt1 Sc54 2.959755 1_555
Pt1 Sc58 2.959755 1_555
Pt1 Sc62 2.959755 1_555
Pt2 Sc18 2.628588 1_555
Pt2 Sc30 2.649686 1_555
Pt2 Sc48 2.861095 1_545
Pt2 Sc46 2.861095 1_555
Pt2 Sc2 2.982494 1_655
Pt2 Sc79 2.998413 1_545
Pt2 Sc66 2.998413 1_555
Pt2 Sc86 3.057946 1_545
Pt2 Sc76 3.057946 1_555
Pt3 Sc19 2.628588 1_555
Pt3 Sc31 2.649686 1_555
Pt3 Sc47 2.861095 1_545
Pt3 Sc49 2.861095 1_555
Pt3 Sc3 2.982494 1_555
Pt3 Sc78 2.998413 1_545
Pt3 Sc67 2.998413 1_555
Pt3 Sc88 3.057946 1_545
Pt3 Sc74 3.057946 1_555
Pt4 Sc20 2.628588 1_555
Pt4 Sc32 2.649686 1_555
Pt4 Sc47 2.861095 1_545
Pt4 Sc49 2.861095 1_555
Pt4 Sc2 2.982494 1_555
Pt4 Sc68 2.998413 1_545
Pt4 Sc81 2.998413 1_555
Pt4 Sc75 3.057946 1_545
Pt4 Sc89 3.057946 1_555
Pt5 Sc21 2.628588 1_555
Pt5 Sc33 2.649686 1_555
Pt5 Sc48 2.861095 1_545
Pt5 Sc46 2.861095 1_555
Pt5 Sc3 2.982494 1_655
Pt5 Sc69 2.998413 1_545
Pt5 Sc80 2.998413 1_555
Pt5 Sc77 3.057946 1_545
Pt5 Sc87 3.057946 1_555
Pt6 Sc22 2.628588 1_555
Pt6 Sc34 2.649686 1_555
Pt6 Sc52 2.861095 1_554
Pt6 Sc50 2.861095 1_555
Pt6 Sc4 2.982494 1_565
Pt6 Sc83 2.998413 1_554
Pt6 Sc70 2.998413 1_555
Pt6 Sc78 3.057946 1_554
Pt6 Sc68 3.057946 1_555
Pt7 Sc23 2.628588 1_555
Pt7 Sc35 2.649686 1_555
Pt7 Sc51 2.861095 1_554
Pt7 Sc53 2.861095 1_555
Pt7 Sc5 2.982494 1_555
Pt7 Sc82 2.998413 1_554
Pt7 Sc71 2.998413 1_555
Pt7 Sc80 3.057946 1_554
Pt7 Sc66 3.057946 1_555
Pt8 Sc24 2.628588 1_555
Pt8 Sc36 2.649686 1_555
Pt8 Sc51 2.861095 1_554
Pt8 Sc53 2.861095 1_555
Pt8 Sc4 2.982494 1_555
Pt8 Sc72 2.998413 1_554
Pt8 Sc85 2.998413 1_555
Pt8 Sc67 3.057946 1_554
Pt8 Sc81 3.057946 1_555
Pt9 Sc25 2.628588 1_555
Pt9 Sc37 2.649686 1_555
Pt9 Sc50 2.861095 1_555
Pt9 Sc52 2.861095 1_554
Pt9 Sc5 2.982494 1_565
Pt9 Sc73 2.998413 1_554
Pt9 Sc84 2.998413 1_555
Pt9 Sc79 3.057946 1_555
Pt9 Sc69 3.057946 1_554
Pt10 Sc26 2.628588 1_555
Pt10 Sc38 2.649686 1_555
Pt10 Sc44 2.861095 1_455
Pt10 Sc42 2.861095 1_555
Pt10 Sc0 2.982494 1_556
Pt10 Sc87 2.998413 1_455
Pt10 Sc74 2.998413 1_555
Pt10 Sc82 3.057946 1_455
Pt10 Sc72 3.057946 1_555
Pt11 Sc27 2.628588 1_555
Pt11 Sc39 2.649686 1_555
Pt11 Sc43 2.861095 1_455
Pt11 Sc45 2.861095 1_555
Pt11 Sc1 2.982494 1_555
Pt11 Sc86 2.998413 1_455
Pt11 Sc75 2.998413 1_555
Pt11 Sc84 3.057946 1_455
Pt11 Sc70 3.057946 1_555
Pt12 Sc28 2.628588 1_555
Pt12 Sc40 2.649686 1_555
Pt12 Sc43 2.861095 1_455
Pt12 Sc45 2.861095 1_555
Pt12 Sc0 2.982494 1_555
Pt12 Sc76 2.998413 1_455
Pt12 Sc89 2.998413 1_555
Pt12 Sc71 3.057946 1_455
Pt12 Sc85 3.057946 1_555
Pt13 Sc29 2.628588 1_555
Pt13 Sc41 2.649686 1_555
Pt13 Sc42 2.861095 1_555
Pt13 Sc44 2.861095 1_455
Pt13 Sc1 2.982494 1_556
Pt13 Sc77 2.998413 1_455
Pt13 Sc88 2.998413 1_555
Pt13 Sc83 3.057946 1_555
Pt13 Sc73 3.057946 1_455
Pt14 Sc54 2.669290 1_555
Pt14 Sc10 2.673526 1_556
Pt14 Sc42 2.882986 1_555
Pt14 Sc110 2.920393 1_555
Pt14 Sc100 2.920393 1_555
Pt14 Sc14 2.925676 1_555
Pt14 Sc103 3.092989 1_555
Pt14 Sc90 3.092989 1_555
Pt14 Sc22 3.331706 1_556
Pt14 Sc24 3.331706 1_556
Pt14 Sc72 3.465002 1_555
Pt14 Sc83 3.465002 1_555
Pt15 Sc55 2.669290 1_555
Pt15 Sc11 2.673526 1_555
Pt15 Sc43 2.882986 1_555
Pt15 Sc98 2.920393 1_555
Pt15 Sc112 2.920393 1_555
Pt15 Sc15 2.925676 1_555
Pt15 Sc102 3.092989 1_555
Pt15 Sc91 3.092989 1_555
Pt15 Sc25 3.331706 1_555
Pt15 Sc23 3.331706 1_555
Pt15 Sc84 3.465002 1_555
Pt15 Sc71 3.465002 1_555
Pt16 Sc56 2.669290 1_555
Pt16 Sc11 2.673526 1_556
Pt16 Sc44 2.882986 1_555
Pt16 Sc99 2.920393 1_555
Pt16 Sc113 2.920393 1_555
Pt16 Sc14 2.925676 1_555
Pt16 Sc92 3.092989 1_555
Pt16 Sc105 3.092989 1_555
Pt16 Sc25 3.331706 1_556
Pt16 Sc23 3.331706 1_556
Pt16 Sc82 3.465002 1_555
Pt16 Sc73 3.465002 1_555
Pt17 Sc57 2.669290 1_555
Pt17 Sc10 2.673526 1_555
Pt17 Sc45 2.882986 1_555
Pt17 Sc101 2.920393 1_555
Pt17 Sc111 2.920393 1_555
Pt17 Sc15 2.925676 1_555
Pt17 Sc93 3.092989 1_555
Pt17 Sc104 3.092989 1_555
Pt17 Sc22 3.331706 1_555
Pt17 Sc24 3.331706 1_555
Pt17 Sc85 3.465002 1_555
Pt17 Sc70 3.465002 1_555
Pt18 Sc58 2.669290 1_555
Pt18 Sc6 2.673526 1_655
Pt18 Sc46 2.882986 1_555
Pt18 Sc92 2.920393 1_555
Pt18 Sc102 2.920393 1_555
Pt18 Sc16 2.925676 1_555
Pt18 Sc107 3.092989 1_555
Pt18 Sc94 3.092989 1_555
Pt18 Sc26 3.331706 1_655
Pt18 Sc28 3.331706 1_655
Pt18 Sc87 3.465002 1_555
Pt18 Sc76 3.465002 1_555
Pt19 Sc59 2.669290 1_555
Pt19 Sc7 2.673526 1_555
Pt19 Sc47 2.882986 1_555
Pt19 Sc90 2.920393 1_555
Pt19 Sc104 2.920393 1_555
Pt19 Sc17 2.925676 1_555
Pt19 Sc106 3.092989 1_555
Pt19 Sc95 3.092989 1_555
Pt19 Sc29 3.331706 1_555
Pt19 Sc27 3.331706 1_555
Pt19 Sc88 3.465002 1_555
Pt19 Sc75 3.465002 1_555
Pt20 Sc60 2.669290 1_555
Pt20 Sc7 2.673526 1_655
Pt20 Sc48 2.882986 1_555
Pt20 Sc105 2.920393 1_555
Pt20 Sc91 2.920393 1_555
Pt20 Sc16 2.925676 1_555
Pt20 Sc96 3.092989 1_555
Pt20 Sc109 3.092989 1_555
Pt20 Sc29 3.331706 1_655
Pt20 Sc27 3.331706 1_655
Pt20 Sc77 3.465002 1_555
Pt20 Sc86 3.465002 1_555
Pt21 Sc61 2.669290 1_555
Pt21 Sc6 2.673526 1_555
Pt21 Sc49 2.882986 1_555
Pt21 Sc103 2.920393 1_555
Pt21 Sc93 2.920393 1_555
Pt21 Sc17 2.925676 1_555
Pt21 Sc97 3.092989 1_555
Pt21 Sc108 3.092989 1_555
Pt21 Sc26 3.331706 1_555
Pt21 Sc28 3.331706 1_555
Pt21 Sc74 3.465002 1_555
Pt21 Sc89 3.465002 1_555
Pt22 Sc62 2.669290 1_555
Pt22 Sc8 2.673526 1_565
Pt22 Sc50 2.882986 1_555
Pt22 Sc96 2.920393 1_555
Pt22 Sc106 2.920393 1_555
Pt22 Sc12 2.925676 1_555
Pt22 Sc111 3.092989 1_555
Pt22 Sc98 3.092989 1_555
Pt22 Sc18 3.331706 1_565
Pt22 Sc20 3.331706 1_565
Pt22 Sc68 3.465002 1_555
Pt22 Sc79 3.465002 1_555
Pt23 Sc63 2.669290 1_555
Pt23 Sc9 2.673526 1_555
Pt23 Sc51 2.882986 1_555
Pt23 Sc94 2.920393 1_555
Pt23 Sc108 2.920393 1_555
Pt23 Sc13 2.925676 1_555
Pt23 Sc110 3.092989 1_555
Pt23 Sc99 3.092989 1_555
Pt23 Sc21 3.331706 1_555
Pt23 Sc19 3.331706 1_555
Pt23 Sc80 3.465002 1_555
Pt23 Sc67 3.465002 1_555
Pt24 Sc64 2.669290 1_555
Pt24 Sc9 2.673526 1_565
Pt24 Sc52 2.882986 1_555
Pt24 Sc109 2.920393 1_555
Pt24 Sc95 2.920393 1_555
Pt24 Sc12 2.925676 1_555
Pt24 Sc100 3.092989 1_555
Pt24 Sc113 3.092989 1_555
Pt24 Sc21 3.331706 1_565
Pt24 Sc19 3.331706 1_565
Pt24 Sc78 3.465002 1_555
Pt24 Sc69 3.465002 1_555
Pt25 Sc65 2.669290 1_555
Pt25 Sc8 2.673526 1_555
Pt25 Sc53 2.882986 1_555
Pt25 Sc107 2.920393 1_555
Pt25 Sc97 2.920393 1_555
Pt25 Sc13 2.925676 1_555
Pt25 Sc101 3.092989 1_555
Pt25 Sc112 3.092989 1_555
Pt25 Sc18 3.331706 1_555
Pt25 Sc20 3.331706 1_555
Pt25 Sc81 3.465002 1_555
Pt25 Sc66 3.465002 1_555
