# generated using pymatgen
data_Nd2CdPd2
_symmetry_space_group_name_H-M   'P 1'
_cell_length_a   7.80000123
_cell_length_b   7.80000123
_cell_length_c   3.88815741
_cell_angle_alpha   90.00000000
_cell_angle_beta   90.00000000
_cell_angle_gamma   90.00000000
_symmetry_Int_Tables_number   1
_chemical_formula_structural   Nd2CdPd2
_chemical_formula_sum   'Nd4 Cd2 Pd4'
_cell_volume   236.55557143
_cell_formula_units_Z   2
loop_
 _symmetry_equiv_pos_site_id
 _symmetry_equiv_pos_as_xyz
  1  'x, y, z'
loop_
 _atom_site_type_symbol
 _atom_site_label
 _atom_site_symmetry_multiplicity
 _atom_site_fract_x
 _atom_site_fract_y
 _atom_site_fract_z
 _atom_site_occupancy
  Nd  Nd0  1  0.67446177  0.17446177  0.50000000  1
  Nd  Nd1  1  0.32553823  0.82553823  0.50000000  1
  Nd  Nd2  1  0.17446177  0.32553823  0.50000000  1
  Nd  Nd3  1  0.82553823  0.67446177  0.50000000  1
  Cd  Cd0  1  -0.00000000  0.00000000  0.00000000  1
  Cd  Cd1  1  0.50000000  0.50000000  0.00000000  1
  Pd  Pd0  1  0.12677972  0.62677972  0.00000000  1
  Pd  Pd1  1  0.87322028  0.37322028  -0.00000000  1
  Pd  Pd2  1  0.62677972  0.87322028  -0.00000000  1
  Pd  Pd3  1  0.37322028  0.12677972  0.00000000  1
loop_
_geom_bond_atom_site_label_1
_geom_bond_atom_site_label_2
_geom_bond_distance
_geom_bond_site_symmetry_2
Nd0 Pd1 2.930257 1_555
Nd0 Pd1 2.930257 1_556
Nd0 Pd3 3.072260 1_556
Nd0 Pd3 3.072260 1_555
Nd0 Pd2 3.072260 1_546
Nd0 Pd2 3.072260 1_545
Nd1 Pd0 2.930257 1_555
Nd1 Pd0 2.930257 1_556
Nd1 Pd2 3.072260 1_555
Nd1 Pd2 3.072260 1_556
Nd1 Pd3 3.072260 1_565
Nd1 Pd3 3.072260 1_566
Nd2 Pd3 2.930257 1_555
Nd2 Pd3 2.930257 1_556
Nd2 Pd1 3.072260 1_456
Nd2 Pd0 3.072260 1_556
Nd2 Pd1 3.072260 1_455
Nd2 Pd0 3.072260 1_555
Nd3 Pd2 2.930257 1_556
Nd3 Pd2 2.930257 1_555
Nd3 Pd1 3.072260 1_555
Nd3 Pd1 3.072260 1_556
Nd3 Pd0 3.072260 1_655
Nd3 Pd0 3.072260 1_656
Cd0 Pd0 3.074492 1_545
Cd0 Pd2 3.074492 1_445
Cd0 Pd3 3.074492 1_555
Cd0 Pd1 3.074492 1_455
Cd0 Nd2 3.475450 1_554
Cd0 Nd1 3.475450 1_544
Cd0 Nd1 3.475450 1_545
Cd0 Nd2 3.475450 1_555
Cd0 Nd0 3.475450 1_455
Cd0 Nd0 3.475450 1_454
Cd0 Nd3 3.475450 1_444
Cd0 Nd3 3.475450 1_445
Cd1 Pd1 3.074492 1_555
Cd1 Pd0 3.074492 1_555
Cd1 Pd2 3.074492 1_555
Cd1 Pd3 3.074492 1_555
Cd1 Nd2 3.475450 1_555
Cd1 Nd1 3.475450 1_554
Cd1 Nd0 3.475450 1_555
Cd1 Nd3 3.475450 1_555
Cd1 Nd2 3.475450 1_554
Cd1 Nd1 3.475450 1_555
Cd1 Nd3 3.475450 1_554
Cd1 Nd0 3.475450 1_554
Pd0 Pd1 2.796981 1_455
Pd2 Pd3 2.796981 1_565
