# generated using pymatgen
data_KNa2GaO3
_symmetry_space_group_name_H-M   'P 1'
_cell_length_a   6.14233876
_cell_length_b   6.48366423
_cell_length_c   10.12678501
_cell_angle_alpha   90.00000000
_cell_angle_beta   90.00000000
_cell_angle_gamma   90.00000000
_symmetry_Int_Tables_number   1
_chemical_formula_structural   KNa2GaO3
_chemical_formula_sum   'K4 Na8 Ga4 O12'
_cell_volume   403.29781661
_cell_formula_units_Z   4
loop_
 _symmetry_equiv_pos_site_id
 _symmetry_equiv_pos_as_xyz
  1  'x, y, z'
loop_
 _atom_site_type_symbol
 _atom_site_label
 _atom_site_symmetry_multiplicity
 _atom_site_fract_x
 _atom_site_fract_y
 _atom_site_fract_z
 _atom_site_occupancy
  K  K0  1  0.75000000  0.65945636  0.96666133  1
  K  K1  1  0.25000000  0.84054364  0.46666133  1
  K  K2  1  0.25000000  0.34054364  0.03333867  1
  K  K3  1  0.75000000  0.15945636  0.53333867  1
  Na  Na0  1  0.00906639  0.99089262  0.76896944  1
  Na  Na1  1  0.99093361  0.50910738  0.26896944  1
  Na  Na2  1  0.00906639  0.49089262  0.73103056  1
  Na  Na3  1  0.49093361  0.99089262  0.76896944  1
  Na  Na4  1  0.99093361  0.00910738  0.23103056  1
  Na  Na5  1  0.50906639  0.00910738  0.23103056  1
  Na  Na6  1  0.50906639  0.50910738  0.26896944  1
  Na  Na7  1  0.49093361  0.49089262  0.73103056  1
  Ga  Ga0  1  0.25000000  0.83038002  0.01019758  1
  Ga  Ga1  1  0.25000000  0.33038002  0.48980242  1
  Ga  Ga2  1  0.75000000  0.66961998  0.51019758  1
  Ga  Ga3  1  0.75000000  0.16961998  0.98980242  1
  O  O0  1  0.25000000  0.71842004  0.17597823  1
  O  O1  1  0.00000000  0.50000000  0.50000000  1
  O  O2  1  0.50000000  0.50000000  0.50000000  1
  O  O3  1  0.25000000  0.17167710  0.63943886  1
  O  O4  1  0.75000000  0.82832290  0.36056114  1
  O  O5  1  0.25000000  0.67167710  0.86056114  1
  O  O6  1  0.75000000  0.32832290  0.13943886  1
  O  O7  1  0.75000000  0.78157996  0.67597823  1
  O  O8  1  0.50000000  -0.00000000  0.00000000  1
  O  O9  1  0.00000000  -0.00000000  0.00000000  1
  O  O10  1  0.75000000  0.28157996  0.82402177  1
  O  O11  1  0.25000000  0.21842004  0.32402177  1
loop_
_geom_bond_atom_site_label_1
_geom_bond_atom_site_label_2
_geom_bond_distance
_geom_bond_site_symmetry_2
K0 O8 2.710560 1_566
K0 O9 2.710560 1_666
K0 O6 2.769623 1_556
K0 O10 2.844141 1_555
K0 O7 3.048318 1_555
K1 O2 2.710560 1_555
K1 O1 2.710560 1_555
K1 O3 2.769623 1_565
K1 O11 2.844141 1_565
K1 O0 3.048318 1_555
K2 O8 2.710560 1_555
K2 O9 2.710560 1_555
K2 O5 2.769623 1_554
K2 O0 2.844141 1_555
K2 O11 3.048318 1_555
K3 O2 2.710560 1_555
K3 O1 2.710560 1_655
K3 O4 2.769623 1_545
K3 O7 2.844141 1_545
K3 O10 3.048318 1_555
Na0 O7 2.293624 1_455
Na0 O3 2.298836 1_565
Na0 O9 2.341004 1_566
Na0 O10 2.528859 1_465
Na0 O5 2.708137 1_555
Na1 O0 2.293624 1_655
Na1 O6 2.298836 1_555
Na1 O1 2.341004 1_655
Na1 O11 2.528859 1_655
Na1 O4 2.708137 1_555
Na2 O10 2.293624 1_455
Na2 O5 2.298836 1_555
Na2 O1 2.341004 1_555
Na2 O7 2.528859 1_455
Na2 O3 2.708137 1_555
Na3 O7 2.293624 1_555
Na3 O3 2.298836 1_565
Na3 O8 2.341004 1_566
Na3 O10 2.528859 1_565
Na3 O5 2.708137 1_555
Na4 O11 2.293624 1_655
Na4 O4 2.298836 1_545
Na4 O9 2.341004 1_655
Na4 O0 2.528859 1_645
Na4 O6 2.708137 1_555
Na5 O11 2.293624 1_555
Na5 O4 2.298836 1_545
Na5 O8 2.341004 1_555
Na5 O0 2.528859 1_545
Na5 O6 2.708137 1_555
Na6 O0 2.293624 1_555
Na6 O6 2.298836 1_555
Na6 O2 2.341004 1_555
Na6 O11 2.528859 1_555
Na6 O4 2.708137 1_555
Na7 O10 2.293624 1_555
Na7 O5 2.298836 1_555
Na7 O2 2.341004 1_555
Na7 O7 2.528859 1_555
Na7 O3 2.708137 1_555
Ga0 O0 1.829043 1_555
Ga0 O5 1.831676 1_554
Ga0 O9 1.891601 1_565
Ga0 O8 1.891601 1_565
Ga1 O11 1.829043 1_555
Ga1 O3 1.831676 1_555
Ga1 O1 1.891601 1_555
Ga1 O2 1.891601 1_555
Ga2 O7 1.829043 1_555
Ga2 O4 1.831676 1_555
Ga2 O2 1.891601 1_555
Ga2 O1 1.891601 1_655
Ga3 O10 1.829043 1_555
Ga3 O6 1.831676 1_556
Ga3 O9 1.891601 1_656
Ga3 O8 1.891601 1_556
