# generated using pymatgen
data_Li7Mn5O12
_symmetry_space_group_name_H-M   'P 1'
_cell_length_a   6.05825789
_cell_length_b   10.09116710
_cell_length_c   8.14903220
_cell_angle_alpha   66.69880792
_cell_angle_beta   89.51425180
_cell_angle_gamma   102.81565577
_symmetry_Int_Tables_number   1
_chemical_formula_structural   Li7Mn5O12
_chemical_formula_sum   'Li14 Mn10 O24'
_cell_volume   443.57597661
_cell_formula_units_Z   2
loop_
 _symmetry_equiv_pos_site_id
 _symmetry_equiv_pos_as_xyz
  1  'x, y, z'
loop_
 _atom_site_type_symbol
 _atom_site_label
 _atom_site_symmetry_multiplicity
 _atom_site_fract_x
 _atom_site_fract_y
 _atom_site_fract_z
 _atom_site_occupancy
  Li  Li0  1  0.50002300  0.50003000  0.99997300  1
  Li  Li1  1  0.00000500  0.99995900  0.49996500  1
  Li  Li2  1  0.99999700  0.50000700  0.99999200  1
  Li  Li3  1  0.50007000  0.00002200  0.50002600  1
  Li  Li4  1  0.50009000  0.00001200  0.99992800  1
  Li  Li5  1  0.99986600  0.49998200  0.50001800  1
  Li  Li6  1  0.15442200  0.33372500  0.82325200  1
  Li  Li7  1  0.66224500  0.83026500  0.32711800  1
  Li  Li8  1  0.84558100  0.66631000  0.17677100  1
  Li  Li9  1  0.33780400  0.16968400  0.67291100  1
  Li  Li10  1  0.70074500  0.34728000  0.82167100  1
  Li  Li11  1  0.19248800  0.83549200  0.32720800  1
  Li  Li12  1  0.29911700  0.65264800  0.17830100  1
  Li  Li13  1  0.80834400  0.16472500  0.67261400  1
  Mn  Mn0  1  0.49999300  0.49995700  0.49999900  1
  Mn  Mn1  1  0.00006700  0.99999000  0.00010700  1
  Mn  Mn2  1  0.16331300  0.33481100  0.33717900  1
  Mn  Mn3  1  0.67263000  0.83650900  0.83405800  1
  Mn  Mn4  1  0.83650600  0.66516500  0.66283300  1
  Mn  Mn5  1  0.32741300  0.16352500  0.16592800  1
  Mn  Mn6  1  0.67583200  0.33921500  0.33351200  1
  Mn  Mn7  1  0.18048200  0.83826100  0.83212300  1
  Mn  Mn8  1  0.32411400  0.66080400  0.66638700  1
  Mn  Mn9  1  0.81951300  0.16176500  0.16788100  1
  O  O0  1  0.83959100  0.15926400  0.93152400  1
  O  O1  1  0.34637100  0.66282700  0.42681600  1
  O  O2  1  0.16050300  0.84074700  0.06858500  1
  O  O3  1  0.65359700  0.33706000  0.57322100  1
  O  O4  1  0.12975700  0.30630400  0.10588700  1
  O  O5  1  0.68021500  0.82754800  0.59975700  1
  O  O6  1  0.87016700  0.69370300  0.89408800  1
  O  O7  1  0.31971800  0.17249100  0.40018400  1
  O  O8  1  0.51678900  0.49983200  0.25951300  1
  O  O9  1  0.02326000  0.99966100  0.76245300  1
  O  O10  1  0.48307600  0.50012000  0.74050100  1
  O  O11  1  0.97673900  0.00037400  0.23775900  1
  O  O12  1  0.29095400  0.14631700  0.94054700  1
  O  O13  1  0.79221100  0.64708400  0.43586500  1
  O  O14  1  0.70912900  0.85371200  0.05947400  1
  O  O15  1  0.20768600  0.35284900  0.56415300  1
  O  O16  1  0.67183600  0.32598800  0.09426700  1
  O  O17  1  0.18266400  0.83104600  0.59430700  1
  O  O18  1  0.32808100  0.67399100  0.90568000  1
  O  O19  1  0.81723200  0.16898400  0.40566600  1
  O  O20  1  0.00991300  0.49092800  0.25330600  1
  O  O21  1  0.47621300  0.97694000  0.76194000  1
  O  O22  1  0.98984900  0.50907400  0.74668000  1
  O  O23  1  0.52378500  0.02301300  0.23806700  1
loop_
_geom_bond_atom_site_label_1
_geom_bond_atom_site_label_2
_geom_bond_distance
_geom_bond_site_symmetry_2
Li0 O10 2.117457 1_555
Li0 O8 2.117530 1_556
Li0 O18 2.124813 1_555
Li0 O16 2.124932 1_556
Li0 O6 2.506284 1_555
Li0 O4 2.507060 1_556
Li1 O17 2.129673 1_555
Li1 O19 2.131013 1_465
Li1 O11 2.140974 1_465
Li1 O9 2.143709 1_555
Li1 O5 2.190967 1_455
Li1 O7 2.191185 1_565
Li2 O20 2.031776 1_656
Li2 O22 2.031870 1_555
Li2 O4 2.131242 1_656
Li2 O6 2.131430 1_555
Li2 O18 2.232097 1_655
Li2 O16 2.232581 1_556
Li3 O21 2.053559 1_545
Li3 O23 2.054181 1_555
Li3 O5 2.149290 1_545
Li3 O7 2.150174 1_555
Li3 O19 2.162103 1_555
Li3 O17 2.163194 1_545
Li4 O21 2.045319 1_545
Li4 O23 2.046144 1_556
Li4 O14 2.071699 1_546
Li4 O12 2.072248 1_555
Li4 O0 2.220175 1_555
Li4 O2 2.220540 1_546
Li5 O22 2.049080 1_555
Li5 O20 2.049324 1_655
Li5 O13 2.070057 1_555
Li5 O15 2.071065 1_655
Li5 O3 2.265476 1_555
Li5 O1 2.266244 1_655
Li6 O15 2.058608 1_555
Li6 O22 2.105745 1_455
Li6 O12 2.109878 1_555
Li6 O0 2.183739 1_455
Li6 O10 2.199276 1_555
Li6 O4 2.207998 1_556
Li7 O13 2.045436 1_555
Li7 O14 2.108320 1_555
Li7 O1 2.151791 1_555
Li7 O23 2.151960 1_565
Li7 O11 2.154925 1_565
Li7 O5 2.214946 1_555
Li8 O13 2.058293 1_555
Li8 O20 2.105064 1_655
Li8 O14 2.109543 1_555
Li8 O2 2.183956 1_655
Li8 O8 2.200260 1_555
Li8 O6 2.208457 1_554
Li9 O15 2.045854 1_555
Li9 O12 2.108498 1_555
Li9 O3 2.151163 1_555
Li9 O21 2.151745 1_545
Li9 O9 2.154757 1_545
Li9 O7 2.215365 1_555
Li10 O22 2.007651 1_555
Li10 O3 2.086448 1_555
Li10 O0 2.117962 1_555
Li10 O16 2.147216 1_556
Li10 O10 2.159919 1_555
Li11 O1 2.044127 1_555
Li11 O2 2.098832 1_555
Li11 O17 2.159282 1_555
Li11 O11 2.242675 1_465
Li11 O23 2.310792 1_565
Li12 O20 2.007694 1_555
Li12 O1 2.086893 1_555
Li12 O2 2.117724 1_555
Li12 O18 2.147268 1_554
Li12 O8 2.159767 1_555
Li13 O3 2.044765 1_555
Li13 O0 2.099958 1_555
Li13 O19 2.158702 1_555
Li13 O9 2.240375 1_645
Li13 O21 2.315562 1_545
Mn0 O13 1.953437 1_555
Mn0 O15 1.953740 1_555
Mn0 O1 1.958478 1_555
Mn0 O3 1.958623 1_555
Mn0 O8 1.962020 1_555
Mn0 O10 1.962338 1_555
Mn1 O9 1.941918 1_554
Mn1 O11 1.942184 1_465
Mn1 O12 1.945672 1_564
Mn1 O14 1.945765 1_455
Mn1 O2 1.957310 1_555
Mn1 O0 1.957701 1_464
Mn2 O20 1.902927 1_555
Mn2 O15 1.944110 1_555
Mn2 O7 1.968741 1_555
Mn2 O4 2.021405 1_555
Mn2 O19 2.278699 1_455
Mn2 O8 2.306652 1_555
Mn3 O14 1.922356 1_556
Mn3 O5 1.947502 1_555
Mn3 O21 1.967392 1_555
Mn3 O6 1.991348 1_555
Mn3 O18 2.256270 1_555
Mn3 O9 2.287096 1_655
Mn4 O22 1.902478 1_555
Mn4 O13 1.944193 1_555
Mn4 O5 1.968774 1_555
Mn4 O6 2.021308 1_555
Mn4 O17 2.279270 1_655
Mn4 O10 2.306537 1_555
Mn5 O12 1.922070 1_554
Mn5 O7 1.947175 1_555
Mn5 O23 1.967788 1_555
Mn5 O4 1.991688 1_555
Mn5 O16 2.255444 1_555
Mn5 O11 2.287228 1_455
Mn6 O3 1.948078 1_555
Mn6 O8 1.961753 1_555
Mn6 O19 1.973011 1_555
Mn6 O16 2.006151 1_555
Mn6 O20 2.163034 1_655
Mn6 O7 2.329591 1_555
Mn7 O21 1.931977 1_555
Mn7 O2 1.940103 1_556
Mn7 O18 1.946111 1_555
Mn7 O9 1.961663 1_555
Mn7 O17 1.967949 1_555
Mn7 O6 2.025283 1_455
Mn8 O1 1.947498 1_555
Mn8 O10 1.961957 1_555
Mn8 O17 1.973322 1_555
Mn8 O18 2.006359 1_555
Mn8 O22 2.163975 1_455
Mn8 O5 2.329638 1_555
Mn9 O23 1.932259 1_555
Mn9 O0 1.939347 1_554
Mn9 O16 1.946012 1_555
Mn9 O11 1.961546 1_555
Mn9 O19 1.967718 1_555
Mn9 O4 2.024863 1_655
