# generated using pymatgen
data_Ba5Nb2O11
_symmetry_space_group_name_H-M   'P 1'
_cell_length_a   6.13831237
_cell_length_b   6.13831237
_cell_length_c   18.62049046
_cell_angle_alpha   89.71564584
_cell_angle_beta   89.71564584
_cell_angle_gamma   119.97023263
_symmetry_Int_Tables_number   1
_chemical_formula_structural   Ba5Nb2O11
_chemical_formula_sum   'Ba10 Nb4 O22'
_cell_volume   607.75499133
_cell_formula_units_Z   2
loop_
 _symmetry_equiv_pos_site_id
 _symmetry_equiv_pos_as_xyz
  1  'x, y, z'
loop_
 _atom_site_type_symbol
 _atom_site_label
 _atom_site_symmetry_multiplicity
 _atom_site_fract_x
 _atom_site_fract_y
 _atom_site_fract_z
 _atom_site_occupancy
  Ba  Ba0  1  0.66651900  0.33348100  0.75000000  1
  Ba  Ba1  1  0.33348100  0.66651900  0.25000000  1
  Ba  Ba2  1  0.65595800  0.32765400  0.97781100  1
  Ba  Ba3  1  0.34404200  0.67234600  0.02218900  1
  Ba  Ba4  1  0.32765400  0.65595800  0.47781100  1
  Ba  Ba5  1  0.67234600  0.34404200  0.52218900  1
  Ba  Ba6  1  0.00255300  0.00148300  0.86027700  1
  Ba  Ba7  1  0.99744700  0.99851700  0.13972300  1
  Ba  Ba8  1  0.00148300  0.00255300  0.36027700  1
  Ba  Ba9  1  0.99851700  0.99744700  0.63972300  1
  Nb  Nb0  1  0.66746300  0.33382600  0.32973200  1
  Nb  Nb1  1  0.33253700  0.66617400  0.67026800  1
  Nb  Nb2  1  0.33382600  0.66746300  0.82973200  1
  Nb  Nb3  1  0.66617400  0.33253700  0.17026800  1
  O  O0  1  0.98318600  0.49094100  0.37948000  1
  O  O1  1  0.50967800  0.01900800  0.38315100  1
  O  O2  1  0.50789600  0.49139900  0.37940900  1
  O  O3  1  0.01681400  0.50905900  0.62052000  1
  O  O4  1  0.49032200  0.98099200  0.61684900  1
  O  O5  1  0.49210400  0.50860100  0.62059100  1
  O  O6  1  0.01900800  0.50967800  0.88315100  1
  O  O7  1  0.49094100  0.98318600  0.87948000  1
  O  O8  1  0.49139900  0.50789600  0.87940900  1
  O  O9  1  0.98099200  0.49032200  0.11684900  1
  O  O10  1  0.50905900  0.01681400  0.12052000  1
  O  O11  1  0.50860100  0.49210400  0.12059100  1
  O  O12  1  0.37191300  0.18453900  0.25055200  1
  O  O13  1  0.81546100  0.62808700  0.24944800  1
  O  O14  1  0.81461500  0.18538500  0.25000000  1
  O  O15  1  0.62808700  0.81546100  0.74944800  1
  O  O16  1  0.18453900  0.37191300  0.75055200  1
  O  O17  1  0.18538500  0.81461500  0.75000000  1
  O  O18  1  0.14277000  0.07137000  0.00139200  1
  O  O19  1  0.85723000  0.92863000  0.99860800  1
  O  O20  1  0.07137000  0.14277000  0.50139200  1
  O  O21  1  0.92863000  0.85723000  0.49860800  1
loop_
_geom_bond_atom_site_label_1
_geom_bond_atom_site_label_2
_geom_bond_distance
_geom_bond_site_symmetry_2
Ba0 O7 3.034017 1_545
Ba0 O3 3.034017 1_655
Ba0 O8 3.042676 1_555
Ba0 O5 3.042676 1_555
Ba0 O16 3.068807 1_655
Ba0 O15 3.068807 1_545
Ba0 O17 3.077079 1_545
Ba0 O17 3.077079 1_655
Ba0 O15 3.083144 1_555
Ba0 O16 3.083144 1_555
Ba0 O6 3.120936 1_655
Ba0 O4 3.120936 1_545
Ba1 O0 3.034017 1_455
Ba1 O10 3.034017 1_565
Ba1 O2 3.042676 1_555
Ba1 O11 3.042676 1_555
Ba1 O12 3.068807 1_565
Ba1 O13 3.068807 1_455
Ba1 O14 3.077079 1_455
Ba1 O14 3.077079 1_565
Ba1 O13 3.083144 1_555
Ba1 O12 3.083144 1_555
Ba1 O1 3.120936 1_565
Ba1 O9 3.120936 1_455
Ba2 O8 2.591626 1_555
Ba2 O7 2.601224 1_545
Ba2 O6 2.602928 1_655
Ba2 O18 2.760265 1_556
Ba2 O10 3.118000 1_556
Ba2 O9 3.125206 1_556
Ba2 O11 3.133766 1_556
Ba2 O19 3.270211 1_545
Ba2 O19 3.278768 1_555
Ba3 O11 2.591626 1_555
Ba3 O10 2.601224 1_565
Ba3 O9 2.602928 1_455
Ba3 O19 2.760265 1_554
Ba3 O7 3.118000 1_554
Ba3 O6 3.125206 1_554
Ba3 O8 3.133766 1_554
Ba3 O18 3.270211 1_565
Ba3 O18 3.278768 1_555
Ba4 O2 2.591626 1_555
Ba4 O0 2.601224 1_455
Ba4 O1 2.602928 1_565
Ba4 O20 2.760265 1_555
Ba4 O3 3.118000 1_555
Ba4 O4 3.125206 1_555
Ba4 O5 3.133766 1_555
Ba4 O21 3.270211 1_455
Ba4 O21 3.278768 1_555
Ba5 O5 2.591626 1_555
Ba5 O3 2.601224 1_655
Ba5 O4 2.602928 1_545
Ba5 O21 2.760265 1_555
Ba5 O0 3.118000 1_555
Ba5 O1 3.125206 1_555
Ba5 O2 3.133766 1_555
Ba5 O20 3.270211 1_655
Ba5 O20 3.278768 1_555
Ba6 O19 2.682838 1_445
Ba6 O18 2.737519 1_556
Ba6 O16 2.825948 1_555
Ba6 O17 2.842254 1_545
Ba6 O15 2.879990 1_445
Ba6 O7 3.078048 1_545
Ba6 O8 3.081598 1_555
Ba6 O6 3.097967 1_545
Ba6 O6 3.101847 1_555
Ba6 O8 3.103487 1_445
Ba6 O7 3.104651 1_445
Ba7 O18 2.682838 1_665
Ba7 O19 2.737519 1_554
Ba7 O13 2.825948 1_555
Ba7 O14 2.842254 1_565
Ba7 O12 2.879990 1_665
Ba7 O10 3.078048 1_565
Ba7 O11 3.081598 1_555
Ba7 O9 3.097967 1_565
Ba7 O9 3.101847 1_555
Ba7 O11 3.103487 1_665
Ba7 O10 3.104651 1_665
Ba8 O21 2.682838 1_445
Ba8 O20 2.737519 1_555
Ba8 O12 2.825948 1_555
Ba8 O14 2.842254 1_455
Ba8 O13 2.879990 1_445
Ba8 O0 3.078048 1_455
Ba8 O2 3.081598 1_555
Ba8 O1 3.097967 1_455
Ba8 O1 3.101847 1_555
Ba8 O2 3.103487 1_445
Ba8 O0 3.104651 1_445
Ba9 O20 2.682838 1_665
Ba9 O21 2.737519 1_555
Ba9 O15 2.825948 1_555
Ba9 O17 2.842254 1_655
Ba9 O16 2.879990 1_665
Ba9 O3 3.078048 1_655
Ba9 O5 3.081598 1_555
Ba9 O4 3.097967 1_655
Ba9 O4 3.101847 1_555
Ba9 O5 3.103487 1_665
Ba9 O3 3.104651 1_665
Nb0 O2 1.922748 1_555
Nb0 O0 1.924417 1_555
Nb0 O1 1.939904 1_555
Nb0 O13 2.154757 1_555
Nb0 O14 2.161649 1_555
Nb0 O12 2.164195 1_555
Nb1 O5 1.922748 1_555
Nb1 O3 1.924417 1_555
Nb1 O4 1.939904 1_555
Nb1 O16 2.154757 1_555
Nb1 O17 2.161649 1_555
Nb1 O15 2.164195 1_555
Nb2 O8 1.922748 1_555
Nb2 O7 1.924417 1_555
Nb2 O6 1.939904 1_555
Nb2 O15 2.154757 1_555
Nb2 O17 2.161649 1_555
Nb2 O16 2.164195 1_555
Nb3 O11 1.922748 1_555
Nb3 O10 1.924417 1_555
Nb3 O9 1.939904 1_555
Nb3 O12 2.154757 1_555
Nb3 O14 2.161649 1_555
Nb3 O13 2.164195 1_555
O18 O19 1.519697 1_444
O20 O21 1.519697 1_445
