# generated using pymatgen
data_PrAlRh
_symmetry_space_group_name_H-M   'P 1'
_cell_length_a   4.26753713
_cell_length_b   7.07293791
_cell_length_c   8.18203364
_cell_angle_alpha   90.00000000
_cell_angle_beta   90.00000000
_cell_angle_gamma   90.00000000
_symmetry_Int_Tables_number   1
_chemical_formula_structural   PrAlRh
_chemical_formula_sum   'Pr4 Al4 Rh4'
_cell_volume   246.96670916
_cell_formula_units_Z   4
loop_
 _symmetry_equiv_pos_site_id
 _symmetry_equiv_pos_as_xyz
  1  'x, y, z'
loop_
 _atom_site_type_symbol
 _atom_site_label
 _atom_site_symmetry_multiplicity
 _atom_site_fract_x
 _atom_site_fract_y
 _atom_site_fract_z
 _atom_site_occupancy
  Pr  Pr0  1  0.25000000  0.53849124  0.18100639  1
  Pr  Pr1  1  0.75000000  0.46150876  0.81899361  1
  Pr  Pr2  1  0.75000000  0.96150876  0.68100639  1
  Pr  Pr3  1  0.25000000  0.03849124  0.31899361  1
  Al  Al0  1  0.25000000  0.63126945  0.55842813  1
  Al  Al1  1  0.75000000  0.36873055  0.44157187  1
  Al  Al2  1  0.75000000  0.86873055  0.05842813  1
  Al  Al3  1  0.25000000  0.13126945  0.94157187  1
  Rh  Rh0  1  0.25000000  0.77317122  0.88498818  1
  Rh  Rh1  1  0.75000000  0.22682878  0.11501182  1
  Rh  Rh2  1  0.75000000  0.72682878  0.38498818  1
  Rh  Rh3  1  0.25000000  0.27317122  0.61501182  1
loop_
_geom_bond_atom_site_label_1
_geom_bond_atom_site_label_2
_geom_bond_distance
_geom_bond_site_symmetry_2
Pr0 Rh0 2.936226 1_554
Pr0 Rh2 3.018770 1_455
Pr0 Rh2 3.018770 1_555
Pr0 Rh1 3.115089 1_455
Pr0 Rh1 3.115089 1_555
Pr0 Pr1 3.690920 1_554
Pr0 Pr1 3.690920 1_454
Pr0 Pr3 3.712316 1_565
Pr0 Pr3 3.712316 1_555
Pr1 Rh1 2.936226 1_556
Pr1 Rh3 3.018770 1_655
Pr1 Rh3 3.018770 1_555
Pr1 Rh0 3.115089 1_555
Pr1 Rh0 3.115089 1_655
Pr1 Pr2 3.712316 1_545
Pr1 Pr2 3.712316 1_555
Pr2 Rh2 2.936226 1_555
Pr2 Rh0 3.018770 1_655
Pr2 Rh0 3.018770 1_555
Pr2 Rh3 3.115089 1_665
Pr2 Rh3 3.115089 1_565
Pr2 Pr3 3.690920 1_565
Pr2 Pr3 3.690920 1_665
Pr3 Rh3 2.936226 1_555
Pr3 Rh1 3.018770 1_555
Pr3 Rh1 3.018770 1_455
Pr3 Rh2 3.115089 1_445
Pr3 Rh2 3.115089 1_545
Al0 Rh3 2.574772 1_555
Al0 Rh2 2.650209 1_555
Al0 Rh2 2.650209 1_455
Al0 Rh0 2.854211 1_555
Al0 Pr0 3.157030 1_555
Al0 Pr1 3.246521 1_455
Al0 Pr1 3.246521 1_555
Al0 Pr2 3.318831 1_555
Al0 Pr2 3.318831 1_455
Al0 Pr3 3.483359 1_565
Al1 Rh2 2.574772 1_555
Al1 Rh3 2.650209 1_655
Al1 Rh3 2.650209 1_555
Al1 Rh1 2.854211 1_555
Al1 Pr1 3.157030 1_555
Al1 Pr0 3.246521 1_555
Al1 Pr0 3.246521 1_655
Al1 Pr3 3.318831 1_555
Al1 Pr3 3.318831 1_655
Al1 Pr2 3.483359 1_545
Al2 Rh1 2.574772 1_565
Al2 Rh0 2.650209 1_654
Al2 Rh0 2.650209 1_554
Al2 Rh2 2.854211 1_555
Al2 Pr2 3.157030 1_554
Al2 Pr3 3.246521 1_565
Al2 Pr3 3.246521 1_665
Al2 Pr0 3.318831 1_655
Al2 Pr0 3.318831 1_555
Al2 Pr1 3.483359 1_554
Al3 Rh0 2.574772 1_545
Al3 Rh1 2.650209 1_556
Al3 Rh1 2.650209 1_456
Al3 Rh3 2.854211 1_555
Al3 Pr3 3.157030 1_556
Al3 Pr2 3.246521 1_545
Al3 Pr2 3.246521 1_445
Al3 Pr1 3.318831 1_555
Al3 Pr1 3.318831 1_455
Al3 Pr0 3.483359 1_556
