# generated using pymatgen
data_SrHfN2
_symmetry_space_group_name_H-M   'P 1'
_cell_length_a   4.02121058
_cell_length_b   4.02121058
_cell_length_c   8.22138958
_cell_angle_alpha   90.00000000
_cell_angle_beta   90.00000000
_cell_angle_gamma   90.00000000
_symmetry_Int_Tables_number   1
_chemical_formula_structural   SrHfN2
_chemical_formula_sum   'Sr2 Hf2 N4'
_cell_volume   132.94097552
_cell_formula_units_Z   2
loop_
 _symmetry_equiv_pos_site_id
 _symmetry_equiv_pos_as_xyz
  1  'x, y, z'
loop_
 _atom_site_type_symbol
 _atom_site_label
 _atom_site_symmetry_multiplicity
 _atom_site_fract_x
 _atom_site_fract_y
 _atom_site_fract_z
 _atom_site_occupancy
  Sr  Sr0  1  0.75000000  0.75000000  0.14300832  1
  Sr  Sr1  1  0.25000000  0.25000000  0.85699168  1
  Hf  Hf0  1  0.75000000  0.75000000  0.59237743  1
  Hf  Hf1  1  0.25000000  0.25000000  0.40762257  1
  N  N0  1  0.75000000  0.25000000  0.50000000  1
  N  N1  1  0.25000000  0.75000000  0.50000000  1
  N  N2  1  0.75000000  0.75000000  0.83427863  1
  N  N3  1  0.25000000  0.25000000  0.16572137  1
loop_
_geom_bond_atom_site_label_1
_geom_bond_atom_site_label_2
_geom_bond_distance
_geom_bond_site_symmetry_2
Hf0 N2 1.988764 1_555
Hf0 N1 2.149263 1_555
Hf0 N0 2.149263 1_555
Hf0 N0 2.149263 1_565
Hf0 N1 2.149263 1_655
Hf1 N3 1.988764 1_555
Hf1 N1 2.149263 1_545
Hf1 N0 2.149263 1_455
Hf1 N1 2.149263 1_555
Hf1 N0 2.149263 1_555
N2 Sr0 2.538187 1_556
N2 Sr1 2.849550 1_665
N2 Sr1 2.849550 1_655
N2 Sr1 2.849550 1_565
N2 Sr1 2.849550 1_555
N3 Sr1 2.538187 1_554
N3 Sr0 2.849550 1_545
N3 Sr0 2.849550 1_555
N3 Sr0 2.849550 1_455
N3 Sr0 2.849550 1_445
