# generated using pymatgen
data_K2Al2B2O7
_symmetry_space_group_name_H-M   'P 1'
_cell_length_a   8.66720973
_cell_length_b   8.66720973
_cell_length_c   8.58029192
_cell_angle_alpha   89.92082798
_cell_angle_beta   89.92082798
_cell_angle_gamma   59.99224677
_symmetry_Int_Tables_number   1
_chemical_formula_structural   K2Al2B2O7
_chemical_formula_sum   'K6 Al6 B6 O21'
_cell_volume   558.15756979
_cell_formula_units_Z   3
loop_
 _symmetry_equiv_pos_site_id
 _symmetry_equiv_pos_as_xyz
  1  'x, y, z'
loop_
 _atom_site_type_symbol
 _atom_site_label
 _atom_site_symmetry_multiplicity
 _atom_site_fract_x
 _atom_site_fract_y
 _atom_site_fract_z
 _atom_site_occupancy
  K  K0  1  0.00127600  0.64066100  0.50000300  1
  K  K1  1  0.35933900  0.99872400  0.49999700  1
  K  K2  1  0.63930800  0.36069200  0.50000000  1
  K  K3  1  0.69215200  0.30784800  0.00000000  1
  K  K4  1  0.00006000  0.69015800  0.99824200  1
  K  K5  1  0.30984200  0.99994000  0.00175800  1
  Al  Al0  1  0.00580100  0.99429900  0.29855100  1
  Al  Al1  1  0.00570100  0.99419900  0.70144900  1
  Al  Al2  1  0.33349900  0.33290400  0.18637100  1
  Al  Al3  1  0.66709600  0.66650100  0.81362900  1
  Al  Al4  1  0.33324400  0.33336800  0.78271600  1
  Al  Al5  1  0.66663200  0.66675600  0.21728400  1
  B  B0  1  0.33467500  0.66411100  0.74720400  1
  B  B1  1  0.00128700  0.33206100  0.74193100  1
  B  B2  1  0.66593800  0.00140000  0.74296200  1
  B  B3  1  0.99860000  0.33406200  0.25703800  1
  B  B4  1  0.66793900  0.99871300  0.25806900  1
  B  B5  1  0.33588900  0.66532500  0.25279600  1
  O  O0  1  0.33403300  0.33321500  0.98444700  1
  O  O1  1  0.66678500  0.66596700  0.01555300  1
  O  O2  1  0.27238400  0.54869600  0.71172700  1
  O  O3  1  0.17973500  0.27176100  0.71132900  1
  O  O4  1  0.54849100  0.17958400  0.71111700  1
  O  O5  1  0.82041600  0.45150900  0.28888300  1
  O  O6  1  0.72823900  0.82026500  0.28867100  1
  O  O7  1  0.45130400  0.72761600  0.28827300  1
  O  O8  1  0.21477900  0.83949400  0.78516500  1
  O  O9  1  0.94398000  0.21152800  0.76854800  1
  O  O10  1  0.84327700  0.94389900  0.77254300  1
  O  O11  1  0.05610100  0.15672300  0.22745700  1
  O  O12  1  0.78847200  0.05602000  0.23145200  1
  O  O13  1  0.16050600  0.78522100  0.21483500  1
  O  O14  1  0.51550700  0.60215700  0.74374800  1
  O  O15  1  0.88296900  0.51315700  0.74539300  1
  O  O16  1  0.60340900  0.88273300  0.74502800  1
  O  O17  1  0.11726700  0.39659100  0.25497200  1
  O  O18  1  0.48684300  0.11703100  0.25460700  1
  O  O19  1  0.39784300  0.48449300  0.25625200  1
  O  O20  1  0.01918000  0.98082000  0.50000000  1
loop_
_geom_bond_atom_site_label_1
_geom_bond_atom_site_label_2
_geom_bond_distance
_geom_bond_site_symmetry_2
K0 O2 2.755233 1_555
K0 O6 2.762390 1_455
K0 O17 2.790187 1_555
K0 O15 2.797663 1_455
K0 O20 3.028819 1_555
K0 O10 3.264887 1_455
K0 O3 3.308823 1_555
K0 O5 3.318565 1_455
K0 O13 3.342627 1_555
K1 O7 2.755233 1_555
K1 O3 2.762390 1_565
K1 O16 2.790187 1_555
K1 O18 2.797663 1_565
K1 O20 3.028819 1_555
K1 O11 3.264887 1_565
K1 O6 3.308823 1_555
K1 O4 3.318565 1_565
K1 O8 3.342627 1_555
K2 O5 2.754799 1_555
K2 O4 2.754799 1_555
K2 O14 2.768591 1_555
K2 O19 2.768591 1_555
K3 O12 2.752240 1_555
K3 O9 2.752240 1_554
K3 O0 3.003127 1_554
K3 O1 3.003127 1_555
K3 O19 3.126125 1_555
K3 O14 3.126125 1_554
K3 O5 3.214167 1_555
K3 O4 3.214167 1_554
K4 O13 2.687725 1_556
K4 O10 2.727589 1_455
K5 O8 2.687725 1_554
K5 O11 2.727589 1_565
Al0 O20 1.732404 1_555
Al0 O11 1.776156 1_565
Al0 O12 1.777633 1_465
Al0 O13 1.779951 1_555
Al1 O20 1.732404 1_555
Al1 O10 1.776156 1_455
Al1 O9 1.777633 1_465
Al1 O8 1.779951 1_555
Al2 O0 1.732569 1_554
Al2 O18 1.766846 1_555
Al2 O17 1.768227 1_555
Al2 O19 1.769951 1_555
Al3 O1 1.732569 1_556
Al3 O15 1.766846 1_555
Al3 O16 1.768227 1_555
Al3 O14 1.769951 1_555
Al4 O0 1.730930 1_555
Al4 O3 1.773208 1_555
Al4 O2 1.773520 1_555
Al4 O4 1.773786 1_555
Al5 O1 1.730930 1_555
Al5 O6 1.773208 1_555
Al5 O7 1.773520 1_555
Al5 O5 1.773786 1_555
B0 O14 1.379781 1_555
B0 O8 1.384575 1_555
B0 O2 1.387905 1_555
B1 O15 1.380654 1_455
B1 O9 1.381399 1_455
B1 O3 1.387424 1_555
B2 O16 1.381782 1_545
B2 O10 1.381957 1_545
B2 O4 1.386749 1_555
B3 O17 1.381782 1_655
B3 O11 1.381957 1_655
B3 O5 1.386749 1_555
B4 O18 1.380654 1_565
B4 O12 1.381399 1_565
B4 O6 1.387424 1_555
B5 O19 1.379781 1_555
B5 O13 1.384575 1_555
B5 O7 1.387905 1_555
