# generated using pymatgen
data_NdInPt4
_symmetry_space_group_name_H-M   'P 1'
_cell_length_a   5.41691926
_cell_length_b   5.41691926
_cell_length_c   5.41691926
_cell_angle_alpha   60.00000000
_cell_angle_beta   60.00000000
_cell_angle_gamma   60.00000000
_symmetry_Int_Tables_number   1
_chemical_formula_structural   NdInPt4
_chemical_formula_sum   'Nd1 In1 Pt4'
_cell_volume   112.39373114
_cell_formula_units_Z   1
loop_
 _symmetry_equiv_pos_site_id
 _symmetry_equiv_pos_as_xyz
  1  'x, y, z'
loop_
 _atom_site_type_symbol
 _atom_site_label
 _atom_site_symmetry_multiplicity
 _atom_site_fract_x
 _atom_site_fract_y
 _atom_site_fract_z
 _atom_site_occupancy
  Nd  Nd0  1  -0.00000000  0.00000000  0.00000000  1
  In  In0  1  0.25000000  0.25000000  0.25000000  1
  Pt  Pt0  1  0.62440680  0.62440680  0.12678161  1
  Pt  Pt1  1  0.62440680  0.12678161  0.62440680  1
  Pt  Pt2  1  0.12678161  0.62440680  0.62440680  1
  Pt  Pt3  1  0.62440680  0.62440680  0.62440680  1
loop_
_geom_bond_atom_site_label_1
_geom_bond_atom_site_label_2
_geom_bond_distance
_geom_bond_site_symmetry_2
Nd0 Pt1 3.177325 1_454
Nd0 Pt2 3.177325 1_544
Nd0 Pt0 3.177325 1_445
Nd0 Pt3 3.177330 1_445
Nd0 Pt3 3.177330 1_454
Nd0 Pt3 3.177330 1_544
Nd0 Pt2 3.177335 1_545
Nd0 Pt0 3.177335 1_455
Nd0 Pt1 3.177335 1_554
Nd0 Pt1 3.177335 1_455
Nd0 Pt0 3.177335 1_545
Nd0 Pt2 3.177335 1_554
In0 Pt1 3.174585 1_455
In0 Pt0 3.174585 1_545
In0 Pt0 3.174585 1_455
In0 Pt1 3.174585 1_554
In0 Pt2 3.174585 1_554
In0 Pt2 3.174585 1_545
In0 Pt3 3.174590 1_554
In0 Pt3 3.174590 1_455
In0 Pt3 3.174590 1_545
In0 Pt1 3.174594 1_555
In0 Pt2 3.174594 1_555
In0 Pt0 3.174594 1_555
In0 Nd0 3.317172 1_565
In0 Nd0 3.317172 1_655
In0 Nd0 3.317172 1_555
In0 Nd0 3.317172 1_556
Pt0 Pt3 2.695595 1_555
Pt0 Pt2 2.695595 1_555
Pt0 Pt1 2.695595 1_555
Pt0 Pt3 2.721324 1_554
Pt0 Pt2 2.721324 1_654
Pt0 Pt1 2.721324 1_564
Pt1 Pt3 2.695595 1_555
Pt1 Pt2 2.695595 1_555
Pt1 Pt3 2.721324 1_545
Pt1 Pt2 2.721324 1_645
Pt2 Pt3 2.695595 1_555
Pt2 Pt3 2.721324 1_455
