# generated using pymatgen
data_RbCeMg14
_symmetry_space_group_name_H-M   'P 1'
_cell_length_a   6.73991268
_cell_length_b   6.73991210
_cell_length_c   10.53182857
_cell_angle_alpha   90.00000000
_cell_angle_beta   90.00000000
_cell_angle_gamma   120.00000285
_symmetry_Int_Tables_number   1
_chemical_formula_structural   RbCeMg14
_chemical_formula_sum   'Rb1 Ce1 Mg14'
_cell_volume   414.32668303
_cell_formula_units_Z   1
loop_
 _symmetry_equiv_pos_site_id
 _symmetry_equiv_pos_as_xyz
  1  'x, y, z'
loop_
 _atom_site_type_symbol
 _atom_site_label
 _atom_site_symmetry_multiplicity
 _atom_site_fract_x
 _atom_site_fract_y
 _atom_site_fract_z
 _atom_site_occupancy
  Rb  Rb0  1  0.16666700  0.33333300  0.62500000  1
  Ce  Ce0  1  0.16666700  0.33333300  0.12500000  1
  Mg  Mg0  1  0.17295652  0.83647776  0.12500000  1
  Mg  Mg1  1  0.17347971  0.83673936  0.62500000  1
  Mg  Mg2  1  0.66352224  0.32704348  0.12500000  1
  Mg  Mg3  1  0.66326064  0.32652029  0.62500000  1
  Mg  Mg4  1  0.66352224  0.83647776  0.12500000  1
  Mg  Mg5  1  0.66326064  0.83673936  0.62500000  1
  Mg  Mg6  1  0.34132340  0.15867660  0.36593546  1
  Mg  Mg7  1  0.34132340  0.15867660  0.88406454  1
  Mg  Mg8  1  0.34132340  0.68264779  0.36593546  1
  Mg  Mg9  1  0.34132340  0.68264779  0.88406454  1
  Mg  Mg10  1  0.81735221  0.15867660  0.36593546  1
  Mg  Mg11  1  0.81735221  0.15867660  0.88406454  1
  Mg  Mg12  1  0.83333300  0.66666700  0.37066845  1
  Mg  Mg13  1  0.83333300  0.66666700  0.87933155  1
loop_
_geom_bond_atom_site_label_1
_geom_bond_atom_site_label_2
_geom_bond_distance
_geom_bond_site_symmetry_2
Ce0 Mg6 3.255156 1_555
Ce0 Mg7 3.255156 1_554
Ce0 Mg8 3.255163 1_555
Ce0 Mg9 3.255163 1_554
Ce0 Mg10 3.255163 1_455
Ce0 Mg11 3.255163 1_454
Ce0 Mg0 3.370156 1_555
Ce0 Mg4 3.370156 1_555
Ce0 Mg4 3.370156 1_445
Ce0 Mg0 3.370156 1_545
Ce0 Mg2 3.370156 1_455
Ce0 Mg2 3.370156 1_555
Mg0 Mg8 3.158809 1_555
Mg0 Mg9 3.158809 1_554
Mg0 Mg6 3.158816 1_565
Mg0 Mg7 3.158816 1_564
Mg0 Mg13 3.259459 1_454
Mg0 Mg12 3.259459 1_455
Mg0 Mg2 3.306370 1_565
Mg0 Mg4 3.306370 1_555
Mg0 Mg2 3.433542 1_455
Mg0 Mg4 3.433543 1_455
Mg1 Mg3 3.301080 1_565
Mg1 Mg5 3.301081 1_555
Mg1 Mg8 3.313233 1_555
Mg1 Mg9 3.313233 1_555
Mg1 Mg6 3.313240 1_565
Mg1 Mg7 3.313240 1_565
Mg1 Mg12 3.334163 1_455
Mg1 Mg13 3.334163 1_455
Mg1 Rb0 3.370191 1_565
Mg1 Rb0 3.370191 1_555
Mg1 Mg3 3.438832 1_455
Mg1 Mg5 3.438832 1_455
Mg2 Mg7 3.158816 1_554
Mg2 Mg6 3.158816 1_555
Mg2 Mg4 3.306370 1_545
Mg2 Mg4 3.433542 1_555
Mg3 Mg5 3.301080 1_545
Mg3 Mg7 3.313240 1_555
Mg3 Mg6 3.313240 1_555
Mg3 Rb0 3.370191 1_555
Mg3 Rb0 3.370191 1_655
Mg3 Mg5 3.438832 1_555
Mg4 Mg8 3.158816 1_555
Mg4 Mg9 3.158816 1_554
Mg5 Mg8 3.313240 1_555
Mg5 Mg9 3.313240 1_555
Mg5 Rb0 3.370191 1_555
Mg5 Rb0 3.370191 1_665
Mg6 Mg8 3.208392 1_545
Mg6 Rb0 3.406094 1_555
Mg6 Mg8 3.531520 1_555
Mg7 Mg9 3.208392 1_545
Mg7 Rb0 3.406094 1_555
Mg7 Mg9 3.531520 1_555
Mg8 Rb0 3.406100 1_555
Mg9 Rb0 3.406100 1_555
Mg10 Mg2 3.158809 1_555
Mg10 Mg4 3.158816 1_545
Mg10 Mg8 3.208392 1_545
Mg10 Mg6 3.208393 1_555
Mg10 Mg3 3.313233 1_555
Mg10 Mg5 3.313240 1_545
Mg10 Mg12 3.371615 1_545
Mg10 Mg12 3.371615 1_555
Mg10 Rb0 3.406101 1_655
Mg10 Mg8 3.531520 1_655
Mg10 Mg6 3.531520 1_655
Mg11 Mg2 3.158809 1_556
Mg11 Mg4 3.158816 1_546
Mg11 Mg9 3.208392 1_545
Mg11 Mg7 3.208393 1_555
Mg11 Mg3 3.313233 1_555
Mg11 Mg5 3.313240 1_545
Mg11 Mg13 3.371615 1_545
Mg11 Mg13 3.371615 1_555
Mg11 Rb0 3.406101 1_655
Mg11 Mg9 3.531520 1_655
Mg11 Mg7 3.531520 1_655
Mg12 Mg4 3.259452 1_555
Mg12 Mg2 3.259459 1_555
Mg12 Mg5 3.334156 1_555
Mg12 Mg3 3.334163 1_555
Mg12 Mg6 3.371615 1_555
Mg12 Mg6 3.371615 1_665
Mg12 Mg8 3.371616 1_555
Mg12 Mg8 3.371616 1_655
Mg13 Mg4 3.259452 1_556
Mg13 Mg2 3.259459 1_556
Mg13 Mg5 3.334156 1_555
Mg13 Mg3 3.334163 1_555
Mg13 Mg7 3.371615 1_555
Mg13 Mg7 3.371615 1_665
Mg13 Mg9 3.371616 1_555
Mg13 Mg9 3.371616 1_655
