# generated using pymatgen
data_Al4CO4
_symmetry_space_group_name_H-M   'P 1'
_cell_length_a   5.13861225
_cell_length_b   5.13861163
_cell_length_c   9.08764383
_cell_angle_alpha   90.00000000
_cell_angle_beta   90.00000000
_cell_angle_gamma   112.19859657
_symmetry_Int_Tables_number   1
_chemical_formula_structural   Al4CO4
_chemical_formula_sum   'Al8 C2 O8'
_cell_volume   222.17621761
_cell_formula_units_Z   2
loop_
 _symmetry_equiv_pos_site_id
 _symmetry_equiv_pos_as_xyz
  1  'x, y, z'
loop_
 _atom_site_type_symbol
 _atom_site_label
 _atom_site_symmetry_multiplicity
 _atom_site_fract_x
 _atom_site_fract_y
 _atom_site_fract_z
 _atom_site_occupancy
  Al  Al0  1  0.89290217  0.56473712  0.49951880  1
  Al  Al1  1  0.10709783  0.43526288  0.99951880  1
  Al  Al2  1  0.43526288  0.10709783  0.49951880  1
  Al  Al3  1  0.56473712  0.89290217  0.99951880  1
  Al  Al4  1  0.60151191  0.39848809  0.20964874  1
  Al  Al5  1  0.39848809  0.60151191  0.70964874  1
  Al  Al6  1  0.93815096  0.06184904  0.28979757  1
  Al  Al7  1  0.06184904  0.93815096  0.78979757  1
  C  C0  1  0.80472452  0.19527548  0.11517316  1
  C  C1  1  0.19527548  0.80472452  0.61517316  1
  O  O0  1  0.82010667  0.68995552  0.32381139  1
  O  O1  1  0.17989333  0.31004448  0.82381139  1
  O  O2  1  0.31004448  0.17989333  0.32381139  1
  O  O3  1  0.68995552  0.82010667  0.82381139  1
  O  O4  1  0.44201113  0.55798887  0.08902291  1
  O  O5  1  0.55798887  0.44201113  0.58902291  1
  O  O6  1  0.19538788  0.80461212  0.94489823  1
  O  O7  1  0.80461212  0.19538788  0.44489823  1
loop_
_geom_bond_atom_site_label_1
_geom_bond_atom_site_label_2
_geom_bond_distance
_geom_bond_site_symmetry_2
Al0 O5 1.789131 1_555
Al0 O0 1.812593 1_555
Al0 O7 1.844924 1_555
Al0 C1 1.895199 1_655
Al1 O4 1.789131 1_556
Al1 O1 1.812593 1_555
Al1 O6 1.844924 1_555
Al1 C0 1.895199 1_456
Al2 O5 1.789131 1_555
Al2 O2 1.812593 1_555
Al2 O7 1.844924 1_555
Al2 C1 1.895199 1_545
Al3 O4 1.789131 1_556
Al3 O3 1.812593 1_555
Al3 O6 1.844924 1_555
Al3 C0 1.895199 1_566
Al4 O4 1.747228 1_555
Al4 O0 1.819353 1_555
Al4 O2 1.819353 1_555
Al4 C0 1.934405 1_555
Al5 O5 1.747228 1_555
Al5 O1 1.819353 1_555
Al5 O3 1.819353 1_555
Al5 C1 1.934405 1_555
Al6 O0 1.799874 1_545
Al6 O2 1.799874 1_655
Al6 O7 1.812251 1_555
Al6 C0 1.952872 1_555
Al7 O1 1.799874 1_565
Al7 O3 1.799874 1_455
Al7 O6 1.812251 1_555
Al7 C1 1.952872 1_555
