# generated using pymatgen
data_Mg6CdCo
_symmetry_space_group_name_H-M   'P 1'
_cell_length_a   4.89600600
_cell_length_b   6.15772200
_cell_length_c   10.55408300
_cell_angle_alpha   90.00000000
_cell_angle_beta   90.00000000
_cell_angle_gamma   90.00000000
_symmetry_Int_Tables_number   1
_chemical_formula_structural   Mg6CdCo
_chemical_formula_sum   'Mg12 Cd2 Co2'
_cell_volume   318.18706799
_cell_formula_units_Z   2
loop_
 _symmetry_equiv_pos_site_id
 _symmetry_equiv_pos_as_xyz
  1  'x, y, z'
loop_
 _atom_site_type_symbol
 _atom_site_label
 _atom_site_symmetry_multiplicity
 _atom_site_fract_x
 _atom_site_fract_y
 _atom_site_fract_z
 _atom_site_occupancy
  Mg  Mg0  1  0.00000000  0.25027700  0.08376500  1
  Mg  Mg1  1  0.00000000  0.74972300  0.08376500  1
  Mg  Mg2  1  0.00000000  0.50000000  0.83415500  1
  Mg  Mg3  1  0.50000000  0.23575000  0.90884000  1
  Mg  Mg4  1  0.50000000  0.76425000  0.90884000  1
  Mg  Mg5  1  0.50000000  0.50000000  0.66639000  1
  Mg  Mg6  1  0.00000000  0.75027700  0.58376500  1
  Mg  Mg7  1  0.00000000  0.24972300  0.58376500  1
  Mg  Mg8  1  0.00000000  0.00000000  0.33415500  1
  Mg  Mg9  1  0.50000000  0.73575000  0.40884000  1
  Mg  Mg10  1  0.50000000  0.26425000  0.40884000  1
  Mg  Mg11  1  0.50000000  0.00000000  0.16639000  1
  Cd  Cd0  1  0.50000000  0.50000000  0.16898400  1
  Cd  Cd1  1  0.50000000  0.00000000  0.66898400  1
  Co  Co0  1  0.00000000  0.50000000  0.34526100  1
  Co  Co1  1  0.00000000  0.00000000  0.84526100  1
loop_
_geom_bond_atom_site_label_1
_geom_bond_atom_site_label_2
_geom_bond_distance
_geom_bond_site_symmetry_2
Mg0 Mg11 3.021301 1_455
Mg0 Mg11 3.021301 1_555
Mg0 Mg2 3.050358 1_554
Mg0 Mg8 3.059188 1_555
Mg0 Mg3 3.067422 1_554
Mg0 Mg3 3.067422 1_454
Mg0 Mg1 3.075450 1_555
Mg0 Mg1 3.082272 1_545
Mg1 Mg11 3.021301 1_565
Mg1 Mg11 3.021301 1_465
Mg1 Mg2 3.050358 1_554
Mg1 Mg8 3.059188 1_565
Mg1 Mg4 3.067422 1_554
Mg1 Mg4 3.067422 1_454
Mg2 Mg5 3.021219 1_555
Mg2 Mg5 3.021219 1_455
Mg2 Mg3 3.043310 1_555
Mg2 Mg3 3.043310 1_455
Mg2 Mg4 3.043310 1_455
Mg2 Mg4 3.043310 1_555
Mg2 Mg7 3.059188 1_555
Mg2 Mg6 3.059188 1_555
Mg3 Mg4 2.903366 1_545
Mg3 Mg5 3.032385 1_555
Mg3 Mg4 3.254356 1_555
Mg4 Mg5 3.032385 1_555
Mg5 Mg6 3.021301 1_555
Mg5 Mg7 3.021301 1_555
Mg5 Mg6 3.021301 1_655
Mg5 Mg7 3.021301 1_655
Mg5 Mg9 3.081561 1_555
Mg6 Mg8 3.050358 1_565
Mg6 Mg9 3.067422 1_455
Mg6 Mg9 3.067422 1_555
Mg6 Mg7 3.075450 1_565
Mg6 Mg7 3.082272 1_555
Mg7 Mg8 3.050358 1_555
Mg8 Mg9 3.043310 1_545
Mg8 Mg9 3.043310 1_445
Mg10 Mg9 2.903366 1_555
Mg10 Mg11 3.032385 1_555
Mg10 Mg8 3.043310 1_555
Mg10 Mg8 3.043310 1_655
Mg10 Mg7 3.067422 1_555
Mg10 Mg7 3.067422 1_655
Mg10 Mg5 3.081561 1_555
Mg10 Mg9 3.254356 1_545
Mg11 Mg8 3.021219 1_555
Mg11 Mg8 3.021219 1_655
Mg11 Mg9 3.032385 1_545
Mg11 Mg3 3.081561 1_554
Mg11 Mg4 3.081561 1_544
Cd0 Mg10 2.918163 1_555
Cd0 Mg9 2.918163 1_555
Cd0 Mg1 3.027582 1_555
Cd0 Mg1 3.027582 1_655
Cd0 Mg0 3.027582 1_555
Cd0 Mg0 3.027582 1_655
Cd0 Co0 3.074730 1_655
Cd0 Co0 3.074730 1_555
Cd0 Mg11 3.078983 1_555
Cd0 Mg11 3.078983 1_565
Cd0 Mg3 3.191540 1_554
Cd0 Mg4 3.191540 1_554
Cd1 Mg4 2.918163 1_545
Cd1 Mg3 2.918163 1_555
Cd1 Mg6 3.027582 1_545
Cd1 Mg7 3.027582 1_555
Cd1 Mg7 3.027582 1_655
Cd1 Mg6 3.027582 1_645
Cd1 Co1 3.074730 1_555
Cd1 Co1 3.074730 1_655
Cd1 Mg5 3.078983 1_545
Cd1 Mg5 3.078983 1_555
Cd1 Mg9 3.191540 1_545
Cd1 Mg10 3.191540 1_555
Co0 Mg10 2.924101 1_555
Co0 Mg9 2.924101 1_555
Co0 Mg9 2.924101 1_455
Co0 Mg10 2.924101 1_455
Co0 Mg7 2.951500 1_555
Co0 Mg6 2.951500 1_555
Co0 Mg8 3.081091 1_565
Co0 Mg8 3.081091 1_555
Co0 Mg1 3.159331 1_555
Co0 Mg0 3.159331 1_555
Co1 Mg4 2.924101 1_545
Co1 Mg4 2.924101 1_445
Co1 Mg3 2.924101 1_555
Co1 Mg3 2.924101 1_455
Co1 Mg0 2.951500 1_556
Co1 Mg1 2.951500 1_546
Co1 Mg2 3.081091 1_555
Co1 Mg2 3.081091 1_545
Co1 Mg6 3.159331 1_545
Co1 Mg7 3.159331 1_555
