# generated using pymatgen
data_LaMg14W
_symmetry_space_group_name_H-M   'P 1'
_cell_length_a   6.49873193
_cell_length_b   6.09814889
_cell_length_c   10.40584344
_cell_angle_alpha   90.00000000
_cell_angle_beta   90.00000000
_cell_angle_gamma   117.98108112
_symmetry_Int_Tables_number   1
_chemical_formula_structural   LaMg14W
_chemical_formula_sum   'La1 Mg14 W1'
_cell_volume   364.17915106
_cell_formula_units_Z   1
loop_
 _symmetry_equiv_pos_site_id
 _symmetry_equiv_pos_as_xyz
  1  'x, y, z'
loop_
 _atom_site_type_symbol
 _atom_site_label
 _atom_site_symmetry_multiplicity
 _atom_site_fract_x
 _atom_site_fract_y
 _atom_site_fract_z
 _atom_site_occupancy
  La  La0  1  0.15438639  0.32719270  0.12500000  1
  Mg  Mg0  1  0.16640814  0.33320357  0.62500000  1
  Mg  Mg1  1  0.16202656  0.83101278  0.62500000  1
  Mg  Mg2  1  0.65446089  0.32196808  0.12500000  1
  Mg  Mg3  1  0.66198121  0.33377315  0.62500000  1
  Mg  Mg4  1  0.65446089  0.83249180  0.12500000  1
  Mg  Mg5  1  0.66198121  0.82820706  0.62500000  1
  Mg  Mg6  1  0.33617268  0.15846591  0.37559969  1
  Mg  Mg7  1  0.33617268  0.15846591  0.87440031  1
  Mg  Mg8  1  0.33617268  0.67770777  0.37559969  1
  Mg  Mg9  1  0.33617268  0.67770777  0.87440031  1
  Mg  Mg10  1  0.83152662  0.16576381  0.38742146  1
  Mg  Mg11  1  0.83152662  0.16576381  0.86257854  1
  Mg  Mg12  1  0.85375187  0.67687643  0.35891799  1
  Mg  Mg13  1  0.85375187  0.67687643  0.89108201  1
  W  W0  1  0.16904703  0.83452302  0.12500000  1
loop_
_geom_bond_atom_site_label_1
_geom_bond_atom_site_label_2
_geom_bond_distance
_geom_bond_site_symmetry_2
La0 W0 3.050235 1_555
La0 W0 3.050235 1_545
La0 Mg6 3.224138 1_555
La0 Mg7 3.224138 1_554
La0 Mg9 3.224144 1_554
La0 Mg8 3.224144 1_555
La0 Mg4 3.234056 1_445
La0 Mg2 3.234056 1_455
La0 Mg4 3.264919 1_555
La0 Mg2 3.264920 1_555
La0 Mg10 3.300012 1_455
La0 Mg11 3.300012 1_454
Mg0 Mg1 3.049178 1_545
Mg0 Mg1 3.049178 1_555
Mg0 Mg11 3.131374 1_455
Mg0 Mg10 3.131374 1_455
Mg0 Mg7 3.192324 1_555
Mg0 Mg6 3.192324 1_555
Mg0 Mg9 3.192330 1_555
Mg0 Mg8 3.192330 1_555
Mg0 Mg5 3.218968 1_555
Mg0 Mg3 3.218968 1_555
Mg0 Mg5 3.279766 1_445
Mg0 Mg3 3.279766 1_455
Mg1 Mg9 3.143690 1_555
Mg1 Mg8 3.143690 1_555
Mg1 Mg6 3.143695 1_565
Mg1 Mg7 3.143695 1_565
Mg1 Mg3 3.241668 1_455
Mg1 Mg5 3.241668 1_455
Mg1 Mg3 3.257134 1_565
Mg1 Mg5 3.257134 1_555
Mg1 Mg13 3.285784 1_455
Mg1 Mg12 3.285784 1_455
Mg2 Mg4 2.984899 1_545
Mg2 Mg4 3.113250 1_555
Mg2 W0 3.160405 1_545
Mg2 Mg6 3.183950 1_555
Mg2 Mg7 3.183950 1_554
Mg2 W0 3.338364 1_655
Mg3 Mg5 3.015132 1_555
Mg3 Mg5 3.083017 1_545
Mg3 Mg6 3.199556 1_555
Mg3 Mg7 3.199556 1_555
Mg4 W0 3.160405 1_555
Mg4 Mg8 3.183950 1_555
Mg4 Mg9 3.183950 1_554
Mg4 W0 3.338364 1_655
Mg5 Mg9 3.199556 1_555
Mg5 Mg8 3.199556 1_555
Mg6 Mg8 2.931735 1_545
Mg6 W0 3.141471 1_545
Mg6 Mg8 3.166414 1_555
Mg7 Mg9 2.931735 1_545
Mg7 W0 3.141471 1_546
Mg7 Mg9 3.166414 1_555
Mg8 W0 3.141466 1_555
Mg9 W0 3.141466 1_556
Mg10 Mg12 3.066121 1_555
Mg10 Mg12 3.066121 1_545
Mg10 Mg3 3.071614 1_555
Mg10 Mg5 3.071620 1_545
Mg10 Mg8 3.200898 1_545
Mg10 Mg6 3.200898 1_555
Mg10 Mg2 3.273659 1_555
Mg10 Mg4 3.273664 1_545
Mg10 Mg8 3.302965 1_655
Mg10 Mg6 3.302965 1_655
Mg11 Mg13 3.066121 1_555
Mg11 Mg13 3.066121 1_545
Mg11 Mg3 3.071614 1_555
Mg11 Mg5 3.071620 1_545
Mg11 Mg9 3.200898 1_545
Mg11 Mg7 3.200898 1_555
Mg11 Mg2 3.273659 1_556
Mg11 Mg4 3.273664 1_546
Mg11 Mg9 3.302965 1_655
Mg11 Mg7 3.302965 1_655
Mg12 W0 3.033015 1_655
Mg12 Mg4 3.107429 1_555
Mg12 Mg2 3.107435 1_555
Mg12 Mg6 3.137554 1_665
Mg12 Mg8 3.137554 1_655
Mg12 Mg5 3.339208 1_555
Mg12 Mg3 3.339214 1_555
Mg12 Mg6 3.370463 1_555
Mg12 Mg8 3.370463 1_555
Mg13 W0 3.033015 1_656
Mg13 Mg4 3.107429 1_556
Mg13 Mg2 3.107435 1_556
Mg13 Mg7 3.137554 1_665
Mg13 Mg9 3.137554 1_655
Mg13 Mg5 3.339208 1_555
Mg13 Mg3 3.339214 1_555
Mg13 Mg7 3.370463 1_555
Mg13 Mg9 3.370463 1_555
