# generated using pymatgen
data_La4Sm4Ni7AgO20
_symmetry_space_group_name_H-M   'P 1'
_cell_length_a   11.01800353
_cell_length_b   11.51833523
_cell_length_c   17.53365346
_cell_angle_alpha   109.59115035
_cell_angle_beta   108.22318009
_cell_angle_gamma   89.87854401
_symmetry_Int_Tables_number   1
_chemical_formula_structural   La4Sm4Ni7AgO20
_chemical_formula_sum   'La16 Sm16 Ni28 Ag4 O80'
_cell_volume   1978.05385716
_cell_formula_units_Z   4
loop_
 _symmetry_equiv_pos_site_id
 _symmetry_equiv_pos_as_xyz
  1  'x, y, z'
loop_
 _atom_site_type_symbol
 _atom_site_label
 _atom_site_symmetry_multiplicity
 _atom_site_fract_x
 _atom_site_fract_y
 _atom_site_fract_z
 _atom_site_occupancy
  La  La0  1  0.30665362  0.06152996  0.60781070  1
  La  La1  1  0.30968283  0.56495537  0.61061791  1
  La  La2  1  0.80438333  0.06297544  0.60872114  1
  La  La3  1  0.80598030  0.56408373  0.61106236  1
  La  La4  1  0.19770273  0.43651630  0.38901024  1
  La  La5  1  0.19242542  0.43840603  0.88770212  1
  La  La6  1  0.69464281  0.43588914  0.38880601  1
  La  La7  1  0.69364777  0.93607221  0.38840983  1
  La  La8  1  0.05524216  0.29575458  0.60905032  1
  La  La9  1  0.05466526  0.79798210  0.61020670  1
  La  La10  1  0.55727602  0.29690254  0.60952276  1
  La  La11  1  0.44466293  0.20159672  0.38808234  1
  La  La12  1  0.44172223  0.20440239  0.88940860  1
  La  La13  1  0.94700027  0.20172032  0.38849551  1
  La  La14  1  0.94244027  0.19971555  0.88642401  1
  La  La15  1  0.94790746  0.70520098  0.38962389  1
  Sm  Sm0  1  0.29777399  0.06816706  0.11272456  1
  Sm  Sm1  1  0.30811591  0.56528453  0.11579085  1
  Sm  Sm2  1  0.79513764  0.07068700  0.11164107  1
  Sm  Sm3  1  0.79832911  0.55937879  0.11529701  1
  Sm  Sm4  1  0.19556820  0.93419849  0.39021531  1
  Sm  Sm5  1  0.18893489  0.93368679  0.88780916  1
  Sm  Sm6  1  0.68085359  0.43399598  0.88731539  1
  Sm  Sm7  1  0.68315854  0.93289859  0.88134358  1
  Sm  Sm8  1  0.05335903  0.29809999  0.11396764  1
  Sm  Sm9  1  0.05814173  0.79543561  0.11702072  1
  Sm  Sm10  1  0.55348901  0.30047659  0.11199254  1
  Sm  Sm11  1  0.54057146  0.79384899  0.11202729  1
  Sm  Sm12  1  0.55414447  0.79252960  0.60633821  1
  Sm  Sm13  1  0.44422625  0.70795769  0.39248424  1
  Sm  Sm14  1  0.43409755  0.69951136  0.88827016  1
  Sm  Sm15  1  0.94273976  0.70735312  0.88713402  1
  Ni  Ni0  1  0.00495465  0.99965894  0.49887258  1
  Ni  Ni1  1  0.00512323  0.49997958  0.49968466  1
  Ni  Ni2  1  0.50420808  0.99869734  0.49874598  1
  Ni  Ni3  1  0.50202294  0.49947304  0.00177686  1
  Ni  Ni4  1  0.50400456  0.50025894  0.49844389  1
  Ni  Ni5  1  0.25570246  0.25397344  0.00191562  1
  Ni  Ni6  1  0.25493113  0.24888022  0.49930594  1
  Ni  Ni7  1  0.25327610  0.74954324  0.00299919  1
  Ni  Ni8  1  0.25557695  0.74968587  0.49931739  1
  Ni  Ni9  1  0.75144903  0.25226314  0.00042697  1
  Ni  Ni10  1  0.75381269  0.25002054  0.49905743  1
  Ni  Ni11  1  0.75307206  0.74894691  0.49828500  1
  Ni  Ni12  1  0.10809420  0.09612885  0.25117727  1
  Ni  Ni13  1  0.10914950  0.09599781  0.75149441  1
  Ni  Ni14  1  0.11042982  0.59995841  0.25028414  1
  Ni  Ni15  1  0.10921922  0.59989168  0.75118598  1
  Ni  Ni16  1  0.60819678  0.09526059  0.24939210  1
  Ni  Ni17  1  0.60631313  0.09649031  0.74952251  1
  Ni  Ni18  1  0.60588120  0.59873760  0.24965276  1
  Ni  Ni19  1  0.60902223  0.60142643  0.75084822  1
  Ni  Ni20  1  0.35708142  0.40292467  0.24763078  1
  Ni  Ni21  1  0.35952539  0.40373224  0.74929761  1
  Ni  Ni22  1  0.35568023  0.90135480  0.24976556  1
  Ni  Ni23  1  0.36131005  0.90062607  0.74878415  1
  Ni  Ni24  1  0.85676440  0.40054022  0.24853995  1
  Ni  Ni25  1  0.85493672  0.40417434  0.74949737  1
  Ni  Ni26  1  0.85934031  0.90105555  0.24778438  1
  Ni  Ni27  1  0.85544853  0.89846445  0.74769816  1
  Ag  Ag0  1  0.99870945  0.00209496  0.00228780  1
  Ag  Ag1  1  0.00280626  0.49903559  0.00123964  1
  Ag  Ag2  1  0.49626059  0.00260527  0.00242681  1
  Ag  Ag3  1  0.74650372  0.74644267  0.00258089  1
  O  O0  1  0.12020439  0.11585674  0.48145777  1
  O  O1  1  0.11785616  0.12530586  0.97940315  1
  O  O2  1  0.11930435  0.61897388  0.48293982  1
  O  O3  1  0.10995769  0.62481407  0.97314647  1
  O  O4  1  0.61682421  0.11870165  0.48156242  1
  O  O5  1  0.61569809  0.12507475  0.98069078  1
  O  O6  1  0.61278229  0.62093124  0.47885691  1
  O  O7  1  0.59820853  0.60623602  0.96641771  1
  O  O8  1  0.14878904  0.38476651  0.03860693  1
  O  O9  1  0.13656917  0.38166615  0.51895877  1
  O  O10  1  0.14018123  0.88008594  0.02869669  1
  O  O11  1  0.13638733  0.88090109  0.51641032  1
  O  O12  1  0.63524519  0.38377861  0.02308213  1
  O  O13  1  0.63621142  0.38316752  0.51699761  1
  O  O14  1  0.63439401  0.88613220  0.03709328  1
  O  O15  1  0.63190965  0.87726567  0.51673082  1
  O  O16  1  0.36388268  0.10704316  0.47868798  1
  O  O17  1  0.34911225  0.10977420  0.96920201  1
  O  O18  1  0.37043491  0.61526794  0.47957345  1
  O  O19  1  0.36769832  0.61478675  0.98483916  1
  O  O20  1  0.86872481  0.11371087  0.48234267  1
  O  O21  1  0.84762579  0.10769450  0.97088334  1
  O  O22  1  0.86814040  0.61280333  0.48142059  1
  O  O23  1  0.85098379  0.59814344  0.96257280  1
  O  O24  1  0.38774918  0.39166935  0.02489352  1
  O  O25  1  0.38610683  0.38618995  0.51679134  1
  O  O26  1  0.37967679  0.88762536  0.02804158  1
  O  O27  1  0.38893274  0.88302814  0.51626487  1
  O  O28  1  0.88276612  0.39028866  0.02976253  1
  O  O29  1  0.88610561  0.38701284  0.51729462  1
  O  O30  1  0.88497064  0.89235856  0.03295622  1
  O  O31  1  0.88533335  0.88594028  0.51610361  1
  O  O32  1  0.12845392  0.13744611  0.15792495  1
  O  O33  1  0.08458665  0.10659799  0.63866061  1
  O  O34  1  0.13462281  0.63474630  0.15687982  1
  O  O35  1  0.08304487  0.61102870  0.63862155  1
  O  O36  1  0.62616668  0.14049869  0.15786331  1
  O  O37  1  0.58480877  0.10800626  0.63738153  1
  O  O38  1  0.59671735  0.61280723  0.13851331  1
  O  O39  1  0.57785444  0.60899498  0.63536879  1
  O  O40  1  0.44283925  0.38987994  0.36043537  1
  O  O41  1  0.44959314  0.38951989  0.86078075  1
  O  O42  1  0.44598836  0.89003382  0.36176972  1
  O  O43  1  0.47072054  0.86338371  0.84664113  1
  O  O44  1  0.94492307  0.39161443  0.36164679  1
  O  O45  1  0.96390758  0.36571216  0.84462224  1
  O  O46  1  0.95338816  0.89541860  0.36243337  1
  O  O47  1  0.97591131  0.87076210  0.84403700  1
  O  O48  1  0.35918636  0.27558536  0.13983340  1
  O  O49  1  0.33675274  0.28023091  0.63697044  1
  O  O50  1  0.34841117  0.77627422  0.14024880  1
  O  O51  1  0.33997559  0.78062448  0.63459969  1
  O  O52  1  0.85095419  0.27726896  0.13798984  1
  O  O53  1  0.82677885  0.28123452  0.63465458  1
  O  O54  1  0.87968963  0.76122163  0.15510417  1
  O  O55  1  0.82584555  0.77751157  0.63296358  1
  O  O56  1  0.19301798  0.22093158  0.36494680  1
  O  O57  1  0.19992451  0.22470469  0.86266335  1
  O  O58  1  0.19997739  0.72290985  0.36448827  1
  O  O59  1  0.21504118  0.72270751  0.86278965  1
  O  O60  1  0.69311444  0.21890722  0.36386676  1
  O  O61  1  0.69541677  0.22558869  0.86162686  1
  O  O62  1  0.69778366  0.72069776  0.36160392  1
  O  O63  1  0.72761806  0.73367090  0.84438196  1
  O  O64  1  0.42227747  0.06272091  0.24555012  1
  O  O65  1  0.42408831  0.06619704  0.74948448  1
  O  O66  1  0.42484371  0.57120305  0.25270024  1
  O  O67  1  0.42646121  0.56930119  0.75378936  1
  O  O68  1  0.92072452  0.06585497  0.24446437  1
  O  O69  1  0.92444840  0.06128805  0.74789701  1
  O  O70  1  0.92398450  0.56293188  0.24772411  1
  O  O71  1  0.92809576  0.56828113  0.75341137  1
  O  O72  1  0.17268624  0.43302920  0.24705580  1
  O  O73  1  0.17778945  0.43593590  0.74893457  1
  O  O74  1  0.17372309  0.93237100  0.25283164  1
  O  O75  1  0.18089518  0.93334407  0.75427168  1
  O  O76  1  0.67265117  0.43475134  0.24594459  1
  O  O77  1  0.67136183  0.43483848  0.75348856  1
  O  O78  1  0.67171404  0.92770832  0.24614364  1
  O  O79  1  0.67098960  0.93119015  0.74706611  1
loop_
_geom_bond_atom_site_label_1
_geom_bond_atom_site_label_2
_geom_bond_distance
_geom_bond_site_symmetry_2
La0 O65 2.397524 1_555
La0 O49 2.398101 1_555
La0 O27 2.512893 1_545
La0 O11 2.513267 1_545
La0 O33 2.680043 1_555
La0 O16 2.736469 1_555
La0 O0 2.756374 1_555
La0 O37 2.962241 1_555
La1 O51 2.382111 1_555
La1 O67 2.419832 1_555
La1 O25 2.498531 1_555
La1 O9 2.550005 1_555
La1 O35 2.710110 1_555
La1 O2 2.791105 1_555
La1 O18 2.814211 1_555
La1 O39 2.869275 1_555
La2 O69 2.391221 1_555
La2 O53 2.398668 1_555
La2 O31 2.503647 1_545
La2 O15 2.564146 1_545
La2 O37 2.637176 1_555
La2 O20 2.758045 1_555
La2 O4 2.779546 1_555
La2 O33 2.979162 1_655
La3 O55 2.356992 1_555
La3 O71 2.420985 1_555
La3 O29 2.508717 1_555
La3 O13 2.518661 1_555
La3 O39 2.698793 1_555
La3 O22 2.789563 1_555
La3 O6 2.873866 1_555
La3 O35 2.958722 1_655
La4 O56 2.373009 1_555
La4 O72 2.403442 1_555
La4 O18 2.513297 1_555
La4 O2 2.536967 1_555
La4 O44 2.694174 1_455
La4 O25 2.760772 1_555
La4 O9 2.823349 1_555
La4 O40 2.914488 1_555
La5 O57 2.357032 1_555
La5 O73 2.378024 1_555
La5 O45 2.450783 1_455
La5 O3 2.523115 1_555
La5 O19 2.529165 1_555
La5 O24 2.886737 1_556
La6 O60 2.387578 1_555
La6 O76 2.435511 1_555
La6 O22 2.509892 1_555
La6 O6 2.544600 1_555
La6 O40 2.681739 1_555
La6 O13 2.767180 1_555
La6 O29 2.777702 1_555
La6 O44 2.956961 1_555
La7 O62 2.368149 1_555
La7 O78 2.398304 1_555
La7 O4 2.522352 1_565
La7 O20 2.527831 1_565
La7 O42 2.643504 1_555
La7 O31 2.776897 1_555
La7 O15 2.822219 1_555
La7 O46 3.046843 1_555
La8 O73 2.393341 1_555
La8 O33 2.402439 1_555
La8 O9 2.492928 1_555
La8 O29 2.533106 1_455
La8 O53 2.706434 1_455
La8 O20 2.755803 1_455
La8 O0 2.774412 1_555
La8 O49 2.999792 1_555
La9 O35 2.366911 1_555
La9 O75 2.432422 1_555
La9 O11 2.531953 1_555
La9 O31 2.533252 1_455
La9 O55 2.695499 1_455
La9 O2 2.764092 1_555
La9 O22 2.785357 1_455
La9 O51 3.052636 1_555
La10 O37 2.383662 1_555
La10 O77 2.410519 1_555
La10 O13 2.518469 1_555
La10 O25 2.540355 1_555
La10 O49 2.639574 1_555
La10 O4 2.739344 1_555
La10 O16 2.860683 1_555
La10 O53 2.876921 1_555
La11 O40 2.374325 1_555
La11 O64 2.408417 1_555
La11 O4 2.508698 1_555
La11 O16 2.559462 1_555
La11 O56 2.693719 1_555
La11 O25 2.777929 1_555
La11 O13 2.793239 1_555
La11 O60 2.915412 1_555
La12 O41 2.356204 1_555
La12 O65 2.382236 1_555
La12 O17 2.471192 1_555
La12 O5 2.474948 1_555
La12 O57 2.581026 1_555
La12 O12 2.820316 1_556
La12 O24 2.844533 1_556
La12 O61 3.007360 1_555
La13 O44 2.385334 1_555
La13 O68 2.409314 1_555
La13 O0 2.530685 1_655
La13 O20 2.547344 1_555
La13 O60 2.711109 1_555
La13 O9 2.782402 1_655
La13 O29 2.795456 1_555
La13 O56 2.886302 1_655
La14 O45 2.301962 1_555
La14 O69 2.363081 1_555
La14 O1 2.467209 1_655
La14 O21 2.536269 1_555
La14 O61 2.651202 1_555
La14 O28 2.982425 1_556
La14 O57 3.021235 1_655
La14 O8 3.040456 1_656
La15 O46 2.398006 1_555
La15 O70 2.408853 1_555
La15 O2 2.525678 1_655
La15 O22 2.555995 1_555
La15 O62 2.660440 1_555
La15 O11 2.731948 1_655
La15 O31 2.753434 1_555
La15 O58 2.962686 1_655
Ni0 O0 2.005189 1_565
Ni0 O20 2.009381 1_465
Ni0 O11 2.014430 1_555
Ni0 O31 2.016390 1_455
Ni0 O46 2.171172 1_455
Ni0 O33 2.220227 1_565
Ni1 O22 2.009416 1_455
Ni1 O29 2.009461 1_455
Ni1 O2 2.013866 1_555
Ni1 O9 2.015742 1_555
Ni1 O44 2.197578 1_455
Ni1 O35 2.216888 1_555
Ni2 O27 2.002052 1_555
Ni2 O16 2.004397 1_565
Ni2 O15 2.011320 1_555
Ni2 O4 2.015281 1_565
Ni2 O42 2.184068 1_555
Ni2 O37 2.210161 1_565
Ni3 O7 1.986823 1_554
Ni3 O24 1.988649 1_555
Ni3 O19 2.005999 1_554
Ni3 O12 2.013095 1_555
Ni3 O38 2.209776 1_555
Ni3 O41 2.249351 1_554
Ni4 O18 2.002817 1_555
Ni4 O13 2.009027 1_555
Ni4 O25 2.017232 1_555
Ni4 O6 2.017657 1_555
Ni4 O39 2.181884 1_555
Ni4 O40 2.201489 1_555
Ni5 O17 1.967237 1_554
Ni5 O8 1.971698 1_555
Ni5 O1 1.975158 1_554
Ni5 O24 2.002292 1_555
Ni5 O57 2.227814 1_554
Ni5 O48 2.254496 1_555
Ni6 O0 2.011628 1_555
Ni6 O9 2.019382 1_555
Ni6 O25 2.022783 1_555
Ni6 O16 2.026775 1_555
Ni6 O56 2.146170 1_555
Ni6 O49 2.196645 1_555
Ni7 O3 1.954452 1_554
Ni7 O26 1.954631 1_555
Ni7 O10 1.976238 1_555
Ni7 O19 2.002830 1_554
Ni7 O50 2.216196 1_555
Ni7 O59 2.271541 1_554
Ni8 O18 2.006177 1_555
Ni8 O11 2.008146 1_555
Ni8 O27 2.009117 1_555
Ni8 O2 2.013354 1_555
Ni8 O58 2.159908 1_555
Ni8 O51 2.161727 1_555
Ni9 O5 1.961811 1_554
Ni9 O28 1.970127 1_555
Ni9 O21 1.980273 1_554
Ni9 O12 1.999529 1_555
Ni9 O61 2.226650 1_554
Ni9 O52 2.232521 1_555
Ni10 O13 2.013174 1_555
Ni10 O4 2.017186 1_555
Ni10 O20 2.017193 1_555
Ni10 O29 2.023999 1_555
Ni10 O60 2.152739 1_555
Ni10 O53 2.158864 1_555
Ni11 O15 2.003094 1_555
Ni11 O6 2.005742 1_555
Ni11 O22 2.017171 1_555
Ni11 O31 2.026198 1_555
Ni11 O55 2.150182 1_555
Ni11 O62 2.187487 1_555
Ni12 O32 1.924028 1_555
Ni12 O56 1.958695 1_555
Ni12 O74 2.024678 1_545
Ni12 O68 2.054486 1_455
Ni13 O33 1.956821 1_555
Ni13 O57 1.961277 1_555
Ni13 O75 2.041588 1_545
Ni13 O69 2.052182 1_455
Ni14 O34 1.904547 1_555
Ni14 O58 1.963994 1_555
Ni14 O72 2.028886 1_555
Ni14 O70 2.082564 1_455
Ni15 O35 1.951569 1_555
Ni15 O59 1.978235 1_555
Ni15 O73 2.025187 1_555
Ni15 O71 2.043990 1_455
Ni16 O36 1.909491 1_555
Ni16 O60 1.961257 1_555
Ni16 O78 2.040368 1_545
Ni16 O64 2.059422 1_555
Ni17 O37 1.955309 1_555
Ni17 O61 1.969198 1_555
Ni17 O79 2.023181 1_545
Ni17 O65 2.038333 1_555
Ni18 O62 1.940482 1_555
Ni18 O38 1.980522 1_555
Ni18 O76 2.013668 1_555
Ni18 O66 2.040310 1_555
Ni19 O63 1.926175 1_555
Ni19 O39 1.977021 1_555
Ni19 O77 2.046917 1_555
Ni19 O67 2.065520 1_555
Ni20 O40 1.963978 1_555
Ni20 O48 1.972924 1_555
Ni20 O66 2.042393 1_555
Ni20 O72 2.057804 1_555
Ni21 O49 1.943991 1_555
Ni21 O41 1.957844 1_555
Ni21 O67 2.013944 1_555
Ni21 O73 2.034101 1_555
Ni22 O42 1.952633 1_555
Ni22 O50 1.954076 1_555
Ni22 O64 2.032329 1_565
Ni22 O74 2.049696 1_555
Ni23 O43 1.943941 1_555
Ni23 O51 1.955843 1_555
Ni23 O65 2.024895 1_565
Ni23 O75 2.048122 1_555
Ni24 O44 1.954113 1_555
Ni24 O52 1.963276 1_555
Ni24 O70 2.019377 1_555
Ni24 O76 2.055069 1_555
Ni25 O45 1.913232 1_555
Ni25 O53 1.963436 1_555
Ni25 O71 2.027885 1_555
Ni25 O77 2.071134 1_555
Ni26 O54 1.938116 1_555
Ni26 O46 1.975696 1_555
Ni26 O68 2.041617 1_565
Ni26 O78 2.081995 1_555
Ni27 O47 1.916814 1_555
Ni27 O55 1.950990 1_555
Ni27 O69 2.023689 1_565
Ni27 O79 2.063541 1_555
Ag0 O30 2.083561 1_545
Ag0 O21 2.102609 1_554
Ag0 O10 2.143534 1_645
Ag0 O1 2.148872 1_654
Ag0 O32 2.576329 1_655
Ag0 O47 2.607943 1_544
Ag1 O23 2.088685 1_454
Ag1 O28 2.099801 1_455
Ag1 O3 2.141230 1_554
Ag1 O8 2.158453 1_555
Ag1 O45 2.553736 1_454
Ag1 O34 2.582637 1_555
Ag2 O26 2.091074 1_545
Ag2 O17 2.091584 1_554
Ag2 O14 2.108373 1_545
Ag2 O5 2.132838 1_554
Ag2 O36 2.581860 1_555
Ag2 O43 2.587569 1_544
Ag3 O14 2.070494 1_555
Ag3 O30 2.082876 1_555
Ag3 O7 2.087176 1_554
Ag3 O23 2.104336 1_554
Ag3 O54 2.564276 1_555
Ag3 O63 2.669163 1_554
O0 Sm4 2.491120 1_545
O1 Sm5 2.542863 1_545
O1 Sm8 2.815422 1_556
O1 Sm0 2.820495 1_556
O3 Sm15 2.406032 1_455
O3 Sm9 2.850137 1_556
O3 Sm1 3.036579 1_556
O5 Sm7 2.589128 1_545
O5 Sm2 2.773668 1_556
O5 Sm10 2.777332 1_556
O6 Sm13 2.449161 1_555
O6 Sm12 2.693566 1_555
O7 Sm6 2.371857 1_555
O7 Sm14 2.393883 1_555
O7 Sm11 2.983229 1_556
O8 Sm8 2.367693 1_555
O8 Sm1 2.424676 1_555
O10 Sm9 2.461278 1_555
O10 Sm0 2.480790 1_565
O10 Sm15 2.860289 1_454
O10 Sm5 2.937018 1_554
O11 Sm4 2.740966 1_555
O12 Sm3 2.437044 1_555
O12 Sm10 2.459136 1_555
O12 Sm6 2.815420 1_554
O14 Sm11 2.390691 1_555
O14 Sm2 2.463498 1_565
O14 Sm14 2.992797 1_554
O15 Sm12 2.455424 1_555
O15 Sm13 2.678740 1_555
O16 Sm4 2.440172 1_545
O17 Sm5 2.400804 1_545
O17 Sm0 2.929583 1_556
O18 Sm13 2.450714 1_555
O18 Sm12 2.714113 1_555
O19 Sm14 2.498080 1_555
O19 Sm11 2.670315 1_556
O19 Sm1 2.801828 1_556
O21 Sm7 2.432797 1_545
O21 Sm2 2.864678 1_556
O21 Sm8 3.002779 1_656
O23 Sm6 2.371629 1_555
O23 Sm15 2.512277 1_555
O24 Sm1 2.457389 1_555
O24 Sm10 2.468534 1_555
O26 Sm11 2.429744 1_555
O26 Sm0 2.470399 1_565
O26 Sm5 2.895175 1_554
O26 Sm14 2.900495 1_554
O27 Sm12 2.488424 1_555
O27 Sm13 2.652290 1_555
O27 Sm4 2.773851 1_555
O28 Sm3 2.411252 1_555
O28 Sm8 2.479415 1_655
O28 Sm6 2.967156 1_554
O30 Sm2 2.459105 1_565
O30 Sm9 2.528811 1_655
O32 Sm0 2.289000 1_555
O32 Sm8 2.292147 1_555
O34 Sm9 2.262026 1_555
O34 Sm1 2.298146 1_555
O36 Sm10 2.295292 1_555
O36 Sm2 2.295589 1_555
O38 Sm11 2.326178 1_555
O38 Sm3 2.422936 1_555
O39 Sm12 2.330772 1_555
O41 Sm6 2.464875 1_555
O42 Sm13 2.335129 1_555
O42 Sm4 2.967309 1_555
O43 Sm7 2.297919 1_555
O43 Sm14 2.317271 1_555
O46 Sm4 2.569638 1_655
O47 Sm5 2.265113 1_655
O47 Sm15 2.318772 1_555
O48 Sm0 2.331479 1_555
O48 Sm10 2.377752 1_555
O50 Sm1 2.339599 1_555
O50 Sm11 2.343651 1_555
O51 Sm12 2.571160 1_555
O52 Sm2 2.311898 1_555
O52 Sm8 2.421948 1_655
O54 Sm3 2.285867 1_555
O54 Sm9 2.338369 1_655
O55 Sm12 2.896103 1_555
O58 Sm4 2.325017 1_555
O58 Sm13 2.596410 1_555
O59 Sm14 2.345033 1_555
O59 Sm5 2.354094 1_555
O61 Sm6 2.304242 1_555
O62 Sm13 3.020019 1_555
O63 Sm7 2.263272 1_555
O63 Sm15 2.304303 1_555
O64 Sm0 2.325737 1_555
O66 Sm1 2.319681 1_555
O66 Sm13 2.370423 1_555
O67 Sm14 2.306782 1_555
O68 Sm2 2.326491 1_555
O70 Sm3 2.288176 1_555
O71 Sm15 2.309804 1_555
O72 Sm8 2.290641 1_555
O74 Sm9 2.317987 1_555
O74 Sm4 2.337579 1_555
O75 Sm5 2.313893 1_555
O76 Sm10 2.296966 1_555
O77 Sm6 2.319214 1_555
O78 Sm11 2.334040 1_555
O79 Sm7 2.309319 1_555
O79 Sm12 2.382393 1_555
