# generated using pymatgen
data_HgBr3NO
_symmetry_space_group_name_H-M   'P 1'
_cell_length_a   18.61520418
_cell_length_b   18.61520418
_cell_length_c   25.41287800
_cell_angle_alpha   90.00000000
_cell_angle_beta   90.00000000
_cell_angle_gamma   161.92718476
_symmetry_Int_Tables_number   1
_chemical_formula_structural   HgBr3NO
_chemical_formula_sum   'Hg16 Br48 N16 O16'
_cell_volume   2731.91275945
_cell_formula_units_Z   16
loop_
 _symmetry_equiv_pos_site_id
 _symmetry_equiv_pos_as_xyz
  1  'x, y, z'
loop_
 _atom_site_type_symbol
 _atom_site_label
 _atom_site_symmetry_multiplicity
 _atom_site_fract_x
 _atom_site_fract_y
 _atom_site_fract_z
 _atom_site_occupancy
  Hg  Hg0_0  1  0.24822300  0.25177700  0.21683400  1
  Hg  Hg0_1  1  0.24822300  0.25177700  0.71683400  1
  Hg  Hg0_2  1  0.24822300  0.75177700  0.21683400  1
  Hg  Hg0_3  1  0.24822300  0.75177700  0.71683400  1
  Hg  Hg0_4  1  0.74822300  0.25177700  0.21683400  1
  Hg  Hg0_5  1  0.74822300  0.25177700  0.71683400  1
  Hg  Hg0_6  1  0.74822300  0.75177700  0.21683400  1
  Hg  Hg0_7  1  0.74822300  0.75177700  0.71683400  1
  Hg  Hg1_0  1  0.25177700  0.24822300  0.46683400  1
  Hg  Hg1_1  1  0.25177700  0.24822300  0.96683400  1
  Hg  Hg1_2  1  0.25177700  0.74822300  0.46683400  1
  Hg  Hg1_3  1  0.25177700  0.74822300  0.96683400  1
  Hg  Hg1_4  1  0.75177700  0.24822300  0.46683400  1
  Hg  Hg1_5  1  0.75177700  0.24822300  0.96683400  1
  Hg  Hg1_6  1  0.75177700  0.74822300  0.46683400  1
  Hg  Hg1_7  1  0.75177700  0.74822300  0.96683400  1
  Br  Br0_0  1  0.49431900  0.00568100  0.31963250  1
  Br  Br0_1  1  0.49431900  0.00568100  0.81963250  1
  Br  Br0_2  1  0.49431900  0.50568100  0.31963250  1
  Br  Br0_3  1  0.49431900  0.50568100  0.81963250  1
  Br  Br0_4  1  0.99431900  0.00568100  0.31963250  1
  Br  Br0_5  1  0.99431900  0.00568100  0.81963250  1
  Br  Br0_6  1  0.99431900  0.50568100  0.31963250  1
  Br  Br0_7  1  0.99431900  0.50568100  0.81963250  1
  Br  Br1_0  1  0.00568100  0.49431900  0.06963250  1
  Br  Br1_1  1  0.00568100  0.49431900  0.56963250  1
  Br  Br1_2  1  0.00568100  0.99431900  0.06963250  1
  Br  Br1_3  1  0.00568100  0.99431900  0.56963250  1
  Br  Br1_4  1  0.50568100  0.49431900  0.06963250  1
  Br  Br1_5  1  0.50568100  0.49431900  0.56963250  1
  Br  Br1_6  1  0.50568100  0.99431900  0.06963250  1
  Br  Br1_7  1  0.50568100  0.99431900  0.56963250  1
  Br  Br2_0  1  0.31807900  0.18192100  0.20219050  1
  Br  Br2_1  1  0.31807900  0.18192100  0.70219050  1
  Br  Br2_2  1  0.31807900  0.68192100  0.20219050  1
  Br  Br2_3  1  0.31807900  0.68192100  0.70219050  1
  Br  Br2_4  1  0.81807900  0.18192100  0.20219050  1
  Br  Br2_5  1  0.81807900  0.18192100  0.70219050  1
  Br  Br2_6  1  0.81807900  0.68192100  0.20219050  1
  Br  Br2_7  1  0.81807900  0.68192100  0.70219050  1
  Br  Br3_0  1  0.18192100  0.31807900  0.45219050  1
  Br  Br3_1  1  0.18192100  0.31807900  0.95219050  1
  Br  Br3_2  1  0.18192100  0.81807900  0.45219050  1
  Br  Br3_3  1  0.18192100  0.81807900  0.95219050  1
  Br  Br3_4  1  0.68192100  0.31807900  0.45219050  1
  Br  Br3_5  1  0.68192100  0.31807900  0.95219050  1
  Br  Br3_6  1  0.68192100  0.81807900  0.45219050  1
  Br  Br3_7  1  0.68192100  0.81807900  0.95219050  1
  Br  Br4_0  1  0.18074400  0.31925600  0.18655100  1
  Br  Br4_1  1  0.18074400  0.31925600  0.68655100  1
  Br  Br4_2  1  0.18074400  0.81925600  0.18655100  1
  Br  Br4_3  1  0.18074400  0.81925600  0.68655100  1
  Br  Br4_4  1  0.68074400  0.31925600  0.18655100  1
  Br  Br4_5  1  0.68074400  0.31925600  0.68655100  1
  Br  Br4_6  1  0.68074400  0.81925600  0.18655100  1
  Br  Br4_7  1  0.68074400  0.81925600  0.68655100  1
  Br  Br5_0  1  0.31925600  0.18074400  0.43655100  1
  Br  Br5_1  1  0.31925600  0.18074400  0.93655100  1
  Br  Br5_2  1  0.31925600  0.68074400  0.43655100  1
  Br  Br5_3  1  0.31925600  0.68074400  0.93655100  1
  Br  Br5_4  1  0.81925600  0.18074400  0.43655100  1
  Br  Br5_5  1  0.81925600  0.18074400  0.93655100  1
  Br  Br5_6  1  0.81925600  0.68074400  0.43655100  1
  Br  Br5_7  1  0.81925600  0.68074400  0.93655100  1
  N  N0_0  1  0.12739400  0.37260600  0.32861200  1
  N  N0_1  1  0.12739400  0.37260600  0.82861200  1
  N  N0_2  1  0.12739400  0.87260600  0.32861200  1
  N  N0_3  1  0.12739400  0.87260600  0.82861200  1
  N  N0_4  1  0.62739400  0.37260600  0.32861200  1
  N  N0_5  1  0.62739400  0.37260600  0.82861200  1
  N  N0_6  1  0.62739400  0.87260600  0.32861200  1
  N  N0_7  1  0.62739400  0.87260600  0.82861200  1
  N  N1_0  1  0.37260600  0.12739400  0.07861200  1
  N  N1_1  1  0.37260600  0.12739400  0.57861200  1
  N  N1_2  1  0.37260600  0.62739400  0.07861200  1
  N  N1_3  1  0.37260600  0.62739400  0.57861200  1
  N  N1_4  1  0.87260600  0.12739400  0.07861200  1
  N  N1_5  1  0.87260600  0.12739400  0.57861200  1
  N  N1_6  1  0.87260600  0.62739400  0.07861200  1
  N  N1_7  1  0.87260600  0.62739400  0.57861200  1
  O  O0_0  1  0.38381600  0.11618400  0.31903050  1
  O  O0_1  1  0.38381600  0.11618400  0.81903050  1
  O  O0_2  1  0.38381600  0.61618400  0.31903050  1
  O  O0_3  1  0.38381600  0.61618400  0.81903050  1
  O  O0_4  1  0.88381600  0.11618400  0.31903050  1
  O  O0_5  1  0.88381600  0.11618400  0.81903050  1
  O  O0_6  1  0.88381600  0.61618400  0.31903050  1
  O  O0_7  1  0.88381600  0.61618400  0.81903050  1
  O  O1_0  1  0.11618400  0.38381600  0.06903050  1
  O  O1_1  1  0.11618400  0.38381600  0.56903050  1
  O  O1_2  1  0.11618400  0.88381600  0.06903050  1
  O  O1_3  1  0.11618400  0.88381600  0.56903050  1
  O  O1_4  1  0.61618400  0.38381600  0.06903050  1
  O  O1_5  1  0.61618400  0.38381600  0.56903050  1
  O  O1_6  1  0.61618400  0.88381600  0.06903050  1
  O  O1_7  1  0.61618400  0.88381600  0.56903050  1
loop_
_geom_bond_atom_site_label_1
_geom_bond_atom_site_label_2
_geom_bond_distance
_geom_bond_site_symmetry_2
Br0_0 Br0_6 2.923742 1_445
Br0_0 Br0_6 2.923742 1_555
Br0_0 Hg0_2 2.997054 1_545
Br0_0 Hg0_4 2.997054 1_555
Br0_1 Br0_7 2.923742 1_555
Br0_1 Br0_7 2.923742 1_445
Br0_1 Hg0_5 2.997054 1_555
Br0_1 Hg0_3 2.997054 1_545
Br0_2 Br0_4 2.923742 1_455
Br0_2 Br0_4 2.923742 1_565
Br0_2 Hg0_6 2.997054 1_555
Br0_2 Hg0_0 2.997054 1_555
Br0_3 Br0_5 2.923742 1_565
Br0_3 Br0_5 2.923742 1_455
Br0_3 Hg0_7 2.997054 1_555
Br0_3 Hg0_1 2.997054 1_555
Br0_4 Hg0_6 2.997054 1_545
Br0_4 Hg0_0 2.997054 1_655
Br0_5 Hg0_7 2.997054 1_545
Br0_5 Hg0_1 2.997054 1_655
Br0_6 Hg0_2 2.997054 1_655
Br0_6 Hg0_4 2.997054 1_555
Br0_7 Hg0_5 2.997054 1_555
Br0_7 Hg0_3 2.997054 1_655
Br1_0 Br1_6 2.923742 1_555
Br1_0 Br1_6 2.923742 1_445
Br1_0 Hg1_3 2.997054 1_554
Br1_0 Hg1_5 2.997054 1_454
Br1_1 Br1_7 2.923742 1_445
Br1_1 Br1_7 2.923742 1_555
Br1_1 Hg1_2 2.997054 1_555
Br1_1 Hg1_4 2.997054 1_455
Br1_2 Br1_4 2.923742 1_565
Br1_2 Br1_4 2.923742 1_455
Br1_2 Hg1_1 2.997054 1_564
Br1_2 Hg1_7 2.997054 1_454
Br1_3 Br1_5 2.923742 1_565
Br1_3 Br1_5 2.923742 1_455
Br1_3 Hg1_0 2.997054 1_565
Br1_3 Hg1_6 2.997054 1_455
Br1_4 Hg1_1 2.997054 1_554
Br1_4 Hg1_7 2.997054 1_554
Br1_5 Hg1_0 2.997054 1_555
Br1_5 Hg1_6 2.997054 1_555
Br1_6 Hg1_3 2.997054 1_554
Br1_6 Hg1_5 2.997054 1_564
Br1_7 Hg1_2 2.997054 1_555
Br1_7 Hg1_4 2.997054 1_565
Br2_0 Hg0_0 2.595307 1_555
Br2_1 Hg0_1 2.595307 1_555
Br2_2 Hg0_2 2.595307 1_555
Br2_3 Hg0_3 2.595307 1_555
Br2_4 Hg0_4 2.595307 1_555
Br2_5 Hg0_5 2.595307 1_555
Br2_6 Hg0_6 2.595307 1_555
Br2_7 Hg0_7 2.595307 1_555
Br3_0 Hg1_0 2.595307 1_555
Br3_1 Hg1_1 2.595307 1_555
Br3_2 Hg1_2 2.595307 1_555
Br3_3 Hg1_3 2.595307 1_555
Br3_4 Hg1_4 2.595307 1_555
Br3_5 Hg1_5 2.595307 1_555
Br3_6 Hg1_6 2.595307 1_555
Br3_7 Hg1_7 2.595307 1_555
Br4_0 Hg0_0 2.597703 1_555
Br4_1 Hg0_1 2.597703 1_555
Br4_2 Hg0_2 2.597703 1_555
Br4_3 Hg0_3 2.597703 1_555
Br4_4 Hg0_4 2.597703 1_555
Br4_5 Hg0_5 2.597703 1_555
Br4_6 Hg0_6 2.597703 1_555
Br4_7 Hg0_7 2.597703 1_555
Br5_0 Hg1_0 2.597703 1_555
Br5_1 Hg1_1 2.597703 1_555
Br5_2 Hg1_2 2.597703 1_555
Br5_3 Hg1_3 2.597703 1_555
Br5_4 Hg1_4 2.597703 1_555
Br5_5 Hg1_5 2.597703 1_555
Br5_6 Hg1_6 2.597703 1_555
Br5_7 Hg1_7 2.597703 1_555
N0_0 O0_2 1.500704 1_555
N0_0 O0_4 1.500704 1_455
N0_1 O0_3 1.500704 1_555
N0_1 O0_5 1.500704 1_455
N0_2 O0_0 1.500704 1_565
N0_2 O0_6 1.500704 1_455
N0_3 O0_1 1.500704 1_565
N0_3 O0_7 1.500704 1_455
N0_4 O0_0 1.500704 1_555
N0_4 O0_6 1.500704 1_555
N0_5 O0_1 1.500704 1_555
N0_5 O0_7 1.500704 1_555
N0_6 O0_2 1.500704 1_555
N0_6 O0_4 1.500704 1_565
N0_7 O0_3 1.500704 1_555
N0_7 O0_5 1.500704 1_565
N1_0 O1_4 1.500704 1_555
N1_0 O1_2 1.500704 1_545
N1_1 O1_5 1.500704 1_555
N1_1 O1_3 1.500704 1_545
N1_2 O1_0 1.500704 1_555
N1_2 O1_6 1.500704 1_555
N1_3 O1_1 1.500704 1_555
N1_3 O1_7 1.500704 1_555
N1_4 O1_0 1.500704 1_655
N1_4 O1_6 1.500704 1_545
N1_5 O1_1 1.500704 1_655
N1_5 O1_7 1.500704 1_545
N1_6 O1_4 1.500704 1_555
N1_6 O1_2 1.500704 1_655
N1_7 O1_3 1.500704 1_655
N1_7 O1_5 1.500704 1_555
