# generated using pymatgen
data_Li7Mn4CoO12
_symmetry_space_group_name_H-M   'P 1'
_cell_length_a   2.94580290
_cell_length_b   15.28901045
_cell_length_c   9.84020381
_cell_angle_alpha   101.09532721
_cell_angle_beta   92.31032161
_cell_angle_gamma   89.09442216
_symmetry_Int_Tables_number   1
_chemical_formula_structural   Li7Mn4CoO12
_chemical_formula_sum   'Li14 Mn8 Co2 O24'
_cell_volume   434.53510628
_cell_formula_units_Z   2
loop_
 _symmetry_equiv_pos_site_id
 _symmetry_equiv_pos_as_xyz
  1  'x, y, z'
loop_
 _atom_site_type_symbol
 _atom_site_label
 _atom_site_symmetry_multiplicity
 _atom_site_fract_x
 _atom_site_fract_y
 _atom_site_fract_z
 _atom_site_occupancy
  Li  Li0  1  0.99997100  0.41661500  0.74984000  1
  Li  Li1  1  0.00021400  0.91647200  0.25004400  1
  Li  Li2  1  0.50003400  0.16663600  0.99999200  1
  Li  Li3  1  0.49989800  0.66685100  0.49966200  1
  Li  Li4  1  0.49874500  0.41728300  0.24897200  1
  Li  Li5  1  0.50123600  0.91605700  0.75095700  1
  Li  Li6  1  0.47975600  0.49865300  0.00878100  1
  Li  Li7  1  0.48321500  0.99946100  0.50834100  1
  Li  Li8  1  0.51673800  0.33374600  0.49162300  1
  Li  Li9  1  0.51989700  0.83472600  0.99183400  1
  Li  Li10  1  0.99684700  0.26278800  0.26088300  1
  Li  Li11  1  0.98882000  0.76023100  0.76431800  1
  Li  Li12  1  0.00321500  0.07042600  0.73903200  1
  Li  Li13  1  0.01122400  0.57334300  0.23558800  1
  Mn  Mn0  1  0.01927000  0.99654500  0.99199300  1
  Mn  Mn1  1  0.98067200  0.33675400  0.00797600  1
  Mn  Mn2  1  0.48736500  0.24641100  0.75034300  1
  Mn  Mn3  1  0.51265600  0.08690700  0.24962800  1
  Mn  Mn4  1  0.00755000  0.49603700  0.49057200  1
  Mn  Mn5  1  0.99209200  0.83735200  0.50949000  1
  Mn  Mn6  1  0.49733900  0.74771400  0.25121700  1
  Mn  Mn7  1  0.50291600  0.58558500  0.74873700  1
  Co  Co0  1  0.99998000  0.16666700  0.49998900  1
  Co  Co1  1  0.00011300  0.66667500  0.00014000  1
  O  O0  1  0.51755300  0.46769800  0.61505300  1
  O  O1  1  0.53191600  0.96736600  0.11545400  1
  O  O2  1  0.46823500  0.36601000  0.88451200  1
  O  O3  1  0.48180100  0.86577000  0.38520700  1
  O  O4  1  0.95068900  0.21566000  0.87749000  1
  O  O5  1  0.98449200  0.71713100  0.37649600  1
  O  O6  1  0.04936500  0.11771000  0.12252100  1
  O  O7  1  0.01299100  0.61611100  0.62411900  1
  O  O8  1  0.97267600  0.05002300  0.37322900  1
  O  O9  1  0.99527900  0.54311300  0.85640800  1
  O  O10  1  0.02743200  0.28338000  0.62678000  1
  O  O11  1  0.00825300  0.79031300  0.14288900  1
  O  O12  1  0.49741700  0.29726100  0.11043600  1
  O  O13  1  0.50897600  0.79671800  0.60984100  1
  O  O14  1  0.50259200  0.03607800  0.88954900  1
  O  O15  1  0.49028900  0.53665900  0.39038700  1
  O  O16  1  0.45934200  0.12844800  0.62078500  1
  O  O17  1  0.50448600  0.63185000  0.13349100  1
  O  O18  1  0.54070500  0.20493700  0.37919100  1
  O  O19  1  0.49590800  0.70107000  0.86604700  1
  O  O20  1  0.00413800  0.38392500  0.38697300  1
  O  O21  1  0.00785100  0.88366100  0.88874500  1
  O  O22  1  0.99210000  0.44964200  0.11125700  1
  O  O23  1  0.99575400  0.94952700  0.61318000  1
loop_
_geom_bond_atom_site_label_1
_geom_bond_atom_site_label_2
_geom_bond_distance
_geom_bond_site_symmetry_2
Li0 O9 2.014959 1_555
Li0 O2 2.114488 1_655
Li0 O0 2.144836 1_555
Li0 O10 2.162336 1_655
Li0 O0 2.300695 1_655
Li0 O2 2.325647 1_555
Li1 O11 2.012612 1_555
Li1 O1 2.116117 1_455
Li1 O3 2.142995 1_555
Li1 O8 2.166842 1_465
Li1 O3 2.302185 1_455
Li1 O1 2.327048 1_555
Li2 O6 2.069621 1_556
Li2 O4 2.070139 1_555
Li2 O14 2.081063 1_555
Li2 O12 2.081947 1_556
Li2 O6 2.187119 1_656
Li2 O4 2.187646 1_455
Li3 O13 2.071071 1_555
Li3 O15 2.072365 1_555
Li3 O5 2.130345 1_455
Li3 O7 2.136718 1_655
Li3 O5 2.151840 1_555
Li3 O7 2.168277 1_555
Li4 O12 2.064625 1_555
Li4 O15 2.071718 1_555
Li4 O22 2.092917 1_455
Li4 O20 2.097668 1_655
Li4 O22 2.152415 1_555
Li4 O20 2.162550 1_555
Li5 O14 2.064882 1_565
Li5 O13 2.069763 1_555
Li5 O21 2.093532 1_655
Li5 O23 2.096992 1_455
Li5 O21 2.153186 1_555
Li5 O23 2.161452 1_555
Li6 O22 1.997145 1_555
Li6 O22 2.020796 1_455
Li6 O2 2.157206 1_554
Li6 O17 2.166568 1_555
Li6 O9 2.221737 1_454
Li6 O9 2.371692 1_554
Li7 O23 2.016891 1_555
Li7 O23 2.041159 1_455
Li7 O16 2.068911 1_565
Li7 O3 2.166273 1_555
Li7 O8 2.196524 1_465
Li7 O8 2.242667 1_565
Li8 O20 2.017736 1_555
Li8 O20 2.041712 1_655
Li8 O18 2.066568 1_555
Li8 O0 2.170719 1_555
Li8 O10 2.195740 1_655
Li8 O10 2.241260 1_555
Li9 O21 1.999275 1_555
Li9 O21 2.024506 1_655
Li9 O1 2.154727 1_556
Li9 O19 2.176428 1_555
Li9 O11 2.219294 1_656
Li9 O11 2.354486 1_556
Li10 O20 2.021072 1_655
Li10 O18 2.122064 1_555
Li10 O12 2.175812 1_555
Li10 O18 2.214833 1_655
Li10 O12 2.268200 1_655
Li10 O6 2.375165 1_655
Li11 O21 2.042549 1_655
Li11 O19 2.058354 1_655
Li11 O19 2.106128 1_555
Li11 O13 2.179019 1_555
Li11 O13 2.347533 1_655
Li11 O7 2.365692 1_655
Li12 O23 2.017144 1_445
Li12 O16 2.123036 1_555
Li12 O14 2.175501 1_555
Li12 O16 2.215799 1_455
Li12 O14 2.268102 1_455
Li12 O4 2.377503 1_455
Li13 O22 2.045511 1_455
Li13 O17 2.054400 1_455
Li13 O17 2.103691 1_555
Li13 O15 2.181038 1_555
Li13 O15 2.352502 1_455
Li13 O5 2.364688 1_455
Mn0 O21 1.826534 1_555
Mn0 O14 1.944180 1_465
Mn0 O14 1.945785 1_565
Mn0 O1 1.998727 1_556
Mn0 O1 2.026206 1_456
Mn0 O6 2.041949 1_566
Mn1 O22 1.826707 1_555
Mn1 O12 1.944172 1_655
Mn1 O12 1.945473 1_555
Mn1 O2 1.998685 1_554
Mn1 O2 2.027087 1_654
Mn1 O4 2.040897 1_554
Mn2 O4 1.928137 1_555
Mn2 O10 1.934170 1_555
Mn2 O16 1.999034 1_555
Mn2 O2 2.040443 1_555
Mn2 O4 2.166834 1_455
Mn2 O10 2.185818 1_655
Mn3 O6 1.928093 1_555
Mn3 O8 1.934065 1_555
Mn3 O18 1.999858 1_555
Mn3 O1 2.039798 1_545
Mn3 O6 2.166923 1_655
Mn3 O8 2.185373 1_455
Mn4 O20 1.817856 1_555
Mn4 O15 1.938156 1_555
Mn4 O15 1.940117 1_455
Mn4 O0 1.995141 1_555
Mn4 O0 2.034267 1_455
Mn4 O7 2.041593 1_555
Mn5 O23 1.818998 1_555
Mn5 O13 1.940058 1_555
Mn5 O13 1.940227 1_655
Mn5 O3 1.994929 1_555
Mn5 O3 2.032744 1_655
Mn5 O5 2.040772 1_555
Mn6 O17 1.921307 1_555
Mn6 O11 1.936484 1_555
Mn6 O5 1.963609 1_555
Mn6 O3 2.021061 1_555
Mn6 O11 2.062329 1_655
Mn6 O5 2.101202 1_455
Mn7 O19 1.914886 1_555
Mn7 O9 1.938818 1_555
Mn7 O7 1.964876 1_555
Mn7 O0 2.017538 1_555
Mn7 O9 2.050283 1_455
Mn7 O7 2.090525 1_655
Co0 O16 1.923051 1_655
Co0 O18 1.923212 1_555
Co0 O8 1.970541 1_555
Co0 O10 1.971520 1_655
Co0 O16 2.177185 1_555
Co0 O18 2.177692 1_655
Co1 O17 2.073555 1_555
Co1 O19 2.075589 1_454
Co1 O11 2.126897 1_555
Co1 O9 2.130798 1_454
Co1 O17 2.141252 1_455
Co1 O19 2.144164 1_554
