# generated using pymatgen
data_V2MoS4
_symmetry_space_group_name_H-M   'P 1'
_cell_length_a   6.58242426
_cell_length_b   6.58242426
_cell_length_c   5.94336661
_cell_angle_alpha   65.79886650
_cell_angle_beta   65.79886650
_cell_angle_gamma   28.53753351
_symmetry_Int_Tables_number   1
_chemical_formula_structural   V2MoS4
_chemical_formula_sum   'V2 Mo1 S4'
_cell_volume   111.47648809
_cell_formula_units_Z   1
loop_
 _symmetry_equiv_pos_site_id
 _symmetry_equiv_pos_as_xyz
  1  'x, y, z'
loop_
 _atom_site_type_symbol
 _atom_site_label
 _atom_site_symmetry_multiplicity
 _atom_site_fract_x
 _atom_site_fract_y
 _atom_site_fract_z
 _atom_site_occupancy
  V  V0  1  0.00082800  0.00082800  0.99522400  1
  V  V1  1  0.74258000  0.74258000  0.31974500  1
  Mo  Mo0  1  0.25807000  0.25807000  0.68683900  1
  S  S0  1  0.89372400  0.89372400  0.43905800  1
  S  S1  1  0.10821100  0.10821100  0.54773200  1
  S  S2  1  0.36024300  0.36024300  0.98216500  1
  S  S3  1  0.63634400  0.63634400  0.02923800  1
loop_
_geom_bond_atom_site_label_1
_geom_bond_atom_site_label_2
_geom_bond_distance
_geom_bond_site_symmetry_2
Mo0 S0 2.374894 1_545
Mo0 S0 2.374894 1_455
Mo0 S1 2.382567 1_555
Mo0 S3 2.551791 1_456
Mo0 S3 2.551791 1_546
Mo0 S2 2.591505 1_555
S0 V1 2.319148 1_555
S0 V0 2.403376 1_664
S1 V1 2.332816 1_455
S1 V1 2.332816 1_545
S1 V0 2.422392 1_555
S2 V0 2.444013 1_565
S2 V0 2.444013 1_655
S2 V1 2.522534 1_546
S2 V1 2.522534 1_456
S3 V0 2.440931 1_654
S3 V0 2.440931 1_564
S3 V1 2.607326 1_555
