# generated using pymatgen
data_LaMnIn
_symmetry_space_group_name_H-M   'P 1'
_cell_length_a   4.59334075
_cell_length_b   4.59334075
_cell_length_c   4.09655900
_cell_angle_alpha   90.00000000
_cell_angle_beta   90.00000000
_cell_angle_gamma   120.00001087
_symmetry_Int_Tables_number   1
_chemical_formula_structural   LaMnIn
_chemical_formula_sum   'La1 Mn1 In1'
_cell_volume   74.85264088
_cell_formula_units_Z   1
loop_
 _symmetry_equiv_pos_site_id
 _symmetry_equiv_pos_as_xyz
  1  'x, y, z'
loop_
 _atom_site_type_symbol
 _atom_site_label
 _atom_site_symmetry_multiplicity
 _atom_site_fract_x
 _atom_site_fract_y
 _atom_site_fract_z
 _atom_site_occupancy
  La  La0  1  0.00000000  0.00000000  0.00000000  1
  Mn  Mn0  1  0.66666700  0.33333300  0.50000000  1
  In  In0  1  0.33333300  0.66666700  0.50000000  1
loop_
_geom_bond_atom_site_label_1
_geom_bond_atom_site_label_2
_geom_bond_distance
_geom_bond_site_symmetry_2
La0 Mn0 3.350875 1_455
La0 Mn0 3.350875 1_454
La0 Mn0 3.350878 1_444
La0 Mn0 3.350878 1_555
La0 Mn0 3.350878 1_445
La0 Mn0 3.350878 1_554
In0 Mn0 2.651964 1_455
In0 Mn0 2.651964 1_565
In0 Mn0 2.651972 1_555
In0 La0 3.350875 1_566
In0 La0 3.350875 1_565
In0 La0 3.350878 1_555
In0 La0 3.350878 1_556
In0 La0 3.350878 1_665
In0 La0 3.350878 1_666
