# generated using pymatgen
data_SO4
_symmetry_space_group_name_H-M   'P 1'
_cell_length_a   5.35565787
_cell_length_b   5.35565787
_cell_length_c   5.35565787
_cell_angle_alpha   60.00000000
_cell_angle_beta   60.00000000
_cell_angle_gamma   60.00000000
_symmetry_Int_Tables_number   1
_chemical_formula_structural   SO4
_chemical_formula_sum   'S1 O4'
_cell_volume   108.62342188
_cell_formula_units_Z   1
loop_
 _symmetry_equiv_pos_site_id
 _symmetry_equiv_pos_as_xyz
  1  'x, y, z'
loop_
 _atom_site_type_symbol
 _atom_site_label
 _atom_site_symmetry_multiplicity
 _atom_site_fract_x
 _atom_site_fract_y
 _atom_site_fract_z
 _atom_site_occupancy
  S  S0  1  0.00000000  0.00000000  0.00000000  1
  O  O0  1  0.11304400  0.11304400  0.66086800  1
  O  O1  1  0.11304400  0.66086800  0.11304400  1
  O  O2  1  0.66086800  0.11304400  0.11304400  1
  O  O3  1  0.11304400  0.11304400  0.11304400  1
loop_
_geom_bond_atom_site_label_1
_geom_bond_atom_site_label_2
_geom_bond_distance
_geom_bond_site_symmetry_2
O0 S0 1.482982 1_556
O1 S0 1.482982 1_565
O2 S0 1.482982 1_655
O3 S0 1.482982 1_555
