# generated using pymatgen
data_BaNaCuBrO2
_symmetry_space_group_name_H-M   'P 1'
_cell_length_a   3.99314800
_cell_length_b   3.99314800
_cell_length_c   7.32146100
_cell_angle_alpha   90.00000000
_cell_angle_beta   90.00000000
_cell_angle_gamma   90.00000000
_symmetry_Int_Tables_number   1
_chemical_formula_structural   BaNaCuBrO2
_chemical_formula_sum   'Ba1 Na1 Cu1 Br1 O2'
_cell_volume   116.74238654
_cell_formula_units_Z   1
loop_
 _symmetry_equiv_pos_site_id
 _symmetry_equiv_pos_as_xyz
  1  'x, y, z'
loop_
 _atom_site_type_symbol
 _atom_site_label
 _atom_site_symmetry_multiplicity
 _atom_site_fract_x
 _atom_site_fract_y
 _atom_site_fract_z
 _atom_site_occupancy
  Ba  Ba0  1  0.00000000  0.00000000  0.46864400  1
  Na  Na0  1  0.00000000  0.00000000  0.03138400  1
  Cu  Cu0  1  0.50000000  0.50000000  0.21634200  1
  Br  Br0  1  0.50000000  0.50000000  0.75137400  1
  O  O0  1  0.00000000  0.50000000  0.23416800  1
  O  O1  1  0.50000000  0.00000000  0.23416800  1
loop_
_geom_bond_atom_site_label_1
_geom_bond_atom_site_label_2
_geom_bond_distance
_geom_bond_site_symmetry_2
Ba0 O0 2.633133 1_545
Ba0 O1 2.633133 1_455
Ba0 O0 2.633133 1_555
Ba0 O1 2.633133 1_555
Ba0 Br0 3.501072 1_555
Ba0 Br0 3.501072 1_455
Ba0 Br0 3.501072 1_545
Ba0 Br0 3.501072 1_445
Na0 O0 2.488085 1_555
Na0 O1 2.488085 1_455
Na0 O1 2.488085 1_555
Na0 O0 2.488085 1_545
Cu0 O0 2.000835 1_555
Cu0 O1 2.000835 1_555
Cu0 O1 2.000835 1_565
Cu0 O0 2.000835 1_655
Br0 Na0 3.489334 1_566
Br0 Na0 3.489334 1_656
Br0 Na0 3.489334 1_666
Br0 Na0 3.489334 1_556
