# generated using pymatgen
data_Ca3Mg
_symmetry_space_group_name_H-M   'P 1'
_cell_length_a   7.92101884
_cell_length_b   12.08263838
_cell_length_c   12.52168924
_cell_angle_alpha   90.00000000
_cell_angle_beta   90.00000000
_cell_angle_gamma   90.00000000
_symmetry_Int_Tables_number   1
_chemical_formula_structural   Ca3Mg
_chemical_formula_sum   'Ca24 Mg8'
_cell_volume   1198.41088595
_cell_formula_units_Z   8
loop_
 _symmetry_equiv_pos_site_id
 _symmetry_equiv_pos_as_xyz
  1  'x, y, z'
loop_
 _atom_site_type_symbol
 _atom_site_label
 _atom_site_symmetry_multiplicity
 _atom_site_fract_x
 _atom_site_fract_y
 _atom_site_fract_z
 _atom_site_occupancy
  Ca  Ca0_0  1  0.00000000  0.00000000  0.99541267  1
  Ca  Ca0_1  1  0.00000000  0.00000000  0.49541267  1
  Ca  Ca0_2  1  0.00000000  0.50000000  0.99541267  1
  Ca  Ca0_3  1  0.00000000  0.50000000  0.49541267  1
  Ca  Ca0_4  1  0.50000000  0.00000000  0.99541267  1
  Ca  Ca0_5  1  0.50000000  0.00000000  0.49541267  1
  Ca  Ca0_6  1  0.50000000  0.50000000  0.99541267  1
  Ca  Ca0_7  1  0.50000000  0.50000000  0.49541267  1
  Ca  Ca1_0  1  0.25000000  0.00000000  0.23840320  1
  Ca  Ca1_1  1  0.25000000  0.00000000  0.73840319  1
  Ca  Ca1_2  1  0.25000000  0.50000000  0.23840320  1
  Ca  Ca1_3  1  0.25000000  0.50000000  0.73840319  1
  Ca  Ca1_4  1  0.75000000  0.00000000  0.23840320  1
  Ca  Ca1_5  1  0.75000000  0.00000000  0.73840319  1
  Ca  Ca1_6  1  0.75000000  0.50000000  0.23840320  1
  Ca  Ca1_7  1  0.75000000  0.50000000  0.73840319  1
  Ca  Ca2_0  1  0.25000000  0.25000000  0.42764621  1
  Ca  Ca2_1  1  0.25000000  0.25000000  0.92764621  1
  Ca  Ca2_2  1  0.25000000  0.75000000  0.42764621  1
  Ca  Ca2_3  1  0.25000000  0.75000000  0.92764621  1
  Ca  Ca2_4  1  0.75000000  0.25000000  0.42764621  1
  Ca  Ca2_5  1  0.75000000  0.25000000  0.92764621  1
  Ca  Ca2_6  1  0.75000000  0.75000000  0.42764621  1
  Ca  Ca2_7  1  0.75000000  0.75000000  0.92764621  1
  Mg  Mg0_0  1  0.00000000  0.25000000  0.17187142  1
  Mg  Mg0_1  1  0.00000000  0.25000000  0.67187142  1
  Mg  Mg0_2  1  0.00000000  0.75000000  0.17187142  1
  Mg  Mg0_3  1  0.00000000  0.75000000  0.67187142  1
  Mg  Mg0_4  1  0.50000000  0.25000000  0.17187142  1
  Mg  Mg0_5  1  0.50000000  0.25000000  0.67187142  1
  Mg  Mg0_6  1  0.50000000  0.75000000  0.17187142  1
  Mg  Mg0_7  1  0.50000000  0.75000000  0.67187142  1
loop_
_geom_bond_atom_site_label_1
_geom_bond_atom_site_label_2
_geom_bond_distance
_geom_bond_site_symmetry_2
Ca0_0 Ca1_4 3.630308 1_456
Ca0_0 Ca1_0 3.630308 1_556
Ca0_0 Ca2_3 3.710233 1_545
Ca0_0 Ca2_7 3.710233 1_445
Ca0_0 Ca2_1 3.710233 1_555
Ca0_0 Ca2_5 3.710233 1_455
Ca0_0 Mg0_2 3.742532 1_546
Ca0_0 Mg0_0 3.742532 1_556
Ca0_0 Ca1_5 3.778647 1_455
Ca0_0 Ca1_1 3.778647 1_555
Ca0_0 Ca0_4 3.960509 1_455
Ca0_0 Ca0_4 3.960509 1_555
Ca0_1 Ca1_1 3.630308 1_555
Ca0_1 Ca1_5 3.630308 1_455
Ca0_1 Ca2_2 3.710233 1_545
Ca0_1 Ca2_6 3.710233 1_445
Ca0_1 Ca2_4 3.710233 1_455
Ca0_1 Ca2_0 3.710233 1_555
Ca0_1 Mg0_3 3.742532 1_545
Ca0_1 Mg0_1 3.742532 1_555
Ca0_1 Ca1_4 3.778647 1_455
Ca0_1 Ca1_0 3.778647 1_555
Ca0_1 Ca0_5 3.960509 1_455
Ca0_1 Ca0_5 3.960509 1_555
Ca0_2 Ca1_6 3.630308 1_456
Ca0_2 Ca1_2 3.630308 1_556
Ca0_2 Ca2_1 3.710233 1_555
Ca0_2 Ca2_5 3.710233 1_455
Ca0_2 Ca2_7 3.710233 1_455
Ca0_2 Ca2_3 3.710233 1_555
Ca0_2 Mg0_0 3.742532 1_556
Ca0_2 Mg0_2 3.742532 1_556
Ca0_2 Ca1_7 3.778647 1_455
Ca0_2 Ca1_3 3.778647 1_555
Ca0_2 Ca0_6 3.960509 1_455
Ca0_2 Ca0_6 3.960509 1_555
Ca0_3 Ca1_7 3.630308 1_455
Ca0_3 Ca1_3 3.630308 1_555
Ca0_3 Ca2_4 3.710233 1_455
Ca0_3 Ca2_0 3.710233 1_555
Ca0_3 Ca2_2 3.710233 1_555
Ca0_3 Ca2_6 3.710233 1_455
Ca0_3 Mg0_1 3.742532 1_555
Ca0_3 Mg0_3 3.742532 1_555
Ca0_3 Ca1_6 3.778647 1_455
Ca0_3 Ca1_2 3.778647 1_555
Ca0_3 Ca0_7 3.960509 1_455
Ca0_3 Ca0_7 3.960509 1_555
Ca0_4 Ca1_0 3.630308 1_556
Ca0_4 Ca1_4 3.630308 1_556
Ca0_4 Ca2_3 3.710233 1_545
Ca0_4 Ca2_7 3.710233 1_545
Ca0_4 Ca2_1 3.710233 1_555
Ca0_4 Ca2_5 3.710233 1_555
Ca0_4 Mg0_6 3.742532 1_546
Ca0_4 Mg0_4 3.742532 1_556
Ca0_4 Ca1_5 3.778647 1_555
Ca0_4 Ca1_1 3.778647 1_555
Ca0_5 Ca1_1 3.630308 1_555
Ca0_5 Ca1_5 3.630308 1_555
Ca0_5 Ca2_6 3.710233 1_545
Ca0_5 Ca2_2 3.710233 1_545
Ca0_5 Ca2_0 3.710233 1_555
Ca0_5 Ca2_4 3.710233 1_555
Ca0_5 Mg0_7 3.742532 1_545
Ca0_5 Mg0_5 3.742532 1_555
Ca0_5 Ca1_0 3.778647 1_555
Ca0_5 Ca1_4 3.778647 1_555
Ca0_6 Ca1_6 3.630308 1_556
Ca0_6 Ca1_2 3.630308 1_556
Ca0_6 Ca2_1 3.710233 1_555
Ca0_6 Ca2_5 3.710233 1_555
Ca0_6 Ca2_3 3.710233 1_555
Ca0_6 Ca2_7 3.710233 1_555
Ca0_6 Mg0_4 3.742532 1_556
Ca0_6 Mg0_6 3.742532 1_556
Ca0_6 Ca1_3 3.778647 1_555
Ca0_6 Ca1_7 3.778647 1_555
Ca0_7 Ca1_7 3.630308 1_555
Ca0_7 Ca1_3 3.630308 1_555
Ca0_7 Ca2_0 3.710233 1_555
Ca0_7 Ca2_4 3.710233 1_555
Ca0_7 Ca2_2 3.710233 1_555
Ca0_7 Ca2_6 3.710233 1_555
Ca0_7 Mg0_5 3.742532 1_555
Ca0_7 Mg0_7 3.742532 1_555
Ca0_7 Ca1_6 3.778647 1_555
Ca0_7 Ca1_2 3.778647 1_555
Ca1_0 Mg0_2 3.706728 1_545
Ca1_0 Mg0_6 3.706728 1_545
Ca1_0 Mg0_4 3.706728 1_555
Ca1_0 Mg0_0 3.706728 1_555
Ca1_0 Ca2_2 3.839217 1_545
Ca1_0 Ca2_0 3.839217 1_555
Ca1_0 Ca1_4 3.960509 1_555
Ca1_0 Ca1_4 3.960509 1_455
Ca1_1 Mg0_7 3.706728 1_545
Ca1_1 Mg0_3 3.706728 1_545
Ca1_1 Mg0_1 3.706728 1_555
Ca1_1 Mg0_5 3.706728 1_555
Ca1_1 Ca2_3 3.839217 1_545
Ca1_1 Ca2_1 3.839217 1_555
Ca1_1 Ca1_5 3.960509 1_455
Ca1_1 Ca1_5 3.960509 1_555
Ca1_2 Mg0_4 3.706728 1_555
Ca1_2 Mg0_0 3.706728 1_555
Ca1_2 Mg0_2 3.706728 1_555
Ca1_2 Mg0_6 3.706728 1_555
Ca1_2 Ca2_0 3.839217 1_555
Ca1_2 Ca2_2 3.839217 1_555
Ca1_2 Ca1_6 3.960509 1_555
Ca1_2 Ca1_6 3.960509 1_455
Ca1_3 Mg0_1 3.706728 1_555
Ca1_3 Mg0_5 3.706728 1_555
Ca1_3 Mg0_3 3.706728 1_555
Ca1_3 Mg0_7 3.706728 1_555
Ca1_3 Ca2_1 3.839217 1_555
Ca1_3 Ca2_3 3.839217 1_555
Ca1_3 Ca1_7 3.960509 1_555
Ca1_3 Ca1_7 3.960509 1_455
Ca1_4 Mg0_2 3.706728 1_645
Ca1_4 Mg0_6 3.706728 1_545
Ca1_4 Mg0_4 3.706728 1_555
Ca1_4 Mg0_0 3.706728 1_655
Ca1_4 Ca2_6 3.839217 1_545
Ca1_4 Ca2_4 3.839217 1_555
Ca1_5 Mg0_7 3.706728 1_545
Ca1_5 Mg0_3 3.706728 1_645
Ca1_5 Mg0_1 3.706728 1_655
Ca1_5 Mg0_5 3.706728 1_555
Ca1_5 Ca2_7 3.839217 1_545
Ca1_5 Ca2_5 3.839217 1_555
Ca1_6 Mg0_4 3.706728 1_555
Ca1_6 Mg0_0 3.706728 1_655
Ca1_6 Mg0_2 3.706728 1_655
Ca1_6 Mg0_6 3.706728 1_555
Ca1_6 Ca2_4 3.839217 1_555
Ca1_6 Ca2_6 3.839217 1_555
Ca1_7 Mg0_1 3.706728 1_655
Ca1_7 Mg0_5 3.706728 1_555
Ca1_7 Mg0_3 3.706728 1_655
Ca1_7 Mg0_7 3.706728 1_555
Ca1_7 Ca2_5 3.839217 1_555
Ca1_7 Ca2_7 3.839217 1_555
Ca2_0 Mg0_1 3.643276 1_555
Ca2_0 Mg0_5 3.643276 1_555
Ca2_0 Mg0_0 3.765488 1_555
Ca2_0 Mg0_4 3.765488 1_555
Ca2_0 Ca2_4 3.960509 1_555
Ca2_0 Ca2_4 3.960509 1_455
Ca2_1 Mg0_0 3.643276 1_556
Ca2_1 Mg0_4 3.643276 1_556
Ca2_1 Mg0_1 3.765488 1_555
Ca2_1 Mg0_5 3.765488 1_555
Ca2_1 Ca2_5 3.960509 1_555
Ca2_1 Ca2_5 3.960509 1_455
Ca2_2 Mg0_3 3.643276 1_555
Ca2_2 Mg0_7 3.643276 1_555
Ca2_2 Mg0_2 3.765488 1_555
Ca2_2 Mg0_6 3.765488 1_555
Ca2_2 Ca2_6 3.960509 1_555
Ca2_2 Ca2_6 3.960509 1_455
Ca2_3 Mg0_2 3.643276 1_556
Ca2_3 Mg0_6 3.643276 1_556
Ca2_3 Mg0_3 3.765488 1_555
Ca2_3 Mg0_7 3.765488 1_555
Ca2_3 Ca2_7 3.960509 1_455
Ca2_3 Ca2_7 3.960509 1_555
Ca2_4 Mg0_1 3.643276 1_655
Ca2_4 Mg0_5 3.643276 1_555
Ca2_4 Mg0_4 3.765488 1_555
Ca2_4 Mg0_0 3.765488 1_655
Ca2_5 Mg0_0 3.643276 1_656
Ca2_5 Mg0_4 3.643276 1_556
Ca2_5 Mg0_1 3.765488 1_655
Ca2_5 Mg0_5 3.765488 1_555
Ca2_6 Mg0_3 3.643276 1_655
Ca2_6 Mg0_7 3.643276 1_555
Ca2_6 Mg0_2 3.765488 1_655
Ca2_6 Mg0_6 3.765488 1_555
Ca2_7 Mg0_2 3.643276 1_656
Ca2_7 Mg0_6 3.643276 1_556
Ca2_7 Mg0_3 3.765488 1_655
Ca2_7 Mg0_7 3.765488 1_555
