# generated using pymatgen
data_Ba2YW3O7
_symmetry_space_group_name_H-M   'P 1'
_cell_length_a   4.08598400
_cell_length_b   4.20713700
_cell_length_c   11.86706300
_cell_angle_alpha   90.00000000
_cell_angle_beta   90.00000000
_cell_angle_gamma   90.00000000
_symmetry_Int_Tables_number   1
_chemical_formula_structural   Ba2YW3O7
_chemical_formula_sum   'Ba2 Y1 W3 O7'
_cell_volume   203.99830744
_cell_formula_units_Z   1
loop_
 _symmetry_equiv_pos_site_id
 _symmetry_equiv_pos_as_xyz
  1  'x, y, z'
loop_
 _atom_site_type_symbol
 _atom_site_label
 _atom_site_symmetry_multiplicity
 _atom_site_fract_x
 _atom_site_fract_y
 _atom_site_fract_z
 _atom_site_occupancy
  Ba  Ba0  1  0.50000000  0.50000000  0.31554500  1
  Ba  Ba1  1  0.50000000  0.50000000  0.68445500  1
  Y  Y0  1  0.50000000  0.50000000  0.00000000  1
  W  W0  1  0.00000000  0.00000000  0.11708300  1
  W  W1  1  0.00000000  0.00000000  0.88291700  1
  W  W2  1  0.00000000  0.00000000  0.50000000  1
  O  O0  1  0.00000000  0.50000000  0.50000000  1
  O  O1  1  0.50000000  0.00000000  0.15191200  1
  O  O2  1  0.50000000  0.00000000  0.84808800  1
  O  O3  1  0.00000000  0.50000000  0.13187700  1
  O  O4  1  0.00000000  0.50000000  0.86812300  1
  O  O5  1  0.00000000  0.00000000  0.33787300  1
  O  O6  1  0.00000000  0.00000000  0.66212700  1
loop_
_geom_bond_atom_site_label_1
_geom_bond_atom_site_label_2
_geom_bond_distance
_geom_bond_site_symmetry_2
Ba0 O1 2.862823 1_555
Ba0 O1 2.862823 1_565
Ba0 O5 2.944321 1_555
Ba0 O5 2.944321 1_565
Ba0 O5 2.944321 1_655
Ba0 O5 2.944321 1_665
Ba0 O3 2.987385 1_555
Ba0 O3 2.987385 1_655
Ba0 O0 2.994206 1_655
Ba0 O0 2.994206 1_555
Ba1 O2 2.862823 1_555
Ba1 O2 2.862823 1_565
Ba1 O6 2.944321 1_665
Ba1 O6 2.944321 1_555
Ba1 O6 2.944321 1_655
Ba1 O6 2.944321 1_565
Ba1 O4 2.987385 1_655
Ba1 O4 2.987385 1_555
Ba1 O0 2.994206 1_555
Ba1 O0 2.994206 1_655
O0 W2 2.103569 1_555
O0 W2 2.103569 1_565
O1 W0 2.084382 1_555
O1 W0 2.084382 1_655
O1 Y0 2.770362 1_545
O1 Y0 2.770362 1_555
O2 W1 2.084382 1_655
O2 W1 2.084382 1_555
O2 Y0 2.770362 1_556
O2 Y0 2.770362 1_546
O3 W0 2.110882 1_555
O3 W0 2.110882 1_565
O3 Y0 2.573523 1_455
O3 Y0 2.573523 1_555
O4 W1 2.110882 1_565
O4 W1 2.110882 1_555
O4 Y0 2.573523 1_456
O4 Y0 2.573523 1_556
O5 W2 1.923971 1_555
O5 W0 2.620129 1_555
O6 W2 1.923971 1_555
O6 W1 2.620129 1_555
