# generated using pymatgen
data_LiPr(WO4)2
_symmetry_space_group_name_H-M   'P 1'
_cell_length_a   7.20339500
_cell_length_b   7.48887267
_cell_length_c   7.60702086
_cell_angle_alpha   113.67880322
_cell_angle_beta   115.72279924
_cell_angle_gamma   91.06622949
_symmetry_Int_Tables_number   1
_chemical_formula_structural   LiPr(WO4)2
_chemical_formula_sum   'Li2 Pr2 W4 O16'
_cell_volume   329.18836142
_cell_formula_units_Z   2
loop_
 _symmetry_equiv_pos_site_id
 _symmetry_equiv_pos_as_xyz
  1  'x, y, z'
loop_
 _atom_site_type_symbol
 _atom_site_label
 _atom_site_symmetry_multiplicity
 _atom_site_fract_x
 _atom_site_fract_y
 _atom_site_fract_z
 _atom_site_occupancy
  Li  Li0  1  0.25734800  0.66530000  0.00420400  1
  Li  Li1  1  0.74265200  0.33470000  0.99579600  1
  Pr  Pr0  1  0.18634400  0.28909400  0.46513700  1
  Pr  Pr1  1  0.81365600  0.71090600  0.53486300  1
  W  W0  1  0.25807300  0.29211700  0.03087100  1
  W  W1  1  0.74192700  0.70788300  0.96912900  1
  W  W2  1  0.64785200  0.10205900  0.28149500  1
  W  W3  1  0.35214800  0.89794100  0.71850500  1
  O  O0  1  0.03918100  0.30650100  0.09399800  1
  O  O1  1  0.96081900  0.69349900  0.90600200  1
  O  O2  1  0.18208000  0.36135200  0.80759300  1
  O  O3  1  0.81792000  0.63864800  0.19240700  1
  O  O4  1  0.55724800  0.46326000  0.75461500  1
  O  O5  1  0.44275200  0.53674000  0.24538500  1
  O  O6  1  0.61329100  0.82513400  0.73896900  1
  O  O7  1  0.38670900  0.17486600  0.26103100  1
  O  O8  1  0.48137900  0.82830400  0.00732800  1
  O  O9  1  0.51862100  0.17169600  0.99267200  1
  O  O10  1  0.13520600  0.99163500  0.80378700  1
  O  O11  1  0.86479400  0.00836500  0.19621300  1
  O  O12  1  0.29357300  0.99488100  0.52430500  1
  O  O13  1  0.70642700  0.00511900  0.47569500  1
  O  O14  1  0.17677700  0.64365900  0.56455500  1
  O  O15  1  0.82322300  0.35634100  0.43544500  1
loop_
_geom_bond_atom_site_label_1
_geom_bond_atom_site_label_2
_geom_bond_distance
_geom_bond_site_symmetry_2
Li0 O1 1.980813 1_454
Li0 O8 1.991257 1_555
Li0 O2 2.056158 1_554
Li0 O5 2.327295 1_555
Li1 O0 1.980813 1_656
Li1 O9 1.991257 1_555
Li1 O3 2.056158 1_556
Li1 O4 2.327295 1_555
O0 W0 1.830416 1_555
O0 Pr0 2.610441 1_555
O1 W1 1.830416 1_555
O1 Pr1 2.610441 1_555
O2 W0 1.834169 1_556
O2 Pr0 2.453150 1_555
O3 W1 1.834169 1_554
O3 Pr1 2.453150 1_555
O4 W1 1.847269 1_555
O4 Pr0 2.478907 1_555
O5 W0 1.847269 1_555
O5 Pr1 2.478907 1_555
O6 W3 1.926727 1_555
O6 W1 2.133522 1_555
O6 Pr1 2.479907 1_555
O7 W2 1.926727 1_555
O7 W0 2.133522 1_555
O7 Pr0 2.479907 1_555
O8 W2 2.072179 1_565
O8 W1 2.178557 1_554
O8 W3 2.264670 1_554
O9 W3 2.072179 1_545
O9 W0 2.178557 1_556
O9 W2 2.264670 1_556
O10 W3 1.977495 1_555
O10 W0 2.075469 1_566
O10 Pr1 2.494198 1_455
O11 W2 1.977495 1_555
O11 W1 2.075469 1_544
O11 Pr0 2.494198 1_655
O12 W3 1.794210 1_555
O12 Pr0 2.492378 1_565
O13 W2 1.794210 1_555
O13 Pr1 2.492378 1_545
O14 W3 1.851661 1_555
O14 Pr0 2.462998 1_555
O14 Pr1 2.602709 1_455
O15 W2 1.851661 1_555
O15 Pr1 2.462998 1_555
O15 Pr0 2.602709 1_655
