# generated using pymatgen
data_ThFe3Co2
_symmetry_space_group_name_H-M   'P 1'
_cell_length_a   4.89937953
_cell_length_b   4.89937953
_cell_length_c   4.02467300
_cell_angle_alpha   90.00000000
_cell_angle_beta   90.00000000
_cell_angle_gamma   119.99999365
_symmetry_Int_Tables_number   1
_chemical_formula_structural   ThFe3Co2
_chemical_formula_sum   'Th1 Fe3 Co2'
_cell_volume   83.66492506
_cell_formula_units_Z   1
loop_
 _symmetry_equiv_pos_site_id
 _symmetry_equiv_pos_as_xyz
  1  'x, y, z'
loop_
 _atom_site_type_symbol
 _atom_site_label
 _atom_site_symmetry_multiplicity
 _atom_site_fract_x
 _atom_site_fract_y
 _atom_site_fract_z
 _atom_site_occupancy
  Th  Th0  1  0.00000000  0.00000000  0.00000000  1
  Fe  Fe0  1  0.50000000  0.50000000  0.50000000  1
  Fe  Fe1  1  0.50000000  0.00000000  0.50000000  1
  Fe  Fe2  1  0.00000000  0.50000000  0.50000000  1
  Co  Co0  1  0.66666700  0.33333300  0.00000000  1
  Co  Co1  1  0.33333300  0.66666700  0.00000000  1
loop_
_geom_bond_atom_site_label_1
_geom_bond_atom_site_label_2
_geom_bond_distance
_geom_bond_site_symmetry_2
Fe0 Fe1 2.449690 1_555
Fe0 Fe1 2.449690 1_565
Fe0 Fe2 2.449690 1_555
Fe0 Fe2 2.449690 1_655
Fe0 Th0 3.170249 1_665
Fe0 Th0 3.170249 1_666
Fe0 Th0 3.170249 1_555
Fe0 Th0 3.170249 1_556
Fe1 Fe2 2.449690 1_545
Fe1 Fe2 2.449690 1_655
Fe1 Th0 3.170249 1_655
Fe1 Th0 3.170249 1_656
Fe1 Th0 3.170249 1_555
Fe1 Th0 3.170249 1_556
Fe2 Th0 3.170249 1_565
Fe2 Th0 3.170249 1_555
Fe2 Th0 3.170249 1_556
Fe2 Th0 3.170249 1_566
Co0 Fe1 2.459638 1_555
Co0 Fe1 2.459638 1_554
Co0 Fe2 2.459638 1_654
Co0 Fe2 2.459638 1_655
Co0 Fe0 2.459641 1_554
Co0 Fe0 2.459641 1_555
Co0 Th0 2.828655 1_655
Co0 Co1 2.828655 1_545
Co0 Co1 2.828655 1_655
Co0 Th0 2.828660 1_555
Co0 Th0 2.828660 1_665
Co0 Co1 2.828664 1_555
Co1 Fe2 2.459638 1_554
Co1 Fe1 2.459638 1_565
Co1 Fe1 2.459638 1_564
Co1 Fe2 2.459638 1_555
Co1 Fe0 2.459641 1_554
Co1 Fe0 2.459641 1_555
Co1 Th0 2.828655 1_565
Co1 Th0 2.828660 1_665
Co1 Th0 2.828660 1_555
