# generated using pymatgen
data_WN
_symmetry_space_group_name_H-M   'P 1'
_cell_length_a   2.86745000
_cell_length_b   3.45959100
_cell_length_c   4.16358000
_cell_angle_alpha   90.00000000
_cell_angle_beta   90.00000000
_cell_angle_gamma   90.00000000
_symmetry_Int_Tables_number   1
_chemical_formula_structural   WN
_chemical_formula_sum   'W2 N2'
_cell_volume   41.30356386
_cell_formula_units_Z   2
loop_
 _symmetry_equiv_pos_site_id
 _symmetry_equiv_pos_as_xyz
  1  'x, y, z'
loop_
 _atom_site_type_symbol
 _atom_site_label
 _atom_site_symmetry_multiplicity
 _atom_site_fract_x
 _atom_site_fract_y
 _atom_site_fract_z
 _atom_site_occupancy
  W  W0  1  0.61559000  0.82547100  0.50000000  1
  W  W1  1  0.11559000  0.17452900  0.00000000  1
  N  N0  1  0.64772800  0.66629200  0.00000000  1
  N  N1  1  0.14772800  0.33370800  0.50000000  1
loop_
_geom_bond_atom_site_label_1
_geom_bond_atom_site_label_2
_geom_bond_distance
_geom_bond_site_symmetry_2
N0 W0 2.155367 1_554
N0 W0 2.155367 1_555
N0 W1 2.166617 1_655
N0 W1 2.211652 1_665
N0 W1 2.285328 1_555
N0 W1 2.328068 1_565
N1 W1 2.155367 1_555
N1 W1 2.155367 1_556
N1 W0 2.166617 1_555
N1 W0 2.211652 1_545
N1 W0 2.285328 1_455
N1 W0 2.328068 1_445
