# generated using pymatgen
data_CsMnBr3O2
_symmetry_space_group_name_H-M   'P 1'
_cell_length_a   7.38164800
_cell_length_b   8.96941700
_cell_length_c   13.35975500
_cell_angle_alpha   90.00000000
_cell_angle_beta   90.00000000
_cell_angle_gamma   90.00000000
_symmetry_Int_Tables_number   1
_chemical_formula_structural   CsMnBr3O2
_chemical_formula_sum   'Cs4 Mn4 Br12 O8'
_cell_volume   884.53707501
_cell_formula_units_Z   4
loop_
 _symmetry_equiv_pos_site_id
 _symmetry_equiv_pos_as_xyz
  1  'x, y, z'
loop_
 _atom_site_type_symbol
 _atom_site_label
 _atom_site_symmetry_multiplicity
 _atom_site_fract_x
 _atom_site_fract_y
 _atom_site_fract_z
 _atom_site_occupancy
  Cs  Cs0  1  0.50000000  0.75000000  0.37265800  1
  Cs  Cs1  1  0.50000000  0.25000000  0.62734200  1
  Cs  Cs2  1  0.50000000  0.25000000  0.12734200  1
  Cs  Cs3  1  0.50000000  0.75000000  0.87265800  1
  Mn  Mn0  1  0.03287000  0.50000000  0.25000000  1
  Mn  Mn1  1  0.96713000  0.50000000  0.75000000  1
  Mn  Mn2  1  0.96713000  0.00000000  0.25000000  1
  Mn  Mn3  1  0.03287000  0.00000000  0.75000000  1
  Br  Br0  1  0.25027000  0.61538800  0.13102000  1
  Br  Br1  1  0.74973000  0.38461200  0.86898000  1
  Br  Br2  1  0.74973000  0.88461200  0.13102000  1
  Br  Br3  1  0.25027000  0.38461200  0.36898000  1
  Br  Br4  1  0.25027000  0.11538800  0.86898000  1
  Br  Br5  1  0.74973000  0.61538800  0.63102000  1
  Br  Br6  1  0.74973000  0.11538800  0.36898000  1
  Br  Br7  1  0.25027000  0.88461200  0.63102000  1
  Br  Br8  1  0.00000000  0.75000000  0.36533700  1
  Br  Br9  1  0.00000000  0.25000000  0.63466300  1
  Br  Br10  1  0.00000000  0.25000000  0.13466300  1
  Br  Br11  1  0.00000000  0.75000000  0.86533700  1
  O  O0  1  0.23458200  0.96689700  0.20619300  1
  O  O1  1  0.76541800  0.03310300  0.79380700  1
  O  O2  1  0.76541800  0.53310300  0.20619300  1
  O  O3  1  0.23458200  0.03310300  0.29380700  1
  O  O4  1  0.23458200  0.46689700  0.79380700  1
  O  O5  1  0.76541800  0.96689700  0.70619300  1
  O  O6  1  0.76541800  0.46689700  0.29380700  1
  O  O7  1  0.23458200  0.53310300  0.70619300  1
loop_
_geom_bond_atom_site_label_1
_geom_bond_atom_site_label_2
_geom_bond_distance
_geom_bond_site_symmetry_2
Cs0 O6 3.375819 1_555
Cs0 O3 3.375819 1_565
Cs0 O2 3.545301 1_555
Cs0 O0 3.545301 1_555
Cs1 O5 3.375819 1_545
Cs1 O7 3.375819 1_555
Cs1 O1 3.545301 1_555
Cs1 O4 3.545301 1_555
Cs2 O2 3.375819 1_555
Cs2 O0 3.375819 1_545
Cs2 O6 3.545301 1_555
Cs2 O3 3.545301 1_555
Cs3 O1 3.375819 1_565
Cs3 O4 3.375819 1_555
Cs3 O5 3.545301 1_555
Cs3 O7 3.545301 1_555
Mn0 O6 2.080453 1_455
Mn0 O2 2.080453 1_455
Mn1 O4 2.080453 1_655
Mn1 O7 2.080453 1_655
Mn2 O3 2.080453 1_655
Mn2 O0 2.080453 1_645
Mn3 O1 2.080453 1_455
Mn3 O5 2.080453 1_445
Br0 Mn0 2.484569 1_555
Br0 Cs2 3.760508 1_555
Br0 Cs0 3.908634 1_555
Br0 Cs3 4.095106 1_554
Br1 Mn1 2.484569 1_555
Br1 Cs3 3.760508 1_555
Br1 Cs1 3.908634 1_555
Br1 Cs2 4.095106 1_556
Br2 Mn2 2.484569 1_565
Br2 Cs2 3.760508 1_565
Br2 Cs0 3.908634 1_555
Br2 Cs3 4.095106 1_554
Br3 Mn0 2.484569 1_555
Br3 Cs0 3.760508 1_555
Br3 Cs2 3.908634 1_555
Br3 Cs1 4.095106 1_555
Br4 Mn3 2.484569 1_555
Br4 Cs3 3.760508 1_545
Br4 Cs1 3.908634 1_555
Br4 Cs2 4.095106 1_556
Br5 Mn1 2.484569 1_555
Br5 Cs1 3.760508 1_555
Br5 Cs3 3.908634 1_555
Br5 Cs0 4.095106 1_555
Br6 Mn2 2.484569 1_555
Br6 Cs0 3.760508 1_545
Br6 Cs2 3.908634 1_555
Br6 Cs1 4.095106 1_555
Br7 Mn3 2.484569 1_565
Br7 Cs1 3.760508 1_565
Br7 Cs3 3.908634 1_555
Br7 Cs0 4.095106 1_555
Br8 Mn2 2.731541 1_465
Br8 Mn0 2.731541 1_555
Br8 Cs0 3.692120 1_455
Br8 Cs0 3.692120 1_555
Br9 Mn1 2.731541 1_455
Br9 Mn3 2.731541 1_555
Br9 Cs1 3.692120 1_455
Br9 Cs1 3.692120 1_555
Br10 Mn2 2.731541 1_455
Br10 Mn0 2.731541 1_555
Br10 Cs2 3.692120 1_455
Br10 Cs2 3.692120 1_555
Br11 Mn3 2.731541 1_565
Br11 Mn1 2.731541 1_455
Br11 Cs3 3.692120 1_455
Br11 Cs3 3.692120 1_555
O0 O3 1.312519 1_565
O1 O5 1.312519 1_545
O2 O6 1.312519 1_555
O4 O7 1.312519 1_555
