# generated using pymatgen
data_CaV(Si2O5)2
_symmetry_space_group_name_H-M   'P 1'
_cell_length_a   7.48291300
_cell_length_b   7.48291300
_cell_length_c   15.43614800
_cell_angle_alpha   90.00000000
_cell_angle_beta   90.00000000
_cell_angle_gamma   90.00000000
_symmetry_Int_Tables_number   1
_chemical_formula_structural   CaV(Si2O5)2
_chemical_formula_sum   'Ca4 V4 Si16 O40'
_cell_volume   864.33146991
_cell_formula_units_Z   4
loop_
 _symmetry_equiv_pos_site_id
 _symmetry_equiv_pos_as_xyz
  1  'x, y, z'
loop_
 _atom_site_type_symbol
 _atom_site_label
 _atom_site_symmetry_multiplicity
 _atom_site_fract_x
 _atom_site_fract_y
 _atom_site_fract_z
 _atom_site_occupancy
  Ca  Ca0  1  0.50000000  0.50000000  0.50000000  1
  Ca  Ca1  1  0.00000000  0.00000000  0.50000000  1
  Ca  Ca2  1  0.00000000  0.00000000  0.00000000  1
  Ca  Ca3  1  0.50000000  0.50000000  0.00000000  1
  V  V0  1  0.50000000  0.00000000  0.58126400  1
  V  V1  1  0.00000000  0.50000000  0.91873600  1
  V  V2  1  0.00000000  0.50000000  0.41873600  1
  V  V3  1  0.50000000  0.00000000  0.08126400  1
  Si  Si0  1  0.16941500  0.25211700  0.64883500  1
  Si  Si1  1  0.83058500  0.74788300  0.64883500  1
  Si  Si2  1  0.25211700  0.16941500  0.85116500  1
  Si  Si3  1  0.75211700  0.33058500  0.64883500  1
  Si  Si4  1  0.24788300  0.66941500  0.64883500  1
  Si  Si5  1  0.33058500  0.75211700  0.85116500  1
  Si  Si6  1  0.66941500  0.24788300  0.85116500  1
  Si  Si7  1  0.74788300  0.83058500  0.85116500  1
  Si  Si8  1  0.33058500  0.24788300  0.35116500  1
  Si  Si9  1  0.66941500  0.75211700  0.35116500  1
  Si  Si10  1  0.24788300  0.33058500  0.14883500  1
  Si  Si11  1  0.74788300  0.16941500  0.35116500  1
  Si  Si12  1  0.25211700  0.83058500  0.35116500  1
  Si  Si13  1  0.16941500  0.74788300  0.14883500  1
  Si  Si14  1  0.83058500  0.25211700  0.14883500  1
  Si  Si15  1  0.75211700  0.66941500  0.14883500  1
  O  O0  1  0.24795400  0.10716400  0.58194100  1
  O  O1  1  0.75204600  0.89283600  0.58194100  1
  O  O2  1  0.10716400  0.24795400  0.91805900  1
  O  O3  1  0.60716400  0.25204600  0.58194100  1
  O  O4  1  0.39283600  0.74795400  0.58194100  1
  O  O5  1  0.25204600  0.60716400  0.91805900  1
  O  O6  1  0.74795400  0.39283600  0.91805900  1
  O  O7  1  0.89283600  0.75204600  0.91805900  1
  O  O8  1  0.25204600  0.39283600  0.41805900  1
  O  O9  1  0.74795400  0.60716400  0.41805900  1
  O  O10  1  0.39283600  0.25204600  0.08194100  1
  O  O11  1  0.89283600  0.24795400  0.41805900  1
  O  O12  1  0.10716400  0.75204600  0.41805900  1
  O  O13  1  0.24795400  0.89283600  0.08194100  1
  O  O14  1  0.75204600  0.10716400  0.08194100  1
  O  O15  1  0.25114300  0.04727800  0.37086200  1
  O  O16  1  0.60716400  0.74795400  0.08194100  1
  O  O17  1  0.75114300  0.54727800  0.62913800  1
  O  O18  1  0.45272200  0.24885700  0.87086200  1
  O  O19  1  0.95272200  0.25114300  0.62913800  1
  O  O20  1  0.04727800  0.74885700  0.62913800  1
  O  O21  1  0.25114300  0.95272200  0.87086200  1
  O  O22  1  0.74885700  0.04727800  0.87086200  1
  O  O23  1  0.54727800  0.75114300  0.87086200  1
  O  O24  1  0.70501100  0.70501100  0.25000000  1
  O  O25  1  0.79498900  0.20501100  0.25000000  1
  O  O26  1  0.20501100  0.79498900  0.25000000  1
  O  O27  1  0.29498900  0.29498900  0.25000000  1
  O  O28  1  0.79498900  0.79498900  0.75000000  1
  O  O29  1  0.70501100  0.29498900  0.75000000  1
  O  O30  1  0.29498900  0.70501100  0.75000000  1
  O  O31  1  0.20501100  0.20501100  0.75000000  1
  O  O32  1  0.95272200  0.74885700  0.12913800  1
  O  O33  1  0.75114300  0.45272200  0.12913800  1
  O  O34  1  0.24885700  0.54727800  0.12913800  1
  O  O35  1  0.45272200  0.75114300  0.37086200  1
  O  O36  1  0.54727800  0.24885700  0.37086200  1
  O  O37  1  0.04727800  0.25114300  0.12913800  1
  O  O38  1  0.74885700  0.95272200  0.37086200  1
  O  O39  1  0.24885700  0.45272200  0.62913800  1
loop_
_geom_bond_atom_site_label_1
_geom_bond_atom_site_label_2
_geom_bond_distance
_geom_bond_site_symmetry_2
Ca0 O3 2.384423 1_555
Ca0 O4 2.384423 1_555
Ca0 O9 2.384423 1_555
Ca0 O8 2.384423 1_555
Ca0 O17 2.762331 1_555
Ca0 O39 2.762331 1_555
Ca0 O36 2.762331 1_555
Ca0 O35 2.762331 1_555
Ca1 O0 2.384423 1_555
Ca1 O1 2.384423 1_445
Ca1 O11 2.384423 1_455
Ca1 O12 2.384423 1_545
Ca1 O20 2.762331 1_545
Ca1 O19 2.762331 1_455
Ca1 O15 2.762331 1_555
Ca1 O38 2.762331 1_445
Ca2 O13 2.384423 1_545
Ca2 O2 2.384423 1_554
Ca2 O14 2.384423 1_455
Ca2 O7 2.384423 1_444
Ca2 O32 2.762331 1_445
Ca2 O37 2.762331 1_555
Ca2 O22 2.762331 1_454
Ca2 O21 2.762331 1_544
Ca3 O16 2.384423 1_555
Ca3 O5 2.384423 1_554
Ca3 O10 2.384423 1_555
Ca3 O6 2.384423 1_554
Ca3 O34 2.762331 1_555
Ca3 O33 2.762331 1_555
Ca3 O23 2.762331 1_554
Ca3 O18 2.762331 1_554
O0 Si0 1.608768 1_555
O0 V0 2.049461 1_555
O1 Si1 1.608768 1_555
O1 V0 2.049461 1_565
O2 Si2 1.608768 1_555
O2 V1 2.049461 1_555
O3 Si3 1.608768 1_555
O3 V0 2.049461 1_555
O4 Si4 1.608768 1_555
O4 V0 2.049461 1_565
O5 Si5 1.608768 1_555
O5 V1 2.049461 1_555
O6 Si6 1.608768 1_555
O6 V1 2.049461 1_655
O7 Si7 1.608768 1_555
O7 V1 2.049461 1_655
O8 Si8 1.608768 1_555
O8 V2 2.049461 1_555
O9 Si9 1.608768 1_555
O9 V2 2.049461 1_655
O10 Si10 1.608768 1_555
O10 V3 2.049461 1_555
O11 Si11 1.608768 1_555
O11 V2 2.049461 1_655
O12 Si12 1.608768 1_555
O12 V2 2.049461 1_555
O13 Si13 1.608768 1_555
O13 V3 2.049461 1_565
O14 Si14 1.608768 1_555
O14 V3 2.049461 1_555
O15 Si8 1.642910 1_555
O15 Si12 1.649770 1_545
O16 Si15 1.608768 1_555
O16 V3 2.049461 1_565
O17 Si1 1.642910 1_555
O17 Si3 1.649770 1_555
O18 Si2 1.642910 1_555
O18 Si6 1.649770 1_555
O19 Si3 1.642910 1_555
O19 Si0 1.649770 1_655
O20 Si4 1.642910 1_555
O20 Si1 1.649770 1_455
O21 Si5 1.642910 1_555
O21 Si2 1.649770 1_565
O22 Si6 1.642910 1_555
O22 Si7 1.649770 1_545
O23 Si7 1.642910 1_555
O23 Si5 1.649770 1_555
O24 Si15 1.622894 1_555
O24 Si9 1.622894 1_555
O25 Si14 1.622894 1_555
O25 Si11 1.622894 1_555
O26 Si12 1.622894 1_555
O26 Si13 1.622894 1_555
O27 Si8 1.622894 1_555
O27 Si10 1.622894 1_555
O28 Si7 1.622894 1_555
O28 Si1 1.622894 1_555
O29 Si6 1.622894 1_555
O29 Si3 1.622894 1_555
O30 Si5 1.622894 1_555
O30 Si4 1.622894 1_555
O31 Si2 1.622894 1_555
O31 Si0 1.622894 1_555
O32 Si15 1.642910 1_555
O32 Si13 1.649770 1_655
O33 Si14 1.642910 1_555
O33 Si15 1.649770 1_555
O34 Si13 1.642910 1_555
O34 Si10 1.649770 1_555
O35 Si12 1.642910 1_555
O35 Si9 1.649770 1_555
O36 Si11 1.642910 1_555
O36 Si8 1.649770 1_555
O37 Si10 1.642910 1_555
O37 Si14 1.649770 1_455
O38 Si9 1.642910 1_555
O38 Si11 1.649770 1_565
O39 Si0 1.642910 1_555
O39 Si4 1.649770 1_555
