# generated using pymatgen
data_U2InPt2
_symmetry_space_group_name_H-M   'P 1'
_cell_length_a   7.23995200
_cell_length_b   7.65647894
_cell_length_c   7.65647894
_cell_angle_alpha   89.99960503
_cell_angle_beta   90.00000000
_cell_angle_gamma   90.00000000
_symmetry_Int_Tables_number   1
_chemical_formula_structural   U2InPt2
_chemical_formula_sum   'U8 In4 Pt8'
_cell_volume   424.41807521
_cell_formula_units_Z   4
loop_
 _symmetry_equiv_pos_site_id
 _symmetry_equiv_pos_as_xyz
  1  'x, y, z'
loop_
 _atom_site_type_symbol
 _atom_site_label
 _atom_site_symmetry_multiplicity
 _atom_site_fract_x
 _atom_site_fract_y
 _atom_site_fract_z
 _atom_site_occupancy
  U  U0  1  0.50000000  0.31382521  0.68617479  1
  U  U1  1  0.50000000  0.68617479  0.31382521  1
  U  U2  1  0.00000000  0.18617238  0.18617238  1
  U  U3  1  0.00000000  0.81382762  0.81382762  1
  U  U4  1  0.50000000  0.84714440  0.84714440  1
  U  U5  1  0.50000000  0.15285560  0.15285560  1
  U  U6  1  0.00000000  0.65283033  0.34716967  1
  U  U7  1  0.00000000  0.34716967  0.65283033  1
  In  In0  1  0.24997356  -0.00000000  0.50000000  1
  In  In1  1  0.75002644  0.50000000  0.00000000  1
  In  In2  1  0.75002644  -0.00000000  0.50000000  1
  In  In3  1  0.24997356  0.50000000  0.00000000  1
  Pt  Pt0  1  0.21835967  0.13336770  0.86663230  1
  Pt  Pt1  1  0.21835967  0.86663230  0.13336770  1
  Pt  Pt2  1  0.71824089  0.36668066  0.36668066  1
  Pt  Pt3  1  0.71824089  0.63331934  0.63331934  1
  Pt  Pt4  1  0.78164033  0.86663230  0.13336770  1
  Pt  Pt5  1  0.78164033  0.13336770  0.86663230  1
  Pt  Pt6  1  0.28175911  0.63331934  0.63331934  1
  Pt  Pt7  1  0.28175911  0.36668066  0.36668066  1
loop_
_geom_bond_atom_site_label_1
_geom_bond_atom_site_label_2
_geom_bond_distance
_geom_bond_site_symmetry_2
In0 Pt0 2.995832 1_555
In0 Pt1 2.995832 1_545
In0 Pt6 2.996135 1_545
In0 Pt7 2.996135 1_555
In0 U3 3.328764 1_545
In0 U2 3.328764 1_555
In0 U1 3.328981 1_545
In0 U0 3.328981 1_555
In0 U7 3.422005 1_555
In0 U6 3.422005 1_545
In0 U4 3.422111 1_545
In0 U5 3.422111 1_555
In1 Pt4 2.995832 1_555
In1 Pt5 2.995832 1_554
In1 Pt3 2.996135 1_554
In1 Pt2 2.996135 1_555
In1 U2 3.328764 1_655
In1 U3 3.328764 1_654
In1 U0 3.328981 1_554
In1 U1 3.328981 1_555
In1 U6 3.422005 1_655
In1 U7 3.422005 1_654
In1 U4 3.422111 1_554
In1 U5 3.422111 1_555
In2 Pt5 2.995832 1_555
In2 Pt4 2.995832 1_545
In2 Pt3 2.996135 1_545
In2 Pt2 2.996135 1_555
In2 U2 3.328764 1_655
In2 U3 3.328764 1_645
In2 U1 3.328981 1_545
In2 U0 3.328981 1_555
In2 U6 3.422005 1_645
In2 U7 3.422005 1_655
In2 U4 3.422111 1_545
In2 U5 3.422111 1_555
In3 Pt1 2.995832 1_555
In3 Pt0 2.995832 1_554
In3 Pt7 2.996135 1_555
In3 Pt6 2.996135 1_554
In3 U3 3.328764 1_554
In3 U2 3.328764 1_555
In3 U0 3.328981 1_554
In3 U1 3.328981 1_555
In3 U6 3.422005 1_555
In3 U7 3.422005 1_554
In3 U4 3.422111 1_554
In3 U5 3.422111 1_555
Pt0 U7 2.803318 1_555
Pt0 U0 2.824140 1_555
Pt0 U3 2.940812 1_545
Pt0 U2 2.940812 1_556
Pt0 U5 2.997091 1_556
Pt0 U4 2.997091 1_545
Pt1 U6 2.803318 1_555
Pt1 U1 2.824140 1_555
Pt1 U3 2.940812 1_554
Pt1 U2 2.940812 1_565
Pt1 U5 2.997091 1_565
Pt1 U4 2.997091 1_554
Pt2 U5 2.803053 1_555
Pt2 U2 2.825151 1_655
Pt2 U1 2.940106 1_555
Pt2 U0 2.940106 1_555
Pt2 U6 2.997271 1_655
Pt2 U7 2.997271 1_655
Pt3 U4 2.803053 1_555
Pt3 U3 2.825151 1_655
Pt3 U0 2.940106 1_555
Pt3 U1 2.940106 1_555
Pt3 U6 2.997271 1_655
Pt3 U7 2.997271 1_655
Pt4 U6 2.803318 1_655
Pt4 U1 2.824140 1_555
Pt4 U3 2.940812 1_654
Pt4 U2 2.940812 1_665
Pt4 U5 2.997091 1_565
Pt4 U4 2.997091 1_554
Pt5 U7 2.803318 1_655
Pt5 U0 2.824140 1_555
Pt5 U3 2.940812 1_645
Pt5 U2 2.940812 1_656
Pt5 U5 2.997091 1_556
Pt5 U4 2.997091 1_545
Pt6 U4 2.803053 1_555
Pt6 U3 2.825151 1_555
Pt6 U0 2.940106 1_555
Pt6 U1 2.940106 1_555
Pt6 U6 2.997271 1_555
Pt6 U7 2.997271 1_555
Pt7 U5 2.803053 1_555
Pt7 U2 2.825151 1_555
Pt7 U1 2.940106 1_555
Pt7 U0 2.940106 1_555
Pt7 U6 2.997271 1_555
Pt7 U7 2.997271 1_555
