# generated using pymatgen
data_BiOsSe
_symmetry_space_group_name_H-M   'P 1'
_cell_length_a   6.49700600
_cell_length_b   6.62519700
_cell_length_c   6.63507105
_cell_angle_alpha   66.68991603
_cell_angle_beta   90.00000000
_cell_angle_gamma   90.00000000
_symmetry_Int_Tables_number   1
_chemical_formula_structural   BiOsSe
_chemical_formula_sum   'Bi4 Os4 Se4'
_cell_volume   262.28806157
_cell_formula_units_Z   4
loop_
 _symmetry_equiv_pos_site_id
 _symmetry_equiv_pos_as_xyz
  1  'x, y, z'
loop_
 _atom_site_type_symbol
 _atom_site_label
 _atom_site_symmetry_multiplicity
 _atom_site_fract_x
 _atom_site_fract_y
 _atom_site_fract_z
 _atom_site_occupancy
  Bi  Bi0  1  0.63849700  0.85664500  0.37750200  1
  Bi  Bi1  1  0.13849700  0.14335500  0.12249800  1
  Bi  Bi2  1  0.36150300  0.14335500  0.62249800  1
  Bi  Bi3  1  0.86150300  0.85664500  0.87750200  1
  Os  Os0  1  0.01307900  0.70285600  0.30360500  1
  Os  Os1  1  0.51307900  0.29714400  0.19639500  1
  Os  Os2  1  0.98692100  0.29714400  0.69639500  1
  Os  Os3  1  0.48692100  0.70285600  0.80360500  1
  Se  Se0  1  0.36403100  0.64668500  0.17857500  1
  Se  Se1  1  0.86403100  0.35331500  0.32142500  1
  Se  Se2  1  0.63596900  0.35331500  0.82142500  1
  Se  Se3  1  0.13596900  0.64668500  0.67857500  1
loop_
_geom_bond_atom_site_label_1
_geom_bond_atom_site_label_2
_geom_bond_distance
_geom_bond_site_symmetry_2
Bi0 Os0 2.756193 1_655
Bi0 Os3 2.778736 1_555
Bi0 Os1 2.801704 1_565
Bi0 Se0 2.882698 1_555
Bi1 Os1 2.756193 1_555
Bi1 Os2 2.778736 1_454
Bi1 Os0 2.801704 1_545
Bi1 Se1 2.882698 1_455
Bi2 Os2 2.756193 1_455
Bi2 Os1 2.778736 1_555
Bi2 Os3 2.801704 1_545
Bi2 Se2 2.882698 1_555
Bi3 Os3 2.756193 1_555
Bi3 Os0 2.778736 1_656
Bi3 Os2 2.801704 1_565
Bi3 Se3 2.882698 1_655
Os0 Se1 2.469381 1_455
Os0 Se3 2.496621 1_555
Os0 Se0 2.504008 1_555
Os1 Se0 2.469381 1_555
Os1 Se2 2.496621 1_554
Os1 Se1 2.504008 1_555
Os2 Se3 2.469381 1_655
Os2 Se1 2.496621 1_555
Os2 Se2 2.504008 1_555
Os3 Se2 2.469381 1_555
Os3 Se0 2.496621 1_556
Os3 Se3 2.504008 1_555
