# generated using pymatgen
data_Mg6GaNi
_symmetry_space_group_name_H-M   'P 1'
_cell_length_a   4.78253100
_cell_length_b   6.17433500
_cell_length_c   10.33923000
_cell_angle_alpha   90.00000000
_cell_angle_beta   90.00000000
_cell_angle_gamma   90.00000000
_symmetry_Int_Tables_number   1
_chemical_formula_structural   Mg6GaNi
_chemical_formula_sum   'Mg12 Ga2 Ni2'
_cell_volume   305.30659063
_cell_formula_units_Z   2
loop_
 _symmetry_equiv_pos_site_id
 _symmetry_equiv_pos_as_xyz
  1  'x, y, z'
loop_
 _atom_site_type_symbol
 _atom_site_label
 _atom_site_symmetry_multiplicity
 _atom_site_fract_x
 _atom_site_fract_y
 _atom_site_fract_z
 _atom_site_occupancy
  Mg  Mg0  1  0.00000000  0.25721200  0.09193900  1
  Mg  Mg1  1  0.00000000  0.74278800  0.09193900  1
  Mg  Mg2  1  0.00000000  0.50000000  0.83761400  1
  Mg  Mg3  1  0.50000000  0.23502500  0.90583700  1
  Mg  Mg4  1  0.50000000  0.76497500  0.90583700  1
  Mg  Mg5  1  0.50000000  0.50000000  0.66429800  1
  Mg  Mg6  1  0.00000000  0.75721200  0.59193900  1
  Mg  Mg7  1  0.00000000  0.24278800  0.59193900  1
  Mg  Mg8  1  0.00000000  0.00000000  0.33761400  1
  Mg  Mg9  1  0.50000000  0.73502500  0.40583700  1
  Mg  Mg10  1  0.50000000  0.26497500  0.40583700  1
  Mg  Mg11  1  0.50000000  0.00000000  0.16429800  1
  Ga  Ga0  1  0.50000000  0.50000000  0.16879900  1
  Ga  Ga1  1  0.50000000  0.00000000  0.66879900  1
  Ni  Ni0  1  0.00000000  0.50000000  0.33373600  1
  Ni  Ni1  1  0.00000000  0.00000000  0.83373600  1
loop_
_geom_bond_atom_site_label_1
_geom_bond_atom_site_label_2
_geom_bond_distance
_geom_bond_site_symmetry_2
Mg0 Ni0 2.914985 1_555
Mg0 Mg11 2.966473 1_455
Mg0 Mg11 2.966473 1_555
Mg0 Mg8 2.995691 1_555
Mg0 Mg1 2.998109 1_555
Mg0 Mg2 3.026808 1_554
Mg0 Mg3 3.072340 1_554
Mg0 Mg3 3.072340 1_454
Mg0 Ni1 3.106280 1_554
Mg0 Mg1 3.176226 1_545
Mg1 Ni0 2.914985 1_555
Mg1 Mg11 2.966473 1_565
Mg1 Mg11 2.966473 1_465
Mg1 Mg8 2.995691 1_565
Mg1 Mg2 3.026808 1_554
Mg1 Mg4 3.072340 1_554
Mg1 Mg4 3.072340 1_454
Mg1 Ni1 3.106280 1_564
Mg2 Mg4 2.982003 1_455
Mg2 Mg4 2.982003 1_555
Mg2 Mg3 2.982003 1_555
Mg2 Mg3 2.982003 1_455
Mg2 Mg5 2.988185 1_555
Mg2 Mg5 2.988185 1_455
Mg2 Mg6 2.995691 1_555
Mg2 Mg7 2.995691 1_555
Mg2 Ni1 3.087428 1_565
Mg2 Ni1 3.087428 1_555
Mg3 Ni1 2.894760 1_655
Mg3 Ni1 2.894760 1_555
Mg3 Mg4 2.902246 1_545
Mg3 Mg5 2.985512 1_555
Mg3 Mg4 3.272089 1_555
Mg4 Ni1 2.894760 1_565
Mg4 Ni1 2.894760 1_665
Mg4 Mg5 2.985512 1_555
Mg5 Mg6 2.966473 1_655
Mg5 Mg6 2.966473 1_555
Mg5 Mg7 2.966473 1_655
Mg5 Mg7 2.966473 1_555
Mg5 Mg9 3.040868 1_555
Mg6 Ni1 2.914985 1_565
Mg6 Mg7 2.998109 1_565
Mg6 Mg8 3.026808 1_565
Mg6 Mg9 3.072340 1_455
Mg6 Mg9 3.072340 1_555
Mg6 Ni0 3.106280 1_555
Mg6 Mg7 3.176226 1_555
Mg7 Ni1 2.914985 1_555
Mg7 Mg8 3.026808 1_555
Mg7 Ni0 3.106280 1_555
Mg8 Mg9 2.982003 1_545
Mg8 Mg9 2.982003 1_445
Mg8 Ni0 3.087428 1_545
Mg8 Ni0 3.087428 1_555
Mg9 Ni0 2.894760 1_555
Mg9 Ni0 2.894760 1_655
Mg10 Ni0 2.894760 1_655
Mg10 Ni0 2.894760 1_555
Mg10 Mg9 2.902246 1_555
Mg10 Mg8 2.982003 1_655
Mg10 Mg8 2.982003 1_555
Mg10 Mg11 2.985512 1_555
Mg10 Mg5 3.040868 1_555
Mg10 Mg7 3.072340 1_555
Mg10 Mg7 3.072340 1_655
Mg10 Mg9 3.272089 1_545
Mg11 Mg9 2.985512 1_545
Mg11 Mg8 2.988185 1_555
Mg11 Mg8 2.988185 1_655
Mg11 Mg3 3.040868 1_554
Mg11 Mg4 3.040868 1_544
Ga0 Mg9 2.848180 1_555
Ga0 Mg10 2.848180 1_555
Ga0 Mg0 2.932034 1_655
Ga0 Mg1 2.932034 1_555
Ga0 Mg1 2.932034 1_655
Ga0 Mg0 2.932034 1_555
Ga0 Ni0 2.937052 1_555
Ga0 Ni0 2.937052 1_655
Ga0 Mg11 3.087518 1_565
Ga0 Mg11 3.087518 1_555
Ga0 Mg4 3.173113 1_554
Ga0 Mg3 3.173113 1_554
Ga1 Mg3 2.848180 1_555
Ga1 Mg4 2.848180 1_545
Ga1 Mg7 2.932034 1_555
Ga1 Mg7 2.932034 1_655
Ga1 Mg6 2.932034 1_545
Ga1 Mg6 2.932034 1_645
Ga1 Ni1 2.937052 1_555
Ga1 Ni1 2.937052 1_655
Ga1 Mg5 3.087518 1_545
Ga1 Mg5 3.087518 1_555
Ga1 Mg10 3.173113 1_555
Ga1 Mg9 3.173113 1_545
