# generated using pymatgen
data_K2TbF5
_symmetry_space_group_name_H-M   'P 1'
_cell_length_a   6.55630196
_cell_length_b   7.26360588
_cell_length_c   10.71851851
_cell_angle_alpha   90.00024120
_cell_angle_beta   89.99742910
_cell_angle_gamma   89.99972751
_symmetry_Int_Tables_number   1
_chemical_formula_structural   K2TbF5
_chemical_formula_sum   'K8 Tb4 F20'
_cell_volume   510.44150561
_cell_formula_units_Z   4
loop_
 _symmetry_equiv_pos_site_id
 _symmetry_equiv_pos_as_xyz
  1  'x, y, z'
loop_
 _atom_site_type_symbol
 _atom_site_label
 _atom_site_symmetry_multiplicity
 _atom_site_fract_x
 _atom_site_fract_y
 _atom_site_fract_z
 _atom_site_occupancy
  K  K0  1  0.53448487  0.49661024  0.82882348  1
  K  K1  1  0.46550945  0.50339263  0.17117004  1
  K  K2  1  0.03449236  0.50340879  0.67115913  1
  K  K3  1  0.46551652  0.99660711  0.17117389  1
  K  K4  1  0.96551675  0.49661183  0.32882836  1
  K  K5  1  0.53448810  0.00339424  0.82882524  1
  K  K6  1  0.96551833  0.00338186  0.32883976  1
  K  K7  1  0.03448611  0.99659913  0.67116265  1
  Tb  Tb0  1  0.56603674  0.74999776  0.50281200  1
  Tb  Tb1  1  0.43397351  0.24999983  0.49716569  1
  Tb  Tb2  1  0.06602783  0.24999956  0.99718608  1
  Tb  Tb3  1  0.93396845  0.75000001  0.00283656  1
  F  F0  1  0.83603445  0.75000305  0.80471447  1
  F  F1  1  0.16394579  0.24999808  0.19527822  1
  F  F2  1  0.33603723  0.25000098  0.69528957  1
  F  F3  1  0.66394778  0.74999735  0.30472232  1
  F  F4  1  0.36666064  0.75000135  0.66802794  1
  F  F5  1  0.63333360  0.25000002  0.33197770  1
  F  F6  1  0.86664668  0.25000340  0.83197793  1
  F  F7  1  0.13334835  0.75000085  0.16801121  1
  F  F8  1  0.90038509  0.74998874  0.51150505  1
  F  F9  1  0.09962202  0.25000605  0.48849277  1
  F  F10  1  0.40037783  0.24999756  0.98850252  1
  F  F11  1  0.59961144  0.75000028  0.01149632  1
  F  F12  1  0.64809348  0.03471056  0.57760590  1
  F  F13  1  0.35191081  0.96528363  0.42240686  1
  F  F14  1  0.14810424  0.96528627  0.92239088  1
  F  F15  1  0.35191095  0.53471595  0.42240670  1
  F  F16  1  0.85190243  0.03470471  0.07760452  1
  F  F17  1  0.64809544  0.46528835  0.57760707  1
  F  F18  1  0.85190215  0.46529584  0.07760332  1
  F  F19  1  0.14810661  0.53471400  0.92239386  1
loop_
_geom_bond_atom_site_label_1
_geom_bond_atom_site_label_2
_geom_bond_distance
_geom_bond_site_symmetry_2
F0 Tb3 2.218551 1_556
F0 K7 2.636324 1_655
F0 K2 2.636339 1_655
F0 K5 2.713468 1_565
F0 K0 2.713504 1_555
F1 Tb2 2.218213 1_554
F1 K4 2.636312 1_455
F1 K6 2.636402 1_455
F1 K3 2.713577 1_545
F1 K1 2.713579 1_555
F2 Tb1 2.218518 1_555
F2 K0 2.636327 1_555
F2 K5 2.636335 1_555
F2 K2 2.713582 1_555
F2 K7 2.713590 1_545
F3 Tb0 2.218119 1_555
F3 K3 2.636361 1_555
F3 K1 2.636381 1_555
F3 K4 2.713562 1_555
F3 K6 2.713587 1_565
F4 Tb0 2.201015 1_555
F4 K0 2.751151 1_555
F4 K5 2.751177 1_565
F4 K2 2.819960 1_555
F4 K7 2.820003 1_555
F5 Tb1 2.200711 1_555
F5 K3 2.751194 1_545
F5 K1 2.751239 1_555
F5 K4 2.820126 1_555
F5 K6 2.820149 1_555
F6 Tb2 2.201062 1_655
F6 K7 2.751316 1_645
F6 K2 2.751378 1_655
F6 K0 2.819985 1_555
F6 K5 2.819992 1_555
F7 Tb3 2.200768 1_455
F7 K4 2.751250 1_455
F7 K6 2.751267 1_465
F7 K1 2.819988 1_555
F7 K3 2.820029 1_555
F8 Tb0 2.194072 1_555
F8 K2 2.628595 1_655
F8 K7 2.628752 1_655
F8 K4 2.720896 1_555
F8 K6 2.720903 1_565
F9 Tb1 2.194084 1_555
F9 K4 2.628790 1_455
F9 K6 2.628794 1_455
F9 K2 2.720941 1_555
F9 K7 2.721009 1_545
F10 Tb2 2.194070 1_555
F10 K5 2.628818 1_555
F10 K0 2.628885 1_555
F10 K1 2.720945 1_556
F10 K3 2.720967 1_546
F11 Tb3 2.194106 1_555
F11 K3 2.628804 1_555
F11 K1 2.628812 1_555
F11 K0 2.720956 1_554
F11 K5 2.720967 1_564
F12 Tb1 2.271484 1_555
F12 Tb0 2.282313 1_545
F12 K7 2.738629 1_645
F12 K5 2.803029 1_555
F13 Tb0 2.271348 1_555
F13 Tb1 2.282213 1_565
F13 K6 2.738659 1_465
F13 K3 2.803174 1_555
F14 Tb3 2.271516 1_456
F14 Tb2 2.282330 1_565
F14 K5 2.738527 1_565
F14 K7 2.803204 1_555
F15 Tb0 2.271332 1_555
F15 Tb1 2.282214 1_555
F15 K4 2.738719 1_455
F15 K1 2.803197 1_555
F16 Tb2 2.271406 1_654
F16 Tb3 2.282155 1_545
F16 K3 2.738546 1_545
F16 K6 2.803278 1_555
F17 Tb1 2.271497 1_555
F17 Tb0 2.282300 1_555
F17 K2 2.738644 1_655
F17 K0 2.803009 1_555
F18 Tb2 2.271396 1_654
F18 Tb3 2.282158 1_555
F18 K1 2.738573 1_555
F18 K4 2.803166 1_555
F19 Tb3 2.271498 1_456
F19 Tb2 2.282341 1_555
F19 K0 2.738505 1_555
F19 K2 2.803259 1_555
