# generated using pymatgen
data_Sm2Fe12P7
_symmetry_space_group_name_H-M   'P 1'
_cell_length_a   3.65907600
_cell_length_b   9.03084931
_cell_length_c   9.03055062
_cell_angle_alpha   120.08374829
_cell_angle_beta   90.00000000
_cell_angle_gamma   90.00000000
_symmetry_Int_Tables_number   1
_chemical_formula_structural   Sm2Fe12P7
_chemical_formula_sum   'Sm2 Fe12 P7'
_cell_volume   258.21280008
_cell_formula_units_Z   1
loop_
 _symmetry_equiv_pos_site_id
 _symmetry_equiv_pos_as_xyz
  1  'x, y, z'
loop_
 _atom_site_type_symbol
 _atom_site_label
 _atom_site_symmetry_multiplicity
 _atom_site_fract_x
 _atom_site_fract_y
 _atom_site_fract_z
 _atom_site_occupancy
  Sm  Sm0  1  0.00000000  0.66735100  0.33361100  1
  Sm  Sm1  1  0.50000000  0.33301400  0.66650600  1
  Fe  Fe0  1  0.00000000  0.37260700  0.94555300  1
  Fe  Fe1  1  0.00000000  0.05453900  0.42675400  1
  Fe  Fe2  1  0.00000000  0.57264300  0.62698000  1
  Fe  Fe3  1  0.00000000  0.87996500  0.72666700  1
  Fe  Fe4  1  0.00000000  0.27399400  0.15387900  1
  Fe  Fe5  1  0.00000000  0.84598300  0.11963700  1
  Fe  Fe6  1  0.50000000  0.95224700  0.56947600  1
  Fe  Fe7  1  0.50000000  0.43057000  0.38303800  1
  Fe  Fe8  1  0.50000000  0.61742200  0.04779000  1
  Fe  Fe9  1  0.50000000  0.12017300  0.90242200  1
  Fe  Fe10  1  0.50000000  0.09746800  0.21749400  1
  Fe  Fe11  1  0.50000000  0.78239800  0.87998700  1
  P  P0  1  0.00000000  0.11059200  0.70386100  1
  P  P1  1  0.00000000  0.29476600  0.40650000  1
  P  P2  1  0.00000000  0.59273800  0.88855400  1
  P  P3  1  0.50000000  0.71157400  0.60279000  1
  P  P4  1  0.50000000  0.39780500  0.10832500  1
  P  P5  1  0.50000000  0.89209300  0.29004700  1
  P  P6  1  0.00000000  0.00005700  0.00013000  1
loop_
_geom_bond_atom_site_label_1
_geom_bond_atom_site_label_2
_geom_bond_distance
_geom_bond_site_symmetry_2
Fe0 P0 2.277098 1_555
Fe0 P4 2.285677 1_456
Fe0 P4 2.285677 1_556
Fe0 P2 2.289724 1_555
Fe0 Sm1 2.986953 1_555
Fe0 Sm1 2.986953 1_455
Fe0 Sm0 3.164532 1_556
Fe1 P1 2.266670 1_555
Fe1 P5 2.282055 1_545
Fe1 P5 2.282055 1_445
Fe1 P0 2.290948 1_555
Fe1 Sm1 2.983402 1_555
Fe1 Sm1 2.983402 1_455
Fe1 Sm0 3.159967 1_545
Fe2 P2 2.276612 1_555
Fe2 P3 2.289954 1_455
Fe2 P3 2.289954 1_555
Fe2 P1 2.291853 1_555
Fe2 Sm1 2.988668 1_555
Fe2 Sm1 2.988668 1_455
Fe2 Sm0 3.165735 1_555
Fe3 P6 2.142357 1_566
Fe3 P0 2.193246 1_565
Fe3 P3 2.281606 1_555
Fe3 P3 2.281606 1_455
Fe3 Sm0 3.074598 1_555
Fe4 P6 2.145771 1_555
Fe4 P1 2.193290 1_555
Fe4 P4 2.286430 1_555
Fe4 P4 2.286430 1_455
Fe4 Sm0 3.077861 1_555
Fe5 P6 2.146203 1_565
Fe5 P2 2.191020 1_554
Fe5 P5 2.290496 1_455
Fe5 P5 2.290496 1_555
Fe5 Sm0 3.075920 1_555
Fe6 P0 2.263857 1_565
Fe6 P0 2.263857 1_665
Fe6 P5 2.299644 1_555
Fe6 P3 2.338816 1_555
Fe6 Sm0 3.001603 1_655
Fe6 Sm0 3.001603 1_555
Fe6 Sm1 3.093769 1_565
Fe7 P1 2.270843 1_555
Fe7 P1 2.270843 1_655
Fe7 P3 2.308536 1_555
Fe7 P4 2.346498 1_555
Fe7 Sm0 3.012603 1_655
Fe7 Sm0 3.012603 1_555
Fe7 Sm1 3.096792 1_555
Fe8 P2 2.267895 1_654
Fe8 P2 2.267895 1_554
Fe8 P4 2.306380 1_555
Fe8 P5 2.344920 1_555
Fe8 Sm0 3.007645 1_555
Fe8 Sm0 3.007645 1_655
Fe8 Sm1 3.096208 1_554
Fe9 P4 2.251649 1_556
Fe9 P6 2.502399 1_656
Fe9 P6 2.502399 1_556
Fe9 P0 2.532670 1_555
Fe9 P0 2.532670 1_655
Fe10 P5 2.255549 1_545
Fe10 P6 2.498595 1_655
Fe10 P6 2.498595 1_555
Fe10 P1 2.527113 1_555
Fe10 P1 2.527113 1_655
Fe11 P3 2.251706 1_555
Fe11 P6 2.500013 1_666
Fe11 P6 2.500013 1_566
Fe11 P2 2.533711 1_555
Fe11 P2 2.533711 1_655
P0 Sm1 2.859200 1_555
P0 Sm1 2.859200 1_455
P1 Sm1 2.857714 1_555
P1 Sm1 2.857714 1_455
P2 Sm1 2.855593 1_555
P2 Sm1 2.855593 1_455
P3 Sm0 2.905581 1_655
P3 Sm0 2.905581 1_555
P4 Sm0 2.906343 1_555
P4 Sm0 2.906343 1_655
P5 Sm0 2.902031 1_655
P5 Sm0 2.902031 1_555
