# generated using pymatgen
data_K4Ni7(AsO4)6
_symmetry_space_group_name_H-M   'P 1'
_cell_length_a   9.22913949
_cell_length_b   9.22913949
_cell_length_c   6.85747521
_cell_angle_alpha   81.38154452
_cell_angle_beta   81.38154452
_cell_angle_gamma   105.87004726
_symmetry_Int_Tables_number   1
_chemical_formula_structural   K4Ni7(AsO4)6
_chemical_formula_sum   'K4 Ni7 As6 O24'
_cell_volume   544.19363301
_cell_formula_units_Z   1
loop_
 _symmetry_equiv_pos_site_id
 _symmetry_equiv_pos_as_xyz
  1  'x, y, z'
loop_
 _atom_site_type_symbol
 _atom_site_label
 _atom_site_symmetry_multiplicity
 _atom_site_fract_x
 _atom_site_fract_y
 _atom_site_fract_z
 _atom_site_occupancy
  K  K0  1  0.27161800  0.50038100  0.52001700  1
  K  K1  1  0.50038100  0.27161800  0.52001700  1
  K  K2  1  0.69737000  0.69737000  0.53348900  1
  K  K3  1  0.06265300  0.06265300  0.48010600  1
  Ni  Ni0  1  0.00058200  0.00058200  0.99834800  1
  Ni  Ni1  1  0.97630700  0.36387000  0.17630500  1
  Ni  Ni2  1  0.36387000  0.97630700  0.17630500  1
  Ni  Ni3  1  0.01927000  0.63838100  0.82527500  1
  Ni  Ni4  1  0.63838100  0.01927000  0.82527500  1
  Ni  Ni5  1  0.62471500  0.37665100  0.99966600  1
  Ni  Ni6  1  0.37665100  0.62471500  0.99966600  1
  As  As0  1  0.69368200  0.69368200  0.02990800  1
  As  As1  1  0.30509500  0.30509500  0.97836600  1
  As  As2  1  0.71832500  0.09842800  0.27229400  1
  As  As3  1  0.09842800  0.71832500  0.27229400  1
  As  As4  1  0.28388900  0.89622900  0.72579000  1
  As  As5  1  0.89622900  0.28388900  0.72579000  1
  O  O0  1  0.70071000  0.27180900  0.77450100  1
  O  O1  1  0.27180900  0.70071000  0.77450100  1
  O  O2  1  0.29507800  0.72903600  0.22340900  1
  O  O3  1  0.72903600  0.29507800  0.22340900  1
  O  O4  1  0.99139500  0.33529800  0.48167900  1
  O  O5  1  0.33529800  0.99139500  0.48167900  1
  O  O6  1  0.01030100  0.66366000  0.51876900  1
  O  O7  1  0.66366000  0.01030100  0.51876900  1
  O  O8  1  0.78309900  0.59355600  0.88022300  1
  O  O9  1  0.59355600  0.78309900  0.88022300  1
  O  O10  1  0.21527800  0.40685800  0.12433800  1
  O  O11  1  0.40685800  0.21527800  0.12433800  1
  O  O12  1  0.19198500  0.19198500  0.85099100  1
  O  O13  1  0.81189900  0.81189900  0.14454800  1
  O  O14  1  0.91370900  0.12272500  0.19401600  1
  O  O15  1  0.12272500  0.91370900  0.19401600  1
  O  O16  1  0.08846600  0.87666300  0.80376900  1
  O  O17  1  0.87666300  0.08846600  0.80376900  1
  O  O18  1  0.45326700  0.45326700  0.81445500  1
  O  O19  1  0.54450200  0.54450200  0.18842800  1
  O  O20  1  0.99624700  0.40655300  0.86115400  1
  O  O21  1  0.40655300  0.99624700  0.86115400  1
  O  O22  1  0.00402200  0.59483800  0.13472600  1
  O  O23  1  0.59483800  0.00402200  0.13472600  1
loop_
_geom_bond_atom_site_label_1
_geom_bond_atom_site_label_2
_geom_bond_distance
_geom_bond_site_symmetry_2
K0 O2 2.639881 1_555
K0 O4 2.692163 1_455
K0 O1 2.725781 1_555
K0 O18 2.868173 1_555
K0 O20 3.014743 1_455
K0 O19 3.020649 1_555
K0 O10 3.042531 1_555
K0 O6 3.174477 1_555
K0 O12 3.195684 1_555
K1 O3 2.639881 1_555
K1 O5 2.692163 1_545
K1 O0 2.725781 1_555
K1 O18 2.868173 1_555
K1 O21 3.014743 1_545
K1 O19 3.020649 1_555
K1 O11 3.042531 1_555
K1 O7 3.174477 1_555
K1 O12 3.195684 1_555
K2 O13 2.654677 1_555
K2 O8 2.737369 1_555
K2 O9 2.737369 1_555
K2 O18 2.912966 1_555
K2 O6 2.976821 1_655
K2 O7 2.976821 1_565
K2 O19 3.239219 1_555
K3 O15 2.635322 1_545
K3 O14 2.635322 1_455
K3 O17 2.677635 1_455
K3 O16 2.677635 1_545
K3 O4 2.770440 1_455
K3 O5 2.770440 1_545
K3 O12 3.218464 1_555
Ni0 O15 2.083069 1_546
Ni0 O14 2.083069 1_456
Ni0 O13 2.089259 1_446
Ni0 O17 2.094417 1_455
Ni0 O16 2.094417 1_545
Ni0 O12 2.117887 1_555
Ni1 O22 2.046553 1_655
Ni1 O10 2.095740 1_655
Ni1 O4 2.101460 1_555
Ni1 O20 2.108453 1_554
Ni1 O14 2.120471 1_555
Ni1 O3 2.154203 1_555
Ni2 O23 2.046553 1_565
Ni2 O11 2.095740 1_565
Ni2 O5 2.101460 1_555
Ni2 O21 2.108453 1_554
Ni2 O15 2.120471 1_555
Ni2 O2 2.154203 1_555
Ni3 O20 2.064310 1_455
Ni3 O8 2.068331 1_455
Ni3 O22 2.075667 1_556
Ni3 O16 2.090998 1_555
Ni3 O6 2.096384 1_555
Ni3 O1 2.201789 1_555
Ni4 O21 2.064310 1_545
Ni4 O9 2.068331 1_545
Ni4 O23 2.075667 1_556
Ni4 O17 2.090998 1_555
Ni4 O7 2.096384 1_555
Ni4 O0 2.201789 1_555
Ni5 O0 2.075251 1_555
Ni5 O3 2.083466 1_556
Ni5 O8 2.089104 1_555
Ni5 O11 2.111195 1_556
Ni5 O18 2.358366 1_555
Ni5 O19 2.358888 1_556
Ni6 O1 2.075251 1_555
Ni6 O2 2.083466 1_556
Ni6 O9 2.089104 1_555
Ni6 O10 2.111195 1_556
Ni6 O18 2.358366 1_555
Ni6 O19 2.358888 1_556
As0 O13 1.691702 1_555
As0 O9 1.742423 1_554
As0 O8 1.742423 1_554
As0 O19 1.743275 1_555
As1 O12 1.700884 1_555
As1 O11 1.740706 1_556
As1 O10 1.740706 1_556
As1 O18 1.749117 1_555
As2 O7 1.697297 1_555
As2 O23 1.724368 1_555
As2 O14 1.744341 1_555
As2 O3 1.767951 1_555
As3 O6 1.697297 1_555
As3 O22 1.724368 1_555
As3 O15 1.744341 1_555
As3 O2 1.767951 1_555
As4 O5 1.700633 1_555
As4 O21 1.730774 1_555
As4 O16 1.753671 1_555
As4 O1 1.754506 1_555
As5 O4 1.700633 1_555
As5 O20 1.730774 1_555
As5 O17 1.753671 1_555
As5 O0 1.754506 1_555
