# generated using pymatgen
data_CaMg14B
_symmetry_space_group_name_H-M   'P 1'
_cell_length_a   6.35340614
_cell_length_b   6.35340563
_cell_length_c   10.32456461
_cell_angle_alpha   90.00000000
_cell_angle_beta   90.00000000
_cell_angle_gamma   120.00000265
_symmetry_Int_Tables_number   1
_chemical_formula_structural   CaMg14B
_chemical_formula_sum   'Ca1 Mg14 B1'
_cell_volume   360.92383929
_cell_formula_units_Z   1
loop_
 _symmetry_equiv_pos_site_id
 _symmetry_equiv_pos_as_xyz
  1  'x, y, z'
loop_
 _atom_site_type_symbol
 _atom_site_label
 _atom_site_symmetry_multiplicity
 _atom_site_fract_x
 _atom_site_fract_y
 _atom_site_fract_z
 _atom_site_occupancy
  Ca  Ca0  1  0.16666700  0.33333300  0.12500000  1
  Mg  Mg0  1  0.17658547  0.83829223  0.12500000  1
  Mg  Mg1  1  0.15917965  0.82958933  0.62500000  1
  Mg  Mg2  1  0.66170777  0.32341453  0.12500000  1
  Mg  Mg3  1  0.67041067  0.34082035  0.62500000  1
  Mg  Mg4  1  0.66170777  0.83829223  0.12500000  1
  Mg  Mg5  1  0.67041067  0.82958933  0.62500000  1
  Mg  Mg6  1  0.32889978  0.17110022  0.39267506  1
  Mg  Mg7  1  0.32889978  0.17110022  0.85732494  1
  Mg  Mg8  1  0.32889978  0.65780055  0.39267506  1
  Mg  Mg9  1  0.32889978  0.65780055  0.85732494  1
  Mg  Mg10  1  0.84219945  0.17110022  0.39267506  1
  Mg  Mg11  1  0.84219945  0.17110022  0.85732494  1
  Mg  Mg12  1  0.83333300  0.66666700  0.36705358  1
  Mg  Mg13  1  0.83333300  0.66666700  0.88294642  1
  B  B0  1  0.16666700  0.33333300  0.62500000  1
loop_
_geom_bond_atom_site_label_1
_geom_bond_atom_site_label_2
_geom_bond_distance
_geom_bond_site_symmetry_2
Ca0 Mg0 3.177172 1_555
Ca0 Mg4 3.177172 1_555
Ca0 Mg4 3.177172 1_445
Ca0 Mg0 3.177172 1_545
Ca0 Mg2 3.177172 1_455
Ca0 Mg2 3.177172 1_555
Ca0 Mg7 3.290115 1_554
Ca0 Mg6 3.290115 1_555
Ca0 Mg9 3.290121 1_554
Ca0 Mg8 3.290121 1_555
Ca0 Mg11 3.290121 1_454
Ca0 Mg10 3.290121 1_455
Mg0 Mg2 3.082179 1_565
Mg0 Mg4 3.082179 1_555
Mg0 Mg12 3.132488 1_455
Mg0 Mg13 3.132488 1_454
Mg0 Mg2 3.271227 1_455
Mg0 Mg4 3.271227 1_455
Mg0 Mg9 3.316449 1_554
Mg0 Mg8 3.316449 1_555
Mg0 Mg7 3.316455 1_564
Mg0 Mg6 3.316455 1_565
Mg1 Mg8 3.047036 1_555
Mg1 Mg9 3.047036 1_555
Mg1 Mg6 3.047043 1_565
Mg1 Mg7 3.047043 1_565
Mg1 Mg3 3.105348 1_455
Mg1 Mg5 3.105348 1_455
Mg1 Mg13 3.210445 1_455
Mg1 Mg12 3.210445 1_455
Mg1 Mg3 3.248058 1_565
Mg1 Mg5 3.248058 1_555
Mg2 Mg4 3.082179 1_545
Mg2 Mg4 3.271227 1_555
Mg2 Mg7 3.316455 1_554
Mg2 Mg6 3.316455 1_555
Mg3 Mg6 3.047043 1_555
Mg3 Mg7 3.047043 1_555
Mg3 Mg5 3.105348 1_555
Mg3 Mg5 3.248058 1_545
Mg4 Mg9 3.316455 1_554
Mg4 Mg8 3.316455 1_555
Mg5 Mg8 3.047043 1_555
Mg5 Mg9 3.047043 1_555
Mg6 Mg8 3.092205 1_555
Mg6 Mg8 3.261201 1_545
Mg7 Mg9 3.092205 1_555
Mg7 Mg9 3.261201 1_545
Mg10 Mg3 3.047036 1_555
Mg10 Mg5 3.047042 1_545
Mg10 Mg8 3.092205 1_655
Mg10 Mg6 3.092205 1_655
Mg10 Mg12 3.188071 1_545
Mg10 Mg12 3.188071 1_555
Mg10 Mg8 3.261201 1_545
Mg10 Mg6 3.261201 1_555
Mg10 Mg2 3.316449 1_555
Mg10 Mg4 3.316455 1_545
Mg11 Mg3 3.047036 1_555
Mg11 Mg5 3.047042 1_545
Mg11 Mg9 3.092205 1_655
Mg11 Mg7 3.092205 1_655
Mg11 Mg13 3.188071 1_545
Mg11 Mg13 3.188071 1_555
Mg11 Mg9 3.261201 1_545
Mg11 Mg7 3.261201 1_555
Mg11 Mg2 3.316449 1_556
Mg11 Mg4 3.316455 1_546
Mg12 Mg4 3.132481 1_555
Mg12 Mg2 3.132488 1_555
Mg12 Mg6 3.188071 1_665
Mg12 Mg6 3.188071 1_555
Mg12 Mg8 3.188071 1_555
Mg12 Mg8 3.188071 1_655
Mg12 Mg5 3.210439 1_555
Mg12 Mg3 3.210445 1_555
Mg13 Mg4 3.132481 1_556
Mg13 Mg2 3.132488 1_556
Mg13 Mg7 3.188071 1_665
Mg13 Mg7 3.188071 1_555
Mg13 Mg9 3.188071 1_555
Mg13 Mg9 3.188071 1_655
Mg13 Mg5 3.210439 1_555
Mg13 Mg3 3.210445 1_555
B0 Mg6 2.990110 1_555
B0 Mg7 2.990110 1_555
B0 Mg8 2.990116 1_555
B0 Mg9 2.990116 1_555
B0 Mg10 2.990117 1_455
B0 Mg11 2.990117 1_455
