# generated using pymatgen
data_Dy2Co3Si5
_symmetry_space_group_name_H-M   'P 1'
_cell_length_a   7.79254410
_cell_length_b   7.79254410
_cell_length_c   5.47279732
_cell_angle_alpha   70.79308037
_cell_angle_beta   70.79308037
_cell_angle_gamma   93.49623787
_symmetry_Int_Tables_number   1
_chemical_formula_structural   Dy2Co3Si5
_chemical_formula_sum   'Dy4 Co6 Si10'
_cell_volume   290.97735655
_cell_formula_units_Z   2
loop_
 _symmetry_equiv_pos_site_id
 _symmetry_equiv_pos_as_xyz
  1  'x, y, z'
loop_
 _atom_site_type_symbol
 _atom_site_label
 _atom_site_symmetry_multiplicity
 _atom_site_fract_x
 _atom_site_fract_y
 _atom_site_fract_z
 _atom_site_occupancy
  Dy  Dy0  1  0.86938623  0.59835278  0.76405443  1
  Dy  Dy1  1  0.40164722  0.13061377  0.73594557  1
  Dy  Dy2  1  0.13061377  0.40164722  0.23594557  1
  Dy  Dy3  1  0.59835278  0.86938623  0.26405443  1
  Co  Co0  1  0.53889288  0.26315553  0.12684387  1
  Co  Co1  1  0.99613989  0.00386011  0.25000000  1
  Co  Co2  1  0.26315553  0.53889288  0.62684387  1
  Co  Co3  1  0.46110712  0.73684447  0.87315613  1
  Co  Co4  1  0.73684447  0.46110712  0.37315613  1
  Co  Co5  1  0.00386011  0.99613989  0.75000000  1
  Si  Si0  1  0.76956692  0.23043308  0.75000000  1
  Si  Si1  1  0.23043308  0.76956692  0.25000000  1
  Si  Si2  1  0.51159112  0.48840888  0.75000000  1
  Si  Si3  1  0.48840888  0.51159112  0.25000000  1
  Si  Si4  1  0.21515002  0.78484998  0.75000000  1
  Si  Si5  1  0.78484998  0.21515002  0.25000000  1
  Si  Si6  1  0.06216746  0.26123588  0.83611921  1
  Si  Si7  1  0.26123588  0.06216746  0.33611921  1
  Si  Si8  1  0.93783254  0.73876412  0.16388079  1
  Si  Si9  1  0.73876412  0.93783254  0.66388079  1
loop_
_geom_bond_atom_site_label_1
_geom_bond_atom_site_label_2
_geom_bond_distance
_geom_bond_site_symmetry_2
Dy0 Si9 2.841862 1_555
Dy0 Si2 2.899437 1_555
Dy0 Si8 2.922633 1_556
Dy0 Si8 2.946511 1_555
Dy0 Si4 2.947906 1_655
Dy0 Si0 2.956905 1_555
Dy0 Si1 3.078161 1_655
Dy0 Si6 3.082678 1_655
Dy0 Si3 3.117831 1_556
Dy0 Si5 3.131434 1_556
Dy1 Si6 2.841862 1_555
Dy1 Si2 2.899437 1_555
Dy1 Si7 2.922633 1_555
Dy1 Si7 2.946511 1_556
Dy1 Si4 2.947906 1_545
Dy1 Si0 2.956905 1_555
Dy1 Si1 3.078161 1_546
Dy1 Si9 3.082678 1_545
Dy1 Si3 3.117831 1_555
Dy1 Si5 3.131434 1_555
Dy2 Si7 2.841862 1_555
Dy2 Si3 2.899437 1_555
Dy2 Si6 2.922633 1_554
Dy2 Si6 2.946511 1_555
Dy2 Si5 2.947906 1_455
Dy2 Si1 2.956905 1_555
Dy2 Si0 3.078161 1_455
Dy2 Si8 3.082678 1_455
Dy2 Si2 3.117831 1_554
Dy2 Si4 3.131434 1_554
Dy3 Si8 2.841862 1_555
Dy3 Si3 2.899437 1_555
Dy3 Si9 2.922633 1_555
Dy3 Si9 2.946511 1_554
Dy3 Si5 2.947906 1_565
Dy3 Si1 2.956905 1_555
Dy3 Si0 3.078161 1_564
Dy3 Si7 3.082678 1_565
Dy3 Si2 3.117831 1_555
Dy3 Si4 3.131434 1_555
Co0 Si5 2.244822 1_555
Co0 Si3 2.265811 1_555
Co0 Si7 2.285196 1_555
Co0 Si2 2.309142 1_554
Co0 Si0 2.347834 1_554
Co0 Dy1 2.928642 1_555
Co0 Dy3 3.013357 1_545
Co0 Dy1 3.100271 1_554
Co0 Dy0 3.130547 1_554
Co0 Dy2 3.352043 1_555
Co1 Si8 2.315821 1_545
Co1 Si7 2.315821 1_655
Co1 Si9 2.352894 1_545
Co1 Si6 2.352894 1_654
Co1 Si5 2.398431 1_555
Co1 Si1 2.659550 1_645
Co1 Co5 2.737802 1_645
Co1 Co5 2.737802 1_644
Co1 Dy2 3.179074 1_655
Co1 Dy3 3.179074 1_545
Co1 Dy0 3.288969 1_545
Co1 Dy1 3.288969 1_654
Co2 Si4 2.244822 1_555
Co2 Si2 2.265811 1_555
Co2 Si6 2.285196 1_555
Co2 Si3 2.309142 1_555
Co2 Si1 2.347834 1_555
Co2 Dy2 2.928642 1_556
Co2 Dy0 3.013357 1_455
Co2 Dy2 3.100271 1_555
Co2 Dy3 3.130547 1_555
Co2 Dy1 3.352043 1_555
Co3 Si4 2.244822 1_555
Co3 Si2 2.265811 1_555
Co3 Si9 2.285196 1_555
Co3 Si3 2.309142 1_556
Co3 Si1 2.347834 1_556
Co3 Dy3 2.928642 1_555
Co3 Dy1 3.013357 1_565
Co3 Dy3 3.100271 1_556
Co3 Dy2 3.130547 1_556
Co3 Dy0 3.352043 1_555
Co4 Si5 2.244822 1_555
Co4 Si3 2.265811 1_555
Co4 Si8 2.285196 1_555
Co4 Si2 2.309142 1_555
Co4 Si0 2.347834 1_555
Co4 Dy0 2.928642 1_554
Co4 Dy2 3.013357 1_655
Co4 Dy0 3.100271 1_555
Co4 Dy1 3.130547 1_555
Co4 Dy3 3.352043 1_555
Co5 Si9 2.315821 1_455
Co5 Si6 2.315821 1_565
Co5 Si8 2.352894 1_456
Co5 Si7 2.352894 1_565
Co5 Si4 2.398431 1_555
Co5 Si0 2.659550 1_465
Co5 Dy0 3.179074 1_455
Co5 Dy1 3.179074 1_565
Co5 Dy3 3.288969 1_456
Co5 Dy2 3.288969 1_565
Si0 Si6 2.488649 1_655
Si0 Si9 2.488649 1_545
Si0 Si5 2.741892 1_555
Si0 Si5 2.741892 1_556
Si1 Si7 2.488649 1_565
Si1 Si8 2.488649 1_455
Si1 Si4 2.741892 1_555
Si1 Si4 2.741892 1_554
Si4 Si8 2.465570 1_456
Si4 Si7 2.465570 1_565
Si5 Si6 2.465570 1_654
Si5 Si9 2.465570 1_545
