# generated using pymatgen
data_Ta4NiTe4
_symmetry_space_group_name_H-M   'P 1'
_cell_length_a   4.75717000
_cell_length_b   10.78123700
_cell_length_c   18.65801400
_cell_angle_alpha   90.00000000
_cell_angle_beta   90.00000000
_cell_angle_gamma   90.00000000
_symmetry_Int_Tables_number   1
_chemical_formula_structural   Ta4NiTe4
_chemical_formula_sum   'Ta16 Ni4 Te16'
_cell_volume   956.93552859
_cell_formula_units_Z   4
loop_
 _symmetry_equiv_pos_site_id
 _symmetry_equiv_pos_as_xyz
  1  'x, y, z'
loop_
 _atom_site_type_symbol
 _atom_site_label
 _atom_site_symmetry_multiplicity
 _atom_site_fract_x
 _atom_site_fract_y
 _atom_site_fract_z
 _atom_site_occupancy
  Ta  Ta0  1  0.50000000  0.56618300  0.38094000  1
  Ta  Ta1  1  0.50000000  0.43381700  0.61906000  1
  Ta  Ta2  1  0.50000000  0.06618300  0.11906000  1
  Ta  Ta3  1  0.50000000  0.93381700  0.88094000  1
  Ta  Ta4  1  0.50000000  0.70802500  0.53694900  1
  Ta  Ta5  1  0.50000000  0.29197500  0.46305100  1
  Ta  Ta6  1  0.50000000  0.20802500  0.96305100  1
  Ta  Ta7  1  0.50000000  0.79197500  0.03694900  1
  Ta  Ta8  1  0.00000000  0.69281300  0.44194200  1
  Ta  Ta9  1  0.00000000  0.30718700  0.55805800  1
  Ta  Ta10  1  0.00000000  0.19281300  0.05805800  1
  Ta  Ta11  1  0.00000000  0.80718700  0.94194200  1
  Ta  Ta12  1  0.00000000  0.39902100  0.38957000  1
  Ta  Ta13  1  0.00000000  0.60097900  0.61043000  1
  Ta  Ta14  1  0.00000000  0.89902100  0.11043000  1
  Ta  Ta15  1  0.00000000  0.10097900  0.88957000  1
  Ni  Ni0  1  0.25025200  0.50000000  0.50000000  1
  Ni  Ni1  1  0.74974800  0.00000000  0.00000000  1
  Ni  Ni2  1  0.74974800  0.50000000  0.50000000  1
  Ni  Ni3  1  0.25025200  0.00000000  0.00000000  1
  Te  Te0  1  0.00000000  0.85557200  0.56485800  1
  Te  Te1  1  0.00000000  0.14442800  0.43514200  1
  Te  Te2  1  0.00000000  0.35557200  0.93514200  1
  Te  Te3  1  0.00000000  0.64442800  0.06485800  1
  Te  Te4  1  0.50000000  0.32941500  0.31114600  1
  Te  Te5  1  0.50000000  0.67058500  0.68885400  1
  Te  Te6  1  0.50000000  0.82941500  0.18885400  1
  Te  Te7  1  0.50000000  0.17058500  0.81114600  1
  Te  Te8  1  0.50000000  0.83112600  0.39987500  1
  Te  Te9  1  0.50000000  0.16887400  0.60012500  1
  Te  Te10  1  0.50000000  0.33112600  0.10012500  1
  Te  Te11  1  0.50000000  0.66887400  0.89987500  1
  Te  Te12  1  0.00000000  0.60967700  0.29547800  1
  Te  Te13  1  0.00000000  0.39032300  0.70452200  1
  Te  Te14  1  0.00000000  0.10967700  0.20452200  1
  Te  Te15  1  0.00000000  0.89032300  0.79547800  1
loop_
_geom_bond_atom_site_label_1
_geom_bond_atom_site_label_2
_geom_bond_distance
_geom_bond_site_symmetry_2
Ta0 Te4 2.865624 1_555
Ta0 Te8 2.878178 1_555
Ta0 Te12 2.901749 1_555
Ta0 Te12 2.901749 1_655
Ta1 Te5 2.865624 1_555
Ta1 Te9 2.878178 1_555
Ta1 Te13 2.901749 1_655
Ta1 Te13 2.901749 1_555
Ta2 Te6 2.865624 1_545
Ta2 Te10 2.878178 1_555
Ta2 Te14 2.901749 1_555
Ta2 Te14 2.901749 1_655
Ta3 Te7 2.865624 1_565
Ta3 Te11 2.878178 1_555
Ta3 Te15 2.901749 1_555
Ta3 Te15 2.901749 1_655
Ta4 Te5 2.862845 1_555
Ta4 Te8 2.881382 1_555
Ta4 Te0 2.908483 1_655
Ta4 Te0 2.908483 1_555
Ta5 Te4 2.862845 1_555
Ta5 Te9 2.881382 1_555
Ta5 Te1 2.908483 1_655
Ta5 Te1 2.908483 1_555
Ta6 Te7 2.862845 1_555
Ta6 Te10 2.881382 1_556
Ta6 Te2 2.908483 1_555
Ta6 Te2 2.908483 1_655
Ta7 Te6 2.862845 1_555
Ta7 Te11 2.881382 1_554
Ta7 Te3 2.908483 1_655
Ta7 Te3 2.908483 1_555
Ta8 Te12 2.875964 1_555
Ta8 Te0 2.887674 1_555
Ta8 Te8 2.915021 1_455
Ta8 Te8 2.915021 1_555
Ta9 Te13 2.875964 1_555
Ta9 Te1 2.887674 1_555
Ta9 Te9 2.915021 1_555
Ta9 Te9 2.915021 1_455
Ta10 Te14 2.875964 1_555
Ta10 Te2 2.887674 1_554
Ta10 Te10 2.915021 1_455
Ta10 Te10 2.915021 1_555
Ta11 Te15 2.875964 1_555
Ta11 Te3 2.887674 1_556
Ta11 Te11 2.915021 1_555
Ta11 Te11 2.915021 1_455
Ta12 Te12 2.870552 1_555
Ta12 Te1 2.873510 1_555
Ta12 Te4 2.891692 1_455
Ta12 Te4 2.891692 1_555
Ta13 Te13 2.870552 1_555
Ta13 Te0 2.873510 1_555
Ta13 Te5 2.891692 1_555
Ta13 Te5 2.891692 1_455
Ta14 Te14 2.870552 1_565
Ta14 Te3 2.873510 1_555
Ta14 Te6 2.891692 1_555
Ta14 Te6 2.891692 1_455
Ta15 Te15 2.870552 1_545
Ta15 Te2 2.873510 1_555
Ta15 Te7 2.891692 1_455
Ta15 Te7 2.891692 1_555
Ni0 Ni2 2.376187 1_555
Ni0 Ni2 2.380983 1_455
Ni0 Ta12 2.616822 1_555
Ni0 Ta13 2.616822 1_555
Ni0 Ta0 2.618286 1_555
Ni0 Ta1 2.618286 1_555
Ni0 Ta8 2.629058 1_555
Ni0 Ta9 2.629058 1_555
Ni0 Ta5 2.629988 1_555
Ni0 Ta4 2.629988 1_555
Ni1 Ni3 2.376187 1_555
Ni1 Ni3 2.380983 1_655
Ni1 Ta14 2.616822 1_645
Ni1 Ta15 2.616822 1_654
Ni1 Ta2 2.618286 1_555
Ni1 Ta3 2.618286 1_544
Ni1 Ta10 2.629058 1_655
Ni1 Ta11 2.629058 1_644
Ni1 Ta6 2.629988 1_554
Ni1 Ta7 2.629988 1_545
Ni2 Ta12 2.616822 1_655
Ni2 Ta13 2.616822 1_655
Ni2 Ta0 2.618286 1_555
Ni2 Ta1 2.618286 1_555
Ni2 Ta8 2.629058 1_655
Ni2 Ta9 2.629058 1_655
Ni2 Ta5 2.629988 1_555
Ni2 Ta4 2.629988 1_555
Ni3 Ta15 2.616822 1_554
Ni3 Ta14 2.616822 1_545
Ni3 Ta2 2.618286 1_555
Ni3 Ta3 2.618286 1_544
Ni3 Ta10 2.629058 1_555
Ni3 Ta11 2.629058 1_544
Ni3 Ta6 2.629988 1_554
Ni3 Ta7 2.629988 1_545
