# generated using pymatgen
data_TbEu2NbO6
_symmetry_space_group_name_H-M   'P 1'
_cell_length_a   8.34124217
_cell_length_b   8.34124217
_cell_length_c   8.34124217
_cell_angle_alpha   90.00000000
_cell_angle_beta   90.00000000
_cell_angle_gamma   90.00000000
_symmetry_Int_Tables_number   1
_chemical_formula_structural   TbEu2NbO6
_chemical_formula_sum   'Tb4 Eu8 Nb4 O24'
_cell_volume   580.35294225
_cell_formula_units_Z   4
loop_
 _symmetry_equiv_pos_site_id
 _symmetry_equiv_pos_as_xyz
  1  'x, y, z'
loop_
 _atom_site_type_symbol
 _atom_site_label
 _atom_site_symmetry_multiplicity
 _atom_site_fract_x
 _atom_site_fract_y
 _atom_site_fract_z
 _atom_site_occupancy
  Tb  Tb0  1  0.25000000  0.25000000  0.25000000  1
  Tb  Tb1  1  0.25000000  0.75000000  0.75000000  1
  Tb  Tb2  1  0.75000000  0.25000000  0.75000000  1
  Tb  Tb3  1  0.75000000  0.75000000  0.25000000  1
  Eu  Eu0  1  0.50000000  0.50000000  0.50000000  1
  Eu  Eu1  1  -0.00000000  0.00000000  -0.00000000  1
  Eu  Eu2  1  -0.00000000  0.00000000  0.50000000  1
  Eu  Eu3  1  -0.00000000  0.50000000  -0.00000000  1
  Eu  Eu4  1  0.50000000  0.00000000  -0.00000000  1
  Eu  Eu5  1  0.50000000  0.50000000  -0.00000000  1
  Eu  Eu6  1  0.50000000  0.00000000  0.50000000  1
  Eu  Eu7  1  -0.00000000  0.50000000  0.50000000  1
  Nb  Nb0  1  0.75000000  0.75000000  0.75000000  1
  Nb  Nb1  1  0.75000000  0.25000000  0.25000000  1
  Nb  Nb2  1  0.25000000  0.75000000  0.25000000  1
  Nb  Nb3  1  0.25000000  0.25000000  0.75000000  1
  O  O0  1  0.21359139  0.29344980  0.51353100  1
  O  O1  1  0.21359139  0.70655020  0.48646900  1
  O  O2  1  0.78640861  0.29344980  0.48646900  1
  O  O3  1  0.78640861  0.70655020  0.51353100  1
  O  O4  1  0.29344980  0.51353100  0.21359139  1
  O  O5  1  0.70655020  0.48646900  0.21359139  1
  O  O6  1  0.29344980  0.48646900  0.78640861  1
  O  O7  1  0.70655020  0.51353100  0.78640861  1
  O  O8  1  0.51353100  0.21359139  0.29344980  1
  O  O9  1  0.48646900  0.21359139  0.70655020  1
  O  O10  1  0.48646900  0.78640861  0.29344980  1
  O  O11  1  0.51353100  0.78640861  0.70655020  1
  O  O12  1  0.28640861  0.20655020  0.98646900  1
  O  O13  1  0.28640861  0.79344980  0.01353100  1
  O  O14  1  0.71359139  0.20655020  0.01353100  1
  O  O15  1  0.71359139  0.79344980  0.98646900  1
  O  O16  1  0.20655020  0.98646900  0.28640861  1
  O  O17  1  0.79344980  0.01353100  0.28640861  1
  O  O18  1  0.20655020  0.01353100  0.71359139  1
  O  O19  1  0.79344980  0.98646900  0.71359139  1
  O  O20  1  0.98646900  0.28640861  0.20655020  1
  O  O21  1  0.01353100  0.28640861  0.79344980  1
  O  O22  1  0.01353100  0.71359139  0.20655020  1
  O  O23  1  0.98646900  0.71359139  0.79344980  1
loop_
_geom_bond_atom_site_label_1
_geom_bond_atom_site_label_2
_geom_bond_distance
_geom_bond_site_symmetry_2
Eu0 O10 2.947611 1_555
Eu0 O3 2.947611 1_555
Eu0 O11 2.947611 1_555
Eu0 O6 2.947611 1_555
Eu0 O7 2.947611 1_555
Eu0 O8 2.947611 1_555
Eu0 O5 2.947611 1_555
Eu0 O9 2.947611 1_555
Eu0 O2 2.947611 1_555
Eu0 O0 2.947611 1_555
Eu0 O4 2.947611 1_555
Eu0 O1 2.947611 1_555
Eu1 O15 2.947611 1_444
Eu1 O19 2.947611 1_444
Eu1 O14 2.947611 1_455
Eu1 O22 2.947611 1_545
Eu1 O18 2.947611 1_554
Eu1 O23 2.947611 1_444
Eu1 O12 2.947611 1_554
Eu1 O21 2.947611 1_554
Eu1 O16 2.947611 1_545
Eu1 O20 2.947611 1_455
Eu1 O17 2.947611 1_455
Eu1 O13 2.947611 1_545
Eu2 O17 2.480974 1_455
Eu2 O16 2.480974 1_545
Eu2 O18 2.480974 1_555
Eu2 O19 2.480974 1_445
Eu2 O0 3.029573 1_555
Eu2 O1 3.029573 1_545
Eu2 O2 3.029573 1_455
Eu2 O3 3.029573 1_445
Eu3 O20 2.480974 1_455
Eu3 O21 2.480974 1_554
Eu3 O23 2.480974 1_454
Eu3 O22 2.480974 1_555
Eu3 O5 3.029573 1_455
Eu3 O6 3.029573 1_554
Eu3 O7 3.029573 1_454
Eu3 O4 3.029573 1_555
Eu4 O12 2.480974 1_554
Eu4 O13 2.480974 1_545
Eu4 O14 2.480974 1_555
Eu4 O15 2.480974 1_544
Eu4 O9 3.029573 1_554
Eu4 O11 3.029573 1_544
Eu4 O8 3.029573 1_555
Eu4 O10 3.029573 1_545
Eu5 O4 2.480974 1_555
Eu5 O5 2.480974 1_555
Eu5 O6 2.480974 1_554
Eu5 O7 2.480974 1_554
Eu5 O12 3.029573 1_554
Eu5 O14 3.029573 1_555
Eu5 O15 3.029573 1_554
Eu5 O13 3.029573 1_555
Eu6 O9 2.480974 1_555
Eu6 O8 2.480974 1_555
Eu6 O10 2.480974 1_545
Eu6 O11 2.480974 1_545
Eu6 O16 3.029573 1_545
Eu6 O18 3.029573 1_555
Eu6 O19 3.029573 1_545
Eu6 O17 3.029573 1_555
Eu7 O1 2.480974 1_555
Eu7 O0 2.480974 1_555
Eu7 O3 2.480974 1_455
Eu7 O2 2.480974 1_455
Eu7 O21 3.029573 1_555
Eu7 O22 3.029573 1_555
Eu7 O20 3.029573 1_455
Eu7 O23 3.029573 1_455
Nb0 O19 2.028330 1_555
Nb0 O3 2.028330 1_555
Nb0 O23 2.028330 1_555
Nb0 O11 2.028330 1_555
Nb0 O15 2.028330 1_555
Nb0 O7 2.028330 1_555
Nb1 O5 2.028330 1_555
Nb1 O2 2.028330 1_555
Nb1 O17 2.028330 1_555
Nb1 O14 2.028330 1_555
Nb1 O8 2.028330 1_555
Nb1 O20 2.028330 1_555
Nb2 O1 2.028330 1_555
Nb2 O10 2.028330 1_555
Nb2 O13 2.028330 1_555
Nb2 O4 2.028330 1_555
Nb2 O22 2.028330 1_555
Nb2 O16 2.028330 1_555
Nb3 O6 2.028330 1_555
Nb3 O9 2.028330 1_555
Nb3 O0 2.028330 1_555
Nb3 O21 2.028330 1_555
Nb3 O18 2.028330 1_555
Nb3 O12 2.028330 1_555
O0 Tb0 2.248457 1_555
O1 Tb1 2.248457 1_555
O2 Tb2 2.248457 1_555
O3 Tb3 2.248457 1_555
O4 Tb0 2.248457 1_555
O5 Tb3 2.248457 1_555
O6 Tb1 2.248457 1_555
O7 Tb2 2.248457 1_555
O8 Tb0 2.248457 1_555
O9 Tb2 2.248457 1_555
O10 Tb3 2.248457 1_555
O11 Tb1 2.248457 1_555
O12 Tb0 2.248457 1_556
O13 Tb1 2.248457 1_554
O14 Tb2 2.248457 1_554
O15 Tb3 2.248457 1_556
O16 Tb0 2.248457 1_565
O17 Tb3 2.248457 1_545
O18 Tb1 2.248457 1_545
O19 Tb2 2.248457 1_565
O20 Tb0 2.248457 1_655
O21 Tb2 2.248457 1_455
O22 Tb3 2.248457 1_455
O23 Tb1 2.248457 1_655
