# generated using pymatgen
data_Zr8Ni61B18
_symmetry_space_group_name_H-M   'P 1'
_cell_length_a   7.52045605
_cell_length_b   7.52045605
_cell_length_c   18.53253800
_cell_angle_alpha   90.00000000
_cell_angle_beta   90.00000000
_cell_angle_gamma   120.00000043
_symmetry_Int_Tables_number   1
_chemical_formula_structural   Zr8Ni61B18
_chemical_formula_sum   'Zr8 Ni61 B18'
_cell_volume   907.72413758
_cell_formula_units_Z   1
loop_
 _symmetry_equiv_pos_site_id
 _symmetry_equiv_pos_as_xyz
  1  'x, y, z'
loop_
 _atom_site_type_symbol
 _atom_site_label
 _atom_site_symmetry_multiplicity
 _atom_site_fract_x
 _atom_site_fract_y
 _atom_site_fract_z
 _atom_site_occupancy
  Zr  Zr0  1  0.00000000  0.00000000  0.24922000  1
  Zr  Zr1  1  0.33333300  0.66666700  0.91729500  1
  Zr  Zr2  1  0.66666700  0.33333300  0.58332000  1
  Zr  Zr3  1  0.66666700  0.33333300  0.08270500  1
  Zr  Zr4  1  0.00000000  0.00000000  0.75078000  1
  Zr  Zr5  1  0.33333300  0.66666700  0.41668000  1
  Zr  Zr6  1  0.33333300  0.66666700  0.66793800  1
  Zr  Zr7  1  0.66666700  0.33333300  0.33206200  1
  Ni  Ni0  1  0.01003300  0.67671800  0.33307700  1
  Ni  Ni1  1  0.33840500  0.33840500  0.00000000  1
  Ni  Ni2  1  0.67671800  0.01003300  0.66692300  1
  Ni  Ni3  1  0.78323500  0.56647000  0.21593900  1
  Ni  Ni4  1  0.11093100  0.22186100  0.88962900  1
  Ni  Ni5  1  0.44828400  0.89656900  0.55218700  1
  Ni  Ni6  1  0.00000000  0.33840500  0.00000000  1
  Ni  Ni7  1  0.33331500  0.01003300  0.66692300  1
  Ni  Ni8  1  0.66668500  0.67671800  0.33307700  1
  Ni  Ni9  1  0.78323500  0.21676500  0.21593900  1
  Ni  Ni10  1  0.11093100  0.88906900  0.88962900  1
  Ni  Ni11  1  0.44828400  0.55171600  0.55218700  1
  Ni  Ni12  1  0.01003300  0.33331500  0.33307700  1
  Ni  Ni13  1  0.33840500  0.00000000  0.00000000  1
  Ni  Ni14  1  0.67671800  0.66668500  0.66692300  1
  Ni  Ni15  1  0.66668500  0.98996700  0.33307700  1
  Ni  Ni16  1  0.00000000  0.66159500  0.00000000  1
  Ni  Ni17  1  0.33331500  0.32328200  0.66692300  1
  Ni  Ni18  1  0.88906900  0.11093100  0.11037100  1
  Ni  Ni19  1  0.21676500  0.78323500  0.78406100  1
  Ni  Ni20  1  0.55171600  0.44828400  0.44781300  1
  Ni  Ni21  1  0.88906900  0.77813900  0.11037100  1
  Ni  Ni22  1  0.21676500  0.43353000  0.78406100  1
  Ni  Ni23  1  0.55171600  0.10343100  0.44781300  1
  Ni  Ni24  1  0.22186100  0.11093100  0.11037100  1
  Ni  Ni25  1  0.56647000  0.78323500  0.78406100  1
  Ni  Ni26  1  0.89656900  0.44828400  0.44781300  1
  Ni  Ni27  1  0.66159500  0.66159500  0.00000000  1
  Ni  Ni28  1  0.98996700  0.32328200  0.66692300  1
  Ni  Ni29  1  0.32328200  0.98996700  0.33307700  1
  Ni  Ni30  1  0.32328200  0.33331500  0.33307700  1
  Ni  Ni31  1  0.66159500  0.00000000  0.00000000  1
  Ni  Ni32  1  0.98996700  0.66668500  0.66692300  1
  Ni  Ni33  1  0.43353000  0.21676500  0.21593900  1
  Ni  Ni34  1  0.77813900  0.88906900  0.88962900  1
  Ni  Ni35  1  0.10343100  0.55171600  0.55218700  1
  Ni  Ni36  1  0.18218200  0.36436400  0.20413500  1
  Ni  Ni37  1  0.51516200  0.03032400  0.87147600  1
  Ni  Ni38  1  0.84879000  0.69757900  0.53788600  1
  Ni  Ni39  1  0.18218200  0.81781800  0.20413500  1
  Ni  Ni40  1  0.51516200  0.48483800  0.87147600  1
  Ni  Ni41  1  0.84879000  0.15121000  0.53788600  1
  Ni  Ni42  1  0.33333300  0.66666700  0.05307100  1
  Ni  Ni43  1  0.66666700  0.33333300  0.71967800  1
  Ni  Ni44  1  0.00000000  0.00000000  0.38592800  1
  Ni  Ni45  1  0.63563600  0.81781800  0.20413500  1
  Ni  Ni46  1  0.96967600  0.48483800  0.87147600  1
  Ni  Ni47  1  0.30242100  0.15121000  0.53788600  1
  Ni  Ni48  1  0.48483800  0.96967600  0.12852400  1
  Ni  Ni49  1  0.81781800  0.63563600  0.79586500  1
  Ni  Ni50  1  0.15121000  0.30242100  0.46211400  1
  Ni  Ni51  1  0.48483800  0.51516200  0.12852400  1
  Ni  Ni52  1  0.81781800  0.18218200  0.79586500  1
  Ni  Ni53  1  0.15121000  0.84879000  0.46211400  1
  Ni  Ni54  1  0.33333300  0.66666700  0.28032200  1
  Ni  Ni55  1  0.66666700  0.33333300  0.94692900  1
  Ni  Ni56  1  0.00000000  0.00000000  0.61407200  1
  Ni  Ni57  1  0.03032400  0.51516200  0.12852400  1
  Ni  Ni58  1  0.36436400  0.18218200  0.79586500  1
  Ni  Ni59  1  0.69757900  0.84879000  0.46211400  1
  Ni  Ni60  1  0.00000000  0.00000000  0.00000000  1
  B  B0  1  0.49061600  0.50938400  0.24459300  1
  B  B1  1  0.82122800  0.17877200  0.91103200  1
  B  B2  1  0.15683300  0.84316700  0.57810800  1
  B  B3  1  0.17877200  0.35754400  0.08896800  1
  B  B4  1  0.50938400  0.01876800  0.75540700  1
  B  B5  1  0.84316700  0.68633400  0.42189200  1
  B  B6  1  0.01876800  0.50938400  0.24459300  1
  B  B7  1  0.35754400  0.17877200  0.91103200  1
  B  B8  1  0.68633400  0.84316700  0.57810800  1
  B  B9  1  0.17877200  0.82122800  0.08896800  1
  B  B10  1  0.50938400  0.49061600  0.75540700  1
  B  B11  1  0.84316700  0.15683300  0.42189200  1
  B  B12  1  0.49061600  0.98123200  0.24459300  1
  B  B13  1  0.82122800  0.64245600  0.91103200  1
  B  B14  1  0.15683300  0.31366600  0.57810800  1
  B  B15  1  0.64245600  0.82122800  0.08896800  1
  B  B16  1  0.98123200  0.49061600  0.75540700  1
  B  B17  1  0.31366600  0.15683300  0.42189200  1
loop_
_geom_bond_atom_site_label_1
_geom_bond_atom_site_label_2
_geom_bond_distance
_geom_bond_site_symmetry_2
Ni0 Ni29 2.355775 1_555
Ni0 Ni8 2.582134 1_455
Ni0 Zr7 2.582409 1_455
Ni0 Ni12 2.582547 1_555
Ni0 Ni26 2.595159 1_455
Ni0 Ni3 2.625848 1_455
Ni0 Ni54 2.656481 1_555
Ni0 Ni44 2.656944 1_565
Ni0 Ni39 2.671817 1_555
Ni0 Ni53 2.673316 1_555
Ni0 Zr5 2.915748 1_555
Ni0 Zr0 2.918078 1_565
Ni1 Ni60 2.544960 1_555
Ni1 Zr3 2.922203 1_555
Ni1 Zr1 2.922203 1_554
Ni2 Ni28 2.355775 1_555
Ni2 Zr6 2.582409 1_545
Ni2 Ni7 2.582547 1_555
Ni2 Ni5 2.595159 1_545
Ni2 Ni25 2.625848 1_545
Ni2 Ni43 2.656481 1_555
Ni2 Ni56 2.656944 1_655
Ni2 Ni52 2.671817 1_555
Ni2 Ni41 2.673316 1_555
Ni2 Zr2 2.915748 1_555
Ni2 Zr4 2.918078 1_655
Ni3 Ni8 2.625848 1_555
Ni3 Zr7 2.633794 1_555
Ni3 Zr0 2.890121 1_665
Ni3 Zr3 2.898674 1_555
Ni4 Ni60 2.504355 1_556
Ni4 Zr1 2.942002 1_555
Ni4 Zr4 2.951168 1_555
Ni5 Ni7 2.595155 1_565
Ni5 Zr6 2.616048 1_555
Ni5 Zr2 2.902527 1_565
Ni5 Zr5 2.923793 1_555
Ni6 Ni60 2.544960 1_555
Ni6 Zr3 2.922197 1_455
Ni6 Zr1 2.922200 1_554
Ni7 Zr6 2.582405 1_545
Ni7 Zr2 2.915752 1_555
Ni7 Zr4 2.918078 1_555
Ni8 Zr7 2.582413 1_555
Ni8 Zr5 2.915755 1_555
Ni8 Zr0 2.918078 1_665
Ni9 Zr7 2.633791 1_555
Ni9 Zr0 2.890121 1_655
Ni9 Zr3 2.898670 1_555
Ni10 Ni60 2.504359 1_566
Ni10 Zr1 2.941989 1_555
Ni10 Zr4 2.951171 1_565
Ni11 Ni17 2.595159 1_555
Ni11 Ni14 2.595159 1_555
Ni11 Zr6 2.616048 1_555
Ni11 Zr2 2.902540 1_555
Ni11 Zr5 2.923793 1_555
Ni12 Ni30 2.355775 1_555
Ni12 Ni15 2.582134 1_445
Ni12 Zr7 2.582405 1_455
Ni12 Ni26 2.595155 1_455
Ni12 Ni9 2.625848 1_455
Ni12 Ni54 2.656484 1_555
Ni12 Ni44 2.656944 1_555
Ni12 Ni36 2.671817 1_555
Ni12 Ni50 2.673314 1_555
Ni12 Zr5 2.915752 1_555
Ni12 Zr0 2.918078 1_555
Ni13 Ni60 2.544960 1_555
Ni13 Zr1 2.922197 1_544
Ni13 Zr3 2.922200 1_555
Ni14 Ni32 2.355775 1_555
Ni14 Ni2 2.582134 1_565
Ni14 Zr6 2.582413 1_555
Ni14 Ni17 2.582547 1_555
Ni14 Ni25 2.625848 1_555
Ni14 Ni43 2.656488 1_555
Ni14 Ni56 2.656944 1_665
Ni14 Ni49 2.671817 1_555
Ni14 Ni38 2.673318 1_555
Ni14 Zr2 2.915755 1_555
Ni14 Zr4 2.918078 1_665
Ni15 Ni8 2.355775 1_555
Ni15 Zr7 2.582405 1_565
Ni15 Ni29 2.582547 1_555
Ni15 Ni23 2.595155 1_565
Ni15 Ni9 2.625848 1_565
Ni15 Ni54 2.656484 1_555
Ni15 Ni44 2.656944 1_665
Ni15 Ni45 2.671817 1_555
Ni15 Ni59 2.673314 1_555
Ni15 Zr5 2.915752 1_555
Ni15 Zr0 2.918078 1_665
Ni16 Ni60 2.544960 1_565
Ni16 Zr1 2.922197 1_554
Ni16 Zr3 2.922200 1_455
Ni17 Ni7 2.355775 1_555
Ni17 Ni28 2.582134 1_455
Ni17 Zr6 2.582413 1_555
Ni17 Ni22 2.625848 1_555
Ni17 Ni43 2.656488 1_555
Ni17 Ni56 2.656944 1_555
Ni17 Ni58 2.671817 1_555
Ni17 Ni47 2.673318 1_555
Ni17 Zr2 2.915755 1_555
Ni17 Zr4 2.918078 1_555
Ni18 Ni60 2.504359 1_655
Ni18 Zr3 2.941989 1_555
Ni18 Zr0 2.951171 1_655
Ni19 Ni7 2.625848 1_565
Ni19 Ni32 2.625848 1_455
Ni19 Zr6 2.633791 1_555
Ni19 Zr4 2.890121 1_565
Ni19 Zr1 2.898670 1_555
Ni20 Ni30 2.595159 1_555
Ni20 Ni8 2.595159 1_555
Ni20 Zr7 2.616048 1_555
Ni20 Zr5 2.902540 1_555
Ni20 Zr2 2.923793 1_555
Ni21 Ni60 2.504355 1_665
Ni21 Zr3 2.942002 1_555
Ni21 Zr0 2.951168 1_665
Ni22 Ni28 2.625848 1_455
Ni22 Zr6 2.633794 1_555
Ni22 Zr4 2.890121 1_555
Ni22 Zr1 2.898674 1_555
Ni23 Ni29 2.595159 1_545
Ni23 Zr7 2.616048 1_555
Ni23 Zr5 2.902527 1_545
Ni23 Zr2 2.923793 1_555
Ni24 Ni60 2.504355 1_555
Ni24 Zr3 2.942002 1_555
Ni24 Zr0 2.951168 1_555
Ni25 Zr6 2.633794 1_555
Ni25 Zr4 2.890121 1_665
Ni25 Zr1 2.898674 1_555
Ni26 Zr7 2.616048 1_555
Ni26 Zr5 2.902527 1_655
Ni26 Zr2 2.923793 1_555
Ni27 Ni60 2.544960 1_665
Ni27 Zr3 2.922203 1_555
Ni27 Zr1 2.922203 1_554
Ni28 Zr6 2.582409 1_655
Ni28 Ni32 2.582547 1_555
Ni28 Ni35 2.595159 1_655
Ni28 Ni43 2.656481 1_555
Ni28 Ni56 2.656944 1_655
Ni28 Ni52 2.671817 1_555
Ni28 Ni41 2.673316 1_555
Ni28 Zr2 2.915748 1_555
Ni28 Zr4 2.918078 1_655
Ni29 Ni30 2.582134 1_565
Ni29 Zr7 2.582409 1_565
Ni29 Ni33 2.625848 1_565
Ni29 Ni54 2.656481 1_555
Ni29 Ni44 2.656944 1_565
Ni29 Ni39 2.671817 1_555
Ni29 Ni53 2.673316 1_555
Ni29 Zr5 2.915748 1_555
Ni29 Zr0 2.918078 1_565
Ni30 Zr7 2.582413 1_555
Ni30 Ni8 2.582547 1_555
Ni30 Ni33 2.625848 1_555
Ni30 Ni54 2.656488 1_555
Ni30 Ni44 2.656944 1_555
Ni30 Ni36 2.671817 1_555
Ni30 Ni50 2.673318 1_555
Ni30 Zr5 2.915755 1_555
Ni30 Zr0 2.918078 1_555
Ni31 Ni60 2.544960 1_655
Ni31 Zr3 2.922197 1_555
Ni31 Zr1 2.922200 1_544
Ni32 Ni7 2.582134 1_665
Ni32 Zr6 2.582405 1_655
Ni32 Ni35 2.595155 1_655
Ni32 Ni43 2.656484 1_555
Ni32 Ni56 2.656944 1_665
Ni32 Ni49 2.671817 1_555
Ni32 Ni38 2.673314 1_555
Ni32 Zr2 2.915752 1_555
Ni32 Zr4 2.918078 1_665
Ni33 Zr7 2.633794 1_555
Ni33 Zr0 2.890121 1_555
Ni33 Zr3 2.898674 1_555
Ni34 Ni60 2.504355 1_666
Ni34 Zr1 2.942002 1_555
Ni34 Zr4 2.951168 1_665
Ni35 Zr6 2.616048 1_555
Ni35 Zr2 2.902527 1_455
Ni35 Zr5 2.923793 1_555
Ni36 Zr0 2.515866 1_555
Ni37 Zr1 2.516081 1_545
Ni38 Zr2 2.517297 1_555
Ni39 Zr0 2.515866 1_565
Ni40 Zr1 2.516087 1_555
Ni41 Zr2 2.517297 1_555
Ni42 Zr1 2.516274 1_554
Ni43 Zr2 2.527060 1_555
Ni43 Ni7 2.656484 1_555
Ni44 Zr0 2.533546 1_555
Ni44 Ni8 2.656944 1_445
Ni45 Zr0 2.515866 1_665
Ni45 Ni8 2.671817 1_555
Ni46 Zr1 2.516081 1_655
Ni47 Zr2 2.517297 1_555
Ni47 Ni7 2.673314 1_555
Ni48 Zr3 2.516081 1_565
Ni49 Zr4 2.515866 1_665
Ni50 Zr5 2.517297 1_555
Ni51 Zr3 2.516087 1_555
Ni52 Zr4 2.515866 1_655
Ni53 Zr5 2.517297 1_555
Ni54 Zr5 2.527060 1_555
Ni54 Ni8 2.656488 1_555
Ni55 Zr3 2.516274 1_556
Ni56 Zr4 2.533546 1_555
Ni56 Ni7 2.656944 1_555
Ni57 Zr3 2.516081 1_455
Ni58 Zr4 2.515866 1_555
Ni58 Ni7 2.671817 1_555
Ni59 Zr5 2.517297 1_555
Ni59 Ni8 2.673318 1_555
B0 Ni30 2.087984 1_555
B0 Ni8 2.087984 1_555
B0 Ni3 2.089093 1_555
B0 Ni33 2.089093 1_555
B0 Ni36 2.145286 1_555
B0 Ni45 2.145286 1_555
B0 Ni51 2.152369 1_555
B0 Ni54 2.153084 1_555
B1 Ni4 2.074383 1_655
B1 Ni34 2.074383 1_545
B1 Ni6 2.086455 1_656
B1 Ni31 2.086455 1_556
B1 Ni55 2.120349 1_555
B1 Ni46 2.124181 1_555
B1 Ni37 2.124181 1_555
B1 Ni52 2.134799 1_555
B2 Ni35 2.077493 1_555
B2 Ni5 2.077493 1_555
B2 Ni7 2.092841 1_565
B2 Ni32 2.092841 1_455
B2 Ni38 2.141197 1_455
B2 Ni47 2.141197 1_565
B2 Ni56 2.148854 1_565
B2 Ni53 2.150911 1_555
B3 Ni24 2.074375 1_555
B3 Ni18 2.074380 1_455
B3 Ni6 2.086455 1_555
B3 Ni1 2.086455 1_555
B3 Ni42 2.120355 1_555
B3 Ni51 2.124181 1_555
B3 Ni57 2.124181 1_555
B3 Ni36 2.134799 1_555
B4 Ni7 2.087984 1_555
B4 Ni2 2.087984 1_555
B4 Ni19 2.089093 1_545
B4 Ni25 2.089093 1_545
B4 Ni52 2.145286 1_555
B4 Ni58 2.145286 1_555
B4 Ni37 2.152369 1_555
B4 Ni43 2.153078 1_555
B5 Ni20 2.077495 1_555
B5 Ni26 2.077500 1_555
B5 Ni8 2.092841 1_555
B5 Ni0 2.092841 1_655
B5 Ni53 2.141198 1_655
B5 Ni59 2.141204 1_555
B5 Ni44 2.148854 1_665
B5 Ni38 2.150910 1_555
B6 Ni12 2.087984 1_555
B6 Ni0 2.087984 1_555
B6 Ni9 2.089093 1_455
B6 Ni3 2.089093 1_455
B6 Ni39 2.145286 1_555
B6 Ni36 2.145286 1_555
B6 Ni57 2.152369 1_555
B6 Ni54 2.153078 1_555
B7 Ni4 2.074375 1_555
B7 Ni10 2.074380 1_545
B7 Ni13 2.086455 1_556
B7 Ni1 2.086455 1_556
B7 Ni55 2.120355 1_555
B7 Ni40 2.124181 1_555
B7 Ni37 2.124181 1_555
B7 Ni58 2.134799 1_555
B8 Ni11 2.077495 1_555
B8 Ni5 2.077500 1_555
B8 Ni14 2.092841 1_555
B8 Ni2 2.092841 1_565
B8 Ni41 2.141198 1_565
B8 Ni38 2.141204 1_555
B8 Ni56 2.148854 1_665
B8 Ni59 2.150910 1_555
B9 Ni24 2.074383 1_565
B9 Ni21 2.074383 1_455
B9 Ni16 2.086455 1_555
B9 Ni13 2.086455 1_565
B9 Ni42 2.120349 1_555
B9 Ni57 2.124181 1_555
B9 Ni48 2.124181 1_555
B9 Ni39 2.134799 1_555
B10 Ni17 2.087984 1_555
B10 Ni14 2.087984 1_555
B10 Ni22 2.089093 1_555
B10 Ni25 2.089093 1_555
B10 Ni58 2.145286 1_555
B10 Ni49 2.145286 1_555
B10 Ni40 2.152369 1_555
B10 Ni43 2.153084 1_555
B11 Ni23 2.077493 1_555
B11 Ni26 2.077493 1_555
B11 Ni15 2.092841 1_545
B11 Ni12 2.092841 1_655
B11 Ni59 2.141197 1_545
B11 Ni50 2.141197 1_655
B11 Ni44 2.148854 1_655
B11 Ni41 2.150911 1_555
B12 Ni15 2.087984 1_555
B12 Ni29 2.087984 1_555
B12 Ni9 2.089093 1_565
B12 Ni33 2.089093 1_565
B12 Ni39 2.145286 1_555
B12 Ni45 2.145286 1_555
B12 Ni48 2.152369 1_555
B12 Ni54 2.153078 1_555
B13 Ni34 2.074375 1_555
B13 Ni10 2.074380 1_655
B13 Ni16 2.086455 1_656
B13 Ni27 2.086455 1_556
B13 Ni55 2.120355 1_555
B13 Ni40 2.124181 1_555
B13 Ni46 2.124181 1_555
B13 Ni49 2.134799 1_555
B14 Ni11 2.077495 1_555
B14 Ni35 2.077500 1_555
B14 Ni17 2.092841 1_555
B14 Ni28 2.092841 1_455
B14 Ni41 2.141198 1_455
B14 Ni47 2.141204 1_555
B14 Ni56 2.148854 1_555
B14 Ni50 2.150910 1_555
B15 Ni21 2.074375 1_555
B15 Ni18 2.074380 1_565
B15 Ni31 2.086455 1_565
B15 Ni27 2.086455 1_555
B15 Ni42 2.120355 1_555
B15 Ni51 2.124181 1_555
B15 Ni48 2.124181 1_555
B15 Ni45 2.134799 1_555
B16 Ni32 2.087984 1_555
B16 Ni28 2.087984 1_555
B16 Ni19 2.089093 1_655
B16 Ni22 2.089093 1_655
B16 Ni52 2.145286 1_555
B16 Ni49 2.145286 1_555
B16 Ni46 2.152369 1_555
B16 Ni43 2.153078 1_555
B17 Ni20 2.077495 1_555
B17 Ni23 2.077500 1_555
B17 Ni30 2.092841 1_555
B17 Ni29 2.092841 1_545
B17 Ni53 2.141198 1_545
B17 Ni50 2.141204 1_555
B17 Ni44 2.148854 1_555
B17 Ni47 2.150910 1_555
