# generated using pymatgen
data_PdRh
_symmetry_space_group_name_H-M   'P 1'
_cell_length_a   9.53803960
_cell_length_b   9.53803960
_cell_length_c   9.53803904
_cell_angle_alpha   33.62049749
_cell_angle_beta   33.62049749
_cell_angle_gamma   33.62049783
_symmetry_Int_Tables_number   1
_chemical_formula_structural   PdRh
_chemical_formula_sum   'Pd8 Rh8'
_cell_volume   236.97252662
_cell_formula_units_Z   8
loop_
 _symmetry_equiv_pos_site_id
 _symmetry_equiv_pos_as_xyz
  1  'x, y, z'
loop_
 _atom_site_type_symbol
 _atom_site_label
 _atom_site_symmetry_multiplicity
 _atom_site_fract_x
 _atom_site_fract_y
 _atom_site_fract_z
 _atom_site_occupancy
  Pd  Pd0_0  1  0.00000000  0.00000000  0.00000000  1
  Pd  Pd0_1  1  0.00000000  0.00000000  0.50000000  1
  Pd  Pd0_2  1  0.00000000  0.50000000  0.00000000  1
  Pd  Pd0_3  1  0.00000000  0.50000000  0.50000000  1
  Pd  Pd0_4  1  0.50000000  0.00000000  0.00000000  1
  Pd  Pd0_5  1  0.50000000  0.00000000  0.50000000  1
  Pd  Pd0_6  1  0.50000000  0.50000000  0.00000000  1
  Pd  Pd0_7  1  0.50000000  0.50000000  0.50000000  1
  Rh  Rh0_0  1  0.25000000  0.25000000  0.25000000  1
  Rh  Rh0_1  1  0.25000000  0.25000000  0.75000000  1
  Rh  Rh0_2  1  0.25000000  0.75000000  0.25000000  1
  Rh  Rh0_3  1  0.25000000  0.75000000  0.75000000  1
  Rh  Rh0_4  1  0.75000000  0.25000000  0.25000000  1
  Rh  Rh0_5  1  0.75000000  0.25000000  0.75000000  1
  Rh  Rh0_6  1  0.75000000  0.75000000  0.25000000  1
  Rh  Rh0_7  1  0.75000000  0.75000000  0.75000000  1
loop_
_geom_bond_atom_site_label_1
_geom_bond_atom_site_label_2
_geom_bond_distance
_geom_bond_site_symmetry_2
Pd0_0 Rh0_3 2.754654 1_544
Pd0_0 Rh0_5 2.754654 1_454
Pd0_0 Rh0_2 2.754654 1_545
Pd0_0 Rh0_4 2.754654 1_455
Pd0_0 Rh0_6 2.754655 1_445
Pd0_0 Rh0_1 2.754655 1_554
Pd0_0 Pd0_3 2.758430 1_545
Pd0_0 Pd0_5 2.758430 1_455
Pd0_0 Pd0_5 2.758430 1_554
Pd0_0 Pd0_3 2.758430 1_554
Pd0_0 Pd0_6 2.758430 1_455
Pd0_0 Pd0_6 2.758430 1_545
Pd0_1 Rh0_2 2.754654 1_545
Pd0_1 Rh0_3 2.754654 1_545
Pd0_1 Rh0_4 2.754654 1_455
Pd0_1 Rh0_5 2.754654 1_455
Pd0_1 Rh0_0 2.754655 1_555
Pd0_1 Rh0_7 2.754655 1_445
Pd0_1 Pd0_2 2.758430 1_555
Pd0_1 Pd0_4 2.758430 1_456
Pd0_1 Pd0_4 2.758430 1_555
Pd0_1 Pd0_2 2.758430 1_546
Pd0_1 Pd0_7 2.758430 1_545
Pd0_1 Pd0_7 2.758430 1_455
Pd0_2 Rh0_0 2.754654 1_555
Pd0_2 Rh0_1 2.754654 1_554
Pd0_2 Rh0_6 2.754654 1_455
Pd0_2 Rh0_7 2.754654 1_454
Pd0_2 Rh0_4 2.754655 1_455
Pd0_2 Rh0_3 2.754655 1_554
Pd0_2 Pd0_7 2.758430 1_455
Pd0_2 Pd0_7 2.758430 1_554
Pd0_2 Pd0_4 2.758430 1_555
Pd0_2 Pd0_4 2.758430 1_465
Pd0_3 Rh0_7 2.754654 1_455
Pd0_3 Rh0_1 2.754654 1_555
Pd0_3 Rh0_6 2.754654 1_455
Pd0_3 Rh0_0 2.754654 1_555
Pd0_3 Rh0_2 2.754655 1_555
Pd0_3 Rh0_5 2.754655 1_455
Pd0_3 Pd0_6 2.758430 1_555
Pd0_3 Pd0_6 2.758430 1_456
Pd0_3 Pd0_5 2.758430 1_465
Pd0_3 Pd0_5 2.758430 1_555
Pd0_4 Rh0_0 2.754654 1_555
Pd0_4 Rh0_6 2.754654 1_545
Pd0_4 Rh0_1 2.754654 1_554
Pd0_4 Rh0_7 2.754654 1_544
Pd0_4 Rh0_2 2.754655 1_545
Pd0_4 Rh0_5 2.754655 1_554
Pd0_4 Pd0_7 2.758430 1_545
Pd0_4 Pd0_7 2.758430 1_554
Pd0_5 Rh0_7 2.754654 1_545
Pd0_5 Rh0_1 2.754654 1_555
Pd0_5 Rh0_6 2.754654 1_545
Pd0_5 Rh0_0 2.754654 1_555
Pd0_5 Rh0_3 2.754655 1_545
Pd0_5 Rh0_4 2.754655 1_555
Pd0_5 Pd0_6 2.758430 1_555
Pd0_5 Pd0_6 2.758430 1_546
Pd0_6 Rh0_5 2.754654 1_554
Pd0_6 Rh0_3 2.754654 1_554
Pd0_6 Rh0_4 2.754654 1_555
Pd0_6 Rh0_2 2.754654 1_555
Pd0_6 Rh0_7 2.754655 1_554
Pd0_6 Rh0_0 2.754655 1_555
Pd0_7 Rh0_2 2.754654 1_555
Pd0_7 Rh0_5 2.754654 1_555
Pd0_7 Rh0_3 2.754654 1_555
Pd0_7 Rh0_4 2.754654 1_555
Pd0_7 Rh0_6 2.754655 1_555
Pd0_7 Rh0_1 2.754655 1_555
Rh0_0 Rh0_3 2.758430 1_545
Rh0_0 Rh0_5 2.758430 1_554
Rh0_0 Rh0_3 2.758430 1_554
Rh0_0 Rh0_5 2.758430 1_455
Rh0_0 Rh0_6 2.758430 1_545
Rh0_0 Rh0_6 2.758430 1_455
Rh0_1 Rh0_2 2.758430 1_546
Rh0_1 Rh0_4 2.758430 1_456
Rh0_1 Rh0_4 2.758430 1_555
Rh0_1 Rh0_2 2.758430 1_555
Rh0_1 Rh0_7 2.758430 1_545
Rh0_1 Rh0_7 2.758430 1_455
Rh0_2 Rh0_7 2.758430 1_554
Rh0_2 Rh0_7 2.758430 1_455
Rh0_2 Rh0_4 2.758430 1_465
Rh0_2 Rh0_4 2.758430 1_555
Rh0_3 Rh0_6 2.758430 1_456
Rh0_3 Rh0_6 2.758430 1_555
Rh0_3 Rh0_5 2.758430 1_465
Rh0_3 Rh0_5 2.758430 1_555
Rh0_4 Rh0_7 2.758430 1_554
Rh0_4 Rh0_7 2.758430 1_545
Rh0_5 Rh0_6 2.758430 1_546
Rh0_5 Rh0_6 2.758430 1_555
