# generated using pymatgen
data_CaZn3
_symmetry_space_group_name_H-M   'P 1'
_cell_length_a   6.48808812
_cell_length_b   6.48808812
_cell_length_c   4.33793601
_cell_angle_alpha   90.00000000
_cell_angle_beta   90.00000000
_cell_angle_gamma   120.00000227
_symmetry_Int_Tables_number   1
_chemical_formula_structural   CaZn3
_chemical_formula_sum   'Ca2 Zn6'
_cell_volume   158.14200581
_cell_formula_units_Z   2
loop_
 _symmetry_equiv_pos_site_id
 _symmetry_equiv_pos_as_xyz
  1  'x, y, z'
loop_
 _atom_site_type_symbol
 _atom_site_label
 _atom_site_symmetry_multiplicity
 _atom_site_fract_x
 _atom_site_fract_y
 _atom_site_fract_z
 _atom_site_occupancy
  Ca  Ca0  1  0.66666700  0.33333300  0.25000000  1
  Ca  Ca1  1  0.33333300  0.66666700  0.75000000  1
  Zn  Zn0  1  0.13827502  0.27655004  0.25000000  1
  Zn  Zn1  1  0.72344996  0.86172498  0.25000000  1
  Zn  Zn2  1  0.13827502  0.86172498  0.25000000  1
  Zn  Zn3  1  0.27655004  0.13827502  0.75000000  1
  Zn  Zn4  1  0.86172498  0.13827502  0.75000000  1
  Zn  Zn5  1  0.86172498  0.72344996  0.75000000  1
loop_
_geom_bond_atom_site_label_1
_geom_bond_atom_site_label_2
_geom_bond_distance
_geom_bond_site_symmetry_2
Ca0 Zn4 3.083715 1_554
Ca0 Zn4 3.083715 1_555
Ca0 Zn3 3.083719 1_554
Ca0 Zn5 3.083719 1_555
Ca0 Zn3 3.083719 1_555
Ca0 Zn5 3.083719 1_554
Ca0 Zn0 3.259693 1_655
Ca0 Zn1 3.259693 1_545
Ca0 Zn2 3.259696 1_655
Ca0 Zn2 3.259696 1_545
Ca0 Zn1 3.259699 1_555
Ca0 Zn0 3.259699 1_555
Ca1 Zn2 3.083715 1_555
Ca1 Zn2 3.083715 1_556
Ca1 Zn1 3.083719 1_556
Ca1 Zn0 3.083719 1_555
Ca1 Zn0 3.083719 1_556
Ca1 Zn1 3.083719 1_555
Ca1 Zn3 3.259693 1_565
Ca1 Zn5 3.259693 1_455
Ca1 Zn4 3.259696 1_455
Ca1 Zn4 3.259696 1_565
Ca1 Zn3 3.259699 1_555
Ca1 Zn5 3.259699 1_555
Zn0 Zn4 2.668146 1_455
Zn0 Zn4 2.668146 1_454
Zn0 Zn3 2.668146 1_555
Zn0 Zn3 2.668146 1_554
Zn0 Zn1 2.691421 1_445
Zn0 Zn2 2.691422 1_545
Zn1 Zn4 2.668146 1_565
Zn1 Zn4 2.668146 1_564
Zn1 Zn5 2.668146 1_555
Zn1 Zn5 2.668146 1_554
Zn1 Zn2 2.691422 1_655
Zn2 Zn5 2.668146 1_454
Zn2 Zn3 2.668146 1_565
Zn2 Zn5 2.668146 1_455
Zn2 Zn3 2.668146 1_564
Zn3 Zn5 2.691421 1_445
Zn3 Zn4 2.691422 1_455
Zn4 Zn5 2.691422 1_545
