# generated using pymatgen
data_CrRu
_symmetry_space_group_name_H-M   'P 1'
_cell_length_a   5.32749524
_cell_length_b   5.32749524
_cell_length_c   8.43602800
_cell_angle_alpha   90.00000000
_cell_angle_beta   90.00000000
_cell_angle_gamma   119.99999059
_symmetry_Int_Tables_number   1
_chemical_formula_structural   CrRu
_chemical_formula_sum   'Cr8 Ru8'
_cell_volume   207.35515014
_cell_formula_units_Z   8
loop_
 _symmetry_equiv_pos_site_id
 _symmetry_equiv_pos_as_xyz
  1  'x, y, z'
loop_
 _atom_site_type_symbol
 _atom_site_label
 _atom_site_symmetry_multiplicity
 _atom_site_fract_x
 _atom_site_fract_y
 _atom_site_fract_z
 _atom_site_occupancy
  Cr  Cr0_0  1  0.33333350  0.16666650  0.00000000  1
  Cr  Cr0_1  1  0.33333350  0.16666650  0.50000000  1
  Cr  Cr0_2  1  0.33333350  0.66666650  0.00000000  1
  Cr  Cr0_3  1  0.33333350  0.66666650  0.50000000  1
  Cr  Cr0_4  1  0.83333350  0.16666650  0.00000000  1
  Cr  Cr0_5  1  0.83333350  0.16666650  0.50000000  1
  Cr  Cr0_6  1  0.83333350  0.66666650  0.00000000  1
  Cr  Cr0_7  1  0.83333350  0.66666650  0.50000000  1
  Ru  Ru0_0  1  0.16666650  0.33333350  0.25000000  1
  Ru  Ru0_1  1  0.16666650  0.33333350  0.75000000  1
  Ru  Ru0_2  1  0.16666650  0.83333350  0.25000000  1
  Ru  Ru0_3  1  0.16666650  0.83333350  0.75000000  1
  Ru  Ru0_4  1  0.66666650  0.33333350  0.25000000  1
  Ru  Ru0_5  1  0.66666650  0.33333350  0.75000000  1
  Ru  Ru0_6  1  0.66666650  0.83333350  0.25000000  1
  Ru  Ru0_7  1  0.66666650  0.83333350  0.75000000  1
loop_
_geom_bond_atom_site_label_1
_geom_bond_atom_site_label_2
_geom_bond_distance
_geom_bond_site_symmetry_2
Cr0_0 Ru0_2 2.610190 1_545
Cr0_0 Ru0_3 2.610190 1_544
Cr0_0 Ru0_4 2.610190 1_555
Cr0_0 Ru0_5 2.610190 1_554
Cr0_0 Ru0_0 2.610192 1_555
Cr0_0 Ru0_1 2.610192 1_554
Cr0_0 Cr0_2 2.663748 1_545
Cr0_0 Cr0_4 2.663748 1_455
Cr0_0 Cr0_2 2.663748 1_555
Cr0_0 Cr0_4 2.663748 1_555
Cr0_0 Cr0_6 2.663748 1_445
Cr0_0 Cr0_6 2.663748 1_555
Cr0_1 Ru0_2 2.610190 1_545
Cr0_1 Ru0_3 2.610190 1_545
Cr0_1 Ru0_5 2.610190 1_555
Cr0_1 Ru0_4 2.610190 1_555
Cr0_1 Ru0_0 2.610192 1_555
Cr0_1 Ru0_1 2.610192 1_555
Cr0_1 Cr0_5 2.663748 1_455
Cr0_1 Cr0_3 2.663748 1_545
Cr0_1 Cr0_5 2.663748 1_555
Cr0_1 Cr0_3 2.663748 1_555
Cr0_1 Cr0_7 2.663748 1_555
Cr0_1 Cr0_7 2.663748 1_445
Cr0_2 Ru0_7 2.610190 1_554
Cr0_2 Ru0_6 2.610190 1_555
Cr0_2 Ru0_1 2.610190 1_554
Cr0_2 Ru0_0 2.610190 1_555
Cr0_2 Ru0_3 2.610192 1_554
Cr0_2 Ru0_2 2.610192 1_555
Cr0_2 Cr0_6 2.663748 1_555
Cr0_2 Cr0_6 2.663748 1_455
Cr0_2 Cr0_4 2.663748 1_565
Cr0_2 Cr0_4 2.663748 1_455
Cr0_3 Ru0_6 2.610190 1_555
Cr0_3 Ru0_7 2.610190 1_555
Cr0_3 Ru0_1 2.610190 1_555
Cr0_3 Ru0_0 2.610190 1_555
Cr0_3 Ru0_3 2.610192 1_555
Cr0_3 Ru0_2 2.610192 1_555
Cr0_3 Cr0_7 2.663748 1_555
Cr0_3 Cr0_7 2.663748 1_455
Cr0_3 Cr0_5 2.663748 1_455
Cr0_3 Cr0_5 2.663748 1_565
Cr0_4 Ru0_0 2.610190 1_655
Cr0_4 Ru0_1 2.610190 1_654
Cr0_4 Ru0_6 2.610190 1_545
Cr0_4 Ru0_7 2.610190 1_544
Cr0_4 Ru0_5 2.610192 1_554
Cr0_4 Ru0_4 2.610192 1_555
Cr0_4 Cr0_6 2.663748 1_545
Cr0_4 Cr0_6 2.663748 1_555
Cr0_5 Ru0_1 2.610190 1_655
Cr0_5 Ru0_0 2.610190 1_655
Cr0_5 Ru0_7 2.610190 1_545
Cr0_5 Ru0_6 2.610190 1_545
Cr0_5 Ru0_4 2.610192 1_555
Cr0_5 Ru0_5 2.610192 1_555
Cr0_5 Cr0_7 2.663748 1_545
Cr0_5 Cr0_7 2.663748 1_555
Cr0_6 Ru0_5 2.610190 1_554
Cr0_6 Ru0_4 2.610190 1_555
Cr0_6 Ru0_2 2.610190 1_655
Cr0_6 Ru0_3 2.610190 1_654
Cr0_6 Ru0_7 2.610192 1_554
Cr0_6 Ru0_6 2.610192 1_555
Cr0_7 Ru0_4 2.610190 1_555
Cr0_7 Ru0_5 2.610190 1_555
Cr0_7 Ru0_2 2.610190 1_655
Cr0_7 Ru0_3 2.610190 1_655
Cr0_7 Ru0_6 2.610192 1_555
Cr0_7 Ru0_7 2.610192 1_555
Ru0_0 Ru0_4 2.663748 1_455
Ru0_0 Ru0_2 2.663748 1_545
Ru0_0 Ru0_4 2.663748 1_555
Ru0_0 Ru0_2 2.663748 1_555
Ru0_0 Ru0_6 2.663748 1_555
Ru0_0 Ru0_6 2.663748 1_445
Ru0_1 Ru0_3 2.663748 1_545
Ru0_1 Ru0_5 2.663748 1_455
Ru0_1 Ru0_5 2.663748 1_555
Ru0_1 Ru0_3 2.663748 1_555
Ru0_1 Ru0_7 2.663748 1_445
Ru0_1 Ru0_7 2.663748 1_555
Ru0_2 Ru0_6 2.663748 1_455
Ru0_2 Ru0_6 2.663748 1_555
Ru0_2 Ru0_4 2.663748 1_565
Ru0_2 Ru0_4 2.663748 1_455
Ru0_3 Ru0_7 2.663748 1_455
Ru0_3 Ru0_7 2.663748 1_555
Ru0_3 Ru0_5 2.663748 1_565
Ru0_3 Ru0_5 2.663748 1_455
Ru0_4 Ru0_6 2.663748 1_555
Ru0_4 Ru0_6 2.663748 1_545
Ru0_5 Ru0_7 2.663748 1_555
Ru0_5 Ru0_7 2.663748 1_545
