# generated using pymatgen
data_UGaCo
_symmetry_space_group_name_H-M   'P 1'
_cell_length_a   3.92525531
_cell_length_b   6.62733860
_cell_length_c   6.62920559
_cell_angle_alpha   119.98966575
_cell_angle_beta   90.00000000
_cell_angle_gamma   90.00000000
_symmetry_Int_Tables_number   1
_chemical_formula_structural   UGaCo
_chemical_formula_sum   'U3 Ga3 Co3'
_cell_volume   149.36347370
_cell_formula_units_Z   3
loop_
 _symmetry_equiv_pos_site_id
 _symmetry_equiv_pos_as_xyz
  1  'x, y, z'
loop_
 _atom_site_type_symbol
 _atom_site_label
 _atom_site_symmetry_multiplicity
 _atom_site_fract_x
 _atom_site_fract_y
 _atom_site_fract_z
 _atom_site_occupancy
  U  U0  1  0.50000000  0.57359357  1.00000046  1
  U  U1  1  0.50000000  0.42657156  0.42641288  1
  U  U2  1  0.50000000  0.00015966  0.57358979  1
  Ga  Ga0  1  0.00000000  0.23516660  0.99999809  1
  Ga  Ga1  1  0.00000000  0.76477333  0.76476268  1
  Ga  Ga2  1  -0.00000000  1.00000863  0.23523736  1
  Co  Co0  1  -0.00000000  0.33322773  0.66657479  1
  Co  Co1  1  0.00000000  0.66665187  0.33342737  1
  Co  Co2  1  0.50000000  0.99974904  -0.00000342  1
loop_
_geom_bond_atom_site_label_1
_geom_bond_atom_site_label_2
_geom_bond_distance
_geom_bond_site_symmetry_2
U0 U1 3.419575 1_556
U0 U2 3.419631 1_555
U0 U1 3.421120 1_555
U0 U2 3.421161 1_566
U1 U2 3.419709 1_555
U1 U2 3.419734 1_565
Ga0 Ga2 2.700058 1_546
Ga0 Ga1 2.700077 1_545
Ga0 U0 2.980325 1_555
Ga0 U0 2.980325 1_455
Ga0 U2 3.141166 1_455
Ga0 U2 3.141166 1_555
Ga0 U1 3.141191 1_456
Ga0 U1 3.141191 1_556
Ga1 Ga2 2.701305 1_556
Ga1 U1 2.980079 1_555
Ga1 U1 2.980079 1_455
Ga1 U0 3.140747 1_555
Ga1 U0 3.140747 1_455
Ga1 U2 3.141331 1_565
Ga1 U2 3.141331 1_465
Ga2 U2 2.980058 1_565
Ga2 U2 2.980058 1_465
Ga2 U0 3.140768 1_554
Ga2 U0 3.140768 1_454
Ga2 U1 3.141375 1_565
Ga2 U1 3.141375 1_465
Co0 Ga2 2.596245 1_545
Co0 Ga1 2.596586 1_555
Co0 Ga0 2.596907 1_555
Co0 U2 2.782816 1_555
Co0 U2 2.782816 1_455
Co0 U1 2.784585 1_555
Co0 U1 2.784585 1_455
Co0 U0 2.784815 1_555
Co0 U0 2.784815 1_455
Co1 Ga1 2.596199 1_555
Co1 Ga2 2.596570 1_555
Co1 Ga0 2.596969 1_554
Co1 U1 2.782793 1_555
Co1 U1 2.782793 1_455
Co1 U2 2.784618 1_465
Co1 U2 2.784618 1_565
Co1 U0 2.784810 1_554
Co1 U0 2.784810 1_454
Co2 Ga1 2.506210 1_654
Co2 Ga1 2.506210 1_554
Co2 Ga2 2.506221 1_555
Co2 Ga2 2.506221 1_655
Co2 Ga0 2.507208 1_564
Co2 Ga0 2.507208 1_664
Co2 U0 2.824289 1_554
Co2 U2 2.828099 1_564
Co2 U1 2.828192 1_565
