# generated using pymatgen
data_Li5Ti2V3O10
_symmetry_space_group_name_H-M   'P 1'
_cell_length_a   5.16516798
_cell_length_b   5.18441452
_cell_length_c   14.43214998
_cell_angle_alpha   94.65586422
_cell_angle_beta   85.70517868
_cell_angle_gamma   99.91059099
_symmetry_Int_Tables_number   1
_chemical_formula_structural   Li5Ti2V3O10
_chemical_formula_sum   'Li10 Ti4 V6 O20'
_cell_volume   378.71508399
_cell_formula_units_Z   2
loop_
 _symmetry_equiv_pos_site_id
 _symmetry_equiv_pos_as_xyz
  1  'x, y, z'
loop_
 _atom_site_type_symbol
 _atom_site_label
 _atom_site_symmetry_multiplicity
 _atom_site_fract_x
 _atom_site_fract_y
 _atom_site_fract_z
 _atom_site_occupancy
  Li  Li0  1  0.74933300  0.74858500  0.24623700  1
  Li  Li1  1  0.24512800  0.24710600  0.75040800  1
  Li  Li2  1  0.19550200  0.51585400  0.29534200  1
  Li  Li3  1  0.69386600  0.01935700  0.79620100  1
  Li  Li4  1  0.30098000  0.97524800  0.20082900  1
  Li  Li5  1  0.79905700  0.47898200  0.70160300  1
  Li  Li6  1  0.41103400  0.50557900  0.10943500  1
  Li  Li7  1  0.90634000  0.00140600  0.60930900  1
  Li  Li8  1  0.08874100  0.99347100  0.38775300  1
  Li  Li9  1  0.58431100  0.48940700  0.88776100  1
  Ti  Ti0  1  0.86425000  0.24594700  0.15452800  1
  Ti  Ti1  1  0.36808700  0.75414900  0.65144800  1
  Ti  Ti2  1  0.62686500  0.24121300  0.34533200  1
  Ti  Ti3  1  0.13104100  0.74922700  0.84230100  1
  V  V0  1  0.49737900  0.99691200  0.99857200  1
  V  V1  1  0.43960400  0.24162400  0.55047500  1
  V  V2  1  0.55555000  0.75341700  0.44644400  1
  V  V3  1  0.99739100  0.49701300  0.49852400  1
  V  V4  1  0.94784000  0.73244600  0.04808300  1
  V  V5  1  0.04749800  0.26300800  0.94880900  1
  O  O0  1  0.15517200  0.11611000  0.07550600  1
  O  O1  1  0.66487300  0.62339400  0.57529600  1
  O  O2  1  0.33004900  0.37143900  0.42173000  1
  O  O3  1  0.84028700  0.88023400  0.92133600  1
  O  O4  1  0.55002900  0.36037700  0.22938900  1
  O  O5  1  0.04624600  0.86051500  0.72710500  1
  O  O6  1  0.94868400  0.13464500  0.26981600  1
  O  O7  1  0.44487400  0.63505100  0.76759600  1
  O  O8  1  0.72573000  0.36697100  0.03288100  1
  O  O9  1  0.21773000  0.85410000  0.53093400  1
  O  O10  1  0.77715600  0.14069500  0.46604800  1
  O  O11  1  0.26986400  0.62661600  0.96369500  1
  O  O12  1  0.87688500  0.60253200  0.37869200  1
  O  O13  1  0.35177900  0.10733300  0.87432300  1
  O  O14  1  0.64234100  0.88790600  0.12279800  1
  O  O15  1  0.11813500  0.39224600  0.61840100  1
  O  O16  1  0.06554300  0.59409100  0.16927100  1
  O  O17  1  0.55981900  0.09671400  0.67093200  1
  O  O18  1  0.43528100  0.89841500  0.32608300  1
  O  O19  1  0.92922600  0.40110900  0.82781400  1
loop_
_geom_bond_atom_site_label_1
_geom_bond_atom_site_label_2
_geom_bond_distance
_geom_bond_site_symmetry_2
Li0 O4 2.101049 1_555
Li0 O6 2.101078 1_565
Li0 O14 2.120042 1_555
Li0 O18 2.138002 1_555
Li0 O16 2.139421 1_655
Li0 O12 2.292814 1_555
Li1 O7 2.101008 1_555
Li1 O5 2.102137 1_545
Li1 O13 2.126532 1_555
Li1 O17 2.139487 1_555
Li1 O19 2.139740 1_455
Li1 O15 2.283820 1_555
Li2 O12 2.056118 1_455
Li2 O16 2.078957 1_555
Li2 O6 2.179856 1_455
Li2 O18 2.181356 1_555
Li2 O2 2.227412 1_555
Li2 O4 2.243093 1_555
Li3 O17 2.075935 1_555
Li3 O13 2.120573 1_555
Li3 O19 2.170570 1_555
Li3 O7 2.204102 1_545
Li3 O3 2.226551 1_545
Li3 O5 2.257459 1_645
Li4 O18 2.075433 1_555
Li4 O14 2.115830 1_555
Li4 O16 2.168134 1_555
Li4 O4 2.207495 1_565
Li4 O0 2.231504 1_565
Li4 O6 2.257891 1_465
Li5 O15 2.057020 1_655
Li5 O19 2.080658 1_555
Li5 O17 2.178784 1_555
Li5 O5 2.181985 1_655
Li5 O1 2.225581 1_555
Li5 O7 2.243213 1_555
Li6 O16 2.031639 1_555
Li6 O8 2.093650 1_555
Li6 O14 2.133253 1_555
Li6 O4 2.159376 1_555
Li6 O0 2.254159 1_555
Li6 O11 2.439462 1_554
Li7 O17 2.057497 1_555
Li7 O9 2.111787 1_645
Li7 O5 2.124430 1_645
Li7 O15 2.129570 1_655
Li7 O1 2.175172 1_545
Li7 O10 2.420002 1_555
Li8 O18 2.057356 1_555
Li8 O10 2.111868 1_465
Li8 O6 2.127211 1_465
Li8 O12 2.130112 1_455
Li8 O2 2.174534 1_565
Li8 O9 2.418746 1_555
Li9 O19 2.029173 1_555
Li9 O11 2.085540 1_555
Li9 O13 2.134817 1_555
Li9 O7 2.164092 1_555
Li9 O3 2.258945 1_555
Li9 O8 2.434651 1_556
O0 Ti0 1.994645 1_455
O0 V4 2.112424 1_445
O0 V0 2.170166 1_544
O0 V5 2.181041 1_554
O1 Ti1 2.000441 1_555
O1 V1 2.134061 1_555
O1 V3 2.142724 1_555
O1 V2 2.173296 1_555
O2 Ti2 2.001048 1_555
O2 V2 2.135217 1_555
O2 V3 2.141774 1_455
O2 V1 2.171901 1_555
O3 Ti3 1.996630 1_655
O3 V5 2.108437 1_665
O3 V0 2.170052 1_555
O3 V4 2.183576 1_556
O4 Ti2 1.921150 1_555
O4 Ti0 2.029314 1_555
O5 Ti3 1.908002 1_555
O5 Ti1 2.050783 1_555
O6 Ti0 1.908599 1_555
O6 Ti2 2.050158 1_555
O7 Ti1 1.923622 1_555
O7 Ti3 2.026170 1_555
O8 V4 2.043627 1_555
O8 V5 2.103580 1_654
O8 V0 2.114580 1_544
O8 Ti0 2.123514 1_555
O9 V3 2.038430 1_455
O9 Ti1 2.093774 1_555
O9 V1 2.143171 1_565
O9 V2 2.166913 1_555
O10 V3 2.035231 1_555
O10 Ti2 2.097288 1_555
O10 V2 2.141663 1_545
O10 V1 2.165787 1_555
O11 V5 2.035889 1_555
O11 V4 2.110251 1_456
O11 V0 2.115421 1_555
O11 Ti3 2.124499 1_555
O12 V3 2.027230 1_555
O12 V2 2.098204 1_555
O12 Ti2 2.126616 1_555
O13 Ti3 2.042391 1_545
O13 V5 2.078425 1_555
O13 V0 2.150726 1_545
O14 Ti0 2.043849 1_565
O14 V4 2.084249 1_555
O14 V0 2.146045 1_554
O15 V3 2.026802 1_455
O15 V1 2.099076 1_555
O15 Ti1 2.127847 1_555
O16 Ti0 1.925835 1_455
O16 V4 2.110962 1_455
O17 Ti1 1.889233 1_545
O17 V1 2.122844 1_555
O18 Ti2 1.889585 1_565
O18 V2 2.121970 1_555
O19 Ti3 1.926494 1_655
O19 V5 2.109120 1_655
