# generated using pymatgen
data_K2AlMo3(P2O7)4
_symmetry_space_group_name_H-M   'P 1'
_cell_length_a   7.51963277
_cell_length_b   9.17145449
_cell_length_c   9.50330752
_cell_angle_alpha   62.28932470
_cell_angle_beta   77.18891715
_cell_angle_gamma   100.01767509
_symmetry_Int_Tables_number   1
_chemical_formula_structural   K2AlMo3(P2O7)4
_chemical_formula_sum   'K2 Al1 Mo3 P8 O28'
_cell_volume   535.85896012
_cell_formula_units_Z   1
loop_
 _symmetry_equiv_pos_site_id
 _symmetry_equiv_pos_as_xyz
  1  'x, y, z'
loop_
 _atom_site_type_symbol
 _atom_site_label
 _atom_site_symmetry_multiplicity
 _atom_site_fract_x
 _atom_site_fract_y
 _atom_site_fract_z
 _atom_site_occupancy
  K  K0  1  0.00000000  0.25000000  0.25000000  1
  K  K1  1  0.00000000  0.75000000  0.75000000  1
  Al  Al0  1  0.50000000  0.75000000  0.75000000  1
  Mo  Mo0  1  0.99622406  -0.00058787  0.00367005  1
  Mo  Mo1  1  0.00377594  0.50058787  0.49632995  1
  Mo  Mo2  1  0.50000000  0.25000000  0.25000000  1
  P  P0  1  0.23992868  0.20737130  0.59610343  1
  P  P1  1  0.24469297  0.71500816  0.08365264  1
  P  P2  1  0.76007132  0.29262870  0.90389657  1
  P  P3  1  0.75530703  0.78499184  0.41634736  1
  P  P4  1  0.61629041  0.67573170  0.06748551  1
  P  P5  1  0.61744175  0.16187116  0.58357327  1
  P  P6  1  0.38370959  0.82426830  0.43251449  1
  P  P7  1  0.38255825  0.33812884  0.91642673  1
  O  O0  1  0.09588444  0.04997065  0.76042341  1
  O  O1  1  0.10646821  0.55303475  0.25023714  1
  O  O2  1  0.90411556  0.45002935  0.73957659  1
  O  O3  1  0.89353179  0.94696525  0.24976286  1
  O  O4  1  0.79819021  0.77290017  0.06750954  1
  O  O5  1  0.79718189  0.26992878  0.57626065  1
  O  O6  1  0.20180979  0.72709983  0.43249046  1
  O  O7  1  0.20281811  0.23007122  0.92373935  1
  O  O8  1  0.35264606  0.30984635  0.09471442  1
  O  O9  1  0.36405117  0.81191021  0.59982554  1
  O  O10  1  0.64735394  0.19015365  0.40528558  1
  O  O11  1  0.63594883  0.68808979  0.90017446  1
  O  O12  1  0.44647069  0.23637549  0.61746929  1
  O  O13  1  0.45068368  0.75256343  0.10561096  1
  O  O14  1  0.55352931  0.26362451  0.88253071  1
  O  O15  1  0.54931632  0.74743657  0.39438904  1
  O  O16  1  0.19890887  0.37463950  0.55419244  1
  O  O17  1  0.19226126  0.87571146  0.05381772  1
  O  O18  1  0.80109113  0.12536050  0.94580756  1
  O  O19  1  0.80773874  0.62428854  0.44618228  1
  O  O20  1  0.25443893  0.16655407  0.45597055  1
  O  O21  1  0.26938768  0.68226230  0.93911868  1
  O  O22  1  0.74556107  0.33344593  0.04402945  1
  O  O23  1  0.73061232  0.81773770  0.56088132  1
  O  O24  1  0.54900794  0.48635790  0.21405684  1
  O  O25  1  0.56116954  0.97379966  0.71482104  1
  O  O26  1  0.45099206  0.01364210  0.28594316  1
  O  O27  1  0.43883046  0.52620034  0.78517896  1
loop_
_geom_bond_atom_site_label_1
_geom_bond_atom_site_label_2
_geom_bond_distance
_geom_bond_site_symmetry_2
K0 O8 2.552605 1_555
K0 O10 2.552605 1_455
K0 O3 2.756413 1_445
K0 O1 2.756413 1_555
K0 O22 2.975715 1_455
K0 O20 2.975715 1_555
K1 O11 2.612707 1_455
K1 O9 2.612707 1_555
K1 O0 2.773735 1_565
K1 O2 2.773735 1_455
K1 O21 2.955248 1_555
K1 O23 2.955248 1_455
Al0 O9 1.870711 1_555
Al0 O11 1.870711 1_555
Al0 O27 1.871239 1_555
Al0 O25 1.871239 1_555
Al0 O21 1.956496 1_555
Al0 O23 1.956496 1_555
Mo0 O17 2.019369 1_645
Mo0 O18 2.036300 1_554
Mo0 O0 2.057742 1_654
Mo0 O4 2.062112 1_545
Mo0 O7 2.074729 1_654
Mo0 O3 2.078663 1_545
Mo1 O19 2.019369 1_455
Mo1 O16 2.036300 1_555
Mo1 O2 2.057742 1_455
Mo1 O6 2.062112 1_555
Mo1 O5 2.074729 1_455
Mo1 O1 2.078663 1_555
Mo2 O8 1.972371 1_555
Mo2 O10 1.972371 1_555
Mo2 O24 1.982226 1_555
Mo2 O26 1.982226 1_555
Mo2 O22 2.083042 1_555
Mo2 O20 2.083042 1_555
O0 P0 1.518258 1_555
O1 P1 1.529477 1_555
O2 P2 1.518258 1_555
O3 P3 1.529477 1_555
O4 P4 1.497120 1_555
O5 P5 1.497349 1_555
O6 P6 1.497120 1_555
O7 P7 1.497349 1_555
O8 P7 1.546145 1_554
O9 P6 1.511674 1_555
O10 P5 1.546145 1_555
O11 P4 1.511674 1_556
O12 P5 1.596944 1_555
O12 P0 1.603284 1_555
O13 P4 1.587839 1_555
O13 P1 1.608130 1_555
O14 P7 1.596944 1_555
O14 P2 1.603284 1_555
O15 P6 1.587839 1_555
O15 P3 1.608130 1_555
O16 P0 1.502690 1_555
O17 P1 1.507072 1_555
O18 P2 1.502690 1_555
O19 P3 1.507072 1_555
O20 P0 1.529365 1_555
O21 P1 1.516988 1_556
O22 P2 1.529365 1_554
O23 P3 1.516988 1_555
O24 P4 1.531203 1_555
O25 P5 1.490360 1_565
O26 P6 1.531203 1_545
O27 P7 1.490360 1_555
