# generated using pymatgen
data_Sr18Co14O45
_symmetry_space_group_name_H-M   'P 1'
_cell_length_a   10.08125952
_cell_length_b   10.08125952
_cell_length_c   11.86308991
_cell_angle_alpha   87.49753448
_cell_angle_beta   87.49753448
_cell_angle_gamma   56.71343940
_symmetry_Int_Tables_number   1
_chemical_formula_structural   Sr18Co14O45
_chemical_formula_sum   'Sr18 Co14 O45'
_cell_volume   1006.61936919
_cell_formula_units_Z   1
loop_
 _symmetry_equiv_pos_site_id
 _symmetry_equiv_pos_as_xyz
  1  'x, y, z'
loop_
 _atom_site_type_symbol
 _atom_site_label
 _atom_site_symmetry_multiplicity
 _atom_site_fract_x
 _atom_site_fract_y
 _atom_site_fract_z
 _atom_site_occupancy
  Sr  Sr0  1  0.11446200  0.77125000  0.73032600  1
  Sr  Sr1  1  0.78465700  0.42359300  0.07428900  1
  Sr  Sr2  1  0.45800700  0.09283800  0.40989600  1
  Sr  Sr3  1  0.65243600  0.34756400  0.50000000  1
  Sr  Sr4  1  0.30228100  0.02411100  0.82818600  1
  Sr  Sr5  1  0.97588900  0.69771900  0.17181400  1
  Sr  Sr6  1  0.22875000  0.88553800  0.26967400  1
  Sr  Sr7  1  0.90716200  0.54199300  0.59010400  1
  Sr  Sr8  1  0.57640700  0.21534300  0.92571100  1
  Sr  Sr9  1  0.22084600  0.55235200  0.45232800  1
  Sr  Sr10  1  0.89468500  0.21893800  0.78562100  1
  Sr  Sr11  1  0.56020900  0.87992200  0.12012600  1
  Sr  Sr12  1  0.66155000  0.00069800  0.66705800  1
  Sr  Sr13  1  0.31731300  0.68268700  0.00000000  1
  Sr  Sr14  1  0.99930200  0.33845000  0.33294200  1
  Sr  Sr15  1  0.44764800  0.77915400  0.54767200  1
  Sr  Sr16  1  0.12007800  0.43979100  0.87987400  1
  Sr  Sr17  1  0.78106200  0.10531500  0.21437900  1
  Co  Co0  1  0.27281200  0.26899600  0.63517800  1
  Co  Co1  1  0.93240000  0.93734400  0.96759500  1
  Co  Co2  1  0.59925400  0.59955600  0.30090300  1
  Co  Co3  1  0.73100400  0.72718800  0.36482200  1
  Co  Co4  1  0.40044400  0.40074600  0.69909700  1
  Co  Co5  1  0.06265600  0.06760000  0.03240500  1
  Co  Co6  1  0.13336600  0.13707800  0.56621900  1
  Co  Co7  1  0.81094400  0.79912400  0.90538300  1
  Co  Co8  1  0.46837300  0.47398000  0.23673300  1
  Co  Co9  1  0.86292200  0.86663400  0.43378100  1
  Co  Co10  1  0.52602000  0.53162700  0.76326700  1
  Co  Co11  1  0.20087600  0.18905600  0.09461700  1
  Co  Co12  1  0.33252500  0.33044700  0.16750000  1
  Co  Co13  1  0.66955300  0.66747500  0.83250000  1
  O  O0  1  0.97399000  0.79310100  0.55877500  1
  O  O1  1  0.65836000  0.47688800  0.89079700  1
  O  O2  1  0.34355600  0.14359900  0.22580100  1
  O  O3  1  0.74446000  0.06805400  0.46443400  1
  O  O4  1  0.43409900  0.73828600  0.80765500  1
  O  O5  1  0.10824800  0.41216500  0.15010600  1
  O  O6  1  0.00721000  0.86402400  0.34191300  1
  O  O7  1  0.67693900  0.56002800  0.68842200  1
  O  O8  1  0.34758000  0.23748400  0.01936300  1
  O  O9  1  0.13597600  0.99279000  0.65808700  1
  O  O10  1  0.76251600  0.65242000  0.98063700  1
  O  O11  1  0.43997200  0.32306100  0.31157800  1
  O  O12  1  0.20689900  0.02601000  0.44122500  1
  O  O13  1  0.85640100  0.65644400  0.77419900  1
  O  O14  1  0.52311200  0.34164000  0.10920300  1
  O  O15  1  0.93194600  0.25554000  0.53556600  1
  O  O16  1  0.58783500  0.89175200  0.84989400  1
  O  O17  1  0.26171400  0.56590100  0.19234500  1
  O  O18  1  0.73019700  0.89822000  0.29858200  1
  O  O19  1  0.40122200  0.57420700  0.62532500  1
  O  O20  1  0.06077200  0.23924700  0.95663400  1
  O  O21  1  0.94710700  0.63635000  0.38850800  1
  O  O22  1  0.62160000  0.31142500  0.72184500  1
  O  O23  1  0.28786300  0.96703400  0.05860700  1
  O  O24  1  0.69604900  0.83094000  0.50411100  1
  O  O25  1  0.36346700  0.51049500  0.83595500  1
  O  O26  1  0.02477800  0.16959400  0.17391100  1
  O  O27  1  0.16906000  0.30395100  0.49588900  1
  O  O28  1  0.83040600  0.97522200  0.82608900  1
  O  O29  1  0.48950500  0.63653300  0.16404500  1
  O  O30  1  0.10178000  0.26980300  0.70141800  1
  O  O31  1  0.76075300  0.93922800  0.04336600  1
  O  O32  1  0.42579300  0.59877800  0.37467500  1
  O  O33  1  0.36365000  0.05289300  0.61149200  1
  O  O34  1  0.03296600  0.71213700  0.94139300  1
  O  O35  1  0.68857500  0.37840000  0.27815500  1
  O  O36  1  0.38797100  0.23206600  0.76934800  1
  O  O37  1  0.71547200  0.56480300  0.43377000  1
  O  O38  1  0.04941900  0.90125800  0.09935500  1
  O  O39  1  0.84545600  0.15454400  0.00000000  1
  O  O40  1  0.18346200  0.48594000  0.66765700  1
  O  O41  1  0.51406000  0.81653800  0.33234300  1
  O  O42  1  0.43519700  0.28452800  0.56623000  1
  O  O43  1  0.76793400  0.61202900  0.23065200  1
  O  O44  1  0.09874200  0.95058100  0.90064500  1
loop_
_geom_bond_atom_site_label_1
_geom_bond_atom_site_label_2
_geom_bond_distance
_geom_bond_site_symmetry_2
Co0 O30 1.859391 1_555
Co0 O33 1.872144 1_555
Co0 O42 1.877953 1_555
Co0 O40 1.903673 1_555
Co0 O27 1.908956 1_555
Co0 O36 1.911808 1_555
Co1 O44 1.892301 1_655
Co1 O38 1.899355 1_656
Co1 O31 1.905853 1_556
Co1 O39 1.909982 1_566
Co1 O28 1.919601 1_555
Co1 O34 1.945922 1_655
Co2 O37 1.908500 1_555
Co2 O41 1.908609 1_555
Co2 O29 1.910586 1_555
Co2 O35 1.918886 1_555
Co2 O43 1.924547 1_555
Co2 O32 1.924775 1_555
Co3 O18 1.859391 1_555
Co3 O21 1.872144 1_555
Co3 O37 1.877953 1_555
Co3 O41 1.903673 1_555
Co3 O24 1.908956 1_555
Co3 O43 1.911808 1_555
Co4 O42 1.908500 1_555
Co4 O40 1.908609 1_555
Co4 O25 1.910586 1_555
Co4 O22 1.918886 1_555
Co4 O36 1.924547 1_555
Co4 O19 1.924775 1_555
Co5 O38 1.892301 1_545
Co5 O44 1.899355 1_544
Co5 O20 1.905853 1_554
Co5 O39 1.909982 1_455
Co5 O26 1.919601 1_555
Co5 O23 1.945922 1_545
Co6 O15 1.745397 1_455
Co6 O9 1.768155 1_545
Co6 O12 1.771980 1_555
Co6 O30 2.034524 1_555
Co6 O27 2.042396 1_555
Co6 O33 2.074784 1_555
Co7 O34 1.964081 1_655
Co7 O10 1.965166 1_555
Co7 O13 2.027450 1_555
Co7 O16 2.033341 1_555
Co7 O31 2.067736 1_556
Co7 O28 2.072533 1_555
Co8 O17 1.846763 1_555
Co8 O11 1.877005 1_555
Co8 O14 1.915354 1_555
Co8 O29 1.928259 1_555
Co8 O35 1.950368 1_555
Co8 O32 1.992647 1_555
Co9 O3 1.745397 1_565
Co9 O6 1.768155 1_655
Co9 O0 1.771980 1_555
Co9 O18 2.034524 1_555
Co9 O24 2.042396 1_555
Co9 O21 2.074784 1_555
Co10 O4 1.846763 1_555
Co10 O7 1.877005 1_555
Co10 O1 1.915354 1_555
Co10 O25 1.928259 1_555
Co10 O22 1.950368 1_555
Co10 O19 1.992647 1_555
Co11 O23 1.964081 1_545
Co11 O8 1.965166 1_555
Co11 O2 2.027450 1_555
Co11 O5 2.033341 1_555
Co11 O20 2.067736 1_554
Co11 O26 2.072533 1_555
Co12 O2 1.924039 1_555
Co12 O5 1.953127 1_555
Co12 O8 1.988485 1_555
Co12 O11 2.040171 1_555
Co12 O14 2.073104 1_555
Co12 O17 2.100848 1_555
Co13 O13 1.924039 1_555
Co13 O16 1.953127 1_555
Co13 O10 1.988485 1_555
Co13 O7 2.040171 1_555
Co13 O1 2.073104 1_555
Co13 O4 2.100848 1_555
O0 Sr0 2.462885 1_655
O0 Sr9 2.653644 1_655
O0 Sr12 2.932059 1_565
O0 Sr7 2.961155 1_555
O1 Sr1 2.457068 1_556
O1 Sr10 2.686733 1_555
O1 Sr13 3.133647 1_556
O2 Sr2 2.416003 1_555
O2 Sr11 2.662165 1_545
O2 Sr14 3.141405 1_455
O3 Sr3 2.485754 1_555
O3 Sr12 2.691229 1_555
O3 Sr2 2.859633 1_555
O3 Sr17 3.006026 1_555
O4 Sr4 2.440922 1_565
O4 Sr13 2.699080 1_556
O4 Sr15 3.100762 1_555
O5 Sr5 2.439743 1_455
O5 Sr14 2.647684 1_455
O5 Sr16 3.208420 1_554
O6 Sr6 2.473433 1_555
O6 Sr17 2.701179 1_465
O6 Sr5 2.813297 1_455
O6 Sr9 2.947158 1_555
O7 Sr7 2.469642 1_555
O7 Sr15 2.724176 1_555
O7 Sr10 3.092210 1_555
O8 Sr8 2.416283 1_554
O8 Sr16 2.657127 1_554
O8 Sr11 3.222346 1_545
O9 Sr0 2.473433 1_555
O9 Sr10 2.701179 1_465
O9 Sr4 2.813297 1_565
O9 Sr15 2.947158 1_555
O10 Sr1 2.416283 1_556
O10 Sr11 2.657127 1_556
O10 Sr16 3.222346 1_655
O11 Sr2 2.469642 1_555
O11 Sr9 2.724176 1_555
O11 Sr17 3.092210 1_555
O12 Sr6 2.462885 1_545
O12 Sr15 2.653644 1_545
O12 Sr14 2.932059 1_455
O12 Sr2 2.961155 1_555
O13 Sr7 2.416003 1_555
O13 Sr16 2.662165 1_655
O13 Sr12 3.141405 1_565
O14 Sr8 2.457068 1_554
O14 Sr17 2.686733 1_555
O14 Sr13 3.133647 1_555
O15 Sr3 2.485754 1_555
O15 Sr14 2.691229 1_555
O15 Sr7 2.859633 1_555
O15 Sr10 3.006026 1_555
O16 Sr4 2.439743 1_565
O16 Sr12 2.647684 1_565
O16 Sr11 3.208420 1_556
O17 Sr5 2.440922 1_455
O17 Sr13 2.699080 1_555
O17 Sr9 3.100762 1_555
O18 Sr17 2.562784 1_565
O18 Sr5 2.631910 1_555
O18 Sr2 2.668929 1_565
O18 Sr11 2.854914 1_555
O19 Sr15 2.488801 1_555
O19 Sr0 2.730036 1_555
O19 Sr3 2.731488 1_555
O19 Sr9 2.893471 1_555
O20 Sr16 2.528354 1_555
O20 Sr4 2.668726 1_555
O20 Sr1 2.712787 1_456
O20 Sr10 2.769550 1_455
O21 Sr9 2.543079 1_655
O21 Sr7 2.631396 1_555
O21 Sr5 2.658623 1_555
O21 Sr14 2.852834 1_555
O22 Sr10 2.514700 1_555
O22 Sr3 2.669216 1_555
O22 Sr8 2.679268 1_555
O22 Sr12 3.027776 1_555
O23 Sr11 2.512865 1_555
O23 Sr6 2.743567 1_555
O23 Sr4 2.782809 1_564
O23 Sr13 2.830305 1_555
O24 Sr12 2.522561 1_565
O24 Sr2 2.645911 1_565
O24 Sr7 2.679676 1_555
O24 Sr15 2.847641 1_555
O25 Sr13 2.519220 1_556
O25 Sr8 2.739958 1_555
O25 Sr0 2.743314 1_555
O25 Sr16 2.928424 1_555
O26 Sr14 2.506236 1_455
O26 Sr1 2.644826 1_455
O26 Sr6 2.678764 1_545
O26 Sr17 2.881757 1_455
O27 Sr14 2.522561 1_455
O27 Sr7 2.645911 1_455
O27 Sr2 2.679676 1_555
O27 Sr9 2.847641 1_555
O28 Sr12 2.506236 1_565
O28 Sr8 2.644826 1_565
O28 Sr0 2.678764 1_655
O28 Sr10 2.881757 1_565
O29 Sr13 2.519220 1_555
O29 Sr1 2.739958 1_555
O29 Sr6 2.743314 1_555
O29 Sr11 2.928424 1_555
O30 Sr10 2.562784 1_455
O30 Sr4 2.631910 1_555
O30 Sr7 2.668929 1_455
O30 Sr16 2.854914 1_555
O31 Sr11 2.528354 1_555
O31 Sr5 2.668726 1_555
O31 Sr8 2.712787 1_564
O31 Sr17 2.769550 1_565
O32 Sr9 2.488801 1_555
O32 Sr6 2.730036 1_555
O32 Sr3 2.731488 1_555
O32 Sr15 2.893471 1_555
O33 Sr15 2.543079 1_545
O33 Sr2 2.631396 1_555
O33 Sr4 2.658623 1_555
O33 Sr12 2.852834 1_555
O34 Sr16 2.512865 1_555
O34 Sr0 2.743567 1_555
O34 Sr5 2.782809 1_456
O34 Sr13 2.830305 1_556
O35 Sr17 2.514700 1_555
O35 Sr3 2.669216 1_555
O35 Sr1 2.679268 1_555
O35 Sr14 3.027776 1_555
O36 Sr8 2.647051 1_555
O36 Sr16 2.668518 1_555
O36 Sr12 2.722744 1_555
O36 Sr4 2.726907 1_555
O37 Sr7 2.648557 1_555
O37 Sr3 2.674176 1_555
O37 Sr15 2.705100 1_555
O37 Sr14 2.756402 1_555
O38 Sr13 2.637253 1_555
O38 Sr5 2.637936 1_455
O38 Sr17 2.688274 1_465
O38 Sr6 2.711558 1_555
O39 Sr1 2.616479 1_555
O39 Sr8 2.616479 1_554
O39 Sr10 2.689764 1_554
O39 Sr17 2.689764 1_555
O40 Sr16 2.654500 1_555
O40 Sr9 2.675657 1_555
O40 Sr0 2.693515 1_555
O40 Sr7 2.715724 1_455
O41 Sr11 2.654500 1_555
O41 Sr15 2.675657 1_555
O41 Sr6 2.693515 1_555
O41 Sr2 2.715724 1_565
O42 Sr2 2.648557 1_555
O42 Sr3 2.674176 1_555
O42 Sr9 2.705100 1_555
O42 Sr12 2.756402 1_555
O43 Sr1 2.647051 1_555
O43 Sr11 2.668518 1_555
O43 Sr14 2.722744 1_555
O43 Sr5 2.726907 1_555
O44 Sr13 2.637253 1_556
O44 Sr4 2.637936 1_565
O44 Sr10 2.688274 1_465
O44 Sr0 2.711558 1_555
