# generated using pymatgen
data_Yb2SeO2
_symmetry_space_group_name_H-M   'P 1'
_cell_length_a   3.73527025
_cell_length_b   3.73527025
_cell_length_c   7.72561900
_cell_angle_alpha   90.00000000
_cell_angle_beta   90.00000000
_cell_angle_gamma   120.00000445
_symmetry_Int_Tables_number   1
_chemical_formula_structural   Yb2SeO2
_chemical_formula_sum   'Yb2 Se1 O2'
_cell_volume   93.34863175
_cell_formula_units_Z   1
loop_
 _symmetry_equiv_pos_site_id
 _symmetry_equiv_pos_as_xyz
  1  'x, y, z'
loop_
 _atom_site_type_symbol
 _atom_site_label
 _atom_site_symmetry_multiplicity
 _atom_site_fract_x
 _atom_site_fract_y
 _atom_site_fract_z
 _atom_site_occupancy
  Yb  Yb0  1  0.66666700  0.33333300  0.67271900  1
  Yb  Yb1  1  0.33333300  0.66666700  0.32728100  1
  Se  Se0  1  0.00000000  0.00000000  0.00000000  1
  O  O0  1  0.66666700  0.33333300  0.37835000  1
  O  O1  1  0.33333300  0.66666700  0.62165000  1
loop_
_geom_bond_atom_site_label_1
_geom_bond_atom_site_label_2
_geom_bond_distance
_geom_bond_site_symmetry_2
Se0 Yb0 3.323220 1_454
Se0 Yb1 3.323220 1_545
Se0 Yb1 3.323222 1_555
Se0 Yb1 3.323222 1_445
Se0 Yb0 3.323222 1_554
Se0 Yb0 3.323222 1_444
O0 Yb1 2.192350 1_545
O0 Yb1 2.192350 1_655
O0 Yb1 2.192357 1_555
O0 Yb0 2.274183 1_555
O1 Yb0 2.192350 1_455
O1 Yb0 2.192350 1_565
O1 Yb0 2.192357 1_555
O1 Yb1 2.274183 1_555
