# generated using pymatgen
data_EuRe2
_symmetry_space_group_name_H-M   'P 1'
_cell_length_a   5.49615538
_cell_length_b   5.49615538
_cell_length_c   8.82979000
_cell_angle_alpha   90.00000000
_cell_angle_beta   90.00000000
_cell_angle_gamma   119.99999250
_symmetry_Int_Tables_number   1
_chemical_formula_structural   EuRe2
_chemical_formula_sum   'Eu4 Re8'
_cell_volume   230.99311897
_cell_formula_units_Z   4
loop_
 _symmetry_equiv_pos_site_id
 _symmetry_equiv_pos_as_xyz
  1  'x, y, z'
loop_
 _atom_site_type_symbol
 _atom_site_label
 _atom_site_symmetry_multiplicity
 _atom_site_fract_x
 _atom_site_fract_y
 _atom_site_fract_z
 _atom_site_occupancy
  Eu  Eu0  1  0.33333300  0.66666700  0.43779000  1
  Eu  Eu1  1  0.66666700  0.33333300  0.56221000  1
  Eu  Eu2  1  0.66666700  0.33333300  0.93779000  1
  Eu  Eu3  1  0.33333300  0.66666700  0.06221000  1
  Re  Re0  1  0.00000000  0.00000000  0.50000000  1
  Re  Re1  1  0.00000000  0.00000000  0.00000000  1
  Re  Re2  1  0.82897000  0.17103000  0.25000000  1
  Re  Re3  1  0.82897000  0.65794000  0.25000000  1
  Re  Re4  1  0.34206000  0.17103000  0.25000000  1
  Re  Re5  1  0.17103000  0.82897000  0.75000000  1
  Re  Re6  1  0.17103000  0.34206000  0.75000000  1
  Re  Re7  1  0.65794000  0.82897000  0.75000000  1
loop_
_geom_bond_atom_site_label_1
_geom_bond_atom_site_label_2
_geom_bond_distance
_geom_bond_site_symmetry_2
Eu0 Re5 3.160203 1_555
Eu0 Re7 3.160205 1_555
Eu0 Re6 3.160205 1_555
Eu0 Re3 3.209843 1_455
Eu0 Re4 3.209843 1_565
Eu0 Re2 3.209845 1_455
Eu0 Re2 3.209845 1_565
Eu0 Re3 3.209847 1_555
Eu0 Re4 3.209847 1_555
Eu0 Re0 3.220396 1_565
Eu0 Re0 3.220401 1_665
Eu0 Re0 3.220401 1_555
Eu0 Eu3 3.316293 1_555
Eu0 Eu1 3.357998 1_455
Eu0 Eu1 3.357998 1_565
Eu0 Eu1 3.358007 1_555
Eu1 Re2 3.160203 1_555
Eu1 Re4 3.160205 1_555
Eu1 Re3 3.160205 1_555
Eu1 Re7 3.209843 1_545
Eu1 Re6 3.209843 1_655
Eu1 Re5 3.209845 1_545
Eu1 Re5 3.209845 1_655
Eu1 Re6 3.209847 1_555
Eu1 Re7 3.209847 1_555
Eu1 Re0 3.220396 1_655
Eu1 Re0 3.220401 1_665
Eu1 Re0 3.220401 1_555
Eu1 Eu2 3.316293 1_555
Eu2 Re2 3.160203 1_556
Eu2 Re4 3.160205 1_556
Eu2 Re3 3.160205 1_556
Eu2 Re6 3.209843 1_655
Eu2 Re7 3.209843 1_545
Eu2 Re5 3.209845 1_545
Eu2 Re5 3.209845 1_655
Eu2 Re7 3.209847 1_555
Eu2 Re6 3.209847 1_555
Eu2 Re1 3.220396 1_656
Eu2 Re1 3.220401 1_556
Eu2 Re1 3.220401 1_666
Eu2 Eu3 3.357998 1_546
Eu2 Eu3 3.357998 1_656
Eu2 Eu3 3.358007 1_556
Eu3 Re5 3.160203 1_554
Eu3 Re6 3.160205 1_554
Eu3 Re7 3.160205 1_554
Eu3 Re3 3.209843 1_455
Eu3 Re4 3.209843 1_565
Eu3 Re2 3.209845 1_455
Eu3 Re2 3.209845 1_565
Eu3 Re3 3.209847 1_555
Eu3 Re4 3.209847 1_555
Eu3 Re1 3.220396 1_565
Eu3 Re1 3.220401 1_555
Eu3 Re1 3.220401 1_665
Re0 Re2 2.742930 1_455
Re0 Re5 2.742930 1_545
Re0 Re3 2.742930 1_445
Re0 Re7 2.742930 1_445
Re0 Re6 2.742930 1_555
Re0 Re4 2.742930 1_555
Re1 Re2 2.742930 1_455
Re1 Re5 2.742930 1_544
Re1 Re7 2.742930 1_444
Re1 Re3 2.742930 1_445
Re1 Re6 2.742930 1_554
Re1 Re4 2.742930 1_555
Re2 Re3 2.676133 1_555
Re2 Re4 2.676133 1_555
Re2 Re3 2.820022 1_545
Re2 Re4 2.820022 1_655
Re3 Re4 2.676133 1_555
Re3 Re4 2.820023 1_665
Re5 Re7 2.676133 1_555
Re5 Re6 2.676133 1_555
Re5 Re7 2.820022 1_455
Re5 Re6 2.820022 1_565
Re6 Re7 2.676133 1_555
Re6 Re7 2.820023 1_445
