# generated using pymatgen
data_Ba6Nd2Ti4O17
_symmetry_space_group_name_H-M   'P 1'
_cell_length_a   6.06662667
_cell_length_b   6.06662667
_cell_length_c   30.48331700
_cell_angle_alpha   90.00000000
_cell_angle_beta   90.00000000
_cell_angle_gamma   120.00000726
_symmetry_Int_Tables_number   1
_chemical_formula_structural   Ba6Nd2Ti4O17
_chemical_formula_sum   'Ba12 Nd4 Ti8 O34'
_cell_volume   971.59967696
_cell_formula_units_Z   2
loop_
 _symmetry_equiv_pos_site_id
 _symmetry_equiv_pos_as_xyz
  1  'x, y, z'
loop_
 _atom_site_type_symbol
 _atom_site_label
 _atom_site_symmetry_multiplicity
 _atom_site_fract_x
 _atom_site_fract_y
 _atom_site_fract_z
 _atom_site_occupancy
  Ba  Ba0  1  0.00000000  0.00000000  0.75000000  1
  Ba  Ba1  1  0.00000000  0.00000000  0.25000000  1
  Ba  Ba2  1  0.33333300  0.66666700  0.31321500  1
  Ba  Ba3  1  0.66666700  0.33333300  0.81321500  1
  Ba  Ba4  1  0.66666700  0.33333300  0.68678500  1
  Ba  Ba5  1  0.33333300  0.66666700  0.18678500  1
  Ba  Ba6  1  0.66666700  0.33333300  0.41123800  1
  Ba  Ba7  1  0.33333300  0.66666700  0.91123800  1
  Ba  Ba8  1  0.33333300  0.66666700  0.58876200  1
  Ba  Ba9  1  0.66666700  0.33333300  0.08876200  1
  Ba  Ba10  1  0.00000000  0.00000000  0.50000000  1
  Ba  Ba11  1  0.00000000  0.00000000  0.00000000  1
  Nd  Nd0  1  0.00000000  0.00000000  0.37357400  1
  Nd  Nd1  1  0.00000000  0.00000000  0.87357400  1
  Nd  Nd2  1  0.00000000  0.00000000  0.62642600  1
  Nd  Nd3  1  0.00000000  0.00000000  0.12642600  1
  Ti  Ti0  1  0.66666700  0.33333300  0.29575800  1
  Ti  Ti1  1  0.33333300  0.66666700  0.79575800  1
  Ti  Ti2  1  0.33333300  0.66666700  0.70424200  1
  Ti  Ti3  1  0.66666700  0.33333300  0.20424200  1
  Ti  Ti4  1  0.33333300  0.66666700  0.44740900  1
  Ti  Ti5  1  0.66666700  0.33333300  0.94740900  1
  Ti  Ti6  1  0.66666700  0.33333300  0.55259100  1
  Ti  Ti7  1  0.33333300  0.66666700  0.05259100  1
  O  O0  1  0.48148400  0.96296800  0.75000000  1
  O  O1  1  0.51851600  0.48148400  0.25000000  1
  O  O2  1  0.96296800  0.48148400  0.25000000  1
  O  O3  1  0.03703200  0.51851600  0.75000000  1
  O  O4  1  0.48148400  0.51851600  0.75000000  1
  O  O5  1  0.51851600  0.03703200  0.25000000  1
  O  O6  1  0.35642800  0.17821400  0.32904200  1
  O  O7  1  0.82178600  0.17821400  0.32904200  1
  O  O8  1  0.82178600  0.64357200  0.32904200  1
  O  O9  1  0.17821400  0.35642800  0.82904200  1
  O  O10  1  0.64357200  0.82178600  0.67095800  1
  O  O11  1  0.64357200  0.82178600  0.82904200  1
  O  O12  1  0.17821400  0.82178600  0.82904200  1
  O  O13  1  0.82178600  0.64357200  0.17095800  1
  O  O14  1  0.82178600  0.17821400  0.17095800  1
  O  O15  1  0.17821400  0.82178600  0.67095800  1
  O  O16  1  0.17821400  0.35642800  0.67095800  1
  O  O17  1  0.35642800  0.17821400  0.17095800  1
  O  O18  1  0.66018300  0.83009100  0.42511100  1
  O  O19  1  0.16990900  0.83009100  0.42511100  1
  O  O20  1  0.16990900  0.33981700  0.42511100  1
  O  O21  1  0.83009100  0.66018300  0.92511100  1
  O  O22  1  0.33981700  0.16990900  0.57488900  1
  O  O23  1  0.33981700  0.16990900  0.92511100  1
  O  O24  1  0.33333300  0.66666700  0.99423200  1
  O  O25  1  0.66666700  0.33333300  0.49423200  1
  O  O26  1  0.66666700  0.33333300  0.00576800  1
  O  O27  1  0.33333300  0.66666700  0.50576800  1
  O  O28  1  0.66018300  0.83009100  0.07488900  1
  O  O29  1  0.83009100  0.66018300  0.57488900  1
  O  O30  1  0.83009100  0.16990900  0.57488900  1
  O  O31  1  0.16990900  0.83009100  0.07488900  1
  O  O32  1  0.16990900  0.33981700  0.07488900  1
  O  O33  1  0.83009100  0.16990900  0.92511100  1
loop_
_geom_bond_atom_site_label_1
_geom_bond_atom_site_label_2
_geom_bond_distance
_geom_bond_site_symmetry_2
Ba0 O4 3.039546 1_555
Ba0 O4 3.039546 1_445
Ba0 O3 3.039547 1_555
Ba0 O0 3.039547 1_445
Ba0 O3 3.039547 1_545
Ba0 O0 3.039547 1_545
Ba0 O9 3.051592 1_555
Ba0 O11 3.051592 1_445
Ba0 O16 3.051592 1_555
Ba0 O10 3.051592 1_445
Ba0 O12 3.051592 1_545
Ba0 O15 3.051592 1_545
Ba1 O1 3.039546 1_555
Ba1 O1 3.039546 1_445
Ba1 O5 3.039547 1_555
Ba1 O2 3.039547 1_445
Ba1 O5 3.039547 1_455
Ba1 O2 3.039547 1_455
Ba1 O6 3.051592 1_555
Ba1 O17 3.051592 1_555
Ba1 O8 3.051592 1_445
Ba1 O13 3.051592 1_445
Ba1 O14 3.051592 1_455
Ba1 O7 3.051592 1_455
Ba2 O5 2.738548 1_565
Ba2 O2 2.738548 1_455
Ba2 O1 2.738552 1_555
Ba2 O6 3.073835 1_565
Ba2 O8 3.073835 1_455
Ba2 O7 3.073837 1_565
Ba2 O7 3.073837 1_455
Ba2 O6 3.073841 1_555
Ba2 O8 3.073841 1_555
Ba3 O3 2.738548 1_655
Ba3 O0 2.738548 1_545
Ba3 O4 2.738552 1_555
Ba3 O9 3.073835 1_655
Ba3 O11 3.073835 1_545
Ba3 O12 3.073837 1_655
Ba3 O12 3.073837 1_545
Ba3 O11 3.073841 1_555
Ba3 O9 3.073841 1_555
Ba4 O3 2.738548 1_655
Ba4 O0 2.738548 1_545
Ba4 O4 2.738552 1_555
Ba4 O16 3.073835 1_655
Ba4 O10 3.073835 1_545
Ba4 O15 3.073837 1_655
Ba4 O15 3.073837 1_545
Ba4 O10 3.073841 1_555
Ba4 O16 3.073841 1_555
Ba5 O5 2.738548 1_565
Ba5 O2 2.738548 1_455
Ba5 O1 2.738552 1_555
Ba5 O17 3.073835 1_565
Ba5 O13 3.073835 1_455
Ba5 O14 3.073837 1_565
Ba5 O14 3.073837 1_455
Ba5 O17 3.073841 1_555
Ba5 O13 3.073841 1_555
Ba6 O25 2.529932 1_555
Ba6 O7 2.989111 1_555
Ba6 O8 2.989114 1_555
Ba6 O6 2.989114 1_555
Ba6 O19 3.062840 1_655
Ba6 O19 3.062840 1_545
Ba6 O20 3.062840 1_655
Ba6 O18 3.062840 1_545
Ba6 O18 3.062840 1_555
Ba6 O20 3.062840 1_555
Ba7 O24 2.529932 1_555
Ba7 O12 2.989111 1_555
Ba7 O11 2.989114 1_555
Ba7 O9 2.989114 1_555
Ba7 O33 3.062840 1_565
Ba7 O33 3.062840 1_455
Ba7 O23 3.062840 1_565
Ba7 O21 3.062840 1_455
Ba7 O21 3.062840 1_555
Ba7 O23 3.062840 1_555
Ba8 O27 2.529932 1_555
Ba8 O15 2.989111 1_555
Ba8 O10 2.989114 1_555
Ba8 O16 2.989114 1_555
Ba8 O30 3.062840 1_565
Ba8 O30 3.062840 1_455
Ba8 O22 3.062840 1_565
Ba8 O29 3.062840 1_455
Ba8 O29 3.062840 1_555
Ba8 O22 3.062840 1_555
Ba9 O26 2.529932 1_555
Ba9 O14 2.989111 1_555
Ba9 O13 2.989114 1_555
Ba9 O17 2.989114 1_555
Ba9 O31 3.062840 1_655
Ba9 O31 3.062840 1_545
Ba9 O32 3.062840 1_655
Ba9 O28 3.062840 1_545
Ba9 O28 3.062840 1_555
Ba9 O32 3.062840 1_555
Ba10 O22 2.898093 1_555
Ba10 O29 2.898093 1_445
Ba10 O20 2.898093 1_555
Ba10 O18 2.898093 1_445
Ba10 O30 2.898096 1_455
Ba10 O19 2.898096 1_545
Ba11 O28 2.898093 1_445
Ba11 O32 2.898093 1_555
Ba11 O23 2.898093 1_554
Ba11 O21 2.898093 1_444
Ba11 O31 2.898096 1_545
Ba11 O33 2.898096 1_454
Nd0 O6 2.312891 1_555
Nd0 O8 2.312891 1_445
Nd0 O7 2.312892 1_455
Nd0 O20 2.378144 1_555
Nd0 O18 2.378144 1_445
Nd0 O19 2.378148 1_545
Nd1 O9 2.312891 1_555
Nd1 O11 2.312891 1_445
Nd1 O12 2.312892 1_545
Nd1 O21 2.378144 1_445
Nd1 O23 2.378144 1_555
Nd1 O33 2.378148 1_455
Nd2 O16 2.312891 1_555
Nd2 O10 2.312891 1_445
Nd2 O15 2.312892 1_545
Nd2 O22 2.378144 1_555
Nd2 O29 2.378144 1_445
Nd2 O30 2.378148 1_455
Nd3 O17 2.312891 1_555
Nd3 O13 2.312891 1_445
Nd3 O14 2.312892 1_455
Nd3 O28 2.378144 1_445
Nd3 O32 2.378144 1_555
Nd3 O31 2.378148 1_545
O0 Ti1 2.090216 1_555
O0 Ti2 2.090216 1_555
O1 Ti0 2.090220 1_555
O1 Ti3 2.090220 1_555
O2 Ti0 2.090216 1_555
O2 Ti3 2.090216 1_555
O3 Ti1 2.090216 1_555
O3 Ti2 2.090216 1_555
O4 Ti1 2.090220 1_555
O4 Ti2 2.090220 1_555
O5 Ti0 2.090216 1_555
O5 Ti3 2.090216 1_555
O6 Ti0 1.919938 1_555
O7 Ti0 1.919934 1_555
O8 Ti0 1.919938 1_555
O9 Ti1 1.919938 1_555
O10 Ti2 1.919938 1_555
O11 Ti1 1.919938 1_555
O12 Ti1 1.919934 1_555
O13 Ti3 1.919938 1_555
O14 Ti3 1.919934 1_555
O15 Ti2 1.919934 1_555
O16 Ti2 1.919938 1_555
O17 Ti3 1.919938 1_555
O18 Ti4 1.846853 1_555
O19 Ti4 1.846843 1_555
O20 Ti4 1.846853 1_555
O21 Ti5 1.846853 1_555
O22 Ti6 1.846853 1_555
O23 Ti5 1.846853 1_555
O24 Ti7 1.778976 1_556
O25 Ti6 1.778976 1_555
O26 Ti5 1.778976 1_554
O27 Ti4 1.778976 1_555
O28 Ti7 1.846853 1_555
O29 Ti6 1.846853 1_555
O30 Ti6 1.846843 1_555
O31 Ti7 1.846843 1_555
O32 Ti7 1.846853 1_555
O33 Ti5 1.846843 1_555
