# generated using pymatgen
data_NbV(Cu3Se4)2
_symmetry_space_group_name_H-M   'P 1'
_cell_length_a   5.64957900
_cell_length_b   5.64957900
_cell_length_c   11.29254000
_cell_angle_alpha   90.00000000
_cell_angle_beta   90.00000000
_cell_angle_gamma   90.00000000
_symmetry_Int_Tables_number   1
_chemical_formula_structural   NbV(Cu3Se4)2
_chemical_formula_sum   'Nb1 V1 Cu6 Se8'
_cell_volume   360.43238815
_cell_formula_units_Z   1
loop_
 _symmetry_equiv_pos_site_id
 _symmetry_equiv_pos_as_xyz
  1  'x, y, z'
loop_
 _atom_site_type_symbol
 _atom_site_label
 _atom_site_symmetry_multiplicity
 _atom_site_fract_x
 _atom_site_fract_y
 _atom_site_fract_z
 _atom_site_occupancy
  Nb  Nb0  1  0.00000000  0.00000000  0.00000000  1
  V  V0  1  0.00000000  0.00000000  0.50000000  1
  Cu  Cu0  1  0.00000000  0.00000000  0.25184200  1
  Cu  Cu1  1  0.00000000  0.00000000  0.74815800  1
  Cu  Cu2  1  0.00000000  0.50000000  0.00000000  1
  Cu  Cu3  1  0.00000000  0.50000000  0.50000000  1
  Cu  Cu4  1  0.50000000  0.00000000  0.00000000  1
  Cu  Cu5  1  0.50000000  0.00000000  0.50000000  1
  Se  Se0  1  0.74824700  0.74824700  0.12618800  1
  Se  Se1  1  0.75827200  0.75827200  0.62054600  1
  Se  Se2  1  0.75827200  0.24172800  0.37945400  1
  Se  Se3  1  0.74824700  0.25175300  0.87381200  1
  Se  Se4  1  0.24172800  0.75827200  0.37945400  1
  Se  Se5  1  0.25175300  0.74824700  0.87381200  1
  Se  Se6  1  0.25175300  0.25175300  0.12618800  1
  Se  Se7  1  0.24172800  0.24172800  0.62054600  1
loop_
_geom_bond_atom_site_label_1
_geom_bond_atom_site_label_2
_geom_bond_distance
_geom_bond_site_symmetry_2
Nb0 Se5 2.465044 1_544
Nb0 Se6 2.465044 1_555
Nb0 Se0 2.465044 1_445
Nb0 Se3 2.465044 1_454
Cu0 Se2 2.409715 1_455
Cu0 Se4 2.409715 1_545
Cu0 Se0 2.461563 1_445
Cu0 Se6 2.461563 1_555
Cu1 Se7 2.409715 1_555
Cu1 Se1 2.409715 1_445
Cu1 Se3 2.461563 1_455
Cu1 Se5 2.461563 1_545
Cu2 Se5 2.453669 1_554
Cu2 Se3 2.453669 1_454
Cu2 Se0 2.453669 1_455
Cu2 Se6 2.453669 1_555
Cu3 Se2 2.418087 1_455
Cu3 Se4 2.418087 1_555
Cu3 Se1 2.418087 1_455
Cu3 Se7 2.418087 1_555
Cu4 Se3 2.453669 1_554
Cu4 Se5 2.453669 1_544
Cu4 Se0 2.453669 1_545
Cu4 Se6 2.453669 1_555
Cu5 Se4 2.418087 1_545
Cu5 Se2 2.418087 1_555
Cu5 Se1 2.418087 1_545
Cu5 Se7 2.418087 1_555
Se1 V0 2.362863 1_665
Se2 V0 2.362863 1_655
Se4 V0 2.362863 1_565
Se7 V0 2.362863 1_555
