# generated using pymatgen
data_HoMgS3
_symmetry_space_group_name_H-M   'P 1'
_cell_length_a   6.64966900
_cell_length_b   6.64966901
_cell_length_c   18.00018600
_cell_angle_alpha   90.00000000
_cell_angle_beta   90.00000000
_cell_angle_gamma   120.00000494
_symmetry_Int_Tables_number   1
_chemical_formula_structural   HoMgS3
_chemical_formula_sum   'Ho6 Mg6 S18'
_cell_volume   689.29901726
_cell_formula_units_Z   6
loop_
 _symmetry_equiv_pos_site_id
 _symmetry_equiv_pos_as_xyz
  1  'x, y, z'
loop_
 _atom_site_type_symbol
 _atom_site_label
 _atom_site_symmetry_multiplicity
 _atom_site_fract_x
 _atom_site_fract_y
 _atom_site_fract_z
 _atom_site_occupancy
  Ho  Ho0  1  0.00000000  0.00000000  0.34939000  1
  Ho  Ho1  1  0.00000000  0.00000000  0.65061000  1
  Ho  Ho2  1  0.66666700  0.33333300  0.68272300  1
  Ho  Ho3  1  0.66666700  0.33333300  0.98394300  1
  Ho  Ho4  1  0.33333300  0.66666700  0.01605700  1
  Ho  Ho5  1  0.33333300  0.66666700  0.31727700  1
  Mg  Mg0  1  0.00000000  0.00000000  0.15582000  1
  Mg  Mg1  1  0.00000000  0.00000000  0.84418000  1
  Mg  Mg2  1  0.66666700  0.33333300  0.48915300  1
  Mg  Mg3  1  0.66666700  0.33333300  0.17751300  1
  Mg  Mg4  1  0.33333300  0.66666700  0.82248700  1
  Mg  Mg5  1  0.33333300  0.66666700  0.51084700  1
  S  S0  1  0.98455300  0.35240400  0.58266500  1
  S  S1  1  0.01544700  0.64759600  0.41733500  1
  S  S2  1  0.64759600  0.63214900  0.58266500  1
  S  S3  1  0.35240400  0.36785100  0.41733500  1
  S  S4  1  0.36785100  0.01544700  0.58266500  1
  S  S5  1  0.63214900  0.98455300  0.41733500  1
  S  S6  1  0.65122000  0.68573700  0.91599800  1
  S  S7  1  0.68211400  0.98092900  0.75066800  1
  S  S8  1  0.31426300  0.96548200  0.91599800  1
  S  S9  1  0.01907100  0.70118400  0.75066800  1
  S  S10  1  0.03451800  0.34878000  0.91599800  1
  S  S11  1  0.29881600  0.31788600  0.75066800  1
  S  S12  1  0.31788600  0.01907100  0.24933200  1
  S  S13  1  0.34878000  0.31426300  0.08400200  1
  S  S14  1  0.98092900  0.29881600  0.24933200  1
  S  S15  1  0.68573700  0.03451800  0.08400200  1
  S  S16  1  0.70118400  0.68211400  0.24933200  1
  S  S17  1  0.96548200  0.65122000  0.08400200  1
loop_
_geom_bond_atom_site_label_1
_geom_bond_atom_site_label_2
_geom_bond_distance
_geom_bond_site_symmetry_2
Ho0 S3 2.690432 1_555
Ho0 S5 2.690432 1_445
Ho0 S1 2.690432 1_545
Ho0 S12 2.731327 1_555
Ho0 S16 2.731329 1_445
Ho0 S14 2.731332 1_455
Ho1 S2 2.690432 1_445
Ho1 S4 2.690432 1_555
Ho1 S0 2.690432 1_455
Ho1 S7 2.731327 1_445
Ho1 S11 2.731329 1_555
Ho1 S9 2.731332 1_545
Ho2 S9 2.690432 1_655
Ho2 S11 2.690432 1_555
Ho2 S7 2.690432 1_545
Ho2 S0 2.731327 1_555
Ho2 S4 2.731329 1_555
Ho2 S2 2.731332 1_555
Ho3 S8 2.690432 1_545
Ho3 S10 2.690432 1_655
Ho3 S6 2.690432 1_555
Ho3 S15 2.731336 1_556
Ho3 S17 2.731341 1_556
Ho3 S13 2.731346 1_556
Ho4 S15 2.690432 1_565
Ho4 S17 2.690432 1_455
Ho4 S13 2.690432 1_555
Ho4 S8 2.731336 1_554
Ho4 S10 2.731341 1_554
Ho4 S6 2.731346 1_554
Ho5 S14 2.690432 1_455
Ho5 S16 2.690432 1_555
Ho5 S12 2.690432 1_565
Ho5 S1 2.731327 1_555
Ho5 S5 2.731329 1_555
Ho5 S3 2.731332 1_555
Mg0 S17 2.563304 1_445
Mg0 S13 2.563306 1_555
Mg0 S15 2.563309 1_455
Mg0 S12 2.655107 1_555
Mg0 S16 2.655109 1_445
Mg0 S14 2.655112 1_455
Mg1 S10 2.563304 1_555
Mg1 S6 2.563306 1_445
Mg1 S8 2.563309 1_545
Mg1 S7 2.655107 1_445
Mg1 S11 2.655109 1_555
Mg1 S9 2.655112 1_545
Mg2 S5 2.563304 1_545
Mg2 S1 2.563306 1_655
Mg2 S3 2.563309 1_555
Mg2 S0 2.655107 1_555
Mg2 S4 2.655109 1_555
Mg2 S2 2.655112 1_555
Mg3 S14 2.563310 1_555
Mg3 S12 2.563316 1_555
Mg3 S16 2.563321 1_555
Mg3 S15 2.655093 1_555
Mg3 S17 2.655099 1_555
Mg3 S13 2.655103 1_555
Mg4 S9 2.563310 1_555
Mg4 S7 2.563316 1_555
Mg4 S11 2.563321 1_555
Mg4 S8 2.655093 1_555
Mg4 S10 2.655099 1_555
Mg4 S6 2.655103 1_555
Mg5 S4 2.563304 1_565
Mg5 S0 2.563306 1_455
Mg5 S2 2.563309 1_555
Mg5 S1 2.655107 1_555
Mg5 S5 2.655109 1_555
Mg5 S3 2.655112 1_555
