# generated using pymatgen
data_K3AuCl6
_symmetry_space_group_name_H-M   'P 1'
_cell_length_a   7.73406810
_cell_length_b   7.73406810
_cell_length_c   7.73406810
_cell_angle_alpha   60.00000000
_cell_angle_beta   60.00000000
_cell_angle_gamma   60.00000000
_symmetry_Int_Tables_number   1
_chemical_formula_structural   K3AuCl6
_chemical_formula_sum   'K3 Au1 Cl6'
_cell_volume   327.12141614
_cell_formula_units_Z   1
loop_
 _symmetry_equiv_pos_site_id
 _symmetry_equiv_pos_as_xyz
  1  'x, y, z'
loop_
 _atom_site_type_symbol
 _atom_site_label
 _atom_site_symmetry_multiplicity
 _atom_site_fract_x
 _atom_site_fract_y
 _atom_site_fract_z
 _atom_site_occupancy
  K  K0  1  0.75000000  0.75000000  0.75000000  1
  K  K1  1  0.25000000  0.25000000  0.25000000  1
  K  K2  1  0.50000000  0.50000000  0.50000000  1
  Au  Au0  1  0.00000000  0.00000000  0.00000000  1
  Cl  Cl0  1  0.77048500  0.22951500  0.22951500  1
  Cl  Cl1  1  0.22951500  0.22951500  0.77048500  1
  Cl  Cl2  1  0.22951500  0.77048500  0.77048500  1
  Cl  Cl3  1  0.22951500  0.77048500  0.22951500  1
  Cl  Cl4  1  0.77048500  0.22951500  0.77048500  1
  Cl  Cl5  1  0.77048500  0.77048500  0.22951500  1
loop_
_geom_bond_atom_site_label_1
_geom_bond_atom_site_label_2
_geom_bond_distance
_geom_bond_site_symmetry_2
Au0 Cl4 2.510349 1_454
Au0 Cl1 2.510349 1_554
Au0 Cl0 2.510349 1_455
Au0 Cl5 2.510349 1_445
Au0 Cl3 2.510349 1_545
Au0 Cl2 2.510349 1_544
Cl0 K2 2.958463 1_555
Cl1 K2 2.958463 1_555
Cl2 K2 2.958463 1_555
Cl3 K2 2.958463 1_555
Cl4 K2 2.958463 1_555
Cl5 K2 2.958463 1_555
