# generated using pymatgen
data_Nd14Au51
_symmetry_space_group_name_H-M   'P 1'
_cell_length_a   9.32934896
_cell_length_b   12.89921270
_cell_length_c   12.89921974
_cell_angle_alpha   60.00146196
_cell_angle_beta   90.00000000
_cell_angle_gamma   90.00000000
_symmetry_Int_Tables_number   1
_chemical_formula_structural   Nd14Au51
_chemical_formula_sum   'Nd14 Au51'
_cell_volume   1344.35823717
_cell_formula_units_Z   1
loop_
 _symmetry_equiv_pos_site_id
 _symmetry_equiv_pos_as_xyz
  1  'x, y, z'
loop_
 _atom_site_type_symbol
 _atom_site_label
 _atom_site_symmetry_multiplicity
 _atom_site_fract_x
 _atom_site_fract_y
 _atom_site_fract_z
 _atom_site_occupancy
  Nd  Nd0  1  0.50000000  0.67837015  0.85644429  1
  Nd  Nd1  1  0.50000000  0.46518328  0.67838177  1
  Nd  Nd2  1  0.50000000  0.85644379  0.46518609  1
  Nd  Nd3  1  0.50000000  0.32394982  0.14454000  1
  Nd  Nd4  1  0.50000000  0.53151178  0.32393692  1
  Nd  Nd5  1  0.50000000  0.14453859  0.53150379  1
  Nd  Nd6  1  0.00000000  0.26894908  0.61830784  1
  Nd  Nd7  1  0.00000000  0.11275154  0.26895497  1
  Nd  Nd8  1  0.00000000  0.61828997  0.11273753  1
  Nd  Nd9  1  0.00000000  0.71547140  0.40030028  1
  Nd  Nd10  1  0.00000000  0.88422850  0.71546882  1
  Nd  Nd11  1  0.00000000  0.40030041  0.88424103  1
  Nd  Nd12  1  0.29853319  -0.00000237  0.00000416  1
  Nd  Nd13  1  0.70146681  -0.00000237  0.00000416  1
  Au  Au0  1  0.00000000  0.66666399  0.66666815  1
  Au  Au1  1  0.00000000  0.33333271  0.33333172  1
  Au  Au2  1  0.33635397  0.33762209  0.56009680  1
  Au  Au3  1  0.33634766  0.10227405  0.33763544  1
  Au  Au4  1  0.33635455  0.56009231  0.10227889  1
  Au  Au5  1  0.33760993  0.65677143  0.44506371  1
  Au  Au6  1  0.33761540  0.89815924  0.65677298  1
  Au  Au7  1  0.33761027  0.44507326  0.89817856  1
  Au  Au8  1  0.66239007  0.65677143  0.44506371  1
  Au  Au9  1  0.66238460  0.89815924  0.65677298  1
  Au  Au10  1  0.66238973  0.44507326  0.89817856  1
  Au  Au11  1  0.66364603  0.33762209  0.56009680  1
  Au  Au12  1  0.66365234  0.10227405  0.33763544  1
  Au  Au13  1  0.66364545  0.56009231  0.10227889  1
  Au  Au14  1  0.15176045  0.62370032  0.88433429  1
  Au  Au15  1  0.15176326  0.49196390  0.62370663  1
  Au  Au16  1  0.15174939  0.88435194  0.49194910  1
  Au  Au17  1  0.15052485  0.38241230  0.11593995  1
  Au  Au18  1  0.15052667  0.50164268  0.38241326  1
  Au  Au19  1  0.15052770  0.11594421  0.50164299  1
  Au  Au20  1  0.84947515  0.38241230  0.11593995  1
  Au  Au21  1  0.84947333  0.50164268  0.38241326  1
  Au  Au22  1  0.84947230  0.11594421  0.50164299  1
  Au  Au23  1  0.84823955  0.62370032  0.88433429  1
  Au  Au24  1  0.84823674  0.49196390  0.62370663  1
  Au  Au25  1  0.84825061  0.88435194  0.49194910  1
  Au  Au26  1  0.23492600  0.07423986  0.72833316  1
  Au  Au27  1  0.23492692  0.19741535  0.07427147  1
  Au  Au28  1  0.23492827  0.72829505  0.19740118  1
  Au  Au29  1  0.23038376  0.92699571  0.26558040  1
  Au  Au30  1  0.23038150  0.80742380  0.92699214  1
  Au  Au31  1  0.23039171  0.26558254  0.80742605  1
  Au  Au32  1  0.76961624  0.92699571  0.26558040  1
  Au  Au33  1  0.76961850  0.80742380  0.92699214  1
  Au  Au34  1  0.76960829  0.26558254  0.80742605  1
  Au  Au35  1  0.76507400  0.07423986  0.72833316  1
  Au  Au36  1  0.76507308  0.19741535  0.07427147  1
  Au  Au37  1  0.76507173  0.72829505  0.19740118  1
  Au  Au38  1  0.30343056  0.66666887  0.66669405  1
  Au  Au39  1  0.30332670  0.33333158  0.33332495  1
  Au  Au40  1  0.69667330  0.33333158  0.33332495  1
  Au  Au41  1  0.69656944  0.66666887  0.66669405  1
  Au  Au42  1  0.50000000  0.17626680  0.76521891  1
  Au  Au43  1  0.50000000  0.05855557  0.17624891  1
  Au  Au44  1  0.50000000  0.76526671  0.05848026  1
  Au  Au45  1  0.50000000  0.81961319  0.24046168  1
  Au  Au46  1  0.50000000  0.93992649  0.81958899  1
  Au  Au47  1  0.50000000  0.24049271  0.93990456  1
  Au  Au48  1  0.00000000  0.97099159  0.89106942  1
  Au  Au49  1  0.00000000  0.13794263  0.97099465  1
  Au  Au50  1  0.00000000  0.89106010  0.13794513  1
loop_
_geom_bond_atom_site_label_1
_geom_bond_atom_site_label_2
_geom_bond_distance
_geom_bond_site_symmetry_2
Nd12 Nd13 3.759108 1_555
Au0 Au38 2.830810 1_555
Au0 Au41 2.830810 1_455
Au0 Au15 2.939173 1_555
Au0 Au24 2.939173 1_455
Au0 Au23 2.939225 1_455
Au0 Au14 2.939225 1_555
Au0 Au16 2.939433 1_555
Au0 Au25 2.939433 1_455
Au0 Nd10 3.168396 1_555
Au0 Nd9 3.168429 1_555
Au0 Nd11 3.168499 1_555
Au1 Au39 2.829841 1_555
Au1 Au40 2.829841 1_455
Au1 Au21 2.908769 1_455
Au1 Au18 2.908769 1_555
Au1 Au20 2.908795 1_455
Au1 Au17 2.908795 1_555
Au1 Au22 2.908811 1_455
Au1 Au19 2.908811 1_555
Au1 Nd7 3.338881 1_555
Au1 Nd8 3.339011 1_555
Au1 Nd6 3.339121 1_555
Au2 Au42 2.856030 1_555
Au2 Au39 2.969270 1_555
Au2 Au31 3.009087 1_555
Au2 Nd5 3.096557 1_555
Au2 Au26 3.126470 1_555
Au2 Nd1 3.142738 1_555
Au2 Nd4 3.201141 1_555
Au2 Nd6 3.245028 1_555
Au3 Au43 2.855993 1_555
Au3 Au39 2.969078 1_555
Au3 Nd3 3.096691 1_555
Au3 Nd2 3.142665 1_545
Au3 Nd5 3.200827 1_555
Au3 Nd7 3.244972 1_555
Au4 Au44 2.856445 1_555
Au4 Nd4 3.096419 1_555
Au4 Nd0 3.142676 1_554
Au4 Nd3 3.200937 1_555
Au4 Nd8 3.244977 1_555
Au5 Au8 3.029987 1_555
Au5 Nd2 3.108839 1_555
Au5 Nd4 3.141892 1_555
Au5 Nd1 3.165923 1_555
Au5 Nd9 3.223358 1_555
Au6 Au9 3.029885 1_555
Au6 Nd0 3.108830 1_555
Au6 Nd5 3.141852 1_565
Au6 Nd2 3.165719 1_555
Au6 Nd10 3.223399 1_555
Au7 Nd1 3.108932 1_555
Au7 Nd3 3.141698 1_556
Au7 Nd0 3.165627 1_555
Au7 Nd11 3.223384 1_555
Au8 Nd2 3.108839 1_555
Au8 Nd4 3.141892 1_555
Au8 Nd1 3.165923 1_555
Au8 Nd9 3.223358 1_655
Au9 Nd0 3.108830 1_555
Au9 Nd5 3.141852 1_565
Au9 Nd2 3.165719 1_555
Au9 Nd10 3.223399 1_655
Au10 Au23 2.817055 1_555
Au10 Au47 2.851059 1_555
Au10 Au41 2.941675 1_555
Au10 Au36 3.004428 1_556
Au10 Au7 3.029981 1_555
Au10 Au20 3.052799 1_556
Au10 Nd1 3.108932 1_555
Au10 Nd3 3.141698 1_556
Au10 Nd0 3.165627 1_555
Au10 Nd11 3.223384 1_655
Au10 Au34 3.231370 1_555
Au11 Au21 2.808208 1_555
Au11 Au42 2.856030 1_555
Au11 Au40 2.969270 1_555
Au11 Au34 3.009087 1_555
Au11 Au24 3.039085 1_555
Au11 Au2 3.053422 1_555
Au11 Nd5 3.096557 1_555
Au11 Au35 3.126470 1_555
Au11 Nd1 3.142738 1_555
Au11 Nd4 3.201141 1_555
Au11 Nd6 3.245028 1_655
Au12 Au22 2.808034 1_555
Au12 Au43 2.855993 1_555
Au12 Au40 2.969078 1_555
Au12 Au32 3.009058 1_545
Au12 Au25 3.038880 1_545
Au12 Au3 3.053540 1_555
Au12 Nd3 3.096691 1_555
Au12 Au36 3.126228 1_555
Au12 Nd2 3.142665 1_545
Au12 Nd5 3.200827 1_555
Au12 Nd7 3.244972 1_655
Au13 Au20 2.808159 1_555
Au13 Au44 2.856445 1_555
Au13 Au40 2.969159 1_555
Au13 Au33 3.009161 1_554
Au13 Au23 3.039065 1_554
Au13 Au4 3.053411 1_555
Au13 Nd4 3.096419 1_555
Au13 Au37 3.125784 1_555
Au13 Nd0 3.142676 1_554
Au13 Nd3 3.200937 1_555
Au13 Nd8 3.244977 1_655
Au14 Au30 2.785880 1_555
Au14 Au7 2.817055 1_555
Au14 Au23 2.831652 1_455
Au14 Au38 2.938513 1_555
Au14 Au4 3.039065 1_556
Au14 Au17 3.051985 1_556
Au14 Nd11 3.211250 1_555
Au14 Nd8 3.237910 1_556
Au14 Nd10 3.274612 1_555
Au14 Nd0 3.305761 1_555
Au15 Au31 2.785947 1_555
Au15 Au5 2.817273 1_555
Au15 Au24 2.831705 1_455
Au15 Au38 2.938987 1_555
Au15 Au2 3.039085 1_555
Au15 Au18 3.052012 1_555
Au15 Nd9 3.211440 1_555
Au15 Nd6 3.238102 1_555
Au15 Nd11 3.274669 1_555
Au15 Nd1 3.305746 1_555
Au16 Au29 2.785842 1_555
Au16 Au6 2.817349 1_555
Au16 Au25 2.831446 1_455
Au16 Au38 2.939187 1_555
Au16 Au3 3.038880 1_565
Au16 Au19 3.051820 1_565
Au16 Nd10 3.211339 1_555
Au16 Nd7 3.237906 1_565
Au16 Nd9 3.274541 1_555
Au16 Nd2 3.305863 1_555
Au17 Au4 2.808159 1_555
Au17 Au27 2.808200 1_555
Au17 Au20 2.808598 1_455
Au17 Au39 2.919032 1_555
Au17 Au7 3.052799 1_554
Au17 Nd11 3.204409 1_554
Au17 Nd3 3.325154 1_555
Au17 Nd7 3.331950 1_555
Au17 Nd8 3.332524 1_555
Au18 Au2 2.808208 1_555
Au18 Au28 2.808224 1_555
Au18 Au21 2.808632 1_455
Au18 Au39 2.919131 1_555
Au18 Au5 3.052966 1_555
Au18 Nd9 3.204606 1_555
Au18 Nd4 3.325168 1_555
Au18 Nd8 3.332104 1_555
Au18 Nd6 3.332798 1_555
Au19 Au3 2.808034 1_555
Au19 Au26 2.808363 1_555
Au19 Au22 2.808651 1_455
Au19 Au39 2.919115 1_555
Au19 Au6 3.053089 1_545
Au19 Nd10 3.204657 1_545
Au19 Nd5 3.325109 1_555
Au19 Nd6 3.331974 1_555
Au19 Nd7 3.332626 1_555
Au20 Au36 2.808200 1_555
Au20 Au40 2.919032 1_555
Au20 Au23 3.051985 1_554
Au20 Nd11 3.204409 1_654
Au20 Nd3 3.325154 1_555
Au20 Nd7 3.331950 1_655
Au20 Nd8 3.332524 1_655
Au21 Au37 2.808224 1_555
Au21 Au40 2.919131 1_555
Au21 Au24 3.052012 1_555
Au21 Au8 3.052966 1_555
Au21 Nd9 3.204606 1_655
Au21 Nd4 3.325168 1_555
Au21 Nd8 3.332104 1_655
Au21 Nd6 3.332798 1_655
Au22 Au35 2.808363 1_555
Au22 Au40 2.919115 1_555
Au22 Au25 3.051820 1_545
Au22 Au9 3.053089 1_545
Au22 Nd10 3.204657 1_645
Au22 Nd5 3.325109 1_555
Au22 Nd6 3.331974 1_655
Au22 Nd7 3.332626 1_655
Au23 Au33 2.785880 1_555
Au23 Au41 2.938513 1_555
Au23 Nd11 3.211250 1_655
Au23 Nd8 3.237910 1_656
Au23 Nd10 3.274612 1_655
Au23 Nd0 3.305761 1_555
Au24 Au34 2.785947 1_555
Au24 Au8 2.817273 1_555
Au24 Au41 2.938987 1_555
Au24 Nd9 3.211440 1_655
Au24 Nd6 3.238102 1_655
Au24 Nd11 3.274669 1_655
Au24 Nd1 3.305746 1_555
Au25 Au32 2.785842 1_555
Au25 Au9 2.817349 1_555
Au25 Au41 2.939187 1_555
Au25 Nd10 3.211339 1_655
Au25 Nd7 3.237906 1_665
Au25 Nd9 3.274541 1_655
Au25 Nd2 3.305863 1_555
Au26 Au48 2.861511 1_545
Au26 Au46 2.909219 1_545
Au26 Au42 2.949600 1_555
Au26 Au6 3.004190 1_545
Au26 Nd6 3.092173 1_555
Au26 Au30 3.097529 1_545
Au26 Au31 3.106854 1_555
Au26 Nd12 3.192780 1_556
Au26 Nd5 3.328947 1_555
Au26 Nd10 3.353386 1_545
Au27 Au49 2.861610 1_554
Au27 Au47 2.909522 1_554
Au27 Au43 2.949262 1_555
Au27 Au7 3.004428 1_554
Au27 Nd7 3.091977 1_555
Au27 Au31 3.097820 1_554
Au27 Au29 3.106683 1_545
Au27 Au3 3.126228 1_555
Au27 Nd12 3.192828 1_555
Au27 Nd3 3.328744 1_555
Au27 Nd11 3.353571 1_554
Au28 Au50 2.861781 1_555
Au28 Au45 2.909598 1_555
Au28 Au44 2.949492 1_555
Au28 Au5 3.004567 1_555
Au28 Nd8 3.091834 1_555
Au28 Au29 3.098170 1_555
Au28 Au30 3.106464 1_554
Au28 Au4 3.125784 1_555
Au28 Nd12 3.192996 1_565
Au28 Nd4 3.328642 1_555
Au28 Nd9 3.353814 1_555
Au29 Au50 2.882403 1_555
Au29 Au43 2.929034 1_565
Au29 Au45 2.966372 1_555
Au29 Au3 3.009058 1_565
Au29 Nd12 3.130625 1_565
Au29 Nd9 3.216035 1_555
Au29 Au5 3.231273 1_555
Au29 Nd7 3.235294 1_565
Au29 Nd2 3.382522 1_555
Au30 Au48 2.882408 1_555
Au30 Au44 2.928690 1_556
Au30 Au46 2.966465 1_555
Au30 Au4 3.009161 1_556
Au30 Nd12 3.130674 1_566
Au30 Nd10 3.215998 1_555
Au30 Au6 3.231223 1_555
Au30 Nd8 3.235289 1_556
Au30 Nd0 3.382484 1_555
Au31 Au49 2.882490 1_555
Au31 Au42 2.928747 1_555
Au31 Au47 2.966231 1_555
Au31 Nd12 3.130736 1_556
Au31 Nd11 3.216101 1_555
Au31 Au7 3.231370 1_555
Au31 Nd6 3.235266 1_555
Au31 Nd1 3.382433 1_555
Au32 Au50 2.882403 1_655
Au32 Au43 2.929034 1_565
Au32 Au45 2.966372 1_555
Au32 Au37 3.098170 1_555
Au32 Au36 3.106683 1_565
Au32 Nd13 3.130625 1_565
Au32 Nd9 3.216035 1_655
Au32 Au8 3.231273 1_555
Au32 Nd7 3.235294 1_665
Au32 Nd2 3.382522 1_555
Au33 Au48 2.882408 1_655
Au33 Au44 2.928690 1_556
Au33 Au46 2.966465 1_555
Au33 Au35 3.097529 1_565
Au33 Au37 3.106464 1_556
Au33 Nd13 3.130674 1_566
Au33 Nd10 3.215998 1_655
Au33 Au9 3.231223 1_555
Au33 Nd8 3.235289 1_656
Au33 Nd0 3.382484 1_555
Au34 Au49 2.882490 1_655
Au34 Au42 2.928747 1_555
Au34 Au47 2.966231 1_555
Au34 Au36 3.097820 1_556
Au34 Au35 3.106854 1_555
Au34 Nd13 3.130736 1_556
Au34 Nd11 3.216101 1_655
Au34 Nd6 3.235266 1_655
Au34 Nd1 3.382433 1_555
Au35 Au48 2.861511 1_645
Au35 Au46 2.909219 1_545
Au35 Au42 2.949600 1_555
Au35 Au9 3.004190 1_545
Au35 Nd6 3.092173 1_655
Au35 Nd13 3.192780 1_556
Au35 Nd5 3.328947 1_555
Au35 Nd10 3.353386 1_645
Au36 Au49 2.861610 1_654
Au36 Au47 2.909522 1_554
Au36 Au43 2.949262 1_555
Au36 Nd7 3.091977 1_655
Au36 Nd13 3.192828 1_555
Au36 Nd3 3.328744 1_555
Au36 Nd11 3.353571 1_654
Au37 Au50 2.861781 1_655
Au37 Au45 2.909598 1_555
Au37 Au44 2.949492 1_555
Au37 Au8 3.004567 1_555
Au37 Nd8 3.091834 1_655
Au37 Nd13 3.192996 1_565
Au37 Nd4 3.328642 1_555
Au37 Nd9 3.353814 1_655
Au38 Au6 2.941501 1_555
Au38 Au7 2.941675 1_555
Au38 Au5 2.942112 1_555
Au38 Nd0 3.121884 1_555
Au38 Nd1 3.122308 1_555
Au38 Nd2 3.122369 1_555
Au39 Au4 2.969159 1_555
Au39 Nd3 3.099361 1_555
Au39 Nd4 3.099474 1_555
Au39 Nd5 3.099514 1_555
Au40 Nd3 3.099361 1_555
Au40 Nd4 3.099474 1_555
Au40 Nd5 3.099514 1_555
Au41 Au9 2.941501 1_555
Au41 Au8 2.942112 1_555
Au41 Nd0 3.121884 1_555
Au41 Nd1 3.122308 1_555
Au41 Nd2 3.122369 1_555
Au42 Au47 2.762328 1_555
Au42 Au46 2.765477 1_545
Au42 Nd5 3.238821 1_555
Au42 Nd1 3.312006 1_555
Au42 Nd12 3.314948 1_556
Au42 Nd13 3.314948 1_556
Au43 Au45 2.762789 1_545
Au43 Au47 2.765427 1_554
Au43 Nd3 3.238308 1_555
Au43 Nd2 3.312333 1_545
Au43 Nd12 3.314947 1_555
Au43 Nd13 3.314947 1_555
Au44 Au46 2.762127 1_554
Au44 Au45 2.765383 1_555
Au44 Nd4 3.239207 1_555
Au44 Nd0 3.311986 1_554
Au44 Nd12 3.314474 1_565
Au44 Nd13 3.314474 1_565
Au45 Au5 2.851203 1_555
Au45 Au8 2.851203 1_555
Au45 Nd2 3.163175 1_555
Au45 Nd4 3.311916 1_555
Au45 Nd12 3.369070 1_565
Au45 Nd13 3.369070 1_565
Au46 Au6 2.850898 1_555
Au46 Au9 2.850898 1_555
Au46 Nd0 3.163089 1_555
Au46 Nd5 3.311762 1_565
Au46 Nd12 3.369316 1_566
Au46 Nd13 3.369316 1_566
Au47 Au7 2.851059 1_555
Au47 Nd1 3.162832 1_555
Au47 Nd3 3.311817 1_556
Au47 Nd12 3.369349 1_556
Au47 Nd13 3.369349 1_556
Au48 Au49 2.814386 1_565
Au48 Au50 2.814407 1_556
Au48 Nd10 2.986340 1_555
Au48 Nd13 3.224458 1_466
Au48 Nd12 3.224458 1_566
Au49 Au50 2.814516 1_546
Au49 Nd11 2.986337 1_555
Au49 Nd13 3.224485 1_456
Au49 Nd12 3.224485 1_556
Au50 Nd9 2.986303 1_555
Au50 Nd12 3.224485 1_565
Au50 Nd13 3.224485 1_465
