# generated using pymatgen
data_SrCaV(PO4)2
_symmetry_space_group_name_H-M   'P 1'
_cell_length_a   5.74496800
_cell_length_b   6.98154316
_cell_length_c   9.63758241
_cell_angle_alpha   109.92493801
_cell_angle_beta   101.06915653
_cell_angle_gamma   98.27141253
_symmetry_Int_Tables_number   1
_chemical_formula_structural   SrCaV(PO4)2
_chemical_formula_sum   'Sr2 Ca2 V2 P4 O16'
_cell_volume   347.35445042
_cell_formula_units_Z   2
loop_
 _symmetry_equiv_pos_site_id
 _symmetry_equiv_pos_as_xyz
  1  'x, y, z'
loop_
 _atom_site_type_symbol
 _atom_site_label
 _atom_site_symmetry_multiplicity
 _atom_site_fract_x
 _atom_site_fract_y
 _atom_site_fract_z
 _atom_site_occupancy
  Sr  Sr0  1  0.25883300  0.75233200  0.05466700  1
  Sr  Sr1  1  0.74116700  0.24766800  0.94533300  1
  Ca  Ca0  1  0.99962000  0.75716300  0.66132600  1
  Ca  Ca1  1  0.00038000  0.24283700  0.33867400  1
  V  V0  1  0.65291500  0.28878500  0.56363000  1
  V  V1  1  0.34708500  0.71121500  0.43637000  1
  P  P0  1  0.39010800  0.19213600  0.22317000  1
  P  P1  1  0.60989200  0.80786400  0.77683000  1
  P  P2  1  0.83823400  0.73226500  0.29770100  1
  P  P3  1  0.16176600  0.26773500  0.70229900  1
  O  O0  1  0.83670600  0.67520800  0.87964700  1
  O  O1  1  0.62314700  0.28104700  0.16907300  1
  O  O2  1  0.66449800  0.03400800  0.77130600  1
  O  O3  1  0.96869400  0.40724500  0.70219000  1
  O  O4  1  0.37685300  0.71895300  0.83092700  1
  O  O5  1  0.00806000  0.14796500  0.59400900  1
  O  O6  1  0.99194000  0.85203500  0.40599100  1
  O  O7  1  0.27271600  0.12785200  0.86521100  1
  O  O8  1  0.33550200  0.96599200  0.22869400  1
  O  O9  1  0.72728400  0.87214800  0.13478900  1
  O  O10  1  0.16329400  0.32479200  0.12035300  1
  O  O11  1  0.41633700  0.19451700  0.38653800  1
  O  O12  1  0.58366300  0.80548300  0.61346200  1
  O  O13  1  0.63682300  0.59451600  0.37439100  1
  O  O14  1  0.03130600  0.59275500  0.29781000  1
  O  O15  1  0.36317700  0.40548400  0.62560900  1
loop_
_geom_bond_atom_site_label_1
_geom_bond_atom_site_label_2
_geom_bond_distance
_geom_bond_site_symmetry_2
Ca0 O12 2.439631 1_555
Ca0 O4 2.557915 1_655
Ca0 O3 2.590849 1_555
Ca0 O0 2.655784 1_555
Ca0 O7 2.683688 1_665
Ca0 O6 2.752071 1_555
Ca1 O11 2.439631 1_555
Ca1 O1 2.557915 1_455
Ca1 O14 2.590849 1_555
Ca1 O10 2.655784 1_555
Ca1 O9 2.683688 1_445
Ca1 O5 2.752071 1_555
O0 P1 2.003616 1_555
O0 Sr0 2.539839 1_656
O0 Sr1 3.249849 1_555
O1 P0 1.642868 1_555
O1 Sr1 2.329822 1_554
O2 P1 1.585925 1_545
O2 Sr1 1.747626 1_555
O3 P3 1.577995 1_655
O3 V0 1.908841 1_555
O4 P1 1.642868 1_555
O4 Sr0 2.329822 1_556
O5 P3 1.186185 1_555
O6 P2 1.186185 1_555
O7 P3 2.159880 1_555
O7 Sr1 2.579301 1_555
O8 P0 1.585925 1_565
O8 Sr0 1.747626 1_555
O9 P2 2.159880 1_555
O9 Sr0 2.579301 1_555
O10 P0 2.003616 1_555
O10 Sr1 2.539839 1_454
O10 Sr0 3.249849 1_555
O11 P0 1.546702 1_555
O11 V0 1.810981 1_555
O12 P1 1.546702 1_555
O12 V1 1.810981 1_555
O13 P2 1.817336 1_555
O13 V1 2.057078 1_555
O14 P2 1.577995 1_455
O14 V1 1.908841 1_555
O15 P3 1.817336 1_555
O15 V0 2.057078 1_555
