# generated using pymatgen
data_NbP(Cl3O)2
_symmetry_space_group_name_H-M   'P 1'
_cell_length_a   15.10865171
_cell_length_b   17.59610577
_cell_length_c   17.73386052
_cell_angle_alpha   90.00000000
_cell_angle_beta   90.00000000
_cell_angle_gamma   92.85933458
_symmetry_Int_Tables_number   1
_chemical_formula_structural   NbP(Cl3O)2
_chemical_formula_sum   'Nb16 P16 Cl96 O32'
_cell_volume   4708.73808644
_cell_formula_units_Z   16
loop_
 _symmetry_equiv_pos_site_id
 _symmetry_equiv_pos_as_xyz
  1  'x, y, z'
loop_
 _atom_site_type_symbol
 _atom_site_label
 _atom_site_symmetry_multiplicity
 _atom_site_fract_x
 _atom_site_fract_y
 _atom_site_fract_z
 _atom_site_occupancy
  Nb  Nb0  1  0.04106843  0.34985831  0.50608526  1
  Nb  Nb1  1  0.45893157  0.65014169  0.00608526  1
  Nb  Nb2  1  0.95893157  0.65014169  0.49391474  1
  Nb  Nb3  1  0.54106843  0.34985831  0.99391474  1
  Nb  Nb4  1  0.87276308  0.46453114  0.39031308  1
  Nb  Nb5  1  0.62723692  0.53546886  0.89031308  1
  Nb  Nb6  1  0.12723692  0.53546886  0.60968692  1
  Nb  Nb7  1  0.37276308  0.46453114  0.10968692  1
  Nb  Nb8  1  0.06317931  0.14896181  0.98663331  1
  Nb  Nb9  1  0.43682069  0.85103819  0.48663331  1
  Nb  Nb10  1  0.93682069  0.85103819  0.01336669  1
  Nb  Nb11  1  0.56317931  0.14896181  0.51336669  1
  Nb  Nb12  1  0.84749839  0.04848494  0.06863042  1
  Nb  Nb13  1  0.65250161  0.95151506  0.56863042  1
  Nb  Nb14  1  0.15250161  0.95151506  0.93136958  1
  Nb  Nb15  1  0.34749839  0.04848494  0.43136958  1
  P  P0  1  0.96345594  0.18083345  0.38913827  1
  P  P1  1  0.53654406  0.81916655  0.88913827  1
  P  P2  1  0.03654406  0.81916655  0.61086173  1
  P  P3  1  0.46345594  0.18083345  0.11086173  1
  P  P4  1  0.76247918  0.60228243  0.26760397  1
  P  P5  1  0.73752082  0.39771757  0.76760397  1
  P  P6  1  0.23752082  0.39771757  0.73239603  1
  P  P7  1  0.26247918  0.60228243  0.23239603  1
  P  P8  1  0.97835160  0.33850501  0.03819984  1
  P  P9  1  0.52164840  0.66149499  0.53819984  1
  P  P10  1  0.02164840  0.66149499  0.96180016  1
  P  P11  1  0.47835160  0.33850501  0.46180016  1
  P  P12  1  0.68137447  0.93559186  0.18339452  1
  P  P13  1  0.81862553  0.06440814  0.68339452  1
  P  P14  1  0.31862553  0.06440814  0.81660548  1
  P  P15  1  0.18137447  0.93559186  0.31660548  1
  Cl  Cl0  1  0.92342480  0.31912909  0.58966174  1
  Cl  Cl1  1  0.57657520  0.68087091  0.08966174  1
  Cl  Cl2  1  0.07657520  0.68087091  0.41033826  1
  Cl  Cl3  1  0.42342480  0.31912909  0.91033826  1
  Cl  Cl4  1  0.13021719  0.36264316  0.39602025  1
  Cl  Cl5  1  0.36978281  0.63735684  0.89602025  1
  Cl  Cl6  1  0.86978281  0.63735684  0.60397975  1
  Cl  Cl7  1  0.63021719  0.36264316  0.10397975  1
  Cl  Cl8  1  0.13360280  0.26134179  0.56085437  1
  Cl  Cl9  1  0.36639720  0.73865821  0.06085437  1
  Cl  Cl10  1  0.86639720  0.73865821  0.43914563  1
  Cl  Cl11  1  0.63360280  0.26134179  0.93914563  1
  Cl  Cl12  1  0.01018745  0.19868137  0.28570440  1
  Cl  Cl13  1  0.48981255  0.80131863  0.78570440  1
  Cl  Cl14  1  0.98981255  0.80131863  0.71429560  1
  Cl  Cl15  1  0.51018745  0.19868137  0.21429560  1
  Cl  Cl16  1  0.83630160  0.15001805  0.37767040  1
  Cl  Cl17  1  0.66369840  0.84998195  0.87767040  1
  Cl  Cl18  1  0.16369840  0.84998195  0.62232960  1
  Cl  Cl19  1  0.33630160  0.15001805  0.12232960  1
  Cl  Cl20  1  0.02123517  0.08857398  0.42700683  1
  Cl  Cl21  1  0.47876483  0.91142602  0.92700683  1
  Cl  Cl22  1  0.97876483  0.91142602  0.57299317  1
  Cl  Cl23  1  0.52123517  0.08857398  0.07299317  1
  Cl  Cl24  1  0.97355387  0.50167044  0.29272725  1
  Cl  Cl25  1  0.52644613  0.49832956  0.79272725  1
  Cl  Cl26  1  0.02644613  0.49832956  0.70727275  1
  Cl  Cl27  1  0.47355387  0.50167044  0.20727275  1
  Cl  Cl28  1  0.75475722  0.46238720  0.47802904  1
  Cl  Cl29  1  0.74524278  0.53761280  0.97802904  1
  Cl  Cl30  1  0.24524278  0.53761280  0.52197096  1
  Cl  Cl31  1  0.25475722  0.46238720  0.02197096  1
  Cl  Cl32  1  0.79931996  0.37329784  0.31286787  1
  Cl  Cl33  1  0.70068004  0.62670216  0.81286787  1
  Cl  Cl34  1  0.20068004  0.62670216  0.68713213  1
  Cl  Cl35  1  0.29931996  0.37329784  0.18713213  1
  Cl  Cl36  1  0.85889859  0.67692026  0.23593944  1
  Cl  Cl37  1  0.64110141  0.32307974  0.73593944  1
  Cl  Cl38  1  0.14110141  0.32307974  0.76406056  1
  Cl  Cl39  1  0.35889859  0.67692026  0.26406056  1
  Cl  Cl40  1  0.65956792  0.66436054  0.29196517  1
  Cl  Cl41  1  0.84043208  0.33563946  0.79196517  1
  Cl  Cl42  1  0.34043208  0.33563946  0.70803483  1
  Cl  Cl43  1  0.15956792  0.66436054  0.20803483  1
  Cl  Cl44  1  0.72954499  0.54411076  0.17540859  1
  Cl  Cl45  1  0.77045501  0.45588924  0.67540859  1
  Cl  Cl46  1  0.27045501  0.45588924  0.82459141  1
  Cl  Cl47  1  0.22954499  0.54411076  0.32459141  1
  Cl  Cl48  1  0.98680959  0.17096432  0.87256700  1
  Cl  Cl49  1  0.51319041  0.82903568  0.37256700  1
  Cl  Cl50  1  0.01319041  0.82903568  0.12743300  1
  Cl  Cl51  1  0.48680959  0.17096432  0.62743300  1
  Cl  Cl52  1  0.10686053  0.15168608  0.11580880  1
  Cl  Cl53  1  0.39313947  0.84831392  0.61580880  1
  Cl  Cl54  1  0.89313947  0.84831392  0.88419120  1
  Cl  Cl55  1  0.60686053  0.15168608  0.38419120  1
  Cl  Cl56  1  0.18231504  0.23324190  0.95448169  1
  Cl  Cl57  1  0.31768496  0.76675810  0.45448169  1
  Cl  Cl58  1  0.81768496  0.76675810  0.04551831  1
  Cl  Cl59  1  0.68231504  0.23324190  0.54551831  1
  Cl  Cl60  1  0.01507791  0.40369393  0.95022092  1
  Cl  Cl61  1  0.48492209  0.59630607  0.45022092  1
  Cl  Cl62  1  0.98492209  0.59630607  0.04977908  1
  Cl  Cl63  1  0.51507791  0.40369393  0.54977908  1
  Cl  Cl64  1  0.85337805  0.36061207  0.05884369  1
  Cl  Cl65  1  0.64662195  0.63938793  0.55884369  1
  Cl  Cl66  1  0.14662195  0.63938793  0.94115631  1
  Cl  Cl67  1  0.35337805  0.36061207  0.44115631  1
  Cl  Cl68  1  0.04746935  0.37898221  0.12602288  1
  Cl  Cl69  1  0.45253065  0.62101779  0.62602288  1
  Cl  Cl70  1  0.95253065  0.62101779  0.87397712  1
  Cl  Cl71  1  0.54746935  0.37898221  0.37397712  1
  Cl  Cl72  1  0.90990645  0.02173735  0.18778202  1
  Cl  Cl73  1  0.59009355  0.97826265  0.68778202  1
  Cl  Cl74  1  0.09009355  0.97826265  0.81221798  1
  Cl  Cl75  1  0.40990645  0.02173735  0.31221798  1
  Cl  Cl76  1  0.75821363  0.04031271  0.95963578  1
  Cl  Cl77  1  0.74178637  0.95968729  0.45963578  1
  Cl  Cl78  1  0.24178637  0.95968729  0.04036422  1
  Cl  Cl79  1  0.25821363  0.04031271  0.54036422  1
  Cl  Cl80  1  0.77552250  0.15229414  0.11750821  1
  Cl  Cl81  1  0.72447750  0.84770586  0.61750821  1
  Cl  Cl82  1  0.22447750  0.84770586  0.88249179  1
  Cl  Cl83  1  0.27552250  0.15229414  0.38249179  1
  Cl  Cl84  1  0.64794098  0.00768082  0.26322088  1
  Cl  Cl85  1  0.85205902  0.99231918  0.76322088  1
  Cl  Cl86  1  0.35205902  0.99231918  0.73677912  1
  Cl  Cl87  1  0.14794098  0.00768082  0.23677912  1
  Cl  Cl88  1  0.75102859  0.85854639  0.23602444  1
  Cl  Cl89  1  0.74897141  0.14145361  0.73602444  1
  Cl  Cl90  1  0.24897141  0.14145361  0.76397556  1
  Cl  Cl91  1  0.25102859  0.85854639  0.26397556  1
  Cl  Cl92  1  0.56878097  0.88072996  0.15218061  1
  Cl  Cl93  1  0.93121903  0.11927004  0.65218061  1
  Cl  Cl94  1  0.43121903  0.11927004  0.84781939  1
  Cl  Cl95  1  0.06878097  0.88072996  0.34781939  1
  O  O0  1  0.97833922  0.24652997  0.44067251  1
  O  O1  1  0.52166078  0.75347003  0.94067251  1
  O  O2  1  0.02166078  0.75347003  0.55932749  1
  O  O3  1  0.47833922  0.24652997  0.05932749  1
  O  O4  1  0.78573188  0.55392370  0.33251030  1
  O  O5  1  0.71426812  0.44607630  0.83251030  1
  O  O6  1  0.21426812  0.44607630  0.66748970  1
  O  O7  1  0.28573188  0.55392370  0.16748970  1
  O  O8  1  0.91639055  0.56549049  0.44515812  1
  O  O9  1  0.58360945  0.43450951  0.94515812  1
  O  O10  1  0.08360945  0.43450951  0.55484188  1
  O  O11  1  0.41639055  0.56549049  0.05484188  1
  O  O12  1  0.94595059  0.40443354  0.44145655  1
  O  O13  1  0.55404941  0.59556646  0.94145655  1
  O  O14  1  0.05404941  0.59556646  0.55854345  1
  O  O15  1  0.44595059  0.40443354  0.05854345  1
  O  O16  1  0.99001302  0.25662055  0.02370842  1
  O  O17  1  0.50998698  0.74337945  0.52370842  1
  O  O18  1  0.00998698  0.74337945  0.97629158  1
  O  O19  1  0.49001302  0.25662055  0.47629158  1
  O  O20  1  0.72752134  0.97195956  0.11767151  1
  O  O21  1  0.77247866  0.02804044  0.61767151  1
  O  O22  1  0.27247866  0.02804044  0.88232849  1
  O  O23  1  0.22752134  0.97195956  0.38232849  1
  O  O24  1  0.88816393  0.93910901  0.03956913  1
  O  O25  1  0.61183607  0.06089099  0.53956913  1
  O  O26  1  0.11183607  0.06089099  0.96043087  1
  O  O27  1  0.38816393  0.93910901  0.46043087  1
  O  O28  1  0.94376434  0.09849527  0.02741500  1
  O  O29  1  0.55623566  0.90150473  0.52741500  1
  O  O30  1  0.05623566  0.90150473  0.97258500  1
  O  O31  1  0.44376434  0.09849527  0.47258500  1
loop_
_geom_bond_atom_site_label_1
_geom_bond_atom_site_label_2
_geom_bond_distance
_geom_bond_site_symmetry_2
Nb0 O10 1.812155 1_555
Nb0 O12 2.106830 1_455
Nb0 O0 2.318994 1_455
Nb1 O11 1.812155 1_555
Nb1 O13 2.106830 1_554
Nb1 O1 2.318994 1_554
Nb2 O8 1.812155 1_555
Nb2 O14 2.106830 1_655
Nb2 O2 2.318994 1_655
Nb3 O9 1.812155 1_555
Nb3 O15 2.106830 1_556
Nb3 O3 2.318994 1_556
Nb4 O12 1.811145 1_555
Nb4 O8 2.102274 1_555
Nb4 O4 2.336738 1_555
Nb5 O13 1.811145 1_555
Nb5 O9 2.102274 1_555
Nb5 O5 2.336738 1_555
Nb6 O14 1.811145 1_555
Nb6 O10 2.102274 1_555
Nb6 O6 2.336738 1_555
Nb7 O15 1.811145 1_555
Nb7 O11 2.102274 1_555
Nb7 O7 2.336738 1_555
Nb8 O26 1.808753 1_555
Nb8 O28 2.099262 1_456
Nb8 O16 2.334925 1_456
Nb9 O27 1.808753 1_555
Nb9 O29 2.099262 1_555
Nb9 O17 2.334925 1_555
Nb10 O24 1.808753 1_555
Nb10 O30 2.099262 1_654
Nb10 O18 2.334925 1_654
Nb11 O25 1.808753 1_555
Nb11 O31 2.099262 1_555
Nb11 O19 2.334925 1_555
Nb12 O28 1.815581 1_555
Nb12 O24 2.113082 1_545
Nb12 O20 2.368940 1_545
Nb13 O29 1.815581 1_555
Nb13 O25 2.113082 1_565
Nb13 O21 2.368940 1_565
Nb14 O30 1.815581 1_555
Nb14 O26 2.113082 1_565
Nb14 O22 2.368940 1_565
Nb15 O31 1.815581 1_555
Nb15 O27 2.113082 1_545
Nb15 O23 2.368940 1_545
Cl0 Nb0 2.356372 1_655
Cl1 Nb1 2.356372 1_555
Cl2 Nb2 2.356372 1_455
Cl3 Nb3 2.356372 1_555
Cl4 Nb0 2.375793 1_555
Cl5 Nb1 2.375793 1_556
Cl6 Nb2 2.375793 1_555
Cl7 Nb3 2.375793 1_554
Cl8 Nb0 2.353967 1_555
Cl9 Nb1 2.353967 1_555
Cl10 Nb2 2.353967 1_555
Cl11 Nb3 2.353967 1_555
Cl12 P0 1.984844 1_455
Cl13 P1 1.984844 1_555
Cl14 P2 1.984844 1_655
Cl15 P3 1.984844 1_555
Cl16 P0 1.980452 1_555
Cl17 P1 1.980452 1_555
Cl18 P2 1.980452 1_555
Cl19 P3 1.980452 1_555
Cl20 P0 1.997473 1_455
Cl21 P1 1.997473 1_555
Cl22 P2 1.997473 1_655
Cl23 P3 1.997473 1_555
Cl24 Nb4 2.375211 1_555
Cl25 Nb5 2.375211 1_555
Cl26 Nb6 2.375211 1_555
Cl27 Nb7 2.375211 1_555
Cl28 Nb4 2.364993 1_555
Cl29 Nb5 2.364993 1_555
Cl30 Nb6 2.364993 1_555
Cl31 Nb7 2.364993 1_555
Cl32 Nb4 2.348816 1_555
Cl33 Nb5 2.348816 1_555
Cl34 Nb6 2.348816 1_555
Cl35 Nb7 2.348816 1_555
Cl36 P4 1.992853 1_555
Cl37 P5 1.992853 1_555
Cl38 P6 1.992853 1_555
Cl39 P7 1.992853 1_555
Cl40 P4 1.991692 1_555
Cl41 P5 1.991692 1_555
Cl42 P6 1.991692 1_555
Cl43 P7 1.991692 1_555
Cl44 P4 1.979315 1_555
Cl45 P5 1.979315 1_555
Cl46 P6 1.979315 1_555
Cl47 P7 1.979315 1_555
Cl48 Nb8 2.370165 1_655
Cl49 Nb9 2.370165 1_555
Cl50 Nb10 2.370165 1_455
Cl51 Nb11 2.370165 1_555
Cl52 Nb8 2.383772 1_554
Cl53 Nb9 2.383772 1_555
Cl54 Nb10 2.383772 1_556
Cl55 Nb11 2.383772 1_555
Cl56 Nb8 2.344781 1_555
Cl57 Nb9 2.344781 1_555
Cl58 Nb10 2.344781 1_555
Cl59 Nb11 2.344781 1_555
Cl60 P8 1.998602 1_456
Cl61 P9 1.998602 1_555
Cl62 P10 1.998602 1_654
Cl63 P11 1.998602 1_555
Cl64 P8 1.980872 1_555
Cl65 P9 1.980872 1_555
Cl66 P10 1.980872 1_555
Cl67 P11 1.980872 1_555
Cl68 P8 1.987264 1_455
Cl69 P9 1.987264 1_555
Cl70 P10 1.987264 1_655
Cl71 P11 1.987264 1_555
Cl72 Nb12 2.370590 1_555
Cl73 Nb13 2.370590 1_555
Cl74 Nb14 2.370590 1_555
Cl75 Nb15 2.370590 1_555
Cl76 Nb12 2.357358 1_556
Cl77 Nb13 2.357358 1_555
Cl78 Nb14 2.357358 1_554
Cl79 Nb15 2.357358 1_555
Cl80 Nb12 2.338521 1_555
Cl81 Nb13 2.338521 1_555
Cl82 Nb14 2.338521 1_555
Cl83 Nb15 2.338521 1_555
Cl84 P12 1.982965 1_545
Cl85 P13 1.982965 1_565
Cl86 P14 1.982965 1_565
Cl87 P15 1.982965 1_545
Cl88 P12 1.989692 1_555
Cl89 P13 1.989692 1_555
Cl90 P14 1.989692 1_555
Cl91 P15 1.989692 1_555
Cl92 P12 1.992071 1_555
Cl93 P13 1.992071 1_555
Cl94 P14 1.992071 1_555
Cl95 P15 1.992071 1_555
O0 P0 1.481954 1_555
O1 P1 1.481954 1_555
O2 P2 1.481954 1_555
O3 P3 1.481954 1_555
O4 P4 1.483986 1_555
O5 P5 1.483986 1_555
O6 P6 1.483986 1_555
O7 P7 1.483986 1_555
O16 P8 1.482719 1_555
O17 P9 1.482719 1_555
O18 P10 1.482719 1_555
O19 P11 1.482719 1_555
O20 P12 1.486456 1_555
O21 P13 1.486456 1_555
O22 P14 1.486456 1_555
O23 P15 1.486456 1_555
