# generated using pymatgen
data_Na3U6VF30
_symmetry_space_group_name_H-M   'P 1'
_cell_length_a   9.88336238
_cell_length_b   9.88336238
_cell_length_c   13.13314200
_cell_angle_alpha   90.00000000
_cell_angle_beta   90.00000000
_cell_angle_gamma   120.00000251
_symmetry_Int_Tables_number   1
_chemical_formula_structural   Na3U6VF30
_chemical_formula_sum   'Na6 U12 V2 F60'
_cell_volume   1110.98628846
_cell_formula_units_Z   2
loop_
 _symmetry_equiv_pos_site_id
 _symmetry_equiv_pos_as_xyz
  1  'x, y, z'
loop_
 _atom_site_type_symbol
 _atom_site_label
 _atom_site_symmetry_multiplicity
 _atom_site_fract_x
 _atom_site_fract_y
 _atom_site_fract_z
 _atom_site_occupancy
  Na  Na0  1  0.66666700  0.33333300  0.66260900  1
  Na  Na1  1  0.66666700  0.33333300  0.16260900  1
  Na  Na2  1  0.33333300  0.66666700  0.33739100  1
  Na  Na3  1  0.33333300  0.66666700  0.83739100  1
  Na  Na4  1  0.00000000  0.00000000  0.50000000  1
  Na  Na5  1  0.00000000  0.00000000  0.00000000  1
  U  U0  1  0.07621900  0.67664100  0.60194000  1
  U  U1  1  0.60042200  0.92378100  0.60194000  1
  U  U2  1  0.32335900  0.39957800  0.60194000  1
  U  U3  1  0.07621900  0.39957800  0.10194000  1
  U  U4  1  0.32335900  0.92378100  0.10194000  1
  U  U5  1  0.60042200  0.67664100  0.10194000  1
  U  U6  1  0.92378100  0.32335900  0.39806000  1
  U  U7  1  0.39957800  0.07621900  0.39806000  1
  U  U8  1  0.67664100  0.60042200  0.39806000  1
  U  U9  1  0.92378100  0.60042200  0.89806000  1
  U  U10  1  0.67664100  0.07621900  0.89806000  1
  U  U11  1  0.39957800  0.32335900  0.89806000  1
  V  V0  1  0.00000000  0.00000000  0.75000000  1
  V  V1  1  0.00000000  0.00000000  0.25000000  1
  F  F0  1  0.86952100  0.56606500  0.71547600  1
  F  F1  1  0.69654400  0.13047900  0.71547600  1
  F  F2  1  0.43393500  0.30345600  0.71547600  1
  F  F3  1  0.86952100  0.30345600  0.21547600  1
  F  F4  1  0.43393500  0.13047900  0.21547600  1
  F  F5  1  0.69654400  0.56606500  0.21547600  1
  F  F6  1  0.13047900  0.43393500  0.28452400  1
  F  F7  1  0.30345600  0.86952100  0.28452400  1
  F  F8  1  0.56606500  0.69654400  0.28452400  1
  F  F9  1  0.13047900  0.69654400  0.78452400  1
  F  F10  1  0.56606500  0.86952100  0.78452400  1
  F  F11  1  0.30345600  0.43393500  0.78452400  1
  F  F12  1  0.88441300  0.69145300  0.51995800  1
  F  F13  1  0.80703900  0.11558700  0.51995800  1
  F  F14  1  0.30854700  0.19296100  0.51995800  1
  F  F15  1  0.88441300  0.19296100  0.01995800  1
  F  F16  1  0.30854700  0.11558700  0.01995800  1
  F  F17  1  0.80703900  0.69145300  0.01995800  1
  F  F18  1  0.11558700  0.30854700  0.48004200  1
  F  F19  1  0.19296100  0.88441300  0.48004200  1
  F  F20  1  0.69145300  0.80703900  0.48004200  1
  F  F21  1  0.11558700  0.80703900  0.98004200  1
  F  F22  1  0.69145300  0.88441300  0.98004200  1
  F  F23  1  0.19296100  0.30854700  0.98004200  1
  F  F24  1  0.11957400  0.58754100  0.44991700  1
  F  F25  1  0.46796700  0.88042600  0.44991700  1
  F  F26  1  0.41245900  0.53203300  0.44991700  1
  F  F27  1  0.11957400  0.53203300  0.94991700  1
  F  F28  1  0.41245900  0.88042600  0.94991700  1
  F  F29  1  0.46796700  0.58754100  0.94991700  1
  F  F30  1  0.88042600  0.41245900  0.55008300  1
  F  F31  1  0.53203300  0.11957400  0.55008300  1
  F  F32  1  0.58754100  0.46796700  0.55008300  1
  F  F33  1  0.88042600  0.46796700  0.05008300  1
  F  F34  1  0.58754100  0.11957400  0.05008300  1
  F  F35  1  0.53203300  0.41245900  0.05008300  1
  F  F36  1  0.08560100  0.89546400  0.65760200  1
  F  F37  1  0.80986300  0.91439900  0.65760200  1
  F  F38  1  0.10453600  0.19013700  0.65760200  1
  F  F39  1  0.08560100  0.19013700  0.15760200  1
  F  F40  1  0.10453600  0.91439900  0.15760200  1
  F  F41  1  0.80986300  0.89546400  0.15760200  1
  F  F42  1  0.91439900  0.10453600  0.34239800  1
  F  F43  1  0.19013700  0.08560100  0.34239800  1
  F  F44  1  0.89546400  0.80986300  0.34239800  1
  F  F45  1  0.91439900  0.80986300  0.84239800  1
  F  F46  1  0.89546400  0.08560100  0.84239800  1
  F  F47  1  0.19013700  0.10453600  0.84239800  1
  F  F48  1  0.34023500  0.82820400  0.63669100  1
  F  F49  1  0.48796900  0.65976500  0.63669100  1
  F  F50  1  0.17179600  0.51203100  0.63669100  1
  F  F51  1  0.34023500  0.51203100  0.13669100  1
  F  F52  1  0.17179600  0.65976500  0.13669100  1
  F  F53  1  0.48796900  0.82820400  0.13669100  1
  F  F54  1  0.65976500  0.17179600  0.36330900  1
  F  F55  1  0.51203100  0.34023500  0.36330900  1
  F  F56  1  0.82820400  0.48796900  0.36330900  1
  F  F57  1  0.65976500  0.48796900  0.86330900  1
  F  F58  1  0.82820400  0.34023500  0.86330900  1
  F  F59  1  0.51203100  0.17179600  0.86330900  1
loop_
_geom_bond_atom_site_label_1
_geom_bond_atom_site_label_2
_geom_bond_distance
_geom_bond_site_symmetry_2
F0 Na0 2.276145 1_555
F0 U0 2.314828 1_655
F0 U9 2.443507 1_555
F1 Na0 2.276140 1_555
F1 U1 2.314828 1_545
F1 U10 2.443507 1_555
F2 Na0 2.276149 1_555
F2 U2 2.314828 1_555
F2 U11 2.443507 1_555
F3 Na1 2.276140 1_555
F3 U3 2.314828 1_655
F3 U6 2.443507 1_555
F4 Na1 2.276145 1_555
F4 U4 2.314828 1_545
F4 U7 2.443507 1_555
F5 Na1 2.276149 1_555
F5 U5 2.314828 1_555
F5 U8 2.443507 1_555
F6 Na2 2.276145 1_555
F6 U6 2.314828 1_455
F6 U3 2.443507 1_555
F7 Na2 2.276140 1_555
F7 U7 2.314828 1_565
F7 U4 2.443507 1_555
F8 Na2 2.276149 1_555
F8 U8 2.314828 1_555
F8 U5 2.443507 1_555
F9 Na3 2.276140 1_555
F9 U9 2.314828 1_455
F9 U0 2.443507 1_555
F10 Na3 2.276145 1_555
F10 U10 2.314828 1_565
F10 U1 2.443507 1_555
F11 Na3 2.276149 1_555
F11 U11 2.314828 1_555
F11 U2 2.443507 1_555
F12 U0 2.247626 1_655
F12 U8 2.396172 1_555
F12 Na4 2.681306 1_665
F13 U1 2.247621 1_545
F13 U6 2.396172 1_555
F13 Na4 2.681315 1_655
F14 U2 2.247617 1_555
F14 U7 2.396178 1_555
F14 Na4 2.681307 1_555
F15 U3 2.247621 1_655
F15 U10 2.396172 1_554
F15 Na5 2.681315 1_655
F16 U4 2.247626 1_545
F16 U11 2.396172 1_554
F16 Na5 2.681306 1_555
F17 U5 2.247617 1_555
F17 U9 2.396178 1_554
F17 Na5 2.681307 1_665
F18 U6 2.247626 1_455
F18 U2 2.396172 1_555
F18 Na4 2.681306 1_555
F19 U7 2.247621 1_565
F19 U0 2.396172 1_555
F19 Na4 2.681315 1_565
F20 U8 2.247617 1_555
F20 U1 2.396178 1_555
F20 Na4 2.681307 1_665
F21 U9 2.247621 1_455
F21 U4 2.396172 1_556
F21 Na5 2.681315 1_566
F22 U10 2.247626 1_565
F22 U5 2.396172 1_556
F22 Na5 2.681306 1_666
F23 U11 2.247617 1_555
F23 U3 2.396178 1_556
F23 Na5 2.681307 1_556
F24 U0 2.307072 1_555
F24 Na2 2.367843 1_555
F24 U6 2.444018 1_455
F25 U1 2.307072 1_555
F25 Na2 2.367845 1_555
F25 U7 2.444018 1_565
F26 U2 2.307072 1_555
F26 Na2 2.367851 1_555
F26 U8 2.444018 1_555
F27 U3 2.307072 1_556
F27 Na3 2.367845 1_555
F27 U9 2.444018 1_455
F28 U4 2.307072 1_556
F28 Na3 2.367843 1_555
F28 U10 2.444018 1_565
F29 U5 2.307072 1_556
F29 Na3 2.367851 1_555
F29 U11 2.444018 1_555
F30 U6 2.307072 1_555
F30 Na0 2.367843 1_555
F30 U0 2.444018 1_655
F31 U7 2.307072 1_555
F31 Na0 2.367845 1_555
F31 U1 2.444018 1_545
F32 U8 2.307072 1_555
F32 Na0 2.367851 1_555
F32 U2 2.444018 1_555
F33 U9 2.307072 1_554
F33 Na1 2.367845 1_555
F33 U3 2.444018 1_655
F34 U10 2.307072 1_554
F34 Na1 2.367843 1_555
F34 U4 2.444018 1_545
F35 U11 2.307072 1_554
F35 Na1 2.367851 1_555
F35 U5 2.444018 1_555
F36 V0 2.032192 1_565
F36 U0 2.240479 1_555
F36 Na4 2.634652 1_565
F37 V0 2.032192 1_665
F37 U1 2.240479 1_555
F37 Na4 2.634652 1_665
F38 V0 2.032192 1_555
F38 U2 2.240479 1_555
F38 Na4 2.634652 1_555
F39 V1 2.032192 1_555
F39 U3 2.240479 1_555
F39 Na5 2.634652 1_555
F40 V1 2.032192 1_565
F40 U4 2.240479 1_555
F40 Na5 2.634652 1_565
F41 V1 2.032192 1_665
F41 U5 2.240479 1_555
F41 Na5 2.634652 1_665
F42 V1 2.032192 1_655
F42 U6 2.240479 1_555
F42 Na4 2.634652 1_655
F43 V1 2.032192 1_555
F43 U7 2.240479 1_555
F43 Na4 2.634652 1_555
F44 V1 2.032192 1_665
F44 U8 2.240479 1_555
F44 Na4 2.634652 1_665
F45 V0 2.032192 1_665
F45 U9 2.240479 1_555
F45 Na5 2.634652 1_666
F46 V0 2.032192 1_655
F46 U10 2.240479 1_555
F46 Na5 2.634652 1_656
F47 V0 2.032192 1_555
F47 U11 2.240479 1_555
F47 Na5 2.634652 1_556
F48 U1 2.298742 1_555
F48 U0 2.313490 1_555
F49 U2 2.298742 1_555
F49 U1 2.313490 1_555
F50 U0 2.298742 1_555
F50 U2 2.313490 1_555
F51 U5 2.298742 1_555
F51 U3 2.313490 1_555
F52 U3 2.298742 1_555
F52 U4 2.313490 1_555
F53 U4 2.298742 1_555
F53 U5 2.313490 1_555
F54 U7 2.298742 1_555
F54 U6 2.313490 1_555
F55 U8 2.298742 1_555
F55 U7 2.313490 1_555
F56 U6 2.298742 1_555
F56 U8 2.313490 1_555
F57 U11 2.298742 1_555
F57 U9 2.313490 1_555
F58 U9 2.298742 1_555
F58 U10 2.313490 1_555
F59 U10 2.298742 1_555
F59 U11 2.313490 1_555
