# generated using pymatgen
data_GdIn2Ni9
_symmetry_space_group_name_H-M   'P 1'
_cell_length_a   8.16436713
_cell_length_b   8.16436713
_cell_length_c   4.82905429
_cell_angle_alpha   90.00000000
_cell_angle_beta   90.00000000
_cell_angle_gamma   90.00000000
_symmetry_Int_Tables_number   1
_chemical_formula_structural   GdIn2Ni9
_chemical_formula_sum   'Gd2 In4 Ni18'
_cell_volume   321.88974367
_cell_formula_units_Z   2
loop_
 _symmetry_equiv_pos_site_id
 _symmetry_equiv_pos_as_xyz
  1  'x, y, z'
loop_
 _atom_site_type_symbol
 _atom_site_label
 _atom_site_symmetry_multiplicity
 _atom_site_fract_x
 _atom_site_fract_y
 _atom_site_fract_z
 _atom_site_occupancy
  Gd  Gd0  1  0.50000000  0.50000000  -0.00000000  1
  Gd  Gd1  1  -0.00000000  -0.00000000  -0.00000000  1
  In  In0  1  0.62442022  0.12442022  -0.00000000  1
  In  In1  1  0.37557978  0.87557978  -0.00000000  1
  In  In2  1  0.12442022  0.37557978  -0.00000000  1
  In  In3  1  0.87557978  0.62442022  -0.00000000  1
  Ni  Ni0  1  0.50000000  -0.00000000  0.50000000  1
  Ni  Ni1  1  -0.00000000  0.50000000  0.50000000  1
  Ni  Ni2  1  0.70707168  0.56467204  0.50000000  1
  Ni  Ni3  1  0.29292832  0.43532796  0.50000000  1
  Ni  Ni4  1  0.20707168  0.93532796  0.50000000  1
  Ni  Ni5  1  0.79292832  0.06467204  0.50000000  1
  Ni  Ni6  1  0.43532796  0.70707168  0.50000000  1
  Ni  Ni7  1  0.56467204  0.29292832  0.50000000  1
  Ni  Ni8  1  0.06467204  0.20707168  0.50000000  1
  Ni  Ni9  1  0.93532796  0.79292832  0.50000000  1
  Ni  Ni10  1  0.82350123  0.32350123  0.74739282  1
  Ni  Ni11  1  0.17649877  0.67649877  0.74739282  1
  Ni  Ni12  1  0.32350123  0.17649877  0.74739282  1
  Ni  Ni13  1  0.67649877  0.82350123  0.74739282  1
  Ni  Ni14  1  0.17649877  0.67649877  0.25260718  1
  Ni  Ni15  1  0.82350123  0.32350123  0.25260718  1
  Ni  Ni16  1  0.67649877  0.82350123  0.25260718  1
  Ni  Ni17  1  0.32350123  0.17649877  0.25260718  1
loop_
_geom_bond_atom_site_label_1
_geom_bond_atom_site_label_2
_geom_bond_distance
_geom_bond_site_symmetry_2
Gd0 Ni3 2.994477 1_555
Gd0 Ni2 2.994477 1_554
Gd0 Ni2 2.994477 1_555
Gd0 Ni6 2.994477 1_554
Gd0 Ni7 2.994477 1_554
Gd0 Ni3 2.994477 1_554
Gd0 Ni6 2.994477 1_555
Gd0 Ni7 2.994477 1_555
Gd0 In0 3.230249 1_555
Gd0 In2 3.230249 1_555
Gd0 In3 3.230249 1_555
Gd0 In1 3.230249 1_555
Gd0 Ni17 3.246594 1_555
Gd0 Ni10 3.246594 1_554
Gd0 Ni11 3.246594 1_554
Gd0 Ni14 3.246594 1_555
Gd0 Ni13 3.246594 1_554
Gd0 Ni16 3.246594 1_555
Gd0 Ni12 3.246594 1_554
Gd0 Ni15 3.246594 1_555
Gd1 Ni4 2.994477 1_544
Gd1 Ni9 2.994477 1_445
Gd1 Ni8 2.994477 1_554
Gd1 Ni5 2.994477 1_454
Gd1 Ni4 2.994477 1_545
Gd1 Ni5 2.994477 1_455
Gd1 Ni8 2.994477 1_555
Gd1 Ni9 2.994477 1_444
Gd1 In3 3.230249 1_445
Gd1 In2 3.230249 1_555
Gd1 In1 3.230249 1_545
Gd1 In0 3.230249 1_455
Gd1 Ni17 3.246594 1_555
Gd1 Ni14 3.246594 1_545
Gd1 Ni15 3.246594 1_455
Gd1 Ni11 3.246594 1_544
Gd1 Ni16 3.246594 1_445
Gd1 Ni13 3.246594 1_444
Gd1 Ni10 3.246594 1_454
Gd1 Ni12 3.246594 1_554
In0 Ni15 2.602249 1_555
In0 Ni10 2.602249 1_554
In0 Ni16 2.775745 1_545
In0 Ni12 2.775745 1_554
In0 Ni17 2.775745 1_555
In0 Ni13 2.775745 1_544
In0 Ni0 2.809571 1_554
In0 Ni0 2.809571 1_555
In0 Ni7 2.821457 1_555
In0 Ni7 2.821457 1_554
In0 Ni5 2.821457 1_554
In0 Ni5 2.821457 1_555
In0 In1 2.873151 1_545
In1 Ni11 2.602249 1_554
In1 Ni14 2.602249 1_555
In1 Ni12 2.775745 1_564
In1 Ni17 2.775745 1_565
In1 Ni13 2.775745 1_554
In1 Ni16 2.775745 1_555
In1 Ni0 2.809571 1_565
In1 Ni0 2.809571 1_564
In1 Ni4 2.821457 1_554
In1 Ni4 2.821457 1_555
In1 Ni6 2.821457 1_554
In1 Ni6 2.821457 1_555
In2 Ni17 2.602249 1_555
In2 Ni12 2.602249 1_554
In2 Ni15 2.775745 1_455
In2 Ni10 2.775745 1_454
In2 Ni14 2.775745 1_555
In2 Ni11 2.775745 1_554
In2 Ni1 2.809571 1_554
In2 Ni1 2.809571 1_555
In2 Ni8 2.821457 1_554
In2 Ni8 2.821457 1_555
In2 Ni3 2.821457 1_554
In2 Ni3 2.821457 1_555
In2 In3 2.873151 1_455
In3 Ni16 2.602249 1_555
In3 Ni13 2.602249 1_554
In3 Ni14 2.775745 1_655
In3 Ni15 2.775745 1_555
In3 Ni10 2.775745 1_554
In3 Ni11 2.775745 1_654
In3 Ni1 2.809571 1_655
In3 Ni1 2.809571 1_654
In3 Ni2 2.821457 1_554
In3 Ni9 2.821457 1_554
In3 Ni9 2.821457 1_555
In3 Ni2 2.821457 1_555
Ni0 Ni13 2.362247 1_545
Ni0 Ni16 2.362247 1_545
Ni0 Ni17 2.362247 1_555
Ni0 Ni12 2.362247 1_555
Ni0 Ni6 2.449167 1_545
Ni0 Ni5 2.449167 1_555
Ni0 Ni7 2.449167 1_555
Ni0 Ni4 2.449167 1_545
Ni1 Ni14 2.362247 1_555
Ni1 Ni11 2.362247 1_555
Ni1 Ni15 2.362247 1_455
Ni1 Ni10 2.362247 1_455
Ni1 Ni8 2.449167 1_555
Ni1 Ni3 2.449167 1_555
Ni1 Ni9 2.449167 1_455
Ni1 Ni2 2.449167 1_455
Ni2 Ni6 2.504776 1_555
Ni2 Ni7 2.504776 1_555
Ni2 Ni9 2.635483 1_555
Ni3 Ni6 2.504776 1_555
Ni3 Ni7 2.504776 1_555
Ni3 Ni8 2.635483 1_555
Ni4 Ni9 2.504776 1_455
Ni4 Ni8 2.504776 1_565
Ni4 Ni6 2.635483 1_555
Ni5 Ni9 2.504776 1_545
Ni5 Ni8 2.504776 1_655
Ni5 Ni7 2.635483 1_555
Ni10 Ni15 2.389347 1_555
Ni10 Ni15 2.439708 1_556
Ni10 Ni7 2.440300 1_555
Ni10 Ni5 2.440300 1_555
Ni10 Ni8 2.491550 1_655
Ni10 Ni2 2.491550 1_555
Ni11 Ni14 2.389347 1_555
Ni11 Ni14 2.439708 1_556
Ni11 Ni4 2.440300 1_555
Ni11 Ni6 2.440300 1_555
Ni11 Ni9 2.491550 1_455
Ni11 Ni3 2.491550 1_555
Ni12 Ni17 2.389347 1_555
Ni12 Ni17 2.439708 1_556
Ni12 Ni8 2.440300 1_555
Ni12 Ni3 2.440300 1_555
Ni12 Ni4 2.491550 1_545
Ni12 Ni7 2.491550 1_555
Ni13 Ni16 2.389347 1_555
Ni13 Ni16 2.439708 1_556
Ni13 Ni2 2.440300 1_555
Ni13 Ni9 2.440300 1_555
Ni13 Ni6 2.491550 1_555
Ni13 Ni5 2.491550 1_565
Ni14 Ni4 2.440300 1_555
Ni14 Ni6 2.440300 1_555
Ni14 Ni9 2.491550 1_455
Ni14 Ni3 2.491550 1_555
Ni15 Ni7 2.440300 1_555
Ni15 Ni5 2.440300 1_555
Ni15 Ni8 2.491550 1_655
Ni15 Ni2 2.491550 1_555
Ni16 Ni9 2.440300 1_555
Ni16 Ni2 2.440300 1_555
Ni16 Ni6 2.491550 1_555
Ni16 Ni5 2.491550 1_565
Ni17 Ni8 2.440300 1_555
Ni17 Ni3 2.440300 1_555
Ni17 Ni4 2.491550 1_545
Ni17 Ni7 2.491550 1_555
