# generated using pymatgen
data_VCo7N4
_symmetry_space_group_name_H-M   'P 1'
_cell_length_a   9.78856717
_cell_length_b   9.78856717
_cell_length_c   9.78856717
_cell_angle_alpha   90.00000000
_cell_angle_beta   90.00000000
_cell_angle_gamma   90.00000000
_symmetry_Int_Tables_number   1
_chemical_formula_structural   VCo7N4
_chemical_formula_sum   'V8 Co56 N32'
_cell_volume   937.90181439
_cell_formula_units_Z   8
loop_
 _symmetry_equiv_pos_site_id
 _symmetry_equiv_pos_as_xyz
  1  'x, y, z'
loop_
 _atom_site_type_symbol
 _atom_site_label
 _atom_site_symmetry_multiplicity
 _atom_site_fract_x
 _atom_site_fract_y
 _atom_site_fract_z
 _atom_site_occupancy
  V  V0  1  0.50000000  0.50000000  0.50000000  1
  V  V1  1  0.00000000  -0.00000000  -0.00000000  1
  V  V2  1  0.50000000  -0.00000000  0.25000000  1
  V  V3  1  0.00000000  0.75000000  0.50000000  1
  V  V4  1  0.25000000  0.50000000  -0.00000000  1
  V  V5  1  0.00000000  0.25000000  0.50000000  1
  V  V6  1  0.75000000  0.50000000  -0.00000000  1
  V  V7  1  0.50000000  -0.00000000  0.75000000  1
  Co  Co0  1  0.00000000  -0.00000000  0.50000000  1
  Co  Co1  1  0.00000000  0.50000000  -0.00000000  1
  Co  Co2  1  0.50000000  -0.00000000  -0.00000000  1
  Co  Co3  1  0.50000000  -0.00000000  0.50000000  1
  Co  Co4  1  0.50000000  0.50000000  -0.00000000  1
  Co  Co5  1  0.00000000  0.50000000  0.50000000  1
  Co  Co6  1  0.00000000  0.50000000  0.25000000  1
  Co  Co7  1  0.50000000  0.75000000  -0.00000000  1
  Co  Co8  1  0.25000000  -0.00000000  0.50000000  1
  Co  Co9  1  0.50000000  0.25000000  -0.00000000  1
  Co  Co10  1  0.75000000  -0.00000000  0.50000000  1
  Co  Co11  1  0.00000000  0.50000000  0.75000000  1
  Co  Co12  1  0.29563011  0.70436989  0.29563011  1
  Co  Co13  1  0.70436989  0.29563011  0.29563011  1
  Co  Co14  1  0.29563011  0.29563011  0.70436989  1
  Co  Co15  1  0.70436989  0.70436989  0.70436989  1
  Co  Co16  1  0.79563011  0.79563011  0.20436989  1
  Co  Co17  1  0.20436989  0.79563011  0.79563011  1
  Co  Co18  1  0.79563011  0.20436989  0.79563011  1
  Co  Co19  1  0.20436989  0.20436989  0.20436989  1
  Co  Co20  1  0.50000000  0.50000000  0.24547794  1
  Co  Co21  1  0.50000000  0.75452206  0.50000000  1
  Co  Co22  1  0.24547794  0.50000000  0.50000000  1
  Co  Co23  1  0.50000000  0.24547794  0.50000000  1
  Co  Co24  1  0.75452206  0.50000000  0.50000000  1
  Co  Co25  1  0.50000000  0.50000000  0.75452206  1
  Co  Co26  1  0.00000000  0.74547794  -0.00000000  1
  Co  Co27  1  0.00000000  -0.00000000  0.25452206  1
  Co  Co28  1  0.74547794  -0.00000000  -0.00000000  1
  Co  Co29  1  0.00000000  -0.00000000  0.74547794  1
  Co  Co30  1  0.25452206  -0.00000000  -0.00000000  1
  Co  Co31  1  0.00000000  0.25452206  -0.00000000  1
  Co  Co32  1  0.56442757  0.74214262  0.24801660  1
  Co  Co33  1  0.25785738  0.75198340  0.56442757  1
  Co  Co34  1  0.24801660  0.43557243  0.25785738  1
  Co  Co35  1  0.43557243  0.25785738  0.24801660  1
  Co  Co36  1  0.74214262  0.24801660  0.56442757  1
  Co  Co37  1  0.75198340  0.56442757  0.25785738  1
  Co  Co38  1  0.56442757  0.25785738  0.75198340  1
  Co  Co39  1  0.25785738  0.24801660  0.43557243  1
  Co  Co40  1  0.24801660  0.56442757  0.74214262  1
  Co  Co41  1  0.43557243  0.74214262  0.75198340  1
  Co  Co42  1  0.74214262  0.75198340  0.43557243  1
  Co  Co43  1  0.75198340  0.43557243  0.74214262  1
  Co  Co44  1  0.06442757  0.74801660  0.24214262  1
  Co  Co45  1  0.75785738  0.06442757  0.25198340  1
  Co  Co46  1  0.74801660  0.75785738  0.93557243  1
  Co  Co47  1  0.93557243  0.74801660  0.75785738  1
  Co  Co48  1  0.24214262  0.06442757  0.74801660  1
  Co  Co49  1  0.25198340  0.75785738  0.06442757  1
  Co  Co50  1  0.06442757  0.25198340  0.75785738  1
  Co  Co51  1  0.75785738  0.93557243  0.74801660  1
  Co  Co52  1  0.74801660  0.24214262  0.06442757  1
  Co  Co53  1  0.93557243  0.25198340  0.24214262  1
  Co  Co54  1  0.24214262  0.93557243  0.25198340  1
  Co  Co55  1  0.25198340  0.24214262  0.93557243  1
  N  N0  1  0.39557956  0.60442044  0.39557956  1
  N  N1  1  0.60442044  0.39557956  0.39557956  1
  N  N2  1  0.39557956  0.39557956  0.60442044  1
  N  N3  1  0.60442044  0.60442044  0.60442044  1
  N  N4  1  0.89557956  0.89557956  0.10442044  1
  N  N5  1  0.10442044  0.89557956  0.89557956  1
  N  N6  1  0.89557956  0.10442044  0.89557956  1
  N  N7  1  0.10442044  0.10442044  0.10442044  1
  N  N8  1  0.38383006  0.89289509  0.11758059  1
  N  N9  1  0.10710491  0.88241941  0.38383006  1
  N  N10  1  0.11758059  0.61616994  0.10710491  1
  N  N11  1  0.61616994  0.10710491  0.11758059  1
  N  N12  1  0.89289509  0.11758059  0.38383006  1
  N  N13  1  0.88241941  0.38383006  0.10710491  1
  N  N14  1  0.38383006  0.10710491  0.88241941  1
  N  N15  1  0.10710491  0.11758059  0.61616994  1
  N  N16  1  0.11758059  0.38383006  0.89289509  1
  N  N17  1  0.61616994  0.89289509  0.88241941  1
  N  N18  1  0.89289509  0.88241941  0.61616994  1
  N  N19  1  0.88241941  0.61616994  0.89289509  1
  N  N20  1  0.88383006  0.61758059  0.39289509  1
  N  N21  1  0.60710491  0.88383006  0.38241941  1
  N  N22  1  0.61758059  0.60710491  0.11616994  1
  N  N23  1  0.11616994  0.61758059  0.60710491  1
  N  N24  1  0.39289509  0.88383006  0.61758059  1
  N  N25  1  0.38241941  0.60710491  0.88383006  1
  N  N26  1  0.88383006  0.38241941  0.60710491  1
  N  N27  1  0.60710491  0.11616994  0.61758059  1
  N  N28  1  0.61758059  0.39289509  0.88383006  1
  N  N29  1  0.11616994  0.38241941  0.39289509  1
  N  N30  1  0.39289509  0.11616994  0.38241941  1
  N  N31  1  0.38241941  0.39289509  0.11616994  1
loop_
_geom_bond_atom_site_label_1
_geom_bond_atom_site_label_2
_geom_bond_distance
_geom_bond_site_symmetry_2
Co0 N15 1.927928 1_555
Co0 N9 1.927928 1_545
Co0 N18 1.927928 1_445
Co0 N12 1.927928 1_455
Co1 N19 1.927928 1_454
Co1 N10 1.927928 1_555
Co1 N16 1.927928 1_554
Co1 N13 1.927928 1_455
Co2 N8 1.927928 1_545
Co2 N11 1.927928 1_555
Co2 N14 1.927928 1_554
Co2 N17 1.927928 1_544
Co3 N27 1.927928 1_555
Co3 N30 1.927928 1_555
Co3 N24 1.927928 1_545
Co3 N21 1.927928 1_545
Co4 N31 1.927928 1_555
Co4 N22 1.927928 1_555
Co4 N25 1.927928 1_554
Co4 N28 1.927928 1_554
Co5 N29 1.927928 1_555
Co5 N23 1.927928 1_555
Co5 N26 1.927928 1_455
Co5 N20 1.927928 1_455
Co6 N10 2.138744 1_555
Co6 N20 2.138744 1_455
Co6 N13 2.138744 1_455
Co6 N29 2.138744 1_555
Co7 N22 2.138744 1_555
Co7 N17 2.138744 1_554
Co7 N8 2.138744 1_555
Co7 N25 2.138744 1_554
Co8 N15 2.138744 1_555
Co8 N30 2.138744 1_555
Co8 N9 2.138744 1_545
Co8 N24 2.138744 1_545
Co9 N28 2.138744 1_554
Co9 N14 2.138744 1_554
Co9 N11 2.138744 1_555
Co9 N31 2.138744 1_555
Co10 N18 2.138744 1_545
Co10 N27 2.138744 1_555
Co10 N12 2.138744 1_555
Co10 N21 2.138744 1_545
Co11 N23 2.138744 1_555
Co11 N16 2.138744 1_555
Co11 N19 2.138744 1_455
Co11 N26 2.138744 1_455
Co12 N0 1.694573 1_555
Co13 N1 1.694573 1_555
Co14 N2 1.694573 1_555
Co15 N3 1.694573 1_555
Co16 N4 1.694573 1_555
Co17 N5 1.694573 1_555
Co18 N6 1.694573 1_555
Co19 N7 1.694573 1_555
Co20 N31 2.006470 1_555
Co20 N22 2.006470 1_555
Co20 N1 2.061133 1_555
Co20 N0 2.061133 1_555
Co21 N24 2.006470 1_555
Co21 N21 2.006470 1_555
Co21 N3 2.061133 1_555
Co21 N0 2.061133 1_555
Co22 N23 2.006470 1_555
Co22 N29 2.006470 1_555
Co22 N2 2.061133 1_555
Co22 N0 2.061133 1_555
Co23 N27 2.006470 1_555
Co23 N30 2.006470 1_555
Co23 N2 2.061133 1_555
Co23 N1 2.061133 1_555
Co24 N26 2.006470 1_555
Co24 N20 2.006470 1_555
Co24 N3 2.061133 1_555
Co24 N1 2.061133 1_555
Co25 N25 2.006470 1_555
Co25 N28 2.006470 1_555
Co25 N3 2.061133 1_555
Co25 N2 2.061133 1_555
Co26 N10 2.006470 1_555
Co26 N19 2.006470 1_454
Co26 N4 2.061133 1_455
Co26 N5 2.061133 1_554
Co27 N9 2.006470 1_545
Co27 N12 2.006470 1_455
Co27 N4 2.061133 1_445
Co27 N7 2.061133 1_555
Co28 N11 2.006470 1_555
Co28 N17 2.006470 1_544
Co28 N6 2.061133 1_554
Co28 N4 2.061133 1_545
Co29 N15 2.006470 1_555
Co29 N18 2.006470 1_445
Co29 N5 2.061133 1_545
Co29 N6 2.061133 1_455
Co30 N8 2.006470 1_545
Co30 N14 2.006470 1_554
Co30 N5 2.061133 1_544
Co30 N7 2.061133 1_555
Co31 N16 2.006470 1_554
Co31 N13 2.006470 1_455
Co31 N6 2.061133 1_454
Co31 N7 2.061133 1_555
Co32 N22 1.919257 1_555
Co32 N21 1.956754 1_555
Co33 N24 1.919257 1_555
Co33 N23 1.956754 1_555
Co34 N29 1.919257 1_555
Co34 N31 1.956754 1_555
Co35 N31 1.919257 1_555
Co35 N30 1.956754 1_555
Co36 N27 1.919257 1_555
Co36 N26 1.956754 1_555
Co37 N20 1.919257 1_555
Co37 N22 1.956754 1_555
Co38 N28 1.919257 1_555
Co38 N27 1.956754 1_555
Co39 N30 1.919257 1_555
Co39 N29 1.956754 1_555
Co40 N23 1.919257 1_555
Co40 N25 1.956754 1_555
Co41 N25 1.919257 1_555
Co41 N24 1.956754 1_555
Co42 N21 1.919257 1_555
Co42 N20 1.956754 1_555
Co43 N26 1.919257 1_555
Co43 N28 1.956754 1_555
Co44 N10 1.919257 1_555
Co44 N9 1.956754 1_555
Co45 N12 1.919257 1_555
Co45 N11 1.956754 1_555
Co46 N17 1.919257 1_555
Co46 N19 1.956754 1_555
Co47 N19 1.919257 1_555
Co47 N18 1.956754 1_555
Co48 N15 1.919257 1_555
Co48 N14 1.956754 1_555
Co49 N8 1.919257 1_555
Co49 N10 1.956754 1_555
Co50 N16 1.919257 1_555
Co50 N15 1.956754 1_555
Co51 N18 1.919257 1_555
Co51 N17 1.956754 1_555
Co52 N11 1.919257 1_555
Co52 N13 1.956754 1_555
Co53 N13 1.919257 1_555
Co53 N12 1.956754 1_555
Co54 N9 1.919257 1_555
Co54 N8 1.956754 1_555
Co55 N14 1.919257 1_555
Co55 N16 1.956754 1_555
N0 V0 1.770375 1_555
N1 V0 1.770375 1_555
N2 V0 1.770375 1_555
N3 V0 1.770375 1_555
N4 V1 1.770375 1_665
N5 V1 1.770375 1_566
N6 V1 1.770375 1_656
N7 V1 1.770375 1_555
N8 V2 2.018008 1_565
N9 V3 2.018008 1_555
N10 V4 2.018008 1_555
N11 V2 2.018008 1_555
N12 V5 2.018008 1_655
N13 V6 2.018008 1_555
N14 V7 2.018008 1_555
N15 V5 2.018008 1_555
N16 V4 2.018008 1_556
N17 V7 2.018008 1_565
N18 V3 2.018008 1_655
N19 V6 2.018008 1_556
N20 V3 2.018008 1_655
N21 V2 2.018008 1_565
N22 V6 2.018008 1_555
N23 V3 2.018008 1_555
N24 V7 2.018008 1_565
N25 V4 2.018008 1_556
N26 V5 2.018008 1_655
N27 V7 2.018008 1_555
N28 V6 2.018008 1_556
N29 V5 2.018008 1_555
N30 V2 2.018008 1_555
N31 V4 2.018008 1_555
