# generated using pymatgen
data_Nb4AgS8
_symmetry_space_group_name_H-M   'P 1'
_cell_length_a   3.38420600
_cell_length_b   3.38371129
_cell_length_c   27.26519364
_cell_angle_alpha   86.43754529
_cell_angle_beta   89.99917061
_cell_angle_gamma   120.00478573
_symmetry_Int_Tables_number   1
_chemical_formula_structural   Nb4AgS8
_chemical_formula_sum   'Nb4 Ag1 S8'
_cell_volume   269.67907402
_cell_formula_units_Z   1
loop_
 _symmetry_equiv_pos_site_id
 _symmetry_equiv_pos_as_xyz
  1  'x, y, z'
loop_
 _atom_site_type_symbol
 _atom_site_label
 _atom_site_symmetry_multiplicity
 _atom_site_fract_x
 _atom_site_fract_y
 _atom_site_fract_z
 _atom_site_occupancy
  Nb  Nb0  1  0.53762007  0.07522104  0.38764720  1
  Nb  Nb1  1  0.03783446  0.07564740  0.88908307  1
  Nb  Nb2  1  0.96086749  0.92176134  0.11569401  1
  Nb  Nb3  1  0.46132172  0.92265777  0.61435142  1
  Ag  Ag0  1  0.57974445  0.15949526  0.26155013  1
  S  S0  1  0.60832676  0.21669582  0.17316525  1
  S  S1  1  0.10877724  0.21758822  0.67169580  1
  S  S2  1  0.89043017  0.78083337  0.32930208  1
  S  S3  1  0.39037348  0.78070328  0.83168151  1
  S  S4  1  0.64605804  0.29213004  0.06018834  1
  S  S5  1  0.14717397  0.29434158  0.55713007  1
  S  S6  1  0.85247945  0.70493240  0.44317813  1
  S  S7  1  0.35199369  0.70399249  0.94633298  1
loop_
_geom_bond_atom_site_label_1
_geom_bond_atom_site_label_2
_geom_bond_distance
_geom_bond_site_symmetry_2
Nb0 S6 2.469211 1_445
Nb0 S6 2.469257 1_545
Nb0 S6 2.469439 1_555
Nb0 S2 2.516659 1_555
Nb0 S2 2.516916 1_545
Nb0 S2 2.516930 1_445
Nb1 S7 2.497800 1_555
Nb1 S7 2.498332 1_545
Nb1 S7 2.498364 1_445
Nb1 S3 2.500729 1_555
Nb1 S3 2.500732 1_445
Nb1 S3 2.500751 1_545
Nb2 S4 2.468794 1_555
Nb2 S4 2.468926 1_565
Nb2 S4 2.468926 1_665
Nb2 S0 2.501828 1_555
Nb2 S0 2.501965 1_665
Nb2 S0 2.501970 1_565
Nb3 S5 2.497206 1_555
Nb3 S5 2.497910 1_565
Nb3 S5 2.497928 1_665
Nb3 S1 2.499706 1_665
Nb3 S1 2.499718 1_565
Nb3 S1 2.499877 1_555
Ag0 S0 2.403624 1_555
Ag0 S2 2.685134 1_555
Ag0 S2 2.685575 1_445
Ag0 S2 2.685679 1_545
