# generated using pymatgen
data_Li3Mn2(SiO4)2
_symmetry_space_group_name_H-M   'P 1'
_cell_length_a   6.73487785
_cell_length_b   7.29159805
_cell_length_c   7.21905192
_cell_angle_alpha   97.59438520
_cell_angle_beta   89.72467087
_cell_angle_gamma   88.40078738
_symmetry_Int_Tables_number   1
_chemical_formula_structural   Li3Mn2(SiO4)2
_chemical_formula_sum   'Li6 Mn4 Si4 O16'
_cell_volume   351.25396822
_cell_formula_units_Z   2
loop_
 _symmetry_equiv_pos_site_id
 _symmetry_equiv_pos_as_xyz
  1  'x, y, z'
loop_
 _atom_site_type_symbol
 _atom_site_label
 _atom_site_symmetry_multiplicity
 _atom_site_fract_x
 _atom_site_fract_y
 _atom_site_fract_z
 _atom_site_occupancy
  Li  Li0  1  0.98129200  0.65455000  0.85497800  1
  Li  Li1  1  0.00931600  0.15364900  0.32276200  1
  Li  Li2  1  0.51340200  0.59537100  0.38463900  1
  Li  Li3  1  0.48063000  0.09868800  0.91845800  1
  Li  Li4  1  0.76963500  0.81042600  0.16737200  1
  Li  Li5  1  0.76623000  0.33474300  0.67091200  1
  Mn  Mn0  1  0.00187800  0.05199100  0.87685100  1
  Mn  Mn1  1  0.51086800  0.17557900  0.34925200  1
  Mn  Mn2  1  0.03761600  0.60245100  0.42421000  1
  Mn  Mn3  1  0.47687300  0.63210000  0.80011300  1
  Si  Si0  1  0.23620600  0.34383400  0.68686600  1
  Si  Si1  1  0.25273500  0.84139800  0.15639100  1
  Si  Si2  1  0.75937600  0.40251600  0.08131200  1
  Si  Si3  1  0.75305500  0.92087300  0.59769700  1
  O  O0  1  0.03342700  0.85458700  0.04939800  1
  O  O1  1  0.04211000  0.35916600  0.55028200  1
  O  O2  1  0.22984000  0.52678900  0.84902900  1
  O  O3  1  0.26537400  0.03812800  0.28999800  1
  O  O4  1  0.27010400  0.66774800  0.27543300  1
  O  O5  1  0.24696900  0.14894200  0.77138700  1
  O  O6  1  0.44414100  0.83276600  0.00165100  1
  O  O7  1  0.45374400  0.39320100  0.58532900  1
  O  O8  1  0.55943600  0.29176300  0.11652700  1
  O  O9  1  0.58579600  0.76631600  0.60918300  1
  O  O10  1  0.78592300  0.56556500  0.26203400  1
  O  O11  1  0.73151400  0.09825300  0.76532000  1
  O  O12  1  0.74484500  0.51127800  0.89356800  1
  O  O13  1  0.75616600  0.99952700  0.39490500  1
  O  O14  1  0.95415600  0.25315200  0.07092700  1
  O  O15  1  0.97201100  0.83304600  0.65774400  1
loop_
_geom_bond_atom_site_label_1
_geom_bond_atom_site_label_2
_geom_bond_distance
_geom_bond_site_symmetry_2
Li0 O2 1.890360 1_655
Li0 O0 1.926883 1_656
Li0 O12 1.967322 1_555
Li0 O15 2.052153 1_555
Li1 O3 1.897834 1_555
Li1 O14 2.075973 1_455
Li1 O1 2.088910 1_555
Li1 O13 2.166579 1_445
Li2 O4 1.912878 1_555
Li2 O9 1.981532 1_555
Li2 O10 2.027456 1_555
Li2 O7 2.241764 1_555
Li3 O5 1.955677 1_555
Li3 O8 1.955791 1_556
Li3 O11 2.014443 1_555
Li3 O6 2.124563 1_546
Li4 O10 1.994760 1_555
Li4 O13 2.000110 1_555
Li4 O0 2.018717 1_655
Li4 O6 2.513990 1_555
Li5 O12 1.924019 1_555
Li5 O11 1.955578 1_555
Li5 O1 2.070315 1_655
Li5 O7 2.241559 1_555
Mn0 O14 1.908890 1_456
Mn0 O5 1.999847 1_555
Mn0 O0 2.031737 1_546
Mn0 O11 2.032045 1_455
Mn0 O15 2.108219 1_445
Mn1 O3 1.976630 1_555
Mn1 O8 2.008396 1_555
Mn1 O13 2.117656 1_545
Mn1 O7 2.194375 1_555
Mn2 O4 1.998124 1_555
Mn2 O10 2.068269 1_455
Mn2 O1 2.097640 1_555
Mn2 O15 2.250935 1_455
Mn3 O2 1.902552 1_555
Mn3 O6 1.929375 1_556
Mn3 O9 1.944890 1_555
Mn3 O12 2.137407 1_555
Mn3 O7 2.183206 1_555
O0 Si1 1.676326 1_555
O1 Si0 1.651327 1_555
O2 Si0 1.653927 1_555
O3 Si1 1.623933 1_545
O4 Si1 1.623496 1_555
O5 Si0 1.618909 1_555
O6 Si1 1.696065 1_555
O7 Si0 1.703589 1_555
O8 Si2 1.625336 1_555
O9 Si3 1.624969 1_555
O10 Si2 1.658806 1_555
O11 Si3 1.652978 1_545
O12 Si2 1.660264 1_556
O13 Si3 1.641600 1_555
O14 Si2 1.676414 1_555
O15 Si3 1.673139 1_555
