# generated using pymatgen
data_Rb2LaNb5O15
_symmetry_space_group_name_H-M   'P 1'
_cell_length_a   12.78124723
_cell_length_b   12.78124723
_cell_length_c   3.96108312
_cell_angle_alpha   90.00000000
_cell_angle_beta   90.00000000
_cell_angle_gamma   90.00000000
_symmetry_Int_Tables_number   1
_chemical_formula_structural   Rb2LaNb5O15
_chemical_formula_sum   'Rb4 La2 Nb10 O30'
_cell_volume   647.08365057
_cell_formula_units_Z   2
loop_
 _symmetry_equiv_pos_site_id
 _symmetry_equiv_pos_as_xyz
  1  'x, y, z'
loop_
 _atom_site_type_symbol
 _atom_site_label
 _atom_site_symmetry_multiplicity
 _atom_site_fract_x
 _atom_site_fract_y
 _atom_site_fract_z
 _atom_site_occupancy
  Rb  Rb0  1  0.67198280  0.17198280  0.50000000  1
  Rb  Rb1  1  0.32801720  0.82801720  0.50000000  1
  Rb  Rb2  1  0.17198280  0.32801720  0.50000000  1
  Rb  Rb3  1  0.82801720  0.67198280  0.50000000  1
  La  La0  1  -0.00000000  -0.00000000  0.50000000  1
  La  La1  1  0.50000000  0.50000000  0.50000000  1
  Nb  Nb0  1  0.50000000  -0.00000000  -0.00000000  1
  Nb  Nb1  1  -0.00000000  0.50000000  -0.00000000  1
  Nb  Nb2  1  0.21434160  0.07538544  -0.00000000  1
  Nb  Nb3  1  0.78565840  0.92461456  0.00000000  1
  Nb  Nb4  1  0.07538544  0.78565840  0.00000000  1
  Nb  Nb5  1  0.71434160  0.42461456  -0.00000000  1
  Nb  Nb6  1  0.92461456  0.21434160  -0.00000000  1
  Nb  Nb7  1  0.28565840  0.57538544  0.00000000  1
  Nb  Nb8  1  0.57538544  0.71434160  -0.00000000  1
  Nb  Nb9  1  0.42461456  0.28565840  -0.00000000  1
  O  O0  1  0.19196300  0.07786730  0.50000000  1
  O  O1  1  0.80803700  0.92213270  0.50000000  1
  O  O2  1  0.07786730  0.80803700  0.50000000  1
  O  O3  1  0.69196300  0.42213270  0.50000000  1
  O  O4  1  0.92213270  0.19196300  0.50000000  1
  O  O5  1  0.30803700  0.57786730  0.50000000  1
  O  O6  1  0.57786730  0.69196300  0.50000000  1
  O  O7  1  0.42213270  0.30803700  0.50000000  1
  O  O8  1  0.21314858  0.71314858  0.00000000  1
  O  O9  1  0.78685142  0.28685142  -0.00000000  1
  O  O10  1  0.71314858  0.78685142  0.00000000  1
  O  O11  1  0.28685142  0.21314858  -0.00000000  1
  O  O12  1  0.50000000  -0.00000000  0.50000000  1
  O  O13  1  -0.00000000  0.50000000  0.50000000  1
  O  O14  1  0.06087086  0.13305918  0.00000000  1
  O  O15  1  0.93912914  0.86694082  -0.00000000  1
  O  O16  1  0.13305918  0.93912914  0.00000000  1
  O  O17  1  0.56087086  0.36694082  0.00000000  1
  O  O18  1  0.86694082  0.06087086  -0.00000000  1
  O  O19  1  0.43912914  0.63305918  0.00000000  1
  O  O20  1  0.63305918  0.56087086  -0.00000000  1
  O  O21  1  0.36694082  0.43912914  0.00000000  1
  O  O22  1  0.34329819  -0.00070616  -0.00000000  1
  O  O23  1  0.65670181  0.00070616  0.00000000  1
  O  O24  1  -0.00070616  0.65670181  -0.00000000  1
  O  O25  1  0.84329819  0.50070616  -0.00000000  1
  O  O26  1  0.00070616  0.34329819  0.00000000  1
  O  O27  1  0.15670181  0.49929384  -0.00000000  1
  O  O28  1  0.49929384  0.84329819  -0.00000000  1
  O  O29  1  0.50070616  0.15670181  -0.00000000  1
loop_
_geom_bond_atom_site_label_1
_geom_bond_atom_site_label_2
_geom_bond_distance
_geom_bond_site_symmetry_2
La0 O0 2.647697 1_555
La0 O2 2.647697 1_545
La0 O4 2.647697 1_455
La0 O1 2.647697 1_445
La0 O18 2.723984 1_456
La0 O18 2.723984 1_455
La0 O15 2.723984 1_446
La0 O15 2.723984 1_445
La0 O14 2.723984 1_556
La0 O16 2.723984 1_546
La0 O14 2.723984 1_555
La0 O16 2.723984 1_545
La1 O5 2.647697 1_555
La1 O6 2.647697 1_555
La1 O7 2.647697 1_555
La1 O3 2.647697 1_555
La1 O19 2.723984 1_556
La1 O19 2.723984 1_555
La1 O20 2.723984 1_555
La1 O17 2.723984 1_555
La1 O20 2.723984 1_556
La1 O17 2.723984 1_556
La1 O21 2.723984 1_555
La1 O21 2.723984 1_556
Nb0 O12 1.980542 1_554
Nb0 O12 1.980542 1_555
Nb0 O28 2.002865 1_545
Nb0 O22 2.002865 1_555
Nb0 O29 2.002865 1_555
Nb0 O23 2.002865 1_555
Nb1 O13 1.980542 1_555
Nb1 O13 1.980542 1_554
Nb1 O25 2.002865 1_455
Nb1 O26 2.002865 1_555
Nb1 O27 2.002865 1_555
Nb1 O24 2.002865 1_555
Nb2 O22 1.913764 1_555
Nb2 O11 1.989788 1_555
Nb2 O0 2.001340 1_555
Nb2 O0 2.001340 1_554
Nb2 O16 2.027857 1_545
Nb2 O14 2.095483 1_555
Nb3 O23 1.913764 1_565
Nb3 O10 1.989788 1_555
Nb3 O1 2.001340 1_554
Nb3 O1 2.001340 1_555
Nb3 O18 2.027857 1_565
Nb3 O15 2.095483 1_555
Nb4 O24 1.913764 1_555
Nb4 O8 1.989788 1_555
Nb4 O2 2.001340 1_554
Nb4 O2 2.001340 1_555
Nb4 O15 2.027857 1_455
Nb4 O16 2.095483 1_555
Nb5 O25 1.913764 1_555
Nb5 O9 1.989788 1_555
Nb5 O3 2.001340 1_554
Nb5 O3 2.001340 1_555
Nb5 O20 2.027857 1_555
Nb5 O17 2.095483 1_555
Nb6 O26 1.913764 1_655
Nb6 O9 1.989788 1_555
Nb6 O4 2.001340 1_554
Nb6 O4 2.001340 1_555
Nb6 O14 2.027857 1_655
Nb6 O18 2.095483 1_555
Nb7 O27 1.913764 1_555
Nb7 O8 1.989788 1_555
Nb7 O5 2.001340 1_555
Nb7 O5 2.001340 1_554
Nb7 O21 2.027857 1_555
Nb7 O19 2.095483 1_555
Nb8 O28 1.913764 1_555
Nb8 O10 1.989788 1_555
Nb8 O6 2.001340 1_555
Nb8 O6 2.001340 1_554
Nb8 O19 2.027857 1_555
Nb8 O20 2.095483 1_555
Nb9 O29 1.913764 1_555
Nb9 O11 1.989788 1_555
Nb9 O7 2.001340 1_555
Nb9 O7 2.001340 1_554
Nb9 O17 2.027857 1_555
Nb9 O21 2.095483 1_555
O0 Rb2 3.207410 1_555
O1 Rb3 3.207410 1_555
O2 Rb1 3.207410 1_555
O3 Rb0 3.207410 1_555
O4 Rb0 3.207410 1_555
O5 Rb1 3.207410 1_555
O6 Rb3 3.207410 1_555
O7 Rb2 3.207410 1_555
O8 Rb1 2.869418 1_554
O8 Rb1 2.869418 1_555
O9 Rb0 2.869418 1_554
O9 Rb0 2.869418 1_555
O10 Rb3 2.869418 1_554
O10 Rb3 2.869418 1_555
O11 Rb2 2.869418 1_554
O11 Rb2 2.869418 1_555
O12 Rb1 3.108660 1_545
O12 Rb0 3.108660 1_555
O13 Rb2 3.108660 1_555
O13 Rb3 3.108660 1_455
O22 Rb1 2.958543 1_545
O22 Rb1 2.958543 1_544
O23 Rb0 2.958543 1_555
O23 Rb0 2.958543 1_554
O24 Rb3 2.958543 1_454
O24 Rb3 2.958543 1_455
O25 Rb3 2.958543 1_554
O25 Rb3 2.958543 1_555
O26 Rb2 2.958543 1_555
O26 Rb2 2.958543 1_554
O27 Rb2 2.958543 1_555
O27 Rb2 2.958543 1_554
O28 Rb1 2.958543 1_554
O28 Rb1 2.958543 1_555
O29 Rb0 2.958543 1_555
O29 Rb0 2.958543 1_554
