# generated using pymatgen
data_Tm2CrS4
_symmetry_space_group_name_H-M   'P 1'
_cell_length_a   7.41091700
_cell_length_b   12.50779000
_cell_length_c   12.38398700
_cell_angle_alpha   90.00000000
_cell_angle_beta   90.00000000
_cell_angle_gamma   90.00000000
_symmetry_Int_Tables_number   1
_chemical_formula_structural   Tm2CrS4
_chemical_formula_sum   'Tm16 Cr8 S32'
_cell_volume   1147.92368782
_cell_formula_units_Z   8
loop_
 _symmetry_equiv_pos_site_id
 _symmetry_equiv_pos_as_xyz
  1  'x, y, z'
loop_
 _atom_site_type_symbol
 _atom_site_label
 _atom_site_symmetry_multiplicity
 _atom_site_fract_x
 _atom_site_fract_y
 _atom_site_fract_z
 _atom_site_occupancy
  Tm  Tm0  1  0.88369300  0.56469000  0.12698600  1
  Tm  Tm1  1  0.11630700  0.06469000  0.87301400  1
  Tm  Tm2  1  0.88369300  0.06469000  0.37301400  1
  Tm  Tm3  1  0.11630700  0.56469000  0.62698600  1
  Tm  Tm4  1  0.87108700  0.73404200  0.86590400  1
  Tm  Tm5  1  0.12891300  0.23404200  0.13409600  1
  Tm  Tm6  1  0.87108700  0.23404200  0.63409600  1
  Tm  Tm7  1  0.12891300  0.73404200  0.36590400  1
  Tm  Tm8  1  0.38288500  0.92513300  0.10965600  1
  Tm  Tm9  1  0.61711500  0.42513300  0.89034400  1
  Tm  Tm10  1  0.38288500  0.42513300  0.39034400  1
  Tm  Tm11  1  0.61711500  0.92513300  0.60965600  1
  Tm  Tm12  1  0.36998800  0.72961000  0.86638700  1
  Tm  Tm13  1  0.63001200  0.22961000  0.13361300  1
  Tm  Tm14  1  0.36998800  0.22961000  0.63361300  1
  Tm  Tm15  1  0.63001200  0.72961000  0.36638700  1
  Cr  Cr0  1  0.87419000  0.93075100  0.10831000  1
  Cr  Cr1  1  0.12581000  0.43075100  0.89169000  1
  Cr  Cr2  1  0.87419000  0.43075100  0.39169000  1
  Cr  Cr3  1  0.12581000  0.93075100  0.60831000  1
  Cr  Cr4  1  0.38167300  0.56177500  0.12431500  1
  Cr  Cr5  1  0.61832700  0.06177500  0.87568500  1
  Cr  Cr6  1  0.38167300  0.06177500  0.37568500  1
  Cr  Cr7  1  0.61832700  0.56177500  0.62431500  1
  S  S0  1  0.62256700  0.87879800  0.95343300  1
  S  S1  1  0.37743300  0.37879800  0.04656700  1
  S  S2  1  0.62256700  0.37879800  0.54656700  1
  S  S3  1  0.37743300  0.87879800  0.45343300  1
  S  S4  1  0.62020900  0.61729800  0.98849200  1
  S  S5  1  0.37979100  0.11729800  0.01150800  1
  S  S6  1  0.62020900  0.11729800  0.51150800  1
  S  S7  1  0.37979100  0.61729800  0.48849200  1
  S  S8  1  0.87848100  0.76123500  0.21117200  1
  S  S9  1  0.12151900  0.26123500  0.78882800  1
  S  S10  1  0.87848100  0.26123500  0.28882800  1
  S  S11  1  0.12151900  0.76123500  0.71117200  1
  S  S12  1  0.85836400  0.51263100  0.76026300  1
  S  S13  1  0.14163600  0.01263100  0.23973700  1
  S  S14  1  0.85836400  0.01263100  0.73973700  1
  S  S15  1  0.14163600  0.51263100  0.26026300  1
  S  S16  1  0.11630600  0.86974300  0.97180800  1
  S  S17  1  0.88369400  0.36974300  0.02819200  1
  S  S18  1  0.11630600  0.36974300  0.52819200  1
  S  S19  1  0.88369400  0.86974300  0.47180800  1
  S  S20  1  0.12457400  0.60670200  0.97369000  1
  S  S21  1  0.87542600  0.10670200  0.02631000  1
  S  S22  1  0.12457400  0.10670200  0.52631000  1
  S  S23  1  0.87542600  0.60670200  0.47369000  1
  S  S24  1  0.38025300  0.73695400  0.20995500  1
  S  S25  1  0.61974700  0.23695400  0.79004500  1
  S  S26  1  0.38025300  0.23695400  0.29004500  1
  S  S27  1  0.61974700  0.73695400  0.70995500  1
  S  S28  1  0.36405600  0.51363700  0.77038400  1
  S  S29  1  0.63594400  0.01363700  0.22961600  1
  S  S30  1  0.36405600  0.01363700  0.72961600  1
  S  S31  1  0.63594400  0.51363700  0.27038400  1
loop_
_geom_bond_atom_site_label_1
_geom_bond_atom_site_label_2
_geom_bond_distance
_geom_bond_site_symmetry_2
Cr0 S21 2.423764 1_565
Cr0 S8 2.473708 1_555
Cr0 S29 2.539482 1_565
Cr0 S16 2.580579 1_654
Cr0 S0 2.752869 1_554
Cr0 S13 2.761578 1_665
Cr1 S20 2.423764 1_555
Cr1 S9 2.473708 1_555
Cr1 S28 2.539482 1_555
Cr1 S17 2.580579 1_456
Cr1 S1 2.752869 1_556
Cr1 S12 2.761578 1_455
Cr2 S23 2.423764 1_555
Cr2 S10 2.473708 1_555
Cr2 S31 2.539482 1_555
Cr2 S18 2.580579 1_655
Cr2 S2 2.752869 1_555
Cr2 S15 2.761578 1_655
Cr3 S22 2.423764 1_565
Cr3 S11 2.473708 1_555
Cr3 S30 2.539482 1_565
Cr3 S19 2.580579 1_455
Cr3 S3 2.752869 1_555
Cr3 S14 2.761578 1_465
Cr4 S24 2.434304 1_555
Cr4 S1 2.483122 1_555
Cr4 S15 2.525220 1_555
Cr4 S4 2.537031 1_554
Cr4 S31 2.680596 1_555
Cr4 S20 2.724991 1_554
Cr5 S25 2.434304 1_555
Cr5 S0 2.483122 1_545
Cr5 S14 2.525220 1_555
Cr5 S5 2.537031 1_556
Cr5 S30 2.680596 1_555
Cr5 S21 2.724991 1_556
Cr6 S26 2.434304 1_555
Cr6 S3 2.483122 1_545
Cr6 S13 2.525220 1_555
Cr6 S6 2.537031 1_555
Cr6 S29 2.680596 1_555
Cr6 S22 2.724991 1_555
Cr7 S27 2.434304 1_555
Cr7 S2 2.483122 1_555
Cr7 S12 2.525220 1_555
Cr7 S7 2.537031 1_555
Cr7 S28 2.680596 1_555
Cr7 S23 2.724991 1_555
S0 Tm8 2.689593 1_556
S0 Tm4 2.800936 1_555
S0 Tm12 2.854440 1_555
S1 Tm9 2.689593 1_554
S1 Tm5 2.800936 1_555
S1 Tm13 2.854440 1_555
S2 Tm10 2.689593 1_555
S2 Tm6 2.800936 1_555
S2 Tm14 2.854440 1_555
S3 Tm11 2.689593 1_555
S3 Tm7 2.800936 1_555
S3 Tm15 2.854440 1_555
S4 Tm0 2.680941 1_556
S4 Tm9 2.693506 1_555
S4 Tm12 2.774645 1_555
S4 Tm4 2.809570 1_555
S5 Tm1 2.680941 1_554
S5 Tm8 2.693506 1_545
S5 Tm13 2.774645 1_555
S5 Tm5 2.809570 1_555
S6 Tm2 2.680941 1_555
S6 Tm11 2.693506 1_545
S6 Tm14 2.774645 1_555
S6 Tm6 2.809570 1_555
S7 Tm3 2.680941 1_555
S7 Tm10 2.693506 1_555
S7 Tm15 2.774645 1_555
S7 Tm7 2.809570 1_555
S8 Tm0 2.670557 1_555
S8 Tm7 2.689235 1_655
S8 Tm15 2.691085 1_555
S9 Tm1 2.670557 1_555
S9 Tm6 2.689235 1_455
S9 Tm14 2.691085 1_555
S10 Tm2 2.670557 1_555
S10 Tm5 2.689235 1_655
S10 Tm13 2.691085 1_555
S11 Tm3 2.670557 1_555
S11 Tm4 2.689235 1_455
S11 Tm12 2.691085 1_555
S12 Tm3 2.608128 1_655
S12 Tm9 2.643728 1_555
S12 Tm4 3.064277 1_555
S13 Tm2 2.608128 1_455
S13 Tm8 2.643728 1_545
S13 Tm5 3.064277 1_555
S14 Tm1 2.608128 1_655
S14 Tm11 2.643728 1_545
S14 Tm6 3.064277 1_555
S15 Tm0 2.608128 1_455
S15 Tm10 2.643728 1_555
S15 Tm7 3.064277 1_555
S16 Tm8 2.701328 1_556
S16 Tm1 2.728084 1_565
S16 Tm4 2.811322 1_455
S16 Tm12 2.882884 1_555
S17 Tm9 2.701328 1_554
S17 Tm0 2.728084 1_555
S17 Tm5 2.811322 1_655
S17 Tm13 2.882884 1_555
S18 Tm10 2.701328 1_555
S18 Tm3 2.728084 1_555
S18 Tm6 2.811322 1_455
S18 Tm14 2.882884 1_555
S19 Tm11 2.701328 1_555
S19 Tm2 2.728084 1_565
S19 Tm7 2.811322 1_655
S19 Tm15 2.882884 1_555
S20 Tm0 2.658358 1_456
S20 Tm12 2.727078 1_555
S20 Tm4 2.801357 1_455
S21 Tm1 2.658358 1_654
S21 Tm13 2.727078 1_555
S21 Tm5 2.801357 1_655
S22 Tm2 2.658358 1_455
S22 Tm14 2.727078 1_555
S22 Tm6 2.801357 1_455
S23 Tm3 2.658358 1_655
S23 Tm15 2.727078 1_555
S23 Tm7 2.801357 1_655
S24 Tm8 2.661412 1_555
S24 Tm15 2.680928 1_555
S24 Tm7 2.683400 1_555
S25 Tm9 2.661412 1_555
S25 Tm14 2.680928 1_555
S25 Tm6 2.683400 1_555
S26 Tm10 2.661412 1_555
S26 Tm13 2.680928 1_555
S26 Tm5 2.683400 1_555
S27 Tm11 2.661412 1_555
S27 Tm12 2.680928 1_555
S27 Tm4 2.683400 1_555
S28 Tm3 2.632951 1_555
S28 Tm9 2.636191 1_555
S28 Tm12 2.951725 1_555
S29 Tm2 2.632951 1_555
S29 Tm8 2.636191 1_545
S29 Tm13 2.951725 1_555
S30 Tm1 2.632951 1_555
S30 Tm11 2.636191 1_545
S30 Tm14 2.951725 1_555
S31 Tm0 2.632951 1_555
S31 Tm10 2.636191 1_555
S31 Tm15 2.951725 1_555
