# generated using pymatgen
data_Na11TiNb2Si4P2O25F
_symmetry_space_group_name_H-M   'P 1'
_cell_length_a   5.51439786
_cell_length_b   7.16920290
_cell_length_c   14.36366309
_cell_angle_alpha   92.45708414
_cell_angle_beta   95.43173833
_cell_angle_gamma   90.81169869
_symmetry_Int_Tables_number   1
_chemical_formula_structural   Na11TiNb2Si4P2O25F
_chemical_formula_sum   'Na11 Ti1 Nb2 Si4 P2 O25 F1'
_cell_volume   564.68633519
_cell_formula_units_Z   1
loop_
 _symmetry_equiv_pos_site_id
 _symmetry_equiv_pos_as_xyz
  1  'x, y, z'
loop_
 _atom_site_type_symbol
 _atom_site_label
 _atom_site_symmetry_multiplicity
 _atom_site_fract_x
 _atom_site_fract_y
 _atom_site_fract_z
 _atom_site_occupancy
  Na  Na0  1  0.48811806  0.73855243  0.49899131  1
  Na  Na1  1  0.49762112  0.26232837  0.49582696  1
  Na  Na2  1  0.75522520  0.76319846  0.91966764  1
  Na  Na3  1  0.24469455  0.23893618  0.07981176  1
  Na  Na4  1  0.81808761  0.52019884  0.09959510  1
  Na  Na5  1  0.18315803  0.48006219  0.90006602  1
  Na  Na6  1  0.28951177  0.50878072  0.26442077  1
  Na  Na7  1  0.70976014  0.49009832  0.73626408  1
  Na  Na8  1  0.80619642  0.99232195  0.13404261  1
  Na  Na9  1  0.19444290  0.00759776  0.86582656  1
  Na  Na10  1  0.99924436  0.00057904  0.50002332  1
  Ti  Ti0  1  0.97274323  0.50074310  0.50803985  1
  Nb  Nb0  1  0.30097182  0.99229962  0.28261274  1
  Nb  Nb1  1  0.70082207  0.00686123  0.71636360  1
  Si  Si0  1  0.79837940  0.70553576  0.31406046  1
  Si  Si1  1  0.20455507  0.29441098  0.68544121  1
  Si  Si2  1  0.18301493  0.71816421  0.69855018  1
  Si  Si3  1  0.82059213  0.28210685  0.30228680  1
  P  P0  1  0.31276399  0.75599448  0.06472616  1
  P  P1  1  0.68898910  0.24391676  0.93537388  1
  O  O0  1  0.58789155  0.75794586  0.05617335  1
  O  O1  1  0.41354112  0.24162002  0.94356304  1
  O  O2  1  0.84097171  0.69947263  0.42549223  1
  O  O3  1  0.16448645  0.30261999  0.57384201  1
  O  O4  1  0.17122871  0.77268871  0.96806975  1
  O  O5  1  0.82915820  0.22705755  0.03238708  1
  O  O6  1  0.25373943  0.93116771  0.12760235  1
  O  O7  1  0.75004669  0.06976720  0.87244518  1
  O  O8  1  0.53252495  0.78297328  0.28014587  1
  O  O9  1  0.46834881  0.21486786  0.72019605  1
  O  O10  1  0.94547868  0.79756644  0.74694825  1
  O  O11  1  0.05824038  0.20307323  0.25375608  1
  O  O12  1  0.23442942  0.57337609  0.10764089  1
  O  O13  1  0.76742626  0.42730424  0.89316133  1
  O  O14  1  0.79734911  0.49495063  0.26311862  1
  O  O15  1  0.20652383  0.50463363  0.73706576  1
  O  O16  1  0.67685870  0.98506347  0.59100360  1
  O  O17  1  0.32029226  0.01135239  0.40812771  1
  O  O18  1  0.43039124  0.82682113  0.74524886  1
  O  O19  1  0.57351447  0.17222323  0.25577136  1
  O  O20  1  0.00674390  0.82061874  0.26861447  1
  O  O21  1  0.99345880  0.17961333  0.72952471  1
  O  O22  1  0.16070979  0.70993553  0.58601913  1
  O  O23  1  0.84100399  0.29133555  0.41453244  1
  O  O24  1  0.73469545  0.49700652  0.57714230  1
  F  F0  1  0.27205614  0.50226181  0.42041459  1
loop_
_geom_bond_atom_site_label_1
_geom_bond_atom_site_label_2
_geom_bond_distance
_geom_bond_site_symmetry_2
Na0 O22 2.302855 1_555
Na0 O2 2.314748 1_555
Na0 O16 2.332481 1_555
Na0 O24 2.460104 1_555
Na0 O17 2.535017 1_565
Na1 O3 2.256292 1_555
Na1 O17 2.302845 1_555
Na1 O24 2.320356 1_555
Na1 O23 2.328204 1_555
Na1 O16 2.613409 1_545
Na2 O0 2.246147 1_556
Na2 O7 2.327527 1_565
Na2 O4 2.332388 1_655
Na2 O13 2.424711 1_555
Na2 O10 2.802501 1_555
Na3 O1 2.246098 1_554
Na3 O5 2.327214 1_455
Na3 O6 2.338513 1_545
Na3 O12 2.416143 1_555
Na3 O11 2.810620 1_555
Na4 O0 2.215421 1_555
Na4 O5 2.278849 1_555
Na4 O12 2.313208 1_655
Na4 O14 2.376849 1_555
Na5 O1 2.220213 1_555
Na5 O4 2.280347 1_555
Na5 O13 2.310340 1_455
Na5 O15 2.370878 1_555
Na6 O12 2.311240 1_555
Na6 O8 2.353921 1_555
Na6 O11 2.511654 1_555
Na6 O14 2.712652 1_455
Na6 O20 2.745555 1_555
Na6 O14 2.805377 1_555
Na6 O19 2.899681 1_555
Na7 O24 2.305257 1_555
Na7 O13 2.310402 1_555
Na7 O9 2.355265 1_555
Na7 O10 2.534590 1_555
Na7 O15 2.738774 1_655
Na7 O21 2.742339 1_555
Na7 O15 2.779570 1_555
Na7 O18 2.886834 1_555
Na8 O0 2.247267 1_555
Na8 O5 2.284678 1_565
Na8 O20 2.512464 1_655
Na8 O6 2.522272 1_655
Na8 O11 2.537057 1_665
Na8 O19 2.577831 1_565
Na9 O1 2.246750 1_555
Na9 O4 2.291486 1_545
Na9 O7 2.506879 1_455
Na9 O10 2.518917 1_445
Na9 O21 2.533192 1_455
Na9 O18 2.579558 1_545
Na10 O16 2.308084 1_545
Na10 O17 2.308635 1_655
Na10 O2 2.477768 1_545
Na10 O3 2.491546 1_655
Na10 O23 2.585068 1_555
Na10 O22 2.593319 1_645
Nb0 O17 1.795105 1_565
Nb0 O8 1.985466 1_555
Nb0 O20 2.012025 1_555
Nb0 O19 2.041728 1_565
Nb0 O11 2.062223 1_565
Nb0 O6 2.240670 1_555
Nb1 O16 1.792871 1_545
Nb1 O9 1.982603 1_555
Nb1 O21 2.009784 1_555
Nb1 O18 2.042191 1_545
Nb1 O10 2.065491 1_545
Nb1 O7 2.257837 1_555
O0 P0 1.533591 1_555
O1 P1 1.534450 1_555
O2 Si0 1.598111 1_555
O2 Ti0 1.993686 1_555
O3 Si1 1.601003 1_555
O3 Ti0 1.999316 1_455
O4 P0 1.537113 1_556
O5 P1 1.538499 1_554
O6 P0 1.571222 1_555
O7 P1 1.569053 1_555
O8 Si0 1.614246 1_555
O9 Si1 1.612725 1_555
O10 Si2 1.637882 1_655
O11 Si3 1.638432 1_455
O12 P0 1.544093 1_555
O13 P1 1.544394 1_555
O14 Si0 1.648928 1_555
O14 Si3 1.651325 1_555
O15 Si1 1.650331 1_555
O15 Si2 1.652576 1_555
O18 Si2 1.633847 1_555
O19 Si3 1.635689 1_555
O20 Si0 1.608835 1_455
O21 Si1 1.609480 1_655
O22 Si2 1.607856 1_555
O22 Ti0 2.042129 1_455
O23 Si3 1.603967 1_555
O23 Ti0 2.048666 1_555
O24 Ti0 1.719596 1_555
F0 Ti0 2.168513 1_455
F0 Na6 2.254243 1_555
F0 Na0 2.255525 1_555
F0 Na1 2.375846 1_555
