# generated using pymatgen
data_Mg14AlFeO16
_symmetry_space_group_name_H-M   'P 1'
_cell_length_a   4.24257100
_cell_length_b   8.50152400
_cell_length_c   8.54855600
_cell_angle_alpha   90.00000000
_cell_angle_beta   90.00000000
_cell_angle_gamma   90.00000000
_symmetry_Int_Tables_number   1
_chemical_formula_structural   Mg14AlFeO16
_chemical_formula_sum   'Mg14 Al1 Fe1 O16'
_cell_volume   308.33204632
_cell_formula_units_Z   1
loop_
 _symmetry_equiv_pos_site_id
 _symmetry_equiv_pos_as_xyz
  1  'x, y, z'
loop_
 _atom_site_type_symbol
 _atom_site_label
 _atom_site_symmetry_multiplicity
 _atom_site_fract_x
 _atom_site_fract_y
 _atom_site_fract_z
 _atom_site_occupancy
  Mg  Mg0  1  0.00000000  0.50000000  0.00000000  1
  Mg  Mg1  1  0.00000000  0.50000000  0.50000000  1
  Mg  Mg2  1  0.50000000  0.00000000  0.25565400  1
  Mg  Mg3  1  0.50000000  0.00000000  0.74434600  1
  Mg  Mg4  1  0.50000000  0.50000000  0.25145000  1
  Mg  Mg5  1  0.50000000  0.50000000  0.74855000  1
  Mg  Mg6  1  0.50000000  0.24958000  0.00000000  1
  Mg  Mg7  1  0.50000000  0.24863900  0.50000000  1
  Mg  Mg8  1  0.50000000  0.75042000  0.00000000  1
  Mg  Mg9  1  0.50000000  0.75136100  0.50000000  1
  Mg  Mg10  1  0.00000000  0.24739300  0.25465500  1
  Mg  Mg11  1  0.00000000  0.24739300  0.74534500  1
  Mg  Mg12  1  0.00000000  0.75260700  0.25465500  1
  Mg  Mg13  1  0.00000000  0.75260700  0.74534500  1
  Al  Al0  1  0.00000000  0.00000000  0.00000000  1
  Fe  Fe0  1  0.00000000  0.00000000  0.50000000  1
  O  O0  1  0.00000000  0.23660600  0.00000000  1
  O  O1  1  0.00000000  0.26196600  0.50000000  1
  O  O2  1  0.00000000  0.76339400  0.00000000  1
  O  O3  1  0.00000000  0.73803400  0.50000000  1
  O  O4  1  0.50000000  0.24903200  0.24932700  1
  O  O5  1  0.50000000  0.24903200  0.75067300  1
  O  O6  1  0.50000000  0.75096800  0.24932700  1
  O  O7  1  0.50000000  0.75096800  0.75067300  1
  O  O8  1  0.50000000  0.00000000  0.00000000  1
  O  O9  1  0.50000000  0.00000000  0.50000000  1
  O  O10  1  0.50000000  0.50000000  0.00000000  1
  O  O11  1  0.50000000  0.50000000  0.50000000  1
  O  O12  1  0.00000000  0.00000000  0.21546900  1
  O  O13  1  0.00000000  0.00000000  0.78453100  1
  O  O14  1  0.00000000  0.50000000  0.24411000  1
  O  O15  1  0.00000000  0.50000000  0.75589000  1
loop_
_geom_bond_atom_site_label_1
_geom_bond_atom_site_label_2
_geom_bond_distance
_geom_bond_site_symmetry_2
Mg0 O14 2.086788 1_555
Mg0 O15 2.086788 1_554
Mg0 O10 2.121285 1_455
Mg0 O10 2.121285 1_555
Mg0 O0 2.239250 1_555
Mg0 O2 2.239250 1_555
Mg1 O3 2.023652 1_555
Mg1 O1 2.023652 1_555
Mg1 O11 2.121285 1_455
Mg1 O11 2.121285 1_555
Mg1 O15 2.187490 1_555
Mg1 O14 2.187490 1_555
Mg2 O9 2.088805 1_555
Mg2 O4 2.117842 1_555
Mg2 O6 2.117842 1_545
Mg2 O12 2.148921 1_555
Mg2 O12 2.148921 1_655
Mg2 O8 2.185473 1_555
Mg3 O9 2.088805 1_555
Mg3 O5 2.117842 1_555
Mg3 O7 2.117842 1_545
Mg3 O13 2.148921 1_655
Mg3 O13 2.148921 1_555
Mg3 O8 2.185473 1_556
Mg4 O14 2.122213 1_555
Mg4 O14 2.122213 1_655
Mg4 O11 2.124744 1_555
Mg4 O4 2.133688 1_555
Mg4 O6 2.133688 1_555
Mg4 O10 2.149534 1_555
Mg5 O15 2.122213 1_555
Mg5 O15 2.122213 1_655
Mg5 O11 2.124744 1_555
Mg5 O7 2.133688 1_555
Mg5 O5 2.133688 1_555
Mg5 O10 2.149534 1_556
Mg6 O8 2.121810 1_555
Mg6 O0 2.124151 1_555
Mg6 O0 2.124151 1_655
Mg6 O10 2.128952 1_555
Mg6 O4 2.131391 1_555
Mg6 O5 2.131391 1_554
Mg7 O9 2.113810 1_555
Mg7 O1 2.124309 1_655
Mg7 O1 2.124309 1_555
Mg7 O11 2.136952 1_555
Mg7 O4 2.142895 1_555
Mg7 O5 2.142895 1_555
Mg8 O8 2.121810 1_565
Mg8 O2 2.124151 1_555
Mg8 O2 2.124151 1_655
Mg8 O10 2.128952 1_555
Mg8 O7 2.131391 1_554
Mg8 O6 2.131391 1_555
Mg9 O9 2.113810 1_565
Mg9 O3 2.124309 1_555
Mg9 O3 2.124309 1_655
Mg9 O11 2.136952 1_555
Mg9 O6 2.142895 1_555
Mg9 O7 2.142895 1_555
Mg10 O1 2.101002 1_555
Mg10 O4 2.121820 1_455
Mg10 O4 2.121820 1_555
Mg10 O12 2.129727 1_555
Mg10 O14 2.149436 1_555
Mg10 O0 2.178863 1_555
Mg11 O1 2.101002 1_555
Mg11 O5 2.121820 1_555
Mg11 O5 2.121820 1_455
Mg11 O13 2.129727 1_555
Mg11 O15 2.149436 1_555
Mg11 O0 2.178863 1_556
Mg12 O3 2.101002 1_555
Mg12 O6 2.121820 1_455
Mg12 O6 2.121820 1_555
Mg12 O12 2.129727 1_565
Mg12 O14 2.149436 1_555
Mg12 O2 2.178863 1_555
Mg13 O3 2.101002 1_555
Mg13 O7 2.121820 1_555
Mg13 O7 2.121820 1_455
Mg13 O13 2.129727 1_565
Mg13 O15 2.149436 1_555
Mg13 O2 2.178863 1_556
Al0 O12 1.841949 1_555
Al0 O13 1.841949 1_554
Al0 O2 2.011512 1_545
Al0 O0 2.011512 1_555
Al0 O8 2.121285 1_455
Al0 O8 2.121285 1_555
Fe0 O9 2.121285 1_555
Fe0 O9 2.121285 1_455
Fe0 O1 2.227110 1_555
Fe0 O3 2.227110 1_545
Fe0 O12 2.432329 1_555
Fe0 O13 2.432329 1_555
