# generated using pymatgen
data_NaCeMg6
_symmetry_space_group_name_H-M   'P 1'
_cell_length_a   6.75105113
_cell_length_b   6.75105113
_cell_length_c   5.28039300
_cell_angle_alpha   90.00000000
_cell_angle_beta   90.00000000
_cell_angle_gamma   120.20172729
_symmetry_Int_Tables_number   1
_chemical_formula_structural   NaCeMg6
_chemical_formula_sum   'Na1 Ce1 Mg6'
_cell_volume   207.99518031
_cell_formula_units_Z   1
loop_
 _symmetry_equiv_pos_site_id
 _symmetry_equiv_pos_as_xyz
  1  'x, y, z'
loop_
 _atom_site_type_symbol
 _atom_site_label
 _atom_site_symmetry_multiplicity
 _atom_site_fract_x
 _atom_site_fract_y
 _atom_site_fract_z
 _atom_site_occupancy
  Na  Na0  1  0.33709600  0.66290400  0.50000000  1
  Ce  Ce0  1  0.16362800  0.83637200  0.00000000  1
  Mg  Mg0  1  0.16934000  0.33200200  0.00000000  1
  Mg  Mg1  1  0.66799800  0.83066000  0.00000000  1
  Mg  Mg2  1  0.66430400  0.33569600  0.00000000  1
  Mg  Mg3  1  0.33396100  0.16944300  0.50000000  1
  Mg  Mg4  1  0.83055700  0.66603900  0.50000000  1
  Mg  Mg5  1  0.83311600  0.16688400  0.50000000  1
loop_
_geom_bond_atom_site_label_1
_geom_bond_atom_site_label_2
_geom_bond_distance
_geom_bond_site_symmetry_2
Ce0 Mg3 3.278357 1_564
Ce0 Mg3 3.278357 1_565
Ce0 Mg4 3.278357 1_455
Ce0 Mg4 3.278357 1_454
Ce0 Mg0 3.326792 1_565
Ce0 Mg1 3.326792 1_455
Ce0 Na0 3.330669 1_555
Ce0 Na0 3.330669 1_554
Ce0 Mg2 3.365237 1_565
Ce0 Mg2 3.365237 1_455
Ce0 Mg1 3.424588 1_555
Ce0 Mg0 3.424588 1_555
Mg0 Mg3 3.261479 1_554
Mg0 Mg3 3.261479 1_555
Mg0 Na0 3.270829 1_555
Mg0 Na0 3.270829 1_554
Mg0 Mg5 3.289354 1_455
Mg0 Mg5 3.289354 1_454
Mg0 Mg2 3.329052 1_555
Mg0 Mg1 3.356196 1_555
Mg0 Mg1 3.374260 1_445
Mg0 Mg2 3.422137 1_455
Mg1 Mg4 3.261479 1_555
Mg1 Mg4 3.261479 1_554
Mg1 Na0 3.270829 1_554
Mg1 Na0 3.270829 1_555
Mg1 Mg5 3.289354 1_565
Mg1 Mg5 3.289354 1_564
Mg1 Mg2 3.329052 1_555
Mg1 Mg2 3.422137 1_565
Mg2 Mg4 3.268893 1_554
Mg2 Mg4 3.268893 1_555
Mg2 Mg3 3.268893 1_555
Mg2 Mg3 3.268893 1_554
Mg2 Mg5 3.297729 1_555
Mg2 Mg5 3.297729 1_554
Mg3 Na0 3.320784 1_555
Mg3 Mg4 3.342318 1_555
Mg3 Mg5 3.372573 1_455
Mg3 Mg5 3.378545 1_555
Mg3 Mg4 3.388138 1_445
Mg3 Na0 3.430366 1_545
Mg4 Na0 3.320784 1_555
Mg4 Mg5 3.372573 1_565
Mg4 Mg5 3.378545 1_555
Mg4 Na0 3.430366 1_655
Mg5 Na0 3.365550 1_655
Mg5 Na0 3.365550 1_545
