# generated using pymatgen
data_Mn12Ge4N3
_symmetry_space_group_name_H-M   'P 1'
_cell_length_a   5.50755018
_cell_length_b   5.50755018
_cell_length_c   8.09743590
_cell_angle_alpha   90.00000000
_cell_angle_beta   90.00000000
_cell_angle_gamma   90.00000000
_symmetry_Int_Tables_number   1
_chemical_formula_structural   Mn12Ge4N3
_chemical_formula_sum   'Mn12 Ge4 N3'
_cell_volume   245.62040568
_cell_formula_units_Z   1
loop_
 _symmetry_equiv_pos_site_id
 _symmetry_equiv_pos_as_xyz
  1  'x, y, z'
loop_
 _atom_site_type_symbol
 _atom_site_label
 _atom_site_symmetry_multiplicity
 _atom_site_fract_x
 _atom_site_fract_y
 _atom_site_fract_z
 _atom_site_occupancy
  Mn  Mn0  1  0.30980592  0.19248733  0.50000000  1
  Mn  Mn1  1  0.72799596  0.75670696  -0.00000000  1
  Mn  Mn2  1  0.69019408  0.80751267  0.50000000  1
  Mn  Mn3  1  0.27200404  0.24329304  -0.00000000  1
  Mn  Mn4  1  0.19248733  0.69019408  0.50000000  1
  Mn  Mn5  1  0.75670696  0.27200404  -0.00000000  1
  Mn  Mn6  1  0.80751267  0.30980592  0.50000000  1
  Mn  Mn7  1  0.24329304  0.72799596  -0.00000000  1
  Mn  Mn8  1  0.50000000  0.50000000  0.24331180  1
  Mn  Mn9  1  0.00000000  0.00000000  0.75238277  1
  Mn  Mn10  1  0.00000000  0.00000000  0.24761723  1
  Mn  Mn11  1  0.50000000  0.50000000  0.75668820  1
  Ge  Ge0  1  0.00000000  0.50000000  0.23197758  1
  Ge  Ge1  1  0.50000000  0.00000000  0.76802242  1
  Ge  Ge2  1  0.50000000  0.00000000  0.23197758  1
  Ge  Ge3  1  0.00000000  0.50000000  0.76802242  1
  N  N0  1  0.00000000  0.00000000  0.50000000  1
  N  N1  1  0.00000000  0.00000000  -0.00000000  1
  N  N2  1  0.50000000  0.50000000  0.50000000  1
loop_
_geom_bond_atom_site_label_1
_geom_bond_atom_site_label_2
_geom_bond_distance
_geom_bond_site_symmetry_2
Mn0 N2 1.991403 1_555
Mn0 N0 2.008792 1_555
Mn1 N1 2.009899 1_665
Mn2 N2 1.991403 1_555
Mn2 N0 2.008792 1_665
Mn3 N1 2.009899 1_555
Mn4 N2 1.991403 1_555
Mn4 N0 2.008792 1_565
Mn5 N1 2.009899 1_655
Mn6 N2 1.991403 1_555
Mn6 N0 2.008792 1_655
Mn7 N1 2.009899 1_565
Mn8 N2 2.078516 1_555
Mn9 N1 2.005065 1_556
Mn9 N0 2.043653 1_555
Mn10 N1 2.005065 1_555
Mn10 N0 2.043653 1_555
Mn11 N2 2.078516 1_555
Ge0 Mn5 2.626922 1_455
Ge0 Mn7 2.626922 1_555
Ge0 Mn6 2.632741 1_455
Ge0 Mn4 2.632741 1_555
Ge0 Mn8 2.755304 1_555
Ge0 Mn8 2.755304 1_455
Ge0 Mn10 2.756686 1_555
Ge0 Mn10 2.756686 1_565
Ge0 Mn3 2.787761 1_555
Ge0 Mn1 2.787761 1_455
Ge1 Mn1 2.626922 1_546
Ge1 Mn3 2.626922 1_556
Ge1 Mn0 2.632741 1_555
Ge1 Mn2 2.632741 1_545
Ge1 Mn11 2.755304 1_545
Ge1 Mn11 2.755304 1_555
Ge1 Mn9 2.756686 1_655
Ge1 Mn9 2.756686 1_555
Ge1 Mn7 2.787761 1_546
Ge1 Mn5 2.787761 1_556
Ge2 Mn1 2.626922 1_545
Ge2 Mn3 2.626922 1_555
Ge2 Mn0 2.632741 1_555
Ge2 Mn2 2.632741 1_545
Ge2 Mn8 2.755304 1_555
Ge2 Mn8 2.755304 1_545
Ge2 Mn10 2.756686 1_555
Ge2 Mn10 2.756686 1_655
Ge2 Mn5 2.787761 1_555
Ge2 Mn7 2.787761 1_545
Ge3 Mn5 2.626922 1_456
Ge3 Mn7 2.626922 1_556
Ge3 Mn6 2.632741 1_455
Ge3 Mn4 2.632741 1_555
Ge3 Mn11 2.755304 1_455
Ge3 Mn11 2.755304 1_555
Ge3 Mn9 2.756686 1_565
Ge3 Mn9 2.756686 1_555
Ge3 Mn1 2.787761 1_456
Ge3 Mn3 2.787761 1_556
