# generated using pymatgen
data_MgCrH22O15
_symmetry_space_group_name_H-M   'P 1'
_cell_length_a   6.83943300
_cell_length_b   7.04309675
_cell_length_c   17.57961073
_cell_angle_alpha   92.41468630
_cell_angle_beta   89.32621942
_cell_angle_gamma   116.96207961
_symmetry_Int_Tables_number   1
_chemical_formula_structural   MgCrH22O15
_chemical_formula_sum   'Mg2 Cr2 H44 O30'
_cell_volume   754.08389055
_cell_formula_units_Z   2
loop_
 _symmetry_equiv_pos_site_id
 _symmetry_equiv_pos_as_xyz
  1  'x, y, z'
loop_
 _atom_site_type_symbol
 _atom_site_label
 _atom_site_symmetry_multiplicity
 _atom_site_fract_x
 _atom_site_fract_y
 _atom_site_fract_z
 _atom_site_occupancy
  Mg  Mg0  1  0.00000000  0.00000000  0.00000000  1
  Mg  Mg1  1  0.00000000  0.00000000  0.50000000  1
  Cr  Cr0  1  0.40817200  0.67919200  0.20244600  1
  Cr  Cr1  1  0.59182800  0.32080800  0.79755400  1
  H  H0  1  0.55711700  0.76384700  0.04771000  1
  H  H1  1  0.44288300  0.23615300  0.95229000  1
  H  H2  1  0.56882200  0.81387400  0.96041800  1
  H  H3  1  0.43117800  0.18612600  0.03958200  1
  H  H4  1  0.10696200  0.39936500  0.06786400  1
  H  H5  1  0.89303800  0.60063500  0.93213600  1
  H  H6  1  0.84903600  0.26095400  0.07441000  1
  H  H7  1  0.15096400  0.73904600  0.92559000  1
  H  H8  1  0.04237000  0.96455200  0.15537700  1
  H  H9  1  0.95763000  0.03544800  0.84462300  1
  H  H10  1  0.12340200  0.81094200  0.10971800  1
  H  H11  1  0.87659800  0.18905800  0.89028200  1
  H  H12  1  0.29989100  0.11895300  0.38492500  1
  H  H13  1  0.70010900  0.88104700  0.61507500  1
  H  H14  1  0.07746700  0.08060900  0.34438200  1
  H  H15  1  0.92253300  0.91939100  0.65561800  1
  H  H16  1  0.77257000  0.24034200  0.52382300  1
  H  H17  1  0.22743000  0.75965800  0.47617700  1
  H  H18  1  0.71468900  0.13715200  0.44008900  1
  H  H19  1  0.28531100  0.86284800  0.55991100  1
  H  H20  1  0.79969600  0.66724700  0.40031200  1
  H  H21  1  0.20030400  0.33275300  0.59968800  1
  H  H22  1  0.60132600  0.68591900  0.44081600  1
  H  H23  1  0.39867400  0.31408100  0.55918400  1
  H  H24  1  0.28040400  0.57572900  0.36391600  1
  H  H25  1  0.71959600  0.42427100  0.63608400  1
  H  H26  1  0.24136700  0.44734700  0.43811100  1
  H  H27  1  0.75863300  0.55265300  0.56188900  1
  H  H28  1  0.56801800  0.13056400  0.15698900  1
  H  H29  1  0.43198200  0.86943600  0.84301100  1
  H  H30  1  0.60345800  0.36536900  0.14534500  1
  H  H31  1  0.39654200  0.63463100  0.85465500  1
  H  H32  1  0.54271300  0.05588100  0.31753000  1
  H  H33  1  0.45728700  0.94411900  0.68247000  1
  H  H34  1  0.65695100  0.29718600  0.34436500  1
  H  H35  1  0.34304900  0.70281400  0.65563500  1
  H  H36  1  0.75407600  0.58096100  0.27068300  1
  H  H37  1  0.24592400  0.41903900  0.72931700  1
  H  H38  1  0.97282300  0.56785100  0.29368600  1
  H  H39  1  0.02717700  0.43214900  0.70631400  1
  H  H40  1  0.06382300  0.24512500  0.24497200  1
  H  H41  1  0.93617700  0.75487500  0.75502800  1
  H  H42  1  0.83675300  0.03674900  0.24126500  1
  H  H43  1  0.16324700  0.96325100  0.75873500  1
  O  O0  1  0.65978400  0.82608900  0.00581400  1
  O  O1  1  0.34021600  0.17391100  0.99418600  1
  O  O2  1  0.98300900  0.26294400  0.05114900  1
  O  O3  1  0.01699100  0.73705600  0.94885100  1
  O  O4  1  0.04715900  0.89970000  0.10487400  1
  O  O5  1  0.95284100  0.10030000  0.89512600  1
  O  O6  1  0.14949300  0.10286900  0.39505600  1
  O  O7  1  0.85050700  0.89713100  0.60494400  1
  O  O8  1  0.80609500  0.15173400  0.48563400  1
  O  O9  1  0.19390500  0.84826600  0.51436600  1
  O  O10  1  0.75774800  0.72010600  0.44809100  1
  O  O11  1  0.24225200  0.27989400  0.55190900  1
  O  O12  1  0.30068200  0.66119200  0.11684500  1
  O  O13  1  0.69931800  0.33880800  0.88315500  1
  O  O14  1  0.20911600  0.54624800  0.26488800  1
  O  O15  1  0.79088400  0.45375200  0.73511200  1
  O  O16  1  0.54420900  0.93862900  0.23019700  1
  O  O17  1  0.45579100  0.06137100  0.76980300  1
  O  O18  1  0.58320600  0.57654800  0.19852500  1
  O  O19  1  0.41679400  0.42345200  0.80147500  1
  O  O20  1  0.31349400  0.59317400  0.41952500  1
  O  O21  1  0.68650600  0.40682600  0.58047500  1
  O  O22  1  0.60691800  0.24015600  0.11855000  1
  O  O23  1  0.39308200  0.75984400  0.88145000  1
  O  O24  1  0.56135800  0.15268600  0.36299500  1
  O  O25  1  0.43864200  0.84731400  0.63700500  1
  O  O26  1  0.83059400  0.55402700  0.31371700  1
  O  O27  1  0.16940600  0.44597300  0.68628300  1
  O  O28  1  0.99732800  0.08816900  0.24709500  1
  O  O29  1  0.00267200  0.91183100  0.75290500  1
loop_
_geom_bond_atom_site_label_1
_geom_bond_atom_site_label_2
_geom_bond_distance
_geom_bond_site_symmetry_2
Mg0 O3 2.074630 1_544
Mg0 O2 2.074630 1_455
Mg0 O4 2.081450 1_545
Mg0 O5 2.081450 1_454
Mg0 O0 2.084610 1_445
Mg0 O1 2.084610 1_554
Mg1 O8 2.068930 1_455
Mg1 O9 2.068930 1_545
Mg1 O6 2.090553 1_555
Mg1 O7 2.090553 1_445
Mg1 O11 2.094328 1_555
Mg1 O10 2.094328 1_445
Cr0 O18 1.655040 1_555
Cr0 O12 1.657256 1_555
Cr0 O14 1.682464 1_555
Cr0 O16 1.684159 1_555
Cr1 O19 1.655040 1_555
Cr1 O13 1.657256 1_555
Cr1 O15 1.682464 1_555
Cr1 O17 1.684159 1_555
H0 O0 0.981632 1_555
H1 O1 0.981632 1_555
H2 O0 0.994322 1_556
H3 O1 0.994322 1_554
H4 O2 0.985732 1_455
H5 O3 0.985732 1_655
H6 O2 0.993499 1_555
H7 O3 0.993499 1_555
H8 O4 0.988253 1_555
H9 O5 0.988253 1_555
H10 O4 0.985439 1_555
H11 O5 0.985439 1_555
H12 O6 0.997182 1_555
H13 O7 0.997182 1_555
H14 O6 0.994659 1_555
H15 O7 0.994659 1_555
H16 O8 0.991759 1_555
H17 O9 0.991759 1_555
H18 O8 0.994516 1_555
H19 O9 0.994516 1_555
H20 O10 0.995613 1_555
H21 O11 0.995613 1_555
H22 O10 0.992934 1_555
H23 O11 0.992934 1_555
H24 O20 0.995919 1_555
H25 O21 0.995919 1_555
H26 O20 0.984902 1_555
H27 O21 0.984902 1_555
H28 O22 0.988279 1_555
H29 O23 0.988279 1_555
H30 O22 0.991881 1_555
H31 O23 0.991881 1_555
H32 O24 0.998785 1_555
H33 O25 0.998785 1_555
H34 O24 0.995068 1_555
H35 O25 0.995068 1_555
H36 O26 0.996806 1_555
H37 O27 0.996806 1_555
H38 O26 0.994334 1_555
H39 O27 0.994334 1_555
H40 O28 0.988657 1_455
H41 O29 0.988657 1_655
H42 O28 0.993302 1_555
H43 O29 0.993302 1_555
