# generated using pymatgen
data_NdSiIr
_symmetry_space_group_name_H-M   'P 1'
_cell_length_a   6.33666694
_cell_length_b   6.33666694
_cell_length_c   6.33666694
_cell_angle_alpha   90.00000000
_cell_angle_beta   90.00000000
_cell_angle_gamma   90.00000000
_symmetry_Int_Tables_number   1
_chemical_formula_structural   NdSiIr
_chemical_formula_sum   'Nd4 Si4 Ir4'
_cell_volume   254.43839222
_cell_formula_units_Z   4
loop_
 _symmetry_equiv_pos_site_id
 _symmetry_equiv_pos_as_xyz
  1  'x, y, z'
loop_
 _atom_site_type_symbol
 _atom_site_label
 _atom_site_symmetry_multiplicity
 _atom_site_fract_x
 _atom_site_fract_y
 _atom_site_fract_z
 _atom_site_occupancy
  Nd  Nd0  1  0.37610599  0.87610599  0.62389401  1
  Nd  Nd1  1  0.87610599  0.62389401  0.37610599  1
  Nd  Nd2  1  0.62389401  0.37610599  0.87610599  1
  Nd  Nd3  1  0.12389401  0.12389401  0.12389401  1
  Si  Si0  1  0.66250219  0.16250219  0.33749781  1
  Si  Si1  1  0.16250219  0.33749781  0.66250219  1
  Si  Si2  1  0.33749781  0.66250219  0.16250219  1
  Si  Si3  1  0.83749781  0.83749781  0.83749781  1
  Ir  Ir0  1  0.06820529  0.56820529  0.93179471  1
  Ir  Ir1  1  0.56820529  0.93179471  0.06820529  1
  Ir  Ir2  1  0.93179471  0.06820529  0.56820529  1
  Ir  Ir3  1  0.43179471  0.43179471  0.43179471  1
loop_
_geom_bond_atom_site_label_1
_geom_bond_atom_site_label_2
_geom_bond_distance
_geom_bond_site_symmetry_2
Nd0 Si0 3.143321 1_565
Nd0 Si1 3.231076 1_565
Nd0 Si3 3.231076 1_555
Nd0 Si2 3.231076 1_555
Nd1 Si1 3.143321 1_655
Nd1 Si2 3.231076 1_655
Nd1 Si3 3.231076 1_555
Nd1 Si0 3.231076 1_555
Nd2 Si2 3.143321 1_556
Nd2 Si0 3.231076 1_556
Nd2 Si3 3.231076 1_555
Nd2 Si1 3.231076 1_555
Nd3 Si3 3.143321 1_444
Nd3 Si0 3.231076 1_455
Nd3 Si1 3.231076 1_554
Nd3 Si2 3.231076 1_545
Ir0 Si1 2.325102 1_555
Ir0 Si3 2.325102 1_455
Ir0 Si2 2.325102 1_556
Ir0 Nd3 3.087563 1_556
Ir0 Nd2 3.087563 1_455
Ir0 Nd1 3.087563 1_456
Ir0 Nd0 3.379342 1_555
Ir1 Si3 2.325102 1_554
Ir1 Si2 2.325102 1_555
Ir1 Si0 2.325102 1_565
Ir1 Nd3 3.087563 1_565
Ir1 Nd0 3.087563 1_554
Ir1 Nd2 3.087563 1_564
Ir1 Nd1 3.379342 1_555
Ir2 Si0 2.325102 1_555
Ir2 Si3 2.325102 1_545
Ir2 Si1 2.325102 1_655
Ir2 Nd3 3.087563 1_655
Ir2 Nd1 3.087563 1_545
Ir2 Nd0 3.087563 1_645
Ir2 Nd2 3.379342 1_555
Ir3 Si0 2.325102 1_555
Ir3 Si1 2.325102 1_555
Ir3 Si2 2.325102 1_555
Ir3 Nd0 3.087563 1_555
Ir3 Nd1 3.087563 1_555
Ir3 Nd2 3.087563 1_555
Ir3 Nd3 3.379342 1_555
