# generated using pymatgen
data_RbLa(SeO4)2
_symmetry_space_group_name_H-M   'P 1'
_cell_length_a   7.62378700
_cell_length_b   9.10360600
_cell_length_c   11.36206478
_cell_angle_alpha   88.42587643
_cell_angle_beta   90.00000000
_cell_angle_gamma   90.00000000
_symmetry_Int_Tables_number   1
_chemical_formula_structural   RbLa(SeO4)2
_chemical_formula_sum   'Rb4 La4 Se8 O32'
_cell_volume   788.27462195
_cell_formula_units_Z   4
loop_
 _symmetry_equiv_pos_site_id
 _symmetry_equiv_pos_as_xyz
  1  'x, y, z'
loop_
 _atom_site_type_symbol
 _atom_site_label
 _atom_site_symmetry_multiplicity
 _atom_site_fract_x
 _atom_site_fract_y
 _atom_site_fract_z
 _atom_site_occupancy
  Rb  Rb0  1  0.34885100  0.43261900  0.83794200  1
  Rb  Rb1  1  0.65114900  0.56738100  0.16205800  1
  Rb  Rb2  1  0.84885100  0.56738100  0.66205800  1
  Rb  Rb3  1  0.15114900  0.43261900  0.33794100  1
  La  La0  1  0.16373700  0.94306700  0.84800900  1
  La  La1  1  0.83626300  0.05693300  0.15199100  1
  La  La2  1  0.66373700  0.05693300  0.65199100  1
  La  La3  1  0.33626300  0.94306700  0.34800900  1
  Se  Se0  1  0.16415300  0.18855500  0.60660700  1
  Se  Se1  1  0.83584700  0.81144500  0.39339300  1
  Se  Se2  1  0.66415300  0.81144500  0.89339300  1
  Se  Se3  1  0.33584700  0.18855500  0.10660700  1
  Se  Se4  1  0.33868000  0.72214600  0.58881000  1
  Se  Se5  1  0.66132000  0.27785400  0.41119000  1
  Se  Se6  1  0.83868000  0.27785400  0.91119000  1
  Se  Se7  1  0.16132000  0.72214600  0.08881000  1
  O  O0  1  0.81703800  0.86971600  0.53089900  1
  O  O1  1  0.18296200  0.13028400  0.46910100  1
  O  O2  1  0.31703800  0.13028400  0.96910100  1
  O  O3  1  0.68296200  0.86971600  0.03089900  1
  O  O4  1  0.50283500  0.90818700  0.82136500  1
  O  O5  1  0.49716500  0.09181300  0.17863500  1
  O  O6  1  0.00283500  0.09181300  0.67863500  1
  O  O7  1  0.99716500  0.90818700  0.32136500  1
  O  O8  1  0.13627900  0.36716900  0.60626000  1
  O  O9  1  0.86372100  0.63283100  0.39374000  1
  O  O10  1  0.63627900  0.63283100  0.89374000  1
  O  O11  1  0.36372100  0.36716900  0.10626000  1
  O  O12  1  0.25335100  0.70201100  0.95565700  1
  O  O13  1  0.74664900  0.29798900  0.04434300  1
  O  O14  1  0.75335100  0.29798900  0.54434300  1
  O  O15  1  0.24664900  0.70201100  0.45565700  1
  O  O16  1  0.43949100  0.88715900  0.56043000  1
  O  O17  1  0.56050900  0.11284100  0.43957000  1
  O  O18  1  0.93949100  0.11284100  0.93957000  1
  O  O19  1  0.06050900  0.88715900  0.06043000  1
  O  O20  1  0.47653600  0.59201900  0.62784300  1
  O  O21  1  0.52346400  0.40798100  0.37215700  1
  O  O22  1  0.97653600  0.40798100  0.87215700  1
  O  O23  1  0.02346400  0.59201900  0.12784300  1
  O  O24  1  0.83809700  0.86011000  0.80626800  1
  O  O25  1  0.16190300  0.13989000  0.19373200  1
  O  O26  1  0.33809700  0.13989000  0.69373200  1
  O  O27  1  0.66190300  0.86011000  0.30626800  1
  O  O28  1  0.18523300  0.74626200  0.69302500  1
  O  O29  1  0.81476700  0.25373800  0.30697500  1
  O  O30  1  0.68523300  0.25373800  0.80697500  1
  O  O31  1  0.31476700  0.74626200  0.19302500  1
loop_
_geom_bond_atom_site_label_1
_geom_bond_atom_site_label_2
_geom_bond_distance
_geom_bond_site_symmetry_2
La0 O2 2.508497 1_565
La0 O18 2.545996 1_465
La0 O28 2.551676 1_555
La0 O12 2.575076 1_555
La0 O19 2.576060 1_556
La0 O4 2.623179 1_555
La0 O6 2.626537 1_565
La0 O24 2.641646 1_455
La0 O26 2.806716 1_565
La1 O3 2.508497 1_545
La1 O19 2.545996 1_645
La1 O29 2.551676 1_555
La1 O13 2.575076 1_555
La1 O18 2.576060 1_554
La1 O5 2.623179 1_555
La1 O7 2.626537 1_545
La1 O25 2.641646 1_655
La1 O27 2.806716 1_545
La2 O0 2.508497 1_545
La2 O16 2.545996 1_545
La2 O30 2.551676 1_555
La2 O14 2.575076 1_555
La2 O17 2.576060 1_555
La2 O6 2.623179 1_655
La2 O4 2.626537 1_545
La2 O26 2.641646 1_555
La2 O24 2.806716 1_545
La3 O1 2.508497 1_565
La3 O17 2.545996 1_565
La3 O31 2.551676 1_555
La3 O15 2.575076 1_555
La3 O16 2.576060 1_555
La3 O7 2.623179 1_455
La3 O5 2.626537 1_565
La3 O27 2.641646 1_555
La3 O25 2.806716 1_565
O0 Se1 1.669864 1_555
O0 Rb2 3.103168 1_555
O1 Se0 1.669864 1_555
O1 Rb3 3.103173 1_555
O2 Se3 1.669864 1_556
O2 Rb0 3.103168 1_555
O3 Se2 1.669864 1_554
O3 Rb1 3.103168 1_555
O4 Se2 1.708313 1_555
O5 Se3 1.708313 1_555
O6 Se0 1.708313 1_555
O7 Se1 1.708313 1_555
O8 Se0 1.639756 1_555
O8 Rb2 2.930738 1_455
O8 Rb3 3.092310 1_555
O8 Rb0 3.161803 1_555
O9 Se1 1.639756 1_555
O9 Rb3 2.930741 1_655
O9 Rb2 3.092299 1_555
O9 Rb1 3.161803 1_555
O10 Se2 1.639756 1_555
O10 Rb0 2.930738 1_555
O10 Rb1 3.092299 1_556
O10 Rb2 3.161803 1_555
O11 Se3 1.639756 1_555
O11 Rb1 2.930738 1_555
O11 Rb0 3.092299 1_554
O11 Rb3 3.161793 1_555
O12 Se7 1.682248 1_556
O12 Rb0 2.917811 1_555
O13 Se6 1.682248 1_554
O13 Rb1 2.917811 1_555
O14 Se5 1.682248 1_555
O14 Rb2 2.917811 1_555
O15 Se4 1.682248 1_555
O15 Rb3 2.917816 1_555
O16 Se4 1.710174 1_555
O17 Se5 1.710174 1_555
O18 Se6 1.710174 1_555
O19 Se7 1.710174 1_555
O20 Se4 1.635766 1_555
O20 Rb2 2.872881 1_555
O20 Rb0 2.926010 1_555
O21 Se5 1.635766 1_555
O21 Rb3 2.872883 1_555
O21 Rb1 2.926010 1_555
O22 Se6 1.635766 1_555
O22 Rb0 2.872881 1_655
O22 Rb2 2.926010 1_555
O23 Se7 1.635766 1_555
O23 Rb1 2.872881 1_455
O23 Rb3 2.926001 1_555
O24 Se2 1.706075 1_555
O24 Rb2 3.167493 1_555
O25 Se3 1.706075 1_555
O25 Rb3 3.167487 1_555
O26 Se0 1.706075 1_555
O26 Rb0 3.167493 1_555
O27 Se1 1.706075 1_555
O27 Rb1 3.167493 1_555
O28 Se4 1.683185 1_555
O28 Rb2 3.063307 1_455
O29 Se5 1.683185 1_555
O29 Rb3 3.063306 1_655
O30 Se6 1.683185 1_555
O30 Rb0 3.063307 1_555
O31 Se7 1.683185 1_555
O31 Rb1 3.063307 1_555
