# generated using pymatgen
data_Mg2Si3
_symmetry_space_group_name_H-M   'P 1'
_cell_length_a   6.07136022
_cell_length_b   6.07136022
_cell_length_c   15.70600415
_cell_angle_alpha   82.26827983
_cell_angle_beta   82.26827983
_cell_angle_gamma   40.13428977
_symmetry_Int_Tables_number   1
_chemical_formula_structural   Mg2Si3
_chemical_formula_sum   'Mg8 Si12'
_cell_volume   369.32978474
_cell_formula_units_Z   4
loop_
 _symmetry_equiv_pos_site_id
 _symmetry_equiv_pos_as_xyz
  1  'x, y, z'
loop_
 _atom_site_type_symbol
 _atom_site_label
 _atom_site_symmetry_multiplicity
 _atom_site_fract_x
 _atom_site_fract_y
 _atom_site_fract_z
 _atom_site_occupancy
  Mg  Mg0  1  0.13820400  0.13820400  0.50767200  1
  Mg  Mg1  1  0.36242100  0.36242100  0.99977200  1
  Mg  Mg2  1  0.89584000  0.89584000  0.68918600  1
  Mg  Mg3  1  0.52048300  0.52048300  0.80150000  1
  Mg  Mg4  1  0.63757900  0.63757900  0.00022800  1
  Mg  Mg5  1  0.86179600  0.86179600  0.49232800  1
  Mg  Mg6  1  0.47951700  0.47951700  0.19850000  1
  Mg  Mg7  1  0.10416000  0.10416000  0.31081400  1
  Si  Si0  1  0.14864300  0.14864300  0.70821700  1
  Si  Si1  1  0.83428200  0.83428200  0.86804600  1
  Si  Si2  1  0.67810300  0.67810300  0.62459800  1
  Si  Si3  1  0.23218500  0.23218500  0.83868800  1
  Si  Si4  1  0.98038100  0.98038100  0.07824300  1
  Si  Si5  1  0.52050300  0.52050300  0.42028000  1
  Si  Si6  1  0.76781500  0.76781500  0.16131200  1
  Si  Si7  1  0.85135700  0.85135700  0.29178300  1
  Si  Si8  1  0.16571800  0.16571800  0.13195400  1
  Si  Si9  1  0.32189700  0.32189700  0.37540200  1
  Si  Si10  1  0.47949700  0.47949700  0.57972000  1
  Si  Si11  1  0.01961900  0.01961900  0.92175700  1
loop_
_geom_bond_atom_site_label_1
_geom_bond_atom_site_label_2
_geom_bond_distance
_geom_bond_site_symmetry_2
Mg0 Si9 2.731015 1_555
Mg0 Si2 2.856356 1_455
Mg0 Si2 2.856356 1_545
Mg0 Si10 2.882725 1_455
Mg0 Si10 2.882725 1_545
Mg0 Si5 2.924677 1_455
Mg0 Si5 2.924677 1_545
Mg0 Si0 3.169005 1_555
Mg1 Si8 2.830032 1_556
Mg1 Si4 2.853741 1_546
Mg1 Si4 2.853741 1_456
Mg1 Si11 2.902829 1_655
Mg1 Si11 2.902829 1_565
Mg1 Si1 2.985512 1_455
Mg1 Si1 2.985512 1_545
Mg1 Si3 3.111884 1_555
Mg2 Si10 2.781395 1_655
Mg2 Si10 2.781395 1_565
Mg2 Si1 2.796323 1_555
Mg2 Si2 2.813899 1_555
Mg2 Si0 2.941084 1_665
Mg3 Si11 2.811039 1_655
Mg3 Si11 2.811039 1_565
Mg3 Si0 2.830104 1_655
Mg3 Si0 2.830104 1_565
Mg3 Si1 3.050659 1_545
Mg3 Si1 3.050659 1_455
Mg3 Si2 3.085560 1_555
Mg4 Si1 2.830032 1_554
Mg4 Si11 2.853741 1_654
Mg4 Si11 2.853741 1_564
Mg4 Si4 2.902829 1_545
Mg4 Si4 2.902829 1_455
Mg4 Si8 2.985512 1_565
Mg4 Si8 2.985512 1_655
Mg4 Si6 3.111884 1_555
Mg5 Si2 2.731015 1_555
Mg5 Si9 2.856356 1_565
Mg5 Si9 2.856356 1_655
Mg5 Si5 2.882725 1_655
Mg5 Si5 2.882725 1_565
Mg5 Si10 2.924677 1_565
Mg5 Si10 2.924677 1_655
Mg5 Si7 3.169005 1_555
Mg6 Si4 2.811039 1_545
Mg6 Si4 2.811039 1_455
Mg6 Si7 2.830104 1_455
Mg6 Si7 2.830104 1_545
Mg6 Si8 3.050659 1_565
Mg6 Si8 3.050659 1_655
Mg6 Si9 3.085560 1_555
Mg7 Si5 2.781395 1_545
Mg7 Si5 2.781395 1_455
Mg7 Si8 2.796323 1_555
Mg7 Si9 2.813899 1_555
Mg7 Si7 2.941084 1_445
Si0 Si3 2.380413 1_555
Si0 Si2 2.459893 1_455
Si0 Si2 2.459893 1_545
Si1 Si11 2.385563 1_665
Si1 Si3 2.462151 1_565
Si1 Si3 2.462151 1_655
Si4 Si8 2.385563 1_665
Si4 Si6 2.583401 1_555
Si5 Si9 2.466855 1_555
Si6 Si7 2.380413 1_555
Si6 Si8 2.462151 1_655
Si6 Si8 2.462151 1_565
Si7 Si9 2.459893 1_565
Si7 Si9 2.459893 1_655
Si10 Si2 2.466855 1_555
Si10 Si5 2.480743 1_555
Si11 Si4 2.434303 1_446
Si11 Si3 2.583401 1_555
