# generated using pymatgen
data_Ba2Tl2O5
_symmetry_space_group_name_H-M   'P 1'
_cell_length_a   6.08954380
_cell_length_b   6.31373980
_cell_length_c   17.37301171
_cell_angle_alpha   90.00000000
_cell_angle_beta   90.00000000
_cell_angle_gamma   90.00000000
_symmetry_Int_Tables_number   1
_chemical_formula_structural   Ba2Tl2O5
_chemical_formula_sum   'Ba8 Tl8 O20'
_cell_volume   667.95399370
_cell_formula_units_Z   4
loop_
 _symmetry_equiv_pos_site_id
 _symmetry_equiv_pos_as_xyz
  1  'x, y, z'
loop_
 _atom_site_type_symbol
 _atom_site_label
 _atom_site_symmetry_multiplicity
 _atom_site_fract_x
 _atom_site_fract_y
 _atom_site_fract_z
 _atom_site_occupancy
  Ba  Ba0  1  0.49664999  0.98487879  0.11083447  1
  Ba  Ba1  1  0.99664999  0.51512121  0.38916553  1
  Ba  Ba2  1  0.00335001  0.48487879  0.88916553  1
  Ba  Ba3  1  0.50335001  0.01512121  0.61083447  1
  Ba  Ba4  1  0.50335001  0.01512121  0.88916553  1
  Ba  Ba5  1  0.00335001  0.48487879  0.61083447  1
  Ba  Ba6  1  0.99664999  0.51512121  0.11083447  1
  Ba  Ba7  1  0.49664999  0.98487879  0.38916553  1
  Tl  Tl0  1  -0.00000000  -0.00000000  -0.00000000  1
  Tl  Tl1  1  0.50000000  0.50000000  0.50000000  1
  Tl  Tl2  1  0.50000000  0.50000000  -0.00000000  1
  Tl  Tl3  1  -0.00000000  -0.00000000  0.50000000  1
  Tl  Tl4  1  0.97731473  0.05200806  0.25000000  1
  Tl  Tl5  1  0.47731473  0.44799194  0.25000000  1
  Tl  Tl6  1  0.52268527  0.55200806  0.75000000  1
  Tl  Tl7  1  0.02268527  0.94799194  0.75000000  1
  O  O0  1  0.38488277  0.87950596  0.75000000  1
  O  O1  1  0.88488277  0.62049404  0.75000000  1
  O  O2  1  0.11511723  0.37950596  0.25000000  1
  O  O3  1  0.61511723  0.12049404  0.25000000  1
  O  O4  1  0.03595855  0.93630293  0.36211064  1
  O  O5  1  0.53595855  0.56369707  0.13788936  1
  O  O6  1  0.46404145  0.43630293  0.63788936  1
  O  O7  1  0.96404145  0.06369707  0.86211064  1
  O  O8  1  0.96404145  0.06369707  0.63788936  1
  O  O9  1  0.46404145  0.43630293  0.86211064  1
  O  O10  1  0.53595855  0.56369707  0.36211064  1
  O  O11  1  0.03595855  0.93630293  0.13788936  1
  O  O12  1  0.24047826  0.76927409  0.51177694  1
  O  O13  1  0.74047826  0.73072591  0.98822306  1
  O  O14  1  0.25952174  0.26927409  0.48822306  1
  O  O15  1  0.75952174  0.23072591  0.01177694  1
  O  O16  1  0.24047826  0.76927409  0.98822306  1
  O  O17  1  0.74047826  0.73072591  0.51177694  1
  O  O18  1  0.25952174  0.26927409  0.01177694  1
  O  O19  1  0.75952174  0.23072591  0.48822306  1
loop_
_geom_bond_atom_site_label_1
_geom_bond_atom_site_label_2
_geom_bond_distance
_geom_bond_site_symmetry_2
Ba0 O3 2.664390 1_565
Ba0 O5 2.711040 1_555
Ba0 O15 2.816633 1_565
Ba0 O11 2.860989 1_555
Ba0 O18 2.875919 1_565
Ba0 O16 2.970525 1_554
Ba0 O13 3.052378 1_554
Ba0 O11 3.331753 1_655
Ba1 O2 2.664390 1_655
Ba1 O4 2.711040 1_655
Ba1 O14 2.816633 1_655
Ba1 O10 2.860989 1_555
Ba1 O19 2.875919 1_555
Ba1 O17 2.970525 1_555
Ba1 O12 3.052378 1_655
Ba1 O10 3.331753 1_655
Ba2 O1 2.664390 1_455
Ba2 O7 2.711040 1_455
Ba2 O13 2.816633 1_455
Ba2 O9 2.860989 1_555
Ba2 O16 2.875919 1_555
Ba2 O18 2.970525 1_556
Ba2 O15 3.052378 1_456
Ba2 O9 3.331753 1_455
Ba3 O0 2.664390 1_545
Ba3 O6 2.711040 1_555
Ba3 O12 2.816633 1_545
Ba3 O8 2.860989 1_555
Ba3 O17 2.875919 1_545
Ba3 O19 2.970525 1_555
Ba3 O14 3.052378 1_555
Ba3 O8 3.331753 1_455
Ba4 O0 2.664390 1_545
Ba4 O9 2.711040 1_555
Ba4 O16 2.816633 1_545
Ba4 O7 2.860989 1_555
Ba4 O13 2.875919 1_545
Ba4 O15 2.970525 1_556
Ba4 O18 3.052378 1_556
Ba4 O7 3.331753 1_455
Ba5 O1 2.664390 1_455
Ba5 O8 2.711040 1_455
Ba5 O17 2.816633 1_455
Ba5 O6 2.860989 1_555
Ba5 O12 2.875919 1_555
Ba5 O14 2.970525 1_555
Ba5 O19 3.052378 1_455
Ba5 O6 3.331753 1_455
Ba6 O2 2.664390 1_655
Ba6 O11 2.711040 1_655
Ba6 O18 2.816633 1_655
Ba6 O5 2.860989 1_555
Ba6 O15 2.875919 1_555
Ba6 O13 2.970525 1_554
Ba6 O16 3.052378 1_654
Ba6 O5 3.331753 1_655
Ba7 O3 2.664390 1_565
Ba7 O10 2.711040 1_555
Ba7 O19 2.816633 1_565
Ba7 O4 2.860989 1_555
Ba7 O14 2.875919 1_565
Ba7 O12 2.970525 1_555
Ba7 O17 3.052378 1_555
Ba7 O4 3.331753 1_655
O0 Tl6 2.231527 1_555
O0 Tl7 2.247603 1_555
O1 Tl7 2.231527 1_655
O1 Tl6 2.247603 1_555
O2 Tl4 2.231527 1_455
O2 Tl5 2.247603 1_555
O3 Tl5 2.231527 1_555
O3 Tl4 2.247603 1_555
O4 Tl4 2.110626 1_465
O4 Tl3 2.438927 1_565
O5 Tl5 2.110626 1_555
O5 Tl2 2.438927 1_555
O6 Tl6 2.110626 1_555
O6 Tl1 2.438927 1_555
O7 Tl7 2.110626 1_645
O7 Tl0 2.438927 1_656
O8 Tl7 2.110626 1_645
O8 Tl3 2.438927 1_655
O9 Tl6 2.110626 1_555
O9 Tl2 2.438927 1_556
O10 Tl5 2.110626 1_555
O10 Tl1 2.438927 1_555
O11 Tl4 2.110626 1_465
O11 Tl0 2.438927 1_565
O12 Tl3 2.075678 1_565
O12 Tl1 2.330206 1_555
O13 Tl2 2.075678 1_556
O13 Tl0 2.330206 1_666
O14 Tl1 2.075678 1_555
O14 Tl3 2.330206 1_555
O15 Tl0 2.075678 1_655
O15 Tl2 2.330206 1_555
O16 Tl0 2.075678 1_566
O16 Tl2 2.330206 1_556
O17 Tl1 2.075678 1_555
O17 Tl3 2.330206 1_665
O18 Tl2 2.075678 1_555
O18 Tl0 2.330206 1_555
O19 Tl3 2.075678 1_655
O19 Tl1 2.330206 1_555
