# generated using pymatgen
data_KMg14Nb
_symmetry_space_group_name_H-M   'P 1'
_cell_length_a   6.53139662
_cell_length_b   6.53139607
_cell_length_c   10.20643094
_cell_angle_alpha   90.00000000
_cell_angle_beta   90.00000000
_cell_angle_gamma   120.00000279
_symmetry_Int_Tables_number   1
_chemical_formula_structural   KMg14Nb
_chemical_formula_sum   'K1 Mg14 Nb1'
_cell_volume   377.06532686
_cell_formula_units_Z   1
loop_
 _symmetry_equiv_pos_site_id
 _symmetry_equiv_pos_as_xyz
  1  'x, y, z'
loop_
 _atom_site_type_symbol
 _atom_site_label
 _atom_site_symmetry_multiplicity
 _atom_site_fract_x
 _atom_site_fract_y
 _atom_site_fract_z
 _atom_site_occupancy
  K  K0  1  0.16666700  0.33333300  0.12500000  1
  Mg  Mg0  1  0.17342614  0.83671257  0.12500000  1
  Mg  Mg1  1  0.16587784  0.83293842  0.62500000  1
  Mg  Mg2  1  0.66328743  0.32657386  0.12500000  1
  Mg  Mg3  1  0.66706158  0.33412216  0.62500000  1
  Mg  Mg4  1  0.66328743  0.83671257  0.12500000  1
  Mg  Mg5  1  0.66706158  0.83293842  0.62500000  1
  Mg  Mg6  1  0.33328903  0.16671097  0.39035460  1
  Mg  Mg7  1  0.33328903  0.16671097  0.85964540  1
  Mg  Mg8  1  0.33328903  0.66657905  0.39035460  1
  Mg  Mg9  1  0.33328903  0.66657905  0.85964540  1
  Mg  Mg10  1  0.83342095  0.16671097  0.39035460  1
  Mg  Mg11  1  0.83342095  0.16671097  0.85964540  1
  Mg  Mg12  1  0.83333300  0.66666700  0.37206600  1
  Mg  Mg13  1  0.83333300  0.66666700  0.87793400  1
  Nb  Nb0  1  0.16666700  0.33333300  0.62500000  1
loop_
_geom_bond_atom_site_label_1
_geom_bond_atom_site_label_2
_geom_bond_distance
_geom_bond_site_symmetry_2
K0 Mg0 3.265922 1_555
K0 Mg4 3.265922 1_555
K0 Mg4 3.265922 1_445
K0 Mg0 3.265922 1_545
K0 Mg2 3.265922 1_455
K0 Mg2 3.265922 1_555
K0 Mg7 3.299703 1_554
K0 Mg6 3.299703 1_555
K0 Mg8 3.299709 1_555
K0 Mg9 3.299709 1_554
K0 Mg10 3.299709 1_455
K0 Mg11 3.299709 1_454
Mg0 Mg12 3.171648 1_455
Mg0 Mg13 3.171648 1_454
Mg0 Mg2 3.199478 1_565
Mg0 Mg4 3.199478 1_555
Mg0 Mg9 3.289415 1_554
Mg0 Mg8 3.289415 1_555
Mg0 Mg6 3.289421 1_565
Mg0 Mg7 3.289421 1_564
Mg0 Mg2 3.331918 1_455
Mg0 Mg4 3.331918 1_455
Mg1 Mg8 3.049554 1_555
Mg1 Mg9 3.049554 1_555
Mg1 Mg6 3.049561 1_565
Mg1 Mg7 3.049561 1_565
Mg1 Mg13 3.194143 1_455
Mg1 Mg12 3.194143 1_455
Mg1 Mg3 3.257967 1_455
Mg1 Mg5 3.257967 1_455
Mg1 Nb0 3.265701 1_565
Mg1 Nb0 3.265701 1_555
Mg1 Mg3 3.273430 1_565
Mg1 Mg5 3.273430 1_555
Mg2 Mg4 3.199478 1_545
Mg2 Mg6 3.289421 1_555
Mg2 Mg7 3.289421 1_554
Mg2 Mg4 3.331918 1_555
Mg3 Mg6 3.049561 1_555
Mg3 Mg7 3.049561 1_555
Mg3 Mg5 3.257967 1_555
Mg3 Nb0 3.265701 1_655
Mg3 Nb0 3.265701 1_555
Mg3 Mg5 3.273430 1_545
Mg4 Mg9 3.289421 1_554
Mg4 Mg8 3.289421 1_555
Mg5 Mg9 3.049561 1_555
Mg5 Mg8 3.049561 1_555
Mg5 Nb0 3.265701 1_665
Mg5 Nb0 3.265701 1_555
Mg6 Nb0 3.047709 1_555
Mg6 Mg8 3.264836 1_555
Mg6 Mg8 3.266560 1_545
Mg7 Nb0 3.047709 1_555
Mg7 Mg9 3.264836 1_555
Mg7 Mg9 3.266560 1_545
Mg8 Nb0 3.047716 1_555
Mg9 Nb0 3.047716 1_555
Mg10 Nb0 3.047716 1_655
Mg10 Mg3 3.049554 1_555
Mg10 Mg5 3.049561 1_545
Mg10 Mg8 3.264836 1_655
Mg10 Mg6 3.264837 1_655
Mg10 Mg8 3.266560 1_545
Mg10 Mg6 3.266560 1_555
Mg10 Mg12 3.271028 1_545
Mg10 Mg12 3.271028 1_555
Mg10 Mg2 3.289415 1_555
Mg10 Mg4 3.289421 1_545
Mg11 Nb0 3.047716 1_655
Mg11 Mg3 3.049554 1_555
Mg11 Mg5 3.049561 1_545
Mg11 Mg9 3.264836 1_655
Mg11 Mg7 3.264837 1_655
Mg11 Mg9 3.266560 1_545
Mg11 Mg7 3.266560 1_555
Mg11 Mg13 3.271028 1_545
Mg11 Mg13 3.271028 1_555
Mg11 Mg2 3.289415 1_556
Mg11 Mg4 3.289421 1_546
Mg12 Mg4 3.171642 1_555
Mg12 Mg2 3.171648 1_555
Mg12 Mg5 3.194136 1_555
Mg12 Mg3 3.194143 1_555
Mg12 Mg6 3.271028 1_665
Mg12 Mg6 3.271028 1_555
Mg12 Mg8 3.271029 1_555
Mg12 Mg8 3.271029 1_655
Mg13 Mg4 3.171642 1_556
Mg13 Mg2 3.171648 1_556
Mg13 Mg5 3.194136 1_555
Mg13 Mg3 3.194143 1_555
Mg13 Mg7 3.271028 1_665
Mg13 Mg7 3.271028 1_555
Mg13 Mg9 3.271029 1_555
Mg13 Mg9 3.271029 1_655
