# generated using pymatgen
data_NaWO4
_symmetry_space_group_name_H-M   'P 1'
_cell_length_a   6.21699400
_cell_length_b   7.10600317
_cell_length_c   8.82122489
_cell_angle_alpha   109.83264316
_cell_angle_beta   97.20383228
_cell_angle_gamma   101.76200009
_symmetry_Int_Tables_number   1
_chemical_formula_structural   NaWO4
_chemical_formula_sum   'Na4 W4 O16'
_cell_volume   350.79181835
_cell_formula_units_Z   4
loop_
 _symmetry_equiv_pos_site_id
 _symmetry_equiv_pos_as_xyz
  1  'x, y, z'
loop_
 _atom_site_type_symbol
 _atom_site_label
 _atom_site_symmetry_multiplicity
 _atom_site_fract_x
 _atom_site_fract_y
 _atom_site_fract_z
 _atom_site_occupancy
  Na  Na0  1  0.23442500  0.26807100  0.69726600  1
  Na  Na1  1  0.76557500  0.73192900  0.30273400  1
  Na  Na2  1  0.75245300  0.44337700  0.57835200  1
  Na  Na3  1  0.24754700  0.55662300  0.42164800  1
  W  W0  1  0.72072200  0.98960700  0.73316400  1
  W  W1  1  0.27927800  0.01039300  0.26683600  1
  W  W2  1  0.73833000  0.15545800  0.14523700  1
  W  W3  1  0.26167000  0.84454200  0.85476300  1
  O  O0  1  0.82795500  0.16463800  0.63793800  1
  O  O1  1  0.17204500  0.83536200  0.36206200  1
  O  O2  1  0.59011100  0.85570600  0.91312300  1
  O  O3  1  0.40988900  0.14429400  0.08687700  1
  O  O4  1  0.41599700  0.01704800  0.73437600  1
  O  O5  1  0.58400300  0.98295200  0.26562400  1
  O  O6  1  0.17059300  0.59551000  0.68990800  1
  O  O7  1  0.82940700  0.40449000  0.31009200  1
  O  O8  1  0.01299000  0.94985300  0.81481400  1
  O  O9  1  0.98701000  0.05014700  0.18518600  1
  O  O10  1  0.80692500  0.23005900  0.97113200  1
  O  O11  1  0.19307500  0.76994100  0.02886800  1
  O  O12  1  0.64406800  0.74043800  0.56273100  1
  O  O13  1  0.35593200  0.25956200  0.43726900  1
  O  O14  1  0.59930900  0.52506600  0.83166800  1
  O  O15  1  0.40069100  0.47493400  0.16833200  1
loop_
_geom_bond_atom_site_label_1
_geom_bond_atom_site_label_2
_geom_bond_distance
_geom_bond_site_symmetry_2
Na0 O4 2.384896 1_555
Na0 O0 2.418683 1_455
Na0 O6 2.459285 1_555
Na0 O14 2.460496 1_555
Na0 O13 2.488663 1_555
Na1 O5 2.384896 1_555
Na1 O1 2.418683 1_655
Na1 O7 2.459285 1_555
Na1 O15 2.460496 1_555
Na1 O12 2.488663 1_555
Na2 O0 2.333126 1_555
Na2 O12 2.383902 1_555
Na2 O7 2.408140 1_555
Na2 O14 2.472940 1_555
Na2 O13 2.479271 1_555
Na2 O6 2.526989 1_655
Na3 O1 2.333126 1_555
Na3 O13 2.383902 1_555
Na3 O6 2.408140 1_555
Na3 O15 2.472940 1_555
Na3 O12 2.479271 1_555
Na3 O7 2.526989 1_455
O0 W0 1.791189 1_545
O1 W1 1.791189 1_565
O2 W3 2.020729 1_555
O2 W0 2.262290 1_555
O2 W2 2.312097 1_566
O3 W2 2.020729 1_555
O3 W1 2.262290 1_555
O3 W3 2.312097 1_544
O4 W0 1.944593 1_545
O4 W3 2.051907 1_545
O5 W1 1.944593 1_565
O5 W2 2.051907 1_565
O6 W3 1.790453 1_555
O7 W2 1.790453 1_555
O8 W3 1.894316 1_555
O8 W0 1.979712 1_455
O9 W2 1.894316 1_555
O9 W1 1.979712 1_655
O10 W2 1.856386 1_556
O10 W0 2.126961 1_545
O11 W3 1.856386 1_554
O11 W1 2.126961 1_565
O12 W0 1.814509 1_555
O13 W1 1.814509 1_555
