# generated using pymatgen
data_CaMg14ZnO16
_symmetry_space_group_name_H-M   'P 1'
_cell_length_a   4.33066300
_cell_length_b   8.58274300
_cell_length_c   8.61342100
_cell_angle_alpha   90.00000000
_cell_angle_beta   90.00000000
_cell_angle_gamma   90.00000000
_symmetry_Int_Tables_number   1
_chemical_formula_structural   CaMg14ZnO16
_chemical_formula_sum   'Ca1 Mg14 Zn1 O16'
_cell_volume   320.15196563
_cell_formula_units_Z   1
loop_
 _symmetry_equiv_pos_site_id
 _symmetry_equiv_pos_as_xyz
  1  'x, y, z'
loop_
 _atom_site_type_symbol
 _atom_site_label
 _atom_site_symmetry_multiplicity
 _atom_site_fract_x
 _atom_site_fract_y
 _atom_site_fract_z
 _atom_site_occupancy
  Ca  Ca0  1  0.00000000  0.00000000  0.00000000  1
  Mg  Mg0  1  0.00000000  0.00000000  0.50000000  1
  Mg  Mg1  1  0.00000000  0.50000000  0.50000000  1
  Mg  Mg2  1  0.50000000  0.74398700  0.00000000  1
  Mg  Mg3  1  0.50000000  0.25601300  0.00000000  1
  Mg  Mg4  1  0.50000000  0.74933200  0.50000000  1
  Mg  Mg5  1  0.50000000  0.25066800  0.50000000  1
  Mg  Mg6  1  0.50000000  0.00000000  0.74435000  1
  Mg  Mg7  1  0.50000000  0.50000000  0.74985900  1
  Mg  Mg8  1  0.50000000  0.00000000  0.25565000  1
  Mg  Mg9  1  0.50000000  0.50000000  0.25014100  1
  Mg  Mg10  1  0.00000000  0.74654200  0.74658700  1
  Mg  Mg11  1  0.00000000  0.25345800  0.74658700  1
  Mg  Mg12  1  0.00000000  0.74654200  0.25341300  1
  Mg  Mg13  1  0.00000000  0.25345800  0.25341300  1
  Zn  Zn0  1  0.00000000  0.50000000  0.00000000  1
  O  O0  1  0.00000000  0.00000000  0.73670800  1
  O  O1  1  0.00000000  0.50000000  0.74288900  1
  O  O2  1  0.00000000  0.00000000  0.26329200  1
  O  O3  1  0.00000000  0.50000000  0.25711100  1
  O  O4  1  0.50000000  0.75013200  0.75098900  1
  O  O5  1  0.50000000  0.24986800  0.75098900  1
  O  O6  1  0.50000000  0.75013200  0.24901100  1
  O  O7  1  0.50000000  0.24986800  0.24901100  1
  O  O8  1  0.50000000  0.00000000  0.00000000  1
  O  O9  1  0.50000000  0.50000000  0.00000000  1
  O  O10  1  0.50000000  0.00000000  0.50000000  1
  O  O11  1  0.50000000  0.50000000  0.50000000  1
  O  O12  1  0.00000000  0.73841000  0.00000000  1
  O  O13  1  0.00000000  0.26159000  0.00000000  1
  O  O14  1  0.00000000  0.74823400  0.50000000  1
  O  O15  1  0.00000000  0.25176600  0.50000000  1
loop_
_geom_bond_atom_site_label_1
_geom_bond_atom_site_label_2
_geom_bond_distance
_geom_bond_site_symmetry_2
Ca0 O8 2.165332 1_555
Ca0 O8 2.165332 1_455
Ca0 O12 2.245160 1_545
Ca0 O13 2.245160 1_555
Ca0 O0 2.267845 1_554
Ca0 O2 2.267845 1_555
Mg0 O2 2.038866 1_555
Mg0 O0 2.038866 1_555
Mg0 O15 2.160843 1_555
Mg0 O14 2.160843 1_545
Mg0 O10 2.165332 1_555
Mg0 O10 2.165332 1_455
Mg1 O3 2.092105 1_555
Mg1 O1 2.092105 1_555
Mg1 O14 2.130529 1_555
Mg1 O15 2.130529 1_555
Mg1 O11 2.165332 1_455
Mg1 O11 2.165332 1_555
Mg2 O9 2.094078 1_555
Mg2 O4 2.145485 1_554
Mg2 O6 2.145485 1_555
Mg2 O12 2.165860 1_555
Mg2 O12 2.165860 1_655
Mg2 O8 2.197294 1_565
Mg3 O9 2.094078 1_555
Mg3 O5 2.145485 1_554
Mg3 O7 2.145485 1_555
Mg3 O13 2.165860 1_555
Mg3 O13 2.165860 1_655
Mg3 O8 2.197294 1_555
Mg4 O11 2.139952 1_555
Mg4 O10 2.151419 1_565
Mg4 O6 2.161885 1_555
Mg4 O4 2.161885 1_555
Mg4 O14 2.165352 1_555
Mg4 O14 2.165352 1_655
Mg5 O11 2.139952 1_555
Mg5 O10 2.151419 1_555
Mg5 O5 2.161885 1_555
Mg5 O7 2.161885 1_555
Mg5 O15 2.165352 1_555
Mg5 O15 2.165352 1_655
Mg6 O10 2.104689 1_555
Mg6 O4 2.145315 1_545
Mg6 O5 2.145315 1_555
Mg6 O0 2.166332 1_655
Mg6 O0 2.166332 1_555
Mg6 O8 2.202021 1_556
Mg7 O4 2.146841 1_555
Mg7 O5 2.146841 1_555
Mg7 O11 2.152141 1_555
Mg7 O9 2.154570 1_556
Mg7 O1 2.166164 1_655
Mg7 O1 2.166164 1_555
Mg8 O10 2.104689 1_555
Mg8 O6 2.145315 1_545
Mg8 O7 2.145315 1_555
Mg8 O2 2.166332 1_555
Mg8 O2 2.166332 1_655
Mg8 O8 2.202021 1_555
Mg9 O6 2.146841 1_555
Mg9 O7 2.146841 1_555
Mg9 O11 2.152141 1_555
Mg9 O9 2.154570 1_555
Mg9 O3 2.166164 1_655
Mg9 O3 2.166164 1_555
Mg10 O1 2.116246 1_555
Mg10 O14 2.124007 1_555
Mg10 O4 2.165883 1_455
Mg10 O4 2.165883 1_555
Mg10 O0 2.177028 1_565
Mg10 O12 2.183868 1_556
Mg11 O1 2.116246 1_555
Mg11 O15 2.124007 1_555
Mg11 O5 2.165883 1_555
Mg11 O5 2.165883 1_455
Mg11 O0 2.177028 1_555
Mg11 O13 2.183868 1_556
Mg12 O3 2.116246 1_555
Mg12 O14 2.124007 1_555
Mg12 O6 2.165883 1_455
Mg12 O6 2.165883 1_555
Mg12 O2 2.177028 1_565
Mg12 O12 2.183868 1_555
Mg13 O3 2.116246 1_555
Mg13 O15 2.124007 1_555
Mg13 O7 2.165883 1_555
Mg13 O7 2.165883 1_455
Mg13 O2 2.177028 1_555
Mg13 O13 2.183868 1_555
O1 Zn0 2.214605 1_556
O3 Zn0 2.214605 1_555
O9 Zn0 2.165332 1_555
O9 Zn0 2.165332 1_655
O12 Zn0 2.046212 1_555
O13 Zn0 2.046212 1_555
