# generated using pymatgen
data_Cs2Te(H3O5)2
_symmetry_space_group_name_H-M   'P 1'
_cell_length_a   7.36318900
_cell_length_b   12.19462200
_cell_length_c   12.64163182
_cell_angle_alpha   68.43114576
_cell_angle_beta   90.00000000
_cell_angle_gamma   90.00000000
_symmetry_Int_Tables_number   1
_chemical_formula_structural   Cs2Te(H3O5)2
_chemical_formula_sum   'Cs8 Te4 H24 O40'
_cell_volume   1055.62431238
_cell_formula_units_Z   4
loop_
 _symmetry_equiv_pos_site_id
 _symmetry_equiv_pos_as_xyz
  1  'x, y, z'
loop_
 _atom_site_type_symbol
 _atom_site_label
 _atom_site_symmetry_multiplicity
 _atom_site_fract_x
 _atom_site_fract_y
 _atom_site_fract_z
 _atom_site_occupancy
  Cs  Cs0  1  0.03744600  0.38999100  0.86820000  1
  Cs  Cs1  1  0.53744600  0.11000900  0.13180000  1
  Cs  Cs2  1  0.96255400  0.61000900  0.13180000  1
  Cs  Cs3  1  0.46255400  0.88999100  0.86820000  1
  Cs  Cs4  1  0.49032600  0.35843700  0.36412900  1
  Cs  Cs5  1  0.99032600  0.14156300  0.63587100  1
  Cs  Cs6  1  0.50967400  0.64156300  0.63587100  1
  Cs  Cs7  1  0.00967400  0.85843700  0.36412900  1
  Te  Te0  1  0.50000000  0.50000000  0.00000000  1
  Te  Te1  1  0.00000000  0.00000000  0.00000000  1
  Te  Te2  1  0.50000000  0.00000000  0.50000000  1
  Te  Te3  1  0.00000000  0.50000000  0.50000000  1
  H  H0  1  0.51790400  0.37329900  0.87624700  1
  H  H1  1  0.01790400  0.12670100  0.12375300  1
  H  H2  1  0.48209600  0.62670100  0.12375300  1
  H  H3  1  0.98209600  0.87329900  0.87624700  1
  H  H4  1  0.78079300  0.15989800  0.87170700  1
  H  H5  1  0.28079300  0.34010200  0.12829300  1
  H  H6  1  0.21920700  0.84010200  0.12829300  1
  H  H7  1  0.71920700  0.65989800  0.87170700  1
  H  H8  1  0.76774900  0.37111000  0.09907400  1
  H  H9  1  0.26774900  0.12889000  0.90092600  1
  H  H10  1  0.23225100  0.62889000  0.90092600  1
  H  H11  1  0.73225100  0.87111000  0.09907400  1
  H  H12  1  0.46050400  0.11404900  0.63156700  1
  H  H13  1  0.96050400  0.38595100  0.36843300  1
  H  H14  1  0.53949600  0.88595100  0.36843300  1
  H  H15  1  0.03949600  0.61404900  0.63156700  1
  H  H16  1  0.28543500  0.38304900  0.59323900  1
  H  H17  1  0.78543500  0.11695100  0.40676100  1
  H  H18  1  0.71456500  0.61695100  0.40676100  1
  H  H19  1  0.21456500  0.88304900  0.59323900  1
  H  H20  1  0.24969500  0.11480000  0.36271100  1
  H  H21  1  0.74969500  0.38520000  0.63728900  1
  H  H22  1  0.75030500  0.88520000  0.63728900  1
  H  H23  1  0.25030500  0.61480000  0.36271100  1
  O  O0  1  0.83318700  0.27353700  0.22322100  1
  O  O1  1  0.33318700  0.22646300  0.77677900  1
  O  O2  1  0.16681300  0.72646300  0.77677900  1
  O  O3  1  0.66681300  0.77353700  0.22322100  1
  O  O4  1  0.01711400  0.15001400  0.33395100  1
  O  O5  1  0.51711400  0.34998600  0.66604900  1
  O  O6  1  0.98288600  0.84998600  0.66604900  1
  O  O7  1  0.48288600  0.65001400  0.33395100  1
  O  O8  1  0.06672300  0.33226000  0.28074600  1
  O  O9  1  0.56672300  0.16774000  0.71925400  1
  O  O10  1  0.93327700  0.66774000  0.71925400  1
  O  O11  1  0.43327700  0.83226000  0.28074600  1
  O  O12  1  0.08744400  0.24974500  0.15886400  1
  O  O13  1  0.58744400  0.25025500  0.84113600  1
  O  O14  1  0.91255600  0.75025500  0.84113600  1
  O  O15  1  0.41255600  0.74974500  0.15886400  1
  O  O16  1  0.43899700  0.43808100  0.88177000  1
  O  O17  1  0.93899700  0.06191900  0.11823000  1
  O  O18  1  0.56100300  0.56191900  0.11823000  1
  O  O19  1  0.06100300  0.93808100  0.88177000  1
  O  O20  1  0.41539900  0.35685400  0.12109200  1
  O  O21  1  0.91539900  0.14314600  0.87890800  1
  O  O22  1  0.58460100  0.64314600  0.87890800  1
  O  O23  1  0.08460100  0.85685400  0.12109200  1
  O  O24  1  0.74332300  0.43220300  0.02029400  1
  O  O25  1  0.24332300  0.06779700  0.97970600  1
  O  O26  1  0.25667700  0.56779700  0.97970600  1
  O  O27  1  0.75667700  0.93220300  0.02029400  1
  O  O28  1  0.37661200  0.08077400  0.58718400  1
  O  O29  1  0.87661200  0.41922600  0.41281600  1
  O  O30  1  0.62338800  0.91922600  0.41281600  1
  O  O31  1  0.12338800  0.58077400  0.58718400  1
  O  O32  1  0.70316700  0.11081900  0.47174700  1
  O  O33  1  0.20316700  0.38918100  0.52825300  1
  O  O34  1  0.29683300  0.88918100  0.52825300  1
  O  O35  1  0.79683300  0.61081900  0.47174700  1
  O  O36  1  0.38496000  0.10416100  0.35951800  1
  O  O37  1  0.88496000  0.39583900  0.64048200  1
  O  O38  1  0.61504000  0.89583900  0.64048200  1
  O  O39  1  0.11504000  0.60416100  0.35951800  1
loop_
_geom_bond_atom_site_label_1
_geom_bond_atom_site_label_2
_geom_bond_distance
_geom_bond_site_symmetry_2
Cs0 O16 3.031395 1_555
Cs0 O24 3.062628 1_456
Cs0 O37 3.066245 1_455
Cs0 O21 3.096370 1_455
Cs1 O17 3.031395 1_555
Cs1 O25 3.062628 1_554
Cs1 O36 3.066245 1_555
Cs1 O20 3.096370 1_555
Cs2 O18 3.031395 1_555
Cs2 O26 3.062628 1_654
Cs2 O39 3.066245 1_655
Cs2 O23 3.096370 1_655
Cs3 O19 3.031395 1_555
Cs3 O27 3.062628 1_556
Cs3 O38 3.066245 1_555
Cs3 O22 3.096370 1_555
Cs4 O29 3.058402 1_555
Cs4 O33 3.080254 1_555
Cs4 O20 3.128562 1_555
Cs4 O36 3.217633 1_555
Cs4 O32 3.225611 1_555
Cs4 O18 3.227999 1_555
Cs4 O8 3.344998 1_555
Cs4 O7 3.434240 1_555
Cs4 O0 3.460383 1_555
Cs5 O28 3.058402 1_655
Cs5 O32 3.080254 1_555
Cs5 O21 3.128562 1_555
Cs5 O37 3.217633 1_555
Cs5 O33 3.225611 1_655
Cs5 O19 3.227999 1_645
Cs5 O9 3.344998 1_555
Cs5 O6 3.434240 1_545
Cs5 O1 3.460383 1_655
Cs6 O31 3.058402 1_555
Cs6 O35 3.080254 1_555
Cs6 O22 3.128562 1_555
Cs6 O38 3.217633 1_555
Cs6 O34 3.225611 1_555
Cs6 O16 3.227999 1_555
Cs6 O10 3.344998 1_555
Cs6 O5 3.434240 1_555
Cs6 O2 3.460383 1_555
Cs7 O30 3.058402 1_455
Cs7 O34 3.080254 1_555
Cs7 O23 3.128562 1_555
Cs7 O39 3.217633 1_555
Cs7 O35 3.225611 1_455
Cs7 O17 3.227999 1_465
Cs7 O11 3.344998 1_555
Cs7 O4 3.434240 1_565
Cs7 O3 3.460383 1_455
H0 O16 1.003536 1_555
H1 O17 1.003536 1_455
H2 O18 1.003536 1_555
H3 O19 1.003536 1_655
H4 O21 1.009299 1_555
H5 O20 1.009299 1_555
H6 O23 1.009299 1_555
H7 O22 1.009299 1_555
H8 O24 1.016709 1_555
H8 O0 1.654703 1_555
H9 O25 1.016709 1_555
H9 O1 1.654703 1_555
H10 O26 1.016709 1_555
H10 O2 1.654703 1_555
H11 O27 1.016709 1_555
H11 O3 1.654703 1_555
H12 O28 1.014110 1_555
H12 O9 1.674155 1_555
H13 O29 1.014110 1_555
H13 O8 1.674155 1_655
H14 O30 1.014110 1_555
H14 O11 1.674155 1_555
H15 O31 1.014110 1_555
H15 O10 1.674155 1_455
H16 O33 1.001136 1_555
H17 O32 1.001136 1_555
H18 O35 1.001136 1_555
H19 O34 1.001136 1_555
H20 O36 1.007120 1_555
H21 O37 1.007120 1_555
H22 O38 1.007120 1_555
H23 O39 1.007120 1_555
O16 Te0 1.958456 1_556
O17 Te1 1.958456 1_655
O18 Te0 1.958456 1_555
O19 Te1 1.958456 1_566
O20 Te0 1.952912 1_555
O21 Te1 1.952912 1_656
O22 Te0 1.952912 1_556
O23 Te1 1.952912 1_565
O24 Te0 1.950218 1_555
O25 Te1 1.950218 1_556
O26 Te0 1.950218 1_556
O27 Te1 1.950218 1_665
O28 Te2 1.951561 1_555
O29 Te3 1.951561 1_655
O30 Te2 1.951561 1_565
O31 Te3 1.951561 1_555
O32 Te2 1.958787 1_555
O33 Te3 1.958787 1_555
O34 Te2 1.958787 1_565
O35 Te3 1.958787 1_655
O36 Te2 1.956091 1_555
O37 Te3 1.956091 1_655
O38 Te2 1.956091 1_565
O39 Te3 1.956091 1_555
