# generated using pymatgen
data_CaLaFeMoO6
_symmetry_space_group_name_H-M   'P 1'
_cell_length_a   5.69632800
_cell_length_b   5.60513300
_cell_length_c   9.63310608
_cell_angle_alpha   55.18780390
_cell_angle_beta   90.00000000
_cell_angle_gamma   90.00000000
_symmetry_Int_Tables_number   1
_chemical_formula_structural   CaLaFeMoO6
_chemical_formula_sum   'Ca2 La2 Fe2 Mo2 O12'
_cell_volume   252.52539954
_cell_formula_units_Z   2
loop_
 _symmetry_equiv_pos_site_id
 _symmetry_equiv_pos_as_xyz
  1  'x, y, z'
loop_
 _atom_site_type_symbol
 _atom_site_label
 _atom_site_symmetry_multiplicity
 _atom_site_fract_x
 _atom_site_fract_y
 _atom_site_fract_z
 _atom_site_occupancy
  Ca  Ca0  1  0.79661300  0.76519700  0.74929600  1
  Ca  Ca1  1  0.20338700  0.76519700  0.24929600  1
  La  La0  1  0.28974300  0.23557100  0.75215900  1
  La  La1  1  0.71025700  0.23557100  0.25215900  1
  Fe  Fe0  1  0.75026900  0.99973900  0.99951700  1
  Fe  Fe1  1  0.24973100  0.99973900  0.49951700  1
  Mo  Mo0  1  0.75076100  0.49912900  0.50096700  1
  Mo  Mo1  1  0.24923900  0.49912900  0.00096700  1
  O  O0  1  0.27276000  0.34353400  0.25006400  1
  O  O1  1  0.46309900  0.14609800  0.05225100  1
  O  O2  1  0.45956200  0.75150800  0.45277100  1
  O  O3  1  0.54043800  0.75150800  0.95277100  1
  O  O4  1  0.53690100  0.14609800  0.55225100  1
  O  O5  1  0.72724000  0.34353400  0.75006400  1
  O  O6  1  0.77757300  0.66501100  0.24940900  1
  O  O7  1  0.96729900  0.84778600  0.44903400  1
  O  O8  1  0.96223500  0.24642700  0.04453300  1
  O  O9  1  0.03776500  0.24642700  0.54453300  1
  O  O10  1  0.03270100  0.84778600  0.94903400  1
  O  O11  1  0.22242700  0.66501100  0.74940900  1
loop_
_geom_bond_atom_site_label_1
_geom_bond_atom_site_label_2
_geom_bond_distance
_geom_bond_site_symmetry_2
Ca0 O5 2.392128 1_555
Ca0 O4 2.392225 1_565
Ca0 O3 2.409476 1_555
Ca0 O11 2.489592 1_655
Ca0 O10 2.596539 1_655
Ca0 O9 2.641710 1_665
Ca0 O8 2.826927 1_556
Ca0 O7 2.827917 1_555
Ca1 O0 2.392128 1_555
Ca1 O1 2.392225 1_565
Ca1 O2 2.409476 1_555
Ca1 O6 2.489592 1_455
Ca1 O7 2.596539 1_455
Ca1 O8 2.641710 1_465
Ca1 O9 2.826927 1_555
Ca1 O10 2.827917 1_554
La0 O10 2.399676 1_545
La0 O11 2.422583 1_555
La0 O9 2.434195 1_555
La0 O5 2.561906 1_555
La0 O4 2.654209 1_555
La0 O3 2.673727 1_545
La0 O1 2.815700 1_556
La0 O2 2.844940 1_555
La1 O7 2.399676 1_545
La1 O6 2.422583 1_555
La1 O8 2.434195 1_555
La1 O0 2.561906 1_555
La1 O1 2.654209 1_555
La1 O2 2.673727 1_545
La1 O4 2.815700 1_555
La1 O3 2.844940 1_554
Fe0 O10 2.005781 1_655
Fe0 O1 2.020584 1_566
Fe0 O6 2.045070 1_556
Fe0 O5 2.053751 1_565
Fe0 O8 2.059723 1_566
Fe0 O3 2.069473 1_555
Fe1 O7 2.005781 1_455
Fe1 O4 2.020584 1_565
Fe1 O11 2.045070 1_555
Fe1 O0 2.053751 1_565
Fe1 O9 2.059723 1_565
Fe1 O2 2.069473 1_555
Mo0 O5 2.036440 1_555
Mo0 O9 2.043643 1_655
Mo0 O6 2.046352 1_555
Mo0 O2 2.053852 1_555
Mo0 O7 2.115327 1_555
Mo0 O4 2.127802 1_555
Mo1 O0 2.036440 1_555
Mo1 O8 2.043643 1_455
Mo1 O11 2.046352 1_554
Mo1 O3 2.053852 1_554
Mo1 O10 2.115327 1_554
Mo1 O1 2.127802 1_555
