# generated using pymatgen
data_Mg149Pb
_symmetry_space_group_name_H-M   'P 1'
_cell_length_a   15.94026405
_cell_length_b   15.94027046
_cell_length_c   15.55693163
_cell_angle_alpha   90.00000000
_cell_angle_beta   90.00000000
_cell_angle_gamma   120.00000891
_symmetry_Int_Tables_number   1
_chemical_formula_structural   Mg149Pb
_chemical_formula_sum   'Mg149 Pb1'
_cell_volume   3423.30609064
_cell_formula_units_Z   1
loop_
 _symmetry_equiv_pos_site_id
 _symmetry_equiv_pos_as_xyz
  1  'x, y, z'
loop_
 _atom_site_type_symbol
 _atom_site_label
 _atom_site_symmetry_multiplicity
 _atom_site_fract_x
 _atom_site_fract_y
 _atom_site_fract_z
 _atom_site_occupancy
  Mg  Mg0  1  0.20316827  0.00068583  -0.00000000  1
  Mg  Mg1  1  0.79751756  0.00068583  -0.00000000  1
  Mg  Mg2  1  0.79978755  0.20021245  -0.00000000  1
  Mg  Mg3  1  0.40042491  0.20021245  -0.00000000  1
  Mg  Mg4  1  0.60007021  0.20014043  -0.00000000  1
  Mg  Mg5  1  0.99931417  0.20248244  -0.00000000  1
  Mg  Mg6  1  0.20316827  0.20248244  -0.00000000  1
  Mg  Mg7  1  0.19989336  0.39978672  -0.00000000  1
  Mg  Mg8  1  0.60007021  0.39992879  -0.00000000  1
  Mg  Mg9  1  0.79985957  0.39992979  -0.00000000  1
  Mg  Mg10  1  0.40074407  0.40084956  -0.00000000  1
  Mg  Mg11  1  0.00010549  0.40084956  -0.00000000  1
  Mg  Mg12  1  0.59915044  0.59925593  -0.00000000  1
  Mg  Mg13  1  0.00010549  0.59925593  -0.00000000  1
  Mg  Mg14  1  0.79978755  0.59957509  -0.00000000  1
  Mg  Mg15  1  0.40001482  0.59998518  -0.00000000  1
  Mg  Mg16  1  0.19997037  0.59998518  -0.00000000  1
  Mg  Mg17  1  0.99931417  0.79683173  -0.00000000  1
  Mg  Mg18  1  0.79751756  0.79683273  -0.00000000  1
  Mg  Mg19  1  0.40001482  0.80002963  -0.00000000  1
  Mg  Mg20  1  0.19989336  0.80010564  -0.00000000  1
  Mg  Mg21  1  0.60021228  0.80010664  -0.00000000  1
  Mg  Mg22  1  0.40074407  0.99989451  -0.00000000  1
  Mg  Mg23  1  0.59915044  0.99989451  -0.00000000  1
  Mg  Mg24  1  0.46679693  0.13332218  0.16648607  1
  Mg  Mg25  1  0.66652525  0.13332318  0.16648607  1
  Mg  Mg26  1  0.46679693  0.33347475  0.16648607  1
  Mg  Mg27  1  0.86667682  0.33347475  0.16648607  1
  Mg  Mg28  1  0.86667682  0.53320307  0.16648607  1
  Mg  Mg29  1  0.66652525  0.53320307  0.16648607  1
  Mg  Mg30  1  0.66666600  0.33333300  0.16667449  1
  Mg  Mg31  1  0.06651995  0.33343723  0.16659174  1
  Mg  Mg32  1  0.26691828  0.33343723  0.16659174  1
  Mg  Mg33  1  0.06651995  0.73308272  0.16659174  1
  Mg  Mg34  1  0.66656277  0.73308272  0.16659174  1
  Mg  Mg35  1  0.66656277  0.93348005  0.16659174  1
  Mg  Mg36  1  0.26691828  0.93348105  0.16659174  1
  Mg  Mg37  1  0.26666377  0.53332855  0.16677197  1
  Mg  Mg38  1  0.26666377  0.73333523  0.16677197  1
  Mg  Mg39  1  0.46667045  0.73333523  0.16677197  1
  Mg  Mg40  1  0.46659175  0.53340825  0.16664727  1
  Mg  Mg41  1  0.06681749  0.53340925  0.16664727  1
  Mg  Mg42  1  0.46659175  0.93318251  0.16664727  1
  Mg  Mg43  1  0.86639041  0.13360959  0.16715735  1
  Mg  Mg44  1  0.26721917  0.13360959  0.16715735  1
  Mg  Mg45  1  0.86639041  0.73278083  0.16715735  1
  Mg  Mg46  1  0.06746497  0.13492993  0.16927737  1
  Mg  Mg47  1  0.86507007  0.93253503  0.16927737  1
  Mg  Mg48  1  0.06746497  0.93253503  0.16927737  1
  Mg  Mg49  1  0.19995762  0.39991523  0.33312808  1
  Mg  Mg50  1  0.60008577  0.80004238  0.33312808  1
  Mg  Mg51  1  0.19995762  0.80004238  0.33312808  1
  Mg  Mg52  1  0.40022174  0.20011087  0.33319646  1
  Mg  Mg53  1  0.79988913  0.20011087  0.33319646  1
  Mg  Mg54  1  0.79988913  0.59977826  0.33319646  1
  Mg  Mg55  1  0.60007425  0.20014950  0.33315209  1
  Mg  Mg56  1  0.60007425  0.39992475  0.33315209  1
  Mg  Mg57  1  0.79985050  0.39992575  0.33315209  1
  Mg  Mg58  1  0.60006181  0.00009776  0.33333486  1
  Mg  Mg59  1  0.40003595  0.00009776  0.33333486  1
  Mg  Mg60  1  0.99990224  0.39993819  0.33333486  1
  Mg  Mg61  1  0.40003595  0.39993819  0.33333486  1
  Mg  Mg62  1  0.99990224  0.59996405  0.33333486  1
  Mg  Mg63  1  0.60006181  0.59996405  0.33333486  1
  Mg  Mg64  1  0.39996823  0.60003177  0.33333411  1
  Mg  Mg65  1  0.20006354  0.60003177  0.33333411  1
  Mg  Mg66  1  0.39996823  0.79993646  0.33333411  1
  Mg  Mg67  1  0.00000000  0.00000000  0.33387530  1
  Mg  Mg68  1  0.20017216  0.00018265  0.33408412  1
  Mg  Mg69  1  0.80001049  0.00018265  0.33408412  1
  Mg  Mg70  1  0.99981835  0.19998951  0.33408412  1
  Mg  Mg71  1  0.20017216  0.19999051  0.33408412  1
  Mg  Mg72  1  0.80001049  0.79982784  0.33408412  1
  Mg  Mg73  1  0.99981835  0.79982784  0.33408412  1
  Mg  Mg74  1  0.06662780  0.13325460  0.50000000  1
  Mg  Mg75  1  0.46676707  0.13325121  0.50000000  1
  Mg  Mg76  1  0.66648414  0.13325121  0.50000000  1
  Mg  Mg77  1  0.26667425  0.13333713  0.50000000  1
  Mg  Mg78  1  0.86666287  0.13333713  0.50000000  1
  Mg  Mg79  1  0.66666600  0.33333300  0.50000000  1
  Mg  Mg80  1  0.06662141  0.33336184  0.50000000  1
  Mg  Mg81  1  0.26673942  0.33336184  0.50000000  1
  Mg  Mg82  1  0.46676707  0.33351586  0.50000000  1
  Mg  Mg83  1  0.86674879  0.33351586  0.50000000  1
  Mg  Mg84  1  0.86674879  0.53323193  0.50000000  1
  Mg  Mg85  1  0.66648414  0.53323193  0.50000000  1
  Mg  Mg86  1  0.46667570  0.53332330  0.50000000  1
  Mg  Mg87  1  0.06664761  0.53332430  0.50000000  1
  Mg  Mg88  1  0.26658019  0.53316039  0.50000000  1
  Mg  Mg89  1  0.86666287  0.73332575  0.50000000  1
  Mg  Mg90  1  0.46683961  0.73341981  0.50000000  1
  Mg  Mg91  1  0.26658019  0.73341981  0.50000000  1
  Mg  Mg92  1  0.06662141  0.73326058  0.50000000  1
  Mg  Mg93  1  0.66663816  0.73326058  0.50000000  1
  Mg  Mg94  1  0.46667570  0.93335239  0.50000000  1
  Mg  Mg95  1  0.26673942  0.93337759  0.50000000  1
  Mg  Mg96  1  0.66663816  0.93337759  0.50000000  1
  Mg  Mg97  1  0.86674640  0.93337320  0.50000000  1
  Mg  Mg98  1  0.06662780  0.93337320  0.50000000  1
  Mg  Mg99  1  0.20017216  0.00018265  0.66591588  1
  Mg  Mg100  1  0.80001049  0.00018265  0.66591588  1
  Mg  Mg101  1  0.99981835  0.19998951  0.66591588  1
  Mg  Mg102  1  0.20017216  0.19999051  0.66591588  1
  Mg  Mg103  1  0.80001049  0.79982784  0.66591588  1
  Mg  Mg104  1  0.99981835  0.79982784  0.66591588  1
  Mg  Mg105  1  0.00000000  0.00000000  0.66612470  1
  Mg  Mg106  1  0.39996823  0.60003177  0.66666589  1
  Mg  Mg107  1  0.20006354  0.60003177  0.66666589  1
  Mg  Mg108  1  0.39996823  0.79993646  0.66666589  1
  Mg  Mg109  1  0.60006181  0.00009776  0.66666514  1
  Mg  Mg110  1  0.40003595  0.00009776  0.66666514  1
  Mg  Mg111  1  0.99990224  0.39993819  0.66666514  1
  Mg  Mg112  1  0.40003595  0.39993819  0.66666514  1
  Mg  Mg113  1  0.99990224  0.59996405  0.66666514  1
  Mg  Mg114  1  0.60006181  0.59996405  0.66666514  1
  Mg  Mg115  1  0.60007425  0.20014950  0.66684791  1
  Mg  Mg116  1  0.60007425  0.39992475  0.66684791  1
  Mg  Mg117  1  0.79985050  0.39992575  0.66684791  1
  Mg  Mg118  1  0.40022174  0.20011087  0.66680354  1
  Mg  Mg119  1  0.79988913  0.20011087  0.66680354  1
  Mg  Mg120  1  0.79988913  0.59977826  0.66680354  1
  Mg  Mg121  1  0.19995762  0.39991523  0.66687192  1
  Mg  Mg122  1  0.60008577  0.80004238  0.66687192  1
  Mg  Mg123  1  0.19995762  0.80004238  0.66687192  1
  Mg  Mg124  1  0.06746497  0.13492993  0.83072263  1
  Mg  Mg125  1  0.86507007  0.93253503  0.83072263  1
  Mg  Mg126  1  0.06746497  0.93253503  0.83072263  1
  Mg  Mg127  1  0.86639041  0.13360959  0.83284265  1
  Mg  Mg128  1  0.26721917  0.13360959  0.83284265  1
  Mg  Mg129  1  0.86639041  0.73278083  0.83284265  1
  Mg  Mg130  1  0.46659175  0.53340825  0.83335273  1
  Mg  Mg131  1  0.06681749  0.53340925  0.83335273  1
  Mg  Mg132  1  0.46659175  0.93318251  0.83335273  1
  Mg  Mg133  1  0.26666377  0.53332855  0.83322703  1
  Mg  Mg134  1  0.26666377  0.73333523  0.83322703  1
  Mg  Mg135  1  0.46667045  0.73333523  0.83322703  1
  Mg  Mg136  1  0.06651995  0.33343723  0.83340826  1
  Mg  Mg137  1  0.26691828  0.33343723  0.83340826  1
  Mg  Mg138  1  0.06651995  0.73308272  0.83340826  1
  Mg  Mg139  1  0.66656277  0.73308272  0.83340826  1
  Mg  Mg140  1  0.66656277  0.93348005  0.83340826  1
  Mg  Mg141  1  0.26691828  0.93348105  0.83340826  1
  Mg  Mg142  1  0.66666600  0.33333300  0.83332551  1
  Mg  Mg143  1  0.46679693  0.13332218  0.83351393  1
  Mg  Mg144  1  0.66652525  0.13332318  0.83351393  1
  Mg  Mg145  1  0.46679693  0.33347475  0.83351393  1
  Mg  Mg146  1  0.86667682  0.33347475  0.83351393  1
  Mg  Mg147  1  0.86667682  0.53320307  0.83351393  1
  Mg  Mg148  1  0.66652525  0.53320307  0.83351393  1
  Pb  Pb0  1  0.00000000  0.00000000  -0.00000000  1
loop_
_geom_bond_atom_site_label_1
_geom_bond_atom_site_label_2
_geom_bond_distance
_geom_bond_site_symmetry_2
Mg0 Mg22 3.155736 1_545
Mg0 Mg141 3.159991 1_544
Mg0 Mg36 3.159991 1_545
Mg0 Mg3 3.162570 1_555
Mg0 Mg20 3.171523 1_545
Mg0 Mg44 3.182917 1_555
Mg0 Mg128 3.182917 1_554
Mg0 Pb0 3.233104 1_555
Mg1 Mg23 3.155736 1_545
Mg1 Mg140 3.159990 1_544
Mg1 Mg35 3.159990 1_545
Mg1 Mg2 3.162571 1_555
Mg1 Mg21 3.171514 1_545
Mg1 Mg127 3.182917 1_554
Mg1 Mg43 3.182917 1_555
Mg1 Pb0 3.233104 1_655
Mg2 Mg5 3.162570 1_555
Mg2 Mg25 3.176864 1_555
Mg2 Mg27 3.176864 1_555
Mg2 Mg4 3.182973 1_555
Mg2 Mg9 3.182975 1_555
Mg2 Mg43 3.184930 1_555
Mg2 Mg23 3.195668 1_545
Mg3 Mg6 3.162570 1_555
Mg3 Mg8 3.182965 1_555
Mg3 Mg4 3.182973 1_555
Mg3 Mg44 3.184930 1_555
Mg4 Mg8 3.184680 1_555
Mg4 Mg9 3.184695 1_555
Mg5 Mg7 3.171506 1_655
Mg5 Pb0 3.233105 1_655
Mg6 Mg7 3.171507 1_555
Mg6 Pb0 3.233104 1_555
Mg8 Mg9 3.184687 1_555
Mg10 Mg6 3.155736 1_555
Mg10 Mg12 3.162650 1_555
Mg10 Mg40 3.173303 1_555
Mg10 Mg130 3.173303 1_554
Mg10 Mg26 3.178202 1_555
Mg10 Mg145 3.178202 1_554
Mg10 Mg15 3.180104 1_555
Mg10 Mg137 3.182721 1_554
Mg10 Mg32 3.182721 1_555
Mg10 Mg8 3.184675 1_555
Mg10 Mg7 3.193176 1_555
Mg10 Mg3 3.195669 1_555
Mg11 Mg5 3.155738 1_455
Mg11 Mg13 3.162651 1_555
Mg11 Mg41 3.173311 1_555
Mg11 Mg131 3.173311 1_554
Mg11 Mg27 3.178209 1_455
Mg11 Mg146 3.178209 1_454
Mg11 Mg16 3.180103 1_555
Mg11 Mg136 3.182729 1_554
Mg11 Mg31 3.182729 1_555
Mg11 Mg9 3.184667 1_455
Mg11 Mg7 3.193176 1_555
Mg11 Mg2 3.195668 1_455
Mg12 Mg18 3.155744 1_555
Mg12 Mg40 3.173303 1_555
Mg12 Mg130 3.173303 1_554
Mg12 Mg29 3.178202 1_555
Mg12 Mg148 3.178202 1_554
Mg12 Mg15 3.180103 1_555
Mg12 Mg139 3.182729 1_554
Mg12 Mg34 3.182729 1_555
Mg12 Mg8 3.184685 1_555
Mg12 Mg21 3.193185 1_555
Mg12 Mg14 3.195668 1_555
Mg13 Mg17 3.155738 1_455
Mg13 Mg41 3.173303 1_555
Mg13 Mg131 3.173303 1_554
Mg13 Mg147 3.178209 1_454
Mg13 Mg28 3.178209 1_455
Mg13 Mg16 3.180103 1_555
Mg13 Mg138 3.182729 1_554
Mg13 Mg33 3.182729 1_555
Mg13 Mg9 3.184668 1_455
Mg13 Mg20 3.193168 1_555
Mg13 Mg14 3.195668 1_455
Mg14 Mg17 3.162570 1_555
Mg14 Mg18 3.162588 1_555
Mg14 Mg28 3.176856 1_555
Mg14 Mg147 3.176856 1_554
Mg14 Mg29 3.176864 1_555
Mg14 Mg148 3.176864 1_554
Mg14 Mg9 3.182974 1_555
Mg14 Mg8 3.182981 1_555
Mg14 Mg45 3.184931 1_555
Mg15 Mg40 3.178041 1_555
Mg15 Mg39 3.181190 1_555
Mg15 Mg37 3.181197 1_555
Mg15 Mg16 3.188761 1_555
Mg15 Mg19 3.188763 1_555
Mg15 Mg21 3.190595 1_555
Mg15 Mg7 3.190603 1_555
Mg16 Mg41 3.178032 1_555
Mg16 Mg37 3.181190 1_555
Mg16 Mg38 3.181190 1_555
Mg16 Mg19 3.188762 1_555
Mg16 Mg20 3.190588 1_555
Mg16 Mg7 3.190604 1_555
Mg17 Mg33 3.159991 1_655
Mg17 Mg20 3.171514 1_655
Mg17 Mg45 3.182916 1_555
Mg17 Pb0 3.233105 1_665
Mg18 Mg34 3.159990 1_555
Mg18 Mg21 3.171514 1_555
Mg18 Mg45 3.182925 1_555
Mg18 Pb0 3.233096 1_665
Mg19 Mg42 3.178033 1_555
Mg19 Mg23 3.180103 1_555
Mg19 Mg22 3.180104 1_555
Mg19 Mg39 3.181190 1_555
Mg19 Mg38 3.181197 1_555
Mg19 Mg21 3.190587 1_555
Mg19 Mg20 3.190595 1_555
Mg20 Mg33 3.179094 1_555
Mg20 Mg36 3.179111 1_555
Mg20 Mg38 3.182714 1_555
Mg20 Mg22 3.193184 1_555
Mg21 Mg35 3.179095 1_555
Mg21 Mg34 3.179103 1_555
Mg21 Mg39 3.182722 1_555
Mg21 Mg23 3.193169 1_555
Mg22 Mg23 3.162650 1_555
Mg22 Mg42 3.173311 1_555
Mg22 Mg24 3.178202 1_565
Mg22 Mg36 3.182721 1_555
Mg22 Mg4 3.184668 1_565
Mg22 Mg3 3.195669 1_565
Mg23 Mg42 3.173303 1_555
Mg23 Mg25 3.178210 1_565
Mg23 Mg35 3.182729 1_555
Mg23 Mg4 3.184669 1_565
Mg24 Mg3 3.176864 1_555
Mg24 Mg4 3.176951 1_555
Mg24 Mg55 3.179266 1_555
Mg24 Mg52 3.180519 1_555
Mg24 Mg59 3.181162 1_555
Mg24 Mg44 3.183632 1_555
Mg24 Mg25 3.183714 1_555
Mg24 Mg36 3.185820 1_545
Mg24 Mg30 3.187098 1_555
Mg24 Mg42 3.188647 1_545
Mg24 Mg26 3.190486 1_555
Mg25 Mg4 3.176943 1_555
Mg25 Mg55 3.179266 1_555
Mg25 Mg53 3.180519 1_555
Mg25 Mg58 3.181170 1_555
Mg25 Mg43 3.183640 1_555
Mg25 Mg35 3.185853 1_545
Mg25 Mg30 3.187091 1_555
Mg25 Mg42 3.188646 1_545
Mg25 Mg27 3.190469 1_555
Mg26 Mg3 3.176865 1_555
Mg26 Mg8 3.176951 1_555
Mg26 Mg56 3.179266 1_555
Mg26 Mg52 3.180520 1_555
Mg26 Mg61 3.181162 1_555
Mg26 Mg44 3.183633 1_555
Mg26 Mg29 3.183722 1_555
Mg26 Mg32 3.185820 1_555
Mg26 Mg30 3.187097 1_555
Mg26 Mg40 3.188632 1_555
Mg27 Mg9 3.176943 1_555
Mg27 Mg57 3.179266 1_555
Mg27 Mg53 3.180520 1_555
Mg27 Mg60 3.181170 1_555
Mg27 Mg43 3.183642 1_555
Mg27 Mg28 3.183723 1_555
Mg27 Mg31 3.185852 1_655
Mg27 Mg30 3.187097 1_555
Mg27 Mg41 3.188654 1_655
Mg28 Mg9 3.176951 1_555
Mg28 Mg57 3.179266 1_555
Mg28 Mg54 3.180511 1_555
Mg28 Mg62 3.181170 1_555
Mg28 Mg45 3.183626 1_555
Mg28 Mg33 3.185844 1_655
Mg28 Mg30 3.187106 1_555
Mg28 Mg41 3.188654 1_655
Mg28 Mg29 3.190469 1_555
Mg29 Mg8 3.176959 1_555
Mg29 Mg56 3.179274 1_555
Mg29 Mg54 3.180519 1_555
Mg29 Mg63 3.181162 1_555
Mg29 Mg45 3.183633 1_555
Mg29 Mg34 3.185837 1_555
Mg29 Mg30 3.187107 1_555
Mg29 Mg40 3.188630 1_555
Mg30 Mg56 3.176125 1_555
Mg30 Mg55 3.176125 1_555
Mg30 Mg57 3.176132 1_555
Mg30 Mg8 3.178687 1_555
Mg30 Mg4 3.178695 1_555
Mg30 Mg9 3.178703 1_555
Mg31 Mg5 3.159991 1_455
Mg31 Mg46 3.172094 1_555
Mg31 Mg49 3.178904 1_555
Mg31 Mg60 3.178976 1_455
Mg31 Mg7 3.179094 1_555
Mg31 Mg41 3.185239 1_555
Mg31 Mg43 3.187727 1_455
Mg31 Mg37 3.188336 1_555
Mg31 Mg70 3.191115 1_455
Mg31 Mg32 3.194402 1_555
Mg32 Mg6 3.159991 1_555
Mg32 Mg46 3.172101 1_555
Mg32 Mg49 3.178912 1_555
Mg32 Mg61 3.178968 1_555
Mg32 Mg7 3.179103 1_555
Mg32 Mg40 3.185222 1_555
Mg32 Mg44 3.187720 1_555
Mg32 Mg37 3.188353 1_555
Mg32 Mg71 3.191107 1_555
Mg33 Mg48 3.172094 1_555
Mg33 Mg51 3.178904 1_555
Mg33 Mg62 3.178976 1_455
Mg33 Mg41 3.185223 1_555
Mg33 Mg45 3.187726 1_455
Mg33 Mg38 3.188336 1_555
Mg33 Mg73 3.191107 1_455
Mg33 Mg36 3.194403 1_555
Mg34 Mg47 3.172093 1_555
Mg34 Mg50 3.178896 1_555
Mg34 Mg63 3.178976 1_555
Mg34 Mg40 3.185230 1_555
Mg34 Mg45 3.187726 1_555
Mg34 Mg39 3.188352 1_555
Mg34 Mg72 3.191114 1_555
Mg34 Mg35 3.194388 1_555
Mg35 Mg47 3.172093 1_555
Mg35 Mg50 3.178904 1_555
Mg35 Mg58 3.178976 1_565
Mg35 Mg42 3.185222 1_555
Mg35 Mg43 3.187727 1_565
Mg35 Mg39 3.188352 1_555
Mg35 Mg69 3.191114 1_565
Mg36 Mg48 3.172101 1_555
Mg36 Mg51 3.178912 1_555
Mg36 Mg59 3.178968 1_565
Mg36 Mg42 3.185230 1_555
Mg36 Mg44 3.187720 1_565
Mg36 Mg38 3.188353 1_555
Mg36 Mg68 3.191115 1_565
Mg37 Mg49 3.176422 1_555
Mg37 Mg65 3.178156 1_555
Mg37 Mg64 3.178163 1_555
Mg37 Mg7 3.182723 1_555
Mg37 Mg41 3.186246 1_555
Mg37 Mg40 3.186270 1_555
Mg37 Mg39 3.188160 1_555
Mg37 Mg38 3.188161 1_555
Mg38 Mg51 3.176422 1_555
Mg38 Mg65 3.178156 1_555
Mg38 Mg66 3.178163 1_555
Mg38 Mg41 3.186239 1_555
Mg38 Mg42 3.186263 1_555
Mg38 Mg39 3.188159 1_555
Mg39 Mg50 3.176438 1_555
Mg39 Mg66 3.178156 1_555
Mg39 Mg64 3.178156 1_555
Mg39 Mg42 3.186248 1_555
Mg39 Mg40 3.186264 1_555
Mg40 Mg64 3.179287 1_555
Mg40 Mg63 3.181079 1_555
Mg40 Mg61 3.181080 1_555
Mg41 Mg65 3.179279 1_555
Mg41 Mg62 3.181080 1_455
Mg41 Mg60 3.181088 1_455
Mg42 Mg66 3.179279 1_555
Mg42 Mg58 3.181079 1_565
Mg42 Mg59 3.181088 1_565
Mg43 Mg53 3.169117 1_555
Mg43 Mg5 3.182916 1_555
Mg43 Mg69 3.183773 1_555
Mg43 Mg70 3.183780 1_555
Mg43 Mg46 3.194881 1_655
Mg43 Mg47 3.194882 1_545
Mg44 Mg52 3.169116 1_555
Mg44 Mg6 3.182917 1_555
Mg44 Mg68 3.183773 1_555
Mg44 Mg71 3.183780 1_555
Mg44 Mg46 3.194880 1_555
Mg44 Mg48 3.194881 1_545
Mg45 Mg54 3.169117 1_555
Mg45 Mg72 3.183772 1_555
Mg45 Mg73 3.183780 1_555
Mg45 Mg48 3.194881 1_655
Mg45 Mg47 3.194881 1_555
Mg46 Mg70 3.151197 1_455
Mg46 Mg71 3.151205 1_555
Mg46 Mg67 3.166447 1_555
Mg46 Pb0 3.225602 1_555
Mg47 Mg72 3.151205 1_555
Mg47 Mg69 3.151205 1_565
Mg47 Mg67 3.166447 1_665
Mg47 Pb0 3.225601 1_665
Mg48 Mg68 3.151205 1_565
Mg48 Mg73 3.151205 1_455
Mg48 Mg67 3.166447 1_565
Mg48 Pb0 3.225602 1_565
Mg49 Mg88 3.181621 1_555
Mg49 Mg81 3.182340 1_555
Mg49 Mg80 3.182348 1_555
Mg49 Mg71 3.188600 1_555
Mg49 Mg70 3.188607 1_455
Mg49 Mg64 3.189068 1_555
Mg49 Mg65 3.189070 1_555
Mg49 Mg61 3.189120 1_555
Mg49 Mg60 3.189120 1_455
Mg50 Mg90 3.181628 1_555
Mg50 Mg93 3.182332 1_555
Mg50 Mg96 3.182340 1_555
Mg50 Mg72 3.188599 1_555
Mg50 Mg69 3.188607 1_565
Mg50 Mg64 3.189076 1_555
Mg50 Mg66 3.189084 1_555
Mg50 Mg63 3.189113 1_555
Mg50 Mg58 3.189129 1_565
Mg51 Mg91 3.181621 1_555
Mg51 Mg95 3.182340 1_555
Mg51 Mg92 3.182348 1_555
Mg51 Mg73 3.188599 1_455
Mg51 Mg68 3.188616 1_565
Mg51 Mg66 3.189068 1_555
Mg51 Mg65 3.189069 1_555
Mg51 Mg59 3.189120 1_565
Mg51 Mg62 3.189120 1_455
Mg52 Mg75 3.182030 1_555
Mg52 Mg82 3.182030 1_555
Mg52 Mg77 3.183168 1_555
Mg52 Mg55 3.185394 1_555
Mg52 Mg56 3.185394 1_555
Mg52 Mg61 3.186784 1_555
Mg52 Mg59 3.186784 1_555
Mg52 Mg68 3.187906 1_555
Mg52 Mg71 3.187914 1_555
Mg53 Mg76 3.182030 1_555
Mg53 Mg83 3.182030 1_555
Mg53 Mg78 3.183168 1_555
Mg53 Mg55 3.185410 1_555
Mg53 Mg57 3.185411 1_555
Mg53 Mg60 3.186783 1_555
Mg53 Mg58 3.186783 1_555
Mg53 Mg69 3.187908 1_555
Mg53 Mg70 3.187922 1_555
Mg54 Mg85 3.182030 1_555
Mg54 Mg84 3.182038 1_555
Mg54 Mg89 3.183168 1_555
Mg54 Mg57 3.185395 1_555
Mg54 Mg56 3.185410 1_555
Mg54 Mg62 3.186783 1_555
Mg54 Mg63 3.186783 1_555
Mg54 Mg72 3.187908 1_555
Mg54 Mg73 3.187914 1_555
Mg55 Mg79 3.180824 1_555
Mg55 Mg75 3.181813 1_555
Mg55 Mg76 3.181821 1_555
Mg55 Mg56 3.184472 1_555
Mg55 Mg57 3.184486 1_555
Mg55 Mg59 3.188772 1_555
Mg55 Mg58 3.188781 1_555
Mg56 Mg79 3.180824 1_555
Mg56 Mg82 3.181813 1_555
Mg56 Mg85 3.181813 1_555
Mg56 Mg57 3.184478 1_555
Mg56 Mg61 3.188772 1_555
Mg56 Mg63 3.188781 1_555
Mg57 Mg79 3.180831 1_555
Mg57 Mg84 3.181805 1_555
Mg57 Mg83 3.181821 1_555
Mg57 Mg62 3.188772 1_555
Mg57 Mg60 3.188780 1_555
Mg58 Mg76 3.178265 1_555
Mg58 Mg96 3.179407 1_545
Mg58 Mg94 3.180122 1_545
Mg58 Mg69 3.186580 1_555
Mg58 Mg59 3.188465 1_555
Mg58 Mg66 3.190085 1_545
Mg59 Mg75 3.178265 1_555
Mg59 Mg95 3.179407 1_545
Mg59 Mg94 3.180115 1_545
Mg59 Mg68 3.186580 1_555
Mg59 Mg66 3.190086 1_545
Mg60 Mg83 3.178265 1_555
Mg60 Mg80 3.179399 1_655
Mg60 Mg87 3.180123 1_655
Mg60 Mg70 3.186589 1_555
Mg60 Mg62 3.188466 1_555
Mg60 Mg65 3.190085 1_655
Mg61 Mg82 3.178265 1_555
Mg61 Mg81 3.179407 1_555
Mg61 Mg86 3.180115 1_555
Mg61 Mg71 3.186572 1_555
Mg61 Mg63 3.188465 1_555
Mg61 Mg64 3.190086 1_555
Mg62 Mg84 3.178265 1_555
Mg62 Mg92 3.179407 1_655
Mg62 Mg87 3.180115 1_655
Mg62 Mg73 3.186573 1_555
Mg62 Mg65 3.190084 1_655
Mg63 Mg85 3.178273 1_555
Mg63 Mg93 3.179407 1_555
Mg63 Mg86 3.180122 1_555
Mg63 Mg72 3.186580 1_555
Mg63 Mg64 3.190084 1_555
Mg64 Mg88 3.180149 1_555
Mg64 Mg90 3.180149 1_555
Mg64 Mg86 3.180371 1_555
Mg64 Mg65 3.186534 1_555
Mg64 Mg66 3.186535 1_555
Mg65 Mg88 3.180149 1_555
Mg65 Mg91 3.180149 1_555
Mg65 Mg87 3.180370 1_555
Mg65 Mg66 3.186534 1_555
Mg66 Mg91 3.180149 1_555
Mg66 Mg90 3.180149 1_555
Mg66 Mg94 3.180371 1_555
Mg67 Mg97 3.172210 1_445
Mg67 Mg98 3.172218 1_545
Mg67 Mg74 3.172219 1_555
Mg67 Mg70 3.189337 1_455
Mg67 Mg68 3.189344 1_555
Mg67 Mg69 3.189344 1_455
Mg67 Mg72 3.189344 1_445
Mg67 Mg71 3.189352 1_555
Mg67 Mg73 3.189353 1_445
Mg68 Mg77 3.168771 1_555
Mg68 Mg95 3.170516 1_545
Mg68 Mg98 3.171895 1_545
Mg68 Mg71 3.184991 1_555
Mg68 Mg73 3.193701 1_445
Mg69 Mg78 3.168771 1_555
Mg69 Mg96 3.170516 1_545
Mg69 Mg97 3.171904 1_545
Mg69 Mg70 3.184982 1_555
Mg69 Mg72 3.193710 1_545
Mg70 Mg78 3.168778 1_555
Mg70 Mg80 3.170517 1_655
Mg70 Mg74 3.171896 1_655
Mg70 Mg71 3.193685 1_655
Mg71 Mg77 3.168779 1_555
Mg71 Mg81 3.170509 1_555
Mg71 Mg74 3.171895 1_555
Mg72 Mg89 3.168771 1_555
Mg72 Mg93 3.170516 1_555
Mg72 Mg97 3.171904 1_555
Mg72 Mg73 3.184990 1_555
Mg73 Mg89 3.168778 1_555
Mg73 Mg92 3.170500 1_655
Mg73 Mg98 3.171904 1_655
Mg74 Mg97 3.186163 1_445
Mg74 Mg98 3.186164 1_545
Mg74 Mg77 3.188136 1_555
Mg74 Mg78 3.188152 1_455
Mg74 Mg81 3.189797 1_555
Mg74 Mg80 3.189814 1_555
Mg75 Mg76 3.183543 1_555
Mg75 Mg94 3.185713 1_545
Mg75 Mg95 3.187267 1_545
Mg75 Mg79 3.187900 1_555
Mg75 Mg77 3.190217 1_555
Mg75 Mg82 3.192273 1_555
Mg76 Mg94 3.185720 1_545
Mg76 Mg96 3.187268 1_545
Mg76 Mg79 3.187909 1_555
Mg76 Mg78 3.190217 1_555
Mg76 Mg83 3.192272 1_555
Mg77 Mg99 3.168771 1_555
Mg77 Mg95 3.187929 1_545
Mg77 Mg81 3.187929 1_555
Mg77 Mg98 3.188136 1_545
Mg77 Mg82 3.190218 1_555
Mg78 Mg80 3.187920 1_655
Mg78 Mg96 3.187928 1_545
Mg78 Mg97 3.188145 1_545
Mg78 Mg83 3.190219 1_555
Mg79 Mg85 3.187893 1_555
Mg79 Mg82 3.187900 1_555
Mg79 Mg84 3.187908 1_555
Mg79 Mg83 3.187916 1_555
Mg80 Mg88 3.186120 1_555
Mg80 Mg87 3.187247 1_555
Mg80 Mg83 3.187251 1_455
Mg80 Mg81 3.189934 1_555
Mg81 Mg88 3.186113 1_555
Mg81 Mg86 3.187238 1_555
Mg81 Mg82 3.187267 1_555
Mg82 Mg85 3.183535 1_555
Mg82 Mg86 3.185713 1_555
Mg83 Mg84 3.183528 1_555
Mg83 Mg87 3.185720 1_655
Mg84 Mg87 3.185704 1_655
Mg84 Mg92 3.187267 1_655
Mg84 Mg89 3.190235 1_555
Mg84 Mg85 3.192271 1_555
Mg85 Mg86 3.185728 1_555
Mg85 Mg93 3.187284 1_555
Mg85 Mg89 3.190225 1_555
Mg86 Mg93 3.187254 1_555
Mg86 Mg88 3.188278 1_555
Mg86 Mg90 3.188287 1_555
Mg87 Mg92 3.187247 1_555
Mg87 Mg91 3.188278 1_555
Mg87 Mg88 3.188285 1_555
Mg88 Mg90 3.192188 1_555
Mg88 Mg91 3.192189 1_555
Mg89 Mg92 3.187911 1_655
Mg89 Mg93 3.187927 1_555
Mg89 Mg97 3.188145 1_555
Mg89 Mg98 3.188152 1_655
Mg90 Mg93 3.186111 1_555
Mg90 Mg96 3.186112 1_555
Mg90 Mg94 3.188287 1_555
Mg90 Mg91 3.192188 1_555
Mg91 Mg95 3.186113 1_555
Mg91 Mg92 3.186127 1_555
Mg91 Mg94 3.188278 1_555
Mg92 Mg98 3.189798 1_555
Mg92 Mg95 3.189926 1_555
Mg93 Mg97 3.189813 1_555
Mg93 Mg96 3.189919 1_555
Mg94 Mg95 3.187238 1_555
Mg94 Mg96 3.187254 1_555
Mg95 Mg99 3.170516 1_565
Mg95 Mg98 3.189797 1_555
Mg96 Mg97 3.189813 1_555
Mg97 Mg98 3.186162 1_655
Mg98 Mg99 3.171895 1_565
Mg100 Mg125 3.151205 1_545
Mg100 Mg78 3.168771 1_555
Mg100 Mg96 3.170516 1_545
Mg100 Mg97 3.171904 1_545
Mg100 Mg127 3.183773 1_555
Mg100 Mg101 3.184982 1_555
Mg100 Mg109 3.186580 1_555
Mg100 Mg119 3.187908 1_555
Mg100 Mg122 3.188607 1_545
Mg100 Mg105 3.189344 1_655
Mg100 Mg140 3.191114 1_545
Mg100 Mg103 3.193710 1_545
Mg101 Mg124 3.151197 1_655
Mg101 Mg78 3.168778 1_555
Mg101 Mg80 3.170517 1_655
Mg101 Mg74 3.171896 1_655
Mg101 Mg127 3.183780 1_555
Mg101 Mg111 3.186589 1_555
Mg101 Mg119 3.187922 1_555
Mg101 Mg121 3.188607 1_655
Mg101 Mg105 3.189337 1_655
Mg101 Mg136 3.191115 1_655
Mg101 Mg102 3.193685 1_655
Mg102 Mg124 3.151205 1_555
Mg102 Mg77 3.168779 1_555
Mg102 Mg81 3.170509 1_555
Mg102 Mg74 3.171895 1_555
Mg102 Mg128 3.183780 1_555
Mg102 Mg99 3.184991 1_555
Mg102 Mg112 3.186572 1_555
Mg102 Mg118 3.187914 1_555
Mg102 Mg121 3.188600 1_555
Mg102 Mg105 3.189352 1_555
Mg102 Mg137 3.191107 1_555
Mg103 Mg125 3.151205 1_555
Mg103 Mg89 3.168771 1_555
Mg103 Mg93 3.170516 1_555
Mg103 Mg97 3.171904 1_555
Mg103 Mg129 3.183772 1_555
Mg103 Mg104 3.184990 1_555
Mg103 Mg114 3.186580 1_555
Mg103 Mg120 3.187908 1_555
Mg103 Mg122 3.188599 1_555
Mg103 Mg105 3.189344 1_665
Mg103 Mg139 3.191114 1_555
Mg104 Mg126 3.151205 1_655
Mg104 Mg89 3.168778 1_555
Mg104 Mg92 3.170500 1_655
Mg104 Mg98 3.171904 1_655
Mg104 Mg129 3.183780 1_555
Mg104 Mg113 3.186573 1_555
Mg104 Mg120 3.187914 1_555
Mg104 Mg123 3.188599 1_655
Mg104 Mg105 3.189353 1_665
Mg104 Mg138 3.191107 1_655
Mg104 Mg99 3.193701 1_665
Mg105 Mg125 3.166447 1_445
Mg105 Mg124 3.166447 1_555
Mg105 Mg126 3.166447 1_545
Mg105 Mg97 3.172210 1_445
Mg105 Mg98 3.172218 1_545
Mg105 Mg74 3.172219 1_555
Mg105 Mg99 3.189344 1_555
Mg106 Mg135 3.178143 1_555
Mg106 Mg133 3.178151 1_555
Mg106 Mg130 3.179287 1_555
Mg106 Mg88 3.180149 1_555
Mg106 Mg90 3.180149 1_555
Mg106 Mg86 3.180371 1_555
Mg106 Mg107 3.186534 1_555
Mg106 Mg108 3.186535 1_555
Mg106 Mg121 3.189068 1_555
Mg106 Mg122 3.189076 1_555
Mg106 Mg114 3.190084 1_555
Mg106 Mg112 3.190086 1_555
Mg107 Mg133 3.178143 1_555
Mg107 Mg134 3.178143 1_555
Mg107 Mg131 3.179279 1_555
Mg107 Mg88 3.180149 1_555
Mg107 Mg91 3.180149 1_555
Mg107 Mg87 3.180370 1_555
Mg107 Mg108 3.186534 1_555
Mg107 Mg123 3.189069 1_555
Mg107 Mg121 3.189070 1_555
Mg107 Mg113 3.190084 1_455
Mg107 Mg111 3.190085 1_455
Mg108 Mg135 3.178143 1_555
Mg108 Mg134 3.178151 1_555
Mg108 Mg132 3.179279 1_555
Mg108 Mg91 3.180149 1_555
Mg108 Mg90 3.180149 1_555
Mg108 Mg94 3.180371 1_555
Mg108 Mg123 3.189068 1_555
Mg108 Mg122 3.189084 1_555
Mg108 Mg109 3.190085 1_565
Mg108 Mg110 3.190086 1_565
Mg109 Mg76 3.178265 1_555
Mg109 Mg140 3.178976 1_545
Mg109 Mg96 3.179407 1_545
Mg109 Mg94 3.180122 1_545
Mg109 Mg132 3.181079 1_545
Mg109 Mg144 3.181170 1_555
Mg109 Mg119 3.186783 1_555
Mg109 Mg110 3.188465 1_555
Mg109 Mg115 3.188781 1_555
Mg109 Mg122 3.189129 1_545
Mg110 Mg75 3.178265 1_555
Mg110 Mg141 3.178968 1_545
Mg110 Mg95 3.179407 1_545
Mg110 Mg94 3.180115 1_545
Mg110 Mg132 3.181088 1_545
Mg110 Mg143 3.181162 1_555
Mg110 Mg99 3.186580 1_555
Mg110 Mg118 3.186784 1_555
Mg110 Mg115 3.188772 1_555
Mg110 Mg123 3.189120 1_545
Mg111 Mg83 3.178265 1_555
Mg111 Mg136 3.178976 1_655
Mg111 Mg80 3.179399 1_655
Mg111 Mg87 3.180123 1_655
Mg111 Mg131 3.181088 1_655
Mg111 Mg146 3.181170 1_555
Mg111 Mg119 3.186783 1_555
Mg111 Mg113 3.188466 1_555
Mg111 Mg117 3.188780 1_555
Mg111 Mg121 3.189120 1_655
Mg112 Mg82 3.178265 1_555
Mg112 Mg137 3.178968 1_555
Mg112 Mg81 3.179407 1_555
Mg112 Mg86 3.180115 1_555
Mg112 Mg130 3.181080 1_555
Mg112 Mg145 3.181162 1_555
Mg112 Mg118 3.186784 1_555
Mg112 Mg114 3.188465 1_555
Mg112 Mg116 3.188772 1_555
Mg112 Mg121 3.189120 1_555
Mg113 Mg84 3.178265 1_555
Mg113 Mg138 3.178976 1_655
Mg113 Mg92 3.179407 1_655
Mg113 Mg87 3.180115 1_655
Mg113 Mg131 3.181080 1_655
Mg113 Mg147 3.181170 1_555
Mg113 Mg120 3.186783 1_555
Mg113 Mg117 3.188772 1_555
Mg113 Mg123 3.189120 1_655
Mg114 Mg85 3.178273 1_555
Mg114 Mg139 3.178976 1_555
Mg114 Mg93 3.179407 1_555
Mg114 Mg86 3.180122 1_555
Mg114 Mg130 3.181079 1_555
Mg114 Mg148 3.181162 1_555
Mg114 Mg120 3.186783 1_555
Mg114 Mg116 3.188781 1_555
Mg114 Mg122 3.189113 1_555
Mg115 Mg142 3.176125 1_555
Mg115 Mg143 3.179266 1_555
Mg115 Mg144 3.179266 1_555
Mg115 Mg79 3.180824 1_555
Mg115 Mg75 3.181813 1_555
Mg115 Mg76 3.181821 1_555
Mg115 Mg116 3.184472 1_555
Mg115 Mg117 3.184486 1_555
Mg115 Mg118 3.185394 1_555
Mg115 Mg119 3.185410 1_555
Mg116 Mg142 3.176125 1_555
Mg116 Mg145 3.179266 1_555
Mg116 Mg148 3.179274 1_555
Mg116 Mg79 3.180824 1_555
Mg116 Mg82 3.181813 1_555
Mg116 Mg85 3.181813 1_555
Mg116 Mg117 3.184478 1_555
Mg116 Mg118 3.185394 1_555
Mg116 Mg120 3.185410 1_555
Mg117 Mg142 3.176132 1_555
Mg117 Mg146 3.179266 1_555
Mg117 Mg147 3.179266 1_555
Mg117 Mg79 3.180831 1_555
Mg117 Mg84 3.181805 1_555
Mg117 Mg83 3.181821 1_555
Mg117 Mg120 3.185395 1_555
Mg117 Mg119 3.185411 1_555
Mg118 Mg128 3.169116 1_555
Mg118 Mg143 3.180519 1_555
Mg118 Mg145 3.180520 1_555
Mg118 Mg75 3.182030 1_555
Mg118 Mg82 3.182030 1_555
Mg118 Mg77 3.183168 1_555
Mg118 Mg99 3.187906 1_555
Mg119 Mg127 3.169117 1_555
Mg119 Mg144 3.180519 1_555
Mg119 Mg146 3.180520 1_555
Mg119 Mg76 3.182030 1_555
Mg119 Mg83 3.182030 1_555
Mg119 Mg78 3.183168 1_555
Mg120 Mg129 3.169117 1_555
Mg120 Mg147 3.180511 1_555
Mg120 Mg148 3.180519 1_555
Mg120 Mg85 3.182030 1_555
Mg120 Mg84 3.182038 1_555
Mg120 Mg89 3.183168 1_555
Mg121 Mg133 3.176409 1_555
Mg121 Mg136 3.178904 1_555
Mg121 Mg137 3.178912 1_555
Mg121 Mg88 3.181621 1_555
Mg121 Mg81 3.182340 1_555
Mg121 Mg80 3.182348 1_555
Mg122 Mg135 3.176425 1_555
Mg122 Mg139 3.178896 1_555
Mg122 Mg140 3.178904 1_555
Mg122 Mg90 3.181628 1_555
Mg122 Mg93 3.182332 1_555
Mg122 Mg96 3.182340 1_555
Mg123 Mg134 3.176409 1_555
Mg123 Mg138 3.178904 1_555
Mg123 Mg141 3.178912 1_555
Mg123 Mg91 3.181621 1_555
Mg123 Mg95 3.182340 1_555
Mg123 Mg92 3.182348 1_555
Mg123 Mg99 3.188616 1_565
Mg124 Mg136 3.172094 1_555
Mg124 Mg137 3.172101 1_555
Mg124 Mg128 3.194880 1_555
Mg124 Mg127 3.194881 1_455
Mg124 Pb0 3.225602 1_556
Mg125 Mg140 3.172093 1_555
Mg125 Mg139 3.172093 1_555
Mg125 Mg129 3.194881 1_555
Mg125 Mg127 3.194882 1_565
Mg125 Pb0 3.225601 1_666
Mg126 Mg99 3.151205 1_565
Mg126 Mg138 3.172094 1_555
Mg126 Mg141 3.172101 1_555
Mg126 Mg129 3.194881 1_455
Mg126 Mg128 3.194881 1_565
Mg126 Pb0 3.225602 1_566
Mg127 Mg5 3.182916 1_556
Mg127 Mg144 3.183640 1_555
Mg127 Mg146 3.183642 1_555
Mg127 Mg2 3.184930 1_556
Mg127 Mg136 3.187727 1_655
Mg127 Mg140 3.187727 1_545
Mg128 Mg6 3.182917 1_556
Mg128 Mg143 3.183632 1_555
Mg128 Mg145 3.183633 1_555
Mg128 Mg99 3.183773 1_555
Mg128 Mg3 3.184930 1_556
Mg128 Mg137 3.187720 1_555
Mg128 Mg141 3.187720 1_545
Mg129 Mg17 3.182916 1_556
Mg129 Mg18 3.182925 1_556
Mg129 Mg147 3.183626 1_555
Mg129 Mg148 3.183633 1_555
Mg129 Mg14 3.184931 1_556
Mg129 Mg139 3.187726 1_555
Mg129 Mg138 3.187726 1_655
Mg130 Mg15 3.178041 1_556
Mg130 Mg137 3.185222 1_555
Mg130 Mg139 3.185230 1_555
Mg130 Mg135 3.186264 1_555
Mg130 Mg133 3.186270 1_555
Mg130 Mg148 3.188630 1_555
Mg130 Mg145 3.188632 1_555
Mg131 Mg16 3.178032 1_556
Mg131 Mg138 3.185223 1_555
Mg131 Mg136 3.185239 1_555
Mg131 Mg134 3.186239 1_555
Mg131 Mg133 3.186246 1_555
Mg131 Mg147 3.188654 1_455
Mg131 Mg146 3.188654 1_455
Mg132 Mg23 3.173303 1_556
Mg132 Mg22 3.173311 1_556
Mg132 Mg19 3.178033 1_556
Mg132 Mg140 3.185222 1_555
Mg132 Mg141 3.185230 1_555
Mg132 Mg135 3.186248 1_555
Mg132 Mg134 3.186263 1_555
Mg132 Mg144 3.188646 1_565
Mg132 Mg143 3.188647 1_565
Mg133 Mg16 3.181202 1_556
Mg133 Mg15 3.181210 1_556
Mg133 Mg7 3.182735 1_556
Mg133 Mg135 3.188160 1_555
Mg133 Mg134 3.188161 1_555
Mg133 Mg136 3.188336 1_555
Mg133 Mg137 3.188353 1_555
Mg134 Mg16 3.181203 1_556
Mg134 Mg19 3.181210 1_556
Mg134 Mg20 3.182727 1_556
Mg134 Mg135 3.188159 1_555
Mg134 Mg138 3.188336 1_555
Mg134 Mg141 3.188353 1_555
Mg135 Mg19 3.181202 1_556
Mg135 Mg15 3.181203 1_556
Mg135 Mg21 3.182735 1_556
Mg135 Mg139 3.188352 1_555
Mg135 Mg140 3.188352 1_555
Mg136 Mg5 3.159991 1_456
Mg136 Mg7 3.179094 1_556
Mg136 Mg146 3.185852 1_455
Mg136 Mg137 3.194402 1_555
Mg137 Mg6 3.159991 1_556
Mg137 Mg7 3.179103 1_556
Mg137 Mg145 3.185820 1_555
Mg138 Mg17 3.159991 1_456
Mg138 Mg20 3.179094 1_556
Mg138 Mg147 3.185844 1_455
Mg138 Mg141 3.194403 1_555
Mg139 Mg18 3.159990 1_556
Mg139 Mg21 3.179103 1_556
Mg139 Mg148 3.185837 1_555
Mg139 Mg140 3.194388 1_555
Mg140 Mg21 3.179095 1_556
Mg140 Mg23 3.182729 1_556
Mg140 Mg144 3.185853 1_565
Mg141 Mg20 3.179111 1_556
Mg141 Mg22 3.182721 1_556
Mg141 Mg143 3.185820 1_565
Mg141 Mg99 3.191115 1_565
Mg142 Mg8 3.178687 1_556
Mg142 Mg4 3.178695 1_556
Mg142 Mg9 3.178703 1_556
Mg142 Mg144 3.187091 1_555
Mg142 Mg146 3.187097 1_555
Mg142 Mg145 3.187097 1_555
Mg142 Mg143 3.187098 1_555
Mg142 Mg147 3.187106 1_555
Mg142 Mg148 3.187107 1_555
Mg143 Mg3 3.176864 1_556
Mg143 Mg4 3.176951 1_556
Mg143 Mg22 3.178202 1_546
Mg143 Mg144 3.183714 1_555
Mg143 Mg145 3.190486 1_555
Mg144 Mg2 3.176864 1_556
Mg144 Mg4 3.176943 1_556
Mg144 Mg23 3.178210 1_546
Mg144 Mg146 3.190469 1_555
Mg145 Mg3 3.176865 1_556
Mg145 Mg8 3.176951 1_556
Mg145 Mg148 3.183722 1_555
Mg146 Mg2 3.176864 1_556
Mg146 Mg9 3.176943 1_556
Mg146 Mg147 3.183723 1_555
Mg147 Mg9 3.176951 1_556
Mg147 Mg148 3.190469 1_555
Mg148 Mg8 3.176959 1_556
