# generated using pymatgen
data_SrPrGa3O7
_symmetry_space_group_name_H-M   'P 1'
_cell_length_a   8.09475845
_cell_length_b   8.09475845
_cell_length_c   5.36793700
_cell_angle_alpha   90.00000000
_cell_angle_beta   90.00000000
_cell_angle_gamma   90.27174151
_symmetry_Int_Tables_number   1
_chemical_formula_structural   SrPrGa3O7
_chemical_formula_sum   'Sr2 Pr2 Ga6 O14'
_cell_volume   351.73073011
_cell_formula_units_Z   2
loop_
 _symmetry_equiv_pos_site_id
 _symmetry_equiv_pos_as_xyz
  1  'x, y, z'
loop_
 _atom_site_type_symbol
 _atom_site_label
 _atom_site_symmetry_multiplicity
 _atom_site_fract_x
 _atom_site_fract_y
 _atom_site_fract_z
 _atom_site_occupancy
  Sr  Sr0  1  0.16155600  0.83844400  0.49017800  1
  Sr  Sr1  1  0.83844400  0.16155600  0.49017800  1
  Pr  Pr0  1  0.66276100  0.66276100  0.51092800  1
  Pr  Pr1  1  0.33723900  0.33723900  0.51092800  1
  Ga  Ga0  1  0.35716700  0.64283300  0.03462700  1
  Ga  Ga1  1  0.85548500  0.85548500  0.96575700  1
  Ga  Ga2  1  0.64283300  0.35716700  0.03462700  1
  Ga  Ga3  1  0.14451500  0.14451500  0.96575700  1
  Ga  Ga4  1  0.50000000  0.00000000  0.99847600  1
  Ga  Ga5  1  0.00000000  0.50000000  0.99847600  1
  O  O0  1  0.00000000  0.00000000  0.81369500  1
  O  O1  1  0.50000000  0.50000000  0.20548900  1
  O  O2  1  0.41887300  0.83516300  0.20502800  1
  O  O3  1  0.90629700  0.65916400  0.79100800  1
  O  O4  1  0.58112700  0.16483700  0.20502800  1
  O  O5  1  0.09370300  0.34083600  0.79100800  1
  O  O6  1  0.34083600  0.09370300  0.79100800  1
  O  O7  1  0.83516300  0.41887300  0.20502800  1
  O  O8  1  0.65916400  0.90629700  0.79100800  1
  O  O9  1  0.16483700  0.58112700  0.20502800  1
  O  O10  1  0.36972900  0.63027100  0.69578000  1
  O  O11  1  0.85058500  0.85058500  0.30258900  1
  O  O12  1  0.63027100  0.36972900  0.69578000  1
  O  O13  1  0.14941500  0.14941500  0.30258900  1
loop_
_geom_bond_atom_site_label_1
_geom_bond_atom_site_label_2
_geom_bond_distance
_geom_bond_site_symmetry_2
Ga0 O10 1.824612 1_554
Ga0 O2 1.871531 1_555
Ga0 O9 1.871531 1_555
Ga0 O1 1.878160 1_555
Ga1 O11 1.808959 1_556
Ga1 O0 1.841257 1_665
Ga1 O3 1.892291 1_555
Ga1 O8 1.892291 1_555
Ga2 O12 1.824612 1_554
Ga2 O7 1.871531 1_555
Ga2 O4 1.871531 1_555
Ga2 O1 1.878160 1_555
Ga3 O13 1.808959 1_556
Ga3 O0 1.841257 1_555
Ga3 O5 1.892291 1_555
Ga3 O6 1.892291 1_555
Ga4 O4 1.852752 1_556
Ga4 O2 1.852752 1_546
Ga4 O8 1.866770 1_545
Ga4 O6 1.866770 1_555
Ga5 O7 1.852752 1_456
Ga5 O9 1.852752 1_556
Ga5 O3 1.866770 1_455
Ga5 O5 1.866770 1_555
O0 Sr0 2.540182 1_545
O0 Sr1 2.540182 1_455
O1 Pr1 2.478592 1_555
O1 Pr0 2.478592 1_555
O2 Sr0 2.585096 1_555
O2 Pr0 2.927039 1_555
O3 Pr0 2.479524 1_555
O3 Sr0 2.992448 1_655
O4 Sr1 2.585096 1_555
O4 Pr1 2.927039 1_555
O5 Pr1 2.479524 1_555
O5 Sr1 2.992448 1_455
O6 Pr1 2.479524 1_555
O6 Sr0 2.992448 1_545
O7 Sr1 2.585096 1_555
O7 Pr0 2.927039 1_555
O8 Pr0 2.479524 1_555
O8 Sr1 2.992448 1_565
O9 Sr0 2.585096 1_555
O9 Pr1 2.927039 1_555
O10 Pr1 2.583477 1_555
O10 Pr0 2.583477 1_555
O10 Sr0 2.631386 1_555
O11 Pr0 2.419081 1_555
O11 Sr0 2.713385 1_655
O11 Sr1 2.713385 1_565
O12 Pr1 2.583477 1_555
O12 Pr0 2.583477 1_555
O12 Sr1 2.631386 1_555
O13 Pr1 2.419081 1_555
O13 Sr0 2.713385 1_545
O13 Sr1 2.713385 1_455
