# generated using pymatgen
data_Mg14VSb
_symmetry_space_group_name_H-M   'P 1'
_cell_length_a   6.32936427
_cell_length_b   6.25900996
_cell_length_c   10.30984040
_cell_angle_alpha   90.00000000
_cell_angle_beta   90.00000000
_cell_angle_gamma   119.63298228
_symmetry_Int_Tables_number   1
_chemical_formula_structural   Mg14VSb
_chemical_formula_sum   'Mg14 V1 Sb1'
_cell_volume   355.01165699
_cell_formula_units_Z   1
loop_
 _symmetry_equiv_pos_site_id
 _symmetry_equiv_pos_as_xyz
  1  'x, y, z'
loop_
 _atom_site_type_symbol
 _atom_site_label
 _atom_site_symmetry_multiplicity
 _atom_site_fract_x
 _atom_site_fract_y
 _atom_site_fract_z
 _atom_site_occupancy
  Mg  Mg0  1  0.16665704  0.33332802  0.62500000  1
  Mg  Mg1  1  0.16640149  0.83320025  0.62500000  1
  Mg  Mg2  1  0.66774522  0.33260901  0.12500000  1
  Mg  Mg3  1  0.66634737  0.33342327  0.62500000  1
  Mg  Mg4  1  0.66774522  0.83513520  0.12500000  1
  Mg  Mg5  1  0.66634737  0.83292310  0.62500000  1
  Mg  Mg6  1  0.33231750  0.17037803  0.37378741  1
  Mg  Mg7  1  0.33231750  0.17037803  0.87621259  1
  Mg  Mg8  1  0.33231750  0.66194048  0.37378741  1
  Mg  Mg9  1  0.33231750  0.66194048  0.87621259  1
  Mg  Mg10  1  0.83783194  0.16891647  0.37343372  1
  Mg  Mg11  1  0.83783194  0.16891647  0.87656628  1
  Mg  Mg12  1  0.83166451  0.66583275  0.37692897  1
  Mg  Mg13  1  0.83166451  0.66583275  0.87307103  1
  V  V0  1  0.16647064  0.33323482  0.12500000  1
  Sb  Sb0  1  0.16402273  0.83201087  0.12500000  1
loop_
_geom_bond_atom_site_label_1
_geom_bond_atom_site_label_2
_geom_bond_distance
_geom_bond_site_symmetry_2
Mg0 Mg1 3.129505 1_545
Mg0 Mg1 3.129505 1_555
Mg0 Mg7 3.147225 1_555
Mg0 Mg6 3.147225 1_555
Mg0 Mg8 3.147231 1_555
Mg0 Mg9 3.147231 1_555
Mg0 Mg10 3.162192 1_455
Mg0 Mg11 3.162192 1_455
Mg0 Mg5 3.162427 1_555
Mg0 Mg3 3.162427 1_555
Mg0 Mg5 3.166937 1_445
Mg0 Mg3 3.166937 1_455
Mg1 Mg13 3.151597 1_455
Mg1 Mg12 3.151597 1_455
Mg1 Mg3 3.164167 1_455
Mg1 Mg5 3.164167 1_455
Mg1 Mg3 3.165197 1_565
Mg1 Mg5 3.165198 1_555
Mg1 Mg8 3.173777 1_555
Mg1 Mg9 3.173777 1_555
Mg1 Mg7 3.173783 1_565
Mg1 Mg6 3.173783 1_565
Mg2 Mg4 3.113694 1_545
Mg2 Mg4 3.145316 1_555
Mg2 Sb0 3.150836 1_655
Mg2 V0 3.154680 1_655
Mg2 Mg6 3.159998 1_555
Mg2 Mg7 3.159998 1_554
Mg2 V0 3.174688 1_555
Mg2 Sb0 3.178619 1_545
Mg3 Mg5 3.126374 1_555
Mg3 Mg5 3.132636 1_545
Mg3 Mg7 3.175782 1_555
Mg3 Mg6 3.175782 1_555
Mg4 Sb0 3.150836 1_655
Mg4 V0 3.154680 1_665
Mg4 Mg8 3.159998 1_555
Mg4 Mg9 3.159998 1_554
Mg4 V0 3.174688 1_555
Mg4 Sb0 3.178620 1_555
Mg5 Mg9 3.175782 1_555
Mg5 Mg8 3.175782 1_555
Mg6 Mg8 3.076694 1_555
Mg6 V0 3.126980 1_555
Mg6 Sb0 3.157225 1_545
Mg6 Mg8 3.182316 1_545
Mg7 Mg9 3.076694 1_555
Mg7 V0 3.126980 1_556
Mg7 Sb0 3.157225 1_546
Mg7 Mg9 3.182316 1_545
Mg8 V0 3.126986 1_555
Mg8 Sb0 3.157219 1_555
Mg9 V0 3.126986 1_556
Mg9 Sb0 3.157219 1_556
Mg10 Mg8 3.125268 1_655
Mg10 Mg6 3.125268 1_655
Mg10 Mg12 3.129896 1_555
Mg10 Mg12 3.129896 1_545
Mg10 V0 3.135166 1_655
Mg10 Mg2 3.140013 1_555
Mg10 Mg4 3.140019 1_545
Mg10 Mg3 3.173357 1_555
Mg10 Mg5 3.173364 1_545
Mg10 Mg8 3.204120 1_545
Mg10 Mg6 3.204120 1_555
Mg11 Mg9 3.125268 1_655
Mg11 Mg7 3.125268 1_655
Mg11 Mg13 3.129896 1_555
Mg11 Mg13 3.129896 1_545
Mg11 V0 3.135166 1_656
Mg11 Mg2 3.140013 1_556
Mg11 Mg4 3.140019 1_546
Mg11 Mg3 3.173357 1_555
Mg11 Mg5 3.173364 1_545
Mg11 Mg9 3.204120 1_545
Mg11 Mg7 3.204120 1_555
Mg12 Mg5 3.132396 1_555
Mg12 Mg3 3.132402 1_555
Mg12 Mg6 3.148741 1_555
Mg12 Mg8 3.148741 1_555
Mg12 Mg4 3.167445 1_555
Mg12 Mg2 3.167451 1_555
Mg12 Sb0 3.176409 1_655
Mg12 Mg6 3.181096 1_665
Mg12 Mg8 3.181096 1_655
Mg13 Mg5 3.132396 1_555
Mg13 Mg3 3.132402 1_555
Mg13 Mg7 3.148741 1_555
Mg13 Mg9 3.148741 1_555
Mg13 Mg4 3.167445 1_556
Mg13 Mg2 3.167451 1_556
Mg13 Sb0 3.176409 1_656
Mg13 Mg7 3.181096 1_665
Mg13 Mg9 3.181096 1_655
Sb0 V0 3.129534 1_565
Sb0 V0 3.129534 1_555
