# generated using pymatgen
data_MgTl4(NiO3)4
_symmetry_space_group_name_H-M   'P 1'
_cell_length_a   5.36293757
_cell_length_b   5.63181267
_cell_length_c   8.56744102
_cell_angle_alpha   95.83026605
_cell_angle_beta   94.30712867
_cell_angle_gamma   86.53420952
_symmetry_Int_Tables_number   1
_chemical_formula_structural   MgTl4(NiO3)4
_chemical_formula_sum   'Mg1 Tl4 Ni4 O12'
_cell_volume   256.33320321
_cell_formula_units_Z   1
loop_
 _symmetry_equiv_pos_site_id
 _symmetry_equiv_pos_as_xyz
  1  'x, y, z'
loop_
 _atom_site_type_symbol
 _atom_site_label
 _atom_site_symmetry_multiplicity
 _atom_site_fract_x
 _atom_site_fract_y
 _atom_site_fract_z
 _atom_site_occupancy
  Mg  Mg0  1  0.09445900  0.77839200  0.38886300  1
  Tl  Tl0  1  0.55742300  0.56815200  0.22833400  1
  Tl  Tl1  1  0.03007600  0.93673600  0.75423300  1
  Tl  Tl2  1  0.47393400  0.44189000  0.76194100  1
  Tl  Tl3  1  0.02342100  0.13325300  0.18197100  1
  Ni  Ni0  1  0.51951900  0.01197200  0.97578100  1
  Ni  Ni1  1  0.53026400  0.01044300  0.50630600  1
  Ni  Ni2  1  0.95939100  0.43454400  0.53969200  1
  Ni  Ni3  1  0.01142300  0.53491200  0.98635500  1
  O  O0  1  0.75157000  0.23129100  0.40813600  1
  O  O1  1  0.69921700  0.31266700  0.04147400  1
  O  O2  1  0.18820000  0.17537200  0.58128400  1
  O  O3  1  0.76436600  0.71177600  0.45193100  1
  O  O4  1  0.79698900  0.82454800  0.07173400  1
  O  O5  1  0.35254900  0.93950800  0.29190900  1
  O  O6  1  0.20979400  0.20788400  0.93757500  1
  O  O7  1  0.62825400  0.05623900  0.74289600  1
  O  O8  1  0.86594900  0.55218900  0.76310900  1
  O  O9  1  0.31258900  0.73002700  0.93302200  1
  O  O10  1  0.14353000  0.50418200  0.21879700  1
  O  O11  1  0.23708200  0.65402300  0.58465600  1
loop_
_geom_bond_atom_site_label_1
_geom_bond_atom_site_label_2
_geom_bond_distance
_geom_bond_site_symmetry_2
Mg0 O3 1.957478 1_455
Mg0 O11 1.967399 1_555
Mg0 O5 1.976553 1_555
Mg0 O10 2.031840 1_555
Mg0 O2 2.689146 1_565
Ni0 O4 1.951129 1_546
Ni0 O6 1.963076 1_555
Ni0 O9 1.980117 1_545
Ni0 O1 2.008858 1_556
Ni0 O7 2.162530 1_555
Ni1 O5 2.018886 1_545
Ni1 O7 2.049749 1_555
Ni1 O0 2.050347 1_555
Ni1 O3 2.072635 1_545
Ni1 O2 2.119066 1_555
Ni2 O0 1.877838 1_555
Ni2 O2 1.893837 1_655
Ni2 O11 1.983366 1_655
Ni2 O3 2.004972 1_555
Ni2 O8 2.049441 1_555
Ni3 O8 2.020110 1_455
Ni3 O4 2.043387 1_456
Ni3 O10 2.083501 1_556
Ni3 O6 2.090939 1_555
Ni3 O9 2.110061 1_555
Ni3 O1 2.255050 1_456
O0 Tl3 2.508891 1_655
O0 Tl0 2.677720 1_555
O1 Tl0 2.189529 1_555
O1 Tl3 2.283246 1_655
O1 Tl2 2.745536 1_554
O2 Tl1 2.334943 1_545
O2 Tl2 2.539006 1_555
O3 Tl0 2.242786 1_555
O4 Tl3 2.266853 1_665
O4 Tl0 2.532307 1_555
O5 Tl3 2.217995 1_565
O5 Tl0 2.336341 1_555
O6 Tl1 2.278462 1_545
O6 Tl3 2.470590 1_556
O6 Tl2 2.637509 1_555
O7 Tl1 2.216455 1_645
O7 Tl2 2.271504 1_555
O8 Tl2 2.226954 1_555
O8 Tl1 2.396825 1_655
O9 Tl2 2.251188 1_555
O9 Tl1 2.407800 1_555
O10 Tl3 2.208314 1_555
O10 Tl0 2.264270 1_555
O11 Tl2 2.289790 1_555
O11 Tl1 2.331707 1_555
