# generated using pymatgen
data_Al2O3
_symmetry_space_group_name_H-M   'P 1'
_cell_length_a   10.32268187
_cell_length_b   9.90617584
_cell_length_c   11.17170344
_cell_angle_alpha   94.77100555
_cell_angle_beta   90.88144249
_cell_angle_gamma   93.16483802
_symmetry_Int_Tables_number   1
_chemical_formula_structural   Al2O3
_chemical_formula_sum   'Al40 O60'
_cell_volume   1136.47569995
_cell_formula_units_Z   20
loop_
 _symmetry_equiv_pos_site_id
 _symmetry_equiv_pos_as_xyz
  1  'x, y, z'
loop_
 _atom_site_type_symbol
 _atom_site_label
 _atom_site_symmetry_multiplicity
 _atom_site_fract_x
 _atom_site_fract_y
 _atom_site_fract_z
 _atom_site_occupancy
  Al  Al0  1  0.82520400  0.38159100  0.76695900  1
  Al  Al1  1  0.61077500  0.81352700  0.18192200  1
  Al  Al2  1  0.63231000  0.74833800  0.73822300  1
  Al  Al3  1  0.09237800  0.73204000  0.33556700  1
  Al  Al4  1  0.89476500  0.51150300  0.18991000  1
  Al  Al5  1  0.30253500  0.87039100  0.52537700  1
  Al  Al6  1  0.05023100  0.62105000  0.72336300  1
  Al  Al7  1  0.01257900  0.20464000  0.56483400  1
  Al  Al8  1  0.54642600  0.27399200  0.16091400  1
  Al  Al9  1  0.81787500  0.25638200  0.00788800  1
  Al  Al10  1  0.31563000  0.59481200  0.46523800  1
  Al  Al11  1  0.21181500  0.41475900  0.65424000  1
  Al  Al12  1  0.74030100  0.40658400  0.42908300  1
  Al  Al13  1  0.84965000  0.72080700  0.53125200  1
  Al  Al14  1  0.45587700  0.98577600  0.06732000  1
  Al  Al15  1  0.06115100  0.90096800  0.66263700  1
  Al  Al16  1  0.13776800  0.04088700  0.14929500  1
  Al  Al17  1  0.72797000  0.92545200  0.94878100  1
  Al  Al18  1  0.57606700  0.26573300  0.62048100  1
  Al  Al19  1  0.47949700  0.07765600  0.38312100  1
  Al  Al20  1  0.50254300  0.01808000  0.77142900  1
  Al  Al21  1  0.19299100  0.60090500  0.94043300  1
  Al  Al22  1  0.87350500  0.65563800  0.92653400  1
  Al  Al23  1  0.02747000  0.98728000  0.42845300  1
  Al  Al24  1  0.35181800  0.84326700  0.24196800  1
  Al  Al25  1  0.42363500  0.35489500  0.41648300  1
  Al  Al26  1  0.11126700  0.32106700  0.04123100  1
  Al  Al27  1  0.61877600  0.46923900  0.85934600  1
  Al  Al28  1  0.04065100  0.88591700  0.89657400  1
  Al  Al29  1  0.76081600  0.08378700  0.47129500  1
  Al  Al30  1  0.88839600  0.94886800  0.21448900  1
  Al  Al31  1  0.59952700  0.54822900  0.28627100  1
  Al  Al32  1  0.58471700  0.80459600  0.46703400  1
  Al  Al33  1  0.28439900  0.13135200  0.98111100  1
  Al  Al34  1  0.32890400  0.82349200  0.80231600  1
  Al  Al35  1  0.48059300  0.68480900  0.93674900  1
  Al  Al36  1  0.33529400  0.55054800  0.18339100  1
  Al  Al37  1  0.06317400  0.20283100  0.80427700  1
  Al  Al38  1  0.87944100  0.22067300  0.24342000  1
  Al  Al39  1  0.98623000  0.48140500  0.44262400  1
  O  O0  1  0.05984300  0.90984900  0.26659200  1
  O  O1  1  0.20419900  0.20874900  0.12287200  1
  O  O2  1  0.75675700  0.09370900  0.97042100  1
  O  O3  1  0.90528300  0.04139500  0.54622400  1
  O  O4  1  0.47576900  0.22445900  0.29787600  1
  O  O5  1  0.91903700  0.26244000  0.69347000  1
  O  O6  1  0.18430100  0.52508700  0.78594000  1
  O  O7  1  0.14791500  0.95262000  0.54133100  1
  O  O8  1  0.74360200  0.37052600  0.91112100  1
  O  O9  1  0.95434900  0.75250900  0.65629500  1
  O  O10  1  0.38580600  0.98722600  0.89570900  1
  O  O11  1  0.15237100  0.24648400  0.66468100  1
  O  O12  1  0.89758500  0.32842800  0.38676700  1
  O  O13  1  0.56397700  0.84680400  0.01252000  1
  O  O14  1  0.46698900  0.71512300  0.77495400  1
  O  O15  1  0.60834200  0.98614900  0.46578700  1
  O  O16  1  0.52328800  0.96097000  0.22569400  1
  O  O17  1  0.95519500  0.34825600  0.14327300  1
  O  O18  1  0.87116800  0.83953000  0.91169600  1
  O  O19  1  0.16358400  0.79798900  0.75041300  1
  O  O20  1  0.07676300  0.16123300  0.42148600  1
  O  O21  1  0.97658800  0.27841200  0.93041300  1
  O  O22  1  0.45380500  0.70233600  0.16843200  1
  O  O23  1  0.03122800  0.01855300  0.78218600  1
  O  O24  1  0.84008000  0.54318100  0.50826800  1
  O  O25  1  0.45679200  0.16435600  0.05048400  1
  O  O26  1  0.91159900  0.54054900  0.79145200  1
  O  O27  1  0.20847400  0.49099700  0.06158400  1
  O  O28  1  0.19166700  0.71307800  0.47332900  1
  O  O29  1  0.20865700  0.24796900  0.89855500  1
  O  O30  1  0.72169500  0.25422600  0.15994900  1
  O  O31  1  0.33819800  0.45450900  0.55469100  1
  O  O32  1  0.50189300  0.44979100  0.17398100  1
  O  O33  1  0.01557400  0.56566000  0.30958700  1
  O  O34  1  0.81757300  0.06474700  0.32295300  1
  O  O35  1  0.96735100  0.09028600  0.15463500  1
  O  O36  1  0.14063300  0.99435600  0.98965900  1
  O  O37  1  0.43099700  0.73391200  0.49369300  1
  O  O38  1  0.32866800  0.48201300  0.33319400  1
  O  O39  1  0.94009500  0.80441900  0.41919700  1
  O  O40  1  0.75727100  0.49373400  0.28182800  1
  O  O41  1  0.70451800  0.24910500  0.50837700  1
  O  O42  1  0.23271400  0.70526600  0.24240800  1
  O  O43  1  0.57458500  0.46268900  0.42418100  1
  O  O44  1  0.68975500  0.75736400  0.58427000  1
  O  O45  1  0.54594200  0.17727100  0.74197800  1
  O  O46  1  0.65818800  0.41389100  0.70393400  1
  O  O47  1  0.76793400  0.85601200  0.13323600  1
  O  O48  1  0.69177500  0.64778300  0.85598500  1
  O  O49  1  0.63476600  0.72984600  0.32535000  1
  O  O50  1  0.38171500  0.92340500  0.67021900  1
  O  O51  1  0.64212800  0.91984400  0.79772600  1
  O  O52  1  0.08001300  0.49392200  0.57778300  1
  O  O53  1  0.48323700  0.50992400  0.93699500  1
  O  O54  1  0.44816800  0.21568400  0.51094400  1
  O  O55  1  0.86237700  0.59763200  0.06871400  1
  O  O56  1  0.31577800  0.73119400  0.94381500  1
  O  O57  1  0.05536700  0.70176200  0.92815200  1
  O  O58  1  0.29992100  0.96228800  0.14492700  1
  O  O59  1  0.35287500  0.94429700  0.38925000  1
loop_
_geom_bond_atom_site_label_1
_geom_bond_atom_site_label_2
_geom_bond_distance
_geom_bond_site_symmetry_2
Al0 O5 1.730585 1_555
Al0 O26 1.765094 1_555
Al0 O8 1.837472 1_555
Al0 O46 1.905658 1_555
Al1 O47 1.759165 1_555
Al1 O16 1.796798 1_555
Al1 O49 1.883453 1_555
Al1 O22 1.905074 1_555
Al1 O13 2.004210 1_555
Al2 O51 1.769096 1_555
Al2 O14 1.780726 1_555
Al2 O48 1.833172 1_555
Al2 O44 1.835442 1_555
Al3 O33 1.788406 1_555
Al3 O42 1.815202 1_555
Al3 O28 1.864192 1_555
Al3 O39 1.978958 1_455
Al3 O0 2.022934 1_555
Al4 O55 1.697852 1_555
Al4 O40 1.774042 1_555
Al4 O17 1.804715 1_555
Al4 O33 1.840130 1_655
Al5 O59 1.812815 1_555
Al5 O50 1.825586 1_555
Al5 O7 1.836021 1_555
Al5 O28 1.925685 1_555
Al5 O37 1.960719 1_555
Al6 O26 1.808552 1_455
Al6 O9 1.875821 1_455
Al6 O6 1.879846 1_555
Al6 O52 2.010723 1_555
Al6 O19 2.051168 1_555
Al6 O57 2.358730 1_555
Al7 O20 1.771451 1_555
Al7 O5 1.814472 1_455
Al7 O11 1.818219 1_555
Al7 O3 1.903760 1_455
Al8 O25 1.785692 1_555
Al8 O4 1.798239 1_555
Al8 O32 1.820333 1_555
Al8 O30 1.830626 1_555
Al9 O2 1.713907 1_554
Al9 O8 1.818959 1_554
Al9 O21 1.875235 1_554
Al9 O30 1.981822 1_555
Al9 O17 2.165146 1_555
Al10 O37 1.775479 1_555
Al10 O28 1.780355 1_555
Al10 O38 1.786425 1_555
Al10 O31 1.801200 1_555
Al11 O11 1.757982 1_555
Al11 O31 1.776138 1_555
Al11 O6 1.794314 1_555
Al11 O52 1.840959 1_555
Al12 O24 1.814778 1_555
Al12 O43 1.829023 1_555
Al12 O41 1.879132 1_555
Al12 O12 1.886927 1_555
Al12 O40 1.926332 1_555
Al13 O9 1.749641 1_555
Al13 O24 1.754061 1_555
Al13 O39 1.802189 1_555
Al13 O44 1.807391 1_555
Al14 O25 1.794030 1_565
Al14 O58 1.852754 1_555
Al14 O13 1.888303 1_555
Al14 O16 1.930902 1_555
Al14 O10 2.040115 1_554
Al15 O7 1.732807 1_555
Al15 O23 1.740570 1_565
Al15 O9 1.784536 1_455
Al15 O19 1.836823 1_555
Al16 O36 1.805620 1_544
Al16 O1 1.812318 1_555
Al16 O35 1.852323 1_455
Al16 O58 1.884279 1_545
Al16 O0 2.061393 1_545
Al17 O2 1.673615 1_565
Al17 O18 1.783329 1_555
Al17 O51 1.889194 1_555
Al17 O13 1.990860 1_556
Al17 O47 2.265113 1_556
Al18 O45 1.699335 1_555
Al18 O54 1.806507 1_555
Al18 O46 1.831007 1_555
Al18 O41 1.842465 1_555
Al19 O4 1.805190 1_555
Al19 O59 1.812602 1_545
Al19 O15 1.917854 1_545
Al19 O54 1.936904 1_555
Al19 O16 2.092267 1_545
Al20 O45 1.675899 1_555
Al20 O51 1.816272 1_545
Al20 O50 1.834333 1_545
Al20 O10 1.885377 1_545
Al21 O56 1.756007 1_555
Al21 O57 1.791316 1_555
Al21 O27 1.816731 1_556
Al21 O6 1.822968 1_555
Al22 O55 1.736815 1_556
Al22 O18 1.844313 1_555
Al22 O26 1.874399 1_555
Al22 O57 1.906891 1_655
Al22 O48 2.018560 1_555
Al23 O20 1.777958 1_565
Al23 O7 1.823421 1_555
Al23 O3 1.902027 1_465
Al23 O0 1.945769 1_555
Al23 O39 1.972594 1_455
Al24 O58 1.765485 1_555
Al24 O42 1.787793 1_555
Al24 O59 1.852939 1_555
Al24 O22 1.931428 1_555
Al24 O16 2.083955 1_555
Al25 O54 1.830839 1_555
Al25 O43 1.836448 1_555
Al25 O4 1.878523 1_555
Al25 O38 1.927610 1_555
Al25 O31 2.005022 1_555
Al26 O1 1.802737 1_555
Al26 O21 1.854510 1_454
Al26 O27 1.906587 1_555
Al26 O29 2.003333 1_554
Al26 O17 2.005251 1_455
Al27 O53 1.707028 1_555
Al27 O8 1.778035 1_555
Al27 O46 1.835373 1_555
Al27 O48 1.887393 1_555
Al28 O36 1.720261 1_555
Al28 O18 1.798264 1_455
Al28 O57 1.900396 1_555
Al28 O23 1.912716 1_565
Al28 O19 2.232603 1_555
Al29 O34 1.765031 1_555
Al29 O3 1.786118 1_555
Al29 O41 1.786323 1_555
Al29 O15 1.798781 1_545
Al30 O47 1.707761 1_555
Al30 O35 1.766484 1_565
Al30 O34 1.791374 1_565
Al30 O0 1.923968 1_655
Al31 O40 1.743695 1_555
Al31 O32 1.785902 1_555
Al31 O49 1.830842 1_555
Al31 O43 1.833943 1_555
Al32 O37 1.738816 1_555
Al32 O49 1.786921 1_555
Al32 O44 1.795610 1_555
Al32 O15 1.802803 1_555
Al33 O29 1.746786 1_555
Al33 O1 1.920887 1_556
Al33 O25 1.930166 1_556
Al33 O36 1.963874 1_545
Al33 O10 2.003408 1_545
Al34 O19 1.791627 1_555
Al34 O14 1.845388 1_555
Al34 O56 1.893822 1_555
Al34 O10 1.912816 1_555
Al34 O50 1.913841 1_555
Al35 O53 1.734392 1_555
Al35 O56 1.787826 1_555
Al35 O14 1.861232 1_555
Al35 O13 1.905716 1_556
Al35 O48 2.407203 1_555
Al36 O38 1.858439 1_555
Al36 O22 1.905368 1_555
Al36 O27 1.907864 1_555
Al36 O42 1.984343 1_555
Al36 O32 2.035304 1_555
Al37 O21 1.811714 1_455
Al37 O23 1.832526 1_555
Al37 O29 1.833968 1_555
Al37 O11 1.891904 1_555
Al37 O5 2.063206 1_455
Al38 O35 1.849229 1_555
Al38 O12 1.850250 1_555
Al38 O17 1.900945 1_555
Al38 O30 1.922557 1_555
Al38 O34 1.928743 1_555
Al39 O52 1.772899 1_655
Al39 O33 1.785948 1_655
Al39 O12 1.787519 1_555
Al39 O24 1.802690 1_555
