# generated using pymatgen
data_LiCoP2O7
_symmetry_space_group_name_H-M   'P 1'
_cell_length_a   8.11253343
_cell_length_b   8.11253343
_cell_length_c   8.19776685
_cell_angle_alpha   62.41675519
_cell_angle_beta   62.41675519
_cell_angle_gamma   39.69378821
_symmetry_Int_Tables_number   1
_chemical_formula_structural   LiCoP2O7
_chemical_formula_sum   'Li2 Co2 P4 O14'
_cell_volume   299.93914613
_cell_formula_units_Z   2
loop_
 _symmetry_equiv_pos_site_id
 _symmetry_equiv_pos_as_xyz
  1  'x, y, z'
loop_
 _atom_site_type_symbol
 _atom_site_label
 _atom_site_symmetry_multiplicity
 _atom_site_fract_x
 _atom_site_fract_y
 _atom_site_fract_z
 _atom_site_occupancy
  Li  Li0  1  0.40343000  0.04682000  0.68000300  1
  Li  Li1  1  0.04682000  0.40343000  0.18000300  1
  Co  Co0  1  0.00894900  0.98811200  0.99867500  1
  Co  Co1  1  0.98811200  0.00894900  0.49867500  1
  P  P0  1  0.53965600  0.24588200  0.85640100  1
  P  P1  1  0.24588200  0.53965600  0.35640100  1
  P  P2  1  0.75301300  0.46094000  0.64785000  1
  P  P3  1  0.46094000  0.75301300  0.14785000  1
  O  O0  1  0.70985000  0.08473500  0.69862900  1
  O  O1  1  0.70600500  0.09700800  0.00502700  1
  O  O2  1  0.33048100  0.28283300  0.43627500  1
  O  O3  1  0.28283300  0.33048100  0.93627500  1
  O  O4  1  0.94760300  0.25579000  0.78826300  1
  O  O5  1  0.88564900  0.32209300  0.48306000  1
  O  O6  1  0.09700800  0.70600500  0.50502700  1
  O  O7  1  0.08473500  0.70985000  0.19862900  1
  O  O8  1  0.72233800  0.65472400  0.09251000  1
  O  O9  1  0.49726500  0.50166700  0.75483500  1
  O  O10  1  0.50166700  0.49726500  0.25483500  1
  O  O11  1  0.65472400  0.72233800  0.59251000  1
  O  O12  1  0.32209300  0.88564900  0.98306000  1
  O  O13  1  0.25579000  0.94760300  0.28826300  1
loop_
_geom_bond_atom_site_label_1
_geom_bond_atom_site_label_2
_geom_bond_distance
_geom_bond_site_symmetry_2
Li0 O11 1.932772 1_545
Li0 O2 1.953659 1_555
Li0 O12 2.262420 1_545
Li0 O4 2.458180 1_455
Li1 O8 1.932772 1_455
Li1 O3 1.953659 1_554
Li1 O5 2.262420 1_455
Li1 O13 2.458180 1_545
Co0 O1 1.845535 1_466
Co0 O7 1.879219 1_556
Co0 O4 1.897791 1_465
Co0 O12 1.925772 1_555
Co1 O6 1.845535 1_645
Co1 O0 1.879219 1_555
Co1 O13 1.897791 1_645
Co1 O5 1.925772 1_555
O0 P0 1.556447 1_555
O1 P0 1.554358 1_554
O2 P1 1.480845 1_555
O3 P0 1.480845 1_555
O4 P2 1.565990 1_555
O5 P2 1.565040 1_555
O6 P1 1.554358 1_555
O7 P1 1.556447 1_555
O8 P3 1.476629 1_555
O9 P0 1.638403 1_555
O9 P2 1.646599 1_555
O10 P1 1.638403 1_555
O10 P3 1.646599 1_555
O11 P2 1.476629 1_555
O12 P3 1.565040 1_556
O13 P3 1.565990 1_555
