# generated using pymatgen
data_FeH12C6N(ClO2)2
_symmetry_space_group_name_H-M   'P 1'
_cell_length_a   8.86163200
_cell_length_b   8.39100300
_cell_length_c   18.42806133
_cell_angle_alpha   87.95965244
_cell_angle_beta   90.00000000
_cell_angle_gamma   90.00000000
_symmetry_Int_Tables_number   1
_chemical_formula_structural   FeH12C6N(ClO2)2
_chemical_formula_sum   'Fe4 H48 C24 N4 Cl8 O16'
_cell_volume   1369.40467983
_cell_formula_units_Z   4
loop_
 _symmetry_equiv_pos_site_id
 _symmetry_equiv_pos_as_xyz
  1  'x, y, z'
loop_
 _atom_site_type_symbol
 _atom_site_label
 _atom_site_symmetry_multiplicity
 _atom_site_fract_x
 _atom_site_fract_y
 _atom_site_fract_z
 _atom_site_occupancy
  Fe  Fe0  1  0.74989800  0.57939500  0.91463300  1
  Fe  Fe1  1  0.24989800  0.42060500  0.58536700  1
  Fe  Fe2  1  0.25010200  0.42060500  0.08536700  1
  Fe  Fe3  1  0.75010200  0.57939500  0.41463300  1
  H  H0  1  0.86197700  0.06606500  0.06186300  1
  H  H1  1  0.36197700  0.93393500  0.43813700  1
  H  H2  1  0.13802300  0.93393500  0.93813700  1
  H  H3  1  0.63802300  0.06606500  0.56186300  1
  H  H4  1  0.66533700  0.10482700  0.04462500  1
  H  H5  1  0.16533700  0.89517300  0.45537500  1
  H  H6  1  0.33466300  0.89517300  0.95537500  1
  H  H7  1  0.83466300  0.10482700  0.54462500  1
  H  H8  1  0.73890500  0.90565500  0.03903200  1
  H  H9  1  0.23890500  0.09434500  0.46096800  1
  H  H10  1  0.26109500  0.09434500  0.96096800  1
  H  H11  1  0.76109500  0.90565500  0.53903200  1
  H  H12  1  0.55319000  0.80748700  0.12470600  1
  H  H13  1  0.05319000  0.19251300  0.37529400  1
  H  H14  1  0.44681000  0.19251300  0.87529400  1
  H  H15  1  0.94681000  0.80748700  0.62470600  1
  H  H16  1  0.47628700  0.00482600  0.13036600  1
  H  H17  1  0.97628700  0.99517400  0.36963400  1
  H  H18  1  0.52371300  0.99517400  0.86963400  1
  H  H19  1  0.02371300  0.00482600  0.63036600  1
  H  H20  1  0.53586400  0.89463000  0.21133400  1
  H  H21  1  0.03586400  0.10537000  0.28866600  1
  H  H22  1  0.46413600  0.10537000  0.78866600  1
  H  H23  1  0.96413600  0.89463000  0.71133400  1
  H  H24  1  0.83581100  0.18950900  0.17951400  1
  H  H25  1  0.33581100  0.81049100  0.32048600  1
  H  H26  1  0.16418900  0.81049100  0.82048600  1
  H  H27  1  0.66418900  0.18950900  0.67951400  1
  H  H28  1  0.69576800  0.11558700  0.24267900  1
  H  H29  1  0.19576800  0.88441300  0.25732100  1
  H  H30  1  0.30423200  0.88441300  0.75732100  1
  H  H31  1  0.80423200  0.11558700  0.74267900  1
  H  H32  1  0.63877300  0.22422800  0.16160300  1
  H  H33  1  0.13877300  0.77577200  0.33839700  1
  H  H34  1  0.36122700  0.77577200  0.83839700  1
  H  H35  1  0.86122700  0.22422800  0.66160300  1
  H  H36  1  0.93828200  0.92141600  0.17086500  1
  H  H37  1  0.43828200  0.07858400  0.32913500  1
  H  H38  1  0.06171800  0.07858400  0.82913500  1
  H  H39  1  0.56171800  0.92141600  0.67086500  1
  H  H40  1  0.81720200  0.75985100  0.14826300  1
  H  H41  1  0.31720200  0.24014900  0.35173700  1
  H  H42  1  0.18279800  0.24014900  0.85173700  1
  H  H43  1  0.68279800  0.75985100  0.64826300  1
  H  H44  1  0.79797700  0.84787700  0.23517200  1
  H  H45  1  0.29797700  0.15212300  0.26482800  1
  H  H46  1  0.20202300  0.15212300  0.76482800  1
  H  H47  1  0.70202300  0.84787700  0.73517200  1
  C  C0  1  0.74721900  0.01845800  0.06676500  1
  C  C1  1  0.24721900  0.98154200  0.43323500  1
  C  C2  1  0.25278100  0.98154200  0.93323500  1
  C  C3  1  0.75278100  0.01845800  0.56676500  1
  C  C4  1  0.55772000  0.91900300  0.15355400  1
  C  C5  1  0.05772000  0.08099700  0.34644600  1
  C  C6  1  0.44228000  0.08099700  0.84644600  1
  C  C7  1  0.94228000  0.91900300  0.65355400  1
  C  C8  1  0.72161800  0.14079100  0.18530900  1
  C  C9  1  0.22161800  0.85920900  0.31469100  1
  C  C10  1  0.27838200  0.85920900  0.81469100  1
  C  C11  1  0.77838200  0.14079100  0.68530900  1
  C  C12  1  0.82521200  0.87040300  0.17771500  1
  C  C13  1  0.32521200  0.12959700  0.32228500  1
  C  C14  1  0.17478800  0.12959700  0.82228500  1
  C  C15  1  0.67478800  0.87040300  0.67771500  1
  C  C16  1  0.52722500  0.41320500  0.00379800  1
  C  C17  1  0.02722500  0.58679500  0.49620200  1
  C  C18  1  0.47277500  0.58679500  0.99620200  1
  C  C19  1  0.97277500  0.41320500  0.50379800  1
  C  C20  1  0.96886100  0.54617100  0.03208100  1
  C  C21  1  0.46886100  0.45382900  0.46791900  1
  C  C22  1  0.03113900  0.45382900  0.96791900  1
  C  C23  1  0.53113900  0.54617100  0.53208100  1
  N  N0  1  0.71329100  0.98759800  0.14585300  1
  N  N1  1  0.21329100  0.01240200  0.35414700  1
  N  N2  1  0.28670900  0.01240200  0.85414700  1
  N  N3  1  0.78670900  0.98759800  0.64585300  1
  Cl  Cl0  1  0.65590200  0.50228400  0.80707100  1
  Cl  Cl1  1  0.15590200  0.49771600  0.69292900  1
  Cl  Cl2  1  0.34409800  0.49771600  0.19292900  1
  Cl  Cl3  1  0.84409800  0.50228400  0.30707100  1
  Cl  Cl4  1  0.84014300  0.82941500  0.87613500  1
  Cl  Cl5  1  0.34014300  0.17058500  0.62386500  1
  Cl  Cl6  1  0.15985700  0.17058500  0.12386500  1
  Cl  Cl7  1  0.65985700  0.82941500  0.37613500  1
  O  O0  1  0.84296300  0.61473300  0.02271300  1
  O  O1  1  0.34296300  0.38526700  0.47728700  1
  O  O2  1  0.15703700  0.38526700  0.97728700  1
  O  O3  1  0.65703700  0.61473300  0.52271300  1
  O  O4  1  0.64668400  0.37792900  0.97048000  1
  O  O5  1  0.14668400  0.62207100  0.52952000  1
  O  O6  1  0.35331600  0.62207100  0.02952000  1
  O  O7  1  0.85331600  0.37792900  0.47048000  1
  O  O8  1  0.95073700  0.45402900  0.91071800  1
  O  O9  1  0.45073700  0.54597100  0.58928200  1
  O  O10  1  0.04926300  0.54597100  0.08928200  1
  O  O11  1  0.54926300  0.45402900  0.41071800  1
  O  O12  1  0.55271000  0.68164000  0.95686700  1
  O  O13  1  0.05271000  0.31836000  0.54313300  1
  O  O14  1  0.44729000  0.31836000  0.04313300  1
  O  O15  1  0.94729000  0.68164000  0.45686700  1
loop_
_geom_bond_atom_site_label_1
_geom_bond_atom_site_label_2
_geom_bond_distance
_geom_bond_site_symmetry_2
Fe0 O8 2.069964 1_555
Fe0 O12 2.107789 1_555
Fe0 O4 2.151660 1_555
Fe0 O0 2.185637 1_556
Fe1 O9 2.069964 1_555
Fe1 O13 2.107789 1_555
Fe1 O5 2.151660 1_555
Fe1 O1 2.185637 1_555
Fe2 O10 2.069964 1_555
Fe2 O14 2.107789 1_555
Fe2 O6 2.151660 1_555
Fe2 O2 2.185637 1_554
Fe3 O11 2.069964 1_555
Fe3 O15 2.107789 1_555
Fe3 O7 2.151660 1_555
Fe3 O3 2.185637 1_555
C0 H8 1.094066 1_545
C0 H4 1.094138 1_555
C0 H0 1.095144 1_555
C0 N0 1.501566 1_545
C1 H9 1.094066 1_565
C1 H5 1.094138 1_555
C1 H1 1.095144 1_555
C1 N1 1.501566 1_565
C2 H10 1.094066 1_565
C2 H6 1.094138 1_555
C2 H2 1.095144 1_555
C2 N2 1.501566 1_565
C3 H11 1.094066 1_545
C3 H7 1.094138 1_555
C3 H3 1.095144 1_555
C3 N3 1.501566 1_545
C4 H12 1.093269 1_555
C4 H20 1.094337 1_555
C4 H16 1.095461 1_565
C4 N0 1.498730 1_555
C5 H13 1.093269 1_555
C5 H21 1.094337 1_555
C5 H17 1.095461 1_445
C5 N1 1.498730 1_555
C6 H14 1.093269 1_555
C6 H22 1.094337 1_555
C6 H18 1.095461 1_545
C6 N2 1.498730 1_555
C7 H15 1.093269 1_555
C7 H23 1.094337 1_555
C7 H19 1.095461 1_665
C7 N3 1.498730 1_555
C8 H32 1.094622 1_555
C8 H28 1.094984 1_555
C8 H24 1.095181 1_555
C8 N0 1.501010 1_545
C9 H33 1.094622 1_555
C9 H29 1.094984 1_555
C9 H25 1.095181 1_555
C9 N1 1.501010 1_565
C10 H34 1.094622 1_555
C10 H30 1.094984 1_555
C10 H26 1.095181 1_555
C10 N2 1.501010 1_565
C11 H35 1.094622 1_555
C11 H31 1.094984 1_555
C11 H27 1.095181 1_555
C11 N3 1.501010 1_545
C12 H40 1.093608 1_555
C12 H36 1.095120 1_555
C12 H44 1.095822 1_555
C12 N0 1.501450 1_555
C13 H41 1.093608 1_555
C13 H37 1.095120 1_555
C13 H45 1.095822 1_555
C13 N1 1.501450 1_555
C14 H42 1.093608 1_555
C14 H38 1.095120 1_555
C14 H46 1.095822 1_555
C14 N2 1.501450 1_555
C15 H43 1.093608 1_555
C15 H39 1.095120 1_555
C15 H47 1.095822 1_555
C15 N3 1.501450 1_555
C16 O4 1.264189 1_554
C16 O14 1.272592 1_555
C17 O5 1.264189 1_555
C17 O15 1.272592 1_455
C18 O6 1.264189 1_556
C18 O12 1.272592 1_555
C19 O7 1.264189 1_555
C19 O13 1.272592 1_655
C20 O0 1.264281 1_555
C20 O10 1.272265 1_655
C21 O1 1.264281 1_555
C21 O11 1.272265 1_555
C22 O2 1.264281 1_555
C22 O8 1.272265 1_455
C23 O3 1.264281 1_555
C23 O9 1.272265 1_555
Cl0 Fe0 2.265559 1_555
Cl1 Fe1 2.265559 1_555
Cl2 Fe2 2.265559 1_555
Cl3 Fe3 2.265559 1_555
Cl4 Fe0 2.331982 1_555
Cl5 Fe1 2.331982 1_555
Cl6 Fe2 2.331982 1_555
Cl7 Fe3 2.331982 1_555
