# generated using pymatgen
data_FePd2
_symmetry_space_group_name_H-M   'P 1'
_cell_length_a   5.43272314
_cell_length_b   5.43272314
_cell_length_c   12.98469800
_cell_angle_alpha   90.00000000
_cell_angle_beta   90.00000000
_cell_angle_gamma   119.99998950
_symmetry_Int_Tables_number   1
_chemical_formula_structural   FePd2
_chemical_formula_sum   'Fe8 Pd16'
_cell_volume   331.89268231
_cell_formula_units_Z   8
loop_
 _symmetry_equiv_pos_site_id
 _symmetry_equiv_pos_as_xyz
  1  'x, y, z'
loop_
 _atom_site_type_symbol
 _atom_site_label
 _atom_site_symmetry_multiplicity
 _atom_site_fract_x
 _atom_site_fract_y
 _atom_site_fract_z
 _atom_site_occupancy
  Fe  Fe0_0  1  0.00000000  0.00000000  0.00000000  1
  Fe  Fe0_1  1  0.00000000  0.00000000  0.50000000  1
  Fe  Fe0_2  1  0.00000000  0.50000000  0.00000000  1
  Fe  Fe0_3  1  0.00000000  0.50000000  0.50000000  1
  Fe  Fe0_4  1  0.50000000  0.00000000  0.00000000  1
  Fe  Fe0_5  1  0.50000000  0.00000000  0.50000000  1
  Fe  Fe0_6  1  0.50000000  0.50000000  0.00000000  1
  Fe  Fe0_7  1  0.50000000  0.50000000  0.50000000  1
  Pd  Pd0_0  1  0.16666650  0.33333350  0.34180550  1
  Pd  Pd0_1  1  0.16666650  0.33333350  0.84180550  1
  Pd  Pd0_2  1  0.16666650  0.83333350  0.34180550  1
  Pd  Pd0_3  1  0.16666650  0.83333350  0.84180550  1
  Pd  Pd0_4  1  0.66666650  0.33333350  0.34180550  1
  Pd  Pd0_5  1  0.66666650  0.33333350  0.84180550  1
  Pd  Pd0_6  1  0.66666650  0.83333350  0.34180550  1
  Pd  Pd0_7  1  0.66666650  0.83333350  0.84180550  1
  Pd  Pd1_0  1  0.33333350  0.16666650  0.15819450  1
  Pd  Pd1_1  1  0.33333350  0.16666650  0.65819450  1
  Pd  Pd1_2  1  0.33333350  0.66666650  0.15819450  1
  Pd  Pd1_3  1  0.33333350  0.66666650  0.65819450  1
  Pd  Pd1_4  1  0.83333350  0.16666650  0.15819450  1
  Pd  Pd1_5  1  0.83333350  0.16666650  0.65819450  1
  Pd  Pd1_6  1  0.83333350  0.66666650  0.15819450  1
  Pd  Pd1_7  1  0.83333350  0.66666650  0.65819450  1
loop_
_geom_bond_atom_site_label_1
_geom_bond_atom_site_label_2
_geom_bond_distance
_geom_bond_site_symmetry_2
Fe0_0 Pd1_4 2.584356 1_455
Fe0_0 Pd0_3 2.584356 1_544
Fe0_0 Pd0_1 2.584357 1_554
Fe0_0 Pd1_0 2.584357 1_555
Fe0_0 Pd0_7 2.584357 1_444
Fe0_0 Pd1_6 2.584357 1_445
Fe0_0 Fe0_2 2.716362 1_545
Fe0_0 Fe0_2 2.716362 1_555
Fe0_0 Fe0_4 2.716362 1_555
Fe0_0 Fe0_4 2.716362 1_455
Fe0_0 Fe0_6 2.716362 1_445
Fe0_0 Fe0_6 2.716362 1_555
Fe0_1 Pd0_2 2.584356 1_545
Fe0_1 Pd1_5 2.584356 1_455
Fe0_1 Pd0_0 2.584357 1_555
Fe0_1 Pd0_6 2.584357 1_445
Fe0_1 Pd1_1 2.584357 1_555
Fe0_1 Pd1_7 2.584357 1_445
Fe0_1 Fe0_5 2.716362 1_555
Fe0_1 Fe0_5 2.716362 1_455
Fe0_1 Fe0_3 2.716362 1_545
Fe0_1 Fe0_3 2.716362 1_555
Fe0_1 Fe0_7 2.716362 1_555
Fe0_1 Fe0_7 2.716362 1_445
Fe0_2 Pd1_6 2.584356 1_455
Fe0_2 Pd0_1 2.584356 1_554
Fe0_2 Pd1_2 2.584357 1_555
Fe0_2 Pd1_4 2.584357 1_455
Fe0_2 Pd0_3 2.584357 1_554
Fe0_2 Pd0_5 2.584357 1_454
Fe0_2 Fe0_6 2.716362 1_555
Fe0_2 Fe0_6 2.716362 1_455
Fe0_2 Fe0_4 2.716362 1_455
Fe0_2 Fe0_4 2.716362 1_565
Fe0_3 Pd0_0 2.584356 1_555
Fe0_3 Pd1_7 2.584356 1_455
Fe0_3 Pd0_4 2.584357 1_455
Fe0_3 Pd0_2 2.584357 1_555
Fe0_3 Pd1_5 2.584357 1_455
Fe0_3 Pd1_3 2.584357 1_555
Fe0_3 Fe0_7 2.716362 1_555
Fe0_3 Fe0_7 2.716362 1_455
Fe0_3 Fe0_5 2.716362 1_565
Fe0_3 Fe0_5 2.716362 1_455
Fe0_4 Pd0_7 2.584356 1_544
Fe0_4 Pd1_0 2.584356 1_555
Fe0_4 Pd0_3 2.584357 1_544
Fe0_4 Pd0_5 2.584357 1_554
Fe0_4 Pd1_4 2.584357 1_555
Fe0_4 Pd1_2 2.584357 1_545
Fe0_4 Fe0_6 2.716362 1_545
Fe0_4 Fe0_6 2.716362 1_555
Fe0_5 Pd0_6 2.584356 1_545
Fe0_5 Pd1_1 2.584356 1_555
Fe0_5 Pd0_2 2.584357 1_545
Fe0_5 Pd0_4 2.584357 1_555
Fe0_5 Pd1_5 2.584357 1_555
Fe0_5 Pd1_3 2.584357 1_545
Fe0_5 Fe0_7 2.716362 1_555
Fe0_5 Fe0_7 2.716362 1_545
Fe0_6 Pd0_5 2.584356 1_554
Fe0_6 Pd1_2 2.584356 1_555
Fe0_6 Pd0_1 2.584357 1_554
Fe0_6 Pd1_0 2.584357 1_555
Fe0_6 Pd0_7 2.584357 1_554
Fe0_6 Pd1_6 2.584357 1_555
Fe0_7 Pd0_4 2.584356 1_555
Fe0_7 Pd1_3 2.584356 1_555
Fe0_7 Pd0_0 2.584357 1_555
Fe0_7 Pd0_6 2.584357 1_555
Fe0_7 Pd1_1 2.584357 1_555
Fe0_7 Pd1_7 2.584357 1_555
Pd0_0 Pd0_2 2.716362 1_545
Pd0_0 Pd0_4 2.716362 1_555
Pd0_0 Pd0_2 2.716362 1_555
Pd0_0 Pd0_4 2.716362 1_455
Pd0_0 Pd0_6 2.716362 1_555
Pd0_0 Pd0_6 2.716362 1_445
Pd0_0 Pd1_2 2.853704 1_555
Pd0_0 Pd1_4 2.853704 1_455
Pd0_0 Pd1_0 2.853707 1_555
Pd0_1 Pd0_3 2.716362 1_545
Pd0_1 Pd0_5 2.716362 1_555
Pd0_1 Pd0_3 2.716362 1_555
Pd0_1 Pd0_5 2.716362 1_455
Pd0_1 Pd0_7 2.716362 1_445
Pd0_1 Pd0_7 2.716362 1_555
Pd0_1 Pd1_3 2.853704 1_555
Pd0_1 Pd1_5 2.853704 1_455
Pd0_1 Pd1_1 2.853707 1_555
Pd0_2 Pd0_6 2.716362 1_555
Pd0_2 Pd0_6 2.716362 1_455
Pd0_2 Pd0_4 2.716362 1_565
Pd0_2 Pd0_4 2.716362 1_455
Pd0_2 Pd1_6 2.853704 1_455
Pd0_2 Pd1_0 2.853704 1_565
Pd0_2 Pd1_2 2.853707 1_555
Pd0_3 Pd0_7 2.716362 1_555
Pd0_3 Pd0_7 2.716362 1_455
Pd0_3 Pd0_5 2.716362 1_565
Pd0_3 Pd0_5 2.716362 1_455
Pd0_3 Pd1_7 2.853704 1_455
Pd0_3 Pd1_1 2.853704 1_565
Pd0_3 Pd1_3 2.853707 1_555
Pd0_4 Pd0_6 2.716362 1_545
Pd0_4 Pd0_6 2.716362 1_555
Pd0_4 Pd1_6 2.853704 1_555
Pd0_4 Pd1_0 2.853704 1_555
Pd0_4 Pd1_4 2.853707 1_555
Pd0_5 Pd0_7 2.716362 1_545
Pd0_5 Pd0_7 2.716362 1_555
Pd0_5 Pd1_7 2.853704 1_555
Pd0_5 Pd1_1 2.853704 1_555
Pd0_5 Pd1_5 2.853707 1_555
Pd0_6 Pd1_2 2.853704 1_555
Pd0_6 Pd1_4 2.853704 1_565
Pd0_6 Pd1_6 2.853707 1_555
Pd0_7 Pd1_3 2.853704 1_555
Pd0_7 Pd1_5 2.853704 1_565
Pd0_7 Pd1_7 2.853707 1_555
Pd1_0 Pd1_4 2.716362 1_455
Pd1_0 Pd1_2 2.716362 1_555
Pd1_0 Pd1_2 2.716362 1_545
Pd1_0 Pd1_4 2.716362 1_555
Pd1_0 Pd1_6 2.716362 1_445
Pd1_0 Pd1_6 2.716362 1_555
Pd1_1 Pd1_5 2.716362 1_455
Pd1_1 Pd1_3 2.716362 1_555
Pd1_1 Pd1_5 2.716362 1_555
Pd1_1 Pd1_3 2.716362 1_545
Pd1_1 Pd1_7 2.716362 1_555
Pd1_1 Pd1_7 2.716362 1_445
Pd1_2 Pd1_6 2.716362 1_455
Pd1_2 Pd1_6 2.716362 1_555
Pd1_2 Pd1_4 2.716362 1_455
Pd1_2 Pd1_4 2.716362 1_565
Pd1_3 Pd1_7 2.716362 1_455
Pd1_3 Pd1_7 2.716362 1_555
Pd1_3 Pd1_5 2.716362 1_455
Pd1_3 Pd1_5 2.716362 1_565
Pd1_4 Pd1_6 2.716362 1_555
Pd1_4 Pd1_6 2.716362 1_545
Pd1_5 Pd1_7 2.716362 1_555
Pd1_5 Pd1_7 2.716362 1_545
