# generated using pymatgen
data_Zr2Co
_symmetry_space_group_name_H-M   'P 1'
_cell_length_a   8.66179503
_cell_length_b   8.66179503
_cell_length_c   8.66179503
_cell_angle_alpha   60.00000000
_cell_angle_beta   60.00000000
_cell_angle_gamma   60.00000000
_symmetry_Int_Tables_number   1
_chemical_formula_structural   Zr2Co
_chemical_formula_sum   'Zr16 Co8'
_cell_volume   459.52454008
_cell_formula_units_Z   8
loop_
 _symmetry_equiv_pos_site_id
 _symmetry_equiv_pos_as_xyz
  1  'x, y, z'
loop_
 _atom_site_type_symbol
 _atom_site_label
 _atom_site_symmetry_multiplicity
 _atom_site_fract_x
 _atom_site_fract_y
 _atom_site_fract_z
 _atom_site_occupancy
  Zr  Zr0  1  0.12500000  0.62500000  0.62500000  1
  Zr  Zr1  1  0.62500000  0.12500000  0.62500000  1
  Zr  Zr2  1  0.62500000  0.62500000  0.12500000  1
  Zr  Zr3  1  0.62500000  0.62500000  0.62500000  1
  Zr  Zr4  1  0.81220800  0.81220800  0.18779200  1
  Zr  Zr5  1  0.18779200  0.18779200  0.81220800  1
  Zr  Zr6  1  0.81220800  0.18779200  0.81220800  1
  Zr  Zr7  1  0.18779200  0.81220800  0.18779200  1
  Zr  Zr8  1  0.18779200  0.81220800  0.81220800  1
  Zr  Zr9  1  0.81220800  0.18779200  0.18779200  1
  Zr  Zr10  1  0.43779200  0.43779200  0.06220800  1
  Zr  Zr11  1  0.06220800  0.06220800  0.43779200  1
  Zr  Zr12  1  0.43779200  0.06220800  0.43779200  1
  Zr  Zr13  1  0.06220800  0.43779200  0.06220800  1
  Zr  Zr14  1  0.06220800  0.43779200  0.43779200  1
  Zr  Zr15  1  0.43779200  0.06220800  0.06220800  1
  Co  Co0  1  0.79272600  0.40242500  0.40242500  1
  Co  Co1  1  0.40242500  0.79272600  0.40242500  1
  Co  Co2  1  0.40242500  0.40242500  0.79272600  1
  Co  Co3  1  0.40242500  0.40242500  0.40242500  1
  Co  Co4  1  0.45727400  0.84757500  0.84757500  1
  Co  Co5  1  0.84757500  0.45727400  0.84757500  1
  Co  Co6  1  0.84757500  0.84757500  0.45727400  1
  Co  Co7  1  0.84757500  0.84757500  0.84757500  1
loop_
_geom_bond_atom_site_label_1
_geom_bond_atom_site_label_2
_geom_bond_distance
_geom_bond_site_symmetry_2
Zr0 Zr8 3.154055 1_555
Zr0 Zr5 3.154055 1_555
Zr0 Zr11 3.154055 1_565
Zr0 Zr7 3.154055 1_555
Zr0 Zr13 3.154055 1_556
Zr0 Zr14 3.154055 1_555
Zr1 Zr6 3.154055 1_555
Zr1 Zr5 3.154055 1_555
Zr1 Zr11 3.154055 1_655
Zr1 Zr15 3.154055 1_556
Zr1 Zr9 3.154055 1_555
Zr1 Zr12 3.154055 1_555
Zr2 Zr4 3.154055 1_555
Zr2 Zr9 3.154055 1_555
Zr2 Zr7 3.154055 1_555
Zr3 Zr6 3.154055 1_555
Zr3 Zr4 3.154055 1_555
Zr3 Zr8 3.154055 1_555
Zr4 Zr8 3.253232 1_654
Zr4 Zr9 3.253232 1_565
Zr4 Zr7 3.253232 1_655
Zr4 Zr6 3.253232 1_564
Zr5 Zr7 3.253232 1_546
Zr5 Zr6 3.253232 1_455
Zr5 Zr8 3.253232 1_545
Zr5 Zr9 3.253232 1_456
Zr6 Zr8 3.253232 1_645
Zr6 Zr9 3.253232 1_556
Zr7 Zr8 3.253232 1_554
Zr7 Zr9 3.253232 1_465
Zr10 Zr3 3.154055 1_554
Zr10 Zr2 3.154055 1_555
Zr10 Zr8 3.246490 1_554
Zr10 Zr9 3.246490 1_555
Zr10 Zr6 3.246490 1_554
Zr10 Zr7 3.246490 1_555
Zr10 Zr13 3.253232 1_555
Zr10 Zr12 3.253232 1_555
Zr10 Zr14 3.253232 1_555
Zr10 Zr15 3.253232 1_555
Zr11 Zr9 3.246490 1_455
Zr11 Zr6 3.246490 1_455
Zr11 Zr8 3.246490 1_545
Zr11 Zr7 3.246490 1_545
Zr11 Zr13 3.253232 1_555
Zr11 Zr14 3.253232 1_555
Zr11 Zr15 3.253232 1_555
Zr11 Zr12 3.253232 1_555
Zr12 Zr3 3.154055 1_545
Zr12 Zr9 3.246490 1_555
Zr12 Zr5 3.246490 1_555
Zr12 Zr8 3.246490 1_545
Zr12 Zr4 3.246490 1_545
Zr12 Zr14 3.253232 1_555
Zr12 Zr15 3.253232 1_555
Zr13 Zr2 3.154055 1_455
Zr13 Zr9 3.246490 1_455
Zr13 Zr8 3.246490 1_554
Zr13 Zr4 3.246490 1_455
Zr13 Zr5 3.246490 1_554
Zr13 Zr14 3.253232 1_555
Zr13 Zr15 3.253232 1_555
Zr14 Zr3 3.154055 1_455
Zr14 Zr7 3.246490 1_555
Zr14 Zr5 3.246490 1_555
Zr14 Zr6 3.246490 1_455
Zr14 Zr4 3.246490 1_455
Zr15 Zr2 3.154055 1_545
Zr15 Zr6 3.246490 1_554
Zr15 Zr7 3.246490 1_545
Zr15 Zr5 3.246490 1_554
Zr15 Zr4 3.246490 1_545
Co0 Zr14 2.675844 1_655
Co0 Zr13 2.675849 1_655
Co0 Zr11 2.675849 1_655
Co0 Zr3 2.767544 1_555
Co0 Zr2 2.767551 1_555
Co0 Zr1 2.767551 1_555
Co0 Zr6 3.125671 1_555
Co0 Zr4 3.125671 1_555
Co0 Zr9 3.125679 1_555
Co1 Zr12 2.675844 1_565
Co1 Zr15 2.675849 1_565
Co1 Zr11 2.675849 1_565
Co1 Zr3 2.767544 1_555
Co1 Zr2 2.767551 1_555
Co1 Zr0 2.767551 1_555
Co1 Zr8 3.125671 1_555
Co1 Zr4 3.125671 1_555
Co1 Zr7 3.125679 1_555
Co2 Zr10 2.675844 1_556
Co2 Zr15 2.675849 1_556
Co2 Zr13 2.675849 1_556
Co2 Zr3 2.767544 1_555
Co2 Zr0 2.767551 1_555
Co2 Zr1 2.767551 1_555
Co2 Zr8 3.125671 1_555
Co2 Zr6 3.125671 1_555
Co2 Zr5 3.125679 1_555
Co3 Zr10 2.675852 1_555
Co3 Zr12 2.675852 1_555
Co3 Zr14 2.675852 1_555
Co3 Zr2 2.767546 1_555
Co3 Zr1 2.767546 1_555
Co3 Zr0 2.767546 1_555
Co3 Zr5 3.125674 1_555
Co3 Zr7 3.125674 1_555
Co3 Zr9 3.125674 1_555
Co4 Zr8 2.675844 1_555
Co4 Zr7 2.675849 1_556
Co4 Zr5 2.675849 1_565
Co4 Zr3 2.767544 1_555
Co4 Zr1 2.767551 1_565
Co4 Zr2 2.767551 1_556
Co4 Zr12 3.125671 1_565
Co4 Zr10 3.125671 1_556
Co4 Zr15 3.125679 1_566
Co5 Zr6 2.675844 1_555
Co5 Zr9 2.675849 1_556
Co5 Zr5 2.675849 1_655
Co5 Zr3 2.767544 1_555
Co5 Zr0 2.767551 1_655
Co5 Zr2 2.767551 1_556
Co5 Zr14 3.125671 1_655
Co5 Zr10 3.125671 1_556
Co5 Zr13 3.125679 1_656
Co6 Zr4 2.675844 1_555
Co6 Zr9 2.675849 1_565
Co6 Zr7 2.675849 1_655
Co6 Zr3 2.767544 1_555
Co6 Zr0 2.767551 1_655
Co6 Zr1 2.767551 1_565
Co6 Zr12 3.125671 1_565
Co6 Zr14 3.125671 1_655
Co6 Zr11 3.125679 1_665
Co7 Zr4 2.675852 1_556
Co7 Zr6 2.675852 1_565
Co7 Zr8 2.675852 1_655
Co7 Zr0 2.767546 1_655
Co7 Zr2 2.767546 1_556
Co7 Zr1 2.767546 1_565
Co7 Zr13 3.125674 1_656
Co7 Zr15 3.125674 1_566
Co7 Zr11 3.125674 1_665
