# generated using pymatgen
data_CaEu(FeO3)4
_symmetry_space_group_name_H-M   'P 1'
_cell_length_a   5.34578977
_cell_length_b   5.34578977
_cell_length_c   7.61949052
_cell_angle_alpha   90.00000000
_cell_angle_beta   90.00000000
_cell_angle_gamma   90.00000000
_symmetry_Int_Tables_number   1
_chemical_formula_structural   CaEu(FeO3)4
_chemical_formula_sum   'Ca1 Eu1 Fe4 O12'
_cell_volume   217.74574853
_cell_formula_units_Z   1
loop_
 _symmetry_equiv_pos_site_id
 _symmetry_equiv_pos_as_xyz
  1  'x, y, z'
loop_
 _atom_site_type_symbol
 _atom_site_label
 _atom_site_symmetry_multiplicity
 _atom_site_fract_x
 _atom_site_fract_y
 _atom_site_fract_z
 _atom_site_occupancy
  Ca  Ca0  1  0.50000000  0.50000000  -0.00000000  1
  Eu  Eu0  1  0.00000000  0.00000000  0.50000000  1
  Fe  Fe0  1  0.00000000  0.50000000  0.75170497  1
  Fe  Fe1  1  0.00000000  0.50000000  0.24829503  1
  Fe  Fe2  1  0.50000000  -0.00000000  0.24829503  1
  Fe  Fe3  1  0.50000000  0.00000000  0.75170497  1
  O  O0  1  0.24689407  0.24689407  0.25568659  1
  O  O1  1  0.24689407  0.24689407  0.74431341  1
  O  O2  1  0.75310593  0.75310593  0.74431341  1
  O  O3  1  0.75310593  0.75310593  0.25568659  1
  O  O4  1  0.75310593  0.24689407  0.74431341  1
  O  O5  1  0.75310593  0.24689407  0.25568659  1
  O  O6  1  0.24689407  0.75310593  0.74431341  1
  O  O7  1  0.24689407  0.75310593  0.25568659  1
  O  O8  1  0.00000000  0.50000000  0.50000000  1
  O  O9  1  0.00000000  0.50000000  -0.00000000  1
  O  O10  1  0.50000000  0.00000000  0.50000000  1
  O  O11  1  0.50000000  0.00000000  -0.00000000  1
loop_
_geom_bond_atom_site_label_1
_geom_bond_atom_site_label_2
_geom_bond_distance
_geom_bond_site_symmetry_2
Ca0 O9 2.672895 1_655
Ca0 O11 2.672895 1_555
Ca0 O11 2.672895 1_565
Ca0 O9 2.672895 1_555
Ca0 O3 2.730748 1_555
Ca0 O7 2.730748 1_555
Ca0 O0 2.730748 1_555
Ca0 O5 2.730748 1_555
Ca0 O2 2.730748 1_554
Ca0 O4 2.730748 1_554
Ca0 O6 2.730748 1_554
Ca0 O1 2.730748 1_554
Eu0 O2 2.636156 1_445
Eu0 O4 2.636156 1_455
Eu0 O3 2.636156 1_445
Eu0 O1 2.636156 1_555
Eu0 O0 2.636156 1_555
Eu0 O6 2.636156 1_545
Eu0 O5 2.636156 1_455
Eu0 O7 2.636156 1_545
Eu0 O10 2.672895 1_455
Eu0 O8 2.672895 1_545
Eu0 O10 2.672895 1_555
Eu0 O8 2.672895 1_555
Fe0 O4 1.891007 1_455
Fe0 O2 1.891007 1_455
Fe0 O6 1.891007 1_555
Fe0 O1 1.891007 1_555
Fe0 O9 1.891882 1_556
Fe0 O8 1.917864 1_555
Fe1 O5 1.891007 1_455
Fe1 O3 1.891007 1_455
Fe1 O7 1.891007 1_555
Fe1 O0 1.891007 1_555
Fe1 O9 1.891882 1_555
Fe1 O8 1.917864 1_555
Fe2 O3 1.891007 1_545
Fe2 O7 1.891007 1_545
Fe2 O5 1.891007 1_555
Fe2 O0 1.891007 1_555
Fe2 O11 1.891882 1_555
Fe2 O10 1.917864 1_555
Fe3 O2 1.891007 1_545
Fe3 O6 1.891007 1_545
Fe3 O1 1.891007 1_555
Fe3 O4 1.891007 1_555
Fe3 O11 1.891882 1_556
Fe3 O10 1.917864 1_555
