# generated using pymatgen
data_CaMg
_symmetry_space_group_name_H-M   'P 1'
_cell_length_a   5.70318187
_cell_length_b   10.76175711
_cell_length_c   6.11830739
_cell_angle_alpha   90.00000000
_cell_angle_beta   90.00000000
_cell_angle_gamma   90.00000000
_symmetry_Int_Tables_number   1
_chemical_formula_structural   CaMg
_chemical_formula_sum   'Ca6 Mg6'
_cell_volume   375.51881313
_cell_formula_units_Z   6
loop_
 _symmetry_equiv_pos_site_id
 _symmetry_equiv_pos_as_xyz
  1  'x, y, z'
loop_
 _atom_site_type_symbol
 _atom_site_label
 _atom_site_symmetry_multiplicity
 _atom_site_fract_x
 _atom_site_fract_y
 _atom_site_fract_z
 _atom_site_occupancy
  Ca  Ca0  1  0.00000000  0.17420134  0.15730318  1
  Ca  Ca1  1  0.00000000  0.32579866  0.65730318  1
  Ca  Ca2  1  0.50000000  0.50000000  0.85460074  1
  Ca  Ca3  1  0.00000000  0.67420134  0.65730318  1
  Ca  Ca4  1  0.00000000  0.82579866  0.15730318  1
  Ca  Ca5  1  0.50000000  0.00000000  0.35460074  1
  Mg  Mg0  1  0.00000000  0.50000000  0.17278466  1
  Mg  Mg1  1  0.50000000  0.33821658  0.32900412  1
  Mg  Mg2  1  0.50000000  0.16178342  0.82900412  1
  Mg  Mg3  1  0.00000000  0.00000000  0.67278466  1
  Mg  Mg4  1  0.50000000  0.83821658  0.82900412  1
  Mg  Mg5  1  0.50000000  0.66178342  0.32900412  1
loop_
_geom_bond_atom_site_label_1
_geom_bond_atom_site_label_2
_geom_bond_distance
_geom_bond_site_symmetry_2
Ca0 Ca1 3.466996 1_555
Ca0 Ca1 3.466996 1_554
Ca0 Mg2 3.490565 1_554
Ca0 Mg2 3.490565 1_454
Ca0 Mg0 3.507445 1_555
Ca0 Mg3 3.507479 1_554
Ca0 Mg1 3.514358 1_555
Ca0 Mg1 3.514358 1_455
Ca0 Ca5 3.619844 1_455
Ca0 Ca5 3.619844 1_555
Ca0 Mg3 3.668987 1_555
Ca0 Ca4 3.749425 1_545
Ca1 Mg1 3.490565 1_455
Ca1 Mg1 3.490565 1_555
Ca1 Mg3 3.507445 1_555
Ca1 Mg0 3.507479 1_555
Ca1 Mg2 3.514358 1_555
Ca1 Mg2 3.514358 1_455
Ca1 Ca2 3.619844 1_555
Ca1 Ca2 3.619844 1_455
Ca1 Mg0 3.668987 1_556
Ca1 Ca3 3.749425 1_555
Ca2 Mg5 3.384688 1_556
Ca2 Mg1 3.384688 1_556
Ca2 Mg0 3.452737 1_656
Ca2 Mg0 3.452737 1_556
Ca2 Ca3 3.619844 1_555
Ca2 Ca3 3.619844 1_655
Ca2 Mg4 3.643172 1_555
Ca2 Mg2 3.643172 1_555
Ca2 Mg5 3.656838 1_555
Ca2 Mg1 3.656838 1_555
Ca3 Ca4 3.466996 1_555
Ca3 Ca4 3.466996 1_556
Ca3 Mg5 3.490565 1_555
Ca3 Mg5 3.490565 1_455
Ca3 Mg3 3.507445 1_565
Ca3 Mg0 3.507479 1_555
Ca3 Mg4 3.514358 1_455
Ca3 Mg4 3.514358 1_555
Ca3 Mg0 3.668987 1_556
Ca4 Mg4 3.490565 1_554
Ca4 Mg4 3.490565 1_454
Ca4 Mg0 3.507445 1_555
Ca4 Mg3 3.507479 1_564
Ca4 Mg5 3.514358 1_455
Ca4 Mg5 3.514358 1_555
Ca4 Ca5 3.619844 1_465
Ca4 Ca5 3.619844 1_565
Ca4 Mg3 3.668987 1_565
Ca5 Mg2 3.384688 1_555
Ca5 Mg4 3.384688 1_545
Ca5 Mg3 3.452737 1_555
Ca5 Mg3 3.452737 1_655
Ca5 Mg1 3.643172 1_555
Ca5 Mg5 3.643172 1_545
Ca5 Mg4 3.656838 1_544
Ca5 Mg2 3.656838 1_554
Mg0 Mg5 3.475120 1_555
Mg0 Mg1 3.475120 1_455
Mg0 Mg1 3.475120 1_555
Mg0 Mg5 3.475120 1_455
Mg2 Mg3 3.475120 1_555
Mg2 Mg3 3.475120 1_655
Mg3 Mg4 3.475120 1_445
Mg3 Mg4 3.475120 1_545
