# generated using pymatgen
data_Pr4(MoO2)9
_symmetry_space_group_name_H-M   'P 1'
_cell_length_a   11.94623405
_cell_length_b   11.80155800
_cell_length_c   18.50908141
_cell_angle_alpha   90.00000000
_cell_angle_beta   71.05159960
_cell_angle_gamma   119.60018674
_symmetry_Int_Tables_number   1
_chemical_formula_structural   Pr4(MoO2)9
_chemical_formula_sum   'Pr20 Mo45 O90'
_cell_volume   2104.77103231
_cell_formula_units_Z   5
loop_
 _symmetry_equiv_pos_site_id
 _symmetry_equiv_pos_as_xyz
  1  'x, y, z'
loop_
 _atom_site_type_symbol
 _atom_site_label
 _atom_site_symmetry_multiplicity
 _atom_site_fract_x
 _atom_site_fract_y
 _atom_site_fract_z
 _atom_site_occupancy
  Pr  Pr0  1  0.02947500  0.84802200  0.13503700  1
  Pr  Pr1  1  0.68817700  0.84408800  0.13604400  1
  Pr  Pr2  1  0.02947500  0.18145300  0.13503700  1
  Pr  Pr3  1  0.95050100  0.47525100  0.22236100  1
  Pr  Pr4  1  0.30174700  0.82589500  0.22248400  1
  Pr  Pr5  1  0.30174700  0.47585100  0.22248400  1
  Pr  Pr6  1  0.43089100  0.71544600  0.85012800  1
  Pr  Pr7  1  0.29189600  0.14594800  0.22638400  1
  Pr  Pr8  1  0.62382900  0.47938700  0.22895500  1
  Pr  Pr9  1  0.62382900  0.14444200  0.22895500  1
  Pr  Pr10  1  0.89388100  0.44694100  0.66570800  1
  Pr  Pr11  1  0.64829400  0.49030700  0.84734800  1
  Pr  Pr12  1  0.99430500  0.49715200  0.84451000  1
  Pr  Pr13  1  0.64829400  0.15798700  0.84734800  1
  Pr  Pr14  1  0.32774300  0.66387100  0.67609300  1
  Pr  Pr15  1  0.66738100  0.00196700  0.67061400  1
  Pr  Pr16  1  0.66738100  0.66541400  0.67061400  1
  Pr  Pr17  1  0.60148200  0.30074100  0.41839300  1
  Pr  Pr18  1  0.27723700  0.97333900  0.41808400  1
  Pr  Pr19  1  0.27723700  0.30389800  0.41808400  1
  Mo  Mo0  1  0.23983900  0.37055200  0.89119700  1
  Mo  Mo1  1  0.23983900  0.86928700  0.89119700  1
  Mo  Mo2  1  0.74023500  0.87011700  0.89102500  1
  Mo  Mo3  1  0.59274700  0.29637400  0.61952900  1
  Mo  Mo4  1  0.08365700  0.78880100  0.61891600  1
  Mo  Mo5  1  0.08365700  0.29485600  0.61891600  1
  Mo  Mo6  1  0.23743800  0.11871900  0.89353300  1
  Mo  Mo7  1  0.98621800  0.86705100  0.89529500  1
  Mo  Mo8  1  0.98621800  0.11916700  0.89529500  1
  Mo  Mo9  1  0.09252700  0.04626300  0.61447300  1
  Mo  Mo10  1  0.34257600  0.30500800  0.61167000  1
  Mo  Mo11  1  0.34257600  0.03756800  0.61167000  1
  Mo  Mo12  1  0.93161500  0.85453100  0.47590000  1
  Mo  Mo13  1  0.44423800  0.59715500  0.47357300  1
  Mo  Mo14  1  0.67444500  0.08207000  0.47396500  1
  Mo  Mo15  1  0.67444500  0.59237500  0.47396500  1
  Mo  Mo16  1  0.44423800  0.84708300  0.47357300  1
  Mo  Mo17  1  0.93161500  0.07708400  0.47590000  1
  Mo  Mo18  1  0.94106700  0.21297100  0.32994900  1
  Mo  Mo19  1  0.94106700  0.72809600  0.32994900  1
  Mo  Mo20  1  0.45945300  0.72972700  0.32949900  1
  Mo  Mo21  1  0.41156500  0.07941700  0.75376800  1
  Mo  Mo22  1  0.91183500  0.83081700  0.75587200  1
  Mo  Mo23  1  0.16357400  0.33188900  0.75515100  1
  Mo  Mo24  1  0.16357400  0.83168500  0.75515100  1
  Mo  Mo25  1  0.91183500  0.08101800  0.75587200  1
  Mo  Mo26  1  0.41156500  0.33214800  0.75376800  1
  Mo  Mo27  1  0.38286600  0.07955700  0.03700200  1
  Mo  Mo28  1  0.65269600  0.57964100  0.03840900  1
  Mo  Mo29  1  0.88576600  0.30523800  0.03842200  1
  Mo  Mo30  1  0.88576600  0.58052800  0.03842200  1
  Mo  Mo31  1  0.65269600  0.07305500  0.03840900  1
  Mo  Mo32  1  0.38286600  0.30330900  0.03700200  1
  Mo  Mo33  1  0.92908400  0.58631000  0.47994900  1
  Mo  Mo34  1  0.19096800  0.59548400  0.48079800  1
  Mo  Mo35  1  0.92908400  0.34277400  0.47994900  1
  Mo  Mo36  1  0.68139400  0.84069700  0.47922600  1
  Mo  Mo37  1  0.39626200  0.82128200  0.03365400  1
  Mo  Mo38  1  0.39626200  0.57498000  0.03365400  1
  Mo  Mo39  1  0.13718500  0.56859300  0.03269900  1
  Mo  Mo40  1  0.15590800  0.07795400  0.75584300  1
  Mo  Mo41  1  0.94620400  0.97310200  0.33142800  1
  Mo  Mo42  1  0.69354900  0.72146300  0.33319000  1
  Mo  Mo43  1  0.69354900  0.97208600  0.33319000  1
  Mo  Mo44  1  0.63905500  0.31952800  0.03708700  1
  O  O0  1  0.20969300  0.49007000  0.81659200  1
  O  O1  1  0.46095000  0.97331200  0.81746900  1
  O  O2  1  0.69627700  0.71845900  0.81794600  1
  O  O3  1  0.69627700  0.97781800  0.81794600  1
  O  O4  1  0.46095000  0.48763800  0.81746900  1
  O  O5  1  0.20969300  0.71962300  0.81659200  1
  O  O6  1  0.82006900  0.91003500  0.26793200  1
  O  O7  1  0.94888900  0.23037800  0.82555300  1
  O  O8  1  0.45566000  0.22783000  0.82463100  1
  O  O9  1  0.94888900  0.71851200  0.82555300  1
  O  O10  1  0.31058600  0.15529300  0.54237700  1
  O  O11  1  0.52476200  0.01867200  0.97318400  1
  O  O12  1  0.52476200  0.50609000  0.97318400  1
  O  O13  1  0.00035700  0.50017800  0.97147400  1
  O  O14  1  0.58611900  0.92098900  0.25505300  1
  O  O15  1  0.07798500  0.15911800  0.25481200  1
  O  O16  1  0.82426300  0.66816000  0.25557200  1
  O  O17  1  0.82426300  0.15610300  0.25557200  1
  O  O18  1  0.07798500  0.91886700  0.25481200  1
  O  O19  1  0.58611900  0.66513000  0.25505300  1
  O  O20  1  0.36931100  0.01919400  0.27738500  1
  O  O21  1  0.36931100  0.35011700  0.27738500  1
  O  O22  1  0.70424000  0.35212000  0.27738500  1
  O  O23  1  0.92230800  0.96115400  0.11867400  1
  O  O24  1  0.52683600  0.76341800  0.71360900  1
  O  O25  1  0.51549500  0.88513800  0.10663200  1
  O  O26  1  0.26797400  0.38399000  0.10532600  1
  O  O27  1  0.00118300  0.62767600  0.10739000  1
  O  O28  1  0.00118300  0.37350700  0.10739000  1
  O  O29  1  0.26797400  0.88398400  0.10532600  1
  O  O30  1  0.51549500  0.63035700  0.10663200  1
  O  O31  1  0.86734900  0.18963400  0.69119900  1
  O  O32  1  0.62825900  0.44171400  0.69337700  1
  O  O33  1  0.11720100  0.67572300  0.69343800  1
  O  O34  1  0.11720100  0.44147800  0.69343800  1
  O  O35  1  0.62825900  0.18654500  0.69337700  1
  O  O36  1  0.86734900  0.67771500  0.69119900  1
  O  O37  1  0.06346000  0.53173000  0.41541500  1
  O  O38  1  0.77631800  0.26261300  0.96044300  1
  O  O39  1  0.53369500  0.26684800  0.95495700  1
  O  O40  1  0.77631800  0.51370500  0.96044300  1
  O  O41  1  0.29958400  0.40160900  0.53911700  1
  O  O42  1  0.55596300  0.15982300  0.53906700  1
  O  O43  1  0.06623100  0.90573800  0.53813500  1
  O  O44  1  0.06623100  0.16049300  0.53813500  1
  O  O45  1  0.55596300  0.39614100  0.53906700  1
  O  O46  1  0.29958400  0.89797600  0.53911700  1
  O  O47  1  0.41102900  0.20551500  0.38314500  1
  O  O48  1  0.50679300  0.12991200  0.11461800  1
  O  O49  1  0.50679300  0.37688100  0.11461800  1
  O  O50  1  0.75297800  0.37648900  0.11326300  1
  O  O51  1  0.02895500  0.01447800  0.95990500  1
  O  O52  1  0.81042100  0.27508100  0.40536600  1
  O  O53  1  0.05337400  0.77854200  0.40814400  1
  O  O54  1  0.32215200  0.53479000  0.40274300  1
  O  O55  1  0.32215200  0.78736200  0.40274300  1
  O  O56  1  0.05337400  0.27483200  0.40814400  1
  O  O57  1  0.81042100  0.53534000  0.40536600  1
  O  O58  1  0.77664500  0.00831700  0.96751200  1
  O  O59  1  0.26682400  0.25637600  0.96560600  1
  O  O60  1  0.02547500  0.76760500  0.96695400  1
  O  O61  1  0.02547500  0.25787000  0.96695400  1
  O  O62  1  0.26682400  0.01044700  0.96560600  1
  O  O63  1  0.77664500  0.76832800  0.96751200  1
  O  O64  1  0.26050500  0.63025300  0.10337700  1
  O  O65  1  0.38133500  0.92882300  0.68490700  1
  O  O66  1  0.87313200  0.93656600  0.68334900  1
  O  O67  1  0.38133500  0.45251200  0.68490700  1
  O  O68  1  0.55567300  0.04186500  0.39737900  1
  O  O69  1  0.08663600  0.04331800  0.39654100  1
  O  O70  1  0.55567300  0.51380700  0.39737900  1
  O  O71  1  0.79874900  0.39937500  0.80115000  1
  O  O72  1  0.23104500  0.11552300  0.11365000  1
  O  O73  1  0.76456500  0.64628700  0.11216900  1
  O  O74  1  0.76456500  0.11827700  0.11216900  1
  O  O75  1  0.78837600  0.89418800  0.55883900  1
  O  O76  1  0.55429000  0.65557400  0.55418000  1
  O  O77  1  0.55429000  0.89871700  0.55418000  1
  O  O78  1  0.35018000  0.67509000  0.25722600  1
  O  O79  1  0.06822600  0.39177300  0.25617200  1
  O  O80  1  0.06822600  0.67645200  0.25617200  1
  O  O81  1  0.52052700  0.76026300  0.95520400  1
  O  O82  1  0.28380100  0.52443000  0.95812900  1
  O  O83  1  0.28380100  0.75937100  0.95812900  1
  O  O84  1  0.80652400  0.40326200  0.55841400  1
  O  O85  1  0.04022600  0.63621200  0.55495600  1
  O  O86  1  0.04022600  0.40401400  0.55495600  1
  O  O87  1  0.32186500  0.66093200  0.54799800  1
  O  O88  1  0.79964700  0.14379500  0.54250200  1
  O  O89  1  0.79964700  0.65585200  0.54250200  1
loop_
_geom_bond_atom_site_label_1
_geom_bond_atom_site_label_2
_geom_bond_distance
_geom_bond_site_symmetry_2
Mo0 O59 2.129273 1_555
Mo0 O82 2.142143 1_555
Mo0 O61 2.143894 1_555
Mo0 O4 2.191377 1_555
Mo0 O0 2.202447 1_555
Mo1 O62 2.129265 1_565
Mo1 O83 2.142143 1_555
Mo1 O60 2.143894 1_555
Mo1 O1 2.191377 1_555
Mo1 O5 2.202447 1_555
Mo2 O63 2.133669 1_555
Mo2 O58 2.133677 1_565
Mo2 O81 2.143465 1_555
Mo2 O2 2.200351 1_555
Mo2 O3 2.200359 1_555
Mo3 O84 2.081886 1_555
Mo3 O32 2.155935 1_555
Mo3 O35 2.155943 1_555
Mo3 O45 2.175653 1_555
Mo3 O42 2.175653 1_555
Mo4 O85 2.095090 1_555
Mo4 O36 2.143401 1_455
Mo4 O43 2.160872 1_555
Mo4 O33 2.175149 1_555
Mo4 O46 2.176673 1_555
Mo5 O86 2.095090 1_555
Mo5 O31 2.143401 1_455
Mo5 O44 2.160872 1_555
Mo5 O34 2.175149 1_555
Mo5 O41 2.176673 1_555
Mo6 O51 2.052252 1_555
Mo6 O59 2.069482 1_555
Mo6 O62 2.069491 1_555
Mo6 O8 2.145986 1_555
Mo7 O51 2.058371 1_665
Mo7 O60 2.074654 1_655
Mo7 O63 2.087402 1_555
Mo7 O9 2.130668 1_555
Mo8 O51 2.058363 1_655
Mo8 O61 2.074654 1_655
Mo8 O58 2.087402 1_555
Mo8 O7 2.130676 1_555
Mo9 O43 2.149193 1_545
Mo9 O44 2.149202 1_555
Mo9 O66 2.156067 1_445
Mo9 O10 2.157189 1_555
Mo10 O41 2.095988 1_555
Mo10 O45 2.127832 1_555
Mo10 O10 2.136369 1_555
Mo10 O67 2.166464 1_555
Mo10 Mo40 3.083229 1_555
Mo11 O46 2.095980 1_545
Mo11 O42 2.127833 1_555
Mo11 O10 2.136369 1_555
Mo11 O65 2.166464 1_545
Mo11 Mo40 3.083229 1_555
Mo12 O43 2.126320 1_655
Mo12 O89 2.142176 1_555
Mo12 O75 2.142177 1_555
Mo12 O53 2.143994 1_655
Mo12 O69 2.169882 1_665
Mo13 O87 2.092945 1_555
Mo13 O41 2.117201 1_555
Mo13 O54 2.137488 1_555
Mo13 O70 2.191561 1_555
Mo13 O76 2.192750 1_555
Mo14 O52 2.108217 1_555
Mo14 O42 2.114899 1_555
Mo14 O77 2.120038 1_545
Mo14 O88 2.129048 1_555
Mo14 O68 2.211084 1_555
Mo15 O57 2.108217 1_555
Mo15 O45 2.114890 1_555
Mo15 O76 2.120047 1_555
Mo15 O89 2.129048 1_555
Mo15 O70 2.211085 1_555
Mo16 O87 2.092953 1_555
Mo16 O46 2.117209 1_555
Mo16 O55 2.137488 1_555
Mo16 O68 2.191552 1_565
Mo16 O77 2.192750 1_555
Mo17 O44 2.126320 1_655
Mo17 O88 2.142176 1_555
Mo17 O75 2.142177 1_545
Mo17 O56 2.143994 1_655
Mo17 O69 2.169882 1_655
Mo18 O79 2.027608 1_655
Mo18 O15 2.136129 1_655
Mo18 O17 2.148259 1_555
Mo18 O52 2.153363 1_555
Mo18 O56 2.172825 1_655
Mo19 O80 2.027616 1_655
Mo19 O18 2.136129 1_655
Mo19 O16 2.148259 1_555
Mo19 O57 2.153363 1_555
Mo19 O53 2.172825 1_655
Mo20 O78 2.052276 1_555
Mo20 O14 2.134252 1_555
Mo20 O19 2.134260 1_555
Mo20 O55 2.156135 1_555
Mo20 O54 2.156143 1_555
Mo21 O35 2.106354 1_555
Mo21 O1 2.118438 1_545
Mo21 O65 2.139714 1_545
Mo21 O8 2.145416 1_555
Mo21 Mo40 3.033358 1_555
Mo22 O2 2.101149 1_555
Mo22 O36 2.108209 1_555
Mo22 O66 2.132191 1_555
Mo22 O9 2.136893 1_555
Mo22 Mo40 2.933610 1_665
Mo23 O34 2.098349 1_555
Mo23 O0 2.114837 1_555
Mo23 O7 2.122528 1_455
Mo23 O67 2.151591 1_555
Mo23 Mo40 2.952566 1_555
Mo24 O33 2.098349 1_555
Mo24 O5 2.114837 1_555
Mo24 O9 2.122527 1_455
Mo24 O65 2.151591 1_555
Mo24 Mo40 2.952566 1_565
Mo25 O3 2.101149 1_545
Mo25 O31 2.108209 1_555
Mo25 O66 2.132191 1_545
Mo25 O7 2.136902 1_555
Mo25 Mo40 2.933610 1_655
Mo26 O32 2.106354 1_555
Mo26 O4 2.118438 1_555
Mo26 O67 2.139714 1_555
Mo26 O8 2.145416 1_555
Mo26 Mo40 3.033358 1_555
Mo27 O62 2.099045 1_554
Mo27 O29 2.133893 1_545
Mo27 O72 2.138171 1_555
Mo27 O11 2.165156 1_554
Mo27 O39 2.174126 1_554
Mo27 O48 2.262927 1_555
Mo28 O30 2.064995 1_555
Mo28 O63 2.086605 1_554
Mo28 O73 2.101185 1_555
Mo28 O12 2.105805 1_554
Mo28 O40 2.149464 1_554
Mo28 O49 2.244244 1_555
Mo29 O28 2.055574 1_655
Mo29 O61 2.082251 1_654
Mo29 O74 2.094858 1_555
Mo29 O13 2.118807 1_654
Mo29 O38 2.149782 1_554
Mo29 O50 2.243436 1_555
Mo30 O27 2.055574 1_655
Mo30 O60 2.082251 1_654
Mo30 O73 2.094849 1_555
Mo30 O13 2.118816 1_654
Mo30 O40 2.149782 1_554
Mo30 O50 2.243436 1_555
Mo31 O25 2.064995 1_545
Mo31 O58 2.086605 1_554
Mo31 O74 2.101186 1_555
Mo31 O11 2.105805 1_554
Mo31 O38 2.149464 1_554
Mo31 O48 2.244244 1_555
Mo32 O59 2.099044 1_554
Mo32 O26 2.133893 1_555
Mo32 O72 2.138164 1_555
Mo32 O12 2.165156 1_554
Mo32 O39 2.174119 1_554
Mo32 O49 2.262927 1_555
Mo33 O37 2.048127 1_655
Mo33 O84 2.100966 1_555
Mo33 O85 2.112283 1_655
Mo33 O89 2.120389 1_555
Mo33 O53 2.123313 1_655
Mo33 O57 2.169224 1_555
Mo34 O37 2.101394 1_555
Mo34 O85 2.146568 1_555
Mo34 O86 2.146568 1_555
Mo34 O87 2.158436 1_555
Mo34 O54 2.166752 1_555
Mo34 O55 2.166752 1_555
Mo35 O37 2.048127 1_655
Mo35 O84 2.100966 1_555
Mo35 O86 2.112283 1_655
Mo35 O88 2.120389 1_555
Mo35 O56 2.123313 1_655
Mo35 O52 2.169224 1_555
Mo36 O76 2.087614 1_555
Mo36 O77 2.087622 1_555
Mo36 O75 2.151580 1_555
Mo37 O11 2.094590 1_564
Mo37 O64 2.099272 1_555
Mo37 O29 2.110952 1_555
Mo37 O81 2.118232 1_554
Mo37 O83 2.131400 1_554
Mo37 O25 2.147188 1_555
Mo38 O12 2.094590 1_554
Mo38 O64 2.099280 1_555
Mo38 O26 2.110952 1_555
Mo38 O81 2.118224 1_554
Mo38 O82 2.131400 1_554
Mo38 O30 2.147188 1_555
Mo39 O13 2.122998 1_554
Mo39 O83 2.139214 1_554
Mo39 O82 2.139222 1_554
Mo39 O64 2.145641 1_555
Mo39 O27 2.167378 1_555
Mo39 O28 2.167387 1_555
Mo40 Mo9 2.926916 1_555
Mo40 Mo8 2.929865 1_455
Mo40 Mo7 2.929865 1_445
Mo40 Mo6 2.970544 1_555
Mo41 O6 2.061043 1_555
Mo41 O18 2.108227 1_655
Mo41 O15 2.108227 1_665
Mo41 O69 2.212081 1_665
Mo42 O6 2.046334 1_555
Mo42 O16 2.100366 1_555
Mo42 O19 2.131478 1_555
Mo42 O70 2.207205 1_555
Mo43 O6 2.046326 1_555
Mo43 O17 2.100366 1_565
Mo43 O14 2.131478 1_555
Mo43 O68 2.207197 1_565
Mo44 O49 2.144277 1_555
Mo44 O48 2.144285 1_555
Mo44 O50 2.152770 1_555
Mo44 O40 2.174812 1_554
Mo44 O38 2.174820 1_554
Mo44 O39 2.179712 1_554
O0 Pr12 2.498736 1_455
O0 Pr14 2.778358 1_555
O0 Pr6 2.926497 1_555
O1 Pr13 2.459655 1_565
O1 Pr15 2.899502 1_565
O1 Pr6 2.921474 1_555
O2 Pr11 2.479364 1_555
O2 Pr16 2.888830 1_555
O2 Pr6 3.011559 1_555
O3 Pr13 2.479364 1_565
O3 Pr15 2.888830 1_565
O3 Pr6 3.011553 1_555
O4 Pr11 2.459655 1_555
O4 Pr16 2.899502 1_555
O4 Pr6 2.921486 1_555
O5 Pr12 2.498742 1_455
O5 Pr14 2.778364 1_555
O5 Pr6 2.926492 1_555
O7 Pr12 2.960702 1_555
O7 Pr13 3.133088 1_555
O8 Pr11 2.941801 1_555
O8 Pr13 2.941801 1_555
O9 Pr12 2.960725 1_555
O9 Pr11 3.133091 1_555
O10 Pr17 3.035974 1_555
O10 Pr19 3.132477 1_555
O10 Pr18 3.132477 1_545
O11 Pr13 2.382561 1_555
O12 Pr11 2.382561 1_555
O13 Pr12 2.374180 1_455
O14 Pr9 2.464877 1_565
O14 Pr1 2.551703 1_555
O15 Pr2 2.511040 1_555
O15 Pr7 2.519997 1_555
O16 Pr8 2.536832 1_555
O16 Pr0 2.607729 1_655
O17 Pr9 2.536832 1_555
O17 Pr2 2.607729 1_655
O18 Pr0 2.511040 1_555
O18 Pr7 2.519997 1_565
O19 Pr8 2.464877 1_555
O19 Pr1 2.551696 1_555
O20 Pr4 2.366804 1_545
O20 Pr18 2.415845 1_545
O20 Pr7 2.432638 1_555
O20 Pr9 2.454244 1_555
O21 Pr5 2.366795 1_555
O21 Pr19 2.415845 1_555
O21 Pr7 2.432638 1_555
O21 Pr8 2.454244 1_555
O22 Pr3 2.373723 1_555
O22 Pr17 2.422869 1_555
O22 Pr9 2.442677 1_555
O22 Pr8 2.442677 1_555
O23 Pr1 2.331050 1_555
O23 Pr0 2.335323 1_655
O23 Pr2 2.335323 1_665
O24 Pr6 2.344618 1_555
O24 Pr14 2.414832 1_555
O24 Pr15 2.416748 1_565
O24 Pr16 2.416748 1_555
O25 Pr4 2.507501 1_555
O25 Pr1 2.550140 1_555
O26 Pr5 2.485254 1_555
O26 Pr2 2.527483 1_555
O27 Pr3 2.493628 1_455
O27 Pr0 2.526336 1_555
O28 Pr3 2.493635 1_455
O28 Pr2 2.526336 1_555
O29 Pr4 2.485258 1_555
O29 Pr0 2.527483 1_555
O30 Pr5 2.507504 1_555
O30 Pr1 2.550133 1_555
O31 Pr15 2.474151 1_555
O31 Pr10 2.914826 1_555
O31 Pr13 3.076251 1_555
O32 Pr16 2.453326 1_555
O32 Pr11 2.969048 1_555
O32 Pr10 3.014369 1_555
O33 Pr14 2.504381 1_555
O33 Pr10 2.905867 1_455
O33 Pr12 2.948358 1_455
O34 Pr14 2.504374 1_555
O34 Pr10 2.905873 1_455
O34 Pr12 2.948352 1_455
O35 Pr15 2.453326 1_555
O35 Pr13 2.969048 1_555
O35 Pr10 3.014374 1_555
O36 Pr16 2.474151 1_555
O36 Pr10 2.914814 1_555
O36 Pr11 3.076251 1_555
O38 Pr12 2.880565 1_555
O38 Pr13 2.908455 1_555
O39 Pr11 2.731016 1_555
O39 Pr13 2.731024 1_555
O40 Pr12 2.880571 1_555
O40 Pr11 2.908455 1_555
O41 Pr19 2.550259 1_555
O42 Pr17 2.523507 1_555
O43 Pr18 2.510725 1_555
O44 Pr19 2.510725 1_555
O45 Pr17 2.523513 1_555
O46 Pr18 2.550254 1_555
O47 Pr17 2.302861 1_555
O47 Pr19 2.341562 1_555
O47 Pr18 2.341572 1_545
O48 Pr7 2.817237 1_555
O48 Pr9 2.854389 1_555
O49 Pr7 2.817237 1_555
O49 Pr8 2.854389 1_555
O50 Pr9 2.854070 1_555
O50 Pr8 2.854070 1_555
O52 Pr17 2.595359 1_555
O53 Pr18 2.591677 1_555
O54 Pr19 2.500042 1_555
O55 Pr18 2.500042 1_555
O56 Pr19 2.591677 1_555
O57 Pr17 2.595359 1_555
O65 Pr14 2.881643 1_555
O65 Pr15 2.998511 1_565
O66 Pr16 2.990522 1_555
O66 Pr15 2.990522 1_565
O67 Pr14 2.881631 1_555
O67 Pr16 2.998511 1_555
O68 Pr17 2.875971 1_555
O68 Pr18 2.894760 1_545
O68 Pr9 3.037158 1_555
O69 Pr19 2.910829 1_555
O69 Pr18 2.910829 1_545
O69 Pr7 3.073983 1_555
O70 Pr17 2.875960 1_555
O70 Pr19 2.894757 1_555
O70 Pr8 3.037155 1_555
O71 Pr10 2.326108 1_555
O71 Pr12 2.446994 1_555
O71 Pr11 2.453710 1_555
O71 Pr13 2.453719 1_555
O72 Pr7 2.395518 1_555
O72 Pr2 2.791496 1_555
O72 Pr0 2.791504 1_545
O73 Pr8 2.397327 1_555
O73 Pr1 2.884405 1_555
O73 Pr0 3.047822 1_655
O74 Pr9 2.397333 1_555
O74 Pr1 2.884405 1_545
O74 Pr2 3.047819 1_655
O75 Pr15 2.803841 1_565
O75 Pr16 2.803841 1_555
O76 Pr16 2.866876 1_555
O76 Pr14 2.953239 1_555
O77 Pr15 2.866874 1_565
O77 Pr14 2.953250 1_555
O78 Pr4 2.274780 1_555
O78 Pr5 2.274790 1_555
O79 Pr3 2.297910 1_455
O79 Pr5 2.300334 1_555
O80 Pr3 2.297893 1_455
O80 Pr4 2.300334 1_555
O81 Pr6 2.449869 1_555
O82 Pr6 2.443578 1_555
O83 Pr6 2.443571 1_555
O84 Pr10 2.472478 1_555
O85 Pr10 2.462264 1_455
O86 Pr10 2.462271 1_455
O87 Pr14 2.394392 1_555
O88 Pr15 2.423847 1_555
O89 Pr16 2.423847 1_555
