# generated using pymatgen
data_La5Sm3Cr7FeO20
_symmetry_space_group_name_H-M   'P 1'
_cell_length_a   11.07724909
_cell_length_b   11.49969378
_cell_length_c   17.69464128
_cell_angle_alpha   108.76673848
_cell_angle_beta   108.14561340
_cell_angle_gamma   90.83576618
_symmetry_Int_Tables_number   1
_chemical_formula_structural   La5Sm3Cr7FeO20
_chemical_formula_sum   'La20 Sm12 Cr28 Fe4 O80'
_cell_volume   2011.49104181
_cell_formula_units_Z   4
loop_
 _symmetry_equiv_pos_site_id
 _symmetry_equiv_pos_as_xyz
  1  'x, y, z'
loop_
 _atom_site_type_symbol
 _atom_site_label
 _atom_site_symmetry_multiplicity
 _atom_site_fract_x
 _atom_site_fract_y
 _atom_site_fract_z
 _atom_site_occupancy
  La  La0  1  0.30749919  0.06262360  0.61308937  1
  La  La1  1  0.31091168  0.56199156  0.61165263  1
  La  La2  1  0.81024402  0.06295440  0.61851744  1
  La  La3  1  0.80797630  0.56555460  0.61991487  1
  La  La4  1  0.18962499  0.43396427  0.38138208  1
  La  La5  1  0.18527067  0.43793272  0.88304924  1
  La  La6  1  0.19062550  0.93478772  0.38131740  1
  La  La7  1  0.69008003  0.43696244  0.38013585  1
  La  La8  1  0.68776064  0.93498571  0.37902728  1
  La  La9  1  0.05784990  0.30712420  0.12117883  1
  La  La10  1  0.05634962  0.29763837  0.61489589  1
  La  La11  1  0.05449717  0.80809462  0.61688716  1
  La  La12  1  0.56240481  0.30055863  0.61722191  1
  La  La13  1  0.43736273  0.19351836  0.37902915  1
  La  La14  1  0.44773262  0.19898197  0.88655068  1
  La  La15  1  0.43759670  0.69126452  0.37825110  1
  La  La16  1  0.45209315  0.70071085  0.89005786  1
  La  La17  1  0.94240809  0.19976566  0.38170537  1
  La  La18  1  0.93863546  0.19199695  0.88006103  1
  La  La19  1  0.94467176  0.69369880  0.38148334  1
  Sm  Sm0  1  0.30522445  0.06298854  0.11586808  1
  Sm  Sm1  1  0.30640094  0.56334718  0.11570669  1
  Sm  Sm2  1  0.79578919  0.06234041  0.11413965  1
  Sm  Sm3  1  0.79774901  0.55935565  0.11490257  1
  Sm  Sm4  1  0.18735866  0.94026763  0.88730483  1
  Sm  Sm5  1  0.69753680  0.43564639  0.88735607  1
  Sm  Sm6  1  0.69162596  0.93545781  0.88376665  1
  Sm  Sm7  1  0.05737536  0.80082147  0.11347265  1
  Sm  Sm8  1  0.55268394  0.30283575  0.11729385  1
  Sm  Sm9  1  0.54588299  0.80214289  0.11637666  1
  Sm  Sm10  1  0.56036525  0.80047029  0.61400919  1
  Sm  Sm11  1  0.93521269  0.69726919  0.88351739  1
  Cr  Cr0  1  0.00547215  0.00021869  0.00165372  1
  Cr  Cr1  1  0.00165372  0.99829139  0.49652597  1
  Cr  Cr2  1  0.00584083  0.50205003  0.00121387  1
  Cr  Cr3  1  0.00464541  0.50387576  0.50425338  1
  Cr  Cr4  1  0.50440046  0.99950527  0.99805050  1
  Cr  Cr5  1  0.50629393  0.99711500  0.49982345  1
  Cr  Cr6  1  0.50555434  0.49917724  0.99913606  1
  Cr  Cr7  1  0.50633475  0.49991948  0.50049950  1
  Cr  Cr8  1  0.25407586  0.25050592  0.00028647  1
  Cr  Cr9  1  0.25611681  0.25081446  0.50134777  1
  Cr  Cr10  1  0.25182695  0.75093295  0.99738075  1
  Cr  Cr11  1  0.25881354  0.75067615  0.50317581  1
  Cr  Cr12  1  0.75713865  0.24779270  0.00124581  1
  Cr  Cr13  1  0.75243188  0.25092229  0.49875693  1
  Cr  Cr14  1  0.76029271  0.74942501  0.00399989  1
  Cr  Cr15  1  0.75296721  0.75008834  0.49962337  1
  Cr  Cr16  1  0.11551367  0.11789349  0.24637296  1
  Cr  Cr17  1  0.12853822  0.12257052  0.75385112  1
  Cr  Cr18  1  0.11952706  0.62503196  0.24820778  1
  Cr  Cr19  1  0.62075937  0.12232081  0.24867798  1
  Cr  Cr20  1  0.61949249  0.11786727  0.75102577  1
  Cr  Cr21  1  0.62166229  0.62419180  0.24884904  1
  Cr  Cr22  1  0.61846494  0.62131611  0.75239206  1
  Cr  Cr23  1  0.37091282  0.37735821  0.24839271  1
  Cr  Cr24  1  0.36354028  0.87669693  0.24780233  1
  Cr  Cr25  1  0.86713387  0.38000469  0.24842523  1
  Cr  Cr26  1  0.86795475  0.37899188  0.75152968  1
  Cr  Cr27  1  0.86796743  0.87379571  0.75196646  1
  Fe  Fe0  1  0.11763397  0.61176461  0.75276635  1
  Fe  Fe1  1  0.36752982  0.39725046  0.75137963  1
  Fe  Fe2  1  0.37017027  0.89345734  0.75114447  1
  Fe  Fe3  1  0.86270715  0.88798666  0.24318097  1
  O  O0  1  0.11629398  0.11688344  0.47805543  1
  O  O1  1  0.11439464  0.11268154  0.97371923  1
  O  O2  1  0.12169779  0.61944896  0.48564284  1
  O  O3  1  0.10875263  0.61896724  0.97137212  1
  O  O4  1  0.61474689  0.11490726  0.47529563  1
  O  O5  1  0.62090330  0.10940178  0.97305525  1
  O  O6  1  0.61508611  0.61662837  0.47732868  1
  O  O7  1  0.62462118  0.60944230  0.97483236  1
  O  O8  1  0.14140774  0.38969059  0.02591505  1
  O  O9  1  0.13515233  0.38986337  0.52348088  1
  O  O10  1  0.13875118  0.88595029  0.02526506  1
  O  O11  1  0.14248763  0.87777773  0.52183820  1
  O  O12  1  0.64071817  0.37245839  0.02565547  1
  O  O13  1  0.63989382  0.38741692  0.52422395  1
  O  O14  1  0.64107111  0.87185368  0.02693727  1
  O  O15  1  0.64053810  0.88150890  0.52556302  1
  O  O16  1  0.37080188  0.10447775  0.48143925  1
  O  O17  1  0.35750986  0.11166802  0.97159888  1
  O  O18  1  0.36939548  0.61085525  0.48180135  1
  O  O19  1  0.36229197  0.61704101  0.97623752  1
  O  O20  1  0.86302565  0.11829611  0.47600222  1
  O  O21  1  0.86413921  0.10303245  0.97324887  1
  O  O22  1  0.86724638  0.61686750  0.48062774  1
  O  O23  1  0.86913226  0.61003352  0.97495073  1
  O  O24  1  0.39012673  0.39137292  0.02723926  1
  O  O25  1  0.39261126  0.39029335  0.52460103  1
  O  O26  1  0.38522313  0.89156462  0.02306545  1
  O  O27  1  0.39576821  0.88473917  0.52576909  1
  O  O28  1  0.88659206  0.39789167  0.02710658  1
  O  O29  1  0.88871823  0.39089965  0.52501939  1
  O  O30  1  0.89261133  0.89425445  0.03088167  1
  O  O31  1  0.88650188  0.88704904  0.52117496  1
  O  O32  1  0.08996533  0.10585424  0.12369075  1
  O  O33  1  0.08010065  0.10224325  0.62970793  1
  O  O34  1  0.09173772  0.60890021  0.12380062  1
  O  O35  1  0.07577848  0.60940155  0.63389402  1
  O  O36  1  0.58763170  0.10927532  0.12524825  1
  O  O37  1  0.57928906  0.10085366  0.62553467  1
  O  O38  1  0.58979341  0.61147427  0.12586846  1
  O  O39  1  0.57703791  0.60631514  0.62617036  1
  O  O40  1  0.45053254  0.39764861  0.37570737  1
  O  O41  1  0.45992010  0.39406761  0.86590255  1
  O  O42  1  0.45152079  0.89406370  0.37392127  1
  O  O43  1  0.46388648  0.89073635  0.86564123  1
  O  O44  1  0.94979034  0.40417479  0.37683771  1
  O  O45  1  0.94912328  0.39544888  0.87670071  1
  O  O46  1  0.94968233  0.88802880  0.36023069  1
  O  O47  1  0.95814808  0.89212584  0.87651417  1
  O  O48  1  0.33681699  0.26449500  0.12409609  1
  O  O49  1  0.33312014  0.27972758  0.63575662  1
  O  O50  1  0.33208212  0.76717125  0.12248157  1
  O  O51  1  0.34092285  0.77960278  0.63271149  1
  O  O52  1  0.83396220  0.26378605  0.12464478  1
  O  O53  1  0.82319046  0.27343821  0.62550661  1
  O  O54  1  0.84466653  0.76518417  0.12953333  1
  O  O55  1  0.82226137  0.77371955  0.62566260  1
  O  O56  1  0.19921277  0.22492254  0.37204781  1
  O  O57  1  0.19805557  0.23475571  0.87709679  1
  O  O58  1  0.19917619  0.72496242  0.37726572  1
  O  O59  1  0.20027098  0.73215561  0.86972483  1
  O  O60  1  0.69711371  0.23056442  0.37483660  1
  O  O61  1  0.70177105  0.23136474  0.87640518  1
  O  O62  1  0.69717638  0.72820229  0.37562925  1
  O  O63  1  0.71165972  0.73377575  0.87847163  1
  O  O64  1  0.41594010  0.06276300  0.24479927  1
  O  O65  1  0.41681003  0.06865644  0.74976164  1
  O  O66  1  0.41951374  0.56573225  0.24414134  1
  O  O67  1  0.40930772  0.57724947  0.75121284  1
  O  O68  1  0.90903035  0.06463343  0.24457104  1
  O  O69  1  0.92725187  0.05842360  0.74982311  1
  O  O70  1  0.91644388  0.57189623  0.24489508  1
  O  O71  1  0.93331773  0.57059731  0.75616592  1
  O  O72  1  0.17529100  0.43902898  0.25165397  1
  O  O73  1  0.18077225  0.44108852  0.74995293  1
  O  O74  1  0.15618622  0.92664740  0.24502664  1
  O  O75  1  0.18356931  0.92119451  0.75579262  1
  O  O76  1  0.66818218  0.43180776  0.24541674  1
  O  O77  1  0.66456323  0.43033945  0.75518480  1
  O  O78  1  0.67588748  0.92636901  0.24341396  1
  O  O79  1  0.65815570  0.92205284  0.74994141  1
loop_
_geom_bond_atom_site_label_1
_geom_bond_atom_site_label_2
_geom_bond_distance
_geom_bond_site_symmetry_2
La0 O65 2.320593 1_555
La0 O49 2.395556 1_555
La0 O11 2.511303 1_545
La0 O27 2.548255 1_545
La0 O33 2.654771 1_555
La0 O16 2.806951 1_555
La0 O0 2.903476 1_555
La0 O37 2.965152 1_555
La1 O67 2.314341 1_555
La1 O51 2.410449 1_555
La1 O25 2.460439 1_555
La1 O9 2.480181 1_555
La1 O18 2.786038 1_555
La1 O35 2.788918 1_555
La1 O2 2.806898 1_555
La1 O39 2.901105 1_555
La2 O69 2.298917 1_555
La2 O53 2.383463 1_555
La2 O15 2.518822 1_545
La2 O31 2.546871 1_545
La2 O37 2.635539 1_555
La2 O33 2.951851 1_655
La2 O20 3.007699 1_555
La3 O71 2.359309 1_555
La3 O55 2.363915 1_555
La3 O13 2.494669 1_555
La3 O29 2.543875 1_555
La3 O39 2.637067 1_555
La3 O35 2.921418 1_655
La3 O22 2.964126 1_555
La3 O6 2.984673 1_555
La4 O72 2.270938 1_555
La4 O56 2.362260 1_555
La4 O18 2.571564 1_555
La4 O2 2.626578 1_555
La4 O44 2.646617 1_455
La4 O9 2.949578 1_555
La4 O40 2.954043 1_555
La5 O57 2.313192 1_555
La5 O73 2.352064 1_555
La5 O3 2.505612 1_555
La5 O19 2.547426 1_555
La5 O45 2.615037 1_455
La6 O74 2.291473 1_555
La6 O58 2.394977 1_555
La6 O16 2.527758 1_565
La6 O0 2.571942 1_565
La6 O46 2.600116 1_455
La6 O11 2.959927 1_555
La6 O42 2.970553 1_555
La7 O76 2.300735 1_555
La7 O60 2.348441 1_555
La7 O6 2.563246 1_555
La7 O22 2.575736 1_555
La7 O40 2.657900 1_555
La7 O44 2.923020 1_555
La7 O13 2.990376 1_555
La7 O29 3.014756 1_555
La8 O78 2.331391 1_555
La8 O62 2.363951 1_555
La8 O4 2.544791 1_565
La8 O20 2.575957 1_565
La8 O42 2.620529 1_555
La9 O72 2.267555 1_555
La9 O32 2.359239 1_555
La9 O52 2.545817 1_455
La9 O8 2.564311 1_555
La9 O28 2.582249 1_455
La10 O33 2.353737 1_555
La10 O73 2.382749 1_555
La10 O29 2.538420 1_455
La10 O9 2.541564 1_555
La10 O53 2.664217 1_455
La10 O20 2.865519 1_455
La10 O0 2.903066 1_555
La10 O49 2.990084 1_555
La11 O75 2.340298 1_555
La11 O35 2.404349 1_555
La11 O31 2.496261 1_455
La11 O11 2.507240 1_555
La11 O55 2.656491 1_455
La11 O22 2.879562 1_455
La11 O2 2.921600 1_555
La12 O77 2.313705 1_555
La12 O37 2.354461 1_555
La12 O13 2.520860 1_555
La12 O25 2.552102 1_555
La12 O49 2.677198 1_555
La12 O53 2.873287 1_555
La12 O16 2.925755 1_555
La12 O4 2.948592 1_555
La13 O64 2.301995 1_555
La13 O40 2.370510 1_555
La13 O4 2.556873 1_555
La13 O16 2.622954 1_555
La13 O56 2.637894 1_555
La13 O60 2.929767 1_555
La13 O25 3.013115 1_555
La13 O13 3.030458 1_555
La14 O65 2.314410 1_555
La14 O41 2.394568 1_555
La14 O17 2.480227 1_555
La14 O5 2.515391 1_555
La14 O57 2.763297 1_555
La14 O12 2.836709 1_556
La14 O61 2.901184 1_555
La14 O24 2.997690 1_556
La15 O66 2.290548 1_555
La15 O42 2.362269 1_555
La15 O6 2.558552 1_555
La15 O18 2.591339 1_555
La15 O58 2.670413 1_555
La15 O62 2.917330 1_555
La16 O67 2.299357 1_555
La16 O43 2.369237 1_555
La16 O19 2.470156 1_555
La16 O7 2.508003 1_555
La16 O59 2.743996 1_555
La16 O14 2.788625 1_556
La16 O26 2.952020 1_556
La16 O63 2.973095 1_555
La17 O68 2.331916 1_555
La17 O44 2.380898 1_555
La17 O20 2.516089 1_555
La17 O0 2.564934 1_655
La17 O60 2.715399 1_555
La17 O56 2.918174 1_655
La17 O9 2.937658 1_655
La17 O29 3.001120 1_555
La18 O69 2.285133 1_555
La18 O45 2.361526 1_555
La18 O21 2.520903 1_555
La18 O1 2.526585 1_655
La18 O61 2.653540 1_555
La18 O57 2.927749 1_655
La19 O70 2.288955 1_555
La19 O46 2.385091 1_555
La19 O22 2.550738 1_555
La19 O2 2.604148 1_655
La19 O62 2.750573 1_555
La19 O58 2.863828 1_655
La19 O11 2.922824 1_655
La19 O31 2.994387 1_555
Cr0 O32 2.008685 1_555
Cr0 O21 2.011914 1_454
Cr0 O30 2.019679 1_445
Cr0 O10 2.026471 1_545
Cr0 O1 2.027309 1_554
Cr0 O47 2.051835 1_444
Cr1 O0 2.018445 1_565
Cr1 O31 2.027737 1_455
Cr1 O20 2.105086 1_465
Cr1 O11 2.140619 1_555
Cr1 O33 2.149250 1_565
Cr1 O46 2.213999 1_455
Cr2 O23 2.009744 1_454
Cr2 O28 2.018273 1_455
Cr2 O34 2.021308 1_555
Cr2 O8 2.031463 1_555
Cr2 O45 2.032039 1_454
Cr2 O3 2.042822 1_554
Cr3 O9 1.990135 1_555
Cr3 O29 2.006082 1_455
Cr3 O2 2.013292 1_555
Cr3 O22 2.047075 1_455
Cr3 O44 2.056696 1_455
Cr3 O35 2.100187 1_555
Cr4 O5 2.031206 1_565
Cr4 O26 2.036960 1_556
Cr4 O36 2.086789 1_566
Cr4 O17 2.122653 1_565
Cr4 O43 2.167568 1_555
Cr4 O14 2.184898 1_556
Cr5 O16 1.972604 1_565
Cr5 O27 2.016291 1_555
Cr5 O4 2.030288 1_565
Cr5 O37 2.041839 1_565
Cr5 O42 2.043027 1_555
Cr5 O15 2.052213 1_555
Cr6 O24 2.040958 1_556
Cr6 O7 2.046399 1_555
Cr6 O38 2.089330 1_556
Cr6 O19 2.129624 1_555
Cr6 O12 2.156726 1_556
Cr6 O41 2.163519 1_555
Cr7 O25 1.998084 1_555
Cr7 O6 2.008763 1_555
Cr7 O18 2.013305 1_555
Cr7 O13 2.014267 1_555
Cr7 O40 2.024560 1_555
Cr7 O39 2.047411 1_555
Cr8 O17 2.003426 1_554
Cr8 O57 2.017314 1_554
Cr8 O24 2.026541 1_555
Cr8 O1 2.030543 1_554
Cr8 O48 2.045398 1_555
Cr8 O8 2.066136 1_555
Cr9 O0 2.016254 1_555
Cr9 O25 2.035978 1_555
Cr9 O56 2.092480 1_555
Cr9 O9 2.119469 1_555
Cr9 O16 2.128283 1_555
Cr9 O49 2.171141 1_555
Cr10 O19 1.994360 1_555
Cr10 O26 2.011097 1_556
Cr10 O3 2.013149 1_555
Cr10 O10 2.042517 1_556
Cr10 O50 2.056387 1_556
Cr10 O59 2.086656 1_555
Cr11 O11 1.978698 1_555
Cr11 O27 1.998895 1_555
Cr11 O2 2.004718 1_555
Cr11 O58 2.034996 1_555
Cr11 O18 2.045386 1_555
Cr11 O51 2.096104 1_555
Cr12 O12 1.976712 1_555
Cr12 O5 2.002307 1_554
Cr12 O52 2.026168 1_555
Cr12 O61 2.043478 1_554
Cr12 O28 2.062999 1_555
Cr12 O21 2.077059 1_554
Cr13 O20 1.988884 1_555
Cr13 O4 2.015744 1_555
Cr13 O60 2.016668 1_555
Cr13 O29 2.024111 1_555
Cr13 O13 2.042735 1_555
Cr13 O53 2.058394 1_555
Cr14 O14 1.977734 1_555
Cr14 O7 2.006996 1_554
Cr14 O30 2.033045 1_555
Cr14 O23 2.049266 1_554
Cr14 O63 2.061769 1_554
Cr14 O54 2.069625 1_555
Cr15 O31 2.002078 1_555
Cr15 O15 2.002586 1_555
Cr15 O6 2.002651 1_555
Cr15 O22 2.013150 1_555
Cr15 O62 2.013616 1_555
Cr15 O55 2.043182 1_555
Cr16 O32 2.057797 1_555
Cr16 O56 2.059383 1_555
Cr16 O74 2.245491 1_545
Cr16 O68 2.347099 1_455
Cr17 O33 2.024773 1_555
Cr17 O57 2.031734 1_555
Cr17 O69 2.310843 1_455
Cr17 O75 2.411403 1_545
Cr18 O34 2.070886 1_555
Cr18 O58 2.083487 1_555
Cr18 O72 2.249337 1_555
Cr18 O70 2.300488 1_455
Cr19 O36 2.053190 1_555
Cr19 O60 2.062389 1_555
Cr19 O78 2.323760 1_545
Cr19 O64 2.334274 1_555
Cr20 O37 2.066226 1_555
Cr20 O61 2.073367 1_555
Cr20 O79 2.293442 1_545
Cr20 O65 2.298918 1_555
Cr21 O38 2.048571 1_555
Cr21 O62 2.058736 1_555
Cr21 O76 2.264963 1_555
Cr21 O66 2.297170 1_555
Cr22 O39 2.083274 1_555
Cr22 O63 2.094141 1_555
Cr22 O77 2.274467 1_555
Cr22 O67 2.356699 1_555
Cr23 O48 2.072689 1_555
Cr23 O40 2.079801 1_555
Cr23 O66 2.254809 1_555
Cr23 O72 2.301816 1_555
Cr24 O42 2.079121 1_555
Cr24 O50 2.081809 1_555
Cr24 O64 2.230293 1_565
Cr24 O74 2.365280 1_555
Cr25 O52 2.078295 1_555
Cr25 O44 2.090193 1_555
Cr25 O76 2.280405 1_555
Cr25 O70 2.290532 1_555
Cr26 O45 2.057855 1_555
Cr26 O53 2.060089 1_555
Cr26 O71 2.277303 1_555
Cr26 O77 2.352433 1_555
Cr27 O55 2.049111 1_555
Cr27 O47 2.054968 1_555
Cr27 O69 2.228717 1_565
Cr27 O79 2.389436 1_555
Fe0 O59 1.994279 1_555
Fe0 O35 1.998856 1_555
Fe0 O73 2.083934 1_555
Fe0 O71 2.112574 1_455
Fe1 O49 1.969180 1_555
Fe1 O41 1.977943 1_555
Fe1 O67 2.115571 1_555
Fe1 O73 2.130876 1_555
Fe2 O43 1.978631 1_555
Fe2 O51 2.002539 1_555
Fe2 O65 2.082284 1_565
Fe2 O75 2.118808 1_555
Fe3 O46 1.993577 1_555
Fe3 O54 1.998089 1_555
Fe3 O68 2.078464 1_565
Fe3 O78 2.123262 1_555
O1 Sm4 2.405882 1_545
O3 Sm11 2.452075 1_455
O5 Sm6 2.427822 1_545
O6 Sm10 2.889077 1_555
O7 Sm5 2.424454 1_555
O8 Sm1 2.428174 1_555
O10 Sm7 2.457792 1_555
O10 Sm0 2.462633 1_565
O12 Sm8 2.453314 1_555
O12 Sm3 2.476895 1_555
O12 Sm5 3.000483 1_554
O14 Sm9 2.467817 1_555
O14 Sm2 2.486992 1_565
O14 Sm6 3.054577 1_554
O15 Sm10 2.426208 1_555
O17 Sm4 2.431295 1_545
O18 Sm10 2.864115 1_555
O19 Sm9 2.855208 1_556
O19 Sm1 2.962411 1_556
O21 Sm6 2.432501 1_545
O23 Sm11 2.433157 1_555
O23 Sm5 2.467957 1_555
O24 Sm8 2.475572 1_555
O24 Sm1 2.487490 1_555
O26 Sm0 2.498479 1_565
O26 Sm9 2.503285 1_555
O26 Sm4 2.917251 1_554
O27 Sm10 2.439930 1_555
O28 Sm3 2.445236 1_555
O28 Sm5 2.860222 1_554
O30 Sm7 2.455091 1_655
O30 Sm2 2.503859 1_565
O32 Sm0 2.478681 1_555
O34 Sm7 2.299998 1_555
O34 Sm1 2.479802 1_555
O36 Sm8 2.305868 1_555
O36 Sm2 2.428389 1_555
O38 Sm9 2.299915 1_555
O38 Sm3 2.438686 1_555
O39 Sm10 2.315576 1_555
O41 Sm5 2.554411 1_555
O43 Sm6 2.466488 1_555
O45 Sm5 2.885265 1_555
O47 Sm11 2.298417 1_555
O47 Sm4 2.525589 1_655
O48 Sm0 2.289302 1_555
O48 Sm8 2.471728 1_555
O50 Sm1 2.316839 1_555
O50 Sm9 2.437599 1_555
O51 Sm10 2.571208 1_555
O52 Sm2 2.285873 1_555
O54 Sm3 2.329309 1_555
O54 Sm7 2.502873 1_655
O55 Sm10 2.871883 1_555
O59 Sm4 2.324529 1_555
O61 Sm5 2.296597 1_555
O63 Sm6 2.307649 1_555
O63 Sm11 2.496651 1_555
O64 Sm0 2.229354 1_555
O66 Sm1 2.218266 1_555
O68 Sm2 2.248871 1_555
O70 Sm3 2.222075 1_555
O71 Sm11 2.248979 1_555
O74 Sm7 2.215843 1_555
O75 Sm4 2.252901 1_555
O76 Sm8 2.225037 1_555
O77 Sm5 2.232085 1_555
O78 Sm9 2.241668 1_555
O79 Sm6 2.232759 1_555
O79 Sm10 2.254488 1_555
