# generated using pymatgen
data_CrH12N3(OF2)3
_symmetry_space_group_name_H-M   'P 1'
_cell_length_a   6.70584363
_cell_length_b   7.06412055
_cell_length_c   9.62331846
_cell_angle_alpha   85.72367037
_cell_angle_beta   83.29790042
_cell_angle_gamma   69.58298291
_symmetry_Int_Tables_number   1
_chemical_formula_structural   CrH12N3(OF2)3
_chemical_formula_sum   'Cr2 H24 N6 O6 F12'
_cell_volume   424.02671688
_cell_formula_units_Z   2
loop_
 _symmetry_equiv_pos_site_id
 _symmetry_equiv_pos_as_xyz
  1  'x, y, z'
loop_
 _atom_site_type_symbol
 _atom_site_label
 _atom_site_symmetry_multiplicity
 _atom_site_fract_x
 _atom_site_fract_y
 _atom_site_fract_z
 _atom_site_occupancy
  Cr  Cr0  1  0.50000000  0.50000000  0.50000000  1
  Cr  Cr1  1  0.00000000  0.00000000  0.00000000  1
  H  H0  1  0.30069500  0.89464500  0.64030000  1
  H  H1  1  0.69930500  0.10535500  0.35970000  1
  H  H2  1  0.26403400  0.14727000  0.63019200  1
  H  H3  1  0.73596600  0.85273000  0.36980800  1
  H  H4  1  0.04863900  0.07079600  0.64745800  1
  H  H5  1  0.95136100  0.92920400  0.35254200  1
  H  H6  1  0.32865500  0.91585900  0.42421200  1
  H  H7  1  0.67134500  0.08414100  0.57578800  1
  H  H8  1  0.91400100  0.71392000  0.79521300  1
  H  H9  1  0.08599900  0.28608000  0.20478700  1
  H  H10  1  0.76933200  0.62497900  0.69834900  1
  H  H11  1  0.23066800  0.37502100  0.30165100  1
  H  H12  1  0.02108200  0.62188100  0.63196300  1
  H  H13  1  0.97891800  0.37811900  0.36803700  1
  H  H14  1  0.94951400  0.39266600  0.87344900  1
  H  H15  1  0.05048600  0.60733400  0.12655100  1
  H  H16  1  0.61040300  0.22000800  0.86377500  1
  H  H17  1  0.38959700  0.77999200  0.13622500  1
  H  H18  1  0.34580700  0.24909000  0.87274100  1
  H  H19  1  0.65419300  0.75091000  0.12725900  1
  H  H20  1  0.41918000  0.45715300  0.86264900  1
  H  H21  1  0.58082000  0.54284700  0.13735100  1
  H  H22  1  0.55368900  0.19075000  0.08031000  1
  H  H23  1  0.44631100  0.80925000  0.91969000  1
  N  N0  1  0.20477400  0.03830100  0.60363500  1
  N  N1  1  0.79522600  0.96169900  0.39636500  1
  N  N2  1  0.92174900  0.60796300  0.72390400  1
  N  N3  1  0.07825100  0.39203700  0.27609600  1
  N  N4  1  0.45381300  0.31050800  0.90178000  1
  N  N5  1  0.54618700  0.68949200  0.09822000  1
  O  O0  1  0.20774000  0.04343300  0.45581500  1
  O  O1  1  0.79226000  0.95656700  0.54418500  1
  O  O2  1  0.02367700  0.41030900  0.77815500  1
  O  O3  1  0.97632300  0.58969100  0.22184500  1
  O  O4  1  0.43477200  0.31666100  0.04991300  1
  O  O5  1  0.56522800  0.68333900  0.95008700  1
  F  F0  1  0.80811000  0.39163500  0.49606900  1
  F  F1  1  0.19189000  0.60836500  0.50393100  1
  F  F2  1  0.51923600  0.73392100  0.38100200  1
  F  F3  1  0.48076400  0.26607900  0.61899800  1
  F  F4  1  0.51594400  0.34619300  0.33489800  1
  F  F5  1  0.48405600  0.65380700  0.66510200  1
  F  F6  1  0.85203100  0.04525300  0.83071700  1
  F  F7  1  0.14796900  0.95474700  0.16928300  1
  F  F8  1  0.08909900  0.70898700  0.97973400  1
  F  F9  1  0.91090100  0.29101300  0.02026600  1
  F  F10  1  0.73658300  0.99600200  0.11215200  1
  F  F11  1  0.26341700  0.00399800  0.88784800  1
loop_
_geom_bond_atom_site_label_1
_geom_bond_atom_site_label_2
_geom_bond_distance
_geom_bond_site_symmetry_2
Cr0 F0 1.933628 1_555
Cr0 F1 1.933628 1_555
Cr0 F5 1.962922 1_555
Cr0 F4 1.962922 1_555
Cr0 F3 1.972468 1_555
Cr0 F2 1.972468 1_555
Cr1 F8 1.948527 1_544
Cr1 F9 1.948527 1_455
Cr1 F6 1.954212 1_454
Cr1 F7 1.954212 1_545
Cr1 F10 1.967532 1_445
Cr1 F11 1.967532 1_554
H0 N0 1.054617 1_565
H1 N1 1.054617 1_545
H2 N0 1.040311 1_555
H3 N1 1.040311 1_555
H4 N0 1.034637 1_555
H5 N1 1.034637 1_555
H6 O0 1.017642 1_565
H7 O1 1.017642 1_545
H8 N2 1.036821 1_555
H9 N3 1.036821 1_555
H10 N2 1.043134 1_555
H11 N3 1.043134 1_555
H12 N2 1.063653 1_455
H13 N3 1.063653 1_655
H14 O2 1.011723 1_655
H15 O3 1.011723 1_455
H16 N4 1.059229 1_555
H17 N5 1.059229 1_555
H18 N4 1.037047 1_555
H19 N5 1.037047 1_555
H20 N4 1.031140 1_555
H21 N5 1.031140 1_555
H22 O4 1.016552 1_555
H23 O5 1.016552 1_555
N0 O0 1.418266 1_555
N1 O1 1.418266 1_555
N2 O2 1.413506 1_655
N3 O3 1.413506 1_455
N4 O4 1.418878 1_556
N5 O5 1.418878 1_554
F0 H13 1.565558 1_555
F1 H12 1.565558 1_555
F2 H6 1.505886 1_555
F3 H7 1.505886 1_555
F8 H15 1.572235 1_556
F9 H14 1.572235 1_554
F10 H22 1.529169 1_565
F11 H23 1.529169 1_545
