# generated using pymatgen
data_Ba2Tl2Zn3(CuO3)4
_symmetry_space_group_name_H-M   'P 1'
_cell_length_a   20.94634594
_cell_length_b   20.94634594
_cell_length_c   20.94634594
_cell_angle_alpha   169.52490606
_cell_angle_beta   169.52490606
_cell_angle_gamma   14.83479928
_symmetry_Int_Tables_number   1
_chemical_formula_structural   Ba2Tl2Zn3(CuO3)4
_chemical_formula_sum   'Ba2 Tl2 Zn3 Cu4 O12'
_cell_volume   303.76372692
_cell_formula_units_Z   1
loop_
 _symmetry_equiv_pos_site_id
 _symmetry_equiv_pos_as_xyz
  1  'x, y, z'
loop_
 _atom_site_type_symbol
 _atom_site_label
 _atom_site_symmetry_multiplicity
 _atom_site_fract_x
 _atom_site_fract_y
 _atom_site_fract_z
 _atom_site_occupancy
  Ba  Ba0  1  0.15376700  0.15376700  0.00000000  1
  Ba  Ba1  1  0.84623300  0.84623300  0.00000000  1
  Tl  Tl0  1  0.72250200  0.72250200  0.00000000  1
  Tl  Tl1  1  0.27749800  0.27749800  0.00000000  1
  Zn  Zn0  1  0.07313000  0.07313000  0.00000000  1
  Zn  Zn1  1  0.92687000  0.92687000  0.00000000  1
  Zn  Zn2  1  0.00000000  0.00000000  0.00000000  1
  Cu  Cu0  1  0.53623200  0.53623200  0.00000000  1
  Cu  Cu1  1  0.39612100  0.39612100  0.00000000  1
  Cu  Cu2  1  0.60387900  0.60387900  0.00000000  1
  Cu  Cu3  1  0.46376800  0.46376800  0.00000000  1
  O  O0  1  0.89587700  0.39587700  0.50000000  1
  O  O1  1  0.03476100  0.53476100  0.50000000  1
  O  O2  1  0.22648300  0.22648300  0.00000000  1
  O  O3  1  0.46523900  0.96523900  0.50000000  1
  O  O4  1  0.77351700  0.77351700  0.00000000  1
  O  O5  1  0.60412300  0.10412300  0.50000000  1
  O  O6  1  0.10412300  0.60412300  0.50000000  1
  O  O7  1  0.32732600  0.32732600  0.00000000  1
  O  O8  1  0.39587700  0.89587700  0.50000000  1
  O  O9  1  0.53476100  0.03476100  0.50000000  1
  O  O10  1  0.96523900  0.46523900  0.50000000  1
  O  O11  1  0.67267400  0.67267400  0.00000000  1
loop_
_geom_bond_atom_site_label_1
_geom_bond_atom_site_label_2
_geom_bond_distance
_geom_bond_site_symmetry_2
Ba0 O5 2.812338 1_555
Ba0 O5 2.812338 1_454
Ba0 O6 2.812338 1_555
Ba0 O6 2.812338 1_544
Ba0 O11 2.815865 1_545
Ba0 O11 2.815865 1_556
Ba0 O11 2.815865 1_455
Ba0 O11 2.815865 1_444
Ba0 O2 3.020778 1_555
Ba1 O8 2.812338 1_655
Ba1 O0 2.812338 1_554
Ba1 O8 2.812338 1_554
Ba1 O0 2.812338 1_565
Ba1 O7 2.815865 1_554
Ba1 O7 2.815865 1_655
Ba1 O7 2.815865 1_666
Ba1 O7 2.815865 1_565
Ba1 O4 3.020778 1_555
Cu0 O9 1.913067 1_565
Cu0 O1 1.913067 1_554
Cu0 O9 1.913067 1_554
Cu0 O1 1.913067 1_655
Cu1 O0 1.912118 1_454
Cu1 O8 1.912118 1_544
Cu1 O8 1.912118 1_555
Cu1 O0 1.912118 1_555
Cu2 O5 1.912118 1_565
Cu2 O6 1.912118 1_655
Cu2 O5 1.912118 1_554
Cu2 O6 1.912118 1_554
Cu3 O3 1.913067 1_555
Cu3 O10 1.913067 1_555
Cu3 O10 1.913067 1_454
Cu3 O3 1.913067 1_544
O0 Zn1 2.305165 1_545
O0 Zn1 2.305165 1_556
O1 Zn2 2.396114 1_566
O1 Zn2 2.396114 1_555
O1 Zn0 2.489318 1_566
O1 Zn0 2.489318 1_555
O2 Tl1 2.119272 1_555
O2 Tl0 2.709157 1_556
O2 Tl0 2.709157 1_455
O2 Tl0 2.709157 1_545
O2 Tl0 2.709157 1_444
O3 Zn2 2.396114 1_666
O3 Zn2 2.396114 1_565
O3 Zn1 2.489318 1_556
O3 Zn1 2.489318 1_455
O4 Tl0 2.119272 1_555
O4 Tl1 2.709157 1_554
O4 Tl1 2.709157 1_565
O4 Tl1 2.709157 1_655
O4 Tl1 2.709157 1_666
O5 Zn0 2.305165 1_555
O5 Zn0 2.305165 1_656
O6 Zn0 2.305165 1_555
O6 Zn0 2.305165 1_566
O7 Tl1 2.069961 1_555
O8 Zn1 2.305165 1_455
O8 Zn1 2.305165 1_556
O9 Zn2 2.396114 1_656
O9 Zn2 2.396114 1_555
O9 Zn0 2.489318 1_656
O9 Zn0 2.489318 1_555
O10 Zn2 2.396114 1_655
O10 Zn2 2.396114 1_666
O10 Zn1 2.489318 1_556
O10 Zn1 2.489318 1_545
O11 Tl0 2.069961 1_555
