# generated using pymatgen
data_CuP4(RuO7)2
_symmetry_space_group_name_H-M   'P 1'
_cell_length_a   4.88392400
_cell_length_b   6.81523038
_cell_length_c   8.32572143
_cell_angle_alpha   92.74323881
_cell_angle_beta   92.04300701
_cell_angle_gamma   106.51619529
_symmetry_Int_Tables_number   1
_chemical_formula_structural   CuP4(RuO7)2
_chemical_formula_sum   'Cu1 P4 Ru2 O14'
_cell_volume   265.03223850
_cell_formula_units_Z   1
loop_
 _symmetry_equiv_pos_site_id
 _symmetry_equiv_pos_as_xyz
  1  'x, y, z'
loop_
 _atom_site_type_symbol
 _atom_site_label
 _atom_site_symmetry_multiplicity
 _atom_site_fract_x
 _atom_site_fract_y
 _atom_site_fract_z
 _atom_site_occupancy
  Cu  Cu0  1  0.00000000  0.00000000  0.50000000  1
  P  P0  1  0.38822900  0.76121700  0.80370700  1
  P  P1  1  0.61177100  0.23878300  0.19629300  1
  P  P2  1  0.02458900  0.64858300  0.26716100  1
  P  P3  1  0.97541100  0.35141700  0.73283900  1
  Ru  Ru0  1  0.50000000  0.50000000  0.50000000  1
  Ru  Ru1  1  0.00000000  0.00000000  0.00000000  1
  O  O0  1  0.13357800  0.82207200  0.15772100  1
  O  O1  1  0.86642200  0.17792800  0.84227900  1
  O  O2  1  0.48649700  0.76033900  0.62918200  1
  O  O3  1  0.51350300  0.23966100  0.37081800  1
  O  O4  1  0.20599200  0.52886700  0.83723000  1
  O  O5  1  0.79400800  0.47113300  0.16277000  1
  O  O6  1  0.18617600  0.89862400  0.81258400  1
  O  O7  1  0.81382400  0.10137600  0.18741600  1
  O  O8  1  0.26678100  0.56328700  0.32020900  1
  O  O9  1  0.73321900  0.43671300  0.67979100  1
  O  O10  1  0.62349500  0.79700800  0.93650600  1
  O  O11  1  0.37650500  0.20299200  0.06349400  1
  O  O12  1  0.13508800  0.28662500  0.58602400  1
  O  O13  1  0.86491200  0.71337500  0.41397600  1
loop_
_geom_bond_atom_site_label_1
_geom_bond_atom_site_label_2
_geom_bond_distance
_geom_bond_site_symmetry_2
Cu0 O12 1.965629 1_555
Cu0 O13 1.965629 1_445
O0 P2 1.513743 1_555
O0 Ru1 2.039982 1_565
O1 P3 1.513743 1_555
O1 Ru1 2.039982 1_656
O2 P0 1.546686 1_555
O2 Ru0 2.048921 1_555
O3 P1 1.546686 1_555
O3 Ru0 2.048921 1_555
O4 P3 1.594175 1_455
O4 P0 1.623659 1_555
O5 P2 1.594175 1_655
O5 P1 1.623659 1_555
O6 P0 1.542795 1_555
O6 Ru1 2.023372 1_566
O7 P1 1.542795 1_555
O7 Ru1 2.023372 1_655
O8 P2 1.519999 1_555
O8 Ru0 1.985863 1_555
O9 P3 1.519999 1_555
O9 Ru0 1.985863 1_555
O10 P0 1.525272 1_555
O10 Ru1 1.997228 1_666
O11 P1 1.525272 1_555
O11 Ru1 1.997228 1_555
O12 P3 1.584097 1_455
O12 Ru0 2.126276 1_555
O13 P2 1.584097 1_655
O13 Ru0 2.126276 1_555
