# generated using pymatgen
data_Ba2Ca2Tl2W3O10
_symmetry_space_group_name_H-M   'P 1'
_cell_length_a   4.03864400
_cell_length_b   4.18094451
_cell_length_c   19.89459269
_cell_angle_alpha   95.65528471
_cell_angle_beta   94.94536007
_cell_angle_gamma   90.15095004
_symmetry_Int_Tables_number   1
_chemical_formula_structural   Ba2Ca2Tl2W3O10
_chemical_formula_sum   'Ba2 Ca2 Tl2 W3 O10'
_cell_volume   333.02662440
_cell_formula_units_Z   1
loop_
 _symmetry_equiv_pos_site_id
 _symmetry_equiv_pos_as_xyz
  1  'x, y, z'
loop_
 _atom_site_type_symbol
 _atom_site_label
 _atom_site_symmetry_multiplicity
 _atom_site_fract_x
 _atom_site_fract_y
 _atom_site_fract_z
 _atom_site_occupancy
  Ba  Ba0  1  0.85684800  0.77245200  0.68199900  1
  Ba  Ba1  1  0.14735600  0.07835300  0.32058600  1
  Ca  Ca0  1  0.04071600  0.97837400  0.09554400  1
  Ca  Ca1  1  0.96448800  0.89275200  0.90516000  1
  Tl  Tl0  1  0.27501800  0.24052100  0.55582500  1
  Tl  Tl1  1  0.72006700  0.68803000  0.44586400  1
  W  W0  1  0.57631400  0.51556700  0.17820300  1
  W  W1  1  0.43038600  0.35063000  0.82275900  1
  W  W2  1  0.50309100  0.43420700  0.00000300  1
  O  O0  1  0.06672000  0.50559300  0.15580900  1
  O  O1  1  0.61721600  0.54691700  0.27629400  1
  O  O2  1  0.56780900  0.00600700  0.16067000  1
  O  O3  1  0.22288100  0.28959900  0.43695000  1
  O  O4  1  0.50332000  0.93422500  0.99999200  1
  O  O5  1  0.43737300  0.85710100  0.83968200  1
  O  O6  1  0.39174300  0.28284600  0.72464900  1
  O  O7  1  0.93875700  0.36332900  0.84454500  1
  O  O8  1  0.76368500  0.84047300  0.56442000  1
  O  O9  1  0.00321200  0.43314800  0.00008000  1
loop_
_geom_bond_atom_site_label_1
_geom_bond_atom_site_label_2
_geom_bond_distance
_geom_bond_site_symmetry_2
Ba0 O8 2.382051 1_555
Ba0 O6 2.956524 1_565
Ba0 O6 3.005902 1_555
Ba0 O6 3.040251 1_665
Ba0 O6 3.102661 1_655
Ba1 O3 2.388776 1_555
Ba1 O1 2.970539 1_555
Ba1 O1 3.038985 1_455
Ba1 O1 3.039545 1_545
Ba1 O1 3.092117 1_445
Ca0 O2 2.391084 1_565
Ca0 O2 2.395434 1_465
Ca0 O0 2.400737 1_565
Ca0 O0 2.408775 1_555
Ca0 O4 2.752377 1_454
Ca0 O4 2.771870 1_554
Ca0 O9 2.812270 1_565
Ca0 O9 2.814548 1_555
Ca1 O5 2.394367 1_555
Ca1 O5 2.399727 1_655
Ca1 O7 2.404782 1_565
Ca1 O7 2.411567 1_555
Ca1 O4 2.747873 1_655
Ca1 O4 2.757069 1_555
Ca1 O9 2.793128 1_666
Ca1 O9 2.819360 1_656
O0 W0 2.066836 1_455
O0 W0 2.067287 1_555
O1 W0 1.935624 1_555
O2 W0 2.113452 1_545
O2 W0 2.124317 1_555
O3 Tl0 2.385274 1_555
O3 Tl1 2.588639 1_555
O3 Tl1 2.636623 1_455
O4 W2 2.090378 1_566
O4 W2 2.090567 1_556
O5 W1 2.110831 1_555
O5 W1 2.123069 1_565
O6 W1 1.937176 1_555
O7 W1 2.060942 1_555
O7 W1 2.068172 1_655
O8 Tl1 2.373153 1_555
O8 Tl0 2.595620 1_565
O8 Tl0 2.681494 1_665
O9 W2 2.018959 1_555
O9 W2 2.019696 1_455
