# generated using pymatgen
data_LiYbAs
_symmetry_space_group_name_H-M   'P 1'
_cell_length_a   4.31974400
_cell_length_b   7.21432200
_cell_length_c   7.85332700
_cell_angle_alpha   90.00000000
_cell_angle_beta   90.00000000
_cell_angle_gamma   90.00000000
_symmetry_Int_Tables_number   1
_chemical_formula_structural   LiYbAs
_chemical_formula_sum   'Li4 Yb4 As4'
_cell_volume   244.74127247
_cell_formula_units_Z   4
loop_
 _symmetry_equiv_pos_site_id
 _symmetry_equiv_pos_as_xyz
  1  'x, y, z'
loop_
 _atom_site_type_symbol
 _atom_site_label
 _atom_site_symmetry_multiplicity
 _atom_site_fract_x
 _atom_site_fract_y
 _atom_site_fract_z
 _atom_site_occupancy
  Li  Li0  1  0.25000000  0.14614900  0.93015900  1
  Li  Li1  1  0.25000000  0.64614900  0.56984100  1
  Li  Li2  1  0.75000000  0.85385100  0.06984100  1
  Li  Li3  1  0.75000000  0.35385100  0.43015900  1
  Yb  Yb0  1  0.25000000  0.01400900  0.30250700  1
  Yb  Yb1  1  0.25000000  0.51400900  0.19749300  1
  Yb  Yb2  1  0.75000000  0.98599100  0.69749300  1
  Yb  Yb3  1  0.75000000  0.48599100  0.80250700  1
  As  As0  1  0.25000000  0.26875400  0.60214800  1
  As  As1  1  0.25000000  0.76875400  0.89785200  1
  As  As2  1  0.75000000  0.73124600  0.39785200  1
  As  As3  1  0.75000000  0.23124600  0.10214800  1
loop_
_geom_bond_atom_site_label_1
_geom_bond_atom_site_label_2
_geom_bond_distance
_geom_bond_site_symmetry_2
As0 Li3 2.620361 1_455
As0 Li3 2.620361 1_555
As0 Li0 2.723605 1_555
As0 Li1 2.734445 1_555
As0 Yb0 2.985801 1_555
As0 Yb2 3.063834 1_545
As0 Yb2 3.063834 1_445
As0 Yb3 3.097914 1_455
As0 Yb3 3.097914 1_555
As1 Li2 2.620361 1_556
As1 Li2 2.620361 1_456
As1 Li1 2.723605 1_555
As1 Li0 2.734445 1_565
As1 Yb1 2.985801 1_556
As1 Yb3 3.063834 1_455
As1 Yb3 3.063834 1_555
As1 Yb2 3.097914 1_455
As1 Yb2 3.097914 1_555
As2 Li1 2.620361 1_655
As2 Li1 2.620361 1_555
As2 Li2 2.723605 1_555
As2 Li3 2.734445 1_555
As2 Yb2 2.985801 1_555
As2 Yb0 3.063834 1_565
As2 Yb0 3.063834 1_665
As2 Yb1 3.097914 1_555
As2 Yb1 3.097914 1_655
As3 Li0 2.620361 1_654
As3 Li0 2.620361 1_554
As3 Li3 2.723605 1_555
As3 Li2 2.734445 1_545
As3 Yb3 2.985801 1_554
As3 Yb1 3.063834 1_655
As3 Yb1 3.063834 1_555
As3 Yb0 3.097914 1_555
As3 Yb0 3.097914 1_655
