# generated using pymatgen
data_Sr4CaMn2Ga2O11
_symmetry_space_group_name_H-M   'P 1'
_cell_length_a   6.06065544
_cell_length_b   6.06095726
_cell_length_c   8.74401653
_cell_angle_alpha   67.85909769
_cell_angle_beta   67.21293550
_cell_angle_gamma   84.11476534
_symmetry_Int_Tables_number   1
_chemical_formula_structural   Sr4CaMn2Ga2O11
_chemical_formula_sum   'Sr4 Ca1 Mn2 Ga2 O11'
_cell_volume   273.93643102
_cell_formula_units_Z   1
loop_
 _symmetry_equiv_pos_site_id
 _symmetry_equiv_pos_as_xyz
  1  'x, y, z'
loop_
 _atom_site_type_symbol
 _atom_site_label
 _atom_site_symmetry_multiplicity
 _atom_site_fract_x
 _atom_site_fract_y
 _atom_site_fract_z
 _atom_site_occupancy
  Sr  Sr0  1  0.12572500  0.63678600  0.73647200  1
  Sr  Sr1  1  0.65177400  0.15966400  0.69477100  1
  Sr  Sr2  1  0.35453800  0.84654300  0.30522200  1
  Sr  Sr3  1  0.87322900  0.36228600  0.26353000  1
  Ca  Ca0  1  0.31770800  0.81765400  0.00000000  1
  Mn  Mn0  1  0.24935700  0.24934800  0.50001600  1
  Mn  Mn1  1  0.75065400  0.75061500  0.49999900  1
  Ga  Ga0  1  0.52387700  0.40103000  0.99697400  1
  Ga  Ga1  1  0.89811500  0.02103000  0.00299800  1
  O  O0  1  0.15912700  0.02860900  0.79149700  1
  O  O1  1  0.55133100  0.66151000  0.77367200  1
  O  O2  1  0.32015200  0.45062000  0.20849700  1
  O  O3  1  0.93519900  0.82492500  0.22634000  1
  O  O4  1  0.54255200  0.01533800  0.45454700  1
  O  O5  1  0.96988400  0.49700200  0.54548800  1
  O  O6  1  0.02839400  0.02835700  0.49996800  1
  O  O7  1  0.46991300  0.46989000  0.50001100  1
  O  O8  1  0.82927500  0.32933600  0.00001400  1
  O  O9  1  0.67917200  0.83870800  0.00297600  1
  O  O10  1  0.34145200  0.18218000  0.99701100  1
loop_
_geom_bond_atom_site_label_1
_geom_bond_atom_site_label_2
_geom_bond_distance
_geom_bond_site_symmetry_2
Ca0 O9 2.218142 1_555
Ca0 O10 2.218445 1_564
Ca0 O2 2.286877 1_555
Ca0 O0 2.287055 1_564
Ca0 O1 2.404856 1_554
Ca0 O3 2.404983 1_455
Mn0 O7 1.984915 1_555
Mn0 O6 1.989006 1_555
Mn0 O5 2.164922 1_455
Mn0 O4 2.165233 1_555
Mn0 O0 2.255008 1_555
Mn0 O2 2.255242 1_555
Mn1 O4 1.953366 1_565
Mn1 O5 1.953476 1_555
Mn1 O3 2.097018 1_555
Mn1 O1 2.097100 1_555
Mn1 O6 2.499526 1_665
Mn1 O7 2.526539 1_555
Ga0 O10 1.811622 1_555
Ga0 O8 1.865441 1_556
Ga0 O2 1.899915 1_556
Ga0 O1 1.952246 1_555
Ga1 O9 1.811892 1_545
Ga1 O8 1.865028 1_555
Ga1 O0 1.899844 1_654
Ga1 O3 1.952602 1_545
O0 Sr0 2.635824 1_545
O0 Sr1 2.878351 1_555
O1 Sr0 2.747320 1_555
O1 Sr1 2.905878 1_565
O2 Sr3 2.636003 1_455
O2 Sr2 2.878557 1_555
O3 Sr3 2.746536 1_555
O3 Sr2 2.906246 1_655
O4 Sr2 2.539368 1_545
O4 Sr3 2.617637 1_555
O4 Sr1 2.862936 1_555
O4 Sr0 3.134395 1_545
O5 Sr1 2.539389 1_555
O5 Sr0 2.617443 1_655
O5 Sr2 2.863709 1_655
O5 Sr3 3.134080 1_555
O6 Sr2 2.526191 1_545
O6 Sr1 2.526356 1_455
O6 Sr0 2.686162 1_545
O6 Sr3 2.686363 1_455
O7 Sr1 2.503147 1_555
O7 Sr2 2.503162 1_555
O7 Sr3 2.729537 1_555
O7 Sr0 2.729931 1_555
O8 Sr3 2.500674 1_555
O8 Sr0 2.500691 1_654
O9 Sr2 2.627837 1_555
O9 Sr1 2.720897 1_564
O10 Sr1 2.628545 1_555
O10 Sr2 2.721698 1_546
