# generated using pymatgen
data_Pd(IN)2
_symmetry_space_group_name_H-M   'P 1'
_cell_length_a   8.56583500
_cell_length_b   10.11621100
_cell_length_c   13.47801300
_cell_angle_alpha   90.00000000
_cell_angle_beta   90.00000000
_cell_angle_gamma   90.00000000
_symmetry_Int_Tables_number   1
_chemical_formula_structural   Pd(IN)2
_chemical_formula_sum   'Pd8 I16 N16'
_cell_volume   1167.92096542
_cell_formula_units_Z   8
loop_
 _symmetry_equiv_pos_site_id
 _symmetry_equiv_pos_as_xyz
  1  'x, y, z'
loop_
 _atom_site_type_symbol
 _atom_site_label
 _atom_site_symmetry_multiplicity
 _atom_site_fract_x
 _atom_site_fract_y
 _atom_site_fract_z
 _atom_site_occupancy
  Pd  Pd0  1  0.37022700  0.85848300  0.26806400  1
  Pd  Pd1  1  0.62977300  0.64151700  0.76806400  1
  Pd  Pd2  1  0.12977300  0.35848300  0.73193600  1
  Pd  Pd3  1  0.87022700  0.14151700  0.23193600  1
  Pd  Pd4  1  0.62977300  0.14151700  0.73193600  1
  Pd  Pd5  1  0.37022700  0.35848300  0.23193600  1
  Pd  Pd6  1  0.87022700  0.64151700  0.26806400  1
  Pd  Pd7  1  0.12977300  0.85848300  0.76806400  1
  I  I0  1  0.32900600  0.64620200  0.44281300  1
  I  I1  1  0.67099400  0.85379800  0.94281300  1
  I  I2  1  0.17099400  0.14620200  0.55718700  1
  I  I3  1  0.82900600  0.35379800  0.05718700  1
  I  I4  1  0.67099400  0.35379800  0.55718700  1
  I  I5  1  0.32900600  0.14620200  0.05718700  1
  I  I6  1  0.82900600  0.85379800  0.44281300  1
  I  I7  1  0.17099400  0.64620200  0.94281300  1
  I  I8  1  0.59594100  0.63662600  0.17779700  1
  I  I9  1  0.40405900  0.86337400  0.67779700  1
  I  I10  1  0.90405900  0.13662600  0.82220300  1
  I  I11  1  0.09594100  0.36337400  0.32220300  1
  I  I12  1  0.40405900  0.36337400  0.82220300  1
  I  I13  1  0.59594100  0.13662600  0.32220300  1
  I  I14  1  0.09594100  0.86337400  0.17779700  1
  I  I15  1  0.90405900  0.63662600  0.67779700  1
  N  N0  1  0.35828800  0.83992600  0.40559300  1
  N  N1  1  0.64171200  0.66007400  0.90559300  1
  N  N2  1  0.14171200  0.33992600  0.59440700  1
  N  N3  1  0.85828800  0.16007400  0.09440700  1
  N  N4  1  0.64171200  0.16007400  0.59440700  1
  N  N5  1  0.35828800  0.33992600  0.09440700  1
  N  N6  1  0.85828800  0.66007400  0.40559300  1
  N  N7  1  0.14171200  0.83992600  0.90559300  1
  N  N8  1  0.55422500  0.83582700  0.19227500  1
  N  N9  1  0.44577500  0.66417300  0.69227500  1
  N  N10  1  0.94577500  0.33582700  0.80772500  1
  N  N11  1  0.05422500  0.16417300  0.30772500  1
  N  N12  1  0.44577500  0.16417300  0.80772500  1
  N  N13  1  0.55422500  0.33582700  0.30772500  1
  N  N14  1  0.05422500  0.66417300  0.19227500  1
  N  N15  1  0.94577500  0.83582700  0.69227500  1
loop_
_geom_bond_atom_site_label_1
_geom_bond_atom_site_label_2
_geom_bond_distance
_geom_bond_site_symmetry_2
I0 N0 2.038430 1_555
I1 N1 2.038430 1_555
I2 N2 2.038430 1_555
I3 N3 2.038430 1_555
I4 N4 2.038430 1_555
I5 N5 2.038430 1_555
I6 N6 2.038430 1_555
I7 N7 2.038430 1_555
I8 N8 2.055877 1_555
I8 Pd6 2.646263 1_555
I9 N9 2.055877 1_555
I9 Pd7 2.646263 1_555
I10 N10 2.055877 1_555
I10 Pd4 2.646263 1_555
I11 N11 2.055877 1_555
I11 Pd5 2.646263 1_555
I12 N12 2.055877 1_555
I12 Pd2 2.646263 1_555
I13 N13 2.055877 1_555
I13 Pd3 2.646263 1_555
I14 N14 2.055877 1_555
I14 Pd0 2.646263 1_555
I15 N15 2.055877 1_555
I15 Pd1 2.646263 1_555
N0 Pd0 1.865904 1_555
N1 Pd1 1.865904 1_555
N2 Pd2 1.865904 1_555
N3 Pd3 1.865904 1_555
N4 Pd4 1.865904 1_555
N5 Pd5 1.865904 1_555
N6 Pd6 1.865904 1_555
N7 Pd7 1.865904 1_555
N8 Pd0 1.892100 1_555
N9 Pd1 1.892100 1_555
N10 Pd2 1.892100 1_655
N11 Pd3 1.892100 1_455
N12 Pd4 1.892100 1_555
N13 Pd5 1.892100 1_555
N14 Pd6 1.892100 1_455
N15 Pd7 1.892100 1_655
