# generated using pymatgen
data_AlV4(CuO4)3
_symmetry_space_group_name_H-M   'P 1'
_cell_length_a   6.36671658
_cell_length_b   6.38393239
_cell_length_c   6.33703257
_cell_angle_alpha   109.78281710
_cell_angle_beta   109.03797064
_cell_angle_gamma   109.25868715
_symmetry_Int_Tables_number   1
_chemical_formula_structural   AlV4(CuO4)3
_chemical_formula_sum   'Al1 V4 Cu3 O12'
_cell_volume   199.08182315
_cell_formula_units_Z   1
loop_
 _symmetry_equiv_pos_site_id
 _symmetry_equiv_pos_as_xyz
  1  'x, y, z'
loop_
 _atom_site_type_symbol
 _atom_site_label
 _atom_site_symmetry_multiplicity
 _atom_site_fract_x
 _atom_site_fract_y
 _atom_site_fract_z
 _atom_site_occupancy
  Al  Al0  1  0.00002900  0.99999800  0.99993700  1
  V  V0  1  0.50000900  0.00000300  0.00000500  1
  V  V1  1  0.99999800  0.99999500  0.49998500  1
  V  V2  1  0.00000000  0.49999700  0.00000000  1
  V  V3  1  0.49999500  0.49999800  0.50000400  1
  Cu  Cu0  1  0.49999800  0.99999400  0.50000000  1
  Cu  Cu1  1  0.49999900  0.50000200  0.00000100  1
  Cu  Cu2  1  0.00000300  0.50000300  0.50000400  1
  O  O0  1  0.82887400  0.29627600  0.11807700  1
  O  O1  1  0.17111900  0.70373900  0.88193200  1
  O  O2  1  0.82456600  0.70134700  0.53095400  1
  O  O3  1  0.30417100  0.47236000  0.18197800  1
  O  O4  1  0.47126600  0.16932900  0.29073800  1
  O  O5  1  0.11878700  0.83226200  0.30001800  1
  O  O6  1  0.70263300  0.87662300  0.17235600  1
  O  O7  1  0.52872200  0.83066700  0.70926200  1
  O  O8  1  0.17544100  0.29867000  0.46907200  1
  O  O9  1  0.69582700  0.52763500  0.81802000  1
  O  O10  1  0.88121400  0.16772700  0.70000100  1
  O  O11  1  0.29735100  0.12337400  0.82765400  1
loop_
_geom_bond_atom_site_label_1
_geom_bond_atom_site_label_2
_geom_bond_distance
_geom_bond_site_symmetry_2
Al0 O1 2.501162 1_555
Al0 O0 2.501742 1_466
Al0 O10 2.511063 1_465
Al0 O5 2.511766 1_556
Al0 O2 2.511772 1_455
Al0 O8 2.512615 1_566
Al0 O11 2.518419 1_565
Al0 O6 2.519466 1_456
Al0 O4 2.543819 1_566
Al0 O7 2.544021 1_455
Al0 O3 2.551420 1_566
Al0 O9 2.551663 1_455
Cu0 O7 1.975605 1_555
Cu0 O4 1.975649 1_565
Cu0 O5 2.000918 1_555
Cu0 O10 2.000950 1_565
Cu1 O3 1.961140 1_555
Cu1 O9 1.961156 1_554
Cu1 O6 1.973586 1_555
Cu1 O11 1.973632 1_554
Cu2 O8 1.964014 1_555
Cu2 O2 1.964073 1_455
Cu2 O0 1.987586 1_455
Cu2 O1 1.987600 1_555
O0 V2 1.922028 1_655
O0 V0 1.982106 1_555
O1 V2 1.922045 1_556
O1 V0 1.982175 1_566
O2 V3 1.942590 1_555
O2 V1 1.978004 1_555
O3 V3 1.903182 1_555
O3 V2 2.004363 1_555
O4 V0 1.897023 1_555
O4 V3 1.985031 1_555
O5 V1 1.888208 1_455
O5 V2 1.989924 1_555
O6 V0 1.952157 1_565
O6 V1 1.964778 1_555
O7 V0 1.896977 1_566
O7 V3 1.985023 1_555
O8 V3 1.942519 1_555
O8 V1 1.977947 1_445
O9 V3 1.903148 1_555
O9 V2 2.004381 1_656
O10 V1 1.888368 1_545
O10 V2 1.989889 1_656
O11 V0 1.952243 1_556
O11 V1 1.964883 1_445
