# generated using pymatgen
data_CsHoMnSe3
_symmetry_space_group_name_H-M   'P 1'
_cell_length_a   8.36881932
_cell_length_b   8.36881932
_cell_length_c   11.02515900
_cell_angle_alpha   90.00000000
_cell_angle_beta   90.00000000
_cell_angle_gamma   150.63320017
_symmetry_Int_Tables_number   1
_chemical_formula_structural   CsHoMnSe3
_chemical_formula_sum   'Cs2 Ho2 Mn2 Se6'
_cell_volume   378.67155519
_cell_formula_units_Z   2
loop_
 _symmetry_equiv_pos_site_id
 _symmetry_equiv_pos_as_xyz
  1  'x, y, z'
loop_
 _atom_site_type_symbol
 _atom_site_label
 _atom_site_symmetry_multiplicity
 _atom_site_fract_x
 _atom_site_fract_y
 _atom_site_fract_z
 _atom_site_occupancy
  Cs  Cs0  1  0.25755500  0.74244500  0.25000000  1
  Cs  Cs1  1  0.74244500  0.25755500  0.75000000  1
  Ho  Ho0  1  0.00000000  0.00000000  0.00000000  1
  Ho  Ho1  1  0.00000000  0.00000000  0.50000000  1
  Mn  Mn0  1  0.53712300  0.46287700  0.25000000  1
  Mn  Mn1  1  0.46287700  0.53712300  0.75000000  1
  Se  Se0  1  0.61525200  0.38474800  0.05597100  1
  Se  Se1  1  0.38474800  0.61525200  0.94402900  1
  Se  Se2  1  0.38474800  0.61525200  0.55597100  1
  Se  Se3  1  0.61525200  0.38474800  0.44402900  1
  Se  Se4  1  0.94604400  0.05395600  0.25000000  1
  Se  Se5  1  0.05395600  0.94604400  0.75000000  1
loop_
_geom_bond_atom_site_label_1
_geom_bond_atom_site_label_2
_geom_bond_distance
_geom_bond_site_symmetry_2
Cs0 Se4 3.716665 1_455
Cs0 Se4 3.716665 1_565
Cs0 Se0 3.792714 1_455
Cs0 Se3 3.792714 1_455
Cs0 Se3 3.792714 1_565
Cs0 Se0 3.792714 1_565
Cs0 Se2 3.952309 1_555
Cs0 Se1 3.952309 1_554
Cs1 Se5 3.716665 1_545
Cs1 Se5 3.716665 1_655
Cs1 Se1 3.792714 1_545
Cs1 Se2 3.792714 1_545
Cs1 Se1 3.792714 1_655
Cs1 Se2 3.792714 1_655
Cs1 Se0 3.952309 1_556
Cs1 Se3 3.952309 1_555
Ho0 Se4 2.891421 1_455
Ho0 Se5 2.891421 1_544
Ho0 Se1 2.891864 1_444
Ho0 Se0 2.891864 1_555
Ho0 Se0 2.891864 1_445
Ho0 Se1 2.891864 1_554
Ho1 Se4 2.891421 1_455
Ho1 Se5 2.891421 1_545
Ho1 Se2 2.891864 1_445
Ho1 Se3 2.891864 1_555
Ho1 Se3 2.891864 1_445
Ho1 Se2 2.891864 1_555
Mn0 Se0 2.485231 1_555
Mn0 Se3 2.485231 1_555
Mn0 Se4 2.583520 1_565
Mn0 Se4 2.583520 1_455
Mn1 Se2 2.485231 1_555
Mn1 Se1 2.485231 1_555
Mn1 Se5 2.583520 1_655
Mn1 Se5 2.583520 1_545
