# generated using pymatgen
data_Yb(Ni2P)2
_symmetry_space_group_name_H-M   'P 1'
_cell_length_a   7.09822400
_cell_length_b   7.09822400
_cell_length_c   3.53898900
_cell_angle_alpha   90.00000000
_cell_angle_beta   90.00000000
_cell_angle_gamma   90.00000000
_symmetry_Int_Tables_number   1
_chemical_formula_structural   Yb(Ni2P)2
_chemical_formula_sum   'Yb2 Ni8 P4'
_cell_volume   178.31119618
_cell_formula_units_Z   2
loop_
 _symmetry_equiv_pos_site_id
 _symmetry_equiv_pos_as_xyz
  1  'x, y, z'
loop_
 _atom_site_type_symbol
 _atom_site_label
 _atom_site_symmetry_multiplicity
 _atom_site_fract_x
 _atom_site_fract_y
 _atom_site_fract_z
 _atom_site_occupancy
  Yb  Yb0  1  0.50000000  0.50000000  0.00000000  1
  Yb  Yb1  1  0.00000000  0.00000000  0.50000000  1
  Ni  Ni0  1  0.83234400  0.41862200  0.50000000  1
  Ni  Ni1  1  0.16765600  0.58137800  0.50000000  1
  Ni  Ni2  1  0.41862200  0.83234400  0.50000000  1
  Ni  Ni3  1  0.58137800  0.16765600  0.50000000  1
  Ni  Ni4  1  0.33234400  0.08137800  0.00000000  1
  Ni  Ni5  1  0.66765600  0.91862200  0.00000000  1
  Ni  Ni6  1  0.91862200  0.66765600  0.00000000  1
  Ni  Ni7  1  0.08137800  0.33234400  0.00000000  1
  P  P0  1  0.22300700  0.77699300  0.00000000  1
  P  P1  1  0.27699300  0.27699300  0.50000000  1
  P  P2  1  0.72300700  0.72300700  0.50000000  1
  P  P3  1  0.77699300  0.22300700  0.00000000  1
loop_
_geom_bond_atom_site_label_1
_geom_bond_atom_site_label_2
_geom_bond_distance
_geom_bond_site_symmetry_2
Ni0 P3 2.283301 1_556
Ni0 P3 2.283301 1_555
Ni0 P2 2.295755 1_555
Ni1 P0 2.283301 1_556
Ni1 P0 2.283301 1_555
Ni1 P1 2.295755 1_555
Ni2 P0 2.283301 1_556
Ni2 P0 2.283301 1_555
Ni2 P2 2.295755 1_555
Ni3 P3 2.283301 1_555
Ni3 P3 2.283301 1_556
Ni3 P1 2.295755 1_555
Ni4 P1 2.283301 1_555
Ni4 P1 2.283301 1_554
Ni4 P0 2.295755 1_545
Ni5 P2 2.283301 1_554
Ni5 P2 2.283301 1_555
Ni5 P3 2.295755 1_565
Ni6 P2 2.283301 1_554
Ni6 P2 2.283301 1_555
Ni6 P0 2.295755 1_655
Ni7 P1 2.283301 1_555
Ni7 P1 2.283301 1_554
Ni7 P3 2.295755 1_455
P0 Yb0 2.780568 1_555
P0 Yb1 2.853523 1_565
P0 Yb1 2.853523 1_564
P1 Yb1 2.780568 1_555
P1 Yb0 2.853523 1_555
P1 Yb0 2.853523 1_556
P2 Yb1 2.780568 1_665
P2 Yb0 2.853523 1_555
P2 Yb0 2.853523 1_556
P3 Yb0 2.780568 1_555
P3 Yb1 2.853523 1_655
P3 Yb1 2.853523 1_654
