# generated using pymatgen
data_Li2Mn3SbO8
_symmetry_space_group_name_H-M   'P 1'
_cell_length_a   5.89345674
_cell_length_b   6.10329479
_cell_length_c   8.93659291
_cell_angle_alpha   88.52110590
_cell_angle_beta   89.99929038
_cell_angle_gamma   90.00537054
_symmetry_Int_Tables_number   1
_chemical_formula_structural   Li2Mn3SbO8
_chemical_formula_sum   'Li4 Mn6 Sb2 O16'
_cell_volume   321.33773815
_cell_formula_units_Z   2
loop_
 _symmetry_equiv_pos_site_id
 _symmetry_equiv_pos_as_xyz
  1  'x, y, z'
loop_
 _atom_site_type_symbol
 _atom_site_label
 _atom_site_symmetry_multiplicity
 _atom_site_fract_x
 _atom_site_fract_y
 _atom_site_fract_z
 _atom_site_occupancy
  Li  Li0  1  0.99638000  0.26307500  0.13483500  1
  Li  Li1  1  0.50357400  0.76297200  0.63483200  1
  Li  Li2  1  0.00365800  0.73690600  0.86517700  1
  Li  Li3  1  0.49638200  0.23700400  0.36519600  1
  Mn  Mn0  1  0.50003800  0.99998800  0.00002400  1
  Mn  Mn1  1  0.75410400  0.74848900  0.24750900  1
  Mn  Mn2  1  0.24604800  0.25153900  0.75234400  1
  Mn  Mn3  1  0.99968700  0.49990000  0.49992100  1
  Mn  Mn4  1  0.25403100  0.75177400  0.25238200  1
  Mn  Mn5  1  0.74599000  0.24826000  0.74759000  1
  Sb  Sb0  1  0.00004700  0.99994200  0.50005300  1
  Sb  Sb1  1  0.50003500  0.50003800  0.00003100  1
  O  O0  1  0.00492500  0.54072100  0.27288600  1
  O  O1  1  0.49512700  0.04042100  0.77289100  1
  O  O2  1  0.99507400  0.45926500  0.72705900  1
  O  O3  1  0.50493800  0.95955600  0.22711500  1
  O  O4  1  0.24245000  0.77630900  0.49773700  1
  O  O5  1  0.71778900  0.24290400  0.00243600  1
  O  O6  1  0.78212700  0.74293100  0.50248300  1
  O  O7  1  0.25760000  0.27628800  0.99782400  1
  O  O8  1  0.99980400  0.97616300  0.26911500  1
  O  O9  1  0.50011000  0.47610900  0.76907000  1
  O  O10  1  0.00023400  0.02388400  0.73092500  1
  O  O11  1  0.49996200  0.52395900  0.23096500  1
  O  O12  1  0.21771700  0.25714500  0.49749700  1
  O  O13  1  0.74243600  0.72376700  0.00221900  1
  O  O14  1  0.75747500  0.22362700  0.50228300  1
  O  O15  1  0.28225500  0.75706500  0.99760200  1
loop_
_geom_bond_atom_site_label_1
_geom_bond_atom_site_label_2
_geom_bond_distance
_geom_bond_site_symmetry_2
Li0 O7 1.967370 1_654
Li0 O5 2.029373 1_555
Li0 O8 2.097223 1_545
Li0 O0 2.122258 1_655
Li1 O4 1.967449 1_555
Li1 O6 2.028866 1_555
Li1 O9 2.096770 1_555
Li1 O1 2.121316 1_565
Li2 O13 1.967540 1_456
Li2 O15 2.029532 1_555
Li2 O10 2.097415 1_565
Li2 O2 2.122599 1_455
Li3 O14 1.967268 1_555
Li3 O12 2.029195 1_555
Li3 O11 2.097202 1_555
Li3 O3 2.121445 1_545
Mn0 O5 1.961301 1_565
Mn0 O15 1.961459 1_554
Mn0 O3 2.038241 1_555
Mn0 O1 2.038615 1_564
Mn0 O13 2.209533 1_555
Mn0 O7 2.210053 1_564
Mn1 O0 1.957046 1_655
Mn1 O3 1.958895 1_555
Mn1 O8 2.019507 1_555
Mn1 O11 2.037937 1_555
Mn1 O13 2.202200 1_555
Mn1 O6 2.283957 1_555
Mn2 O2 1.957481 1_455
Mn2 O1 1.958820 1_555
Mn2 O10 2.019720 1_555
Mn2 O9 2.037902 1_555
Mn2 O7 2.203887 1_555
Mn2 O12 2.282954 1_555
Mn3 O6 1.961318 1_555
Mn3 O12 1.961819 1_655
Mn3 O0 2.038000 1_655
Mn3 O2 2.038752 1_555
Mn3 O14 2.208847 1_555
Mn3 O4 2.211596 1_655
Mn4 O3 1.957203 1_555
Mn4 O0 1.958465 1_555
Mn4 O11 2.021071 1_555
Mn4 O8 2.038064 1_455
Mn4 O4 2.202655 1_555
Mn4 O15 2.282328 1_554
Mn5 O1 1.957262 1_555
Mn5 O2 1.958194 1_555
Mn5 O9 2.021062 1_555
Mn5 O10 2.038029 1_655
Mn5 O14 2.202266 1_555
Mn5 O5 2.282902 1_556
O4 Sb0 1.976379 1_555
O5 Sb1 2.027048 1_555
O6 Sb0 2.026898 1_655
O7 Sb1 1.976796 1_556
O8 Sb0 2.072629 1_655
O9 Sb1 2.072921 1_556
O10 Sb0 2.072136 1_545
O11 Sb1 2.072676 1_555
O12 Sb0 2.026862 1_545
O13 Sb1 1.976558 1_555
O14 Sb0 1.977296 1_645
O15 Sb1 2.026638 1_556
