# generated using pymatgen
data_YbU3
_symmetry_space_group_name_H-M   'P 1'
_cell_length_a   6.45865124
_cell_length_b   6.45865222
_cell_length_c   5.26735594
_cell_angle_alpha   90.00000000
_cell_angle_beta   90.00000000
_cell_angle_gamma   120.00001097
_symmetry_Int_Tables_number   1
_chemical_formula_structural   YbU3
_chemical_formula_sum   'Yb2 U6'
_cell_volume   190.28606409
_cell_formula_units_Z   2
loop_
 _symmetry_equiv_pos_site_id
 _symmetry_equiv_pos_as_xyz
  1  'x, y, z'
loop_
 _atom_site_type_symbol
 _atom_site_label
 _atom_site_symmetry_multiplicity
 _atom_site_fract_x
 _atom_site_fract_y
 _atom_site_fract_z
 _atom_site_occupancy
  Yb  Yb0  1  0.33333400  0.66666800  0.75000000  1
  Yb  Yb1  1  0.66666700  0.33333300  0.24999900  1
  U  U0  1  0.14666363  0.29332827  0.24999900  1
  U  U1  1  0.70667373  0.85333637  0.24999900  1
  U  U2  1  0.14666263  0.85333637  0.24999900  1
  U  U3  1  0.85333737  0.70667173  0.75000000  1
  U  U4  1  0.29332727  0.14666363  0.75000000  1
  U  U5  1  0.85333637  0.14666363  0.75000000  1
loop_
_geom_bond_atom_site_label_1
_geom_bond_atom_site_label_2
_geom_bond_distance
_geom_bond_site_symmetry_2
U0 U1 2.841748 1_445
U0 U2 2.841751 1_545
U0 U5 3.102914 1_454
U0 U4 3.102917 1_554
U0 U5 3.102923 1_455
U0 U4 3.102926 1_555
U0 Yb1 3.237062 1_455
U0 Yb1 3.237075 1_555
U0 Yb0 3.361087 1_554
U0 Yb0 3.361095 1_555
U0 U2 3.616901 1_555
U0 U1 3.616903 1_555
U1 U2 2.841735 1_655
U1 U5 3.102914 1_564
U1 U3 3.102917 1_554
U1 U5 3.102923 1_565
U1 U3 3.102926 1_555
U1 Yb1 3.237070 1_555
U1 Yb1 3.237070 1_565
U1 Yb0 3.361086 1_554
U1 Yb0 3.361095 1_555
U1 U2 3.616916 1_555
U2 U3 3.102908 1_454
U2 U4 3.102914 1_564
U2 U3 3.102917 1_455
U2 U4 3.102923 1_565
U2 Yb1 3.237066 1_455
U2 Yb1 3.237073 1_565
U2 Yb0 3.361087 1_554
U2 Yb0 3.361095 1_555
U3 U4 2.841748 1_665
U3 U5 2.841758 1_565
U3 Yb0 3.237059 1_655
U3 Yb0 3.237078 1_555
U3 Yb1 3.361083 1_556
U3 Yb1 3.361091 1_555
U3 U5 3.616894 1_555
U3 U4 3.616903 1_555
U4 U5 2.841748 1_455
U4 Yb0 3.237063 1_545
U4 Yb0 3.237076 1_555
U4 Yb1 3.361086 1_556
U4 Yb1 3.361095 1_555
U4 U5 3.616903 1_555
U5 Yb0 3.237063 1_545
U5 Yb0 3.237076 1_655
U5 Yb1 3.361083 1_556
U5 Yb1 3.361092 1_555
