# generated using pymatgen
data_Li7Mn2(CoO4)3
_symmetry_space_group_name_H-M   'P 1'
_cell_length_a   7.78781014
_cell_length_b   7.78781014
_cell_length_c   10.22673855
_cell_angle_alpha   70.66646659
_cell_angle_beta   70.66646659
_cell_angle_gamma   21.55957003
_symmetry_Int_Tables_number   1
_chemical_formula_structural   Li7Mn2(CoO4)3
_chemical_formula_sum   'Li7 Mn2 Co3 O12'
_cell_volume   214.58927315
_cell_formula_units_Z   1
loop_
 _symmetry_equiv_pos_site_id
 _symmetry_equiv_pos_as_xyz
  1  'x, y, z'
loop_
 _atom_site_type_symbol
 _atom_site_label
 _atom_site_symmetry_multiplicity
 _atom_site_fract_x
 _atom_site_fract_y
 _atom_site_fract_z
 _atom_site_occupancy
  Li  Li0  1  0.83837400  0.83837400  0.42098100  1
  Li  Li1  1  0.83455500  0.83455500  0.91453900  1
  Li  Li2  1  0.49588800  0.49588800  0.26247100  1
  Li  Li3  1  0.50411200  0.50411200  0.73752900  1
  Li  Li4  1  0.16162600  0.16162600  0.57901900  1
  Li  Li5  1  0.16544500  0.16544500  0.08546100  1
  Li  Li6  1  0.00000000  0.00000000  0.50000000  1
  Mn  Mn0  1  0.33929500  0.33929500  0.65820100  1
  Mn  Mn1  1  0.66070500  0.66070500  0.34179900  1
  Co  Co0  1  0.33299700  0.33299700  0.16726600  1
  Co  Co1  1  0.00000000  0.00000000  0.00000000  1
  Co  Co2  1  0.66700300  0.66700300  0.83273400  1
  O  O0  1  0.75919600  0.75919600  0.63299900  1
  O  O1  1  0.75172200  0.75172200  0.13765900  1
  O  O2  1  0.40854200  0.40854200  0.47448100  1
  O  O3  1  0.42060200  0.42060200  0.96550500  1
  O  O4  1  0.08866900  0.08866900  0.79623100  1
  O  O5  1  0.09232500  0.09232500  0.29451800  1
  O  O6  1  0.91133100  0.91133100  0.20376900  1
  O  O7  1  0.90767500  0.90767500  0.70548200  1
  O  O8  1  0.57939800  0.57939800  0.03449500  1
  O  O9  1  0.59145800  0.59145800  0.52551900  1
  O  O10  1  0.24080400  0.24080400  0.36700100  1
  O  O11  1  0.24827800  0.24827800  0.86234100  1
loop_
_geom_bond_atom_site_label_1
_geom_bond_atom_site_label_2
_geom_bond_distance
_geom_bond_site_symmetry_2
Li0 O2 1.992388 1_565
Li0 O2 1.992388 1_655
Li0 O0 2.097254 1_555
Li0 O6 2.123491 1_555
Li0 O10 2.282681 1_565
Li0 O10 2.282681 1_655
Li1 O7 2.051921 1_555
Li1 O3 2.142254 1_655
Li1 O3 2.142254 1_565
Li1 O11 2.150412 1_565
Li1 O11 2.150412 1_655
Li1 O1 2.205363 1_556
Li2 O2 2.129314 1_555
Li2 O6 2.163204 1_545
Li2 O6 2.163204 1_455
Li2 O5 2.175385 1_565
Li2 O5 2.175385 1_655
Li2 O8 2.249531 1_555
Li3 O9 2.129314 1_555
Li3 O4 2.163204 1_565
Li3 O4 2.163204 1_655
Li3 O7 2.175385 1_455
Li3 O7 2.175385 1_545
Li3 O3 2.249531 1_555
Li4 O9 1.992388 1_455
Li4 O9 1.992388 1_545
Li4 O10 2.097254 1_555
Li4 O4 2.123491 1_555
Li4 O0 2.282681 1_545
Li4 O0 2.282681 1_455
Li5 O5 2.051921 1_555
Li5 O8 2.142254 1_455
Li5 O8 2.142254 1_545
Li5 O1 2.150412 1_545
Li5 O1 2.150412 1_455
Li5 O11 2.205363 1_554
Li6 O9 2.096230 1_545
Li6 O9 2.096230 1_455
Li6 O2 2.096230 1_545
Li6 O2 2.096230 1_455
Li6 O7 2.100144 1_445
Li6 O5 2.100144 1_555
Mn0 O2 1.819592 1_555
Mn0 O7 1.947081 1_455
Mn0 O7 1.947081 1_545
Mn0 O0 1.975608 1_455
Mn0 O0 1.975608 1_545
Mn0 O11 2.082835 1_555
Mn1 O9 1.819592 1_555
Mn1 O5 1.947081 1_655
Mn1 O5 1.947081 1_565
Mn1 O10 1.975608 1_655
Mn1 O10 1.975608 1_565
Mn1 O1 2.082835 1_555
Co0 O6 1.999792 1_545
Co0 O6 1.999792 1_455
Co0 O1 2.003395 1_455
Co0 O1 2.003395 1_545
Co0 O3 2.046942 1_554
Co0 O10 2.054285 1_555
Co1 O8 2.002706 1_455
Co1 O8 2.002706 1_545
Co1 O3 2.002706 1_544
Co1 O3 2.002706 1_454
Co1 O6 2.068242 1_445
Co1 O4 2.068242 1_554
Co2 O4 1.999792 1_565
Co2 O4 1.999792 1_655
Co2 O11 2.003395 1_655
Co2 O11 2.003395 1_565
Co2 O8 2.046942 1_556
Co2 O0 2.054285 1_555
