# generated using pymatgen
data_Na2P4Pd3O14
_symmetry_space_group_name_H-M   'P 1'
_cell_length_a   9.69521800
_cell_length_b   9.69521800
_cell_length_c   13.60061700
_cell_angle_alpha   90.00000000
_cell_angle_beta   90.00000000
_cell_angle_gamma   90.00000000
_symmetry_Int_Tables_number   1
_chemical_formula_structural   Na2P4Pd3O14
_chemical_formula_sum   'Na8 P16 Pd12 O56'
_cell_volume   1278.42062442
_cell_formula_units_Z   4
loop_
 _symmetry_equiv_pos_site_id
 _symmetry_equiv_pos_as_xyz
  1  'x, y, z'
loop_
 _atom_site_type_symbol
 _atom_site_label
 _atom_site_symmetry_multiplicity
 _atom_site_fract_x
 _atom_site_fract_y
 _atom_site_fract_z
 _atom_site_occupancy
  Na  Na0  1  0.61398900  0.88601100  0.25000000  1
  Na  Na1  1  0.38601100  0.11398900  0.25000000  1
  Na  Na2  1  0.88601100  0.38601100  0.75000000  1
  Na  Na3  1  0.11398900  0.61398900  0.75000000  1
  Na  Na4  1  0.88601100  0.38601100  0.25000000  1
  Na  Na5  1  0.11398900  0.61398900  0.25000000  1
  Na  Na6  1  0.38601100  0.11398900  0.75000000  1
  Na  Na7  1  0.61398900  0.88601100  0.75000000  1
  P  P0  1  0.65204900  0.22971000  0.10543400  1
  P  P1  1  0.34795100  0.77029000  0.10543400  1
  P  P2  1  0.84795100  0.72971000  0.60543400  1
  P  P3  1  0.15204900  0.27029000  0.60543400  1
  P  P4  1  0.22971000  0.34795100  0.10543400  1
  P  P5  1  0.77029000  0.65204900  0.10543400  1
  P  P6  1  0.72971000  0.15204900  0.60543400  1
  P  P7  1  0.27029000  0.84795100  0.60543400  1
  P  P8  1  0.34795100  0.77029000  0.89456600  1
  P  P9  1  0.65204900  0.22971000  0.89456600  1
  P  P10  1  0.15204900  0.27029000  0.39456600  1
  P  P11  1  0.84795100  0.72971000  0.39456600  1
  P  P12  1  0.77029000  0.65204900  0.89456600  1
  P  P13  1  0.22971000  0.34795100  0.89456600  1
  P  P14  1  0.27029000  0.84795100  0.39456600  1
  P  P15  1  0.72971000  0.15204900  0.39456600  1
  Pd  Pd0  1  0.50000000  0.50000000  0.18344900  1
  Pd  Pd1  1  0.00000000  0.00000000  0.68344900  1
  Pd  Pd2  1  0.50000000  0.50000000  0.81655100  1
  Pd  Pd3  1  0.00000000  0.00000000  0.31655100  1
  Pd  Pd4  1  0.68430900  0.94051400  0.00000000  1
  Pd  Pd5  1  0.31569100  0.05948600  0.00000000  1
  Pd  Pd6  1  0.81569100  0.44051400  0.50000000  1
  Pd  Pd7  1  0.18430900  0.55948600  0.50000000  1
  Pd  Pd8  1  0.94051400  0.31569100  0.00000000  1
  Pd  Pd9  1  0.05948600  0.68430900  0.00000000  1
  Pd  Pd10  1  0.44051400  0.18430900  0.50000000  1
  Pd  Pd11  1  0.55948600  0.81569100  0.50000000  1
  O  O0  1  0.59176500  0.27983500  0.00000000  1
  O  O1  1  0.40823500  0.72016500  0.00000000  1
  O  O2  1  0.90823500  0.77983500  0.50000000  1
  O  O3  1  0.09176500  0.22016500  0.50000000  1
  O  O4  1  0.27983500  0.40823500  0.00000000  1
  O  O5  1  0.72016500  0.59176500  0.00000000  1
  O  O6  1  0.77983500  0.09176500  0.50000000  1
  O  O7  1  0.22016500  0.90823500  0.50000000  1
  O  O8  1  0.63107700  0.07243900  0.11258700  1
  O  O9  1  0.36892300  0.92756100  0.11258700  1
  O  O10  1  0.86892300  0.57243900  0.61258700  1
  O  O11  1  0.13107700  0.42756100  0.61258700  1
  O  O12  1  0.07243900  0.36892300  0.11258700  1
  O  O13  1  0.92756100  0.63107700  0.11258700  1
  O  O14  1  0.57243900  0.13107700  0.61258700  1
  O  O15  1  0.42756100  0.86892300  0.61258700  1
  O  O16  1  0.36892300  0.92756100  0.88741300  1
  O  O17  1  0.63107700  0.07243900  0.88741300  1
  O  O18  1  0.13107700  0.42756100  0.38741300  1
  O  O19  1  0.86892300  0.57243900  0.38741300  1
  O  O20  1  0.92756100  0.63107700  0.88741300  1
  O  O21  1  0.07243900  0.36892300  0.88741300  1
  O  O22  1  0.42756100  0.86892300  0.38741300  1
  O  O23  1  0.57243900  0.13107700  0.38741300  1
  O  O24  1  0.70261600  0.56396800  0.18573300  1
  O  O25  1  0.29738400  0.43603200  0.18573300  1
  O  O26  1  0.79738400  0.06396800  0.68573300  1
  O  O27  1  0.20261600  0.93603200  0.68573300  1
  O  O28  1  0.56396800  0.29738400  0.18573300  1
  O  O29  1  0.43603200  0.70261600  0.18573300  1
  O  O30  1  0.06396800  0.20261600  0.68573300  1
  O  O31  1  0.93603200  0.79738400  0.68573300  1
  O  O32  1  0.29738400  0.43603200  0.81426700  1
  O  O33  1  0.70261600  0.56396800  0.81426700  1
  O  O34  1  0.20261600  0.93603200  0.31426700  1
  O  O35  1  0.79738400  0.06396800  0.31426700  1
  O  O36  1  0.43603200  0.70261600  0.81426700  1
  O  O37  1  0.56396800  0.29738400  0.81426700  1
  O  O38  1  0.93603200  0.79738400  0.31426700  1
  O  O39  1  0.06396800  0.20261600  0.31426700  1
  O  O40  1  0.72416200  0.80370000  0.11043800  1
  O  O41  1  0.27583800  0.19630000  0.11043800  1
  O  O42  1  0.77583800  0.30370000  0.61043800  1
  O  O43  1  0.22416200  0.69630000  0.61043800  1
  O  O44  1  0.80370000  0.27583800  0.11043800  1
  O  O45  1  0.19630000  0.72416200  0.11043800  1
  O  O46  1  0.30370000  0.22416200  0.61043800  1
  O  O47  1  0.69630000  0.77583800  0.61043800  1
  O  O48  1  0.27583800  0.19630000  0.88956200  1
  O  O49  1  0.72416200  0.80370000  0.88956200  1
  O  O50  1  0.22416200  0.69630000  0.38956200  1
  O  O51  1  0.77583800  0.30370000  0.38956200  1
  O  O52  1  0.19630000  0.72416200  0.88956200  1
  O  O53  1  0.80370000  0.27583800  0.88956200  1
  O  O54  1  0.69630000  0.77583800  0.38956200  1
  O  O55  1  0.30370000  0.22416200  0.38956200  1
loop_
_geom_bond_atom_site_label_1
_geom_bond_atom_site_label_2
_geom_bond_distance
_geom_bond_site_symmetry_2
Na0 O40 2.319630 1_555
Na0 O54 2.319630 1_555
Na0 O8 2.605216 1_565
Na0 O22 2.605216 1_555
Na0 O29 2.627213 1_555
Na0 O35 2.627213 1_565
Na1 O55 2.319630 1_555
Na1 O41 2.319630 1_555
Na1 O9 2.605216 1_545
Na1 O23 2.605216 1_555
Na1 O28 2.627213 1_555
Na1 O34 2.627213 1_545
Na2 O53 2.319630 1_555
Na2 O42 2.319630 1_555
Na2 O21 2.605216 1_655
Na2 O10 2.605216 1_555
Na2 O30 2.627213 1_655
Na2 O33 2.627213 1_555
Na3 O43 2.319630 1_555
Na3 O52 2.319630 1_555
Na3 O11 2.605216 1_555
Na3 O20 2.605216 1_455
Na3 O32 2.627213 1_555
Na3 O31 2.627213 1_455
Na4 O44 2.319630 1_555
Na4 O51 2.319630 1_555
Na4 O12 2.605216 1_655
Na4 O19 2.605216 1_555
Na4 O24 2.627213 1_555
Na4 O39 2.627213 1_655
Na5 O45 2.319630 1_555
Na5 O50 2.319630 1_555
Na5 O18 2.605216 1_555
Na5 O13 2.605216 1_455
Na5 O25 2.627213 1_555
Na5 O38 2.627213 1_455
Na6 O46 2.319630 1_555
Na6 O48 2.319630 1_555
Na6 O14 2.605216 1_555
Na6 O16 2.605216 1_545
Na6 O37 2.627213 1_555
Na6 O27 2.627213 1_545
Na7 O47 2.319630 1_555
Na7 O49 2.319630 1_555
Na7 O17 2.605216 1_565
Na7 O15 2.605216 1_555
Na7 O26 2.627213 1_565
Na7 O36 2.627213 1_555
O0 P0 1.622971 1_555
O0 P9 1.622971 1_554
O1 P1 1.622971 1_555
O1 P8 1.622971 1_554
O2 P2 1.622971 1_555
O2 P11 1.622971 1_555
O3 P3 1.622971 1_555
O3 P10 1.622971 1_555
O4 P4 1.622971 1_555
O4 P13 1.622971 1_554
O5 P5 1.622971 1_555
O5 P12 1.622971 1_554
O6 P6 1.622971 1_555
O6 P15 1.622971 1_555
O7 P14 1.622971 1_555
O7 P7 1.622971 1_555
O8 P0 1.541347 1_555
O8 Pd4 2.060834 1_545
O9 P1 1.541347 1_555
O9 Pd5 2.060834 1_565
O10 P2 1.541347 1_555
O10 Pd6 2.060834 1_555
O11 P3 1.541347 1_555
O11 Pd7 2.060834 1_555
O12 P4 1.541347 1_555
O12 Pd8 2.060834 1_455
O13 P5 1.541347 1_555
O13 Pd9 2.060834 1_655
O14 P6 1.541347 1_555
O14 Pd10 2.060834 1_555
O15 P7 1.541347 1_555
O15 Pd11 2.060834 1_555
O16 P8 1.541347 1_555
O16 Pd5 2.060834 1_566
O17 P9 1.541347 1_555
O17 Pd4 2.060834 1_546
O18 P10 1.541347 1_555
O18 Pd7 2.060834 1_555
O19 P11 1.541347 1_555
O19 Pd6 2.060834 1_555
O20 P12 1.541347 1_555
O20 Pd9 2.060834 1_656
O21 P13 1.541347 1_555
O21 Pd8 2.060834 1_456
O22 P14 1.541347 1_555
O22 Pd11 2.060834 1_555
O23 P15 1.541347 1_555
O23 Pd10 2.060834 1_555
O24 P5 1.533773 1_555
O24 Pd0 2.060215 1_555
O25 P4 1.533773 1_555
O25 Pd0 2.060215 1_555
O26 P6 1.533773 1_555
O26 Pd1 2.060215 1_655
O27 P7 1.533773 1_555
O27 Pd1 2.060215 1_565
O28 P0 1.533773 1_555
O28 Pd0 2.060215 1_555
O29 P1 1.533773 1_555
O29 Pd0 2.060215 1_555
O30 P3 1.533773 1_555
O30 Pd1 2.060215 1_555
O31 P2 1.533773 1_555
O31 Pd1 2.060215 1_665
O32 P13 1.533773 1_555
O32 Pd2 2.060215 1_555
O33 P12 1.533773 1_555
O33 Pd2 2.060215 1_555
O34 P14 1.533773 1_555
O34 Pd3 2.060215 1_565
O35 P15 1.533773 1_555
O35 Pd3 2.060215 1_655
O36 P8 1.533773 1_555
O36 Pd2 2.060215 1_555
O37 P9 1.533773 1_555
O37 Pd2 2.060215 1_555
O38 P11 1.533773 1_555
O38 Pd3 2.060215 1_665
O39 P10 1.533773 1_555
O39 Pd3 2.060215 1_555
O40 P5 1.538307 1_555
O40 Pd4 2.040789 1_555
O41 P4 1.538307 1_555
O41 Pd5 2.040789 1_555
O42 P6 1.538307 1_555
O42 Pd6 2.040789 1_555
O43 P7 1.538307 1_555
O43 Pd7 2.040789 1_555
O44 P0 1.538307 1_555
O44 Pd8 2.040789 1_555
O45 P1 1.538307 1_555
O45 Pd9 2.040789 1_555
O46 P3 1.538307 1_555
O46 Pd10 2.040789 1_555
O47 P2 1.538307 1_555
O47 Pd11 2.040789 1_555
O48 P13 1.538307 1_555
O48 Pd5 2.040789 1_556
O49 P12 1.538307 1_555
O49 Pd4 2.040789 1_556
O50 P14 1.538307 1_555
O50 Pd7 2.040789 1_555
O51 P15 1.538307 1_555
O51 Pd6 2.040789 1_555
O52 P8 1.538307 1_555
O52 Pd9 2.040789 1_556
O53 P9 1.538307 1_555
O53 Pd8 2.040789 1_556
O54 P11 1.538307 1_555
O54 Pd11 2.040789 1_555
O55 P10 1.538307 1_555
O55 Pd10 2.040789 1_555
