# generated using pymatgen
data_Cu2NiTeO6
_symmetry_space_group_name_H-M   'P 1'
_cell_length_a   8.36916526
_cell_length_b   8.36916526
_cell_length_c   8.36916526
_cell_angle_alpha   109.64033211
_cell_angle_beta   109.53745974
_cell_angle_gamma   109.23614193
_symmetry_Int_Tables_number   1
_chemical_formula_structural   Cu2NiTeO6
_chemical_formula_sum   'Cu8 Ni4 Te4 O24'
_cell_volume   451.25155231
_cell_formula_units_Z   4
loop_
 _symmetry_equiv_pos_site_id
 _symmetry_equiv_pos_as_xyz
  1  'x, y, z'
loop_
 _atom_site_type_symbol
 _atom_site_label
 _atom_site_symmetry_multiplicity
 _atom_site_fract_x
 _atom_site_fract_y
 _atom_site_fract_z
 _atom_site_occupancy
  Cu  Cu0  1  0.77705600  0.52705600  0.25000000  1
  Cu  Cu1  1  0.72294400  0.97294400  0.75000000  1
  Cu  Cu2  1  0.97162700  0.75000000  0.72162700  1
  Cu  Cu3  1  0.52837300  0.25000000  0.77837300  1
  Cu  Cu4  1  0.75000000  0.77917700  0.02917700  1
  Cu  Cu5  1  0.25000000  0.72082300  0.47082300  1
  Cu  Cu6  1  0.21971700  0.46971700  0.75000000  1
  Cu  Cu7  1  0.28028300  0.03028300  0.25000000  1
  Ni  Ni0  1  0.04042300  0.25000000  0.29042300  1
  Ni  Ni1  1  0.45957700  0.75000000  0.20957700  1
  Ni  Ni2  1  0.25000000  0.21125400  0.96125400  1
  Ni  Ni3  1  0.75000000  0.28874600  0.53874600  1
  Te  Te0  1  0.00251700  0.50364800  0.00362800  1
  Te  Te1  1  0.49998000  0.99635200  0.99886900  1
  Te  Te2  1  0.49748300  0.50111100  0.50113100  1
  Te  Te3  1  0.00002000  0.99888900  0.49637200  1
  O  O0  1  0.72458000  0.51538600  0.45816900  1
  O  O1  1  0.94278300  0.98461400  0.70919400  1
  O  O2  1  0.77542000  0.23358900  0.79080600  1
  O  O3  1  0.55721700  0.26641100  0.04183100  1
  O  O4  1  0.76400800  0.04096500  0.06909800  1
  O  O5  1  0.73599200  0.80509000  0.27695700  1
  O  O6  1  0.47186700  0.69491000  0.43090200  1
  O  O7  1  0.02813300  0.45903500  0.22304300  1
  O  O8  1  0.20809800  0.44322700  0.98164500  1
  O  O9  1  0.96158200  0.22645300  0.51835500  1
  O  O10  1  0.53841800  0.05677300  0.26487100  1
  O  O11  1  0.29190200  0.27354700  0.23512900  1
  O  O12  1  0.27956900  0.47782500  0.54744400  1
  O  O13  1  0.06961900  0.02217500  0.30174500  1
  O  O14  1  0.22043100  0.76787400  0.19825500  1
  O  O15  1  0.43038100  0.73212600  0.95255600  1
  O  O16  1  0.23482800  0.95440000  0.92922100  1
  O  O17  1  0.26517200  0.19439300  0.71957200  1
  O  O18  1  0.52517800  0.30560700  0.57077900  1
  O  O19  1  0.97482200  0.54560000  0.78042800  1
  O  O20  1  0.79892400  0.56581600  0.02844100  1
  O  O21  1  0.03737500  0.77048300  0.47155900  1
  O  O22  1  0.46262500  0.93418400  0.73310800  1
  O  O23  1  0.70107600  0.72951700  0.76689200  1
loop_
_geom_bond_atom_site_label_1
_geom_bond_atom_site_label_2
_geom_bond_distance
_geom_bond_site_symmetry_2
Cu0 O0 1.958460 1_555
Cu0 O3 1.958460 1_555
Cu0 O21 2.041868 1_655
Cu0 O20 2.041868 1_555
Cu0 O5 2.410275 1_555
Cu0 O7 2.410275 1_655
Cu1 O1 1.958460 1_555
Cu1 O2 1.958460 1_565
Cu1 O23 2.041868 1_555
Cu1 O22 2.041868 1_555
Cu1 O4 2.410275 1_566
Cu1 O6 2.410275 1_555
Cu2 O16 1.938165 1_655
Cu2 O19 1.938167 1_555
Cu2 O0 2.087438 1_555
Cu2 O1 2.087438 1_555
Cu2 O23 2.379391 1_555
Cu2 O21 2.379391 1_655
Cu3 O18 1.938163 1_555
Cu3 O17 1.938165 1_555
Cu3 O3 2.087438 1_556
Cu3 O2 2.087438 1_555
Cu3 O20 2.379391 1_556
Cu3 O22 2.379391 1_545
Cu4 O23 1.957628 1_554
Cu4 O20 1.957628 1_555
Cu4 O4 2.058664 1_565
Cu4 O5 2.058664 1_555
Cu4 O13 2.389665 1_665
Cu4 O15 2.389665 1_554
Cu5 O21 1.957628 1_555
Cu5 O22 1.957628 1_555
Cu5 O6 2.058664 1_555
Cu5 O7 2.058664 1_555
Cu5 O12 2.389662 1_555
Cu5 O14 2.389666 1_555
Cu6 O12 1.937057 1_555
Cu6 O15 1.937062 1_555
Cu6 O8 2.053748 1_555
Cu6 O9 2.053748 1_455
Cu6 O19 2.401448 1_455
Cu6 O17 2.401456 1_555
Cu7 O13 1.937062 1_555
Cu7 O14 1.937063 1_545
Cu7 O10 2.053748 1_555
Cu7 O11 2.053748 1_555
Cu7 O18 2.401455 1_555
Cu7 O16 2.401456 1_544
Ni0 O12 2.029077 1_555
Ni0 O13 2.029080 1_555
Ni0 O7 2.032758 1_555
Ni0 O4 2.032758 1_455
Ni0 O11 2.263197 1_555
Ni0 O9 2.263197 1_455
Ni1 O14 2.029071 1_555
Ni1 O15 2.029080 1_554
Ni1 O5 2.032758 1_555
Ni1 O6 2.032758 1_555
Ni1 O10 2.263197 1_565
Ni1 O8 2.263197 1_554
Ni2 O17 2.029526 1_555
Ni2 O16 2.029526 1_545
Ni2 O11 2.046250 1_556
Ni2 O8 2.046250 1_555
Ni2 O3 2.264427 1_556
Ni2 O1 2.264427 1_445
Ni3 O19 2.029528 1_555
Ni3 O18 2.029534 1_555
Ni3 O9 2.046250 1_555
Ni3 O10 2.046250 1_555
Ni3 O0 2.264427 1_555
Ni3 O2 2.264427 1_555
O0 Te2 2.022922 1_555
O1 Te3 2.022922 1_655
O2 Te0 2.022922 1_656
O3 Te1 2.022922 1_544
O4 Te1 1.951353 1_544
O5 Te3 1.951353 1_655
O6 Te2 1.951353 1_555
O7 Te0 1.951353 1_555
O8 Te0 1.993058 1_556
O9 Te3 1.993058 1_645
O10 Te1 1.993058 1_544
O11 Te2 1.993058 1_555
O12 Te2 1.950306 1_555
O13 Te3 1.950298 1_545
O14 Te0 1.950300 1_555
O15 Te1 1.950298 1_555
O16 Te1 1.967569 1_555
O17 Te3 1.967569 1_545
O18 Te2 1.967567 1_555
O19 Te0 1.967570 1_656
O20 Te0 1.991308 1_655
O21 Te3 1.991308 1_555
O22 Te1 1.991308 1_555
O23 Te2 1.991308 1_555
