# generated using pymatgen
data_Sr3V5S11
_symmetry_space_group_name_H-M   'P 1'
_cell_length_a   8.62683793
_cell_length_b   8.65566882
_cell_length_c   23.50860703
_cell_angle_alpha   94.21491048
_cell_angle_beta   81.51868682
_cell_angle_gamma   119.88986866
_symmetry_Int_Tables_number   1
_chemical_formula_structural   Sr3V5S11
_chemical_formula_sum   'Sr12 V20 S44'
_cell_volume   1505.27238110
_cell_formula_units_Z   4
loop_
 _symmetry_equiv_pos_site_id
 _symmetry_equiv_pos_as_xyz
  1  'x, y, z'
loop_
 _atom_site_type_symbol
 _atom_site_label
 _atom_site_symmetry_multiplicity
 _atom_site_fract_x
 _atom_site_fract_y
 _atom_site_fract_z
 _atom_site_occupancy
  Sr  Sr0  1  0.14384900  0.95104700  0.82056600  1
  Sr  Sr1  1  0.80822800  0.95090400  0.67763000  1
  Sr  Sr2  1  0.85732400  0.04909600  0.17763000  1
  Sr  Sr3  1  0.19280200  0.04895300  0.32056600  1
  Sr  Sr4  1  0.74202500  0.35357900  0.82308300  1
  Sr  Sr5  1  0.61273100  0.35381700  0.67507400  1
  Sr  Sr6  1  0.25891500  0.64618300  0.17507400  1
  Sr  Sr7  1  0.38844600  0.64642100  0.32308300  1
  Sr  Sr8  1  0.54795300  0.75018300  0.82026700  1
  Sr  Sr9  1  0.20372300  0.75000600  0.67784800  1
  Sr  Sr10  1  0.45371700  0.24999400  0.17784800  1
  Sr  Sr11  1  0.79777000  0.24981700  0.32026700  1
  V  V0  1  0.12086700  0.35665400  0.87480200  1
  V  V1  1  0.23614300  0.35661900  0.62479100  1
  V  V2  1  0.87952400  0.64338100  0.12479100  1
  V  V3  1  0.76421400  0.64334600  0.37480200  1
  V  V4  1  0.17666400  0.35280700  0.74978300  1
  V  V5  1  0.82385600  0.64719300  0.24978300  1
  V  V6  1  0.24062100  0.08780100  0.00148900  1
  V  V7  1  0.84654600  0.08746400  0.49784000  1
  V  V8  1  0.75908300  0.91253600  0.99784000  1
  V  V9  1  0.15282000  0.91219900  0.50148900  1
  V  V10  1  0.49826600  0.49841400  0.99971000  1
  V  V11  1  0.99985200  0.50158600  0.49971000  1
  V  V12  1  0.62989800  0.17719100  0.99929200  1
  V  V13  1  0.54782400  0.17777400  0.50007200  1
  V  V14  1  0.37005000  0.82222600  0.00007200  1
  V  V15  1  0.45270700  0.82280900  0.49929200  1
  V  V16  1  0.06549600  0.32525800  0.00253600  1
  V  V17  1  0.26133400  0.32412400  0.49667700  1
  V  V18  1  0.93721000  0.67587600  0.99667700  1
  V  V19  1  0.74023800  0.67474200  0.50253600  1
  S  S0  1  0.79878100  0.15511100  0.06397300  1
  S  S1  1  0.35648600  0.15412800  0.43499700  1
  S  S2  1  0.20235800  0.84587200  0.93499700  1
  S  S3  1  0.64367000  0.84488900  0.56397300  1
  S  S4  1  0.05124500  0.10953800  0.93905300  1
  S  S5  1  0.05859200  0.10928800  0.56042100  1
  S  S6  1  0.94930500  0.89071200  0.06042100  1
  S  S7  1  0.94170700  0.89046200  0.43905300  1
  S  S8  1  0.36903800  0.35005700  0.81463800  1
  S  S9  1  0.98205400  0.35061500  0.68492200  1
  S  S10  1  0.63143900  0.64938500  0.18492200  1
  S  S11  1  0.01898100  0.64994300  0.31463800  1
  S  S12  1  0.92599400  0.13367500  0.81273200  1
  S  S13  1  0.20756700  0.13355800  0.68686600  1
  S  S14  1  0.07400900  0.86644200  0.18686600  1
  S  S15  1  0.79232000  0.86632500  0.31273200  1
  S  S16  1  0.48371500  0.26420500  0.93743700  1
  S  S17  1  0.78104900  0.26394600  0.56192300  1
  S  S18  1  0.51710300  0.73605400  0.06192300  1
  S  S19  1  0.21950900  0.73579500  0.43743700  1
  S  S20  1  0.90250900  0.40048400  0.94332800  1
  S  S21  1  0.49861900  0.40053200  0.55616300  1
  S  S22  1  0.09808700  0.59946800  0.05616300  1
  S  S23  1  0.50202500  0.59951600  0.44332800  1
  S  S24  1  0.24107400  0.31077500  0.06731700  1
  S  S25  1  0.06992800  0.31086800  0.43231600  1
  S  S26  1  0.75906000  0.68913200  0.93231600  1
  S  S27  1  0.93029900  0.68922500  0.56731700  1
  S  S28  1  0.84276600  0.68445900  0.74949700  1
  S  S29  1  0.15830700  0.31554100  0.24949700  1
  S  S30  1  0.62043400  0.97195300  0.93055200  1
  S  S31  1  0.35183800  0.97238800  0.56865000  1
  S  S32  1  0.37945000  0.02761200  0.06865000  1
  S  S33  1  0.64848100  0.02804700  0.43055200  1
  S  S34  1  0.67549000  0.45105100  0.05625900  1
  S  S35  1  0.77610300  0.45118700  0.44292900  1
  S  S36  1  0.32491600  0.54881300  0.94292900  1
  S  S37  1  0.22444000  0.54894900  0.55625900  1
  S  S38  1  0.15119000  0.57777800  0.81291400  1
  S  S39  1  0.42748700  0.57727600  0.68655000  1
  S  S40  1  0.85021000  0.42272400  0.18655000  1
  S  S41  1  0.57341200  0.42222200  0.31291400  1
  S  S42  1  0.51159000  0.02052200  0.74820100  1
  S  S43  1  0.49106800  0.97947800  0.24820100  1
loop_
_geom_bond_atom_site_label_1
_geom_bond_atom_site_label_2
_geom_bond_distance
_geom_bond_site_symmetry_2
S0 V12 2.333445 1_554
S0 V16 2.346102 1_655
S0 V8 2.429698 1_544
S0 Sr2 3.075160 1_555
S1 V13 2.338587 1_555
S1 V17 2.341055 1_555
S1 V9 2.433011 1_545
S1 Sr3 3.088482 1_555
S2 V14 2.338587 1_556
S2 V18 2.341056 1_455
S2 V6 2.433011 1_566
S2 Sr0 3.088482 1_555
S3 V15 2.333445 1_555
S3 V19 2.346102 1_555
S3 V7 2.429696 1_565
S3 Sr1 3.075160 1_555
S4 V16 2.268152 1_556
S4 V6 2.431686 1_556
S4 V0 2.478755 1_555
S4 V8 2.491108 1_445
S4 Sr0 3.186405 1_545
S5 V17 2.271023 1_555
S5 V7 2.440280 1_455
S5 V1 2.481624 1_555
S5 V9 2.488550 1_545
S5 Sr1 3.159967 1_445
S6 V18 2.271020 1_554
S6 V8 2.440280 1_554
S6 V2 2.481621 1_555
S6 V6 2.488545 1_665
S6 Sr2 3.159970 1_565
S7 V19 2.268152 1_555
S7 V9 2.431686 1_655
S7 V3 2.478753 1_555
S7 V7 2.491113 1_565
S7 Sr3 3.186405 1_665
S8 V0 2.409162 1_555
S8 V4 2.422891 1_555
S8 Sr0 3.004208 1_545
S8 Sr8 3.009943 1_555
S8 Sr4 3.237855 1_555
S9 V1 2.406037 1_655
S9 V4 2.421376 1_655
S9 Sr9 3.006207 1_655
S9 Sr1 3.010954 1_545
S9 Sr5 3.242232 1_555
S9 Sr4 3.590903 1_555
S10 V2 2.406037 1_555
S10 V5 2.421369 1_555
S10 Sr10 3.006207 1_555
S10 Sr2 3.010954 1_565
S10 Sr6 3.242223 1_555
S10 Sr7 3.590903 1_555
S11 V3 2.409155 1_455
S11 V5 2.422898 1_455
S11 Sr3 3.004208 1_565
S11 Sr11 3.009943 1_455
S11 Sr7 3.237855 1_555
S12 V0 2.399214 1_655
S12 V4 2.417546 1_655
S12 Sr4 3.004961 1_555
S12 Sr0 3.028329 1_645
S12 Sr8 3.288210 1_545
S12 Sr1 3.497653 1_545
S13 V1 2.398281 1_555
S13 V4 2.415688 1_555
S13 Sr5 3.013123 1_555
S13 Sr1 3.026002 1_445
S13 Sr9 3.294945 1_545
S13 Sr0 3.468665 1_545
S14 V2 2.398281 1_455
S14 V5 2.415692 1_455
S14 Sr6 3.013130 1_555
S14 Sr2 3.026001 1_465
S14 Sr10 3.294945 1_565
S14 Sr3 3.468665 1_565
S15 V3 2.399214 1_555
S15 V5 2.417539 1_555
S15 Sr7 3.004969 1_555
S15 Sr3 3.028321 1_665
S15 Sr11 3.288214 1_565
S15 Sr2 3.497654 1_565
S16 V6 2.282934 1_556
S16 V10 2.373378 1_555
S16 V12 2.433241 1_555
S16 Sr4 3.100270 1_555
S17 V7 2.278851 1_555
S17 V11 2.385614 1_555
S17 V13 2.434437 1_555
S17 Sr5 3.077592 1_555
S18 V8 2.278855 1_554
S18 V10 2.385614 1_554
S18 V14 2.434437 1_555
S18 Sr6 3.077588 1_555
S19 V9 2.282930 1_555
S19 V11 2.373376 1_455
S19 V15 2.433247 1_555
S19 Sr7 3.100274 1_555
S20 V12 2.434771 1_555
S20 V16 2.441589 1_656
S20 V0 2.452522 1_655
S20 V18 2.510908 1_555
S20 Sr4 3.240037 1_555
S21 V13 2.431766 1_555
S21 V17 2.437711 1_555
S21 V1 2.455473 1_555
S21 V19 2.510256 1_555
S21 Sr5 3.212732 1_555
S22 V14 2.431766 1_555
S22 V18 2.437711 1_454
S22 V2 2.455473 1_455
S22 V16 2.510256 1_555
S22 Sr6 3.212737 1_555
S23 V15 2.434771 1_555
S23 V19 2.441590 1_555
S23 V3 2.452528 1_555
S23 V17 2.510908 1_555
S23 Sr7 3.240037 1_555
S24 V16 2.350952 1_555
S24 V6 2.382213 1_555
S24 V10 2.415454 1_554
S24 Sr10 3.600367 1_555
S25 V17 2.356185 1_555
S25 V7 2.381990 1_455
S25 V11 2.434824 1_455
S25 Sr11 3.621239 1_455
S26 V18 2.356185 1_555
S26 V8 2.381987 1_555
S26 V10 2.434824 1_555
S26 Sr8 3.621239 1_555
S27 V19 2.350952 1_555
S27 V9 2.382213 1_655
S27 V11 2.415453 1_555
S27 Sr9 3.600368 1_655
S28 Sr0 3.098740 1_655
S28 Sr8 3.100761 1_555
S28 Sr1 3.109358 1_555
S28 Sr9 3.112556 1_655
S28 Sr4 3.123198 1_555
S28 Sr5 3.133276 1_555
S29 Sr3 3.098740 1_555
S29 Sr11 3.100761 1_455
S29 Sr2 3.109359 1_455
S29 Sr10 3.112556 1_555
S29 Sr7 3.123198 1_555
S29 Sr6 3.133273 1_555
S30 V12 2.290478 1_565
S30 V8 2.342689 1_555
S30 V14 2.344414 1_556
S30 Sr8 3.057432 1_555
S31 V13 2.289033 1_565
S31 V15 2.342239 1_555
S31 V9 2.345028 1_555
S31 Sr9 3.038950 1_555
S32 V14 2.289033 1_545
S32 V12 2.342239 1_554
S32 V6 2.345028 1_555
S32 Sr10 3.038950 1_555
S33 V15 2.290478 1_545
S33 V7 2.342683 1_555
S33 V13 2.344414 1_555
S33 Sr11 3.057432 1_555
S34 V10 2.361599 1_554
S34 V18 2.436256 1_554
S34 V2 2.446824 1_555
S34 V12 2.515292 1_554
S34 Sr10 3.264810 1_555
S35 V11 2.352263 1_555
S35 V19 2.423601 1_555
S35 V3 2.439682 1_555
S35 V13 2.515044 1_555
S35 Sr11 3.288630 1_555
S36 V10 2.352263 1_555
S36 V16 2.423601 1_556
S36 V0 2.439686 1_555
S36 V14 2.515044 1_556
S36 Sr8 3.288630 1_555
S37 V11 2.361606 1_455
S37 V17 2.436252 1_555
S37 V1 2.446820 1_555
S37 V15 2.515290 1_555
S37 Sr9 3.264812 1_555
S38 V0 2.376242 1_555
S38 V4 2.438909 1_555
S38 Sr8 3.003038 1_555
S38 Sr4 3.045445 1_455
S38 Sr0 3.254255 1_555
S38 Sr9 3.479609 1_555
S39 V1 2.374376 1_555
S39 V4 2.439758 1_555
S39 Sr9 3.006897 1_555
S39 Sr5 3.040474 1_555
S39 Sr1 3.255887 1_555
S39 Sr8 3.453028 1_555
S40 V2 2.374372 1_555
S40 V5 2.439758 1_555
S40 Sr10 3.006889 1_555
S40 Sr6 3.040489 1_655
S40 Sr2 3.255891 1_555
S40 Sr11 3.453030 1_555
S41 V3 2.376245 1_555
S41 V5 2.438905 1_555
S41 Sr11 3.003038 1_555
S41 Sr7 3.045445 1_555
S41 Sr3 3.254255 1_555
S41 Sr10 3.479610 1_555
S42 Sr9 3.130534 1_545
S42 Sr1 3.130792 1_545
S42 Sr5 3.133218 1_555
S42 Sr8 3.148834 1_545
S42 Sr4 3.152140 1_555
S42 Sr0 3.158657 1_545
S43 Sr10 3.130534 1_565
S43 Sr2 3.130792 1_565
S43 Sr6 3.133216 1_555
S43 Sr11 3.148834 1_565
S43 Sr7 3.152139 1_555
S43 Sr3 3.158657 1_565
