# generated using pymatgen
data_Ca3Bi3N5
_symmetry_space_group_name_H-M   'P 1'
_cell_length_a   6.54932520
_cell_length_b   7.22593646
_cell_length_c   9.35296885
_cell_angle_alpha   102.59758070
_cell_angle_beta   106.81293226
_cell_angle_gamma   99.85439257
_symmetry_Int_Tables_number   1
_chemical_formula_structural   Ca3Bi3N5
_chemical_formula_sum   'Ca6 Bi6 N10'
_cell_volume   400.30018224
_cell_formula_units_Z   2
loop_
 _symmetry_equiv_pos_site_id
 _symmetry_equiv_pos_as_xyz
  1  'x, y, z'
loop_
 _atom_site_type_symbol
 _atom_site_label
 _atom_site_symmetry_multiplicity
 _atom_site_fract_x
 _atom_site_fract_y
 _atom_site_fract_z
 _atom_site_occupancy
  Ca  Ca0  1  0.81916600  0.30155700  0.91077300  1
  Ca  Ca1  1  0.18083400  0.69844300  0.08922700  1
  Ca  Ca2  1  0.75550600  0.98218500  0.54470500  1
  Ca  Ca3  1  0.24449400  0.01781500  0.45529500  1
  Ca  Ca4  1  0.16696200  0.83927300  0.76146300  1
  Ca  Ca5  1  0.83303800  0.16072700  0.23853700  1
  Bi  Bi0  1  0.75814900  0.44581400  0.55709700  1
  Bi  Bi1  1  0.24185100  0.55418600  0.44290300  1
  Bi  Bi2  1  0.68194800  0.82438700  0.87234600  1
  Bi  Bi3  1  0.31805200  0.17561300  0.12765400  1
  Bi  Bi4  1  0.69126300  0.65416000  0.22151800  1
  Bi  Bi5  1  0.30873700  0.34584000  0.77848200  1
  N  N0  1  0.03677800  0.14013500  0.79094300  1
  N  N1  1  0.96322200  0.85986500  0.20905700  1
  N  N2  1  0.93865000  0.68754100  0.47896900  1
  N  N3  1  0.06135000  0.31245900  0.52103100  1
  N  N4  1  0.88179700  0.60941000  0.82310000  1
  N  N5  1  0.11820300  0.39059000  0.17690000  1
  N  N6  1  0.47738000  0.89931200  0.65673000  1
  N  N7  1  0.52262000  0.10068800  0.34327000  1
  N  N8  1  0.38940200  0.66703900  0.91510600  1
  N  N9  1  0.61059800  0.33296100  0.08489400  1
loop_
_geom_bond_atom_site_label_1
_geom_bond_atom_site_label_2
_geom_bond_distance
_geom_bond_site_symmetry_2
Ca0 N0 2.360237 1_655
Ca0 N9 2.408602 1_556
Ca0 N4 2.543052 1_555
Ca0 N5 2.548573 1_656
Ca1 N1 2.360237 1_455
Ca1 N8 2.408602 1_554
Ca1 N5 2.543052 1_555
Ca1 N4 2.548573 1_454
Ca2 N0 2.383201 1_665
Ca2 N6 2.403919 1_555
Ca2 N7 2.469320 1_565
Ca2 N2 2.660727 1_555
Ca2 N3 2.933886 1_665
Ca3 N1 2.383201 1_445
Ca3 N7 2.403919 1_555
Ca3 N6 2.469320 1_545
Ca3 N3 2.660727 1_555
Ca3 N2 2.933886 1_445
Ca4 N8 2.434327 1_555
Ca4 N0 2.457293 1_565
Ca4 N2 2.511709 1_455
Ca4 N6 2.513266 1_555
Ca4 N4 2.560852 1_455
Ca5 N9 2.434327 1_555
Ca5 N1 2.457293 1_545
Ca5 N3 2.511709 1_655
Ca5 N7 2.513266 1_555
Ca5 N5 2.560852 1_655
Bi0 N2 2.309142 1_555
Bi0 N4 2.338135 1_555
Bi0 N3 2.426166 1_655
Bi0 N7 2.705826 1_555
Bi1 N3 2.309142 1_555
Bi1 N5 2.338135 1_555
Bi1 N2 2.426166 1_455
Bi1 N6 2.705826 1_555
Bi2 N8 2.240453 1_555
Bi2 N4 2.251886 1_555
Bi2 N6 2.305760 1_555
Bi3 N9 2.240453 1_555
Bi3 N5 2.251886 1_555
Bi3 N7 2.305760 1_555
Bi4 N1 2.164469 1_555
Bi4 N9 2.279234 1_555
Bi4 N2 2.416065 1_555
Bi5 N0 2.164469 1_555
Bi5 N8 2.279234 1_555
Bi5 N3 2.416065 1_555
