# generated using pymatgen
data_Mg6ZrW
_symmetry_space_group_name_H-M   'P 1'
_cell_length_a   5.04484800
_cell_length_b   5.79384700
_cell_length_c   11.34281100
_cell_angle_alpha   90.00000000
_cell_angle_beta   90.00000000
_cell_angle_gamma   90.00000000
_symmetry_Int_Tables_number   1
_chemical_formula_structural   Mg6ZrW
_chemical_formula_sum   'Mg12 Zr2 W2'
_cell_volume   331.53990122
_cell_formula_units_Z   2
loop_
 _symmetry_equiv_pos_site_id
 _symmetry_equiv_pos_as_xyz
  1  'x, y, z'
loop_
 _atom_site_type_symbol
 _atom_site_label
 _atom_site_symmetry_multiplicity
 _atom_site_fract_x
 _atom_site_fract_y
 _atom_site_fract_z
 _atom_site_occupancy
  Mg  Mg0  1  0.50000000  0.24976600  0.42504400  1
  Mg  Mg1  1  0.50000000  0.75023400  0.42504400  1
  Mg  Mg2  1  0.00000000  0.74218900  0.08367900  1
  Mg  Mg3  1  0.00000000  0.25781100  0.08367900  1
  Mg  Mg4  1  0.00000000  0.00000000  0.32562700  1
  Mg  Mg5  1  0.00000000  0.50000000  0.31109400  1
  Mg  Mg6  1  0.50000000  0.74976600  0.92504400  1
  Mg  Mg7  1  0.50000000  0.25023400  0.92504400  1
  Mg  Mg8  1  0.00000000  0.24218900  0.58367900  1
  Mg  Mg9  1  0.00000000  0.75781100  0.58367900  1
  Mg  Mg10  1  0.00000000  0.50000000  0.82562700  1
  Mg  Mg11  1  0.00000000  0.00000000  0.81109400  1
  Zr  Zr0  1  0.50000000  0.00000000  0.17437600  1
  Zr  Zr1  1  0.50000000  0.50000000  0.67437600  1
  W  W0  1  0.50000000  0.50000000  0.17145300  1
  W  W1  1  0.50000000  0.00000000  0.67145300  1
loop_
_geom_bond_atom_site_label_1
_geom_bond_atom_site_label_2
_geom_bond_distance
_geom_bond_site_symmetry_2
Mg0 Mg1 2.894212 1_545
Mg0 Mg1 2.899635 1_555
Mg0 Mg8 3.098753 1_555
Mg0 Mg8 3.098753 1_655
Mg0 Mg4 3.119034 1_655
Mg0 Mg4 3.119034 1_555
Mg0 W1 3.147376 1_555
Mg0 Zr1 3.178092 1_555
Mg0 Mg5 3.183580 1_655
Mg0 Mg5 3.183580 1_555
Mg0 Zr0 3.190354 1_555
Mg0 W0 3.221156 1_555
Mg1 Mg9 3.098753 1_655
Mg1 Mg9 3.098753 1_555
Mg1 Mg4 3.119034 1_565
Mg1 Mg4 3.119034 1_665
Mg1 W1 3.147376 1_565
Mg1 Zr1 3.178092 1_555
Mg1 Mg5 3.183580 1_655
Mg1 Mg5 3.183580 1_555
Mg1 Zr0 3.190354 1_565
Mg1 W0 3.221156 1_555
Mg2 W0 3.053332 1_555
Mg2 W0 3.053332 1_455
Mg2 Mg6 3.098753 1_454
Mg2 Mg6 3.098753 1_554
Mg2 Mg4 3.124542 1_565
Mg3 W0 3.053332 1_555
Mg3 W0 3.053332 1_455
Mg3 Mg7 3.098753 1_554
Mg3 Mg7 3.098753 1_454
Mg3 Mg4 3.124542 1_555
Mg4 Mg5 2.901610 1_555
Mg4 Mg5 2.901610 1_545
Mg4 Zr0 3.050565 1_455
Mg4 Zr0 3.050565 1_555
Mg4 Mg8 3.246001 1_555
Mg4 Mg9 3.246001 1_545
Mg5 W0 2.978495 1_455
Mg5 W0 2.978495 1_555
Mg6 Mg7 2.894212 1_555
Mg6 Mg7 2.899635 1_565
Mg6 W0 3.147376 1_556
Mg6 Zr0 3.178092 1_566
Mg6 Zr1 3.190354 1_555
Mg6 W1 3.221156 1_565
Mg7 W0 3.147376 1_556
Mg7 Zr0 3.178092 1_556
Mg7 Zr1 3.190354 1_555
Mg7 W1 3.221156 1_555
Mg8 W1 3.053332 1_555
Mg8 W1 3.053332 1_455
Mg9 W1 3.053332 1_565
Mg9 W1 3.053332 1_465
Mg10 Mg11 2.901610 1_565
Mg10 Mg11 2.901610 1_555
Mg10 Zr1 3.050565 1_455
Mg10 Zr1 3.050565 1_555
Mg10 Mg7 3.119034 1_555
Mg10 Mg6 3.119034 1_455
Mg10 Mg6 3.119034 1_555
Mg10 Mg7 3.119034 1_455
Mg10 Mg9 3.124542 1_555
Mg10 Mg8 3.124542 1_555
Mg10 Mg2 3.246001 1_556
Mg10 Mg3 3.246001 1_556
Mg11 W1 2.978495 1_455
Mg11 W1 2.978495 1_555
Mg11 Mg6 3.183580 1_445
Mg11 Mg6 3.183580 1_545
Mg11 Mg7 3.183580 1_455
Mg11 Mg7 3.183580 1_555
W0 Zr0 2.897113 1_555
W0 Zr0 2.897113 1_565
W1 Zr1 2.897113 1_555
W1 Zr1 2.897113 1_545
