# generated using pymatgen
data_Tb3Co2Ge3
_symmetry_space_group_name_H-M   'P 1'
_cell_length_a   5.67587862
_cell_length_b   5.67587862
_cell_length_c   14.03248400
_cell_angle_alpha   90.00000000
_cell_angle_beta   90.00000000
_cell_angle_gamma   137.01470029
_symmetry_Int_Tables_number   1
_chemical_formula_structural   Tb3Co2Ge3
_chemical_formula_sum   'Tb6 Co4 Ge6'
_cell_volume   308.22266027
_cell_formula_units_Z   2
loop_
 _symmetry_equiv_pos_site_id
 _symmetry_equiv_pos_as_xyz
  1  'x, y, z'
loop_
 _atom_site_type_symbol
 _atom_site_label
 _atom_site_symmetry_multiplicity
 _atom_site_fract_x
 _atom_site_fract_y
 _atom_site_fract_z
 _atom_site_occupancy
  Tb  Tb0  1  0.58175900  0.41824100  0.39051700  1
  Tb  Tb1  1  0.41824100  0.58175900  0.60948300  1
  Tb  Tb2  1  0.58175900  0.41824100  0.10948300  1
  Tb  Tb3  1  0.41824100  0.58175900  0.89051700  1
  Tb  Tb4  1  0.85937900  0.14062100  0.25000000  1
  Tb  Tb5  1  0.14062100  0.85937900  0.75000000  1
  Co  Co0  1  0.28840300  0.71159700  0.40627700  1
  Co  Co1  1  0.71159700  0.28840300  0.59372300  1
  Co  Co2  1  0.28840300  0.71159700  0.09372300  1
  Co  Co3  1  0.71159700  0.28840300  0.90627700  1
  Ge  Ge0  1  0.16294600  0.83705400  0.25000000  1
  Ge  Ge1  1  0.83705400  0.16294600  0.75000000  1
  Ge  Ge2  1  0.87245900  0.12754100  0.45988800  1
  Ge  Ge3  1  0.12754100  0.87245900  0.54011200  1
  Ge  Ge4  1  0.87245900  0.12754100  0.04011200  1
  Ge  Ge5  1  0.12754100  0.87245900  0.95988800  1
loop_
_geom_bond_atom_site_label_1
_geom_bond_atom_site_label_2
_geom_bond_distance
_geom_bond_site_symmetry_2
Co0 Ge2 2.382998 1_455
Co0 Ge2 2.382998 1_565
Co0 Ge3 2.532574 1_555
Co0 Ge0 2.562228 1_555
Co0 Tb0 3.022811 1_455
Co0 Tb0 3.022811 1_565
Co0 Tb0 3.106428 1_555
Co0 Tb4 3.113768 1_455
Co0 Tb4 3.113768 1_565
Co0 Tb1 3.164129 1_555
Co1 Ge3 2.382998 1_545
Co1 Ge3 2.382998 1_655
Co1 Ge2 2.532574 1_555
Co1 Ge1 2.562228 1_555
Co1 Tb1 3.022811 1_545
Co1 Tb1 3.022811 1_655
Co1 Tb1 3.106428 1_555
Co1 Tb5 3.113768 1_545
Co1 Tb5 3.113768 1_655
Co1 Tb0 3.164129 1_555
Co2 Ge4 2.382998 1_455
Co2 Ge4 2.382998 1_565
Co2 Ge5 2.532574 1_554
Co2 Ge0 2.562228 1_555
Co2 Tb2 3.022811 1_455
Co2 Tb2 3.022811 1_565
Co2 Tb2 3.106428 1_555
Co2 Tb4 3.113768 1_455
Co2 Tb4 3.113768 1_565
Co2 Tb3 3.164129 1_554
Co3 Ge5 2.382998 1_545
Co3 Ge5 2.382998 1_655
Co3 Ge4 2.532574 1_556
Co3 Ge1 2.562228 1_555
Co3 Tb3 3.022811 1_545
Co3 Tb3 3.022811 1_655
Co3 Tb3 3.106428 1_555
Co3 Tb5 3.113768 1_545
Co3 Tb5 3.113768 1_655
Co3 Tb2 3.164129 1_556
Ge0 Tb4 2.937567 1_455
Ge0 Tb4 2.937567 1_565
Ge0 Tb2 2.991295 1_455
Ge0 Tb0 2.991295 1_455
Ge0 Tb0 2.991295 1_565
Ge0 Tb2 2.991295 1_565
Ge0 Tb4 3.206399 1_465
Ge1 Tb5 2.937567 1_545
Ge1 Tb5 2.937567 1_655
Ge1 Tb1 2.991295 1_545
Ge1 Tb3 2.991295 1_545
Ge1 Tb3 2.991295 1_655
Ge1 Tb1 2.991295 1_655
Ge1 Tb5 3.206399 1_645
Ge2 Ge3 2.920007 1_645
Ge2 Tb4 2.948489 1_555
Ge2 Tb1 2.994147 1_655
Ge2 Tb1 2.994147 1_545
Ge2 Tb0 3.187370 1_655
Ge2 Tb0 3.187370 1_545
Ge2 Tb0 3.221106 1_555
Ge3 Tb5 2.948489 1_555
Ge3 Tb0 2.994147 1_455
Ge3 Tb0 2.994147 1_565
Ge3 Tb1 3.187370 1_565
Ge3 Tb1 3.187370 1_455
Ge3 Tb1 3.221106 1_555
Ge4 Ge5 2.920007 1_644
Ge4 Tb4 2.948489 1_555
Ge4 Tb3 2.994147 1_654
Ge4 Tb3 2.994147 1_544
Ge4 Tb2 3.187370 1_655
Ge4 Tb2 3.187370 1_545
Ge4 Tb2 3.221106 1_555
Ge5 Tb5 2.948489 1_555
Ge5 Tb2 2.994147 1_456
Ge5 Tb2 2.994147 1_566
Ge5 Tb3 3.187370 1_455
Ge5 Tb3 3.187370 1_565
Ge5 Tb3 3.221106 1_555
