# generated using pymatgen
data_Gd3(GaNi3)2
_symmetry_space_group_name_H-M   'P 1'
_cell_length_a   7.73687004
_cell_length_b   7.73687004
_cell_length_c   7.73687004
_cell_angle_alpha   109.47122063
_cell_angle_beta   109.47122063
_cell_angle_gamma   109.47122063
_symmetry_Int_Tables_number   1
_chemical_formula_structural   Gd3(GaNi3)2
_chemical_formula_sum   'Gd6 Ga4 Ni12'
_cell_volume   356.51188688
_cell_formula_units_Z   2
loop_
 _symmetry_equiv_pos_site_id
 _symmetry_equiv_pos_as_xyz
  1  'x, y, z'
loop_
 _atom_site_type_symbol
 _atom_site_label
 _atom_site_symmetry_multiplicity
 _atom_site_fract_x
 _atom_site_fract_y
 _atom_site_fract_z
 _atom_site_occupancy
  Gd  Gd0  1  0.71035900  0.71035900  0.00000000  1
  Gd  Gd1  1  0.28964100  0.00000000  0.28964100  1
  Gd  Gd2  1  0.00000000  0.28964100  0.28964100  1
  Gd  Gd3  1  0.28964100  0.28964100  0.00000000  1
  Gd  Gd4  1  0.71035900  0.00000000  0.71035900  1
  Gd  Gd5  1  0.00000000  0.71035900  0.71035900  1
  Ga  Ga0  1  0.00000000  0.00000000  0.50000000  1
  Ga  Ga1  1  0.00000000  0.50000000  0.00000000  1
  Ga  Ga2  1  0.50000000  0.00000000  0.00000000  1
  Ga  Ga3  1  0.50000000  0.50000000  0.50000000  1
  Ni  Ni0  1  0.33860600  0.33860600  0.67721100  1
  Ni  Ni1  1  0.66139400  0.00000000  0.33860600  1
  Ni  Ni2  1  0.00000000  0.66139400  0.33860600  1
  Ni  Ni3  1  0.66139400  0.33860600  0.00000000  1
  Ni  Ni4  1  0.33860600  0.67721100  0.33860600  1
  Ni  Ni5  1  0.00000000  0.33860600  0.66139400  1
  Ni  Ni6  1  0.33860600  0.66139400  0.00000000  1
  Ni  Ni7  1  0.33860600  0.00000000  0.66139400  1
  Ni  Ni8  1  0.67721100  0.33860600  0.33860600  1
  Ni  Ni9  1  0.66139400  0.66139400  0.32278900  1
  Ni  Ni10  1  0.66139400  0.32278900  0.66139400  1
  Ni  Ni11  1  0.32278900  0.66139400  0.66139400  1
loop_
_geom_bond_atom_site_label_1
_geom_bond_atom_site_label_2
_geom_bond_distance
_geom_bond_site_symmetry_2
Gd0 Ni6 2.773024 1_555
Gd0 Ni3 2.773024 1_555
Gd0 Ni0 2.773026 1_554
Gd0 Ni9 2.773032 1_555
Gd0 Ni10 3.056487 1_554
Gd0 Ni11 3.056487 1_554
Gd0 Ni1 3.056493 1_565
Gd0 Ni2 3.056493 1_655
Gd0 Gd1 3.659399 1_665
Gd0 Gd2 3.659399 1_665
Gd0 Gd5 3.659399 1_654
Gd0 Gd4 3.659399 1_564
Gd1 Ni7 2.773024 1_555
Gd1 Ni1 2.773024 1_555
Gd1 Ni10 2.773026 1_555
Gd1 Ni4 2.773032 1_545
Gd1 Ni0 3.056487 1_555
Gd1 Ni8 3.056487 1_555
Gd1 Ni2 3.056493 1_545
Gd1 Ni6 3.056493 1_545
Gd1 Gd3 3.659399 1_555
Gd1 Gd2 3.659399 1_555
Gd1 Gd5 3.659399 1_544
Gd2 Ni5 2.773024 1_555
Gd2 Ni2 2.773024 1_555
Gd2 Ni11 2.773026 1_555
Gd2 Ni8 2.773032 1_455
Gd2 Ni0 3.056487 1_555
Gd2 Ni4 3.056487 1_555
Gd2 Ni1 3.056493 1_455
Gd2 Ni3 3.056493 1_455
Gd2 Gd3 3.659399 1_555
Gd2 Gd4 3.659399 1_454
Gd3 Ni3 2.773024 1_555
Gd3 Ni6 2.773024 1_555
Gd3 Ni9 2.773026 1_555
Gd3 Ni0 2.773032 1_554
Gd3 Ni4 3.056487 1_555
Gd3 Ni8 3.056487 1_555
Gd3 Ni7 3.056493 1_554
Gd3 Ni5 3.056493 1_554
Gd3 Gd5 3.659399 1_544
Gd3 Gd4 3.659399 1_454
Gd4 Ni1 2.773024 1_555
Gd4 Ni7 2.773024 1_555
Gd4 Ni4 2.773026 1_545
Gd4 Ni10 2.773032 1_555
Gd4 Ni11 3.056487 1_545
Gd4 Ni9 3.056487 1_545
Gd4 Ni3 3.056493 1_556
Gd4 Ni5 3.056493 1_655
Gd4 Gd5 3.659399 1_645
Gd5 Ni5 2.773024 1_555
Gd5 Ni2 2.773024 1_555
Gd5 Ni8 2.773026 1_455
Gd5 Ni11 2.773032 1_555
Gd5 Ni10 3.056487 1_455
Gd5 Ni9 3.056487 1_455
Gd5 Ni7 3.056493 1_565
Gd5 Ni6 3.056493 1_556
Ga0 Ni7 2.498295 1_555
Ga0 Ni5 2.498295 1_555
Ga0 Ni1 2.498295 1_455
Ga0 Ni2 2.498295 1_545
Ga0 Ni0 2.498296 1_555
Ga0 Ni9 2.498296 1_445
Ga0 Gd4 3.178356 1_455
Ga0 Gd5 3.178356 1_545
Ga0 Gd3 3.178356 1_556
Ga0 Gd0 3.178356 1_445
Ga0 Gd1 3.178356 1_555
Ga0 Gd2 3.178356 1_555
Ga1 Ni6 2.498295 1_555
Ga1 Ni2 2.498295 1_555
Ga1 Ni5 2.498295 1_554
Ga1 Ni3 2.498295 1_455
Ga1 Ni4 2.498296 1_555
Ga1 Ni10 2.498296 1_454
Ga1 Gd4 3.178356 1_454
Ga1 Gd0 3.178356 1_455
Ga1 Gd5 3.178356 1_554
Ga1 Gd3 3.178356 1_555
Ga1 Gd1 3.178356 1_565
Ga1 Gd2 3.178356 1_555
Ga2 Ni1 2.498295 1_555
Ga2 Ni3 2.498295 1_555
Ga2 Ni7 2.498295 1_554
Ga2 Ni6 2.498295 1_545
Ga2 Ni8 2.498296 1_555
Ga2 Ni11 2.498296 1_544
Ga2 Gd5 3.178356 1_544
Ga2 Gd2 3.178356 1_655
Ga2 Gd4 3.178356 1_554
Ga2 Gd3 3.178356 1_555
Ga2 Gd0 3.178356 1_545
Ga2 Gd1 3.178356 1_555
Ga3 Ni9 2.498288 1_555
Ga3 Ni10 2.498288 1_555
Ga3 Ni11 2.498288 1_555
Ga3 Ni4 2.498288 1_555
Ga3 Ni0 2.498288 1_555
Ga3 Ni8 2.498288 1_555
Ga3 Gd4 3.178356 1_565
Ga3 Gd5 3.178356 1_655
Ga3 Gd0 3.178356 1_556
Ga3 Gd3 3.178356 1_555
Ga3 Gd1 3.178356 1_555
Ga3 Gd2 3.178356 1_555
Ni0 Ni10 2.581531 1_555
Ni0 Ni11 2.581531 1_555
Ni0 Ni7 2.581539 1_555
Ni0 Ni5 2.581539 1_555
Ni0 Ni6 2.883718 1_556
Ni0 Ni3 2.883718 1_556
Ni1 Ni5 2.581537 1_655
Ni1 Ni6 2.581537 1_545
Ni1 Ni8 2.581539 1_555
Ni1 Ni9 2.581539 1_545
Ni1 Ni10 2.883718 1_555
Ni1 Ni4 2.883718 1_545
Ni2 Ni3 2.581537 1_455
Ni2 Ni7 2.581537 1_565
Ni2 Ni4 2.581539 1_555
Ni2 Ni9 2.581539 1_455
Ni2 Ni8 2.883718 1_455
Ni3 Ni7 2.581537 1_554
Ni3 Ni8 2.581539 1_555
Ni3 Ni9 2.883718 1_555
Ni4 Ni9 2.581531 1_555
Ni4 Ni6 2.581539 1_555
Ni4 Ni7 2.883718 1_565
Ni5 Ni6 2.581537 1_556
Ni5 Ni8 2.883718 1_455
Ni6 Ni9 2.883718 1_555
Ni8 Ni9 2.581531 1_555
Ni10 Ni8 2.581531 1_555
Ni10 Ni5 2.581539 1_655
Ni10 Ni3 2.581539 1_556
Ni10 Ni7 2.883718 1_555
Ni11 Ni4 2.581531 1_555
Ni11 Ni6 2.581539 1_556
Ni11 Ni7 2.581539 1_565
Ni11 Ni5 2.883718 1_555
Ni11 Ni2 2.883718 1_555
