# generated using pymatgen
data_CaVP2O7
_symmetry_space_group_name_H-M   'P 1'
_cell_length_a   6.66529514
_cell_length_b   9.18261255
_cell_length_c   9.52580242
_cell_angle_alpha   96.76006546
_cell_angle_beta   108.57401793
_cell_angle_gamma   77.96439788
_symmetry_Int_Tables_number   1
_chemical_formula_structural   CaVP2O7
_chemical_formula_sum   'Ca4 V4 P8 O28'
_cell_volume   539.68071119
_cell_formula_units_Z   4
loop_
 _symmetry_equiv_pos_site_id
 _symmetry_equiv_pos_as_xyz
  1  'x, y, z'
loop_
 _atom_site_type_symbol
 _atom_site_label
 _atom_site_symmetry_multiplicity
 _atom_site_fract_x
 _atom_site_fract_y
 _atom_site_fract_z
 _atom_site_occupancy
  Ca  Ca0  1  0.78841000  0.65643400  0.51533700  1
  Ca  Ca1  1  0.28842200  0.15644100  0.01531600  1
  Ca  Ca2  1  0.21159100  0.34356500  0.48466300  1
  Ca  Ca3  1  0.71158200  0.84355400  0.98468500  1
  V  V0  1  0.31438800  0.56194100  0.21314600  1
  V  V1  1  0.68561600  0.43806100  0.78685400  1
  V  V2  1  0.81459800  0.06220500  0.71325700  1
  V  V3  1  0.18536800  0.93781700  0.28674100  1
  P  P0  1  0.67705300  0.30081800  0.44694200  1
  P  P1  1  0.17702200  0.80084000  0.94693100  1
  P  P2  1  0.32294800  0.69918100  0.55305500  1
  P  P3  1  0.82297700  0.19916000  0.05306900  1
  P  P4  1  0.29217900  0.02176400  0.65115400  1
  P  P5  1  0.79216800  0.52176200  0.15114600  1
  P  P6  1  0.70781900  0.97823400  0.34884900  1
  P  P7  1  0.20783700  0.47823600  0.84885400  1
  O  O0  1  0.23304700  0.85483100  0.62501200  1
  O  O1  1  0.73309900  0.35483600  0.12500800  1
  O  O2  1  0.76695600  0.14516600  0.37498800  1
  O  O3  1  0.26690100  0.64516300  0.87499400  1
  O  O4  1  0.95162600  0.86647200  0.84751400  1
  O  O5  1  0.45167300  0.36653100  0.34754600  1
  O  O6  1  0.04837300  0.13353100  0.15248500  1
  O  O7  1  0.54832800  0.63346700  0.65245200  1
  O  O8  1  0.76144300  0.91894600  0.50399400  1
  O  O9  1  0.26143700  0.41897800  0.00401000  1
  O  O10  1  0.23855900  0.08105600  0.49601100  1
  O  O11  1  0.73856600  0.58101900  0.99599000  1
  O  O12  1  0.85958000  0.89341200  0.26236200  1
  O  O13  1  0.35952800  0.39336400  0.76235500  1
  O  O14  1  0.14042000  0.10658600  0.73764100  1
  O  O15  1  0.64047600  0.60663300  0.23764500  1
  O  O16  1  0.15358900  0.60523900  0.53539000  1
  O  O17  1  0.65361400  0.10523800  0.03544700  1
  O  O18  1  0.84641400  0.39475800  0.46460800  1
  O  O19  1  0.34639000  0.89475900  0.96455300  1
  O  O20  1  0.35118300  0.73124400  0.40425500  1
  O  O21  1  0.85114200  0.23119900  0.90424500  1
  O  O22  1  0.64881500  0.26876000  0.59574300  1
  O  O23  1  0.14886000  0.76880500  0.09575800  1
  O  O24  1  0.46995900  0.99654200  0.26150800  1
  O  O25  1  0.96996600  0.49651400  0.76155900  1
  O  O26  1  0.53003900  0.00345600  0.73849300  1
  O  O27  1  0.03003900  0.50348200  0.23844000  1
loop_
_geom_bond_atom_site_label_1
_geom_bond_atom_site_label_2
_geom_bond_distance
_geom_bond_site_symmetry_2
Ca0 O16 2.330175 1_655
Ca0 O18 2.369599 1_555
Ca0 O8 2.392272 1_555
Ca0 O7 2.418316 1_555
Ca0 O15 2.533831 1_555
Ca0 O25 2.717285 1_555
Ca0 O20 2.730595 1_555
Ca1 O17 2.330090 1_555
Ca1 O19 2.369692 1_544
Ca1 O9 2.392434 1_555
Ca1 O6 2.418370 1_555
Ca1 O14 2.533797 1_554
Ca1 O24 2.716947 1_545
Ca1 O21 2.730867 1_454
Ca2 O18 2.330157 1_455
Ca2 O16 2.369579 1_555
Ca2 O10 2.392251 1_555
Ca2 O5 2.418328 1_555
Ca2 O13 2.533830 1_555
Ca2 O27 2.717276 1_555
Ca2 O22 2.730573 1_555
Ca3 O19 2.330088 1_555
Ca3 O17 2.369709 1_566
Ca3 O11 2.392415 1_555
Ca3 O4 2.418377 1_555
Ca3 O12 2.533816 1_556
Ca3 O26 2.716965 1_565
Ca3 O23 2.730850 1_656
O0 P2 1.595484 1_555
O0 P4 1.632986 1_565
O1 P3 1.595541 1_555
O1 P5 1.632761 1_555
O2 P0 1.595490 1_555
O2 P6 1.632991 1_545
O3 P1 1.595542 1_555
O3 P7 1.632757 1_555
O4 P1 1.538659 1_655
O4 V2 2.193772 1_565
O5 P0 1.538709 1_555
O5 V0 2.192245 1_555
O6 P3 1.538649 1_455
O6 V3 2.193614 1_545
O7 P2 1.538715 1_555
O7 V1 2.192228 1_555
O8 P6 1.542735 1_555
O8 V2 2.226382 1_565
O9 P7 1.542740 1_554
O9 V0 2.224039 1_555
O10 P4 1.542736 1_555
O10 V3 2.226337 1_545
O11 P5 1.542735 1_556
O11 V1 2.224015 1_555
O12 P6 1.536184 1_555
O12 V3 2.227375 1_655
O13 P7 1.536066 1_555
O13 V1 2.230078 1_555
O14 P4 1.536174 1_555
O14 V2 2.227503 1_455
O15 P5 1.536068 1_555
O15 V0 2.230061 1_555
O16 P2 1.515789 1_555
O17 P3 1.515760 1_555
O18 P0 1.515785 1_555
O19 P1 1.515768 1_555
O20 P2 1.556448 1_555
O20 V3 2.215889 1_555
O20 V0 2.235946 1_555
O21 P3 1.556389 1_556
O21 V1 2.217214 1_555
O21 V2 2.233385 1_555
O22 P0 1.556451 1_555
O22 V2 2.215721 1_555
O22 V1 2.235947 1_555
O23 P1 1.556396 1_554
O23 V0 2.217218 1_555
O23 V3 2.233456 1_555
O24 P6 1.521662 1_555
O24 V3 2.166632 1_555
O25 P7 1.521636 1_655
O25 V1 2.164224 1_555
O26 P4 1.521657 1_555
O26 V2 2.166536 1_555
O27 P5 1.521633 1_455
O27 V0 2.164238 1_555
