# generated using pymatgen
data_KSbC6Br5
_symmetry_space_group_name_H-M   'P 1'
_cell_length_a   7.36983000
_cell_length_b   7.49319500
_cell_length_c   13.54295600
_cell_angle_alpha   90.00000000
_cell_angle_beta   90.00000000
_cell_angle_gamma   90.00000000
_symmetry_Int_Tables_number   1
_chemical_formula_structural   KSbC6Br5
_chemical_formula_sum   'K2 Sb2 C12 Br10'
_cell_volume   747.89042346
_cell_formula_units_Z   2
loop_
 _symmetry_equiv_pos_site_id
 _symmetry_equiv_pos_as_xyz
  1  'x, y, z'
loop_
 _atom_site_type_symbol
 _atom_site_label
 _atom_site_symmetry_multiplicity
 _atom_site_fract_x
 _atom_site_fract_y
 _atom_site_fract_z
 _atom_site_occupancy
  K  K0  1  0.50000000  0.00000000  0.99923900  1
  K  K1  1  0.00000000  0.50000000  0.00076100  1
  Sb  Sb0  1  0.50000000  0.50000000  0.20755400  1
  Sb  Sb1  1  0.00000000  0.00000000  0.79244600  1
  C  C0  1  0.50000000  0.50000000  0.36901600  1
  C  C1  1  0.00000000  0.00000000  0.63098400  1
  C  C2  1  0.63554700  0.53678700  0.43577300  1
  C  C3  1  0.36445300  0.46321300  0.43577300  1
  C  C4  1  0.13554700  0.96321300  0.56422700  1
  C  C5  1  0.86445300  0.03678700  0.56422700  1
  C  C6  1  0.67148600  0.54642800  0.53192900  1
  C  C7  1  0.32851400  0.45357200  0.53192900  1
  C  C8  1  0.17148600  0.95357200  0.46807100  1
  C  C9  1  0.82851400  0.04642800  0.46807100  1
  C  C10  1  0.50000000  0.50000000  0.55295200  1
  C  C11  1  0.00000000  0.00000000  0.44704800  1
  Br  Br0  1  0.50000000  0.50000000  0.00859000  1
  Br  Br1  1  0.00000000  0.00000000  0.99141000  1
  Br  Br2  1  0.20889900  0.69990500  0.20126600  1
  Br  Br3  1  0.79110100  0.30009500  0.20126600  1
  Br  Br4  1  0.70889900  0.80009500  0.79873400  1
  Br  Br5  1  0.29110100  0.19990500  0.79873400  1
  Br  Br6  1  0.29579900  0.21495400  0.20068600  1
  Br  Br7  1  0.70420100  0.78504600  0.20068600  1
  Br  Br8  1  0.79579900  0.28504600  0.79931400  1
  Br  Br9  1  0.20420100  0.71495400  0.79931400  1
loop_
_geom_bond_atom_site_label_1
_geom_bond_atom_site_label_2
_geom_bond_distance
_geom_bond_site_symmetry_2
C0 C2 1.375236 1_555
C0 C3 1.375236 1_555
C0 Sb0 2.186673 1_555
C1 C4 1.375236 1_545
C1 C5 1.375236 1_455
C1 Sb1 2.186673 1_555
C2 C6 1.330861 1_555
C3 C7 1.330861 1_555
C4 C8 1.330861 1_555
C5 C9 1.330861 1_555
C10 C6 1.341395 1_555
C10 C7 1.341395 1_555
C11 C9 1.341395 1_455
C11 C8 1.341395 1_545
Br0 Sb0 2.694561 1_555
Br0 K1 3.686440 1_555
Br0 K1 3.686440 1_655
Br0 K0 3.748737 1_564
Br0 K0 3.748737 1_554
Br1 Sb1 2.694561 1_555
Br1 K0 3.686440 1_455
Br1 K0 3.686440 1_555
Br1 K1 3.748737 1_546
Br1 K1 3.748737 1_556
Br2 Sb0 2.617943 1_555
Br2 K1 3.462306 1_555
Br3 Sb0 2.617943 1_555
Br3 K1 3.462306 1_655
Br4 Sb1 2.617943 1_665
Br4 K0 3.462306 1_565
Br5 Sb1 2.617943 1_555
Br5 K0 3.462306 1_555
Br6 Sb0 2.614488 1_555
Br6 K0 3.507441 1_554
Br7 Sb0 2.614488 1_555
Br7 K0 3.507441 1_564
Br8 Sb1 2.614488 1_655
Br8 K1 3.507441 1_656
Br9 Sb1 2.614488 1_565
Br9 K1 3.507441 1_556
