# generated using pymatgen
data_K4MoWO8
_symmetry_space_group_name_H-M   'P 1'
_cell_length_a   7.01721861
_cell_length_b   7.01721861
_cell_length_c   7.70152193
_cell_angle_alpha   67.13649009
_cell_angle_beta   67.13649009
_cell_angle_gamma   52.76459278
_symmetry_Int_Tables_number   1
_chemical_formula_structural   K4MoWO8
_chemical_formula_sum   'K4 Mo1 W1 O8'
_cell_volume   272.05412496
_cell_formula_units_Z   1
loop_
 _symmetry_equiv_pos_site_id
 _symmetry_equiv_pos_as_xyz
  1  'x, y, z'
loop_
 _atom_site_type_symbol
 _atom_site_label
 _atom_site_symmetry_multiplicity
 _atom_site_fract_x
 _atom_site_fract_y
 _atom_site_fract_z
 _atom_site_occupancy
  K  K0  1  0.84474200  0.84474200  0.74700000  1
  K  K1  1  0.15541400  0.15541400  0.25382400  1
  K  K2  1  0.50868500  0.50868500  0.76705800  1
  K  K3  1  0.49120700  0.49120700  0.23252600  1
  Mo  Mo0  1  0.82394300  0.82394300  0.23060700  1
  W  W0  1  0.17599700  0.17599700  0.76906200  1
  O  O0  1  0.90444900  0.38406200  0.91752900  1
  O  O1  1  0.38406200  0.90444900  0.91752900  1
  O  O2  1  0.09298500  0.61785200  0.08375400  1
  O  O3  1  0.61785200  0.09298500  0.08375400  1
  O  O4  1  0.33372600  0.33372600  0.61026400  1
  O  O5  1  0.66807400  0.66807400  0.38877100  1
  O  O6  1  0.08592800  0.08592800  0.63669700  1
  O  O7  1  0.91293500  0.91293500  0.36162600  1
loop_
_geom_bond_atom_site_label_1
_geom_bond_atom_site_label_2
_geom_bond_distance
_geom_bond_site_symmetry_2
K0 O7 2.708623 1_555
K0 O6 2.771722 1_665
K0 O0 2.800005 1_555
K0 O1 2.800005 1_555
K0 O2 3.039950 1_656
K0 O3 3.039950 1_566
K0 O4 3.313244 1_565
K0 O4 3.313244 1_655
K1 O6 2.687668 1_555
K1 O7 2.790681 1_445
K1 O2 2.803638 1_555
K1 O3 2.803638 1_555
K1 O1 3.046215 1_544
K1 O0 3.046215 1_454
K1 O5 3.312384 1_545
K1 O5 3.312384 1_455
K2 O5 2.727530 1_555
K2 O2 2.874692 1_556
K2 O3 2.874692 1_556
K2 O1 2.931656 1_555
K2 O0 2.931656 1_555
K2 O4 2.932749 1_555
K2 O6 3.290637 1_655
K2 O6 3.290637 1_565
K3 O4 2.717925 1_555
K3 O0 2.858627 1_554
K3 O1 2.858627 1_554
K3 O2 2.933038 1_555
K3 O3 2.933038 1_555
K3 O5 2.951933 1_555
K3 O7 3.291079 1_455
K3 O7 3.291079 1_545
Mo0 O2 1.800689 1_655
Mo0 O3 1.800689 1_565
Mo0 O7 1.802598 1_555
Mo0 O5 1.803767 1_555
O0 W0 1.818629 1_655
O1 W0 1.818629 1_565
O4 W0 1.823346 1_555
O6 W0 1.822884 1_555
