# generated using pymatgen
data_Ho2Cu(SiO3)4
_symmetry_space_group_name_H-M   'P 1'
_cell_length_a   4.81478200
_cell_length_b   7.08552335
_cell_length_c   7.82228307
_cell_angle_alpha   114.55231343
_cell_angle_beta   86.43500877
_cell_angle_gamma   102.94657709
_symmetry_Int_Tables_number   1
_chemical_formula_structural   Ho2Cu(SiO3)4
_chemical_formula_sum   'Ho2 Cu1 Si4 O12'
_cell_volume   236.41609519
_cell_formula_units_Z   1
loop_
 _symmetry_equiv_pos_site_id
 _symmetry_equiv_pos_as_xyz
  1  'x, y, z'
loop_
 _atom_site_type_symbol
 _atom_site_label
 _atom_site_symmetry_multiplicity
 _atom_site_fract_x
 _atom_site_fract_y
 _atom_site_fract_z
 _atom_site_occupancy
  Ho  Ho0  1  0.96332400  0.77231700  0.55063300  1
  Ho  Ho1  1  0.03667600  0.22768300  0.44936700  1
  Cu  Cu0  1  0.00000000  0.00000000  0.00000000  1
  Si  Si0  1  0.42494100  0.61126500  0.79612800  1
  Si  Si1  1  0.57505900  0.38873500  0.20387200  1
  Si  Si2  1  0.54518900  0.17751400  0.78566500  1
  Si  Si3  1  0.45481100  0.82248600  0.21433500  1
  O  O0  1  0.73449000  0.76488800  0.80378600  1
  O  O1  1  0.26551000  0.23511200  0.19621400  1
  O  O2  1  0.71190300  0.29826600  0.99420600  1
  O  O3  1  0.28809700  0.70173400  0.00579400  1
  O  O4  1  0.78037500  0.42363700  0.37641000  1
  O  O5  1  0.21962500  0.57636300  0.62359000  1
  O  O6  1  0.74196200  0.99047800  0.20585400  1
  O  O7  1  0.25803800  0.00952200  0.79414600  1
  O  O8  1  0.44216000  0.35835700  0.73496500  1
  O  O9  1  0.55784000  0.64164300  0.26503500  1
  O  O10  1  0.76606800  0.07320500  0.62536000  1
  O  O11  1  0.23393200  0.92679500  0.37464000  1
loop_
_geom_bond_atom_site_label_1
_geom_bond_atom_site_label_2
_geom_bond_distance
_geom_bond_site_symmetry_2
Ho0 O0 2.219761 1_555
Ho0 O7 2.252469 1_665
Ho0 O4 2.261197 1_555
Ho0 O11 2.276189 1_655
Ho0 O5 2.300021 1_655
Ho0 O10 2.364634 1_565
Ho0 O9 2.770042 1_555
Ho1 O1 2.219761 1_555
Ho1 O6 2.252469 1_445
Ho1 O5 2.261197 1_555
Ho1 O10 2.276189 1_455
Ho1 O4 2.300021 1_455
Ho1 O11 2.364634 1_545
Ho1 O8 2.770042 1_555
Cu0 O0 1.982432 1_444
Cu0 O1 1.982432 1_555
Cu0 O6 1.986186 1_445
Cu0 O7 1.986186 1_554
O0 Si0 1.624723 1_555
O1 Si1 1.624723 1_555
O2 Si1 1.648033 1_556
O2 Si2 1.653056 1_555
O3 Si0 1.648033 1_554
O3 Si3 1.653056 1_555
O4 Si1 1.624478 1_555
O5 Si0 1.624478 1_555
O6 Si3 1.627744 1_555
O7 Si2 1.627744 1_555
O8 Si2 1.666394 1_555
O8 Si0 1.672162 1_555
O9 Si3 1.666394 1_555
O9 Si1 1.672162 1_555
O10 Si2 1.632727 1_555
O11 Si3 1.632727 1_555
