# generated using pymatgen
data_Li3Fe5(PO4)6
_symmetry_space_group_name_H-M   'P 1'
_cell_length_a   6.37265810
_cell_length_b   15.86144459
_cell_length_c   10.92357249
_cell_angle_alpha   89.76097742
_cell_angle_beta   91.18992910
_cell_angle_gamma   101.58872264
_symmetry_Int_Tables_number   1
_chemical_formula_structural   Li3Fe5(PO4)6
_chemical_formula_sum   'Li6 Fe10 P12 O48'
_cell_volume   1081.40837157
_cell_formula_units_Z   2
loop_
 _symmetry_equiv_pos_site_id
 _symmetry_equiv_pos_as_xyz
  1  'x, y, z'
loop_
 _atom_site_type_symbol
 _atom_site_label
 _atom_site_symmetry_multiplicity
 _atom_site_fract_x
 _atom_site_fract_y
 _atom_site_fract_z
 _atom_site_occupancy
  Li  Li0  1  0.20790900  0.72769300  0.43427500  1
  Li  Li1  1  0.03003100  0.06006200  0.25000000  1
  Li  Li2  1  0.51978300  0.72769300  0.06572500  1
  Li  Li3  1  0.48021700  0.27230700  0.93427500  1
  Li  Li4  1  0.96996900  0.93993800  0.75000000  1
  Li  Li5  1  0.79209100  0.27230700  0.56572500  1
  Fe  Fe0  1  0.19642800  0.89908000  0.07691600  1
  Fe  Fe1  1  0.00000000  0.50000000  0.00000000  1
  Fe  Fe2  1  0.19172100  0.38344300  0.75000000  1
  Fe  Fe3  1  0.18630500  0.37261000  0.25000000  1
  Fe  Fe4  1  0.29734800  0.10092000  0.57691600  1
  Fe  Fe5  1  0.50000000  0.50000000  0.50000000  1
  Fe  Fe6  1  0.70265200  0.89908000  0.42308400  1
  Fe  Fe7  1  0.81369500  0.62739000  0.75000000  1
  Fe  Fe8  1  0.80827900  0.61655700  0.25000000  1
  Fe  Fe9  1  0.80357200  0.10092000  0.92308400  1
  P  P0  1  0.21359200  0.94406200  0.37059700  1
  P  P1  1  0.00493400  0.29660100  0.99614300  1
  P  P2  1  0.28147000  0.56294000  0.75000000  1
  P  P3  1  0.27941900  0.55883700  0.25000000  1
  P  P4  1  0.29166700  0.29660100  0.50385700  1
  P  P5  1  0.26952900  0.05593800  0.87059700  1
  P  P6  1  0.73047100  0.94406200  0.12940300  1
  P  P7  1  0.70833300  0.70339900  0.49614300  1
  P  P8  1  0.72058100  0.44116300  0.75000000  1
  P  P9  1  0.71853000  0.43706000  0.25000000  1
  P  P10  1  0.99506600  0.70339900  0.00385700  1
  P  P11  1  0.78640800  0.05593800  0.62940300  1
  O  O0  1  0.00536600  0.88681400  0.41677600  1
  O  O1  1  0.20419700  0.96539100  0.23048200  1
  O  O2  1  0.21107400  0.96390200  0.92665000  1
  O  O3  1  0.18520200  0.77980100  0.03144200  1
  O  O4  1  0.10079700  0.62396400  0.00318800  1
  O  O5  1  0.11674900  0.61878200  0.72342500  1
  O  O6  1  0.12320100  0.61893600  0.27578500  1
  O  O7  1  0.39174400  0.89482500  0.40134900  1
  O  O8  1  0.21381000  0.49544200  0.85791800  1
  O  O9  1  0.21064600  0.49261800  0.14184100  1
  O  O10  1  0.11850300  0.28528500  0.11942700  1
  O  O11  1  0.17532400  0.30400900  0.89406700  1
  O  O12  1  0.12868500  0.30400900  0.60593300  1
  O  O13  1  0.16678200  0.28528500  0.38057300  1
  O  O14  1  0.28163200  0.49544200  0.64208200  1
  O  O15  1  0.28197100  0.49261800  0.35815900  1
  O  O16  1  0.50308100  0.89482500  0.09865100  1
  O  O17  1  0.11855300  0.11318600  0.91677600  1
  O  O18  1  0.50203300  0.61878200  0.77657500  1
  O  O19  1  0.49573500  0.61893600  0.22421500  1
  O  O20  1  0.52316700  0.62396400  0.49681200  1
  O  O21  1  0.23880700  0.03460900  0.73048200  1
  O  O22  1  0.59459900  0.77980100  0.46855800  1
  O  O23  1  0.24717200  0.03609900  0.42665000  1
  O  O24  1  0.75282800  0.96390200  0.57335000  1
  O  O25  1  0.40540100  0.22019900  0.53144200  1
  O  O26  1  0.76119300  0.96539100  0.26951800  1
  O  O27  1  0.47683300  0.37603600  0.50318800  1
  O  O28  1  0.50426600  0.38106400  0.77578500  1
  O  O29  1  0.49796700  0.38121800  0.22342500  1
  O  O30  1  0.88144700  0.88681400  0.08322400  1
  O  O31  1  0.49691900  0.10517500  0.90134900  1
  O  O32  1  0.71802900  0.50738200  0.64184100  1
  O  O33  1  0.71836800  0.50455800  0.35791800  1
  O  O34  1  0.83321800  0.71471500  0.61942700  1
  O  O35  1  0.87131500  0.69599100  0.39406700  1
  O  O36  1  0.82467600  0.69599100  0.10593300  1
  O  O37  1  0.88149700  0.71471500  0.88057300  1
  O  O38  1  0.78935400  0.50738200  0.85815900  1
  O  O39  1  0.78619000  0.50455800  0.14208200  1
  O  O40  1  0.60825600  0.10517500  0.59865100  1
  O  O41  1  0.87679900  0.38106400  0.72421500  1
  O  O42  1  0.88325100  0.38121800  0.27657500  1
  O  O43  1  0.89920300  0.37603600  0.99681200  1
  O  O44  1  0.81479800  0.22019900  0.96855800  1
  O  O45  1  0.78892600  0.03609900  0.07335000  1
  O  O46  1  0.79580300  0.03460900  0.76951800  1
  O  O47  1  0.99463400  0.11318600  0.58322400  1
loop_
_geom_bond_atom_site_label_1
_geom_bond_atom_site_label_2
_geom_bond_distance
_geom_bond_site_symmetry_2
Li0 O35 2.139192 1_455
Li0 O6 2.424142 1_555
Li0 O22 2.458011 1_555
Li1 O1 2.052877 1_545
Li1 O26 2.052881 1_445
Li1 O23 2.424275 1_555
Li1 O45 2.424279 1_455
Li2 O36 2.139198 1_555
Li2 O19 2.424143 1_555
Li2 O3 2.458005 1_555
Li3 O11 2.139198 1_555
Li3 O28 2.424142 1_555
Li3 O44 2.458005 1_555
Li4 O46 2.052877 1_565
Li4 O21 2.052881 1_665
Li4 O24 2.424279 1_555
Li4 O2 2.424279 1_655
Li5 O12 2.139192 1_655
Li5 O41 2.424142 1_555
Li5 O25 2.458011 1_555
Fe0 O2 1.927149 1_554
Fe0 O3 1.945066 1_555
Fe0 O1 1.978138 1_555
Fe0 O16 1.978228 1_555
Fe0 O30 1.980012 1_455
Fe1 O4 1.942203 1_555
Fe1 O43 1.942203 1_454
Fe1 O9 2.047341 1_555
Fe1 O38 2.047341 1_454
Fe1 O39 2.097360 1_455
Fe1 O8 2.097360 1_554
Fe2 O12 2.003089 1_555
Fe2 O11 2.003090 1_555
Fe2 O41 2.013592 1_455
Fe2 O28 2.013605 1_555
Fe2 O8 2.115525 1_555
Fe2 O14 2.115526 1_555
Fe3 O13 1.972317 1_555
Fe3 O10 1.972317 1_555
Fe3 O42 1.990536 1_455
Fe3 O29 1.990536 1_555
Fe3 O15 2.216640 1_555
Fe3 O9 2.216640 1_555
Fe4 O23 1.927141 1_555
Fe4 O25 1.945066 1_555
Fe4 O21 1.978137 1_555
Fe4 O40 1.978228 1_555
Fe4 O47 1.980006 1_455
Fe5 O20 1.942203 1_555
Fe5 O27 1.942203 1_555
Fe5 O15 2.047345 1_555
Fe5 O32 2.047345 1_555
Fe5 O33 2.097360 1_555
Fe5 O14 2.097360 1_555
Fe6 O24 1.927149 1_555
Fe6 O22 1.945066 1_555
Fe6 O26 1.978137 1_555
Fe6 O7 1.978228 1_555
Fe6 O0 1.980006 1_655
Fe7 O34 1.972317 1_555
Fe7 O37 1.972317 1_555
Fe7 O5 1.990536 1_655
Fe7 O18 1.990536 1_555
Fe7 O32 2.216640 1_555
Fe7 O38 2.216640 1_555
Fe8 O35 2.003089 1_555
Fe8 O36 2.003090 1_555
Fe8 O6 2.013592 1_655
Fe8 O19 2.013598 1_555
Fe8 O39 2.115525 1_555
Fe8 O33 2.115526 1_555
Fe9 O45 1.927141 1_556
Fe9 O44 1.945066 1_555
Fe9 O46 1.978138 1_555
Fe9 O31 1.978228 1_555
Fe9 O17 1.980012 1_655
O0 P0 1.542618 1_555
O1 P0 1.568646 1_555
O2 P5 1.558298 1_565
O3 P10 1.557388 1_455
O4 P10 1.543660 1_455
O5 P2 1.526250 1_555
O6 P3 1.540865 1_555
O7 P0 1.532926 1_555
O8 P2 1.595911 1_555
O9 P3 1.579580 1_555
O10 P1 1.542501 1_554
O11 P1 1.560155 1_555
O12 P4 1.560155 1_555
O13 P4 1.542501 1_555
O14 P2 1.595911 1_555
O15 P3 1.579578 1_555
O16 P6 1.532932 1_555
O17 P5 1.542609 1_555
O18 P2 1.526250 1_555
O19 P3 1.540860 1_555
O20 P7 1.543660 1_555
O21 P5 1.568646 1_555
O22 P7 1.557388 1_555
O23 P0 1.558313 1_545
O24 P11 1.558299 1_565
O25 P4 1.557388 1_555
O26 P6 1.568646 1_555
O27 P4 1.543660 1_555
O28 P8 1.540855 1_555
O29 P9 1.526250 1_555
O30 P6 1.542609 1_555
O31 P5 1.532932 1_555
O32 P8 1.579578 1_555
O33 P9 1.595911 1_555
O34 P7 1.542501 1_555
O35 P7 1.560155 1_555
O36 P10 1.560155 1_555
O37 P10 1.542501 1_556
O38 P8 1.579580 1_555
O39 P9 1.595911 1_555
O40 P11 1.532926 1_555
O41 P8 1.540865 1_555
O42 P9 1.526250 1_555
O43 P1 1.543660 1_655
O44 P1 1.557388 1_655
O45 P6 1.558312 1_545
O46 P11 1.568646 1_555
O47 P11 1.542618 1_555
