# generated using pymatgen
data_K4Re2H3(C4O9)2
_symmetry_space_group_name_H-M   'P 1'
_cell_length_a   9.00661300
_cell_length_b   10.09664662
_cell_length_c   13.07651240
_cell_angle_alpha   86.83648138
_cell_angle_beta   88.34428613
_cell_angle_gamma   69.77195855
_symmetry_Int_Tables_number   1
_chemical_formula_structural   K4Re2H3(C4O9)2
_chemical_formula_sum   'K8 Re4 H6 C16 O36'
_cell_volume   1114.03087755
_cell_formula_units_Z   2
loop_
 _symmetry_equiv_pos_site_id
 _symmetry_equiv_pos_as_xyz
  1  'x, y, z'
loop_
 _atom_site_type_symbol
 _atom_site_label
 _atom_site_symmetry_multiplicity
 _atom_site_fract_x
 _atom_site_fract_y
 _atom_site_fract_z
 _atom_site_occupancy
  K  K0  1  0.67787900  0.01747500  0.64134700  1
  K  K1  1  0.32212100  0.98252500  0.35865300  1
  K  K2  1  0.07360200  0.61432300  0.63552800  1
  K  K3  1  0.92639800  0.38567700  0.36447200  1
  K  K4  1  0.38129500  0.72753300  0.05672100  1
  K  K5  1  0.61870500  0.27246700  0.94327900  1
  K  K6  1  0.08961600  0.35074200  0.90662200  1
  K  K7  1  0.91038400  0.64925800  0.09337800  1
  Re  Re0  1  0.51639000  0.24443600  0.28887000  1
  Re  Re1  1  0.48361000  0.75556400  0.71113000  1
  Re  Re2  1  0.77020200  0.07422600  0.26132600  1
  Re  Re3  1  0.22979800  0.92577400  0.73867400  1
  H  H0  1  0.38402700  0.11872900  0.94336900  1
  H  H1  1  0.61597300  0.88127100  0.05663100  1
  H  H2  1  0.26381700  0.73203400  0.26320900  1
  H  H3  1  0.73618300  0.26796600  0.73679100  1
  H  H4  1  0.65567200  0.57321400  0.21661500  1
  H  H5  1  0.34432800  0.42678600  0.78338500  1
  C  C0  1  0.43288600  0.29767800  0.50205500  1
  C  C1  1  0.56711400  0.70232200  0.49794500  1
  C  C2  1  0.37264600  0.44595000  0.44535500  1
  C  C3  1  0.62735400  0.55405000  0.55464500  1
  C  C4  1  0.14396000  0.14328600  0.57484200  1
  C  C5  1  0.85604000  0.85671400  0.42515800  1
  C  C6  1  0.21096500  0.34233700  0.18258500  1
  C  C7  1  0.78903500  0.65766300  0.81741500  1
  C  C8  1  0.32762300  0.38823800  0.11310300  1
  C  C9  1  0.67237700  0.61176200  0.88689700  1
  C  C10  1  0.93004400  0.12941100  0.07540900  1
  C  C11  1  0.06995600  0.87058900  0.92459100  1
  C  C12  1  0.06492500  0.06933800  0.15427900  1
  C  C13  1  0.93507500  0.93066200  0.84572100  1
  C  C14  1  0.10219600  0.22696400  0.67393300  1
  C  C15  1  0.89780400  0.77303600  0.32606700  1
  O  O0  1  0.42526500  0.27918400  0.59568400  1
  O  O1  1  0.57473500  0.72081600  0.40431600  1
  O  O2  1  0.27446600  0.26625200  0.26353700  1
  O  O3  1  0.72553400  0.73374800  0.73646300  1
  O  O4  1  0.12946700  0.20107400  0.48811100  1
  O  O5  1  0.87053300  0.79892600  0.51188900  1
  O  O6  1  0.56626300  0.04901100  0.24860800  1
  O  O7  1  0.43373700  0.95098900  0.75139200  1
  O  O8  1  0.41027100  0.44325800  0.34784000  1
  O  O9  1  0.58972900  0.55674200  0.65216000  1
  O  O10  1  0.01259400  0.05943700  0.24773000  1
  O  O11  1  0.98740600  0.94056300  0.75227000  1
  O  O12  1  0.47419400  0.34109100  0.14403400  1
  O  O13  1  0.52580600  0.65890900  0.85596600  1
  O  O14  1  0.19552800  0.00561900  0.59120700  1
  O  O15  1  0.80447200  0.99438100  0.40879300  1
  O  O16  1  0.20641800  0.03332500  0.12893900  1
  O  O17  1  0.79358200  0.96667500  0.87106100  1
  O  O18  1  0.72107800  0.26875600  0.30036200  1
  O  O19  1  0.27892200  0.73124400  0.69963800  1
  O  O20  1  0.13101100  0.14624600  0.75797300  1
  O  O21  1  0.86898900  0.85375400  0.24202700  1
  O  O22  1  0.79291200  0.12457700  0.10830600  1
  O  O23  1  0.20708800  0.87542300  0.89169400  1
  O  O24  1  0.05094600  0.82281100  0.01153200  1
  O  O25  1  0.94905400  0.17718900  0.98846800  1
  O  O26  1  0.06949000  0.37693400  0.15795400  1
  O  O27  1  0.93051000  0.62306600  0.84204600  1
  O  O28  1  0.49252800  0.19272700  0.43959500  1
  O  O29  1  0.50747200  0.80727300  0.56040500  1
  O  O30  1  0.04633800  0.35742800  0.67223600  1
  O  O31  1  0.95366200  0.64257200  0.32776400  1
  O  O32  1  0.29690300  0.55264700  0.49064300  1
  O  O33  1  0.70309700  0.44735300  0.50935700  1
  O  O34  1  0.28441600  0.46159200  0.03181800  1
  O  O35  1  0.71558400  0.53840800  0.96818200  1
loop_
_geom_bond_atom_site_label_1
_geom_bond_atom_site_label_2
_geom_bond_distance
_geom_bond_site_symmetry_2
K0 O7 2.843898 1_545
K0 O0 2.874416 1_555
K0 O5 2.888001 1_545
K0 O3 2.953813 1_545
K0 O11 3.015134 1_545
K0 O17 3.164399 1_545
K0 O15 3.208749 1_545
K0 O29 3.251844 1_545
K0 O28 3.251860 1_555
K1 O6 2.843898 1_565
K1 O1 2.874416 1_555
K1 O4 2.888001 1_565
K1 O2 2.953813 1_565
K1 O10 3.015134 1_565
K1 O16 3.164399 1_565
K1 O14 3.208749 1_565
K1 O28 3.251844 1_565
K1 O29 3.251860 1_555
K2 O5 2.629448 1_455
K2 O32 2.658212 1_555
K2 O19 2.687846 1_555
K2 O30 2.704552 1_555
K2 O27 2.950956 1_455
K2 O3 3.216564 1_455
K3 O4 2.629448 1_655
K3 O33 2.658212 1_555
K3 O18 2.687846 1_555
K3 O31 2.704552 1_555
K3 O26 2.950956 1_655
K3 O2 3.216564 1_655
K4 O23 2.751037 1_554
K4 O24 2.861249 1_555
K4 O13 2.906089 1_554
K4 O16 3.127005 1_565
K4 O34 3.132139 1_555
K4 O35 3.180981 1_554
K5 O22 2.751037 1_556
K5 O25 2.861249 1_555
K5 O12 2.906089 1_556
K5 O17 3.127005 1_545
K5 O35 3.132139 1_555
K5 O34 3.180981 1_556
K6 O25 2.658479 1_455
K6 O27 2.723168 1_455
K6 O20 2.837121 1_555
K6 O34 2.955869 1_556
K6 O30 3.094903 1_555
K6 O26 3.306438 1_556
K6 O35 3.344314 1_455
K7 O24 2.658479 1_655
K7 O26 2.723168 1_655
K7 O21 2.837121 1_555
K7 O35 2.955869 1_554
K7 O31 3.094903 1_555
K7 O27 3.306438 1_554
K7 O34 3.344314 1_655
H0 K6 2.898904 1_555
H0 K5 3.024140 1_555
H1 K7 2.898904 1_555
H1 K4 3.024140 1_555
H2 K4 2.868373 1_555
H2 K1 3.087806 1_555
H3 K5 2.868373 1_555
H3 K0 3.087806 1_555
H4 K7 3.052400 1_555
H5 K6 3.052400 1_555
C0 O0 1.231813 1_555
C0 O28 1.324788 1_555
C1 O1 1.231813 1_555
C1 O29 1.324788 1_555
C2 O32 1.231055 1_555
C2 O8 1.309230 1_555
C3 O33 1.231055 1_555
C3 O9 1.309230 1_555
C4 O4 1.235554 1_555
C4 O14 1.311499 1_555
C5 O5 1.235554 1_555
C5 O15 1.311499 1_555
C6 O26 1.246146 1_555
C6 O2 1.295847 1_555
C7 O27 1.246146 1_555
C7 O3 1.295847 1_555
C8 O34 1.251993 1_555
C8 O12 1.306880 1_555
C9 O35 1.251993 1_555
C9 O13 1.306880 1_555
C10 O25 1.240913 1_554
C10 O22 1.312082 1_555
C11 O24 1.240913 1_556
C11 O23 1.312082 1_555
C12 O16 1.238750 1_555
C12 O10 1.308156 1_555
C13 O17 1.238750 1_555
C13 O11 1.308156 1_555
C14 O30 1.236079 1_555
C14 O20 1.307902 1_555
C15 O31 1.236079 1_555
C15 O21 1.307902 1_555
O2 Re0 2.146555 1_555
O3 Re1 2.146555 1_555
O6 Re2 1.952435 1_555
O6 Re0 1.964771 1_555
O7 Re3 1.952435 1_555
O7 Re1 1.964771 1_555
O8 Re0 2.083126 1_555
O9 Re1 2.083126 1_555
O10 Re2 2.138935 1_455
O11 Re3 2.138935 1_655
O12 Re0 2.065180 1_555
O13 Re1 2.065180 1_555
O14 Re3 2.038251 1_545
O15 Re2 2.038251 1_565
O18 Re2 1.952099 1_555
O18 Re0 1.953115 1_555
O19 Re3 1.952099 1_555
O19 Re1 1.953115 1_555
O20 Re3 2.118949 1_545
O21 Re2 2.118949 1_565
O22 Re2 2.059159 1_555
O23 Re3 2.059159 1_555
O28 Re0 2.035430 1_555
O29 Re1 2.035430 1_555
