# generated using pymatgen
data_Ca4Mn2Al2O11
_symmetry_space_group_name_H-M   'P 1'
_cell_length_a   5.28417362
_cell_length_b   5.28417362
_cell_length_c   7.68140900
_cell_angle_alpha   90.00000000
_cell_angle_beta   90.00000000
_cell_angle_gamma   90.00000000
_symmetry_Int_Tables_number   1
_chemical_formula_structural   Ca4Mn2Al2O11
_chemical_formula_sum   'Ca4 Mn2 Al2 O11'
_cell_volume   214.48407253
_cell_formula_units_Z   1
loop_
 _symmetry_equiv_pos_site_id
 _symmetry_equiv_pos_as_xyz
  1  'x, y, z'
loop_
 _atom_site_type_symbol
 _atom_site_label
 _atom_site_symmetry_multiplicity
 _atom_site_fract_x
 _atom_site_fract_y
 _atom_site_fract_z
 _atom_site_occupancy
  Ca  Ca0  1  0.50000000  0.00000000  0.75000000  1
  Ca  Ca1  1  0.50000000  0.00000000  0.25000000  1
  Ca  Ca2  1  0.00000000  0.50000000  0.75000000  1
  Ca  Ca3  1  0.00000000  0.50000000  0.25000000  1
  Mn  Mn0  1  0.50000000  0.50000000  0.99094200  1
  Mn  Mn1  1  0.50000000  0.50000000  0.50905800  1
  Al  Al0  1  0.00000000  0.00000000  0.02276300  1
  Al  Al1  1  0.00000000  0.00000000  0.47723700  1
  O  O0  1  0.00000000  0.00000000  0.25000000  1
  O  O1  1  0.50000000  0.50000000  0.75000000  1
  O  O2  1  0.50000000  0.50000000  0.25000000  1
  O  O3  1  0.75722400  0.75722400  0.98010500  1
  O  O4  1  0.75722400  0.75722400  0.51989500  1
  O  O5  1  0.24277600  0.24277600  0.98010500  1
  O  O6  1  0.24277600  0.24277600  0.51989500  1
  O  O7  1  0.75722400  0.24277600  0.98010500  1
  O  O8  1  0.75722400  0.24277600  0.51989500  1
  O  O9  1  0.24277600  0.75722400  0.98010500  1
  O  O10  1  0.24277600  0.75722400  0.51989500  1
loop_
_geom_bond_atom_site_label_1
_geom_bond_atom_site_label_2
_geom_bond_distance
_geom_bond_site_symmetry_2
Ca0 O10 2.572429 1_545
Ca0 O6 2.572429 1_555
Ca0 O7 2.572429 1_555
Ca0 O9 2.572429 1_545
Ca0 O3 2.572429 1_545
Ca0 O5 2.572429 1_555
Ca0 O8 2.572429 1_555
Ca0 O4 2.572429 1_545
Ca0 O1 2.642087 1_545
Ca0 O1 2.642087 1_555
Ca1 O0 2.642087 1_555
Ca1 O0 2.642087 1_655
Ca1 O2 2.642087 1_545
Ca1 O2 2.642087 1_555
Ca1 O7 2.791286 1_554
Ca1 O8 2.791286 1_555
Ca1 O5 2.791286 1_554
Ca1 O10 2.791286 1_545
Ca1 O4 2.791286 1_545
Ca1 O6 2.791286 1_555
Ca1 O9 2.791286 1_544
Ca1 O3 2.791286 1_544
Ca2 O3 2.572429 1_455
Ca2 O9 2.572429 1_555
Ca2 O6 2.572429 1_555
Ca2 O4 2.572429 1_455
Ca2 O7 2.572429 1_455
Ca2 O8 2.572429 1_455
Ca2 O5 2.572429 1_555
Ca2 O10 2.572429 1_555
Ca2 O1 2.642087 1_455
Ca2 O1 2.642087 1_555
Ca3 O0 2.642087 1_555
Ca3 O2 2.642087 1_555
Ca3 O2 2.642087 1_455
Ca3 O0 2.642087 1_565
Ca3 O8 2.791286 1_455
Ca3 O5 2.791286 1_554
Ca3 O9 2.791286 1_554
Ca3 O10 2.791286 1_555
Ca3 O7 2.791286 1_454
Ca3 O6 2.791286 1_555
Ca3 O3 2.791286 1_454
Ca3 O4 2.791286 1_455
Mn0 O1 1.850774 1_555
Mn0 O7 1.924024 1_555
Mn0 O5 1.924024 1_555
Mn0 O3 1.924024 1_555
Mn0 O9 1.924024 1_555
Mn0 O2 1.989930 1_556
Mn1 O1 1.850774 1_555
Mn1 O4 1.924024 1_555
Mn1 O8 1.924024 1_555
Mn1 O10 1.924024 1_555
Mn1 O6 1.924024 1_555
Mn1 O2 1.989930 1_555
Al0 O0 1.745500 1_555
Al0 O7 1.843606 1_454
Al0 O3 1.843606 1_444
Al0 O9 1.843606 1_544
Al0 O5 1.843606 1_554
Al1 O0 1.745500 1_555
Al1 O6 1.843606 1_555
Al1 O8 1.843606 1_455
Al1 O4 1.843606 1_445
Al1 O10 1.843606 1_545
