# generated using pymatgen
data_C3N
_symmetry_space_group_name_H-M   'P 1'
_cell_length_a   3.38430400
_cell_length_b   3.38430400
_cell_length_c   6.14226700
_cell_angle_alpha   90.00000000
_cell_angle_beta   90.00000000
_cell_angle_gamma   90.00000000
_symmetry_Int_Tables_number   1
_chemical_formula_structural   C3N
_chemical_formula_sum   'C6 N2'
_cell_volume   70.35053840
_cell_formula_units_Z   2
loop_
 _symmetry_equiv_pos_site_id
 _symmetry_equiv_pos_as_xyz
  1  'x, y, z'
loop_
 _atom_site_type_symbol
 _atom_site_label
 _atom_site_symmetry_multiplicity
 _atom_site_fract_x
 _atom_site_fract_y
 _atom_site_fract_z
 _atom_site_occupancy
  C  C0  1  0.00000000  0.00000000  0.79806500  1
  C  C1  1  0.00000000  0.00000000  0.20193500  1
  C  C2  1  0.00000000  0.50000000  0.50000000  1
  C  C3  1  0.50000000  0.00000000  0.50000000  1
  C  C4  1  0.50000000  0.50000000  0.61945400  1
  C  C5  1  0.50000000  0.50000000  0.38054600  1
  N  N0  1  0.00000000  0.00000000  0.00000000  1
  N  N1  1  0.00000000  0.00000000  0.50000000  1
loop_
_geom_bond_atom_site_label_1
_geom_bond_atom_site_label_2
_geom_bond_distance
_geom_bond_site_symmetry_2
C0 N0 1.240339 1_556
C0 N1 1.830795 1_555
C1 N0 1.240339 1_555
C1 N1 1.830795 1_555
C2 N1 1.692152 1_555
C2 N1 1.692152 1_565
C2 C4 1.844376 1_555
C2 C5 1.844376 1_455
C2 C5 1.844376 1_555
C2 C4 1.844376 1_455
C3 N1 1.692152 1_555
C3 N1 1.692152 1_655
C3 C4 1.844376 1_555
C3 C4 1.844376 1_545
C3 C5 1.844376 1_545
C3 C5 1.844376 1_555
C4 C5 1.467437 1_555
