# generated using pymatgen
data_Ca4MnN4
_symmetry_space_group_name_H-M   'P 1'
_cell_length_a   11.15477200
_cell_length_b   4.92503400
_cell_length_c   10.91117800
_cell_angle_alpha   90.00000000
_cell_angle_beta   90.00000000
_cell_angle_gamma   90.00000000
_symmetry_Int_Tables_number   1
_chemical_formula_structural   Ca4MnN4
_chemical_formula_sum   'Ca16 Mn4 N16'
_cell_volume   599.43427469
_cell_formula_units_Z   4
loop_
 _symmetry_equiv_pos_site_id
 _symmetry_equiv_pos_as_xyz
  1  'x, y, z'
loop_
 _atom_site_type_symbol
 _atom_site_label
 _atom_site_symmetry_multiplicity
 _atom_site_fract_x
 _atom_site_fract_y
 _atom_site_fract_z
 _atom_site_occupancy
  Ca  Ca0  1  0.09756100  0.25000000  0.18515100  1
  Ca  Ca1  1  0.59756100  0.25000000  0.31484900  1
  Ca  Ca2  1  0.90243900  0.75000000  0.81484900  1
  Ca  Ca3  1  0.40243900  0.75000000  0.68515100  1
  Ca  Ca4  1  0.76989900  0.25000000  0.97411000  1
  Ca  Ca5  1  0.26989900  0.25000000  0.52589000  1
  Ca  Ca6  1  0.23010100  0.75000000  0.02589000  1
  Ca  Ca7  1  0.73010100  0.75000000  0.47411000  1
  Ca  Ca8  1  0.44059200  0.25000000  0.88845900  1
  Ca  Ca9  1  0.94059200  0.25000000  0.61154100  1
  Ca  Ca10  1  0.55940800  0.75000000  0.11154100  1
  Ca  Ca11  1  0.05940800  0.75000000  0.38845900  1
  Ca  Ca12  1  0.12905300  0.25000000  0.84192000  1
  Ca  Ca13  1  0.62905300  0.25000000  0.65808000  1
  Ca  Ca14  1  0.87094700  0.75000000  0.15808000  1
  Ca  Ca15  1  0.37094700  0.75000000  0.34192000  1
  Mn  Mn0  1  0.36835700  0.25000000  0.15062400  1
  Mn  Mn1  1  0.86835700  0.25000000  0.34937600  1
  Mn  Mn2  1  0.63164300  0.75000000  0.84937600  1
  Mn  Mn3  1  0.13164300  0.75000000  0.65062400  1
  N  N0  1  0.82355900  0.25000000  0.20079600  1
  N  N1  1  0.32355900  0.25000000  0.29920400  1
  N  N2  1  0.17644100  0.75000000  0.79920400  1
  N  N3  1  0.67644100  0.75000000  0.70079600  1
  N  N4  1  0.92481200  0.25000000  0.83070900  1
  N  N5  1  0.42481200  0.25000000  0.66929100  1
  N  N6  1  0.07518800  0.75000000  0.16929100  1
  N  N7  1  0.57518800  0.75000000  0.33070900  1
  N  N8  1  0.26289900  0.25000000  0.02622800  1
  N  N9  1  0.76289900  0.25000000  0.47377200  1
  N  N10  1  0.73710100  0.75000000  0.97377200  1
  N  N11  1  0.23710100  0.75000000  0.52622800  1
  N  N12  1  0.51327400  0.25000000  0.10599900  1
  N  N13  1  0.01327400  0.25000000  0.39400100  1
  N  N14  1  0.48672600  0.75000000  0.89400100  1
  N  N15  1  0.98672600  0.75000000  0.60599900  1
loop_
_geom_bond_atom_site_label_1
_geom_bond_atom_site_label_2
_geom_bond_distance
_geom_bond_site_symmetry_2
Ca0 N13 2.465138 1_555
Ca0 N6 2.481173 1_555
Ca0 N6 2.481173 1_545
Ca0 N8 2.531473 1_555
Ca0 N1 2.811384 1_555
Ca0 N0 3.061193 1_455
Ca1 N12 2.465138 1_555
Ca1 N7 2.481173 1_545
Ca1 N7 2.481173 1_555
Ca1 N9 2.531473 1_555
Ca1 N0 2.811384 1_555
Ca1 N1 3.061193 1_555
Ca2 N15 2.465138 1_555
Ca2 N4 2.481173 1_565
Ca2 N4 2.481173 1_555
Ca2 N10 2.531473 1_555
Ca2 N3 2.811384 1_555
Ca2 N2 3.061193 1_655
Ca3 N14 2.465138 1_555
Ca3 N5 2.481173 1_565
Ca3 N5 2.481173 1_555
Ca3 N11 2.531473 1_555
Ca3 N2 2.811384 1_555
Ca3 N3 3.061193 1_555
Ca4 N4 2.331149 1_555
Ca4 N10 2.489549 1_545
Ca4 N10 2.489549 1_555
Ca4 N0 2.544807 1_556
Ca5 N5 2.331149 1_555
Ca5 N11 2.489549 1_555
Ca5 N11 2.489549 1_545
Ca5 N1 2.544807 1_555
Ca6 N6 2.331149 1_555
Ca6 N8 2.489549 1_565
Ca6 N8 2.489549 1_555
Ca6 N2 2.544807 1_554
Ca7 N7 2.331149 1_555
Ca7 N9 2.489549 1_555
Ca7 N9 2.489549 1_565
Ca7 N3 2.544807 1_555
Ca8 N5 2.397851 1_555
Ca8 N8 2.487669 1_556
Ca8 N12 2.508262 1_556
Ca8 N14 2.516441 1_555
Ca8 N14 2.516441 1_545
Ca9 N4 2.397851 1_555
Ca9 N9 2.487669 1_555
Ca9 N13 2.508262 1_655
Ca9 N15 2.516441 1_555
Ca9 N15 2.516441 1_545
Ca10 N7 2.397851 1_555
Ca10 N10 2.487669 1_554
Ca10 N14 2.508262 1_554
Ca10 N12 2.516441 1_565
Ca10 N12 2.516441 1_555
Ca11 N6 2.397851 1_555
Ca11 N11 2.487669 1_555
Ca11 N15 2.508262 1_455
Ca11 N13 2.516441 1_555
Ca11 N13 2.516441 1_565
Ca12 N4 2.281543 1_455
Ca12 N8 2.504657 1_556
Ca12 N2 2.561375 1_545
Ca12 N2 2.561375 1_555
Ca13 N5 2.281543 1_555
Ca13 N9 2.504657 1_555
Ca13 N3 2.561375 1_545
Ca13 N3 2.561375 1_555
Ca14 N6 2.281543 1_655
Ca14 N10 2.504657 1_554
Ca14 N0 2.561375 1_565
Ca14 N0 2.561375 1_555
Ca15 N7 2.281543 1_555
Ca15 N11 2.504657 1_555
Ca15 N1 2.561375 1_565
Ca15 N1 2.561375 1_555
Mn0 N12 1.688256 1_555
Mn0 N1 1.696451 1_555
Mn0 N8 1.796136 1_555
Mn1 N13 1.688256 1_655
Mn1 N0 1.696451 1_555
Mn1 N9 1.796136 1_555
Mn2 N14 1.688256 1_555
Mn2 N3 1.696451 1_555
Mn2 N10 1.796136 1_555
Mn3 N15 1.688256 1_455
Mn3 N2 1.696451 1_555
Mn3 N11 1.796136 1_555
