# generated using pymatgen
data_HgSO5
_symmetry_space_group_name_H-M   'P 1'
_cell_length_a   5.70700800
_cell_length_b   8.71787800
_cell_length_c   8.87112800
_cell_angle_alpha   90.00000000
_cell_angle_beta   90.00000000
_cell_angle_gamma   90.00000000
_symmetry_Int_Tables_number   1
_chemical_formula_structural   HgSO5
_chemical_formula_sum   'Hg4 S4 O20'
_cell_volume   441.36522685
_cell_formula_units_Z   4
loop_
 _symmetry_equiv_pos_site_id
 _symmetry_equiv_pos_as_xyz
  1  'x, y, z'
loop_
 _atom_site_type_symbol
 _atom_site_label
 _atom_site_symmetry_multiplicity
 _atom_site_fract_x
 _atom_site_fract_y
 _atom_site_fract_z
 _atom_site_occupancy
  Hg  Hg0  1  0.25000000  0.28068800  0.63965100  1
  Hg  Hg1  1  0.25000000  0.21931200  0.13965100  1
  Hg  Hg2  1  0.75000000  0.71931200  0.36034900  1
  Hg  Hg3  1  0.75000000  0.78068800  0.86034900  1
  S  S0  1  0.25000000  0.85799100  0.09863400  1
  S  S1  1  0.25000000  0.64200900  0.59863400  1
  S  S2  1  0.75000000  0.14200900  0.90136600  1
  S  S3  1  0.75000000  0.35799100  0.40136600  1
  O  O0  1  0.25000000  0.91541400  0.94303600  1
  O  O1  1  0.25000000  0.58458600  0.44303600  1
  O  O2  1  0.75000000  0.08458600  0.05696400  1
  O  O3  1  0.75000000  0.41541400  0.55696400  1
  O  O4  1  0.25000000  0.99167100  0.21331800  1
  O  O5  1  0.25000000  0.50832900  0.71331800  1
  O  O6  1  0.75000000  0.00832900  0.78668200  1
  O  O7  1  0.75000000  0.49167100  0.28668200  1
  O  O8  1  0.96506300  0.26743300  0.36963200  1
  O  O9  1  0.53493700  0.23256700  0.86963200  1
  O  O10  1  0.46506300  0.73256700  0.63036800  1
  O  O11  1  0.03493700  0.76743300  0.13036800  1
  O  O12  1  0.03493700  0.73256700  0.63036800  1
  O  O13  1  0.46506300  0.76743300  0.13036800  1
  O  O14  1  0.53493700  0.26743300  0.36963200  1
  O  O15  1  0.96506300  0.23256700  0.86963200  1
  O  O16  1  0.25000000  0.05856000  0.56516000  1
  O  O17  1  0.25000000  0.44144000  0.06516000  1
  O  O18  1  0.75000000  0.94144000  0.43484000  1
  O  O19  1  0.75000000  0.55856000  0.93484000  1
loop_
_geom_bond_atom_site_label_1
_geom_bond_atom_site_label_2
_geom_bond_distance
_geom_bond_site_symmetry_2
Hg0 O16 2.046132 1_555
Hg0 O5 2.089378 1_555
Hg0 O15 2.642479 1_455
Hg0 O9 2.642479 1_555
Hg1 O17 2.046132 1_555
Hg1 O4 2.089378 1_545
Hg1 O14 2.642479 1_555
Hg1 O8 2.642479 1_455
Hg2 O18 2.046132 1_555
Hg2 O7 2.089378 1_555
Hg2 O11 2.642479 1_655
Hg2 O13 2.642479 1_555
Hg3 O19 2.046132 1_555
Hg3 O6 2.089378 1_565
Hg3 O12 2.642479 1_655
Hg3 O10 2.642479 1_555
O0 S0 1.468304 1_556
O1 S1 1.468304 1_555
O2 S2 1.468304 1_554
O3 S3 1.468304 1_555
O4 S0 1.547005 1_555
O5 S1 1.547005 1_555
O6 S2 1.547005 1_555
O7 S3 1.547005 1_555
O8 S3 1.486253 1_555
O9 S2 1.486253 1_555
O10 S1 1.486253 1_555
O11 S0 1.486253 1_555
O12 S1 1.486253 1_555
O13 S0 1.486253 1_555
O14 S3 1.486253 1_555
O15 S2 1.486253 1_555
