# generated using pymatgen
data_Mg4SiN4
_symmetry_space_group_name_H-M   'P 1'
_cell_length_a   5.22345200
_cell_length_b   10.27480600
_cell_length_c   8.37497900
_cell_angle_alpha   90.00000000
_cell_angle_beta   90.00000000
_cell_angle_gamma   90.00000000
_symmetry_Int_Tables_number   1
_chemical_formula_structural   Mg4SiN4
_chemical_formula_sum   'Mg16 Si4 N16'
_cell_volume   449.48475401
_cell_formula_units_Z   4
loop_
 _symmetry_equiv_pos_site_id
 _symmetry_equiv_pos_as_xyz
  1  'x, y, z'
loop_
 _atom_site_type_symbol
 _atom_site_label
 _atom_site_symmetry_multiplicity
 _atom_site_fract_x
 _atom_site_fract_y
 _atom_site_fract_z
 _atom_site_occupancy
  Mg  Mg0  1  0.14894100  0.37073100  0.60847100  1
  Mg  Mg1  1  0.35105900  0.62926900  0.60847100  1
  Mg  Mg2  1  0.14894100  0.12926900  0.89152900  1
  Mg  Mg3  1  0.35105900  0.87073100  0.89152900  1
  Mg  Mg4  1  0.85105900  0.62926900  0.39152900  1
  Mg  Mg5  1  0.64894100  0.37073100  0.39152900  1
  Mg  Mg6  1  0.85105900  0.87073100  0.10847100  1
  Mg  Mg7  1  0.64894100  0.12926900  0.10847100  1
  Mg  Mg8  1  0.75000000  0.50000000  0.05423400  1
  Mg  Mg9  1  0.75000000  0.00000000  0.44576600  1
  Mg  Mg10  1  0.25000000  0.50000000  0.94576600  1
  Mg  Mg11  1  0.25000000  0.00000000  0.55423400  1
  Mg  Mg12  1  0.69200200  0.25000000  0.75000000  1
  Mg  Mg13  1  0.80799800  0.75000000  0.75000000  1
  Mg  Mg14  1  0.30799800  0.75000000  0.25000000  1
  Mg  Mg15  1  0.19200200  0.25000000  0.25000000  1
  Si  Si0  1  0.75000000  0.50000000  0.73400100  1
  Si  Si1  1  0.75000000  0.00000000  0.76599900  1
  Si  Si2  1  0.25000000  0.50000000  0.26599900  1
  Si  Si3  1  0.25000000  0.00000000  0.23400100  1
  N  N0  1  0.53559000  0.39984500  0.62714000  1
  N  N1  1  0.96441000  0.60015500  0.62714000  1
  N  N2  1  0.53559000  0.10015500  0.87286000  1
  N  N3  1  0.96441000  0.89984500  0.87286000  1
  N  N4  1  0.46441000  0.60015500  0.37286000  1
  N  N5  1  0.03559000  0.39984500  0.37286000  1
  N  N6  1  0.46441000  0.89984500  0.12714000  1
  N  N7  1  0.03559000  0.10015500  0.12714000  1
  N  N8  1  0.94602100  0.10729200  0.65165900  1
  N  N9  1  0.55397900  0.89270700  0.65165900  1
  N  N10  1  0.94602100  0.39270700  0.84834100  1
  N  N11  1  0.55397900  0.60729300  0.84834100  1
  N  N12  1  0.05397900  0.89270700  0.34834100  1
  N  N13  1  0.44602100  0.10729200  0.34834100  1
  N  N14  1  0.05397900  0.60729300  0.15165900  1
  N  N15  1  0.44602100  0.39270700  0.15165900  1
loop_
_geom_bond_atom_site_label_1
_geom_bond_atom_site_label_2
_geom_bond_distance
_geom_bond_site_symmetry_2
Mg0 N0 2.047654 1_555
Mg0 N5 2.081757 1_555
Mg0 N10 2.282579 1_455
Mg0 N1 2.551535 1_455
Mg1 N1 2.047654 1_455
Mg1 N4 2.081757 1_555
Mg1 N11 2.282579 1_555
Mg1 N0 2.551535 1_555
Mg2 N2 2.047654 1_555
Mg2 N7 2.081757 1_556
Mg2 N8 2.282580 1_455
Mg2 N3 2.551535 1_445
Mg3 N3 2.047654 1_455
Mg3 N6 2.081757 1_556
Mg3 N9 2.282579 1_555
Mg3 N2 2.551535 1_565
Mg4 N4 2.047654 1_555
Mg4 N1 2.081757 1_555
Mg4 N14 2.282579 1_655
Mg4 N5 2.551535 1_655
Mg5 N5 2.047654 1_655
Mg5 N0 2.081757 1_555
Mg5 N15 2.282579 1_555
Mg5 N4 2.551535 1_555
Mg6 N6 2.047654 1_555
Mg6 N3 2.081757 1_554
Mg6 N12 2.282579 1_655
Mg6 N7 2.551535 1_665
Mg7 N7 2.047654 1_655
Mg7 N2 2.081757 1_554
Mg7 N13 2.282580 1_555
Mg7 N6 2.551535 1_545
Mg8 N15 2.098150 1_555
Mg8 N14 2.098150 1_655
Mg8 N11 2.288468 1_554
Mg8 N10 2.288468 1_554
Mg9 N13 2.098145 1_555
Mg9 N12 2.098150 1_645
Mg9 N8 2.288463 1_555
Mg9 N9 2.288468 1_545
Mg10 N11 2.098150 1_555
Mg10 N10 2.098150 1_455
Mg10 N15 2.288468 1_556
Mg10 N14 2.288468 1_556
Mg11 N8 2.098145 1_455
Mg11 N9 2.098150 1_545
Mg11 N13 2.288463 1_555
Mg11 N12 2.288468 1_545
Mg12 N0 2.024031 1_555
Mg12 N2 2.024031 1_555
Mg12 N10 2.142164 1_555
Mg12 N8 2.142171 1_555
Mg13 N3 2.024031 1_555
Mg13 N1 2.024031 1_555
Mg13 N9 2.142164 1_555
Mg13 N11 2.142164 1_555
Mg14 N6 2.024031 1_555
Mg14 N4 2.024031 1_555
Mg14 N14 2.142164 1_555
Mg14 N12 2.142164 1_555
Mg15 N7 2.024031 1_555
Mg15 N5 2.024031 1_555
Mg15 N15 2.142164 1_555
Mg15 N13 2.142171 1_555
N0 Si0 1.764725 1_555
N1 Si0 1.764725 1_555
N2 Si1 1.764725 1_555
N3 Si1 1.764725 1_565
N4 Si2 1.764725 1_555
N5 Si2 1.764725 1_555
N6 Si3 1.764725 1_565
N7 Si3 1.764725 1_555
N8 Si1 1.783443 1_555
N9 Si1 1.783449 1_565
N10 Si0 1.783449 1_555
N11 Si0 1.783449 1_555
N12 Si3 1.783449 1_565
N13 Si3 1.783443 1_555
N14 Si2 1.783449 1_555
N15 Si2 1.783449 1_555
