# generated using pymatgen
data_ZnFe2Cu6(SnS4)3
_symmetry_space_group_name_H-M   'P 1'
_cell_length_a   16.80387867
_cell_length_b   16.80387867
_cell_length_c   16.80387867
_cell_angle_alpha   161.43185522
_cell_angle_beta   161.43185522
_cell_angle_gamma   26.37686845
_symmetry_Int_Tables_number   1
_chemical_formula_structural   ZnFe2Cu6(SnS4)3
_chemical_formula_sum   'Zn1 Fe2 Cu6 Sn3 S12'
_cell_volume   480.95868906
_cell_formula_units_Z   1
loop_
 _symmetry_equiv_pos_site_id
 _symmetry_equiv_pos_as_xyz
  1  'x, y, z'
loop_
 _atom_site_type_symbol
 _atom_site_label
 _atom_site_symmetry_multiplicity
 _atom_site_fract_x
 _atom_site_fract_y
 _atom_site_fract_z
 _atom_site_occupancy
  Zn  Zn0  1  0.75000000  0.25000000  0.50000000  1
  Fe  Fe0  1  0.41671000  0.91671000  0.50000000  1
  Fe  Fe1  1  0.08329000  0.58329000  0.50000000  1
  Cu  Cu0  1  0.91666400  0.41666400  0.50000000  1
  Cu  Cu1  1  0.58333600  0.08333600  0.50000000  1
  Cu  Cu2  1  0.25000000  0.75000000  0.50000000  1
  Cu  Cu3  1  0.83342600  0.83342600  0.00000000  1
  Cu  Cu4  1  0.50000000  0.50000000  0.00000000  1
  Cu  Cu5  1  0.16657400  0.16657400  0.00000000  1
  Sn  Sn0  1  0.33345900  0.33345900  0.00000000  1
  Sn  Sn1  1  0.00000000  0.00000000  0.00000000  1
  Sn  Sn2  1  0.66654100  0.66654100  0.00000000  1
  S  S0  1  0.11621600  0.11231300  0.47371900  1
  S  S1  1  0.78142900  0.77821000  0.47121300  1
  S  S2  1  0.44216500  0.45005700  0.47248400  1
  S  S3  1  0.63859500  0.64249700  0.52628100  1
  S  S4  1  0.30699700  0.31021600  0.52878700  1
  S  S5  1  0.97757300  0.96968200  0.52751600  1
  S  S6  1  0.68978400  0.21857100  0.99678100  1
  S  S7  1  0.35750300  0.88378400  0.99609700  1
  S  S8  1  0.03031800  0.55783500  0.00789200  1
  S  S9  1  0.22179000  0.69300300  0.00321900  1
  S  S10  1  0.88768700  0.36140500  0.00390300  1
  S  S11  1  0.54994300  0.02242700  0.99210800  1
loop_
_geom_bond_atom_site_label_1
_geom_bond_atom_site_label_2
_geom_bond_distance
_geom_bond_site_symmetry_2
Fe0 S9 2.296655 1_555
Fe0 S6 2.296655 1_565
Fe0 S3 2.298199 1_555
Fe0 S0 2.298205 1_565
Fe1 S4 2.296655 1_555
Fe1 S1 2.296655 1_455
Fe1 S10 2.298196 1_455
Fe1 S7 2.298205 1_555
Cu0 S9 2.317996 1_656
Cu0 S6 2.317996 1_554
Cu0 S3 2.322188 1_555
Cu0 S0 2.322201 1_655
Cu1 S1 2.317996 1_545
Cu1 S4 2.317996 1_555
Cu1 S10 2.322192 1_556
Cu1 S7 2.322201 1_544
Cu2 S8 2.301085 1_555
Cu2 S5 2.301088 1_455
Cu2 S2 2.301094 1_555
Cu2 S11 2.301094 1_565
Cu3 S11 2.299828 1_564
Cu3 S8 2.299835 1_655
Cu3 S0 2.317241 1_665
Cu3 S3 2.317252 1_554
Cu4 S4 2.314482 1_554
Cu4 S6 2.314482 1_554
Cu4 S1 2.314482 1_555
Cu4 S9 2.314482 1_555
Cu5 S2 2.299828 1_555
Cu5 S5 2.299838 1_444
Cu5 S7 2.317241 1_544
Cu5 S10 2.317249 1_455
S0 Sn0 2.477719 1_556
S1 Sn1 2.490599 1_666
S2 Zn0 2.350965 1_555
S2 Sn2 2.470053 1_556
S3 Sn0 2.477728 1_555
S4 Sn1 2.490599 1_555
S5 Zn0 2.350953 1_565
S5 Sn2 2.470063 1_555
S6 Sn1 2.490599 1_656
S7 Sn2 2.477719 1_556
S8 Zn0 2.350957 1_454
S8 Sn0 2.470066 1_555
S9 Sn1 2.490599 1_565
S10 Sn2 2.477731 1_555
S11 Zn0 2.350965 1_556
S11 Sn0 2.470053 1_556
