# generated using pymatgen
data_K2Na2Mo3WO10
_symmetry_space_group_name_H-M   'P 1'
_cell_length_a   11.52468258
_cell_length_b   11.74951803
_cell_length_c   17.51680901
_cell_angle_alpha   109.66733949
_cell_angle_beta   109.20387167
_cell_angle_gamma   89.91640736
_symmetry_Int_Tables_number   1
_chemical_formula_structural   K2Na2Mo3WO10
_chemical_formula_sum   'K16 Na16 Mo24 W8 O80'
_cell_volume   2093.30277045
_cell_formula_units_Z   8
loop_
 _symmetry_equiv_pos_site_id
 _symmetry_equiv_pos_as_xyz
  1  'x, y, z'
loop_
 _atom_site_type_symbol
 _atom_site_label
 _atom_site_symmetry_multiplicity
 _atom_site_fract_x
 _atom_site_fract_y
 _atom_site_fract_z
 _atom_site_occupancy
  K  K0  1  0.30555700  0.06635700  0.10944800  1
  K  K1  1  0.30469200  0.56292800  0.10899400  1
  K  K2  1  0.80649700  0.06522200  0.11132900  1
  K  K3  1  0.80568800  0.56325700  0.10979500  1
  K  K4  1  0.19967000  0.93600100  0.39410100  1
  K  K5  1  0.19334100  0.92920400  0.88380400  1
  K  K6  1  0.69988400  0.43574200  0.39496000  1
  K  K7  1  0.69364500  0.43053200  0.88598400  1
  K  K8  1  0.69890100  0.93435900  0.39455900  1
  K  K9  1  0.05796600  0.29576100  0.10992100  1
  K  K10  1  0.05501600  0.79252100  0.10797200  1
  K  K11  1  0.55447500  0.29348100  0.10815000  1
  K  K12  1  0.55528500  0.79450100  0.10725300  1
  K  K13  1  0.45029700  0.71021700  0.39520000  1
  K  K14  1  0.44202700  0.70581600  0.88452300  1
  K  K15  1  0.94338400  0.70386200  0.88427000  1
  Na  Na0  1  0.29846600  0.06981300  0.60250600  1
  Na  Na1  1  0.29997200  0.56290100  0.59886200  1
  Na  Na2  1  0.80126900  0.06700600  0.60241900  1
  Na  Na3  1  0.79736400  0.56646700  0.60035300  1
  Na  Na4  1  0.20182200  0.43678300  0.40267300  1
  Na  Na5  1  0.19920000  0.43533200  0.89848300  1
  Na  Na6  1  0.69765900  0.93489600  0.89717100  1
  Na  Na7  1  0.05048000  0.28254900  0.60121700  1
  Na  Na8  1  0.04910300  0.78538800  0.59947600  1
  Na  Na9  1  0.54968700  0.28526600  0.60042700  1
  Na  Na10  1  0.55084600  0.78431300  0.60106800  1
  Na  Na11  1  0.45158900  0.21480200  0.40360700  1
  Na  Na12  1  0.44882800  0.21215200  0.89797800  1
  Na  Na13  1  0.95086300  0.21604900  0.40310000  1
  Na  Na14  1  0.94733600  0.21275000  0.89771300  1
  Na  Na15  1  0.95036100  0.71520500  0.40225600  1
  Mo  Mo0  1  0.00633800  0.99907200  0.99645600  1
  Mo  Mo1  1  0.01402300  0.00163500  0.50401700  1
  Mo  Mo2  1  0.00540800  0.49647500  0.99614900  1
  Mo  Mo3  1  0.01348600  0.50114600  0.50113700  1
  Mo  Mo4  1  0.50548700  0.99871100  0.99448900  1
  Mo  Mo5  1  0.51339500  0.00488000  0.50573000  1
  Mo  Mo6  1  0.50616500  0.49683800  0.99665000  1
  Mo  Mo7  1  0.51436100  0.50086000  0.50471900  1
  Mo  Mo8  1  0.25583800  0.24913400  0.99592000  1
  Mo  Mo9  1  0.26377600  0.25334600  0.50379200  1
  Mo  Mo10  1  0.25539700  0.74645100  0.99525300  1
  Mo  Mo11  1  0.26252000  0.74929900  0.50303600  1
  Mo  Mo12  1  0.75681000  0.24558200  0.99447000  1
  Mo  Mo13  1  0.76618200  0.25093100  0.50416600  1
  Mo  Mo14  1  0.75570800  0.74973800  0.99655900  1
  Mo  Mo15  1  0.76451400  0.75252100  0.50550700  1
  Mo  Mo16  1  0.09802900  0.10575400  0.25703600  1
  Mo  Mo17  1  0.09647700  0.59333600  0.25652200  1
  Mo  Mo18  1  0.59773200  0.09967300  0.25461400  1
  Mo  Mo19  1  0.59919700  0.59258400  0.25160800  1
  Mo  Mo20  1  0.34591200  0.40330000  0.25715900  1
  Mo  Mo21  1  0.34828700  0.91393300  0.25217300  1
  Mo  Mo22  1  0.85383300  0.40596400  0.25378100  1
  Mo  Mo23  1  0.85140800  0.91037000  0.25488700  1
  W  W0  1  0.08896600  0.09827200  0.74819800  1
  W  W1  1  0.08817000  0.58446200  0.73931500  1
  W  W2  1  0.58647900  0.08969500  0.74678700  1
  W  W3  1  0.58818000  0.59073900  0.74337600  1
  W  W4  1  0.33776100  0.40014800  0.74878800  1
  W  W5  1  0.33793000  0.90654300  0.74028900  1
  W  W6  1  0.84222700  0.39926000  0.74418000  1
  W  W7  1  0.83539900  0.90998900  0.74652200  1
  O  O0  1  0.12825900  0.12433000  0.48904800  1
  O  O1  1  0.12329900  0.12175200  0.98515100  1
  O  O2  1  0.12682600  0.61563700  0.48222500  1
  O  O3  1  0.12465000  0.61384200  0.98396900  1
  O  O4  1  0.63012100  0.12454000  0.49234700  1
  O  O5  1  0.62442000  0.11640600  0.98193900  1
  O  O6  1  0.63147100  0.62274500  0.49327900  1
  O  O7  1  0.62436800  0.61927100  0.98664400  1
  O  O8  1  0.13343000  0.37688000  0.00384700  1
  O  O9  1  0.14607800  0.38660000  0.51908600  1
  O  O10  1  0.13535100  0.87687000  0.00703600  1
  O  O11  1  0.14408300  0.88059600  0.51897800  1
  O  O12  1  0.63378800  0.37445100  0.00542000  1
  O  O13  1  0.64602500  0.38318700  0.52094700  1
  O  O14  1  0.63557500  0.87942800  0.00555500  1
  O  O15  1  0.64718400  0.88726600  0.52418300  1
  O  O16  1  0.38116700  0.12226600  0.48852400  1
  O  O17  1  0.37483900  0.11899300  0.98246300  1
  O  O18  1  0.37833900  0.61596100  0.49078700  1
  O  O19  1  0.37268200  0.61380600  0.98513200  1
  O  O20  1  0.88267200  0.11964100  0.48833900  1
  O  O21  1  0.87413300  0.11530600  0.98259600  1
  O  O22  1  0.88284000  0.62155500  0.48981400  1
  O  O23  1  0.87443400  0.61736700  0.98686900  1
  O  O24  1  0.38395700  0.37795600  0.00468400  1
  O  O25  1  0.39573700  0.38522400  0.51882500  1
  O  O26  1  0.38437200  0.87948100  0.00618500  1
  O  O27  1  0.39686000  0.88975300  0.52503500  1
  O  O28  1  0.88612100  0.37658100  0.00607200  1
  O  O29  1  0.89778900  0.38604600  0.52043300  1
  O  O30  1  0.88299400  0.88024500  0.00557000  1
  O  O31  1  0.89624800  0.88600400  0.52106600  1
  O  O32  1  0.07538600  0.08950300  0.13885400  1
  O  O33  1  0.09141300  0.10589500  0.63851700  1
  O  O34  1  0.07749500  0.58562000  0.14147300  1
  O  O35  1  0.09208500  0.61125900  0.63823600  1
  O  O36  1  0.57498100  0.08900200  0.13773100  1
  O  O37  1  0.58798200  0.11057200  0.64198500  1
  O  O38  1  0.57766200  0.59016100  0.13752000  1
  O  O39  1  0.59346600  0.61073100  0.63887600  1
  O  O40  1  0.44797100  0.39095900  0.36483800  1
  O  O41  1  0.43943900  0.39365900  0.85820700  1
  O  O42  1  0.44566200  0.90876300  0.36444300  1
  O  O43  1  0.44402900  0.91255700  0.85521300  1
  O  O44  1  0.95137100  0.39049200  0.36277300  1
  O  O45  1  0.93811500  0.39710500  0.85681300  1
  O  O46  1  0.94458200  0.89304000  0.36413100  1
  O  O47  1  0.94379100  0.91047800  0.85840500  1
  O  O48  1  0.32593600  0.30272800  0.13916900  1
  O  O49  1  0.33896300  0.28340000  0.63864900  1
  O  O50  1  0.33031900  0.79993700  0.13995900  1
  O  O51  1  0.33858900  0.77551500  0.63925800  1
  O  O52  1  0.83314100  0.29942200  0.13856700  1
  O  O53  1  0.84784900  0.27656300  0.63831300  1
  O  O54  1  0.83302800  0.80181700  0.14052800  1
  O  O55  1  0.83961400  0.78471500  0.64218600  1
  O  O56  1  0.20417000  0.22358700  0.36425400  1
  O  O57  1  0.19184100  0.21310500  0.85762100  1
  O  O58  1  0.20262800  0.70964600  0.36521800  1
  O  O59  1  0.18852200  0.69262100  0.85626200  1
  O  O60  1  0.70872500  0.20763800  0.36474400  1
  O  O61  1  0.70231600  0.19801500  0.85682100  1
  O  O62  1  0.70018900  0.70403400  0.36505200  1
  O  O63  1  0.68367800  0.70746600  0.85701300  1
  O  O64  1  0.44157600  0.07120900  0.26717000  1
  O  O65  1  0.41840000  0.06918100  0.75061900  1
  O  O66  1  0.44068600  0.54581500  0.25344600  1
  O  O67  1  0.41763100  0.54173800  0.73096900  1
  O  O68  1  0.94319900  0.06830000  0.26940500  1
  O  O69  1  0.92231500  0.06526700  0.75006200  1
  O  O70  1  0.93810900  0.56614900  0.26698000  1
  O  O71  1  0.91667500  0.54470700  0.72904200  1
  O  O72  1  0.18882400  0.44858200  0.26769000  1
  O  O73  1  0.17167400  0.43329700  0.75155400  1
  O  O74  1  0.18660600  0.95623400  0.25156500  1
  O  O75  1  0.16600700  0.93784100  0.72966000  1
  O  O76  1  0.69221800  0.44821000  0.25281700  1
  O  O77  1  0.67190000  0.43552100  0.73328100  1
  O  O78  1  0.68873900  0.95241000  0.25222900  1
  O  O79  1  0.66582500  0.93347300  0.74697700  1
loop_
_geom_bond_atom_site_label_1
_geom_bond_atom_site_label_2
_geom_bond_distance
_geom_bond_site_symmetry_2
K0 O48 2.643390 1_555
K0 O10 2.651809 1_545
K0 O64 2.671827 1_555
K0 O26 2.705493 1_545
K0 O1 2.741797 1_554
K0 O17 2.839657 1_554
K0 O32 2.859775 1_555
K0 O36 2.976426 1_555
K1 O66 2.575277 1_555
K1 O8 2.641487 1_555
K1 O50 2.648870 1_555
K1 O24 2.704758 1_555
K1 O3 2.710767 1_554
K1 O19 2.769765 1_554
K1 O34 2.850701 1_555
K1 O38 3.018261 1_555
K2 O52 2.629891 1_555
K2 O14 2.639617 1_545
K2 O68 2.685804 1_555
K2 O30 2.700274 1_545
K2 O5 2.772530 1_554
K2 O21 2.844250 1_554
K2 O36 2.851945 1_555
K2 O32 2.973864 1_655
K2 O54 3.300493 1_545
K3 O70 2.661604 1_555
K3 O12 2.662441 1_555
K3 O54 2.668518 1_555
K3 O28 2.718598 1_555
K3 O7 2.727542 1_554
K3 O23 2.777360 1_554
K3 O38 2.824116 1_555
K3 O34 2.991689 1_655
K4 O58 2.536880 1_555
K4 O74 2.542676 1_555
K4 O0 2.599566 1_565
K4 O16 2.683534 1_565
K4 O11 2.738741 1_555
K4 O46 2.825513 1_455
K4 O27 2.850704 1_555
K4 O42 3.043644 1_555
K5 O75 2.650456 1_555
K5 O59 2.653845 1_555
K5 O1 2.674953 1_565
K5 O10 2.707056 1_556
K5 O17 2.715875 1_565
K5 O26 2.741940 1_556
K5 O47 2.758954 1_455
K5 O43 3.085493 1_555
K6 O76 2.515869 1_555
K6 O60 2.559953 1_555
K6 O6 2.599327 1_555
K6 O22 2.690710 1_555
K6 O13 2.730661 1_555
K6 O40 2.791732 1_555
K6 O29 2.817059 1_555
K6 O44 3.141574 1_555
K7 O61 2.613034 1_555
K7 O77 2.624057 1_555
K7 O7 2.636879 1_555
K7 O12 2.676900 1_556
K7 O23 2.694977 1_555
K7 O28 2.751559 1_556
K7 O41 2.816258 1_555
K7 O45 3.026896 1_555
K8 O78 2.537391 1_555
K8 O62 2.579601 1_555
K8 O4 2.620543 1_565
K8 O20 2.690866 1_565
K8 O15 2.748449 1_555
K8 O42 2.787345 1_555
K8 O31 2.816780 1_555
K8 O46 3.057973 1_555
K9 O28 2.630647 1_455
K9 O32 2.632218 1_555
K9 O72 2.657417 1_555
K9 O8 2.715659 1_555
K9 O1 2.755725 1_554
K9 O21 2.771261 1_454
K9 O52 2.794204 1_455
K9 O48 2.956048 1_555
K9 O34 3.257044 1_555
K10 O74 2.562998 1_555
K10 O30 2.666334 1_455
K10 O34 2.679475 1_555
K10 O10 2.687845 1_555
K10 O23 2.689996 1_454
K10 O54 2.792724 1_455
K10 O3 2.800351 1_554
K10 O50 3.030925 1_555
K11 O76 2.551025 1_555
K11 O36 2.617679 1_555
K11 O24 2.644593 1_555
K11 O12 2.686218 1_555
K11 O17 2.704053 1_554
K11 O5 2.817360 1_554
K11 O48 2.853953 1_555
K11 O52 3.074518 1_555
K12 O78 2.554269 1_555
K12 O38 2.622397 1_555
K12 O26 2.626988 1_555
K12 O14 2.703520 1_555
K12 O19 2.739826 1_554
K12 O7 2.740460 1_554
K12 O50 2.829529 1_555
K12 O54 3.054928 1_555
K13 O66 2.549574 1_555
K13 O42 2.561615 1_555
K13 O18 2.623370 1_555
K13 O6 2.681404 1_555
K13 O58 2.726619 1_555
K13 O27 2.773053 1_555
K13 O15 2.838709 1_555
K13 O62 3.090668 1_555
K14 O43 2.648041 1_555
K14 O67 2.654084 1_555
K14 O19 2.669231 1_555
K14 O26 2.673445 1_556
K14 O7 2.719395 1_555
K14 O14 2.760889 1_556
K14 O59 2.793356 1_555
K14 O63 2.979574 1_555
K15 O47 2.615438 1_555
K15 O71 2.648320 1_555
K15 O23 2.658095 1_555
K15 O30 2.701595 1_556
K15 O3 2.714690 1_655
K15 O10 2.755356 1_656
K15 O63 2.874215 1_555
K15 O59 3.017725 1_655
Na0 O49 2.378242 1_555
Na0 O65 2.509102 1_555
Na0 O11 2.521598 1_545
Na0 O0 2.548828 1_555
Na0 O27 2.583815 1_545
Na0 O33 2.660630 1_555
Na0 O16 2.712289 1_555
Na1 O51 2.354900 1_555
Na1 O67 2.361694 1_555
Na1 O9 2.412689 1_555
Na1 O25 2.565718 1_555
Na1 O2 2.589697 1_555
Na1 O18 2.590207 1_555
Na1 O35 2.712535 1_555
Na2 O53 2.342148 1_555
Na2 O15 2.439939 1_545
Na2 O69 2.509408 1_555
Na2 O4 2.537048 1_555
Na2 O31 2.594439 1_545
Na2 O20 2.706049 1_555
Na2 O37 2.768161 1_555
Na3 O71 2.320640 1_555
Na3 O55 2.419466 1_555
Na3 O13 2.452115 1_555
Na3 O6 2.466258 1_555
Na3 O29 2.618069 1_555
Na3 O39 2.655380 1_555
Na3 O22 2.690507 1_555
Na4 O56 2.367586 1_555
Na4 O72 2.370645 1_555
Na4 O2 2.433279 1_555
Na4 O9 2.567276 1_555
Na4 O18 2.590840 1_555
Na4 O25 2.708401 1_555
Na4 O44 2.745361 1_455
Na5 O57 2.457613 1_555
Na5 O3 2.471161 1_555
Na5 O73 2.479266 1_555
Na5 O8 2.495525 1_556
Na5 O19 2.563566 1_555
Na5 O24 2.585168 1_556
Na5 O45 2.850710 1_455
Na6 O5 2.480556 1_565
Na6 O14 2.503798 1_556
Na6 O63 2.514522 1_555
Na6 O79 2.528249 1_555
Na6 O30 2.593951 1_556
Na6 O21 2.596957 1_565
Na6 O43 2.759008 1_555
Na7 O33 2.380079 1_555
Na7 O29 2.468134 1_455
Na7 O20 2.502219 1_455
Na7 O73 2.543777 1_555
Na7 O0 2.610576 1_555
Na7 O53 2.628715 1_455
Na7 O9 2.647415 1_555
Na8 O75 2.336735 1_555
Na8 O35 2.367065 1_555
Na8 O31 2.425379 1_455
Na8 O22 2.483412 1_455
Na8 O11 2.553149 1_555
Na8 O2 2.728807 1_555
Na8 O55 2.753341 1_455
Na9 O77 2.366799 1_555
Na9 O37 2.393643 1_555
Na9 O25 2.454785 1_555
Na9 O16 2.502314 1_555
Na9 O13 2.567787 1_555
Na9 O4 2.598589 1_555
Na9 O49 2.725103 1_555
Na10 O39 2.351960 1_555
Na10 O27 2.450982 1_555
Na10 O79 2.474557 1_555
Na10 O18 2.551430 1_555
Na10 O15 2.567870 1_555
Na10 O6 2.601621 1_555
Na10 O51 2.750617 1_555
Na11 O40 2.382033 1_555
Na11 O64 2.382563 1_555
Na11 O16 2.436954 1_555
Na11 O25 2.574446 1_555
Na11 O4 2.602631 1_555
Na11 O56 2.714851 1_555
Na11 O13 2.721385 1_555
Na12 O41 2.448450 1_555
Na12 O17 2.457349 1_555
Na12 O65 2.468860 1_555
Na12 O24 2.512335 1_556
Na12 O5 2.583182 1_555
Na12 O12 2.584400 1_556
Na12 O57 2.810581 1_555
Na13 O68 2.373557 1_555
Na13 O44 2.382711 1_555
Na13 O20 2.458274 1_555
Na13 O29 2.578390 1_555
Na13 O0 2.582339 1_655
Na13 O60 2.640286 1_555
Na13 O9 2.733244 1_655
Na14 O21 2.491446 1_555
Na14 O45 2.492051 1_555
Na14 O28 2.494687 1_556
Na14 O69 2.503858 1_555
Na14 O1 2.579562 1_655
Na14 O8 2.598201 1_656
Na14 O61 2.665351 1_555
Na15 O70 2.385231 1_555
Na15 O46 2.392895 1_555
Na15 O22 2.468250 1_555
Na15 O2 2.586275 1_655
Na15 O31 2.605066 1_555
Na15 O11 2.697473 1_655
Na15 O62 2.731658 1_555
Mo0 O21 2.054080 1_465
Mo0 O10 2.073209 1_556
Mo0 O30 2.073773 1_456
Mo0 O1 2.075400 1_565
Mo0 O47 2.147553 1_455
Mo0 O32 2.212852 1_566
Mo1 O20 2.065444 1_455
Mo1 O31 2.079058 1_445
Mo1 O11 2.079453 1_545
Mo1 O0 2.089814 1_555
Mo1 O33 2.127209 1_555
Mo1 O46 2.209331 1_445
Mo2 O8 2.039652 1_556
Mo2 O3 2.057214 1_555
Mo2 O28 2.057239 1_456
Mo2 O23 2.076093 1_455
Mo2 O45 2.181970 1_455
Mo2 O34 2.254760 1_556
Mo3 O9 2.051338 1_555
Mo3 O2 2.053116 1_555
Mo3 O22 2.072208 1_455
Mo3 O29 2.080977 1_455
Mo3 O35 2.177768 1_555
Mo3 O44 2.194842 1_455
Mo4 O14 2.057924 1_556
Mo4 O5 2.061004 1_565
Mo4 O17 2.072258 1_565
Mo4 O26 2.083218 1_556
Mo4 O43 2.163640 1_555
Mo4 O36 2.225173 1_566
Mo5 O4 2.067879 1_555
Mo5 O16 2.070475 1_555
Mo5 O15 2.087610 1_545
Mo5 O27 2.088018 1_545
Mo5 O37 2.153131 1_555
Mo5 O42 2.204573 1_545
Mo6 O24 2.054978 1_556
Mo6 O12 2.061210 1_556
Mo6 O19 2.066945 1_555
Mo6 O7 2.070827 1_555
Mo6 O41 2.176929 1_555
Mo6 O38 2.194094 1_556
Mo7 O25 2.056606 1_555
Mo7 O13 2.066282 1_555
Mo7 O6 2.071073 1_555
Mo7 O18 2.076100 1_555
Mo7 O39 2.138256 1_555
Mo7 O40 2.212795 1_555
Mo8 O24 2.048336 1_556
Mo8 O1 2.058122 1_555
Mo8 O17 2.058762 1_555
Mo8 O8 2.060256 1_556
Mo8 O57 2.174199 1_555
Mo8 O48 2.224837 1_556
Mo9 O16 2.056340 1_555
Mo9 O25 2.062020 1_555
Mo9 O0 2.069250 1_555
Mo9 O9 2.076904 1_555
Mo9 O49 2.132753 1_555
Mo9 O56 2.211197 1_555
Mo10 O19 2.062264 1_555
Mo10 O10 2.067258 1_556
Mo10 O26 2.075377 1_556
Mo10 O3 2.083467 1_555
Mo10 O59 2.156885 1_555
Mo10 O50 2.248362 1_556
Mo11 O18 2.058670 1_555
Mo11 O11 2.067741 1_555
Mo11 O2 2.071614 1_555
Mo11 O27 2.110874 1_555
Mo11 O58 2.160825 1_555
Mo11 O51 2.164979 1_555
Mo12 O21 2.044289 1_555
Mo12 O28 2.056248 1_556
Mo12 O5 2.059580 1_555
Mo12 O12 2.077669 1_556
Mo12 O61 2.149019 1_555
Mo12 O52 2.238592 1_556
Mo13 O20 2.051763 1_555
Mo13 O4 2.072023 1_555
Mo13 O29 2.078496 1_555
Mo13 O13 2.091119 1_555
Mo13 O53 2.137230 1_555
Mo13 O60 2.182337 1_555
Mo14 O30 2.054122 1_556
Mo14 O14 2.058968 1_556
Mo14 O23 2.070947 1_555
Mo14 O7 2.079851 1_555
Mo14 O63 2.181736 1_555
Mo14 O54 2.238939 1_556
Mo15 O22 2.063682 1_555
Mo15 O31 2.070257 1_555
Mo15 O6 2.071902 1_555
Mo15 O15 2.092383 1_555
Mo15 O55 2.156951 1_555
Mo15 O62 2.187510 1_555
Mo16 O56 1.919312 1_555
Mo16 O68 1.935297 1_455
Mo16 O32 1.941353 1_555
Mo16 O74 2.020734 1_545
Mo17 O34 1.924713 1_555
Mo17 O58 1.926265 1_555
Mo17 O70 1.930746 1_455
Mo17 O72 2.036010 1_555
Mo18 O60 1.923822 1_555
Mo18 O64 1.926296 1_555
Mo18 O36 1.936629 1_555
Mo18 O78 2.017545 1_545
Mo19 O38 1.921373 1_555
Mo19 O66 1.921897 1_555
Mo19 O62 1.936391 1_555
Mo19 O76 2.007777 1_555
Mo20 O40 1.919974 1_555
Mo20 O72 1.935312 1_555
Mo20 O48 1.940328 1_555
Mo20 O66 2.031376 1_555
Mo21 O50 1.913492 1_555
Mo21 O74 1.925335 1_555
Mo21 O42 1.938804 1_555
Mo21 O64 2.032963 1_565
Mo22 O52 1.918508 1_555
Mo22 O76 1.923033 1_555
Mo22 O44 1.939801 1_555
Mo22 O70 2.025778 1_555
Mo23 O54 1.919974 1_555
Mo23 O78 1.927704 1_555
Mo23 O46 1.940681 1_555
Mo23 O68 2.034234 1_565
O33 W0 1.962535 1_555
O35 W1 1.914149 1_555
O37 W2 1.937695 1_555
O39 W3 1.942285 1_555
O41 W4 1.916544 1_555
O43 W5 1.959046 1_555
O45 W6 1.927089 1_555
O47 W7 1.945073 1_555
O49 W4 1.959624 1_555
O51 W5 1.917556 1_555
O53 W6 1.949545 1_555
O55 W7 1.938184 1_555
O57 W0 1.915436 1_555
O59 W1 1.960202 1_555
O61 W2 1.943712 1_555
O63 W3 1.944256 1_555
O65 W2 1.978025 1_555
O65 W5 2.050959 1_545
O67 W3 1.969784 1_555
O67 W4 2.062843 1_555
O69 W0 1.972842 1_655
O69 W7 2.055265 1_545
O71 W1 1.966969 1_655
O71 W6 2.045944 1_555
O73 W4 1.965695 1_555
O73 W1 2.059678 1_555
O75 W5 1.974069 1_555
O75 W0 2.054194 1_565
O77 W6 1.969002 1_555
O77 W3 2.044075 1_555
O79 W7 1.975507 1_555
O79 W2 2.050025 1_565
