# generated using pymatgen
data_K5Na3Nb6(WO10)2
_symmetry_space_group_name_H-M   'P 1'
_cell_length_a   11.58043008
_cell_length_b   11.74748414
_cell_length_c   17.74012973
_cell_angle_alpha   109.54237011
_cell_angle_beta   108.96010260
_cell_angle_gamma   90.23251090
_symmetry_Int_Tables_number   1
_chemical_formula_structural   K5Na3Nb6(WO10)2
_chemical_formula_sum   'K20 Na12 Nb24 W8 O80'
_cell_volume   2133.68537352
_cell_formula_units_Z   4
loop_
 _symmetry_equiv_pos_site_id
 _symmetry_equiv_pos_as_xyz
  1  'x, y, z'
loop_
 _atom_site_type_symbol
 _atom_site_label
 _atom_site_symmetry_multiplicity
 _atom_site_fract_x
 _atom_site_fract_y
 _atom_site_fract_z
 _atom_site_occupancy
  K  K0  1  0.30158800  0.06487000  0.11584100  1
  K  K1  1  0.30517200  0.56343300  0.10691400  1
  K  K2  1  0.79870300  0.06153600  0.10640200  1
  K  K3  1  0.81145400  0.56378800  0.11714800  1
  K  K4  1  0.81422900  0.57048200  0.61978100  1
  K  K5  1  0.20411100  0.93242500  0.39086100  1
  K  K6  1  0.19447200  0.93028700  0.88012700  1
  K  K7  1  0.69636600  0.43859800  0.38816700  1
  K  K8  1  0.68747100  0.42568300  0.88244600  1
  K  K9  1  0.69558800  0.93031100  0.38464900  1
  K  K10  1  0.69220300  0.91952400  0.87612300  1
  K  K11  1  0.05018800  0.29170900  0.10824500  1
  K  K12  1  0.06304700  0.79387200  0.11218900  1
  K  K13  1  0.55460400  0.30193200  0.11593000  1
  K  K14  1  0.56127500  0.79813500  0.11668100  1
  K  K15  1  0.43633800  0.19906500  0.38504100  1
  K  K16  1  0.45436300  0.71226600  0.39812100  1
  K  K17  1  0.44752500  0.70612100  0.88756600  1
  K  K18  1  0.94971000  0.69737200  0.38586800  1
  K  K19  1  0.94134700  0.69871600  0.87974300  1
  Na  Na0  1  0.29860600  0.07695300  0.60412500  1
  Na  Na1  1  0.30324000  0.56936200  0.60468200  1
  Na  Na2  1  0.80108100  0.06942700  0.59999100  1
  Na  Na3  1  0.20369600  0.43920000  0.40573500  1
  Na  Na4  1  0.19641600  0.42661300  0.89552000  1
  Na  Na5  1  0.04536500  0.27822200  0.60418200  1
  Na  Na6  1  0.05998200  0.79193000  0.60862800  1
  Na  Na7  1  0.55157400  0.28353600  0.59882300  1
  Na  Na8  1  0.55716000  0.79183200  0.60934600  1
  Na  Na9  1  0.43835900  0.21557300  0.89443900  1
  Na  Na10  1  0.95667200  0.22048500  0.40700600  1
  Na  Na11  1  0.94704600  0.21613600  0.89641100  1
  Nb  Nb0  1  0.00702900  0.00004200  0.50276100  1
  Nb  Nb1  1  0.00916700  0.50311400  0.50525700  1
  Nb  Nb2  1  0.50703600  0.50304100  0.50366800  1
  Nb  Nb3  1  0.25535600  0.25435800  0.50393700  1
  Nb  Nb4  1  0.25937800  0.75263500  0.50577800  1
  Nb  Nb5  1  0.74697200  0.24530600  0.99599300  1
  Nb  Nb6  1  0.75646600  0.24779100  0.49981300  1
  Nb  Nb7  1  0.75865300  0.75218300  0.50425500  1
  Nb  Nb8  1  0.09272100  0.08832900  0.25349200  1
  Nb  Nb9  1  0.08510600  0.08538000  0.74632600  1
  Nb  Nb10  1  0.14851900  0.58219500  0.25321800  1
  Nb  Nb11  1  0.13575300  0.56827400  0.74872600  1
  Nb  Nb12  1  0.61548700  0.09850600  0.24973600  1
  Nb  Nb13  1  0.58326200  0.08076600  0.74637800  1
  Nb  Nb14  1  0.60642600  0.59459400  0.25054800  1
  Nb  Nb15  1  0.59615900  0.56867000  0.74358100  1
  Nb  Nb16  1  0.34273800  0.42349200  0.25399400  1
  Nb  Nb17  1  0.33376300  0.42007000  0.74633200  1
  Nb  Nb18  1  0.36355700  0.88940300  0.25189000  1
  Nb  Nb19  1  0.37191200  0.92698300  0.74551700  1
  Nb  Nb20  1  0.87776100  0.40274600  0.25251700  1
  Nb  Nb21  1  0.85862500  0.39698500  0.74565600  1
  Nb  Nb22  1  0.89279500  0.93164900  0.25346500  1
  Nb  Nb23  1  0.87667600  0.93427900  0.74756100  1
  W  W0  1  0.99847000  0.99593200  0.99577600  1
  W  W1  1  0.00099000  0.49563700  0.99630600  1
  W  W2  1  0.49979400  0.99824600  0.99579800  1
  W  W3  1  0.50895600  0.00490400  0.50923000  1
  W  W4  1  0.49842300  0.49759800  0.99548200  1
  W  W5  1  0.24774600  0.24667200  0.99641600  1
  W  W6  1  0.25123600  0.74654500  0.99498200  1
  W  W7  1  0.75304200  0.74563300  0.99876500  1
  O  O0  1  0.12436000  0.12491200  0.49925300  1
  O  O1  1  0.11815100  0.11998800  0.99042800  1
  O  O2  1  0.13345500  0.62391200  0.50111300  1
  O  O3  1  0.11950700  0.61191200  0.98072000  1
  O  O4  1  0.63475700  0.13218300  0.50116300  1
  O  O5  1  0.62159100  0.12207300  0.98951000  1
  O  O6  1  0.63222300  0.62851300  0.50424300  1
  O  O7  1  0.62593600  0.61909600  0.99570800  1
  O  O8  1  0.12341500  0.37086500  0.99683000  1
  O  O9  1  0.13515500  0.38026100  0.51120900  1
  O  O10  1  0.12724900  0.87524400  0.00209900  1
  O  O11  1  0.13700400  0.88025300  0.51390100  1
  O  O12  1  0.62559700  0.36724500  0.99860300  1
  O  O13  1  0.63250500  0.38043200  0.51047100  1
  O  O14  1  0.62960300  0.87570000  0.00291900  1
  O  O15  1  0.64971600  0.88143200  0.52215900  1
  O  O16  1  0.37209000  0.13208300  0.50056000  1
  O  O17  1  0.37242900  0.12081600  0.98836800  1
  O  O18  1  0.38095300  0.62066400  0.50198400  1
  O  O19  1  0.36986500  0.61662500  0.98641100  1
  O  O20  1  0.87763100  0.12144200  0.49120100  1
  O  O21  1  0.86684000  0.11931800  0.98637400  1
  O  O22  1  0.88545200  0.62679500  0.50271300  1
  O  O23  1  0.87408800  0.61690800  0.99283900  1
  O  O24  1  0.37396800  0.37222800  0.99586200  1
  O  O25  1  0.38086600  0.38129700  0.50998500  1
  O  O26  1  0.37974300  0.87840200  0.00511600  1
  O  O27  1  0.38478400  0.87913200  0.52013000  1
  O  O28  1  0.87305000  0.36848300  0.00018900  1
  O  O29  1  0.88935400  0.37790100  0.51275800  1
  O  O30  1  0.87590500  0.87266500  0.99873100  1
  O  O31  1  0.88667900  0.87907600  0.50648900  1
  O  O32  1  0.05176900  0.07323400  0.13607600  1
  O  O33  1  0.06181700  0.09087000  0.63522600  1
  O  O34  1  0.08131400  0.56870200  0.13483200  1
  O  O35  1  0.09172500  0.59143100  0.64207000  1
  O  O36  1  0.56926700  0.08132600  0.13174900  1
  O  O37  1  0.56727900  0.10807800  0.64474900  1
  O  O38  1  0.56648400  0.56738600  0.13136400  1
  O  O39  1  0.57726700  0.59056000  0.63903000  1
  O  O40  1  0.43930600  0.42714800  0.36765300  1
  O  O41  1  0.42850200  0.42190600  0.85703400  1
  O  O42  1  0.44461500  0.92111300  0.37155200  1
  O  O43  1  0.43656300  0.91569000  0.85484100  1
  O  O44  1  0.94438300  0.41727300  0.37214400  1
  O  O45  1  0.92524600  0.40150100  0.86036300  1
  O  O46  1  0.95018700  0.91248700  0.36195300  1
  O  O47  1  0.93797200  0.91540600  0.85498600  1
  O  O48  1  0.30973900  0.31541100  0.13788800  1
  O  O49  1  0.31561700  0.30241700  0.63682200  1
  O  O50  1  0.31791800  0.80201900  0.13070500  1
  O  O51  1  0.33681400  0.79050300  0.64391700  1
  O  O52  1  0.81744100  0.29935400  0.12999800  1
  O  O53  1  0.83664200  0.28638800  0.63414000  1
  O  O54  1  0.83687800  0.81031100  0.14109900  1
  O  O55  1  0.85428900  0.80488500  0.64520000  1
  O  O56  1  0.17877100  0.20235800  0.36952500  1
  O  O57  1  0.17735600  0.19053600  0.85897000  1
  O  O58  1  0.20154400  0.69116800  0.37333700  1
  O  O59  1  0.19503800  0.69529100  0.85579300  1
  O  O60  1  0.69288600  0.20223300  0.37043500  1
  O  O61  1  0.67476500  0.18561100  0.86015000  1
  O  O62  1  0.68950100  0.68961300  0.37561600  1
  O  O63  1  0.67940200  0.67536300  0.85909900  1
  O  O64  1  0.46481200  0.03731900  0.25150700  1
  O  O65  1  0.41070300  0.09556200  0.74743800  1
  O  O66  1  0.44770800  0.56057700  0.25420500  1
  O  O67  1  0.42414300  0.56039500  0.73601200  1
  O  O68  1  0.92668700  0.10699500  0.26663400  1
  O  O69  1  0.91170700  0.10107200  0.74644400  1
  O  O70  1  0.98013700  0.52977500  0.25184900  1
  O  O71  1  0.96813500  0.52492200  0.74885900  1
  O  O72  1  0.17975800  0.41714900  0.26560500  1
  O  O73  1  0.16332400  0.39648900  0.74716200  1
  O  O74  1  0.22733900  0.98693400  0.25544900  1
  O  O75  1  0.19751600  0.95498400  0.73463900  1
  O  O76  1  0.73685000  0.48516500  0.25592000  1
  O  O77  1  0.68478400  0.42305900  0.73199400  1
  O  O78  1  0.72686300  0.97758900  0.25303200  1
  O  O79  1  0.70039600  0.95523700  0.73500800  1
loop_
_geom_bond_atom_site_label_1
_geom_bond_atom_site_label_2
_geom_bond_distance
_geom_bond_site_symmetry_2
K0 O64 2.653282 1_555
K0 O10 2.723790 1_545
K0 O26 2.787236 1_545
K0 O1 2.790250 1_554
K0 O48 2.833389 1_555
K0 O17 2.900738 1_554
K0 O36 3.019302 1_555
K0 O32 3.026811 1_555
K0 O50 3.187020 1_545
K0 O74 3.256657 1_545
K1 O66 2.609536 1_555
K1 O50 2.687060 1_555
K1 O19 2.729878 1_554
K1 O24 2.763189 1_554
K1 O3 2.773809 1_554
K1 O8 2.774223 1_554
K1 O34 2.790094 1_555
K1 O38 2.912055 1_555
K1 O48 3.138063 1_555
K2 O68 2.608106 1_555
K2 O14 2.630376 1_545
K2 O52 2.679757 1_555
K2 O5 2.692073 1_554
K2 O30 2.767880 1_544
K2 O21 2.769791 1_554
K2 O32 2.798273 1_655
K2 O36 2.833223 1_555
K2 O54 3.214550 1_545
K3 O70 2.701401 1_555
K3 O7 2.760274 1_554
K3 O23 2.781197 1_554
K3 O54 2.782580 1_555
K3 O28 2.805020 1_555
K3 O12 2.855862 1_554
K3 O38 2.927780 1_555
K3 O34 3.036002 1_655
K3 O52 3.189348 1_555
K3 O76 3.249141 1_555
K4 O71 2.623377 1_555
K4 O55 2.650301 1_555
K4 O6 2.692111 1_555
K4 O22 2.731084 1_555
K4 O13 2.754494 1_555
K4 O29 2.774072 1_555
K4 O39 2.874498 1_555
K4 O35 3.105870 1_655
K5 O16 2.742602 1_565
K5 O58 2.744790 1_555
K5 O74 2.775011 1_555
K5 O11 2.781606 1_555
K5 O27 2.807449 1_555
K5 O46 2.810481 1_455
K5 O0 2.815258 1_565
K5 O42 2.912816 1_555
K6 O59 2.648035 1_555
K6 O75 2.703119 1_555
K6 O17 2.731238 1_565
K6 O26 2.777528 1_556
K6 O10 2.780774 1_556
K6 O1 2.792633 1_565
K6 O47 2.852259 1_455
K6 O43 2.976573 1_555
K6 O57 3.201767 1_565
K7 O60 2.686468 1_555
K7 O76 2.755794 1_555
K7 O6 2.775506 1_555
K7 O13 2.784204 1_555
K7 O22 2.806346 1_555
K7 O29 2.871545 1_555
K7 O40 2.876158 1_555
K7 O44 2.980182 1_555
K7 O62 3.030006 1_555
K8 O77 2.648899 1_555
K8 O12 2.670730 1_555
K8 O61 2.710055 1_555
K8 O28 2.732541 1_556
K8 O7 2.756240 1_555
K8 O23 2.796285 1_555
K8 O41 2.882019 1_555
K8 O45 2.906716 1_555
K8 O63 3.094063 1_555
K9 O78 2.703121 1_555
K9 O20 2.755251 1_565
K9 O31 2.775634 1_555
K9 O62 2.777382 1_555
K9 O42 2.838049 1_555
K9 O4 2.841300 1_565
K9 O15 2.887822 1_555
K9 O46 3.101423 1_555
K10 O79 2.703457 1_555
K10 O30 2.713545 1_555
K10 O14 2.771570 1_556
K10 O63 2.779952 1_555
K10 O21 2.782834 1_565
K10 O43 2.858305 1_555
K10 O5 2.873872 1_565
K10 O47 2.987603 1_555
K10 O61 3.233039 1_565
K11 O72 2.593058 1_555
K11 O28 2.704145 1_455
K11 O1 2.705262 1_554
K11 O21 2.708628 1_454
K11 O32 2.770096 1_555
K11 O8 2.793340 1_554
K11 O52 2.841893 1_455
K11 O48 2.873414 1_555
K11 O34 3.129529 1_555
K12 O10 2.732686 1_555
K12 O23 2.756934 1_454
K12 O34 2.804150 1_555
K12 O54 2.823281 1_455
K12 O30 2.834222 1_454
K12 O3 2.846614 1_554
K12 O50 2.859226 1_555
K12 O74 2.861695 1_555
K12 O32 3.174256 1_565
K13 O36 2.698695 1_555
K13 O17 2.781860 1_554
K13 O12 2.787836 1_554
K13 O24 2.808942 1_554
K13 O5 2.840684 1_554
K13 O76 2.869836 1_555
K13 O52 2.973196 1_555
K13 O48 2.982925 1_555
K13 O38 3.036320 1_555
K14 O78 2.741152 1_555
K14 O7 2.761764 1_554
K14 O26 2.790435 1_555
K14 O14 2.791311 1_555
K14 O38 2.807665 1_555
K14 O19 2.852533 1_554
K14 O50 2.907777 1_555
K14 O54 3.074226 1_555
K14 O36 3.245611 1_565
K15 O64 2.613853 1_555
K15 O16 2.727143 1_555
K15 O25 2.769560 1_555
K15 O40 2.799036 1_555
K15 O13 2.855807 1_555
K15 O4 2.856983 1_555
K15 O56 2.906635 1_555
K15 O60 3.066068 1_555
K15 O74 3.139389 1_545
K15 O42 3.197332 1_545
K16 O66 2.554792 1_555
K16 O42 2.644903 1_555
K16 O27 2.735746 1_555
K16 O6 2.736881 1_555
K16 O18 2.759086 1_555
K16 O15 2.777105 1_555
K16 O58 2.812686 1_555
K16 O62 2.878573 1_555
K16 O40 3.203750 1_555
K17 O67 2.583882 1_555
K17 O14 2.652714 1_556
K17 O19 2.690623 1_555
K17 O26 2.704425 1_556
K17 O43 2.706468 1_555
K17 O7 2.783499 1_555
K17 O59 2.785890 1_555
K17 O63 2.891899 1_555
K17 O41 3.193149 1_555
K18 O70 2.659227 1_555
K18 O46 2.699022 1_555
K18 O31 2.764034 1_555
K18 O22 2.772168 1_555
K18 O2 2.796534 1_655
K18 O11 2.824038 1_655
K18 O62 2.958396 1_555
K18 O58 2.995325 1_655
K18 O76 3.165120 1_555
K18 O44 3.216029 1_555
K19 O71 2.637713 1_555
K19 O3 2.709786 1_655
K19 O30 2.715172 1_555
K19 O47 2.722481 1_555
K19 O10 2.749993 1_656
K19 O23 2.802680 1_555
K19 O63 2.935174 1_555
K19 O59 3.100605 1_655
Na0 O65 2.382839 1_555
Na0 O0 2.474135 1_555
Na0 O49 2.506835 1_555
Na0 O16 2.515281 1_555
Na0 O11 2.635845 1_545
Na0 O27 2.699134 1_545
Na0 O37 2.948044 1_555
Na0 O33 2.962562 1_555
Na1 O67 2.333475 1_555
Na1 O51 2.447593 1_555
Na1 O2 2.470372 1_555
Na1 O18 2.507579 1_555
Na1 O9 2.622308 1_555
Na1 O25 2.650604 1_555
Na1 O35 2.729963 1_555
Na2 O69 2.390945 1_555
Na2 O53 2.414349 1_555
Na2 O4 2.451331 1_555
Na2 O15 2.492422 1_545
Na2 O20 2.603889 1_555
Na2 O31 2.709121 1_545
Na2 O33 2.869355 1_655
Na3 O72 2.333359 1_555
Na3 O9 2.537296 1_555
Na3 O25 2.545531 1_555
Na3 O2 2.585627 1_555
Na3 O56 2.629531 1_555
Na3 O18 2.631579 1_555
Na3 O44 2.857865 1_455
Na4 O73 2.432968 1_555
Na4 O8 2.478696 1_555
Na4 O24 2.489507 1_555
Na4 O3 2.550600 1_555
Na4 O57 2.619047 1_555
Na4 O19 2.658593 1_555
Na4 O41 2.976752 1_555
Na5 O73 2.367585 1_555
Na5 O33 2.435107 1_555
Na5 O20 2.480693 1_455
Na5 O0 2.534278 1_555
Na5 O29 2.578637 1_455
Na5 O53 2.633735 1_455
Na5 O9 2.768657 1_555
Na5 O49 2.985929 1_555
Na6 O75 2.449479 1_555
Na6 O22 2.537833 1_455
Na6 O2 2.609079 1_555
Na6 O11 2.613253 1_555
Na6 O35 2.614376 1_555
Na6 O55 2.656919 1_455
Na6 O31 2.693255 1_455
Na7 O77 2.380794 1_555
Na7 O37 2.444505 1_555
Na7 O16 2.462732 1_555
Na7 O4 2.475563 1_555
Na7 O13 2.601966 1_555
Na7 O25 2.629729 1_555
Na8 O79 2.472705 1_555
Na8 O6 2.566441 1_555
Na8 O27 2.567289 1_555
Na8 O39 2.584545 1_555
Na8 O18 2.591089 1_555
Na8 O15 2.608898 1_555
Na8 O51 2.812573 1_555
Na9 O24 2.418231 1_555
Na9 O65 2.425870 1_555
Na9 O12 2.540303 1_555
Na9 O17 2.580578 1_555
Na9 O41 2.712506 1_555
Na9 O5 2.736090 1_555
Na9 O57 2.872493 1_555
Na9 O61 2.989239 1_555
Na10 O68 2.304879 1_555
Na10 O29 2.487590 1_555
Na10 O9 2.525221 1_655
Na10 O20 2.542617 1_555
Na10 O44 2.578559 1_555
Na10 O0 2.625151 1_655
Na10 O56 2.850206 1_655
Na10 O60 2.900378 1_555
Na11 O69 2.440222 1_555
Na11 O45 2.458798 1_555
Na11 O8 2.467432 1_655
Na11 O28 2.481933 1_556
Na11 O21 2.621536 1_555
Na11 O1 2.667343 1_655
Na11 O57 2.944318 1_655
Na11 O61 3.000513 1_555
Nb0 O31 2.018132 1_445
Nb0 O0 2.025270 1_555
Nb0 O11 2.072389 1_545
Nb0 O20 2.081998 1_455
Nb0 O33 2.100350 1_555
Nb0 O46 2.222191 1_445
Nb1 O22 2.045574 1_455
Nb1 O2 2.052500 1_555
Nb1 O9 2.059518 1_555
Nb1 O29 2.083469 1_455
Nb1 O44 2.098967 1_455
Nb1 O35 2.163478 1_555
Nb2 O18 2.014378 1_555
Nb2 O13 2.054181 1_555
Nb2 O6 2.058494 1_555
Nb2 O25 2.095107 1_555
Nb2 O39 2.134793 1_555
Nb2 O40 2.134845 1_555
Nb3 O16 1.976148 1_555
Nb3 O25 2.030224 1_555
Nb3 O9 2.036558 1_555
Nb3 O49 2.097723 1_555
Nb3 O0 2.106042 1_555
Nb3 O56 2.119530 1_555
Nb4 O27 1.967542 1_555
Nb4 O2 2.059112 1_555
Nb4 O11 2.069311 1_555
Nb4 O58 2.080562 1_555
Nb4 O18 2.097542 1_555
Nb4 O51 2.201572 1_555
Nb5 O5 1.995055 1_555
Nb5 O12 2.010978 1_555
Nb5 O28 2.017743 1_556
Nb5 O21 2.036704 1_555
Nb5 O52 2.108515 1_556
Nb5 O61 2.133930 1_555
Nb6 O4 1.964613 1_555
Nb6 O60 2.042863 1_555
Nb6 O20 2.049327 1_555
Nb6 O29 2.067267 1_555
Nb6 O13 2.126472 1_555
Nb6 O53 2.140612 1_555
Nb7 O15 1.987721 1_555
Nb7 O62 2.018640 1_555
Nb7 O6 2.058304 1_555
Nb7 O31 2.079934 1_555
Nb7 O22 2.084063 1_555
Nb7 O55 2.240783 1_555
Nb8 O32 1.924949 1_555
Nb8 O56 1.958599 1_555
Nb8 O74 1.964142 1_545
Nb8 O68 2.014920 1_455
Nb9 O57 1.900294 1_555
Nb9 O33 1.923856 1_555
Nb9 O75 2.015722 1_545
Nb9 O69 2.017838 1_455
Nb10 O34 1.937975 1_555
Nb10 O58 1.968513 1_555
Nb10 O70 2.032616 1_455
Nb10 O72 2.043886 1_555
Nb11 O59 1.885129 1_555
Nb11 O35 1.905929 1_555
Nb11 O71 2.005729 1_455
Nb11 O73 2.036843 1_555
Nb12 O64 1.898108 1_555
Nb12 O36 1.922709 1_555
Nb12 O78 1.925129 1_545
Nb12 O60 1.967605 1_555
Nb13 O37 1.886352 1_555
Nb13 O61 1.910508 1_555
Nb13 O65 2.012175 1_555
Nb13 O79 2.012536 1_545
Nb14 O66 1.905544 1_555
Nb14 O38 1.922945 1_555
Nb14 O76 1.986711 1_555
Nb14 O62 2.010374 1_555
Nb15 O39 1.899985 1_555
Nb15 O63 1.920408 1_555
Nb15 O67 1.952307 1_555
Nb15 O77 1.984365 1_555
Nb16 O48 1.932775 1_555
Nb16 O40 1.947930 1_555
Nb16 O72 1.967722 1_555
Nb16 O66 2.012018 1_555
Nb17 O41 1.905855 1_555
Nb17 O49 1.914319 1_555
Nb17 O73 1.997460 1_555
Nb17 O67 2.039321 1_555
Nb18 O42 1.923413 1_555
Nb18 O50 1.932807 1_555
Nb18 O74 1.958596 1_555
Nb18 O64 2.095451 1_565
Nb19 O43 1.889147 1_555
Nb19 O51 1.889386 1_555
Nb19 O75 2.004682 1_555
Nb19 O65 2.015574 1_565
Nb20 O70 1.907659 1_555
Nb20 O76 1.908304 1_555
Nb20 O44 1.954679 1_555
Nb20 O52 1.981840 1_555
Nb21 O53 1.901850 1_555
Nb21 O45 1.909498 1_555
Nb21 O71 1.936720 1_555
Nb21 O77 1.985689 1_555
Nb22 O46 1.912145 1_555
Nb22 O54 1.917684 1_555
Nb22 O78 1.996326 1_555
Nb22 O68 2.015841 1_565
Nb23 O55 1.876035 1_555
Nb23 O47 1.894661 1_555
Nb23 O79 2.005708 1_555
Nb23 O69 2.007225 1_565
O1 W0 2.053117 1_445
O1 W5 2.061768 1_555
O3 W1 2.076051 1_555
O3 W6 2.086734 1_555
O4 W3 2.153934 1_555
O5 W2 2.076539 1_545
O7 W4 2.047662 1_555
O7 W7 2.062922 1_555
O8 W1 2.043506 1_555
O8 W5 2.053874 1_555
O10 W0 2.064354 1_454
O10 W6 2.090706 1_554
O12 W4 2.130487 1_555
O14 W2 2.089019 1_554
O14 W7 2.096270 1_554
O15 W3 2.193724 1_565
O16 W3 2.186882 1_555
O17 W2 2.069778 1_545
O17 W5 2.073929 1_555
O19 W4 2.051632 1_555
O19 W6 2.058462 1_555
O21 W0 2.113491 1_545
O23 W1 2.051802 1_655
O23 W7 2.066238 1_555
O24 W4 2.059621 1_555
O24 W5 2.076955 1_555
O26 W2 2.057019 1_554
O26 W6 2.065783 1_554
O27 W3 2.154700 1_565
O28 W1 2.132684 1_654
O30 W0 2.048585 1_555
O30 W7 2.057981 1_555
O32 W0 2.210320 1_444
O34 W1 2.176712 1_554
O36 W2 2.138814 1_544
O37 W3 2.166521 1_555
O38 W4 2.131236 1_554
O41 W4 2.172425 1_555
O42 W3 2.166241 1_565
O43 W2 2.216229 1_555
O45 W1 2.154453 1_655
O47 W0 2.213766 1_555
O48 W5 2.221455 1_554
O50 W6 2.134530 1_554
O54 W7 2.239001 1_554
O57 W5 2.161720 1_555
O59 W6 2.200252 1_555
O63 W7 2.191020 1_555
