# generated using pymatgen
data_Sr2GaCo2O7
_symmetry_space_group_name_H-M   'P 1'
_cell_length_a   12.46816248
_cell_length_b   12.46816248
_cell_length_c   5.23867643
_cell_angle_alpha   77.86904447
_cell_angle_beta   77.86904447
_cell_angle_gamma   23.95988273
_symmetry_Int_Tables_number   1
_chemical_formula_structural   Sr2GaCo2O7
_chemical_formula_sum   'Sr4 Ga2 Co4 O14'
_cell_volume   322.99528568
_cell_formula_units_Z   2
loop_
 _symmetry_equiv_pos_site_id
 _symmetry_equiv_pos_as_xyz
  1  'x, y, z'
loop_
 _atom_site_type_symbol
 _atom_site_label
 _atom_site_symmetry_multiplicity
 _atom_site_fract_x
 _atom_site_fract_y
 _atom_site_fract_z
 _atom_site_occupancy
  Sr  Sr0  1  0.85649700  0.84282800  0.64289600  1
  Sr  Sr1  1  0.15717200  0.14350300  0.35710400  1
  Sr  Sr2  1  0.35644000  0.34312900  0.15677900  1
  Sr  Sr3  1  0.65687100  0.64356000  0.84322100  1
  Ga  Ga0  1  0.70206600  0.79705900  0.18045500  1
  Ga  Ga1  1  0.20294100  0.29793400  0.81954500  1
  Co  Co0  1  0.56904100  0.55392300  0.43794500  1
  Co  Co1  1  0.94587100  0.93162600  0.06169300  1
  Co  Co2  1  0.06837400  0.05412900  0.93830700  1
  Co  Co3  1  0.44607700  0.43095900  0.56205500  1
  O  O0  1  0.67679500  0.19047200  0.32969100  1
  O  O1  1  0.33346800  0.16629400  0.15958000  1
  O  O2  1  0.17455500  0.68983100  0.30543000  1
  O  O3  1  0.19995400  0.15428600  0.79515500  1
  O  O4  1  0.83369600  0.30754000  0.17641100  1
  O  O5  1  0.33278200  0.80222400  0.18804400  1
  O  O6  1  0.83370600  0.66653200  0.84042000  1
  O  O7  1  0.31016900  0.82544500  0.69457000  1
  O  O8  1  0.80952800  0.32320500  0.67030900  1
  O  O9  1  0.69756000  0.65507100  0.34880300  1
  O  O10  1  0.84571400  0.80004600  0.20484500  1
  O  O11  1  0.34492900  0.30244000  0.65119700  1
  O  O12  1  0.69246000  0.16630400  0.82358900  1
  O  O13  1  0.19777600  0.66721800  0.81195600  1
loop_
_geom_bond_atom_site_label_1
_geom_bond_atom_site_label_2
_geom_bond_distance
_geom_bond_site_symmetry_2
Ga0 O9 1.849260 1_555
Ga0 O10 1.856227 1_555
Ga0 O6 1.903495 1_554
Ga0 O1 1.912566 1_565
Ga1 O11 1.849260 1_555
Ga1 O3 1.856227 1_555
Ga1 O1 1.903495 1_556
Ga1 O6 1.912566 1_455
Co0 O8 1.745113 1_555
Co0 O5 1.795957 1_555
Co0 O4 1.882770 1_555
Co0 O7 1.950506 1_555
Co0 O9 2.739992 1_555
Co1 O2 1.746646 1_655
Co1 O12 1.823774 1_564
Co1 O13 1.898970 1_654
Co1 O0 1.943727 1_565
Co2 O7 1.746646 1_545
Co2 O4 1.823774 1_456
Co2 O5 1.898970 1_546
Co2 O8 1.943727 1_455
Co3 O0 1.745113 1_555
Co3 O13 1.795957 1_555
Co3 O12 1.882770 1_555
Co3 O2 1.950506 1_555
Co3 O11 2.739992 1_555
O0 Sr2 2.701586 1_555
O0 Sr0 2.703036 1_545
O1 Sr1 2.458680 1_555
O1 Sr2 2.466217 1_555
O2 Sr0 2.671204 1_455
O2 Sr2 2.681667 1_555
O3 Sr1 2.518722 1_555
O3 Sr3 2.587367 1_545
O3 Sr3 2.749791 1_455
O3 Sr1 2.876405 1_556
O4 Sr1 2.657123 1_655
O4 Sr3 2.668727 1_554
O5 Sr3 2.707200 1_554
O5 Sr1 2.724988 1_565
O6 Sr0 2.458680 1_555
O6 Sr3 2.466217 1_555
O7 Sr1 2.671204 1_565
O7 Sr3 2.681667 1_555
O8 Sr3 2.701586 1_555
O8 Sr1 2.703036 1_655
O9 Sr3 2.532022 1_555
O9 Sr1 2.590153 1_655
O9 Sr1 2.735144 1_565
O9 Sr3 2.854912 1_554
O10 Sr0 2.518722 1_555
O10 Sr2 2.587367 1_655
O10 Sr2 2.749791 1_565
O10 Sr0 2.876405 1_554
O11 Sr2 2.532022 1_555
O11 Sr0 2.590153 1_545
O11 Sr0 2.735144 1_455
O11 Sr2 2.854912 1_556
O12 Sr0 2.657123 1_545
O12 Sr2 2.668727 1_556
O13 Sr2 2.707200 1_556
O13 Sr0 2.724988 1_455
