# generated using pymatgen
data_MgO
_symmetry_space_group_name_H-M   'P 1'
_cell_length_a   10.10282698
_cell_length_b   10.84726784
_cell_length_c   9.16935472
_cell_angle_alpha   95.00821539
_cell_angle_beta   91.86072832
_cell_angle_gamma   84.00621522
_symmetry_Int_Tables_number   1
_chemical_formula_structural   MgO
_chemical_formula_sum   'Mg40 O40'
_cell_volume   995.26659536
_cell_formula_units_Z   40
loop_
 _symmetry_equiv_pos_site_id
 _symmetry_equiv_pos_as_xyz
  1  'x, y, z'
loop_
 _atom_site_type_symbol
 _atom_site_label
 _atom_site_symmetry_multiplicity
 _atom_site_fract_x
 _atom_site_fract_y
 _atom_site_fract_z
 _atom_site_occupancy
  Mg  Mg0  1  0.71723900  0.65722400  0.00567200  1
  Mg  Mg1  1  0.18172600  0.64289300  0.72610500  1
  Mg  Mg2  1  0.69867900  0.35757100  0.06303400  1
  Mg  Mg3  1  0.55014200  0.91075000  0.57949400  1
  Mg  Mg4  1  0.35473100  0.60303200  0.50757700  1
  Mg  Mg5  1  0.27424200  0.76981900  0.10314200  1
  Mg  Mg6  1  0.50583100  0.21408500  0.89544400  1
  Mg  Mg7  1  0.59581400  0.62953100  0.63399700  1
  Mg  Mg8  1  0.13265400  0.39428400  0.38330100  1
  Mg  Mg9  1  0.81561100  0.83855700  0.74129300  1
  Mg  Mg10  1  0.27963800  0.37020000  0.71084600  1
  Mg  Mg11  1  0.27925600  0.87096600  0.56150800  1
  Mg  Mg12  1  0.94479800  0.59790100  0.61475200  1
  Mg  Mg13  1  0.13738700  0.01551600  0.24544700  1
  Mg  Mg14  1  0.00639600  0.59019700  0.92856000  1
  Mg  Mg15  1  0.89653000  0.77390300  0.15336700  1
  Mg  Mg16  1  0.97866600  0.34101900  0.04265600  1
  Mg  Mg17  1  0.87275000  0.03043500  0.07398300  1
  Mg  Mg18  1  0.73304700  0.45417600  0.79994300  1
  Mg  Mg19  1  0.40257100  0.96212500  0.29703300  1
  Mg  Mg20  1  0.89041800  0.03632700  0.57966200  1
  Mg  Mg21  1  0.73086200  0.90676400  0.35286200  1
  Mg  Mg22  1  0.60720700  0.93207400  0.02076700  1
  Mg  Mg23  1  0.41488400  0.60158500  0.89819500  1
  Mg  Mg24  1  0.60124900  0.28858200  0.61491900  1
  Mg  Mg25  1  0.63737100  0.19540600  0.24037800  1
  Mg  Mg26  1  0.09489700  0.76621300  0.34972200  1
  Mg  Mg27  1  0.38815000  0.86377100  0.85218700  1
  Mg  Mg28  1  0.31228700  0.24816400  0.12487800  1
  Mg  Mg29  1  0.35937500  0.19281500  0.46651900  1
  Mg  Mg30  1  0.50578100  0.42204000  0.32160300  1
  Mg  Mg31  1  0.23143400  0.52614400  0.17600200  1
  Mg  Mg32  1  0.02566700  0.31281100  0.65998300  1
  Mg  Mg33  1  0.81797100  0.35127400  0.44659600  1
  Mg  Mg34  1  0.35711000  0.08829900  0.73157400  1
  Mg  Mg35  1  0.08062700  0.87725400  0.85579800  1
  Mg  Mg36  1  0.52486500  0.70986800  0.24864500  1
  Mg  Mg37  1  0.74310300  0.57949100  0.38454000  1
  Mg  Mg38  1  0.13779800  0.11004000  0.90223700  1
  Mg  Mg39  1  0.84515100  0.18089400  0.83949100  1
  O  O0  1  0.78404300  0.82249100  0.97331700  1
  O  O1  1  0.51177900  0.29171900  0.10391700  1
  O  O2  1  0.07913700  0.48686900  0.74868700  1
  O  O3  1  0.70183800  0.02352800  0.18303200  1
  O  O4  1  0.44407400  0.77507800  0.65162200  1
  O  O5  1  0.53407400  0.59545000  0.41314000  1
  O  O6  1  0.55242100  0.86192700  0.36622100  1
  O  O7  1  0.76959600  0.68887500  0.59189100  1
  O  O8  1  0.24157000  0.86162500  0.30411300  1
  O  O9  1  0.99241100  0.72566200  0.78389700  1
  O  O10  1  0.07814900  0.66899800  0.13928900  1
  O  O11  1  0.85044000  0.49485100  0.97634000  1
  O  O12  1  0.37631200  0.01758100  0.52670200  1
  O  O13  1  0.14088000  0.36989300  0.15547000  1
  O  O14  1  0.28873000  0.12112500  0.26093200  1
  O  O15  1  0.95070300  0.47427200  0.44253300  1
  O  O16  1  0.21951000  0.96785900  0.76132200  1
  O  O17  1  0.67482800  0.29214600  0.84102700  1
  O  O18  1  0.35117100  0.52957200  0.70565900  1
  O  O19  1  0.30101400  0.19612400  0.91680300  1
  O  O20  1  0.07132300  0.99239400  0.04682100  1
  O  O21  1  0.84391200  0.21408800  0.06973200  1
  O  O22  1  0.44985300  0.85022900  0.07504600  1
  O  O23  1  0.94338800  0.89938800  0.31880200  1
  O  O24  1  0.60181800  0.59706200  0.85472200  1
  O  O25  1  0.53422500  0.25182300  0.41187500  1
  O  O26  1  0.91501100  0.00128200  0.79370300  1
  O  O27  1  0.73581200  0.95124100  0.56899300  1
  O  O28  1  0.38764500  0.60337100  0.11495500  1
  O  O29  1  0.17586700  0.71422700  0.53152100  1
  O  O30  1  0.73985100  0.69234400  0.21928500  1
  O  O31  1  0.18557800  0.28371200  0.54145900  1
  O  O32  1  0.70904500  0.39840700  0.27462000  1
  O  O33  1  0.52161400  0.00154500  0.83855200  1
  O  O34  1  0.69569000  0.44126600  0.59437600  1
  O  O35  1  0.30362200  0.46868500  0.36266600  1
  O  O36  1  0.25219600  0.74383900  0.89265000  1
  O  O37  1  0.43604100  0.24415600  0.68985300  1
  O  O38  1  0.01533200  0.25125400  0.85083800  1
  O  O39  1  0.87857300  0.21362700  0.56676700  1
loop_
_geom_bond_atom_site_label_1
_geom_bond_atom_site_label_2
_geom_bond_distance
_geom_bond_site_symmetry_2
Mg0 O24 1.896785 1_554
Mg0 O30 1.972975 1_555
Mg0 O0 2.028747 1_554
Mg0 O11 2.105054 1_554
Mg1 O36 1.959127 1_555
Mg1 O29 2.002564 1_555
Mg1 O18 2.004444 1_555
Mg1 O9 2.090245 1_455
Mg1 O2 2.103061 1_555
Mg2 O32 1.953879 1_555
Mg2 O21 2.028036 1_555
Mg2 O17 2.111220 1_554
Mg2 O1 2.142555 1_555
Mg2 O11 2.441875 1_554
Mg3 O27 1.977865 1_555
Mg3 O6 1.981119 1_555
Mg3 O12 2.068591 1_565
Mg3 O4 2.072879 1_555
Mg3 O33 2.504449 1_565
Mg4 O35 1.982521 1_555
Mg4 O5 2.024303 1_555
Mg4 O18 2.048916 1_555
Mg4 O29 2.071892 1_555
Mg4 O4 2.426117 1_555
Mg5 O36 1.935056 1_554
Mg5 O8 2.036399 1_555
Mg5 O28 2.044084 1_555
Mg5 O22 2.089717 1_555
Mg5 O10 2.406038 1_555
Mg6 O1 2.022101 1_556
Mg6 O37 2.032311 1_555
Mg6 O17 2.076535 1_555
Mg6 O19 2.115467 1_555
Mg6 O33 2.308989 1_555
Mg7 O7 1.992316 1_555
Mg7 O4 2.082035 1_555
Mg7 O24 2.082292 1_555
Mg7 O5 2.112401 1_555
Mg7 O34 2.187345 1_555
Mg8 O31 1.986696 1_555
Mg8 O35 2.002388 1_555
Mg8 O15 2.018989 1_455
Mg8 O13 2.085970 1_555
Mg9 O9 2.103354 1_555
Mg9 O7 2.111145 1_555
Mg9 O26 2.132088 1_565
Mg9 O27 2.165335 1_555
Mg9 O0 2.186044 1_555
Mg10 O18 1.946951 1_555
Mg10 O37 1.981353 1_555
Mg10 O31 2.007840 1_555
Mg10 O2 2.293198 1_555
Mg11 O12 2.006791 1_565
Mg11 O4 2.058218 1_555
Mg11 O29 2.080355 1_555
Mg11 O16 2.104503 1_555
Mg11 O8 2.373492 1_555
Mg12 O7 1.948850 1_555
Mg12 O15 1.978707 1_555
Mg12 O9 2.067106 1_555
Mg12 O2 2.146957 1_655
Mg13 O20 1.923973 1_545
Mg13 O8 1.984148 1_545
Mg13 O14 1.998401 1_555
Mg13 O23 2.574819 1_445
Mg14 O2 2.024970 1_555
Mg14 O11 2.051430 1_455
Mg14 O9 2.055109 1_455
Mg14 O10 2.177106 1_556
Mg15 O30 2.025225 1_555
Mg15 O23 2.026179 1_555
Mg15 O0 2.049359 1_554
Mg15 O10 2.057175 1_655
Mg16 O13 1.947926 1_655
Mg16 O38 1.961334 1_654
Mg16 O21 2.069749 1_555
Mg16 O11 2.122948 1_554
Mg17 O21 1.986607 1_555
Mg17 O20 2.024489 1_645
Mg17 O3 2.034484 1_555
Mg17 O0 2.597679 1_544
Mg18 O34 1.906230 1_555
Mg18 O24 1.972419 1_555
Mg18 O17 1.980618 1_555
Mg18 O11 2.019284 1_555
Mg19 O6 1.894749 1_555
Mg19 O14 2.016849 1_565
Mg19 O8 2.056183 1_555
Mg19 O12 2.156129 1_565
Mg19 O22 2.314147 1_555
Mg20 O27 1.891164 1_545
Mg20 O39 1.928159 1_555
Mg20 O26 2.033957 1_555
Mg21 O6 1.925965 1_555
Mg21 O27 1.998597 1_555
Mg21 O3 2.086217 1_565
Mg21 O23 2.171944 1_555
Mg21 O30 2.526622 1_555
Mg22 O3 1.989940 1_565
Mg22 O22 1.996591 1_555
Mg22 O33 2.024129 1_564
Mg22 O0 2.076215 1_554
Mg23 O24 1.937548 1_555
Mg23 O18 1.982849 1_555
Mg23 O28 2.013490 1_556
Mg23 O36 2.136282 1_555
Mg24 O37 1.946890 1_555
Mg24 O25 1.982079 1_555
Mg24 O34 2.021138 1_555
Mg24 O17 2.178169 1_555
Mg25 O25 1.933503 1_555
Mg25 O3 1.942724 1_555
Mg25 O1 2.028634 1_555
Mg25 O32 2.381022 1_555
Mg25 O21 2.683132 1_555
Mg26 O29 1.935255 1_555
Mg26 O8 1.969238 1_555
Mg26 O23 2.022794 1_455
Mg26 O10 2.127097 1_555
Mg27 O36 2.051141 1_555
Mg27 O4 2.066872 1_555
Mg27 O33 2.128747 1_565
Mg27 O22 2.129910 1_556
Mg27 O16 2.131205 1_555
Mg28 O19 1.945001 1_554
Mg28 O14 1.974803 1_555
Mg28 O13 2.076132 1_555
Mg28 O1 2.135882 1_555
Mg29 O12 2.013944 1_555
Mg29 O31 2.031213 1_555
Mg29 O25 2.032438 1_555
Mg29 O14 2.107203 1_555
Mg29 O37 2.211702 1_555
Mg30 O5 2.036049 1_555
Mg30 O25 2.077851 1_555
Mg30 O35 2.090441 1_555
Mg30 O32 2.096799 1_555
Mg30 O1 2.341688 1_555
Mg31 O35 1.964727 1_555
Mg31 O28 1.980162 1_555
Mg31 O13 2.000499 1_555
Mg31 O10 2.113948 1_555
Mg32 O38 1.936432 1_555
Mg32 O31 1.959179 1_555
Mg32 O39 2.046294 1_455
Mg32 O2 2.105816 1_555
Mg33 O32 1.967134 1_555
Mg33 O39 1.967453 1_555
Mg33 O34 1.985230 1_555
Mg33 O15 1.991285 1_555
Mg34 O12 1.973826 1_555
Mg34 O37 2.013634 1_555
Mg34 O19 2.037417 1_555
Mg34 O16 2.044468 1_545
Mg34 O33 2.082916 1_555
Mg35 O9 2.002869 1_455
Mg35 O16 2.049555 1_555
Mg35 O20 2.059344 1_556
Mg35 O26 2.129676 1_465
Mg35 O36 2.176339 1_555
Mg36 O6 1.930370 1_555
Mg36 O5 2.029204 1_555
Mg36 O28 2.176212 1_555
Mg36 O30 2.183772 1_555
Mg36 O22 2.351608 1_555
Mg37 O30 2.026802 1_555
Mg37 O5 2.123690 1_555
Mg37 O7 2.175709 1_555
Mg37 O32 2.183015 1_555
Mg37 O15 2.349022 1_555
Mg37 O34 2.625467 1_555
Mg38 O38 1.947220 1_555
Mg38 O19 1.973392 1_555
Mg38 O16 2.045743 1_545
Mg38 O20 2.090296 1_546
Mg39 O38 1.948821 1_655
Mg39 O17 1.995598 1_555
Mg39 O26 2.014826 1_555
Mg39 O21 2.110654 1_556
Mg39 O39 2.593935 1_555
