# generated using pymatgen
data_Ce2Zn2Sn2H3
_symmetry_space_group_name_H-M   'P 1'
_cell_length_a   4.40305879
_cell_length_b   4.40305879
_cell_length_c   17.99014500
_cell_angle_alpha   90.00000000
_cell_angle_beta   90.00000000
_cell_angle_gamma   120.00001194
_symmetry_Int_Tables_number   1
_chemical_formula_structural   Ce2Zn2Sn2H3
_chemical_formula_sum   'Ce4 Zn4 Sn4 H6'
_cell_volume   302.04678163
_cell_formula_units_Z   2
loop_
 _symmetry_equiv_pos_site_id
 _symmetry_equiv_pos_as_xyz
  1  'x, y, z'
loop_
 _atom_site_type_symbol
 _atom_site_label
 _atom_site_symmetry_multiplicity
 _atom_site_fract_x
 _atom_site_fract_y
 _atom_site_fract_z
 _atom_site_occupancy
  Ce  Ce0  1  0.00000000  0.00000000  0.50061500  1
  Ce  Ce1  1  0.00000000  0.00000000  0.00061500  1
  Ce  Ce2  1  0.00000000  0.00000000  0.25132800  1
  Ce  Ce3  1  0.00000000  0.00000000  0.75132800  1
  Zn  Zn0  1  0.33333300  0.66666700  0.38313700  1
  Zn  Zn1  1  0.66666700  0.33333300  0.88313700  1
  Zn  Zn2  1  0.33333300  0.66666700  0.11741900  1
  Zn  Zn3  1  0.66666700  0.33333300  0.61741900  1
  Sn  Sn0  1  0.33333300  0.66666700  0.86421700  1
  Sn  Sn1  1  0.66666700  0.33333300  0.36421700  1
  Sn  Sn2  1  0.33333300  0.66666700  0.63910700  1
  Sn  Sn3  1  0.66666700  0.33333300  0.13910700  1
  H  H0  1  0.33333300  0.66666700  0.48719800  1
  H  H1  1  0.66666700  0.33333300  0.98719800  1
  H  H2  1  0.33333300  0.66666700  0.25455500  1
  H  H3  1  0.66666700  0.33333300  0.75455500  1
  H  H4  1  0.33333300  0.66666700  0.01542300  1
  H  H5  1  0.66666700  0.33333300  0.51542300  1
loop_
_geom_bond_atom_site_label_1
_geom_bond_atom_site_label_2
_geom_bond_distance
_geom_bond_site_symmetry_2
Ce0 H0 2.553538 1_545
Ce0 H0 2.553542 1_555
Ce0 H0 2.553542 1_445
Ce0 H5 2.556025 1_455
Ce0 H5 2.556029 1_555
Ce0 H5 2.556029 1_445
Ce1 H1 2.553538 1_454
Ce1 H1 2.553542 1_444
Ce1 H1 2.553542 1_554
Ce1 H4 2.556025 1_545
Ce1 H4 2.556029 1_555
Ce1 H4 2.556029 1_445
Ce2 H2 2.542768 1_545
Ce2 H2 2.542771 1_555
Ce2 H2 2.542771 1_445
Ce2 Sn3 3.246250 1_455
Ce2 Sn3 3.246253 1_555
Ce2 Sn3 3.246253 1_445
Ce3 H3 2.542768 1_455
Ce3 H3 2.542771 1_445
Ce3 H3 2.542771 1_555
Ce3 Sn2 3.246250 1_545
Ce3 Sn2 3.246253 1_445
Ce3 Sn2 3.246253 1_555
Sn0 Zn1 2.564790 1_455
Sn0 Zn1 2.564790 1_565
Sn0 Zn1 2.564798 1_555
Sn1 Zn0 2.564790 1_545
Sn1 Zn0 2.564790 1_655
Sn1 Zn0 2.564798 1_555
Sn2 Zn3 2.571872 1_455
Sn2 Zn3 2.571872 1_565
Sn2 Zn3 2.571880 1_555
Sn3 Zn2 2.571872 1_545
Sn3 Zn2 2.571872 1_655
Sn3 Zn2 2.571880 1_555
H0 Zn0 1.872072 1_555
H1 Zn1 1.872072 1_555
H4 Zn2 1.834923 1_555
H5 Zn3 1.834923 1_555
