# generated using pymatgen
data_FeRh3
_symmetry_space_group_name_H-M   'P 1'
_cell_length_a   5.35342357
_cell_length_b   5.35341785
_cell_length_c   4.31372423
_cell_angle_alpha   90.00000000
_cell_angle_beta   90.00000000
_cell_angle_gamma   119.99995138
_symmetry_Int_Tables_number   1
_chemical_formula_structural   FeRh3
_chemical_formula_sum   'Fe2 Rh6'
_cell_volume   107.06461805
_cell_formula_units_Z   2
loop_
 _symmetry_equiv_pos_site_id
 _symmetry_equiv_pos_as_xyz
  1  'x, y, z'
loop_
 _atom_site_type_symbol
 _atom_site_label
 _atom_site_symmetry_multiplicity
 _atom_site_fract_x
 _atom_site_fract_y
 _atom_site_fract_z
 _atom_site_occupancy
  Fe  Fe0  1  0.33333400  0.66666700  0.74999900  1
  Fe  Fe1  1  0.66666500  0.33333200  0.25000000  1
  Rh  Rh0  1  0.16779913  0.33559626  0.25000000  1
  Rh  Rh1  1  0.66440074  0.83219887  0.25000000  1
  Rh  Rh2  1  0.16779913  0.83219987  0.25000000  1
  Rh  Rh3  1  0.83220083  0.66440467  0.74999900  1
  Rh  Rh4  1  0.33559533  0.16779817  0.74999900  1
  Rh  Rh5  1  0.83220183  0.16779817  0.74999900  1
loop_
_geom_bond_atom_site_label_1
_geom_bond_atom_site_label_2
_geom_bond_distance
_geom_bond_site_symmetry_2
Fe0 Rh1 2.647250 1_555
Fe0 Rh2 2.647251 1_555
Fe0 Rh1 2.647257 1_556
Fe0 Rh2 2.647258 1_556
Fe0 Rh0 2.647260 1_555
Fe0 Rh0 2.647267 1_556
Fe0 Rh3 2.676722 1_555
Fe0 Rh4 2.676727 1_555
Fe0 Rh5 2.676730 1_565
Fe0 Rh4 2.676732 1_565
Fe0 Rh5 2.676736 1_455
Fe0 Rh3 2.676743 1_455
Fe1 Rh4 2.647258 1_555
Fe1 Rh5 2.647259 1_555
Fe1 Rh4 2.647265 1_554
Fe1 Rh3 2.647265 1_555
Fe1 Rh5 2.647266 1_554
Fe1 Rh3 2.647272 1_554
Fe1 Rh0 2.676722 1_555
Fe1 Rh1 2.676724 1_555
Fe1 Rh2 2.676728 1_545
Fe1 Rh1 2.676735 1_545
Fe1 Rh2 2.676738 1_655
Fe1 Rh0 2.676743 1_655
Rh0 Rh1 2.658522 1_555
Rh0 Rh2 2.658527 1_555
Rh0 Rh4 2.659474 1_555
Rh0 Rh4 2.659481 1_554
Rh0 Rh5 2.659483 1_455
Rh0 Rh5 2.659490 1_454
Rh0 Rh2 2.694891 1_545
Rh0 Rh1 2.694903 1_445
Rh1 Rh2 2.658521 1_555
Rh1 Rh3 2.659474 1_555
Rh1 Rh3 2.659481 1_554
Rh1 Rh5 2.659488 1_565
Rh1 Rh5 2.659495 1_564
Rh1 Rh2 2.694902 1_655
Rh2 Rh4 2.659485 1_565
Rh2 Rh3 2.659486 1_455
Rh2 Rh4 2.659492 1_564
Rh2 Rh3 2.659493 1_454
Rh3 Rh4 2.658543 1_555
Rh3 Rh5 2.658545 1_555
Rh3 Rh5 2.694873 1_565
Rh3 Rh4 2.694882 1_665
Rh4 Rh5 2.658545 1_555
Rh4 Rh5 2.694879 1_455
