# generated using pymatgen
data_Li9Co7O16
_symmetry_space_group_name_H-M   'P 1'
_cell_length_a   6.30240647
_cell_length_b   6.30741300
_cell_length_c   7.41583051
_cell_angle_alpha   75.47000443
_cell_angle_beta   65.23135009
_cell_angle_gamma   72.00717747
_symmetry_Int_Tables_number   1
_chemical_formula_structural   Li9Co7O16
_chemical_formula_sum   'Li9 Co7 O16'
_cell_volume   252.05269201
_cell_formula_units_Z   1
loop_
 _symmetry_equiv_pos_site_id
 _symmetry_equiv_pos_as_xyz
  1  'x, y, z'
loop_
 _atom_site_type_symbol
 _atom_site_label
 _atom_site_symmetry_multiplicity
 _atom_site_fract_x
 _atom_site_fract_y
 _atom_site_fract_z
 _atom_site_occupancy
  Li  Li0  1  0.31442518  0.68680206  0.56469026  1
  Li  Li1  1  0.80552981  0.18376271  0.06064773  1
  Li  Li2  1  0.43695568  0.57151353  0.18253456  1
  Li  Li3  1  0.92705143  0.06026526  0.69553727  1
  Li  Li4  1  0.56304432  0.42848647  0.81746544  1
  Li  Li5  1  0.07294857  0.93973474  0.30446273  1
  Li  Li6  1  0.68557482  0.31319794  0.43530974  1
  Li  Li7  1  0.19447019  0.81623729  0.93935227  1
  Li  Li8  1  0.50000000  0.00000000  0.00000000  1
  Co  Co0  1  0.87189169  0.62805253  0.87615769  1
  Co  Co1  1  0.12810831  0.37194747  0.12384231  1
  Co  Co2  1  0.37568054  0.12368956  0.37222619  1
  Co  Co3  1  -0.00000000  0.50000000  0.50000000  1
  Co  Co4  1  0.62431946  0.87631044  0.62777381  1
  Co  Co5  1  0.25225503  0.24664332  0.75326548  1
  Co  Co6  1  0.74774497  0.75335668  0.24673452  1
  O  O0  1  0.20298483  0.51557922  0.85294009  1
  O  O1  1  0.70174803  0.01784432  0.35191128  1
  O  O2  1  0.32496647  0.38970329  0.47992830  1
  O  O3  1  0.84540853  0.88153215  0.97729332  1
  O  O4  1  0.44478863  0.28084762  0.11226145  1
  O  O5  1  0.95254917  0.76784039  0.60312012  1
  O  O6  1  0.57889279  0.14834865  0.71233501  1
  O  O7  1  0.07585520  0.64172837  0.22862318  1
  O  O8  1  0.42110721  0.85165135  0.28766499  1
  O  O9  1  0.92414480  0.35827163  0.77137682  1
  O  O10  1  0.55521137  0.71915238  0.88773855  1
  O  O11  1  0.04745083  0.23215961  0.39687988  1
  O  O12  1  0.67503353  0.61029671  0.52007170  1
  O  O13  1  0.15459147  0.11846785  0.02270668  1
  O  O14  1  0.79701517  0.48442078  0.14705991  1
  O  O15  1  0.29825197  0.98215568  0.64808872  1
loop_
_geom_bond_atom_site_label_1
_geom_bond_atom_site_label_2
_geom_bond_distance
_geom_bond_site_symmetry_2
Li0 O8 1.989051 1_555
Li0 O15 2.066722 1_555
Li0 O12 2.068812 1_555
Li0 O0 2.069119 1_555
Li0 O5 2.086218 1_455
Li0 O2 2.095295 1_555
Li1 O13 2.016983 1_655
Li1 O4 2.053971 1_555
Li1 O3 2.060175 1_544
Li1 O1 2.072032 1_555
Li1 O9 2.086154 1_554
Li1 O14 2.127875 1_555
Li2 O4 2.009259 1_555
Li2 O10 2.060084 1_554
Li2 O8 2.063210 1_555
Li2 O7 2.072137 1_555
Li2 O14 2.079088 1_555
Li2 O2 2.145648 1_555
Li3 O3 2.043783 1_545
Li3 O6 2.047296 1_555
Li3 O5 2.063103 1_545
Li3 O9 2.085729 1_555
Li3 O15 2.127149 1_645
Li3 O11 2.133487 1_655
Li4 O10 2.009259 1_555
Li4 O4 2.060084 1_556
Li4 O6 2.063210 1_555
Li4 O9 2.072137 1_555
Li4 O0 2.079088 1_555
Li4 O12 2.145648 1_555
Li5 O13 2.043783 1_565
Li5 O8 2.047296 1_555
Li5 O11 2.063103 1_565
Li5 O7 2.085729 1_555
Li5 O1 2.127149 1_465
Li5 O5 2.133487 1_455
Li6 O6 1.989051 1_555
Li6 O1 2.066722 1_555
Li6 O2 2.068812 1_555
Li6 O14 2.069119 1_555
Li6 O11 2.086218 1_655
Li6 O12 2.095295 1_555
Li7 O3 2.016983 1_455
Li7 O10 2.053971 1_555
Li7 O13 2.060175 1_566
Li7 O15 2.072032 1_555
Li7 O7 2.086154 1_556
Li7 O0 2.127875 1_555
Li8 O10 2.017062 1_544
Li8 O4 2.017062 1_555
Li8 O6 2.017592 1_554
Li8 O8 2.017592 1_545
Li8 O13 2.019077 1_555
Li8 O3 2.019077 1_544
Co0 O3 1.865063 1_555
Co0 O10 1.869115 1_555
Co0 O14 1.906799 1_556
Co0 O5 1.911614 1_555
Co0 O9 1.926289 1_555
Co0 O0 1.932064 1_655
Co1 O13 1.865063 1_555
Co1 O4 1.869115 1_555
Co1 O0 1.906799 1_554
Co1 O11 1.911614 1_555
Co1 O7 1.926289 1_555
Co1 O14 1.932064 1_455
Co2 O4 1.869007 1_555
Co2 O8 1.872261 1_545
Co2 O1 1.906552 1_555
Co2 O11 1.911091 1_555
Co2 O2 1.918986 1_555
Co2 O15 1.932986 1_545
Co3 O2 1.901843 1_555
Co3 O12 1.901843 1_455
Co3 O9 1.906024 1_455
Co3 O7 1.906024 1_555
Co3 O11 1.916438 1_555
Co3 O5 1.916438 1_455
Co4 O10 1.869007 1_555
Co4 O6 1.872261 1_565
Co4 O15 1.906552 1_555
Co4 O5 1.911091 1_555
Co4 O12 1.918986 1_555
Co4 O1 1.932986 1_565
Co5 O13 1.868506 1_556
Co5 O6 1.869953 1_555
Co5 O0 1.905677 1_555
Co5 O15 1.907895 1_545
Co5 O2 1.921558 1_555
Co5 O9 1.924879 1_455
Co6 O3 1.868506 1_554
Co6 O8 1.869953 1_555
Co6 O14 1.905677 1_555
Co6 O1 1.907895 1_565
Co6 O12 1.921558 1_555
Co6 O7 1.924879 1_655
