# generated using pymatgen
data_LaPRh
_symmetry_space_group_name_H-M   'P 1'
_cell_length_a   7.75688124
_cell_length_b   7.75688124
_cell_length_c   7.75688124
_cell_angle_alpha   149.04754079
_cell_angle_beta   149.04754079
_cell_angle_gamma   44.34133324
_symmetry_Int_Tables_number   1
_chemical_formula_structural   LaPRh
_chemical_formula_sum   'La2 P2 Rh2'
_cell_volume   123.10043439
_cell_formula_units_Z   2
loop_
 _symmetry_equiv_pos_site_id
 _symmetry_equiv_pos_as_xyz
  1  'x, y, z'
loop_
 _atom_site_type_symbol
 _atom_site_label
 _atom_site_symmetry_multiplicity
 _atom_site_fract_x
 _atom_site_fract_y
 _atom_site_fract_z
 _atom_site_occupancy
  La  La0  1  0.75483718  0.25483718  0.50000000  1
  La  La1  1  0.00483718  0.00483718  -0.00000000  1
  P  P0  1  0.33464551  0.83464551  0.50000000  1
  P  P1  1  0.58464551  0.58464551  -0.00000000  1
  Rh  Rh0  1  0.16771731  0.66771731  0.50000000  1
  Rh  Rh1  1  0.41771731  0.41771731  0.00000000  1
loop_
_geom_bond_atom_site_label_1
_geom_bond_atom_site_label_2
_geom_bond_distance
_geom_bond_site_symmetry_2
La0 Rh1 3.124112 1_555
La0 Rh1 3.124112 1_656
La0 P0 3.143739 1_656
La0 P0 3.143739 1_555
La0 P0 3.143739 1_544
La0 P0 3.143739 1_645
La0 Rh0 3.183553 1_656
La0 Rh0 3.183553 1_544
La0 Rh0 3.183553 1_555
La0 Rh0 3.183553 1_645
La0 P1 3.203549 1_545
La0 P1 3.203549 1_556
La1 Rh0 3.124112 1_544
La1 Rh0 3.124112 1_555
La1 P1 3.143739 1_444
La1 P1 3.143739 1_545
La1 P1 3.143739 1_455
La1 P1 3.143739 1_556
La1 Rh1 3.183553 1_556
La1 Rh1 3.183553 1_455
La1 Rh1 3.183553 1_444
La1 Rh1 3.183553 1_545
La1 P0 3.203549 1_444
La1 P0 3.203549 1_545
P0 Rh1 2.389265 1_555
P0 Rh1 2.389265 1_566
P0 Rh0 2.398213 1_555
P1 Rh0 2.389265 1_554
P1 Rh0 2.389265 1_655
P1 Rh1 2.398213 1_555
