# generated using pymatgen
data_BaU11(GeO19)2
_symmetry_space_group_name_H-M   'P 1'
_cell_length_a   10.29057307
_cell_length_b   10.29047251
_cell_length_c   17.41426270
_cell_angle_alpha   90.00030957
_cell_angle_beta   89.99984518
_cell_angle_gamma   119.99967795
_symmetry_Int_Tables_number   1
_chemical_formula_structural   BaU11(GeO19)2
_chemical_formula_sum   'Ba2 U22 Ge4 O76'
_cell_volume   1597.02608778
_cell_formula_units_Z   2
loop_
 _symmetry_equiv_pos_site_id
 _symmetry_equiv_pos_as_xyz
  1  'x, y, z'
loop_
 _atom_site_type_symbol
 _atom_site_label
 _atom_site_symmetry_multiplicity
 _atom_site_fract_x
 _atom_site_fract_y
 _atom_site_fract_z
 _atom_site_occupancy
  Ba  Ba0  1  0.33338845  0.66669423  0.25000000  1
  Ba  Ba1  1  0.66661155  0.33330577  0.75000000  1
  U  U0  1  0.66666085  0.33333190  0.10164707  1
  U  U1  1  0.33333915  0.66667105  0.60164707  1
  U  U2  1  0.33333915  0.66666810  0.89835293  1
  U  U3  1  0.66666085  0.33332895  0.39835293  1
  U  U4  1  0.33882158  0.35780491  0.05926210  1
  U  U5  1  0.01898251  0.66117210  0.05926419  1
  U  U6  1  0.64219651  0.98101923  0.05926272  1
  U  U7  1  0.66117842  0.01898333  0.55926210  1
  U  U8  1  0.35780349  0.33882271  0.55926272  1
  U  U9  1  0.98101749  0.64218959  0.55926419  1
  U  U10  1  0.66117842  0.64219509  0.94073790  1
  U  U11  1  0.98101749  0.33882790  0.94073581  1
  U  U12  1  0.35780349  0.01898077  0.94073728  1
  U  U13  1  0.33882158  0.98101667  0.44073790  1
  U  U14  1  0.64219651  0.66117729  0.44073728  1
  U  U15  1  0.01898251  0.35781041  0.44073581  1
  U  U16  1  0.27305685  0.13652843  0.25000000  1
  U  U17  1  0.86347257  0.72694198  0.24999979  1
  U  U18  1  0.86347257  0.13653059  0.25000021  1
  U  U19  1  0.72694315  0.86347157  0.75000000  1
  U  U20  1  0.13652743  0.27305802  0.75000021  1
  U  U21  1  0.13652743  0.86346941  0.74999979  1
  Ge  Ge0  1  0.00000055  0.00000084  0.09974380  1
  Ge  Ge1  1  0.99999945  0.00000029  0.59974380  1
  Ge  Ge2  1  0.99999945  0.99999916  0.90025620  1
  Ge  Ge3  1  0.00000055  -0.00000029  0.40025620  1
  O  O0  1  0.98125089  0.82599707  0.12767914  1
  O  O1  1  0.84474524  0.01874948  0.12767882  1
  O  O2  1  0.17400265  0.15525390  0.12767978  1
  O  O3  1  0.01874911  0.84474618  0.62767914  1
  O  O4  1  0.82599735  0.98125125  0.62767978  1
  O  O5  1  0.15525476  0.17400424  0.62767882  1
  O  O6  1  0.01874911  0.17400293  0.87232086  1
  O  O7  1  0.15525476  0.98125052  0.87232118  1
  O  O8  1  0.82599735  0.84474610  0.87232022  1
  O  O9  1  0.98125089  0.15525382  0.37232086  1
  O  O10  1  0.17400265  0.01874875  0.37232022  1
  O  O11  1  0.84474524  0.82599576  0.37232118  1
  O  O12  1  0.35424290  0.49466913  0.13080331  1
  O  O13  1  0.14042214  0.64575775  0.13080246  1
  O  O14  1  0.50534077  0.85958116  0.13080111  1
  O  O15  1  0.64575710  0.14042623  0.63080331  1
  O  O16  1  0.49465923  0.35424039  0.63080111  1
  O  O17  1  0.85957786  0.50533561  0.63080246  1
  O  O18  1  0.64575710  0.50533087  0.86919669  1
  O  O19  1  0.85957786  0.35424225  0.86919754  1
  O  O20  1  0.49465923  0.14041884  0.86919889  1
  O  O21  1  0.35424290  0.85957377  0.36919669  1
  O  O22  1  0.50534077  0.64575961  0.36919889  1
  O  O23  1  0.14042214  0.49466439  0.36919754  1
  O  O24  1  0.46982395  0.28634121  0.15546033  1
  O  O25  1  0.81650306  0.53016639  0.15546166  1
  O  O26  1  0.71365091  0.18348594  0.15545851  1
  O  O27  1  0.53017605  0.81651726  0.65546033  1
  O  O28  1  0.28634909  0.46983503  0.65545851  1
  O  O29  1  0.18349694  0.71366333  0.65546166  1
  O  O30  1  0.53017605  0.71365879  0.84453967  1
  O  O31  1  0.18349694  0.46983361  0.84453834  1
  O  O32  1  0.28634909  0.81651406  0.84454149  1
  O  O33  1  0.46982395  0.18348274  0.34453967  1
  O  O34  1  0.71365091  0.53016497  0.34454149  1
  O  O35  1  0.81650306  0.28633667  0.34453834  1
  O  O36  1  0.54228893  0.13500998  0.03396584  1
  O  O37  1  0.59271494  0.45770834  0.03396533  1
  O  O38  1  0.86498941  0.40728005  0.03396495  1
  O  O39  1  0.45771107  0.59272105  0.53396584  1
  O  O40  1  0.13501059  0.54229064  0.53396495  1
  O  O41  1  0.40728506  0.86499340  0.53396533  1
  O  O42  1  0.45771107  0.86499002  0.96603416  1
  O  O43  1  0.40728506  0.54229166  0.96603467  1
  O  O44  1  0.13501059  0.59271995  0.96603505  1
  O  O45  1  0.54228893  0.40727895  0.46603416  1
  O  O46  1  0.86498941  0.45770936  0.46603505  1
  O  O47  1  0.59271494  0.13500660  0.46603467  1
  O  O48  1  0.32372665  0.22105408  0.98334639  1
  O  O49  1  0.89732438  0.67626961  0.98334859  1
  O  O50  1  0.77894558  0.10267301  0.98334795  1
  O  O51  1  0.67627335  0.89732743  0.48334639  1
  O  O52  1  0.22105442  0.32372743  0.48334795  1
  O  O53  1  0.10267562  0.77894522  0.48334859  1
  O  O54  1  0.67627335  0.77894592  0.01665361  1
  O  O55  1  0.10267562  0.32373039  0.01665141  1
  O  O56  1  0.22105442  0.89732699  0.01665205  1
  O  O57  1  0.32372665  0.10267257  0.51665361  1
  O  O58  1  0.77894558  0.67627257  0.51665205  1
  O  O59  1  0.89732438  0.22105478  0.51665141  1
  O  O60  1  0.00000000  -0.00000000  -0.00000000  1
  O  O61  1  -0.00000000  -0.00000000  0.50000000  1
  O  O62  1  0.28514726  0.97559276  0.21817939  1
  O  O63  1  0.69044168  0.71485429  0.21818005  1
  O  O64  1  0.02440397  0.30954703  0.21818038  1
  O  O65  1  0.71485274  0.69044550  0.71817939  1
  O  O66  1  0.97559603  0.28514306  0.71818038  1
  O  O67  1  0.30955832  0.02441261  0.71818005  1
  O  O68  1  0.71485274  0.02440724  0.78182061  1
  O  O69  1  0.30955832  0.28514571  0.78181995  1
  O  O70  1  0.97559603  0.69045297  0.78181962  1
  O  O71  1  0.28514726  0.30955450  0.28182061  1
  O  O72  1  0.02440397  0.71485694  0.28181962  1
  O  O73  1  0.69044168  0.97558739  0.28181995  1
  O  O74  1  0.99999713  0.99999856  0.25000000  1
  O  O75  1  0.00000287  0.00000144  0.75000000  1
loop_
_geom_bond_atom_site_label_1
_geom_bond_atom_site_label_2
_geom_bond_distance
_geom_bond_site_symmetry_2
Ba0 O14 2.804906 1_555
Ba0 O22 2.804906 1_555
Ba0 O21 2.805032 1_555
Ba0 O12 2.805032 1_555
Ba0 O13 2.805431 1_555
Ba0 O23 2.805431 1_555
Ba1 O20 2.804906 1_555
Ba1 O16 2.804906 1_555
Ba1 O15 2.805032 1_555
Ba1 O18 2.805032 1_555
Ba1 O19 2.805431 1_555
Ba1 O17 2.805431 1_555
Ge0 O60 1.736965 1_555
Ge0 O0 1.770478 1_445
Ge0 O2 1.770481 1_555
Ge0 O1 1.770493 1_455
Ge1 O61 1.736965 1_655
Ge1 O3 1.770478 1_645
Ge1 O4 1.770481 1_545
Ge1 O5 1.770493 1_655
Ge2 O60 1.736965 1_666
Ge2 O6 1.770478 1_665
Ge2 O8 1.770481 1_555
Ge2 O7 1.770493 1_655
Ge3 O61 1.736965 1_555
Ge3 O9 1.770478 1_455
Ge3 O10 1.770481 1_555
Ge3 O11 1.770493 1_445
O0 U5 2.259552 1_655
O0 U17 2.410395 1_555
O1 U6 2.259524 1_545
O1 U18 2.410399 1_555
O2 U4 2.259548 1_555
O2 U16 2.410390 1_555
O3 U9 2.259552 1_455
O3 U21 2.410395 1_555
O4 U7 2.259548 1_565
O4 U19 2.410390 1_555
O5 U8 2.259524 1_555
O5 U20 2.410399 1_555
O6 U11 2.259552 1_455
O6 U20 2.410395 1_555
O7 U12 2.259524 1_565
O7 U21 2.410399 1_555
O8 U10 2.259548 1_555
O8 U19 2.410390 1_555
O9 U15 2.259552 1_655
O9 U18 2.410395 1_555
O10 U13 2.259548 1_545
O10 U16 2.410390 1_555
O11 U14 2.259524 1_555
O11 U17 2.410399 1_555
O12 U4 1.826844 1_555
O13 U5 1.826770 1_555
O14 U6 1.826775 1_555
O15 U7 1.826844 1_555
O16 U8 1.826775 1_555
O17 U9 1.826770 1_555
O18 U10 1.826844 1_555
O19 U11 1.826770 1_555
O20 U12 1.826775 1_555
O21 U13 1.826844 1_555
O22 U14 1.826775 1_555
O23 U15 1.826770 1_555
O24 U0 2.058023 1_555
O24 U16 2.462833 1_555
O24 U4 2.481111 1_555
O25 U0 2.057998 1_555
O25 U17 2.462821 1_555
O25 U5 2.481190 1_655
O26 U0 2.057990 1_555
O26 U18 2.462924 1_555
O26 U6 2.481082 1_545
O27 U1 2.058023 1_555
O27 U19 2.462833 1_555
O27 U7 2.481111 1_565
O28 U1 2.057990 1_555
O28 U20 2.462924 1_555
O28 U8 2.481082 1_555
O29 U1 2.057998 1_555
O29 U21 2.462821 1_555
O29 U9 2.481190 1_455
O30 U2 2.058023 1_555
O30 U19 2.462833 1_555
O30 U10 2.481111 1_555
O31 U2 2.057998 1_555
O31 U20 2.462821 1_555
O31 U11 2.481190 1_455
O32 U2 2.057990 1_555
O32 U21 2.462924 1_555
O32 U12 2.481082 1_565
O33 U3 2.058023 1_555
O33 U16 2.462833 1_555
O33 U13 2.481111 1_545
O34 U3 2.057990 1_555
O34 U17 2.462924 1_555
O34 U14 2.481082 1_555
O35 U3 2.057998 1_555
O35 U18 2.462821 1_555
O35 U15 2.481190 1_655
O36 U0 2.140138 1_555
O36 U6 2.321920 1_545
O36 U12 2.323535 1_554
O37 U0 2.140156 1_555
O37 U4 2.321900 1_555
O37 U10 2.323516 1_554
O38 U0 2.140217 1_555
O38 U5 2.321882 1_655
O38 U11 2.323498 1_554
O39 U1 2.140138 1_555
O39 U8 2.321920 1_555
O39 U14 2.323535 1_555
O40 U1 2.140217 1_555
O40 U9 2.321882 1_455
O40 U15 2.323498 1_555
O41 U1 2.140156 1_555
O41 U7 2.321900 1_565
O41 U13 2.323516 1_555
O42 U2 2.140138 1_555
O42 U12 2.321920 1_565
O42 U6 2.323535 1_556
O43 U2 2.140156 1_555
O43 U10 2.321900 1_555
O43 U4 2.323516 1_556
O44 U2 2.140217 1_555
O44 U11 2.321882 1_455
O44 U5 2.323498 1_556
O45 U3 2.140138 1_555
O45 U14 2.321920 1_555
O45 U8 2.323535 1_555
O46 U3 2.140217 1_555
O46 U15 2.321882 1_655
O46 U9 2.323498 1_555
O47 U3 2.140156 1_555
O47 U13 2.321900 1_545
O47 U7 2.323516 1_555
O48 U4 1.879772 1_556
O48 U12 2.393061 1_555
O49 U5 1.879814 1_656
O49 U10 2.393066 1_555
O50 U6 1.879764 1_546
O50 U11 2.393124 1_555
O51 U7 1.879772 1_565
O51 U14 2.393061 1_555
O52 U8 1.879764 1_555
O52 U15 2.393124 1_555
O53 U9 1.879814 1_455
O53 U13 2.393066 1_555
O54 U10 1.879772 1_554
O54 U6 2.393061 1_555
O55 U11 1.879814 1_454
O55 U4 2.393066 1_555
O56 U12 1.879764 1_564
O56 U5 2.393124 1_555
O57 U13 1.879772 1_545
O57 U8 2.393061 1_555
O58 U14 1.879764 1_555
O58 U9 2.393124 1_555
O59 U15 1.879814 1_655
O59 U7 2.393066 1_555
O62 U16 1.808662 1_565
O63 U17 1.808738 1_555
O64 U18 1.808606 1_455
O65 U19 1.808662 1_555
O66 U20 1.808606 1_655
O67 U21 1.808738 1_545
O68 U19 1.808662 1_545
O69 U20 1.808738 1_555
O70 U21 1.808606 1_655
O71 U16 1.808662 1_555
O72 U17 1.808606 1_455
O73 U18 1.808738 1_565
O74 U17 2.433436 1_555
O74 U18 2.433437 1_565
O74 U16 2.433488 1_665
O75 U20 2.433436 1_555
O75 U21 2.433437 1_545
O75 U19 2.433488 1_445
