# generated using pymatgen
data_CaY2(FeO2)4
_symmetry_space_group_name_H-M   'P 1'
_cell_length_a   6.58466516
_cell_length_b   6.58056894
_cell_length_c   7.47118057
_cell_angle_alpha   52.88375409
_cell_angle_beta   52.81529509
_cell_angle_gamma   57.61634480
_symmetry_Int_Tables_number   1
_chemical_formula_structural   CaY2(FeO2)4
_chemical_formula_sum   'Ca1 Y2 Fe4 O8'
_cell_volume   198.08525563
_cell_formula_units_Z   1
loop_
 _symmetry_equiv_pos_site_id
 _symmetry_equiv_pos_as_xyz
  1  'x, y, z'
loop_
 _atom_site_type_symbol
 _atom_site_label
 _atom_site_symmetry_multiplicity
 _atom_site_fract_x
 _atom_site_fract_y
 _atom_site_fract_z
 _atom_site_occupancy
  Ca  Ca0  1  0.50000000  0.50000000  0.50000000  1
  Y  Y0  1  0.72157700  0.72170700  0.57732300  1
  Y  Y1  1  0.27842300  0.27829300  0.42267700  1
  Fe  Fe0  1  0.00000000  0.50000000  0.00000000  1
  Fe  Fe1  1  0.00000000  0.00000000  0.00000000  1
  Fe  Fe2  1  0.50000000  0.00000000  0.00000000  1
  Fe  Fe3  1  0.00000000  0.00000000  0.50000000  1
  O  O0  1  0.29293300  0.82468600  0.66234100  1
  O  O1  1  0.22862400  0.22932200  0.80343700  1
  O  O2  1  0.17620900  0.70711800  0.33736600  1
  O  O3  1  0.23936000  0.23975700  0.17393700  1
  O  O4  1  0.77137600  0.77067800  0.19656300  1
  O  O5  1  0.70706700  0.17531400  0.33765900  1
  O  O6  1  0.82379100  0.29288200  0.66263400  1
  O  O7  1  0.76064000  0.76024300  0.82606300  1
loop_
_geom_bond_atom_site_label_1
_geom_bond_atom_site_label_2
_geom_bond_distance
_geom_bond_site_symmetry_2
Ca0 O4 2.268149 1_555
Ca0 O1 2.268149 1_555
Ca0 O6 2.428940 1_555
Ca0 O2 2.428940 1_555
Ca0 O5 2.429668 1_555
Ca0 O0 2.429668 1_555
Fe0 O7 2.001080 1_454
Fe0 O3 2.001080 1_555
Fe0 O4 2.282095 1_455
Fe0 O1 2.282095 1_554
Fe0 O0 2.584055 1_554
Fe0 O5 2.584055 1_455
Fe1 O1 1.945953 1_554
Fe1 O4 1.945953 1_445
Fe1 O5 2.581176 1_455
Fe1 O0 2.581176 1_544
Fe1 O2 2.586644 1_545
Fe1 O6 2.586644 1_454
Fe2 O7 2.000378 1_544
Fe2 O3 2.000378 1_555
Fe2 O4 2.288226 1_545
Fe2 O1 2.288226 1_554
Fe2 O2 2.579979 1_545
Fe2 O6 2.579979 1_554
Fe3 O7 2.071668 1_445
Fe3 O3 2.071668 1_555
Fe3 O6 2.294337 1_455
Fe3 O2 2.294337 1_545
Fe3 O5 2.297408 1_455
Fe3 O0 2.297408 1_545
O0 Y0 2.265536 1_555
O0 Y1 2.361405 1_565
O1 Y1 2.486584 1_555
O2 Y1 2.266237 1_555
O2 Y0 2.365895 1_455
O3 Y1 2.190999 1_555
O4 Y0 2.486584 1_555
O5 Y1 2.265536 1_555
O5 Y0 2.361405 1_545
O6 Y0 2.266237 1_555
O6 Y1 2.365895 1_655
O7 Y0 2.190999 1_555
