# generated using pymatgen
data_BaSrMg2
_symmetry_space_group_name_H-M   'P 1'
_cell_length_a   15.53206546
_cell_length_b   14.32496028
_cell_length_c   14.32496092
_cell_angle_alpha   58.08932927
_cell_angle_beta   57.17104626
_cell_angle_gamma   57.17104433
_symmetry_Int_Tables_number   1
_chemical_formula_structural   BaSrMg2
_chemical_formula_sum   'Ba1 Sr1 Mg2'
_cell_volume   2122.54351783
_cell_formula_units_Z   1
loop_
 _symmetry_equiv_pos_site_id
 _symmetry_equiv_pos_as_xyz
  1  'x, y, z'
loop_
 _atom_site_type_symbol
 _atom_site_label
 _atom_site_symmetry_multiplicity
 _atom_site_fract_x
 _atom_site_fract_y
 _atom_site_fract_z
 _atom_site_occupancy
  Ba  Ba0  1  0.50000000  -0.00000000  -0.00000000  1
  Sr  Sr0  1  -0.00000000  -0.00000000  -0.00000000  1
  Mg  Mg0  1  0.74988169  0.00000000  0.00000000  1
  Mg  Mg1  1  0.25011831  -0.00000000  -0.00000000  1
loop_
_geom_bond_atom_site_label_1
_geom_bond_atom_site_label_2
_geom_bond_distance
_geom_bond_site_symmetry_2
Ba0 Mg1 3.881179 1_555
Ba0 Mg0 3.881179 1_555
Mg0 Sr0 3.884854 1_655
Mg1 Sr0 3.884854 1_555
