# generated using pymatgen
data_LiCO2
_symmetry_space_group_name_H-M   'P 1'
_cell_length_a   15.59126836
_cell_length_b   15.59124378
_cell_length_c   5.57409680
_cell_angle_alpha   89.99966623
_cell_angle_beta   90.00049948
_cell_angle_gamma   120.00031907
_symmetry_Int_Tables_number   1
_chemical_formula_structural   LiCO2
_chemical_formula_sum   'Li18 C18 O36'
_cell_volume   1173.45367850
_cell_formula_units_Z   18
loop_
 _symmetry_equiv_pos_site_id
 _symmetry_equiv_pos_as_xyz
  1  'x, y, z'
loop_
 _atom_site_type_symbol
 _atom_site_label
 _atom_site_symmetry_multiplicity
 _atom_site_fract_x
 _atom_site_fract_y
 _atom_site_fract_z
 _atom_site_occupancy
  Li  Li0  1  0.19666546  0.53557360  0.27099013  1
  Li  Li1  1  0.33890915  0.80333723  0.27099274  1
  Li  Li2  1  0.46442698  0.66108889  0.27100063  1
  Li  Li3  1  0.80333486  0.46442667  0.77099472  1
  Li  Li4  1  0.66109219  0.19666604  0.77098261  1
  Li  Li5  1  0.53557247  0.33890610  0.77099424  1
  Li  Li6  1  0.02178490  0.29659085  0.55339748  1
  Li  Li7  1  0.27480073  0.97821180  0.55338787  1
  Li  Li8  1  0.70341311  0.72519584  0.55341434  1
  Li  Li9  1  0.97821478  0.70341134  0.05342035  1
  Li  Li10  1  0.72519658  0.02178484  0.05339146  1
  Li  Li11  1  0.29658944  0.27480378  0.05340655  1
  Li  Li12  1  0.85982196  0.66518576  0.52243913  1
  Li  Li13  1  0.80536385  0.14018159  0.52243460  1
  Li  Li14  1  0.33481548  0.19463608  0.52244995  1
  Li  Li15  1  0.14017904  0.33481649  0.02244907  1
  Li  Li16  1  0.19463022  0.85982019  0.02244083  1
  Li  Li17  1  0.66517900  0.80535828  0.02244632  1
  C  C0  1  0.14618484  0.49328938  0.75074152  1
  C  C1  1  0.34710602  0.85382165  0.75074630  1
  C  C2  1  0.50671164  0.65288919  0.75074016  1
  C  C3  1  0.85381666  0.50671107  0.25074653  1
  C  C4  1  0.65289403  0.14618351  0.25072640  1
  C  C5  1  0.49328845  0.34710605  0.25074196  1
  C  C6  1  0.86779007  0.33835517  0.71364080  1
  C  C7  1  0.47056353  0.13220988  0.71364444  1
  C  C8  1  0.66164735  0.52943358  0.71364152  1
  C  C9  1  0.13221177  0.66164449  0.21363990  1
  C  C10  1  0.52943426  0.86778664  0.21363693  1
  C  C11  1  0.33835263  0.47056435  0.21364983  1
  C  C12  1  0.97714735  0.20173004  0.04097122  1
  C  C13  1  0.22457686  0.02285133  0.04096529  1
  C  C14  1  0.79826877  0.77541644  0.04098607  1
  C  C15  1  0.02285694  0.79826803  0.54099623  1
  C  C16  1  0.77542366  0.97715290  0.54097418  1
  C  C17  1  0.20173225  0.22458612  0.54098094  1
  O  O0  1  0.12397083  0.44841352  0.55380691  1
  O  O1  1  0.32444465  0.87603105  0.55381090  1
  O  O2  1  0.55159145  0.67555798  0.55380958  1
  O  O3  1  0.87602832  0.55158618  0.05381570  1
  O  O4  1  0.67555708  0.12397046  0.05379889  1
  O  O5  1  0.44841179  0.32444205  0.05380785  1
  O  O6  1  0.85919277  0.53745531  0.46106440  1
  O  O7  1  0.67826275  0.14080998  0.46104920  1
  O  O8  1  0.46254604  0.32173828  0.46105934  1
  O  O9  1  0.14080945  0.46254595  0.96105575  1
  O  O10  1  0.32173220  0.85919432  0.96106203  1
  O  O11  1  0.53745004  0.67825571  0.96105963  1
  O  O12  1  0.78753542  0.33053483  0.77936075  1
  O  O13  1  0.54299983  0.21246512  0.77936196  1
  O  O14  1  0.66946682  0.45699857  0.77936289  1
  O  O15  1  0.21246739  0.66946559  0.27935641  1
  O  O16  1  0.45699910  0.78753055  0.27935664  1
  O  O17  1  0.33053212  0.54299907  0.27936874  1
  O  O18  1  0.88862486  0.27730145  0.62457629  1
  O  O19  1  0.38867312  0.11137429  0.62458579  1
  O  O20  1  0.72270310  0.61132411  0.62458580  1
  O  O21  1  0.11137427  0.72269979  0.12459403  1
  O  O22  1  0.61132395  0.88862237  0.12457734  1
  O  O23  1  0.27729943  0.38867429  0.12458701  1
  O  O24  1  0.79876010  0.02215805  0.34436341  1
  O  O25  1  0.22340033  0.20124090  0.34436943  1
  O  O26  1  0.97784923  0.77660577  0.34438313  1
  O  O27  1  0.20123886  0.97784622  0.84435361  1
  O  O28  1  0.77659600  0.79875819  0.84437963  1
  O  O29  1  0.02215261  0.22339617  0.84436911  1
  O  O30  1  0.00908505  0.23913060  0.24351744  1
  O  O31  1  0.23004145  0.99091430  0.24350084  1
  O  O32  1  0.76087860  0.76995413  0.24352519  1
  O  O33  1  0.99091728  0.76087510  0.74353003  1
  O  O34  1  0.76995926  0.00908977  0.74351271  1
  O  O35  1  0.23912314  0.23004481  0.74351743  1
loop_
_geom_bond_atom_site_label_1
_geom_bond_atom_site_label_2
_geom_bond_distance
_geom_bond_site_symmetry_2
Li0 O15 1.976459 1_555
Li0 O9 2.011925 1_554
Li0 O0 2.018976 1_555
Li0 O17 2.032276 1_555
Li1 O16 1.976506 1_555
Li1 O10 2.011942 1_554
Li1 O1 2.018977 1_555
Li1 O15 2.032310 1_555
Li2 O17 1.976479 1_555
Li2 O11 2.011942 1_554
Li2 O2 2.018965 1_555
Li2 O16 2.032299 1_555
Li3 O12 1.976472 1_555
Li3 O6 2.011917 1_555
Li3 O3 2.018983 1_556
Li3 O14 2.032278 1_555
Li4 O13 1.976476 1_555
Li4 O7 2.011925 1_555
Li4 O4 2.018975 1_556
Li4 O12 2.032298 1_555
Li5 O14 1.976490 1_555
Li5 O8 2.011923 1_555
Li5 O5 2.018983 1_556
Li5 O13 2.032285 1_555
Li6 O30 1.909972 1_555
Li6 O18 1.983385 1_455
Li6 O29 1.984806 1_555
Li6 O0 2.090496 1_555
Li7 O31 1.910003 1_555
Li7 O19 1.983426 1_565
Li7 O27 1.984799 1_555
Li7 O1 2.090516 1_555
Li8 O32 1.910036 1_555
Li8 O20 1.983393 1_555
Li8 O28 1.984725 1_555
Li8 O2 2.090485 1_555
Li9 O33 1.910035 1_554
Li9 O21 1.983370 1_655
Li9 O26 1.984765 1_555
Li9 O3 2.090527 1_555
Li10 O34 1.909964 1_554
Li10 O22 1.983415 1_545
Li10 O24 1.984791 1_555
Li10 O4 2.090536 1_555
Li11 O35 1.910034 1_554
Li11 O23 1.983390 1_555
Li11 O25 1.984749 1_555
Li11 O5 2.090494 1_555
Li12 O20 1.950519 1_555
Li12 O6 2.015834 1_555
Li12 O26 2.047534 1_555
Li12 O33 2.207450 1_555
Li13 O18 1.950521 1_555
Li13 O7 2.015833 1_555
Li13 O24 2.047554 1_555
Li13 O34 2.207375 1_555
Li14 O19 1.950513 1_555
Li14 O8 2.015848 1_555
Li14 O25 2.047515 1_555
Li14 O35 2.207463 1_555
Li15 O23 1.950525 1_555
Li15 O9 2.015823 1_554
Li15 O29 2.047589 1_554
Li15 O30 2.207367 1_555
Li16 O21 1.950536 1_555
Li16 O10 2.015827 1_554
Li16 O27 2.047591 1_554
Li16 O31 2.207333 1_555
Li17 O22 1.950515 1_555
Li17 O11 2.015833 1_554
Li17 O28 2.047483 1_554
Li17 O32 2.207529 1_555
C0 O9 1.253362 1_555
C0 O0 1.253867 1_555
C1 O10 1.253398 1_555
C1 O1 1.253834 1_555
C2 O11 1.253369 1_555
C2 O2 1.253877 1_555
C3 O6 1.253388 1_555
C3 O3 1.253842 1_555
C4 O7 1.253403 1_555
C4 O4 1.253839 1_555
C5 O8 1.253378 1_555
C5 O5 1.253866 1_555
C6 O12 1.249874 1_555
C6 O18 1.251933 1_555
C7 O13 1.249878 1_555
C7 O19 1.251935 1_555
C8 O14 1.249873 1_555
C8 O20 1.251933 1_555
C9 O15 1.249872 1_555
C9 O21 1.251934 1_555
C10 O16 1.249883 1_555
C10 O22 1.251934 1_555
C11 O17 1.249878 1_555
C11 O23 1.251933 1_555
C12 O29 1.253158 1_654
C12 O30 1.253907 1_655
C13 O27 1.253200 1_544
C13 O31 1.253855 1_545
C14 O28 1.253232 1_554
C14 O32 1.253809 1_555
C15 O26 1.253221 1_455
C15 O33 1.253820 1_455
C16 O24 1.253194 1_565
C16 O34 1.253875 1_565
C17 O25 1.253258 1_555
C17 O35 1.253802 1_555
