# generated using pymatgen
data_Sm2AlGe6
_symmetry_space_group_name_H-M   'P 1'
_cell_length_a   6.03243043
_cell_length_b   6.03243043
_cell_length_c   10.61940486
_cell_angle_alpha   81.80229892
_cell_angle_beta   81.80229892
_cell_angle_gamma   92.15599959
_symmetry_Int_Tables_number   1
_chemical_formula_structural   Sm2AlGe6
_chemical_formula_sum   'Sm4 Al2 Ge12'
_cell_volume   377.92244889
_cell_formula_units_Z   2
loop_
 _symmetry_equiv_pos_site_id
 _symmetry_equiv_pos_as_xyz
  1  'x, y, z'
loop_
 _atom_site_type_symbol
 _atom_site_label
 _atom_site_symmetry_multiplicity
 _atom_site_fract_x
 _atom_site_fract_y
 _atom_site_fract_z
 _atom_site_occupancy
  Sm  Sm0  1  0.66526300  0.15978700  0.33882600  1
  Sm  Sm1  1  0.84021300  0.33473700  0.66117400  1
  Sm  Sm2  1  0.33473700  0.84021300  0.66117400  1
  Sm  Sm3  1  0.15978700  0.66526300  0.33882600  1
  Al  Al0  1  0.19871600  0.19871600  0.19896400  1
  Al  Al1  1  0.80128400  0.80128400  0.80103600  1
  Ge  Ge0  1  0.50477400  0.93350900  0.11673400  1
  Ge  Ge1  1  0.06649100  0.49522600  0.88326600  1
  Ge  Ge2  1  0.49522600  0.06649100  0.88326600  1
  Ge  Ge3  1  0.93350900  0.50477400  0.11673400  1
  Ge  Ge4  1  0.63614000  0.63614000  0.41174700  1
  Ge  Ge5  1  0.36386000  0.36386000  0.58825300  1
  Ge  Ge6  1  0.85194500  0.85194500  0.55966900  1
  Ge  Ge7  1  0.14805500  0.14805500  0.44033100  1
  Ge  Ge8  1  0.50914500  0.50914500  0.11698100  1
  Ge  Ge9  1  0.49085500  0.49085500  0.88301900  1
  Ge  Ge10  1  0.93009600  0.93009600  0.11666300  1
  Ge  Ge11  1  0.06990400  0.06990400  0.88333700  1
loop_
_geom_bond_atom_site_label_1
_geom_bond_atom_site_label_2
_geom_bond_distance
_geom_bond_site_symmetry_2
Al0 Ge7 2.510548 1_555
Al0 Ge8 2.564723 1_555
Al0 Ge10 2.574033 1_445
Al0 Ge0 2.625192 1_545
Al0 Ge3 2.625192 1_455
Al0 Sm3 3.331276 1_545
Al0 Sm0 3.331276 1_455
Al0 Sm3 3.365171 1_555
Al0 Sm0 3.365171 1_555
Al1 Ge6 2.510548 1_555
Al1 Ge9 2.564723 1_555
Al1 Ge11 2.574033 1_665
Al1 Ge1 2.625192 1_655
Al1 Ge2 2.625192 1_565
Al1 Sm1 3.331276 1_565
Al1 Sm2 3.331276 1_655
Al1 Sm1 3.365171 1_555
Al1 Sm2 3.365171 1_555
Ge0 Ge2 2.504145 1_564
Ge0 Ge8 2.560705 1_555
Ge0 Ge10 2.566476 1_555
Ge0 Sm3 3.125777 1_555
Ge0 Sm0 3.135730 1_565
Ge1 Ge3 2.504145 1_456
Ge1 Ge9 2.560705 1_555
Ge1 Ge11 2.566476 1_555
Ge1 Sm2 3.125777 1_555
Ge1 Sm1 3.135730 1_455
Ge2 Ge9 2.560705 1_555
Ge2 Sm1 3.125777 1_555
Ge2 Sm2 3.135730 1_545
Ge3 Ge8 2.560705 1_555
Ge3 Sm0 3.125777 1_555
Ge3 Sm3 3.135730 1_655
Ge4 Ge6 2.626007 1_555
Ge4 Ge5 2.636298 1_555
Ge4 Sm3 3.085722 1_555
Ge4 Sm0 3.085722 1_555
Ge4 Sm0 3.135411 1_565
Ge4 Sm3 3.135411 1_655
Ge4 Sm2 3.400322 1_555
Ge4 Sm1 3.400322 1_555
Ge5 Ge7 2.626007 1_555
Ge5 Sm2 3.085722 1_555
Ge5 Sm1 3.085722 1_555
Ge5 Sm1 3.135411 1_455
Ge5 Sm2 3.135411 1_545
Ge5 Sm3 3.400322 1_555
Ge5 Sm0 3.400322 1_555
Ge6 Ge7 2.540927 1_665
Ge6 Sm3 3.144102 1_655
Ge6 Sm0 3.144102 1_565
Ge6 Sm1 3.147061 1_555
Ge6 Sm2 3.147061 1_555
Ge6 Sm2 3.246241 1_655
Ge6 Sm1 3.246241 1_565
Ge7 Sm2 3.144102 1_545
Ge7 Sm1 3.144102 1_455
Ge7 Sm0 3.147061 1_555
Ge7 Sm3 3.147061 1_555
Ge7 Sm3 3.246241 1_545
Ge7 Sm0 3.246241 1_455
Ge8 Ge9 2.520458 1_554
Ge8 Sm3 3.200726 1_555
Ge8 Sm0 3.200726 1_555
Ge9 Sm2 3.200726 1_555
Ge9 Sm1 3.200726 1_555
Ge10 Ge11 2.513283 1_664
Ge10 Ge3 2.566476 1_555
Ge10 Sm3 3.172080 1_655
Ge10 Sm0 3.172080 1_565
Ge11 Ge2 2.566476 1_555
Ge11 Sm1 3.172080 1_455
Ge11 Sm2 3.172080 1_545
