# generated using pymatgen
data_K3TiCl6
_symmetry_space_group_name_H-M   'P 1'
_cell_length_a   7.54326367
_cell_length_b   12.11501287
_cell_length_c   12.60807057
_cell_angle_alpha   71.85159891
_cell_angle_beta   90.00000000
_cell_angle_gamma   90.00000000
_symmetry_Int_Tables_number   1
_chemical_formula_structural   K3TiCl6
_chemical_formula_sum   'K12 Ti4 Cl24'
_cell_volume   1094.89134824
_cell_formula_units_Z   4
loop_
 _symmetry_equiv_pos_site_id
 _symmetry_equiv_pos_as_xyz
  1  'x, y, z'
loop_
 _atom_site_type_symbol
 _atom_site_label
 _atom_site_symmetry_multiplicity
 _atom_site_fract_x
 _atom_site_fract_y
 _atom_site_fract_z
 _atom_site_occupancy
  K  K0  1  0.42955343  0.38449567  0.82016275  1
  K  K1  1  0.92955343  0.11550433  0.17983725  1
  K  K2  1  0.57044657  0.61550433  0.17983725  1
  K  K3  1  0.07044657  0.88449567  0.82016275  1
  K  K4  1  0.56390023  0.73572463  0.81631173  1
  K  K5  1  0.06390023  0.76427537  0.18368827  1
  K  K6  1  0.43609977  0.26427537  0.18368827  1
  K  K7  1  0.93609977  0.23572463  0.81631173  1
  K  K8  1  0.53324702  0.86060899  0.40215847  1
  K  K9  1  0.03324702  0.63939101  0.59784153  1
  K  K10  1  0.46675298  0.13939101  0.59784153  1
  K  K11  1  0.96675298  0.36060899  0.40215847  1
  Ti  Ti0  1  0.00000000  0.50000000  -0.00000000  1
  Ti  Ti1  1  0.50000000  0.00000000  -0.00000000  1
  Ti  Ti2  1  0.00000000  0.00000000  0.50000000  1
  Ti  Ti3  1  0.50000000  0.50000000  0.50000000  1
  Cl  Cl0  1  0.20068484  0.50724553  0.14546892  1
  Cl  Cl1  1  0.70068484  0.99275447  0.85453108  1
  Cl  Cl2  1  0.79931516  0.49275447  0.85453108  1
  Cl  Cl3  1  0.29931516  0.00724553  0.14546892  1
  Cl  Cl4  1  0.20765278  0.60341392  0.85131399  1
  Cl  Cl5  1  0.70765278  0.89658608  0.14868601  1
  Cl  Cl6  1  0.79234722  0.39658608  0.14868601  1
  Cl  Cl7  1  0.29234722  0.10341392  0.85131399  1
  Cl  Cl8  1  0.86694021  0.68630446  0.99910068  1
  Cl  Cl9  1  0.36694021  0.81369554  0.00089932  1
  Cl  Cl10  1  0.13305979  0.31369554  0.00089932  1
  Cl  Cl11  1  0.63305979  0.18630446  0.99910068  1
  Cl  Cl12  1  0.27376027  0.90366531  0.59816842  1
  Cl  Cl13  1  0.77376027  0.59633469  0.40183158  1
  Cl  Cl14  1  0.72623973  0.09633469  0.40183158  1
  Cl  Cl15  1  0.22623973  0.40366531  0.59816842  1
  Cl  Cl16  1  0.00894572  0.87832539  0.38407858  1
  Cl  Cl17  1  0.50894572  0.62167461  0.61592142  1
  Cl  Cl18  1  0.99105428  0.12167461  0.61592142  1
  Cl  Cl19  1  0.49105428  0.37832539  0.38407858  1
  Cl  Cl20  1  0.68298192  0.35295253  0.63060992  1
  Cl  Cl21  1  0.18298192  0.14704747  0.36939008  1
  Cl  Cl22  1  0.31701808  0.64704747  0.36939008  1
  Cl  Cl23  1  0.81701808  0.85295253  0.63060992  1
loop_
_geom_bond_atom_site_label_1
_geom_bond_atom_site_label_2
_geom_bond_distance
_geom_bond_site_symmetry_2
Cl0 Ti0 2.400730 1_555
Cl0 K2 3.168861 1_555
Cl0 K6 3.341666 1_555
Cl0 K5 3.453704 1_555
Cl0 K11 3.627974 1_455
Cl1 Ti1 2.400730 1_566
Cl1 K3 3.168861 1_655
Cl1 K7 3.341666 1_565
Cl1 K4 3.453704 1_555
Cl1 K10 3.627974 1_565
Cl2 Ti0 2.400730 1_656
Cl2 K0 3.168861 1_555
Cl2 K4 3.341666 1_555
Cl2 K7 3.453704 1_555
Cl2 K9 3.627974 1_655
Cl3 Ti1 2.400730 1_555
Cl3 K1 3.168861 1_455
Cl3 K5 3.341666 1_545
Cl3 K6 3.453704 1_555
Cl3 K8 3.627974 1_545
Cl4 Ti0 2.464624 1_556
Cl4 K4 3.089486 1_555
Cl4 K0 3.261766 1_555
Cl4 K9 3.356507 1_555
Cl4 K3 3.462426 1_555
Cl5 Ti1 2.464624 1_565
Cl5 K5 3.089486 1_655
Cl5 K1 3.261766 1_565
Cl5 K8 3.356507 1_555
Cl5 K2 3.462426 1_555
Cl6 Ti0 2.464624 1_655
Cl6 K6 3.089486 1_555
Cl6 K2 3.261766 1_555
Cl6 K11 3.356507 1_555
Cl6 K1 3.462426 1_555
Cl7 Ti1 2.464624 1_556
Cl7 K7 3.089486 1_455
Cl7 K3 3.261766 1_545
Cl7 K10 3.356507 1_555
Cl7 K0 3.462426 1_555
Cl8 Ti0 2.466987 1_656
Cl8 K2 3.116540 1_556
Cl8 K3 3.136401 1_655
Cl8 K5 3.144119 1_656
Cl8 K4 3.167891 1_555
Cl9 Ti1 2.466987 1_565
Cl9 K3 3.116540 1_554
Cl9 K2 3.136401 1_555
Cl9 K4 3.144119 1_554
Cl9 K5 3.167891 1_555
Cl10 Ti0 2.466987 1_555
Cl10 K0 3.116540 1_554
Cl10 K1 3.136401 1_455
Cl10 K7 3.144119 1_454
Cl10 K6 3.167891 1_555
Cl11 Ti1 2.466987 1_556
Cl11 K1 3.116540 1_556
Cl11 K0 3.136401 1_555
Cl11 K6 3.144119 1_556
Cl11 K7 3.167891 1_555
Cl12 Ti2 2.501716 1_565
Cl12 K3 3.136085 1_555
Cl12 K10 3.204330 1_565
Cl12 K8 3.318710 1_555
Cl12 K4 3.606673 1_555
Cl12 K9 3.681108 1_555
Cl13 Ti3 2.501716 1_555
Cl13 K2 3.136085 1_555
Cl13 K11 3.204330 1_555
Cl13 K9 3.318710 1_655
Cl13 K5 3.606673 1_655
Cl13 K8 3.681108 1_555
Cl14 Ti2 2.501716 1_655
Cl14 K1 3.136085 1_555
Cl14 K8 3.204330 1_545
Cl14 K10 3.318710 1_555
Cl14 K6 3.606673 1_555
Cl14 K11 3.681108 1_555
Cl15 Ti3 2.501716 1_555
Cl15 K0 3.136085 1_555
Cl15 K9 3.204330 1_555
Cl15 K11 3.318710 1_455
Cl15 K7 3.606673 1_455
Cl15 K10 3.681108 1_555
Cl16 Ti2 2.378180 1_565
Cl16 K1 3.261417 1_465
Cl16 K5 3.261761 1_555
Cl16 K9 3.288852 1_555
Cl16 K8 3.597721 1_455
Cl17 Ti3 2.378180 1_555
Cl17 K0 3.261417 1_555
Cl17 K4 3.261761 1_555
Cl17 K8 3.288852 1_555
Cl17 K9 3.597721 1_555
Cl18 Ti2 2.378180 1_655
Cl18 K3 3.261417 1_645
Cl18 K7 3.261761 1_555
Cl18 K11 3.288852 1_555
Cl18 K10 3.597721 1_655
Cl19 Ti3 2.378180 1_555
Cl19 K2 3.261417 1_555
Cl19 K6 3.261761 1_555
Cl19 K10 3.288852 1_555
Cl19 K11 3.597721 1_555
Cl20 Ti3 2.441940 1_555
Cl20 K7 3.012140 1_555
Cl20 K0 3.175073 1_555
Cl20 K10 3.192352 1_555
Cl20 K11 3.566577 1_555
Cl21 Ti2 2.441940 1_555
Cl21 K6 3.012140 1_555
Cl21 K1 3.175073 1_455
Cl21 K11 3.192352 1_455
Cl21 K10 3.566577 1_555
Cl22 Ti3 2.441940 1_555
Cl22 K5 3.012140 1_555
Cl22 K2 3.175073 1_555
Cl22 K8 3.192352 1_555
Cl22 K9 3.566577 1_555
Cl23 Ti2 2.441940 1_665
Cl23 K4 3.012140 1_555
Cl23 K3 3.175073 1_655
Cl23 K9 3.192352 1_655
Cl23 K8 3.566577 1_555
