# generated using pymatgen
data_Eu(SeO4)2
_symmetry_space_group_name_H-M   'P 1'
_cell_length_a   9.54724400
_cell_length_b   14.05531000
_cell_length_c   10.27500600
_cell_angle_alpha   90.00000000
_cell_angle_beta   90.00000000
_cell_angle_gamma   90.00000000
_symmetry_Int_Tables_number   1
_chemical_formula_structural   Eu(SeO4)2
_chemical_formula_sum   'Eu8 Se16 O64'
_cell_volume   1378.79765116
_cell_formula_units_Z   8
loop_
 _symmetry_equiv_pos_site_id
 _symmetry_equiv_pos_as_xyz
  1  'x, y, z'
loop_
 _atom_site_type_symbol
 _atom_site_label
 _atom_site_symmetry_multiplicity
 _atom_site_fract_x
 _atom_site_fract_y
 _atom_site_fract_z
 _atom_site_occupancy
  Eu  Eu0  1  0.72095300  0.60512800  0.45281400  1
  Eu  Eu1  1  0.22095300  0.89487200  0.54718600  1
  Eu  Eu2  1  0.27904700  0.10512800  0.04718600  1
  Eu  Eu3  1  0.77904700  0.39487200  0.95281400  1
  Eu  Eu4  1  0.27904700  0.39487200  0.54718600  1
  Eu  Eu5  1  0.77904700  0.10512800  0.45281400  1
  Eu  Eu6  1  0.72095300  0.89487200  0.95281400  1
  Eu  Eu7  1  0.22095300  0.60512800  0.04718600  1
  Se  Se0  1  0.31579000  0.85005000  0.90054100  1
  Se  Se1  1  0.81579000  0.64995000  0.09945900  1
  Se  Se2  1  0.68421000  0.35005000  0.59945900  1
  Se  Se3  1  0.18421000  0.14995000  0.40054100  1
  Se  Se4  1  0.68421000  0.14995000  0.09945900  1
  Se  Se5  1  0.18421000  0.35005000  0.90054100  1
  Se  Se6  1  0.31579000  0.64995000  0.40054100  1
  Se  Se7  1  0.81579000  0.85005000  0.59945900  1
  Se  Se8  1  0.99980500  0.93515300  0.22013800  1
  Se  Se9  1  0.49980500  0.56484700  0.77986200  1
  Se  Se10  1  0.00019500  0.43515300  0.27986200  1
  Se  Se11  1  0.50019500  0.06484700  0.72013800  1
  Se  Se12  1  0.00019500  0.06484700  0.77986200  1
  Se  Se13  1  0.50019500  0.43515300  0.22013800  1
  Se  Se14  1  0.99980500  0.56484700  0.72013800  1
  Se  Se15  1  0.49980500  0.93515300  0.27986200  1
  O  O0  1  0.24163100  0.77620900  0.00592100  1
  O  O1  1  0.74163100  0.72379100  0.99407900  1
  O  O2  1  0.75836900  0.27620900  0.49407900  1
  O  O3  1  0.25836900  0.22379100  0.50592100  1
  O  O4  1  0.75836900  0.22379100  0.99407900  1
  O  O5  1  0.25836900  0.27620900  0.00592100  1
  O  O6  1  0.24163100  0.72379100  0.50592100  1
  O  O7  1  0.74163100  0.77620900  0.49407900  1
  O  O8  1  0.26358200  0.81925200  0.75147800  1
  O  O9  1  0.76358200  0.68074800  0.24852200  1
  O  O10  1  0.73641800  0.31925200  0.74852200  1
  O  O11  1  0.23641800  0.18074800  0.25147800  1
  O  O12  1  0.73641800  0.18074800  0.24852200  1
  O  O13  1  0.23641800  0.31925200  0.75147800  1
  O  O14  1  0.26358200  0.68074800  0.25147800  1
  O  O15  1  0.76358200  0.81925200  0.74852200  1
  O  O16  1  0.48909600  0.84304500  0.91573500  1
  O  O17  1  0.98909600  0.65695500  0.08426500  1
  O  O18  1  0.51090400  0.34304500  0.58426500  1
  O  O19  1  0.01090400  0.15695500  0.41573500  1
  O  O20  1  0.51090400  0.15695500  0.08426500  1
  O  O21  1  0.01090400  0.34304500  0.91573500  1
  O  O22  1  0.48909600  0.65695500  0.41573500  1
  O  O23  1  0.98909600  0.84304500  0.58426500  1
  O  O24  1  0.26347000  0.96153400  0.92524400  1
  O  O25  1  0.76347000  0.53846600  0.07475600  1
  O  O26  1  0.73653000  0.46153400  0.57475600  1
  O  O27  1  0.23653000  0.03846600  0.42524400  1
  O  O28  1  0.73653000  0.03846600  0.07475600  1
  O  O29  1  0.23653000  0.46153400  0.92524400  1
  O  O30  1  0.26347000  0.53846600  0.42524400  1
  O  O31  1  0.76347000  0.96153400  0.57475600  1
  O  O32  1  0.91364200  0.87276100  0.10784800  1
  O  O33  1  0.41364200  0.62723900  0.89215200  1
  O  O34  1  0.08635800  0.37276100  0.39215200  1
  O  O35  1  0.58635800  0.12723900  0.60784800  1
  O  O36  1  0.08635800  0.12723900  0.89215200  1
  O  O37  1  0.58635800  0.37276100  0.10784800  1
  O  O38  1  0.91364200  0.62723900  0.60784800  1
  O  O39  1  0.41364200  0.87276100  0.39215200  1
  O  O40  1  0.07997100  0.02652400  0.14837000  1
  O  O41  1  0.57997100  0.47347600  0.85163000  1
  O  O42  1  0.92002900  0.52652400  0.35163000  1
  O  O43  1  0.42002900  0.97347600  0.64837000  1
  O  O44  1  0.92002900  0.97347600  0.85163000  1
  O  O45  1  0.42002900  0.52652400  0.14837000  1
  O  O46  1  0.07997100  0.47347600  0.64837000  1
  O  O47  1  0.57997100  0.02652400  0.35163000  1
  O  O48  1  0.10850800  0.86429300  0.30173000  1
  O  O49  1  0.60850800  0.63570700  0.69827000  1
  O  O50  1  0.89149200  0.36429300  0.19827000  1
  O  O51  1  0.39149200  0.13570700  0.80173000  1
  O  O52  1  0.89149200  0.13570700  0.69827000  1
  O  O53  1  0.39149200  0.36429300  0.30173000  1
  O  O54  1  0.10850800  0.63570700  0.80173000  1
  O  O55  1  0.60850800  0.86429300  0.19827000  1
  O  O56  1  0.88631800  0.97743200  0.32995100  1
  O  O57  1  0.38631800  0.52256800  0.67004900  1
  O  O58  1  0.11368200  0.47743200  0.17004900  1
  O  O59  1  0.61368200  0.02256800  0.82995100  1
  O  O60  1  0.11368200  0.02256800  0.67004900  1
  O  O61  1  0.61368200  0.47743200  0.32995100  1
  O  O62  1  0.88631800  0.52256800  0.82995100  1
  O  O63  1  0.38631800  0.97743200  0.17004900  1
loop_
_geom_bond_atom_site_label_1
_geom_bond_atom_site_label_2
_geom_bond_distance
_geom_bond_site_symmetry_2
Eu0 O22 2.361310 1_555
Eu0 O26 2.380206 1_555
Eu0 O9 2.387791 1_555
Eu0 O61 2.421549 1_555
Eu0 O42 2.431847 1_555
Eu0 O7 2.449660 1_555
Eu0 O38 2.453255 1_555
Eu0 O49 2.774529 1_555
Eu1 O23 2.361310 1_455
Eu1 O27 2.380206 1_565
Eu1 O8 2.387791 1_555
Eu1 O60 2.421549 1_565
Eu1 O43 2.431847 1_555
Eu1 O6 2.449660 1_555
Eu1 O39 2.453255 1_555
Eu1 O48 2.774529 1_555
Eu2 O20 2.361310 1_555
Eu2 O24 2.380206 1_544
Eu2 O11 2.387791 1_555
Eu2 O63 2.421549 1_545
Eu2 O40 2.431847 1_555
Eu2 O5 2.449660 1_555
Eu2 O36 2.453255 1_554
Eu2 O51 2.774529 1_554
Eu3 O21 2.361310 1_655
Eu3 O25 2.380206 1_556
Eu3 O10 2.387791 1_555
Eu3 O62 2.421549 1_555
Eu3 O41 2.431847 1_555
Eu3 O4 2.449660 1_555
Eu3 O37 2.453255 1_556
Eu3 O50 2.774529 1_556
Eu4 O18 2.361310 1_555
Eu4 O30 2.380206 1_555
Eu4 O13 2.387791 1_555
Eu4 O57 2.421549 1_555
Eu4 O46 2.431847 1_555
Eu4 O3 2.449660 1_555
Eu4 O34 2.453255 1_555
Eu4 O53 2.774529 1_555
Eu5 O19 2.361310 1_655
Eu5 O31 2.380206 1_545
Eu5 O12 2.387791 1_555
Eu5 O56 2.421549 1_545
Eu5 O47 2.431847 1_555
Eu5 O2 2.449660 1_555
Eu5 O35 2.453255 1_555
Eu5 O52 2.774529 1_555
Eu6 O16 2.361310 1_555
Eu6 O28 2.380206 1_566
Eu6 O15 2.387791 1_555
Eu6 O59 2.421549 1_565
Eu6 O44 2.431847 1_555
Eu6 O1 2.449660 1_555
Eu6 O32 2.453255 1_556
Eu6 O55 2.774529 1_556
Eu7 O17 2.361310 1_455
Eu7 O29 2.380206 1_554
Eu7 O14 2.387791 1_555
Eu7 O58 2.421549 1_555
Eu7 O45 2.431847 1_555
Eu7 O0 2.449660 1_555
Eu7 O33 2.453255 1_554
Eu7 O54 2.774529 1_554
O0 Se0 1.658568 1_554
O1 Se1 1.658568 1_556
O2 Se2 1.658568 1_555
O3 Se3 1.658568 1_555
O4 Se4 1.658568 1_556
O5 Se5 1.658568 1_554
O6 Se6 1.658568 1_555
O7 Se7 1.658568 1_555
O8 Se0 1.667842 1_555
O9 Se1 1.667842 1_555
O10 Se2 1.667842 1_555
O11 Se3 1.667842 1_555
O12 Se4 1.667842 1_555
O13 Se5 1.667842 1_555
O14 Se6 1.667842 1_555
O15 Se7 1.667842 1_555
O16 Se0 1.664857 1_555
O17 Se1 1.664857 1_555
O18 Se2 1.664857 1_555
O19 Se3 1.664857 1_555
O20 Se4 1.664857 1_555
O21 Se5 1.664857 1_555
O22 Se6 1.664857 1_555
O23 Se7 1.664857 1_555
O24 Se0 1.664105 1_555
O25 Se1 1.664105 1_555
O26 Se2 1.664105 1_555
O27 Se3 1.664105 1_555
O28 Se4 1.664105 1_555
O29 Se5 1.664105 1_555
O30 Se6 1.664105 1_555
O31 Se7 1.664105 1_555
O32 Se8 1.666413 1_555
O33 Se9 1.666413 1_555
O34 Se10 1.666413 1_555
O35 Se11 1.666413 1_555
O36 Se12 1.666413 1_555
O37 Se13 1.666413 1_555
O38 Se14 1.666413 1_555
O39 Se15 1.666413 1_555
O40 Se8 1.666991 1_445
O41 Se9 1.666991 1_555
O42 Se10 1.666991 1_655
O43 Se11 1.666991 1_565
O44 Se12 1.666991 1_665
O45 Se13 1.666991 1_555
O46 Se14 1.666991 1_455
O47 Se15 1.666991 1_545
O48 Se8 1.664884 1_455
O49 Se9 1.664884 1_555
O50 Se10 1.664884 1_655
O51 Se11 1.664884 1_555
O52 Se12 1.664884 1_655
O53 Se13 1.664884 1_555
O54 Se14 1.664884 1_455
O55 Se15 1.664884 1_555
O56 Se8 1.673380 1_555
O57 Se9 1.673380 1_555
O58 Se10 1.673380 1_555
O59 Se11 1.673380 1_555
O60 Se12 1.673380 1_555
O61 Se13 1.673380 1_555
O62 Se14 1.673380 1_555
O63 Se15 1.673380 1_555
