# generated using pymatgen
data_MgCo4(Te2O5)4
_symmetry_space_group_name_H-M   'P 1'
_cell_length_a   7.49130332
_cell_length_b   11.37987192
_cell_length_c   6.06486843
_cell_angle_alpha   89.99988514
_cell_angle_beta   91.74842225
_cell_angle_gamma   89.99995049
_symmetry_Int_Tables_number   1
_chemical_formula_structural   MgCo4(Te2O5)4
_chemical_formula_sum   'Mg1 Co4 Te8 O20'
_cell_volume   516.78975893
_cell_formula_units_Z   1
loop_
 _symmetry_equiv_pos_site_id
 _symmetry_equiv_pos_as_xyz
  1  'x, y, z'
loop_
 _atom_site_type_symbol
 _atom_site_label
 _atom_site_symmetry_multiplicity
 _atom_site_fract_x
 _atom_site_fract_y
 _atom_site_fract_z
 _atom_site_occupancy
  Mg  Mg0  1  0.50000000  0.24380748  0.75000000  1
  Co  Co0  1  1.00000000  0.04308335  0.25000000  1
  Co  Co1  1  1.00000000  0.92280105  0.75000000  1
  Co  Co2  1  0.50000000  0.57078738  0.25000000  1
  Co  Co3  1  0.50000000  0.47323615  0.75000000  1
  Te  Te0  1  0.15115790  0.35887776  0.48762921  1
  Te  Te1  1  0.13207208  0.65216273  0.99070933  1
  Te  Te2  1  0.35346713  0.12470804  0.06979607  1
  Te  Te3  1  0.36211663  0.83604901  0.49883858  1
  Te  Te4  1  0.64653287  0.12470804  0.43020392  1
  Te  Te5  1  0.63788337  0.83605001  0.00116042  1
  Te  Te6  1  0.86792792  0.65216173  0.50929067  1
  Te  Te7  1  0.84884210  0.35887777  0.01237179  1
  O  O0  1  1.00000000  0.45714724  0.25000000  1
  O  O1  1  1.00000000  0.55987739  0.75000000  1
  O  O2  1  0.14710242  0.03943156  0.97805075  1
  O  O3  1  0.15172477  0.92707013  0.45342899  1
  O  O4  1  0.20706493  0.19786737  0.32304468  1
  O  O5  1  0.18414175  0.78648477  0.81150765  1
  O  O6  1  0.29403123  0.33907988  0.77481725  1
  O  O7  1  0.30015745  0.70061807  0.33119042  1
  O  O8  1  0.35692412  0.44677867  0.41968833  1
  O  O9  1  0.35607661  0.58165250  0.94646367  1
  O  O10  1  0.49999900  0.90842986  0.25000000  1
  O  O11  1  0.50000000  0.07052013  0.75000000  1
  O  O12  1  0.64307488  0.44677867  0.08031167  1
  O  O13  1  0.64392439  0.58165150  0.55353633  1
  O  O14  1  0.70596877  0.33907888  0.72518275  1
  O  O15  1  0.69984355  0.70061807  0.16880858  1
  O  O16  1  0.79293607  0.19786737  0.17695432  1
  O  O17  1  0.81585625  0.78648377  0.68849335  1
  O  O18  1  0.85289858  0.03943056  0.52194925  1
  O  O19  1  0.84827623  0.92706913  0.04657101  1
loop_
_geom_bond_atom_site_label_1
_geom_bond_atom_site_label_2
_geom_bond_distance
_geom_bond_site_symmetry_2
Mg0 O14 1.895531 1_555
Mg0 O6 1.895536 1_555
Mg0 O11 1.971988 1_555
Co0 O18 2.011793 1_555
Co0 O2 2.011797 1_654
Co0 O3 2.114586 1_645
Co0 O19 2.114593 1_545
Co0 O16 2.379723 1_555
Co0 O4 2.379730 1_655
Co1 O5 2.101684 1_655
Co1 O17 2.101704 1_555
Co1 O19 2.157356 1_556
Co1 O3 2.157360 1_655
Co1 O18 2.189941 1_565
Co1 O2 2.189956 1_665
Co2 O12 2.065605 1_555
Co2 O8 2.065607 1_555
Co2 O9 2.108452 1_554
Co2 O13 2.108455 1_555
Co2 O7 2.170617 1_555
Co2 O15 2.170625 1_555
Co3 O13 2.045176 1_555
Co3 O9 2.045181 1_555
Co3 O6 2.179072 1_555
Co3 O14 2.179079 1_555
Co3 O12 2.263098 1_556
Co3 O8 2.263103 1_555
O0 Te7 2.123741 1_555
O0 Te0 2.123741 1_655
O1 Te6 2.030975 1_555
O1 Te1 2.030984 1_655
O2 Te2 1.894412 1_556
O3 Te3 1.899046 1_555
O4 Te2 2.087539 1_555
O4 Te0 2.134136 1_555
O5 Te1 1.922433 1_555
O5 Te3 2.417839 1_555
O6 Te0 2.028861 1_555
O7 Te3 1.896237 1_555
O7 Te1 2.448477 1_554
O8 Te0 1.893473 1_555
O9 Te1 1.886611 1_555
O10 Te3 2.029311 1_555
O10 Te5 2.029320 1_555
O11 Te4 2.340280 1_555
O11 Te2 2.340282 1_556
O12 Te7 1.893477 1_555
O13 Te6 1.886605 1_555
O14 Te7 2.028868 1_556
O15 Te5 1.896244 1_555
O15 Te6 2.448479 1_555
O16 Te4 2.087546 1_555
O16 Te7 2.134126 1_555
O17 Te6 1.922442 1_555
O17 Te5 2.417827 1_556
O18 Te4 1.894422 1_555
O19 Te5 1.899042 1_555
