# generated using pymatgen
data_Co2Si(P2O7)2
_symmetry_space_group_name_H-M   'P 1'
_cell_length_a   8.91388473
_cell_length_b   8.91388473
_cell_length_c   12.42307966
_cell_angle_alpha   77.47348314
_cell_angle_beta   77.47348314
_cell_angle_gamma   32.73675154
_symmetry_Int_Tables_number   1
_chemical_formula_structural   Co2Si(P2O7)2
_chemical_formula_sum   'Co4 Si2 P8 O28'
_cell_volume   519.98892276
_cell_formula_units_Z   2
loop_
 _symmetry_equiv_pos_site_id
 _symmetry_equiv_pos_as_xyz
  1  'x, y, z'
loop_
 _atom_site_type_symbol
 _atom_site_label
 _atom_site_symmetry_multiplicity
 _atom_site_fract_x
 _atom_site_fract_y
 _atom_site_fract_z
 _atom_site_occupancy
  Co  Co0  1  0.90443700  0.60217000  0.12991300  1
  Co  Co1  1  0.39783000  0.09556300  0.37008700  1
  Co  Co2  1  0.09556300  0.39783000  0.87008700  1
  Co  Co3  1  0.60217000  0.90443700  0.62991300  1
  Si  Si0  1  0.84934200  0.15065800  0.25000000  1
  Si  Si1  1  0.15065800  0.84934200  0.75000000  1
  P  P0  1  0.30232800  0.96903700  0.08460900  1
  P  P1  1  0.03096300  0.69767200  0.41539100  1
  P  P2  1  0.51326500  0.23478700  0.13554200  1
  P  P3  1  0.76521300  0.48673500  0.36445800  1
  P  P4  1  0.48673500  0.76521300  0.86445800  1
  P  P5  1  0.23478700  0.51326500  0.63554200  1
  P  P6  1  0.69767200  0.03096300  0.91539100  1
  P  P7  1  0.96903700  0.30232800  0.58460900  1
  O  O0  1  0.89806200  0.97633100  0.83185200  1
  O  O1  1  0.02366900  0.10193800  0.66814800  1
  O  O2  1  0.10193800  0.02366900  0.16814800  1
  O  O3  1  0.97633100  0.89806200  0.33185200  1
  O  O4  1  0.83211200  0.76274400  0.95349300  1
  O  O5  1  0.23725600  0.16788800  0.54650700  1
  O  O6  1  0.16788800  0.23725600  0.04650700  1
  O  O7  1  0.76274400  0.83211200  0.45349300  1
  O  O8  1  0.58218300  0.72921300  0.13105300  1
  O  O9  1  0.27078700  0.41781700  0.36894700  1
  O  O10  1  0.41781700  0.27078700  0.86894700  1
  O  O11  1  0.72921300  0.58218300  0.63105300  1
  O  O12  1  0.68686300  0.12504200  0.01744200  1
  O  O13  1  0.87495800  0.31313700  0.48255800  1
  O  O14  1  0.29679200  0.61153800  0.67867700  1
  O  O15  1  0.38846200  0.70320800  0.82132300  1
  O  O16  1  0.70320800  0.38846200  0.32132300  1
  O  O17  1  0.61153800  0.29679200  0.17867700  1
  O  O18  1  0.50458000  0.20740900  0.62090800  1
  O  O19  1  0.79259100  0.49542000  0.87909200  1
  O  O20  1  0.49542000  0.79259100  0.37909200  1
  O  O21  1  0.20740900  0.50458000  0.12090800  1
  O  O22  1  0.38254500  0.00324700  0.79553200  1
  O  O23  1  0.99675300  0.61745500  0.70446800  1
  O  O24  1  0.61745500  0.99675300  0.20446800  1
  O  O25  1  0.00324700  0.38254500  0.29553200  1
  O  O26  1  0.12504200  0.68686300  0.51744200  1
  O  O27  1  0.31313700  0.87495800  0.98255800  1
loop_
_geom_bond_atom_site_label_1
_geom_bond_atom_site_label_2
_geom_bond_distance
_geom_bond_site_symmetry_2
Co0 O21 2.005402 1_655
Co0 O8 2.012660 1_555
Co0 O6 2.173651 1_655
Co0 O4 2.228797 1_554
Co0 O25 2.231519 1_655
Co0 O24 2.240859 1_555
Co1 O20 2.005402 1_545
Co1 O9 2.012660 1_555
Co1 O7 2.173651 1_545
Co1 O5 2.228797 1_555
Co1 O24 2.231519 1_545
Co1 O25 2.240859 1_555
Co2 O19 2.005402 1_455
Co2 O10 2.012660 1_555
Co2 O4 2.173651 1_455
Co2 O6 2.228797 1_556
Co2 O23 2.231519 1_455
Co2 O22 2.240859 1_555
Co3 O18 2.005402 1_565
Co3 O11 2.012660 1_555
Co3 O5 2.173651 1_565
Co3 O7 2.228797 1_555
Co3 O22 2.231519 1_565
Co3 O23 2.240859 1_555
O0 P6 1.567348 1_565
O0 Si1 1.613504 1_655
O1 P7 1.567348 1_455
O1 Si1 1.613504 1_545
O2 P0 1.567348 1_545
O2 Si0 1.613504 1_455
O3 P1 1.567348 1_655
O3 Si0 1.613504 1_565
O4 P6 1.520337 1_565
O5 P7 1.520337 1_455
O6 P0 1.520337 1_545
O7 P1 1.520337 1_655
O8 P0 1.497878 1_555
O9 P1 1.497878 1_555
O10 P6 1.497878 1_555
O11 P7 1.497878 1_555
O12 P6 1.610001 1_554
O12 P2 1.610957 1_555
O13 P7 1.610001 1_555
O13 P3 1.610957 1_555
O14 P5 1.583236 1_555
O14 Si1 1.626049 1_555
O15 P4 1.583236 1_555
O15 Si1 1.626049 1_555
O16 P3 1.583236 1_555
O16 Si0 1.626049 1_555
O17 P2 1.583236 1_555
O17 Si0 1.626049 1_555
O18 P5 1.498199 1_555
O19 P4 1.498199 1_555
O20 P3 1.498199 1_555
O21 P2 1.498199 1_555
O22 P4 1.529534 1_545
O23 P5 1.529534 1_655
O24 P2 1.529534 1_565
O25 P3 1.529534 1_455
O26 P1 1.610001 1_555
O26 P5 1.610957 1_555
O27 P0 1.610001 1_556
O27 P4 1.610957 1_555
