# generated using pymatgen
data_La2HfS5
_symmetry_space_group_name_H-M   'P 1'
_cell_length_a   7.40986905
_cell_length_b   8.22028470
_cell_length_c   11.48751454
_cell_angle_alpha   90.00000000
_cell_angle_beta   90.00000000
_cell_angle_gamma   90.00000000
_symmetry_Int_Tables_number   1
_chemical_formula_structural   La2HfS5
_chemical_formula_sum   'La8 Hf4 S20'
_cell_volume   699.71867681
_cell_formula_units_Z   4
loop_
 _symmetry_equiv_pos_site_id
 _symmetry_equiv_pos_as_xyz
  1  'x, y, z'
loop_
 _atom_site_type_symbol
 _atom_site_label
 _atom_site_symmetry_multiplicity
 _atom_site_fract_x
 _atom_site_fract_y
 _atom_site_fract_z
 _atom_site_occupancy
  La  La0  1  0.56233805  0.99799711  0.32969726  1
  La  La1  1  0.93766195  0.50200289  0.82969726  1
  La  La2  1  0.43766195  0.49799711  0.67030274  1
  La  La3  1  0.06233805  0.00200289  0.17030274  1
  La  La4  1  0.43766195  0.00200289  0.67030274  1
  La  La5  1  0.06233805  0.49799711  0.17030274  1
  La  La6  1  0.56233805  0.50200289  0.32969726  1
  La  La7  1  0.93766195  0.99799711  0.82969726  1
  Hf  Hf0  1  0.07012195  0.75000000  0.49100470  1
  Hf  Hf1  1  0.42987805  0.75000000  0.99100470  1
  Hf  Hf2  1  0.92987805  0.25000000  0.50899530  1
  Hf  Hf3  1  0.57012195  0.25000000  0.00899530  1
  S  S0  1  0.82239529  0.53356251  0.57073045  1
  S  S1  1  0.67760471  0.96643749  0.07073045  1
  S  S2  1  0.17760471  0.03356251  0.42926955  1
  S  S3  1  0.32239529  0.46643749  0.92926955  1
  S  S4  1  0.17760471  0.46643749  0.42926955  1
  S  S5  1  0.32239529  0.03356251  0.92926955  1
  S  S6  1  0.82239529  0.96643749  0.57073045  1
  S  S7  1  0.67760471  0.53356251  0.07073045  1
  S  S8  1  0.86628948  0.75000000  0.30765460  1
  S  S9  1  0.63371052  0.75000000  0.80765460  1
  S  S10  1  0.13371052  0.25000000  0.69234540  1
  S  S11  1  0.36628948  0.25000000  0.19234540  1
  S  S12  1  0.43815452  0.75000000  0.49461747  1
  S  S13  1  0.06184548  0.75000000  0.99461747  1
  S  S14  1  0.56184548  0.25000000  0.50538253  1
  S  S15  1  0.93815452  0.25000000  0.00538253  1
  S  S16  1  0.15452397  0.75000000  0.70635268  1
  S  S17  1  0.34547603  0.75000000  0.20635268  1
  S  S18  1  0.84547603  0.25000000  0.29364732  1
  S  S19  1  0.65452397  0.25000000  0.79364732  1
loop_
_geom_bond_atom_site_label_1
_geom_bond_atom_site_label_2
_geom_bond_distance
_geom_bond_site_symmetry_2
La0 S14 2.892119 1_565
La0 S12 2.931190 1_555
La0 S17 2.957326 1_555
La0 S18 2.977319 1_565
La0 S11 2.981800 1_565
La0 S8 3.048380 1_555
La0 S2 3.085617 1_565
La0 S1 3.105922 1_555
La0 S6 3.383378 1_555
La1 S15 2.892119 1_556
La1 S13 2.931190 1_655
La1 S16 2.957326 1_655
La1 S19 2.977319 1_555
La1 S10 2.981800 1_655
La1 S9 3.048380 1_555
La1 S3 3.085617 1_655
La1 S0 3.105922 1_555
La1 S7 3.383378 1_556
La2 S12 2.892119 1_555
La2 S14 2.931190 1_555
La2 S19 2.957326 1_555
La2 S16 2.977319 1_555
La2 S9 2.981800 1_555
La2 S10 3.048380 1_555
La2 S0 3.085617 1_555
La2 S3 3.105922 1_555
La2 S4 3.383378 1_555
La3 S13 2.892119 1_544
La3 S15 2.931190 1_455
La3 S18 2.957326 1_455
La3 S17 2.977319 1_545
La3 S8 2.981800 1_445
La3 S11 3.048380 1_555
La3 S1 3.085617 1_445
La3 S2 3.105922 1_555
La3 S5 3.383378 1_554
La4 S12 2.892119 1_545
La4 S14 2.931190 1_555
La4 S19 2.957326 1_555
La4 S16 2.977319 1_545
La4 S9 2.981800 1_545
La4 S10 3.048380 1_555
La4 S6 3.085617 1_545
La4 S5 3.105922 1_555
La4 S2 3.383378 1_555
La5 S13 2.892119 1_554
La5 S15 2.931190 1_455
La5 S18 2.957326 1_455
La5 S17 2.977319 1_555
La5 S8 2.981800 1_455
La5 S11 3.048380 1_555
La5 S7 3.085617 1_455
La5 S4 3.105922 1_555
La5 S3 3.383378 1_554
La6 S14 2.892119 1_555
La6 S12 2.931190 1_555
La6 S17 2.957326 1_555
La6 S18 2.977319 1_555
La6 S11 2.981800 1_555
La6 S8 3.048380 1_555
La6 S4 3.085617 1_555
La6 S7 3.105922 1_555
La6 S0 3.383378 1_555
La7 S15 2.892119 1_566
La7 S13 2.931190 1_655
La7 S16 2.957326 1_655
La7 S19 2.977319 1_565
La7 S10 2.981800 1_665
La7 S9 3.048380 1_555
La7 S5 3.085617 1_665
La7 S6 3.105922 1_555
La7 S1 3.383378 1_556
Hf0 S16 2.551644 1_555
Hf0 S4 2.563326 1_555
Hf0 S2 2.563326 1_565
Hf0 S8 2.591806 1_455
Hf0 S0 2.715468 1_455
Hf0 S6 2.715468 1_455
Hf0 S12 2.727389 1_555
Hf1 S17 2.551644 1_556
Hf1 S3 2.563326 1_555
Hf1 S5 2.563326 1_565
Hf1 S9 2.591806 1_555
Hf1 S7 2.715468 1_556
Hf1 S1 2.715468 1_556
Hf1 S13 2.727389 1_555
Hf2 S18 2.551644 1_555
Hf2 S0 2.563326 1_555
Hf2 S6 2.563326 1_545
Hf2 S10 2.591806 1_655
Hf2 S4 2.715468 1_655
Hf2 S2 2.715468 1_655
Hf2 S14 2.727389 1_555
Hf3 S19 2.551644 1_554
Hf3 S1 2.563326 1_545
Hf3 S7 2.563326 1_555
Hf3 S11 2.591806 1_555
Hf3 S3 2.715468 1_554
Hf3 S5 2.715468 1_554
Hf3 S15 2.727389 1_555
