# generated using pymatgen
data_Pr(CuSn)2
_symmetry_space_group_name_H-M   'P 1'
_cell_length_a   4.44681302
_cell_length_b   4.44681302
_cell_length_c   10.64277042
_cell_angle_alpha   90.00000000
_cell_angle_beta   90.00000000
_cell_angle_gamma   90.00000000
_symmetry_Int_Tables_number   1
_chemical_formula_structural   Pr(CuSn)2
_chemical_formula_sum   'Pr2 Cu4 Sn4'
_cell_volume   210.45169650
_cell_formula_units_Z   2
loop_
 _symmetry_equiv_pos_site_id
 _symmetry_equiv_pos_as_xyz
  1  'x, y, z'
loop_
 _atom_site_type_symbol
 _atom_site_label
 _atom_site_symmetry_multiplicity
 _atom_site_fract_x
 _atom_site_fract_y
 _atom_site_fract_z
 _atom_site_occupancy
  Pr  Pr0  1  0.00000000  0.50000000  0.23970733  1
  Pr  Pr1  1  0.50000000  -0.00000000  0.76029267  1
  Cu  Cu0  1  0.00000000  -0.00000000  -0.00000000  1
  Cu  Cu1  1  0.50000000  0.50000000  -0.00000000  1
  Cu  Cu2  1  -0.00000000  0.50000000  0.63608095  1
  Cu  Cu3  1  0.50000000  0.00000000  0.36391905  1
  Sn  Sn0  1  0.00000000  0.00000000  0.50000000  1
  Sn  Sn1  1  0.50000000  0.50000000  0.50000000  1
  Sn  Sn2  1  -0.00000000  0.50000000  0.87403539  1
  Sn  Sn3  1  0.50000000  0.00000000  0.12596461  1
loop_
_geom_bond_atom_site_label_1
_geom_bond_atom_site_label_2
_geom_bond_distance
_geom_bond_site_symmetry_2
Pr0 Sn3 3.369343 1_465
Pr0 Sn3 3.369343 1_455
Pr0 Sn3 3.369343 1_565
Pr0 Sn3 3.369343 1_555
Pr0 Sn0 3.552146 1_565
Pr0 Sn1 3.552146 1_455
Pr0 Sn1 3.552146 1_555
Pr0 Sn0 3.552146 1_555
Pr1 Sn2 3.369343 1_555
Pr1 Sn2 3.369343 1_645
Pr1 Sn2 3.369343 1_545
Pr1 Sn2 3.369343 1_655
Pr1 Sn0 3.552146 1_555
Pr1 Sn0 3.552146 1_655
Pr1 Sn1 3.552146 1_555
Pr1 Sn1 3.552146 1_545
Cu0 Sn3 2.596301 1_455
Cu0 Sn3 2.596301 1_555
Cu0 Sn2 2.596301 1_554
Cu0 Sn2 2.596301 1_544
Cu0 Pr1 3.384066 1_554
Cu0 Pr0 3.384066 1_555
Cu0 Pr1 3.384066 1_454
Cu0 Pr0 3.384066 1_545
Cu1 Sn3 2.596301 1_565
Cu1 Sn3 2.596301 1_555
Cu1 Sn2 2.596301 1_654
Cu1 Sn2 2.596301 1_554
Cu1 Pr1 3.384066 1_554
Cu1 Pr0 3.384066 1_555
Cu1 Pr0 3.384066 1_655
Cu1 Pr1 3.384066 1_564
Cu2 Sn2 2.532494 1_555
Cu2 Sn1 2.653497 1_555
Cu2 Sn1 2.653497 1_455
Cu2 Sn0 2.653497 1_565
Cu2 Sn0 2.653497 1_555
Cu2 Pr1 3.410959 1_455
Cu2 Pr1 3.410959 1_565
Cu2 Pr1 3.410959 1_555
Cu2 Pr1 3.410959 1_465
Cu3 Sn3 2.532494 1_555
Cu3 Sn0 2.653497 1_655
Cu3 Sn1 2.653497 1_545
Cu3 Sn1 2.653497 1_555
Cu3 Sn0 2.653497 1_555
Cu3 Pr0 3.410959 1_655
Cu3 Pr0 3.410959 1_545
Cu3 Pr0 3.410959 1_645
Cu3 Pr0 3.410959 1_555
