# generated using pymatgen
data_YZn2
_symmetry_space_group_name_H-M   'P 1'
_cell_length_a   5.42620778
_cell_length_b   5.42620778
_cell_length_c   5.42620778
_cell_angle_alpha   60.00000000
_cell_angle_beta   60.00000000
_cell_angle_gamma   60.00000000
_symmetry_Int_Tables_number   1
_chemical_formula_structural   YZn2
_chemical_formula_sum   'Y2 Zn4'
_cell_volume   112.97289611
_cell_formula_units_Z   2
loop_
 _symmetry_equiv_pos_site_id
 _symmetry_equiv_pos_as_xyz
  1  'x, y, z'
loop_
 _atom_site_type_symbol
 _atom_site_label
 _atom_site_symmetry_multiplicity
 _atom_site_fract_x
 _atom_site_fract_y
 _atom_site_fract_z
 _atom_site_occupancy
  Y  Y0  1  0.50000000  0.50000000  0.50000000  1
  Y  Y1  1  0.75000000  0.75000000  0.75000000  1
  Zn  Zn0  1  0.62500000  0.12500000  0.12500000  1
  Zn  Zn1  1  0.12500000  0.62500000  0.12500000  1
  Zn  Zn2  1  0.12500000  0.12500000  0.62500000  1
  Zn  Zn3  1  0.12500000  0.12500000  0.12500000  1
loop_
_geom_bond_atom_site_label_1
_geom_bond_atom_site_label_2
_geom_bond_distance
_geom_bond_site_symmetry_2
Y0 Zn2 3.181396 1_655
Y0 Zn0 3.181396 1_556
Y0 Zn3 3.181396 1_556
Y0 Zn1 3.181396 1_655
Y0 Zn0 3.181396 1_565
Y0 Zn3 3.181396 1_565
Y0 Zn2 3.181396 1_565
Y0 Zn2 3.181396 1_555
Y0 Zn0 3.181396 1_555
Y0 Zn3 3.181396 1_655
Y0 Zn1 3.181396 1_555
Y0 Zn1 3.181396 1_556
Y0 Y1 3.322860 1_455
Y0 Y1 3.322860 1_545
Y0 Y1 3.322860 1_555
Y0 Y1 3.322860 1_554
Y1 Zn2 3.181396 1_655
Y1 Zn2 3.181396 1_565
Y1 Zn0 3.181396 1_556
Y1 Zn3 3.181396 1_665
Y1 Zn1 3.181396 1_556
Y1 Zn0 3.181396 1_565
Y1 Zn3 3.181396 1_656
Y1 Zn1 3.181396 1_655
Y1 Zn0 3.181396 1_566
Y1 Zn3 3.181396 1_566
Y1 Zn1 3.181396 1_656
Y1 Zn2 3.181396 1_665
Zn0 Zn1 2.713104 1_645
Zn0 Zn1 2.713104 1_555
Zn0 Zn2 2.713104 1_555
Zn0 Zn2 2.713104 1_654
Zn0 Zn3 2.713104 1_555
Zn0 Zn3 2.713104 1_655
Zn1 Zn3 2.713104 1_565
Zn1 Zn2 2.713104 1_555
Zn1 Zn2 2.713104 1_564
Zn1 Zn3 2.713104 1_555
Zn2 Zn3 2.713104 1_556
Zn2 Zn3 2.713104 1_555
