# generated using pymatgen
data_Mg6BiSb
_symmetry_space_group_name_H-M   'P 1'
_cell_length_a   5.31253400
_cell_length_b   6.51809600
_cell_length_c   11.36978600
_cell_angle_alpha   90.00000000
_cell_angle_beta   90.00000000
_cell_angle_gamma   90.00000000
_symmetry_Int_Tables_number   1
_chemical_formula_structural   Mg6BiSb
_chemical_formula_sum   'Mg12 Bi2 Sb2'
_cell_volume   393.70847691
_cell_formula_units_Z   2
loop_
 _symmetry_equiv_pos_site_id
 _symmetry_equiv_pos_as_xyz
  1  'x, y, z'
loop_
 _atom_site_type_symbol
 _atom_site_label
 _atom_site_symmetry_multiplicity
 _atom_site_fract_x
 _atom_site_fract_y
 _atom_site_fract_z
 _atom_site_occupancy
  Mg  Mg0  1  0.50000000  0.25043500  0.41620100  1
  Mg  Mg1  1  0.50000000  0.74956500  0.41620100  1
  Mg  Mg2  1  0.00000000  0.75455800  0.08030400  1
  Mg  Mg3  1  0.00000000  0.24544200  0.08030400  1
  Mg  Mg4  1  0.00000000  0.00000000  0.33453100  1
  Mg  Mg5  1  0.00000000  0.50000000  0.33739800  1
  Mg  Mg6  1  0.50000000  0.75043500  0.91620100  1
  Mg  Mg7  1  0.50000000  0.24956500  0.91620100  1
  Mg  Mg8  1  0.00000000  0.25455800  0.58030400  1
  Mg  Mg9  1  0.00000000  0.74544200  0.58030400  1
  Mg  Mg10  1  0.00000000  0.50000000  0.83453100  1
  Mg  Mg11  1  0.00000000  0.00000000  0.83739800  1
  Bi  Bi0  1  0.50000000  0.50000000  0.16737300  1
  Bi  Bi1  1  0.50000000  0.00000000  0.66737300  1
  Sb  Sb0  1  0.50000000  0.00000000  0.16768300  1
  Sb  Sb1  1  0.50000000  0.50000000  0.66768300  1
loop_
_geom_bond_atom_site_label_1
_geom_bond_atom_site_label_2
_geom_bond_distance
_geom_bond_site_symmetry_2
Mg0 Mg5 3.241086 1_555
Mg0 Mg5 3.241086 1_655
Mg0 Mg8 3.246189 1_555
Mg0 Mg8 3.246189 1_655
Mg0 Mg4 3.253090 1_555
Mg0 Mg4 3.253090 1_655
Mg0 Mg1 3.253377 1_555
Mg0 Sb0 3.263218 1_555
Mg0 Mg1 3.264719 1_545
Mg0 Sb1 3.289634 1_555
Mg1 Mg5 3.241086 1_555
Mg1 Mg5 3.241086 1_655
Mg1 Mg9 3.246189 1_655
Mg1 Mg9 3.246189 1_555
Mg1 Mg4 3.253090 1_565
Mg1 Mg4 3.253090 1_665
Mg1 Sb0 3.263218 1_565
Mg1 Sb1 3.289634 1_555
Mg2 Mg6 3.246189 1_554
Mg2 Mg6 3.246189 1_454
Mg2 Sb0 3.256097 1_565
Mg2 Sb0 3.256097 1_465
Mg2 Mg5 3.361189 1_555
Mg3 Mg7 3.246189 1_454
Mg3 Mg7 3.246189 1_554
Mg3 Sb0 3.256097 1_455
Mg3 Sb0 3.256097 1_555
Mg3 Mg5 3.361189 1_555
Mg4 Mg5 3.259211 1_555
Mg4 Mg5 3.259211 1_545
Mg4 Sb0 3.264117 1_455
Mg4 Sb0 3.264117 1_555
Mg5 Mg9 3.191690 1_555
Mg5 Mg8 3.191690 1_555
Mg6 Mg7 3.253377 1_565
Mg6 Sb1 3.263218 1_555
Mg6 Mg7 3.264719 1_555
Mg6 Sb0 3.289634 1_566
Mg7 Sb1 3.263218 1_555
Mg7 Sb0 3.289634 1_556
Mg8 Sb1 3.256097 1_455
Mg8 Sb1 3.256097 1_555
Mg9 Sb1 3.256097 1_555
Mg9 Sb1 3.256097 1_455
Mg10 Mg6 3.253090 1_555
Mg10 Mg6 3.253090 1_455
Mg10 Mg7 3.253090 1_455
Mg10 Mg7 3.253090 1_555
Mg10 Mg11 3.259211 1_555
Mg10 Mg11 3.259211 1_565
Mg10 Sb1 3.264117 1_455
Mg10 Sb1 3.264117 1_555
Mg11 Mg3 3.191690 1_556
Mg11 Mg2 3.191690 1_546
Mg11 Mg7 3.241086 1_455
Mg11 Mg7 3.241086 1_555
Mg11 Mg6 3.241086 1_545
Mg11 Mg6 3.241086 1_445
Mg11 Mg8 3.361189 1_555
Mg11 Mg9 3.361189 1_545
Bi0 Sb0 3.259050 1_555
Bi0 Sb0 3.259050 1_565
Bi0 Mg1 3.263440 1_555
Bi0 Mg0 3.263440 1_555
Bi0 Mg3 3.284634 1_555
Bi0 Mg3 3.284634 1_655
Bi0 Mg2 3.284634 1_555
Bi0 Mg2 3.284634 1_655
Bi0 Mg5 3.285242 1_655
Bi0 Mg5 3.285242 1_555
Bi0 Mg6 3.289381 1_554
Bi0 Mg7 3.289381 1_554
Bi1 Sb1 3.259050 1_545
Bi1 Sb1 3.259050 1_555
Bi1 Mg7 3.263440 1_555
Bi1 Mg6 3.263440 1_545
Bi1 Mg8 3.284634 1_655
Bi1 Mg8 3.284634 1_555
Bi1 Mg9 3.284634 1_645
Bi1 Mg9 3.284634 1_545
Bi1 Mg11 3.285242 1_555
Bi1 Mg11 3.285242 1_655
Bi1 Mg0 3.289381 1_555
Bi1 Mg1 3.289381 1_545
