# generated using pymatgen
data_Nd4CdSi3O13
_symmetry_space_group_name_H-M   'P 1'
_cell_length_a   9.65638636
_cell_length_b   9.65638636
_cell_length_c   7.01480500
_cell_angle_alpha   90.00000000
_cell_angle_beta   90.00000000
_cell_angle_gamma   120.00000246
_symmetry_Int_Tables_number   1
_chemical_formula_structural   Nd4CdSi3O13
_chemical_formula_sum   'Nd8 Cd2 Si6 O26'
_cell_volume   566.46814367
_cell_formula_units_Z   2
loop_
 _symmetry_equiv_pos_site_id
 _symmetry_equiv_pos_as_xyz
  1  'x, y, z'
loop_
 _atom_site_type_symbol
 _atom_site_label
 _atom_site_symmetry_multiplicity
 _atom_site_fract_x
 _atom_site_fract_y
 _atom_site_fract_z
 _atom_site_occupancy
  Nd  Nd0  1  0.33333300  0.66666700  0.99579300  1
  Nd  Nd1  1  0.66666700  0.33333300  0.49579300  1
  Nd  Nd2  1  0.24090600  0.00759800  0.74799100  1
  Nd  Nd3  1  0.76669200  0.75909400  0.74799100  1
  Nd  Nd4  1  0.99240200  0.23330800  0.74799100  1
  Nd  Nd5  1  0.75909400  0.99240200  0.24799100  1
  Nd  Nd6  1  0.23330800  0.24090600  0.24799100  1
  Nd  Nd7  1  0.00759800  0.76669200  0.24799100  1
  Cd  Cd0  1  0.66666700  0.33333300  0.99273500  1
  Cd  Cd1  1  0.33333300  0.66666700  0.49273500  1
  Si  Si0  1  0.02902100  0.62760100  0.74880600  1
  Si  Si1  1  0.59858000  0.97097900  0.74880600  1
  Si  Si2  1  0.37239900  0.40142000  0.74880600  1
  Si  Si3  1  0.97097900  0.37239900  0.24880600  1
  Si  Si4  1  0.40142000  0.02902100  0.24880600  1
  Si  Si5  1  0.62760100  0.59858000  0.24880600  1
  O  O0  1  0.12878200  0.53043300  0.73806400  1
  O  O1  1  0.40165100  0.87121800  0.73806400  1
  O  O2  1  0.46956700  0.59834900  0.73806400  1
  O  O3  1  0.87121800  0.46956700  0.23806400  1
  O  O4  1  0.59834900  0.12878200  0.23806400  1
  O  O5  1  0.53043300  0.40165100  0.23806400  1
  O  O6  1  0.09890500  0.74267800  0.93960300  1
  O  O7  1  0.64377300  0.90109500  0.93960300  1
  O  O8  1  0.25732200  0.35622700  0.93960300  1
  O  O9  1  0.90109500  0.25732200  0.43960300  1
  O  O10  1  0.35622700  0.09890500  0.43960300  1
  O  O11  1  0.74267800  0.64377300  0.43960300  1
  O  O12  1  0.92466600  0.24457400  0.07148200  1
  O  O13  1  0.31990900  0.07533400  0.07148200  1
  O  O14  1  0.75542600  0.68009100  0.07148200  1
  O  O15  1  0.07533400  0.75542600  0.57148200  1
  O  O16  1  0.68009100  0.92466600  0.57148200  1
  O  O17  1  0.24457400  0.31990900  0.57148200  1
  O  O18  1  0.00000000  0.00000000  0.76357200  1
  O  O19  1  0.00000000  0.00000000  0.26357200  1
  O  O20  1  0.83496000  0.51041200  0.75334700  1
  O  O21  1  0.67545200  0.16504000  0.75334700  1
  O  O22  1  0.48958800  0.32454800  0.75334700  1
  O  O23  1  0.16504000  0.48958800  0.25334700  1
  O  O24  1  0.32454800  0.83496000  0.25334700  1
  O  O25  1  0.51041200  0.67545200  0.25334700  1
loop_
_geom_bond_atom_site_label_1
_geom_bond_atom_site_label_2
_geom_bond_distance
_geom_bond_site_symmetry_2
Nd0 O24 2.459704 1_556
Nd0 O23 2.459708 1_556
Nd0 O25 2.459711 1_556
Nd0 O1 2.510423 1_555
Nd0 O0 2.510424 1_555
Nd0 O2 2.510429 1_555
Nd0 O6 2.734982 1_555
Nd0 O7 2.734988 1_555
Nd0 O8 2.734991 1_555
Nd1 O21 2.459704 1_555
Nd1 O20 2.459708 1_555
Nd1 O22 2.459711 1_555
Nd1 O4 2.510423 1_555
Nd1 O3 2.510424 1_555
Nd1 O5 2.510429 1_555
Nd1 O9 2.734982 1_555
Nd1 O10 2.734988 1_555
Nd1 O11 2.734991 1_555
Nd2 O18 2.293085 1_555
Nd2 O13 2.379121 1_556
Nd2 O10 2.390691 1_555
Nd2 O15 2.475003 1_545
Nd2 O1 2.488518 1_545
Nd2 O6 2.592937 1_545
Nd2 O22 2.790268 1_555
Nd3 O18 2.293084 1_665
Nd3 O14 2.379122 1_556
Nd3 O11 2.390691 1_555
Nd3 O16 2.475009 1_555
Nd3 O2 2.488518 1_555
Nd3 O7 2.592937 1_555
Nd3 O20 2.790268 1_555
Nd4 O18 2.293085 1_655
Nd4 O12 2.379119 1_556
Nd4 O9 2.390691 1_555
Nd4 O17 2.475001 1_655
Nd4 O0 2.488518 1_655
Nd4 O8 2.592937 1_655
Nd4 O21 2.790268 1_555
Nd5 O19 2.293085 1_665
Nd5 O16 2.379121 1_555
Nd5 O7 2.390691 1_554
Nd5 O12 2.475003 1_565
Nd5 O4 2.488518 1_565
Nd5 O9 2.592937 1_565
Nd5 O25 2.790268 1_555
Nd6 O19 2.293084 1_555
Nd6 O17 2.379122 1_555
Nd6 O8 2.390691 1_554
Nd6 O13 2.475009 1_555
Nd6 O5 2.488518 1_555
Nd6 O10 2.592937 1_555
Nd6 O23 2.790268 1_555
Nd7 O19 2.293085 1_565
Nd7 O15 2.379119 1_555
Nd7 O6 2.390691 1_554
Nd7 O14 2.475001 1_455
Nd7 O3 2.488518 1_455
Nd7 O11 2.592937 1_455
Nd7 O24 2.790268 1_555
Cd0 O21 2.367684 1_555
Cd0 O20 2.367688 1_555
Cd0 O22 2.367691 1_555
Cd0 O4 2.448524 1_556
Cd0 O3 2.448526 1_556
Cd0 O5 2.448531 1_556
Cd1 O24 2.367684 1_555
Cd1 O23 2.367688 1_555
Cd1 O25 2.367691 1_555
Cd1 O1 2.448524 1_555
Cd1 O0 2.448526 1_555
Cd1 O2 2.448531 1_555
O0 Si0 1.648624 1_555
O1 Si1 1.648624 1_555
O2 Si2 1.648624 1_555
O3 Si3 1.648624 1_555
O4 Si4 1.648624 1_555
O5 Si5 1.648624 1_555
O6 Si0 1.652773 1_555
O7 Si1 1.652773 1_555
O8 Si2 1.652773 1_555
O9 Si3 1.652773 1_555
O10 Si4 1.652773 1_555
O11 Si5 1.652773 1_555
O12 Si3 1.648886 1_555
O13 Si4 1.648880 1_555
O14 Si5 1.648885 1_555
O15 Si0 1.648886 1_555
O16 Si1 1.648880 1_555
O17 Si2 1.648885 1_555
O20 Si0 1.634812 1_655
O21 Si1 1.634812 1_545
O22 Si2 1.634812 1_555
O23 Si3 1.634812 1_455
O24 Si4 1.634812 1_565
O25 Si5 1.634812 1_555
