# generated using pymatgen
data_U3Sb4Pt3
_symmetry_space_group_name_H-M   'P 1'
_cell_length_a   8.45217931
_cell_length_b   8.45217931
_cell_length_c   8.45217931
_cell_angle_alpha   109.47122063
_cell_angle_beta   109.47122063
_cell_angle_gamma   109.47122063
_symmetry_Int_Tables_number   1
_chemical_formula_structural   U3Sb4Pt3
_chemical_formula_sum   'U6 Sb8 Pt6'
_cell_volume   464.81936701
_cell_formula_units_Z   2
loop_
 _symmetry_equiv_pos_site_id
 _symmetry_equiv_pos_as_xyz
  1  'x, y, z'
loop_
 _atom_site_type_symbol
 _atom_site_label
 _atom_site_symmetry_multiplicity
 _atom_site_fract_x
 _atom_site_fract_y
 _atom_site_fract_z
 _atom_site_occupancy
  U  U0  1  0.87500000  0.25000000  0.12500000  1
  U  U1  1  0.62500000  0.75000000  0.37500000  1
  U  U2  1  0.25000000  0.12500000  0.87500000  1
  U  U3  1  0.75000000  0.37500000  0.62500000  1
  U  U4  1  0.12500000  0.87500000  0.25000000  1
  U  U5  1  0.37500000  0.62500000  0.75000000  1
  Sb  Sb0  1  0.67803800  0.50000000  0.00000000  1
  Sb  Sb1  1  0.50000000  0.00000000  0.67803800  1
  Sb  Sb2  1  0.00000000  0.67803800  0.50000000  1
  Sb  Sb3  1  0.82196200  0.82196200  0.82196200  1
  Sb  Sb4  1  0.50000000  0.00000000  0.17803800  1
  Sb  Sb5  1  0.17803800  0.50000000  0.00000000  1
  Sb  Sb6  1  0.00000000  0.17803800  0.50000000  1
  Sb  Sb7  1  0.32196200  0.32196200  0.32196200  1
  Pt  Pt0  1  0.37500000  0.25000000  0.62500000  1
  Pt  Pt1  1  0.12500000  0.75000000  0.87500000  1
  Pt  Pt2  1  0.25000000  0.62500000  0.37500000  1
  Pt  Pt3  1  0.75000000  0.87500000  0.12500000  1
  Pt  Pt4  1  0.62500000  0.37500000  0.25000000  1
  Pt  Pt5  1  0.87500000  0.12500000  0.75000000  1
loop_
_geom_bond_atom_site_label_1
_geom_bond_atom_site_label_2
_geom_bond_distance
_geom_bond_site_symmetry_2
Sb0 U4 3.318660 1_655
Sb0 U3 3.318660 1_554
Sb0 U0 3.318660 1_555
Sb0 U2 3.438876 1_554
Sb0 U1 3.438876 1_555
Sb0 U5 3.438876 1_554
Sb1 U0 3.318660 1_556
Sb1 U5 3.318660 1_545
Sb1 U2 3.318660 1_555
Sb1 U3 3.438876 1_555
Sb1 U4 3.438876 1_545
Sb1 U1 3.438876 1_545
Sb2 U2 3.318660 1_565
Sb2 U4 3.318660 1_555
Sb2 U1 3.318660 1_455
Sb2 U5 3.438876 1_555
Sb2 U0 3.438876 1_455
Sb2 U3 3.438876 1_455
Sb3 U3 3.318660 1_555
Sb3 U1 3.318660 1_555
Sb3 U5 3.318660 1_555
Sb3 U2 3.438876 1_665
Sb3 U0 3.438876 1_566
Sb3 U4 3.438876 1_656
Sb4 U3 3.318660 1_555
Sb4 U4 3.318660 1_545
Sb4 U1 3.318660 1_545
Sb4 U5 3.438876 1_544
Sb4 U2 3.438876 1_554
Sb4 U0 3.438876 1_555
Sb5 U5 3.318660 1_554
Sb5 U2 3.318660 1_554
Sb5 U1 3.318660 1_555
Sb5 U3 3.438876 1_454
Sb5 U4 3.438876 1_555
Sb5 U0 3.438876 1_455
Sb6 U5 3.318660 1_555
Sb6 U0 3.318660 1_455
Sb6 U3 3.318660 1_455
Sb6 U2 3.438876 1_555
Sb6 U4 3.438876 1_545
Sb6 U1 3.438876 1_445
Sb7 U0 3.318660 1_455
Sb7 U4 3.318660 1_545
Sb7 U2 3.318660 1_554
Sb7 U1 3.438876 1_555
Sb7 U3 3.438876 1_555
Sb7 U5 3.438876 1_555
Pt0 Sb6 2.754311 1_555
Pt0 Sb7 2.754311 1_555
Pt0 Sb0 2.754311 1_556
Pt0 Sb1 2.754311 1_555
Pt0 U5 2.988297 1_555
Pt0 U3 2.988297 1_555
Pt0 U2 2.988297 1_555
Pt0 U4 2.988297 1_545
Pt1 Sb5 2.754311 1_556
Pt1 Sb2 2.754311 1_555
Pt1 Sb3 2.754311 1_455
Pt1 Sb4 2.754311 1_566
Pt1 U4 2.988297 1_556
Pt1 U5 2.988297 1_555
Pt1 U3 2.988297 1_455
Pt1 U2 2.988297 1_565
Pt2 Sb2 2.754311 1_555
Pt2 Sb5 2.754311 1_555
Pt2 Sb1 2.754311 1_565
Pt2 Sb7 2.754311 1_555
Pt2 U4 2.988297 1_555
Pt2 U5 2.988297 1_555
Pt2 U0 2.988297 1_455
Pt2 U1 2.988297 1_555
Pt3 Sb3 2.754311 1_554
Pt3 Sb0 2.754311 1_555
Pt3 Sb6 2.754311 1_665
Pt3 Sb4 2.754311 1_565
Pt3 U5 2.988297 1_554
Pt3 U4 2.988297 1_655
Pt3 U1 2.988297 1_555
Pt3 U0 2.988297 1_565
Pt4 Sb4 2.754311 1_555
Pt4 Sb0 2.754311 1_555
Pt4 Sb2 2.754311 1_655
Pt4 Sb7 2.754311 1_555
Pt4 U3 2.988297 1_555
Pt4 U2 2.988297 1_554
Pt4 U1 2.988297 1_555
Pt4 U0 2.988297 1_555
Pt5 Sb6 2.754311 1_655
Pt5 Sb5 2.754311 1_656
Pt5 Sb1 2.754311 1_555
Pt5 Sb3 2.754311 1_545
Pt5 U3 2.988297 1_555
Pt5 U0 2.988297 1_556
Pt5 U2 2.988297 1_655
Pt5 U1 2.988297 1_545
