# generated using pymatgen
data_MgTl6C2(O3F)2
_symmetry_space_group_name_H-M   'P 1'
_cell_length_a   6.32623079
_cell_length_b   7.68165767
_cell_length_c   9.29311186
_cell_angle_alpha   124.66758751
_cell_angle_beta   91.07952832
_cell_angle_gamma   88.72704085
_symmetry_Int_Tables_number   1
_chemical_formula_structural   MgTl6C2(O3F)2
_chemical_formula_sum   'Mg1 Tl6 C2 O6 F2'
_cell_volume   371.32955650
_cell_formula_units_Z   1
loop_
 _symmetry_equiv_pos_site_id
 _symmetry_equiv_pos_as_xyz
  1  'x, y, z'
loop_
 _atom_site_type_symbol
 _atom_site_label
 _atom_site_symmetry_multiplicity
 _atom_site_fract_x
 _atom_site_fract_y
 _atom_site_fract_z
 _atom_site_occupancy
  Mg  Mg0  1  0.74745200  0.81991800  0.42672700  1
  Tl  Tl0  1  0.27471300  0.67055900  0.49800500  1
  Tl  Tl1  1  0.68542500  0.89101600  0.79818900  1
  Tl  Tl2  1  0.77911800  0.34469200  0.56063500  1
  Tl  Tl3  1  0.26242200  0.07004600  0.23488800  1
  Tl  Tl4  1  0.27961100  0.23895200  0.79799200  1
  Tl  Tl5  1  0.79173100  0.75524000  0.05857900  1
  C  C0  1  0.25626600  0.67101000  0.83276700  1
  C  C1  1  0.75919600  0.32349900  0.19758700  1
  O  O0  1  0.21258600  0.67445300  0.97183900  1
  O  O1  1  0.25676100  0.84697400  0.84256700  1
  O  O2  1  0.29699400  0.49039500  0.68565800  1
  O  O3  1  0.69559200  0.27789700  0.04843200  1
  O  O4  1  0.80735700  0.17857000  0.22599000  1
  O  O5  1  0.77593600  0.52162500  0.33249900  1
  F  F0  1  0.99849700  0.98108200  0.51872900  1
  F  F1  1  0.52659100  0.98574000  0.41891500  1
loop_
_geom_bond_atom_site_label_1
_geom_bond_atom_site_label_2
_geom_bond_distance
_geom_bond_site_symmetry_2
Mg0 O5 1.937695 1_555
C0 O1 1.302120 1_555
C0 O2 1.303797 1_555
C0 O0 1.312110 1_555
C1 O3 1.280153 1_555
C1 O4 1.310772 1_555
C1 O5 1.315604 1_555
O0 Tl3 2.621489 1_566
O0 Tl5 2.749868 1_456
O0 Tl4 2.792063 1_555
O1 Tl0 2.678220 1_555
O2 Tl4 2.672116 1_555
O2 Tl0 2.775611 1_555
O3 Tl1 2.526818 1_544
O4 Tl2 2.613021 1_555
O4 Tl5 2.694053 1_545
F0 Mg0 1.902099 1_555
F0 Tl4 2.820637 1_665
F1 Mg0 1.897979 1_555
F1 Tl3 2.690947 1_565
