# generated using pymatgen
data_CaZn4(SnO2)4
_symmetry_space_group_name_H-M   'P 1'
_cell_length_a   3.48060105
_cell_length_b   9.28262876
_cell_length_c   9.71862203
_cell_angle_alpha   103.30896695
_cell_angle_beta   79.70365006
_cell_angle_gamma   90.66267676
_symmetry_Int_Tables_number   1
_chemical_formula_structural   CaZn4(SnO2)4
_chemical_formula_sum   'Ca1 Zn4 Sn4 O8'
_cell_volume   300.50281569
_cell_formula_units_Z   1
loop_
 _symmetry_equiv_pos_site_id
 _symmetry_equiv_pos_as_xyz
  1  'x, y, z'
loop_
 _atom_site_type_symbol
 _atom_site_label
 _atom_site_symmetry_multiplicity
 _atom_site_fract_x
 _atom_site_fract_y
 _atom_site_fract_z
 _atom_site_occupancy
  Ca  Ca0  1  0.50739700  0.46216800  0.49863200  1
  Zn  Zn0  1  0.58374900  0.02183900  0.33254800  1
  Zn  Zn1  1  0.39584700  0.94105900  0.69552000  1
  Zn  Zn2  1  0.20245400  0.79443700  0.06434300  1
  Zn  Zn3  1  0.78137500  0.15501200  0.94978600  1
  Sn  Sn0  1  0.92594200  0.25443700  0.65436200  1
  Sn  Sn1  1  0.15522500  0.29952100  0.21185100  1
  Sn  Sn2  1  0.83194600  0.65505500  0.79228100  1
  Sn  Sn3  1  0.04878800  0.73255900  0.38693000  1
  O  O0  1  0.50257900  0.85530600  0.48590900  1
  O  O1  1  0.26371200  0.25178800  0.99084500  1
  O  O2  1  0.72465600  0.70134200  0.01500400  1
  O  O3  1  0.49823100  0.19553100  0.50814000  1
  O  O4  1  0.87908800  0.05865000  0.73702000  1
  O  O5  1  0.66736100  0.15020500  0.17912600  1
  O  O6  1  0.11130200  0.90622800  0.27012300  1
  O  O7  1  0.31719400  0.81045000  0.83176400  1
loop_
_geom_bond_atom_site_label_1
_geom_bond_atom_site_label_2
_geom_bond_distance
_geom_bond_site_symmetry_2
Ca0 O3 2.497610 1_555
O0 Zn1 1.977692 1_555
O0 Sn3 2.171448 1_555
O0 Sn3 2.174774 1_655
O0 Zn0 2.364559 1_565
O1 Zn3 1.955566 1_455
O1 Zn3 1.956534 1_555
O1 Sn1 2.056221 1_556
O2 Zn2 1.950232 1_655
O2 Zn2 1.953021 1_555
O2 Sn2 2.072667 1_554
O3 Zn0 2.040367 1_555
O3 Sn0 2.216829 1_555
O3 Sn0 2.222992 1_455
O4 Zn3 2.023762 1_555
O4 Zn1 2.042702 1_645
O4 Zn1 2.044633 1_545
O4 Sn0 2.143226 1_555
O5 Zn0 2.093473 1_555
O5 Sn1 2.200305 1_655
O5 Sn1 2.202557 1_555
O5 Zn3 2.203751 1_554
O6 Zn2 2.000602 1_555
O6 Zn0 2.058883 1_465
O6 Zn0 2.059095 1_565
O6 Sn3 2.163578 1_555
O7 Zn1 1.974827 1_555
O7 Sn2 2.235431 1_555
O7 Sn2 2.236298 1_455
O7 Zn2 2.263046 1_556
