# generated using pymatgen
data_K2Na2Sm4Nb2O13
_symmetry_space_group_name_H-M   'P 1'
_cell_length_a   12.55468380
_cell_length_b   12.55468380
_cell_length_c   11.33285103
_cell_angle_alpha   64.30789023
_cell_angle_beta   64.30789023
_cell_angle_gamma   26.35744857
_symmetry_Int_Tables_number   1
_chemical_formula_structural   K2Na2Sm4Nb2O13
_chemical_formula_sum   'K4 Na4 Sm8 Nb4 O26'
_cell_volume   710.10335853
_cell_formula_units_Z   2
loop_
 _symmetry_equiv_pos_site_id
 _symmetry_equiv_pos_as_xyz
  1  'x, y, z'
loop_
 _atom_site_type_symbol
 _atom_site_label
 _atom_site_symmetry_multiplicity
 _atom_site_fract_x
 _atom_site_fract_y
 _atom_site_fract_z
 _atom_site_occupancy
  K  K0  1  0.80094500  0.69774600  0.36665100  1
  K  K1  1  0.30225400  0.19905500  0.13334900  1
  K  K2  1  0.19905500  0.30225400  0.63334900  1
  K  K3  1  0.69774600  0.80094500  0.86665100  1
  Na  Na0  1  0.87834300  0.80369700  0.02320800  1
  Na  Na1  1  0.19630300  0.12165700  0.47679200  1
  Na  Na2  1  0.12165700  0.19630300  0.97679200  1
  Na  Na3  1  0.80369700  0.87834300  0.52320800  1
  Sm  Sm0  1  0.60886200  0.51677500  0.54984400  1
  Sm  Sm1  1  0.48322500  0.39113800  0.95015600  1
  Sm  Sm2  1  0.39113800  0.48322500  0.45015600  1
  Sm  Sm3  1  0.51677500  0.60886200  0.04984400  1
  Sm  Sm4  1  0.97456400  0.90043200  0.17194700  1
  Sm  Sm5  1  0.09956800  0.02543600  0.32805300  1
  Sm  Sm6  1  0.02543600  0.09956800  0.82805300  1
  Sm  Sm7  1  0.90043200  0.97456400  0.67194700  1
  Nb  Nb0  1  0.68456000  0.61733200  0.21697400  1
  Nb  Nb1  1  0.38266800  0.31544000  0.28302600  1
  Nb  Nb2  1  0.31544000  0.38266800  0.78302600  1
  Nb  Nb3  1  0.61733200  0.68456000  0.71697400  1
  O  O0  1  0.90622100  0.35718900  0.35997500  1
  O  O1  1  0.64281100  0.09377900  0.14002500  1
  O  O2  1  0.09377900  0.64281100  0.64002500  1
  O  O3  1  0.35718900  0.90622100  0.85997500  1
  O  O4  1  0.86041000  0.40820900  0.62289600  1
  O  O5  1  0.59179100  0.13959000  0.87710400  1
  O  O6  1  0.13959000  0.59179100  0.37710400  1
  O  O7  1  0.40820900  0.86041000  0.12289600  1
  O  O8  1  0.17822500  0.56174000  0.13781200  1
  O  O9  1  0.43826000  0.82177500  0.36218800  1
  O  O10  1  0.82177500  0.43826000  0.86218800  1
  O  O11  1  0.56174000  0.17822500  0.63781200  1
  O  O12  1  0.79910900  0.67213200  0.12343500  1
  O  O13  1  0.32786800  0.20089100  0.37656500  1
  O  O14  1  0.20089100  0.32786800  0.87656500  1
  O  O15  1  0.67213200  0.79910900  0.62343500  1
  O  O16  1  0.24175900  0.75824100  0.25000000  1
  O  O17  1  0.75824100  0.24175900  0.75000000  1
  O  O18  1  0.36980400  0.83209700  0.65915900  1
  O  O19  1  0.16790300  0.63019600  0.84084100  1
  O  O20  1  0.63019600  0.16790300  0.34084100  1
  O  O21  1  0.83209700  0.36980400  0.15915900  1
  O  O22  1  0.75058100  0.24754100  0.47712600  1
  O  O23  1  0.75245900  0.24941900  0.02287400  1
  O  O24  1  0.24941900  0.75245900  0.52287400  1
  O  O25  1  0.24754100  0.75058100  0.97712600  1
loop_
_geom_bond_atom_site_label_1
_geom_bond_atom_site_label_2
_geom_bond_distance
_geom_bond_site_symmetry_2
K0 O13 2.827093 1_565
K0 O15 2.854074 1_555
K0 O12 2.922023 1_555
K0 O13 2.961707 1_655
K0 O6 3.166113 1_655
K0 O4 3.172952 1_555
K0 O0 3.178026 1_555
K0 O9 3.253562 1_555
K0 O8 3.281985 1_655
K0 O1 3.304251 1_565
K1 O12 2.827093 1_455
K1 O14 2.854074 1_554
K1 O13 2.922023 1_555
K1 O12 2.961707 1_545
K1 O7 3.166113 1_545
K1 O5 3.172952 1_554
K1 O1 3.178026 1_555
K1 O8 3.253562 1_555
K1 O9 3.281985 1_545
K1 O0 3.304251 1_455
K2 O15 2.827093 1_545
K2 O13 2.854074 1_555
K2 O14 2.922023 1_555
K2 O15 2.961707 1_455
K2 O4 3.166113 1_455
K2 O6 3.172952 1_555
K2 O2 3.178026 1_555
K2 O11 3.253562 1_555
K2 O10 3.281985 1_455
K2 O3 3.304251 1_545
K3 O14 2.827093 1_655
K3 O12 2.854074 1_556
K3 O15 2.922023 1_555
K3 O14 2.961707 1_565
K3 O5 3.166113 1_565
K3 O7 3.172952 1_556
K3 O3 3.178026 1_555
K3 O10 3.253562 1_555
K3 O11 3.281985 1_565
K3 O2 3.304251 1_655
Na0 O1 2.290609 1_565
Na0 O12 2.312167 1_555
Na0 O5 2.321701 1_564
Na0 O8 2.326491 1_655
Na0 O19 2.330197 1_654
Na1 O0 2.290609 1_455
Na1 O13 2.312167 1_555
Na1 O4 2.321701 1_455
Na1 O9 2.326491 1_545
Na1 O18 2.330197 1_545
Na2 O3 2.290609 1_545
Na2 O14 2.312167 1_555
Na2 O7 2.321701 1_546
Na2 O10 2.326491 1_455
Na2 O21 2.330197 1_456
Na3 O2 2.290609 1_655
Na3 O15 2.312167 1_555
Na3 O6 2.321701 1_655
Na3 O11 2.326491 1_565
Na3 O20 2.330197 1_565
Nb0 O12 1.866599 1_555
Nb0 O9 1.970988 1_555
Nb0 O7 1.974547 1_555
Nb0 O21 1.978689 1_555
Nb0 O0 2.017583 1_555
Nb1 O13 1.866599 1_555
Nb1 O8 1.970988 1_555
Nb1 O6 1.974547 1_555
Nb1 O20 1.978689 1_555
Nb1 O1 2.017583 1_555
Nb2 O14 1.866599 1_555
Nb2 O11 1.970988 1_555
Nb2 O5 1.974547 1_555
Nb2 O19 1.978689 1_555
Nb2 O2 2.017583 1_555
Nb3 O15 1.866599 1_555
Nb3 O10 1.970988 1_555
Nb3 O4 1.974547 1_555
Nb3 O18 1.978689 1_555
Nb3 O3 2.017583 1_555
O0 Sm5 2.407787 1_655
O0 Sm0 2.439249 1_555
O1 Sm4 2.407787 1_545
O1 Sm1 2.439249 1_554
O2 Sm7 2.407787 1_455
O2 Sm2 2.439249 1_555
O3 Sm6 2.407787 1_565
O3 Sm3 2.439249 1_556
O4 Sm0 2.468061 1_555
O4 Sm6 2.586697 1_655
O5 Sm1 2.468061 1_555
O5 Sm7 2.586697 1_545
O6 Sm2 2.468061 1_555
O6 Sm4 2.586697 1_455
O7 Sm3 2.468061 1_555
O7 Sm5 2.586697 1_565
O8 Sm4 2.419251 1_455
O8 Sm1 2.442062 1_554
O9 Sm5 2.419251 1_565
O9 Sm0 2.442062 1_555
O10 Sm6 2.419251 1_655
O10 Sm3 2.442062 1_556
O11 Sm7 2.419251 1_545
O11 Sm2 2.442062 1_555
O16 Sm4 2.386252 1_455
O16 Sm5 2.386252 1_565
O16 Sm2 2.424324 1_555
O16 Sm3 2.424324 1_555
O17 Sm7 2.386252 1_545
O17 Sm6 2.386252 1_655
O17 Sm1 2.424324 1_555
O17 Sm0 2.424324 1_555
O18 Sm0 2.439331 1_555
O18 Sm6 2.451930 1_565
O19 Sm1 2.439331 1_555
O19 Sm7 2.451930 1_455
O20 Sm2 2.439331 1_555
O20 Sm4 2.451930 1_545
O21 Sm3 2.439331 1_555
O21 Sm5 2.451930 1_655
O22 Sm5 2.366101 1_655
O22 Sm0 2.374115 1_555
O22 Sm7 2.376033 1_545
O22 Sm2 2.386548 1_555
O23 Sm4 2.366101 1_545
O23 Sm1 2.374115 1_554
O23 Sm6 2.376033 1_654
O23 Sm3 2.386548 1_555
O24 Sm7 2.366101 1_455
O24 Sm2 2.374115 1_555
O24 Sm5 2.376033 1_565
O24 Sm0 2.386548 1_555
O25 Sm6 2.366101 1_565
O25 Sm3 2.374115 1_556
O25 Sm4 2.376033 1_456
O25 Sm1 2.386548 1_555
