# generated using pymatgen
data_GdRh3
_symmetry_space_group_name_H-M   'P 1'
_cell_length_a   5.24384347
_cell_length_b   5.24384066
_cell_length_c   17.43636683
_cell_angle_alpha   90.00000000
_cell_angle_beta   90.00000000
_cell_angle_gamma   119.99936214
_symmetry_Int_Tables_number   1
_chemical_formula_structural   GdRh3
_chemical_formula_sum   'Gd6 Rh18'
_cell_volume   415.22990695
_cell_formula_units_Z   6
loop_
 _symmetry_equiv_pos_site_id
 _symmetry_equiv_pos_as_xyz
  1  'x, y, z'
loop_
 _atom_site_type_symbol
 _atom_site_label
 _atom_site_symmetry_multiplicity
 _atom_site_fract_x
 _atom_site_fract_y
 _atom_site_fract_z
 _atom_site_occupancy
  Gd  Gd0  1  0.66666984  0.33333016  0.04173072  1
  Gd  Gd1  1  0.33333016  0.66666984  0.95826928  1
  Gd  Gd2  1  0.33333016  0.66666984  0.54173072  1
  Gd  Gd3  1  0.66666984  0.33333016  0.45826928  1
  Gd  Gd4  1  0.66667272  0.33332728  0.25000000  1
  Gd  Gd5  1  0.33332728  0.66667272  0.75000000  1
  Rh  Rh0  1  0.83291559  0.66585474  0.62675917  1
  Rh  Rh1  1  0.83291504  0.16708496  0.62675114  1
  Rh  Rh2  1  0.33414526  0.16708541  0.62675917  1
  Rh  Rh3  1  0.16708441  0.33414526  0.37324083  1
  Rh  Rh4  1  0.16708496  0.83291604  0.37324886  1
  Rh  Rh5  1  0.66585474  0.83291559  0.37324083  1
  Rh  Rh6  1  0.16708441  0.33414526  0.12675917  1
  Rh  Rh7  1  0.16708496  0.83291604  0.12675114  1
  Rh  Rh8  1  0.66585474  0.83291559  0.12675917  1
  Rh  Rh9  1  0.83291559  0.66585474  0.87324083  1
  Rh  Rh10  1  0.83291504  0.16708496  0.87324886  1
  Rh  Rh11  1  0.33414526  0.16708541  0.87324083  1
  Rh  Rh12  1  0.66668141  0.33331859  0.75000000  1
  Rh  Rh13  1  0.33331859  0.66668141  0.25000000  1
  Rh  Rh14  1  0.99997241  0.00002759  0.75000000  1
  Rh  Rh15  1  0.00002759  0.99997241  0.25000000  1
  Rh  Rh16  1  0.00000000  -0.00000000  0.50000000  1
  Rh  Rh17  1  0.00000000  -0.00000000  -0.00000000  1
loop_
_geom_bond_atom_site_label_1
_geom_bond_atom_site_label_2
_geom_bond_distance
_geom_bond_site_symmetry_2
Gd0 Rh7 3.012018 1_545
Gd0 Rh7 3.012023 1_655
Gd0 Rh8 3.012034 1_555
Gd0 Rh6 3.012036 1_555
Gd0 Rh8 3.012099 1_545
Gd0 Rh6 3.012100 1_655
Gd0 Rh17 3.113708 1_655
Gd0 Rh17 3.113777 1_665
Gd0 Rh17 3.113779 1_555
Gd0 Rh10 3.303036 1_554
Gd0 Rh9 3.303238 1_554
Gd0 Rh11 3.303239 1_554
Gd0 Gd1 3.359121 1_544
Gd0 Gd1 3.359122 1_654
Gd0 Gd1 3.359173 1_554
Gd0 Gd4 3.631460 1_555
Gd1 Rh10 3.012020 1_565
Gd1 Rh10 3.012020 1_455
Gd1 Rh11 3.012030 1_555
Gd1 Rh9 3.012036 1_555
Gd1 Rh9 3.012100 1_455
Gd1 Rh11 3.012103 1_565
Gd1 Rh17 3.113708 1_566
Gd1 Rh17 3.113777 1_556
Gd1 Rh17 3.113779 1_666
Gd1 Rh7 3.303038 1_556
Gd1 Rh6 3.303238 1_556
Gd1 Rh8 3.303239 1_556
Gd1 Gd5 3.631460 1_555
Gd2 Rh1 3.012020 1_565
Gd2 Rh1 3.012020 1_455
Gd2 Rh2 3.012030 1_555
Gd2 Rh0 3.012036 1_555
Gd2 Rh0 3.012100 1_455
Gd2 Rh2 3.012103 1_565
Gd2 Rh16 3.113708 1_565
Gd2 Rh16 3.113777 1_555
Gd2 Rh16 3.113779 1_665
Gd2 Rh4 3.303038 1_555
Gd2 Rh3 3.303238 1_555
Gd2 Rh5 3.303239 1_555
Gd2 Gd3 3.359121 1_565
Gd2 Gd3 3.359122 1_455
Gd2 Gd3 3.359173 1_555
Gd2 Gd5 3.631460 1_555
Gd3 Rh4 3.012018 1_545
Gd3 Rh4 3.012023 1_655
Gd3 Rh5 3.012034 1_555
Gd3 Rh3 3.012036 1_555
Gd3 Rh5 3.012099 1_545
Gd3 Rh3 3.012100 1_655
Gd3 Rh16 3.113708 1_655
Gd3 Rh16 3.113777 1_665
Gd3 Rh16 3.113779 1_555
Gd3 Rh1 3.303036 1_555
Gd3 Rh0 3.303238 1_555
Gd3 Rh2 3.303239 1_555
Gd3 Gd4 3.631460 1_555
Gd4 Rh15 3.027454 1_655
Gd4 Rh15 3.027456 1_545
Gd4 Rh13 3.027458 1_545
Gd4 Rh13 3.027459 1_655
Gd4 Rh13 3.027713 1_555
Gd4 Rh15 3.027720 1_645
Gd4 Rh5 3.389994 1_555
Gd4 Rh8 3.389994 1_555
Gd4 Rh6 3.389995 1_555
Gd4 Rh3 3.389995 1_555
Gd4 Rh8 3.390016 1_545
Gd4 Rh5 3.390016 1_545
Gd4 Rh6 3.390017 1_655
Gd4 Rh3 3.390017 1_655
Gd4 Rh7 3.390112 1_545
Gd4 Rh4 3.390112 1_545
Gd4 Rh7 3.390116 1_655
Gd4 Rh4 3.390116 1_655
Gd5 Rh14 3.027454 1_455
Gd5 Rh14 3.027456 1_565
Gd5 Rh12 3.027458 1_565
Gd5 Rh12 3.027459 1_455
Gd5 Rh12 3.027713 1_555
Gd5 Rh14 3.027720 1_465
Gd5 Rh11 3.389990 1_555
Gd5 Rh2 3.389990 1_555
Gd5 Rh9 3.389995 1_555
Gd5 Rh0 3.389995 1_555
Gd5 Rh9 3.390017 1_455
Gd5 Rh0 3.390017 1_455
Gd5 Rh2 3.390020 1_565
Gd5 Rh11 3.390020 1_565
Gd5 Rh10 3.390114 1_565
Gd5 Rh1 3.390114 1_565
Gd5 Rh1 3.390114 1_455
Gd5 Rh10 3.390114 1_455
Rh0 Rh1 2.615468 1_555
Rh0 Rh2 2.615495 1_555
Rh0 Rh12 2.626447 1_555
Rh0 Rh1 2.628373 1_565
Rh0 Rh2 2.628397 1_665
Rh0 Rh14 2.630728 1_565
Rh0 Rh16 2.681001 1_665
Rh1 Rh2 2.615472 1_555
Rh1 Rh12 2.626373 1_555
Rh1 Rh2 2.628372 1_655
Rh1 Rh14 2.630682 1_555
Rh1 Rh16 2.680941 1_655
Rh3 Rh4 2.615473 1_555
Rh3 Rh5 2.615498 1_555
Rh3 Rh4 2.628368 1_545
Rh3 Rh5 2.628395 1_445
Rh4 Rh5 2.615472 1_555
Rh4 Rh5 2.628372 1_455
Rh6 Rh7 2.615473 1_555
Rh6 Rh8 2.615498 1_555
Rh6 Rh7 2.628368 1_545
Rh6 Rh8 2.628395 1_445
Rh7 Rh8 2.615472 1_555
Rh7 Rh8 2.628372 1_455
Rh10 Rh9 2.615468 1_555
Rh10 Rh11 2.615472 1_555
Rh10 Rh12 2.626373 1_555
Rh10 Rh11 2.628372 1_655
Rh10 Rh9 2.628373 1_545
Rh10 Rh14 2.630682 1_555
Rh10 Rh17 2.680941 1_656
Rh11 Rh9 2.615495 1_555
Rh11 Rh12 2.626447 1_555
Rh11 Rh9 2.628397 1_445
Rh11 Rh14 2.630728 1_455
Rh11 Rh17 2.681001 1_556
Rh12 Rh9 2.626447 1_555
Rh12 Rh2 2.626447 1_555
Rh12 Rh14 3.027139 1_555
Rh12 Rh14 3.027745 1_565
Rh12 Rh14 3.027746 1_455
Rh13 Rh7 2.626376 1_555
Rh13 Rh4 2.626376 1_555
Rh13 Rh6 2.626447 1_555
Rh13 Rh3 2.626447 1_555
Rh13 Rh8 2.626447 1_555
Rh13 Rh5 2.626447 1_555
Rh13 Rh15 3.027139 1_555
Rh13 Rh15 3.027745 1_545
Rh13 Rh15 3.027746 1_655
Rh14 Rh9 2.630728 1_545
Rh14 Rh2 2.630728 1_655
Rh15 Rh7 2.630679 1_555
Rh15 Rh4 2.630679 1_555
Rh15 Rh6 2.630728 1_565
Rh15 Rh3 2.630728 1_565
Rh15 Rh8 2.630728 1_455
Rh15 Rh5 2.630728 1_455
Rh16 Rh4 2.680938 1_545
Rh16 Rh3 2.681001 1_555
Rh16 Rh5 2.681001 1_445
Rh16 Rh2 2.681001 1_555
Rh17 Rh7 2.680938 1_545
Rh17 Rh6 2.681001 1_555
Rh17 Rh9 2.681001 1_444
Rh17 Rh8 2.681001 1_445
