# generated using pymatgen
data_Hf2SiTe2
_symmetry_space_group_name_H-M   'P 1'
_cell_length_a   3.02041700
_cell_length_b   3.02041700
_cell_length_c   14.97473300
_cell_angle_alpha   90.00000000
_cell_angle_beta   90.00000000
_cell_angle_gamma   90.00000000
_symmetry_Int_Tables_number   1
_chemical_formula_structural   Hf2SiTe2
_chemical_formula_sum   'Hf2 Si1 Te2'
_cell_volume   136.61327402
_cell_formula_units_Z   1
loop_
 _symmetry_equiv_pos_site_id
 _symmetry_equiv_pos_as_xyz
  1  'x, y, z'
loop_
 _atom_site_type_symbol
 _atom_site_label
 _atom_site_symmetry_multiplicity
 _atom_site_fract_x
 _atom_site_fract_y
 _atom_site_fract_z
 _atom_site_occupancy
  Hf  Hf0  1  0.50000000  0.50000000  0.17668200  1
  Hf  Hf1  1  0.50000000  0.50000000  0.82331800  1
  Si  Si0  1  0.50000000  0.50000000  0.00000000  1
  Te  Te0  1  0.50000000  0.50000000  0.62836000  1
  Te  Te1  1  0.50000000  0.50000000  0.37164000  1
loop_
_geom_bond_atom_site_label_1
_geom_bond_atom_site_label_2
_geom_bond_distance
_geom_bond_site_symmetry_2
Hf0 Si0 2.645766 1_555
Hf0 Te1 2.919444 1_555
Hf1 Si0 2.645766 1_556
Hf1 Te0 2.919444 1_555
