# generated using pymatgen
data_Mg9Si5
_symmetry_space_group_name_H-M   'P 1'
_cell_length_a   7.18348500
_cell_length_b   7.19402314
_cell_length_c   13.19545937
_cell_angle_alpha   87.62989113
_cell_angle_beta   103.11268755
_cell_angle_gamma   119.51550718
_symmetry_Int_Tables_number   1
_chemical_formula_structural   Mg9Si5
_chemical_formula_sum   'Mg18 Si10'
_cell_volume   575.94842686
_cell_formula_units_Z   2
loop_
 _symmetry_equiv_pos_site_id
 _symmetry_equiv_pos_as_xyz
  1  'x, y, z'
loop_
 _atom_site_type_symbol
 _atom_site_label
 _atom_site_symmetry_multiplicity
 _atom_site_fract_x
 _atom_site_fract_y
 _atom_site_fract_z
 _atom_site_occupancy
  Mg  Mg0  1  0.92233100  0.34333100  0.37554900  1
  Mg  Mg1  1  0.13261600  0.77679000  0.51726000  1
  Mg  Mg2  1  0.40672000  0.11520200  0.37630500  1
  Mg  Mg3  1  0.71705500  0.97806400  0.53441000  1
  Mg  Mg4  1  0.67412300  0.62293700  0.36890600  1
  Mg  Mg5  1  0.40087100  0.45486300  0.54303200  1
  Mg  Mg6  1  0.89530900  0.10187300  0.86558700  1
  Mg  Mg7  1  0.77838900  0.29459400  0.05704900  1
  Mg  Mg8  1  0.45112600  0.87580900  0.93645000  1
  Mg  Mg9  1  0.20752300  0.03015300  0.05239700  1
  Mg  Mg10  1  0.36326600  0.23672400  0.85176300  1
  Mg  Mg11  1  0.51844200  0.55968100  0.05358000  1
  Mg  Mg12  1  0.08750000  0.41936000  0.69401800  1
  Mg  Mg13  1  0.00364700  0.70057400  0.21793400  1
  Mg  Mg14  1  0.58517400  0.20040800  0.68986700  1
  Mg  Mg15  1  0.53537400  0.91543500  0.21649600  1
  Mg  Mg16  1  0.93878700  0.57900800  0.86323900  1
  Mg  Mg17  1  0.21636000  0.36939900  0.21688800  1
  Si  Si0  1  0.21634900  0.84336500  0.73941400  1
  Si  Si1  1  0.13861300  0.08920300  0.63657400  1
  Si  Si2  1  0.97914800  0.01680400  0.33247900  1
  Si  Si3  1  0.86509600  0.97435400  0.12901300  1
  Si  Si4  1  0.49466500  0.78042400  0.69393500  1
  Si  Si5  1  0.58366300  0.32626400  0.21033900  1
  Si  Si6  1  0.61963200  0.66981400  0.85679900  1
  Si  Si7  1  0.17767000  0.63173400  0.06176600  1
  Si  Si8  1  0.33721900  0.69624000  0.37984500  1
  Si  Si9  1  0.75330700  0.39759200  0.52932700  1
loop_
_geom_bond_atom_site_label_1
_geom_bond_atom_site_label_2
_geom_bond_distance
_geom_bond_site_symmetry_2
Mg0 Si2 2.677297 1_555
Mg0 Si9 2.719295 1_555
Mg0 Si8 2.794830 1_655
Mg0 Si5 2.829765 1_555
Mg1 Si1 2.774595 1_565
Mg1 Si9 2.780011 1_455
Mg1 Si8 2.814109 1_555
Mg1 Si0 2.866471 1_555
Mg1 Si4 3.063767 1_555
Mg1 Si2 3.232588 1_465
Mg2 Si2 2.712010 1_455
Mg2 Si9 2.734499 1_555
Mg2 Si5 2.793486 1_555
Mg2 Si8 2.802146 1_545
Mg3 Si1 2.734619 1_665
Mg3 Si4 2.836366 1_555
Mg3 Si8 2.842798 1_555
Mg3 Si9 2.897925 1_565
Mg4 Si2 2.703445 1_565
Mg4 Si9 2.740626 1_555
Mg4 Si8 2.752878 1_555
Mg4 Si5 2.782314 1_555
Mg5 Si9 2.802451 1_555
Mg5 Si8 2.808478 1_555
Mg5 Si1 2.810008 1_555
Mg5 Si4 2.850702 1_555
Mg6 Si6 2.730743 1_545
Mg6 Si4 3.111067 1_545
Mg7 Si7 2.681451 1_655
Mg7 Si3 2.749876 1_545
Mg7 Si5 2.781360 1_555
Mg8 Si6 2.690645 1_555
Mg8 Si0 2.707668 1_555
Mg8 Si7 2.740695 1_556
Mg9 Si3 2.712160 1_445
Mg9 Si7 2.766526 1_545
Mg9 Si5 2.884950 1_555
Mg10 Si6 2.722367 1_555
Mg10 Si0 2.830893 1_545
Mg10 Si1 2.876806 1_555
Mg11 Si5 2.714063 1_555
Mg11 Si7 2.765427 1_555
Mg11 Si3 2.809349 1_555
Mg11 Si6 2.831487 1_554
Mg12 Si1 2.735912 1_555
Mg12 Si0 2.763615 1_555
Mg12 Si9 2.793024 1_455
Mg12 Si4 2.795938 1_555
Mg13 Si3 2.730763 1_455
Mg13 Si7 2.813853 1_555
Mg13 Si8 2.837711 1_555
Mg13 Si5 2.871158 1_455
Mg13 Si2 2.879336 1_465
Mg14 Si9 2.680083 1_555
Mg14 Si4 2.760645 1_545
Mg14 Si1 2.814118 1_555
Mg14 Si0 2.826000 1_545
Mg15 Si3 2.707992 1_555
Mg15 Si7 2.780945 1_555
Mg15 Si5 2.800848 1_565
Mg15 Si8 2.838691 1_555
Mg15 Si2 2.936740 1_565
Mg16 Si6 2.659494 1_555
Mg16 Si7 2.711514 1_656
Mg16 Si0 2.783335 1_655
Mg17 Si3 2.769024 1_445
Mg17 Si7 2.787104 1_555
Mg17 Si5 2.824527 1_555
Mg17 Si2 2.874846 1_455
Mg17 Si8 2.909612 1_555
Si0 Si1 2.389962 1_565
Si0 Si4 2.453799 1_555
Si2 Si3 2.606919 1_545
Si4 Si6 2.396786 1_555
