# generated using pymatgen
data_Ru2SeS3
_symmetry_space_group_name_H-M   'P 1'
_cell_length_a   5.74848100
_cell_length_b   5.74666300
_cell_length_c   5.74974968
_cell_angle_alpha   89.20557135
_cell_angle_beta   90.00000000
_cell_angle_gamma   90.00000000
_symmetry_Int_Tables_number   1
_chemical_formula_structural   Ru2SeS3
_chemical_formula_sum   'Ru4 Se2 S6'
_cell_volume   189.92232588
_cell_formula_units_Z   2
loop_
 _symmetry_equiv_pos_site_id
 _symmetry_equiv_pos_as_xyz
  1  'x, y, z'
loop_
 _atom_site_type_symbol
 _atom_site_label
 _atom_site_symmetry_multiplicity
 _atom_site_fract_x
 _atom_site_fract_y
 _atom_site_fract_z
 _atom_site_occupancy
  Ru  Ru0  1  0.50313500  0.99235800  0.24814800  1
  Ru  Ru1  1  0.00313500  0.00764200  0.75185200  1
  Ru  Ru2  1  0.99506800  0.50009800  0.24034400  1
  Ru  Ru3  1  0.49506800  0.49990200  0.75965600  1
  Se  Se0  1  0.38365800  0.38272200  0.36688400  1
  Se  Se1  1  0.88365800  0.61727800  0.63311600  1
  S  S0  1  0.61721300  0.61727000  0.13064400  1
  S  S1  1  0.11721300  0.38273000  0.86935600  1
  S  S2  1  0.88660700  0.11331100  0.36103600  1
  S  S3  1  0.38660700  0.88668900  0.63896400  1
  S  S4  1  0.11431800  0.88611700  0.13545100  1
  S  S5  1  0.61431800  0.11388300  0.86454900  1
loop_
_geom_bond_atom_site_label_1
_geom_bond_atom_site_label_2
_geom_bond_distance
_geom_bond_site_symmetry_2
Ru0 S0 2.360738 1_555
Ru0 S5 2.391266 1_564
Ru0 S2 2.403381 1_565
Ru0 S4 2.408174 1_555
Ru0 S3 2.414343 1_555
Ru0 Se0 2.452063 1_565
Ru1 S1 2.360738 1_555
Ru1 S4 2.391266 1_546
Ru1 S3 2.403381 1_545
Ru1 S5 2.408174 1_455
Ru1 S2 2.414343 1_455
Ru1 Se1 2.452063 1_445
Ru2 S1 2.353272 1_654
Ru2 S0 2.357424 1_555
Ru2 S4 2.391131 1_655
Ru2 S2 2.401682 1_555
Ru2 Se0 2.441435 1_655
Ru2 Se1 2.450692 1_555
Ru3 S0 2.353272 1_556
Ru3 S1 2.357424 1_555
Ru3 S5 2.391131 1_555
Ru3 S3 2.401682 1_555
Ru3 Se1 2.441435 1_555
Ru3 Se0 2.450692 1_555
S0 Se0 2.326705 1_555
S1 Se1 2.326705 1_455
S2 S4 2.268786 1_645
S3 S5 2.268786 1_565
