# generated using pymatgen
data_Sr3(FeN2)2
_symmetry_space_group_name_H-M   'P 1'
_cell_length_a   5.88289600
_cell_length_b   9.94437200
_cell_length_c   9.51940000
_cell_angle_alpha   90.00000000
_cell_angle_beta   90.00000000
_cell_angle_gamma   90.00000000
_symmetry_Int_Tables_number   1
_chemical_formula_structural   Sr3(FeN2)2
_chemical_formula_sum   'Sr12 Fe8 N16'
_cell_volume   556.90114258
_cell_formula_units_Z   4
loop_
 _symmetry_equiv_pos_site_id
 _symmetry_equiv_pos_as_xyz
  1  'x, y, z'
loop_
 _atom_site_type_symbol
 _atom_site_label
 _atom_site_symmetry_multiplicity
 _atom_site_fract_x
 _atom_site_fract_y
 _atom_site_fract_z
 _atom_site_occupancy
  Sr  Sr0  1  0.61439600  0.15685000  0.41512900  1
  Sr  Sr1  1  0.88560400  0.84315100  0.41512900  1
  Sr  Sr2  1  0.61439600  0.34315100  0.08487100  1
  Sr  Sr3  1  0.88560400  0.65684900  0.08487100  1
  Sr  Sr4  1  0.38560400  0.84315100  0.58487100  1
  Sr  Sr5  1  0.11439600  0.15685000  0.58487100  1
  Sr  Sr6  1  0.38560400  0.65684900  0.91512900  1
  Sr  Sr7  1  0.11439600  0.34315100  0.91512900  1
  Sr  Sr8  1  0.75000000  0.50000000  0.40315800  1
  Sr  Sr9  1  0.75000000  0.00000000  0.09684200  1
  Sr  Sr10  1  0.25000000  0.50000000  0.59684200  1
  Sr  Sr11  1  0.25000000  0.00000000  0.90315800  1
  Fe  Fe0  1  0.75000000  0.50000000  0.73364200  1
  Fe  Fe1  1  0.75000000  0.00000000  0.76635800  1
  Fe  Fe2  1  0.25000000  0.50000000  0.26635800  1
  Fe  Fe3  1  0.25000000  0.00000000  0.23364200  1
  Fe  Fe4  1  0.65505200  0.25000000  0.75000000  1
  Fe  Fe5  1  0.84494800  0.75000000  0.75000000  1
  Fe  Fe6  1  0.34494800  0.75000000  0.25000000  1
  Fe  Fe7  1  0.15505200  0.25000000  0.25000000  1
  N  N0  1  0.86513900  0.35757100  0.63017400  1
  N  N1  1  0.63486100  0.64242900  0.63017400  1
  N  N2  1  0.86513900  0.14242900  0.86982600  1
  N  N3  1  0.63486100  0.85757100  0.86982600  1
  N  N4  1  0.13486100  0.64242900  0.36982600  1
  N  N5  1  0.36513900  0.35757100  0.36982600  1
  N  N6  1  0.13486100  0.85757100  0.13017400  1
  N  N7  1  0.36513900  0.14242900  0.13017400  1
  N  N8  1  0.51599600  0.41184100  0.82914000  1
  N  N9  1  0.98400400  0.58815900  0.82914000  1
  N  N10  1  0.51599600  0.08815900  0.67086000  1
  N  N11  1  0.98400400  0.91184100  0.67086000  1
  N  N12  1  0.48400400  0.58815900  0.17086000  1
  N  N13  1  0.01599600  0.41184100  0.17086000  1
  N  N14  1  0.48400400  0.91184100  0.32914000  1
  N  N15  1  0.01599600  0.08815900  0.32914000  1
loop_
_geom_bond_atom_site_label_1
_geom_bond_atom_site_label_2
_geom_bond_distance
_geom_bond_site_symmetry_2
Fe0 N0 1.853384 1_555
Fe0 N1 1.853384 1_555
Fe0 N8 1.868180 1_555
Fe0 N9 1.868180 1_555
Fe1 N3 1.853384 1_545
Fe1 N2 1.853384 1_555
Fe1 N11 1.868180 1_545
Fe1 N10 1.868180 1_555
Fe2 N5 1.853384 1_555
Fe2 N4 1.853384 1_555
Fe2 N12 1.868180 1_555
Fe2 N13 1.868180 1_555
Fe3 N7 1.853384 1_555
Fe3 N6 1.853384 1_545
Fe3 N15 1.868180 1_555
Fe3 N14 1.868180 1_545
Fe4 N10 1.956262 1_555
Fe4 N8 1.956262 1_555
Fe4 N0 1.993224 1_555
Fe4 N2 1.993224 1_555
Fe5 N9 1.956262 1_555
Fe5 N11 1.956262 1_555
Fe5 N3 1.993224 1_555
Fe5 N1 1.993224 1_555
Fe6 N12 1.956262 1_555
Fe6 N14 1.956262 1_555
Fe6 N6 1.993224 1_555
Fe6 N4 1.993224 1_555
Fe7 N15 1.956262 1_555
Fe7 N13 1.956262 1_555
Fe7 N7 1.993224 1_555
Fe7 N5 1.993224 1_555
N0 Sr5 2.514034 1_655
N0 Sr8 2.671154 1_555
N0 Sr10 2.689407 1_655
N1 Sr4 2.514042 1_555
N1 Sr8 2.671154 1_555
N1 Sr10 2.689407 1_555
N2 Sr7 2.514042 1_655
N2 Sr9 2.671154 1_556
N2 Sr11 2.689407 1_655
N3 Sr6 2.514042 1_555
N3 Sr9 2.671154 1_566
N3 Sr11 2.689407 1_565
N4 Sr1 2.514042 1_455
N4 Sr10 2.671154 1_555
N4 Sr8 2.689407 1_455
N5 Sr0 2.514034 1_555
N5 Sr10 2.671154 1_555
N5 Sr8 2.689407 1_555
N6 Sr3 2.514042 1_455
N6 Sr11 2.671154 1_564
N6 Sr9 2.689407 1_465
N7 Sr2 2.514042 1_555
N7 Sr11 2.671154 1_554
N7 Sr9 2.689407 1_555
N8 Sr7 2.591985 1_555
N8 Sr2 2.593844 1_556
N8 Sr6 2.682304 1_555
N8 Sr10 2.847328 1_555
N9 Sr6 2.591985 1_655
N9 Sr3 2.593844 1_556
N9 Sr7 2.682304 1_655
N9 Sr10 2.847328 1_655
N10 Sr5 2.591987 1_555
N10 Sr0 2.593847 1_555
N10 Sr4 2.682304 1_545
N10 Sr11 2.847328 1_555
N11 Sr4 2.591985 1_655
N11 Sr1 2.593844 1_555
N11 Sr5 2.682313 1_665
N11 Sr11 2.847328 1_665
N12 Sr3 2.591985 1_555
N12 Sr6 2.593844 1_554
N12 Sr2 2.682304 1_555
N12 Sr8 2.847328 1_555
N13 Sr2 2.591985 1_455
N13 Sr7 2.593844 1_554
N13 Sr3 2.682304 1_455
N13 Sr8 2.847328 1_455
N14 Sr1 2.591985 1_555
N14 Sr4 2.593844 1_555
N14 Sr0 2.682313 1_565
N14 Sr9 2.847328 1_565
N15 Sr0 2.591987 1_455
N15 Sr5 2.593847 1_555
N15 Sr1 2.682304 1_445
N15 Sr9 2.847328 1_455
