# generated using pymatgen
data_NaSr(PO3)3
_symmetry_space_group_name_H-M   'P 1'
_cell_length_a   6.90574300
_cell_length_b   7.25808141
_cell_length_c   7.84549480
_cell_angle_alpha   83.82804632
_cell_angle_beta   80.50899742
_cell_angle_gamma   82.77006401
_symmetry_Int_Tables_number   1
_chemical_formula_structural   NaSr(PO3)3
_chemical_formula_sum   'Na2 Sr2 P6 O18'
_cell_volume   383.25322166
_cell_formula_units_Z   2
loop_
 _symmetry_equiv_pos_site_id
 _symmetry_equiv_pos_as_xyz
  1  'x, y, z'
loop_
 _atom_site_type_symbol
 _atom_site_label
 _atom_site_symmetry_multiplicity
 _atom_site_fract_x
 _atom_site_fract_y
 _atom_site_fract_z
 _atom_site_occupancy
  Na  Na0  1  0.46563500  0.36866400  0.34230900  1
  Na  Na1  1  0.53436500  0.63133600  0.65769100  1
  Sr  Sr0  1  0.01124400  0.73235000  0.64313400  1
  Sr  Sr1  1  0.98875600  0.26765000  0.35686600  1
  P  P0  1  0.83403000  0.78923100  0.27164400  1
  P  P1  1  0.16597000  0.21076900  0.72835600  1
  P  P2  1  0.79865600  0.33563200  0.94328700  1
  P  P3  1  0.20134400  0.66436800  0.05671300  1
  P  P4  1  0.60287500  0.12010500  0.72477200  1
  P  P5  1  0.39712500  0.87989500  0.27522800  1
  O  O0  1  0.08798800  0.05532300  0.65755200  1
  O  O1  1  0.91201200  0.94467700  0.34244800  1
  O  O2  1  0.36853500  0.14727400  0.80129300  1
  O  O3  1  0.63146500  0.85272600  0.19870700  1
  O  O4  1  0.17876800  0.38460200  0.60291600  1
  O  O5  1  0.82123200  0.61539800  0.39708400  1
  O  O6  1  0.03168100  0.25307600  0.91216500  1
  O  O7  1  0.96831900  0.74692400  0.08783500  1
  O  O8  1  0.74913200  0.34261000  0.13591500  1
  O  O9  1  0.25086800  0.65739000  0.86408500  1
  O  O10  1  0.77184100  0.50873700  0.82312200  1
  O  O11  1  0.22815900  0.49126300  0.17687800  1
  O  O12  1  0.68745400  0.17089900  0.89272400  1
  O  O13  1  0.31254600  0.82910100  0.10727600  1
  O  O14  1  0.64680700  0.26399300  0.57404900  1
  O  O15  1  0.35319300  0.73600700  0.42595100  1
  O  O16  1  0.66261200  0.91752500  0.70394900  1
  O  O17  1  0.33738800  0.08247500  0.29605100  1
loop_
_geom_bond_atom_site_label_1
_geom_bond_atom_site_label_2
_geom_bond_distance
_geom_bond_site_symmetry_2
Na0 O11 2.291734 1_555
Na0 O8 2.327613 1_555
Na0 O14 2.379483 1_555
Na0 O17 2.441699 1_555
Na0 O4 2.603003 1_555
Na0 O15 2.798085 1_555
Na1 O10 2.291734 1_555
Na1 O9 2.327613 1_555
Na1 O15 2.379483 1_555
Na1 O16 2.441699 1_555
Na1 O5 2.603003 1_555
Na1 O14 2.798085 1_555
O0 P1 1.502615 1_555
O0 Sr0 2.485611 1_545
O0 Sr1 2.809833 1_455
O1 P0 1.502615 1_555
O1 Sr1 2.485611 1_565
O1 Sr0 2.809833 1_655
O2 P1 1.594257 1_555
O2 P4 1.625701 1_555
O3 P0 1.594257 1_555
O3 P5 1.625701 1_555
O4 P1 1.516774 1_555
O4 Sr0 2.669143 1_555
O4 Sr1 2.763470 1_455
O5 P0 1.516774 1_555
O5 Sr1 2.669143 1_555
O5 Sr0 2.763470 1_655
O6 P1 1.617523 1_555
O6 P2 1.633216 1_455
O7 P0 1.617523 1_555
O7 P3 1.633216 1_655
O8 P2 1.498362 1_554
O8 Sr1 2.560433 1_555
O9 P3 1.498362 1_556
O9 Sr0 2.560433 1_555
O10 P2 1.498653 1_555
O10 Sr0 2.602705 1_655
O11 P3 1.498653 1_555
O11 Sr1 2.602705 1_455
O12 P2 1.615615 1_555
O12 P4 1.620425 1_555
O13 P3 1.615615 1_555
O13 P5 1.620425 1_555
O14 P4 1.508941 1_555
O14 Sr1 2.675704 1_555
O15 P5 1.508941 1_555
O15 Sr0 2.675704 1_555
O16 P4 1.495168 1_565
O16 Sr0 2.602880 1_655
O17 P5 1.495168 1_545
O17 Sr1 2.602880 1_455
