# generated using pymatgen
data_CeAgPb
_symmetry_space_group_name_H-M   'P 1'
_cell_length_a   4.88405462
_cell_length_b   4.88405498
_cell_length_c   7.78323615
_cell_angle_alpha   90.00000000
_cell_angle_beta   90.00000000
_cell_angle_gamma   120.00000444
_symmetry_Int_Tables_number   1
_chemical_formula_structural   CeAgPb
_chemical_formula_sum   'Ce2 Ag2 Pb2'
_cell_volume   160.78734961
_cell_formula_units_Z   2
loop_
 _symmetry_equiv_pos_site_id
 _symmetry_equiv_pos_as_xyz
  1  'x, y, z'
loop_
 _atom_site_type_symbol
 _atom_site_label
 _atom_site_symmetry_multiplicity
 _atom_site_fract_x
 _atom_site_fract_y
 _atom_site_fract_z
 _atom_site_occupancy
  Ce  Ce0  1  -0.00000000  0.00000000  0.00157513  1
  Ce  Ce1  1  -0.00000000  0.00000000  0.50158044  1
  Ag  Ag0  1  0.66666700  0.33333300  0.30653704  1
  Ag  Ag1  1  0.33333300  0.66666700  0.80666743  1
  Pb  Pb0  1  0.33333300  0.66666700  0.21881480  1
  Pb  Pb1  1  0.66666700  0.33333300  0.71902716  1
loop_
_geom_bond_atom_site_label_1
_geom_bond_atom_site_label_2
_geom_bond_distance
_geom_bond_site_symmetry_2
Ce0 Pb0 3.287889 1_545
Ce0 Pb0 3.287892 1_445
Ce0 Pb0 3.287892 1_555
Ce0 Pb1 3.575964 1_454
Ce0 Pb1 3.575967 1_554
Ce0 Pb1 3.575968 1_444
Ce1 Pb1 3.288718 1_455
Ce1 Pb1 3.288721 1_555
Ce1 Pb1 3.288721 1_445
Ce1 Pb0 3.577006 1_545
Ce1 Pb0 3.577010 1_445
Ce1 Pb0 3.577010 1_555
Ag0 Pb0 2.901289 1_655
Ag0 Pb0 2.901289 1_545
Ag0 Pb0 2.901298 1_555
Ag0 Ce1 3.202475 1_655
Ag0 Ce1 3.202479 1_555
Ag0 Ce1 3.202479 1_665
Ag0 Pb1 3.210508 1_555
Ag0 Ce0 3.685817 1_655
Ag0 Ce0 3.685820 1_555
Ag0 Ce0 3.685820 1_665
Ag1 Pb1 2.901139 1_455
Ag1 Pb1 2.901139 1_565
Ag1 Pb1 2.901148 1_555
Ag1 Ce0 3.201975 1_566
Ag1 Ce0 3.201978 1_666
Ag1 Ce0 3.201978 1_556
Ag1 Pb0 3.207840 1_556
Ag1 Ce1 3.686444 1_565
Ag1 Ce1 3.686447 1_665
Ag1 Ce1 3.686447 1_555
