# generated using pymatgen
data_NbVSi
_symmetry_space_group_name_H-M   'P 1'
_cell_length_a   4.90933260
_cell_length_b   4.90933260
_cell_length_c   8.30570600
_cell_angle_alpha   90.00000000
_cell_angle_beta   90.00000000
_cell_angle_gamma   118.92718547
_symmetry_Int_Tables_number   1
_chemical_formula_structural   NbVSi
_chemical_formula_sum   'Nb4 V4 Si4'
_cell_volume   175.20488225
_cell_formula_units_Z   4
loop_
 _symmetry_equiv_pos_site_id
 _symmetry_equiv_pos_as_xyz
  1  'x, y, z'
loop_
 _atom_site_type_symbol
 _atom_site_label
 _atom_site_symmetry_multiplicity
 _atom_site_fract_x
 _atom_site_fract_y
 _atom_site_fract_z
 _atom_site_occupancy
  Nb  Nb0  1  0.33584200  0.66415800  0.18603500  1
  Nb  Nb1  1  0.66396400  0.33603600  0.30783200  1
  Nb  Nb2  1  0.66396400  0.33603600  0.69216800  1
  Nb  Nb3  1  0.33584200  0.66415800  0.81396500  1
  V  V0  1  0.83968100  0.16031900  0.00000000  1
  V  V1  1  0.16730400  0.34629700  0.50000000  1
  V  V2  1  0.65370300  0.83269600  0.50000000  1
  V  V3  1  0.16734000  0.83266000  0.50000000  1
  Si  Si0  1  0.99439700  0.00560300  0.25449600  1
  Si  Si1  1  0.99439700  0.00560300  0.74550400  1
  Si  Si2  1  0.83498000  0.65135400  0.00000000  1
  Si  Si3  1  0.34864600  0.16502000  0.00000000  1
loop_
_geom_bond_atom_site_label_1
_geom_bond_atom_site_label_2
_geom_bond_distance
_geom_bond_site_symmetry_2
Nb0 Si3 2.878906 1_565
Nb0 Si2 2.878906 1_455
Nb0 Si0 2.888447 1_565
Nb0 Si0 2.888447 1_455
Nb0 Si3 2.923198 1_555
Nb0 Si2 2.923198 1_555
Nb0 V0 2.934347 1_565
Nb0 V0 2.934347 1_455
Nb0 Si0 2.943013 1_465
Nb0 V1 2.944616 1_555
Nb0 V2 2.944616 1_555
Nb0 Nb1 2.953534 1_555
Nb0 V3 2.971655 1_555
Nb0 Nb1 3.059086 1_455
Nb0 Nb1 3.059086 1_565
Nb0 Nb3 3.090304 1_554
Nb1 Si0 2.829328 1_555
Nb1 Si3 2.894985 1_555
Nb1 Si2 2.894985 1_555
Nb1 Si0 2.911093 1_455
Nb1 Si0 2.911093 1_565
Nb1 V2 2.921605 1_545
Nb1 V1 2.921605 1_655
Nb1 V1 2.934965 1_555
Nb1 V2 2.934965 1_555
Nb1 V0 2.957242 1_555
Nb1 V3 2.961446 1_655
Nb1 V3 2.961446 1_545
Nb1 Nb2 3.192182 1_555
Nb2 Si1 2.829328 1_555
Nb2 Si3 2.894985 1_556
Nb2 Si2 2.894985 1_556
Nb2 Si1 2.911093 1_565
Nb2 Si1 2.911093 1_455
Nb2 V2 2.921605 1_545
Nb2 V1 2.921605 1_655
Nb2 V1 2.934965 1_555
Nb2 V2 2.934965 1_555
Nb2 Nb3 2.953534 1_555
Nb2 V0 2.957242 1_556
Nb2 V3 2.961446 1_655
Nb2 V3 2.961446 1_545
Nb2 Nb3 3.059086 1_545
Nb2 Nb3 3.059086 1_655
Nb3 Si3 2.878906 1_566
Nb3 Si2 2.878906 1_456
Nb3 Si1 2.888447 1_565
Nb3 Si1 2.888447 1_455
Nb3 Si3 2.923198 1_556
Nb3 Si2 2.923198 1_556
Nb3 V0 2.934347 1_566
Nb3 V0 2.934347 1_456
Nb3 Si1 2.943013 1_465
Nb3 V1 2.944616 1_555
Nb3 V2 2.944616 1_555
Nb3 V3 2.971655 1_555
V1 V3 2.387632 1_555
V1 V2 2.426510 1_555
V1 V3 2.521700 1_545
V1 V2 2.562214 1_445
V2 V3 2.387632 1_555
V2 V3 2.521700 1_655
Si0 V0 2.485954 1_555
Si0 V3 2.509370 1_645
Si0 V1 2.510469 1_655
Si0 V2 2.510469 1_545
Si0 Si3 2.605451 1_655
Si0 Si2 2.605451 1_545
Si1 V0 2.485954 1_556
Si1 V3 2.509370 1_645
Si1 V2 2.510469 1_545
Si1 V1 2.510469 1_655
Si1 Si3 2.605451 1_656
Si1 Si2 2.605451 1_546
Si2 V0 2.421902 1_555
Si2 Si3 2.426186 1_555
Si2 V0 2.487597 1_565
Si2 Si3 2.562538 1_665
Si3 V0 2.421902 1_555
Si3 V0 2.487597 1_455
