# generated using pymatgen
data_Gd2AgIr
_symmetry_space_group_name_H-M   'P 1'
_cell_length_a   4.99851698
_cell_length_b   4.99851698
_cell_length_c   4.99851698
_cell_angle_alpha   60.00000000
_cell_angle_beta   60.00000000
_cell_angle_gamma   60.00000000
_symmetry_Int_Tables_number   1
_chemical_formula_structural   Gd2AgIr
_chemical_formula_sum   'Gd2 Ag1 Ir1'
_cell_volume   88.30972178
_cell_formula_units_Z   1
loop_
 _symmetry_equiv_pos_site_id
 _symmetry_equiv_pos_as_xyz
  1  'x, y, z'
loop_
 _atom_site_type_symbol
 _atom_site_label
 _atom_site_symmetry_multiplicity
 _atom_site_fract_x
 _atom_site_fract_y
 _atom_site_fract_z
 _atom_site_occupancy
  Gd  Gd0  1  0.25000000  0.25000000  0.25000000  1
  Gd  Gd1  1  0.75000000  0.75000000  0.75000000  1
  Ag  Ag0  1  0.50000000  0.50000000  0.50000000  1
  Ir  Ir0  1  0.00000000  0.00000000  0.00000000  1
loop_
_geom_bond_atom_site_label_1
_geom_bond_atom_site_label_2
_geom_bond_distance
_geom_bond_site_symmetry_2
Gd0 Ir0 3.060954 1_565
Gd0 Ir0 3.060954 1_555
Gd0 Ir0 3.060954 1_556
Gd0 Ir0 3.060954 1_655
Gd1 Ir0 3.060954 1_656
Gd1 Ir0 3.060954 1_665
Gd1 Ir0 3.060954 1_666
Gd1 Ir0 3.060954 1_566
Ag0 Gd0 3.060954 1_555
Ag0 Gd0 3.060954 1_556
Ag0 Gd1 3.060954 1_545
Ag0 Gd1 3.060954 1_554
Ag0 Gd0 3.060954 1_565
Ag0 Gd1 3.060954 1_555
Ag0 Gd0 3.060954 1_655
Ag0 Gd1 3.060954 1_455
