# generated using pymatgen
data_Ca4Mg13Zn29
_symmetry_space_group_name_H-M   'P 1'
_cell_length_a   15.00977900
_cell_length_b   15.00977932
_cell_length_c   8.54253100
_cell_angle_alpha   90.00000000
_cell_angle_beta   90.00000000
_cell_angle_gamma   120.00000150
_symmetry_Int_Tables_number   1
_chemical_formula_structural   Ca4Mg13Zn29
_chemical_formula_sum   'Ca8 Mg26 Zn58'
_cell_volume   1666.73207661
_cell_formula_units_Z   2
loop_
 _symmetry_equiv_pos_site_id
 _symmetry_equiv_pos_as_xyz
  1  'x, y, z'
loop_
 _atom_site_type_symbol
 _atom_site_label
 _atom_site_symmetry_multiplicity
 _atom_site_fract_x
 _atom_site_fract_y
 _atom_site_fract_z
 _atom_site_occupancy
  Ca  Ca0  1  0.45658700  0.54341300  0.25000000  1
  Ca  Ca1  1  0.45658700  0.91317500  0.25000000  1
  Ca  Ca2  1  0.08682500  0.54341300  0.25000000  1
  Ca  Ca3  1  0.54341300  0.45658700  0.75000000  1
  Ca  Ca4  1  0.54341300  0.08682500  0.75000000  1
  Ca  Ca5  1  0.91317500  0.45658700  0.75000000  1
  Ca  Ca6  1  0.00000000  0.00000000  0.50000000  1
  Ca  Ca7  1  0.00000000  0.00000000  0.00000000  1
  Mg  Mg0  1  0.12045100  0.87954900  0.93333900  1
  Mg  Mg1  1  0.12045100  0.24090100  0.93333900  1
  Mg  Mg2  1  0.75909900  0.87954900  0.93333900  1
  Mg  Mg3  1  0.87954900  0.12045100  0.06666100  1
  Mg  Mg4  1  0.87954900  0.75909900  0.06666100  1
  Mg  Mg5  1  0.24090100  0.12045100  0.06666100  1
  Mg  Mg6  1  0.87954900  0.12045100  0.43333900  1
  Mg  Mg7  1  0.87954900  0.75909900  0.43333900  1
  Mg  Mg8  1  0.24090100  0.12045100  0.43333900  1
  Mg  Mg9  1  0.12045100  0.87954900  0.56666100  1
  Mg  Mg10  1  0.12045100  0.24090100  0.56666100  1
  Mg  Mg11  1  0.75909900  0.87954900  0.56666100  1
  Mg  Mg12  1  0.23119300  0.76880700  0.45245000  1
  Mg  Mg13  1  0.23119300  0.46238500  0.45245000  1
  Mg  Mg14  1  0.53761500  0.76880700  0.45245000  1
  Mg  Mg15  1  0.76880700  0.23119300  0.54755000  1
  Mg  Mg16  1  0.76880700  0.53761500  0.54755000  1
  Mg  Mg17  1  0.46238500  0.23119300  0.54755000  1
  Mg  Mg18  1  0.76880700  0.23119300  0.95245000  1
  Mg  Mg19  1  0.76880700  0.53761500  0.95245000  1
  Mg  Mg20  1  0.46238500  0.23119300  0.95245000  1
  Mg  Mg21  1  0.23119300  0.76880700  0.04755000  1
  Mg  Mg22  1  0.23119300  0.46238500  0.04755000  1
  Mg  Mg23  1  0.53761500  0.76880700  0.04755000  1
  Mg  Mg24  1  0.33333300  0.66666700  0.75000000  1
  Mg  Mg25  1  0.66666700  0.33333300  0.25000000  1
  Zn  Zn0  1  0.56774500  0.43225500  0.40780500  1
  Zn  Zn1  1  0.56774500  0.13549100  0.40780500  1
  Zn  Zn2  1  0.86450900  0.43225500  0.40780500  1
  Zn  Zn3  1  0.43225500  0.56774500  0.59219500  1
  Zn  Zn4  1  0.43225500  0.86450900  0.59219500  1
  Zn  Zn5  1  0.13549100  0.56774500  0.59219500  1
  Zn  Zn6  1  0.43225500  0.56774500  0.90780500  1
  Zn  Zn7  1  0.43225500  0.86450900  0.90780500  1
  Zn  Zn8  1  0.13549100  0.56774500  0.90780500  1
  Zn  Zn9  1  0.56774500  0.43225500  0.09219500  1
  Zn  Zn10  1  0.56774500  0.13549100  0.09219500  1
  Zn  Zn11  1  0.86450900  0.43225500  0.09219500  1
  Zn  Zn12  1  0.06585100  0.75672600  0.25000000  1
  Zn  Zn13  1  0.24327400  0.30912400  0.25000000  1
  Zn  Zn14  1  0.69087600  0.93414900  0.25000000  1
  Zn  Zn15  1  0.24327400  0.93414900  0.25000000  1
  Zn  Zn16  1  0.69087600  0.75672600  0.25000000  1
  Zn  Zn17  1  0.06585100  0.30912400  0.25000000  1
  Zn  Zn18  1  0.93414900  0.24327400  0.75000000  1
  Zn  Zn19  1  0.75672600  0.69087600  0.75000000  1
  Zn  Zn20  1  0.30912400  0.06585100  0.75000000  1
  Zn  Zn21  1  0.75672600  0.06585100  0.75000000  1
  Zn  Zn22  1  0.30912400  0.24327400  0.75000000  1
  Zn  Zn23  1  0.93414900  0.69087600  0.75000000  1
  Zn  Zn24  1  0.40928500  0.29024200  0.25000000  1
  Zn  Zn25  1  0.70975800  0.11904300  0.25000000  1
  Zn  Zn26  1  0.88095700  0.59071500  0.25000000  1
  Zn  Zn27  1  0.70975800  0.59071500  0.25000000  1
  Zn  Zn28  1  0.88095700  0.29024200  0.25000000  1
  Zn  Zn29  1  0.40928500  0.11904300  0.25000000  1
  Zn  Zn30  1  0.59071500  0.70975800  0.75000000  1
  Zn  Zn31  1  0.29024200  0.88095700  0.75000000  1
  Zn  Zn32  1  0.11904300  0.40928500  0.75000000  1
  Zn  Zn33  1  0.29024200  0.40928500  0.75000000  1
  Zn  Zn34  1  0.11904300  0.70975800  0.75000000  1
  Zn  Zn35  1  0.59071500  0.88095700  0.75000000  1
  Zn  Zn36  1  0.36427700  0.36427700  0.50000000  1
  Zn  Zn37  1  0.63572300  0.00000000  0.50000000  1
  Zn  Zn38  1  0.00000000  0.63572300  0.50000000  1
  Zn  Zn39  1  0.63572300  0.63572300  0.50000000  1
  Zn  Zn40  1  0.00000000  0.36427700  0.50000000  1
  Zn  Zn41  1  0.36427700  0.00000000  0.50000000  1
  Zn  Zn42  1  0.63572300  0.63572300  0.00000000  1
  Zn  Zn43  1  0.36427700  0.00000000  0.00000000  1
  Zn  Zn44  1  0.00000000  0.36427700  0.00000000  1
  Zn  Zn45  1  0.36427700  0.36427700  0.00000000  1
  Zn  Zn46  1  0.00000000  0.63572300  0.00000000  1
  Zn  Zn47  1  0.63572300  0.00000000  0.00000000  1
  Zn  Zn48  1  0.33333300  0.66666700  0.40243200  1
  Zn  Zn49  1  0.66666700  0.33333300  0.59756800  1
  Zn  Zn50  1  0.66666700  0.33333300  0.90243200  1
  Zn  Zn51  1  0.33333300  0.66666700  0.09756800  1
  Zn  Zn52  1  0.06931000  0.93069000  0.25000000  1
  Zn  Zn53  1  0.06931000  0.13862000  0.25000000  1
  Zn  Zn54  1  0.86138000  0.93069000  0.25000000  1
  Zn  Zn55  1  0.93069000  0.06931000  0.75000000  1
  Zn  Zn56  1  0.93069000  0.86138000  0.75000000  1
  Zn  Zn57  1  0.13862000  0.06931000  0.75000000  1
loop_
_geom_bond_atom_site_label_1
_geom_bond_atom_site_label_2
_geom_bond_distance
_geom_bond_site_symmetry_2
Ca0 Zn6 2.990872 1_554
Ca0 Zn3 2.990872 1_555
Ca0 Zn39 3.159877 1_555
Ca0 Zn42 3.159877 1_555
Ca0 Zn45 3.159877 1_555
Ca0 Zn36 3.159877 1_555
Ca0 Zn9 3.188808 1_555
Ca0 Zn0 3.188808 1_555
Ca0 Zn16 3.370251 1_555
Ca0 Zn13 3.370251 1_555
Ca0 Mg22 3.435258 1_555
Ca0 Mg13 3.435258 1_555
Ca0 Mg23 3.435258 1_555
Ca0 Mg14 3.435258 1_555
Ca0 Zn48 3.458797 1_555
Ca0 Zn51 3.458797 1_555
Ca0 Zn27 3.499485 1_555
Ca0 Zn24 3.499486 1_555
Ca1 Zn4 2.990878 1_555
Ca1 Zn7 2.990878 1_554
Ca1 Zn43 3.159867 1_565
Ca1 Zn41 3.159867 1_565
Ca1 Zn37 3.159877 1_565
Ca1 Zn47 3.159877 1_565
Ca1 Zn1 3.188808 1_565
Ca1 Zn10 3.188808 1_565
Ca1 Zn15 3.370234 1_555
Ca1 Zn14 3.370264 1_555
Ca1 Mg21 3.435262 1_555
Ca1 Mg12 3.435262 1_555
Ca1 Mg14 3.435282 1_555
Ca1 Mg23 3.435282 1_555
Ca1 Zn48 3.458797 1_555
Ca1 Zn51 3.458797 1_555
Ca1 Zn29 3.499471 1_565
Ca1 Zn25 3.499480 1_565
Ca2 Zn5 2.990878 1_555
Ca2 Zn8 2.990878 1_554
Ca2 Zn38 3.159867 1_555
Ca2 Zn46 3.159867 1_555
Ca2 Zn40 3.159877 1_555
Ca2 Zn44 3.159877 1_555
Ca2 Zn2 3.188808 1_455
Ca2 Zn11 3.188808 1_455
Ca2 Zn12 3.370234 1_555
Ca2 Zn17 3.370264 1_555
Ca2 Mg12 3.435262 1_555
Ca2 Mg21 3.435262 1_555
Ca2 Mg22 3.435282 1_555
Ca2 Mg13 3.435282 1_555
Ca2 Zn48 3.458797 1_555
Ca2 Zn51 3.458797 1_555
Ca2 Zn26 3.499471 1_455
Ca2 Zn28 3.499480 1_455
Ca3 Zn0 2.990872 1_555
Ca3 Zn9 2.990872 1_556
Ca3 Zn36 3.159877 1_555
Ca3 Zn45 3.159877 1_556
Ca3 Zn39 3.159877 1_555
Ca3 Zn42 3.159877 1_556
Ca3 Zn6 3.188808 1_555
Ca3 Zn3 3.188808 1_555
Ca3 Zn22 3.370251 1_555
Ca3 Zn19 3.370251 1_555
Ca3 Mg16 3.435258 1_555
Ca3 Mg19 3.435258 1_555
Ca3 Mg20 3.435258 1_555
Ca3 Mg17 3.435258 1_555
Ca3 Zn50 3.458797 1_555
Ca3 Zn49 3.458797 1_555
Ca3 Zn33 3.499485 1_555
Ca3 Zn30 3.499486 1_555
Ca4 Zn1 2.990878 1_555
Ca4 Zn10 2.990878 1_556
Ca4 Zn47 3.159867 1_556
Ca4 Zn37 3.159867 1_555
Ca4 Zn41 3.159877 1_555
Ca4 Zn43 3.159877 1_556
Ca4 Zn7 3.188808 1_545
Ca4 Zn4 3.188808 1_545
Ca4 Zn21 3.370234 1_555
Ca4 Zn20 3.370264 1_555
Ca4 Mg15 3.435262 1_555
Ca4 Mg18 3.435262 1_555
Ca4 Mg20 3.435282 1_555
Ca4 Mg17 3.435282 1_555
Ca4 Zn50 3.458797 1_555
Ca4 Zn49 3.458797 1_555
Ca4 Zn35 3.499471 1_545
Ca4 Zn31 3.499480 1_545
Ca5 Zn2 2.990878 1_555
Ca5 Zn11 2.990878 1_556
Ca5 Zn44 3.159867 1_656
Ca5 Zn40 3.159867 1_655
Ca5 Zn38 3.159877 1_655
Ca5 Zn46 3.159877 1_656
Ca5 Zn8 3.188808 1_655
Ca5 Zn5 3.188808 1_655
Ca5 Zn18 3.370234 1_555
Ca5 Zn23 3.370264 1_555
Ca5 Mg15 3.435262 1_555
Ca5 Mg18 3.435262 1_555
Ca5 Mg16 3.435282 1_555
Ca5 Mg19 3.435282 1_555
Ca5 Zn50 3.458797 1_555
Ca5 Zn49 3.458797 1_555
Ca5 Zn32 3.499471 1_655
Ca5 Zn34 3.499480 1_655
Ca6 Zn54 2.794239 1_445
Ca6 Zn57 2.794239 1_555
Ca6 Zn56 2.794239 1_445
Ca6 Zn53 2.794239 1_555
Ca6 Zn55 2.794239 1_455
Ca6 Zn52 2.794239 1_545
Ca6 Mg8 3.182793 1_555
Ca6 Mg11 3.182793 1_445
Ca6 Mg10 3.182793 1_555
Ca6 Mg7 3.182793 1_445
Ca6 Mg6 3.182805 1_455
Ca6 Mg9 3.182805 1_545
Ca7 Zn54 2.794239 1_445
Ca7 Zn57 2.794239 1_554
Ca7 Zn56 2.794239 1_444
Ca7 Zn53 2.794239 1_555
Ca7 Zn55 2.794239 1_454
Ca7 Zn52 2.794239 1_545
Ca7 Mg5 3.182793 1_555
Ca7 Mg2 3.182793 1_444
Ca7 Mg1 3.182793 1_554
Ca7 Mg4 3.182793 1_445
Ca7 Mg3 3.182805 1_455
Ca7 Mg0 3.182805 1_544
Mg0 Zn31 2.982362 1_555
Mg0 Zn34 2.982362 1_555
Mg0 Zn52 3.014165 1_556
Mg0 Mg21 3.039860 1_556
Mg0 Mg9 3.132358 1_555
Mg0 Zn56 3.140569 1_455
Mg0 Zn57 3.140569 1_565
Mg0 Zn15 3.142760 1_556
Mg0 Zn12 3.142760 1_556
Mg0 Zn43 3.220283 1_566
Mg0 Zn46 3.220283 1_556
Mg0 Zn20 3.220758 1_565
Mg0 Zn23 3.220758 1_455
Mg0 Mg4 3.332129 1_456
Mg0 Mg5 3.332129 1_566
Mg1 Zn33 2.982369 1_555
Mg1 Zn32 2.982375 1_555
Mg1 Zn53 3.014159 1_556
Mg1 Mg22 3.039860 1_556
Mg1 Mg10 3.132358 1_555
Mg1 Zn57 3.140556 1_555
Mg1 Zn55 3.140564 1_455
Mg1 Zn13 3.142760 1_556
Mg1 Zn17 3.142760 1_556
Mg1 Zn45 3.220283 1_556
Mg1 Zn44 3.220296 1_556
Mg1 Zn22 3.220745 1_555
Mg1 Zn18 3.220772 1_455
Mg1 Mg5 3.332104 1_556
Mg1 Mg3 3.332129 1_456
Mg2 Zn30 2.982369 1_555
Mg2 Zn35 2.982375 1_555
Mg2 Zn54 3.014159 1_556
Mg2 Mg23 3.039860 1_556
Mg2 Zn56 3.140556 1_555
Mg2 Zn55 3.140564 1_565
Mg2 Zn16 3.142760 1_556
Mg2 Zn14 3.142760 1_556
Mg2 Zn42 3.220283 1_556
Mg2 Zn47 3.220296 1_566
Mg2 Zn19 3.220746 1_555
Mg2 Zn21 3.220772 1_565
Mg2 Mg4 3.332104 1_556
Mg2 Mg3 3.332129 1_566
Mg3 Zn25 2.982362 1_555
Mg3 Zn28 2.982362 1_555
Mg3 Zn55 3.014165 1_554
Mg3 Mg6 3.132358 1_555
Mg3 Zn53 3.140569 1_655
Mg3 Zn54 3.140569 1_545
Mg3 Zn21 3.142760 1_554
Mg3 Zn18 3.142760 1_554
Mg3 Zn47 3.220283 1_555
Mg3 Zn44 3.220283 1_655
Mg3 Zn14 3.220758 1_545
Mg3 Zn17 3.220758 1_655
Mg4 Zn27 2.982369 1_555
Mg4 Zn26 2.982375 1_555
Mg4 Zn56 3.014159 1_554
Mg4 Mg7 3.132358 1_555
Mg4 Zn54 3.140556 1_555
Mg4 Zn52 3.140564 1_655
Mg4 Zn19 3.142760 1_554
Mg4 Zn23 3.142760 1_554
Mg4 Zn42 3.220283 1_555
Mg4 Zn46 3.220296 1_655
Mg4 Zn16 3.220745 1_555
Mg4 Zn12 3.220772 1_655
Mg5 Zn24 2.982369 1_555
Mg5 Zn29 2.982375 1_555
Mg5 Zn57 3.014159 1_554
Mg5 Mg8 3.132358 1_555
Mg5 Zn53 3.140556 1_555
Mg5 Zn52 3.140564 1_545
Mg5 Zn22 3.142760 1_554
Mg5 Zn20 3.142760 1_554
Mg5 Zn45 3.220283 1_555
Mg5 Zn43 3.220296 1_555
Mg5 Zn13 3.220746 1_555
Mg5 Zn15 3.220772 1_545
Mg6 Zn25 2.982362 1_555
Mg6 Zn28 2.982362 1_555
Mg6 Zn55 3.014165 1_555
Mg6 Zn53 3.140569 1_655
Mg6 Zn54 3.140569 1_545
Mg6 Zn21 3.142760 1_555
Mg6 Zn18 3.142760 1_555
Mg6 Zn37 3.220283 1_555
Mg6 Zn40 3.220283 1_655
Mg6 Zn14 3.220758 1_545
Mg6 Zn17 3.220758 1_655
Mg7 Zn27 2.982369 1_555
Mg7 Zn26 2.982375 1_555
Mg7 Zn56 3.014159 1_555
Mg7 Zn54 3.140556 1_555
Mg7 Zn52 3.140564 1_655
Mg7 Zn19 3.142760 1_555
Mg7 Zn23 3.142760 1_555
Mg7 Zn39 3.220283 1_555
Mg7 Zn38 3.220296 1_655
Mg7 Zn16 3.220745 1_555
Mg7 Zn12 3.220772 1_655
Mg7 Mg9 3.332129 1_655
Mg8 Zn24 2.982369 1_555
Mg8 Zn29 2.982375 1_555
Mg8 Zn57 3.014159 1_555
Mg8 Zn53 3.140556 1_555
Mg8 Zn52 3.140564 1_545
Mg8 Zn22 3.142760 1_555
Mg8 Zn20 3.142760 1_555
Mg8 Zn36 3.220283 1_555
Mg8 Zn41 3.220296 1_555
Mg8 Zn13 3.220746 1_555
Mg8 Zn15 3.220772 1_545
Mg8 Mg9 3.332129 1_545
Mg9 Zn31 2.982362 1_555
Mg9 Zn34 2.982362 1_555
Mg9 Zn52 3.014165 1_555
Mg9 Zn56 3.140569 1_455
Mg9 Zn57 3.140569 1_565
Mg9 Zn15 3.142760 1_555
Mg9 Zn12 3.142760 1_555
Mg9 Zn41 3.220283 1_565
Mg9 Zn38 3.220283 1_555
Mg9 Zn20 3.220758 1_565
Mg9 Zn23 3.220758 1_455
Mg10 Zn33 2.982369 1_555
Mg10 Zn32 2.982375 1_555
Mg10 Zn53 3.014159 1_555
Mg10 Mg13 3.039860 1_555
Mg10 Zn57 3.140556 1_555
Mg10 Zn55 3.140564 1_455
Mg10 Zn13 3.142760 1_555
Mg10 Zn17 3.142760 1_555
Mg10 Zn36 3.220283 1_555
Mg10 Zn40 3.220296 1_555
Mg10 Zn22 3.220745 1_555
Mg10 Zn18 3.220772 1_455
Mg10 Mg8 3.332104 1_555
Mg10 Mg6 3.332129 1_455
Mg11 Zn30 2.982369 1_555
Mg11 Zn35 2.982375 1_555
Mg11 Zn54 3.014159 1_555
Mg11 Mg14 3.039860 1_555
Mg11 Mg2 3.132358 1_555
Mg11 Zn56 3.140556 1_555
Mg11 Zn55 3.140564 1_565
Mg11 Zn16 3.142760 1_555
Mg11 Zn14 3.142760 1_555
Mg11 Zn39 3.220283 1_555
Mg11 Zn37 3.220296 1_565
Mg11 Zn19 3.220746 1_555
Mg11 Zn21 3.220772 1_565
Mg11 Mg7 3.332104 1_555
Mg11 Mg6 3.332129 1_565
Mg12 Zn48 2.689562 1_555
Mg12 Zn4 2.874218 1_555
Mg12 Zn5 2.874218 1_555
Mg12 Zn34 2.930552 1_555
Mg12 Zn31 2.930552 1_555
Mg12 Zn12 2.955143 1_555
Mg12 Zn15 2.955144 1_555
Mg12 Mg9 3.039860 1_555
Mg12 Zn38 3.043909 1_555
Mg12 Zn41 3.043909 1_565
Mg13 Zn48 2.689588 1_555
Mg13 Zn3 2.874218 1_555
Mg13 Zn5 2.874218 1_555
Mg13 Zn33 2.930546 1_555
Mg13 Zn32 2.930552 1_555
Mg13 Zn17 2.955143 1_555
Mg13 Zn13 2.955144 1_555
Mg13 Zn36 3.043897 1_555
Mg13 Zn40 3.043910 1_555
Mg14 Zn48 2.689588 1_555
Mg14 Zn3 2.874218 1_555
Mg14 Zn4 2.874218 1_555
Mg14 Zn30 2.930546 1_555
Mg14 Zn35 2.930552 1_555
Mg14 Zn14 2.955143 1_555
Mg14 Zn16 2.955144 1_555
Mg14 Zn39 3.043897 1_555
Mg14 Zn37 3.043910 1_565
Mg15 Zn49 2.689562 1_555
Mg15 Zn1 2.874218 1_555
Mg15 Zn2 2.874218 1_555
Mg15 Zn28 2.930552 1_555
Mg15 Zn25 2.930552 1_555
Mg15 Zn18 2.955143 1_555
Mg15 Zn21 2.955144 1_555
Mg15 Mg6 3.039860 1_555
Mg15 Zn40 3.043909 1_655
Mg15 Zn37 3.043909 1_555
Mg16 Zn49 2.689588 1_555
Mg16 Zn0 2.874218 1_555
Mg16 Zn2 2.874218 1_555
Mg16 Zn27 2.930546 1_555
Mg16 Zn26 2.930552 1_555
Mg16 Zn23 2.955143 1_555
Mg16 Zn19 2.955144 1_555
Mg16 Mg7 3.039860 1_555
Mg16 Zn39 3.043897 1_555
Mg16 Zn38 3.043910 1_655
Mg17 Zn49 2.689588 1_555
Mg17 Zn0 2.874218 1_555
Mg17 Zn1 2.874218 1_555
Mg17 Zn24 2.930546 1_555
Mg17 Zn29 2.930552 1_555
Mg17 Zn20 2.955143 1_555
Mg17 Zn22 2.955144 1_555
Mg17 Mg8 3.039860 1_555
Mg17 Zn36 3.043897 1_555
Mg17 Zn41 3.043910 1_555
Mg18 Zn50 2.689562 1_555
Mg18 Zn10 2.874218 1_556
Mg18 Zn11 2.874218 1_556
Mg18 Zn28 2.930552 1_556
Mg18 Zn25 2.930552 1_556
Mg18 Zn18 2.955143 1_555
Mg18 Zn21 2.955144 1_555
Mg18 Mg3 3.039860 1_556
Mg18 Zn44 3.043909 1_656
Mg18 Zn47 3.043909 1_556
Mg19 Zn50 2.689588 1_555
Mg19 Zn9 2.874218 1_556
Mg19 Zn11 2.874218 1_556
Mg19 Zn27 2.930546 1_556
Mg19 Zn26 2.930552 1_556
Mg19 Zn23 2.955143 1_555
Mg19 Zn19 2.955144 1_555
Mg19 Mg4 3.039860 1_556
Mg19 Zn42 3.043897 1_556
Mg19 Zn46 3.043910 1_656
Mg20 Zn50 2.689588 1_555
Mg20 Zn9 2.874218 1_556
Mg20 Zn10 2.874218 1_556
Mg20 Zn24 2.930546 1_556
Mg20 Zn29 2.930552 1_556
Mg20 Zn20 2.955143 1_555
Mg20 Zn22 2.955144 1_555
Mg20 Mg5 3.039860 1_556
Mg20 Zn45 3.043897 1_556
Mg20 Zn43 3.043910 1_556
Mg21 Zn51 2.689562 1_555
Mg21 Zn7 2.874218 1_554
Mg21 Zn8 2.874218 1_554
Mg21 Zn34 2.930552 1_554
Mg21 Zn31 2.930552 1_554
Mg21 Zn12 2.955143 1_555
Mg21 Zn15 2.955144 1_555
Mg21 Zn46 3.043909 1_555
Mg21 Zn43 3.043909 1_565
Mg22 Zn51 2.689588 1_555
Mg22 Zn6 2.874218 1_554
Mg22 Zn8 2.874218 1_554
Mg22 Zn33 2.930546 1_554
Mg22 Zn32 2.930552 1_554
Mg22 Zn17 2.955143 1_555
Mg22 Zn13 2.955144 1_555
Mg22 Zn45 3.043897 1_555
Mg22 Zn44 3.043910 1_555
Mg23 Zn51 2.689588 1_555
Mg23 Zn6 2.874218 1_554
Mg23 Zn7 2.874218 1_554
Mg23 Zn30 2.930546 1_554
Mg23 Zn35 2.930552 1_554
Mg23 Zn14 2.955143 1_555
Mg23 Zn16 2.955144 1_555
Mg23 Zn42 3.043897 1_555
Mg23 Zn47 3.043910 1_565
Mg24 Zn8 2.903616 1_555
Mg24 Zn5 2.903616 1_555
Mg24 Zn4 2.903616 1_555
Mg24 Zn7 2.903616 1_555
Mg24 Zn3 2.903639 1_555
Mg24 Zn6 2.903639 1_555
Mg24 Zn51 2.969110 1_556
Mg24 Zn48 2.969110 1_555
Mg25 Zn11 2.903616 1_555
Mg25 Zn2 2.903616 1_555
Mg25 Zn10 2.903616 1_555
Mg25 Zn1 2.903616 1_555
Mg25 Zn0 2.903639 1_555
Mg25 Zn9 2.903639 1_555
Mg25 Zn49 2.969110 1_555
Mg25 Zn50 2.969110 1_554
Zn0 Zn24 2.635917 1_555
Zn0 Zn27 2.635917 1_555
Zn0 Zn9 2.696108 1_555
Zn0 Zn36 2.805749 1_555
Zn0 Zn39 2.805749 1_555
Zn0 Zn49 3.040015 1_555
Zn1 Zn29 2.635911 1_555
Zn1 Zn25 2.635924 1_555
Zn1 Zn10 2.696108 1_555
Zn1 Zn41 2.805751 1_555
Zn1 Zn37 2.805762 1_555
Zn1 Zn49 3.039993 1_555
Zn2 Zn26 2.635911 1_555
Zn2 Zn28 2.635924 1_555
Zn2 Zn38 2.805751 1_655
Zn2 Zn40 2.805762 1_655
Zn2 Zn49 3.039993 1_555
Zn3 Zn30 2.635917 1_555
Zn3 Zn33 2.635917 1_555
Zn3 Zn6 2.696108 1_555
Zn3 Zn39 2.805749 1_555
Zn3 Zn36 2.805749 1_555
Zn3 Zn48 3.040015 1_555
Zn4 Zn7 2.696108 1_555
Zn4 Zn41 2.805762 1_565
Zn4 Zn48 3.039993 1_555
Zn5 Zn8 2.696108 1_555
Zn10 Zn29 2.635911 1_555
Zn10 Zn25 2.635924 1_555
Zn10 Zn43 2.805751 1_555
Zn10 Zn47 2.805762 1_555
Zn10 Zn50 3.039993 1_554
Zn11 Zn26 2.635911 1_555
Zn11 Zn28 2.635924 1_555
Zn11 Zn2 2.696108 1_555
Zn11 Zn46 2.805751 1_655
Zn11 Zn44 2.805762 1_655
Zn11 Zn50 3.039993 1_554
Zn12 Zn52 2.585593 1_555
Zn12 Zn26 2.644917 1_455
Zn12 Zn38 2.653561 1_555
Zn12 Zn46 2.653561 1_555
Zn12 Zn15 2.663080 1_555
Zn13 Zn53 2.585585 1_555
Zn13 Zn24 2.644909 1_555
Zn13 Zn36 2.653561 1_555
Zn13 Zn45 2.653561 1_555
Zn13 Zn17 2.663080 1_555
Zn14 Zn54 2.585578 1_555
Zn14 Zn25 2.644924 1_565
Zn14 Zn37 2.653569 1_565
Zn14 Zn47 2.653569 1_565
Zn14 Zn16 2.663080 1_555
Zn15 Zn52 2.585593 1_555
Zn15 Zn29 2.644917 1_565
Zn15 Zn41 2.653561 1_565
Zn15 Zn43 2.653561 1_565
Zn16 Zn54 2.585585 1_555
Zn16 Zn27 2.644909 1_555
Zn16 Zn39 2.653561 1_555
Zn16 Zn42 2.653561 1_555
Zn17 Zn53 2.585578 1_555
Zn17 Zn28 2.644924 1_455
Zn17 Zn44 2.653569 1_555
Zn17 Zn40 2.653569 1_555
Zn18 Zn55 2.585593 1_555
Zn18 Zn32 2.644917 1_655
Zn18 Zn40 2.653561 1_655
Zn18 Zn44 2.653561 1_656
Zn18 Zn21 2.663080 1_555
Zn19 Zn56 2.585585 1_555
Zn19 Zn30 2.644909 1_555
Zn19 Zn42 2.653561 1_556
Zn19 Zn39 2.653561 1_555
Zn19 Zn23 2.663080 1_555
Zn20 Zn57 2.585578 1_555
Zn20 Zn31 2.644924 1_545
Zn20 Zn43 2.653569 1_556
Zn20 Zn41 2.653569 1_555
Zn20 Zn22 2.663080 1_555
Zn21 Zn55 2.585593 1_555
Zn21 Zn35 2.644917 1_545
Zn21 Zn37 2.653561 1_555
Zn21 Zn47 2.653561 1_556
Zn22 Zn57 2.585585 1_555
Zn22 Zn33 2.644909 1_555
Zn22 Zn36 2.653561 1_555
Zn22 Zn45 2.653561 1_556
Zn23 Zn56 2.585578 1_555
Zn23 Zn34 2.644924 1_655
Zn23 Zn38 2.653569 1_655
Zn23 Zn46 2.653569 1_656
Zn24 Zn29 2.569659 1_555
Zn24 Zn9 2.635917 1_555
Zn24 Zn45 2.646299 1_555
Zn24 Zn36 2.646299 1_555
Zn25 Zn28 2.569659 1_555
Zn25 Zn47 2.646299 1_555
Zn25 Zn37 2.646299 1_555
Zn26 Zn27 2.569659 1_555
Zn26 Zn38 2.646299 1_655
Zn26 Zn46 2.646299 1_655
Zn27 Zn9 2.635917 1_555
Zn27 Zn42 2.646299 1_555
Zn27 Zn39 2.646299 1_555
Zn28 Zn44 2.646299 1_655
Zn28 Zn40 2.646299 1_655
Zn29 Zn41 2.646299 1_555
Zn29 Zn43 2.646299 1_555
Zn30 Zn35 2.569659 1_555
Zn30 Zn6 2.635917 1_555
Zn30 Zn39 2.646299 1_555
Zn30 Zn42 2.646299 1_556
Zn31 Zn34 2.569659 1_555
Zn31 Zn4 2.635924 1_555
Zn31 Zn7 2.635924 1_555
Zn31 Zn43 2.646299 1_566
Zn31 Zn41 2.646299 1_565
Zn32 Zn33 2.569659 1_555
Zn32 Zn5 2.635911 1_555
Zn32 Zn8 2.635911 1_555
Zn32 Zn44 2.646299 1_556
Zn32 Zn40 2.646299 1_555
Zn33 Zn6 2.635917 1_555
Zn33 Zn36 2.646299 1_555
Zn33 Zn45 2.646299 1_556
Zn34 Zn8 2.635924 1_555
Zn34 Zn5 2.635924 1_555
Zn34 Zn46 2.646299 1_556
Zn34 Zn38 2.646299 1_555
Zn35 Zn7 2.635911 1_555
Zn35 Zn4 2.635911 1_555
Zn35 Zn37 2.646299 1_565
Zn35 Zn47 2.646299 1_566
Zn37 Zn4 2.805751 1_545
Zn38 Zn5 2.805762 1_555
Zn40 Zn5 2.805751 1_555
Zn42 Zn6 2.805749 1_554
Zn42 Zn9 2.805749 1_555
Zn43 Zn7 2.805762 1_544
Zn44 Zn8 2.805751 1_554
Zn45 Zn9 2.805749 1_555
Zn45 Zn6 2.805749 1_554
Zn46 Zn8 2.805762 1_554
Zn47 Zn7 2.805751 1_544
Zn48 Zn51 2.604310 1_555
Zn48 Zn5 3.039993 1_555
Zn49 Zn50 2.604310 1_555
Zn50 Zn9 3.040015 1_556
Zn51 Zn8 3.039993 1_554
Zn51 Zn7 3.039993 1_554
Zn51 Zn6 3.040015 1_554
