# generated using pymatgen
data_HoWO5
_symmetry_space_group_name_H-M   'P 1'
_cell_length_a   5.30875136
_cell_length_b   6.57042488
_cell_length_c   12.64909000
_cell_angle_alpha   90.00000000
_cell_angle_beta   90.00000000
_cell_angle_gamma   109.31023464
_symmetry_Int_Tables_number   1
_chemical_formula_structural   HoWO5
_chemical_formula_sum   'Ho4 W4 O20'
_cell_volume   416.38814625
_cell_formula_units_Z   4
loop_
 _symmetry_equiv_pos_site_id
 _symmetry_equiv_pos_as_xyz
  1  'x, y, z'
loop_
 _atom_site_type_symbol
 _atom_site_label
 _atom_site_symmetry_multiplicity
 _atom_site_fract_x
 _atom_site_fract_y
 _atom_site_fract_z
 _atom_site_occupancy
  Ho  Ho0  1  0.14580700  0.78505700  0.44439300  1
  Ho  Ho1  1  0.85419300  0.21494300  0.55560700  1
  Ho  Ho2  1  0.35419300  0.71494300  0.94439300  1
  Ho  Ho3  1  0.64580700  0.28505700  0.05560700  1
  W  W0  1  0.95336300  0.84681200  0.13883400  1
  W  W1  1  0.04663700  0.15318800  0.86116600  1
  W  W2  1  0.54663700  0.65318800  0.63883400  1
  W  W3  1  0.45336300  0.34681200  0.36116600  1
  O  O0  1  0.04580700  0.56107700  0.08735900  1
  O  O1  1  0.95419300  0.43892300  0.91264100  1
  O  O2  1  0.45419300  0.93892300  0.58735900  1
  O  O3  1  0.54580700  0.06107700  0.41264100  1
  O  O4  1  0.85618200  0.84417400  0.57146300  1
  O  O5  1  0.14381800  0.15582600  0.42853700  1
  O  O6  1  0.64381800  0.65582600  0.07146300  1
  O  O7  1  0.35618200  0.34417400  0.92853700  1
  O  O8  1  0.27132600  0.97238100  0.06474100  1
  O  O9  1  0.72867400  0.02761900  0.93525900  1
  O  O10  1  0.22867400  0.52761900  0.56474100  1
  O  O11  1  0.77132600  0.47238100  0.43525900  1
  O  O12  1  0.99863300  0.79170800  0.27594000  1
  O  O13  1  0.00136700  0.20829200  0.72406000  1
  O  O14  1  0.50136700  0.70829200  0.77594000  1
  O  O15  1  0.49863300  0.29170800  0.22406000  1
  O  O16  1  0.15581600  0.92079500  0.85151900  1
  O  O17  1  0.84418400  0.07920500  0.14848100  1
  O  O18  1  0.34418400  0.57920500  0.35151900  1
  O  O19  1  0.65581600  0.42079500  0.64848100  1
loop_
_geom_bond_atom_site_label_1
_geom_bond_atom_site_label_2
_geom_bond_distance
_geom_bond_site_symmetry_2
Ho0 O12 2.274895 1_455
Ho0 O18 2.293596 1_555
Ho0 O3 2.326500 1_565
Ho0 O11 2.342017 1_455
Ho0 O4 2.343797 1_455
Ho0 O10 2.421597 1_555
Ho0 O2 2.424447 1_555
Ho0 O5 2.447852 1_565
Ho1 O13 2.274895 1_655
Ho1 O19 2.293596 1_555
Ho1 O2 2.326500 1_545
Ho1 O10 2.342017 1_655
Ho1 O5 2.343797 1_655
Ho1 O11 2.421597 1_555
Ho1 O3 2.424447 1_555
Ho1 O4 2.447852 1_545
Ho2 O14 2.274895 1_555
Ho2 O16 2.293596 1_555
Ho2 O1 2.326500 1_455
Ho2 O9 2.342017 1_565
Ho2 O6 2.343797 1_556
Ho2 O8 2.421597 1_556
Ho2 O0 2.424447 1_556
Ho2 O7 2.447852 1_555
Ho3 O15 2.274895 1_555
Ho3 O17 2.293596 1_555
Ho3 O0 2.326500 1_655
Ho3 O8 2.342017 1_545
Ho3 O7 2.343797 1_554
Ho3 O9 2.421597 1_554
Ho3 O1 2.424447 1_554
Ho3 O6 2.447852 1_555
O0 W0 2.190612 1_455
O1 W1 2.190612 1_655
O2 W2 2.190612 1_555
O3 W3 2.190612 1_555
O4 W2 1.907224 1_555
O5 W3 1.907224 1_555
O6 W0 1.907224 1_555
O7 W1 1.907224 1_555
O8 W0 1.867430 1_455
O9 W1 1.867430 1_655
O10 W2 1.867430 1_555
O11 W3 1.867430 1_555
O12 W0 1.803904 1_555
O13 W1 1.803904 1_555
O14 W2 1.803904 1_555
O15 W3 1.803904 1_555
O16 W1 1.807660 1_565
O17 W0 1.807660 1_545
O18 W3 1.807660 1_555
O19 W2 1.807660 1_555
