# generated using pymatgen
data_BaSrPrCoO6
_symmetry_space_group_name_H-M   'P 1'
_cell_length_a   5.90537084
_cell_length_b   5.89456665
_cell_length_c   8.40840321
_cell_angle_alpha   90.07259954
_cell_angle_beta   89.98615066
_cell_angle_gamma   89.39960589
_symmetry_Int_Tables_number   1
_chemical_formula_structural   BaSrPrCoO6
_chemical_formula_sum   'Ba2 Sr2 Pr2 Co2 O12'
_cell_volume   292.67685555
_cell_formula_units_Z   2
loop_
 _symmetry_equiv_pos_site_id
 _symmetry_equiv_pos_as_xyz
  1  'x, y, z'
loop_
 _atom_site_type_symbol
 _atom_site_label
 _atom_site_symmetry_multiplicity
 _atom_site_fract_x
 _atom_site_fract_y
 _atom_site_fract_z
 _atom_site_occupancy
  Ba  Ba0  1  0.99978625  0.00274016  0.24962002  1
  Ba  Ba1  1  0.00021375  0.99725984  0.75037998  1
  Sr  Sr0  1  0.49955078  0.50320368  0.25025861  1
  Sr  Sr1  1  0.50044922  0.49679632  0.74974139  1
  Pr  Pr0  1  0.50000000  -0.00000000  -0.00000000  1
  Pr  Pr1  1  -0.00000000  0.50000000  0.50000000  1
  Co  Co0  1  -0.00000000  0.50000000  -0.00000000  1
  Co  Co1  1  0.50000000  -0.00000000  0.50000000  1
  O  O0  1  0.21362408  0.26814485  0.98799115  1
  O  O1  1  0.28804754  0.75862997  0.51175503  1
  O  O2  1  0.78637592  0.73185515  0.01200885  1
  O  O3  1  0.71195246  0.24137003  0.48824497  1
  O  O4  1  0.23884051  0.71108629  0.98768298  1
  O  O5  1  0.27048239  0.21270844  0.51158782  1
  O  O6  1  0.76115949  0.28891371  0.01231702  1
  O  O7  1  0.72951761  0.78729156  0.48841218  1
  O  O8  1  0.47853388  0.99815265  0.27476262  1
  O  O9  1  0.02726644  0.49924310  0.22505100  1
  O  O10  1  0.52146612  0.00184735  0.72523738  1
  O  O11  1  0.97273356  0.50075690  0.77494900  1
loop_
_geom_bond_atom_site_label_1
_geom_bond_atom_site_label_2
_geom_bond_distance
_geom_bond_site_symmetry_2
Ba0 O8 2.834975 1_645
Ba0 O2 2.857432 1_545
Ba0 O7 2.870378 1_545
Ba0 O9 2.940387 1_655
Ba0 O6 2.961885 1_555
Ba0 O3 2.972328 1_555
Ba0 O9 2.977543 1_645
Ba0 O0 2.988376 1_654
Ba0 O5 2.995916 1_655
Ba0 O8 3.085792 1_545
Ba0 O4 3.120479 1_644
Ba0 O1 3.128103 1_645
Ba1 O10 2.834975 1_465
Ba1 O0 2.857432 1_565
Ba1 O5 2.870378 1_565
Ba1 O11 2.940387 1_455
Ba1 O4 2.961885 1_555
Ba1 O1 2.972328 1_555
Ba1 O11 2.977543 1_465
Ba1 O2 2.988376 1_456
Ba1 O7 2.995916 1_455
Ba1 O10 3.085792 1_565
Ba1 O6 3.120479 1_466
Ba1 O3 3.128103 1_465
Co0 O0 1.852819 1_554
Co0 O2 1.852819 1_455
Co0 O6 1.893488 1_455
Co0 O4 1.893488 1_554
Co0 O11 1.899203 1_454
Co0 O9 1.899203 1_555
Co1 O5 1.839199 1_555
Co1 O7 1.839199 1_545
Co1 O8 1.898180 1_545
Co1 O10 1.898180 1_555
Co1 O3 1.907437 1_555
Co1 O1 1.907437 1_545
O0 Pr0 2.304986 1_556
O0 Sr1 2.958346 1_555
O0 Sr0 3.110798 1_556
O1 Pr1 2.298140 1_555
O1 Sr1 2.815702 1_555
O1 Sr0 2.934685 1_555
O2 Pr0 2.304986 1_565
O2 Sr0 2.958346 1_555
O2 Sr1 3.110798 1_554
O3 Pr1 2.298140 1_655
O3 Sr0 2.815702 1_555
O3 Sr1 2.934685 1_555
O4 Pr0 2.311752 1_566
O4 Sr1 2.817141 1_555
O4 Sr0 2.952189 1_556
O5 Pr1 2.317858 1_555
O5 Sr1 2.949393 1_555
O5 Sr0 3.105970 1_555
O6 Pr0 2.311752 1_555
O6 Sr0 2.817141 1_555
O6 Sr1 2.952189 1_554
O7 Pr1 2.317858 1_655
O7 Sr0 2.949393 1_555
O7 Sr1 3.105970 1_555
O8 Pr0 2.313805 1_565
O8 Sr0 2.925849 1_555
O8 Sr0 2.988312 1_565
O9 Pr1 2.317439 1_555
O9 Sr0 2.797447 1_555
O9 Sr0 3.123346 1_455
O10 Pr0 2.313805 1_556
O10 Sr1 2.925849 1_555
O10 Sr1 2.988312 1_545
O11 Pr1 2.317439 1_655
O11 Sr1 2.797447 1_555
O11 Sr1 3.123346 1_655
