# generated using pymatgen
data_Li9Mn2Co5O16
_symmetry_space_group_name_H-M   'P 1'
_cell_length_a   6.51751205
_cell_length_b   6.51751205
_cell_length_c   10.32336478
_cell_angle_alpha   59.56749080
_cell_angle_beta   59.56749080
_cell_angle_gamma   52.43647542
_symmetry_Int_Tables_number   1
_chemical_formula_structural   Li9Mn2Co5O16
_chemical_formula_sum   'Li9 Mn2 Co5 O16'
_cell_volume   286.89529924
_cell_formula_units_Z   1
loop_
 _symmetry_equiv_pos_site_id
 _symmetry_equiv_pos_as_xyz
  1  'x, y, z'
loop_
 _atom_site_type_symbol
 _atom_site_label
 _atom_site_symmetry_multiplicity
 _atom_site_fract_x
 _atom_site_fract_y
 _atom_site_fract_z
 _atom_site_occupancy
  Li  Li0  1  0.25097400  0.75525500  0.73979600  1
  Li  Li1  1  0.24474500  0.74902600  0.26020400  1
  Li  Li2  1  0.75310000  0.75310000  0.49511300  1
  Li  Li3  1  0.74889400  0.74889400  0.99884700  1
  Li  Li4  1  0.25110600  0.25110600  0.00115300  1
  Li  Li5  1  0.24690000  0.24690000  0.50488700  1
  Li  Li6  1  0.75525500  0.25097400  0.73979600  1
  Li  Li7  1  0.74902600  0.24474500  0.26020400  1
  Li  Li8  1  0.00000000  0.00000000  0.50000000  1
  Mn  Mn0  1  0.00000000  0.00000000  0.00000000  1
  Mn  Mn1  1  0.50000000  0.50000000  0.00000000  1
  Co  Co0  1  0.51009000  0.00634600  0.73829100  1
  Co  Co1  1  0.48991000  0.99365400  0.26170900  1
  Co  Co2  1  0.99365400  0.48991000  0.26170900  1
  Co  Co3  1  0.00634600  0.51009000  0.73829100  1
  Co  Co4  1  0.50000000  0.50000000  0.50000000  1
  O  O0  1  0.13890500  0.63338600  0.00006200  1
  O  O1  1  0.14950300  0.61333700  0.50616900  1
  O  O2  1  0.61996000  0.61996000  0.76823000  1
  O  O3  1  0.61649300  0.61649300  0.27196000  1
  O  O4  1  0.14123600  0.14123600  0.24260200  1
  O  O5  1  0.14015500  0.14015500  0.74409100  1
  O  O6  1  0.63338600  0.13890500  0.00006200  1
  O  O7  1  0.61333700  0.14950300  0.50616900  1
  O  O8  1  0.38666300  0.85049700  0.49383100  1
  O  O9  1  0.36661400  0.86109500  0.99993800  1
  O  O10  1  0.85984500  0.85984500  0.25590900  1
  O  O11  1  0.85876400  0.85876400  0.75739800  1
  O  O12  1  0.38350700  0.38350700  0.72804000  1
  O  O13  1  0.38004000  0.38004000  0.23177000  1
  O  O14  1  0.85049700  0.38666300  0.49383100  1
  O  O15  1  0.86109500  0.36661400  0.99993800  1
loop_
_geom_bond_atom_site_label_1
_geom_bond_atom_site_label_2
_geom_bond_distance
_geom_bond_site_symmetry_2
Li0 O12 2.066660 1_555
Li0 O8 2.100625 1_555
Li0 O2 2.124720 1_555
Li0 O11 2.138563 1_455
Li0 O5 2.165115 1_565
Li0 O0 2.222777 1_556
Li1 O3 2.066660 1_555
Li1 O1 2.100625 1_555
Li1 O13 2.124720 1_555
Li1 O4 2.138563 1_565
Li1 O10 2.165115 1_455
Li1 O9 2.222777 1_554
Li2 O10 2.043349 1_555
Li2 O8 2.069285 1_555
Li2 O14 2.069285 1_555
Li2 O7 2.200348 1_565
Li2 O1 2.200348 1_655
Li2 O2 2.327345 1_555
Li3 O11 2.060901 1_555
Li3 O15 2.121544 1_555
Li3 O9 2.121544 1_555
Li3 O0 2.172021 1_656
Li3 O6 2.172021 1_566
Li3 O3 2.327457 1_556
Li4 O4 2.060901 1_555
Li4 O6 2.121544 1_555
Li4 O0 2.121544 1_555
Li4 O15 2.172021 1_454
Li4 O9 2.172021 1_544
Li4 O12 2.327457 1_554
Li5 O5 2.043349 1_555
Li5 O7 2.069285 1_555
Li5 O1 2.069285 1_555
Li5 O14 2.200348 1_455
Li5 O8 2.200348 1_545
Li5 O13 2.327345 1_555
Li6 O12 2.066660 1_555
Li6 O14 2.100625 1_555
Li6 O2 2.124720 1_555
Li6 O11 2.138563 1_545
Li6 O5 2.165115 1_655
Li6 O6 2.222777 1_556
Li7 O3 2.066660 1_555
Li7 O7 2.100625 1_555
Li7 O13 2.124720 1_555
Li7 O4 2.138563 1_655
Li7 O10 2.165115 1_545
Li7 O15 2.222777 1_554
Li8 O8 2.051971 1_545
Li8 O14 2.051971 1_455
Li8 O7 2.051971 1_455
Li8 O1 2.051971 1_545
Li8 O11 2.198363 1_445
Li8 O4 2.198363 1_555
Mn0 O0 1.972411 1_545
Mn0 O9 1.972411 1_544
Mn0 O15 1.972411 1_454
Mn0 O6 1.972411 1_455
Mn0 O10 2.185435 1_445
Mn0 O5 2.185435 1_554
Mn1 O0 1.949075 1_555
Mn1 O6 1.949075 1_555
Mn1 O9 1.949075 1_554
Mn1 O15 1.949075 1_554
Mn1 O13 1.975468 1_555
Mn1 O2 1.975468 1_554
Co0 O11 1.930036 1_545
Co0 O5 1.979955 1_555
Co0 O7 1.983064 1_555
Co0 O12 2.021527 1_555
Co0 O2 2.046221 1_545
Co0 O9 2.235318 1_545
Co1 O4 1.930036 1_565
Co1 O10 1.979955 1_555
Co1 O8 1.983064 1_555
Co1 O3 2.021527 1_555
Co1 O13 2.046221 1_565
Co1 O6 2.235318 1_565
Co2 O4 1.930036 1_655
Co2 O10 1.979955 1_555
Co2 O14 1.983064 1_555
Co2 O3 2.021527 1_555
Co2 O13 2.046221 1_655
Co2 O0 2.235318 1_655
Co3 O11 1.930036 1_455
Co3 O5 1.979955 1_555
Co3 O1 1.983064 1_555
Co3 O12 2.021527 1_555
Co3 O2 2.046221 1_455
Co3 O15 2.235318 1_455
Co4 O8 1.900235 1_555
Co4 O14 1.900235 1_555
Co4 O1 1.900235 1_555
Co4 O7 1.900235 1_555
Co4 O12 1.943287 1_555
Co4 O3 1.943287 1_555
