# generated using pymatgen
data_NaH3C4O5
_symmetry_space_group_name_H-M   'P 1'
_cell_length_a   3.90127998
_cell_length_b   8.16464500
_cell_length_c   9.83615325
_cell_angle_alpha   90.00000000
_cell_angle_beta   102.45569401
_cell_angle_gamma   90.00000000
_symmetry_Int_Tables_number   1
_chemical_formula_structural   NaH3C4O5
_chemical_formula_sum   'Na2 H6 C8 O10'
_cell_volume   305.93244771
_cell_formula_units_Z   2
loop_
 _symmetry_equiv_pos_site_id
 _symmetry_equiv_pos_as_xyz
  1  'x, y, z'
loop_
 _atom_site_type_symbol
 _atom_site_label
 _atom_site_symmetry_multiplicity
 _atom_site_fract_x
 _atom_site_fract_y
 _atom_site_fract_z
 _atom_site_occupancy
  Na  Na0  1  0.47163900  0.86210200  0.85129200  1
  Na  Na1  1  0.47163900  0.13789800  0.35129200  1
  H  H0  1  0.89946600  0.96411100  0.63785700  1
  H  H1  1  0.89946600  0.03588900  0.13785700  1
  H  H2  1  0.87890600  0.77287900  0.63591700  1
  H  H3  1  0.87890600  0.22712100  0.13591700  1
  H  H4  1  0.73336400  0.51309400  0.48062900  1
  H  H5  1  0.73336400  0.48690600  0.98062900  1
  C  C0  1  0.32937900  0.44351600  0.77845300  1
  C  C1  1  0.32937900  0.55648400  0.27845300  1
  C  C2  1  0.08245000  0.44304400  0.64638000  1
  C  C3  1  0.08245000  0.55695600  0.14638000  1
  C  C4  1  0.08775300  0.26539500  0.63607600  1
  C  C5  1  0.08775300  0.73460500  0.13607600  1
  C  C6  1  0.33670600  0.25997900  0.77640700  1
  C  C7  1  0.33670600  0.74002100  0.27640700  1
  O  O0  1  0.89682700  0.86765900  0.69865000  1
  O  O1  1  0.89682700  0.13234100  0.19865000  1
  O  O2  1  0.47903100  0.55249800  0.86243900  1
  O  O3  1  0.47903100  0.44750200  0.36243900  1
  O  O4  1  0.91540100  0.56027200  0.56845400  1
  O  O5  1  0.91540100  0.43972800  0.06845400  1
  O  O6  1  0.94453800  0.16047400  0.54922600  1
  O  O7  1  0.94453800  0.83952600  0.04922600  1
  O  O8  1  0.48024000  0.15219200  0.85652000  1
  O  O9  1  0.48024000  0.84780800  0.35652000  1
loop_
_geom_bond_atom_site_label_1
_geom_bond_atom_site_label_2
_geom_bond_distance
_geom_bond_site_symmetry_2
Na0 O8 2.369121 1_565
Na0 O7 2.383003 1_556
Na0 O0 2.415103 1_455
Na0 O0 2.466204 1_555
Na0 O2 2.530078 1_555
Na1 O9 2.369121 1_545
Na1 O6 2.383003 1_555
Na1 O1 2.415103 1_455
Na1 O1 2.466204 1_555
Na1 O3 2.530078 1_555
H0 O0 0.990192 1_555
H1 O1 0.990192 1_555
H2 O0 0.982785 1_555
H3 O1 0.982785 1_555
H4 O4 1.065052 1_555
H4 O3 1.457811 1_555
H5 O5 1.065052 1_556
H5 O2 1.457811 1_555
C0 O2 1.267673 1_555
C1 O3 1.267673 1_555
C2 O4 1.308754 1_455
C3 O5 1.308754 1_455
C4 O6 1.252953 1_455
C5 O7 1.252953 1_455
C6 O8 1.232332 1_555
C7 O9 1.232332 1_555
