# generated using pymatgen
data_NdHoFe14B
_symmetry_space_group_name_H-M   'P 1'
_cell_length_a   8.73553900
_cell_length_b   8.73553900
_cell_length_c   11.93550800
_cell_angle_alpha   90.00000000
_cell_angle_beta   90.00000000
_cell_angle_gamma   90.00000000
_symmetry_Int_Tables_number   1
_chemical_formula_structural   NdHoFe14B
_chemical_formula_sum   'Nd4 Ho4 Fe56 B4'
_cell_volume   910.79433804
_cell_formula_units_Z   4
loop_
 _symmetry_equiv_pos_site_id
 _symmetry_equiv_pos_as_xyz
  1  'x, y, z'
loop_
 _atom_site_type_symbol
 _atom_site_label
 _atom_site_symmetry_multiplicity
 _atom_site_fract_x
 _atom_site_fract_y
 _atom_site_fract_z
 _atom_site_occupancy
  Nd  Nd0  1  0.23381100  0.76618900  0.50000000  1
  Nd  Nd1  1  0.76618900  0.23381100  0.50000000  1
  Nd  Nd2  1  0.26618900  0.26618900  0.00000000  1
  Nd  Nd3  1  0.73381100  0.73381100  0.00000000  1
  Ho  Ho0  1  0.64540500  0.64540500  0.50000000  1
  Ho  Ho1  1  0.35459500  0.35459500  0.50000000  1
  Ho  Ho2  1  0.85459500  0.14540500  0.00000000  1
  Ho  Ho3  1  0.14540500  0.85459500  0.00000000  1
  Fe  Fe0  1  0.93229000  0.72483500  0.37245400  1
  Fe  Fe1  1  0.06771000  0.27516500  0.37245400  1
  Fe  Fe2  1  0.56771000  0.22483500  0.87245400  1
  Fe  Fe3  1  0.43229000  0.77516500  0.87245400  1
  Fe  Fe4  1  0.06771000  0.27516500  0.62754600  1
  Fe  Fe5  1  0.93229000  0.72483500  0.62754600  1
  Fe  Fe6  1  0.43229000  0.77516500  0.12754600  1
  Fe  Fe7  1  0.56771000  0.22483500  0.12754600  1
  Fe  Fe8  1  0.72483500  0.93229000  0.37245400  1
  Fe  Fe9  1  0.27516500  0.06771000  0.37245400  1
  Fe  Fe10  1  0.22483500  0.56771000  0.87245400  1
  Fe  Fe11  1  0.77516500  0.43229000  0.87245400  1
  Fe  Fe12  1  0.27516500  0.06771000  0.62754600  1
  Fe  Fe13  1  0.72483500  0.93229000  0.62754600  1
  Fe  Fe14  1  0.77516500  0.43229000  0.12754600  1
  Fe  Fe15  1  0.22483500  0.56771000  0.12754600  1
  Fe  Fe16  1  0.14048600  0.53560000  0.32457900  1
  Fe  Fe17  1  0.85951400  0.46440000  0.32457900  1
  Fe  Fe18  1  0.35951400  0.03560000  0.82457900  1
  Fe  Fe19  1  0.64048600  0.96440000  0.82457900  1
  Fe  Fe20  1  0.85951400  0.46440000  0.67542100  1
  Fe  Fe21  1  0.14048600  0.53560000  0.67542100  1
  Fe  Fe22  1  0.64048600  0.96440000  0.17542100  1
  Fe  Fe23  1  0.35951400  0.03560000  0.17542100  1
  Fe  Fe24  1  0.53560000  0.14048600  0.32457900  1
  Fe  Fe25  1  0.46440000  0.85951400  0.32457900  1
  Fe  Fe26  1  0.03560000  0.35951400  0.82457900  1
  Fe  Fe27  1  0.96440000  0.64048600  0.82457900  1
  Fe  Fe28  1  0.46440000  0.85951400  0.67542100  1
  Fe  Fe29  1  0.53560000  0.14048600  0.67542100  1
  Fe  Fe30  1  0.96440000  0.64048600  0.17542100  1
  Fe  Fe31  1  0.03560000  0.35951400  0.17542100  1
  Fe  Fe32  1  0.18246100  0.81753900  0.25266900  1
  Fe  Fe33  1  0.81753900  0.18246100  0.25266900  1
  Fe  Fe34  1  0.31753900  0.31753900  0.75266900  1
  Fe  Fe35  1  0.68246100  0.68246100  0.75266900  1
  Fe  Fe36  1  0.81753900  0.18246100  0.74733100  1
  Fe  Fe37  1  0.18246100  0.81753900  0.74733100  1
  Fe  Fe38  1  0.68246100  0.68246100  0.24733100  1
  Fe  Fe39  1  0.31753900  0.31753900  0.24733100  1
  Fe  Fe40  1  0.40299200  0.59700800  0.30073300  1
  Fe  Fe41  1  0.59700800  0.40299200  0.30073300  1
  Fe  Fe42  1  0.09700800  0.09700800  0.80073300  1
  Fe  Fe43  1  0.90299200  0.90299200  0.80073300  1
  Fe  Fe44  1  0.59700800  0.40299200  0.69926700  1
  Fe  Fe45  1  0.40299200  0.59700800  0.69926700  1
  Fe  Fe46  1  0.90299200  0.90299200  0.19926700  1
  Fe  Fe47  1  0.09700800  0.09700800  0.19926700  1
  Fe  Fe48  1  0.50000000  0.50000000  0.11724200  1
  Fe  Fe49  1  0.00000000  0.00000000  0.61724200  1
  Fe  Fe50  1  0.50000000  0.50000000  0.88275800  1
  Fe  Fe51  1  0.00000000  0.00000000  0.38275800  1
  Fe  Fe52  1  0.00000000  0.50000000  0.50000000  1
  Fe  Fe53  1  0.50000000  0.00000000  0.00000000  1
  Fe  Fe54  1  0.50000000  0.00000000  0.50000000  1
  Fe  Fe55  1  0.00000000  0.50000000  0.00000000  1
  B  B0  1  0.87684600  0.87684600  0.50000000  1
  B  B1  1  0.12315400  0.12315400  0.50000000  1
  B  B2  1  0.62315400  0.37684600  0.00000000  1
  B  B3  1  0.37684600  0.62315400  0.00000000  1
loop_
_geom_bond_atom_site_label_1
_geom_bond_atom_site_label_2
_geom_bond_distance
_geom_bond_site_symmetry_2
Ho0 Ho1 3.592643 1_555
Ho0 Nd0 3.747112 1_555
Ho0 Nd1 3.747112 1_555
Ho1 Nd1 3.747112 1_555
Ho1 Nd0 3.747112 1_555
Ho2 Ho3 3.592643 1_645
Ho2 Nd2 3.747112 1_655
Ho2 Nd3 3.747112 1_545
Ho3 Nd3 3.747112 1_455
Ho3 Nd2 3.747112 1_565
Fe0 Fe17 2.430325 1_555
Fe0 Fe30 2.480332 1_555
Fe0 Fe16 2.523259 1_655
Fe0 Fe52 2.554377 1_655
Fe0 Fe46 2.600070 1_555
Fe0 Fe38 2.670227 1_555
Fe0 Fe32 2.734175 1_655
Fe0 Ho0 3.013210 1_555
Fe0 Nd0 3.063603 1_655
Fe1 Fe16 2.430325 1_555
Fe1 Fe31 2.480332 1_555
Fe1 Fe17 2.523259 1_455
Fe1 Fe52 2.554377 1_555
Fe1 Fe47 2.600070 1_555
Fe1 Fe39 2.670227 1_555
Fe1 Fe33 2.734175 1_455
Fe1 Ho1 3.013210 1_555
Fe1 Nd1 3.063603 1_455
Fe2 Fe29 2.480332 1_555
Fe2 Fe53 2.554377 1_556
Fe2 Fe44 2.600070 1_555
Fe2 Fe36 2.670227 1_555
Fe2 Fe34 2.734175 1_555
Fe2 Ho2 3.013210 1_556
Fe2 Nd2 3.063603 1_556
Fe3 Fe53 2.554377 1_566
Fe3 Fe45 2.600070 1_555
Fe3 Fe37 2.670227 1_555
Fe3 Fe35 2.734175 1_555
Fe3 Ho3 3.013210 1_556
Fe3 Nd3 3.063603 1_556
Fe4 Fe52 2.554377 1_555
Fe4 Fe42 2.600070 1_555
Fe4 Ho1 3.013210 1_555
Fe4 Nd1 3.063603 1_455
Fe5 Fe52 2.554377 1_655
Fe5 Ho0 3.013210 1_555
Fe5 Nd0 3.063603 1_655
Fe6 Ho3 3.013210 1_555
Fe6 Nd3 3.063603 1_555
Fe7 Ho2 3.013210 1_555
Fe7 Nd2 3.063603 1_555
Fe8 Ho0 3.013210 1_555
Fe8 Nd1 3.063603 1_565
Fe9 Ho1 3.013210 1_555
Fe9 Nd0 3.063603 1_545
Fe10 Fe27 2.430325 1_455
Fe10 Fe21 2.480332 1_555
Fe10 Fe26 2.523259 1_555
Fe10 Fe55 2.554377 1_556
Fe10 Fe45 2.600070 1_555
Fe10 Fe37 2.670227 1_555
Fe10 Fe34 2.734175 1_555
Fe10 Ho3 3.013210 1_556
Fe10 Nd2 3.063603 1_556
Fe11 Fe26 2.430325 1_655
Fe11 Fe20 2.480332 1_555
Fe11 Fe27 2.523259 1_555
Fe11 Fe55 2.554377 1_656
Fe11 Fe44 2.600070 1_555
Fe11 Fe36 2.670227 1_555
Fe11 Fe35 2.734175 1_555
Fe11 Ho2 3.013210 1_556
Fe11 Nd3 3.063603 1_556
Fe12 Fe29 2.430325 1_555
Fe12 Fe18 2.480332 1_555
Fe12 Fe28 2.523259 1_545
Fe12 Fe54 2.554377 1_555
Fe12 Fe42 2.600070 1_555
Fe12 Fe34 2.670227 1_555
Fe12 Fe37 2.734175 1_545
Fe12 Ho1 3.013210 1_555
Fe12 Nd0 3.063603 1_545
Fe13 Fe28 2.430325 1_555
Fe13 Fe19 2.480332 1_555
Fe13 Fe29 2.523259 1_565
Fe13 Fe54 2.554377 1_565
Fe13 Fe43 2.600070 1_555
Fe13 Fe35 2.670227 1_555
Fe13 Fe36 2.734175 1_565
Fe13 Ho0 3.013210 1_555
Fe13 Nd1 3.063603 1_565
Fe14 Fe31 2.430325 1_655
Fe14 Fe17 2.480332 1_555
Fe14 Fe30 2.523259 1_555
Fe14 Fe55 2.554377 1_655
Fe14 Fe41 2.600070 1_555
Fe14 Fe33 2.670227 1_555
Fe14 Fe38 2.734175 1_555
Fe14 Ho2 3.013210 1_555
Fe14 Nd3 3.063603 1_555
Fe15 Fe30 2.430325 1_455
Fe15 Fe16 2.480332 1_555
Fe15 Fe31 2.523259 1_555
Fe15 Fe55 2.554377 1_555
Fe15 Fe40 2.600070 1_555
Fe15 Fe32 2.670227 1_555
Fe15 Fe39 2.734175 1_555
Fe15 Ho3 3.013210 1_555
Fe15 Nd2 3.063603 1_555
Fe16 Fe40 2.372175 1_555
Fe16 Fe52 2.446738 1_555
Fe16 Fe30 2.524866 1_455
Fe16 Fe31 2.524866 1_555
Fe16 Fe17 2.532021 1_455
Fe16 Fe39 2.621217 1_555
Fe16 Fe32 2.633804 1_555
Fe16 Nd0 3.017590 1_555
Fe16 Ho1 3.222126 1_555
Fe17 Fe41 2.372175 1_555
Fe17 Fe52 2.446738 1_655
Fe17 Fe30 2.524866 1_555
Fe17 Fe31 2.524866 1_655
Fe17 Fe38 2.621217 1_555
Fe17 Fe33 2.633804 1_555
Fe17 Nd1 3.017590 1_555
Fe17 Ho0 3.222126 1_555
Fe18 Fe42 2.372175 1_555
Fe18 Fe3 2.430325 1_545
Fe18 Fe53 2.446738 1_556
Fe18 Fe2 2.523259 1_555
Fe18 Fe28 2.524866 1_545
Fe18 Fe29 2.524866 1_555
Fe18 Fe19 2.532021 1_545
Fe18 Fe37 2.621217 1_545
Fe18 Fe34 2.633804 1_555
Fe18 Nd2 3.017590 1_556
Fe18 Ho3 3.222126 1_546
Fe19 Fe43 2.372175 1_555
Fe19 Fe2 2.430325 1_565
Fe19 Fe53 2.446738 1_566
Fe19 Fe3 2.523259 1_555
Fe19 Fe28 2.524866 1_555
Fe19 Fe29 2.524866 1_565
Fe19 Fe36 2.621217 1_565
Fe19 Fe35 2.633804 1_555
Fe19 Nd3 3.017590 1_556
Fe19 Ho2 3.222126 1_566
Fe20 Fe44 2.372175 1_555
Fe20 Fe5 2.430325 1_555
Fe20 Fe52 2.446738 1_655
Fe20 Fe4 2.523259 1_655
Fe20 Fe27 2.524866 1_555
Fe20 Fe26 2.524866 1_655
Fe20 Fe21 2.532021 1_655
Fe20 Fe35 2.621217 1_555
Fe20 Fe36 2.633804 1_555
Fe20 Nd1 3.017590 1_555
Fe20 Ho0 3.222126 1_555
Fe21 Fe45 2.372175 1_555
Fe21 Fe4 2.430325 1_555
Fe21 Fe52 2.446738 1_555
Fe21 Fe5 2.523259 1_455
Fe21 Fe27 2.524866 1_455
Fe21 Fe26 2.524866 1_555
Fe21 Fe34 2.621217 1_555
Fe21 Fe37 2.633804 1_555
Fe21 Nd0 3.017590 1_555
Fe21 Ho1 3.222126 1_555
Fe22 Fe46 2.372175 1_555
Fe22 Fe7 2.430325 1_565
Fe22 Fe53 2.446738 1_565
Fe22 Fe8 2.480332 1_555
Fe22 Fe6 2.523259 1_555
Fe22 Fe24 2.524866 1_565
Fe22 Fe25 2.524866 1_555
Fe22 Fe23 2.532021 1_565
Fe22 Fe33 2.621217 1_565
Fe22 Fe38 2.633804 1_555
Fe22 Nd3 3.017590 1_555
Fe22 Ho2 3.222126 1_565
Fe23 Fe47 2.372175 1_555
Fe23 Fe6 2.430325 1_545
Fe23 Fe53 2.446738 1_555
Fe23 Fe9 2.480332 1_555
Fe23 Fe7 2.523259 1_555
Fe23 Fe25 2.524866 1_545
Fe23 Fe24 2.524866 1_555
Fe23 Fe32 2.621217 1_545
Fe23 Fe39 2.633804 1_555
Fe23 Nd2 3.017590 1_555
Fe23 Ho3 3.222126 1_545
Fe24 Fe41 2.372175 1_555
Fe24 Fe9 2.430325 1_555
Fe24 Fe54 2.446738 1_555
Fe24 Fe7 2.480332 1_555
Fe24 Fe8 2.523259 1_545
Fe24 Fe25 2.532021 1_545
Fe24 Fe39 2.621217 1_555
Fe24 Fe33 2.633804 1_555
Fe24 Nd1 3.017590 1_555
Fe24 Ho1 3.222126 1_555
Fe25 Fe40 2.372175 1_555
Fe25 Fe8 2.430325 1_555
Fe25 Fe54 2.446738 1_565
Fe25 Fe6 2.480332 1_555
Fe25 Fe9 2.523259 1_565
Fe25 Fe38 2.621217 1_555
Fe25 Fe32 2.633804 1_555
Fe25 Nd0 3.017590 1_555
Fe25 Ho0 3.222126 1_555
Fe26 Fe42 2.372175 1_555
Fe26 Fe55 2.446738 1_556
Fe26 Fe4 2.480332 1_555
Fe26 Fe27 2.532021 1_455
Fe26 Fe36 2.621217 1_455
Fe26 Fe34 2.633804 1_555
Fe26 Nd2 3.017590 1_556
Fe26 Ho2 3.222126 1_456
Fe27 Fe43 2.372175 1_555
Fe27 Fe55 2.446738 1_656
Fe27 Fe5 2.480332 1_555
Fe27 Fe37 2.621217 1_655
Fe27 Fe35 2.633804 1_555
Fe27 Nd3 3.017590 1_556
Fe27 Ho3 3.222126 1_656
Fe28 Fe45 2.372175 1_555
Fe28 Fe54 2.446738 1_565
Fe28 Fe3 2.480332 1_555
Fe28 Fe29 2.532021 1_565
Fe28 Fe35 2.621217 1_555
Fe28 Fe37 2.633804 1_555
Fe28 Nd0 3.017590 1_555
Fe28 Ho0 3.222126 1_555
Fe29 Fe44 2.372175 1_555
Fe29 Fe54 2.446738 1_555
Fe29 Fe34 2.621217 1_555
Fe29 Fe36 2.633804 1_555
Fe29 Nd1 3.017590 1_555
Fe29 Ho1 3.222126 1_555
Fe30 Fe46 2.372175 1_555
Fe30 Fe55 2.446738 1_655
Fe30 Fe31 2.532021 1_655
Fe30 Fe32 2.621217 1_655
Fe30 Fe38 2.633804 1_555
Fe30 Nd3 3.017590 1_555
Fe30 Ho3 3.222126 1_655
Fe31 Fe47 2.372175 1_555
Fe31 Fe55 2.446738 1_555
Fe31 Fe33 2.621217 1_455
Fe31 Fe39 2.633804 1_555
Fe31 Nd2 3.017590 1_555
Fe31 Ho2 3.222126 1_455
Fe32 Fe47 2.631252 1_565
Fe32 Fe46 2.631252 1_455
Fe32 Fe6 2.670227 1_555
Fe32 Fe9 2.734175 1_565
Fe32 Fe51 2.737118 1_565
Fe32 Fe40 2.784164 1_555
Fe32 Nd0 3.019414 1_555
Fe32 Ho3 3.050281 1_555
Fe33 Fe46 2.631252 1_545
Fe33 Fe47 2.631252 1_655
Fe33 Fe7 2.670227 1_555
Fe33 Fe8 2.734175 1_545
Fe33 Fe51 2.737118 1_655
Fe33 Fe41 2.784164 1_555
Fe33 Nd1 3.019414 1_555
Fe33 Ho2 3.050281 1_555
Fe34 Fe44 2.631252 1_555
Fe34 Fe45 2.631252 1_555
Fe34 Fe4 2.670227 1_555
Fe34 Fe50 2.737118 1_555
Fe34 Fe42 2.784164 1_555
Fe34 Nd2 3.019414 1_556
Fe34 Ho1 3.050281 1_555
Fe35 Fe45 2.631252 1_555
Fe35 Fe44 2.631252 1_555
Fe35 Fe5 2.670227 1_555
Fe35 Fe50 2.737118 1_555
Fe35 Fe43 2.784164 1_555
Fe35 Nd3 3.019414 1_556
Fe35 Ho0 3.050281 1_555
Fe36 Fe43 2.631252 1_545
Fe36 Fe42 2.631252 1_655
Fe36 Fe4 2.734175 1_655
Fe36 Fe49 2.737118 1_655
Fe36 Fe44 2.784164 1_555
Fe36 Nd1 3.019414 1_555
Fe36 Ho2 3.050281 1_556
Fe37 Fe42 2.631252 1_565
Fe37 Fe43 2.631252 1_455
Fe37 Fe5 2.734175 1_455
Fe37 Fe49 2.737118 1_565
Fe37 Fe45 2.784164 1_555
Fe37 Nd0 3.019414 1_555
Fe37 Ho3 3.050281 1_556
Fe38 Fe40 2.631252 1_555
Fe38 Fe41 2.631252 1_555
Fe38 Fe8 2.670227 1_555
Fe38 Fe6 2.734175 1_555
Fe38 Fe48 2.737118 1_555
Fe38 Fe46 2.784164 1_555
Fe38 Nd3 3.019414 1_555
Fe38 Ho0 3.050281 1_555
Fe39 Fe41 2.631252 1_555
Fe39 Fe40 2.631252 1_555
Fe39 Fe9 2.670227 1_555
Fe39 Fe7 2.734175 1_555
Fe39 Fe48 2.737118 1_555
Fe39 Fe47 2.784164 1_555
Fe39 Nd2 3.019414 1_555
Fe39 Ho1 3.050281 1_555
Fe40 Fe41 2.396858 1_555
Fe40 Fe48 2.496515 1_555
Fe40 Fe6 2.600070 1_555
Fe40 Nd0 3.166207 1_555
Fe40 Ho1 3.212408 1_555
Fe40 Ho0 3.212408 1_555
Fe41 Fe48 2.496515 1_555
Fe41 Fe7 2.600070 1_555
Fe41 Nd1 3.166207 1_555
Fe41 Ho1 3.212408 1_555
Fe41 Ho0 3.212408 1_555
Fe42 Fe43 2.396858 1_445
Fe42 Fe49 2.496515 1_555
Fe42 Nd2 3.166207 1_556
Fe42 Ho2 3.212408 1_456
Fe42 Ho3 3.212408 1_546
Fe43 Fe49 2.496515 1_665
Fe43 Fe5 2.600070 1_555
Fe43 Nd3 3.166207 1_556
Fe43 Ho2 3.212408 1_566
Fe43 Ho3 3.212408 1_656
Fe44 Fe45 2.396858 1_555
Fe44 Fe50 2.496515 1_555
Fe44 Nd1 3.166207 1_555
Fe44 Ho1 3.212408 1_555
Fe44 Ho0 3.212408 1_555
Fe45 Fe50 2.496515 1_555
Fe45 Nd0 3.166207 1_555
Fe45 Ho1 3.212408 1_555
Fe45 Ho0 3.212408 1_555
Fe46 Fe47 2.396858 1_665
Fe46 Fe51 2.496515 1_665
Fe46 Fe8 2.600070 1_555
Fe46 Nd3 3.166207 1_555
Fe46 Ho3 3.212408 1_655
Fe46 Ho2 3.212408 1_565
Fe47 Fe51 2.496515 1_555
Fe47 Fe9 2.600070 1_555
Fe47 Nd2 3.166207 1_555
Fe47 Ho2 3.212408 1_455
Fe47 Ho3 3.212408 1_545
Fe48 Nd2 3.209593 1_555
Fe48 Nd3 3.209593 1_555
Fe49 Nd1 3.209593 1_455
Fe49 Nd0 3.209593 1_545
Fe50 Nd2 3.209593 1_556
Fe50 Nd3 3.209593 1_556
Fe51 Nd1 3.209593 1_455
Fe51 Nd0 3.209593 1_545
Fe52 Nd1 3.094948 1_455
Fe52 Nd0 3.094948 1_555
Fe52 Ho1 3.347892 1_555
Fe52 Ho0 3.347892 1_455
Fe53 Fe7 2.554377 1_555
Fe53 Fe6 2.554377 1_545
Fe53 Nd3 3.094948 1_545
Fe53 Nd2 3.094948 1_555
Fe53 Ho3 3.347892 1_545
Fe53 Ho2 3.347892 1_555
Fe54 Fe8 2.554377 1_545
Fe54 Fe9 2.554377 1_555
Fe54 Nd0 3.094948 1_545
Fe54 Nd1 3.094948 1_555
Fe54 Ho1 3.347892 1_555
Fe54 Ho0 3.347892 1_545
Fe55 Nd3 3.094948 1_455
Fe55 Nd2 3.094948 1_555
Fe55 Ho3 3.347892 1_555
Fe55 Ho2 3.347892 1_455
B0 Fe49 2.067105 1_665
B0 Fe51 2.067105 1_665
B0 Fe13 2.077347 1_555
B0 Fe5 2.077347 1_555
B0 Fe8 2.077347 1_555
B0 Fe0 2.077347 1_555
B0 Ho0 2.859203 1_555
B0 Nd0 3.264673 1_655
B0 Nd1 3.264673 1_565
B1 Fe51 2.067105 1_555
B1 Fe49 2.067105 1_555
B1 Fe4 2.077347 1_555
B1 Fe12 2.077347 1_555
B1 Fe1 2.077347 1_555
B1 Fe9 2.077347 1_555
B1 Ho1 2.859203 1_555
B1 Nd1 3.264673 1_455
B1 Nd0 3.264673 1_545
B2 Fe48 2.067105 1_555
B2 Fe50 2.067105 1_554
B2 Fe7 2.077347 1_555
B2 Fe2 2.077347 1_554
B2 Fe14 2.077347 1_555
B2 Fe11 2.077347 1_554
B2 Ho2 2.859203 1_555
B2 Nd2 3.264673 1_555
B2 Nd3 3.264673 1_555
B3 Fe48 2.067105 1_555
B3 Fe50 2.067105 1_554
B3 Fe15 2.077347 1_555
B3 Fe10 2.077347 1_554
B3 Fe6 2.077347 1_555
B3 Fe3 2.077347 1_554
B3 Ho3 2.859203 1_555
B3 Nd2 3.264673 1_555
B3 Nd3 3.264673 1_555
