# generated using pymatgen
data_LiBP2Pb4O11
_symmetry_space_group_name_H-M   'P 1'
_cell_length_a   6.64782326
_cell_length_b   12.80206393
_cell_length_c   25.79404729
_cell_angle_alpha   90.00000000
_cell_angle_beta   90.00000000
_cell_angle_gamma   90.00000000
_symmetry_Int_Tables_number   1
_chemical_formula_structural   LiBP2Pb4O11
_chemical_formula_sum   'Li8 B8 P16 Pb32 O88'
_cell_volume   2195.22453545
_cell_formula_units_Z   8
loop_
 _symmetry_equiv_pos_site_id
 _symmetry_equiv_pos_as_xyz
  1  'x, y, z'
loop_
 _atom_site_type_symbol
 _atom_site_label
 _atom_site_symmetry_multiplicity
 _atom_site_fract_x
 _atom_site_fract_y
 _atom_site_fract_z
 _atom_site_occupancy
  Li  Li0  1  0.47240118  0.24417447  0.62671885  1
  Li  Li1  1  0.02759882  0.74417447  0.37328115  1
  Li  Li2  1  0.97240118  0.75582553  0.87328115  1
  Li  Li3  1  0.52759882  0.25582553  0.12671885  1
  Li  Li4  1  0.52759882  0.75582553  0.37328115  1
  Li  Li5  1  0.97240118  0.25582553  0.62671885  1
  Li  Li6  1  0.02759882  0.24417447  0.12671885  1
  Li  Li7  1  0.47240118  0.74417447  0.87328115  1
  B  B0  1  0.53018567  0.24155899  0.37909564  1
  B  B1  1  0.96981433  0.74155899  0.62090436  1
  B  B2  1  0.03018567  0.75844101  0.12090436  1
  B  B3  1  0.46981433  0.25844101  0.87909564  1
  B  B4  1  0.46981433  0.75844101  0.62090436  1
  B  B5  1  0.03018567  0.25844101  0.37909564  1
  B  B6  1  0.96981433  0.24155899  0.87909564  1
  B  B7  1  0.53018567  0.74155899  0.12090436  1
  P  P0  1  0.71461848  0.38154202  0.70300404  1
  P  P1  1  0.78538152  0.88154202  0.29699596  1
  P  P2  1  0.21461848  0.61845798  0.79699596  1
  P  P3  1  0.28538152  0.11845798  0.20300404  1
  P  P4  1  0.28538152  0.61845798  0.29699596  1
  P  P5  1  0.21461848  0.11845798  0.70300404  1
  P  P6  1  0.78538152  0.38154202  0.20300404  1
  P  P7  1  0.71461848  0.88154202  0.79699596  1
  P  P8  1  0.21616954  0.40742798  0.55505044  1
  P  P9  1  0.28383046  0.90742798  0.44494956  1
  P  P10  1  0.71616954  0.59257202  0.94494956  1
  P  P11  1  0.78383046  0.09257202  0.05505044  1
  P  P12  1  0.78383046  0.59257202  0.44494956  1
  P  P13  1  0.71616954  0.09257202  0.55505044  1
  P  P14  1  0.28383046  0.40742798  0.05505044  1
  P  P15  1  0.21616954  0.90742798  0.94494956  1
  Pb  Pb0  1  0.29103991  0.18028164  0.49046230  1
  Pb  Pb1  1  0.20896009  0.68028164  0.50953770  1
  Pb  Pb2  1  0.79103991  0.81971836  0.00953770  1
  Pb  Pb3  1  0.70896009  0.31971836  0.99046230  1
  Pb  Pb4  1  0.70896009  0.81971836  0.50953770  1
  Pb  Pb5  1  0.79103991  0.31971836  0.49046230  1
  Pb  Pb6  1  0.20896009  0.18028164  0.99046230  1
  Pb  Pb7  1  0.29103991  0.68028164  0.00953770  1
  Pb  Pb8  1  0.30495389  0.03190323  0.33172512  1
  Pb  Pb9  1  0.19504611  0.53190323  0.66827488  1
  Pb  Pb10  1  0.80495389  0.96809677  0.16827488  1
  Pb  Pb11  1  0.69504611  0.46809677  0.83172512  1
  Pb  Pb12  1  0.69504611  0.96809677  0.66827488  1
  Pb  Pb13  1  0.80495389  0.46809677  0.33172512  1
  Pb  Pb14  1  0.19504611  0.03190323  0.83172512  1
  Pb  Pb15  1  0.30495389  0.53190323  0.16827488  1
  Pb  Pb16  1  0.69292322  0.16241107  0.77806419  1
  Pb  Pb17  1  0.80707678  0.66241107  0.22193581  1
  Pb  Pb18  1  0.19292322  0.83758893  0.72193581  1
  Pb  Pb19  1  0.30707678  0.33758893  0.27806419  1
  Pb  Pb20  1  0.30707678  0.83758893  0.22193581  1
  Pb  Pb21  1  0.19292322  0.33758893  0.77806419  1
  Pb  Pb22  1  0.80707678  0.16241107  0.27806419  1
  Pb  Pb23  1  0.69292322  0.66241107  0.72193581  1
  Pb  Pb24  1  0.69256565  0.53494278  0.58386196  1
  Pb  Pb25  1  0.80743435  0.03494278  0.41613804  1
  Pb  Pb26  1  0.19256565  0.46505722  0.91613804  1
  Pb  Pb27  1  0.30743435  0.96505722  0.08386196  1
  Pb  Pb28  1  0.30743435  0.46505722  0.41613804  1
  Pb  Pb29  1  0.19256565  0.96505722  0.58386196  1
  Pb  Pb30  1  0.80743435  0.53494278  0.08386196  1
  Pb  Pb31  1  0.69256565  0.03494278  0.91613804  1
  O  O0  1  0.29870723  0.52163205  0.56018207  1
  O  O1  1  0.20129277  0.02163205  0.43981793  1
  O  O2  1  0.79870723  0.47836795  0.93981793  1
  O  O3  1  0.70129277  0.97836795  0.06018207  1
  O  O4  1  0.70129277  0.47836795  0.43981793  1
  O  O5  1  0.79870723  0.97836795  0.56018207  1
  O  O6  1  0.20129277  0.52163205  0.06018207  1
  O  O7  1  0.29870723  0.02163205  0.93981793  1
  O  O8  1  0.60727104  0.47626220  0.67614994  1
  O  O9  1  0.89272896  0.97626220  0.32385006  1
  O  O10  1  0.10727104  0.52373780  0.82385006  1
  O  O11  1  0.39272896  0.02373780  0.17614994  1
  O  O12  1  0.39272896  0.52373780  0.32385006  1
  O  O13  1  0.10727104  0.02373780  0.67614994  1
  O  O14  1  0.89272896  0.47626220  0.17614994  1
  O  O15  1  0.60727104  0.97626220  0.82385006  1
  O  O16  1  0.59747843  0.35204473  0.75429839  1
  O  O17  1  0.90252157  0.85204473  0.24570161  1
  O  O18  1  0.09747843  0.64795527  0.74570161  1
  O  O19  1  0.40252157  0.14795527  0.25429839  1
  O  O20  1  0.40252157  0.64795527  0.24570161  1
  O  O21  1  0.09747843  0.14795527  0.75429839  1
  O  O22  1  0.90252157  0.35204473  0.25429839  1
  O  O23  1  0.59747843  0.85204473  0.74570161  1
  O  O24  1  0.92866284  0.41838626  0.71984414  1
  O  O25  1  0.57133716  0.91838626  0.28015586  1
  O  O26  1  0.42866284  0.58161374  0.78015586  1
  O  O27  1  0.07133716  0.08161374  0.21984414  1
  O  O28  1  0.07133716  0.58161374  0.28015586  1
  O  O29  1  0.42866284  0.08161374  0.71984414  1
  O  O30  1  0.57133716  0.41838626  0.21984414  1
  O  O31  1  0.92866284  0.91838626  0.78015586  1
  O  O32  1  0.13605046  0.38797682  0.49799497  1
  O  O33  1  0.36394954  0.88797682  0.50200503  1
  O  O34  1  0.63605046  0.61202318  0.00200503  1
  O  O35  1  0.86394954  0.11202318  0.99799497  1
  O  O36  1  0.86394954  0.61202318  0.50200503  1
  O  O37  1  0.63605046  0.11202318  0.49799497  1
  O  O38  1  0.36394954  0.38797682  0.99799497  1
  O  O39  1  0.13605046  0.88797682  0.00200503  1
  O  O40  1  0.03725628  0.39456172  0.59312094  1
  O  O41  1  0.46274372  0.89456172  0.40687906  1
  O  O42  1  0.53725628  0.60543828  0.90687906  1
  O  O43  1  0.96274372  0.10543828  0.09312094  1
  O  O44  1  0.96274372  0.60543828  0.40687906  1
  O  O45  1  0.53725628  0.10543828  0.59312094  1
  O  O46  1  0.46274372  0.39456172  0.09312094  1
  O  O47  1  0.03725628  0.89456172  0.90687906  1
  O  O48  1  0.44744401  0.27959395  0.42506921  1
  O  O49  1  0.05255599  0.77959395  0.57493079  1
  O  O50  1  0.94744401  0.72040605  0.07493079  1
  O  O51  1  0.55255599  0.22040605  0.92506921  1
  O  O52  1  0.55255599  0.72040605  0.57493079  1
  O  O53  1  0.94744401  0.22040605  0.42506921  1
  O  O54  1  0.05255599  0.27959395  0.92506921  1
  O  O55  1  0.44744401  0.77959395  0.07493079  1
  O  O56  1  0.71980772  0.28532116  0.66718440  1
  O  O57  1  0.78019228  0.78532116  0.33281560  1
  O  O58  1  0.21980772  0.71467884  0.83281560  1
  O  O59  1  0.28019228  0.21467884  0.16718440  1
  O  O60  1  0.28019228  0.71467884  0.33281560  1
  O  O61  1  0.21980772  0.21467884  0.66718440  1
  O  O62  1  0.78019228  0.28532116  0.16718440  1
  O  O63  1  0.71980772  0.78532116  0.83281560  1
  O  O64  1  0.56354101  0.13508768  0.37085166  1
  O  O65  1  0.93645899  0.63508768  0.62914834  1
  O  O66  1  0.06354101  0.86491232  0.12914834  1
  O  O67  1  0.43645899  0.36491232  0.87085166  1
  O  O68  1  0.43645899  0.86491232  0.62914834  1
  O  O69  1  0.06354101  0.36491232  0.37085166  1
  O  O70  1  0.93645899  0.13508768  0.87085166  1
  O  O71  1  0.56354101  0.63508768  0.12914834  1
  O  O72  1  0.07726130  0.18988080  0.33943202  1
  O  O73  1  0.42273870  0.68988080  0.66056798  1
  O  O74  1  0.57726130  0.81011920  0.16056798  1
  O  O75  1  0.92273870  0.31011920  0.83943202  1
  O  O76  1  0.92273870  0.81011920  0.66056798  1
  O  O77  1  0.57726130  0.31011920  0.33943202  1
  O  O78  1  0.42273870  0.18988080  0.83943202  1
  O  O79  1  0.07726130  0.68988080  0.16056798  1
  O  O80  1  0.38964991  0.32945933  0.56493668  1
  O  O81  1  0.11035009  0.82945933  0.43506332  1
  O  O82  1  0.88964991  0.67054067  0.93506332  1
  O  O83  1  0.61035009  0.17054067  0.06493668  1
  O  O84  1  0.61035009  0.67054067  0.43506332  1
  O  O85  1  0.88964991  0.17054067  0.56493668  1
  O  O86  1  0.11035009  0.32945933  0.06493668  1
  O  O87  1  0.38964991  0.82945933  0.93506332  1
loop_
_geom_bond_atom_site_label_1
_geom_bond_atom_site_label_2
_geom_bond_distance
_geom_bond_site_symmetry_2
Li0 O80 2.008557 1_555
Li0 O61 2.012894 1_555
Li0 O56 2.017925 1_555
Li0 O45 2.022744 1_555
Li1 O81 2.008557 1_555
Li1 O60 2.012894 1_555
Li1 O57 2.017925 1_455
Li1 O44 2.022744 1_455
Li2 O82 2.008557 1_555
Li2 O63 2.012894 1_555
Li2 O58 2.017925 1_655
Li2 O47 2.022744 1_655
Li3 O83 2.008557 1_555
Li3 O62 2.012894 1_555
Li3 O59 2.017925 1_555
Li3 O46 2.022744 1_555
Li4 O84 2.008557 1_555
Li4 O57 2.012894 1_555
Li4 O60 2.017925 1_555
Li4 O41 2.022744 1_555
Li5 O85 2.008557 1_555
Li5 O56 2.012894 1_555
Li5 O61 2.017925 1_655
Li5 O40 2.022744 1_655
Li6 O86 2.008557 1_555
Li6 O59 2.012894 1_555
Li6 O62 2.017925 1_455
Li6 O43 2.022744 1_455
Li7 O87 2.008557 1_555
Li7 O58 2.012894 1_555
Li7 O63 2.017925 1_555
Li7 O42 2.022744 1_555
B0 O77 1.383843 1_555
B0 O48 1.394948 1_555
B0 O64 1.397247 1_555
B1 O76 1.383843 1_555
B1 O49 1.394948 1_655
B1 O65 1.397247 1_555
B2 O79 1.383843 1_555
B2 O50 1.394948 1_455
B2 O66 1.397247 1_555
B3 O78 1.383843 1_555
B3 O51 1.394948 1_555
B3 O67 1.397247 1_555
B4 O73 1.383843 1_555
B4 O52 1.394948 1_555
B4 O68 1.397247 1_555
B5 O72 1.383843 1_555
B5 O53 1.394948 1_455
B5 O69 1.397247 1_555
B6 O75 1.383843 1_555
B6 O54 1.394948 1_655
B6 O70 1.397247 1_555
B7 O74 1.383843 1_555
B7 O55 1.394948 1_555
B7 O71 1.397247 1_555
O0 P8 1.567218 1_555
O0 Pb1 2.487483 1_555
O0 Pb24 2.693996 1_555
O1 P9 1.567218 1_545
O1 Pb0 2.487483 1_555
O1 Pb25 2.693996 1_455
O2 P10 1.567218 1_555
O2 Pb3 2.487483 1_555
O2 Pb26 2.693996 1_655
O3 P11 1.567218 1_565
O3 Pb2 2.487483 1_555
O3 Pb27 2.693996 1_555
O4 P12 1.567218 1_555
O4 Pb5 2.487483 1_555
O4 Pb28 2.693996 1_555
O5 P13 1.567218 1_565
O5 Pb4 2.487483 1_555
O5 Pb29 2.693996 1_655
O6 P14 1.567218 1_555
O6 Pb7 2.487483 1_555
O6 Pb30 2.693996 1_455
O7 P15 1.567218 1_545
O7 Pb6 2.487483 1_555
O7 Pb31 2.693996 1_555
O8 P0 1.568278 1_555
O8 Pb24 2.559796 1_555
O8 Pb23 2.719945 1_555
O9 P1 1.568278 1_555
O9 Pb25 2.559796 1_565
O9 Pb22 2.719945 1_565
O10 P2 1.568278 1_555
O10 Pb26 2.559796 1_555
O10 Pb21 2.719945 1_555
O11 P3 1.568278 1_555
O11 Pb27 2.559796 1_545
O11 Pb20 2.719945 1_545
O12 P4 1.568278 1_555
O12 Pb28 2.559796 1_555
O12 Pb19 2.719945 1_555
O13 P5 1.568278 1_555
O13 Pb29 2.559796 1_545
O13 Pb18 2.719945 1_545
O14 P6 1.568278 1_555
O14 Pb30 2.559796 1_555
O14 Pb17 2.719945 1_555
O15 P7 1.568278 1_555
O15 Pb31 2.559796 1_565
O15 Pb16 2.719945 1_565
O16 P0 1.581006 1_555
O16 Pb11 2.572280 1_555
O16 Pb16 2.583044 1_555
O16 Pb21 2.764593 1_555
O17 P1 1.581006 1_555
O17 Pb10 2.572280 1_555
O17 Pb17 2.583044 1_555
O17 Pb20 2.764593 1_655
O18 P2 1.581006 1_555
O18 Pb9 2.572280 1_555
O18 Pb18 2.583044 1_555
O18 Pb23 2.764593 1_455
O19 P3 1.581006 1_555
O19 Pb8 2.572280 1_555
O19 Pb19 2.583044 1_555
O19 Pb22 2.764593 1_555
O20 P4 1.581006 1_555
O20 Pb15 2.572280 1_555
O20 Pb20 2.583044 1_555
O20 Pb17 2.764593 1_555
O21 P5 1.581006 1_555
O21 Pb14 2.572280 1_555
O21 Pb21 2.583044 1_555
O21 Pb16 2.764593 1_455
O22 P6 1.581006 1_555
O22 Pb13 2.572280 1_555
O22 Pb22 2.583044 1_555
O22 Pb19 2.764593 1_655
O23 P7 1.581006 1_555
O23 Pb12 2.572280 1_555
O23 Pb23 2.583044 1_555
O23 Pb18 2.764593 1_555
O24 P0 1.560735 1_555
O24 Pb21 2.532057 1_655
O24 Pb9 2.649018 1_655
O25 P1 1.560735 1_555
O25 Pb20 2.532057 1_555
O25 Pb8 2.649018 1_565
O26 P2 1.560735 1_555
O26 Pb23 2.532057 1_555
O26 Pb11 2.649018 1_555
O27 P3 1.560735 1_555
O27 Pb22 2.532057 1_455
O27 Pb10 2.649018 1_445
O28 P4 1.560735 1_555
O28 Pb17 2.532057 1_455
O28 Pb13 2.649018 1_455
O29 P5 1.560735 1_555
O29 Pb16 2.532057 1_555
O29 Pb12 2.649018 1_545
O30 P6 1.560735 1_555
O30 Pb19 2.532057 1_555
O30 Pb15 2.649018 1_555
O31 P7 1.560735 1_555
O31 Pb18 2.532057 1_655
O31 Pb14 2.649018 1_665
O32 P8 1.584792 1_555
O32 Pb5 2.462077 1_455
O32 Pb28 2.594210 1_555
O33 P9 1.584792 1_555
O33 Pb4 2.462077 1_555
O33 Pb29 2.594210 1_555
O34 P10 1.584792 1_554
O34 Pb7 2.462077 1_555
O34 Pb30 2.594210 1_555
O35 P11 1.584792 1_556
O35 Pb6 2.462077 1_655
O35 Pb31 2.594210 1_555
O36 P12 1.584792 1_555
O36 Pb1 2.462077 1_655
O36 Pb24 2.594210 1_555
O37 P13 1.584792 1_555
O37 Pb0 2.462077 1_555
O37 Pb25 2.594210 1_555
O38 P14 1.584792 1_556
O38 Pb3 2.462077 1_555
O38 Pb26 2.594210 1_555
O39 P15 1.584792 1_554
O39 Pb2 2.462077 1_455
O39 Pb27 2.594210 1_555
O40 P8 1.551152 1_555
O41 P9 1.551152 1_555
O42 P10 1.551152 1_555
O43 P11 1.551152 1_555
O44 P12 1.551152 1_555
O45 P13 1.551152 1_555
O46 P14 1.551152 1_555
O47 P15 1.551152 1_555
O48 Pb0 2.354288 1_555
O48 Pb28 2.560614 1_555
O49 Pb1 2.354288 1_555
O49 Pb29 2.560614 1_555
O50 Pb2 2.354288 1_555
O50 Pb30 2.560614 1_555
O51 Pb3 2.354288 1_555
O51 Pb31 2.560614 1_555
O52 Pb4 2.354288 1_555
O52 Pb24 2.560614 1_555
O53 Pb5 2.354288 1_555
O53 Pb25 2.560614 1_555
O54 Pb6 2.354288 1_555
O54 Pb26 2.560614 1_555
O55 Pb7 2.354288 1_555
O55 Pb27 2.560614 1_555
O56 P0 1.540207 1_555
O57 P1 1.540207 1_555
O58 P2 1.540207 1_555
O59 P3 1.540207 1_555
O60 P4 1.540207 1_555
O61 P5 1.540207 1_555
O62 P6 1.540207 1_555
O63 P7 1.540207 1_555
O64 Pb25 2.374235 1_555
O64 Pb8 2.391365 1_555
O65 Pb24 2.374235 1_555
O65 Pb9 2.391365 1_655
O66 Pb27 2.374235 1_555
O66 Pb10 2.391365 1_455
O67 Pb26 2.374235 1_555
O67 Pb11 2.391365 1_555
O68 Pb29 2.374235 1_555
O68 Pb12 2.391365 1_555
O69 Pb28 2.374235 1_555
O69 Pb13 2.391365 1_455
O70 Pb31 2.374235 1_555
O70 Pb14 2.391365 1_655
O71 Pb30 2.374235 1_555
O71 Pb15 2.391365 1_555
O72 Pb22 2.419801 1_455
O72 Pb8 2.533958 1_555
O73 Pb23 2.419801 1_555
O73 Pb9 2.533958 1_555
O74 Pb20 2.419801 1_555
O74 Pb10 2.533958 1_555
O75 Pb21 2.419801 1_655
O75 Pb11 2.533958 1_555
O76 Pb18 2.419801 1_655
O76 Pb12 2.533958 1_555
O77 Pb19 2.419801 1_555
O77 Pb13 2.533958 1_555
O78 Pb16 2.419801 1_555
O78 Pb14 2.533958 1_555
O79 Pb17 2.419801 1_455
O79 Pb15 2.533958 1_555
O80 P8 1.546407 1_555
O81 P9 1.546407 1_555
O82 P10 1.546407 1_555
O83 P11 1.546407 1_555
O84 P12 1.546407 1_555
O85 P13 1.546407 1_555
O86 P14 1.546407 1_555
O87 P15 1.546407 1_555
