# generated using pymatgen
data_LaVCrO6
_symmetry_space_group_name_H-M   'P 1'
_cell_length_a   5.29842200
_cell_length_b   5.38732489
_cell_length_c   5.41779402
_cell_angle_alpha   119.32806589
_cell_angle_beta   119.13090523
_cell_angle_gamma   90.43165873
_symmetry_Int_Tables_number   1
_chemical_formula_structural   LaVCrO6
_chemical_formula_sum   'La1 V1 Cr1 O6'
_cell_volume   111.45941199
_cell_formula_units_Z   1
loop_
 _symmetry_equiv_pos_site_id
 _symmetry_equiv_pos_as_xyz
  1  'x, y, z'
loop_
 _atom_site_type_symbol
 _atom_site_label
 _atom_site_symmetry_multiplicity
 _atom_site_fract_x
 _atom_site_fract_y
 _atom_site_fract_z
 _atom_site_occupancy
  La  La0  1  0.27971000  0.77913600  0.03774900  1
  V  V0  1  0.02978000  0.03300400  0.55011300  1
  Cr  Cr0  1  0.52418300  0.52172900  0.53369000  1
  O  O0  1  0.24201600  0.75737200  0.54434800  1
  O  O1  1  0.27563500  0.22448300  0.49923800  1
  O  O2  1  0.71861000  0.77177300  0.47831000  1
  O  O3  1  0.77391800  0.73600600  0.98733600  1
  O  O4  1  0.23278900  0.26905100  0.00187800  1
  O  O5  1  0.76476800  0.24926800  0.46898400  1
loop_
_geom_bond_atom_site_label_1
_geom_bond_atom_site_label_2
_geom_bond_distance
_geom_bond_site_symmetry_2
La0 O2 2.407603 1_555
La0 O1 2.486955 1_565
La0 O0 2.524314 1_554
La0 O3 2.554654 1_454
La0 O5 2.595677 1_565
La0 O4 2.659049 1_555
La0 O4 2.744261 1_565
La0 O3 2.761986 1_554
La0 O5 2.857998 1_454
La0 O0 2.904363 1_555
La0 O1 2.972997 1_554
La0 O2 3.022237 1_454
Cr0 O3 1.776334 1_555
Cr0 O2 1.908348 1_555
Cr0 O1 1.941533 1_555
Cr0 O5 1.965080 1_555
Cr0 O0 1.972539 1_555
Cr0 O4 2.081685 1_555
O0 V0 1.866660 1_565
O1 V0 1.856025 1_555
O2 V0 1.911661 1_665
O3 V0 2.204145 1_666
O4 V0 1.769699 1_554
O5 V0 1.856788 1_655
