# generated using pymatgen
data_BaSrInBiO6
_symmetry_space_group_name_H-M   'P 1'
_cell_length_a   8.50364396
_cell_length_b   8.52975735
_cell_length_c   8.49486268
_cell_angle_alpha   90.00000000
_cell_angle_beta   90.00000000
_cell_angle_gamma   90.00000000
_symmetry_Int_Tables_number   1
_chemical_formula_structural   BaSrInBiO6
_chemical_formula_sum   'Ba4 Sr4 In4 Bi4 O24'
_cell_volume   616.16653587
_cell_formula_units_Z   4
loop_
 _symmetry_equiv_pos_site_id
 _symmetry_equiv_pos_as_xyz
  1  'x, y, z'
loop_
 _atom_site_type_symbol
 _atom_site_label
 _atom_site_symmetry_multiplicity
 _atom_site_fract_x
 _atom_site_fract_y
 _atom_site_fract_z
 _atom_site_occupancy
  Ba  Ba0  1  -0.00000000  0.00000000  -0.00000000  1
  Ba  Ba1  1  0.50000000  0.50000000  0.50000000  1
  Ba  Ba2  1  0.50000000  0.50000000  -0.00000000  1
  Ba  Ba3  1  -0.00000000  0.00000000  0.50000000  1
  Sr  Sr0  1  -0.00000000  0.50000000  0.50000000  1
  Sr  Sr1  1  0.50000000  0.00000000  0.50000000  1
  Sr  Sr2  1  0.50000000  -0.00000000  -0.00000000  1
  Sr  Sr3  1  -0.00000000  0.50000000  -0.00000000  1
  In  In0  1  0.25000000  0.25000000  0.25000000  1
  In  In1  1  0.75000000  0.75000000  0.25000000  1
  In  In2  1  0.75000000  0.25000000  0.75000000  1
  In  In3  1  0.25000000  0.75000000  0.75000000  1
  Bi  Bi0  1  0.75000000  0.75000000  0.75000000  1
  Bi  Bi1  1  0.25000000  0.25000000  0.75000000  1
  Bi  Bi2  1  0.25000000  0.75000000  0.25000000  1
  Bi  Bi3  1  0.75000000  0.25000000  0.25000000  1
  O  O0  1  0.99781253  0.22312599  0.27766334  1
  O  O1  1  0.00218747  0.77687401  0.27766334  1
  O  O2  1  0.00218747  0.22312599  0.72233666  1
  O  O3  1  0.99781253  0.77687401  0.72233666  1
  O  O4  1  0.28250861  0.99729211  0.21261660  1
  O  O5  1  0.28250861  0.00270789  0.78738340  1
  O  O6  1  0.71749139  0.00270789  0.21261660  1
  O  O7  1  0.71749139  0.99729211  0.78738340  1
  O  O8  1  0.21362958  0.28514862  0.99764781  1
  O  O9  1  0.78637042  0.28514862  0.00235219  1
  O  O10  1  0.21362958  0.71485138  0.00235219  1
  O  O11  1  0.78637042  0.71485138  0.99764781  1
  O  O12  1  0.50218747  0.27687401  0.22233666  1
  O  O13  1  0.49781253  0.72312599  0.22233666  1
  O  O14  1  0.49781253  0.27687401  0.77766334  1
  O  O15  1  0.50218747  0.72312599  0.77766334  1
  O  O16  1  0.21749139  0.50270789  0.28738340  1
  O  O17  1  0.21749139  0.49729211  0.71261660  1
  O  O18  1  0.78250861  0.49729211  0.28738340  1
  O  O19  1  0.78250861  0.50270789  0.71261660  1
  O  O20  1  0.28637042  0.21485138  0.50235219  1
  O  O21  1  0.71362958  0.21485138  0.49764781  1
  O  O22  1  0.28637042  0.78514862  0.49764781  1
  O  O23  1  0.71362958  0.78514862  0.50235219  1
loop_
_geom_bond_atom_site_label_1
_geom_bond_atom_site_label_2
_geom_bond_distance
_geom_bond_site_symmetry_2
Ba0 O4 3.005662 1_545
Ba0 O5 3.005662 1_554
Ba0 O7 3.005662 1_444
Ba0 O6 3.005662 1_455
Ba0 O1 3.030854 1_545
Ba0 O0 3.030854 1_455
Ba0 O2 3.030854 1_554
Ba0 O3 3.030854 1_444
Ba0 O10 3.035849 1_545
Ba0 O11 3.035849 1_444
Ba0 O9 3.035849 1_455
Ba0 O8 3.035849 1_554
Ba1 O16 3.005662 1_555
Ba1 O17 3.005662 1_555
Ba1 O18 3.005662 1_555
Ba1 O19 3.005662 1_555
Ba1 O14 3.030854 1_555
Ba1 O15 3.030854 1_555
Ba1 O12 3.030854 1_555
Ba1 O13 3.030854 1_555
Ba1 O21 3.035849 1_555
Ba1 O22 3.035849 1_555
Ba1 O20 3.035849 1_555
Ba1 O23 3.035849 1_555
Ba2 O15 2.681383 1_554
Ba2 O14 2.681383 1_554
Ba2 O12 2.681383 1_555
Ba2 O13 2.681383 1_555
Ba2 O9 3.047801 1_555
Ba2 O8 3.047801 1_554
Ba2 O10 3.047801 1_555
Ba2 O11 3.047801 1_554
Ba3 O2 2.681383 1_555
Ba3 O3 2.681383 1_445
Ba3 O1 2.681383 1_545
Ba3 O0 2.681383 1_455
Ba3 O21 3.047801 1_455
Ba3 O23 3.047801 1_445
Ba3 O20 3.047801 1_555
Ba3 O22 3.047801 1_545
In0 O12 2.169494 1_555
In0 O0 2.169494 1_455
In0 O20 2.186545 1_555
In0 O8 2.186545 1_554
In0 O16 2.196271 1_555
In0 O4 2.196271 1_545
In1 O1 2.169494 1_655
In1 O13 2.169494 1_555
In1 O11 2.186545 1_554
In1 O23 2.186545 1_555
In1 O6 2.196271 1_565
In1 O18 2.196271 1_555
In2 O2 2.169494 1_655
In2 O14 2.169494 1_555
In2 O21 2.186545 1_555
In2 O9 2.186545 1_556
In2 O7 2.196271 1_545
In2 O19 2.196271 1_555
In3 O15 2.169494 1_555
In3 O3 2.169494 1_455
In3 O22 2.186545 1_555
In3 O10 2.186545 1_556
In3 O5 2.196271 1_565
In3 O17 2.196271 1_555
Bi0 O15 2.132727 1_555
Bi0 O3 2.132727 1_555
Bi0 O11 2.147379 1_555
Bi0 O23 2.147379 1_555
Bi0 O19 2.150951 1_555
Bi0 O7 2.150951 1_555
Bi1 O2 2.132727 1_555
Bi1 O14 2.132727 1_555
Bi1 O8 2.147379 1_555
Bi1 O20 2.147379 1_555
Bi1 O5 2.150951 1_555
Bi1 O17 2.150951 1_555
Bi2 O1 2.132727 1_555
Bi2 O13 2.132727 1_555
Bi2 O10 2.147379 1_555
Bi2 O22 2.147379 1_555
Bi2 O16 2.150951 1_555
Bi2 O4 2.150951 1_555
Bi3 O12 2.132727 1_555
Bi3 O0 2.132727 1_555
Bi3 O9 2.147379 1_555
Bi3 O21 2.147379 1_555
Bi3 O6 2.150951 1_555
Bi3 O18 2.150951 1_555
O0 Sr0 3.024084 1_655
O1 Sr0 3.024084 1_555
O2 Sr0 3.024084 1_555
O3 Sr0 3.024084 1_655
O4 Sr2 2.585197 1_565
O5 Sr2 2.585197 1_556
O6 Sr2 2.585197 1_555
O7 Sr2 2.585197 1_566
O8 Sr3 2.580519 1_556
O9 Sr3 2.580519 1_655
O10 Sr3 2.580519 1_555
O11 Sr3 2.580519 1_656
O12 Sr2 3.024084 1_555
O13 Sr2 3.024084 1_565
O14 Sr2 3.024084 1_556
O15 Sr2 3.024084 1_566
O16 Sr0 2.585197 1_555
O17 Sr0 2.585197 1_555
O18 Sr0 2.585197 1_655
O19 Sr0 2.585197 1_655
O20 Sr1 2.580519 1_555
O21 Sr1 2.580519 1_555
O22 Sr1 2.580519 1_565
O23 Sr1 2.580519 1_565
