# generated using pymatgen
data_KSm(MoO4)2
_symmetry_space_group_name_H-M   'P 1'
_cell_length_a   5.21420800
_cell_length_b   8.27916800
_cell_length_c   18.58038100
_cell_angle_alpha   90.00000000
_cell_angle_beta   90.00000000
_cell_angle_gamma   90.00000000
_symmetry_Int_Tables_number   1
_chemical_formula_structural   KSm(MoO4)2
_chemical_formula_sum   'K4 Sm4 Mo8 O32'
_cell_volume   802.10211618
_cell_formula_units_Z   4
loop_
 _symmetry_equiv_pos_site_id
 _symmetry_equiv_pos_as_xyz
  1  'x, y, z'
loop_
 _atom_site_type_symbol
 _atom_site_label
 _atom_site_symmetry_multiplicity
 _atom_site_fract_x
 _atom_site_fract_y
 _atom_site_fract_z
 _atom_site_occupancy
  K  K0  1  0.00000000  0.75000000  0.23006800  1
  K  K1  1  0.00000000  0.25000000  0.76993200  1
  K  K2  1  0.50000000  0.25000000  0.26993200  1
  K  K3  1  0.50000000  0.75000000  0.73006800  1
  Sm  Sm0  1  0.00000000  0.75000000  0.99350300  1
  Sm  Sm1  1  0.00000000  0.25000000  0.00649700  1
  Sm  Sm2  1  0.50000000  0.25000000  0.50649700  1
  Sm  Sm3  1  0.50000000  0.75000000  0.49350300  1
  Mo  Mo0  1  0.97684700  0.98379200  0.60144400  1
  Mo  Mo1  1  0.02315300  0.01620800  0.39855600  1
  Mo  Mo2  1  0.52315300  0.48379200  0.89855600  1
  Mo  Mo3  1  0.02315300  0.51620800  0.60144400  1
  Mo  Mo4  1  0.47684700  0.51620800  0.10144400  1
  Mo  Mo5  1  0.97684700  0.48379200  0.39855600  1
  Mo  Mo6  1  0.47684700  0.01620800  0.89855600  1
  Mo  Mo7  1  0.52315300  0.98379200  0.10144400  1
  O  O0  1  0.89769900  0.52462000  0.68905600  1
  O  O1  1  0.10230100  0.47538000  0.31094400  1
  O  O2  1  0.60230100  0.02462000  0.81094400  1
  O  O3  1  0.10230100  0.97538000  0.68905600  1
  O  O4  1  0.39769900  0.97538000  0.18905600  1
  O  O5  1  0.89769900  0.02462000  0.31094400  1
  O  O6  1  0.39769900  0.47538000  0.81094400  1
  O  O7  1  0.60230100  0.52462000  0.18905600  1
  O  O8  1  0.72633500  0.65906100  0.90004100  1
  O  O9  1  0.27366500  0.34093900  0.09995900  1
  O  O10  1  0.77366500  0.15906100  0.59995900  1
  O  O11  1  0.27366500  0.84093900  0.90004100  1
  O  O12  1  0.22633500  0.84093900  0.40004100  1
  O  O13  1  0.72633500  0.15906100  0.09995900  1
  O  O14  1  0.22633500  0.34093900  0.59995900  1
  O  O15  1  0.77366500  0.65906100  0.40004100  1
  O  O16  1  0.74655000  0.99702300  0.96428300  1
  O  O17  1  0.25345000  0.00297700  0.03571700  1
  O  O18  1  0.75345000  0.49702300  0.53571700  1
  O  O19  1  0.25345000  0.50297700  0.96428300  1
  O  O20  1  0.24655000  0.50297700  0.46428300  1
  O  O21  1  0.74655000  0.49702300  0.03571700  1
  O  O22  1  0.24655000  0.00297700  0.53571700  1
  O  O23  1  0.75345000  0.99702300  0.46428300  1
  O  O24  1  0.75853500  0.81320300  0.59318300  1
  O  O25  1  0.24146500  0.18679700  0.40681700  1
  O  O26  1  0.74146500  0.31320300  0.90681700  1
  O  O27  1  0.24146500  0.68679700  0.59318300  1
  O  O28  1  0.25853500  0.68679700  0.09318300  1
  O  O29  1  0.75853500  0.31320300  0.40681700  1
  O  O30  1  0.25853500  0.18679700  0.90681700  1
  O  O31  1  0.74146500  0.81320300  0.09318300  1
loop_
_geom_bond_atom_site_label_1
_geom_bond_atom_site_label_2
_geom_bond_distance
_geom_bond_site_symmetry_2
K0 O1 2.777055 1_555
K0 O5 2.777055 1_465
K0 O4 2.891824 1_555
K0 O7 2.891824 1_455
K0 O28 2.925717 1_555
K0 O31 2.925717 1_455
K1 O3 2.777055 1_545
K1 O0 2.777055 1_455
K1 O6 2.891824 1_555
K1 O2 2.891824 1_455
K1 O30 2.925717 1_555
K1 O26 2.925717 1_455
K2 O4 2.777055 1_545
K2 O7 2.777055 1_555
K2 O5 2.891824 1_555
K2 O1 2.891824 1_555
K2 O29 2.925717 1_555
K2 O25 2.925717 1_555
K3 O2 2.777055 1_565
K3 O6 2.777055 1_555
K3 O0 2.891824 1_555
K3 O3 2.891824 1_555
K3 O24 2.925717 1_555
K3 O27 2.925717 1_555
Mo0 O3 1.755761 1_655
Mo0 O10 1.796886 1_565
Mo0 O24 1.820448 1_555
Mo0 O22 1.869300 1_665
Mo1 O5 1.755761 1_455
Mo1 O12 1.796886 1_545
Mo1 O25 1.820448 1_555
Mo1 O23 1.869300 1_445
Mo2 O6 1.755761 1_555
Mo2 O8 1.796886 1_555
Mo2 O26 1.820448 1_555
Mo2 O19 1.869300 1_555
Mo3 O0 1.755761 1_455
Mo3 O14 1.796886 1_555
Mo3 O27 1.820448 1_555
Mo3 O18 1.869300 1_455
Mo4 O7 1.755761 1_555
Mo4 O9 1.796886 1_555
Mo4 O28 1.820448 1_555
Mo4 O21 1.869300 1_555
Mo5 O1 1.755761 1_655
Mo5 O15 1.796886 1_555
Mo5 O29 1.820448 1_555
Mo5 O20 1.869300 1_655
Mo6 O2 1.755761 1_555
Mo6 O11 1.796886 1_545
Mo6 O30 1.820448 1_555
Mo6 O16 1.869300 1_545
Mo7 O4 1.755761 1_555
Mo7 O13 1.796886 1_565
Mo7 O31 1.820448 1_555
Mo7 O17 1.869300 1_565
O8 Sm0 2.370374 1_655
O9 Sm1 2.370374 1_555
O10 Sm2 2.370374 1_555
O11 Sm0 2.370374 1_555
O12 Sm3 2.370374 1_555
O13 Sm1 2.370374 1_655
O14 Sm2 2.370374 1_555
O15 Sm3 2.370374 1_555
O16 Sm0 2.494764 1_655
O16 Sm1 2.597759 1_666
O17 Sm1 2.494764 1_555
O17 Sm0 2.597759 1_544
O18 Sm2 2.494764 1_555
O18 Sm3 2.597759 1_555
O19 Sm0 2.494764 1_555
O19 Sm1 2.597759 1_556
O20 Sm3 2.494764 1_555
O20 Sm2 2.597759 1_555
O21 Sm1 2.494764 1_655
O21 Sm0 2.597759 1_654
O22 Sm2 2.494764 1_555
O22 Sm3 2.597759 1_545
O23 Sm3 2.494764 1_555
O23 Sm2 2.597759 1_565
O24 Sm3 2.349747 1_555
O25 Sm2 2.349747 1_555
O26 Sm1 2.349747 1_656
O27 Sm3 2.349747 1_555
O28 Sm0 2.349747 1_554
O29 Sm2 2.349747 1_555
O30 Sm1 2.349747 1_556
O31 Sm0 2.349747 1_654
