# generated using pymatgen
data_LaZnCrSbO6
_symmetry_space_group_name_H-M   'P 1'
_cell_length_a   5.69818600
_cell_length_b   5.50495300
_cell_length_c   9.70566586
_cell_angle_alpha   55.36609687
_cell_angle_beta   90.00000000
_cell_angle_gamma   90.00000000
_symmetry_Int_Tables_number   1
_chemical_formula_structural   LaZnCrSbO6
_chemical_formula_sum   'La2 Zn2 Cr2 Sb2 O12'
_cell_volume   250.50129267
_cell_formula_units_Z   2
loop_
 _symmetry_equiv_pos_site_id
 _symmetry_equiv_pos_as_xyz
  1  'x, y, z'
loop_
 _atom_site_type_symbol
 _atom_site_label
 _atom_site_symmetry_multiplicity
 _atom_site_fract_x
 _atom_site_fract_y
 _atom_site_fract_z
 _atom_site_occupancy
  La  La0  1  0.19772700  0.73680700  0.25005300  1
  La  La1  1  0.80227300  0.73680700  0.75005300  1
  Zn  Zn0  1  0.73894400  0.25561200  0.24980500  1
  Zn  Zn1  1  0.26105600  0.25561200  0.74980500  1
  Cr  Cr0  1  0.25964500  0.99916300  0.49996600  1
  Cr  Cr1  1  0.74035500  0.99916300  0.99996600  1
  Sb  Sb0  1  0.26561700  0.49891300  0.00062800  1
  Sb  Sb1  1  0.73438300  0.49891300  0.50062800  1
  O  O0  1  0.69120400  0.15435400  0.75039100  1
  O  O1  1  0.45471400  0.74402500  0.05596700  1
  O  O2  1  0.45302100  0.35652400  0.44165800  1
  O  O3  1  0.93422700  0.62325300  0.06500700  1
  O  O4  1  0.93850400  0.24212000  0.43871500  1
  O  O5  1  0.21881900  0.88923400  0.74780900  1
  O  O6  1  0.30879600  0.15435400  0.25039100  1
  O  O7  1  0.54528600  0.74402500  0.55596700  1
  O  O8  1  0.54697900  0.35652400  0.94165800  1
  O  O9  1  0.06577300  0.62325300  0.56500700  1
  O  O10  1  0.06149600  0.24212000  0.93871500  1
  O  O11  1  0.78118100  0.88923400  0.24780900  1
loop_
_geom_bond_atom_site_label_1
_geom_bond_atom_site_label_2
_geom_bond_distance
_geom_bond_site_symmetry_2
La0 O2 2.351996 1_555
La0 O1 2.368397 1_555
La0 O6 2.385915 1_565
La0 O11 2.513477 1_455
La0 O3 2.673368 1_455
La0 O4 2.698658 1_455
La0 O10 2.813739 1_564
La0 O9 2.851030 1_555
La1 O8 2.351996 1_555
La1 O7 2.368397 1_555
La1 O0 2.385915 1_565
La1 O5 2.513477 1_655
La1 O9 2.673368 1_655
La1 O10 2.698658 1_655
La1 O4 2.813739 1_565
La1 O3 2.851030 1_556
Cr0 O7 2.012357 1_555
Cr0 O2 2.034471 1_565
Cr0 O6 2.079322 1_565
Cr0 O9 2.101508 1_555
Cr0 O5 2.133553 1_555
Cr0 O4 2.141747 1_465
Cr1 O1 2.012357 1_556
Cr1 O8 2.034471 1_565
Cr1 O0 2.079322 1_565
Cr1 O3 2.101508 1_556
Cr1 O11 2.133553 1_556
Cr1 O10 2.141747 1_665
O0 Sb1 2.075636 1_555
O0 Zn1 2.512938 1_555
O1 Sb0 2.023355 1_555
O2 Sb1 2.005579 1_555
O3 Zn0 2.103598 1_555
O3 Sb0 2.216044 1_655
O4 Zn0 2.122617 1_555
O4 Sb1 2.162833 1_555
O5 Zn1 2.042198 1_565
O5 Sb0 2.171652 1_556
O6 Sb0 2.075636 1_555
O6 Zn0 2.512938 1_555
O7 Sb1 2.023355 1_555
O8 Sb0 2.005579 1_556
O9 Zn1 2.103598 1_555
O9 Sb1 2.216044 1_455
O10 Zn1 2.122617 1_555
O10 Sb0 2.162833 1_556
O11 Zn0 2.042198 1_565
O11 Sb1 2.171652 1_555
