# generated using pymatgen
data_NaAlSe2
_symmetry_space_group_name_H-M   'P 1'
_cell_length_a   7.58192815
_cell_length_b   7.58192815
_cell_length_c   14.06922086
_cell_angle_alpha   82.11083417
_cell_angle_beta   82.11083417
_cell_angle_gamma   89.97172432
_symmetry_Int_Tables_number   1
_chemical_formula_structural   NaAlSe2
_chemical_formula_sum   'Na8 Al8 Se16'
_cell_volume   793.40233642
_cell_formula_units_Z   8
loop_
 _symmetry_equiv_pos_site_id
 _symmetry_equiv_pos_as_xyz
  1  'x, y, z'
loop_
 _atom_site_type_symbol
 _atom_site_label
 _atom_site_symmetry_multiplicity
 _atom_site_fract_x
 _atom_site_fract_y
 _atom_site_fract_z
 _atom_site_occupancy
  Na  Na0  1  0.22212598  0.84746222  0.12103747  1
  Na  Na1  1  0.15253778  0.77787402  0.37896253  1
  Na  Na2  1  0.77787402  0.15253778  0.87896253  1
  Na  Na3  1  0.84746222  0.22212598  0.62103747  1
  Na  Na4  1  0.65645475  0.78111623  0.37265339  1
  Na  Na5  1  0.21888377  0.34354525  0.12734661  1
  Na  Na6  1  0.34354525  0.21888377  0.62734661  1
  Na  Na7  1  0.78111623  0.65645475  0.87265339  1
  Al  Al0  1  0.71272456  0.09070105  0.15032005  1
  Al  Al1  1  0.90929895  0.28727544  0.34967995  1
  Al  Al2  1  0.28727544  0.90929895  0.84967995  1
  Al  Al3  1  0.09070105  0.71272456  0.65032005  1
  Al  Al4  1  0.41628993  0.28705806  0.35014021  1
  Al  Al5  1  0.71294194  0.58371007  0.14985979  1
  Al  Al6  1  0.58371007  0.71294194  0.64985979  1
  Al  Al7  1  0.28705806  0.41628993  0.85014021  1
  Se  Se0  1  0.94480885  0.05519115  0.25000000  1
  Se  Se1  1  0.05519115  0.94480885  0.75000000  1
  Se  Se2  1  0.43076354  0.56923646  0.25000000  1
  Se  Se3  1  0.56923646  0.43076354  0.75000000  1
  Se  Se4  1  0.73859773  0.86345727  0.04802884  1
  Se  Se5  1  0.13654273  0.26140227  0.45197116  1
  Se  Se6  1  0.26140227  0.13654273  0.95197116  1
  Se  Se7  1  0.86345727  0.73859773  0.54802884  1
  Se  Se8  1  0.43078986  0.05472471  0.25080118  1
  Se  Se9  1  0.94527529  0.56921014  0.24919882  1
  Se  Se10  1  0.56921014  0.94527529  0.74919882  1
  Se  Se11  1  0.05472471  0.43078986  0.75080118  1
  Se  Se12  1  0.63595850  0.26093756  0.45617337  1
  Se  Se13  1  0.73906244  0.36404150  0.04382663  1
  Se  Se14  1  0.36404150  0.73906244  0.54382663  1
  Se  Se15  1  0.26093756  0.63595850  0.95617337  1
loop_
_geom_bond_atom_site_label_1
_geom_bond_atom_site_label_2
_geom_bond_distance
_geom_bond_site_symmetry_2
Na0 Se15 2.978508 1_554
Na0 Se6 2.987562 1_564
Na0 Se8 3.144585 1_565
Na0 Se0 3.150793 1_465
Na0 Se2 3.158835 1_555
Na0 Se9 3.166895 1_455
Na1 Se14 2.978508 1_555
Na1 Se7 2.987562 1_455
Na1 Se9 3.144585 1_455
Na1 Se0 3.150793 1_465
Na1 Se2 3.158835 1_555
Na1 Se8 3.166895 1_565
Na2 Se13 2.978508 1_556
Na2 Se4 2.987562 1_546
Na2 Se10 3.144585 1_545
Na2 Se1 3.150793 1_645
Na2 Se3 3.158835 1_555
Na2 Se11 3.166895 1_655
Na3 Se12 2.978508 1_555
Na3 Se5 2.987562 1_655
Na3 Se11 3.144585 1_655
Na3 Se1 3.150793 1_645
Na3 Se3 3.158835 1_555
Na3 Se10 3.166895 1_545
Na4 Se14 3.023406 1_555
Na4 Se7 3.082116 1_555
Na4 Se8 3.161547 1_565
Na4 Se0 3.171787 1_565
Na4 Se2 3.171902 1_555
Na4 Se9 3.179932 1_555
Na5 Se15 3.023406 1_554
Na5 Se6 3.082116 1_554
Na5 Se9 3.161547 1_455
Na5 Se0 3.171787 1_455
Na5 Se2 3.171902 1_555
Na5 Se8 3.179932 1_555
Na6 Se12 3.023406 1_555
Na6 Se5 3.082116 1_555
Na6 Se10 3.161547 1_545
Na6 Se1 3.171787 1_545
Na6 Se3 3.171902 1_555
Na6 Se11 3.179932 1_555
Na7 Se13 3.023406 1_556
Na7 Se4 3.082116 1_556
Na7 Se11 3.161547 1_655
Na7 Se1 3.171787 1_655
Na7 Se3 3.171902 1_555
Na7 Se10 3.179932 1_555
Al0 Se13 2.376055 1_555
Al0 Se4 2.383495 1_545
Al0 Se8 2.389028 1_555
Al0 Se0 2.389339 1_555
Al1 Se12 2.376055 1_555
Al1 Se5 2.383495 1_655
Al1 Se9 2.389028 1_555
Al1 Se0 2.389339 1_555
Al2 Se15 2.376055 1_555
Al2 Se6 2.383495 1_565
Al2 Se10 2.389028 1_555
Al2 Se1 2.389339 1_555
Al3 Se14 2.376055 1_555
Al3 Se7 2.383495 1_455
Al3 Se11 2.389028 1_555
Al3 Se1 2.389339 1_555
Al4 Se12 2.374713 1_555
Al4 Se5 2.383040 1_555
Al4 Se8 2.387868 1_555
Al4 Se2 2.388437 1_555
Al5 Se13 2.374713 1_555
Al5 Se4 2.383040 1_555
Al5 Se9 2.387868 1_555
Al5 Se2 2.388437 1_555
Al6 Se14 2.374713 1_555
Al6 Se7 2.383040 1_555
Al6 Se10 2.387868 1_555
Al6 Se3 2.388437 1_555
Al7 Se15 2.374713 1_555
Al7 Se6 2.383040 1_555
Al7 Se11 2.387868 1_555
Al7 Se3 2.388437 1_555
