# generated using pymatgen
data_CsPSO2
_symmetry_space_group_name_H-M   'P 1'
_cell_length_a   8.53639600
_cell_length_b   13.21681300
_cell_length_c   13.66097736
_cell_angle_alpha   88.54438309
_cell_angle_beta   90.00000000
_cell_angle_gamma   90.00000000
_symmetry_Int_Tables_number   1
_chemical_formula_structural   CsPSO2
_chemical_formula_sum   'Cs12 P12 S12 O24'
_cell_volume   1540.78805292
_cell_formula_units_Z   12
loop_
 _symmetry_equiv_pos_site_id
 _symmetry_equiv_pos_as_xyz
  1  'x, y, z'
loop_
 _atom_site_type_symbol
 _atom_site_label
 _atom_site_symmetry_multiplicity
 _atom_site_fract_x
 _atom_site_fract_y
 _atom_site_fract_z
 _atom_site_occupancy
  Cs  Cs0  1  0.27796800  0.83697800  0.03365300  1
  Cs  Cs1  1  0.77796800  0.66302200  0.96634700  1
  Cs  Cs2  1  0.72203200  0.16302200  0.96634700  1
  Cs  Cs3  1  0.22203200  0.33697800  0.03365300  1
  Cs  Cs4  1  0.78868400  0.18155800  0.57606500  1
  Cs  Cs5  1  0.28868400  0.31844200  0.42393500  1
  Cs  Cs6  1  0.21131600  0.81844200  0.42393500  1
  Cs  Cs7  1  0.71131600  0.68155800  0.57606500  1
  Cs  Cs8  1  0.49888300  0.40178700  0.74469700  1
  Cs  Cs9  1  0.99888300  0.09821300  0.25530300  1
  Cs  Cs10  1  0.50111700  0.59821300  0.25530300  1
  Cs  Cs11  1  0.00111700  0.90178700  0.74469700  1
  P  P0  1  0.30901200  0.12040400  0.85064500  1
  P  P1  1  0.80901200  0.37959600  0.14935500  1
  P  P2  1  0.69098800  0.87959600  0.14935500  1
  P  P3  1  0.19098800  0.62040400  0.85064500  1
  P  P4  1  0.54759600  0.98240200  0.76052900  1
  P  P5  1  0.04759600  0.51759800  0.23947100  1
  P  P6  1  0.45240400  0.01759800  0.23947100  1
  P  P7  1  0.95240400  0.48240200  0.76052900  1
  P  P8  1  0.83362600  0.39022500  0.36457100  1
  P  P9  1  0.33362600  0.10977500  0.63542900  1
  P  P10  1  0.16637400  0.60977500  0.63542900  1
  P  P11  1  0.66637400  0.89022500  0.36457100  1
  S  S0  1  0.36104300  0.58017800  0.94062500  1
  S  S1  1  0.86104300  0.91982200  0.05937500  1
  S  S2  1  0.63895700  0.41982200  0.05937500  1
  S  S3  1  0.13895700  0.08017800  0.94062500  1
  S  S4  1  0.67846300  0.43226700  0.46239900  1
  S  S5  1  0.17846300  0.06773300  0.53760100  1
  S  S6  1  0.32153700  0.56773300  0.53760100  1
  S  S7  1  0.82153700  0.93226700  0.46239900  1
  S  S8  1  0.55007200  0.83437400  0.77592100  1
  S  S9  1  0.05007200  0.66562600  0.22407900  1
  S  S10  1  0.44992800  0.16562600  0.22407900  1
  S  S11  1  0.94992800  0.33437400  0.77592100  1
  O  O0  1  0.76245800  0.88078300  0.26076400  1
  O  O1  1  0.26245800  0.61921700  0.73923600  1
  O  O2  1  0.23754200  0.11921700  0.73923600  1
  O  O3  1  0.73754200  0.38078300  0.26076400  1
  O  O4  1  0.56819400  0.97521100  0.15263900  1
  O  O5  1  0.06819400  0.52478900  0.84736100  1
  O  O6  1  0.43180600  0.02478900  0.84736100  1
  O  O7  1  0.93180600  0.47521100  0.15263900  1
  O  O8  1  0.39820800  0.21638700  0.86814600  1
  O  O9  1  0.89820800  0.28361300  0.13185400  1
  O  O10  1  0.60179200  0.78361300  0.13185400  1
  O  O11  1  0.10179200  0.71638700  0.86814600  1
  O  O12  1  0.55532700  0.98816300  0.33820400  1
  O  O13  1  0.05532700  0.51183700  0.66179600  1
  O  O14  1  0.44467300  0.01183700  0.66179600  1
  O  O15  1  0.94467300  0.48816300  0.33820400  1
  O  O16  1  0.69756200  0.04168400  0.75962100  1
  O  O17  1  0.19756200  0.45831600  0.24037900  1
  O  O18  1  0.30243800  0.95831600  0.24037900  1
  O  O19  1  0.80243800  0.54168400  0.75962100  1
  O  O20  1  0.93076500  0.29723800  0.38509000  1
  O  O21  1  0.43076500  0.20276200  0.61491000  1
  O  O22  1  0.06923500  0.70276200  0.61491000  1
  O  O23  1  0.56923500  0.79723800  0.38509000  1
loop_
_geom_bond_atom_site_label_1
_geom_bond_atom_site_label_2
_geom_bond_distance
_geom_bond_site_symmetry_2
Cs0 O10 3.144897 1_555
Cs0 O11 3.177605 1_554
Cs0 O18 3.289531 1_555
Cs0 O4 3.502695 1_555
Cs0 S3 3.625960 1_564
Cs0 S0 3.722483 1_554
Cs0 S1 3.742812 1_455
Cs0 O6 3.747253 1_564
Cs0 S9 3.921939 1_555
Cs1 O11 3.144897 1_655
Cs1 O10 3.177605 1_556
Cs1 O19 3.289531 1_555
Cs1 O5 3.502695 1_655
Cs1 S2 3.625960 1_556
Cs1 S1 3.722483 1_556
Cs1 S0 3.742812 1_555
Cs1 O7 3.747253 1_556
Cs1 S8 3.921939 1_555
Cs2 O8 3.144897 1_555
Cs2 O9 3.177605 1_556
Cs2 O16 3.289531 1_555
Cs2 O6 3.502695 1_555
Cs2 S1 3.625960 1_546
Cs2 S2 3.722483 1_556
Cs2 S3 3.742812 1_655
Cs2 O4 3.747253 1_546
Cs2 S11 3.921939 1_555
Cs3 O9 3.144897 1_455
Cs3 O8 3.177605 1_554
Cs3 O17 3.289531 1_555
Cs3 O7 3.502695 1_455
Cs3 S0 3.625960 1_554
Cs3 S3 3.722483 1_554
Cs3 S2 3.742812 1_555
Cs3 O5 3.747253 1_554
Cs3 S10 3.921939 1_555
Cs4 O21 3.114930 1_555
Cs4 O16 3.174117 1_555
Cs4 O20 3.226819 1_555
Cs4 S7 3.688584 1_545
Cs4 S5 3.694655 1_655
Cs4 S11 3.702465 1_555
Cs4 S4 3.743634 1_555
Cs5 O20 3.114930 1_455
Cs5 O17 3.174117 1_555
Cs5 O21 3.226819 1_555
Cs5 S6 3.688584 1_555
Cs5 S4 3.694655 1_555
Cs5 S10 3.702465 1_555
Cs5 S5 3.743634 1_555
Cs6 O23 3.114930 1_555
Cs6 O18 3.174117 1_555
Cs6 O22 3.226819 1_555
Cs6 S5 3.688584 1_565
Cs6 S7 3.694655 1_455
Cs6 S9 3.702465 1_555
Cs6 S6 3.743634 1_555
Cs7 O22 3.114930 1_655
Cs7 O19 3.174117 1_555
Cs7 O23 3.226819 1_555
Cs7 S4 3.688584 1_555
Cs7 S6 3.694655 1_555
Cs7 S8 3.702465 1_555
Cs7 S7 3.743634 1_555
Cs8 O8 3.062210 1_555
Cs8 O19 3.192828 1_555
Cs8 O21 3.261605 1_555
Cs8 O1 3.510870 1_555
Cs9 O9 3.062210 1_555
Cs9 O18 3.192828 1_645
Cs9 O20 3.261605 1_555
Cs9 O0 3.510870 1_545
Cs10 O10 3.062210 1_555
Cs10 O17 3.192828 1_555
Cs10 O23 3.261605 1_555
Cs10 O3 3.510870 1_555
Cs11 O11 3.062210 1_555
Cs11 O16 3.192828 1_465
Cs11 O22 3.261605 1_555
Cs11 O2 3.510870 1_565
P0 S3 1.966656 1_555
P1 S2 1.966656 1_555
P2 S1 1.966656 1_555
P3 S0 1.966656 1_555
P4 S8 1.962521 1_555
P5 S9 1.962521 1_555
P6 S10 1.962521 1_555
P7 S11 1.962521 1_555
P8 S4 1.971525 1_555
P9 S5 1.971525 1_555
P10 S6 1.971525 1_555
P11 S7 1.971525 1_555
O0 P2 1.640130 1_555
O0 P11 1.645701 1_555
O1 P3 1.640130 1_555
O1 P10 1.645701 1_555
O2 P0 1.640130 1_555
O2 P9 1.645701 1_555
O3 P1 1.640130 1_555
O3 P8 1.645701 1_555
O4 P2 1.643368 1_555
O4 P6 1.652784 1_565
O5 P3 1.643368 1_555
O5 P7 1.652784 1_455
O6 P0 1.643368 1_555
O6 P4 1.652784 1_545
O7 P1 1.643368 1_555
O7 P5 1.652784 1_655
O8 P0 1.503874 1_555
O9 P1 1.503874 1_555
O10 P2 1.503874 1_555
O11 P3 1.503874 1_555
O12 P11 1.637129 1_555
O12 P6 1.647982 1_565
O13 P10 1.637129 1_555
O13 P7 1.647982 1_455
O14 P9 1.637129 1_555
O14 P4 1.647982 1_545
O15 P8 1.637129 1_555
O15 P5 1.647982 1_655
O16 P4 1.500798 1_545
O17 P5 1.500798 1_555
O18 P6 1.500798 1_565
O19 P7 1.500798 1_555
O20 P8 1.503028 1_555
O21 P9 1.503028 1_555
O22 P10 1.503028 1_555
O23 P11 1.503028 1_555
