# generated using pymatgen
data_Na3Pr(AsO4)2
_symmetry_space_group_name_H-M   'P 1'
_cell_length_a   5.95674569
_cell_length_b   5.95674569
_cell_length_c   7.40879700
_cell_angle_alpha   90.00000000
_cell_angle_beta   90.00000000
_cell_angle_gamma   119.99999654
_symmetry_Int_Tables_number   1
_chemical_formula_structural   Na3Pr(AsO4)2
_chemical_formula_sum   'Na3 Pr1 As2 O8'
_cell_volume   227.66510003
_cell_formula_units_Z   1
loop_
 _symmetry_equiv_pos_site_id
 _symmetry_equiv_pos_as_xyz
  1  'x, y, z'
loop_
 _atom_site_type_symbol
 _atom_site_label
 _atom_site_symmetry_multiplicity
 _atom_site_fract_x
 _atom_site_fract_y
 _atom_site_fract_z
 _atom_site_occupancy
  Na  Na0  1  0.33333300  0.66666700  0.70087100  1
  Na  Na1  1  0.66666700  0.33333300  0.29912900  1
  Na  Na2  1  0.00000000  0.00000000  0.00000000  1
  Pr  Pr0  1  0.00000000  0.00000000  0.50000000  1
  As  As0  1  0.33333300  0.66666700  0.21437500  1
  As  As1  1  0.66666700  0.33333300  0.78562500  1
  O  O0  1  0.33333300  0.66666700  0.98921100  1
  O  O1  1  0.66666700  0.33333300  0.01078900  1
  O  O2  1  0.17851700  0.82148300  0.30520700  1
  O  O3  1  0.82148300  0.17851700  0.69479300  1
  O  O4  1  0.17851700  0.35703400  0.30520700  1
  O  O5  1  0.82148300  0.64296600  0.69479300  1
  O  O6  1  0.64296600  0.82148300  0.30520700  1
  O  O7  1  0.35703400  0.17851700  0.69479300  1
loop_
_geom_bond_atom_site_label_1
_geom_bond_atom_site_label_2
_geom_bond_distance
_geom_bond_site_symmetry_2
Na0 O0 2.136253 1_555
Na1 O1 2.136253 1_555
Na2 O3 2.916408 1_454
Na2 O2 2.916408 1_545
Na2 O6 2.916408 1_445
Na2 O7 2.916408 1_554
Na2 O4 2.916408 1_555
Na2 O5 2.916408 1_444
As0 O0 1.668194 1_554
As0 O2 1.733270 1_555
As0 O4 1.733275 1_555
As0 O6 1.733275 1_555
As1 O1 1.668194 1_556
As1 O3 1.733270 1_555
As1 O7 1.733275 1_555
As1 O5 1.733275 1_555
O2 Pr0 2.339895 1_565
O3 Pr0 2.339895 1_655
O4 Pr0 2.339895 1_555
O5 Pr0 2.339895 1_665
O6 Pr0 2.339895 1_665
O7 Pr0 2.339895 1_555
