# generated using pymatgen
data_Li7Mn5O12
_symmetry_space_group_name_H-M   'P 1'
_cell_length_a   5.17011686
_cell_length_b   6.00771992
_cell_length_c   15.07946764
_cell_angle_alpha   95.60945242
_cell_angle_beta   95.74753891
_cell_angle_gamma   106.94414531
_symmetry_Int_Tables_number   1
_chemical_formula_structural   Li7Mn5O12
_chemical_formula_sum   'Li14 Mn10 O24'
_cell_volume   441.81031690
_cell_formula_units_Z   2
loop_
 _symmetry_equiv_pos_site_id
 _symmetry_equiv_pos_as_xyz
  1  'x, y, z'
loop_
 _atom_site_type_symbol
 _atom_site_label
 _atom_site_symmetry_multiplicity
 _atom_site_fract_x
 _atom_site_fract_y
 _atom_site_fract_z
 _atom_site_occupancy
  Li  Li0  1  0.33519300  0.16927100  0.33421100  1
  Li  Li1  1  0.83144700  0.65590900  0.83462600  1
  Li  Li2  1  0.57478400  0.17017000  0.08434600  1
  Li  Li3  1  0.07725900  0.65926000  0.58265100  1
  Li  Li4  1  0.57930000  0.65989400  0.08079500  1
  Li  Li5  1  0.08088500  0.16931200  0.58203400  1
  Li  Li6  1  0.76424200  0.01460200  0.25634700  1
  Li  Li7  1  0.26326900  0.51074400  0.75566900  1
  Li  Li8  1  0.92369500  0.33430700  0.41771600  1
  Li  Li9  1  0.41869600  0.82094500  0.91542400  1
  Li  Li10  1  0.91358800  0.82751500  0.41024500  1
  Li  Li11  1  0.41985700  0.33658700  0.91121400  1
  Li  Li12  1  0.74790000  0.50034300  0.25355700  1
  Li  Li13  1  0.25194400  0.99382500  0.75308100  1
  Mn  Mn0  1  0.83631200  0.15537400  0.83266800  1
  Mn  Mn1  1  0.32732000  0.66490200  0.33359200  1
  Mn  Mn2  1  0.49545700  0.49760600  0.49931200  1
  Mn  Mn3  1  0.98986800  0.99491600  0.99693200  1
  Mn  Mn4  1  0.17362900  0.84810200  0.16803300  1
  Mn  Mn5  1  0.68208600  0.33664400  0.66881800  1
  Mn  Mn6  1  0.49984900  0.00278500  0.49791600  1
  Mn  Mn7  1  0.99536600  0.50090900  0.99722800  1
  Mn  Mn8  1  0.16813300  0.34111200  0.16810000  1
  Mn  Mn9  1  0.66808200  0.82836200  0.66857600  1
  O  O0  1  0.27166000  0.35750100  0.04832300  1
  O  O1  1  0.75464900  0.82594100  0.54361900  1
  O  O2  1  0.91724600  0.51779100  0.12595500  1
  O  O3  1  0.41759200  0.00555300  0.62502100  1
  O  O4  1  0.41750000  0.17209300  0.20238400  1
  O  O5  1  0.92130400  0.66552700  0.70266600  1
  O  O6  1  0.24703000  0.17821800  0.46715600  1
  O  O7  1  0.72145200  0.64360500  0.96291200  1
  O  O8  1  0.60088600  0.97260000  0.37560200  1
  O  O9  1  0.10157700  0.46426200  0.87333000  1
  O  O10  1  0.05678200  0.35549600  0.28687600  1
  O  O11  1  0.56153900  0.84611900  0.78675800  1
  O  O12  1  0.27200000  0.85716000  0.04427900  1
  O  O13  1  0.80029700  0.33706300  0.55027600  1
  O  O14  1  0.88999500  0.04154200  0.12310300  1
  O  O15  1  0.39359100  0.53021200  0.62540100  1
  O  O16  1  0.44545300  0.64501300  0.21352600  1
  O  O17  1  0.94715300  0.13342200  0.71264600  1
  O  O18  1  0.19442200  0.66325200  0.44668800  1
  O  O19  1  0.71688500  0.14057300  0.94925700  1
  O  O20  1  0.58898900  0.51190200  0.37839200  1
  O  O21  1  0.09917700  0.00551000  0.87753400  1
  O  O22  1  0.07066100  0.82517600  0.28719700  1
  O  O23  1  0.57400000  0.31107600  0.78800600  1
loop_
_geom_bond_atom_site_label_1
_geom_bond_atom_site_label_2
_geom_bond_distance
_geom_bond_site_symmetry_2
Li0 O4 2.074814 1_555
Li0 O20 2.094090 1_555
Li0 O6 2.099017 1_555
Li0 O22 2.125527 1_545
Li0 O8 2.142674 1_545
Li0 O10 2.173039 1_555
Li1 O7 2.072413 1_555
Li1 O5 2.090646 1_555
Li1 O23 2.116187 1_555
Li1 O9 2.126533 1_655
Li1 O21 2.146231 1_665
Li1 O11 2.159429 1_555
Li2 O4 2.030018 1_555
Li2 O12 2.055335 1_545
Li2 O14 2.055760 1_555
Li2 O0 2.234907 1_555
Li2 O19 2.241899 1_554
Li2 O2 2.292614 1_555
Li3 O13 2.023666 1_455
Li3 O5 2.055098 1_455
Li3 O15 2.077742 1_555
Li3 O18 2.195659 1_555
Li3 O1 2.241272 1_455
Li3 O3 2.283359 1_565
Li4 O7 1.994795 1_554
Li4 O0 2.013904 1_555
Li4 O16 2.183862 1_555
Li4 O2 2.233861 1_555
Li4 O12 2.298211 1_555
Li4 O14 2.367786 1_565
Li5 O6 2.007723 1_555
Li5 O13 2.038829 1_455
Li5 O17 2.161615 1_455
Li5 O1 2.231261 1_445
Li5 O15 2.282616 1_555
Li5 O3 2.305525 1_555
Li6 O8 2.068708 1_545
Li6 O10 2.136473 1_655
Li6 O14 2.179418 1_555
Li6 O22 2.242320 1_645
Li6 O16 2.331740 1_545
Li6 O4 2.370264 1_555
Li7 O9 2.045166 1_555
Li7 O11 2.125300 1_555
Li7 O15 2.142544 1_555
Li7 O23 2.310476 1_555
Li7 O5 2.334498 1_455
Li7 O17 2.360352 1_455
Li8 O18 2.037609 1_655
Li8 O10 2.156925 1_655
Li8 O13 2.158274 1_555
Li8 O6 2.242867 1_655
Li8 O8 2.305386 1_545
Li8 O20 2.340694 1_555
Li9 O19 2.061492 1_565
Li9 O11 2.147549 1_555
Li9 O12 2.169508 1_556
Li9 O7 2.234881 1_555
Li9 O9 2.271706 1_555
Li9 O21 2.299420 1_565
Li10 O18 2.040928 1_655
Li10 O8 2.094662 1_555
Li10 O22 2.099026 1_655
Li10 O20 2.109051 1_555
Li10 O1 2.247332 1_555
Li10 O6 2.319620 1_665
Li11 O7 2.059182 1_555
Li11 O9 2.062909 1_555
Li11 O23 2.102978 1_555
Li11 O21 2.162093 1_555
Li11 O19 2.254730 1_555
Li11 O0 2.280382 1_556
Li12 O16 2.066538 1_555
Li12 O10 2.072374 1_655
Li12 O20 2.130938 1_555
Li12 O22 2.142214 1_655
Li12 O2 2.191655 1_555
Li12 O4 2.208469 1_555
Li13 O17 2.058185 1_465
Li13 O11 2.088200 1_555
Li13 O21 2.110483 1_565
Li13 O23 2.112064 1_565
Li13 O3 2.188640 1_565
Li13 O5 2.207164 1_455
Mn0 O19 1.922512 1_555
Mn0 O21 1.939967 1_655
Mn0 O9 1.956069 1_655
Mn0 O17 1.956154 1_555
Mn0 O23 1.961495 1_555
Mn0 O11 1.990576 1_545
Mn1 O18 1.901242 1_555
Mn1 O20 1.947991 1_555
Mn1 O22 1.966700 1_555
Mn1 O8 1.971440 1_555
Mn1 O16 1.971562 1_555
Mn1 O10 1.984710 1_555
Mn2 O20 1.936247 1_555
Mn2 O6 1.955361 1_555
Mn2 O15 2.029477 1_555
Mn2 O1 2.038472 1_555
Mn2 O13 2.189331 1_555
Mn2 O18 2.202766 1_555
Mn3 O21 1.941731 1_665
Mn3 O19 1.978416 1_565
Mn3 O12 1.983157 1_656
Mn3 O14 2.035148 1_566
Mn3 O7 2.140576 1_555
Mn3 O0 2.249928 1_666
Mn4 O22 1.930952 1_555
Mn4 O4 1.971877 1_565
Mn4 O12 1.984424 1_555
Mn4 O2 2.037088 1_455
Mn4 O16 2.214562 1_555
Mn4 O14 2.215454 1_465
Mn5 O23 1.941965 1_555
Mn5 O13 1.946192 1_555
Mn5 O5 1.986486 1_555
Mn5 O3 2.059008 1_555
Mn5 O17 2.181065 1_555
Mn5 O15 2.229346 1_555
Mn6 O6 1.952335 1_555
Mn6 O8 1.972431 1_545
Mn6 O3 2.003980 1_555
Mn6 O1 2.028845 1_545
Mn6 O13 2.166896 1_555
Mn6 O18 2.195741 1_545
Mn7 O7 1.912019 1_555
Mn7 O0 2.000785 1_656
Mn7 O9 2.009018 1_655
Mn7 O2 2.020850 1_556
Mn7 O12 2.201208 1_656
Mn7 O19 2.225110 1_555
Mn8 O4 1.921646 1_555
Mn8 O10 1.937040 1_555
Mn8 O0 1.938072 1_555
Mn8 O14 1.955667 1_455
Mn8 O16 1.972636 1_555
Mn8 O2 1.995577 1_455
Mn9 O5 1.909257 1_555
Mn9 O11 1.919496 1_555
Mn9 O15 1.936894 1_555
Mn9 O17 1.977570 1_565
Mn9 O1 1.979495 1_555
Mn9 O3 2.002905 1_565
