# generated using pymatgen
data_KHfMg14O15
_symmetry_space_group_name_H-M   'P 1'
_cell_length_a   8.65199341
_cell_length_b   8.84995255
_cell_length_c   4.41394248
_cell_angle_alpha   90.00000000
_cell_angle_beta   90.00000000
_cell_angle_gamma   90.00000000
_symmetry_Int_Tables_number   1
_chemical_formula_structural   KHfMg14O15
_chemical_formula_sum   'K1 Hf1 Mg14 O15'
_cell_volume   337.97438897
_cell_formula_units_Z   1
loop_
 _symmetry_equiv_pos_site_id
 _symmetry_equiv_pos_as_xyz
  1  'x, y, z'
loop_
 _atom_site_type_symbol
 _atom_site_label
 _atom_site_symmetry_multiplicity
 _atom_site_fract_x
 _atom_site_fract_y
 _atom_site_fract_z
 _atom_site_occupancy
  K  K0  1  0.02675991  0.00000000  -0.00000000  1
  Hf  Hf0  1  0.99662282  0.50000000  -0.00000000  1
  Mg  Mg0  1  0.49398051  0.00000000  -0.00000000  1
  Mg  Mg1  1  0.50492368  0.50000000  -0.00000000  1
  Mg  Mg2  1  0.99743956  0.23636828  0.50000000  1
  Mg  Mg3  1  0.99743956  0.76363172  0.50000000  1
  Mg  Mg4  1  0.50207666  0.24881861  0.50000000  1
  Mg  Mg5  1  0.50207666  0.75118139  0.50000000  1
  Mg  Mg6  1  0.26138039  0.00000000  0.50000000  1
  Mg  Mg7  1  0.25778609  0.50000000  0.50000000  1
  Mg  Mg8  1  0.74756799  0.00000000  0.50000000  1
  Mg  Mg9  1  0.74193156  0.50000000  0.50000000  1
  Mg  Mg10  1  0.26333289  0.25630162  -0.00000000  1
  Mg  Mg11  1  0.26333289  0.74369838  0.00000000  1
  Mg  Mg12  1  0.74306510  0.23844024  0.00000000  1
  Mg  Mg13  1  0.74306510  0.76155976  -0.00000000  1
  O  O0  1  0.25434450  0.50000000  -0.00000000  1
  O  O1  1  0.72699291  0.00000000  -0.00000000  1
  O  O2  1  0.74626423  0.50000000  -0.00000000  1
  O  O3  1  0.24799237  0.25505960  0.50000000  1
  O  O4  1  0.24799237  0.74494040  0.50000000  1
  O  O5  1  0.74975005  0.25130172  0.50000000  1
  O  O6  1  0.74975005  0.74869828  0.50000000  1
  O  O7  1  0.98735618  0.00000000  0.50000000  1
  O  O8  1  0.99714109  0.50000000  0.50000000  1
  O  O9  1  0.50234542  0.00000000  0.50000000  1
  O  O10  1  0.50048574  0.50000000  0.50000000  1
  O  O11  1  0.99529542  0.27109272  -0.00000000  1
  O  O12  1  0.99529542  0.72890728  -0.00000000  1
  O  O13  1  0.50310647  0.25966252  -0.00000000  1
  O  O14  1  0.50310647  0.74033748  -0.00000000  1
loop_
_geom_bond_atom_site_label_1
_geom_bond_atom_site_label_2
_geom_bond_distance
_geom_bond_site_symmetry_2
K0 O7 2.233148 1_454
K0 O7 2.233148 1_455
K0 O12 2.414553 1_445
K0 O11 2.414553 1_455
K0 O1 2.593582 1_455
Hf0 O11 2.025851 1_555
Hf0 O12 2.025851 1_555
Hf0 O2 2.166101 1_555
Hf0 O8 2.206976 1_555
Hf0 O8 2.206976 1_554
Hf0 O0 2.229806 1_655
Mg0 O1 2.016022 1_555
Mg0 O9 2.208158 1_554
Mg0 O9 2.208158 1_555
Mg0 O13 2.299357 1_555
Mg0 O14 2.299357 1_545
Mg1 O2 2.088077 1_555
Mg1 O14 2.127033 1_555
Mg1 O13 2.127033 1_555
Mg1 O0 2.168009 1_555
Mg1 O10 2.207305 1_555
Mg1 O10 2.207305 1_554
Mg2 O7 2.093666 1_555
Mg2 O5 2.147079 1_555
Mg2 O3 2.174083 1_655
Mg2 O11 2.228341 1_556
Mg2 O11 2.228341 1_555
Mg2 O8 2.333130 1_555
Mg3 O7 2.093666 1_565
Mg3 O6 2.147079 1_555
Mg3 O4 2.174083 1_655
Mg3 O12 2.228341 1_555
Mg3 O12 2.228341 1_556
Mg3 O8 2.333130 1_555
Mg4 O5 2.142981 1_555
Mg4 O3 2.199029 1_555
Mg4 O9 2.202034 1_555
Mg4 O13 2.209075 1_555
Mg4 O13 2.209075 1_556
Mg4 O10 2.222986 1_555
Mg5 O6 2.142981 1_555
Mg5 O4 2.199029 1_555
Mg5 O9 2.202034 1_565
Mg5 O14 2.209075 1_556
Mg5 O14 2.209075 1_555
Mg5 O10 2.222986 1_555
Mg6 O9 2.084828 1_555
Mg6 O3 2.260235 1_555
Mg6 O4 2.260235 1_545
Mg6 O7 2.370856 1_455
Mg7 O10 2.099836 1_555
Mg7 O4 2.169366 1_555
Mg7 O3 2.169366 1_555
Mg7 O0 2.207172 1_555
Mg7 O0 2.207172 1_556
Mg7 O8 2.255099 1_455
Mg8 O7 2.074646 1_555
Mg8 O9 2.121664 1_555
Mg8 O1 2.214139 1_555
Mg8 O1 2.214139 1_556
Mg8 O6 2.224088 1_545
Mg8 O5 2.224088 1_555
Mg9 O10 2.088988 1_555
Mg9 O5 2.202007 1_555
Mg9 O6 2.202007 1_555
Mg9 O2 2.207290 1_555
Mg9 O2 2.207290 1_556
Mg9 O8 2.208071 1_555
Mg10 O13 2.074733 1_555
Mg10 O0 2.158121 1_555
Mg10 O3 2.210986 1_554
Mg10 O3 2.210986 1_555
Mg10 O11 2.322750 1_455
Mg11 O14 2.074733 1_555
Mg11 O0 2.158121 1_555
Mg11 O4 2.210986 1_554
Mg11 O4 2.210986 1_555
Mg11 O12 2.322750 1_455
Mg12 O13 2.084599 1_555
Mg12 O1 2.114762 1_555
Mg12 O11 2.201344 1_555
Mg12 O5 2.210661 1_554
Mg12 O5 2.210661 1_555
Mg12 O2 2.314957 1_555
Mg13 O14 2.084599 1_555
Mg13 O1 2.114762 1_565
Mg13 O12 2.201344 1_555
Mg13 O6 2.210661 1_555
Mg13 O6 2.210661 1_554
Mg13 O2 2.314957 1_555
