# generated using pymatgen
data_InGa(CuSe2)2
_symmetry_space_group_name_H-M   'P 1'
_cell_length_a   7.03184758
_cell_length_b   7.03184758
_cell_length_c   7.03184758
_cell_angle_alpha   131.59443092
_cell_angle_beta   131.59443092
_cell_angle_gamma   70.87033835
_symmetry_Int_Tables_number   1
_chemical_formula_structural   InGa(CuSe2)2
_chemical_formula_sum   'In1 Ga1 Cu2 Se4'
_cell_volume   190.45967352
_cell_formula_units_Z   1
loop_
 _symmetry_equiv_pos_site_id
 _symmetry_equiv_pos_as_xyz
  1  'x, y, z'
loop_
 _atom_site_type_symbol
 _atom_site_label
 _atom_site_symmetry_multiplicity
 _atom_site_fract_x
 _atom_site_fract_y
 _atom_site_fract_z
 _atom_site_occupancy
  In  In0  1  0.50000000  0.50000000  0.00000000  1
  Ga  Ga0  1  0.75000000  0.25000000  0.50000000  1
  Cu  Cu0  1  0.25000000  0.75000000  0.50000000  1
  Cu  Cu1  1  0.00000000  0.00000000  0.00000000  1
  Se  Se0  1  0.10387500  0.10087000  0.46750000  1
  Se  Se1  1  0.63337000  0.63637500  0.53250000  1
  Se  Se2  1  0.36362500  0.89612500  0.99699500  1
  Se  Se3  1  0.89913000  0.36663000  0.00300500  1
loop_
_geom_bond_atom_site_label_1
_geom_bond_atom_site_label_2
_geom_bond_distance
_geom_bond_site_symmetry_2
In0 Se2 2.641880 1_554
In0 Se1 2.641880 1_555
In0 Se0 2.641880 1_554
In0 Se3 2.641880 1_555
Ga0 Se3 2.463857 1_556
Ga0 Se0 2.463857 1_655
Ga0 Se1 2.463857 1_555
Ga0 Se2 2.463857 1_544
Cu0 Se3 2.443501 1_455
Cu0 Se0 2.443501 1_565
Cu0 Se1 2.443501 1_555
Cu0 Se2 2.443501 1_555
Cu1 Se1 2.428814 1_444
Cu1 Se2 2.428814 1_544
Cu1 Se3 2.428814 1_455
Cu1 Se0 2.428814 1_555
