# generated using pymatgen
data_K8MgMn4O16
_symmetry_space_group_name_H-M   'P 1'
_cell_length_a   6.32763938
_cell_length_b   8.03571296
_cell_length_c   11.70331904
_cell_angle_alpha   90.35140466
_cell_angle_beta   117.03006482
_cell_angle_gamma   92.35456946
_symmetry_Int_Tables_number   1
_chemical_formula_structural   K8MgMn4O16
_chemical_formula_sum   'K8 Mg1 Mn4 O16'
_cell_volume   529.42486386
_cell_formula_units_Z   1
loop_
 _symmetry_equiv_pos_site_id
 _symmetry_equiv_pos_as_xyz
  1  'x, y, z'
loop_
 _atom_site_type_symbol
 _atom_site_label
 _atom_site_symmetry_multiplicity
 _atom_site_fract_x
 _atom_site_fract_y
 _atom_site_fract_z
 _atom_site_occupancy
  K  K0  1  0.25312300  0.63690400  0.94915700  1
  K  K1  1  0.47826100  0.51736400  0.71576600  1
  K  K2  1  0.19507900  0.80460400  0.41675500  1
  K  K3  1  0.39052300  0.03666100  0.76326200  1
  K  K4  1  0.48431000  0.00423000  0.21627300  1
  K  K5  1  0.78432100  0.22368600  0.57559000  1
  K  K6  1  0.53230200  0.50884600  0.29299600  1
  K  K7  1  0.82459400  0.28795700  0.08999400  1
  Mg  Mg0  1  0.89477600  0.93757300  0.83437400  1
  Mn  Mn0  1  0.15583300  0.22196200  0.93226800  1
  Mn  Mn1  1  0.14184400  0.27144600  0.41850000  1
  Mn  Mn2  1  0.85095200  0.74687200  0.57880500  1
  Mn  Mn3  1  0.87140300  0.76326600  0.07465400  1
  O  O0  1  0.23262000  0.01186300  0.93831800  1
  O  O1  1  0.25875200  0.32950900  0.84322500  1
  O  O2  1  0.22820700  0.24122200  0.57402500  1
  O  O3  1  0.15281900  0.75341400  0.66161000  1
  O  O4  1  0.21386700  0.46494400  0.39774900  1
  O  O5  1  0.27998200  0.13821400  0.36946200  1
  O  O6  1  0.84424700  0.18158800  0.85213000  1
  O  O7  1  0.79202300  0.75477300  0.91041300  1
  O  O8  1  0.25024000  0.30893000  0.07956000  1
  O  O9  1  0.16422500  0.73184200  0.15608500  1
  O  O10  1  0.74566100  0.89385900  0.65012000  1
  O  O11  1  0.73915400  0.55585200  0.58527100  1
  O  O12  1  0.84575200  0.24388400  0.33864300  1
  O  O13  1  0.76246100  0.80061300  0.42490100  1
  O  O14  1  0.71541800  0.61162800  0.10495000  1
  O  O15  1  0.81308500  0.94982700  0.11070100  1
loop_
_geom_bond_atom_site_label_1
_geom_bond_atom_site_label_2
_geom_bond_distance
_geom_bond_site_symmetry_2
K0 O14 2.669880 1_556
K0 O1 2.765799 1_555
K0 O9 2.830912 1_556
K0 O7 2.940308 1_455
K0 O0 3.022138 1_565
K0 O8 3.057129 1_556
K0 O3 3.278787 1_555
K1 O3 2.718401 1_555
K1 O11 2.721898 1_555
K1 O2 2.731290 1_555
K1 O1 2.858615 1_555
K1 O7 2.880154 1_555
K2 O4 2.748916 1_555
K2 O13 2.780968 1_455
K2 O5 2.819886 1_565
K2 O9 3.018969 1_555
K2 O3 3.025620 1_555
K2 O10 3.351619 1_555
K3 O2 2.603409 1_555
K3 O3 2.630080 1_545
K3 O0 2.661679 1_555
K3 O6 2.770746 1_555
K3 O1 2.819962 1_555
K4 O12 2.760000 1_555
K4 O9 2.776586 1_545
K4 O13 2.848892 1_545
K4 O5 2.870985 1_555
K4 O0 2.902371 1_554
K4 O15 2.906886 1_545
K4 O8 2.990125 1_555
K5 O11 2.703239 1_555
K5 O2 2.814878 1_655
K5 O10 2.830950 1_545
K5 O12 2.974461 1_555
K5 O5 3.045945 1_555
K5 O6 3.105039 1_555
K5 O1 3.279803 1_655
K6 O13 2.762720 1_555
K6 O8 2.769256 1_555
K6 O4 2.807054 1_555
K6 O12 2.854900 1_555
K6 O9 2.861664 1_555
K6 O14 3.021503 1_555
K6 O11 3.070903 1_555
K7 O15 2.730313 1_545
K7 O14 2.743111 1_555
K7 O8 2.749410 1_655
K7 O12 2.876454 1_555
K7 O6 2.964759 1_554
Mg0 O10 1.943660 1_555
Mg0 O7 1.958543 1_555
Mg0 O0 1.982111 1_665
Mg0 O6 2.024151 1_565
Mn0 O8 1.682769 1_556
Mn0 O1 1.684810 1_555
Mn0 O0 1.768907 1_555
Mn0 O6 1.770623 1_455
Mn1 O4 1.652687 1_555
Mn1 O5 1.662806 1_555
Mn1 O2 1.668189 1_555
Mn1 O12 1.674692 1_455
Mn2 O11 1.680236 1_555
Mn2 O13 1.690272 1_555
Mn2 O3 1.702664 1_655
Mn2 O10 1.758852 1_555
Mn3 O15 1.655534 1_555
Mn3 O14 1.676088 1_555
Mn3 O9 1.685691 1_655
Mn3 O7 1.752057 1_554
