# generated using pymatgen
data_EuCdGe
_symmetry_space_group_name_H-M   'P 1'
_cell_length_a   4.54118816
_cell_length_b   7.60174153
_cell_length_c   8.47415982
_cell_angle_alpha   90.00009804
_cell_angle_beta   90.00000000
_cell_angle_gamma   90.00000000
_symmetry_Int_Tables_number   1
_chemical_formula_structural   EuCdGe
_chemical_formula_sum   'Eu4 Cd4 Ge4'
_cell_volume   292.53595110
_cell_formula_units_Z   4
loop_
 _symmetry_equiv_pos_site_id
 _symmetry_equiv_pos_as_xyz
  1  'x, y, z'
loop_
 _atom_site_type_symbol
 _atom_site_label
 _atom_site_symmetry_multiplicity
 _atom_site_fract_x
 _atom_site_fract_y
 _atom_site_fract_z
 _atom_site_occupancy
  Eu  Eu0  1  0.25000000  0.01545068  0.31147891  1
  Eu  Eu1  1  0.25000000  0.51545197  0.18852434  1
  Eu  Eu2  1  0.75000000  0.98452723  0.68851783  1
  Eu  Eu3  1  0.75000000  0.48452510  0.81147244  1
  Cd  Cd0  1  0.25000000  0.15431464  0.93255000  1
  Cd  Cd1  1  0.25000000  0.65430568  0.56744655  1
  Cd  Cd2  1  0.75000000  0.84573519  0.06737896  1
  Cd  Cd3  1  0.75000000  0.34573919  0.43263903  1
  Ge  Ge0  1  0.25000000  0.27060979  0.61020464  1
  Ge  Ge1  1  0.25000000  0.77061398  0.88978783  1
  Ge  Ge2  1  0.75000000  0.72936549  0.38984836  1
  Ge  Ge3  1  0.75000000  0.22935905  0.11015013  1
loop_
_geom_bond_atom_site_label_1
_geom_bond_atom_site_label_2
_geom_bond_distance
_geom_bond_site_symmetry_2
Eu0 Ge0 3.189118 1_555
Eu0 Ge2 3.213436 1_445
Eu0 Ge2 3.213436 1_545
Eu0 Ge3 3.272687 1_455
Eu0 Ge3 3.272687 1_555
Eu1 Ge1 3.189210 1_554
Eu1 Ge3 3.213482 1_455
Eu1 Ge3 3.213482 1_555
Eu1 Ge2 3.272683 1_455
Eu1 Ge2 3.272683 1_555
Eu2 Ge2 3.188752 1_555
Eu2 Ge0 3.213324 1_565
Eu2 Ge0 3.213324 1_665
Eu2 Ge1 3.272446 1_655
Eu2 Ge1 3.272446 1_555
Eu3 Ge3 3.188833 1_556
Eu3 Ge1 3.213359 1_655
Eu3 Ge1 3.213359 1_555
Eu3 Ge0 3.272441 1_555
Eu3 Ge0 3.272441 1_655
Cd0 Ge3 2.783180 1_556
Cd0 Ge3 2.783180 1_456
Cd0 Ge0 2.871100 1_555
Cd0 Ge1 2.939217 1_545
Cd0 Eu2 3.331356 1_445
Cd0 Eu2 3.331356 1_545
Cd0 Eu0 3.380164 1_556
Cd0 Eu1 3.498827 1_556
Cd0 Eu3 3.536852 1_455
Cd0 Eu3 3.536852 1_555
Cd1 Ge2 2.783196 1_455
Cd1 Ge2 2.783196 1_555
Cd1 Ge1 2.871095 1_555
Cd1 Ge0 2.939178 1_555
Cd1 Eu3 3.331306 1_555
Cd1 Eu3 3.331306 1_455
Cd1 Eu1 3.380082 1_555
Cd1 Eu0 3.498843 1_565
Cd1 Eu2 3.536894 1_555
Cd1 Eu2 3.536894 1_455
Cd2 Ge1 2.783258 1_654
Cd2 Ge1 2.783258 1_554
Cd2 Ge2 2.872275 1_555
Cd2 Ge3 2.938647 1_565
Cd2 Eu0 3.331501 1_665
Cd2 Eu0 3.331501 1_565
Cd2 Eu2 3.379448 1_554
Cd2 Eu3 3.498905 1_554
Cd2 Eu1 3.537411 1_555
Cd2 Eu1 3.537411 1_655
Cd3 Ge0 2.783155 1_555
Cd3 Ge0 2.783155 1_655
Cd3 Ge3 2.872454 1_555
Cd3 Ge2 2.938687 1_555
Cd3 Eu1 3.331573 1_655
Cd3 Eu1 3.331573 1_555
Cd3 Eu3 3.379207 1_555
Cd3 Eu2 3.498776 1_545
Cd3 Eu0 3.537474 1_555
Cd3 Eu0 3.537474 1_655
