# generated using pymatgen
data_TiZnSb(PO4)3
_symmetry_space_group_name_H-M   'P 1'
_cell_length_a   8.40961813
_cell_length_b   8.40961813
_cell_length_c   8.40961842
_cell_angle_alpha   63.81499783
_cell_angle_beta   63.81499783
_cell_angle_gamma   63.81499800
_symmetry_Int_Tables_number   1
_chemical_formula_structural   TiZnSb(PO4)3
_chemical_formula_sum   'Ti2 Zn2 Sb2 P6 O24'
_cell_volume   455.93445053
_cell_formula_units_Z   2
loop_
 _symmetry_equiv_pos_site_id
 _symmetry_equiv_pos_as_xyz
  1  'x, y, z'
loop_
 _atom_site_type_symbol
 _atom_site_label
 _atom_site_symmetry_multiplicity
 _atom_site_fract_x
 _atom_site_fract_y
 _atom_site_fract_z
 _atom_site_occupancy
  Ti  Ti0  1  0.84938700  0.84938700  0.84938700  1
  Ti  Ti1  1  0.34938700  0.34938700  0.34938700  1
  Zn  Zn0  1  0.00423800  0.00423800  0.00423800  1
  Zn  Zn1  1  0.50423800  0.50423800  0.50423800  1
  Sb  Sb0  1  0.66386700  0.66386700  0.66386700  1
  Sb  Sb1  1  0.16386700  0.16386700  0.16386700  1
  P  P0  1  0.24571200  0.93342900  0.56775000  1
  P  P1  1  0.93342900  0.56775000  0.24571200  1
  P  P2  1  0.56775000  0.24571200  0.93342900  1
  P  P3  1  0.43342900  0.74571200  0.06775000  1
  P  P4  1  0.06775000  0.43342900  0.74571200  1
  P  P5  1  0.74571200  0.06775000  0.43342900  1
  O  O0  1  0.67410400  0.93267800  0.43096300  1
  O  O1  1  0.43096300  0.67410400  0.93267800  1
  O  O2  1  0.09177800  0.92832700  0.76035400  1
  O  O3  1  0.93267800  0.43096300  0.67410400  1
  O  O4  1  0.17410400  0.93096300  0.43267800  1
  O  O5  1  0.41682000  0.75427600  0.58416900  1
  O  O6  1  0.92832700  0.76035400  0.09177800  1
  O  O7  1  0.75427600  0.58416900  0.41682000  1
  O  O8  1  0.61810200  0.79723100  0.99682000  1
  O  O9  1  0.58416900  0.41682000  0.75427600  1
  O  O10  1  0.25427600  0.91682000  0.08416900  1
  O  O11  1  0.99682000  0.61810200  0.79723100  1
  O  O12  1  0.93096300  0.43267800  0.17410400  1
  O  O13  1  0.76035400  0.09177800  0.92832700  1
  O  O14  1  0.42832700  0.59177800  0.26035400  1
  O  O15  1  0.43267800  0.17410400  0.93096300  1
  O  O16  1  0.26035400  0.42832700  0.59177800  1
  O  O17  1  0.08416900  0.25427600  0.91682000  1
  O  O18  1  0.59177800  0.26035400  0.42832700  1
  O  O19  1  0.79723100  0.99682000  0.61810200  1
  O  O20  1  0.11810200  0.49682000  0.29723100  1
  O  O21  1  0.91682000  0.08416900  0.25427600  1
  O  O22  1  0.49682000  0.29723100  0.11810200  1
  O  O23  1  0.29723100  0.11810200  0.49682000  1
loop_
_geom_bond_atom_site_label_1
_geom_bond_atom_site_label_2
_geom_bond_distance
_geom_bond_site_symmetry_2
O0 P5 1.512895 1_565
O0 Sb0 2.251508 1_555
O1 P3 1.512895 1_556
O1 Sb0 2.251508 1_555
O2 P0 1.561520 1_555
O2 Zn0 2.136398 1_566
O2 Ti0 2.136605 1_455
O3 P4 1.512895 1_655
O3 Sb0 2.251508 1_555
O4 P0 1.512895 1_555
O4 Sb1 2.251508 1_565
O5 P0 1.561403 1_555
O5 Sb0 2.174555 1_555
O5 Zn1 2.204716 1_555
O6 P1 1.561519 1_555
O6 Zn0 2.136398 1_665
O6 Ti0 2.136605 1_554
O7 P1 1.561403 1_555
O7 Sb0 2.174555 1_555
O7 Zn1 2.204716 1_555
O8 P3 1.582277 1_556
O8 Ti0 1.912432 1_555
O9 P2 1.561403 1_555
O9 Sb0 2.174555 1_555
O9 Zn1 2.204717 1_555
O10 P3 1.561403 1_555
O10 Sb1 2.174555 1_565
O10 Zn0 2.204716 1_565
O11 P4 1.582277 1_655
O11 Ti0 1.912432 1_555
O12 P1 1.512895 1_555
O12 Sb1 2.251508 1_655
O13 P2 1.561519 1_555
O13 Zn0 2.136398 1_656
O13 Ti0 2.136605 1_545
O14 P3 1.561520 1_555
O14 Zn1 2.136398 1_555
O14 Ti1 2.136605 1_555
O15 P2 1.512895 1_555
O15 Sb1 2.251508 1_556
O16 P4 1.561519 1_555
O16 Zn1 2.136398 1_555
O16 Ti1 2.136605 1_555
O17 P4 1.561403 1_555
O17 Sb1 2.174555 1_556
O17 Zn0 2.204716 1_556
O18 P5 1.561519 1_555
O18 Zn1 2.136398 1_555
O18 Ti1 2.136605 1_555
O19 P5 1.582277 1_565
O19 Ti0 1.912432 1_555
O20 P1 1.582277 1_455
O20 Ti1 1.912432 1_555
O21 P5 1.561403 1_555
O21 Sb1 2.174555 1_655
O21 Zn0 2.204717 1_655
O22 P2 1.582277 1_554
O22 Ti1 1.912432 1_555
O23 P0 1.582277 1_545
O23 Ti1 1.912432 1_555
