# generated using pymatgen
data_Tl2Cl3
_symmetry_space_group_name_H-M   'P 1'
_cell_length_a   9.40659624
_cell_length_b   9.40659624
_cell_length_c   9.40659627
_cell_angle_alpha   28.20736846
_cell_angle_beta   28.20736846
_cell_angle_gamma   28.20737238
_symmetry_Int_Tables_number   1
_chemical_formula_structural   Tl2Cl3
_chemical_formula_sum   'Tl2 Cl3'
_cell_volume   164.28879869
_cell_formula_units_Z   1
loop_
 _symmetry_equiv_pos_site_id
 _symmetry_equiv_pos_as_xyz
  1  'x, y, z'
loop_
 _atom_site_type_symbol
 _atom_site_label
 _atom_site_symmetry_multiplicity
 _atom_site_fract_x
 _atom_site_fract_y
 _atom_site_fract_z
 _atom_site_occupancy
  Tl  Tl0  1  0.59860900  0.59860900  0.59860900  1
  Tl  Tl1  1  0.40139100  0.40139100  0.40139100  1
  Cl  Cl0  1  0.00000000  0.00000000  0.00000000  1
  Cl  Cl1  1  0.21956100  0.21956100  0.21956100  1
  Cl  Cl2  1  0.78043900  0.78043900  0.78043900  1
loop_
_geom_bond_atom_site_label_1
_geom_bond_atom_site_label_2
_geom_bond_distance
_geom_bond_site_symmetry_2
Cl0 Tl1 3.225211 1_554
Cl0 Tl0 3.225211 1_445
Cl0 Tl1 3.225212 1_455
Cl0 Tl1 3.225212 1_545
Cl0 Tl0 3.225212 1_544
Cl0 Tl0 3.225212 1_454
Cl1 Tl0 2.921970 1_554
Cl1 Tl0 2.921970 1_455
Cl1 Tl0 2.921970 1_545
Cl2 Tl1 2.921970 1_556
Cl2 Tl1 2.921970 1_565
Cl2 Tl1 2.921970 1_655
