# generated using pymatgen
data_K2ZrS3O14
_symmetry_space_group_name_H-M   'P 1'
_cell_length_a   13.89915700
_cell_length_b   7.35935100
_cell_length_c   13.22697878
_cell_angle_alpha   86.09797588
_cell_angle_beta   90.00000000
_cell_angle_gamma   90.00000000
_symmetry_Int_Tables_number   1
_chemical_formula_structural   K2ZrS3O14
_chemical_formula_sum   'K8 Zr4 S12 O56'
_cell_volume   1349.83510001
_cell_formula_units_Z   4
loop_
 _symmetry_equiv_pos_site_id
 _symmetry_equiv_pos_as_xyz
  1  'x, y, z'
loop_
 _atom_site_type_symbol
 _atom_site_label
 _atom_site_symmetry_multiplicity
 _atom_site_fract_x
 _atom_site_fract_y
 _atom_site_fract_z
 _atom_site_occupancy
  K  K0  1  0.64673200  0.77613500  0.99860400  1
  K  K1  1  0.14673200  0.22386500  0.50139600  1
  K  K2  1  0.35326800  0.22386500  0.00139600  1
  K  K3  1  0.85326800  0.77613500  0.49860400  1
  K  K4  1  0.26042100  0.66369900  0.24846300  1
  K  K5  1  0.76042100  0.33630100  0.25153700  1
  K  K6  1  0.73957900  0.33630100  0.75153700  1
  K  K7  1  0.23957900  0.66369900  0.74846300  1
  Zr  Zr0  1  0.93750500  0.79827200  0.16745900  1
  Zr  Zr1  1  0.43750500  0.20172800  0.33254100  1
  Zr  Zr2  1  0.06249500  0.20172800  0.83254100  1
  Zr  Zr3  1  0.56249500  0.79827200  0.66745900  1
  S  S0  1  0.74528600  0.83806800  0.24558000  1
  S  S1  1  0.24528600  0.16193200  0.25442000  1
  S  S2  1  0.25471400  0.16193200  0.75442000  1
  S  S3  1  0.75471400  0.83806800  0.74558000  1
  S  S4  1  0.99710000  0.53508200  0.32469300  1
  S  S5  1  0.49710000  0.46491800  0.17530700  1
  S  S6  1  0.00290000  0.46491800  0.67530700  1
  S  S7  1  0.50290000  0.53508200  0.82469300  1
  S  S8  1  0.14893200  0.84521900  0.00738700  1
  S  S9  1  0.64893200  0.15478100  0.49261300  1
  S  S10  1  0.85106800  0.15478100  0.99261300  1
  S  S11  1  0.35106800  0.84521900  0.50738700  1
  O  O0  1  0.34508800  0.70840600  0.43408600  1
  O  O1  1  0.84508800  0.29159400  0.06591400  1
  O  O2  1  0.65491200  0.29159400  0.56591400  1
  O  O3  1  0.15491200  0.70840600  0.93408600  1
  O  O4  1  0.89518200  0.98161800  0.03955200  1
  O  O5  1  0.39518200  0.01838200  0.46044800  1
  O  O6  1  0.10481800  0.01838200  0.96044800  1
  O  O7  1  0.60481800  0.98161800  0.53955200  1
  O  O8  1  0.93664100  0.64285900  0.03027800  1
  O  O9  1  0.43664100  0.35714100  0.46972200  1
  O  O10  1  0.06335900  0.35714100  0.96972200  1
  O  O11  1  0.56335900  0.64285900  0.53027800  1
  O  O12  1  0.42935700  0.53988200  0.09921100  1
  O  O13  1  0.92935600  0.46011800  0.40078900  1
  O  O14  1  0.57064300  0.46011800  0.90078900  1
  O  O15  1  0.07064300  0.53988200  0.59921100  1
  O  O16  1  0.95698700  0.50830400  0.21841200  1
  O  O17  1  0.45698700  0.49169600  0.28158800  1
  O  O18  1  0.04301300  0.49169600  0.78158800  1
  O  O19  1  0.54301300  0.50830400  0.71841200  1
  O  O20  1  0.99575300  0.74519100  0.32123500  1
  O  O21  1  0.49575300  0.25480900  0.17876500  1
  O  O22  1  0.00424700  0.25480900  0.67876500  1
  O  O23  1  0.50424700  0.74519100  0.82123500  1
  O  O24  1  0.83494100  0.95592500  0.25883500  1
  O  O25  1  0.33494100  0.04407500  0.24116500  1
  O  O26  1  0.16505900  0.04407500  0.74116500  1
  O  O27  1  0.66505900  0.95592500  0.75883500  1
  O  O28  1  0.66695800  0.95154000  0.20136900  1
  O  O29  1  0.16695800  0.04846000  0.29863100  1
  O  O30  1  0.33304200  0.04846000  0.79863100  1
  O  O31  1  0.83304200  0.95154000  0.70136900  1
  O  O32  1  0.07923000  0.77787000  0.09293500  1
  O  O33  1  0.57923000  0.22213000  0.40706500  1
  O  O34  1  0.92077000  0.22213000  0.90706500  1
  O  O35  1  0.42077000  0.77787000  0.59293500  1
  O  O36  1  0.78408200  0.71157900  0.16673700  1
  O  O37  1  0.28408200  0.28842100  0.33326300  1
  O  O38  1  0.21591800  0.28842100  0.83326300  1
  O  O39  1  0.71591800  0.71157900  0.66673700  1
  O  O40  1  0.51999900  0.95147400  0.31540200  1
  O  O41  1  0.01999900  0.04852600  0.18459800  1
  O  O42  1  0.48000100  0.04852600  0.68459800  1
  O  O43  1  0.98000100  0.95147400  0.81540200  1
  O  O44  1  0.72155000  0.73256800  0.33909400  1
  O  O45  1  0.22155000  0.26743200  0.16090600  1
  O  O46  1  0.27845000  0.26743200  0.66090600  1
  O  O47  1  0.77845000  0.73256800  0.83909400  1
  O  O48  1  0.23906300  0.88658100  0.05708100  1
  O  O49  1  0.73906300  0.11341900  0.44291900  1
  O  O50  1  0.76093700  0.11341900  0.94291900  1
  O  O51  1  0.26093700  0.88658100  0.55708100  1
  O  O52  1  0.09494300  0.46784500  0.33673400  1
  O  O53  1  0.59494300  0.53215500  0.16326600  1
  O  O54  1  0.90505700  0.53215500  0.66326600  1
  O  O55  1  0.40505700  0.46784500  0.83673400  1
loop_
_geom_bond_atom_site_label_1
_geom_bond_atom_site_label_2
_geom_bond_distance
_geom_bond_site_symmetry_2
K0 O53 2.820186 1_556
K0 O47 2.828072 1_555
K0 O14 2.934396 1_555
K0 O36 2.944839 1_556
K0 O50 2.995770 1_565
K0 O28 3.067493 1_556
K0 O23 3.090408 1_555
K1 O52 2.820186 1_555
K1 O46 2.828072 1_555
K1 O15 2.934396 1_555
K1 O37 2.944839 1_555
K1 O51 2.995770 1_545
K1 O29 3.067493 1_555
K1 O22 3.090408 1_555
K2 O55 2.820186 1_554
K2 O45 2.828072 1_555
K2 O12 2.934396 1_555
K2 O38 2.944839 1_554
K2 O48 2.995770 1_545
K2 O30 3.067493 1_554
K2 O21 3.090408 1_555
K3 O54 2.820186 1_555
K3 O44 2.828072 1_555
K3 O13 2.934391 1_555
K3 O39 2.944839 1_555
K3 O49 2.995770 1_565
K3 O31 3.067493 1_555
K3 O20 3.090408 1_555
K4 O0 2.762465 1_555
K4 O52 2.915765 1_555
K4 O37 2.927830 1_555
K4 O48 2.936239 1_555
K4 O25 2.980192 1_565
K4 O17 3.030378 1_555
K4 O29 3.225138 1_565
K4 O12 3.238185 1_555
K4 O45 3.255366 1_555
K4 O32 3.323403 1_555
K5 O1 2.762465 1_555
K5 O53 2.915765 1_555
K5 O36 2.927830 1_555
K5 O49 2.936239 1_555
K5 O24 2.980192 1_545
K5 O16 3.030378 1_555
K5 O28 3.225138 1_545
K5 O13 3.238175 1_555
K5 O44 3.255366 1_555
K5 O33 3.323403 1_555
K6 O2 2.762465 1_555
K6 O54 2.915765 1_555
K6 O39 2.927830 1_555
K6 O50 2.936239 1_555
K6 O27 2.980192 1_545
K6 O19 3.030378 1_555
K6 O31 3.225138 1_545
K6 O14 3.238185 1_555
K6 O47 3.255366 1_555
K6 O34 3.323403 1_555
K7 O3 2.762465 1_555
K7 O55 2.915765 1_555
K7 O38 2.927830 1_555
K7 O51 2.936239 1_555
K7 O26 2.980192 1_565
K7 O18 3.030378 1_555
K7 O30 3.225138 1_565
K7 O15 3.238185 1_555
K7 O46 3.255366 1_555
K7 O35 3.323403 1_555
O0 S11 1.446912 1_555
O1 S10 1.446912 1_554
O2 S9 1.446912 1_555
O3 S8 1.446912 1_556
O4 S10 1.509220 1_564
O4 Zr0 2.172153 1_555
O5 S11 1.509220 1_545
O5 Zr1 2.172153 1_555
O6 S8 1.509220 1_546
O6 Zr2 2.172153 1_555
O7 S9 1.509220 1_565
O7 Zr3 2.172153 1_555
O8 Zr0 2.209776 1_555
O9 Zr1 2.209776 1_555
O10 Zr2 2.209776 1_555
O11 Zr3 2.209776 1_555
O12 S5 1.458911 1_555
O13 S4 1.458920 1_555
O14 S7 1.458911 1_555
O15 S6 1.458911 1_555
O16 S4 1.537399 1_555
O16 Zr0 2.210351 1_555
O17 S5 1.537399 1_555
O17 Zr1 2.210351 1_555
O18 S6 1.537399 1_555
O18 Zr2 2.210351 1_555
O19 S7 1.537399 1_555
O19 Zr3 2.210351 1_555
O20 S4 1.543941 1_555
O20 Zr0 2.199325 1_555
O21 S5 1.543941 1_555
O21 Zr1 2.199325 1_555
O22 S6 1.543941 1_555
O22 Zr2 2.199325 1_555
O23 S7 1.543941 1_555
O23 Zr3 2.199325 1_555
O24 S0 1.535112 1_555
O24 Zr0 2.242756 1_555
O25 S1 1.535112 1_555
O25 Zr1 2.242756 1_555
O26 S2 1.535112 1_555
O26 Zr2 2.242756 1_555
O27 S3 1.535112 1_555
O27 Zr3 2.242756 1_555
O28 S0 1.469052 1_555
O29 S1 1.469052 1_555
O30 S2 1.469052 1_555
O31 S3 1.469052 1_555
O32 S8 1.545409 1_555
O32 Zr0 2.212394 1_455
O33 S9 1.545409 1_555
O33 Zr1 2.212394 1_555
O34 S10 1.545409 1_555
O34 Zr2 2.212394 1_655
O35 S11 1.545409 1_555
O35 Zr3 2.212394 1_555
O36 S0 1.541743 1_555
O36 Zr0 2.226054 1_555
O37 S1 1.541743 1_555
O37 Zr1 2.226054 1_555
O38 S2 1.541743 1_555
O38 Zr2 2.226054 1_555
O39 S3 1.541743 1_555
O39 Zr3 2.226054 1_555
O40 Zr1 2.194262 1_565
O41 Zr0 2.194262 1_445
O42 Zr3 2.194262 1_545
O43 Zr2 2.194262 1_665
O44 S0 1.452891 1_555
O45 S1 1.452891 1_555
O46 S2 1.452891 1_555
O47 S3 1.452891 1_555
O48 S8 1.456470 1_555
O49 S9 1.456470 1_555
O50 S10 1.456470 1_555
O51 S11 1.456470 1_555
O52 S4 1.452209 1_455
O53 S5 1.452209 1_555
O54 S6 1.452209 1_655
O55 S7 1.452209 1_555
