# generated using pymatgen
data_GdCo5
_symmetry_space_group_name_H-M   'P 1'
_cell_length_a   4.99302722
_cell_length_b   4.99301962
_cell_length_c   3.85715957
_cell_angle_alpha   90.00000000
_cell_angle_beta   90.00000000
_cell_angle_gamma   119.99994485
_symmetry_Int_Tables_number   1
_chemical_formula_structural   GdCo5
_chemical_formula_sum   'Gd1 Co5'
_cell_volume   83.27711759
_cell_formula_units_Z   1
loop_
 _symmetry_equiv_pos_site_id
 _symmetry_equiv_pos_as_xyz
  1  'x, y, z'
loop_
 _atom_site_type_symbol
 _atom_site_label
 _atom_site_symmetry_multiplicity
 _atom_site_fract_x
 _atom_site_fract_y
 _atom_site_fract_z
 _atom_site_occupancy
  Gd  Gd0  1  -0.00000000  -0.00000000  0.00000000  1
  Co  Co0  1  0.66666700  0.33333400  -0.00000000  1
  Co  Co1  1  0.33333300  0.66666600  -0.00000000  1
  Co  Co2  1  0.50000000  0.50000000  0.50000000  1
  Co  Co3  1  0.50000000  -0.00000000  0.50000000  1
  Co  Co4  1  -0.00000000  0.50000000  0.50000000  1
loop_
_geom_bond_atom_site_label_1
_geom_bond_atom_site_label_2
_geom_bond_distance
_geom_bond_site_symmetry_2
Co0 Co2 2.407683 1_554
Co0 Co2 2.407683 1_555
Co0 Co4 2.407685 1_654
Co0 Co4 2.407685 1_655
Co0 Co3 2.407686 1_555
Co0 Co3 2.407686 1_554
Co0 Co1 2.882720 1_555
Co0 Gd0 2.882720 1_665
Co0 Gd0 2.882724 1_655
Co0 Co1 2.882724 1_655
Co0 Co1 2.882729 1_545
Co0 Gd0 2.882729 1_555
Co1 Co2 2.407683 1_555
Co1 Co2 2.407683 1_554
Co1 Co4 2.407685 1_554
Co1 Co4 2.407685 1_555
Co1 Co3 2.407686 1_564
Co1 Co3 2.407686 1_565
Co1 Gd0 2.882720 1_555
Co1 Gd0 2.882724 1_565
Co1 Gd0 2.882729 1_665
Co2 Co3 2.496510 1_555
Co2 Co3 2.496510 1_565
Co2 Co4 2.496514 1_655
Co2 Co4 2.496514 1_555
Co2 Gd0 3.154679 1_666
Co2 Gd0 3.154679 1_665
Co2 Gd0 3.154679 1_555
Co2 Gd0 3.154679 1_556
Co3 Co4 2.496514 1_545
Co3 Co4 2.496514 1_655
Co3 Gd0 3.154679 1_656
Co3 Gd0 3.154679 1_555
Co3 Gd0 3.154679 1_556
Co3 Gd0 3.154679 1_655
Co4 Gd0 3.154676 1_566
Co4 Gd0 3.154676 1_565
Co4 Gd0 3.154676 1_555
Co4 Gd0 3.154676 1_556
