# generated using pymatgen
data_Yb3Ni7B2
_symmetry_space_group_name_H-M   'P 1'
_cell_length_a   5.07256688
_cell_length_b   5.07220453
_cell_length_c   7.00296653
_cell_angle_alpha   90.00000000
_cell_angle_beta   90.00000000
_cell_angle_gamma   59.99342475
_symmetry_Int_Tables_number   1
_chemical_formula_structural   Yb3Ni7B2
_chemical_formula_sum   'Yb3 Ni7 B2'
_cell_volume   156.03011999
_cell_formula_units_Z   1
loop_
 _symmetry_equiv_pos_site_id
 _symmetry_equiv_pos_as_xyz
  1  'x, y, z'
loop_
 _atom_site_type_symbol
 _atom_site_label
 _atom_site_symmetry_multiplicity
 _atom_site_fract_x
 _atom_site_fract_y
 _atom_site_fract_z
 _atom_site_occupancy
  Yb  Yb0  1  0.99999007  0.99998424  0.00000000  1
  Yb  Yb1  1  0.99997300  0.99997486  0.50000000  1
  Yb  Yb2  1  0.66666491  0.66674748  0.00000000  1
  Ni  Ni0  1  0.49611977  0.00768867  0.30444341  1
  Ni  Ni1  1  0.00767969  0.49612259  0.30440246  1
  Ni  Ni2  1  0.49613410  0.49613215  0.30434076  1
  Ni  Ni3  1  0.49611977  0.00768867  0.69555659  1
  Ni  Ni4  1  0.00767969  0.49612259  0.69559754  1
  Ni  Ni5  1  0.49613410  0.49613215  0.69565924  1
  Ni  Ni6  1  0.33334506  0.33338523  0.00000000  1
  B  B0  1  0.66662597  0.66656498  0.50000000  1
  B  B1  1  0.33333185  0.33345839  0.50000000  1
loop_
_geom_bond_atom_site_label_1
_geom_bond_atom_site_label_2
_geom_bond_distance
_geom_bond_site_symmetry_2
Yb0 Yb2 2.928180 1_555
Yb0 Yb2 2.928490 1_655
Yb0 Yb2 2.928669 1_565
Ni0 Ni6 2.567491 1_555
Ni0 Yb2 2.605394 1_545
Ni0 Yb1 2.882575 1_545
Ni0 Yb1 2.882612 1_445
Ni1 Ni6 2.567233 1_555
Ni1 Yb2 2.605406 1_455
Ni1 Yb1 2.882561 1_455
Ni1 Yb1 2.882580 1_445
Ni2 Ni6 2.566609 1_555
Ni2 Yb2 2.605440 1_555
Ni2 Yb1 2.882626 1_545
Ni2 Yb1 2.882638 1_455
Ni3 Ni6 2.567491 1_556
Ni3 Yb2 2.605394 1_546
Ni3 Yb1 2.882575 1_545
Ni3 Yb1 2.882612 1_445
Ni4 Ni6 2.567233 1_556
Ni4 Yb2 2.605406 1_456
Ni4 Yb1 2.882561 1_455
Ni4 Yb1 2.882580 1_445
Ni5 Ni6 2.566609 1_556
Ni5 Yb2 2.605440 1_556
Ni5 Yb1 2.882626 1_545
Ni5 Yb1 2.882638 1_455
Ni6 Yb0 2.927947 1_455
Ni6 Yb2 2.928118 1_545
Ni6 Yb0 2.928359 1_545
Ni6 Yb2 2.928513 1_455
Ni6 Yb2 2.928708 1_555
Ni6 Yb0 2.929033 1_445
B0 Ni5 2.029888 1_555
B0 Ni2 2.029888 1_555
B0 Ni3 2.029899 1_565
B0 Ni0 2.029899 1_565
B0 Ni4 2.029945 1_655
B0 Ni1 2.029945 1_655
B0 Yb1 2.927908 1_545
B0 Yb1 2.928394 1_455
B0 Yb1 2.929037 1_555
B1 Ni5 1.980346 1_555
B1 Ni2 1.980346 1_555
B1 Ni4 1.980541 1_555
B1 Ni1 1.980541 1_555
B1 Ni3 1.980642 1_555
B1 Ni0 1.980642 1_555
B1 Yb1 2.927585 1_455
B1 Yb1 2.928342 1_545
B1 Yb1 2.929412 1_445
