# generated using pymatgen
data_NaCoPO4
_symmetry_space_group_name_H-M   'P 1'
_cell_length_a   5.07975900
_cell_length_b   6.87033400
_cell_length_c   8.97502100
_cell_angle_alpha   90.00000000
_cell_angle_beta   90.00000000
_cell_angle_gamma   90.00000000
_symmetry_Int_Tables_number   1
_chemical_formula_structural   NaCoPO4
_chemical_formula_sum   'Na4 Co4 P4 O16'
_cell_volume   313.22501059
_cell_formula_units_Z   4
loop_
 _symmetry_equiv_pos_site_id
 _symmetry_equiv_pos_as_xyz
  1  'x, y, z'
loop_
 _atom_site_type_symbol
 _atom_site_label
 _atom_site_symmetry_multiplicity
 _atom_site_fract_x
 _atom_site_fract_y
 _atom_site_fract_z
 _atom_site_occupancy
  Na  Na0  1  0.46606400  0.75000000  0.14919200  1
  Na  Na1  1  0.53393600  0.25000000  0.85080800  1
  Na  Na2  1  0.96606400  0.25000000  0.35080800  1
  Na  Na3  1  0.03393600  0.75000000  0.64919200  1
  Co  Co0  1  0.50000000  0.00000000  0.50000000  1
  Co  Co1  1  0.00000000  0.00000000  0.00000000  1
  Co  Co2  1  0.50000000  0.50000000  0.50000000  1
  Co  Co3  1  0.00000000  0.50000000  0.00000000  1
  P  P0  1  0.03933600  0.25000000  0.67644300  1
  P  P1  1  0.46066400  0.25000000  0.17644300  1
  P  P2  1  0.96066400  0.75000000  0.32355700  1
  P  P3  1  0.53933600  0.75000000  0.82355700  1
  O  O0  1  0.94971900  0.75000000  0.14775100  1
  O  O1  1  0.44971900  0.25000000  0.35224900  1
  O  O2  1  0.05028100  0.25000000  0.85224900  1
  O  O3  1  0.55028100  0.75000000  0.64775100  1
  O  O4  1  0.25129200  0.75000000  0.88374600  1
  O  O5  1  0.75129200  0.25000000  0.61625400  1
  O  O6  1  0.74870800  0.25000000  0.11625400  1
  O  O7  1  0.24870800  0.75000000  0.38374600  1
  O  O8  1  0.18483400  0.43429400  0.62196400  1
  O  O9  1  0.68483400  0.56570600  0.87803600  1
  O  O10  1  0.81516600  0.93429400  0.37803600  1
  O  O11  1  0.31516600  0.06570600  0.12196400  1
  O  O12  1  0.81516600  0.56570600  0.37803600  1
  O  O13  1  0.31516600  0.43429400  0.12196400  1
  O  O14  1  0.18483400  0.06570600  0.62196400  1
  O  O15  1  0.68483400  0.93429400  0.87803600  1
loop_
_geom_bond_atom_site_label_1
_geom_bond_atom_site_label_2
_geom_bond_distance
_geom_bond_site_symmetry_2
Na0 O11 2.313410 1_565
Na0 O13 2.313410 1_555
Na0 O7 2.377106 1_555
Na0 O0 2.456885 1_555
Na0 O4 2.620307 1_554
Na0 O0 2.622940 1_455
Na1 O9 2.313410 1_555
Na1 O15 2.313410 1_545
Na1 O5 2.377106 1_555
Na1 O2 2.456885 1_555
Na1 O6 2.620307 1_556
Na1 O2 2.622940 1_655
Na2 O12 2.313410 1_555
Na2 O10 2.313410 1_545
Na2 O6 2.377106 1_555
Na2 O1 2.456885 1_655
Na2 O5 2.620307 1_555
Na2 O1 2.622940 1_555
Na3 O14 2.313410 1_565
Na3 O8 2.313410 1_555
Na3 O4 2.377106 1_555
Na3 O3 2.456885 1_455
Na3 O7 2.620307 1_555
Na3 O3 2.622940 1_555
Co0 O14 1.991254 1_555
Co0 O10 1.991254 1_545
Co0 O3 2.184900 1_545
Co0 O1 2.184900 1_555
Co0 O5 2.380798 1_555
Co0 O7 2.380798 1_545
Co1 O11 1.991254 1_555
Co1 O15 1.991254 1_444
Co1 O0 2.184900 1_445
Co1 O2 2.184900 1_554
Co1 O6 2.380798 1_455
Co1 O4 2.380798 1_544
Co2 O12 1.991254 1_555
Co2 O8 1.991254 1_555
Co2 O3 2.184900 1_555
Co2 O1 2.184900 1_555
Co2 O5 2.380798 1_555
Co2 O7 2.380798 1_555
Co3 O13 1.991254 1_555
Co3 O9 1.991254 1_454
Co3 O0 2.184900 1_455
Co3 O2 2.184900 1_554
Co3 O6 2.380798 1_455
Co3 O4 2.380798 1_554
O0 P2 1.578842 1_555
O1 P1 1.578842 1_555
O2 P0 1.578842 1_555
O3 P3 1.578842 1_555
O4 P3 1.559728 1_555
O5 P0 1.559728 1_655
O6 P1 1.559728 1_555
O7 P2 1.559728 1_455
O8 P0 1.545477 1_555
O9 P3 1.545477 1_555
O10 P2 1.545477 1_555
O11 P1 1.545477 1_555
O12 P2 1.545477 1_555
O13 P1 1.545477 1_555
O14 P0 1.545477 1_555
O15 P3 1.545477 1_555
