# generated using pymatgen
data_Rb4Mg(Se2O7)2
_symmetry_space_group_name_H-M   'P 1'
_cell_length_a   8.64404999
_cell_length_b   8.64404999
_cell_length_c   7.43691724
_cell_angle_alpha   99.20977802
_cell_angle_beta   99.20977802
_cell_angle_gamma   56.43495425
_symmetry_Int_Tables_number   1
_chemical_formula_structural   Rb4Mg(Se2O7)2
_chemical_formula_sum   'Rb4 Mg1 Se4 O14'
_cell_volume   455.32606393
_cell_formula_units_Z   1
loop_
 _symmetry_equiv_pos_site_id
 _symmetry_equiv_pos_as_xyz
  1  'x, y, z'
loop_
 _atom_site_type_symbol
 _atom_site_label
 _atom_site_symmetry_multiplicity
 _atom_site_fract_x
 _atom_site_fract_y
 _atom_site_fract_z
 _atom_site_occupancy
  Rb  Rb0  1  0.03301000  0.62537000  0.33261000  1
  Rb  Rb1  1  0.37463000  0.96699000  0.16739000  1
  Rb  Rb2  1  0.88086200  0.40696900  0.69986000  1
  Rb  Rb3  1  0.59303200  0.11913800  0.80014000  1
  Mg  Mg0  1  0.52634400  0.47365600  0.25000000  1
  Se  Se0  1  0.70058600  0.10739500  0.35234100  1
  Se  Se1  1  0.89260500  0.29941400  0.14765900  1
  Se  Se2  1  0.33341900  0.83191200  0.63094700  1
  Se  Se3  1  0.16808800  0.66658100  0.86905300  1
  O  O0  1  0.64661200  0.28410000  0.51840300  1
  O  O1  1  0.71589900  0.35338800  0.98159700  1
  O  O2  1  0.35255600  0.69330500  0.44059600  1
  O  O3  1  0.30669400  0.64744400  0.05940400  1
  O  O4  1  0.51735800  0.23718300  0.19083800  1
  O  O5  1  0.76281700  0.48264200  0.30916200  1
  O  O6  1  0.51861700  0.75615200  0.77802400  1
  O  O7  1  0.24384800  0.48138300  0.72197600  1
  O  O8  1  0.65872600  0.95315000  0.41921000  1
  O  O9  1  0.04685000  0.34127400  0.08079000  1
  O  O10  1  0.23509500  0.04927500  0.58906700  1
  O  O11  1  0.95072500  0.76490500  0.91093300  1
  O  O12  1  0.90120800  0.09879200  0.25000000  1
  O  O13  1  0.14875100  0.85124900  0.75000000  1
loop_
_geom_bond_atom_site_label_1
_geom_bond_atom_site_label_2
_geom_bond_distance
_geom_bond_site_symmetry_2
Mg0 O5 2.062679 1_555
Mg0 O4 2.062679 1_555
Mg0 O2 2.130022 1_555
Mg0 O3 2.130025 1_555
Mg0 O1 2.499802 1_554
Mg0 O0 2.499807 1_555
O0 Se0 1.693684 1_555
O0 Rb2 2.844960 1_555
O0 Rb3 2.938565 1_555
O1 Se1 1.693689 1_556
O1 Rb3 2.844948 1_555
O1 Rb2 2.938576 1_555
O2 Se2 1.667257 1_555
O2 Rb0 3.090624 1_555
O2 Rb1 3.453014 1_555
O3 Se3 1.667252 1_554
O3 Rb1 3.090629 1_555
O3 Rb0 3.453007 1_555
O4 Se0 1.751384 1_555
O4 Rb3 2.972005 1_554
O4 Rb1 3.161395 1_545
O5 Se1 1.751384 1_555
O5 Rb2 2.972003 1_555
O5 Rb0 3.161395 1_655
O6 Se2 1.642424 1_555
O6 Rb2 2.970405 1_555
O6 Rb1 3.195575 1_556
O7 Se3 1.642424 1_555
O7 Rb3 2.970408 1_555
O7 Rb0 3.195575 1_555
O8 Se0 1.720243 1_565
O8 Rb1 2.797665 1_555
O8 Rb3 2.952897 1_565
O8 Rb0 2.975989 1_655
O9 Se1 1.720243 1_455
O9 Rb0 2.797665 1_555
O9 Rb2 2.952898 1_454
O9 Rb1 2.975989 1_545
O10 Se2 1.639024 1_545
O10 Rb2 3.022923 1_455
O10 Rb1 3.367964 1_545
O11 Se3 1.639024 1_655
O11 Rb3 3.022920 1_565
O11 Rb0 3.367964 1_656
O12 Se0 1.963157 1_555
O12 Se1 1.963157 1_555
O13 Se2 1.862781 1_555
O13 Se3 1.862781 1_555
