# generated using pymatgen
data_Ba2CaMn2CuF14
_symmetry_space_group_name_H-M   'P 1'
_cell_length_a   7.44975996
_cell_length_b   7.44975996
_cell_length_c   15.10340360
_cell_angle_alpha   86.75693850
_cell_angle_beta   86.75693850
_cell_angle_gamma   43.17302591
_symmetry_Int_Tables_number   1
_chemical_formula_structural   Ba2CaMn2CuF14
_chemical_formula_sum   'Ba4 Ca2 Mn4 Cu2 F28'
_cell_volume   572.45276949
_cell_formula_units_Z   2
loop_
 _symmetry_equiv_pos_site_id
 _symmetry_equiv_pos_as_xyz
  1  'x, y, z'
loop_
 _atom_site_type_symbol
 _atom_site_label
 _atom_site_symmetry_multiplicity
 _atom_site_fract_x
 _atom_site_fract_y
 _atom_site_fract_z
 _atom_site_occupancy
  Ba  Ba0  1  0.74300700  0.88107600  0.62531700  1
  Ba  Ba1  1  0.88107600  0.74300700  0.12531700  1
  Ba  Ba2  1  0.25699300  0.11892400  0.37468300  1
  Ba  Ba3  1  0.11892400  0.25699300  0.87468300  1
  Ca  Ca0  1  0.41913800  0.58086200  0.75000000  1
  Ca  Ca1  1  0.58086200  0.41913800  0.25000000  1
  Mn  Mn0  1  0.85435600  0.89986100  0.87651800  1
  Mn  Mn1  1  0.14564400  0.10013900  0.12348200  1
  Mn  Mn2  1  0.89986100  0.85435600  0.37651800  1
  Mn  Mn3  1  0.10013900  0.14564400  0.62348200  1
  Cu  Cu0  1  0.50000000  0.50000000  0.00000000  1
  Cu  Cu1  1  0.50000000  0.50000000  0.50000000  1
  F  F0  1  0.93493900  0.07454900  0.34432700  1
  F  F1  1  0.60083100  0.11725900  0.45304900  1
  F  F2  1  0.39916900  0.88274100  0.54695100  1
  F  F3  1  0.15695900  0.34908200  0.59642700  1
  F  F4  1  0.50912100  0.38340000  0.61802900  1
  F  F5  1  0.61660000  0.49087900  0.88197100  1
  F  F6  1  0.11725900  0.60083100  0.95304900  1
  F  F7  1  0.92545100  0.06506100  0.15567300  1
  F  F8  1  0.05652000  0.62150900  0.77239300  1
  F  F9  1  0.84304100  0.65091800  0.40357300  1
  F  F10  1  0.59354200  0.16539800  0.79183300  1
  F  F11  1  0.65091800  0.84304100  0.90357300  1
  F  F12  1  0.16539800  0.59354200  0.29183300  1
  F  F13  1  0.40645800  0.83460200  0.20816700  1
  F  F14  1  0.38340000  0.50912100  0.11802900  1
  F  F15  1  0.94348000  0.37849100  0.22760700  1
  F  F16  1  0.30437700  0.86591700  0.01106100  1
  F  F17  1  0.06506100  0.92545100  0.65567300  1
  F  F18  1  0.69562300  0.13408300  0.98893900  1
  F  F19  1  0.86591700  0.30437700  0.51106100  1
  F  F20  1  0.88274100  0.39916900  0.04695100  1
  F  F21  1  0.83460200  0.40645800  0.70816700  1
  F  F22  1  0.62150900  0.05652000  0.27239300  1
  F  F23  1  0.13408300  0.69562300  0.48893900  1
  F  F24  1  0.49087900  0.61660000  0.38197100  1
  F  F25  1  0.07454900  0.93493900  0.84432700  1
  F  F26  1  0.37849100  0.94348000  0.72760700  1
  F  F27  1  0.34908200  0.15695900  0.09642700  1
loop_
_geom_bond_atom_site_label_1
_geom_bond_atom_site_label_2
_geom_bond_distance
_geom_bond_site_symmetry_2
Ba0 F17 2.715555 1_655
Ba0 F4 2.741652 1_565
Ba0 F3 2.761217 1_655
Ba0 F8 2.764444 1_655
Ba0 F26 2.782513 1_555
Ba0 F1 2.839513 1_565
Ba0 F2 2.873570 1_555
Ba0 F23 2.900255 1_655
Ba0 F10 2.982809 1_565
Ba0 F3 3.041142 1_565
Ba0 F21 3.257321 1_555
Ba1 F7 2.715555 1_565
Ba1 F14 2.741652 1_655
Ba1 F27 2.761217 1_565
Ba1 F22 2.764444 1_565
Ba1 F15 2.782513 1_555
Ba1 F6 2.839513 1_654
Ba1 F20 2.873570 1_555
Ba1 F18 2.900255 1_564
Ba1 F12 2.982809 1_655
Ba1 F27 3.041142 1_655
Ba1 F13 3.257321 1_555
Ba2 F0 2.715555 1_455
Ba2 F24 2.741652 1_545
Ba2 F9 2.761217 1_455
Ba2 F15 2.764444 1_455
Ba2 F22 2.782513 1_555
Ba2 F2 2.839513 1_545
Ba2 F1 2.873570 1_555
Ba2 F19 2.900255 1_455
Ba2 F13 2.982809 1_545
Ba2 F9 3.041142 1_545
Ba2 F12 3.257321 1_555
Ba3 F25 2.715555 1_545
Ba3 F5 2.741652 1_455
Ba3 F11 2.761217 1_545
Ba3 F26 2.764444 1_545
Ba3 F8 2.782513 1_555
Ba3 F20 2.839513 1_456
Ba3 F6 2.873570 1_555
Ba3 F16 2.900255 1_546
Ba3 F21 2.982809 1_455
Ba3 F11 3.041142 1_455
Ba3 F10 3.257321 1_555
Ca0 F5 2.308349 1_555
Ca0 F4 2.308349 1_555
Ca0 F10 2.381828 1_555
Ca0 F21 2.381828 1_555
Ca0 F25 2.390031 1_555
Ca0 F17 2.390031 1_555
Ca0 F8 2.493753 1_555
Ca0 F26 2.493753 1_555
Ca1 F14 2.308349 1_555
Ca1 F24 2.308349 1_555
Ca1 F12 2.381828 1_555
Ca1 F13 2.381828 1_555
Ca1 F7 2.390031 1_555
Ca1 F0 2.390031 1_555
Ca1 F22 2.493753 1_555
Ca1 F15 2.493753 1_555
Cu0 F5 1.920774 1_554
Cu0 F14 1.920774 1_555
Cu0 F16 1.952501 1_555
Cu0 F18 1.952501 1_554
Cu0 F20 2.498330 1_555
Cu0 F6 2.498330 1_554
Cu1 F4 1.920774 1_555
Cu1 F24 1.920774 1_555
Cu1 F19 1.952501 1_555
Cu1 F23 1.952501 1_555
Cu1 F2 2.498330 1_555
Cu1 F1 2.498330 1_555
F0 Mn2 1.875146 1_545
F1 Mn2 1.932758 1_545
F2 Mn3 1.932758 1_565
F3 Mn3 1.867933 1_555
F6 Mn0 1.932758 1_455
F7 Mn1 1.875146 1_655
F8 Mn0 2.141783 1_455
F9 Mn2 1.867933 1_555
F10 Mn0 1.926934 1_545
F11 Mn0 1.867933 1_555
F12 Mn2 1.926934 1_455
F13 Mn1 1.926934 1_565
F15 Mn1 2.141783 1_655
F16 Mn1 2.103439 1_565
F17 Mn3 1.875146 1_565
F18 Mn0 2.103439 1_545
F19 Mn3 2.103439 1_655
F20 Mn1 1.932758 1_655
F21 Mn3 1.926934 1_655
F22 Mn2 2.141783 1_545
F23 Mn2 2.103439 1_455
F25 Mn0 1.875146 1_455
F26 Mn3 2.141783 1_565
F27 Mn1 1.867933 1_555
