# generated using pymatgen
data_Li7Mn2(CoO4)3
_symmetry_space_group_name_H-M   'P 1'
_cell_length_a   2.97461200
_cell_length_b   7.60952981
_cell_length_c   9.76035523
_cell_angle_alpha   91.73663874
_cell_angle_beta   97.25581838
_cell_angle_gamma   99.63525344
_symmetry_Int_Tables_number   1
_chemical_formula_structural   Li7Mn2(CoO4)3
_chemical_formula_sum   'Li7 Mn2 Co3 O12'
_cell_volume   215.76957682
_cell_formula_units_Z   1
loop_
 _symmetry_equiv_pos_site_id
 _symmetry_equiv_pos_as_xyz
  1  'x, y, z'
loop_
 _atom_site_type_symbol
 _atom_site_label
 _atom_site_symmetry_multiplicity
 _atom_site_fract_x
 _atom_site_fract_y
 _atom_site_fract_z
 _atom_site_occupancy
  Li  Li0  1  0.75487700  0.75380200  0.74549400  1
  Li  Li1  1  0.93376500  0.59517800  0.25601200  1
  Li  Li2  1  0.07513000  0.41240400  0.74993800  1
  Li  Li3  1  0.24136500  0.24788900  0.24760400  1
  Li  Li4  1  0.41304900  0.08631300  0.74619200  1
  Li  Li5  1  0.59031900  0.90968200  0.26177200  1
  Li  Li6  1  0.15006500  0.82913400  0.49073400  1
  Mn  Mn0  1  0.99970800  0.00014500  0.99983100  1
  Mn  Mn1  1  0.50763200  0.50655100  0.49963700  1
  Co  Co0  1  0.32645300  0.66398300  0.00044900  1
  Co  Co1  1  0.67223900  0.33612100  0.99925700  1
  Co  Co2  1  0.82947500  0.15293600  0.50457300  1
  O  O0  1  0.33453200  0.86581400  0.88018600  1
  O  O1  1  0.53400900  0.69026600  0.38167200  1
  O  O2  1  0.70901100  0.53637900  0.88284600  1
  O  O3  1  0.90058700  0.37799600  0.39733300  1
  O  O4  1  0.05928700  0.20680100  0.88448400  1
  O  O5  1  0.19135600  0.05987700  0.38598300  1
  O  O6  1  0.10384600  0.60742700  0.61021300  1
  O  O7  1  0.28622200  0.46259100  0.11482600  1
  O  O8  1  0.48595100  0.29120400  0.61194600  1
  O  O9  1  0.66039600  0.13409100  0.11765700  1
  O  O10  1  0.79986200  0.97937100  0.61642400  1
  O  O11  1  0.94086500  0.79404700  0.11493900  1
loop_
_geom_bond_atom_site_label_1
_geom_bond_atom_site_label_2
_geom_bond_distance
_geom_bond_site_symmetry_2
Li0 O0 2.072524 1_655
Li0 O10 2.155914 1_555
Li0 O2 2.158294 1_555
Li0 O6 2.169274 1_655
Li0 O0 2.173079 1_555
Li0 O6 2.297227 1_555
Li1 O1 2.011087 1_555
Li1 O1 2.043621 1_655
Li1 O11 2.075904 1_555
Li1 O7 2.156581 1_655
Li1 O3 2.182096 1_555
Li1 O7 2.285123 1_555
Li2 O6 2.044301 1_555
Li2 O4 2.071239 1_555
Li2 O2 2.094149 1_455
Li2 O8 2.126855 1_455
Li2 O2 2.200136 1_555
Li2 O8 2.208101 1_555
Li3 O5 1.997450 1_555
Li3 O9 2.055205 1_455
Li3 O7 2.113196 1_555
Li3 O9 2.146221 1_555
Li3 O3 2.183102 1_455
Li3 O3 2.345143 1_555
Li4 O10 2.051703 1_545
Li4 O8 2.068131 1_555
Li4 O4 2.092038 1_555
Li4 O10 2.109621 1_445
Li4 O0 2.158535 1_545
Li4 O4 2.244410 1_655
Li5 O1 2.063891 1_555
Li5 O11 2.126891 1_555
Li5 O5 2.157994 1_665
Li5 O5 2.217638 1_565
Li5 O9 2.244675 1_565
Li5 O11 2.283740 1_455
Li6 O1 2.048671 1_555
Li6 O5 2.052250 1_565
Li6 O6 2.075376 1_555
Li6 O1 2.097328 1_455
Li6 O10 2.129228 1_455
Li6 O10 2.263704 1_555
Mn0 O11 1.953727 1_546
Mn0 O4 1.958632 1_655
Mn0 O9 1.986637 1_556
Mn0 O0 1.990676 1_645
Mn0 O9 2.216148 1_656
Mn0 O0 2.233953 1_545
Mn1 O1 1.835717 1_555
Mn1 O6 1.944883 1_555
Mn1 O6 1.977355 1_655
Mn1 O3 1.984616 1_555
Mn1 O8 1.995600 1_555
Mn1 O3 2.026986 1_455
Co0 O7 1.919683 1_555
Co0 O0 1.959910 1_554
Co0 O11 2.044642 1_455
Co0 O2 2.046373 1_554
Co0 O11 2.092869 1_555
Co0 O2 2.106327 1_454
Co1 O2 1.925009 1_555
Co1 O9 1.949360 1_556
Co1 O7 2.036741 1_556
Co1 O4 2.046229 1_655
Co1 O7 2.087961 1_656
Co1 O4 2.089095 1_555
Co2 O10 1.736863 1_545
Co2 O5 1.876219 1_655
Co2 O8 1.952713 1_555
Co2 O3 2.028950 1_555
Co2 O5 2.095137 1_555
Co2 O8 2.178773 1_655
