# generated using pymatgen
data_Ho2AlGe3
_symmetry_space_group_name_H-M   'P 1'
_cell_length_a   4.17758100
_cell_length_b   6.82859600
_cell_length_c   17.67791900
_cell_angle_alpha   90.00000000
_cell_angle_beta   90.00000000
_cell_angle_gamma   90.00000000
_symmetry_Int_Tables_number   1
_chemical_formula_structural   Ho2AlGe3
_chemical_formula_sum   'Ho8 Al4 Ge12'
_cell_volume   504.29822347
_cell_formula_units_Z   4
loop_
 _symmetry_equiv_pos_site_id
 _symmetry_equiv_pos_as_xyz
  1  'x, y, z'
loop_
 _atom_site_type_symbol
 _atom_site_label
 _atom_site_symmetry_multiplicity
 _atom_site_fract_x
 _atom_site_fract_y
 _atom_site_fract_z
 _atom_site_occupancy
  Ho  Ho0  1  0.25000000  0.66622000  0.70302400  1
  Ho  Ho1  1  0.75000000  0.33378000  0.29697600  1
  Ho  Ho2  1  0.75000000  0.83378000  0.20302400  1
  Ho  Ho3  1  0.25000000  0.16622000  0.79697600  1
  Ho  Ho4  1  0.25000000  0.66784300  0.91471100  1
  Ho  Ho5  1  0.75000000  0.33215700  0.08528900  1
  Ho  Ho6  1  0.75000000  0.83215700  0.41471100  1
  Ho  Ho7  1  0.25000000  0.16784300  0.58528900  1
  Al  Al0  1  0.25000000  0.95068500  0.06448700  1
  Al  Al1  1  0.75000000  0.04931500  0.93551300  1
  Al  Al2  1  0.75000000  0.54931500  0.56448700  1
  Al  Al3  1  0.25000000  0.45068500  0.43551300  1
  Ge  Ge0  1  0.25000000  0.75052600  0.53473100  1
  Ge  Ge1  1  0.75000000  0.24947400  0.46526900  1
  Ge  Ge2  1  0.75000000  0.74947400  0.03473100  1
  Ge  Ge3  1  0.25000000  0.25052600  0.96526900  1
  Ge  Ge4  1  0.25000000  0.53535100  0.17226100  1
  Ge  Ge5  1  0.75000000  0.46464900  0.82773900  1
  Ge  Ge6  1  0.75000000  0.96464900  0.67226100  1
  Ge  Ge7  1  0.25000000  0.03535100  0.32773900  1
  Ge  Ge8  1  0.25000000  0.64623400  0.31154600  1
  Ge  Ge9  1  0.75000000  0.35376600  0.68845400  1
  Ge  Ge10  1  0.75000000  0.85376600  0.81154600  1
  Ge  Ge11  1  0.25000000  0.14623400  0.18845400  1
loop_
_geom_bond_atom_site_label_1
_geom_bond_atom_site_label_2
_geom_bond_distance
_geom_bond_site_symmetry_2
Al0 Ge2 2.554915 1_455
Al0 Ge2 2.554915 1_555
Al0 Ge11 2.566256 1_565
Al0 Ge3 2.696040 1_564
Al0 Ho2 3.316346 1_555
Al0 Ho2 3.316346 1_455
Al1 Ge3 2.554915 1_555
Al1 Ge3 2.554915 1_655
Al1 Ge10 2.566256 1_545
Al1 Ge2 2.696040 1_546
Al1 Ho3 3.316346 1_655
Al1 Ho3 3.316346 1_555
Al2 Ge0 2.554915 1_555
Al2 Ge0 2.554915 1_655
Al2 Ge9 2.566256 1_555
Al2 Ge1 2.696040 1_555
Al2 Ho0 3.316346 1_555
Al2 Ho0 3.316346 1_655
Al3 Ge1 2.554915 1_555
Al3 Ge1 2.554915 1_455
Al3 Ge8 2.566256 1_555
Al3 Ge0 2.696040 1_555
Al3 Ho1 3.316346 1_455
Al3 Ho1 3.316346 1_555
Ge0 Ho7 2.986559 1_565
Ge0 Ho6 3.029092 1_555
Ge0 Ho6 3.029092 1_455
Ge0 Ho0 3.030258 1_555
Ge1 Ho6 2.986559 1_545
Ge1 Ho7 3.029092 1_655
Ge1 Ho7 3.029092 1_555
Ge1 Ho1 3.030258 1_555
Ge2 Ho5 2.986559 1_555
Ge2 Ho4 3.029092 1_654
Ge2 Ho4 3.029092 1_554
Ge2 Ho2 3.030258 1_555
Ge3 Ho4 2.986559 1_555
Ge3 Ho5 3.029092 1_456
Ge3 Ho5 3.029092 1_556
Ge3 Ho3 3.030258 1_555
Ge4 Ge8 2.576060 1_555
Ge4 Ho5 2.941452 1_555
Ge4 Ho5 2.941452 1_455
Ge4 Ho2 2.968439 1_455
Ge4 Ho2 2.968439 1_555
Ge4 Ho1 3.334421 1_555
Ge4 Ho1 3.334421 1_455
Ge5 Ge9 2.576060 1_555
Ge5 Ho4 2.941452 1_655
Ge5 Ho4 2.941452 1_555
Ge5 Ho3 2.968439 1_655
Ge5 Ho3 2.968439 1_555
Ge5 Ho0 3.334421 1_655
Ge5 Ho0 3.334421 1_555
Ge6 Ge9 2.672498 1_565
Ge6 Ho7 2.941452 1_665
Ge6 Ho7 2.941452 1_565
Ge6 Ho0 2.968439 1_655
Ge6 Ho0 2.968439 1_555
Ge6 Ho3 3.334421 1_565
Ge6 Ho3 3.334421 1_665
Ge7 Ge8 2.672498 1_545
Ge7 Ho6 2.941452 1_545
Ge7 Ho6 2.941452 1_445
Ge7 Ho1 2.968439 1_555
Ge7 Ho1 2.968439 1_455
Ge7 Ho2 3.334421 1_545
Ge7 Ho2 3.334421 1_445
Ge8 Ho1 2.996953 1_555
Ge8 Ho1 2.996953 1_455
Ge8 Ho6 3.049746 1_455
Ge8 Ho6 3.049746 1_555
Ge8 Ho2 3.111848 1_555
Ge8 Ho2 3.111848 1_455
Ge9 Ho0 2.996953 1_555
Ge9 Ho0 2.996953 1_655
Ge9 Ho7 3.049746 1_655
Ge9 Ho7 3.049746 1_555
Ge9 Ho3 3.111848 1_655
Ge9 Ho3 3.111848 1_555
Ge10 Ge6 2.576060 1_555
Ge10 Ge5 2.672498 1_555
Ge10 Ho3 2.996953 1_665
Ge10 Ho3 2.996953 1_565
Ge10 Ho4 3.049746 1_655
Ge10 Ho4 3.049746 1_555
Ge10 Ho0 3.111848 1_655
Ge10 Ho0 3.111848 1_555
Ge11 Ge7 2.576060 1_555
Ge11 Ge4 2.672498 1_555
Ge11 Ho2 2.996953 1_545
Ge11 Ho2 2.996953 1_445
Ge11 Ho5 3.049746 1_555
Ge11 Ho5 3.049746 1_455
Ge11 Ho1 3.111848 1_555
Ge11 Ho1 3.111848 1_455
