# generated using pymatgen
data_AgAu3
_symmetry_space_group_name_H-M   'P 1'
_cell_length_a   5.06796983
_cell_length_b   5.06796983
_cell_length_c   5.06796983
_cell_angle_alpha   132.21895432
_cell_angle_beta   132.21895432
_cell_angle_gamma   69.88343141
_symmetry_Int_Tables_number   1
_chemical_formula_structural   AgAu3
_chemical_formula_sum   'Ag1 Au3'
_cell_volume   70.00433693
_cell_formula_units_Z   1
loop_
 _symmetry_equiv_pos_site_id
 _symmetry_equiv_pos_as_xyz
  1  'x, y, z'
loop_
 _atom_site_type_symbol
 _atom_site_label
 _atom_site_symmetry_multiplicity
 _atom_site_fract_x
 _atom_site_fract_y
 _atom_site_fract_z
 _atom_site_occupancy
  Ag  Ag0  1  -0.00000000  0.00000000  -0.00000000  1
  Au  Au0  1  0.75000200  0.25000100  0.50000100  1
  Au  Au1  1  0.25000100  0.75000200  0.50000100  1
  Au  Au2  1  0.50000000  0.50000000  -0.00000000  1
loop_
_geom_bond_atom_site_label_1
_geom_bond_atom_site_label_2
_geom_bond_distance
_geom_bond_site_symmetry_2
Ag0 Au2 2.902644 1_444
Ag0 Au2 2.902644 1_556
Ag0 Au2 2.902644 1_545
Ag0 Au2 2.902644 1_455
Ag0 Au0 2.920168 1_444
Ag0 Au1 2.920168 1_545
Ag0 Au0 2.920168 1_455
Ag0 Au1 2.920168 1_444
Ag0 Au0 2.920177 1_454
Ag0 Au1 2.920177 1_544
Ag0 Au1 2.920182 1_555
Ag0 Au0 2.920182 1_555
Au0 Au1 2.902638 1_645
Au0 Au1 2.902644 1_656
Au0 Au1 2.902644 1_544
Au0 Au1 2.902649 1_555
Au0 Au2 2.920165 1_656
Au0 Au2 2.920171 1_555
Au0 Au2 2.920180 1_556
Au0 Au2 2.920180 1_545
Au1 Au2 2.920165 1_566
Au1 Au2 2.920171 1_555
Au1 Au2 2.920180 1_556
Au1 Au2 2.920180 1_455
