# generated using pymatgen
data_GeSb
_symmetry_space_group_name_H-M   'P 1'
_cell_length_a   5.88936600
_cell_length_b   5.88936600
_cell_length_c   11.71214200
_cell_angle_alpha   90.00000000
_cell_angle_beta   90.00000000
_cell_angle_gamma   90.00000000
_symmetry_Int_Tables_number   1
_chemical_formula_structural   GeSb
_chemical_formula_sum   'Ge8 Sb8'
_cell_volume   406.23133382
_cell_formula_units_Z   8
loop_
 _symmetry_equiv_pos_site_id
 _symmetry_equiv_pos_as_xyz
  1  'x, y, z'
loop_
 _atom_site_type_symbol
 _atom_site_label
 _atom_site_symmetry_multiplicity
 _atom_site_fract_x
 _atom_site_fract_y
 _atom_site_fract_z
 _atom_site_occupancy
  Ge  Ge0_0  1  0.00000000  0.00000000  0.00000000  1
  Ge  Ge0_1  1  0.00000000  0.00000000  0.50000000  1
  Ge  Ge0_2  1  0.00000000  0.50000000  0.00000000  1
  Ge  Ge0_3  1  0.00000000  0.50000000  0.50000000  1
  Ge  Ge0_4  1  0.50000000  0.00000000  0.00000000  1
  Ge  Ge0_5  1  0.50000000  0.00000000  0.50000000  1
  Ge  Ge0_6  1  0.50000000  0.50000000  0.00000000  1
  Ge  Ge0_7  1  0.50000000  0.50000000  0.50000000  1
  Sb  Sb0_0  1  0.00000000  0.00000000  0.25000000  1
  Sb  Sb0_1  1  0.00000000  0.00000000  0.75000000  1
  Sb  Sb0_2  1  0.00000000  0.50000000  0.25000000  1
  Sb  Sb0_3  1  0.00000000  0.50000000  0.75000000  1
  Sb  Sb0_4  1  0.50000000  0.00000000  0.25000000  1
  Sb  Sb0_5  1  0.50000000  0.00000000  0.75000000  1
  Sb  Sb0_6  1  0.50000000  0.50000000  0.25000000  1
  Sb  Sb0_7  1  0.50000000  0.50000000  0.75000000  1
loop_
_geom_bond_atom_site_label_1
_geom_bond_atom_site_label_2
_geom_bond_distance
_geom_bond_site_symmetry_2
Ge0_0 Sb0_1 2.928036 1_554
Ge0_0 Sb0_0 2.928036 1_555
Ge0_0 Ge0_2 2.944683 1_555
Ge0_0 Ge0_4 2.944683 1_555
Ge0_0 Ge0_4 2.944683 1_455
Ge0_0 Ge0_2 2.944683 1_545
Ge0_1 Sb0_1 2.928036 1_555
Ge0_1 Sb0_0 2.928036 1_555
Ge0_1 Ge0_5 2.944683 1_455
Ge0_1 Ge0_3 2.944683 1_545
Ge0_1 Ge0_5 2.944683 1_555
Ge0_1 Ge0_3 2.944683 1_555
Ge0_2 Sb0_2 2.928036 1_555
Ge0_2 Sb0_3 2.928036 1_554
Ge0_2 Ge0_6 2.944683 1_455
Ge0_2 Ge0_6 2.944683 1_555
Ge0_3 Sb0_3 2.928036 1_555
Ge0_3 Sb0_2 2.928036 1_555
Ge0_3 Ge0_7 2.944683 1_555
Ge0_3 Ge0_7 2.944683 1_455
Ge0_4 Sb0_4 2.928036 1_555
Ge0_4 Sb0_5 2.928036 1_554
Ge0_4 Ge0_6 2.944683 1_545
Ge0_4 Ge0_6 2.944683 1_555
Ge0_5 Sb0_4 2.928036 1_555
Ge0_5 Sb0_5 2.928036 1_555
Ge0_5 Ge0_7 2.944683 1_555
Ge0_5 Ge0_7 2.944683 1_545
Ge0_6 Sb0_7 2.928036 1_554
Ge0_6 Sb0_6 2.928036 1_555
Ge0_7 Sb0_7 2.928036 1_555
Ge0_7 Sb0_6 2.928036 1_555
Sb0_0 Sb0_2 2.944683 1_555
Sb0_0 Sb0_4 2.944683 1_455
Sb0_0 Sb0_2 2.944683 1_545
Sb0_0 Sb0_4 2.944683 1_555
Sb0_1 Sb0_3 2.944683 1_545
Sb0_1 Sb0_5 2.944683 1_455
Sb0_1 Sb0_5 2.944683 1_555
Sb0_1 Sb0_3 2.944683 1_555
Sb0_2 Sb0_6 2.944683 1_455
Sb0_2 Sb0_6 2.944683 1_555
Sb0_3 Sb0_7 2.944683 1_555
Sb0_3 Sb0_7 2.944683 1_455
Sb0_4 Sb0_6 2.944683 1_545
Sb0_4 Sb0_6 2.944683 1_555
Sb0_5 Sb0_7 2.944683 1_555
Sb0_5 Sb0_7 2.944683 1_545
