# generated using pymatgen
data_Mg5Mn3
_symmetry_space_group_name_H-M   'P 1'
_cell_length_a   4.67724356
_cell_length_b   6.02802783
_cell_length_c   11.61988519
_cell_angle_alpha   90.18818539
_cell_angle_beta   113.80133263
_cell_angle_gamma   89.97288371
_symmetry_Int_Tables_number   1
_chemical_formula_structural   Mg5Mn3
_chemical_formula_sum   'Mg10 Mn6'
_cell_volume   299.75196252
_cell_formula_units_Z   2
loop_
 _symmetry_equiv_pos_site_id
 _symmetry_equiv_pos_as_xyz
  1  'x, y, z'
loop_
 _atom_site_type_symbol
 _atom_site_label
 _atom_site_symmetry_multiplicity
 _atom_site_fract_x
 _atom_site_fract_y
 _atom_site_fract_z
 _atom_site_occupancy
  Mg  Mg0  1  0.54502600  0.24632600  0.87795000  1
  Mg  Mg1  1  0.03644200  0.27744800  0.37159000  1
  Mg  Mg2  1  0.29599200  0.49263500  0.62345400  1
  Mg  Mg3  1  0.30046800  0.99734400  0.63019200  1
  Mg  Mg4  1  0.89223100  0.72763400  0.71971500  1
  Mg  Mg5  1  0.77347300  0.51723300  0.11382500  1
  Mg  Mg6  1  0.37381900  0.74453800  0.21407900  1
  Mg  Mg7  1  0.12608200  0.98139700  0.95858300  1
  Mg  Mg8  1  0.35993900  0.23933700  0.19892800  1
  Mg  Mg9  1  0.62661900  0.01047100  0.46007000  1
  Mn  Mn0  1  0.88216500  0.25770200  0.71158100  1
  Mn  Mn1  1  0.55028400  0.74197700  0.88160400  1
  Mn  Mn2  1  0.03022400  0.77489000  0.36711200  1
  Mn  Mn3  1  0.78527200  0.98327300  0.12341000  1
  Mn  Mn4  1  0.11614900  0.49085200  0.95115400  1
  Mn  Mn5  1  0.63781400  0.51694400  0.46875300  1
loop_
_geom_bond_atom_site_label_1
_geom_bond_atom_site_label_2
_geom_bond_distance
_geom_bond_site_symmetry_2
Mg0 Mn4 2.862427 1_655
Mg0 Mn4 2.878600 1_555
Mg0 Mn0 2.918427 1_455
Mg0 Mn0 2.947867 1_555
Mg0 Mg7 2.960165 1_545
Mg0 Mg7 2.960548 1_645
Mg0 Mn1 2.987932 1_555
Mg0 Mg5 2.988175 1_556
Mg0 Mg3 3.027291 1_545
Mg0 Mn1 3.040615 1_545
Mg0 Mn3 3.058331 1_546
Mg0 Mg2 3.090852 1_555
Mg1 Mn5 2.919077 1_455
Mg1 Mn5 2.949663 1_555
Mg1 Mg8 2.968892 1_555
Mg1 Mg2 2.971605 1_555
Mg1 Mg9 2.987603 1_455
Mg1 Mg8 2.993954 1_455
Mg1 Mg9 2.997138 1_555
Mg1 Mn2 2.999140 1_555
Mg1 Mn2 3.029661 1_545
Mg1 Mg5 3.102675 1_455
Mg1 Mn3 3.174121 1_445
Mg1 Mg3 3.231372 1_545
Mg2 Mn5 2.851425 1_555
Mg2 Mn5 2.874807 1_455
Mg2 Mn0 2.882840 1_555
Mg2 Mn0 2.900440 1_455
Mg2 Mg4 2.917293 1_555
Mg2 Mg4 2.918259 1_455
Mg2 Mg3 2.986753 1_545
Mg2 Mg3 3.043015 1_555
Mg2 Mn1 3.124775 1_555
Mg2 Mn2 3.217964 1_555
Mg3 Mn0 2.943855 1_465
Mg3 Mg9 2.945543 1_565
Mg3 Mn0 2.945752 1_565
Mg3 Mg9 2.969781 1_465
Mg3 Mg4 2.998089 1_455
Mg3 Mg4 3.011506 1_555
Mg3 Mn1 3.089022 1_555
Mg3 Mn2 3.097868 1_555
Mg4 Mn0 2.833809 1_555
Mg4 Mn4 2.849021 1_655
Mg4 Mn1 2.888843 1_655
Mg4 Mn1 2.920835 1_555
Mg4 Mn5 2.951138 1_555
Mg4 Mg7 2.960350 1_655
Mg4 Mn0 3.196735 1_565
Mg4 Mg9 3.249510 1_565
Mg5 Mn3 2.810829 1_555
Mg5 Mn1 2.820546 1_554
Mg5 Mn4 2.891099 1_554
Mg5 Mg6 2.910693 1_655
Mg5 Mg6 2.910918 1_555
Mg5 Mn4 2.934313 1_654
Mg5 Mg8 3.013795 1_555
Mg5 Mg8 3.020844 1_655
Mg5 Mn2 3.104138 1_655
Mg5 Mn3 3.220694 1_545
Mg6 Mn2 2.842961 1_555
Mg6 Mn2 2.865899 1_655
Mg6 Mn3 2.902436 1_455
Mg6 Mn3 2.921243 1_555
Mg6 Mg8 2.987562 1_565
Mg6 Mn5 3.039739 1_555
Mg6 Mg8 3.049082 1_555
Mg6 Mg9 3.063005 1_565
Mg6 Mg7 3.073256 1_554
Mg6 Mn4 3.181849 1_554
Mg7 Mn1 2.861274 1_455
Mg7 Mn1 2.870701 1_555
Mg7 Mn3 2.899675 1_556
Mg7 Mn3 2.945071 1_456
Mg7 Mn4 2.957835 1_555
Mg7 Mg8 2.986828 1_566
Mg7 Mn4 3.072308 1_565
Mg7 Mn0 3.114495 1_465
Mg8 Mn3 2.910067 1_445
Mg8 Mn3 2.916758 1_545
Mg8 Mn4 3.043911 1_554
Mg8 Mg9 3.104496 1_555
Mg8 Mn5 3.316387 1_555
Mg9 Mn2 2.894863 1_645
Mg9 Mn2 2.919988 1_545
Mg9 Mn5 2.976756 1_545
Mg9 Mn5 3.054144 1_555
Mg9 Mn0 3.056873 1_555
Mn0 Mn4 2.905048 1_655
Mn0 Mn5 3.022304 1_555
Mn1 Mn4 2.868356 1_655
Mn1 Mn4 2.898845 1_555
Mn1 Mn3 2.949664 1_556
Mn2 Mn3 2.883210 1_455
Mn2 Mn5 2.990937 1_455
Mn2 Mn5 3.031097 1_555
