# generated using pymatgen
data_Na5Mn2P2(CO7)2
_symmetry_space_group_name_H-M   'P 1'
_cell_length_a   6.72119900
_cell_length_b   9.05078200
_cell_length_c   15.77851718
_cell_angle_alpha   89.28453026
_cell_angle_beta   90.00000000
_cell_angle_gamma   90.00000000
_symmetry_Int_Tables_number   1
_chemical_formula_structural   Na5Mn2P2(CO7)2
_chemical_formula_sum   'Na15 Mn6 P6 C6 O42'
_cell_volume   959.76560981
_cell_formula_units_Z   3
loop_
 _symmetry_equiv_pos_site_id
 _symmetry_equiv_pos_as_xyz
  1  'x, y, z'
loop_
 _atom_site_type_symbol
 _atom_site_label
 _atom_site_symmetry_multiplicity
 _atom_site_fract_x
 _atom_site_fract_y
 _atom_site_fract_z
 _atom_site_occupancy
  Na  Na0  1  0.50000000  0.08197200  0.59011800  1
  Na  Na1  1  0.25929000  0.25734500  0.75349200  1
  Na  Na2  1  0.74071000  0.25734500  0.75349200  1
  Na  Na3  1  0.26046700  0.25670900  0.41037400  1
  Na  Na4  1  0.73953300  0.25670900  0.41037400  1
  Na  Na5  1  0.25374600  0.23089300  0.08035600  1
  Na  Na6  1  0.74625400  0.23089300  0.08035600  1
  Na  Na7  1  0.75143900  0.76169300  0.92216300  1
  Na  Na8  1  0.24856100  0.76169300  0.92216300  1
  Na  Na9  1  0.75223600  0.73834100  0.58541200  1
  Na  Na10  1  0.24776400  0.73834100  0.58541200  1
  Na  Na11  1  0.75459600  0.75740600  0.24680100  1
  Na  Na12  1  0.24540400  0.75740600  0.24680100  1
  Na  Na13  1  0.00000000  0.91709700  0.74672700  1
  Na  Na14  1  0.00000000  0.92170100  0.41088100  1
  Mn  Mn0  1  0.00000000  0.35842500  0.92888700  1
  Mn  Mn1  1  0.00000000  0.35624900  0.59211400  1
  Mn  Mn2  1  0.00000000  0.36238900  0.25767100  1
  Mn  Mn3  1  0.50000000  0.64112500  0.74300700  1
  Mn  Mn4  1  0.50000000  0.64550100  0.40530600  1
  Mn  Mn5  1  0.50000000  0.63927500  0.07223900  1
  P  P0  1  0.50000000  0.41850400  0.90508500  1
  P  P1  1  0.50000000  0.41493200  0.56666500  1
  P  P2  1  0.50000000  0.42681600  0.23255900  1
  P  P3  1  0.00000000  0.58074300  0.76842500  1
  P  P4  1  0.00000000  0.58648600  0.43062400  1
  P  P5  1  0.00000000  0.57501300  0.09838800  1
  C  C0  1  0.00000000  0.07445200  0.90500800  1
  C  C1  1  0.00000000  0.05724500  0.57555100  1
  C  C2  1  0.00000000  0.07525100  0.24675400  1
  C  C3  1  0.50000000  0.93541100  0.75213600  1
  C  C4  1  0.50000000  0.93373700  0.42787200  1
  C  C5  1  0.50000000  0.91748900  0.09037100  1
  O  O0  1  0.50000000  0.07746500  0.75095200  1
  O  O1  1  0.50000000  0.07508700  0.43430900  1
  O  O2  1  0.50000000  0.05557000  0.08948000  1
  O  O3  1  0.00000000  0.14522600  0.97710100  1
  O  O4  1  0.00000000  0.11905300  0.64974200  1
  O  O5  1  0.00000000  0.15704500  0.31654300  1
  O  O6  1  0.00000000  0.15703900  0.83681300  1
  O  O7  1  0.00000000  0.14070000  0.50750800  1
  O  O8  1  0.00000000  0.14756300  0.17627900  1
  O  O9  1  0.31099400  0.33173600  0.93315000  1
  O  O10  1  0.68900600  0.33173600  0.93315000  1
  O  O11  1  0.31552300  0.32011500  0.59068700  1
  O  O12  1  0.68447700  0.32011500  0.59068700  1
  O  O13  1  0.31222400  0.33683200  0.25764900  1
  O  O14  1  0.68777600  0.33683200  0.25764900  1
  O  O15  1  0.50000000  0.43467200  0.80637800  1
  O  O16  1  0.00000000  0.42961100  0.72398800  1
  O  O17  1  0.50000000  0.44285900  0.46771300  1
  O  O18  1  0.00000000  0.43265900  0.38854900  1
  O  O19  1  0.50000000  0.44841300  0.13260300  1
  O  O20  1  0.00000000  0.41813500  0.06041800  1
  O  O21  1  0.50000000  0.57575900  0.94438700  1
  O  O22  1  0.00000000  0.55345700  0.86790300  1
  O  O23  1  0.50000000  0.56577800  0.61151800  1
  O  O24  1  0.00000000  0.56606200  0.52897500  1
  O  O25  1  0.50000000  0.58050100  0.27408700  1
  O  O26  1  0.00000000  0.55769200  0.19872300  1
  O  O27  1  0.81640500  0.67649700  0.74500500  1
  O  O28  1  0.18359500  0.67649700  0.74500500  1
  O  O29  1  0.81540900  0.68010500  0.40350700  1
  O  O30  1  0.18459100  0.68010500  0.40350700  1
  O  O31  1  0.81269200  0.66378800  0.07239800  1
  O  O32  1  0.18730800  0.66378800  0.07239800  1
  O  O33  1  0.50000000  0.85572400  0.82096400  1
  O  O34  1  0.50000000  0.84904100  0.49566700  1
  O  O35  1  0.50000000  0.83289900  0.15760000  1
  O  O36  1  0.50000000  0.86531900  0.67917900  1
  O  O37  1  0.50000000  0.86795400  0.35476100  1
  O  O38  1  0.50000000  0.84025000  0.01899500  1
  O  O39  1  0.00000000  0.93381500  0.90149800  1
  O  O40  1  0.00000000  0.91450800  0.56940200  1
  O  O41  1  0.00000000  0.93498400  0.25577900  1
loop_
_geom_bond_atom_site_label_1
_geom_bond_atom_site_label_2
_geom_bond_distance
_geom_bond_site_symmetry_2
Na0 O36 2.398116 1_545
Na0 O1 2.460002 1_555
Na0 O11 2.486684 1_555
Na0 O12 2.486684 1_555
Na0 O0 2.537541 1_555
Na0 O34 2.596919 1_545
Na1 O0 2.295924 1_555
Na1 O6 2.357946 1_555
Na1 O16 2.380474 1_555
Na1 O15 2.433743 1_555
Na1 O11 2.651038 1_555
Na1 O4 2.708280 1_555
Na1 O9 2.942362 1_555
Na2 O0 2.295924 1_555
Na2 O6 2.357946 1_655
Na2 O16 2.380474 1_655
Na2 O15 2.433743 1_555
Na2 O12 2.651038 1_555
Na2 O4 2.708280 1_655
Na2 O10 2.942362 1_555
Na3 O1 2.328348 1_555
Na3 O18 2.388656 1_555
Na3 O5 2.470571 1_555
Na3 O17 2.507407 1_555
Na3 O13 2.531849 1_555
Na3 O7 2.544796 1_555
Na3 O11 2.932826 1_555
Na4 O1 2.328348 1_555
Na4 O18 2.388656 1_655
Na4 O5 2.470571 1_655
Na4 O17 2.507407 1_555
Na4 O14 2.531849 1_555
Na4 O7 2.544796 1_655
Na4 O12 2.932826 1_555
Na5 O2 2.296174 1_555
Na5 O8 2.395771 1_555
Na5 O20 2.422038 1_555
Na5 O3 2.489117 1_554
Na5 O9 2.514566 1_554
Na5 O19 2.708403 1_555
Na6 O2 2.296174 1_555
Na6 O8 2.395771 1_655
Na6 O20 2.422038 1_655
Na6 O3 2.489117 1_654
Na6 O10 2.514566 1_554
Na6 O19 2.708403 1_555
Na7 O39 2.304667 1_655
Na7 O38 2.392286 1_556
Na7 O21 2.407531 1_555
Na7 O33 2.469015 1_555
Na7 O31 2.553711 1_556
Na7 O22 2.667651 1_655
Na7 O27 2.941551 1_555
Na8 O39 2.304667 1_555
Na8 O38 2.392286 1_556
Na8 O21 2.407531 1_555
Na8 O33 2.469015 1_555
Na8 O32 2.553711 1_556
Na8 O22 2.667651 1_555
Na8 O28 2.941551 1_555
Na9 O40 2.317143 1_655
Na9 O23 2.338174 1_555
Na9 O34 2.418208 1_555
Na9 O24 2.456028 1_655
Na9 O36 2.535017 1_555
Na9 O27 2.608668 1_555
Na10 O40 2.317143 1_555
Na10 O23 2.338174 1_555
Na10 O34 2.418208 1_555
Na10 O24 2.456028 1_555
Na10 O36 2.535017 1_555
Na10 O28 2.608668 1_555
Na11 O41 2.308562 1_655
Na11 O35 2.313430 1_555
Na11 O25 2.379060 1_555
Na11 O26 2.568574 1_655
Na11 O29 2.593655 1_555
Na11 O37 2.621749 1_555
Na11 O31 2.915675 1_555
Na12 O41 2.308562 1_555
Na12 O35 2.313430 1_555
Na12 O25 2.379060 1_555
Na12 O26 2.568574 1_555
Na12 O30 2.593655 1_555
Na12 O37 2.621749 1_555
Na12 O32 2.915675 1_555
Na13 O4 2.369171 1_565
Na13 O39 2.448625 1_555
Na13 O28 2.503386 1_555
Na13 O27 2.503386 1_455
Na13 O6 2.610298 1_565
Na13 O40 2.798316 1_555
Na14 O41 2.448731 1_555
Na14 O40 2.501261 1_555
Na14 O7 2.515698 1_565
Na14 O30 2.518040 1_555
Na14 O29 2.518040 1_455
Na14 O5 2.583330 1_565
Mn0 O22 1.999846 1_555
Mn0 O3 2.065308 1_555
Mn0 O9 2.105142 1_555
Mn0 O10 2.105142 1_455
Mn0 O20 2.151093 1_556
Mn0 O6 2.344989 1_555
Mn1 O24 2.133387 1_555
Mn1 O11 2.145923 1_555
Mn1 O12 2.145923 1_455
Mn1 O16 2.192033 1_555
Mn1 O4 2.320956 1_555
Mn1 O7 2.377627 1_555
Mn2 O26 1.987113 1_555
Mn2 O5 2.067335 1_555
Mn2 O13 2.111230 1_555
Mn2 O14 2.111230 1_455
Mn2 O18 2.168357 1_555
Mn2 O8 2.343527 1_555
Mn3 O15 2.108236 1_555
Mn3 O27 2.150873 1_555
Mn3 O28 2.150873 1_555
Mn3 O23 2.191980 1_555
Mn3 O36 2.254021 1_555
Mn3 O33 2.311961 1_555
Mn4 O17 2.070826 1_555
Mn4 O29 2.143073 1_555
Mn4 O30 2.143073 1_555
Mn4 O37 2.156297 1_555
Mn4 O25 2.159455 1_555
Mn4 O34 2.343519 1_555
Mn5 O19 1.962183 1_555
Mn5 O38 1.994070 1_555
Mn5 O21 2.104518 1_554
Mn5 O31 2.113348 1_555
Mn5 O32 2.113348 1_555
Mn5 O35 2.223529 1_555
C0 O39 1.274770 1_545
C0 O6 1.302477 1_555
C0 O3 1.312428 1_555
C1 O40 1.296727 1_545
C1 O4 1.303708 1_555
C1 O7 1.304964 1_555
C2 O41 1.275719 1_545
C2 O8 1.283235 1_555
C2 O5 1.334530 1_555
C3 O0 1.285602 1_565
C3 O33 1.296154 1_555
C3 O36 1.321302 1_555
C4 O1 1.284617 1_565
C4 O37 1.304758 1_555
C4 O34 1.308209 1_555
C5 O2 1.249645 1_565
C5 O35 1.300427 1_555
C5 O38 1.332932 1_555
O9 P0 1.554964 1_555
O10 P0 1.554964 1_555
O11 P1 1.552212 1_555
O12 P1 1.552212 1_555
O13 P2 1.550744 1_555
O14 P2 1.550744 1_555
O15 P0 1.562489 1_555
O16 P3 1.544866 1_555
O17 P1 1.578525 1_555
O18 P4 1.549901 1_555
O19 P2 1.586800 1_555
O20 P5 1.547968 1_555
O21 P0 1.559592 1_555
O22 P3 1.585875 1_555
O23 P1 1.545627 1_555
O24 P4 1.560510 1_555
O25 P2 1.544963 1_555
O26 P5 1.588931 1_555
O27 P3 1.549948 1_655
O28 P3 1.549948 1_555
O29 P4 1.559245 1_655
O30 P4 1.559245 1_555
O31 P5 1.546105 1_655
O32 P5 1.546105 1_555
