# generated using pymatgen
data_ZrCu
_symmetry_space_group_name_H-M   'P 1'
_cell_length_a   8.27643200
_cell_length_b   6.48437800
_cell_length_c   11.01912610
_cell_angle_alpha   74.08954990
_cell_angle_beta   90.00000000
_cell_angle_gamma   90.00000000
_symmetry_Int_Tables_number   1
_chemical_formula_structural   ZrCu
_chemical_formula_sum   'Zr16 Cu16'
_cell_volume   568.71453406
_cell_formula_units_Z   16
loop_
 _symmetry_equiv_pos_site_id
 _symmetry_equiv_pos_as_xyz
  1  'x, y, z'
loop_
 _atom_site_type_symbol
 _atom_site_label
 _atom_site_symmetry_multiplicity
 _atom_site_fract_x
 _atom_site_fract_y
 _atom_site_fract_z
 _atom_site_occupancy
  Zr  Zr0_0  1  0.37500000  0.32370100  0.09683750  1
  Zr  Zr0_1  1  0.37500000  0.32370100  0.59683750  1
  Zr  Zr0_2  1  0.37500000  0.82370100  0.09683750  1
  Zr  Zr0_3  1  0.37500000  0.82370100  0.59683750  1
  Zr  Zr0_4  1  0.87500000  0.32370100  0.09683750  1
  Zr  Zr0_5  1  0.87500000  0.32370100  0.59683750  1
  Zr  Zr0_6  1  0.87500000  0.82370100  0.09683750  1
  Zr  Zr0_7  1  0.87500000  0.82370100  0.59683750  1
  Zr  Zr1_0  1  0.12500000  0.17629900  0.40316250  1
  Zr  Zr1_1  1  0.12500000  0.17629900  0.90316250  1
  Zr  Zr1_2  1  0.12500000  0.67629900  0.40316250  1
  Zr  Zr1_3  1  0.12500000  0.67629900  0.90316250  1
  Zr  Zr1_4  1  0.62500000  0.17629900  0.40316250  1
  Zr  Zr1_5  1  0.62500000  0.17629900  0.90316250  1
  Zr  Zr1_6  1  0.62500000  0.67629900  0.40316250  1
  Zr  Zr1_7  1  0.62500000  0.67629900  0.90316250  1
  Cu  Cu0_0  1  0.37500000  0.47039150  0.31884850  1
  Cu  Cu0_1  1  0.37500000  0.47039150  0.81884850  1
  Cu  Cu0_2  1  0.37500000  0.97039150  0.31884850  1
  Cu  Cu0_3  1  0.37500000  0.97039150  0.81884850  1
  Cu  Cu0_4  1  0.87500000  0.47039150  0.31884850  1
  Cu  Cu0_5  1  0.87500000  0.47039150  0.81884850  1
  Cu  Cu0_6  1  0.87500000  0.97039150  0.31884850  1
  Cu  Cu0_7  1  0.87500000  0.97039150  0.81884850  1
  Cu  Cu1_0  1  0.12500000  0.02960850  0.18115150  1
  Cu  Cu1_1  1  0.12500000  0.02960850  0.68115150  1
  Cu  Cu1_2  1  0.12500000  0.52960850  0.18115150  1
  Cu  Cu1_3  1  0.12500000  0.52960850  0.68115150  1
  Cu  Cu1_4  1  0.62500000  0.02960850  0.18115150  1
  Cu  Cu1_5  1  0.62500000  0.02960850  0.68115150  1
  Cu  Cu1_6  1  0.62500000  0.52960850  0.18115150  1
  Cu  Cu1_7  1  0.62500000  0.52960850  0.68115150  1
loop_
_geom_bond_atom_site_label_1
_geom_bond_atom_site_label_2
_geom_bond_distance
_geom_bond_site_symmetry_2
Zr0_0 Zr0_2 3.242189 1_545
Zr0_0 Zr0_2 3.242189 1_555
Zr0_0 Zr1_5 3.296614 1_554
Zr0_0 Zr1_1 3.296614 1_554
Zr0_0 Zr1_7 3.374612 1_554
Zr0_0 Zr1_3 3.374612 1_554
Zr0_1 Zr0_3 3.242189 1_555
Zr0_1 Zr0_3 3.242189 1_545
Zr0_1 Zr1_4 3.296614 1_555
Zr0_1 Zr1_0 3.296614 1_555
Zr0_1 Zr1_2 3.374612 1_555
Zr0_1 Zr1_6 3.374612 1_555
Zr0_2 Zr1_7 3.296614 1_554
Zr0_2 Zr1_3 3.296614 1_554
Zr0_2 Zr1_1 3.374612 1_564
Zr0_2 Zr1_5 3.374612 1_564
Zr0_3 Zr1_6 3.296614 1_555
Zr0_3 Zr1_2 3.296614 1_555
Zr0_3 Zr1_4 3.374612 1_565
Zr0_3 Zr1_0 3.374612 1_565
Zr0_4 Zr0_6 3.242189 1_545
Zr0_4 Zr0_6 3.242189 1_555
Zr0_4 Zr1_5 3.296614 1_554
Zr0_4 Zr1_1 3.296614 1_654
Zr0_4 Zr1_7 3.374612 1_554
Zr0_4 Zr1_3 3.374612 1_654
Zr0_5 Zr0_7 3.242189 1_555
Zr0_5 Zr0_7 3.242189 1_545
Zr0_5 Zr1_4 3.296614 1_555
Zr0_5 Zr1_0 3.296614 1_655
Zr0_5 Zr1_6 3.374612 1_555
Zr0_5 Zr1_2 3.374612 1_655
Zr0_6 Zr1_3 3.296614 1_654
Zr0_6 Zr1_7 3.296614 1_554
Zr0_6 Zr1_5 3.374612 1_564
Zr0_6 Zr1_1 3.374612 1_664
Zr0_7 Zr1_2 3.296614 1_655
Zr0_7 Zr1_6 3.296614 1_555
Zr0_7 Zr1_4 3.374612 1_565
Zr0_7 Zr1_0 3.374612 1_665
Zr1_0 Zr1_2 3.242189 1_555
Zr1_0 Zr1_2 3.242189 1_545
Zr1_1 Zr1_3 3.242189 1_545
Zr1_1 Zr1_3 3.242189 1_555
Zr1_4 Zr1_6 3.242189 1_545
Zr1_4 Zr1_6 3.242189 1_555
Zr1_5 Zr1_7 3.242189 1_555
Zr1_5 Zr1_7 3.242189 1_545
Cu0_0 Cu1_2 2.532078 1_555
Cu0_0 Cu1_6 2.532078 1_555
Cu0_0 Zr1_2 2.758115 1_555
Cu0_0 Zr1_6 2.758115 1_555
Cu0_0 Zr1_0 2.794577 1_555
Cu0_0 Zr1_4 2.794577 1_555
Cu0_0 Zr0_2 2.856663 1_555
Cu0_0 Zr0_0 2.857498 1_555
Cu0_0 Zr0_1 2.947957 1_555
Cu0_1 Cu1_3 2.532078 1_555
Cu0_1 Cu1_7 2.532078 1_555
Cu0_1 Zr1_3 2.758115 1_555
Cu0_1 Zr1_7 2.758115 1_555
Cu0_1 Zr1_1 2.794577 1_555
Cu0_1 Zr1_5 2.794577 1_555
Cu0_1 Zr0_3 2.856663 1_555
Cu0_1 Zr0_1 2.857498 1_555
Cu0_1 Zr0_0 2.947957 1_556
Cu0_2 Cu1_0 2.532078 1_565
Cu0_2 Cu1_4 2.532078 1_565
Cu0_2 Zr1_0 2.758115 1_565
Cu0_2 Zr1_4 2.758115 1_565
Cu0_2 Zr1_2 2.794577 1_555
Cu0_2 Zr1_6 2.794577 1_555
Cu0_2 Zr0_0 2.856663 1_565
Cu0_2 Zr0_2 2.857498 1_555
Cu0_2 Zr0_3 2.947957 1_555
Cu0_3 Cu1_1 2.532078 1_565
Cu0_3 Cu1_5 2.532078 1_565
Cu0_3 Zr1_1 2.758115 1_565
Cu0_3 Zr1_5 2.758115 1_565
Cu0_3 Zr1_3 2.794577 1_555
Cu0_3 Zr1_7 2.794577 1_555
Cu0_3 Zr0_1 2.856663 1_565
Cu0_3 Zr0_3 2.857498 1_555
Cu0_3 Zr0_2 2.947957 1_556
Cu0_4 Cu1_6 2.532078 1_555
Cu0_4 Cu1_2 2.532078 1_655
Cu0_4 Zr1_2 2.758115 1_655
Cu0_4 Zr1_6 2.758115 1_555
Cu0_4 Zr1_4 2.794577 1_555
Cu0_4 Zr1_0 2.794577 1_655
Cu0_4 Zr0_6 2.856663 1_555
Cu0_4 Zr0_4 2.857498 1_555
Cu0_4 Zr0_5 2.947957 1_555
Cu0_5 Cu1_3 2.532078 1_655
Cu0_5 Cu1_7 2.532078 1_555
Cu0_5 Zr1_3 2.758115 1_655
Cu0_5 Zr1_7 2.758115 1_555
Cu0_5 Zr1_1 2.794577 1_655
Cu0_5 Zr1_5 2.794577 1_555
Cu0_5 Zr0_7 2.856663 1_555
Cu0_5 Zr0_5 2.857498 1_555
Cu0_5 Zr0_4 2.947957 1_556
Cu0_6 Cu1_0 2.532078 1_665
Cu0_6 Cu1_4 2.532078 1_565
Cu0_6 Zr1_0 2.758115 1_665
Cu0_6 Zr1_4 2.758115 1_565
Cu0_6 Zr1_2 2.794577 1_655
Cu0_6 Zr1_6 2.794577 1_555
Cu0_6 Zr0_4 2.856663 1_565
Cu0_6 Zr0_6 2.857498 1_555
Cu0_6 Zr0_7 2.947957 1_555
Cu0_7 Cu1_5 2.532078 1_565
Cu0_7 Cu1_1 2.532078 1_665
Cu0_7 Zr1_5 2.758115 1_565
Cu0_7 Zr1_1 2.758115 1_665
Cu0_7 Zr1_3 2.794577 1_655
Cu0_7 Zr1_7 2.794577 1_555
Cu0_7 Zr0_5 2.856663 1_565
Cu0_7 Zr0_7 2.857498 1_555
Cu0_7 Zr0_6 2.947957 1_556
Cu1_0 Zr0_6 2.758115 1_445
Cu1_0 Zr0_2 2.758115 1_545
Cu1_0 Zr0_0 2.794577 1_555
Cu1_0 Zr0_4 2.794577 1_455
Cu1_0 Zr1_2 2.856663 1_545
Cu1_0 Zr1_0 2.857498 1_555
Cu1_0 Zr1_1 2.947957 1_554
Cu1_1 Zr0_3 2.758115 1_545
Cu1_1 Zr0_7 2.758115 1_445
Cu1_1 Zr0_1 2.794577 1_555
Cu1_1 Zr0_5 2.794577 1_455
Cu1_1 Zr1_3 2.856663 1_545
Cu1_1 Zr1_1 2.857498 1_555
Cu1_1 Zr1_0 2.947957 1_555
Cu1_2 Zr0_0 2.758115 1_555
Cu1_2 Zr0_4 2.758115 1_455
Cu1_2 Zr0_6 2.794577 1_455
Cu1_2 Zr0_2 2.794577 1_555
Cu1_2 Zr1_0 2.856663 1_555
Cu1_2 Zr1_2 2.857498 1_555
Cu1_2 Zr1_3 2.947957 1_554
Cu1_3 Zr0_5 2.758115 1_455
Cu1_3 Zr0_1 2.758115 1_555
Cu1_3 Zr0_3 2.794577 1_555
Cu1_3 Zr0_7 2.794577 1_455
Cu1_3 Zr1_1 2.856663 1_555
Cu1_3 Zr1_3 2.857498 1_555
Cu1_3 Zr1_2 2.947957 1_555
Cu1_4 Zr0_2 2.758115 1_545
Cu1_4 Zr0_6 2.758115 1_545
Cu1_4 Zr0_0 2.794577 1_555
Cu1_4 Zr0_4 2.794577 1_555
Cu1_4 Zr1_6 2.856663 1_545
Cu1_4 Zr1_4 2.857498 1_555
Cu1_4 Zr1_5 2.947957 1_554
Cu1_5 Zr0_3 2.758115 1_545
Cu1_5 Zr0_7 2.758115 1_545
Cu1_5 Zr0_1 2.794577 1_555
Cu1_5 Zr0_5 2.794577 1_555
Cu1_5 Zr1_7 2.856663 1_545
Cu1_5 Zr1_5 2.857498 1_555
Cu1_5 Zr1_4 2.947957 1_555
Cu1_6 Zr0_0 2.758115 1_555
Cu1_6 Zr0_4 2.758115 1_555
Cu1_6 Zr0_6 2.794577 1_555
Cu1_6 Zr0_2 2.794577 1_555
Cu1_6 Zr1_4 2.856663 1_555
Cu1_6 Zr1_6 2.857498 1_555
Cu1_6 Zr1_7 2.947957 1_554
Cu1_7 Zr0_5 2.758115 1_555
Cu1_7 Zr0_1 2.758115 1_555
Cu1_7 Zr0_7 2.794577 1_555
Cu1_7 Zr0_3 2.794577 1_555
Cu1_7 Zr1_5 2.856663 1_555
Cu1_7 Zr1_7 2.857498 1_555
Cu1_7 Zr1_6 2.947957 1_555
