# generated using pymatgen
data_UAlNi4
_symmetry_space_group_name_H-M   'P 1'
_cell_length_a   4.81631939
_cell_length_b   4.81628716
_cell_length_c   4.81589506
_cell_angle_alpha   60.00178344
_cell_angle_beta   59.99931409
_cell_angle_gamma   60.00249930
_symmetry_Int_Tables_number   1
_chemical_formula_structural   UAlNi4
_chemical_formula_sum   'U1 Al1 Ni4'
_cell_volume   78.99534013
_cell_formula_units_Z   1
loop_
 _symmetry_equiv_pos_site_id
 _symmetry_equiv_pos_as_xyz
  1  'x, y, z'
loop_
 _atom_site_type_symbol
 _atom_site_label
 _atom_site_symmetry_multiplicity
 _atom_site_fract_x
 _atom_site_fract_y
 _atom_site_fract_z
 _atom_site_occupancy
  U  U0  1  0.99999404  0.00000116  -0.00000054  1
  Al  Al0  1  0.25001001  0.24998658  0.24999507  1
  Ni  Ni0  1  0.62359885  0.62365112  0.62361647  1
  Ni  Ni1  1  0.12912522  0.62361641  0.62365746  1
  Ni  Ni2  1  0.62361487  0.12911834  0.62363201  1
  Ni  Ni3  1  0.62365702  0.62362640  0.12909953  1
loop_
_geom_bond_atom_site_label_1
_geom_bond_atom_site_label_2
_geom_bond_distance
_geom_bond_site_symmetry_2
Al0 Ni2 2.820725 1_554
Al0 Ni1 2.820751 1_554
Al0 Ni2 2.820922 1_555
Al0 Ni0 2.820922 1_554
Al0 Ni0 2.820937 1_545
Al0 Ni1 2.821026 1_555
Al0 Ni3 2.821033 1_545
Al0 Ni1 2.821046 1_545
Al0 Ni3 2.821058 1_455
Al0 Ni2 2.821073 1_455
Al0 Ni3 2.821122 1_555
Al0 Ni0 2.821137 1_455
Al0 U0 2.949145 1_456
Al0 U0 2.949250 1_455
Al0 U0 2.949346 1_555
Al0 U0 2.949519 1_465
Ni0 Ni3 2.381461 1_555
Ni0 Ni1 2.381528 1_555
Ni0 Ni2 2.381736 1_555
Ni0 Ni3 2.434434 1_556
Ni0 Ni2 2.434551 1_565
Ni0 Ni1 2.434792 1_655
Ni0 U0 2.826532 1_565
Ni0 U0 2.826558 1_466
Ni0 U0 2.826855 1_556
Ni1 Ni2 2.381722 1_555
Ni1 Ni3 2.381756 1_555
Ni1 Ni3 2.434301 1_456
Ni1 Ni2 2.434763 1_465
Ni1 U0 2.826412 1_466
Ni1 U0 2.826665 1_456
Ni1 U0 2.826683 1_465
Ni2 Ni3 2.381719 1_555
Ni2 Ni3 2.434502 1_546
Ni2 U0 2.826451 1_555
Ni2 U0 2.826592 1_556
Ni2 U0 2.826617 1_456
Ni3 U0 2.826556 1_565
Ni3 U0 2.826646 1_555
Ni3 U0 2.826857 1_465
