# generated using pymatgen
data_Li6Zn3(PS4)4
_symmetry_space_group_name_H-M   'P 1'
_cell_length_a   9.13935276
_cell_length_b   11.51425727
_cell_length_c   22.95385904
_cell_angle_alpha   89.96270468
_cell_angle_beta   89.99177193
_cell_angle_gamma   89.96755805
_symmetry_Int_Tables_number   1
_chemical_formula_structural   Li6Zn3(PS4)4
_chemical_formula_sum   'Li24 Zn12 P16 S64'
_cell_volume   2415.49928687
_cell_formula_units_Z   4
loop_
 _symmetry_equiv_pos_site_id
 _symmetry_equiv_pos_as_xyz
  1  'x, y, z'
loop_
 _atom_site_type_symbol
 _atom_site_label
 _atom_site_symmetry_multiplicity
 _atom_site_fract_x
 _atom_site_fract_y
 _atom_site_fract_z
 _atom_site_occupancy
  Li  Li0  1  0.74614352  0.50662159  0.12570122  1
  Li  Li1  1  0.74964441  0.99374226  0.12747456  1
  Li  Li2  1  0.24763784  0.24085263  0.24961003  1
  Li  Li3  1  0.24875648  0.24997396  -0.00003046  1
  Li  Li4  1  0.50335697  0.50068681  0.75015046  1
  Li  Li5  1  0.50065627  0.99761343  0.74892649  1
  Li  Li6  1  0.50085288  0.49870782  0.50089011  1
  Li  Li7  1  0.50624062  0.99687337  0.50174155  1
  Li  Li8  1  0.00340393  0.24992005  0.62520897  1
  Li  Li9  1  0.00615239  0.75241853  0.62383032  1
  Li  Li10  1  0.49236652  0.50327765  0.25156923  1
  Li  Li11  1  0.50062706  0.99700573  0.25012995  1
  Li  Li12  1  0.99506046  0.24810316  0.37855405  1
  Li  Li13  1  0.00484946  0.75001494  0.37605754  1
  Li  Li14  1  0.50068364  0.50349957  0.99961466  1
  Li  Li15  1  0.50143714  0.99803335  0.99561445  1
  Li  Li16  1  0.98806658  0.24804041  0.12407996  1
  Li  Li17  1  0.01976909  0.74820555  0.12750338  1
  Li  Li18  1  0.98656965  0.25181065  0.87128160  1
  Li  Li19  1  0.00529160  0.75274040  0.87375739  1
  Li  Li20  1  0.49920786  0.74807949  0.87507847  1
  Li  Li21  1  0.48221999  0.75150643  0.12400979  1
  Li  Li22  1  0.50563226  0.25161300  0.12598979  1
  Li  Li23  1  0.99744643  0.00021757  0.25299398  1
  Zn  Zn0  1  0.50328073  0.25055130  0.87159777  1
  Zn  Zn1  1  0.50197780  0.75073851  0.62585992  1
  Zn  Zn2  1  0.49701265  0.25009903  0.62496481  1
  Zn  Zn3  1  0.99876446  0.50180254  0.74818855  1
  Zn  Zn4  1  0.99729445  0.00001450  0.74996279  1
  Zn  Zn5  1  0.50081140  0.75105028  0.37432299  1
  Zn  Zn6  1  0.50664140  0.24900727  0.37830629  1
  Zn  Zn7  1  0.99912446  0.50112487  0.50107601  1
  Zn  Zn8  1  0.00096947  -0.00015929  0.50106079  1
  Zn  Zn9  1  0.00006694  0.50075006  0.25117816  1
  Zn  Zn10  1  0.99808507  0.49999583  0.99688393  1
  Zn  Zn11  1  0.00148677  0.99647117  0.99970306  1
  P  P0  1  0.75188641  0.74639501  0.74876578  1
  P  P1  1  0.74924011  0.25088687  0.74843956  1
  P  P2  1  0.75052942  0.74899885  0.49969895  1
  P  P3  1  0.75134127  0.24983582  0.50105403  1
  P  P4  1  0.25122363  0.50002378  0.62468537  1
  P  P5  1  0.25069806  0.00008199  0.62514734  1
  P  P6  1  0.74961591  0.75266314  0.25252263  1
  P  P7  1  0.74854831  0.25699060  0.24900867  1
  P  P8  1  0.24822296  0.49908221  0.37531000  1
  P  P9  1  0.25490215  0.00499451  0.37688672  1
  P  P10  1  0.75189538  0.74965749  0.00112226  1
  P  P11  1  0.74739237  0.24447407  0.99949926  1
  P  P12  1  0.24804035  0.49380975  0.12435653  1
  P  P13  1  0.25047336  0.00257719  0.12464310  1
  P  P14  1  0.25131027  0.49699038  0.87612076  1
  P  P15  1  0.24640815  0.00341077  0.87257359  1
  S  S0  1  0.87266045  0.64299566  0.94797341  1
  S  S1  1  0.87190202  0.14012994  0.94793645  1
  S  S2  1  0.87343722  0.64106454  0.69486104  1
  S  S3  1  0.86579031  0.13983746  0.69671177  1
  S  S4  1  0.36344942  0.38637502  0.82208161  1
  S  S5  1  0.36567716  0.89694375  0.82349937  1
  S  S6  1  0.86659187  0.63782052  0.44744838  1
  S  S7  1  0.86274930  0.13644274  0.44868832  1
  S  S8  1  0.36420117  0.38766796  0.57192967  1
  S  S9  1  0.36513829  0.88795437  0.57291647  1
  S  S10  1  0.87146650  0.64057885  0.19853590  1
  S  S11  1  0.86652296  0.14507495  0.19857258  1
  S  S12  1  0.36945928  0.38594203  0.32398853  1
  S  S13  1  0.36586740  0.89230326  0.32363735  1
  S  S14  1  0.36860397  0.38749677  0.07198125  1
  S  S15  1  0.37037234  0.90258057  0.07147087  1
  S  S16  1  0.63195877  0.35447909  0.69314123  1
  S  S17  1  0.63945569  0.85469015  0.69276181  1
  S  S18  1  0.64042398  0.35679026  0.44468272  1
  S  S19  1  0.63555479  0.85334111  0.44375243  1
  S  S20  1  0.13585683  0.10488504  0.56915260  1
  S  S21  1  0.13754769  0.60492388  0.56838438  1
  S  S22  1  0.62734615  0.36331757  0.19687883  1
  S  S23  1  0.62851889  0.85024285  0.19605426  1
  S  S24  1  0.13228548  0.10792857  0.32355964  1
  S  S25  1  0.13880759  0.60418197  0.31841516  1
  S  S26  1  0.63100430  0.35081794  0.94540152  1
  S  S27  1  0.64057521  0.85247804  0.94716056  1
  S  S28  1  0.12465198  0.11040863  0.06947901  1
  S  S29  1  0.12227087  0.59576006  0.07123762  1
  S  S30  1  0.12589851  0.10946829  0.81954497  1
  S  S31  1  0.13067424  0.59874555  0.82105144  1
  S  S32  1  0.86698413  0.85976779  0.80104256  1
  S  S33  1  0.86026262  0.36509397  0.80026904  1
  S  S34  1  0.86506381  0.86079652  0.55194146  1
  S  S35  1  0.86784378  0.36063639  0.55292034  1
  S  S36  1  0.36679199  0.61063071  0.67690990  1
  S  S37  1  0.36536624  0.11162882  0.67734013  1
  S  S38  1  0.86883258  0.85475996  0.30394124  1
  S  S39  1  0.87174558  0.35968153  0.30299944  1
  S  S40  1  0.36771254  0.60847345  0.42624887  1
  S  S41  1  0.37468519  0.11124618  0.43017009  1
  S  S42  1  0.87938138  0.85600232  0.05526660  1
  S  S43  1  0.86574078  0.35978702  0.05126530  1
  S  S44  1  0.36092128  0.60107582  0.17593301  1
  S  S45  1  0.37133873  0.11102653  0.17711030  1
  S  S46  1  0.36033897  0.60424153  0.92858783  1
  S  S47  1  0.36751422  0.11589479  0.92592445  1
  S  S48  1  0.63755092  0.64504086  0.80288630  1
  S  S49  1  0.63776229  0.14432127  0.80463575  1
  S  S50  1  0.63421795  0.64552089  0.55529070  1
  S  S51  1  0.63459059  0.14661497  0.55641121  1
  S  S52  1  0.13651792  0.39564869  0.68047211  1
  S  S53  1  0.13502200  0.89692208  0.68090599  1
  S  S54  1  0.62916646  0.64401941  0.30460672  1
  S  S55  1  0.62898743  0.15164580  0.30320732  1
  S  S56  1  0.13265398  0.39565778  0.43071178  1
  S  S57  1  0.13785286  0.89924317  0.43136628  1
  S  S58  1  0.63254294  0.64679537  0.05605835  1
  S  S59  1  0.62919555  0.14215389  0.05381082  1
  S  S60  1  0.12193552  0.38859170  0.17946294  1
  S  S61  1  0.12524313  0.90490354  0.17716160  1
  S  S62  1  0.12337335  0.38813849  0.92911520  1
  S  S63  1  0.13682289  0.89847949  0.93046109  1
loop_
_geom_bond_atom_site_label_1
_geom_bond_atom_site_label_2
_geom_bond_distance
_geom_bond_site_symmetry_2
Li0 S58 2.496713 1_555
Li0 S10 2.547916 1_555
Li0 S22 2.562959 1_555
Li0 S43 2.640756 1_555
Li1 S23 2.536084 1_555
Li1 S42 2.582459 1_555
Li1 S11 2.616665 1_565
Li1 S59 2.643039 1_565
Li2 S45 2.506569 1_555
Li2 S24 2.516571 1_555
Li2 S60 2.607856 1_555
Li2 S12 2.636595 1_555
Li3 S28 2.532345 1_555
Li3 S14 2.538751 1_555
Li3 S47 2.539904 1_554
Li3 S62 2.546408 1_554
Li4 S48 2.395305 1_555
Li4 S16 2.434763 1_555
Li4 S36 2.445950 1_555
Li4 S4 2.468197 1_555
Li5 S5 2.407050 1_555
Li5 S37 2.438910 1_565
Li5 S17 2.445265 1_555
Li5 S49 2.462624 1_565
Li6 S8 2.419072 1_555
Li6 S50 2.430643 1_555
Li6 S18 2.441679 1_555
Li6 S40 2.451420 1_555
Li7 S41 2.423790 1_565
Li7 S19 2.428998 1_555
Li7 S9 2.429714 1_555
Li7 S51 2.434955 1_565
Li8 S3 2.425009 1_455
Li8 S35 2.430935 1_455
Li8 S20 2.431024 1_555
Li8 S52 2.431094 1_555
Li9 S2 2.402478 1_455
Li9 S53 2.424347 1_555
Li9 S34 2.436999 1_455
Li9 S21 2.438463 1_555
Li10 S54 2.382582 1_555
Li10 S22 2.386365 1_555
Li10 S44 2.392057 1_555
Li10 S12 2.418384 1_555
Li11 S23 2.400546 1_555
Li11 S13 2.411561 1_555
Li11 S45 2.434137 1_565
Li11 S55 2.456945 1_565
Li12 S7 2.388593 1_555
Li12 S24 2.402352 1_655
Li12 S56 2.430375 1_655
Li12 S39 2.434018 1_555
Li13 S38 2.395071 1_455
Li13 S6 2.439120 1_455
Li13 S57 2.459145 1_555
Li13 S25 2.463573 1_555
Li14 S46 2.375964 1_555
Li14 S58 2.420469 1_556
Li14 S14 2.449243 1_556
Li14 S26 2.461259 1_555
Li15 S27 2.379600 1_555
Li15 S15 2.381797 1_556
Li15 S47 2.427866 1_565
Li15 S59 2.430448 1_566
Li16 S11 2.358297 1_555
Li16 S28 2.374928 1_655
Li16 S43 2.386426 1_555
Li16 S60 2.395283 1_655
Li17 S61 2.342819 1_555
Li17 S29 2.372218 1_555
Li17 S42 2.435625 1_455
Li17 S10 2.455580 1_455
Li18 S33 2.384734 1_555
Li18 S30 2.391176 1_655
Li18 S62 2.407265 1_655
Li18 S1 2.417819 1_555
Li19 S32 2.428678 1_455
Li19 S31 2.433281 1_555
Li19 S63 2.441449 1_555
Li19 S0 2.442642 1_455
Li20 S48 2.398416 1_555
Li20 S5 2.413392 1_555
Li20 S27 2.420081 1_555
Li20 S46 2.421080 1_555
Li21 S15 2.349634 1_555
Li21 S44 2.376704 1_555
Li21 S58 2.402891 1_555
Li21 S23 2.412423 1_555
Li22 S45 2.345850 1_555
Li22 S22 2.354628 1_555
Li22 S14 2.355616 1_555
Li22 S59 2.368387 1_555
Li23 S38 2.356612 1_545
Li23 S61 2.366203 1_645
Li23 S24 2.384390 1_655
Li23 S11 2.402005 1_555
P0 S48 1.999056 1_555
P0 S2 2.058149 1_555
P0 S32 2.062633 1_555
P0 S17 2.063994 1_555
P1 S33 2.044031 1_555
P1 S3 2.044374 1_555
P1 S16 2.044451 1_555
P1 S49 2.050971 1_555
P2 S50 2.043760 1_555
P2 S19 2.047847 1_555
P2 S34 2.048092 1_555
P2 S6 2.049988 1_555
P3 S51 2.040775 1_555
P3 S35 2.045137 1_555
P3 S7 2.046068 1_555
P3 S18 2.053138 1_555
P4 S36 2.044122 1_555
P4 S52 2.045020 1_555
P4 S21 2.050681 1_555
P4 S8 2.050938 1_555
P5 S53 2.041007 1_545
P5 S37 2.046234 1_555
P5 S9 2.048967 1_545
P5 S20 2.051029 1_555
P6 S38 1.991417 1_555
P6 S23 2.040694 1_555
P6 S54 2.050667 1_555
P6 S10 2.107471 1_555
P7 S22 2.038287 1_555
P7 S11 2.040437 1_555
P7 S39 2.050735 1_555
P7 S55 2.052353 1_555
P8 S56 2.037154 1_555
P8 S40 2.037167 1_555
P8 S25 2.041297 1_555
P8 S12 2.076665 1_555
P9 S24 2.038597 1_555
P9 S57 2.046935 1_545
P9 S41 2.048147 1_555
P9 S13 2.050935 1_545
P10 S27 1.991986 1_554
P10 S58 2.044956 1_555
P10 S0 2.053010 1_554
P10 S42 2.098934 1_555
P11 S59 2.026880 1_556
P11 S1 2.034482 1_555
P11 S26 2.041980 1_555
P11 S43 2.085368 1_556
P12 S44 1.998758 1_555
P12 S14 2.039096 1_555
P12 S29 2.045215 1_555
P12 S60 2.096472 1_555
P13 S15 2.004027 1_545
P13 S61 2.006808 1_545
P13 S45 2.057619 1_555
P13 S28 2.112815 1_555
P14 S46 1.992988 1_555
P14 S31 2.045276 1_555
P14 S4 2.052168 1_555
P14 S62 2.101669 1_555
P15 S5 1.989924 1_545
P15 S30 2.045198 1_555
P15 S63 2.056038 1_545
P15 S47 2.099115 1_555
S0 Zn10 2.298115 1_555
S1 Zn11 2.355057 1_645
S2 Zn3 2.318899 1_555
S3 Zn4 2.350779 1_555
S4 Zn0 2.316610 1_555
S6 Zn7 2.335698 1_555
S7 Zn8 2.347466 1_655
S8 Zn2 2.336688 1_555
S9 Zn1 2.352194 1_555
S10 Zn9 2.330106 1_655
S12 Zn6 2.368134 1_555
S13 Zn5 2.348517 1_555
S16 Zn2 2.327912 1_555
S17 Zn1 2.318235 1_555
S18 Zn6 2.315427 1_555
S19 Zn5 2.334133 1_555
S20 Zn8 2.330288 1_555
S21 Zn7 2.328211 1_455
S25 Zn9 2.326533 1_555
S26 Zn0 2.360090 1_555
S28 Zn11 2.357609 1_544
S29 Zn10 2.328365 1_454
S30 Zn4 2.350657 1_455
S31 Zn3 2.345442 1_455
S32 Zn4 2.323807 1_565
S33 Zn3 2.347029 1_555
S34 Zn8 2.338668 1_665
S35 Zn7 2.339169 1_555
S36 Zn1 2.345528 1_555
S37 Zn2 2.331145 1_555
S39 Zn9 2.329784 1_655
S40 Zn5 2.365314 1_555
S41 Zn6 2.320998 1_555
S42 Zn11 2.342420 1_654
S43 Zn10 2.372044 1_554
S47 Zn0 2.344745 1_555
S49 Zn0 2.317203 1_555
S50 Zn1 2.356402 1_555
S51 Zn2 2.340311 1_555
S52 Zn3 2.344181 1_455
S53 Zn4 2.346543 1_465
S54 Zn5 2.335830 1_555
S55 Zn6 2.340748 1_555
S56 Zn7 2.360715 1_455
S57 Zn8 2.337982 1_565
S60 Zn9 2.370382 1_555
S62 Zn10 2.321669 1_455
S63 Zn11 2.308514 1_555
