# generated using pymatgen
data_Co(IO3)2
_symmetry_space_group_name_H-M   'P 1'
_cell_length_a   5.57836754
_cell_length_b   5.57836754
_cell_length_c   4.58391243
_cell_angle_alpha   88.74290560
_cell_angle_beta   88.74290560
_cell_angle_gamma   121.43514633
_symmetry_Int_Tables_number   1
_chemical_formula_structural   Co(IO3)2
_chemical_formula_sum   'Co1 I2 O6'
_cell_volume   121.58497173
_cell_formula_units_Z   1
loop_
 _symmetry_equiv_pos_site_id
 _symmetry_equiv_pos_as_xyz
  1  'x, y, z'
loop_
 _atom_site_type_symbol
 _atom_site_label
 _atom_site_symmetry_multiplicity
 _atom_site_fract_x
 _atom_site_fract_y
 _atom_site_fract_z
 _atom_site_occupancy
  Co  Co0  1  0.00036200  0.00036200  0.99396600  1
  I  I0  1  0.34255500  0.67546200  0.49907100  1
  I  I1  1  0.67546200  0.34255500  0.49907100  1
  O  O0  1  0.98293500  0.34747700  0.25798300  1
  O  O1  1  0.34747700  0.98293500  0.25798300  1
  O  O2  1  0.68743800  0.68743800  0.24964600  1
  O  O3  1  0.99633600  0.64697300  0.73939600  1
  O  O4  1  0.64697300  0.99633600  0.73939600  1
  O  O5  1  0.32036200  0.32036200  0.76348700  1
loop_
_geom_bond_atom_site_label_1
_geom_bond_atom_site_label_2
_geom_bond_distance
_geom_bond_site_symmetry_2
Co0 O5 1.999989 1_555
Co0 O2 2.027311 1_446
Co0 O4 2.303103 1_445
Co0 O3 2.303103 1_445
Co0 O1 2.348938 1_546
Co0 O0 2.348938 1_456
I0 O1 2.007570 1_555
I0 O4 2.073482 1_555
I0 O3 2.132538 1_455
I0 O2 2.186114 1_555
I0 O0 2.225030 1_455
I0 O5 2.245121 1_555
I1 O0 2.007570 1_555
I1 O3 2.073482 1_555
I1 O4 2.132538 1_545
I1 O2 2.186114 1_555
I1 O1 2.225030 1_545
I1 O5 2.245121 1_555
