# generated using pymatgen
data_CePRu2C
_symmetry_space_group_name_H-M   'P 1'
_cell_length_a   5.86549546
_cell_length_b   5.86549546
_cell_length_c   7.10856700
_cell_angle_alpha   90.00000000
_cell_angle_beta   90.00000000
_cell_angle_gamma   141.45943775
_symmetry_Int_Tables_number   1
_chemical_formula_structural   CePRu2C
_chemical_formula_sum   'Ce2 P2 Ru4 C2'
_cell_volume   152.37975766
_cell_formula_units_Z   2
loop_
 _symmetry_equiv_pos_site_id
 _symmetry_equiv_pos_as_xyz
  1  'x, y, z'
loop_
 _atom_site_type_symbol
 _atom_site_label
 _atom_site_symmetry_multiplicity
 _atom_site_fract_x
 _atom_site_fract_y
 _atom_site_fract_z
 _atom_site_occupancy
  Ce  Ce0  1  0.95252900  0.04747100  0.25000000  1
  Ce  Ce1  1  0.04747100  0.95252900  0.75000000  1
  P  P0  1  0.22869700  0.77130300  0.25000000  1
  P  P1  1  0.77130300  0.22869700  0.75000000  1
  Ru  Ru0  1  0.33308900  0.66691000  0.94524400  1
  Ru  Ru1  1  0.66691000  0.33309000  0.05475600  1
  Ru  Ru2  1  0.33308900  0.66691000  0.55475600  1
  Ru  Ru3  1  0.66691000  0.33309000  0.44524400  1
  C  C0  1  0.50000000  0.50000000  0.50000000  1
  C  C1  1  0.50000000  0.50000000  0.00000000  1
loop_
_geom_bond_atom_site_label_1
_geom_bond_atom_site_label_2
_geom_bond_distance
_geom_bond_site_symmetry_2
Ce0 P0 3.058210 1_645
Ce0 P0 3.144979 1_545
Ce0 P0 3.144979 1_655
Ce1 P1 3.058210 1_465
Ce1 P1 3.144979 1_565
Ce1 P1 3.144979 1_455
P0 Ru0 2.455517 1_554
P0 Ru2 2.455517 1_555
P0 Ru3 2.478223 1_565
P0 Ru1 2.478223 1_565
P0 Ru3 2.478223 1_455
P0 Ru1 2.478223 1_455
P1 Ru3 2.455520 1_555
P1 Ru1 2.455520 1_556
P1 Ru2 2.478220 1_655
P1 Ru0 2.478220 1_655
P1 Ru0 2.478223 1_545
P1 Ru2 2.478223 1_545
C0 Ru3 1.888856 1_555
C0 Ru2 1.888862 1_555
C0 Ce0 2.679876 1_565
C0 Ce1 2.679876 1_655
C0 Ce0 2.679876 1_455
C0 Ce1 2.679876 1_545
C1 Ru1 1.888856 1_555
C1 Ru0 1.888862 1_554
C1 Ce0 2.679876 1_565
C1 Ce1 2.679876 1_654
C1 Ce0 2.679876 1_455
C1 Ce1 2.679876 1_544
