# generated using pymatgen
data_Mg(BiO2)2
_symmetry_space_group_name_H-M   'P 1'
_cell_length_a   6.92934888
_cell_length_b   6.92934888
_cell_length_c   10.46675025
_cell_angle_alpha   68.10467168
_cell_angle_beta   68.10467168
_cell_angle_gamma   28.39953158
_symmetry_Int_Tables_number   1
_chemical_formula_structural   Mg(BiO2)2
_chemical_formula_sum   'Mg2 Bi4 O8'
_cell_volume   220.63898918
_cell_formula_units_Z   2
loop_
 _symmetry_equiv_pos_site_id
 _symmetry_equiv_pos_as_xyz
  1  'x, y, z'
loop_
 _atom_site_type_symbol
 _atom_site_label
 _atom_site_symmetry_multiplicity
 _atom_site_fract_x
 _atom_site_fract_y
 _atom_site_fract_z
 _atom_site_occupancy
  Mg  Mg0  1  0.26192700  0.26192700  0.74398000  1
  Mg  Mg1  1  0.73807300  0.73807300  0.25602000  1
  Bi  Bi0  1  0.61761300  0.61761300  0.60657200  1
  Bi  Bi1  1  0.11567600  0.11567600  0.08358800  1
  Bi  Bi2  1  0.88432400  0.88432400  0.91641200  1
  Bi  Bi3  1  0.38238700  0.38238700  0.39342800  1
  O  O0  1  0.89453700  0.89453700  0.25021200  1
  O  O1  1  0.40827600  0.40827600  0.76735100  1
  O  O2  1  0.59172400  0.59172400  0.23264900  1
  O  O3  1  0.10546300  0.10546300  0.74978800  1
  O  O4  1  0.21665600  0.21665600  0.39977700  1
  O  O5  1  0.72851900  0.72851900  0.89722100  1
  O  O6  1  0.78334400  0.78334400  0.60022300  1
  O  O7  1  0.27148100  0.27148100  0.10277900  1
loop_
_geom_bond_atom_site_label_1
_geom_bond_atom_site_label_2
_geom_bond_distance
_geom_bond_site_symmetry_2
Mg0 O1 2.072669 1_555
Mg0 O3 2.079508 1_555
Mg0 O6 2.214279 1_545
Mg0 O6 2.214279 1_455
Mg0 O5 2.260423 1_455
Mg0 O5 2.260423 1_545
Mg1 O2 2.072669 1_555
Mg1 O0 2.079508 1_555
Mg1 O4 2.214279 1_565
Mg1 O4 2.214279 1_655
Mg1 O7 2.260423 1_655
Mg1 O7 2.260423 1_565
Bi0 O6 2.201932 1_555
Bi0 O3 2.230406 1_655
Bi0 O3 2.230406 1_565
Bi0 O1 2.664744 1_555
Bi0 O4 2.670036 1_655
Bi0 O4 2.670036 1_565
Bi1 O7 2.178453 1_555
Bi1 O2 2.245166 1_455
Bi1 O2 2.245166 1_545
Bi1 O5 2.591847 1_454
Bi1 O5 2.591847 1_544
Bi1 O0 2.807569 1_445
Bi2 O5 2.178453 1_555
Bi2 O1 2.245166 1_565
Bi2 O1 2.245166 1_655
Bi2 O7 2.591847 1_566
Bi2 O7 2.591847 1_656
Bi2 O3 2.807569 1_665
Bi3 O4 2.201932 1_555
Bi3 O0 2.230406 1_545
Bi3 O0 2.230406 1_455
Bi3 O2 2.664744 1_555
Bi3 O6 2.670036 1_455
Bi3 O6 2.670036 1_545
