# generated using pymatgen
data_Re2Sb4O13
_symmetry_space_group_name_H-M   'P 1'
_cell_length_a   7.72016492
_cell_length_b   9.38029433
_cell_length_c   9.94782483
_cell_angle_alpha   72.78376111
_cell_angle_beta   69.14915574
_cell_angle_gamma   66.84561515
_symmetry_Int_Tables_number   1
_chemical_formula_structural   Re2Sb4O13
_chemical_formula_sum   'Re4 Sb8 O26'
_cell_volume   608.69854796
_cell_formula_units_Z   2
loop_
 _symmetry_equiv_pos_site_id
 _symmetry_equiv_pos_as_xyz
  1  'x, y, z'
loop_
 _atom_site_type_symbol
 _atom_site_label
 _atom_site_symmetry_multiplicity
 _atom_site_fract_x
 _atom_site_fract_y
 _atom_site_fract_z
 _atom_site_occupancy
  Re  Re0  1  0.32103616  0.54595161  0.21955287  1
  Re  Re1  1  0.67896384  0.45404839  0.78044713  1
  Re  Re2  1  0.14938812  0.67263645  0.63147048  1
  Re  Re3  1  0.85061188  0.32736355  0.36852952  1
  Sb  Sb0  1  0.78883474  0.09718239  0.11003468  1
  Sb  Sb1  1  0.21116526  0.90281761  0.88996532  1
  Sb  Sb2  1  0.70104041  0.84408245  0.44265089  1
  Sb  Sb3  1  0.29895959  0.15591755  0.55734911  1
  Sb  Sb4  1  0.79208006  0.73400502  0.04090671  1
  Sb  Sb5  1  0.20791994  0.26599498  0.95909329  1
  Sb  Sb6  1  0.67074743  0.04002286  0.73481672  1
  Sb  Sb7  1  0.32925257  0.95997714  0.26518328  1
  O  O0  1  0.92674514  0.90560824  0.99557860  1
  O  O1  1  0.07325486  0.09439176  0.00442140  1
  O  O2  1  0.57224368  0.99346654  0.59348886  1
  O  O3  1  0.42775632  0.00653346  0.40651114  1
  O  O4  1  0.84873733  0.97740516  0.29469326  1
  O  O5  1  0.15126267  0.02259484  0.70530674  1
  O  O6  1  0.65482131  0.85448978  0.88974914  1
  O  O7  1  0.34517869  0.14551022  0.11025086  1
  O  O8  1  0.62100297  0.86680707  0.19409067  1
  O  O9  1  0.37899703  0.13319293  0.80590933  1
  O  O10  1  0.48706752  0.65289527  0.15018307  1
  O  O11  1  0.51293248  0.34710473  0.84981693  1
  O  O12  1  0.14151869  0.62111151  0.36911957  1
  O  O13  1  0.85848131  0.37888849  0.63088043  1
  O  O14  1  0.43804232  0.34680339  0.27247328  1
  O  O15  1  0.56195768  0.65319661  0.72752672  1
  O  O16  1  0.21263431  0.57044996  0.08458859  1
  O  O17  1  0.78736569  0.42955004  0.91541141  1
  O  O18  1  0.13555457  0.70887543  0.79838250  1
  O  O19  1  0.86444543  0.29112457  0.20161750  1
  O  O20  1  0.93668418  0.80991137  0.58168169  1
  O  O21  1  0.06331582  0.19008863  0.41831831  1
  O  O22  1  0.15503121  0.47943191  0.66634709  1
  O  O23  1  0.84496879  0.52056809  0.33365291  1
  O  O24  1  0.36198871  0.69871809  0.50375032  1
  O  O25  1  0.63801129  0.30128191  0.49624968  1
loop_
_geom_bond_atom_site_label_1
_geom_bond_atom_site_label_2
_geom_bond_distance
_geom_bond_site_symmetry_2
O0 Sb1 2.062702 1_655
O0 Sb4 2.104270 1_556
O0 Sb0 2.121986 1_566
O1 Sb0 2.062702 1_455
O1 Sb5 2.104270 1_554
O1 Sb1 2.121986 1_544
O2 Sb6 2.032562 1_565
O2 Sb2 2.071371 1_555
O2 Sb3 2.142406 1_565
O3 Sb7 2.032562 1_545
O3 Sb3 2.071371 1_555
O3 Sb2 2.142406 1_545
O4 Sb0 1.955760 1_565
O4 Sb2 1.966628 1_555
O5 Sb1 1.955760 1_545
O5 Sb3 1.966628 1_555
O6 Sb4 1.961568 1_556
O6 Sb6 1.965946 1_565
O7 Sb5 1.961568 1_554
O7 Sb7 1.965946 1_545
O8 Sb4 2.003847 1_555
O8 Sb7 2.005237 1_555
O8 Sb2 2.685740 1_555
O9 Sb5 2.003847 1_555
O9 Sb6 2.005237 1_555
O9 Sb3 2.685740 1_555
O10 Re0 1.759908 1_555
O10 Sb4 2.530320 1_555
O11 Re1 1.759908 1_555
O11 Sb5 2.530320 1_555
O12 Re0 1.736710 1_555
O13 Re1 1.736710 1_555
O14 Re0 1.735547 1_555
O15 Re1 1.735547 1_555
O16 Re0 1.738313 1_555
O17 Re1 1.738313 1_555
O18 Re2 1.750217 1_555
O19 Re3 1.750217 1_555
O20 Re2 1.771583 1_655
O20 Sb2 2.528877 1_555
O21 Re3 1.771583 1_455
O21 Sb3 2.528877 1_555
O22 Re2 1.727199 1_555
O23 Re3 1.727199 1_555
O24 Re2 1.736464 1_555
O25 Re3 1.736464 1_555
