# generated using pymatgen
data_Ba3Bi2I2O5
_symmetry_space_group_name_H-M   'P 1'
_cell_length_a   14.16025809
_cell_length_b   14.16025809
_cell_length_c   14.16025809
_cell_angle_alpha   161.07077021
_cell_angle_beta   161.07077021
_cell_angle_gamma   26.89462433
_symmetry_Int_Tables_number   1
_chemical_formula_structural   Ba3Bi2I2O5
_chemical_formula_sum   'Ba3 Bi2 I2 O5'
_cell_volume   298.68092569
_cell_formula_units_Z   1
loop_
 _symmetry_equiv_pos_site_id
 _symmetry_equiv_pos_as_xyz
  1  'x, y, z'
loop_
 _atom_site_type_symbol
 _atom_site_label
 _atom_site_symmetry_multiplicity
 _atom_site_fract_x
 _atom_site_fract_y
 _atom_site_fract_z
 _atom_site_occupancy
  Ba  Ba0  1  0.35455100  0.35455100  0.00000000  1
  Ba  Ba1  1  0.64544900  0.64544900  0.00000000  1
  Ba  Ba2  1  0.50000000  0.50000000  0.00000000  1
  Bi  Bi0  1  0.07907200  0.07907200  0.00000000  1
  Bi  Bi1  1  0.92092800  0.92092800  0.00000000  1
  I  I0  1  0.20608400  0.20608400  0.00000000  1
  I  I1  1  0.79391600  0.79391600  0.00000000  1
  O  O0  1  0.58400700  0.08400700  0.50000000  1
  O  O1  1  0.41599300  0.91599300  0.50000000  1
  O  O2  1  0.08400700  0.58400700  0.50000000  1
  O  O3  1  0.91599300  0.41599300  0.50000000  1
  O  O4  1  0.00000000  0.00000000  0.00000000  1
loop_
_geom_bond_atom_site_label_1
_geom_bond_atom_site_label_2
_geom_bond_distance
_geom_bond_site_symmetry_2
Ba0 O1 2.878535 1_544
Ba0 O3 2.878535 1_454
Ba0 O3 2.878535 1_555
Ba0 O1 2.878535 1_555
Ba0 I1 3.692302 1_444
Ba0 I1 3.692302 1_545
Ba0 I1 3.692302 1_455
Ba0 I1 3.692302 1_556
Ba0 I0 4.089388 1_555
Ba1 O0 2.878535 1_554
Ba1 O2 2.878535 1_554
Ba1 O0 2.878535 1_565
Ba1 O2 2.878535 1_655
Ba1 I0 3.692302 1_565
Ba1 I0 3.692302 1_655
Ba1 I0 3.692302 1_666
Ba1 I0 3.692302 1_554
Ba1 I1 4.089388 1_555
Ba2 O2 3.282680 1_554
Ba2 O0 3.282680 1_554
Ba2 O0 3.282680 1_565
Ba2 O2 3.282680 1_655
Ba2 O1 3.282680 1_555
Ba2 O1 3.282680 1_544
Ba2 O3 3.282680 1_454
Ba2 O3 3.282680 1_555
Ba2 O4 3.292984 1_666
Ba2 O4 3.292984 1_554
Ba2 O4 3.292984 1_655
Ba2 O4 3.292984 1_565
Bi0 O4 2.177966 1_555
Bi0 O0 2.332455 1_555
Bi0 O2 2.332455 1_555
Bi0 O2 2.332455 1_544
Bi0 O0 2.332455 1_454
Bi0 I0 3.498429 1_555
Bi1 O4 2.177966 1_665
Bi1 O1 2.332455 1_554
Bi1 O3 2.332455 1_554
Bi1 O1 2.332455 1_655
Bi1 O3 2.332455 1_565
Bi1 I1 3.498429 1_555
