# generated using pymatgen
data_NaTa4Bi5O18
_symmetry_space_group_name_H-M   'P 1'
_cell_length_a   12.95793971
_cell_length_b   12.95793971
_cell_length_c   5.55033506
_cell_angle_alpha   89.99248127
_cell_angle_beta   89.99248127
_cell_angle_gamma   155.48009534
_symmetry_Int_Tables_number   1
_chemical_formula_structural   NaTa4Bi5O18
_chemical_formula_sum   'Na1 Ta4 Bi5 O18'
_cell_volume   386.76654324
_cell_formula_units_Z   1
loop_
 _symmetry_equiv_pos_site_id
 _symmetry_equiv_pos_as_xyz
  1  'x, y, z'
loop_
 _atom_site_type_symbol
 _atom_site_label
 _atom_site_symmetry_multiplicity
 _atom_site_fract_x
 _atom_site_fract_y
 _atom_site_fract_z
 _atom_site_occupancy
  Na  Na0  1  0.25224200  0.25224200  0.48871200  1
  Ta  Ta0  1  0.33571700  0.16897200  0.95575600  1
  Ta  Ta1  1  0.16897200  0.33571700  0.95575600  1
  Ta  Ta2  1  0.66786900  0.83560600  0.46263100  1
  Ta  Ta3  1  0.83560600  0.66786900  0.46263100  1
  Bi  Bi0  1  0.76447200  0.76447200  0.01200600  1
  Bi  Bi1  1  0.52101700  0.92000400  0.01111800  1
  Bi  Bi2  1  0.92000400  0.52101700  0.01111800  1
  Bi  Bi3  1  0.47785200  0.07860100  0.51087200  1
  Bi  Bi4  1  0.07860100  0.47785200  0.51087200  1
  O  O0  1  0.86197000  0.03339200  0.14477500  1
  O  O1  1  0.03339200  0.86197000  0.14477500  1
  O  O2  1  0.13252500  0.95715900  0.65077000  1
  O  O3  1  0.95715900  0.13252500  0.65077000  1
  O  O4  1  0.74167300  0.23942700  0.24141500  1
  O  O5  1  0.23942700  0.74167300  0.24141500  1
  O  O6  1  0.25815800  0.76020500  0.74129300  1
  O  O7  1  0.76020500  0.25815800  0.74129300  1
  O  O8  1  0.40104300  0.53243100  0.22443600  1
  O  O9  1  0.53243100  0.40104300  0.22443600  1
  O  O10  1  0.60452300  0.47213600  0.73162600  1
  O  O11  1  0.47213600  0.60452300  0.73162600  1
  O  O12  1  0.17328400  0.17328400  0.93288400  1
  O  O13  1  0.81462100  0.81462100  0.41629000  1
  O  O14  1  0.47454400  0.16070200  0.94674300  1
  O  O15  1  0.16070200  0.47454400  0.94674300  1
  O  O16  1  0.52299300  0.83686300  0.44422000  1
  O  O17  1  0.83686300  0.52299300  0.44422000  1
loop_
_geom_bond_atom_site_label_1
_geom_bond_atom_site_label_2
_geom_bond_distance
_geom_bond_site_symmetry_2
Na0 O13 2.441863 1_445
Na0 O12 2.503039 1_555
Na0 O8 2.512098 1_555
Na0 O9 2.512098 1_555
Na0 O2 2.653557 1_545
Na0 O3 2.653557 1_455
Na0 O10 2.666313 1_555
Na0 O11 2.666313 1_555
Bi0 O13 2.260989 1_555
Bi0 O12 2.291956 1_664
Bi0 O0 2.504410 1_565
Bi0 O1 2.504410 1_655
Bi0 O11 2.604431 1_554
Bi0 O10 2.604431 1_554
Bi0 O8 2.615395 1_555
Bi0 O9 2.615395 1_555
Bi1 O5 2.223277 1_555
Bi1 O6 2.302289 1_554
Bi1 O4 2.325660 1_565
Bi1 O15 2.491350 1_554
Bi1 O7 2.516739 1_564
Bi1 O16 2.643745 1_555
Bi2 O4 2.223277 1_555
Bi2 O7 2.302289 1_554
Bi2 O5 2.325660 1_655
Bi2 O14 2.491350 1_554
Bi2 O6 2.516739 1_654
Bi2 O17 2.643745 1_555
Bi3 O7 2.224256 1_555
Bi3 O4 2.302329 1_555
Bi3 O6 2.321093 1_545
Bi3 O17 2.488289 1_555
Bi3 O5 2.510321 1_545
Bi3 O14 2.658935 1_555
Bi4 O6 2.224256 1_555
Bi4 O5 2.302329 1_555
Bi4 O7 2.321093 1_455
Bi4 O16 2.488289 1_555
Bi4 O4 2.510321 1_455
Bi4 O15 2.658935 1_555
O0 Ta1 1.978136 1_654
O0 Ta2 2.067609 1_545
O1 Ta0 1.978136 1_564
O1 Ta3 2.067609 1_455
O2 Ta3 1.924479 1_455
O2 Ta0 2.045428 1_565
O3 Ta2 1.924479 1_545
O3 Ta1 2.045428 1_655
O8 Ta1 1.954099 1_554
O8 Ta2 2.102892 1_555
O9 Ta0 1.954099 1_554
O9 Ta3 2.102892 1_555
O10 Ta3 1.951036 1_555
O10 Ta0 2.052146 1_555
O11 Ta2 1.951036 1_555
O11 Ta1 2.052146 1_555
O12 Ta0 2.159508 1_555
O12 Ta1 2.159508 1_555
O13 Ta3 2.167255 1_555
O13 Ta2 2.167255 1_555
O14 Ta0 1.897585 1_555
O15 Ta1 1.897585 1_555
O16 Ta2 1.894896 1_555
O17 Ta3 1.894896 1_555
