# generated using pymatgen
data_MgMn8(SiO3)10
_symmetry_space_group_name_H-M   'P 1'
_cell_length_a   6.80069302
_cell_length_b   7.51932505
_cell_length_c   12.11559097
_cell_angle_alpha   106.48415729
_cell_angle_beta   94.21232845
_cell_angle_gamma   94.78790298
_symmetry_Int_Tables_number   1
_chemical_formula_structural   MgMn8(SiO3)10
_chemical_formula_sum   'Mg1 Mn8 Si10 O30'
_cell_volume   588.94591364
_cell_formula_units_Z   1
loop_
 _symmetry_equiv_pos_site_id
 _symmetry_equiv_pos_as_xyz
  1  'x, y, z'
loop_
 _atom_site_type_symbol
 _atom_site_label
 _atom_site_symmetry_multiplicity
 _atom_site_fract_x
 _atom_site_fract_y
 _atom_site_fract_z
 _atom_site_occupancy
  Mg  Mg0  1  0.66833227  0.03087465  0.69787160  1
  Mn  Mn0  1  0.03313130  0.10935987  0.16476016  1
  Mn  Mn1  1  0.12336030  0.32523979  0.44908191  1
  Mn  Mn2  1  0.77131626  0.27111624  0.97123241  1
  Mn  Mn3  1  0.26072736  0.74121485  0.03720791  1
  Mn  Mn4  1  0.80869564  0.48709873  0.26272183  1
  Mn  Mn5  1  0.97656736  0.88220749  0.85556782  1
  Mn  Mn6  1  0.86450552  0.68664542  0.54739876  1
  Mn  Mn7  1  0.18386730  0.50859261  0.73668899  1
  Si  Si0  1  0.29270847  0.54144722  0.25834953  1
  Si  Si1  1  0.48855501  0.19955663  0.12408414  1
  Si  Si2  1  0.83532754  0.93563642  0.34582593  1
  Si  Si3  1  0.14745633  0.08140236  0.65867735  1
  Si  Si4  1  0.78292049  0.73411317  0.08139030  1
  Si  Si5  1  0.51938490  0.77895651  0.87020789  1
  Si  Si6  1  0.23929860  0.27335929  0.92229962  1
  Si  Si7  1  0.62000097  0.26370631  0.46734673  1
  Si  Si8  1  0.70631498  0.44382757  0.73436911  1
  Si  Si9  1  0.36078043  0.73731465  0.52397649  1
  O  O0  1  0.29014594  0.94817080  0.57707245  1
  O  O1  1  0.87689794  0.75449242  0.38768224  1
  O  O2  1  0.09917865  0.40106815  0.26585644  1
  O  O3  1  0.25712313  0.65876833  0.16759975  1
  O  O4  1  0.28258406  0.80517212  0.87949561  1
  O  O5  1  0.27897947  0.16822376  0.78690520  1
  O  O6  1  0.63390379  0.29052291  0.60871757  1
  O  O7  1  0.95116493  0.95687479  0.67882968  1
  O  O8  1  0.10269136  0.25476896  0.60980456  1
  O  O9  1  0.40429831  0.30941181  0.42757244  1
  O  O10  1  0.05180911  0.16584322  0.96211486  1
  O  O11  1  0.74755231  0.86684113  0.20860767  1
  O  O12  1  0.81289625  0.39621069  0.44204235  1
  O  O13  1  0.89442081  0.59630418  0.73720998  1
  O  O14  1  0.02997800  0.08260018  0.34492744  1
  O  O15  1  0.96711389  0.82884881  0.02960034  1
  O  O16  1  0.18735541  0.58961123  0.55335871  1
  O  O17  1  0.58131142  0.76511141  0.59073148  1
  O  O18  1  0.80461367  0.53004786  0.09246830  1
  O  O19  1  0.44173058  0.25118937  0.99881162  1
  O  O20  1  0.58202161  0.74271395  0.99610375  1
  O  O21  1  0.20907967  0.48747068  0.92395821  1
  O  O22  1  0.51617975  0.57090367  0.77188879  1
  O  O23  1  0.73884388  0.29874321  0.80805294  1
  O  O24  1  0.66561622  0.04645747  0.41729839  1
  O  O25  1  0.66310424  0.94065036  0.84484063  1
  O  O26  1  0.36658584  0.68805281  0.38487273  1
  O  O27  1  0.47449485  0.40407463  0.22305564  1
  O  O28  1  0.72605636  0.18422081  0.13146820  1
  O  O29  1  0.32901753  0.02960248  0.12888254  1
loop_
_geom_bond_atom_site_label_1
_geom_bond_atom_site_label_2
_geom_bond_distance
_geom_bond_site_symmetry_2
Mg0 O7 2.057555 1_545
Mg0 O17 2.060649 1_545
Mg0 O23 2.070688 1_555
Mg0 O25 2.079169 1_545
Mg0 O6 2.503853 1_555
Mn0 O2 2.177902 1_555
Mn0 O29 2.186251 1_555
Mn0 O28 2.245437 1_455
Mn0 O14 2.249693 1_555
Mn0 O15 2.259609 1_445
Mn0 O10 2.617811 1_554
Mn0 O11 2.736723 1_445
Mn1 O14 1.925285 1_555
Mn1 O9 1.955983 1_555
Mn1 O16 2.021584 1_555
Mn1 O8 2.169255 1_555
Mn1 O12 2.222029 1_455
Mn1 O2 2.441385 1_555
Mn2 O23 2.043797 1_555
Mn2 O18 2.062557 1_556
Mn2 O10 2.123896 1_655
Mn2 O28 2.250461 1_556
Mn2 O19 2.289191 1_555
Mn2 O25 2.535920 1_545
Mn3 O3 1.854605 1_555
Mn3 O21 1.994506 1_554
Mn3 O4 2.110859 1_554
Mn3 O29 2.130939 1_565
Mn3 O15 2.157985 1_455
Mn3 O20 2.276266 1_554
Mn4 O2 2.130424 1_655
Mn4 O1 2.136237 1_555
Mn4 O18 2.175090 1_555
Mn4 O27 2.284451 1_555
Mn4 O28 2.373000 1_555
Mn4 O12 2.454527 1_555
Mn5 O10 2.152954 1_665
Mn5 O25 2.214166 1_555
Mn5 O13 2.218643 1_555
Mn5 O4 2.226784 1_655
Mn5 O15 2.259782 1_556
Mn5 O7 2.360993 1_555
Mn6 O17 2.120220 1_555
Mn6 O1 2.142158 1_555
Mn6 O12 2.178551 1_555
Mn6 O7 2.199493 1_555
Mn6 O16 2.373243 1_655
Mn6 O13 2.575311 1_555
Mn7 O8 2.084480 1_555
Mn7 O13 2.127428 1_455
Mn7 O22 2.253231 1_555
Mn7 O21 2.313941 1_555
Mn7 O4 2.409825 1_555
Mn7 O16 2.465453 1_555
O0 Si3 1.632152 1_565
O0 Si9 1.658943 1_555
O1 Si2 1.620976 1_555
O2 Si0 1.641596 1_555
O3 Si0 1.610175 1_555
O4 Si5 1.646805 1_555
O5 Si6 1.659324 1_555
O5 Si3 1.662103 1_555
O6 Si8 1.639533 1_555
O6 Si7 1.661410 1_555
O7 Si3 1.639315 1_665
O8 Si3 1.618789 1_555
O9 Si7 1.605149 1_555
O10 Si6 1.628389 1_555
O11 Si4 1.628227 1_555
O11 Si2 1.643892 1_555
O12 Si7 1.679823 1_555
O13 Si8 1.636604 1_555
O14 Si2 1.654803 1_445
O15 Si4 1.640254 1_555
O16 Si9 1.678873 1_555
O17 Si9 1.618840 1_555
O18 Si4 1.595625 1_555
O19 Si6 1.649506 1_555
O19 Si1 1.685154 1_556
O20 Si5 1.655927 1_555
O20 Si4 1.668475 1_556
O21 Si6 1.634666 1_555
O22 Si5 1.673249 1_555
O22 Si8 1.684564 1_555
O23 Si8 1.612452 1_555
O24 Si2 1.635289 1_545
O24 Si7 1.637848 1_555
O25 Si5 1.608043 1_555
O26 Si9 1.623892 1_555
O26 Si0 1.628762 1_555
O27 Si1 1.675361 1_555
O27 Si0 1.678802 1_555
O28 Si1 1.626594 1_555
O29 Si1 1.622846 1_555
