# generated using pymatgen
data_NaSrTbMnO6
_symmetry_space_group_name_H-M   'P 1'
_cell_length_a   5.81561239
_cell_length_b   5.81561239
_cell_length_c   5.81561239
_cell_angle_alpha   60.00000000
_cell_angle_beta   60.00000000
_cell_angle_gamma   60.00000000
_symmetry_Int_Tables_number   1
_chemical_formula_structural   NaSrTbMnO6
_chemical_formula_sum   'Na1 Sr1 Tb1 Mn1 O6'
_cell_volume   139.08213933
_cell_formula_units_Z   1
loop_
 _symmetry_equiv_pos_site_id
 _symmetry_equiv_pos_as_xyz
  1  'x, y, z'
loop_
 _atom_site_type_symbol
 _atom_site_label
 _atom_site_symmetry_multiplicity
 _atom_site_fract_x
 _atom_site_fract_y
 _atom_site_fract_z
 _atom_site_occupancy
  Na  Na0  1  0.25000000  0.25000000  0.25000000  1
  Sr  Sr0  1  0.75000000  0.75000000  0.75000000  1
  Tb  Tb0  1  0.50000000  0.50000000  0.50000000  1
  Mn  Mn0  1  0.00000000  -0.00000000  0.00000000  1
  O  O0  1  0.76931852  0.23068148  0.23068148  1
  O  O1  1  0.23068148  0.76931852  0.76931852  1
  O  O2  1  0.76931852  0.23068148  0.76931852  1
  O  O3  1  0.23068148  0.76931852  0.23068148  1
  O  O4  1  0.76931852  0.76931852  0.23068148  1
  O  O5  1  0.23068148  0.23068148  0.76931852  1
loop_
_geom_bond_atom_site_label_1
_geom_bond_atom_site_label_2
_geom_bond_distance
_geom_bond_site_symmetry_2
Na0 O0 2.912144 1_455
Na0 O3 2.912144 1_555
Na0 O1 2.912144 1_545
Na0 O0 2.912144 1_555
Na0 O1 2.912144 1_554
Na0 O3 2.912144 1_545
Na0 O2 2.912144 1_455
Na0 O2 2.912144 1_554
Na0 O5 2.912144 1_554
Na0 O5 2.912144 1_555
Na0 O4 2.912144 1_545
Na0 O4 2.912144 1_455
Mn0 O1 1.897244 1_544
Mn0 O5 1.897244 1_554
Mn0 O0 1.897244 1_455
Mn0 O3 1.897244 1_545
Mn0 O2 1.897244 1_454
Mn0 O4 1.897244 1_445
O0 Tb0 2.215015 1_555
O0 Sr0 2.912144 1_545
O0 Sr0 2.912144 1_554
O1 Tb0 2.215015 1_555
O1 Sr0 2.912144 1_455
O1 Sr0 2.912144 1_555
O2 Tb0 2.215015 1_555
O2 Sr0 2.912144 1_545
O2 Sr0 2.912144 1_555
O3 Tb0 2.215015 1_555
O3 Sr0 2.912144 1_554
O3 Sr0 2.912144 1_455
O4 Tb0 2.215015 1_555
O4 Sr0 2.912144 1_554
O4 Sr0 2.912144 1_555
O5 Tb0 2.215015 1_555
O5 Sr0 2.912144 1_545
O5 Sr0 2.912144 1_455
