# generated using pymatgen
data_CsUAuSe3
_symmetry_space_group_name_H-M   'P 1'
_cell_length_a   4.22833900
_cell_length_b   8.41334663
_cell_length_c   10.77486700
_cell_angle_alpha   90.00000000
_cell_angle_beta   90.00000000
_cell_angle_gamma   104.55372104
_symmetry_Int_Tables_number   1
_chemical_formula_structural   CsUAuSe3
_chemical_formula_sum   'Cs2 U2 Au2 Se6'
_cell_volume   371.01082227
_cell_formula_units_Z   2
loop_
 _symmetry_equiv_pos_site_id
 _symmetry_equiv_pos_as_xyz
  1  'x, y, z'
loop_
 _atom_site_type_symbol
 _atom_site_label
 _atom_site_symmetry_multiplicity
 _atom_site_fract_x
 _atom_site_fract_y
 _atom_site_fract_z
 _atom_site_occupancy
  Cs  Cs0  1  0.74732900  0.49465800  0.25000000  1
  Cs  Cs1  1  0.25267100  0.50534200  0.75000000  1
  U  U0  1  0.00000000  0.00000000  0.50000000  1
  U  U1  1  0.00000000  0.00000000  0.00000000  1
  Au  Au0  1  0.45806100  0.91612200  0.25000000  1
  Au  Au1  1  0.54193900  0.08387800  0.75000000  1
  Se  Se0  1  0.06085100  0.12170200  0.25000000  1
  Se  Se1  1  0.93914900  0.87829800  0.75000000  1
  Se  Se2  1  0.38287900  0.76575900  0.45988900  1
  Se  Se3  1  0.61712100  0.23424100  0.54011100  1
  Se  Se4  1  0.38287900  0.76575900  0.04011100  1
  Se  Se5  1  0.61712100  0.23424100  0.95988900  1
loop_
_geom_bond_atom_site_label_1
_geom_bond_atom_site_label_2
_geom_bond_distance
_geom_bond_site_symmetry_2
Cs0 Se0 3.700518 1_555
Cs0 Se0 3.700518 1_655
Cs0 Se5 3.777375 1_554
Cs0 Se3 3.777375 1_555
Cs0 Se2 3.802374 1_655
Cs0 Se4 3.802374 1_655
Cs0 Se4 3.802377 1_555
Cs0 Se2 3.802377 1_555
Cs1 Se1 3.700518 1_555
Cs1 Se1 3.700518 1_455
Cs1 Se2 3.777375 1_555
Cs1 Se4 3.777375 1_556
Cs1 Se3 3.802374 1_455
Cs1 Se5 3.802374 1_455
Cs1 Se5 3.802377 1_555
Cs1 Se3 3.802377 1_555
Au0 Se4 2.571733 1_555
Au0 Se2 2.571733 1_555
Au0 Se0 2.696735 1_665
Au0 Se0 2.696735 1_565
Au0 U1 3.491759 1_665
Au0 U0 3.491759 1_665
Au0 U1 3.491759 1_565
Au0 U0 3.491759 1_565
Au0 Cs0 4.031044 1_455
Au0 Cs0 4.031044 1_555
Au1 Se3 2.571733 1_555
Au1 Se5 2.571733 1_555
Au1 Se1 2.696735 1_445
Au1 Se1 2.696735 1_545
Au1 U0 3.491759 1_555
Au1 U1 3.491759 1_556
Au1 U1 3.491759 1_656
Au1 U0 3.491759 1_655
Au1 Cs1 4.031044 1_655
Au1 Cs1 4.031044 1_555
Se0 U0 2.870248 1_555
Se0 U1 2.870248 1_555
Se1 U0 2.870248 1_665
Se1 U1 2.870248 1_666
Se2 U0 2.880122 1_565
Se2 U0 2.880125 1_665
Se3 U0 2.880122 1_655
Se3 U0 2.880125 1_555
Se4 U1 2.880122 1_565
Se4 U1 2.880125 1_665
Se5 U1 2.880122 1_656
Se5 U1 2.880125 1_556
