# generated using pymatgen
data_TmMnIn
_symmetry_space_group_name_H-M   'P 1'
_cell_length_a   4.74826019
_cell_length_b   4.74826019
_cell_length_c   3.46831600
_cell_angle_alpha   90.00000000
_cell_angle_beta   90.00000000
_cell_angle_gamma   120.00000261
_symmetry_Int_Tables_number   1
_chemical_formula_structural   TmMnIn
_chemical_formula_sum   'Tm1 Mn1 In1'
_cell_volume   67.72021013
_cell_formula_units_Z   1
loop_
 _symmetry_equiv_pos_site_id
 _symmetry_equiv_pos_as_xyz
  1  'x, y, z'
loop_
 _atom_site_type_symbol
 _atom_site_label
 _atom_site_symmetry_multiplicity
 _atom_site_fract_x
 _atom_site_fract_y
 _atom_site_fract_z
 _atom_site_occupancy
  Tm  Tm0  1  0.66666700  0.33333300  0.00000000  1
  Mn  Mn0  1  0.00000000  0.00000000  0.50000000  1
  In  In0  1  0.33333300  0.66666700  0.50000000  1
loop_
_geom_bond_atom_site_label_1
_geom_bond_atom_site_label_2
_geom_bond_distance
_geom_bond_site_symmetry_2
Mn0 Tm0 3.243858 1_455
Mn0 Tm0 3.243858 1_456
Mn0 Tm0 3.243861 1_555
Mn0 Tm0 3.243861 1_556
Mn0 Tm0 3.243861 1_446
Mn0 Tm0 3.243861 1_445
In0 Mn0 2.741407 1_565
In0 Mn0 2.741411 1_555
In0 Mn0 2.741411 1_665
In0 Tm0 3.243858 1_456
In0 Tm0 3.243858 1_455
In0 Tm0 3.243858 1_565
In0 Tm0 3.243858 1_566
In0 Tm0 3.243865 1_555
In0 Tm0 3.243865 1_556
