# generated using pymatgen
data_GdZnGe
_symmetry_space_group_name_H-M   'P 1'
_cell_length_a   4.21857975
_cell_length_b   4.21858001
_cell_length_c   16.02480838
_cell_angle_alpha   90.00000000
_cell_angle_beta   90.00000000
_cell_angle_gamma   119.99999785
_symmetry_Int_Tables_number   1
_chemical_formula_structural   GdZnGe
_chemical_formula_sum   'Gd4 Zn4 Ge4'
_cell_volume   246.97673254
_cell_formula_units_Z   4
loop_
 _symmetry_equiv_pos_site_id
 _symmetry_equiv_pos_as_xyz
  1  'x, y, z'
loop_
 _atom_site_type_symbol
 _atom_site_label
 _atom_site_symmetry_multiplicity
 _atom_site_fract_x
 _atom_site_fract_y
 _atom_site_fract_z
 _atom_site_occupancy
  Gd  Gd0  1  0.00000000  -0.00000000  0.75000000  1
  Gd  Gd1  1  0.00000000  -0.00000000  0.25000000  1
  Gd  Gd2  1  0.00000000  -0.00000000  0.50000000  1
  Gd  Gd3  1  0.00000000  -0.00000000  0.00000000  1
  Zn  Zn0  1  0.66666700  0.33333300  0.85313020  1
  Zn  Zn1  1  0.66666700  0.33333300  0.64686980  1
  Zn  Zn2  1  0.33333300  0.66666700  0.14686980  1
  Zn  Zn3  1  0.33333300  0.66666700  0.35313020  1
  Ge  Ge0  1  0.66666700  0.33333300  0.11441839  1
  Ge  Ge1  1  0.66666700  0.33333300  0.38558161  1
  Ge  Ge2  1  0.33333300  0.66666700  0.88558161  1
  Ge  Ge3  1  0.33333300  0.66666700  0.61441839  1
loop_
_geom_bond_atom_site_label_1
_geom_bond_atom_site_label_2
_geom_bond_distance
_geom_bond_site_symmetry_2
Gd0 Zn0 2.943357 1_455
Gd0 Zn1 2.943357 1_455
Gd0 Zn0 2.943360 1_555
Gd0 Zn1 2.943360 1_555
Gd0 Zn0 2.943360 1_445
Gd0 Zn1 2.943360 1_445
Gd0 Ge2 3.263835 1_545
Gd0 Ge3 3.263835 1_545
Gd0 Ge3 3.263838 1_445
Gd0 Ge2 3.263838 1_445
Gd0 Ge3 3.263838 1_555
Gd0 Ge2 3.263838 1_555
Gd1 Zn3 2.943357 1_545
Gd1 Zn2 2.943357 1_545
Gd1 Zn2 2.943360 1_445
Gd1 Zn3 2.943360 1_445
Gd1 Zn3 2.943360 1_555
Gd1 Zn2 2.943360 1_555
Gd1 Ge0 3.263835 1_455
Gd1 Ge1 3.263835 1_455
Gd1 Ge0 3.263838 1_555
Gd1 Ge1 3.263838 1_555
Gd1 Ge0 3.263838 1_445
Gd1 Ge1 3.263838 1_445
Gd2 Ge3 3.048601 1_545
Gd2 Ge1 3.048601 1_455
Gd2 Ge3 3.048604 1_445
Gd2 Ge1 3.048604 1_555
Gd2 Ge1 3.048604 1_445
Gd2 Ge3 3.048604 1_555
Gd3 Ge0 3.048601 1_455
Gd3 Ge2 3.048601 1_544
Gd3 Ge2 3.048604 1_444
Gd3 Ge0 3.048604 1_555
Gd3 Ge2 3.048604 1_554
Gd3 Ge0 3.048604 1_445
Ge0 Zn2 2.490493 1_655
Ge0 Zn2 2.490493 1_545
Ge0 Zn2 2.490500 1_555
Ge1 Zn3 2.490493 1_655
Ge1 Zn3 2.490493 1_545
Ge1 Zn3 2.490500 1_555
Ge2 Zn0 2.490493 1_455
Ge2 Zn0 2.490493 1_565
Ge2 Zn0 2.490500 1_555
Ge3 Zn1 2.490493 1_455
Ge3 Zn1 2.490493 1_565
Ge3 Zn1 2.490500 1_555
