# generated using pymatgen
data_Sr3LaV3O12
_symmetry_space_group_name_H-M   'P 1'
_cell_length_a   11.03303322
_cell_length_b   11.03303322
_cell_length_c   9.36424923
_cell_angle_alpha   84.53260304
_cell_angle_beta   84.53260304
_cell_angle_gamma   29.81301931
_symmetry_Int_Tables_number   1
_chemical_formula_structural   Sr3LaV3O12
_chemical_formula_sum   'Sr6 La2 V6 O24'
_cell_volume   563.95883256
_cell_formula_units_Z   2
loop_
 _symmetry_equiv_pos_site_id
 _symmetry_equiv_pos_as_xyz
  1  'x, y, z'
loop_
 _atom_site_type_symbol
 _atom_site_label
 _atom_site_symmetry_multiplicity
 _atom_site_fract_x
 _atom_site_fract_y
 _atom_site_fract_z
 _atom_site_occupancy
  Sr  Sr0  1  0.00393000  0.00393000  0.00743600  1
  Sr  Sr1  1  0.33184800  0.33184800  0.66209500  1
  Sr  Sr2  1  0.66529300  0.66529300  0.32554000  1
  Sr  Sr3  1  0.79955800  0.79955800  0.00477400  1
  Sr  Sr4  1  0.13415400  0.13415400  0.66838000  1
  Sr  Sr5  1  0.19897500  0.19897500  0.00167700  1
  La  La0  1  0.52170200  0.52170200  0.63561800  1
  La  La1  1  0.87912900  0.87912900  0.33650000  1
  V  V0  1  0.93538700  0.93538700  0.66663700  1
  V  V1  1  0.27020700  0.27020700  0.32553000  1
  V  V2  1  0.60265900  0.60265900  0.98815500  1
  V  V3  1  0.06222000  0.06222000  0.34887100  1
  V  V4  1  0.39701400  0.39701400  0.00861500  1
  V  V5  1  0.73135000  0.73135000  0.66922100  1
  O  O0  1  0.54710000  0.54710000  0.13032300  1
  O  O1  1  0.87767000  0.87767000  0.80510100  1
  O  O2  1  0.21360400  0.21360400  0.46898900  1
  O  O3  1  0.45452000  0.45452000  0.85966000  1
  O  O4  1  0.79197500  0.79197500  0.52649500  1
  O  O5  1  0.11875700  0.11875700  0.20571700  1
  O  O6  1  0.31730600  0.83125300  0.45873400  1
  O  O7  1  0.66021500  0.14133800  0.10838100  1
  O  O8  1  0.98727700  0.48989300  0.77522100  1
  O  O9  1  0.83125300  0.31730600  0.45873400  1
  O  O10  1  0.14133800  0.66021500  0.10838100  1
  O  O11  1  0.48989300  0.98727700  0.77522100  1
  O  O12  1  0.98852900  0.98852900  0.28436100  1
  O  O13  1  0.32318500  0.32318500  0.94463700  1
  O  O14  1  0.65625300  0.65625300  0.61115100  1
  O  O15  1  0.67926700  0.17901900  0.55969200  1
  O  O16  1  0.01072100  0.51168200  0.22048800  1
  O  O17  1  0.34033900  0.84848500  0.88489800  1
  O  O18  1  0.17901900  0.67926700  0.55969200  1
  O  O19  1  0.51168200  0.01072100  0.22048800  1
  O  O20  1  0.84848500  0.34033900  0.88489800  1
  O  O21  1  0.01045700  0.01045700  0.72339400  1
  O  O22  1  0.34413200  0.34413200  0.38847300  1
  O  O23  1  0.67810400  0.67810400  0.05150300  1
loop_
_geom_bond_atom_site_label_1
_geom_bond_atom_site_label_2
_geom_bond_distance
_geom_bond_site_symmetry_2
La0 O6 2.400431 1_555
La0 O9 2.400431 1_555
La0 O3 2.420968 1_555
La0 O15 2.587166 1_555
La0 O18 2.587166 1_555
La0 O14 2.855621 1_555
La0 O21 2.957943 1_565
La0 O21 2.957943 1_655
La0 O20 3.262900 1_555
La0 O17 3.262900 1_555
La1 O12 2.335740 1_555
La1 O4 2.442774 1_555
La1 O7 2.538983 1_565
La1 O10 2.538983 1_655
La1 O18 2.820799 1_655
La1 O15 2.820799 1_565
La1 O22 2.962656 1_655
La1 O22 2.962656 1_565
La1 O19 3.169903 1_565
La1 O16 3.169903 1_655
O0 V2 1.692594 1_554
O1 V0 1.697413 1_555
O1 Sr3 2.378289 1_556
O2 V1 1.715147 1_555
O2 Sr4 2.394287 1_555
O3 V4 1.764076 1_556
O4 V5 1.765432 1_555
O5 V3 1.712227 1_555
O5 Sr5 2.435594 1_555
O6 V3 1.754910 1_565
O6 Sr2 2.640540 1_555
O6 Sr4 2.807381 1_565
O7 V4 1.750067 1_555
O7 Sr0 2.680735 1_655
O7 Sr3 2.806638 1_545
O8 V5 1.741279 1_555
O8 Sr1 2.587777 1_655
O8 Sr5 2.625266 1_656
O8 Sr4 2.904136 1_655
O8 Sr3 2.975744 1_556
O9 V3 1.754910 1_655
O9 Sr2 2.640540 1_555
O9 Sr4 2.807381 1_655
O10 V4 1.750067 1_555
O10 Sr0 2.680735 1_565
O10 Sr3 2.806638 1_455
O11 V5 1.741279 1_555
O11 Sr1 2.587777 1_565
O11 Sr5 2.625266 1_566
O11 Sr4 2.904136 1_565
O11 Sr3 2.975744 1_556
O12 V3 1.738172 1_665
O12 Sr0 2.581584 1_665
O13 V4 1.738766 1_556
O13 Sr1 2.634003 1_555
O13 Sr5 2.649783 1_556
O13 Sr3 2.927488 1_546
O13 Sr3 2.927488 1_456
O14 V5 1.741168 1_555
O14 Sr2 2.662446 1_555
O14 Sr4 2.917985 1_565
O14 Sr4 2.917985 1_655
O15 V0 1.748926 1_545
O15 Sr1 2.616729 1_555
O16 V1 1.750204 1_555
O16 Sr3 2.535669 1_455
O16 Sr2 2.599907 1_455
O16 Sr5 2.918339 1_555
O17 V2 1.754807 1_555
O17 Sr4 2.537502 1_565
O17 Sr0 2.559568 1_566
O17 Sr5 2.932011 1_566
O18 V0 1.748926 1_455
O18 Sr1 2.616729 1_555
O19 V1 1.750204 1_555
O19 Sr3 2.535669 1_545
O19 Sr2 2.599907 1_545
O19 Sr5 2.918339 1_555
O20 V2 1.754807 1_555
O20 Sr4 2.537502 1_655
O20 Sr0 2.559568 1_656
O20 Sr5 2.932011 1_656
O21 V0 1.735701 1_445
O21 Sr4 2.637165 1_555
O21 Sr0 2.649740 1_556
O22 V1 1.736510 1_555
O22 Sr1 2.549797 1_555
O23 V2 1.768659 1_554
O23 Sr2 2.553727 1_555
O23 Sr3 2.583637 1_555
O23 Sr5 2.903446 1_565
O23 Sr5 2.903446 1_655
