# generated using pymatgen
data_Mg2Si
_symmetry_space_group_name_H-M   'P 1'
_cell_length_a   5.88294000
_cell_length_b   5.98370571
_cell_length_c   7.81366528
_cell_angle_alpha   70.86139396
_cell_angle_beta   80.55640821
_cell_angle_gamma   66.26770620
_symmetry_Int_Tables_number   1
_chemical_formula_structural   Mg2Si
_chemical_formula_sum   'Mg8 Si4'
_cell_volume   237.71380868
_cell_formula_units_Z   4
loop_
 _symmetry_equiv_pos_site_id
 _symmetry_equiv_pos_as_xyz
  1  'x, y, z'
loop_
 _atom_site_type_symbol
 _atom_site_label
 _atom_site_symmetry_multiplicity
 _atom_site_fract_x
 _atom_site_fract_y
 _atom_site_fract_z
 _atom_site_occupancy
  Mg  Mg0  1  0.51577700  0.00465600  0.34458800  1
  Mg  Mg1  1  0.84512600  0.60607300  0.67800800  1
  Mg  Mg2  1  0.19594600  0.07459000  0.68941400  1
  Mg  Mg3  1  0.90816300  0.86914300  0.02266400  1
  Mg  Mg4  1  0.66710500  0.15529200  0.67417800  1
  Mg  Mg5  1  0.03329900  0.95313100  0.35344100  1
  Mg  Mg6  1  0.57725600  0.50733700  0.29389600  1
  Mg  Mg7  1  0.43472800  0.44784300  0.96877700  1
  Si  Si0  1  0.98953100  0.33378700  0.03987000  1
  Si  Si1  1  0.08217700  0.44689300  0.31656200  1
  Si  Si2  1  0.35754900  0.63195900  0.60514700  1
  Si  Si3  1  0.39287400  0.96976700  0.01356300  1
loop_
_geom_bond_atom_site_label_1
_geom_bond_atom_site_label_2
_geom_bond_distance
_geom_bond_site_symmetry_2
Mg0 Si1 2.815532 1_555
Mg0 Si2 2.838441 1_545
Mg0 Si3 2.888891 1_545
Mg1 Si0 2.832712 1_556
Mg1 Si2 2.948928 1_555
Mg1 Si2 3.031582 1_655
Mg1 Si1 3.198512 1_655
Mg2 Si2 2.695104 1_545
Mg2 Si3 2.736222 1_546
Mg2 Si1 3.013702 1_555
Mg3 Si1 2.755045 1_655
Mg3 Si3 2.851411 1_555
Mg3 Si0 3.002248 1_555
Mg3 Si0 3.052002 1_565
Mg3 Si3 3.128284 1_655
Mg4 Si2 2.622057 1_555
Mg4 Si3 2.995779 1_546
Mg5 Si2 2.646142 1_555
Mg5 Si0 2.707977 1_465
Mg5 Si1 2.998889 1_565
Mg5 Si1 3.030792 1_555
Mg5 Si3 3.112881 1_555
Mg6 Si2 2.742842 1_555
Mg6 Si3 2.832064 1_555
Mg6 Si1 2.872532 1_655
Mg6 Si0 2.940256 1_555
Mg6 Si1 3.046570 1_555
Mg7 Si2 2.731475 1_555
Mg7 Si3 2.872068 1_546
Mg7 Si0 2.889052 1_456
Mg7 Si1 3.136268 1_556
Mg7 Si0 3.159209 1_556
Mg7 Si3 3.163201 1_556
Si0 Si3 2.527924 1_645
Si0 Si1 2.659379 1_655
