# generated using pymatgen
data_Te4Mo3WS4
_symmetry_space_group_name_H-M   'P 1'
_cell_length_a   3.36352157
_cell_length_b   3.36352157
_cell_length_c   39.33254000
_cell_angle_alpha   90.00000000
_cell_angle_beta   90.00000000
_cell_angle_gamma   119.99999151
_symmetry_Int_Tables_number   1
_chemical_formula_structural   Te4Mo3WS4
_chemical_formula_sum   'Te4 Mo3 W1 S4'
_cell_volume   385.36395962
_cell_formula_units_Z   1
loop_
 _symmetry_equiv_pos_site_id
 _symmetry_equiv_pos_as_xyz
  1  'x, y, z'
loop_
 _atom_site_type_symbol
 _atom_site_label
 _atom_site_symmetry_multiplicity
 _atom_site_fract_x
 _atom_site_fract_y
 _atom_site_fract_z
 _atom_site_occupancy
  Te  Te0  1  0.33333300  0.66666700  0.70689200  1
  Te  Te1  1  0.66666700  0.33333300  0.42058500  1
  Te  Te2  1  0.66666700  0.33333300  0.51661600  1
  Te  Te3  1  0.33333300  0.66666700  0.61041800  1
  Mo  Mo0  1  0.33333300  0.66666700  0.09394100  1
  Mo  Mo1  1  0.33333300  0.66666700  0.46862300  1
  Mo  Mo2  1  0.66666700  0.33333300  0.28172100  1
  W  W0  1  0.66666700  0.33333300  0.65871400  1
  S  S0  1  0.33333300  0.66666700  0.32012000  1
  S  S1  1  0.66666700  0.33333300  0.05552600  1
  S  S2  1  0.66666700  0.33333300  0.13233200  1
  S  S3  1  0.33333300  0.66666700  0.24326000  1
loop_
_geom_bond_atom_site_label_1
_geom_bond_atom_site_label_2
_geom_bond_distance
_geom_bond_site_symmetry_2
Te0 W0 2.713295 1_455
Te0 W0 2.713295 1_565
Te0 W0 2.713299 1_555
Te3 W0 2.716539 1_455
Te3 W0 2.716539 1_565
Te3 W0 2.716543 1_555
Mo0 S2 2.459925 1_455
Mo0 S2 2.459925 1_565
Mo0 S2 2.459930 1_555
Mo0 S1 2.460505 1_455
Mo0 S1 2.460505 1_565
Mo0 S1 2.460509 1_555
Mo1 Te2 2.708218 1_455
Mo1 Te2 2.708218 1_565
Mo1 Te2 2.708222 1_555
Mo1 Te1 2.709452 1_455
Mo1 Te1 2.709452 1_565
Mo1 Te1 2.709456 1_555
Mo2 S0 2.460118 1_545
Mo2 S0 2.460118 1_655
Mo2 S0 2.460123 1_555
Mo2 S3 2.461616 1_545
Mo2 S3 2.461616 1_655
Mo2 S3 2.461621 1_555
