# generated using pymatgen
data_CaPHO4
_symmetry_space_group_name_H-M   'P 1'
_cell_length_a   6.70284875
_cell_length_b   9.91357443
_cell_length_c   10.54422233
_cell_angle_alpha   113.71145378
_cell_angle_beta   90.00000000
_cell_angle_gamma   90.00000000
_symmetry_Int_Tables_number   1
_chemical_formula_structural   CaPHO4
_chemical_formula_sum   'Ca8 P8 H8 O32'
_cell_volume   641.50729285
_cell_formula_units_Z   8
loop_
 _symmetry_equiv_pos_site_id
 _symmetry_equiv_pos_as_xyz
  1  'x, y, z'
loop_
 _atom_site_type_symbol
 _atom_site_label
 _atom_site_symmetry_multiplicity
 _atom_site_fract_x
 _atom_site_fract_y
 _atom_site_fract_z
 _atom_site_occupancy
  Ca  Ca0  1  0.98619906  0.19896973  0.24797498  1
  Ca  Ca1  1  0.51380094  0.69896973  0.74797498  1
  Ca  Ca2  1  0.01380094  0.80103027  0.75202502  1
  Ca  Ca3  1  0.48619906  0.30103027  0.25202502  1
  Ca  Ca4  1  0.21199144  0.23610964  0.93585947  1
  Ca  Ca5  1  0.28800856  0.73610964  0.43585947  1
  Ca  Ca6  1  0.78800856  0.76389036  0.06414053  1
  Ca  Ca7  1  0.71199144  0.26389036  0.56414053  1
  P  P0  1  0.25328135  0.95200769  0.06156419  1
  P  P1  1  0.24671865  0.45200769  0.56156419  1
  P  P2  1  0.74671865  0.04799231  0.93843581  1
  P  P3  1  0.75328135  0.54799231  0.43843581  1
  P  P4  1  0.49514844  0.96909521  0.30360092  1
  P  P5  1  0.00485156  0.46909521  0.80360092  1
  P  P6  1  0.50485156  0.03090479  0.69639908  1
  P  P7  1  0.99514844  0.53090479  0.19639908  1
  H  H0  1  0.09329723  0.04670748  0.41836095  1
  H  H1  1  0.40670277  0.54670748  0.91836095  1
  H  H2  1  0.90670277  0.95329252  0.58163905  1
  H  H3  1  0.59329723  0.45329252  0.08163905  1
  H  H4  1  0.87094888  0.00098116  0.37063459  1
  H  H5  1  0.62905112  0.50098116  0.87063459  1
  H  H6  1  0.12905112  0.99901884  0.62936541  1
  H  H7  1  0.37094888  0.49901884  0.12936541  1
  O  O0  1  0.05520539  0.93097879  0.11991697  1
  O  O1  1  0.44479461  0.43097879  0.61991697  1
  O  O2  1  0.94479461  0.06902121  0.88008303  1
  O  O3  1  0.55520539  0.56902121  0.38008303  1
  O  O4  1  0.27585642  0.11811528  0.09914969  1
  O  O5  1  0.22414358  0.61811528  0.59914969  1
  O  O6  1  0.72414358  0.88188472  0.90085031  1
  O  O7  1  0.77585642  0.38188472  0.40085031  1
  O  O8  1  0.43197044  0.90724898  0.13854602  1
  O  O9  1  0.06802956  0.40724898  0.63854702  1
  O  O10  1  0.56802956  0.09275102  0.86145298  1
  O  O11  1  0.93197044  0.59275102  0.36145398  1
  O  O12  1  0.28185909  0.85883637  0.90963502  1
  O  O13  1  0.21814091  0.35883637  0.40963502  1
  O  O14  1  0.71814091  0.14116363  0.09036498  1
  O  O15  1  0.78185909  0.64116363  0.59036498  1
  O  O16  1  0.32522552  0.93711764  0.37999912  1
  O  O17  1  0.17477448  0.43711764  0.87999912  1
  O  O18  1  0.67477448  0.06288236  0.62000088  1
  O  O19  1  0.82522552  0.56288236  0.12000088  1
  O  O20  1  0.68477346  0.88245117  0.29242799  1
  O  O21  1  0.81522654  0.38245117  0.79242799  1
  O  O22  1  0.31522654  0.11754883  0.70757201  1
  O  O23  1  0.18477346  0.61754883  0.20757201  1
  O  O24  1  0.53807844  0.13233581  0.35144213  1
  O  O25  1  0.96192156  0.63233581  0.85144213  1
  O  O26  1  0.46192156  0.86766419  0.64855787  1
  O  O27  1  0.03807844  0.36766419  0.14855787  1
  O  O28  1  0.96062237  0.08789430  0.41441763  1
  O  O29  1  0.53937763  0.58789430  0.91441763  1
  O  O30  1  0.03937763  0.91210570  0.58558237  1
  O  O31  1  0.46062237  0.41210570  0.08558237  1
loop_
_geom_bond_atom_site_label_1
_geom_bond_atom_site_label_2
_geom_bond_distance
_geom_bond_site_symmetry_2
Ca0 O27 2.329498 1_655
Ca0 O7 2.350218 1_555
Ca0 O14 2.356397 1_555
Ca0 O13 2.379417 1_655
Ca0 O4 2.421349 1_655
Ca0 O28 2.424098 1_555
Ca0 O0 2.492054 1_645
Ca1 O26 2.329498 1_555
Ca1 O6 2.350218 1_555
Ca1 O15 2.356397 1_555
Ca1 O12 2.379417 1_555
Ca1 O5 2.421349 1_555
Ca1 O29 2.424098 1_555
Ca1 O1 2.492054 1_555
Ca2 O25 2.329498 1_455
Ca2 O5 2.350218 1_555
Ca2 O12 2.356397 1_555
Ca2 O15 2.379417 1_455
Ca2 O6 2.421349 1_455
Ca2 O30 2.424098 1_555
Ca2 O2 2.492054 1_465
Ca3 O24 2.329498 1_555
Ca3 O4 2.350218 1_555
Ca3 O13 2.356397 1_555
Ca3 O14 2.379417 1_555
Ca3 O7 2.421349 1_555
Ca3 O31 2.424098 1_555
Ca3 O3 2.492054 1_555
Ca4 O17 2.307382 1_555
Ca4 O22 2.319278 1_555
Ca4 O2 2.348148 1_455
Ca4 O27 2.395252 1_556
Ca4 O31 2.469518 1_556
Ca4 O4 2.477065 1_556
Ca4 O10 2.726501 1_555
Ca5 O16 2.307382 1_555
Ca5 O23 2.319278 1_555
Ca5 O3 2.348148 1_555
Ca5 O26 2.395252 1_555
Ca5 O30 2.469518 1_555
Ca5 O5 2.477065 1_555
Ca5 O11 2.726500 1_455
Ca6 O19 2.307382 1_555
Ca6 O20 2.319278 1_555
Ca6 O0 2.348148 1_655
Ca6 O25 2.395252 1_554
Ca6 O29 2.469518 1_554
Ca6 O6 2.477065 1_554
Ca6 O8 2.726500 1_555
Ca7 O18 2.307382 1_555
Ca7 O21 2.319278 1_555
Ca7 O1 2.348148 1_555
Ca7 O24 2.395252 1_555
Ca7 O28 2.469518 1_555
Ca7 O7 2.477065 1_555
Ca7 O9 2.726501 1_655
H0 O28 0.986384 1_455
H1 O29 0.986384 1_555
H2 O30 0.986384 1_655
H3 O31 0.986384 1_555
H4 O28 0.998441 1_555
H4 O20 1.684850 1_545
H5 O29 0.998441 1_555
H5 O21 1.684850 1_555
H6 O30 0.998441 1_555
H6 O22 1.684850 1_565
H7 O31 0.998441 1_555
H7 O23 1.684850 1_555
O0 P0 1.512585 1_555
O1 P1 1.512585 1_555
O2 P2 1.512585 1_555
O3 P3 1.512585 1_555
O4 P0 1.538433 1_545
O5 P1 1.538433 1_555
O6 P2 1.538433 1_565
O7 P3 1.538433 1_555
O8 P0 1.606233 1_555
O8 P4 1.651048 1_555
O9 P1 1.606240 1_555
O9 P5 1.651038 1_555
O10 P2 1.606240 1_555
O10 P6 1.651038 1_555
O11 P3 1.606233 1_555
O11 P7 1.651048 1_555
O12 P0 1.505362 1_556
O13 P1 1.505362 1_555
O14 P2 1.505362 1_554
O15 P3 1.505362 1_555
O16 P4 1.500685 1_555
O17 P5 1.500685 1_555
O18 P6 1.500685 1_555
O19 P7 1.500685 1_555
O20 P4 1.511888 1_555
O21 P5 1.511888 1_655
O22 P6 1.511888 1_555
O23 P7 1.511888 1_455
O24 P4 1.516443 1_545
O25 P5 1.516443 1_655
O26 P6 1.516443 1_565
O27 P7 1.516443 1_455
