# generated using pymatgen
data_Sr15La2Cl36
_symmetry_space_group_name_H-M   'P 1'
_cell_length_a   4.99573910
_cell_length_b   4.99573875
_cell_length_c   85.23297198
_cell_angle_alpha   60.11554318
_cell_angle_beta   60.11554554
_cell_angle_gamma   59.99655239
_symmetry_Int_Tables_number   1
_chemical_formula_structural   Sr15La2Cl36
_chemical_formula_sum   'Sr15 La2 Cl36'
_cell_volume   1506.73548914
_cell_formula_units_Z   1
loop_
 _symmetry_equiv_pos_site_id
 _symmetry_equiv_pos_as_xyz
  1  'x, y, z'
loop_
 _atom_site_type_symbol
 _atom_site_label
 _atom_site_symmetry_multiplicity
 _atom_site_fract_x
 _atom_site_fract_y
 _atom_site_fract_z
 _atom_site_occupancy
  Sr  Sr0  1  0.99275680  0.99275680  0.00127019  1
  Sr  Sr1  1  0.99756433  0.99756433  0.05925087  1
  Sr  Sr2  1  0.00082689  0.00082689  0.11750372  1
  Sr  Sr3  1  0.00103154  0.00103154  0.17629178  1
  Sr  Sr4  1  0.00080329  0.00080329  0.23515136  1
  Sr  Sr5  1  0.00074146  0.00074146  0.35281324  1
  Sr  Sr6  1  0.00076384  0.00076384  0.29398228  1
  Sr  Sr7  1  0.00073098  0.00073098  0.41163410  1
  Sr  Sr8  1  0.00081869  0.00081869  0.47044224  1
  Sr  Sr9  1  0.00105559  0.00105559  0.52922815  1
  Sr  Sr10  1  0.00120816  0.00120816  0.58802472  1
  Sr  Sr11  1  0.00032153  0.00032153  0.70582329  1
  Sr  Sr12  1  0.00062228  0.00062228  0.64694969  1
  Sr  Sr13  1  0.00222068  0.00222068  0.76431669  1
  Sr  Sr14  1  0.99605965  0.99605965  0.88303658  1
  La  La0  1  0.97586091  0.97586091  0.82782450  1
  La  La1  1  0.97600000  0.97600000  0.94538035  1
  Cl  Cl0  1  0.23797906  0.23797906  0.01682397  1
  Cl  Cl1  1  0.24753007  0.24753007  0.07396508  1
  Cl  Cl2  1  0.24939923  0.24939923  0.13245800  1
  Cl  Cl3  1  0.74665923  0.74665923  0.04470402  1
  Cl  Cl4  1  0.24963458  0.24963458  0.19123959  1
  Cl  Cl5  1  0.74822661  0.74822661  0.10325425  1
  Cl  Cl6  1  0.74984547  0.74984547  0.16179453  1
  Cl  Cl7  1  0.24949846  0.24949846  0.25008693  1
  Cl  Cl8  1  0.74989750  0.74989750  0.22061080  1
  Cl  Cl9  1  0.24940526  0.24940526  0.30892956  1
  Cl  Cl10  1  0.74980035  0.74980035  0.27944648  1
  Cl  Cl11  1  0.24940072  0.24940072  0.36775464  1
  Cl  Cl12  1  0.24943894  0.24943894  0.42656772  1
  Cl  Cl13  1  0.74971955  0.74971955  0.33828666  1
  Cl  Cl14  1  0.24958694  0.24958694  0.48536938  1
  Cl  Cl15  1  0.74971829  0.74971829  0.39711319  1
  Cl  Cl16  1  0.24969094  0.24969094  0.54417455  1
  Cl  Cl17  1  0.74981017  0.74981017  0.45591577  1
  Cl  Cl18  1  0.74994748  0.74994748  0.51471567  1
  Cl  Cl19  1  0.24945911  0.24945911  0.60303617  1
  Cl  Cl20  1  0.74998301  0.74998301  0.57353839  1
  Cl  Cl21  1  0.24896053  0.24896053  0.66194849  1
  Cl  Cl22  1  0.74951312  0.74951312  0.63244005  1
  Cl  Cl23  1  0.25048012  0.25048012  0.72050224  1
  Cl  Cl24  1  0.24109730  0.24109730  0.78099032  1
  Cl  Cl25  1  0.74919255  0.74919255  0.69131738  1
  Cl  Cl26  1  0.75046757  0.75046757  0.74992088  1
  Cl  Cl27  1  0.28590747  0.28590747  0.83191868  1
  Cl  Cl28  1  0.51717531  0.51717531  0.84990950  1
  Cl  Cl29  1  0.76506913  0.76506913  0.80617725  1
  Cl  Cl30  1  0.22979056  0.22979056  0.90061244  1
  Cl  Cl31  1  0.73654946  0.73654946  0.87001649  1
  Cl  Cl32  1  0.28532380  0.28532380  0.94963268  1
  Cl  Cl33  1  0.51819770  0.51819770  0.96737367  1
  Cl  Cl34  1  0.76409845  0.76409845  0.92397627  1
  Cl  Cl35  1  0.73415933  0.73415933  0.98808355  1
loop_
_geom_bond_atom_site_label_1
_geom_bond_atom_site_label_2
_geom_bond_distance
_geom_bond_site_symmetry_2
Cl0 Sr1 2.957763 1_445
Cl0 Sr0 3.081155 1_455
Cl0 Sr0 3.081155 1_545
Cl0 Sr0 3.081682 1_445
Cl1 Sr2 3.035267 1_555
Cl1 Sr1 3.061106 1_455
Cl1 Sr1 3.061106 1_545
Cl1 Sr1 3.061461 1_445
Cl2 Sr3 3.055842 1_555
Cl2 Sr2 3.066841 1_555
Cl2 Sr2 3.066889 1_565
Cl2 Sr2 3.066889 1_655
Cl3 Sr0 3.027960 1_555
Cl3 Sr1 3.057253 1_545
Cl3 Sr1 3.057253 1_455
Cl3 Sr1 3.057497 1_555
Cl4 Sr4 3.061279 1_555
Cl4 Sr3 3.066639 1_555
Cl4 Sr3 3.066760 1_565
Cl4 Sr3 3.066760 1_655
Cl5 Sr2 3.050398 1_655
Cl5 Sr2 3.050398 1_565
Cl5 Sr2 3.050765 1_665
Cl5 Sr1 3.067666 1_555
Cl6 Sr3 3.056108 1_655
Cl6 Sr3 3.056108 1_565
Cl6 Sr3 3.056351 1_665
Cl6 Sr2 3.087704 1_665
Cl7 Sr6 3.060135 1_555
Cl7 Sr4 3.066377 1_565
Cl7 Sr4 3.066378 1_655
Cl7 Sr4 3.066535 1_555
Cl8 Sr4 3.057066 1_665
Cl8 Sr4 3.057250 1_655
Cl8 Sr4 3.057250 1_565
Cl8 Sr3 3.089670 1_665
Cl9 Sr5 3.059321 1_555
Cl9 Sr6 3.066603 1_565
Cl9 Sr6 3.066604 1_655
Cl9 Sr6 3.066915 1_555
Cl10 Sr6 3.057015 1_655
Cl10 Sr6 3.057015 1_565
Cl10 Sr6 3.057207 1_665
Cl10 Sr4 3.088004 1_665
Cl11 Sr7 3.059027 1_555
Cl11 Sr5 3.066527 1_565
Cl11 Sr5 3.066527 1_655
Cl11 Sr5 3.066649 1_555
Cl12 Sr8 3.058682 1_555
Cl12 Sr7 3.066324 1_565
Cl12 Sr7 3.066324 1_655
Cl12 Sr7 3.066503 1_555
Cl13 Sr5 3.056777 1_655
Cl13 Sr5 3.056777 1_565
Cl13 Sr5 3.057045 1_665
Cl13 Sr6 3.088650 1_665
Cl14 Sr9 3.057584 1_555
Cl14 Sr8 3.066075 1_565
Cl14 Sr8 3.066075 1_655
Cl14 Sr8 3.066541 1_555
Cl15 Sr7 3.056576 1_665
Cl15 Sr7 3.056814 1_655
Cl15 Sr7 3.056815 1_565
Cl15 Sr5 3.088341 1_665
Cl16 Sr10 3.056985 1_555
Cl16 Sr9 3.066628 1_565
Cl16 Sr9 3.066628 1_655
Cl16 Sr9 3.066804 1_555
Cl17 Sr8 3.056831 1_655
Cl17 Sr8 3.056831 1_565
Cl17 Sr8 3.056928 1_665
Cl17 Sr7 3.087067 1_665
Cl18 Sr9 3.056425 1_655
Cl18 Sr9 3.056426 1_565
Cl18 Sr9 3.056771 1_665
Cl18 Sr8 3.086492 1_665
Cl19 Sr12 3.061401 1_555
Cl19 Sr10 3.068219 1_555
Cl19 Sr10 3.068235 1_565
Cl19 Sr10 3.068236 1_655
Cl20 Sr10 3.055913 1_665
Cl20 Sr10 3.055950 1_655
Cl20 Sr10 3.055950 1_565
Cl20 Sr9 3.089058 1_665
Cl21 Sr11 3.058702 1_555
Cl21 Sr12 3.067871 1_565
Cl21 Sr12 3.067872 1_655
Cl21 Sr12 3.068046 1_555
Cl22 Sr12 3.056421 1_655
Cl22 Sr12 3.056421 1_565
Cl22 Sr12 3.056582 1_665
Cl22 Sr10 3.096385 1_665
Cl23 Sr13 3.054495 1_555
Cl23 Sr11 3.060312 1_565
Cl23 Sr11 3.060312 1_655
Cl23 Sr11 3.060581 1_555
Cl24 Sr13 3.109486 1_565
Cl24 Sr13 3.109486 1_655
Cl24 Sr13 3.110014 1_555
Cl24 La0 3.265013 1_445
Cl25 Sr11 3.056341 1_655
Cl25 Sr11 3.056341 1_565
Cl25 Sr11 3.056485 1_665
Cl25 Sr12 3.093063 1_665
Cl26 Sr13 3.053809 1_655
Cl26 Sr13 3.053809 1_565
Cl26 Sr13 3.053956 1_665
Cl26 Sr11 3.074234 1_665
Cl27 La0 2.897696 1_445
Cl27 La0 2.898646 1_455
Cl27 La0 2.898646 1_545
Cl27 Sr14 3.563650 1_445
Cl28 La0 3.268659 1_545
Cl28 La0 3.268659 1_455
Cl28 La0 3.271049 1_555
Cl29 Sr13 2.918281 1_665
Cl29 La0 3.254642 1_545
Cl29 La0 3.254643 1_455
Cl29 La0 3.256303 1_555
Cl30 La1 3.120965 1_445
Cl30 Sr14 3.133672 1_455
Cl30 Sr14 3.133673 1_545
Cl30 Sr14 3.133805 1_445
Cl31 La0 2.941387 1_555
Cl31 Sr14 3.023473 1_555
Cl31 Sr14 3.023808 1_545
Cl31 Sr14 3.023809 1_455
Cl32 La1 2.899006 1_455
Cl32 La1 2.899006 1_545
Cl32 La1 2.900296 1_445
Cl33 La1 3.265267 1_555
Cl33 La1 3.267043 1_545
Cl33 La1 3.267043 1_455
Cl34 Sr14 2.854083 1_555
Cl34 La1 3.246419 1_555
Cl34 La1 3.247847 1_545
Cl34 La1 3.247848 1_455
Cl35 La1 2.977025 1_555
Cl35 Sr0 3.027186 1_546
Cl35 Sr0 3.027186 1_456
Cl35 Sr0 3.027236 1_556
