# generated using pymatgen
data_CeMg14Mn
_symmetry_space_group_name_H-M   'P 1'
_cell_length_a   6.47431044
_cell_length_b   6.10639749
_cell_length_c   10.26626457
_cell_angle_alpha   90.00000000
_cell_angle_beta   90.00000000
_cell_angle_gamma   118.13734817
_symmetry_Int_Tables_number   1
_chemical_formula_structural   CeMg14Mn
_chemical_formula_sum   'Ce1 Mg14 Mn1'
_cell_volume   357.90751353
_cell_formula_units_Z   1
loop_
 _symmetry_equiv_pos_site_id
 _symmetry_equiv_pos_as_xyz
  1  'x, y, z'
loop_
 _atom_site_type_symbol
 _atom_site_label
 _atom_site_symmetry_multiplicity
 _atom_site_fract_x
 _atom_site_fract_y
 _atom_site_fract_z
 _atom_site_occupancy
  Ce  Ce0  1  0.14156698  0.82078299  0.12500000  1
  Mg  Mg0  1  0.15693634  0.32846767  0.62500000  1
  Mg  Mg1  1  0.16278409  0.83139155  0.62500000  1
  Mg  Mg2  1  0.64229393  0.32700395  0.12500000  1
  Mg  Mg3  1  0.66041078  0.32659189  0.62500000  1
  Mg  Mg4  1  0.64229393  0.81528898  0.12500000  1
  Mg  Mg5  1  0.66041078  0.83381789  0.62500000  1
  Mg  Mg6  1  0.34375574  0.17512734  0.37801424  1
  Mg  Mg7  1  0.34375574  0.17512734  0.87198576  1
  Mg  Mg8  1  0.34375574  0.66862940  0.37801424  1
  Mg  Mg9  1  0.34375574  0.66862940  0.87198576  1
  Mg  Mg10  1  0.85584883  0.17792491  0.35607710  1
  Mg  Mg11  1  0.85584883  0.17792491  0.89392290  1
  Mg  Mg12  1  0.83323939  0.66662019  0.38713468  1
  Mg  Mg13  1  0.83323939  0.66662019  0.86286532  1
  Mn  Mn0  1  0.18010378  0.34005139  0.12500000  1
loop_
_geom_bond_atom_site_label_1
_geom_bond_atom_site_label_2
_geom_bond_distance
_geom_bond_site_symmetry_2
Ce0 Mn0 3.061116 1_565
Ce0 Mn0 3.061116 1_555
Ce0 Mg12 3.215727 1_455
Ce0 Mg13 3.215727 1_454
Ce0 Mg2 3.216763 1_455
Ce0 Mg4 3.216764 1_455
Ce0 Mg9 3.235892 1_554
Ce0 Mg8 3.235892 1_555
Ce0 Mg7 3.235898 1_564
Ce0 Mg6 3.235898 1_565
Ce0 Mg2 3.257817 1_565
Ce0 Mg4 3.257817 1_555
Mg0 Mg1 3.053381 1_545
Mg0 Mg1 3.053381 1_555
Mg0 Mg6 3.136445 1_555
Mg0 Mg7 3.136445 1_555
Mg0 Mg8 3.136450 1_555
Mg0 Mg9 3.136450 1_555
Mg0 Mg5 3.209275 1_445
Mg0 Mg3 3.209275 1_455
Mg0 Mg11 3.252235 1_455
Mg0 Mg10 3.252235 1_455
Mg0 Mg5 3.265067 1_555
Mg0 Mg3 3.265067 1_555
Mg1 Mg12 3.082706 1_455
Mg1 Mg13 3.082706 1_455
Mg1 Mg8 3.144571 1_555
Mg1 Mg9 3.144571 1_555
Mg1 Mg6 3.144577 1_565
Mg1 Mg7 3.144577 1_565
Mg1 Mg3 3.214829 1_565
Mg1 Mg5 3.214829 1_555
Mg1 Mg3 3.259534 1_455
Mg1 Mg5 3.259534 1_455
Mg2 Mg4 2.981662 1_555
Mg2 Mn0 3.030750 1_555
Mg2 Mg7 3.106818 1_554
Mg2 Mg6 3.106818 1_555
Mg2 Mg4 3.124735 1_545
Mg2 Mn0 3.445092 1_655
Mg3 Mg5 3.009074 1_545
Mg3 Mg5 3.097324 1_555
Mg3 Mg6 3.114388 1_555
Mg3 Mg7 3.114388 1_555
Mg4 Mn0 3.030749 1_555
Mg4 Mg9 3.106818 1_554
Mg4 Mg8 3.106818 1_555
Mg4 Mn0 3.445091 1_665
Mg5 Mg8 3.114388 1_555
Mg5 Mg9 3.114388 1_555
Mg6 Mg8 3.013520 1_555
Mg6 Mg8 3.092878 1_545
Mg6 Mn0 3.144888 1_555
Mg7 Mg9 3.013520 1_555
Mg7 Mg9 3.092878 1_545
Mg7 Mn0 3.144888 1_556
Mg8 Mn0 3.144894 1_555
Mg9 Mn0 3.144894 1_556
Mg10 Mn0 3.009127 1_655
Mg10 Mg12 3.072515 1_545
Mg10 Mg12 3.072515 1_555
Mg10 Mg2 3.091161 1_555
Mg10 Mg4 3.091167 1_545
Mg10 Mg8 3.174950 1_655
Mg10 Mg6 3.174950 1_655
Mg10 Mg8 3.315086 1_545
Mg10 Mg6 3.315087 1_555
Mg10 Mg3 3.336286 1_555
Mg10 Mg5 3.336291 1_545
Mg11 Mn0 3.009127 1_656
Mg11 Mg13 3.072515 1_545
Mg11 Mg13 3.072515 1_555
Mg11 Mg2 3.091161 1_556
Mg11 Mg4 3.091167 1_546
Mg11 Mg9 3.174950 1_655
Mg11 Mg7 3.174950 1_655
Mg11 Mg9 3.315086 1_545
Mg11 Mg7 3.315087 1_555
Mg11 Mg3 3.336286 1_555
Mg11 Mg5 3.336291 1_545
Mg12 Mg5 3.055362 1_555
Mg12 Mg3 3.055368 1_555
Mg12 Mg6 3.176254 1_555
Mg12 Mg8 3.176254 1_555
Mg12 Mg4 3.263928 1_555
Mg12 Mg2 3.263933 1_555
Mg12 Mg6 3.300801 1_665
Mg12 Mg8 3.300801 1_655
Mg13 Mg5 3.055362 1_555
Mg13 Mg3 3.055368 1_555
Mg13 Mg7 3.176254 1_555
Mg13 Mg9 3.176254 1_555
Mg13 Mg4 3.263928 1_556
Mg13 Mg2 3.263933 1_556
Mg13 Mg7 3.300801 1_665
Mg13 Mg9 3.300801 1_655
