# generated using pymatgen
data_CaFe6(OF2)4
_symmetry_space_group_name_H-M   'P 1'
_cell_length_a   8.86400771
_cell_length_b   5.84396246
_cell_length_c   5.98762054
_cell_angle_alpha   68.15785195
_cell_angle_beta   61.85936742
_cell_angle_gamma   67.98792123
_symmetry_Int_Tables_number   1
_chemical_formula_structural   CaFe6(OF2)4
_chemical_formula_sum   'Ca1 Fe6 O4 F8'
_cell_volume   246.22341534
_cell_formula_units_Z   1
loop_
 _symmetry_equiv_pos_site_id
 _symmetry_equiv_pos_as_xyz
  1  'x, y, z'
loop_
 _atom_site_type_symbol
 _atom_site_label
 _atom_site_symmetry_multiplicity
 _atom_site_fract_x
 _atom_site_fract_y
 _atom_site_fract_z
 _atom_site_occupancy
  Ca  Ca0  1  0.89687700  0.94597100  0.66375000  1
  Fe  Fe0  1  0.80576200  0.52359500  0.64631100  1
  Fe  Fe1  1  0.65260700  0.38246500  0.25828400  1
  Fe  Fe2  1  0.34713000  0.70310600  0.65124300  1
  Fe  Fe3  1  0.19255500  0.35597500  0.38797500  1
  Fe  Fe4  1  0.48647900  0.00116500  0.00069500  1
  Fe  Fe5  1  0.04186700  0.97664100  0.04099700  1
  O  O0  1  0.32820800  0.00483400  0.35179500  1
  O  O1  1  0.66909400  0.68857900  0.95974100  1
  O  O2  1  0.00840200  0.23087900  0.70928000  1
  O  O3  1  0.01819900  0.68441200  0.36616100  1
  F  F0  1  0.62284000  0.10862300  0.60386500  1
  F  F1  1  0.34804700  0.39226900  0.97555000  1
  F  F2  1  0.32049100  0.92842500  0.90226100  1
  F  F3  1  0.91794300  0.24345500  0.26790400  1
  F  F4  1  0.62382400  0.60809900  0.50331700  1
  F  F5  1  0.08378700  0.70050600  0.84908100  1
  F  F6  1  0.36426600  0.45372900  0.43276700  1
  F  F7  1  0.67162200  0.15060300  0.01236000  1
loop_
_geom_bond_atom_site_label_1
_geom_bond_atom_site_label_2
_geom_bond_distance
_geom_bond_site_symmetry_2
Ca0 F5 2.191407 1_655
Ca0 F3 2.331248 1_565
Ca0 O2 2.376874 1_665
Ca0 O3 2.377998 1_655
Ca0 F0 2.402009 1_565
Ca0 F7 2.431049 1_566
Ca0 O1 2.529381 1_555
Fe0 O2 2.037246 1_655
Fe0 O1 2.060462 1_555
Fe0 O3 2.101641 1_655
Fe1 O1 1.996755 1_554
Fe2 O0 2.015332 1_565
Fe3 O2 1.945744 1_555
Fe3 O3 1.967196 1_555
Fe3 O0 1.984731 1_555
Fe4 O0 1.901870 1_555
Fe4 O1 1.938986 1_544
Fe5 O3 2.039687 1_555
Fe5 O2 2.066392 1_564
F0 Fe1 2.061499 1_555
F0 Fe4 2.061713 1_556
F1 Fe2 2.109408 1_555
F1 Fe4 2.137333 1_556
F1 Fe3 2.159092 1_556
F2 Fe4 2.041103 1_566
F2 Fe5 2.141565 1_556
F2 Fe2 2.225627 1_555
F3 Fe5 2.090084 1_645
F3 Fe1 2.203549 1_555
F4 Fe0 1.992131 1_555
F4 Fe2 2.098608 1_555
F4 Fe1 2.188751 1_555
F5 Fe2 2.063301 1_555
F5 Fe5 2.142483 1_556
F6 Fe3 1.966151 1_555
F6 Fe1 2.191906 1_555
F6 Fe2 2.218878 1_555
F7 Fe4 2.165324 1_555
F7 Fe1 2.260976 1_555
F7 Fe0 2.626507 1_554
