# generated using pymatgen
data_Dy3GaFeS7
_symmetry_space_group_name_H-M   'P 1'
_cell_length_a   9.49825961
_cell_length_b   9.49825961
_cell_length_c   6.16016400
_cell_angle_alpha   90.00000000
_cell_angle_beta   90.00000000
_cell_angle_gamma   119.99999727
_symmetry_Int_Tables_number   1
_chemical_formula_structural   Dy3GaFeS7
_chemical_formula_sum   'Dy6 Ga2 Fe2 S14'
_cell_volume   481.29460032
_cell_formula_units_Z   2
loop_
 _symmetry_equiv_pos_site_id
 _symmetry_equiv_pos_as_xyz
  1  'x, y, z'
loop_
 _atom_site_type_symbol
 _atom_site_label
 _atom_site_symmetry_multiplicity
 _atom_site_fract_x
 _atom_site_fract_y
 _atom_site_fract_z
 _atom_site_occupancy
  Dy  Dy0  1  0.78151500  0.62665500  0.17378500  1
  Dy  Dy1  1  0.37334500  0.15486100  0.17378500  1
  Dy  Dy2  1  0.84513900  0.21848500  0.17378500  1
  Dy  Dy3  1  0.21848500  0.37334500  0.67378500  1
  Dy  Dy4  1  0.62665500  0.84513900  0.67378500  1
  Dy  Dy5  1  0.15486100  0.78151500  0.67378500  1
  Ga  Ga0  1  0.33333300  0.66666700  0.10544000  1
  Ga  Ga1  1  0.66666700  0.33333300  0.60544000  1
  Fe  Fe0  1  0.00000000  0.00000000  0.50923400  1
  Fe  Fe1  1  0.00000000  0.00000000  0.00923400  1
  S  S0  1  0.91439000  0.48041500  0.44736500  1
  S  S1  1  0.51958500  0.43397500  0.44736500  1
  S  S2  1  0.56602500  0.08561000  0.44736500  1
  S  S3  1  0.08561000  0.51958500  0.94736500  1
  S  S4  1  0.48041500  0.56602500  0.94736500  1
  S  S5  1  0.43397500  0.91439000  0.94736500  1
  S  S6  1  0.33333300  0.66666700  0.47027800  1
  S  S7  1  0.66666700  0.33333300  0.97027800  1
  S  S8  1  0.78233100  0.90691700  0.26544100  1
  S  S9  1  0.09308300  0.87541400  0.26544100  1
  S  S10  1  0.12458600  0.21766900  0.26544100  1
  S  S11  1  0.21766900  0.09308300  0.76544100  1
  S  S12  1  0.90691700  0.12458600  0.76544100  1
  S  S13  1  0.87541400  0.78233100  0.76544100  1
loop_
_geom_bond_atom_site_label_1
_geom_bond_atom_site_label_2
_geom_bond_distance
_geom_bond_site_symmetry_2
Dy0 S8 2.717438 1_555
Dy0 S7 2.735774 1_554
Dy0 S9 2.768933 1_655
Dy0 S1 2.797499 1_555
Dy0 S13 2.826773 1_554
Dy0 S0 2.848777 1_555
Dy0 S4 2.968041 1_554
Dy1 S9 2.717443 1_545
Dy1 S7 2.735772 1_554
Dy1 S10 2.768927 1_555
Dy1 S2 2.797504 1_555
Dy1 S11 2.826773 1_554
Dy1 S1 2.848771 1_555
Dy1 S5 2.968049 1_544
Dy2 S10 2.717447 1_655
Dy2 S7 2.735758 1_554
Dy2 S8 2.768936 1_545
Dy2 S0 2.797497 1_555
Dy2 S12 2.826777 1_554
Dy2 S2 2.848771 1_555
Dy2 S3 2.968043 1_654
Dy3 S11 2.717438 1_555
Dy3 S6 2.735774 1_555
Dy3 S12 2.768933 1_455
Dy3 S4 2.797499 1_555
Dy3 S10 2.826773 1_555
Dy3 S3 2.848777 1_555
Dy3 S1 2.968041 1_555
Dy4 S12 2.717443 1_565
Dy4 S6 2.735772 1_555
Dy4 S13 2.768927 1_555
Dy4 S5 2.797504 1_555
Dy4 S8 2.826773 1_555
Dy4 S4 2.848771 1_555
Dy4 S2 2.968049 1_565
Dy5 S13 2.717447 1_455
Dy5 S6 2.735758 1_555
Dy5 S11 2.768936 1_565
Dy5 S3 2.797497 1_555
Dy5 S9 2.826777 1_555
Dy5 S5 2.848771 1_555
Dy5 S0 2.968043 1_455
Ga0 S6 2.247462 1_555
Ga0 S5 2.269163 1_554
Ga0 S3 2.269164 1_554
Ga0 S4 2.269171 1_554
Ga1 S7 2.247462 1_555
Ga1 S2 2.269163 1_555
Ga1 S0 2.269164 1_555
Ga1 S1 2.269171 1_555
Fe0 S9 2.341719 1_545
Fe0 S8 2.341719 1_445
Fe0 S10 2.341719 1_555
Fe0 S12 2.391482 1_455
Fe0 S11 2.391482 1_555
Fe0 S13 2.391482 1_445
Fe1 S12 2.341719 1_454
Fe1 S11 2.341719 1_554
Fe1 S13 2.341719 1_444
Fe1 S9 2.391482 1_545
Fe1 S8 2.391482 1_445
Fe1 S10 2.391482 1_555
