# generated using pymatgen
data_Li7Co5O12
_symmetry_space_group_name_H-M   'P 1'
_cell_length_a   2.98952900
_cell_length_b   7.52483571
_cell_length_c   9.73269559
_cell_angle_alpha   90.94320634
_cell_angle_beta   97.72046698
_cell_angle_gamma   100.32421379
_symmetry_Int_Tables_number   1
_chemical_formula_structural   Li7Co5O12
_chemical_formula_sum   'Li7 Co5 O12'
_cell_volume   213.26196431
_cell_formula_units_Z   1
loop_
 _symmetry_equiv_pos_site_id
 _symmetry_equiv_pos_as_xyz
  1  'x, y, z'
loop_
 _atom_site_type_symbol
 _atom_site_label
 _atom_site_symmetry_multiplicity
 _atom_site_fract_x
 _atom_site_fract_y
 _atom_site_fract_z
 _atom_site_occupancy
  Li  Li0  1  0.58133800  0.41437500  0.75157000  1
  Li  Li1  1  0.74785900  0.25437000  0.24699800  1
  Li  Li2  1  0.92159800  0.08236800  0.75686300  1
  Li  Li3  1  0.07840200  0.91763200  0.24313700  1
  Li  Li4  1  0.25214100  0.74563000  0.75300200  1
  Li  Li5  1  0.41866200  0.58562500  0.24843000  1
  Li  Li6  1  0.50000000  0.00000000  0.00000000  1
  Co  Co0  1  0.84941800  0.67681300  0.00263300  1
  Co  Co1  1  0.15058200  0.32318700  0.99736700  1
  Co  Co2  1  0.00000000  0.50000000  0.50000000  1
  Co  Co3  1  0.33534600  0.16646000  0.49927700  1
  Co  Co4  1  0.66465400  0.83354000  0.50072300  1
  O  O0  1  0.18343700  0.53130200  0.89184300  1
  O  O1  1  0.39193600  0.37444000  0.38330500  1
  O  O2  1  0.50923800  0.21754200  0.88456600  1
  O  O3  1  0.71978700  0.04024300  0.38243600  1
  O  O4  1  0.86968700  0.84706500  0.88502200  1
  O  O5  1  0.04912600  0.70733500  0.38481000  1
  O  O6  1  0.95087400  0.29266500  0.61519000  1
  O  O7  1  0.13031300  0.15293500  0.11497800  1
  O  O8  1  0.28021300  0.95975700  0.61756400  1
  O  O9  1  0.49076200  0.78245800  0.11543400  1
  O  O10  1  0.60806400  0.62556000  0.61669500  1
  O  O11  1  0.81656300  0.46869800  0.10815700  1
loop_
_geom_bond_atom_site_label_1
_geom_bond_atom_site_label_2
_geom_bond_distance
_geom_bond_site_symmetry_2
Li0 O2 1.984785 1_555
Li0 O10 2.075150 1_555
Li0 O6 2.130185 1_555
Li0 O0 2.147210 1_655
Li0 O6 2.195936 1_455
Li0 O0 2.196576 1_555
Li1 O7 2.053315 1_655
Li1 O3 2.095711 1_555
Li1 O1 2.095916 1_555
Li1 O7 2.113578 1_555
Li1 O11 2.120577 1_555
Li1 O1 2.221358 1_655
Li2 O2 2.096869 1_655
Li2 O6 2.113689 1_555
Li2 O8 2.131332 1_645
Li2 O4 2.177437 1_545
Li2 O2 2.217793 1_555
Li2 O8 2.234311 1_545
Li3 O9 2.096869 1_455
Li3 O5 2.113689 1_555
Li3 O3 2.131332 1_465
Li3 O7 2.177437 1_565
Li3 O9 2.217793 1_555
Li3 O3 2.234311 1_565
Li4 O4 2.053315 1_455
Li4 O8 2.095711 1_555
Li4 O10 2.095916 1_555
Li4 O4 2.113578 1_555
Li4 O0 2.120577 1_555
Li4 O10 2.221358 1_455
Li5 O9 1.984785 1_555
Li5 O1 2.075150 1_555
Li5 O5 2.130185 1_555
Li5 O11 2.147210 1_455
Li5 O5 2.195936 1_655
Li5 O11 2.196576 1_555
Li6 O2 1.998830 1_554
Li6 O9 1.998830 1_545
Li6 O4 2.131631 1_544
Li6 O7 2.131631 1_555
Li6 O7 2.177414 1_655
Li6 O4 2.177414 1_444
Co0 O4 1.730405 1_554
Co0 O11 1.881972 1_555
Co0 O9 1.892077 1_555
Co0 O0 2.000264 1_654
Co0 O9 2.091110 1_655
Co0 O0 2.220021 1_554
Co1 O7 1.730405 1_556
Co1 O0 1.881972 1_555
Co1 O2 1.892077 1_555
Co1 O11 2.000264 1_456
Co1 O2 2.091110 1_455
Co1 O11 2.220021 1_556
Co2 O5 1.931904 1_555
Co2 O6 1.931904 1_455
Co2 O1 2.067497 1_555
Co2 O10 2.067497 1_455
Co2 O10 2.069166 1_555
Co2 O1 2.069166 1_455
Co3 O1 1.940738 1_555
Co3 O8 1.946761 1_545
Co3 O6 2.049404 1_455
Co3 O3 2.054983 1_555
Co3 O6 2.083575 1_555
Co3 O3 2.087436 1_455
Co4 O10 1.940738 1_555
Co4 O3 1.946761 1_565
Co4 O5 2.049404 1_655
Co4 O8 2.054983 1_555
Co4 O5 2.083575 1_555
Co4 O8 2.087436 1_655
