# generated using pymatgen
data_Zn3P4H28C8(NO6)2
_symmetry_space_group_name_H-M   'P 1'
_cell_length_a   18.35088419
_cell_length_b   17.10378836
_cell_length_c   9.40520836
_cell_angle_alpha   82.09593301
_cell_angle_beta   67.39653541
_cell_angle_gamma   30.50753158
_symmetry_Int_Tables_number   1
_chemical_formula_structural   Zn3P4H28C8(NO6)2
_chemical_formula_sum   'Zn6 P8 H56 C16 N4 O24'
_cell_volume   1259.88237549
_cell_formula_units_Z   2
loop_
 _symmetry_equiv_pos_site_id
 _symmetry_equiv_pos_as_xyz
  1  'x, y, z'
loop_
 _atom_site_type_symbol
 _atom_site_label
 _atom_site_symmetry_multiplicity
 _atom_site_fract_x
 _atom_site_fract_y
 _atom_site_fract_z
 _atom_site_occupancy
  Zn  Zn0  1  0.61407800  0.61407800  0.88592200  1
  Zn  Zn1  1  0.88592200  0.88592200  0.61407800  1
  Zn  Zn2  1  0.63592200  0.63592200  0.36407800  1
  Zn  Zn3  1  0.36407800  0.36407800  0.63592200  1
  Zn  Zn4  1  0.50000000  0.50000000  0.50000000  1
  Zn  Zn5  1  0.75000000  0.75000000  0.75000000  1
  P  P0  1  0.41601100  0.71899800  0.72568500  1
  P  P1  1  0.13930600  0.72568500  0.71899800  1
  P  P2  1  0.72568500  0.13930600  0.41601100  1
  P  P3  1  0.71899800  0.41601100  0.13930600  1
  P  P4  1  0.83398900  0.53100200  0.52431500  1
  P  P5  1  0.11069400  0.52431500  0.53100200  1
  P  P6  1  0.52431500  0.11069400  0.83398900  1
  P  P7  1  0.53100200  0.83398900  0.11069400  1
  H  H0  1  0.23806900  0.86646400  0.81565800  1
  H  H1  1  0.07980800  0.81565800  0.86646400  1
  H  H2  1  0.81565800  0.07980800  0.23806900  1
  H  H3  1  0.86646400  0.23806900  0.07980800  1
  H  H4  1  0.01193100  0.38353600  0.43434200  1
  H  H5  1  0.17019200  0.43434200  0.38353600  1
  H  H6  1  0.43434200  0.17019200  0.01193100  1
  H  H7  1  0.38353600  0.01193100  0.17019200  1
  H  H8  1  0.63964700  0.34199700  0.97108200  1
  H  H9  1  0.04727400  0.97108200  0.34199700  1
  H  H10  1  0.97108200  0.04727400  0.63964700  1
  H  H11  1  0.34199700  0.63964700  0.04727400  1
  H  H12  1  0.61035300  0.90800300  0.27891800  1
  H  H13  1  0.20272600  0.27891800  0.90800300  1
  H  H14  1  0.27891800  0.20272600  0.61035300  1
  H  H15  1  0.90800300  0.61035300  0.20272600  1
  H  H16  1  0.70257200  0.19211800  0.88860300  1
  H  H17  1  0.21670800  0.88860300  0.19211800  1
  H  H18  1  0.88860300  0.21670800  0.70257200  1
  H  H19  1  0.19211800  0.70257200  0.21670800  1
  H  H20  1  0.54742800  0.05788200  0.36139700  1
  H  H21  1  0.03329200  0.36139700  0.05788200  1
  H  H22  1  0.36139700  0.03329200  0.54742800  1
  H  H23  1  0.05788200  0.54742800  0.03329200  1
  H  H24  1  0.59946300  0.35489000  0.81404100  1
  H  H25  1  0.23160600  0.81404100  0.35489000  1
  H  H26  1  0.81404100  0.23160600  0.59946300  1
  H  H27  1  0.35489000  0.59946300  0.23160600  1
  H  H28  1  0.65053700  0.89511000  0.43595900  1
  H  H29  1  0.01839400  0.43595900  0.89511000  1
  H  H30  1  0.43595900  0.01839400  0.65053700  1
  H  H31  1  0.89511000  0.65053700  0.01839400  1
  H  H32  1  0.35091100  0.46793900  0.31537800  1
  H  H33  1  0.86577200  0.31537800  0.46793900  1
  H  H34  1  0.31537800  0.86577200  0.35091100  1
  H  H35  1  0.46793900  0.35091100  0.86577200  1
  H  H36  1  0.89908900  0.78206100  0.93462200  1
  H  H37  1  0.38422800  0.93462200  0.78206100  1
  H  H38  1  0.93462200  0.38422800  0.89908900  1
  H  H39  1  0.78206100  0.89908900  0.38422800  1
  H  H40  1  0.47114600  0.29564400  0.15975900  1
  H  H41  1  0.07345100  0.15975900  0.29564400  1
  H  H42  1  0.15975900  0.07345100  0.47114600  1
  H  H43  1  0.29564400  0.47114600  0.07345100  1
  H  H44  1  0.77885400  0.95435600  0.09024100  1
  H  H45  1  0.17654900  0.09024100  0.95435600  1
  H  H46  1  0.09024100  0.17654900  0.77885400  1
  H  H47  1  0.95435600  0.77885400  0.17654900  1
  H  H48  1  0.57532800  0.28048500  0.18177600  1
  H  H49  1  0.96241100  0.18177600  0.28048500  1
  H  H50  1  0.18177600  0.96241100  0.57532800  1
  H  H51  1  0.28048500  0.57532800  0.96241100  1
  H  H52  1  0.67467200  0.96951500  0.06822400  1
  H  H53  1  0.28758900  0.06822400  0.96951500  1
  H  H54  1  0.06822400  0.28758900  0.67467200  1
  H  H55  1  0.96951500  0.67467200  0.28758900  1
  C  C0  1  0.60860900  0.32258500  0.92300300  1
  C  C1  1  0.14580400  0.92300300  0.32258500  1
  C  C2  1  0.92300300  0.14580400  0.60860900  1
  C  C3  1  0.32258500  0.60860900  0.14580400  1
  C  C4  1  0.64139100  0.92741500  0.32699700  1
  C  C5  1  0.10419600  0.32699700  0.92741500  1
  C  C6  1  0.32699700  0.10419600  0.64139100  1
  C  C7  1  0.92741500  0.64139100  0.10419600  1
  C  C8  1  0.46058500  0.36552900  0.18894300  1
  C  C9  1  0.98494300  0.18894300  0.36552900  1
  C  C10  1  0.18894300  0.98494300  0.46058500  1
  C  C11  1  0.36552900  0.46058500  0.98494300  1
  C  C12  1  0.78941500  0.88447100  0.06105700  1
  C  C13  1  0.26505700  0.06105700  0.88447100  1
  C  C14  1  0.06105700  0.26505700  0.78941500  1
  C  C15  1  0.88447100  0.78941500  0.26505700  1
  N  N0  1  0.43912400  0.43912400  0.06087600  1
  N  N1  1  0.06087600  0.06087600  0.43912400  1
  N  N2  1  0.81087600  0.81087600  0.18912400  1
  N  N3  1  0.18912400  0.18912400  0.81087600  1
  O  O0  1  0.44936600  0.70748600  0.86102500  1
  O  O1  1  0.98212300  0.86102500  0.70748600  1
  O  O2  1  0.86102500  0.98212300  0.44936600  1
  O  O3  1  0.70748600  0.44936600  0.98212300  1
  O  O4  1  0.80063400  0.54251400  0.38897500  1
  O  O5  1  0.26787700  0.38897500  0.54251400  1
  O  O6  1  0.38897500  0.26787700  0.80063400  1
  O  O7  1  0.54251400  0.80063400  0.26787700  1
  O  O8  1  0.79987500  0.49164200  0.66122500  1
  O  O9  1  0.04725800  0.66122500  0.49164200  1
  O  O10  1  0.66122500  0.04725800  0.79987500  1
  O  O11  1  0.49164200  0.79987500  0.04725800  1
  O  O12  1  0.45012500  0.75835800  0.58877500  1
  O  O13  1  0.20274200  0.58877500  0.75835800  1
  O  O14  1  0.58877500  0.20274200  0.45012500  1
  O  O15  1  0.75835800  0.45012500  0.20274200  1
  O  O16  1  0.49697200  0.56886800  0.65733900  1
  O  O17  1  0.27682100  0.65733900  0.56886800  1
  O  O18  1  0.65733900  0.27682100  0.49697200  1
  O  O19  1  0.56886800  0.49697200  0.27682100  1
  O  O20  1  0.75302800  0.68113200  0.59266100  1
  O  O21  1  0.97317900  0.59266100  0.68113200  1
  O  O22  1  0.59266100  0.97317900  0.75302800  1
  O  O23  1  0.68113200  0.75302800  0.97317900  1
loop_
_geom_bond_atom_site_label_1
_geom_bond_atom_site_label_2
_geom_bond_distance
_geom_bond_site_symmetry_2
H0 P0 1.418326 1_555
H1 P1 1.418316 1_555
H2 P2 1.418324 1_555
H3 P3 1.418325 1_555
H4 P4 1.418326 1_455
H5 P5 1.418316 1_555
H6 P6 1.418324 1_554
H7 P7 1.418325 1_545
C0 H16 1.094062 1_555
C0 H24 1.095623 1_555
C0 H8 1.097391 1_555
C0 N0 1.502052 1_556
C1 H17 1.094062 1_555
C1 H25 1.095622 1_555
C1 H9 1.097408 1_555
C1 N1 1.502041 1_565
C2 H18 1.094062 1_555
C2 H26 1.095627 1_555
C2 H10 1.097405 1_555
C2 N1 1.502046 1_655
C3 H19 1.094062 1_555
C3 H27 1.095615 1_555
C3 H11 1.097397 1_555
C3 N0 1.502054 1_555
C4 H20 1.094062 1_565
C4 H28 1.095623 1_555
C4 H12 1.097391 1_555
C4 N2 1.502052 1_555
C5 H21 1.094062 1_556
C5 H29 1.095622 1_555
C5 H13 1.097408 1_555
C5 N3 1.502041 1_555
C6 H22 1.094062 1_555
C6 H30 1.095627 1_555
C6 H14 1.097405 1_555
C6 N3 1.502046 1_555
C7 H23 1.094062 1_655
C7 H31 1.095615 1_555
C7 H15 1.097397 1_555
C7 N2 1.502054 1_555
C8 H32 1.091511 1_555
C8 H40 1.091702 1_555
C8 H48 1.092840 1_555
C8 N0 1.511231 1_555
C9 H33 1.091511 1_555
C9 H41 1.091702 1_655
C9 H49 1.092840 1_555
C9 N1 1.511231 1_655
C10 H34 1.091511 1_555
C10 H42 1.091702 1_565
C10 H50 1.092840 1_555
C10 N1 1.511231 1_565
C11 H35 1.091511 1_555
C11 H43 1.091702 1_556
C11 H51 1.092840 1_555
C11 N0 1.511231 1_556
C12 H36 1.091511 1_554
C12 H44 1.091702 1_555
C12 H52 1.092840 1_555
C12 N2 1.511231 1_555
C13 H37 1.091511 1_545
C13 H45 1.091702 1_555
C13 H53 1.092840 1_555
C13 N3 1.511231 1_555
C14 H38 1.091511 1_455
C14 H46 1.091702 1_555
C14 H54 1.092840 1_555
C14 N3 1.511231 1_555
C15 H39 1.091511 1_555
C15 H47 1.091702 1_555
C15 H55 1.092840 1_555
C15 N2 1.511231 1_555
O0 P0 1.534934 1_555
O0 Zn0 1.965608 1_555
O1 P1 1.534934 1_655
O1 Zn1 1.965608 1_555
O2 P2 1.534934 1_565
O2 Zn1 1.965608 1_555
O3 P3 1.534934 1_556
O3 Zn0 1.965608 1_555
O4 P4 1.534934 1_555
O4 Zn2 1.965608 1_555
O5 P5 1.534934 1_555
O5 Zn3 1.965608 1_555
O6 P6 1.534934 1_555
O6 Zn3 1.965608 1_555
O7 P7 1.534934 1_555
O7 Zn2 1.965608 1_555
O8 P4 1.539909 1_555
O8 Zn0 1.962562 1_555
O9 P5 1.539909 1_555
O9 Zn1 1.962562 1_455
O10 P6 1.539909 1_555
O10 Zn1 1.962562 1_545
O11 P7 1.539909 1_555
O11 Zn0 1.962562 1_554
O12 P0 1.539909 1_555
O12 Zn2 1.962562 1_555
O13 P1 1.539909 1_555
O13 Zn3 1.962562 1_555
O14 P2 1.539909 1_555
O14 Zn3 1.962562 1_555
O15 P3 1.539909 1_555
O15 Zn2 1.962562 1_555
O16 P0 1.536301 1_555
O16 Zn4 1.970730 1_555
O17 P1 1.536301 1_555
O17 Zn4 1.970730 1_555
O18 P2 1.536301 1_555
O18 Zn4 1.970730 1_555
O19 P3 1.536301 1_555
O19 Zn4 1.970730 1_555
O20 P4 1.536301 1_555
O20 Zn5 1.970730 1_555
O21 P5 1.536301 1_655
O21 Zn5 1.970730 1_555
O22 P6 1.536301 1_565
O22 Zn5 1.970730 1_555
O23 P7 1.536301 1_556
O23 Zn5 1.970730 1_555
