# generated using pymatgen
data_H3NCl
_symmetry_space_group_name_H-M   'P 1'
_cell_length_a   7.91122800
_cell_length_b   7.91122800
_cell_length_c   7.91122800
_cell_angle_alpha   90.00000000
_cell_angle_beta   90.00000000
_cell_angle_gamma   90.00000000
_symmetry_Int_Tables_number   1
_chemical_formula_structural   H3NCl
_chemical_formula_sum   'H24 N8 Cl8'
_cell_volume   495.14420767
_cell_formula_units_Z   8
loop_
 _symmetry_equiv_pos_site_id
 _symmetry_equiv_pos_as_xyz
  1  'x, y, z'
loop_
 _atom_site_type_symbol
 _atom_site_label
 _atom_site_symmetry_multiplicity
 _atom_site_fract_x
 _atom_site_fract_y
 _atom_site_fract_z
 _atom_site_occupancy
  H  H0  1  0.35848500  0.61587400  0.97382400  1
  H  H1  1  0.64151500  0.11587400  0.52617600  1
  H  H2  1  0.14151500  0.38412600  0.47382400  1
  H  H3  1  0.85848500  0.88412600  0.02617600  1
  H  H4  1  0.97382400  0.35848500  0.61587400  1
  H  H5  1  0.52617600  0.64151500  0.11587400  1
  H  H6  1  0.47382400  0.14151500  0.38412600  1
  H  H7  1  0.02617600  0.85848500  0.88412600  1
  H  H8  1  0.61587400  0.97382400  0.35848500  1
  H  H9  1  0.11587400  0.52617600  0.64151500  1
  H  H10  1  0.38412600  0.47382400  0.14151500  1
  H  H11  1  0.88412600  0.02617600  0.85848500  1
  H  H12  1  0.64151500  0.38412600  0.02617600  1
  H  H13  1  0.35848500  0.88412600  0.47382400  1
  H  H14  1  0.85848500  0.61587400  0.52617600  1
  H  H15  1  0.14151500  0.11587400  0.97382400  1
  H  H16  1  0.02617600  0.64151500  0.38412600  1
  H  H17  1  0.47382400  0.35848500  0.88412600  1
  H  H18  1  0.52617600  0.85848500  0.61587400  1
  H  H19  1  0.97382400  0.14151500  0.11587400  1
  H  H20  1  0.38412600  0.02617600  0.64151500  1
  H  H21  1  0.88412600  0.47382400  0.35848500  1
  H  H22  1  0.61587400  0.52617600  0.85848500  1
  H  H23  1  0.11587400  0.97382400  0.14151500  1
  N  N0  1  0.55268800  0.44731200  0.94731200  1
  N  N1  1  0.44731200  0.94731200  0.55268800  1
  N  N2  1  0.94731200  0.55268800  0.44731200  1
  N  N3  1  0.05268800  0.05268800  0.05268800  1
  N  N4  1  0.44731200  0.55268800  0.05268800  1
  N  N5  1  0.55268800  0.05268800  0.44731200  1
  N  N6  1  0.05268800  0.44731200  0.55268800  1
  N  N7  1  0.94731200  0.94731200  0.94731200  1
  Cl  Cl0  1  0.21806300  0.78193700  0.28193700  1
  Cl  Cl1  1  0.78193700  0.28193700  0.21806300  1
  Cl  Cl2  1  0.28193700  0.21806300  0.78193700  1
  Cl  Cl3  1  0.71806300  0.71806300  0.71806300  1
  Cl  Cl4  1  0.78193700  0.21806300  0.71806300  1
  Cl  Cl5  1  0.21806300  0.71806300  0.78193700  1
  Cl  Cl6  1  0.71806300  0.78193700  0.21806300  1
  Cl  Cl7  1  0.28193700  0.28193700  0.28193700  1
loop_
_geom_bond_atom_site_label_1
_geom_bond_atom_site_label_2
_geom_bond_distance
_geom_bond_site_symmetry_2
H0 N4 1.064413 1_556
H1 N5 1.064413 1_555
H2 N6 1.064413 1_555
H3 N7 1.064413 1_554
H4 N6 1.064413 1_655
H5 N4 1.064413 1_555
H6 N5 1.064413 1_555
H7 N7 1.064413 1_455
H8 N5 1.064413 1_565
H9 N6 1.064413 1_555
H10 N4 1.064413 1_555
H11 N7 1.064413 1_545
H12 N0 1.064413 1_554
H13 N1 1.064413 1_555
H14 N2 1.064413 1_555
H15 N3 1.064413 1_556
H16 N2 1.064413 1_455
H17 N0 1.064413 1_555
H18 N1 1.064413 1_555
H19 N3 1.064413 1_655
H20 N1 1.064413 1_545
H21 N2 1.064413 1_555
H22 N0 1.064413 1_555
H23 N3 1.064413 1_565
Cl0 H23 2.047489 1_555
Cl0 H16 2.047489 1_555
Cl0 H13 2.047489 1_555
Cl1 H19 2.047489 1_555
Cl1 H12 2.047489 1_555
Cl1 H21 2.047489 1_555
Cl2 H15 2.047489 1_555
Cl2 H20 2.047489 1_555
Cl2 H17 2.047489 1_555
Cl3 H22 2.047489 1_555
Cl3 H14 2.047489 1_555
Cl3 H18 2.047489 1_555
Cl4 H11 2.047489 1_555
Cl4 H1 2.047489 1_555
Cl4 H4 2.047489 1_555
Cl5 H7 2.047489 1_555
Cl5 H9 2.047489 1_555
Cl5 H0 2.047489 1_555
Cl6 H3 2.047489 1_555
Cl6 H5 2.047489 1_555
Cl6 H8 2.047489 1_555
Cl7 H10 2.047489 1_555
Cl7 H6 2.047489 1_555
Cl7 H2 2.047489 1_555
