# generated using pymatgen
data_Na2YHC2O7
_symmetry_space_group_name_H-M   'P 1'
_cell_length_a   9.38105135
_cell_length_b   9.38105135
_cell_length_c   11.48604175
_cell_angle_alpha   84.38555977
_cell_angle_beta   84.38555977
_cell_angle_gamma   38.53376026
_symmetry_Int_Tables_number   1
_chemical_formula_structural   Na2YHC2O7
_chemical_formula_sum   'Na8 Y4 H4 C8 O28'
_cell_volume   626.32467934
_cell_formula_units_Z   4
loop_
 _symmetry_equiv_pos_site_id
 _symmetry_equiv_pos_as_xyz
  1  'x, y, z'
loop_
 _atom_site_type_symbol
 _atom_site_label
 _atom_site_symmetry_multiplicity
 _atom_site_fract_x
 _atom_site_fract_y
 _atom_site_fract_z
 _atom_site_occupancy
  Na  Na0  1  0.49094600  0.28721800  0.38160000  1
  Na  Na1  1  0.71278200  0.50905400  0.11840000  1
  Na  Na2  1  0.50905400  0.71278200  0.61840000  1
  Na  Na3  1  0.28721800  0.49094600  0.88160000  1
  Na  Na4  1  0.17643500  0.35528300  0.64232200  1
  Na  Na5  1  0.64471700  0.82356500  0.85767800  1
  Na  Na6  1  0.82356500  0.64471700  0.35767800  1
  Na  Na7  1  0.35528300  0.17643500  0.14232200  1
  Y  Y0  1  0.78144600  0.09759400  0.63094700  1
  Y  Y1  1  0.90240600  0.21855400  0.86905300  1
  Y  Y2  1  0.21855400  0.90240600  0.36905300  1
  Y  Y3  1  0.09759400  0.78144600  0.13094700  1
  H  H0  1  0.94074900  0.26087600  0.62353100  1
  H  H1  1  0.73912400  0.05925100  0.87646900  1
  H  H2  1  0.05925100  0.73912400  0.37646900  1
  H  H3  1  0.26087600  0.94074900  0.12353100  1
  C  C0  1  0.23266700  0.63819200  0.61626200  1
  C  C1  1  0.36180800  0.76733300  0.88373800  1
  C  C2  1  0.76733300  0.36180800  0.38373800  1
  C  C3  1  0.63819200  0.23266700  0.11626200  1
  C  C4  1  0.28251600  0.13377000  0.42167100  1
  C  C5  1  0.86623000  0.71748400  0.07832900  1
  C  C6  1  0.71748400  0.86623000  0.57832900  1
  C  C7  1  0.13377000  0.28251600  0.92167100  1
  O  O0  1  0.18069200  0.80575800  0.56553500  1
  O  O1  1  0.19424200  0.81930800  0.93446500  1
  O  O2  1  0.81930800  0.19424200  0.43446500  1
  O  O3  1  0.80575800  0.18069200  0.06553500  1
  O  O4  1  0.69301000  0.09469500  0.20010100  1
  O  O5  1  0.90530500  0.30699000  0.29989900  1
  O  O6  1  0.30699000  0.90530500  0.79989900  1
  O  O7  1  0.09469500  0.69301000  0.70010100  1
  O  O8  1  0.01277400  0.38360700  0.82705300  1
  O  O9  1  0.61639300  0.98722600  0.67294700  1
  O  O10  1  0.98722600  0.61639300  0.17294700  1
  O  O11  1  0.38360700  0.01277400  0.32705300  1
  O  O12  1  0.40851600  0.43128000  0.58319000  1
  O  O13  1  0.56872000  0.59148400  0.91681000  1
  O  O14  1  0.59148400  0.56872000  0.41681000  1
  O  O15  1  0.43128000  0.40851600  0.08319000  1
  O  O16  1  0.24080200  0.29758200  0.43402100  1
  O  O17  1  0.70241800  0.75919800  0.06597900  1
  O  O18  1  0.75919800  0.70241800  0.56597900  1
  O  O19  1  0.29758200  0.24080200  0.93402100  1
  O  O20  1  0.78096000  0.91922400  0.49629500  1
  O  O21  1  0.08077600  0.21904000  0.00370500  1
  O  O22  1  0.21904000  0.08077600  0.50370500  1
  O  O23  1  0.91922400  0.78096000  0.99629500  1
  O  O24  1  0.82626600  0.29825900  0.67553000  1
  O  O25  1  0.70174100  0.17373400  0.82447000  1
  O  O26  1  0.17373400  0.70174100  0.32447000  1
  O  O27  1  0.29825900  0.82626600  0.17553000  1
loop_
_geom_bond_atom_site_label_1
_geom_bond_atom_site_label_2
_geom_bond_distance
_geom_bond_site_symmetry_2
Na0 O16 2.292736 1_555
Na0 O4 2.410084 1_555
Na0 O20 2.484456 1_545
Na0 O26 2.487260 1_555
Na0 O12 2.532346 1_555
Na0 O2 2.584026 1_555
Na1 O17 2.292736 1_555
Na1 O5 2.410084 1_555
Na1 O21 2.484456 1_655
Na1 O27 2.487260 1_555
Na1 O13 2.532346 1_554
Na1 O3 2.584026 1_555
Na2 O18 2.292736 1_555
Na2 O6 2.410084 1_555
Na2 O22 2.484456 1_565
Na2 O24 2.487260 1_555
Na2 O14 2.532346 1_555
Na2 O0 2.584026 1_555
Na3 O19 2.292736 1_555
Na3 O7 2.410084 1_555
Na3 O23 2.484456 1_455
Na3 O25 2.487260 1_555
Na3 O15 2.532346 1_556
Na3 O1 2.584026 1_555
Na4 O8 2.400960 1_555
Na4 O16 2.416878 1_555
Na4 O9 2.613705 1_545
Na4 O18 2.620204 1_455
Na4 O7 2.752668 1_555
Na4 O12 2.784578 1_555
Na4 O22 2.897188 1_555
Na5 O9 2.400960 1_555
Na5 O17 2.416878 1_556
Na5 O8 2.613705 1_655
Na5 O19 2.620204 1_565
Na5 O6 2.752668 1_555
Na5 O13 2.784578 1_555
Na5 O23 2.897188 1_555
Na6 O10 2.400960 1_555
Na6 O18 2.416878 1_555
Na6 O11 2.613705 1_565
Na6 O16 2.620204 1_655
Na6 O5 2.752668 1_555
Na6 O14 2.784578 1_555
Na6 O20 2.897188 1_555
Na7 O11 2.400960 1_555
Na7 O19 2.416878 1_554
Na7 O10 2.613705 1_455
Na7 O17 2.620204 1_545
Na7 O4 2.752668 1_555
Na7 O15 2.784578 1_555
Na7 O21 2.897188 1_555
H0 O24 0.979469 1_555
H1 O25 0.979469 1_555
H2 O26 0.979469 1_555
H3 O27 0.979469 1_555
C0 O12 1.282741 1_555
C0 O7 1.295661 1_555
C0 O0 1.313586 1_555
C1 O13 1.282741 1_555
C1 O6 1.295661 1_555
C1 O1 1.313586 1_555
C2 O14 1.282741 1_555
C2 O5 1.295661 1_555
C2 O2 1.313586 1_555
C3 O15 1.282741 1_555
C3 O4 1.295661 1_555
C3 O3 1.313586 1_555
C4 O16 1.275058 1_555
C4 O11 1.313197 1_555
C4 O22 1.323351 1_555
C5 O17 1.275058 1_555
C5 O10 1.313197 1_555
C5 O23 1.323351 1_554
C6 O18 1.275058 1_555
C6 O9 1.313197 1_555
C6 O20 1.323351 1_555
C7 O19 1.275058 1_555
C7 O8 1.313197 1_555
C7 O21 1.323351 1_556
O0 Y0 2.428444 1_465
O0 Y2 2.447027 1_555
O1 Y1 2.428444 1_465
O1 Y3 2.447027 1_556
O2 Y2 2.428444 1_645
O2 Y0 2.447027 1_555
O3 Y3 2.428444 1_645
O3 Y1 2.447027 1_554
O4 Y3 2.467657 1_645
O5 Y2 2.467657 1_645
O6 Y1 2.467657 1_465
O7 Y0 2.467657 1_465
O8 Y1 2.442611 1_455
O9 Y0 2.442611 1_565
O10 Y3 2.442611 1_655
O11 Y2 2.442611 1_545
O12 Y0 2.290296 1_555
O13 Y1 2.290296 1_555
O14 Y2 2.290296 1_555
O15 Y3 2.290296 1_555
O20 Y0 2.389910 1_565
O21 Y1 2.389910 1_454
O22 Y2 2.389910 1_545
O23 Y3 2.389910 1_656
O24 Y1 2.271579 1_555
O24 Y0 2.334877 1_555
O25 Y0 2.271579 1_555
O25 Y1 2.334877 1_555
O26 Y3 2.271579 1_555
O26 Y2 2.334877 1_555
O27 Y2 2.271579 1_555
O27 Y3 2.334877 1_555
