# generated using pymatgen
data_Li3V6N11
_symmetry_space_group_name_H-M   'P 1'
_cell_length_a   10.55237000
_cell_length_b   10.55237000
_cell_length_c   5.20061400
_cell_angle_alpha   90.00000000
_cell_angle_beta   90.00000000
_cell_angle_gamma   90.00000000
_symmetry_Int_Tables_number   1
_chemical_formula_structural   Li3V6N11
_chemical_formula_sum   'Li6 V12 N22'
_cell_volume   579.10143605
_cell_formula_units_Z   2
loop_
 _symmetry_equiv_pos_site_id
 _symmetry_equiv_pos_as_xyz
  1  'x, y, z'
loop_
 _atom_site_type_symbol
 _atom_site_label
 _atom_site_symmetry_multiplicity
 _atom_site_fract_x
 _atom_site_fract_y
 _atom_site_fract_z
 _atom_site_occupancy
  Li  Li0  1  0.30843900  0.80843900  0.85670800  1
  Li  Li1  1  0.69156100  0.19156100  0.85670800  1
  Li  Li2  1  0.19156100  0.30843900  0.85670800  1
  Li  Li3  1  0.80843900  0.69156100  0.85670800  1
  Li  Li4  1  0.50000000  0.50000000  0.87411100  1
  Li  Li5  1  0.00000000  0.00000000  0.87411100  1
  V  V0  1  0.42486900  0.28741300  0.55319100  1
  V  V1  1  0.57513100  0.71258700  0.55319100  1
  V  V2  1  0.07513100  0.78741300  0.55319100  1
  V  V3  1  0.92486900  0.21258700  0.55319100  1
  V  V4  1  0.28741300  0.57513100  0.55319100  1
  V  V5  1  0.71258700  0.42486900  0.55319100  1
  V  V6  1  0.78741300  0.92486900  0.55319100  1
  V  V7  1  0.21258700  0.07513100  0.55319100  1
  V  V8  1  0.88105700  0.38105700  0.07672500  1
  V  V9  1  0.11894300  0.61894300  0.07672500  1
  V  V10  1  0.61894300  0.88105700  0.07672500  1
  V  V11  1  0.38105700  0.11894300  0.07672500  1
  N  N0  1  0.32397600  0.41651300  0.65193800  1
  N  N1  1  0.67602400  0.58348700  0.65193800  1
  N  N2  1  0.17602400  0.91651300  0.65193800  1
  N  N3  1  0.82397600  0.08348700  0.65193800  1
  N  N4  1  0.41651300  0.67602400  0.65193800  1
  N  N5  1  0.58348700  0.32397600  0.65193800  1
  N  N6  1  0.91651300  0.82397600  0.65193800  1
  N  N7  1  0.08348700  0.17602400  0.65193800  1
  N  N8  1  0.42795000  0.26631500  0.21474000  1
  N  N9  1  0.57205000  0.73368500  0.21474000  1
  N  N10  1  0.07205000  0.76631500  0.21474000  1
  N  N11  1  0.92795000  0.23368500  0.21474000  1
  N  N12  1  0.26631500  0.57205000  0.21474000  1
  N  N13  1  0.73368500  0.42795000  0.21474000  1
  N  N14  1  0.76631500  0.92795000  0.21474000  1
  N  N15  1  0.23368500  0.07205000  0.21474000  1
  N  N16  1  0.85207600  0.35207600  0.72161600  1
  N  N17  1  0.14792400  0.64792400  0.72161600  1
  N  N18  1  0.64792400  0.85207600  0.72161600  1
  N  N19  1  0.35207600  0.14792400  0.72161600  1
  N  N20  1  0.50000000  0.00000000  0.10485200  1
  N  N21  1  0.00000000  0.50000000  0.10485200  1
loop_
_geom_bond_atom_site_label_1
_geom_bond_atom_site_label_2
_geom_bond_distance
_geom_bond_site_symmetry_2
Li0 N4 2.094540 1_555
Li0 N2 2.094540 1_555
Li0 N17 2.496318 1_555
Li1 N5 2.094540 1_555
Li1 N3 2.094540 1_555
Li1 N16 2.496318 1_555
Li2 N0 2.094540 1_555
Li2 N7 2.094540 1_555
Li2 N19 2.496318 1_555
Li3 N6 2.094540 1_555
Li3 N1 2.094540 1_555
Li3 N18 2.496318 1_555
Li4 N4 2.358255 1_555
Li4 N1 2.358255 1_555
Li4 N5 2.358255 1_555
Li4 N0 2.358255 1_555
Li5 N3 2.358255 1_455
Li5 N6 2.358255 1_445
Li5 N2 2.358255 1_545
Li5 N7 2.358255 1_555
N0 V4 1.792814 1_555
N0 V0 1.803641 1_555
N1 V5 1.792814 1_555
N1 V1 1.803641 1_555
N2 V7 1.792814 1_565
N2 V2 1.803641 1_555
N3 V6 1.792814 1_545
N3 V3 1.803641 1_555
N4 V1 1.792814 1_555
N4 V4 1.803641 1_555
N5 V0 1.792814 1_555
N5 V5 1.803641 1_555
N6 V2 1.792814 1_655
N6 V6 1.803641 1_555
N7 V3 1.792814 1_455
N7 V7 1.803641 1_555
N8 V0 1.774475 1_555
N8 V11 1.782822 1_555
N9 V1 1.774475 1_555
N9 V10 1.782822 1_555
N10 V2 1.774475 1_555
N10 V9 1.782822 1_555
N11 V3 1.774475 1_555
N11 V8 1.782822 1_555
N12 V4 1.774475 1_555
N12 V9 1.782822 1_555
N13 V5 1.774475 1_555
N13 V8 1.782822 1_555
N14 V6 1.774475 1_555
N14 V10 1.782822 1_555
N15 V7 1.774475 1_555
N15 V11 1.782822 1_555
N16 V5 1.877197 1_555
N16 V3 1.877197 1_555
N16 V8 1.896751 1_556
N17 V2 1.877197 1_555
N17 V4 1.877197 1_555
N17 V9 1.896751 1_556
N18 V6 1.877197 1_555
N18 V1 1.877197 1_555
N18 V10 1.896751 1_556
N19 V0 1.877197 1_555
N19 V7 1.877197 1_555
N19 V11 1.896751 1_556
N20 V10 1.781040 1_545
N20 V11 1.781040 1_555
N21 V8 1.781040 1_455
N21 V9 1.781040 1_555
