# generated using pymatgen
data_Mg6AlCo
_symmetry_space_group_name_H-M   'P 1'
_cell_length_a   4.85652900
_cell_length_b   6.01550400
_cell_length_c   10.52939600
_cell_angle_alpha   90.00000000
_cell_angle_beta   90.00000000
_cell_angle_gamma   90.00000000
_symmetry_Int_Tables_number   1
_chemical_formula_structural   Mg6AlCo
_chemical_formula_sum   'Mg12 Al2 Co2'
_cell_volume   307.61071962
_cell_formula_units_Z   2
loop_
 _symmetry_equiv_pos_site_id
 _symmetry_equiv_pos_as_xyz
  1  'x, y, z'
loop_
 _atom_site_type_symbol
 _atom_site_label
 _atom_site_symmetry_multiplicity
 _atom_site_fract_x
 _atom_site_fract_y
 _atom_site_fract_z
 _atom_site_occupancy
  Mg  Mg0  1  0.50000000  0.25041200  0.41677200  1
  Mg  Mg1  1  0.50000000  0.74958800  0.41677200  1
  Mg  Mg2  1  0.00000000  0.74078900  0.08739200  1
  Mg  Mg3  1  0.00000000  0.25921100  0.08739200  1
  Mg  Mg4  1  0.00000000  0.00000000  0.33127800  1
  Mg  Mg5  1  0.00000000  0.50000000  0.32465800  1
  Mg  Mg6  1  0.50000000  0.75041200  0.91677200  1
  Mg  Mg7  1  0.50000000  0.24958800  0.91677200  1
  Mg  Mg8  1  0.00000000  0.24078900  0.58739200  1
  Mg  Mg9  1  0.00000000  0.75921100  0.58739200  1
  Mg  Mg10  1  0.00000000  0.50000000  0.83127800  1
  Mg  Mg11  1  0.00000000  0.00000000  0.82465800  1
  Al  Al0  1  0.50000000  0.00000000  0.16827600  1
  Al  Al1  1  0.50000000  0.50000000  0.66827600  1
  Co  Co0  1  0.50000000  0.50000000  0.16745500  1
  Co  Co1  1  0.50000000  0.00000000  0.66745500  1
loop_
_geom_bond_atom_site_label_1
_geom_bond_atom_site_label_2
_geom_bond_distance
_geom_bond_site_symmetry_2
Mg0 Mg4 2.995986 1_655
Mg0 Mg4 2.995986 1_555
Mg0 Mg1 3.002795 1_555
Mg0 Mg1 3.012709 1_545
Mg0 Mg5 3.015191 1_655
Mg0 Mg5 3.015191 1_555
Mg0 Mg8 3.021146 1_555
Mg0 Mg8 3.021146 1_655
Mg1 Mg4 2.995986 1_565
Mg1 Mg4 2.995986 1_665
Mg1 Mg5 3.015191 1_655
Mg1 Mg5 3.015191 1_555
Mg1 Mg9 3.021146 1_655
Mg1 Mg9 3.021146 1_555
Mg2 Mg5 2.887802 1_555
Mg2 Mg3 2.896934 1_555
Mg2 Mg4 3.004305 1_565
Mg2 Mg6 3.021146 1_554
Mg2 Mg6 3.021146 1_454
Mg2 Mg3 3.118570 1_565
Mg3 Mg5 2.887802 1_555
Mg3 Mg4 3.004305 1_555
Mg3 Mg7 3.021146 1_454
Mg3 Mg7 3.021146 1_554
Mg4 Mg5 3.008560 1_545
Mg4 Mg5 3.008560 1_555
Mg4 Mg8 3.061109 1_555
Mg4 Mg9 3.061109 1_545
Mg5 Mg9 3.175611 1_555
Mg5 Mg8 3.175611 1_555
Mg6 Mg7 3.002795 1_565
Mg6 Mg7 3.012709 1_555
Mg8 Mg9 2.896934 1_545
Mg8 Mg9 3.118570 1_555
Mg10 Mg6 2.995986 1_555
Mg10 Mg6 2.995986 1_455
Mg10 Mg7 2.995986 1_555
Mg10 Mg7 2.995986 1_455
Mg10 Mg9 3.004305 1_555
Mg10 Mg8 3.004305 1_555
Mg10 Mg11 3.008560 1_555
Mg10 Mg11 3.008560 1_565
Mg10 Mg2 3.061109 1_556
Mg10 Mg3 3.061109 1_556
Mg11 Mg8 2.887802 1_555
Mg11 Mg9 2.887802 1_545
Mg11 Mg7 3.015191 1_555
Mg11 Mg7 3.015191 1_455
Mg11 Mg6 3.015191 1_545
Mg11 Mg6 3.015191 1_445
Mg11 Mg3 3.175611 1_556
Mg11 Mg2 3.175611 1_546
Al0 Mg4 2.973583 1_655
Al0 Mg4 2.973583 1_555
Al0 Co0 3.007764 1_545
Al0 Co0 3.007764 1_555
Al0 Mg3 3.008847 1_655
Al0 Mg3 3.008847 1_555
Al0 Mg2 3.008847 1_645
Al0 Mg2 3.008847 1_545
Al0 Mg0 3.019146 1_555
Al0 Mg1 3.019146 1_545
Al0 Mg7 3.044188 1_554
Al0 Mg6 3.044188 1_544
Al1 Mg10 2.973583 1_655
Al1 Mg10 2.973583 1_555
Al1 Co1 3.007764 1_555
Al1 Co1 3.007764 1_565
Al1 Mg9 3.008847 1_655
Al1 Mg9 3.008847 1_555
Al1 Mg8 3.008847 1_555
Al1 Mg8 3.008847 1_655
Al1 Mg6 3.019146 1_555
Al1 Mg7 3.019146 1_555
Al1 Mg1 3.044188 1_555
Al1 Mg0 3.044188 1_555
Co0 Mg5 2.938763 1_655
Co0 Mg5 2.938763 1_555
Co0 Mg2 2.950458 1_555
Co0 Mg2 2.950458 1_655
Co0 Mg3 2.950458 1_655
Co0 Mg3 2.950458 1_555
Co0 Mg1 3.024177 1_555
Co0 Mg0 3.024177 1_555
Co0 Mg6 3.039125 1_554
Co0 Mg7 3.039125 1_554
Co1 Mg11 2.938763 1_655
Co1 Mg11 2.938763 1_555
Co1 Mg8 2.950458 1_555
Co1 Mg8 2.950458 1_655
Co1 Mg9 2.950458 1_645
Co1 Mg9 2.950458 1_545
Co1 Mg7 3.024177 1_555
Co1 Mg6 3.024177 1_545
Co1 Mg0 3.039125 1_555
Co1 Mg1 3.039125 1_545
