# generated using pymatgen
data_Cr2Pb3N4
_symmetry_space_group_name_H-M   'P 1'
_cell_length_a   6.68650900
_cell_length_b   9.93267100
_cell_length_c   9.49907100
_cell_angle_alpha   90.00000000
_cell_angle_beta   90.00000000
_cell_angle_gamma   90.00000000
_symmetry_Int_Tables_number   1
_chemical_formula_structural   Cr2Pb3N4
_chemical_formula_sum   'Cr8 Pb12 N16'
_cell_volume   630.87979390
_cell_formula_units_Z   4
loop_
 _symmetry_equiv_pos_site_id
 _symmetry_equiv_pos_as_xyz
  1  'x, y, z'
loop_
 _atom_site_type_symbol
 _atom_site_label
 _atom_site_symmetry_multiplicity
 _atom_site_fract_x
 _atom_site_fract_y
 _atom_site_fract_z
 _atom_site_occupancy
  Cr  Cr0  1  0.75000000  0.50000000  0.71123300  1
  Cr  Cr1  1  0.75000000  0.00000000  0.78876700  1
  Cr  Cr2  1  0.25000000  0.50000000  0.28876700  1
  Cr  Cr3  1  0.25000000  0.00000000  0.21123300  1
  Cr  Cr4  1  0.73929700  0.25000000  0.75000000  1
  Cr  Cr5  1  0.76070300  0.75000000  0.75000000  1
  Cr  Cr6  1  0.26070300  0.75000000  0.25000000  1
  Cr  Cr7  1  0.23929700  0.25000000  0.25000000  1
  Pb  Pb0  1  0.59957900  0.16227600  0.43059400  1
  Pb  Pb1  1  0.90042100  0.83772400  0.43059400  1
  Pb  Pb2  1  0.59957900  0.33772400  0.06940600  1
  Pb  Pb3  1  0.90042100  0.66227600  0.06940600  1
  Pb  Pb4  1  0.40042100  0.83772400  0.56940600  1
  Pb  Pb5  1  0.09957900  0.16227600  0.56940600  1
  Pb  Pb6  1  0.40042100  0.66227600  0.93059400  1
  Pb  Pb7  1  0.09957900  0.33772400  0.93059400  1
  Pb  Pb8  1  0.75000000  0.50000000  0.39318600  1
  Pb  Pb9  1  0.75000000  0.00000000  0.10681400  1
  Pb  Pb10  1  0.25000000  0.50000000  0.60681400  1
  Pb  Pb11  1  0.25000000  0.00000000  0.89318600  1
  N  N0  1  0.88872700  0.35746900  0.62527300  1
  N  N1  1  0.61127300  0.64253100  0.62527300  1
  N  N2  1  0.88872700  0.14253100  0.87472700  1
  N  N3  1  0.61127300  0.85746900  0.87472700  1
  N  N4  1  0.11127300  0.64253100  0.37472700  1
  N  N5  1  0.38872700  0.35746900  0.37472700  1
  N  N6  1  0.11127300  0.85746900  0.12527300  1
  N  N7  1  0.38872700  0.14253100  0.12527300  1
  N  N8  1  0.59071500  0.39105700  0.81629600  1
  N  N9  1  0.90928500  0.60894300  0.81629600  1
  N  N10  1  0.59071500  0.10894300  0.68370400  1
  N  N11  1  0.90928500  0.89105700  0.68370400  1
  N  N12  1  0.40928500  0.60894300  0.18370400  1
  N  N13  1  0.09071500  0.39105700  0.18370400  1
  N  N14  1  0.40928500  0.89105700  0.31629600  1
  N  N15  1  0.09071500  0.10894300  0.31629600  1
loop_
_geom_bond_atom_site_label_1
_geom_bond_atom_site_label_2
_geom_bond_distance
_geom_bond_site_symmetry_2
Cr0 N8 1.816945 1_555
Cr0 N9 1.816945 1_555
Cr0 N1 1.879208 1_555
Cr0 N0 1.879208 1_555
Cr1 N10 1.816945 1_555
Cr1 N11 1.816945 1_545
Cr1 N3 1.879208 1_545
Cr1 N2 1.879208 1_555
Cr2 N13 1.816945 1_555
Cr2 N12 1.816945 1_555
Cr2 N4 1.879208 1_555
Cr2 N5 1.879208 1_555
Cr3 N14 1.816945 1_545
Cr3 N15 1.816945 1_555
Cr3 N6 1.879208 1_545
Cr3 N7 1.879208 1_555
Cr4 N8 1.829378 1_555
Cr4 N10 1.829378 1_555
Cr4 N0 1.881892 1_555
Cr4 N2 1.881892 1_555
Cr5 N11 1.829378 1_555
Cr5 N9 1.829378 1_555
Cr5 N3 1.881892 1_555
Cr5 N1 1.881892 1_555
Cr6 N14 1.829378 1_555
Cr6 N12 1.829378 1_555
Cr6 N4 1.881892 1_555
Cr6 N6 1.881892 1_555
Cr7 N15 1.829378 1_555
Cr7 N13 1.829378 1_555
Cr7 N5 1.881892 1_555
Cr7 N7 1.881892 1_555
N0 Pb5 2.455248 1_655
N0 Pb8 2.779387 1_555
N0 Pb10 2.805420 1_655
N1 Pb4 2.455248 1_555
N1 Pb8 2.779387 1_555
N1 Pb10 2.805420 1_555
N2 Pb7 2.455248 1_655
N2 Pb9 2.779387 1_556
N2 Pb11 2.805420 1_655
N3 Pb6 2.455248 1_555
N3 Pb9 2.779387 1_566
N3 Pb11 2.805420 1_565
N4 Pb1 2.455248 1_455
N4 Pb10 2.779387 1_555
N4 Pb8 2.805420 1_455
N5 Pb0 2.455248 1_555
N5 Pb10 2.779387 1_555
N5 Pb8 2.805420 1_555
N6 Pb3 2.455248 1_455
N6 Pb11 2.779387 1_564
N6 Pb9 2.805420 1_465
N7 Pb2 2.455248 1_555
N7 Pb11 2.779387 1_554
N7 Pb9 2.805420 1_555
N8 Pb2 2.462690 1_556
N9 Pb3 2.462690 1_556
N10 Pb0 2.462690 1_555
N11 Pb1 2.462690 1_555
N12 Pb6 2.462690 1_554
N13 Pb7 2.462690 1_554
N14 Pb4 2.462690 1_555
N15 Pb5 2.462690 1_555
