# generated using pymatgen
data_Rb5Tm3Br12
_symmetry_space_group_name_H-M   'P 1'
_cell_length_a   14.08770936
_cell_length_b   14.08770936
_cell_length_c   4.43921700
_cell_angle_alpha   90.00000000
_cell_angle_beta   90.00000000
_cell_angle_gamma   119.99999699
_symmetry_Int_Tables_number   1
_chemical_formula_structural   Rb5Tm3Br12
_chemical_formula_sum   'Rb5 Tm3 Br12'
_cell_volume   762.98813808
_cell_formula_units_Z   1
loop_
 _symmetry_equiv_pos_site_id
 _symmetry_equiv_pos_as_xyz
  1  'x, y, z'
loop_
 _atom_site_type_symbol
 _atom_site_label
 _atom_site_symmetry_multiplicity
 _atom_site_fract_x
 _atom_site_fract_y
 _atom_site_fract_z
 _atom_site_occupancy
  Rb  Rb0  1  0.33333300  0.66666700  0.00000000  1
  Rb  Rb1  1  0.66666700  0.33333300  0.00000000  1
  Rb  Rb2  1  0.71722100  0.00000000  0.00000000  1
  Rb  Rb3  1  0.00000000  0.71722100  0.00000000  1
  Rb  Rb4  1  0.28277900  0.28277900  0.00000000  1
  Tm  Tm0  1  0.32512200  0.00000000  0.50000000  1
  Tm  Tm1  1  0.00000000  0.32512200  0.50000000  1
  Tm  Tm2  1  0.67487800  0.67487800  0.50000000  1
  Br  Br0  1  0.19263800  0.00000000  0.00000000  1
  Br  Br1  1  0.00000000  0.19263800  0.00000000  1
  Br  Br2  1  0.80736200  0.80736200  0.00000000  1
  Br  Br3  1  0.45511400  0.00000000  0.00000000  1
  Br  Br4  1  0.00000000  0.45511400  0.00000000  1
  Br  Br5  1  0.54488600  0.54488600  0.00000000  1
  Br  Br6  1  0.22933100  0.44036200  0.50000000  1
  Br  Br7  1  0.55963800  0.78896800  0.50000000  1
  Br  Br8  1  0.44036200  0.22933100  0.50000000  1
  Br  Br9  1  0.21103200  0.77066900  0.50000000  1
  Br  Br10  1  0.78896800  0.55963800  0.50000000  1
  Br  Br11  1  0.77066900  0.21103200  0.50000000  1
loop_
_geom_bond_atom_site_label_1
_geom_bond_atom_site_label_2
_geom_bond_distance
_geom_bond_site_symmetry_2
Br0 Tm0 2.900017 1_555
Br0 Tm0 2.900017 1_554
Br0 Rb4 3.524726 1_555
Br0 Rb3 3.524726 1_545
Br1 Tm1 2.900017 1_555
Br1 Tm1 2.900017 1_554
Br1 Rb4 3.524726 1_555
Br1 Rb2 3.524726 1_455
Br2 Tm2 2.900017 1_554
Br2 Tm2 2.900017 1_555
Br2 Rb2 3.524726 1_565
Br2 Rb3 3.524726 1_655
Br3 Tm0 2.877548 1_554
Br3 Tm0 2.877548 1_555
Br3 Rb2 3.692487 1_555
Br4 Tm1 2.877548 1_555
Br4 Tm1 2.877548 1_554
Br4 Rb3 3.692487 1_555
Br5 Tm2 2.877548 1_554
Br5 Tm2 2.877548 1_555
Br5 Rb4 3.692487 1_555
Br6 Tm1 2.797922 1_555
Br6 Rb4 3.477570 1_555
Br6 Rb4 3.477570 1_556
Br6 Rb0 3.544906 1_555
Br6 Rb0 3.544906 1_556
Br7 Tm2 2.797910 1_555
Br7 Rb2 3.477578 1_566
Br7 Rb2 3.477578 1_565
Br7 Rb0 3.544905 1_555
Br7 Rb0 3.544905 1_556
Br8 Tm0 2.797922 1_555
Br8 Rb4 3.477570 1_555
Br8 Rb4 3.477570 1_556
Br8 Rb1 3.544906 1_555
Br8 Rb1 3.544906 1_556
Br9 Tm0 2.797922 1_565
Br9 Rb3 3.477581 1_556
Br9 Rb3 3.477581 1_555
Br9 Rb0 3.544886 1_555
Br9 Rb0 3.544886 1_556
Br10 Tm2 2.797910 1_555
Br10 Rb3 3.477578 1_655
Br10 Rb3 3.477578 1_656
Br10 Rb1 3.544905 1_555
Br10 Rb1 3.544905 1_556
Br11 Tm1 2.797922 1_655
Br11 Rb2 3.477581 1_555
Br11 Rb2 3.477581 1_556
Br11 Rb1 3.544886 1_556
Br11 Rb1 3.544886 1_555
