# generated using pymatgen
data_Nb9P2O25
_symmetry_space_group_name_H-M   'P 1'
_cell_length_a   11.63206244
_cell_length_b   11.63206244
_cell_length_c   11.63206244
_cell_angle_alpha   91.60177277
_cell_angle_beta   91.60177277
_cell_angle_gamma   160.75101578
_symmetry_Int_Tables_number   1
_chemical_formula_structural   Nb9P2O25
_chemical_formula_sum   'Nb9 P2 O25'
_cell_volume   511.56223915
_cell_formula_units_Z   1
loop_
 _symmetry_equiv_pos_site_id
 _symmetry_equiv_pos_as_xyz
  1  'x, y, z'
loop_
 _atom_site_type_symbol
 _atom_site_label
 _atom_site_symmetry_multiplicity
 _atom_site_fract_x
 _atom_site_fract_y
 _atom_site_fract_z
 _atom_site_occupancy
  Nb  Nb0  1  0.00000000  0.00000000  0.00000000  1
  Nb  Nb1  1  0.77987000  0.09908500  0.87895400  1
  Nb  Nb2  1  0.22013000  0.90091500  0.12104600  1
  Nb  Nb3  1  0.09908500  0.22013000  0.31921500  1
  Nb  Nb4  1  0.90091500  0.77987000  0.68078500  1
  Nb  Nb5  1  0.87728400  0.31583300  0.19311700  1
  Nb  Nb6  1  0.12271600  0.68416700  0.80688300  1
  Nb  Nb7  1  0.31583300  0.12271600  0.43854900  1
  Nb  Nb8  1  0.68416700  0.87728400  0.56145100  1
  P  P0  1  0.75000000  0.25000000  0.50000000  1
  P  P1  1  0.25000000  0.75000000  0.50000000  1
  O  O0  1  0.64623700  0.15867300  0.80491000  1
  O  O1  1  0.35376300  0.84132700  0.19509000  1
  O  O2  1  0.15867300  0.35376300  0.51243600  1
  O  O3  1  0.84132700  0.64623700  0.48756400  1
  O  O4  1  0.74955000  0.38696000  0.13651000  1
  O  O5  1  0.25045000  0.61304000  0.86349000  1
  O  O6  1  0.38696000  0.25045000  0.63741000  1
  O  O7  1  0.61304000  0.74955000  0.36259000  1
  O  O8  1  0.82198100  0.21342500  0.03540600  1
  O  O9  1  0.17801900  0.78657500  0.96459400  1
  O  O10  1  0.21342500  0.17801900  0.39144400  1
  O  O11  1  0.78657500  0.82198100  0.60855600  1
  O  O12  1  0.91684600  0.44336800  0.36021400  1
  O  O13  1  0.08315400  0.55663200  0.63978600  1
  O  O14  1  0.44336800  0.08315400  0.52652200  1
  O  O15  1  0.55663200  0.91684600  0.47347800  1
  O  O16  1  0.50000000  0.50000000  0.00000000  1
  O  O17  1  0.88375600  0.05162800  0.93538400  1
  O  O18  1  0.11624400  0.94837200  0.06461600  1
  O  O19  1  0.05162800  0.11624400  0.16787200  1
  O  O20  1  0.94837200  0.88375600  0.83212800  1
  O  O21  1  0.98556600  0.27927600  0.26484200  1
  O  O22  1  0.01443400  0.72072400  0.73515800  1
  O  O23  1  0.27927600  0.01443400  0.29371000  1
  O  O24  1  0.72072400  0.98556600  0.70629000  1
loop_
_geom_bond_atom_site_label_1
_geom_bond_atom_site_label_2
_geom_bond_distance
_geom_bond_site_symmetry_2
Nb0 O16 1.944767 1_445
Nb0 O16 1.944767 1_555
Nb0 O18 2.062906 1_545
Nb0 O19 2.062906 1_555
Nb0 O20 2.062906 1_444
Nb0 O17 2.062906 1_454
Nb1 O17 1.852378 1_555
Nb1 O8 1.976226 1_556
Nb1 O5 2.015194 1_655
Nb1 O5 2.015198 1_545
Nb1 O24 2.076031 1_545
Nb1 O0 2.373056 1_555
Nb2 O18 1.852378 1_555
Nb2 O9 1.976226 1_554
Nb2 O4 2.015194 1_455
Nb2 O4 2.015198 1_565
Nb2 O23 2.076031 1_565
Nb2 O1 2.373056 1_555
Nb3 O19 1.852374 1_555
Nb3 O10 1.976216 1_555
Nb3 O7 2.015197 1_445
Nb3 O7 2.015197 1_555
Nb3 O21 2.076042 1_455
Nb3 O2 2.373060 1_555
Nb4 O20 1.852374 1_555
Nb4 O11 1.976216 1_555
Nb4 O6 2.015197 1_665
Nb4 O6 2.015197 1_555
Nb4 O22 2.076042 1_655
Nb4 O3 2.373060 1_555
Nb5 O21 1.853576 1_555
Nb5 O8 1.887635 1_555
Nb5 O1 2.024502 1_545
Nb5 O1 2.024502 1_655
Nb5 O12 2.165684 1_555
Nb5 O4 2.371203 1_555
Nb6 O22 1.853576 1_555
Nb6 O9 1.887635 1_555
Nb6 O0 2.024502 1_455
Nb6 O0 2.024502 1_565
Nb6 O13 2.165684 1_555
Nb6 O5 2.371203 1_555
Nb7 O23 1.853576 1_555
Nb7 O10 1.887635 1_555
Nb7 O3 2.024502 1_555
Nb7 O3 2.024502 1_445
Nb7 O14 2.165684 1_555
Nb7 O6 2.371203 1_555
Nb8 O24 1.853576 1_555
Nb8 O11 1.887635 1_555
Nb8 O2 2.024502 1_555
Nb8 O2 2.024502 1_665
Nb8 O15 2.165684 1_555
Nb8 O7 2.371203 1_555
O12 P0 1.899478 1_555
O12 P1 1.899478 1_655
O13 P0 1.899478 1_455
O13 P1 1.899478 1_555
O14 P0 1.899478 1_555
O14 P1 1.899478 1_545
O15 P1 1.899478 1_555
O15 P0 1.899478 1_565
