# generated using pymatgen
data_La3AuI3
_symmetry_space_group_name_H-M   'P 1'
_cell_length_a   11.12073349
_cell_length_b   11.11904122
_cell_length_c   11.11883045
_cell_angle_alpha   109.47412821
_cell_angle_beta   109.46652631
_cell_angle_gamma   109.49105249
_symmetry_Int_Tables_number   1
_chemical_formula_structural   La3AuI3
_chemical_formula_sum   'La12 Au4 I12'
_cell_volume   1058.13533954
_cell_formula_units_Z   4
loop_
 _symmetry_equiv_pos_site_id
 _symmetry_equiv_pos_as_xyz
  1  'x, y, z'
loop_
 _atom_site_type_symbol
 _atom_site_label
 _atom_site_symmetry_multiplicity
 _atom_site_fract_x
 _atom_site_fract_y
 _atom_site_fract_z
 _atom_site_occupancy
  La  La0  1  0.46820354  0.48406545  0.23428227  1
  La  La1  1  0.74977192  0.23412107  0.26572332  1
  La  La2  1  0.75003782  0.01589805  0.48387409  1
  La  La3  1  0.23419286  0.46830002  0.48421957  1
  La  La4  1  0.26594428  0.75019554  0.23427823  1
  La  La5  1  0.03200186  0.26600517  0.01601327  1
  La  La6  1  0.01589852  0.03152879  0.26577575  1
  La  La7  1  0.48407342  0.75003027  0.01582838  1
  La  La8  1  0.48435025  0.23418036  0.46853295  1
  La  La9  1  0.01588073  0.48387607  0.74977155  1
  La  La10  1  0.26575095  0.01586878  0.03169187  1
  La  La11  1  0.23397677  0.26611231  0.75006078  1
  Au  Au0  1  0.25035784  0.24992831  0.25059740  1
  Au  Au1  1  0.49951367  -0.00003038  0.24955911  1
  Au  Au2  1  -0.00031384  0.24961417  0.49918037  1
  Au  Au3  1  0.25016067  0.50063539  0.00055837  1
  I  I0  1  0.25006551  0.75897767  0.74106652  1
  I  I1  1  0.51795788  0.50904086  0.75906167  1
  I  I2  1  0.98207248  0.74082239  0.99096319  1
  I  I3  1  0.74102814  0.24990908  0.75907088  1
  I  I4  1  0.99106417  0.98210818  0.74105265  1
  I  I5  1  0.24995894  0.99105879  0.50903897  1
  I  I6  1  0.75906638  0.51798248  0.50897617  1
  I  I7  1  0.50887380  0.24991165  0.99101446  1
  I  I8  1  0.75892458  0.74084052  0.24977581  1
  I  I9  1  0.74106115  0.99095746  0.98196713  1
  I  I10  1  0.99107774  0.50900361  0.25009319  1
  I  I11  1  0.50904798  0.75905693  0.51797410  1
loop_
_geom_bond_atom_site_label_1
_geom_bond_atom_site_label_2
_geom_bond_distance
_geom_bond_site_symmetry_2
Au0 La8 3.009656 1_555
Au0 La6 3.010844 1_555
Au0 La3 3.012070 1_555
Au0 La10 3.012980 1_555
Au0 La0 3.013064 1_555
Au0 La5 3.018411 1_555
Au1 La10 3.008711 1_555
Au1 La4 3.010998 1_545
Au1 La7 3.012507 1_545
Au1 La1 3.012554 1_555
Au1 La8 3.012853 1_555
Au1 La2 3.017632 1_555
Au2 La6 3.009197 1_555
Au2 La2 3.010910 1_455
Au2 La1 3.010944 1_455
Au2 La3 3.011393 1_555
Au2 La9 3.015627 1_555
Au2 La11 3.016478 1_555
Au3 La4 3.007793 1_555
Au3 La7 3.010521 1_555
Au3 La5 3.012423 1_555
Au3 La0 3.014037 1_555
Au3 La9 3.014219 1_554
Au3 La11 3.016608 1_554
I0 La7 3.345411 1_556
I0 La9 3.346317 1_555
I0 La3 3.429590 1_555
I0 La10 3.430581 1_566
I1 La11 3.346072 1_555
I1 La3 3.346294 1_555
I1 La7 3.429708 1_556
I1 La8 3.430088 1_555
I2 La4 3.346014 1_656
I2 La10 3.346092 1_666
I2 La6 3.429782 1_666
I2 La9 3.431602 1_655
I3 La9 3.347348 1_655
I3 La2 3.348561 1_555
I3 La8 3.429050 1_555
I3 La5 3.431564 1_656
I4 La11 3.345989 1_665
I4 La5 3.346209 1_666
I4 La10 3.429534 1_666
I4 La2 3.432538 1_565
I5 La6 3.345789 1_565
I5 La8 3.346192 1_565
I5 La4 3.429527 1_555
I5 La11 3.432518 1_565
I6 La1 3.345451 1_555
I6 La8 3.346381 1_555
I6 La0 3.430269 1_555
I6 La9 3.431021 1_655
I7 La10 3.345342 1_556
I7 La0 3.347389 1_556
I7 La1 3.428534 1_556
I7 La11 3.433092 1_555
I8 La2 3.347209 1_565
I8 La7 3.347482 1_555
I8 La6 3.429168 1_665
I8 La0 3.431443 1_555
I9 La6 3.347438 1_666
I9 La1 3.347781 1_566
I9 La7 3.430216 1_556
I9 La5 3.431215 1_666
I10 La3 3.346973 1_655
I10 La5 3.347040 1_655
I10 La1 3.429990 1_555
I10 La4 3.430584 1_655
I11 La0 3.345550 1_555
I11 La4 3.346600 1_555
I11 La3 3.430390 1_555
I11 La2 3.431278 1_565
