# generated using pymatgen
data_BaSrTbTiO6
_symmetry_space_group_name_H-M   'P 1'
_cell_length_a   5.96231569
_cell_length_b   5.95013176
_cell_length_c   8.42964784
_cell_angle_alpha   90.04746845
_cell_angle_beta   90.07492190
_cell_angle_gamma   90.11985440
_symmetry_Int_Tables_number   1
_chemical_formula_structural   BaSrTbTiO6
_chemical_formula_sum   'Ba2 Sr2 Tb2 Ti2 O12'
_cell_volume   299.05392762
_cell_formula_units_Z   2
loop_
 _symmetry_equiv_pos_site_id
 _symmetry_equiv_pos_as_xyz
  1  'x, y, z'
loop_
 _atom_site_type_symbol
 _atom_site_label
 _atom_site_symmetry_multiplicity
 _atom_site_fract_x
 _atom_site_fract_y
 _atom_site_fract_z
 _atom_site_occupancy
  Ba  Ba0  1  0.50072954  0.50370424  0.25000541  1
  Ba  Ba1  1  0.49927046  0.49629576  0.74999459  1
  Sr  Sr0  1  0.00007761  0.00414372  0.25014849  1
  Sr  Sr1  1  -0.00007761  0.99585628  0.74985151  1
  Tb  Tb0  1  0.00000000  0.50000000  -0.00000000  1
  Tb  Tb1  1  0.50000000  -0.00000000  0.50000000  1
  Ti  Ti0  1  0.50000000  -0.00000000  -0.00000000  1
  Ti  Ti1  1  0.00000000  0.50000000  0.50000000  1
  O  O0  1  0.24819387  0.21623776  0.98472809  1
  O  O1  1  0.24402668  0.72322401  0.51435169  1
  O  O2  1  0.75180613  0.78376224  0.01527191  1
  O  O3  1  0.75597332  0.27677599  0.48564831  1
  O  O4  1  0.27726765  0.75560293  0.98528024  1
  O  O5  1  0.21586098  0.24774945  0.51477652  1
  O  O6  1  0.72273235  0.24439707  0.01471976  1
  O  O7  1  0.78413902  0.75225055  0.48522348  1
  O  O8  1  0.46756669  0.99881536  0.23371835  1
  O  O9  1  0.02558250  0.49731047  0.26620012  1
  O  O10  1  0.53243331  0.00118464  0.76628165  1
  O  O11  1  0.97441750  0.50268953  0.73379988  1
loop_
_geom_bond_atom_site_label_1
_geom_bond_atom_site_label_2
_geom_bond_distance
_geom_bond_site_symmetry_2
Ba0 O9 2.836619 1_555
Ba0 O6 2.841961 1_555
Ba0 O3 2.844303 1_555
Ba0 O8 2.956308 1_555
Ba0 O2 2.989304 1_555
Ba0 O7 2.991635 1_555
Ba0 O4 3.001257 1_554
Ba0 O1 3.004436 1_555
Ba0 O8 3.013247 1_545
Ba0 O9 3.132449 1_655
Ba0 O0 3.188645 1_554
Ba0 O5 3.192251 1_555
Ba1 O11 2.836619 1_555
Ba1 O4 2.841961 1_555
Ba1 O1 2.844303 1_555
Ba1 O10 2.956308 1_555
Ba1 O0 2.989304 1_555
Ba1 O5 2.991635 1_555
Ba1 O6 3.001257 1_556
Ba1 O3 3.004436 1_555
Ba1 O10 3.013247 1_565
Ba1 O11 3.132449 1_455
Ba1 O2 3.188645 1_556
Ba1 O7 3.192251 1_555
O0 Ti0 1.983411 1_556
O0 Tb0 2.251172 1_556
O0 Sr1 2.794769 1_545
O0 Sr0 2.965226 1_556
O1 Ti1 1.971520 1_555
O1 Tb1 2.246403 1_565
O1 Sr1 2.950056 1_555
O1 Sr0 3.142855 1_565
O2 Ti0 1.983411 1_565
O2 Tb0 2.251172 1_655
O2 Sr0 2.794769 1_665
O2 Sr1 2.965226 1_654
O3 Ti1 1.971520 1_655
O3 Tb1 2.246403 1_555
O3 Sr0 2.950056 1_655
O3 Sr1 3.142855 1_645
O4 Ti0 1.971004 1_566
O4 Tb0 2.247600 1_556
O4 Sr1 2.953407 1_555
O4 Sr0 3.149279 1_566
O5 Ti1 1.983106 1_555
O5 Tb1 2.251526 1_555
O5 Sr1 2.798980 1_545
O5 Sr0 2.951562 1_555
O6 Ti0 1.971004 1_555
O6 Tb0 2.247600 1_655
O6 Sr0 2.953407 1_655
O6 Sr1 3.149279 1_644
O7 Ti1 1.983106 1_655
O7 Tb1 2.251526 1_565
O7 Sr0 2.798980 1_665
O7 Sr1 2.951562 1_655
O8 Ti0 1.979900 1_565
O8 Tb1 2.252727 1_565
O8 Sr0 2.791182 1_565
O8 Sr0 3.177927 1_665
O9 Ti1 1.976997 1_555
O9 Tb0 2.249025 1_555
O9 Sr0 2.941020 1_555
O9 Sr0 3.023007 1_565
O10 Ti0 1.979900 1_556
O10 Tb1 2.252727 1_555
O10 Sr1 2.791182 1_645
O10 Sr1 3.177927 1_545
O11 Ti1 1.976997 1_655
O11 Tb0 2.249025 1_656
O11 Sr1 2.941020 1_655
O11 Sr1 3.023007 1_645
