# generated using pymatgen
data_MgMn2O4
_symmetry_space_group_name_H-M   'P 1'
_cell_length_a   5.43161592
_cell_length_b   6.00431842
_cell_length_c   5.95691399
_cell_angle_alpha   60.27433946
_cell_angle_beta   90.07753899
_cell_angle_gamma   105.97242572
_symmetry_Int_Tables_number   1
_chemical_formula_structural   MgMn2O4
_chemical_formula_sum   'Mg2 Mn4 O8'
_cell_volume   160.05862626
_cell_formula_units_Z   2
loop_
 _symmetry_equiv_pos_site_id
 _symmetry_equiv_pos_as_xyz
  1  'x, y, z'
loop_
 _atom_site_type_symbol
 _atom_site_label
 _atom_site_symmetry_multiplicity
 _atom_site_fract_x
 _atom_site_fract_y
 _atom_site_fract_z
 _atom_site_occupancy
  Mg  Mg0  1  0.99991700  0.50005700  0.99998700  1
  Mg  Mg1  1  0.99999300  0.49982300  0.50010000  1
  Mn  Mn0  1  0.99990100  0.00002500  0.49929900  1
  Mn  Mn1  1  0.99995000  0.00003400  0.00066500  1
  Mn  Mn2  1  0.50005500  0.00007400  0.24991000  1
  Mn  Mn3  1  0.50009300  0.00007800  0.74991300  1
  O  O0  1  0.19901900  0.21117900  0.14471900  1
  O  O1  1  0.19979900  0.20915800  0.64571100  1
  O  O2  1  0.80024600  0.79085900  0.85432300  1
  O  O3  1  0.80102000  0.78885300  0.35531400  1
  O  O4  1  0.78657900  0.23546900  0.38214900  1
  O  O5  1  0.78659100  0.23545300  0.88194800  1
  O  O6  1  0.21340000  0.76446000  0.61809200  1
  O  O7  1  0.21340900  0.76444200  0.11788900  1
loop_
_geom_bond_atom_site_label_1
_geom_bond_atom_site_label_2
_geom_bond_distance
_geom_bond_site_symmetry_2
Mg0 O7 2.109104 1_656
Mg0 O6 2.110121 1_655
Mg0 O5 2.110380 1_555
Mg0 O4 2.111047 1_556
Mg0 O0 2.113810 1_656
Mg0 O2 2.124860 1_555
Mg1 O4 2.109023 1_555
Mg1 O5 2.109759 1_555
Mg1 O6 2.110485 1_655
Mg1 O7 2.111411 1_655
Mg1 O3 2.113986 1_555
Mg1 O1 2.124775 1_655
Mn0 O4 1.936228 1_555
Mn0 O6 1.937515 1_645
Mn0 O3 1.957664 1_545
Mn0 O0 1.958156 1_655
Mn0 O2 1.961777 1_545
Mn0 O1 1.962020 1_655
Mn1 O5 1.936281 1_554
Mn1 O7 1.937458 1_645
Mn1 O3 1.958078 1_545
Mn1 O0 1.958241 1_655
Mn1 O2 1.961484 1_544
Mn1 O1 1.961870 1_654
Mn2 O4 2.220465 1_555
Mn2 O7 2.220826 1_545
Mn2 O5 2.225025 1_554
Mn2 O6 2.226180 1_545
Mn2 O0 2.241227 1_555
Mn2 O3 2.241321 1_545
Mn3 O5 2.219503 1_555
Mn3 O6 2.220111 1_545
Mn3 O4 2.224087 1_555
Mn3 O7 2.225434 1_546
Mn3 O2 2.229889 1_545
Mn3 O1 2.230047 1_555
