# generated using pymatgen
data_CaCr(Si2O5)2
_symmetry_space_group_name_H-M   'P 1'
_cell_length_a   7.47886000
_cell_length_b   7.47886000
_cell_length_c   15.39959900
_cell_angle_alpha   90.00000000
_cell_angle_beta   90.00000000
_cell_angle_gamma   90.00000000
_symmetry_Int_Tables_number   1
_chemical_formula_structural   CaCr(Si2O5)2
_chemical_formula_sum   'Ca4 Cr4 Si16 O40'
_cell_volume   861.35111298
_cell_formula_units_Z   4
loop_
 _symmetry_equiv_pos_site_id
 _symmetry_equiv_pos_as_xyz
  1  'x, y, z'
loop_
 _atom_site_type_symbol
 _atom_site_label
 _atom_site_symmetry_multiplicity
 _atom_site_fract_x
 _atom_site_fract_y
 _atom_site_fract_z
 _atom_site_occupancy
  Ca  Ca0  1  0.50000000  0.50000000  0.00000000  1
  Ca  Ca1  1  0.00000000  0.00000000  0.00000000  1
  Ca  Ca2  1  0.00000000  0.00000000  0.50000000  1
  Ca  Ca3  1  0.50000000  0.50000000  0.50000000  1
  Cr  Cr0  1  0.50000000  0.00000000  0.08059700  1
  Cr  Cr1  1  0.00000000  0.50000000  0.41940300  1
  Cr  Cr2  1  0.00000000  0.50000000  0.91940300  1
  Cr  Cr3  1  0.50000000  0.00000000  0.58059700  1
  Si  Si0  1  0.17023200  0.25198200  0.64831200  1
  Si  Si1  1  0.82976800  0.74801800  0.64831200  1
  Si  Si2  1  0.25198200  0.17023200  0.85168800  1
  Si  Si3  1  0.75198200  0.32976800  0.64831200  1
  Si  Si4  1  0.24801800  0.67023200  0.64831200  1
  Si  Si5  1  0.32976800  0.75198200  0.85168800  1
  Si  Si6  1  0.67023200  0.24801800  0.85168800  1
  Si  Si7  1  0.74801800  0.82976800  0.85168800  1
  Si  Si8  1  0.32976800  0.24801800  0.35168800  1
  Si  Si9  1  0.67023200  0.75198200  0.35168800  1
  Si  Si10  1  0.24801800  0.32976800  0.14831200  1
  Si  Si11  1  0.74801800  0.17023200  0.35168800  1
  Si  Si12  1  0.25198200  0.82976800  0.35168800  1
  Si  Si13  1  0.17023200  0.74801800  0.14831200  1
  Si  Si14  1  0.82976800  0.25198200  0.14831200  1
  Si  Si15  1  0.75198200  0.67023200  0.14831200  1
  O  O0  1  0.24776800  0.10480000  0.58234800  1
  O  O1  1  0.75223200  0.89520000  0.58234800  1
  O  O2  1  0.10480000  0.24776800  0.91765200  1
  O  O3  1  0.60480000  0.25223200  0.58234800  1
  O  O4  1  0.39520000  0.74776800  0.58234800  1
  O  O5  1  0.25223200  0.60480000  0.91765200  1
  O  O6  1  0.74776800  0.39520000  0.91765200  1
  O  O7  1  0.89520000  0.75223200  0.91765200  1
  O  O8  1  0.25223200  0.39520000  0.41765200  1
  O  O9  1  0.74776800  0.60480000  0.41765200  1
  O  O10  1  0.39520000  0.25223200  0.08234800  1
  O  O11  1  0.89520000  0.24776800  0.41765200  1
  O  O12  1  0.10480000  0.75223200  0.41765200  1
  O  O13  1  0.24776800  0.89520000  0.08234800  1
  O  O14  1  0.75223200  0.10480000  0.08234800  1
  O  O15  1  0.25155700  0.04666400  0.37167700  1
  O  O16  1  0.60480000  0.74776800  0.08234800  1
  O  O17  1  0.75155700  0.54666400  0.62832300  1
  O  O18  1  0.45333600  0.24844300  0.87167700  1
  O  O19  1  0.95333600  0.25155700  0.62832300  1
  O  O20  1  0.04666400  0.74844300  0.62832300  1
  O  O21  1  0.25155700  0.95333600  0.87167700  1
  O  O22  1  0.74844300  0.04666400  0.87167700  1
  O  O23  1  0.54666400  0.75155700  0.87167700  1
  O  O24  1  0.70634700  0.70634700  0.25000000  1
  O  O25  1  0.79365300  0.20634700  0.25000000  1
  O  O26  1  0.20634700  0.79365300  0.25000000  1
  O  O27  1  0.29365300  0.29365300  0.25000000  1
  O  O28  1  0.79365300  0.79365300  0.75000000  1
  O  O29  1  0.70634700  0.29365300  0.75000000  1
  O  O30  1  0.29365300  0.70634700  0.75000000  1
  O  O31  1  0.20634700  0.20634700  0.75000000  1
  O  O32  1  0.95333600  0.74844300  0.12832300  1
  O  O33  1  0.75155700  0.45333600  0.12832300  1
  O  O34  1  0.24844300  0.54666400  0.12832300  1
  O  O35  1  0.45333600  0.75155700  0.37167700  1
  O  O36  1  0.54666400  0.24844300  0.37167700  1
  O  O37  1  0.04666400  0.25155700  0.12832300  1
  O  O38  1  0.74844300  0.95333600  0.37167700  1
  O  O39  1  0.24844300  0.45333600  0.62832300  1
loop_
_geom_bond_atom_site_label_1
_geom_bond_atom_site_label_2
_geom_bond_distance
_geom_bond_site_symmetry_2
Ca0 O10 2.378267 1_555
Ca0 O16 2.378267 1_555
Ca0 O5 2.378267 1_554
Ca0 O6 2.378267 1_554
Ca0 O34 2.750704 1_555
Ca0 O18 2.750704 1_554
Ca0 O23 2.750704 1_554
Ca0 O33 2.750704 1_555
Ca1 O14 2.378267 1_455
Ca1 O2 2.378267 1_554
Ca1 O7 2.378267 1_444
Ca1 O13 2.378267 1_545
Ca1 O37 2.750704 1_555
Ca1 O21 2.750704 1_544
Ca1 O22 2.750704 1_454
Ca1 O32 2.750704 1_445
Ca2 O12 2.378267 1_545
Ca2 O11 2.378267 1_455
Ca2 O0 2.378267 1_555
Ca2 O1 2.378267 1_445
Ca2 O19 2.750704 1_455
Ca2 O15 2.750704 1_555
Ca2 O20 2.750704 1_545
Ca2 O38 2.750704 1_445
Ca3 O3 2.378267 1_555
Ca3 O4 2.378267 1_555
Ca3 O8 2.378267 1_555
Ca3 O9 2.378267 1_555
Ca3 O17 2.750704 1_555
Ca3 O39 2.750704 1_555
Ca3 O36 2.750704 1_555
Ca3 O35 2.750704 1_555
Cr0 O16 2.042934 1_545
Cr0 O13 2.042934 1_545
Cr0 O14 2.042934 1_555
Cr0 O10 2.042934 1_555
Cr1 O11 2.042934 1_455
Cr1 O12 2.042934 1_555
Cr1 O9 2.042934 1_455
Cr1 O8 2.042934 1_555
Cr2 O6 2.042934 1_455
Cr2 O5 2.042934 1_555
Cr2 O2 2.042934 1_555
Cr2 O7 2.042934 1_455
Cr3 O0 2.042934 1_555
Cr3 O1 2.042934 1_545
Cr3 O3 2.042934 1_555
Cr3 O4 2.042934 1_545
O0 Si0 1.606178 1_555
O1 Si1 1.606178 1_555
O2 Si2 1.606178 1_555
O3 Si3 1.606178 1_555
O4 Si4 1.606178 1_555
O5 Si5 1.606178 1_555
O6 Si6 1.606178 1_555
O7 Si7 1.606178 1_555
O8 Si8 1.606178 1_555
O9 Si9 1.606178 1_555
O10 Si10 1.606178 1_555
O11 Si11 1.606178 1_555
O12 Si12 1.606178 1_555
O13 Si13 1.606178 1_555
O14 Si14 1.606178 1_555
O15 Si8 1.644575 1_555
O15 Si12 1.651086 1_545
O16 Si15 1.606178 1_555
O17 Si1 1.644575 1_555
O17 Si3 1.651086 1_555
O18 Si2 1.644575 1_555
O18 Si6 1.651086 1_555
O19 Si3 1.644575 1_555
O19 Si0 1.651086 1_655
O20 Si4 1.644575 1_555
O20 Si1 1.651086 1_455
O21 Si5 1.644575 1_555
O21 Si2 1.651086 1_565
O22 Si6 1.644575 1_555
O22 Si7 1.651086 1_545
O23 Si7 1.644575 1_555
O23 Si5 1.651086 1_555
O24 Si15 1.625316 1_555
O24 Si9 1.625316 1_555
O25 Si14 1.625316 1_555
O25 Si11 1.625316 1_555
O26 Si12 1.625316 1_555
O26 Si13 1.625316 1_555
O27 Si8 1.625316 1_555
O27 Si10 1.625316 1_555
O28 Si1 1.625316 1_555
O28 Si7 1.625316 1_555
O29 Si6 1.625316 1_555
O29 Si3 1.625316 1_555
O30 Si4 1.625316 1_555
O30 Si5 1.625316 1_555
O31 Si0 1.625316 1_555
O31 Si2 1.625316 1_555
O32 Si15 1.644575 1_555
O32 Si13 1.651086 1_655
O33 Si14 1.644575 1_555
O33 Si15 1.651086 1_555
O34 Si13 1.644575 1_555
O34 Si10 1.651086 1_555
O35 Si12 1.644575 1_555
O35 Si9 1.651086 1_555
O36 Si11 1.644575 1_555
O36 Si8 1.651086 1_555
O37 Si10 1.644575 1_555
O37 Si14 1.651086 1_455
O38 Si9 1.644575 1_555
O38 Si11 1.651086 1_565
O39 Si0 1.644575 1_555
O39 Si4 1.651086 1_555
