# generated using pymatgen
data_Li7Mn2(CoO4)3
_symmetry_space_group_name_H-M   'P 1'
_cell_length_a   3.02483600
_cell_length_b   6.39546432
_cell_length_c   12.02384209
_cell_angle_alpha   102.89687288
_cell_angle_beta   94.96502537
_cell_angle_gamma   103.35994693
_symmetry_Int_Tables_number   1
_chemical_formula_structural   Li7Mn2(CoO4)3
_chemical_formula_sum   'Li7 Mn2 Co3 O12'
_cell_volume   218.24815144
_cell_formula_units_Z   1
loop_
 _symmetry_equiv_pos_site_id
 _symmetry_equiv_pos_as_xyz
  1  'x, y, z'
loop_
 _atom_site_type_symbol
 _atom_site_label
 _atom_site_symmetry_multiplicity
 _atom_site_fract_x
 _atom_site_fract_y
 _atom_site_fract_z
 _atom_site_occupancy
  Li  Li0  1  0.66472300  0.83166200  0.91912100  1
  Li  Li1  1  0.00441500  0.50593300  0.24879800  1
  Li  Li2  1  0.33527700  0.16833800  0.08087900  1
  Li  Li3  1  0.66705700  0.82952600  0.41631200  1
  Li  Li4  1  0.33294300  0.17047400  0.58368800  1
  Li  Li5  1  0.99558500  0.49406700  0.75120200  1
  Li  Li6  1  0.00000000  0.50000000  0.00000000  1
  Mn  Mn0  1  0.66671300  0.83629300  0.66781200  1
  Mn  Mn1  1  0.33328700  0.16370700  0.33218800  1
  Co  Co0  1  0.66284800  0.81821000  0.15799700  1
  Co  Co1  1  0.00000000  0.50000000  0.50000000  1
  Co  Co2  1  0.33715200  0.18179000  0.84200300  1
  O  O0  1  0.15789600  0.85664300  0.79127100  1
  O  O1  1  0.50889000  0.53088200  0.13181600  1
  O  O2  1  0.81373900  0.16699500  0.94792200  1
  O  O3  1  0.14814900  0.84452000  0.28539600  1
  O  O4  1  0.81802500  0.18094500  0.45668700  1
  O  O5  1  0.48205100  0.51244800  0.61952800  1
  O  O6  1  0.18626100  0.83300500  0.05207800  1
  O  O7  1  0.51794900  0.48755200  0.38047200  1
  O  O8  1  0.84210400  0.14335700  0.20872900  1
  O  O9  1  0.18197500  0.81905500  0.54331300  1
  O  O10  1  0.85185100  0.15548000  0.71460400  1
  O  O11  1  0.49111000  0.46911800  0.86818400  1
loop_
_geom_bond_atom_site_label_1
_geom_bond_atom_site_label_2
_geom_bond_distance
_geom_bond_site_symmetry_2
Li0 O2 2.029081 1_565
Li0 O0 2.133974 1_555
Li0 O6 2.143724 1_656
Li0 O11 2.185102 1_555
Li0 O0 2.238407 1_655
Li0 O6 2.247323 1_556
Li1 O1 2.023939 1_455
Li1 O3 2.044053 1_555
Li1 O7 2.162202 1_555
Li1 O1 2.166018 1_555
Li1 O8 2.187331 1_455
Li1 O7 2.256564 1_455
Li2 O6 2.029081 1_545
Li2 O8 2.133974 1_555
Li2 O2 2.143724 1_454
Li2 O1 2.185102 1_555
Li2 O8 2.238407 1_455
Li2 O2 2.247323 1_554
Li3 O7 2.064517 1_555
Li3 O9 2.108182 1_655
Li3 O4 2.120303 1_565
Li3 O3 2.158698 1_555
Li3 O9 2.208476 1_555
Li3 O3 2.236986 1_655
Li4 O5 2.064517 1_555
Li4 O4 2.108182 1_455
Li4 O9 2.120303 1_545
Li4 O10 2.158698 1_555
Li4 O4 2.208476 1_555
Li4 O10 2.236986 1_455
Li5 O11 2.023939 1_655
Li5 O10 2.044053 1_555
Li5 O5 2.162202 1_555
Li5 O11 2.166018 1_555
Li5 O0 2.187331 1_655
Li5 O5 2.256564 1_655
Li6 O2 2.008570 1_454
Li6 O6 2.008570 1_555
Li6 O1 2.053768 1_555
Li6 O11 2.053768 1_454
Li6 O1 2.271831 1_455
Li6 O11 2.271831 1_554
Mn0 O10 1.923989 1_565
Mn0 O5 1.952216 1_555
Mn0 O0 1.967387 1_655
Mn0 O9 1.968408 1_555
Mn0 O0 2.234083 1_555
Mn0 O9 2.256503 1_655
Mn1 O3 1.923989 1_545
Mn1 O7 1.952216 1_555
Mn1 O8 1.967387 1_455
Mn1 O4 1.968408 1_555
Mn1 O8 2.234083 1_555
Mn1 O4 2.256503 1_455
Co0 O1 1.735987 1_555
Co0 O6 1.873000 1_555
Co0 O8 1.961050 1_565
Co0 O3 1.977690 1_655
Co0 O6 2.114501 1_655
Co0 O3 2.284183 1_555
Co1 O4 1.922190 1_455
Co1 O9 1.922190 1_555
Co1 O5 1.931453 1_555
Co1 O7 1.931453 1_455
Co1 O5 2.218725 1_455
Co1 O7 2.218725 1_555
Co2 O11 1.735987 1_555
Co2 O2 1.873000 1_555
Co2 O0 1.961050 1_545
Co2 O10 1.977690 1_455
Co2 O2 2.114501 1_455
Co2 O10 2.284183 1_555
