# generated using pymatgen
data_MgCrF6
_symmetry_space_group_name_H-M   'P 1'
_cell_length_a   5.64429942
_cell_length_b   5.66285118
_cell_length_c   5.70759689
_cell_angle_alpha   54.33346742
_cell_angle_beta   54.08493658
_cell_angle_gamma   54.38782918
_symmetry_Int_Tables_number   1
_chemical_formula_structural   MgCrF6
_chemical_formula_sum   'Mg1 Cr1 F6'
_cell_volume   111.74460602
_cell_formula_units_Z   1
loop_
 _symmetry_equiv_pos_site_id
 _symmetry_equiv_pos_as_xyz
  1  'x, y, z'
loop_
 _atom_site_type_symbol
 _atom_site_label
 _atom_site_symmetry_multiplicity
 _atom_site_fract_x
 _atom_site_fract_y
 _atom_site_fract_z
 _atom_site_occupancy
  Mg  Mg0  1  0.18674500  0.18640800  0.20109900  1
  Cr  Cr0  1  0.00435800  0.99877400  0.99804400  1
  F  F0  1  0.36165500  0.08010300  0.80415300  1
  F  F1  1  0.08313600  0.81144200  0.35677300  1
  F  F2  1  0.19981100  0.61126500  0.96611600  1
  F  F3  1  0.95568200  0.20833200  0.61529200  1
  F  F4  1  0.61278800  0.96147600  0.20574900  1
  F  F5  1  0.81011100  0.35648600  0.07896400  1
loop_
_geom_bond_atom_site_label_1
_geom_bond_atom_site_label_2
_geom_bond_distance
_geom_bond_site_symmetry_2
Cr0 F0 1.836545 1_565
Cr0 F5 1.851808 1_466
Cr0 F2 1.864626 1_555
Cr0 F1 1.871122 1_556
Cr0 F4 1.874177 1_456
Cr0 F3 1.886128 1_465
F0 Mg0 2.178143 1_556
F1 Mg0 2.068001 1_565
F2 Mg0 1.979986 1_556
F3 Mg0 1.960014 1_655
F4 Mg0 1.968272 1_565
F5 Mg0 2.122238 1_655
