# generated using pymatgen
data_Hf3SiMo8
_symmetry_space_group_name_H-M   'P 1'
_cell_length_a   5.34388151
_cell_length_b   5.34388151
_cell_length_c   8.55558000
_cell_angle_alpha   90.00000000
_cell_angle_beta   90.00000000
_cell_angle_gamma   119.99999392
_symmetry_Int_Tables_number   1
_chemical_formula_structural   Hf3SiMo8
_chemical_formula_sum   'Hf3 Si1 Mo8'
_cell_volume   211.58932574
_cell_formula_units_Z   1
loop_
 _symmetry_equiv_pos_site_id
 _symmetry_equiv_pos_as_xyz
  1  'x, y, z'
loop_
 _atom_site_type_symbol
 _atom_site_label
 _atom_site_symmetry_multiplicity
 _atom_site_fract_x
 _atom_site_fract_y
 _atom_site_fract_z
 _atom_site_occupancy
  Hf  Hf0  1  0.00000000  0.00000000  0.44229300  1
  Hf  Hf1  1  0.00000000  0.00000000  0.06177700  1
  Hf  Hf2  1  0.66666700  0.33333300  0.93768900  1
  Si  Si0  1  0.66666700  0.33333300  0.56464100  1
  Mo  Mo0  1  0.33333300  0.66666700  0.49857200  1
  Mo  Mo1  1  0.33333300  0.66666700  0.99776500  1
  Mo  Mo2  1  0.16242500  0.83757500  0.74583300  1
  Mo  Mo3  1  0.67515000  0.83757500  0.74583300  1
  Mo  Mo4  1  0.16242500  0.32485000  0.74583300  1
  Mo  Mo5  1  0.50406100  0.49593900  0.25328100  1
  Mo  Mo6  1  0.99187900  0.49593900  0.25328100  1
  Mo  Mo7  1  0.50406100  0.00812100  0.25328100  1
loop_
_geom_bond_atom_site_label_1
_geom_bond_atom_site_label_2
_geom_bond_distance
_geom_bond_site_symmetry_2
Hf0 Mo2 3.000729 1_545
Hf0 Mo3 3.000729 1_445
Hf0 Mo4 3.000729 1_555
Hf0 Mo0 3.122634 1_545
Hf0 Mo0 3.122639 1_555
Hf0 Mo0 3.122639 1_445
Hf0 Mo6 3.123412 1_455
Hf0 Mo7 3.123412 1_455
Hf0 Mo5 3.123414 1_445
Hf0 Mo5 3.123414 1_555
Hf0 Mo7 3.123416 1_555
Hf0 Mo6 3.123416 1_445
Hf0 Si0 3.258022 1_455
Hf0 Si0 3.258026 1_445
Hf0 Si0 3.258026 1_555
Hf1 Mo2 3.093029 1_544
Hf1 Mo3 3.093030 1_444
Hf1 Mo4 3.093030 1_554
Hf1 Mo1 3.133518 1_544
Hf1 Mo1 3.133523 1_554
Hf1 Mo1 3.133523 1_444
Hf1 Mo6 3.134503 1_455
Hf1 Mo7 3.134503 1_455
Hf1 Mo5 3.134506 1_445
Hf1 Mo5 3.134506 1_555
Hf1 Mo7 3.134508 1_555
Hf1 Mo6 3.134508 1_445
Hf2 Mo5 3.091213 1_556
Hf2 Mo7 3.091213 1_556
Hf2 Mo6 3.091213 1_556
Hf2 Mo1 3.127808 1_545
Hf2 Mo1 3.127808 1_655
Hf2 Mo1 3.127817 1_555
Hf2 Mo4 3.136099 1_655
Hf2 Mo3 3.136099 1_545
Hf2 Mo2 3.136102 1_655
Hf2 Mo2 3.136102 1_545
Hf2 Mo4 3.136104 1_555
Hf2 Mo3 3.136104 1_555
Hf2 Si0 3.191642 1_555
Mo0 Mo6 2.627027 1_455
Mo0 Mo7 2.627027 1_565
Mo0 Mo5 2.627032 1_555
Mo0 Mo2 2.641513 1_555
Mo0 Mo4 2.641516 1_555
Mo0 Mo3 2.641516 1_555
Mo0 Si0 3.136642 1_455
Mo0 Si0 3.136642 1_565
Mo0 Si0 3.136651 1_555
Mo1 Mo2 2.673625 1_555
Mo1 Mo4 2.673628 1_555
Mo1 Mo3 2.673628 1_555
Mo1 Mo7 2.697424 1_566
Mo1 Mo6 2.697424 1_456
Mo1 Mo5 2.697430 1_556
Mo2 Mo3 2.603940 1_455
Mo2 Mo4 2.603940 1_565
Mo2 Mo4 2.739942 1_555
Mo2 Mo3 2.739942 1_555
Mo2 Si0 3.089327 1_455
Mo2 Si0 3.089327 1_565
Mo3 Mo4 2.603940 1_665
Mo3 Mo4 2.739942 1_555
Mo3 Si0 3.089324 1_565
Mo3 Si0 3.089329 1_555
Mo4 Si0 3.089324 1_455
Mo4 Si0 3.089329 1_555
Mo5 Mo7 2.606842 1_555
Mo5 Mo6 2.606842 1_555
Mo5 Mo7 2.737040 1_565
Mo5 Mo6 2.737040 1_455
Mo5 Si0 3.059638 1_555
Mo6 Mo7 2.606842 1_555
Mo6 Mo7 2.737040 1_665
Mo6 Si0 3.059638 1_555
Mo7 Si0 3.059638 1_555
