# generated using pymatgen
data_Cs2Mo3P3O17
_symmetry_space_group_name_H-M   'P 1'
_cell_length_a   9.78050300
_cell_length_b   11.14224400
_cell_length_c   16.11614499
_cell_angle_alpha   68.26641744
_cell_angle_beta   90.00000000
_cell_angle_gamma   90.00000000
_symmetry_Int_Tables_number   1
_chemical_formula_structural   Cs2Mo3P3O17
_chemical_formula_sum   'Cs8 Mo12 P12 O68'
_cell_volume   1631.44080795
_cell_formula_units_Z   4
loop_
 _symmetry_equiv_pos_site_id
 _symmetry_equiv_pos_as_xyz
  1  'x, y, z'
loop_
 _atom_site_type_symbol
 _atom_site_label
 _atom_site_symmetry_multiplicity
 _atom_site_fract_x
 _atom_site_fract_y
 _atom_site_fract_z
 _atom_site_occupancy
  Cs  Cs0  1  0.38049200  0.82027400  0.50945200  1
  Cs  Cs1  1  0.61950800  0.17972600  0.49054800  1
  Cs  Cs2  1  0.88049200  0.17972600  0.99054800  1
  Cs  Cs3  1  0.11950800  0.82027400  0.00945200  1
  Cs  Cs4  1  0.87471700  0.40613400  0.20604900  1
  Cs  Cs5  1  0.12528300  0.59386600  0.79395100  1
  Cs  Cs6  1  0.37471700  0.59386600  0.29395100  1
  Cs  Cs7  1  0.62528300  0.40613400  0.70604900  1
  Mo  Mo0  1  0.11698600  0.95307200  0.24453200  1
  Mo  Mo1  1  0.88301400  0.04692800  0.75546800  1
  Mo  Mo2  1  0.61698600  0.04692800  0.25546800  1
  Mo  Mo3  1  0.38301400  0.95307200  0.74453200  1
  Mo  Mo4  1  0.61867800  0.75557400  0.06310800  1
  Mo  Mo5  1  0.38132200  0.24442600  0.93689200  1
  Mo  Mo6  1  0.11867800  0.24442600  0.43689200  1
  Mo  Mo7  1  0.88132200  0.75557400  0.56310800  1
  Mo  Mo8  1  0.75855700  0.57987500  0.40511900  1
  Mo  Mo9  1  0.24144300  0.42012500  0.59488100  1
  Mo  Mo10  1  0.25855700  0.42012500  0.09488100  1
  Mo  Mo11  1  0.74144300  0.57987500  0.90511900  1
  P  P0  1  0.82146200  0.83824600  0.20373600  1
  P  P1  1  0.17853800  0.16175400  0.79626400  1
  P  P2  1  0.32146200  0.16175400  0.29626400  1
  P  P3  1  0.67853800  0.83824600  0.70373600  1
  P  P4  1  0.59376800  0.32974000  0.06799900  1
  P  P5  1  0.40623200  0.67026000  0.93200100  1
  P  P6  1  0.09376800  0.67026000  0.43200100  1
  P  P7  1  0.90623200  0.32974000  0.56799900  1
  P  P8  1  0.39925400  0.95773600  0.12199400  1
  P  P9  1  0.60074600  0.04226400  0.87800600  1
  P  P10  1  0.89925400  0.04226400  0.37800600  1
  P  P11  1  0.10074600  0.95773600  0.62199400  1
  O  O0  1  0.97383900  0.95834100  0.33451500  1
  O  O1  1  0.02616100  0.04165900  0.66548500  1
  O  O2  1  0.47383900  0.04165900  0.16548500  1
  O  O3  1  0.52616100  0.95834100  0.83451500  1
  O  O4  1  0.44263000  0.73245400  0.00172600  1
  O  O5  1  0.55737000  0.26754600  0.99827400  1
  O  O6  1  0.94263000  0.26754600  0.49827400  1
  O  O7  1  0.05737000  0.73245400  0.50172600  1
  O  O8  1  0.76331400  0.73267300  0.28848500  1
  O  O9  1  0.23668600  0.26732700  0.71151500  1
  O  O10  1  0.26331400  0.26732700  0.21151500  1
  O  O11  1  0.73668600  0.73267300  0.78848500  1
  O  O12  1  0.58937800  0.60146200  0.42965000  1
  O  O13  1  0.41062200  0.39853800  0.57035000  1
  O  O14  1  0.08937800  0.39853800  0.07035000  1
  O  O15  1  0.91062200  0.60146200  0.92965000  1
  O  O16  1  0.74554000  0.46681400  0.35452500  1
  O  O17  1  0.25446000  0.53318600  0.64547500  1
  O  O18  1  0.24554000  0.53318600  0.14547500  1
  O  O19  1  0.75446000  0.46681400  0.85452500  1
  O  O20  1  0.78401100  0.80939600  0.11894400  1
  O  O21  1  0.21598900  0.19060400  0.88105600  1
  O  O22  1  0.28401100  0.19060400  0.38105600  1
  O  O23  1  0.71598900  0.80939600  0.61894400  1
  O  O24  1  0.66706300  0.22984600  0.14824600  1
  O  O25  1  0.33293700  0.77015400  0.85175400  1
  O  O26  1  0.16706300  0.77015400  0.35175400  1
  O  O27  1  0.83293700  0.22984600  0.64824600  1
  O  O28  1  0.97976900  0.84175000  0.20324200  1
  O  O29  1  0.02023100  0.15825000  0.79675800  1
  O  O30  1  0.47976900  0.15825000  0.29675800  1
  O  O31  1  0.52023100  0.84175000  0.70324200  1
  O  O32  1  0.60803400  0.60886900  0.15168000  1
  O  O33  1  0.39196600  0.39113100  0.84832000  1
  O  O34  1  0.10803400  0.39113100  0.34832000  1
  O  O35  1  0.89196600  0.60886900  0.65168000  1
  O  O36  1  0.70346400  0.43803900  0.02583700  1
  O  O37  1  0.29653600  0.56196100  0.97416300  1
  O  O38  1  0.20346400  0.56196100  0.47416300  1
  O  O39  1  0.79653600  0.43803900  0.52583700  1
  O  O40  1  0.86010500  0.95957200  0.47395700  1
  O  O41  1  0.13989500  0.04042800  0.52604300  1
  O  O42  1  0.36010500  0.04042800  0.02604300  1
  O  O43  1  0.63989500  0.95957200  0.97395700  1
  O  O44  1  0.48781800  0.83935600  0.12748000  1
  O  O45  1  0.51218200  0.16064400  0.87252000  1
  O  O46  1  0.98781800  0.16064400  0.37252000  1
  O  O47  1  0.01218200  0.83935600  0.62748000  1
  O  O48  1  0.78799000  0.71340400  0.48371200  1
  O  O49  1  0.21201000  0.28659600  0.51628800  1
  O  O50  1  0.28799000  0.28659600  0.01628800  1
  O  O51  1  0.71201000  0.71340400  0.98371200  1
  O  O52  1  0.76103300  0.97062600  0.19456200  1
  O  O53  1  0.23896700  0.02937400  0.80543800  1
  O  O54  1  0.26103300  0.02937400  0.30543800  1
  O  O55  1  0.73896700  0.97062600  0.69456200  1
  O  O56  1  0.26767900  0.89646400  0.17702900  1
  O  O57  1  0.73232100  0.10353600  0.82297100  1
  O  O58  1  0.76767900  0.10353600  0.32297100  1
  O  O59  1  0.23232100  0.89646400  0.67702900  1
  O  O60  1  0.57035800  0.90692100  0.34065200  1
  O  O61  1  0.42964200  0.09307900  0.65934800  1
  O  O62  1  0.07035800  0.09307900  0.15934800  1
  O  O63  1  0.92964200  0.90692100  0.84065200  1
  O  O64  1  0.96889200  0.61081600  0.40431100  1
  O  O65  1  0.03110800  0.38918400  0.59568900  1
  O  O66  1  0.46889200  0.38918400  0.09568900  1
  O  O67  1  0.53110800  0.61081600  0.90431100  1
loop_
_geom_bond_atom_site_label_1
_geom_bond_atom_site_label_2
_geom_bond_distance
_geom_bond_site_symmetry_2
Cs0 O60 3.136242 1_555
Cs0 O7 3.324258 1_555
Cs0 O17 3.371081 1_555
Cs0 O59 3.436933 1_555
Cs0 O54 3.454064 1_565
Cs0 O41 3.480209 1_565
Cs0 O26 3.489918 1_555
Cs0 O31 3.497527 1_555
Cs0 O38 3.580151 1_555
Cs0 O23 3.706372 1_555
Cs0 O12 3.754228 1_555
Cs1 O61 3.136242 1_555
Cs1 O6 3.324258 1_555
Cs1 O16 3.371081 1_555
Cs1 O58 3.436933 1_555
Cs1 O55 3.454064 1_545
Cs1 O40 3.480209 1_545
Cs1 O27 3.489918 1_555
Cs1 O30 3.497527 1_555
Cs1 O39 3.580151 1_555
Cs1 O22 3.706372 1_555
Cs1 O13 3.754228 1_555
Cs2 O62 3.136242 1_656
Cs2 O5 3.324258 1_555
Cs2 O19 3.371081 1_555
Cs2 O57 3.436933 1_555
Cs2 O52 3.454064 1_546
Cs2 O43 3.480209 1_545
Cs2 O24 3.489918 1_556
Cs2 O29 3.497527 1_655
Cs2 O36 3.580151 1_556
Cs2 O21 3.706372 1_655
Cs2 O14 3.754228 1_656
Cs3 O63 3.136242 1_454
Cs3 O4 3.324258 1_555
Cs3 O18 3.371081 1_555
Cs3 O56 3.436933 1_555
Cs3 O53 3.454064 1_564
Cs3 O42 3.480209 1_565
Cs3 O25 3.489918 1_554
Cs3 O28 3.497527 1_455
Cs3 O37 3.580151 1_554
Cs3 O20 3.706372 1_455
Cs3 O15 3.754228 1_454
Cs4 O16 2.996210 1_555
Cs4 O14 3.055297 1_655
Cs4 O24 3.194682 1_555
Cs4 O34 3.195094 1_655
Cs4 O46 3.235523 1_555
Cs4 O36 3.256112 1_555
Cs4 O32 3.347812 1_555
Cs4 O58 3.362944 1_555
Cs5 O17 2.996210 1_555
Cs5 O15 3.055297 1_455
Cs5 O25 3.194682 1_555
Cs5 O35 3.195094 1_455
Cs5 O47 3.235523 1_555
Cs5 O37 3.256112 1_555
Cs5 O33 3.347812 1_555
Cs5 O59 3.362944 1_555
Cs6 O18 2.996210 1_555
Cs6 O12 3.055297 1_555
Cs6 O26 3.194682 1_555
Cs6 O32 3.195094 1_555
Cs6 O44 3.235523 1_555
Cs6 O38 3.256112 1_555
Cs6 O34 3.347812 1_555
Cs6 O56 3.362944 1_555
Cs7 O19 2.996210 1_555
Cs7 O13 3.055297 1_555
Cs7 O27 3.194682 1_555
Cs7 O33 3.195094 1_555
Cs7 O45 3.235523 1_555
Cs7 O39 3.256112 1_555
Cs7 O35 3.347812 1_555
Cs7 O57 3.362944 1_555
Mo0 O62 1.714699 1_565
Mo0 O0 2.032156 1_455
Mo0 O56 2.064400 1_555
Mo0 O54 2.071030 1_565
Mo0 O28 2.096118 1_455
Mo0 O26 2.184391 1_555
Mo1 O63 1.714699 1_545
Mo1 O1 2.032156 1_655
Mo1 O57 2.064400 1_555
Mo1 O55 2.071030 1_545
Mo1 O29 2.096118 1_655
Mo1 O27 2.184391 1_555
Mo2 O60 1.714699 1_545
Mo2 O2 2.032156 1_555
Mo2 O58 2.064400 1_555
Mo2 O52 2.071030 1_545
Mo2 O30 2.096118 1_555
Mo2 O24 2.184391 1_555
Mo3 O61 1.714699 1_565
Mo3 O3 2.032156 1_555
Mo3 O59 2.064400 1_555
Mo3 O53 2.071030 1_565
Mo3 O31 2.096118 1_555
Mo3 O25 2.184391 1_555
Mo4 O32 1.729853 1_555
Mo4 O51 1.771035 1_554
Mo4 O20 2.045448 1_555
Mo4 O4 2.049003 1_555
Mo4 O44 2.074373 1_555
Mo4 O43 2.203476 1_554
Mo5 O33 1.729853 1_555
Mo5 O50 1.771035 1_556
Mo5 O21 2.045448 1_555
Mo5 O5 2.049003 1_555
Mo5 O45 2.074373 1_555
Mo5 O42 2.203476 1_556
Mo6 O34 1.729853 1_555
Mo6 O49 1.771035 1_555
Mo6 O22 2.045448 1_555
Mo6 O6 2.049003 1_455
Mo6 O46 2.074373 1_455
Mo6 O41 2.203476 1_555
Mo7 O35 1.729853 1_555
Mo7 O48 1.771035 1_555
Mo7 O23 2.045448 1_555
Mo7 O7 2.049003 1_655
Mo7 O47 2.074373 1_655
Mo7 O40 2.203476 1_555
Mo8 O12 1.738522 1_555
Mo8 O16 1.740328 1_555
Mo8 O8 2.015922 1_555
Mo8 O39 2.035569 1_555
Mo8 O64 2.085113 1_555
Mo8 O48 2.301389 1_555
Mo9 O13 1.738522 1_555
Mo9 O17 1.740328 1_555
Mo9 O9 2.015922 1_555
Mo9 O38 2.035569 1_555
Mo9 O65 2.085113 1_555
Mo9 O49 2.301389 1_555
Mo10 O14 1.738522 1_555
Mo10 O18 1.740328 1_555
Mo10 O10 2.015922 1_555
Mo10 O37 2.035569 1_554
Mo10 O66 2.085113 1_555
Mo10 O50 2.301389 1_555
Mo11 O15 1.738522 1_555
Mo11 O19 1.740328 1_555
Mo11 O11 2.015922 1_555
Mo11 O36 2.035569 1_556
Mo11 O67 2.085113 1_555
Mo11 O51 2.301389 1_555
O0 P10 1.543759 1_565
O1 P11 1.543759 1_545
O2 P8 1.543759 1_545
O3 P9 1.543759 1_565
O4 P5 1.564079 1_554
O5 P4 1.564079 1_556
O6 P7 1.564079 1_555
O7 P6 1.564079 1_555
O8 P0 1.543630 1_555
O9 P1 1.543630 1_555
O10 P2 1.543630 1_555
O11 P3 1.543630 1_555
O20 P0 1.558909 1_555
O21 P1 1.558909 1_555
O22 P2 1.558909 1_555
O23 P3 1.558909 1_555
O24 P4 1.535990 1_555
O25 P5 1.535990 1_555
O26 P6 1.535990 1_555
O27 P7 1.535990 1_555
O28 P0 1.548760 1_555
O29 P1 1.548760 1_555
O30 P2 1.548760 1_555
O31 P3 1.548760 1_555
O36 P4 1.568968 1_555
O37 P5 1.568968 1_555
O38 P6 1.568968 1_555
O39 P7 1.568968 1_555
O40 P10 1.526960 1_565
O41 P11 1.526960 1_545
O42 P8 1.526960 1_545
O43 P9 1.526960 1_565
O44 P8 1.552921 1_555
O45 P9 1.552921 1_555
O46 P10 1.552921 1_555
O47 P11 1.552921 1_555
O52 P0 1.544448 1_555
O53 P1 1.544448 1_555
O54 P2 1.544448 1_555
O55 P3 1.544448 1_555
O56 P8 1.568554 1_555
O57 P9 1.568554 1_555
O58 P10 1.568554 1_555
O59 P11 1.568554 1_555
O64 P6 1.532459 1_655
O65 P7 1.532459 1_455
O66 P4 1.532459 1_555
O67 P5 1.532459 1_555
