# generated using pymatgen
data_Nd(FeSb3)4
_symmetry_space_group_name_H-M   'P 1'
_cell_length_a   7.91054431
_cell_length_b   7.91054494
_cell_length_c   7.91069987
_cell_angle_alpha   109.47161472
_cell_angle_beta   109.47161642
_cell_angle_gamma   109.47082699
_symmetry_Int_Tables_number   1
_chemical_formula_structural   Nd(FeSb3)4
_chemical_formula_sum   'Nd1 Fe4 Sb12'
_cell_volume   381.06903739
_cell_formula_units_Z   1
loop_
 _symmetry_equiv_pos_site_id
 _symmetry_equiv_pos_as_xyz
  1  'x, y, z'
loop_
 _atom_site_type_symbol
 _atom_site_label
 _atom_site_symmetry_multiplicity
 _atom_site_fract_x
 _atom_site_fract_y
 _atom_site_fract_z
 _atom_site_occupancy
  Nd  Nd0  1  -0.00000000  -0.00000000  0.00000000  1
  Fe  Fe0  1  0.50000000  0.50000000  0.50000000  1
  Fe  Fe1  1  0.50000000  -0.00000000  0.00000000  1
  Fe  Fe2  1  -0.00000000  0.50000000  0.00000000  1
  Fe  Fe3  1  -0.00000000  -0.00000000  0.50000000  1
  Sb  Sb0  1  0.50311862  0.83790144  0.66521182  1
  Sb  Sb1  1  0.49688138  0.16209856  0.33478818  1
  Sb  Sb2  1  0.16209956  0.66521818  0.82731039  1
  Sb  Sb3  1  0.33478092  0.17269781  0.83790831  1
  Sb  Sb4  1  0.83791689  0.66521908  0.50312739  1
  Sb  Sb5  1  0.66521908  0.82730219  0.16209169  1
  Sb  Sb6  1  0.83790044  0.33478182  0.17268961  1
  Sb  Sb7  1  0.66521818  0.50311862  0.83790780  1
  Sb  Sb8  1  0.33478182  0.49688138  0.16209220  1
  Sb  Sb9  1  0.16208311  0.33478092  0.49687261  1
  Sb  Sb10  1  0.82730219  0.16208311  0.66521050  1
  Sb  Sb11  1  0.17269781  0.83791689  0.33478950  1
loop_
_geom_bond_atom_site_label_1
_geom_bond_atom_site_label_2
_geom_bond_distance
_geom_bond_site_symmetry_2
Nd0 Sb1 3.397622 1_555
Nd0 Sb0 3.397622 1_444
Nd0 Sb7 3.397622 1_444
Nd0 Sb8 3.397622 1_555
Nd0 Sb6 3.397622 1_455
Nd0 Sb2 3.397622 1_544
Nd0 Sb3 3.397625 1_554
Nd0 Sb5 3.397625 1_445
Nd0 Sb11 3.397625 1_545
Nd0 Sb10 3.397625 1_454
Nd0 Sb9 3.397625 1_555
Nd0 Sb4 3.397625 1_444
Fe0 Sb1 2.541475 1_555
Fe0 Sb0 2.541475 1_555
Fe0 Sb7 2.541568 1_555
Fe0 Sb8 2.541568 1_555
Fe0 Sb4 2.541568 1_555
Fe0 Sb9 2.541568 1_555
Fe1 Sb2 2.541466 1_544
Fe1 Sb6 2.541466 1_555
Fe1 Sb1 2.541560 1_555
Fe1 Sb0 2.541560 1_544
Fe1 Sb5 2.541569 1_545
Fe1 Sb3 2.541569 1_554
Fe2 Sb7 2.541466 1_454
Fe2 Sb8 2.541466 1_555
Fe2 Sb2 2.541568 1_554
Fe2 Sb6 2.541568 1_455
Fe2 Sb11 2.541569 1_555
Fe2 Sb10 2.541569 1_454
Fe3 Sb9 2.541499 1_555
Fe3 Sb4 2.541499 1_445
Fe3 Sb3 2.541499 1_555
Fe3 Sb5 2.541499 1_445
Fe3 Sb10 2.541499 1_455
Fe3 Sb11 2.541499 1_545
Sb0 Sb10 2.961205 1_565
Sb0 Sb11 3.018258 1_555
Sb1 Sb11 2.961205 1_545
Sb1 Sb10 3.018258 1_555
Sb2 Sb4 2.961205 1_455
Sb2 Sb9 3.018259 1_555
Sb3 Sb8 2.961205 1_556
Sb3 Sb7 3.018258 1_555
Sb4 Sb6 3.018259 1_555
Sb5 Sb7 2.961205 1_554
Sb5 Sb8 3.018258 1_555
Sb6 Sb9 2.961205 1_655
