# generated using pymatgen
data_Mn4Al(CuO4)3
_symmetry_space_group_name_H-M   'P 1'
_cell_length_a   6.31892491
_cell_length_b   6.31892491
_cell_length_c   6.31892491
_cell_angle_alpha   109.47122063
_cell_angle_beta   109.47122063
_cell_angle_gamma   109.47122063
_symmetry_Int_Tables_number   1
_chemical_formula_structural   Mn4Al(CuO4)3
_chemical_formula_sum   'Mn4 Al1 Cu3 O12'
_cell_volume   194.22614644
_cell_formula_units_Z   1
loop_
 _symmetry_equiv_pos_site_id
 _symmetry_equiv_pos_as_xyz
  1  'x, y, z'
loop_
 _atom_site_type_symbol
 _atom_site_label
 _atom_site_symmetry_multiplicity
 _atom_site_fract_x
 _atom_site_fract_y
 _atom_site_fract_z
 _atom_site_occupancy
  Mn  Mn0  1  0.00000000  0.00000000  0.50000000  1
  Mn  Mn1  1  0.00000000  0.50000000  0.00000000  1
  Mn  Mn2  1  0.50000000  0.00000000  0.00000000  1
  Mn  Mn3  1  0.50000000  0.50000000  0.50000000  1
  Al  Al0  1  0.00000000  0.00000000  0.00000000  1
  Cu  Cu0  1  0.00000000  0.50000000  0.50000000  1
  Cu  Cu1  1  0.50000000  0.00000000  0.50000000  1
  Cu  Cu2  1  0.50000000  0.50000000  0.00000000  1
  O  O0  1  0.29337900  0.12233500  0.82895600  1
  O  O1  1  0.70662100  0.87766500  0.17104400  1
  O  O2  1  0.70662100  0.53557700  0.82895600  1
  O  O3  1  0.46442300  0.17104400  0.29337900  1
  O  O4  1  0.17104400  0.29337900  0.46442300  1
  O  O5  1  0.82895600  0.29337900  0.12233500  1
  O  O6  1  0.87766500  0.17104400  0.70662100  1
  O  O7  1  0.82895600  0.70662100  0.53557700  1
  O  O8  1  0.29337900  0.46442300  0.17104400  1
  O  O9  1  0.53557700  0.82895600  0.70662100  1
  O  O10  1  0.17104400  0.70662100  0.87766500  1
  O  O11  1  0.12233500  0.82895600  0.29337900  1
loop_
_geom_bond_atom_site_label_1
_geom_bond_atom_site_label_2
_geom_bond_distance
_geom_bond_site_symmetry_2
Mn0 O0 1.938936 1_555
Mn0 O4 1.938936 1_555
Mn0 O1 1.938936 1_445
Mn0 O6 1.938936 1_455
Mn0 O11 1.938936 1_545
Mn0 O7 1.938936 1_445
Mn1 O11 1.938936 1_555
Mn1 O8 1.938936 1_555
Mn1 O6 1.938936 1_454
Mn1 O10 1.938936 1_554
Mn1 O5 1.938936 1_455
Mn1 O2 1.938936 1_454
Mn2 O5 1.938936 1_555
Mn2 O3 1.938936 1_555
Mn2 O10 1.938936 1_544
Mn2 O1 1.938936 1_545
Mn2 O0 1.938936 1_554
Mn2 O9 1.938936 1_544
Mn3 O9 1.938936 1_555
Mn3 O7 1.938936 1_555
Mn3 O2 1.938936 1_555
Mn3 O4 1.938936 1_555
Mn3 O8 1.938936 1_555
Mn3 O3 1.938936 1_555
Al0 O2 2.477870 1_444
Al0 O8 2.477870 1_555
Al0 O3 2.477870 1_555
Al0 O4 2.477870 1_555
Al0 O7 2.477870 1_444
Al0 O9 2.477870 1_444
Al0 O0 2.477870 1_554
Al0 O11 2.477870 1_545
Al0 O5 2.477870 1_455
Al0 O10 2.477870 1_544
Al0 O6 2.477870 1_454
Al0 O1 2.477870 1_445
Cu0 O10 1.957144 1_555
Cu0 O5 1.957144 1_455
Cu0 O4 1.957144 1_555
Cu0 O7 1.957144 1_455
Cu1 O6 1.957144 1_555
Cu1 O11 1.957144 1_545
Cu1 O9 1.957144 1_545
Cu1 O3 1.957144 1_555
Cu2 O1 1.957144 1_555
Cu2 O8 1.957144 1_555
Cu2 O0 1.957144 1_554
Cu2 O2 1.957144 1_554
