# generated using pymatgen
data_PuTcB2
_symmetry_space_group_name_H-M   'P 1'
_cell_length_a   5.39696700
_cell_length_b   5.80516200
_cell_length_c   6.40177600
_cell_angle_alpha   90.00000000
_cell_angle_beta   90.00000000
_cell_angle_gamma   90.00000000
_symmetry_Int_Tables_number   1
_chemical_formula_structural   PuTcB2
_chemical_formula_sum   'Pu4 Tc4 B8'
_cell_volume   200.56935611
_cell_formula_units_Z   4
loop_
 _symmetry_equiv_pos_site_id
 _symmetry_equiv_pos_as_xyz
  1  'x, y, z'
loop_
 _atom_site_type_symbol
 _atom_site_label
 _atom_site_symmetry_multiplicity
 _atom_site_fract_x
 _atom_site_fract_y
 _atom_site_fract_z
 _atom_site_occupancy
  Pu  Pu0  1  0.25000000  0.00086000  0.34031700  1
  Pu  Pu1  1  0.25000000  0.50086000  0.15968300  1
  Pu  Pu2  1  0.75000000  0.99914000  0.65968300  1
  Pu  Pu3  1  0.75000000  0.49914000  0.84031700  1
  Tc  Tc0  1  0.25000000  0.18834300  0.81636400  1
  Tc  Tc1  1  0.25000000  0.68834300  0.68363600  1
  Tc  Tc2  1  0.75000000  0.81165700  0.18363600  1
  Tc  Tc3  1  0.75000000  0.31165700  0.31636400  1
  B  B0  1  0.08252200  0.37071900  0.53617800  1
  B  B1  1  0.41747800  0.87071900  0.96382200  1
  B  B2  1  0.58252200  0.62928100  0.46382200  1
  B  B3  1  0.91747800  0.12928100  0.03617800  1
  B  B4  1  0.91747800  0.62928100  0.46382200  1
  B  B5  1  0.58252200  0.12928100  0.03617800  1
  B  B6  1  0.41747800  0.37071900  0.53617800  1
  B  B7  1  0.08252200  0.87071900  0.96382200  1
loop_
_geom_bond_atom_site_label_1
_geom_bond_atom_site_label_2
_geom_bond_distance
_geom_bond_site_symmetry_2
Pu0 Tc1 2.849897 1_545
Pu1 Tc0 2.849897 1_554
Pu2 Tc3 2.849897 1_565
Pu3 Tc2 2.849897 1_556
B0 B4 1.805812 1_455
B0 B6 1.807746 1_555
B0 Tc1 2.260072 1_555
B0 Tc0 2.270506 1_555
B0 Tc3 2.306164 1_455
B0 Pu0 2.645590 1_555
B0 Pu1 2.682721 1_555
B0 Pu3 2.750878 1_455
B0 Pu2 2.915259 1_445
B1 B5 1.805812 1_566
B1 B7 1.807746 1_555
B1 Tc0 2.260072 1_565
B1 Tc1 2.270506 1_555
B1 Tc2 2.306164 1_556
B1 Pu1 2.645590 1_556
B1 Pu0 2.682721 1_566
B1 Pu2 2.750878 1_555
B1 Pu3 2.915259 1_555
B2 B6 1.805812 1_555
B2 B4 1.807746 1_555
B2 Tc3 2.260072 1_555
B2 Tc2 2.270506 1_555
B2 Tc1 2.306164 1_555
B2 Pu2 2.645590 1_555
B2 Pu3 2.682721 1_555
B2 Pu1 2.750878 1_555
B2 Pu0 2.915259 1_565
B3 B7 1.805812 1_644
B3 B5 1.807746 1_555
B3 Tc2 2.260072 1_545
B3 Tc3 2.270506 1_555
B3 Tc0 2.306164 1_654
B3 Pu3 2.645590 1_554
B3 Pu2 2.682721 1_544
B3 Pu0 2.750878 1_655
B3 Pu1 2.915259 1_655
B4 Tc3 2.260072 1_555
B4 Tc2 2.270506 1_555
B4 Tc1 2.306164 1_655
B4 Pu2 2.645590 1_555
B4 Pu3 2.682721 1_555
B4 Pu1 2.750878 1_655
B4 Pu0 2.915259 1_665
B5 Tc2 2.260072 1_545
B5 Tc3 2.270506 1_555
B5 Tc0 2.306164 1_554
B5 Pu3 2.645590 1_554
B5 Pu2 2.682721 1_544
B5 Pu0 2.750878 1_555
B5 Pu1 2.915259 1_555
B6 Tc1 2.260072 1_555
B6 Tc0 2.270506 1_555
B6 Tc3 2.306164 1_555
B6 Pu0 2.645590 1_555
B6 Pu1 2.682721 1_555
B6 Pu3 2.750878 1_555
B6 Pu2 2.915259 1_545
B7 Tc0 2.260072 1_565
B7 Tc1 2.270506 1_555
B7 Tc2 2.306164 1_456
B7 Pu1 2.645590 1_556
B7 Pu0 2.682721 1_566
B7 Pu2 2.750878 1_455
B7 Pu3 2.915259 1_455
