# generated using pymatgen
data_Sr3(GaAs2)2
_symmetry_space_group_name_H-M   'P 1'
_cell_length_a   8.58347524
_cell_length_b   8.58347524
_cell_length_c   6.83191627
_cell_angle_alpha   89.83920307
_cell_angle_beta   89.83920307
_cell_angle_gamma   75.62648191
_symmetry_Int_Tables_number   1
_chemical_formula_structural   Sr3(GaAs2)2
_chemical_formula_sum   'Sr6 Ga4 As8'
_cell_volume   487.58969189
_cell_formula_units_Z   2
loop_
 _symmetry_equiv_pos_site_id
 _symmetry_equiv_pos_as_xyz
  1  'x, y, z'
loop_
 _atom_site_type_symbol
 _atom_site_label
 _atom_site_symmetry_multiplicity
 _atom_site_fract_x
 _atom_site_fract_y
 _atom_site_fract_z
 _atom_site_occupancy
  Sr  Sr0  1  0.74911383  0.00385238  0.96485685  1
  Sr  Sr1  1  0.99614762  0.25088617  0.53514315  1
  Sr  Sr2  1  0.25088617  0.99614762  0.03514315  1
  Sr  Sr3  1  0.00385238  0.74911383  0.46485685  1
  Sr  Sr4  1  0.60003170  0.39996830  0.25000000  1
  Sr  Sr5  1  0.39996830  0.60003170  0.75000000  1
  Ga  Ga0  1  0.58299572  0.82453735  0.41656395  1
  Ga  Ga1  1  0.17546265  0.41700428  0.08343605  1
  Ga  Ga2  1  0.41700428  0.17546265  0.58343605  1
  Ga  Ga3  1  0.82453735  0.58299572  0.91656395  1
  As  As0  1  0.70699299  0.05808489  0.47676796  1
  As  As1  1  0.94191511  0.29300701  0.02323204  1
  As  As2  1  0.29300701  0.94191511  0.52323204  1
  As  As3  1  0.05808489  0.70699299  0.97676796  1
  As  As4  1  0.57240509  0.74069637  0.07233475  1
  As  As5  1  0.25930363  0.42759491  0.42766525  1
  As  As6  1  0.42759491  0.25930363  0.92766525  1
  As  As7  1  0.74069637  0.57240509  0.57233475  1
loop_
_geom_bond_atom_site_label_1
_geom_bond_atom_site_label_2
_geom_bond_distance
_geom_bond_site_symmetry_2
As0 Ga0 2.527246 1_545
As0 Ga2 2.547680 1_555
As0 Sr3 3.190249 1_645
As0 Sr4 3.240296 1_555
As0 Sr1 3.332621 1_555
As0 Sr0 3.373625 1_555
As0 Sr0 3.535143 1_554
As1 Ga1 2.527246 1_655
As1 Ga3 2.547680 1_554
As1 Sr2 3.190249 1_645
As1 Sr4 3.240296 1_555
As1 Sr0 3.332621 1_554
As1 Sr1 3.373625 1_554
As1 Sr1 3.535143 1_555
As2 Ga2 2.527246 1_565
As2 Ga0 2.547680 1_555
As2 Sr1 3.190249 1_465
As2 Sr5 3.240296 1_555
As2 Sr3 3.332621 1_555
As2 Sr2 3.373625 1_555
As2 Sr2 3.535143 1_556
As3 Ga3 2.527246 1_455
As3 Ga1 2.547680 1_556
As3 Sr0 3.190249 1_465
As3 Sr5 3.240296 1_555
As3 Sr2 3.332621 1_556
As3 Sr3 3.373625 1_556
As3 Sr3 3.535143 1_555
As4 Ga0 2.469826 1_555
As4 Ga3 2.487810 1_554
As4 Sr5 3.068959 1_554
As4 Sr2 3.079776 1_555
As4 Sr0 3.102798 1_564
As4 Sr4 3.117749 1_555
As5 Ga1 2.469826 1_555
As5 Ga2 2.487810 1_555
As5 Sr5 3.068959 1_555
As5 Sr3 3.079776 1_555
As5 Sr1 3.102798 1_455
As5 Sr4 3.117749 1_555
As6 Ga2 2.469826 1_555
As6 Ga1 2.487810 1_556
As6 Sr4 3.068959 1_556
As6 Sr0 3.079776 1_555
As6 Sr2 3.102798 1_546
As6 Sr5 3.117749 1_555
As7 Ga3 2.469826 1_555
As7 Ga0 2.487810 1_555
As7 Sr4 3.068959 1_555
As7 Sr1 3.079776 1_555
As7 Sr3 3.102798 1_655
As7 Sr5 3.117749 1_555
