# generated using pymatgen
data_Nd3Ga2
_symmetry_space_group_name_H-M   'P 1'
_cell_length_a   11.46596356
_cell_length_b   11.46596356
_cell_length_c   11.46596356
_cell_angle_alpha   95.49288832
_cell_angle_beta   116.88099655
_cell_angle_gamma   116.88099655
_symmetry_Int_Tables_number   1
_chemical_formula_structural   Nd3Ga2
_chemical_formula_sum   'Nd24 Ga16'
_cell_volume   1110.62659581
_cell_formula_units_Z   8
loop_
 _symmetry_equiv_pos_site_id
 _symmetry_equiv_pos_as_xyz
  1  'x, y, z'
loop_
 _atom_site_type_symbol
 _atom_site_label
 _atom_site_symmetry_multiplicity
 _atom_site_fract_x
 _atom_site_fract_y
 _atom_site_fract_z
 _atom_site_occupancy
  Nd  Nd0  1  0.50000000  0.84958398  0.34958398  1
  Nd  Nd1  1  0.50000000  0.34958398  0.84958398  1
  Nd  Nd2  1  0.50000000  0.15041602  0.65041602  1
  Nd  Nd3  1  0.50000000  0.65041602  0.15041602  1
  Nd  Nd4  1  0.17096113  0.33548107  0.83548107  1
  Nd  Nd5  1  0.82903887  0.66451893  0.16451893  1
  Nd  Nd6  1  0.50000000  0.16451893  0.33548107  1
  Nd  Nd7  1  0.50000000  0.83548107  0.66451893  1
  Nd  Nd8  1  0.73278257  0.56576028  0.43521448  1
  Nd  Nd9  1  0.26721743  0.70243291  0.83297771  1
  Nd  Nd10  1  0.86945520  0.20243291  0.93521448  1
  Nd  Nd11  1  0.13054480  0.06576028  0.33297771  1
  Nd  Nd12  1  0.86945520  0.43521448  0.70243291  1
  Nd  Nd13  1  0.13054480  0.83297771  0.56576028  1
  Nd  Nd14  1  0.73278257  0.93521448  0.06576028  1
  Nd  Nd15  1  0.26721743  0.33297771  0.20243291  1
  Nd  Nd16  1  0.26721743  0.43423972  0.56478552  1
  Nd  Nd17  1  0.73278257  0.29756709  0.16702229  1
  Nd  Nd18  1  0.13054480  0.79756709  0.06478552  1
  Nd  Nd19  1  0.86945520  0.93423972  0.66702229  1
  Nd  Nd20  1  0.13054480  0.56478552  0.29756709  1
  Nd  Nd21  1  0.86945520  0.16702229  0.43423972  1
  Nd  Nd22  1  0.26721743  0.06478552  0.93423972  1
  Nd  Nd23  1  0.73278257  0.66702229  0.79756709  1
  Ga  Ga0  1  -0.00000000  0.75000000  0.75000000  1
  Ga  Ga1  1  -0.00000000  0.25000000  0.25000000  1
  Ga  Ga2  1  -0.00000000  0.50000000  0.50000000  1
  Ga  Ga3  1  -0.00000000  -0.00000000  0.00000000  1
  Ga  Ga4  1  0.27039387  0.88519744  0.38519744  1
  Ga  Ga5  1  0.72960613  0.11480256  0.61480256  1
  Ga  Ga6  1  0.50000000  0.61480256  0.88519744  1
  Ga  Ga7  1  0.50000000  0.38519744  0.11480256  1
  Ga  Ga8  1  0.13915311  0.11691356  0.61691356  1
  Ga  Ga9  1  0.86084689  0.47776046  0.97776046  1
  Ga  Ga10  1  0.50000000  0.97776046  0.11691356  1
  Ga  Ga11  1  0.50000000  0.61691356  0.47776046  1
  Ga  Ga12  1  0.86084689  0.88308644  0.38308644  1
  Ga  Ga13  1  0.13915311  0.52223954  0.02223954  1
  Ga  Ga14  1  0.50000000  0.02223954  0.88308644  1
  Ga  Ga15  1  0.50000000  0.38308644  0.52223954  1
loop_
_geom_bond_atom_site_label_1
_geom_bond_atom_site_label_2
_geom_bond_distance
_geom_bond_site_symmetry_2
Nd0 Nd3 3.071114 1_555
Nd0 Nd6 3.630082 1_565
Nd0 Nd7 3.630082 1_555
Nd1 Nd2 3.071114 1_555
Nd1 Nd5 3.630083 1_556
Nd1 Nd4 3.630093 1_555
Nd2 Nd7 3.630082 1_545
Nd2 Nd6 3.630082 1_555
Nd3 Nd4 3.630083 1_554
Nd3 Nd5 3.630093 1_555
Nd4 Nd9 3.843725 1_555
Nd5 Nd8 3.843722 1_555
Nd6 Nd8 3.837465 1_555
Nd7 Nd9 3.837463 1_555
Nd10 Nd4 3.837445 1_655
Nd10 Nd7 3.843725 1_545
Nd11 Nd5 3.837461 1_445
Nd11 Nd6 3.843727 1_555
Nd12 Nd4 3.837445 1_655
Nd12 Nd6 3.843725 1_555
Nd13 Nd5 3.837461 1_455
Nd13 Nd7 3.843727 1_555
Nd14 Nd7 3.837465 1_554
Nd14 Nd5 3.843722 1_555
Nd15 Nd6 3.837463 1_555
Nd15 Nd4 3.843725 1_554
Nd16 Nd7 3.837465 1_555
Nd16 Nd4 3.843722 1_555
Nd17 Nd6 3.837463 1_555
Nd17 Nd5 3.843725 1_555
Nd18 Nd5 3.837445 1_455
Nd18 Nd6 3.843725 1_565
Nd19 Nd4 3.837461 1_665
Nd19 Nd7 3.843727 1_555
Nd20 Nd5 3.837445 1_455
Nd20 Nd7 3.843725 1_555
Nd21 Nd4 3.837461 1_655
Nd21 Nd6 3.843727 1_555
Nd22 Nd6 3.837465 1_556
Nd22 Nd4 3.843722 1_555
Nd23 Nd7 3.837463 1_555
Nd23 Nd5 3.843725 1_556
Ga0 Nd13 3.092669 1_555
Ga0 Nd19 3.092669 1_455
Ga0 Nd23 3.092669 1_455
Ga0 Nd9 3.092669 1_555
Ga0 Nd8 3.092676 1_455
Ga0 Nd22 3.092676 1_565
Ga0 Nd12 3.092680 1_455
Ga0 Nd18 3.092680 1_556
Ga1 Nd17 3.092669 1_455
Ga1 Nd11 3.092669 1_555
Ga1 Nd15 3.092669 1_555
Ga1 Nd21 3.092669 1_455
Ga1 Nd14 3.092676 1_445
Ga1 Nd16 3.092676 1_555
Ga1 Nd10 3.092680 1_454
Ga1 Nd20 3.092680 1_555
Ga2 Nd16 3.262825 1_555
Ga2 Nd8 3.262825 1_455
Ga2 Nd17 3.262827 1_455
Ga2 Nd9 3.262827 1_555
Ga2 Nd13 3.262827 1_555
Ga2 Nd21 3.262827 1_455
Ga2 Nd12 3.262828 1_455
Ga2 Nd20 3.262828 1_555
Ga3 Nd22 3.262825 1_554
Ga3 Nd14 3.262825 1_445
Ga3 Nd23 3.262827 1_444
Ga3 Nd15 3.262827 1_555
Ga3 Nd19 3.262827 1_444
Ga3 Nd11 3.262827 1_555
Ga3 Nd18 3.262828 1_545
Ga3 Nd10 3.262828 1_454
Ga4 Nd2 3.029292 1_565
Ga4 Nd0 3.029304 1_555
Ga4 Nd20 3.096305 1_555
Ga4 Nd18 3.096305 1_555
Ga4 Nd13 3.096305 1_555
Ga4 Nd11 3.096305 1_565
Ga4 Nd6 3.405166 1_565
Ga4 Nd7 3.405166 1_555
Ga4 Nd5 3.745707 1_455
Ga5 Nd0 3.029292 1_545
Ga5 Nd2 3.029304 1_555
Ga5 Nd12 3.096305 1_555
Ga5 Nd10 3.096305 1_555
Ga5 Nd21 3.096305 1_555
Ga5 Nd19 3.096305 1_545
Ga5 Nd6 3.405166 1_555
Ga5 Nd7 3.405166 1_545
Ga5 Nd4 3.745707 1_655
Ga6 Nd3 3.029293 1_556
Ga6 Nd1 3.029293 1_555
Ga6 Nd16 3.096305 1_555
Ga6 Nd14 3.096305 1_556
Ga6 Nd23 3.096313 1_555
Ga6 Nd9 3.096313 1_555
Ga6 Nd5 3.405169 1_556
Ga6 Nd4 3.405169 1_555
Ga6 Nd7 3.745724 1_555
Ga7 Nd1 3.029293 1_554
Ga7 Nd3 3.029293 1_555
Ga7 Nd8 3.096305 1_555
Ga7 Nd22 3.096305 1_554
Ga7 Nd15 3.096313 1_555
Ga7 Nd17 3.096313 1_555
Ga7 Nd4 3.405169 1_554
Ga7 Nd5 3.405169 1_555
Ga7 Nd6 3.745724 1_555
Ga8 Nd4 3.136652 1_555
Ga8 Nd1 3.166644 1_555
Ga8 Nd13 3.200654 1_545
Ga8 Nd11 3.200654 1_555
Ga8 Nd21 3.203085 1_455
Ga8 Nd19 3.203085 1_445
Ga8 Nd16 3.482880 1_555
Ga8 Nd22 3.482880 1_555
Ga8 Nd2 3.809329 1_555
Ga9 Nd5 3.136637 1_556
Ga9 Nd1 3.166644 1_555
Ga9 Nd10 3.200655 1_555
Ga9 Nd12 3.200655 1_555
Ga9 Nd20 3.203083 1_656
Ga9 Nd18 3.203083 1_656
Ga9 Nd17 3.482885 1_556
Ga9 Nd23 3.482885 1_555
Ga9 Nd2 3.809330 1_555
Ga10 Ga14 2.776672 1_564
Ga10 Nd6 3.136645 1_565
Ga10 Nd0 3.166644 1_555
Ga10 Nd9 3.200654 1_554
Ga10 Nd14 3.200659 1_555
Ga10 Nd17 3.203085 1_565
Ga10 Nd22 3.203094 1_564
Ga10 Nd21 3.482885 1_565
Ga10 Nd18 3.482890 1_555
Ga10 Nd3 3.809330 1_555
Ga11 Ga15 2.776672 1_555
Ga11 Nd7 3.136645 1_555
Ga11 Nd0 3.166644 1_555
Ga11 Nd15 3.200654 1_555
Ga11 Nd8 3.200659 1_555
Ga11 Nd23 3.203085 1_555
Ga11 Nd16 3.203094 1_555
Ga11 Nd19 3.482885 1_555
Ga11 Nd20 3.482890 1_555
Ga11 Nd3 3.809330 1_555
Ga12 Ga8 2.776672 1_665
Ga12 Nd5 3.136652 1_555
Ga12 Nd3 3.166644 1_555
Ga12 Nd21 3.200654 1_565
Ga12 Nd19 3.200654 1_555
Ga12 Nd11 3.203085 1_665
Ga12 Nd13 3.203085 1_655
Ga12 Nd14 3.482880 1_555
Ga12 Nd8 3.482880 1_555
Ga12 Nd0 3.809329 1_555
Ga13 Ga9 2.776672 1_454
Ga13 Nd4 3.136637 1_554
Ga13 Nd3 3.166644 1_555
Ga13 Nd18 3.200655 1_555
Ga13 Nd20 3.200655 1_555
Ga13 Nd12 3.203083 1_454
Ga13 Nd10 3.203083 1_454
Ga13 Nd9 3.482885 1_554
Ga13 Nd15 3.482885 1_555
Ga13 Nd0 3.809330 1_555
Ga14 Nd7 3.136645 1_545
Ga14 Nd2 3.166644 1_555
Ga14 Nd17 3.200654 1_556
Ga14 Nd22 3.200659 1_555
Ga14 Nd9 3.203085 1_545
Ga14 Nd14 3.203094 1_546
Ga14 Nd13 3.482885 1_545
Ga14 Nd10 3.482890 1_555
Ga14 Nd1 3.809330 1_555
Ga15 Nd6 3.136645 1_555
Ga15 Nd2 3.166644 1_555
Ga15 Nd23 3.200654 1_555
Ga15 Nd16 3.200659 1_555
Ga15 Nd15 3.203085 1_555
Ga15 Nd8 3.203094 1_555
Ga15 Nd11 3.482885 1_555
Ga15 Nd12 3.482890 1_555
Ga15 Nd1 3.809330 1_555
