# generated using pymatgen
data_Y2(Ga3Ru)3
_symmetry_space_group_name_H-M   'P 1'
_cell_length_a   7.39658488
_cell_length_b   7.39658488
_cell_length_c   9.68386982
_cell_angle_alpha   90.00000000
_cell_angle_beta   90.00000000
_cell_angle_gamma   118.83577819
_symmetry_Int_Tables_number   1
_chemical_formula_structural   Y2(Ga3Ru)3
_chemical_formula_sum   'Y4 Ga18 Ru6'
_cell_volume   464.10725318
_cell_formula_units_Z   2
loop_
 _symmetry_equiv_pos_site_id
 _symmetry_equiv_pos_as_xyz
  1  'x, y, z'
loop_
 _atom_site_type_symbol
 _atom_site_label
 _atom_site_symmetry_multiplicity
 _atom_site_fract_x
 _atom_site_fract_y
 _atom_site_fract_z
 _atom_site_occupancy
  Y  Y0  1  0.99754311  0.67552978  0.25000000  1
  Y  Y1  1  0.00245689  0.32447022  0.75000000  1
  Y  Y2  1  0.67552978  0.99754311  0.25000000  1
  Y  Y3  1  0.32447022  0.00245689  0.75000000  1
  Ga  Ga0  1  0.13525538  0.13525538  0.25000000  1
  Ga  Ga1  1  0.86474462  0.86474462  0.75000000  1
  Ga  Ga2  1  0.01188999  0.33873817  0.07626094  1
  Ga  Ga3  1  0.98811001  0.66126183  0.92373906  1
  Ga  Ga4  1  0.98811001  0.66126183  0.57626094  1
  Ga  Ga5  1  0.33873817  0.01188999  0.42373906  1
  Ga  Ga6  1  0.01188999  0.33873817  0.42373906  1
  Ga  Ga7  1  0.66126183  0.98811001  0.57626094  1
  Ga  Ga8  1  0.66126183  0.98811001  0.92373906  1
  Ga  Ga9  1  0.33873817  0.01188999  0.07626094  1
  Ga  Ga10  1  0.33903894  0.33903894  0.56108233  1
  Ga  Ga11  1  0.66096106  0.66096106  0.43891767  1
  Ga  Ga12  1  0.66096106  0.66096106  0.06108233  1
  Ga  Ga13  1  0.33903894  0.33903894  0.93891767  1
  Ga  Ga14  1  0.33989557  0.55341857  0.25000000  1
  Ga  Ga15  1  0.66010443  0.44658143  0.75000000  1
  Ga  Ga16  1  0.55341857  0.33989557  0.25000000  1
  Ga  Ga17  1  0.44658143  0.66010443  0.75000000  1
  Ru  Ru0  1  0.67673351  0.32326649  0.00000000  1
  Ru  Ru1  1  0.32326649  0.67673351  0.00000000  1
  Ru  Ru2  1  0.32326649  0.67673351  0.50000000  1
  Ru  Ru3  1  0.67673351  0.32326649  0.50000000  1
  Ru  Ru4  1  0.00000000  0.00000000  0.00000000  1
  Ru  Ru5  1  0.00000000  0.00000000  0.50000000  1
loop_
_geom_bond_atom_site_label_1
_geom_bond_atom_site_label_2
_geom_bond_distance
_geom_bond_site_symmetry_2
Ga0 Ru4 2.626284 1_555
Ga0 Ru5 2.626284 1_555
Ga0 Ga2 2.693199 1_555
Ga0 Ga5 2.693199 1_555
Ga0 Ga6 2.693199 1_555
Ga0 Ga9 2.693199 1_555
Ga0 Ga14 2.709556 1_555
Ga0 Ga16 2.709556 1_555
Ga0 Y2 3.042897 1_445
Ga0 Y0 3.042897 1_445
Ga1 Ru5 2.626284 1_665
Ga1 Ru4 2.626284 1_666
Ga1 Ga7 2.693199 1_555
Ga1 Ga4 2.693199 1_555
Ga1 Ga8 2.693199 1_555
Ga1 Ga3 2.693199 1_555
Ga1 Ga17 2.709556 1_555
Ga1 Ga15 2.709556 1_555
Ga1 Y1 3.042897 1_665
Ga1 Y3 3.042897 1_665
Ga2 Ru0 2.535811 1_455
Ga2 Ru1 2.558476 1_555
Ga2 Ru4 2.572572 1_555
Ga2 Y0 3.050011 1_455
Ga2 Y2 3.054984 1_445
Ga2 Y1 3.160877 1_554
Ga3 Ru1 2.535811 1_656
Ga3 Ru0 2.558476 1_556
Ga3 Ru4 2.572572 1_666
Ga3 Y1 3.050011 1_655
Ga3 Y3 3.054984 1_665
Ga3 Y0 3.160877 1_556
Ga4 Ru2 2.535811 1_655
Ga4 Ru3 2.558476 1_555
Ga4 Ru5 2.572572 1_665
Ga4 Y1 3.050011 1_655
Ga4 Y3 3.054984 1_665
Ga4 Y0 3.160877 1_555
Ga5 Ru2 2.535811 1_545
Ga5 Ru3 2.558476 1_555
Ga5 Ru5 2.572572 1_555
Ga5 Y2 3.050011 1_545
Ga5 Y0 3.054984 1_445
Ga5 Y3 3.160877 1_555
Ga6 Ru3 2.535811 1_455
Ga6 Ru2 2.558476 1_555
Ga6 Ru5 2.572572 1_555
Ga6 Y0 3.050011 1_455
Ga6 Y2 3.054984 1_445
Ga6 Y1 3.160877 1_555
Ga7 Ru3 2.535811 1_565
Ga7 Ru2 2.558476 1_555
Ga7 Ru5 2.572572 1_665
Ga7 Y3 3.050011 1_565
Ga7 Y1 3.054984 1_665
Ga7 Y2 3.160877 1_555
Ga8 Ru0 2.535811 1_566
Ga8 Ru1 2.558476 1_556
Ga8 Ru4 2.572572 1_666
Ga8 Y3 3.050011 1_565
Ga8 Y1 3.054984 1_665
Ga8 Y2 3.160877 1_556
Ga9 Ru1 2.535811 1_545
Ga9 Ru0 2.558476 1_555
Ga9 Ru4 2.572572 1_555
Ga9 Y2 3.050011 1_545
Ga9 Y0 3.054984 1_445
Ga9 Y3 3.160877 1_554
Ga10 Ru5 2.619391 1_555
Ga10 Ru2 2.623646 1_555
Ga10 Ru3 2.623646 1_555
Ga10 Ga11 2.696295 1_555
Ga10 Ga5 2.760273 1_555
Ga10 Ga6 2.760273 1_555
Ga10 Ga15 2.792330 1_555
Ga10 Ga17 2.792330 1_555
Ga10 Y1 3.049203 1_555
Ga10 Y3 3.049203 1_555
Ga11 Ru5 2.619391 1_665
Ga11 Ru3 2.623646 1_555
Ga11 Ru2 2.623646 1_555
Ga11 Ga4 2.760273 1_555
Ga11 Ga7 2.760273 1_555
Ga11 Ga16 2.792330 1_555
Ga11 Ga14 2.792330 1_555
Ga11 Y2 3.049203 1_555
Ga11 Y0 3.049203 1_555
Ga12 Ru4 2.619391 1_665
Ga12 Ru1 2.623646 1_555
Ga12 Ru0 2.623646 1_555
Ga12 Ga13 2.696295 1_554
Ga12 Ga8 2.760273 1_554
Ga12 Ga3 2.760273 1_554
Ga12 Ga16 2.792330 1_555
Ga12 Ga14 2.792330 1_555
Ga12 Y2 3.049203 1_555
Ga12 Y0 3.049203 1_555
Ga13 Ru4 2.619391 1_556
Ga13 Ru1 2.623646 1_556
Ga13 Ru0 2.623646 1_556
Ga13 Ga2 2.760273 1_556
Ga13 Ga9 2.760273 1_556
Ga13 Ga15 2.792330 1_555
Ga13 Ga17 2.792330 1_555
Ga13 Y1 3.049203 1_555
Ga13 Y3 3.049203 1_555
Ga14 Ru1 2.610818 1_555
Ga14 Ru2 2.610818 1_555
Ga14 Ga16 2.719312 1_555
Ga14 Ga2 2.742648 1_555
Ga14 Ga6 2.742648 1_555
Ga14 Y2 3.014597 1_555
Ga14 Y0 3.071512 1_455
Ga15 Ru0 2.610818 1_556
Ga15 Ru3 2.610818 1_555
Ga15 Ga17 2.719312 1_555
Ga15 Ga4 2.742648 1_555
Ga15 Ga3 2.742648 1_555
Ga15 Y3 3.014597 1_555
Ga15 Y1 3.071512 1_655
Ga16 Ru3 2.610818 1_555
Ga16 Ru0 2.610818 1_555
Ga16 Ga5 2.742648 1_555
Ga16 Ga9 2.742648 1_555
Ga16 Y0 3.014597 1_555
Ga16 Y2 3.071512 1_545
Ga17 Ru2 2.610818 1_555
Ga17 Ru1 2.610818 1_556
Ga17 Ga7 2.742648 1_555
Ga17 Ga8 2.742648 1_555
Ga17 Y1 3.014597 1_555
Ga17 Y3 3.071512 1_565
