# generated using pymatgen
data_NaSe
_symmetry_space_group_name_H-M   'P 1'
_cell_length_a   4.64853032
_cell_length_b   4.64852941
_cell_length_c   10.76144936
_cell_angle_alpha   90.00000000
_cell_angle_beta   90.00000000
_cell_angle_gamma   119.99999933
_symmetry_Int_Tables_number   1
_chemical_formula_structural   NaSe
_chemical_formula_sum   'Na4 Se4'
_cell_volume   201.38756570
_cell_formula_units_Z   4
loop_
 _symmetry_equiv_pos_site_id
 _symmetry_equiv_pos_as_xyz
  1  'x, y, z'
loop_
 _atom_site_type_symbol
 _atom_site_label
 _atom_site_symmetry_multiplicity
 _atom_site_fract_x
 _atom_site_fract_y
 _atom_site_fract_z
 _atom_site_occupancy
  Na  Na0  1  -0.00000000  -0.00000000  0.00000000  1
  Na  Na1  1  -0.00000000  -0.00000000  0.50000000  1
  Na  Na2  1  0.33333300  0.66666700  0.25000000  1
  Na  Na3  1  0.66666700  0.33333300  0.75000000  1
  Se  Se0  1  0.33333300  0.66666700  0.63636225  1
  Se  Se1  1  0.66666700  0.33333300  0.13636225  1
  Se  Se2  1  0.66666700  0.33333300  0.36363775  1
  Se  Se3  1  0.33333300  0.66666700  0.86363775  1
loop_
_geom_bond_atom_site_label_1
_geom_bond_atom_site_label_2
_geom_bond_distance
_geom_bond_site_symmetry_2
Na0 Se3 3.058816 1_544
Na0 Se1 3.058816 1_455
Na0 Se1 3.058819 1_445
Na0 Se3 3.058819 1_554
Na0 Se1 3.058820 1_555
Na0 Se3 3.058820 1_444
Na1 Se0 3.058816 1_545
Na1 Se2 3.058816 1_455
Na1 Se0 3.058819 1_555
Na1 Se2 3.058819 1_445
Na1 Se2 3.058820 1_555
Na1 Se0 3.058820 1_445
Na2 Se2 2.949310 1_565
Na2 Se1 2.949310 1_565
Na2 Se1 2.949310 1_455
Na2 Se2 2.949310 1_455
Na2 Se2 2.949317 1_555
Na2 Se1 2.949317 1_555
Na3 Se3 2.949310 1_545
Na3 Se0 2.949310 1_545
Na3 Se3 2.949310 1_655
Na3 Se0 2.949310 1_655
Na3 Se0 2.949317 1_555
Na3 Se3 2.949317 1_555
Se0 Se3 2.445814 1_555
Se1 Se2 2.445814 1_555
