# generated using pymatgen
data_NaV3F10
_symmetry_space_group_name_H-M   'P 1'
_cell_length_a   10.35960221
_cell_length_b   8.82184823
_cell_length_c   7.63923736
_cell_angle_alpha   77.63541496
_cell_angle_beta   56.28515178
_cell_angle_gamma   46.07943326
_symmetry_Int_Tables_number   1
_chemical_formula_structural   NaV3F10
_chemical_formula_sum   'Na2 V6 F20'
_cell_volume   400.92807649
_cell_formula_units_Z   2
loop_
 _symmetry_equiv_pos_site_id
 _symmetry_equiv_pos_as_xyz
  1  'x, y, z'
loop_
 _atom_site_type_symbol
 _atom_site_label
 _atom_site_symmetry_multiplicity
 _atom_site_fract_x
 _atom_site_fract_y
 _atom_site_fract_z
 _atom_site_occupancy
  Na  Na0  1  0.98731900  0.01268100  0.01268100  1
  Na  Na1  1  0.23731900  0.26268100  0.26268100  1
  V  V0  1  0.50522800  0.49477200  0.49477200  1
  V  V1  1  0.75522800  0.74477200  0.74477200  1
  V  V2  1  0.25756100  0.24208200  0.74237000  1
  V  V3  1  0.75798700  0.74237000  0.24208200  1
  V  V4  1  0.50763000  0.49201300  0.99243900  1
  V  V5  1  0.00791800  0.99243900  0.49201300  1
  F  F0  1  0.14603200  0.12035500  0.84782600  1
  F  F1  1  0.88578700  0.84782600  0.12035500  1
  F  F2  1  0.40217400  0.36421300  0.10396800  1
  F  F3  1  0.12964500  0.10396800  0.36421300  1
  F  F4  1  0.80820200  0.19921700  0.78473600  1
  F  F5  1  0.20784600  0.78473600  0.19921700  1
  F  F6  1  0.46526400  0.04215400  0.44179800  1
  F  F7  1  0.05078300  0.44179800  0.04215400  1
  F  F8  1  0.84388400  0.65248800  0.45242500  1
  F  F9  1  0.05120300  0.45242500  0.65248800  1
  F  F10  1  0.79757500  0.19879700  0.40611600  1
  F  F11  1  0.59751200  0.40611600  0.19879700  1
  F  F12  1  0.62675500  0.62054200  0.37318300  1
  F  F13  1  0.37952000  0.37318300  0.62054200  1
  F  F14  1  0.87681700  0.87048000  0.62324500  1
  F  F15  1  0.62945800  0.62324500  0.87048000  1
  F  F16  1  0.46551700  0.03708900  0.82742700  1
  F  F17  1  0.66996700  0.82742700  0.03708900  1
  F  F18  1  0.42257300  0.58003300  0.78448300  1
  F  F19  1  0.21291100  0.78448300  0.58003300  1
loop_
_geom_bond_atom_site_label_1
_geom_bond_atom_site_label_2
_geom_bond_distance
_geom_bond_site_symmetry_2
F0 V2 1.858660 1_555
F0 Na0 2.132469 1_456
F1 V3 1.858660 1_555
F1 Na0 2.132469 1_565
F2 V4 1.858660 1_554
F2 Na1 2.132469 1_555
F3 V5 1.858660 1_545
F3 Na1 2.132469 1_555
F4 V5 1.995908 1_645
F4 V4 1.999398 1_555
F4 Na0 2.703135 1_556
F5 V4 1.995905 1_554
F5 V5 1.999396 1_555
F5 Na0 2.703142 1_465
F6 V3 1.995904 1_545
F6 V2 1.999402 1_555
F6 Na1 2.703135 1_555
F7 V2 1.995902 1_554
F7 V3 1.999400 1_455
F7 Na1 2.703142 1_555
F8 V1 1.989543 1_555
F8 V3 2.016277 1_555
F8 Na1 2.582708 1_655
F9 V1 1.989543 1_455
F9 V2 2.016277 1_555
F9 Na1 2.582708 1_555
F10 V0 1.989543 1_555
F10 V5 2.016277 1_645
F10 Na0 2.582708 1_555
F11 V0 1.989543 1_555
F11 V4 2.016277 1_554
F11 Na0 2.582708 1_555
F12 V0 1.969055 1_555
F12 V3 2.015184 1_555
F13 V0 1.969055 1_555
F13 V2 2.015184 1_555
F14 V1 1.969055 1_555
F14 V5 2.015184 1_655
F15 V1 1.969055 1_555
F15 V4 2.015184 1_555
F16 V1 1.978057 1_545
F16 V2 1.994887 1_555
F16 Na1 2.861095 1_556
F17 V1 1.978057 1_554
F17 V3 1.994887 1_555
F17 Na1 2.861095 1_565
F18 V0 1.978057 1_555
F18 V4 1.994887 1_555
F18 Na0 2.861095 1_466
F19 V0 1.978057 1_555
F19 V5 1.994887 1_555
F19 Na0 2.861095 1_466
