# generated using pymatgen
data_K6Ba2CaU6O24
_symmetry_space_group_name_H-M   'P 1'
_cell_length_a   7.60002482
_cell_length_b   7.60002482
_cell_length_c   12.30367779
_cell_angle_alpha   90.00000000
_cell_angle_beta   90.00000000
_cell_angle_gamma   109.96279885
_symmetry_Int_Tables_number   1
_chemical_formula_structural   K6Ba2CaU6O24
_chemical_formula_sum   'K6 Ba2 Ca1 U6 O24'
_cell_volume   667.96439759
_cell_formula_units_Z   1
loop_
 _symmetry_equiv_pos_site_id
 _symmetry_equiv_pos_as_xyz
  1  'x, y, z'
loop_
 _atom_site_type_symbol
 _atom_site_label
 _atom_site_symmetry_multiplicity
 _atom_site_fract_x
 _atom_site_fract_y
 _atom_site_fract_z
 _atom_site_occupancy
  K  K0  1  0.50000000  0.00000000  0.00000000  1
  K  K1  1  0.00000000  0.50000000  0.00000000  1
  K  K2  1  0.73483400  0.73483400  0.25791700  1
  K  K3  1  0.26516600  0.26516600  0.74208300  1
  K  K4  1  0.26516600  0.26516600  0.25791700  1
  K  K5  1  0.73483400  0.73483400  0.74208300  1
  Ba  Ba0  1  0.00000000  0.50000000  0.50000000  1
  Ba  Ba1  1  0.50000000  0.00000000  0.50000000  1
  Ca  Ca0  1  0.00000000  0.00000000  0.00000000  1
  U  U0  1  0.24722400  0.75277600  0.24548400  1
  U  U1  1  0.75277600  0.24722400  0.75451600  1
  U  U2  1  0.00000000  0.00000000  0.50000000  1
  U  U3  1  0.50000000  0.50000000  0.00000000  1
  U  U4  1  0.75277600  0.24722400  0.24548400  1
  U  U5  1  0.24722400  0.75277600  0.75451600  1
  O  O0  1  0.37503700  0.62496300  0.12419400  1
  O  O1  1  0.87016800  0.12983200  0.62108100  1
  O  O2  1  0.62496300  0.37503700  0.12419400  1
  O  O3  1  0.12983200  0.87016800  0.62108100  1
  O  O4  1  0.00000000  0.50000000  0.25454700  1
  O  O5  1  0.50000000  0.00000000  0.74545300  1
  O  O6  1  0.87016800  0.12983200  0.37891900  1
  O  O7  1  0.37503700  0.62496300  0.87580600  1
  O  O8  1  0.12983200  0.87016800  0.37891900  1
  O  O9  1  0.62496300  0.37503700  0.87580600  1
  O  O10  1  0.50000000  0.00000000  0.25454700  1
  O  O11  1  0.00000000  0.50000000  0.74545300  1
  O  O12  1  0.86420800  0.13579200  0.13365200  1
  O  O13  1  0.34996000  0.65004000  0.63841500  1
  O  O14  1  0.34996000  0.65004000  0.36158500  1
  O  O15  1  0.86420800  0.13579200  0.86634800  1
  O  O16  1  0.72504100  0.72504100  0.00000000  1
  O  O17  1  0.21855800  0.21855800  0.50000000  1
  O  O18  1  0.65004000  0.34996000  0.36158500  1
  O  O19  1  0.13579200  0.86420800  0.86634800  1
  O  O20  1  0.13579200  0.86420800  0.13365200  1
  O  O21  1  0.65004000  0.34996000  0.63841500  1
  O  O22  1  0.78144200  0.78144200  0.50000000  1
  O  O23  1  0.27495900  0.27495900  0.00000000  1
loop_
_geom_bond_atom_site_label_1
_geom_bond_atom_site_label_2
_geom_bond_distance
_geom_bond_site_symmetry_2
K0 O20 3.079020 1_545
K0 O15 3.079020 1_554
K0 O19 3.079020 1_544
K0 O12 3.079020 1_555
K0 O0 3.084260 1_545
K0 O7 3.084260 1_544
K0 O9 3.084260 1_554
K0 O2 3.084260 1_555
K0 O16 3.119686 1_545
K0 O23 3.119686 1_555
K0 O5 3.131864 1_554
K0 O10 3.131864 1_555
K1 O15 3.079020 1_454
K1 O20 3.079020 1_555
K1 O12 3.079020 1_455
K1 O19 3.079020 1_554
K1 O9 3.084260 1_454
K1 O2 3.084260 1_455
K1 O0 3.084260 1_555
K1 O7 3.084260 1_554
K1 O16 3.119686 1_455
K1 O23 3.119686 1_555
K1 O11 3.131864 1_554
K1 O4 3.131864 1_555
K2 O22 3.006127 1_555
K2 O18 3.051393 1_555
K2 O14 3.051393 1_555
K2 O2 3.053264 1_555
K2 O0 3.053264 1_555
K2 O10 3.115166 1_565
K2 O4 3.115166 1_655
K2 O16 3.174477 1_555
K2 O8 3.190294 1_655
K2 O6 3.190294 1_565
K2 O20 3.247222 1_655
K2 O12 3.247222 1_565
K3 O17 3.006127 1_555
K3 O13 3.051393 1_555
K3 O21 3.051393 1_555
K3 O7 3.053264 1_555
K3 O9 3.053264 1_555
K3 O11 3.115166 1_555
K3 O5 3.115166 1_555
K3 O23 3.174477 1_556
K3 O1 3.190294 1_455
K3 O3 3.190294 1_545
K3 O19 3.247222 1_545
K3 O15 3.247222 1_455
K4 O17 3.006127 1_555
K4 O14 3.051393 1_555
K4 O18 3.051393 1_555
K4 O0 3.053264 1_555
K4 O2 3.053264 1_555
K4 O10 3.115166 1_555
K4 O4 3.115166 1_555
K4 O23 3.174477 1_555
K4 O6 3.190294 1_455
K4 O8 3.190294 1_545
K4 O12 3.247222 1_455
K4 O20 3.247222 1_545
K5 O22 3.006127 1_555
K5 O13 3.051393 1_555
K5 O21 3.051393 1_555
K5 O9 3.053264 1_555
K5 O7 3.053264 1_555
K5 O11 3.115166 1_655
K5 O5 3.115166 1_565
K5 O16 3.174477 1_556
K5 O3 3.190294 1_655
K5 O1 3.190294 1_565
K5 O19 3.247222 1_655
K5 O15 3.247222 1_565
Ba0 O4 3.019975 1_555
Ba0 O11 3.019975 1_555
Ba0 O13 3.033756 1_555
Ba0 O14 3.033756 1_555
Ba0 O21 3.033756 1_455
Ba0 O18 3.033756 1_455
Ba0 O6 3.035139 1_455
Ba0 O1 3.035139 1_455
Ba0 O8 3.035139 1_555
Ba0 O3 3.035139 1_555
Ba0 O17 3.124141 1_555
Ba0 O22 3.124141 1_455
Ba1 O10 3.019975 1_555
Ba1 O5 3.019975 1_555
Ba1 O18 3.033756 1_555
Ba1 O21 3.033756 1_555
Ba1 O13 3.033756 1_545
Ba1 O14 3.033756 1_545
Ba1 O8 3.035139 1_545
Ba1 O3 3.035139 1_545
Ba1 O6 3.035139 1_555
Ba1 O1 3.035139 1_555
Ba1 O17 3.124141 1_555
Ba1 O22 3.124141 1_545
Ca0 O12 2.358279 1_455
Ca0 O20 2.358279 1_545
Ca0 O19 2.358279 1_544
Ca0 O15 2.358279 1_454
Ca0 O16 2.398311 1_445
Ca0 O23 2.398311 1_555
O0 U3 2.180537 1_555
O0 U0 2.181390 1_555
O1 U1 2.197910 1_555
O1 U2 2.198045 1_655
O2 U3 2.180537 1_555
O2 U4 2.181390 1_555
O3 U5 2.197910 1_555
O3 U2 2.198045 1_565
O4 U4 2.183731 1_455
O4 U0 2.183731 1_555
O5 U1 2.183731 1_555
O5 U5 2.183731 1_545
O6 U4 2.197910 1_555
O6 U2 2.198045 1_655
O7 U3 2.180537 1_556
O7 U5 2.181390 1_555
O8 U0 2.197910 1_555
O8 U2 2.198045 1_565
O9 U3 2.180537 1_556
O9 U1 2.181390 1_555
O10 U0 2.183731 1_545
O10 U4 2.183731 1_555
O11 U1 2.183731 1_455
O11 U5 2.183731 1_555
O12 U4 1.953813 1_555
O13 U5 1.917312 1_555
O14 U0 1.917312 1_555
O15 U1 1.953813 1_555
O16 U3 1.962905 1_555
O17 U2 1.906357 1_555
O18 U4 1.917312 1_555
O19 U5 1.953813 1_555
O20 U0 1.953813 1_555
O21 U1 1.917312 1_555
O22 U2 1.906357 1_665
O23 U3 1.962905 1_555
