# generated using pymatgen
data_Zr3MnCo8
_symmetry_space_group_name_H-M   'P 1'
_cell_length_a   4.80736020
_cell_length_b   4.80736020
_cell_length_c   8.30856551
_cell_angle_alpha   106.81614496
_cell_angle_beta   73.18385504
_cell_angle_gamma   120.00000000
_symmetry_Int_Tables_number   1
_chemical_formula_structural   Zr3MnCo8
_chemical_formula_sum   'Zr3 Mn1 Co8'
_cell_volume   156.73853677
_cell_formula_units_Z   1
loop_
 _symmetry_equiv_pos_site_id
 _symmetry_equiv_pos_as_xyz
  1  'x, y, z'
loop_
 _atom_site_type_symbol
 _atom_site_label
 _atom_site_symmetry_multiplicity
 _atom_site_fract_x
 _atom_site_fract_y
 _atom_site_fract_z
 _atom_site_occupancy
  Zr  Zr0  1  0.37715500  0.62284500  0.86853400  1
  Zr  Zr1  1  0.98952800  0.01047200  0.03141500  1
  Zr  Zr2  1  0.50690200  0.49309800  0.47929300  1
  Mn  Mn0  1  0.86350600  0.13649400  0.40948300  1
  Co  Co0  1  0.43719600  0.56280400  0.18732100  1
  Co  Co1  1  0.94046500  0.05953500  0.67814300  1
  Co  Co2  1  0.43719600  0.06171400  0.18732100  1
  Co  Co3  1  0.94046500  0.55907300  0.67814300  1
  Co  Co4  1  0.18945300  0.81054700  0.43164000  1
  Co  Co5  1  0.68891900  0.31108100  0.93324400  1
  Co  Co6  1  0.93828600  0.56280400  0.18732100  1
  Co  Co7  1  0.44092700  0.05953500  0.67814300  1
loop_
_geom_bond_atom_site_label_1
_geom_bond_atom_site_label_2
_geom_bond_distance
_geom_bond_site_symmetry_2
Zr0 Zr1 3.054609 1_466
Zr0 Zr1 3.054609 1_566
Zr0 Zr1 3.054609 1_456
Mn0 Zr2 2.828858 1_545
Mn0 Zr2 2.828858 1_655
Mn0 Zr2 2.828866 1_555
Mn0 Zr1 2.960750 1_555
Co0 Co4 2.361847 1_555
Co0 Co6 2.398440 1_455
Co0 Co2 2.398440 1_565
Co0 Co2 2.408920 1_555
Co0 Co6 2.408920 1_555
Co0 Co5 2.427631 1_554
Co0 Zr2 2.676271 1_555
Co0 Zr1 2.695994 1_455
Co0 Zr1 2.695994 1_565
Co0 Zr0 2.854828 1_554
Co0 Mn0 2.967259 1_565
Co0 Mn0 2.967259 1_455
Co1 Co4 2.378236 1_645
Co1 Co7 2.401459 1_555
Co1 Co3 2.401459 1_555
Co1 Co3 2.405901 1_545
Co1 Co7 2.405901 1_655
Co1 Co5 2.431745 1_555
Co1 Mn0 2.519707 1_555
Co1 Zr0 2.828563 1_655
Co1 Zr0 2.828563 1_545
Co1 Zr2 2.864035 1_655
Co1 Zr2 2.864035 1_545
Co1 Zr1 3.095696 1_556
Co2 Co4 2.361847 1_545
Co2 Co6 2.398440 1_445
Co2 Co6 2.408920 1_555
Co2 Co5 2.427627 1_554
Co2 Zr2 2.676271 1_555
Co2 Zr1 2.695994 1_555
Co2 Zr1 2.695994 1_455
Co2 Zr0 2.854828 1_544
Co2 Mn0 2.967254 1_455
Co2 Mn0 2.967263 1_555
Co3 Co4 2.378238 1_655
Co3 Co7 2.401459 1_555
Co3 Co7 2.405901 1_665
Co3 Co5 2.431748 1_555
Co3 Mn0 2.519709 1_555
Co3 Zr0 2.828561 1_655
Co3 Zr0 2.828565 1_555
Co3 Zr2 2.864033 1_655
Co3 Zr2 2.864037 1_555
Co3 Zr1 3.095698 1_566
Co4 Co6 2.361847 1_455
Co4 Co7 2.378238 1_565
Co4 Mn0 2.780944 1_465
Co4 Mn0 2.780952 1_565
Co4 Mn0 2.780952 1_455
Co4 Zr2 2.800506 1_455
Co4 Zr2 2.800506 1_565
Co4 Zr2 2.800506 1_555
Co5 Co6 2.427627 1_556
Co5 Co7 2.431748 1_555
Co5 Zr0 2.821411 1_545
Co5 Zr0 2.821411 1_655
Co5 Zr0 2.821420 1_555
Co5 Zr1 2.880034 1_556
Co5 Zr1 2.880042 1_566
Co5 Zr1 2.880042 1_456
Co6 Zr2 2.676271 1_555
Co6 Zr1 2.695994 1_555
Co6 Zr1 2.695994 1_565
Co6 Zr0 2.854828 1_654
Co6 Mn0 2.967254 1_565
Co6 Mn0 2.967263 1_555
Co7 Mn0 2.519709 1_555
Co7 Zr0 2.828561 1_545
Co7 Zr0 2.828565 1_555
Co7 Zr2 2.864033 1_545
Co7 Zr2 2.864037 1_555
Co7 Zr1 3.095698 1_456
