# generated using pymatgen
data_CaLa2CrO6
_symmetry_space_group_name_H-M   'P 1'
_cell_length_a   5.69576129
_cell_length_b   5.69576129
_cell_length_c   5.69576063
_cell_angle_alpha   62.03305401
_cell_angle_beta   62.03305401
_cell_angle_gamma   62.03305196
_symmetry_Int_Tables_number   1
_chemical_formula_structural   CaLa2CrO6
_chemical_formula_sum   'Ca1 La2 Cr1 O6'
_cell_volume   136.59952411
_cell_formula_units_Z   1
loop_
 _symmetry_equiv_pos_site_id
 _symmetry_equiv_pos_as_xyz
  1  'x, y, z'
loop_
 _atom_site_type_symbol
 _atom_site_label
 _atom_site_symmetry_multiplicity
 _atom_site_fract_x
 _atom_site_fract_y
 _atom_site_fract_z
 _atom_site_occupancy
  Ca  Ca0  1  0.50000000  0.50000000  0.50000000  1
  La  La0  1  0.75934300  0.75934300  0.75934300  1
  La  La1  1  0.24065700  0.24065700  0.24065700  1
  Cr  Cr0  1  0.00000000  0.00000000  0.00000000  1
  O  O0  1  0.78567100  0.32717400  0.13352200  1
  O  O1  1  0.13352200  0.78567100  0.32717400  1
  O  O2  1  0.32717400  0.13352200  0.78567100  1
  O  O3  1  0.21432900  0.67282600  0.86647800  1
  O  O4  1  0.67282600  0.86647800  0.21432900  1
  O  O5  1  0.86647800  0.21432900  0.67282600  1
loop_
_geom_bond_atom_site_label_1
_geom_bond_atom_site_label_2
_geom_bond_distance
_geom_bond_site_symmetry_2
Ca0 O3 2.283199 1_555
Ca0 O0 2.283199 1_555
Ca0 O5 2.283199 1_555
Ca0 O1 2.283199 1_555
Ca0 O4 2.283199 1_555
Ca0 O2 2.283199 1_555
La0 O1 2.378420 1_655
La0 O0 2.378420 1_556
La0 O2 2.378420 1_565
La0 O4 2.708215 1_556
La0 O3 2.708215 1_655
La0 O5 2.708215 1_565
La0 O4 3.102858 1_555
La0 O5 3.102858 1_555
La0 O3 3.102858 1_555
La1 O5 2.378420 1_455
La1 O3 2.378420 1_554
La1 O4 2.378420 1_545
La1 O2 2.708215 1_554
La1 O0 2.708215 1_455
La1 O1 2.708215 1_545
La1 O2 3.102858 1_555
La1 O1 3.102858 1_555
La1 O0 3.102858 1_555
Cr0 O1 1.966233 1_545
Cr0 O5 1.966233 1_454
Cr0 O0 1.966233 1_455
Cr0 O3 1.966233 1_544
Cr0 O2 1.966233 1_554
Cr0 O4 1.966233 1_445
