# generated using pymatgen
data_Ga7Ni3
_symmetry_space_group_name_H-M   'P 1'
_cell_length_a   7.24264706
_cell_length_b   7.24264674
_cell_length_c   7.24264763
_cell_angle_alpha   109.47122315
_cell_angle_beta   109.47122227
_cell_angle_gamma   109.47121197
_symmetry_Int_Tables_number   1
_chemical_formula_structural   Ga7Ni3
_chemical_formula_sum   'Ga14 Ni6'
_cell_volume   292.46245067
_cell_formula_units_Z   2
loop_
 _symmetry_equiv_pos_site_id
 _symmetry_equiv_pos_as_xyz
  1  'x, y, z'
loop_
 _atom_site_type_symbol
 _atom_site_label
 _atom_site_symmetry_multiplicity
 _atom_site_fract_x
 _atom_site_fract_y
 _atom_site_fract_z
 _atom_site_occupancy
  Ga  Ga0  1  0.50000000  0.75000000  0.25000000  1
  Ga  Ga1  1  0.75000000  0.50000000  0.25000000  1
  Ga  Ga2  1  0.25000000  0.50000000  0.75000000  1
  Ga  Ga3  1  0.75000000  0.25000000  0.50000000  1
  Ga  Ga4  1  0.25000000  0.75000000  0.50000000  1
  Ga  Ga5  1  0.50000000  0.25000000  0.75000000  1
  Ga  Ga6  1  0.32208542  0.32208542  0.32208542  1
  Ga  Ga7  1  0.32208542  -0.00000000  -0.00000000  1
  Ga  Ga8  1  -0.00000000  0.32208542  0.00000000  1
  Ga  Ga9  1  0.00000000  -0.00000000  0.32208542  1
  Ga  Ga10  1  0.00000000  0.67791458  -0.00000000  1
  Ga  Ga11  1  0.00000000  0.00000000  0.67791458  1
  Ga  Ga12  1  0.67791458  0.00000000  0.00000000  1
  Ga  Ga13  1  0.67791458  0.67791458  0.67791458  1
  Ni  Ni0  1  -0.00000000  0.35023884  0.35023884  1
  Ni  Ni1  1  0.35023884  -0.00000000  0.35023884  1
  Ni  Ni2  1  0.64976116  0.00000000  0.64976116  1
  Ni  Ni3  1  0.64976116  0.64976116  0.00000000  1
  Ni  Ni4  1  0.35023884  0.35023884  -0.00000000  1
  Ni  Ni5  1  0.00000000  0.64976116  0.64976116  1
loop_
_geom_bond_atom_site_label_1
_geom_bond_atom_site_label_2
_geom_bond_distance
_geom_bond_site_symmetry_2
Ga0 Ni1 2.437211 1_565
Ga0 Ni4 2.437211 1_555
Ga0 Ni3 2.437211 1_555
Ga0 Ni2 2.437211 1_565
Ga1 Ni0 2.437211 1_655
Ga1 Ni3 2.437211 1_555
Ga1 Ni4 2.437211 1_555
Ga1 Ni5 2.437211 1_655
Ga2 Ni5 2.437211 1_555
Ga2 Ni4 2.437211 1_556
Ga2 Ni3 2.437211 1_556
Ga2 Ni0 2.437211 1_555
Ga3 Ni5 2.437211 1_655
Ga3 Ni2 2.437211 1_555
Ga3 Ni0 2.437211 1_655
Ga3 Ni1 2.437211 1_555
Ga4 Ni0 2.437211 1_555
Ga4 Ni1 2.437211 1_565
Ga4 Ni5 2.437211 1_555
Ga4 Ni2 2.437211 1_565
Ga5 Ni2 2.437211 1_555
Ga5 Ni3 2.437211 1_556
Ga5 Ni4 2.437211 1_556
Ga5 Ni1 2.437211 1_555
Ga6 Ni1 2.476162 1_555
Ga6 Ni0 2.476162 1_555
Ga6 Ni4 2.476162 1_555
Ga6 Ga7 2.693629 1_555
Ga6 Ga8 2.693629 1_555
Ga6 Ga9 2.693629 1_555
Ga7 Ni4 2.476162 1_555
Ga7 Ni1 2.476162 1_555
Ga7 Ni5 2.476162 1_544
Ga8 Ni4 2.476162 1_555
Ga8 Ni0 2.476162 1_555
Ga8 Ni2 2.476162 1_454
Ga9 Ni0 2.476162 1_555
Ga9 Ni1 2.476162 1_555
Ga9 Ni3 2.476162 1_445
Ga10 Ni3 2.476162 1_455
Ga10 Ni5 2.476162 1_554
Ga10 Ni1 2.476162 1_565
Ga10 Ga8 2.577145 1_555
Ga10 Ga9 2.693629 1_565
Ga10 Ga13 2.693629 1_454
Ga10 Ga7 2.693629 1_565
Ga11 Ni5 2.476162 1_545
Ga11 Ni2 2.476162 1_455
Ga11 Ni4 2.476162 1_556
Ga11 Ga9 2.577145 1_555
Ga11 Ga8 2.693629 1_556
Ga11 Ga7 2.693629 1_556
Ga11 Ga13 2.693629 1_445
Ga12 Ni3 2.476162 1_545
Ga12 Ni2 2.476162 1_554
Ga12 Ni0 2.476162 1_655
Ga12 Ga7 2.577145 1_555
Ga12 Ga13 2.693629 1_544
Ga12 Ga9 2.693629 1_655
Ga12 Ga8 2.693629 1_655
Ga13 Ni2 2.476162 1_565
Ga13 Ni5 2.476162 1_655
Ga13 Ni3 2.476162 1_556
Ga13 Ga6 2.577145 1_555
Ni0 Ni5 2.504932 1_555
Ni1 Ni2 2.504932 1_555
Ni3 Ni4 2.504932 1_555
