# generated using pymatgen
data_Li3MnOF4
_symmetry_space_group_name_H-M   'P 1'
_cell_length_a   5.27070997
_cell_length_b   5.51547503
_cell_length_c   7.51960600
_cell_angle_alpha   109.93178651
_cell_angle_beta   69.10813326
_cell_angle_gamma   103.21475373
_symmetry_Int_Tables_number   1
_chemical_formula_structural   Li3MnOF4
_chemical_formula_sum   'Li6 Mn2 O2 F8'
_cell_volume   190.56236363
_cell_formula_units_Z   2
loop_
 _symmetry_equiv_pos_site_id
 _symmetry_equiv_pos_as_xyz
  1  'x, y, z'
loop_
 _atom_site_type_symbol
 _atom_site_label
 _atom_site_symmetry_multiplicity
 _atom_site_fract_x
 _atom_site_fract_y
 _atom_site_fract_z
 _atom_site_occupancy
  Li  Li0  1  0.63751900  0.72048000  0.77072300  1
  Li  Li1  1  0.63764200  0.72074900  0.27082900  1
  Li  Li2  1  0.74072100  0.33518600  0.39864300  1
  Li  Li3  1  0.74056300  0.33527700  0.89863600  1
  Li  Li4  1  0.21593300  0.58951000  0.59336500  1
  Li  Li5  1  0.21571700  0.58957900  0.09343600  1
  Mn  Mn0  1  0.01454600  0.01518200  0.00018500  1
  Mn  Mn1  1  0.01488200  0.01519600  0.50001300  1
  O  O0  1  0.96064200  0.00941900  0.76216500  1
  O  O1  1  0.96100500  0.00955900  0.26210100  1
  F  F0  1  0.83685600  0.39253500  0.63894700  1
  F  F1  1  0.83672000  0.39241400  0.13903000  1
  F  F2  1  0.35384200  0.25406600  0.47531200  1
  F  F3  1  0.35359000  0.25406300  0.97513600  1
  F  F4  1  0.66731100  0.74751800  0.52013000  1
  F  F5  1  0.66734100  0.74741300  0.01984600  1
  F  F6  1  0.23882200  0.69192400  0.36329300  1
  F  F7  1  0.23869700  0.69193900  0.86326700  1
loop_
_geom_bond_atom_site_label_1
_geom_bond_atom_site_label_2
_geom_bond_distance
_geom_bond_site_symmetry_2
Li0 O0 2.048215 1_565
Li1 O1 2.048602 1_565
Li2 O1 2.115116 1_555
Li3 O0 2.115532 1_555
Mn0 O1 1.897576 1_455
Mn0 O0 1.898666 1_454
Mn1 O1 1.898028 1_455
Mn1 O0 1.898793 1_455
F0 Li3 1.952156 1_555
F0 Li2 1.952449 1_555
F0 Li4 2.015644 1_655
F0 Li0 2.064399 1_555
F0 Mn1 2.239324 1_655
F1 Li2 1.951741 1_555
F1 Li3 1.953414 1_554
F1 Li5 2.015692 1_655
F1 Li1 2.065449 1_555
F1 Mn0 2.238322 1_655
F2 Li2 1.900234 1_555
F2 Li4 1.942742 1_555
F2 Mn1 1.953479 1_555
F3 Li3 1.900733 1_555
F3 Li5 1.943010 1_556
F3 Mn0 1.953830 1_556
F4 Li0 1.888800 1_555
F4 Li1 1.889540 1_555
F4 Mn1 2.068003 1_665
F4 Li2 2.211334 1_555
F4 Li4 2.273247 1_555
F5 Li0 1.888294 1_554
F5 Li1 1.891036 1_555
F5 Mn0 2.066929 1_665
F5 Li3 2.210071 1_554
F5 Li5 2.274162 1_555
F6 Li1 1.951297 1_555
F6 Li4 1.952682 1_555
F6 Li5 1.953213 1_555
F6 Mn1 2.115689 1_565
F7 Li0 1.951376 1_555
F7 Li4 1.952843 1_555
F7 Li5 1.953059 1_556
F7 Mn0 2.116202 1_566
