# generated using pymatgen
data_BaCaDyBiO6
_symmetry_space_group_name_H-M   'P 1'
_cell_length_a   5.97854816
_cell_length_b   6.05957177
_cell_length_c   8.54172893
_cell_angle_alpha   90.18044095
_cell_angle_beta   89.77953336
_cell_angle_gamma   90.06601647
_symmetry_Int_Tables_number   1
_chemical_formula_structural   BaCaDyBiO6
_chemical_formula_sum   'Ba2 Ca2 Dy2 Bi2 O12'
_cell_volume   309.44095996
_cell_formula_units_Z   2
loop_
 _symmetry_equiv_pos_site_id
 _symmetry_equiv_pos_as_xyz
  1  'x, y, z'
loop_
 _atom_site_type_symbol
 _atom_site_label
 _atom_site_symmetry_multiplicity
 _atom_site_fract_x
 _atom_site_fract_y
 _atom_site_fract_z
 _atom_site_occupancy
  Ba  Ba0  1  0.99456506  0.03306816  0.25027687  1
  Ba  Ba1  1  0.00543494  0.96693184  0.74972313  1
  Ca  Ca0  1  0.50932184  0.54077924  0.25175853  1
  Ca  Ca1  1  0.49067816  0.45922076  0.74824147  1
  Dy  Dy0  1  0.50000000  0.00000000  -0.00000000  1
  Dy  Dy1  1  0.00000000  0.50000000  0.50000000  1
  Bi  Bi0  1  0.00000000  0.50000000  -0.00000000  1
  Bi  Bi1  1  0.50000000  0.00000000  0.50000000  1
  O  O0  1  0.20452653  0.21902025  0.96212252  1
  O  O1  1  0.30861252  0.70797087  0.55769911  1
  O  O2  1  0.79547347  0.78097975  0.03787748  1
  O  O3  1  0.69138748  0.29202913  0.44230089  1
  O  O4  1  0.28888755  0.69612768  0.93809421  1
  O  O5  1  0.21701013  0.20607140  0.53230169  1
  O  O6  1  0.71111245  0.30387232  0.06190579  1
  O  O7  1  0.78298987  0.79392860  0.46769831  1
  O  O8  1  0.43336209  0.93638286  0.25722497  1
  O  O9  1  0.11058716  0.49654403  0.24180167  1
  O  O10  1  0.56663791  0.06361714  0.74277503  1
  O  O11  1  0.88941284  0.50345597  0.75819833  1
loop_
_geom_bond_atom_site_label_1
_geom_bond_atom_site_label_2
_geom_bond_distance
_geom_bond_site_symmetry_2
Ba0 O2 2.652672 1_545
Ba0 O7 2.672736 1_545
Ba0 O8 2.689571 1_645
Ba0 O6 2.863124 1_555
Ba0 O9 2.893141 1_655
Ba0 O3 2.899228 1_555
Ba0 O5 2.945562 1_655
Ba0 O0 2.982273 1_654
Ba1 O0 2.652672 1_565
Ba1 O5 2.672736 1_565
Ba1 O10 2.689571 1_465
Ba1 O4 2.863124 1_555
Ba1 O11 2.893141 1_455
Ba1 O1 2.899228 1_555
Ba1 O7 2.945562 1_455
Ba1 O2 2.982273 1_456
Ca0 O9 2.400373 1_555
Ca0 O8 2.440608 1_555
Ca0 O6 2.473932 1_555
Ca0 O3 2.477628 1_555
Ca0 O2 2.893065 1_555
Ca0 O7 2.903761 1_555
Ca0 O1 3.042598 1_555
Ca1 O11 2.400373 1_555
Ca1 O10 2.440608 1_555
Ca1 O4 2.473932 1_555
Ca1 O1 2.477628 1_555
Ca1 O0 2.893065 1_555
Ca1 O5 2.903761 1_555
Ca1 O3 3.042598 1_555
Dy0 O0 2.235865 1_554
Dy0 O2 2.235865 1_545
Dy0 O8 2.265617 1_545
Dy0 O10 2.265617 1_554
Dy0 O4 2.292769 1_544
Dy0 O6 2.292769 1_555
Dy1 O5 2.223244 1_555
Dy1 O7 2.223244 1_455
Dy1 O3 2.287574 1_455
Dy1 O1 2.287574 1_555
Dy1 O9 2.300029 1_555
Dy1 O11 2.300029 1_455
Bi0 O2 2.120622 1_455
Bi0 O0 2.120622 1_554
Bi0 O4 2.160369 1_554
Bi0 O6 2.160369 1_455
Bi0 O11 2.171236 1_454
Bi0 O9 2.171236 1_555
Bi1 O5 2.120593 1_555
Bi1 O7 2.120593 1_545
Bi1 O10 2.146766 1_555
Bi1 O8 2.146766 1_545
Bi1 O3 2.163333 1_555
Bi1 O1 2.163333 1_545
