# generated using pymatgen
data_MgAu4Se4(ClO3)4
_symmetry_space_group_name_H-M   'P 1'
_cell_length_a   5.05192100
_cell_length_b   10.11972774
_cell_length_c   11.02626358
_cell_angle_alpha   83.37652501
_cell_angle_beta   92.04347967
_cell_angle_gamma   83.53057552
_symmetry_Int_Tables_number   1
_chemical_formula_structural   MgAu4Se4(ClO3)4
_chemical_formula_sum   'Mg1 Au4 Se4 Cl4 O12'
_cell_volume   555.70293464
_cell_formula_units_Z   1
loop_
 _symmetry_equiv_pos_site_id
 _symmetry_equiv_pos_as_xyz
  1  'x, y, z'
loop_
 _atom_site_type_symbol
 _atom_site_label
 _atom_site_symmetry_multiplicity
 _atom_site_fract_x
 _atom_site_fract_y
 _atom_site_fract_z
 _atom_site_occupancy
  Mg  Mg0  1  0.17089800  0.02252300  0.22313200  1
  Au  Au0  1  0.00907800  0.58775300  0.16762500  1
  Au  Au1  1  0.93661100  0.00798300  0.99094100  1
  Au  Au2  1  0.02088400  0.43129500  0.79641100  1
  Au  Au3  1  0.06525500  0.99314700  0.51922000  1
  Se  Se0  1  0.73279800  0.82337400  0.32304400  1
  Se  Se1  1  0.13662300  0.72297600  0.89750300  1
  Se  Se2  1  0.80823700  0.32139800  0.07108500  1
  Se  Se3  1  0.36318000  0.15841200  0.72630600  1
  Cl  Cl0  1  0.31464500  0.51389400  0.66299200  1
  Cl  Cl1  1  0.71921200  0.51105500  0.31028000  1
  Cl  Cl2  1  0.29285300  0.15098000  0.40334800  1
  Cl  Cl3  1  0.82786000  0.83344700  0.61280400  1
  O  O0  1  0.50754400  0.90860400  0.21836800  1
  O  O1  1  0.74942200  0.35584000  0.91650100  1
  O  O2  1  0.99405600  0.76824700  0.23226800  1
  O  O3  1  0.01252200  0.16424000  0.09056100  1
  O  O4  1  0.08025600  0.40621500  0.10576800  1
  O  O5  1  0.86842100  0.83444200  0.92574600  1
  O  O6  1  0.27241800  0.65422700  0.04369500  1
  O  O7  1  0.04330800  0.25682000  0.72445800  1
  O  O8  1  0.91077900  0.96469900  0.34868800  1
  O  O9  1  0.91863300  0.60712500  0.86419700  1
  O  O10  1  0.43262200  0.09990700  0.87165700  1
  O  O11  1  0.21466500  0.01389700  0.68554500  1
loop_
_geom_bond_atom_site_label_1
_geom_bond_atom_site_label_2
_geom_bond_distance
_geom_bond_site_symmetry_2
Mg0 O0 1.950053 1_545
Mg0 O3 2.002018 1_555
Mg0 O8 2.025344 1_445
Au0 O2 2.030528 1_455
Au0 O4 2.031544 1_555
Au0 O6 2.051575 1_555
Au0 Cl1 2.315118 1_455
Au1 O5 2.032124 1_545
Au1 O3 2.088390 1_656
Au2 O7 2.011030 1_555
Au2 O9 2.029479 1_455
Au2 O1 2.085522 1_455
Au2 Cl0 2.284045 1_555
Au3 O11 2.000752 1_565
Au3 O8 2.073259 1_455
Au3 Cl3 2.292437 1_455
Au3 Cl2 2.356565 1_565
Cl2 Mg0 2.589813 1_555
O0 Se0 1.681229 1_555
O1 Se2 1.708370 1_556
O2 Se0 1.764137 1_555
O3 Se2 1.782163 1_455
O4 Se2 1.753708 1_455
O5 Se1 1.723931 1_655
O6 Se1 1.762929 1_554
O7 Se3 1.798287 1_555
O8 Se0 1.816243 1_555
O9 Se1 1.756006 1_655
O10 Se3 1.654202 1_555
O11 Se3 1.810673 1_555
