# generated using pymatgen
data_Eu2Sb3
_symmetry_space_group_name_H-M   'P 1'
_cell_length_a   6.42366100
_cell_length_b   13.14661100
_cell_length_c   19.86893232
_cell_angle_alpha   48.68076069
_cell_angle_beta   90.00000000
_cell_angle_gamma   90.00000000
_symmetry_Int_Tables_number   1
_chemical_formula_structural   Eu2Sb3
_chemical_formula_sum   'Eu16 Sb24'
_cell_volume   1260.18832754
_cell_formula_units_Z   8
loop_
 _symmetry_equiv_pos_site_id
 _symmetry_equiv_pos_as_xyz
  1  'x, y, z'
loop_
 _atom_site_type_symbol
 _atom_site_label
 _atom_site_symmetry_multiplicity
 _atom_site_fract_x
 _atom_site_fract_y
 _atom_site_fract_z
 _atom_site_occupancy
  Eu  Eu0  1  0.95067400  0.00000000  0.75000000  1
  Eu  Eu1  1  0.04932600  0.00000000  0.25000000  1
  Eu  Eu2  1  0.55044200  0.75326800  0.75104800  1
  Eu  Eu3  1  0.44955800  0.24673200  0.24895200  1
  Eu  Eu4  1  0.55044200  0.24673200  0.74895200  1
  Eu  Eu5  1  0.44955800  0.75326800  0.25104800  1
  Eu  Eu6  1  0.93048300  0.50000000  0.75000000  1
  Eu  Eu7  1  0.06951700  0.50000000  0.25000000  1
  Eu  Eu8  1  0.75104500  0.87407300  0.00280800  1
  Eu  Eu9  1  0.24895500  0.12592700  0.99719200  1
  Eu  Eu10  1  0.75104500  0.12592700  0.49719200  1
  Eu  Eu11  1  0.24895500  0.87407300  0.50280800  1
  Eu  Eu12  1  0.74531000  0.62507200  0.50121000  1
  Eu  Eu13  1  0.25469000  0.37492800  0.49879000  1
  Eu  Eu14  1  0.74531000  0.37492800  0.99879000  1
  Eu  Eu15  1  0.25469000  0.62507200  0.00121000  1
  Sb  Sb0  1  0.93823500  0.86601700  0.16062600  1
  Sb  Sb1  1  0.06176500  0.13398300  0.83937400  1
  Sb  Sb2  1  0.93823500  0.13398300  0.33937400  1
  Sb  Sb3  1  0.06176500  0.86601700  0.66062600  1
  Sb  Sb4  1  0.74806100  0.69935600  0.92904200  1
  Sb  Sb5  1  0.25193900  0.30064400  0.07095800  1
  Sb  Sb6  1  0.74806100  0.30064400  0.57095800  1
  Sb  Sb7  1  0.25193900  0.69935600  0.42904200  1
  Sb  Sb8  1  0.75485200  0.80947900  0.56972800  1
  Sb  Sb9  1  0.24514800  0.19052100  0.43027200  1
  Sb  Sb10  1  0.75485200  0.19052100  0.93027200  1
  Sb  Sb11  1  0.24514800  0.80947900  0.06972800  1
  Sb  Sb12  1  0.43147400  0.93295700  0.84722200  1
  Sb  Sb13  1  0.56852600  0.06704300  0.15277800  1
  Sb  Sb14  1  0.43147400  0.06704300  0.65277800  1
  Sb  Sb15  1  0.56852600  0.93295700  0.34722200  1
  Sb  Sb16  1  0.91449400  0.39103900  0.14930700  1
  Sb  Sb17  1  0.08550600  0.60896100  0.85069300  1
  Sb  Sb18  1  0.91449400  0.60896100  0.35069300  1
  Sb  Sb19  1  0.08550600  0.39103900  0.64930700  1
  Sb  Sb20  1  0.41563500  0.55935200  0.65604600  1
  Sb  Sb21  1  0.58436500  0.44064800  0.34395400  1
  Sb  Sb22  1  0.41563500  0.44064800  0.84395400  1
  Sb  Sb23  1  0.58436500  0.55935200  0.15604600  1
loop_
_geom_bond_atom_site_label_1
_geom_bond_atom_site_label_2
_geom_bond_distance
_geom_bond_site_symmetry_2
Eu0 Sb1 3.300845 1_655
Eu0 Sb3 3.300845 1_645
Eu0 Sb6 3.376970 1_555
Eu0 Sb4 3.376970 1_545
Eu0 Sb12 3.434945 1_645
Eu0 Sb14 3.434945 1_655
Eu0 Sb12 3.658327 1_545
Eu0 Sb14 3.658327 1_555
Eu1 Sb2 3.300845 1_455
Eu1 Sb0 3.300845 1_445
Eu1 Sb5 3.376970 1_555
Eu1 Sb7 3.376970 1_545
Eu1 Sb15 3.434945 1_445
Eu1 Sb13 3.434945 1_455
Eu1 Sb15 3.658327 1_545
Eu1 Sb13 3.658327 1_555
Eu2 Sb14 3.282812 1_565
Eu2 Sb22 3.321205 1_555
Eu2 Sb4 3.363192 1_555
Eu2 Sb17 3.388034 1_555
Eu2 Sb8 3.425438 1_555
Eu2 Sb3 3.429610 1_555
Eu2 Sb3 3.563239 1_655
Eu2 Sb17 3.791107 1_655
Eu2 Sb12 3.972000 1_555
Eu3 Sb15 3.282812 1_545
Eu3 Sb23 3.321205 1_555
Eu3 Sb5 3.363192 1_555
Eu3 Sb16 3.388034 1_555
Eu3 Sb9 3.425438 1_555
Eu3 Sb2 3.429610 1_555
Eu3 Sb2 3.563239 1_455
Eu3 Sb16 3.791107 1_455
Eu3 Sb13 3.972000 1_555
Eu4 Sb12 3.282812 1_545
Eu4 Sb20 3.321205 1_555
Eu4 Sb6 3.363192 1_555
Eu4 Sb19 3.388034 1_555
Eu4 Sb10 3.425438 1_555
Eu4 Sb1 3.429610 1_555
Eu4 Sb1 3.563239 1_655
Eu4 Sb19 3.791107 1_655
Eu4 Sb14 3.972000 1_555
Eu5 Sb13 3.282812 1_565
Eu5 Sb21 3.321205 1_555
Eu5 Sb7 3.363192 1_555
Eu5 Sb18 3.388034 1_555
Eu5 Sb11 3.425438 1_555
Eu5 Sb0 3.429610 1_555
Eu5 Sb0 3.563239 1_455
Eu5 Sb18 3.791107 1_455
Eu5 Sb15 3.972000 1_555
Eu6 Sb17 3.291001 1_655
Eu6 Sb19 3.291001 1_655
Eu6 Sb8 3.378165 1_555
Eu6 Sb10 3.378165 1_555
Eu6 Sb22 3.447097 1_655
Eu6 Sb20 3.447097 1_655
Eu6 Sb20 3.620474 1_555
Eu6 Sb22 3.620474 1_555
Eu6 Sb3 3.966773 1_655
Eu6 Sb1 3.966773 1_655
Eu7 Sb18 3.291001 1_455
Eu7 Sb16 3.291001 1_455
Eu7 Sb11 3.378165 1_555
Eu7 Sb9 3.378165 1_555
Eu7 Sb21 3.447097 1_455
Eu7 Sb23 3.447097 1_455
Eu7 Sb23 3.620474 1_555
Eu7 Sb21 3.620474 1_555
Eu7 Sb0 3.966773 1_455
Eu7 Sb2 3.966773 1_455
Eu8 Sb0 3.294088 1_555
Eu8 Sb23 3.301593 1_555
Eu8 Sb11 3.327462 1_655
Eu8 Sb12 3.348068 1_554
Eu8 Sb10 3.386394 1_564
Eu8 Sb1 3.398834 1_664
Eu8 Sb11 3.399803 1_555
Eu8 Sb4 3.445275 1_554
Eu9 Sb1 3.294088 1_555
Eu9 Sb22 3.301593 1_555
Eu9 Sb10 3.327462 1_455
Eu9 Sb13 3.348068 1_556
Eu9 Sb11 3.386394 1_546
Eu9 Sb0 3.398834 1_446
Eu9 Sb10 3.399803 1_555
Eu9 Sb5 3.445275 1_556
Eu10 Sb2 3.294088 1_555
Eu10 Sb21 3.301593 1_555
Eu10 Sb9 3.327462 1_655
Eu10 Sb14 3.348068 1_555
Eu10 Sb8 3.386394 1_545
Eu10 Sb3 3.398834 1_645
Eu10 Sb9 3.399803 1_555
Eu10 Sb6 3.445275 1_555
Eu11 Sb3 3.294088 1_555
Eu11 Sb20 3.301593 1_555
Eu11 Sb8 3.327462 1_455
Eu11 Sb15 3.348068 1_555
Eu11 Sb9 3.386394 1_565
Eu11 Sb2 3.398834 1_465
Eu11 Sb8 3.399803 1_555
Eu11 Sb7 3.445275 1_555
Eu12 Sb15 3.268142 1_555
Eu12 Sb19 3.308365 1_655
Eu12 Sb18 3.317553 1_555
Eu12 Sb20 3.344502 1_555
Eu12 Sb7 3.347354 1_555
Eu12 Sb7 3.428097 1_655
Eu12 Sb8 3.477458 1_555
Eu12 Sb6 3.508135 1_555
Eu13 Sb14 3.268142 1_555
Eu13 Sb18 3.308365 1_455
Eu13 Sb19 3.317553 1_555
Eu13 Sb21 3.344502 1_555
Eu13 Sb6 3.347354 1_555
Eu13 Sb6 3.428097 1_455
Eu13 Sb9 3.477458 1_555
Eu13 Sb7 3.508135 1_555
Eu14 Sb13 3.268142 1_556
Eu14 Sb17 3.308365 1_655
Eu14 Sb16 3.317553 1_556
Eu14 Sb22 3.344502 1_555
Eu14 Sb5 3.347354 1_556
Eu14 Sb5 3.428097 1_656
Eu14 Sb10 3.477458 1_555
Eu14 Sb4 3.508135 1_555
Eu15 Sb12 3.268142 1_554
Eu15 Sb16 3.308365 1_455
Eu15 Sb17 3.317553 1_554
Eu15 Sb23 3.344502 1_555
Eu15 Sb4 3.347354 1_554
Eu15 Sb4 3.428097 1_454
Eu15 Sb11 3.477458 1_555
Eu15 Sb5 3.508135 1_555
Sb0 Sb18 2.975338 1_555
Sb0 Sb11 3.077947 1_655
Sb0 Sb13 3.479176 1_565
Sb1 Sb19 2.975338 1_555
Sb1 Sb10 3.077947 1_455
Sb1 Sb12 3.479176 1_545
Sb2 Sb9 3.077947 1_655
Sb3 Sb8 3.077947 1_455
Sb10 Sb22 3.324964 1_555
Sb11 Sb23 3.324964 1_555
Sb12 Sb14 3.006683 1_565
Sb12 Sb4 3.101171 1_555
Sb13 Sb15 3.006683 1_545
Sb13 Sb5 3.101171 1_555
Sb14 Sb6 3.101171 1_555
Sb14 Sb3 3.479176 1_545
Sb15 Sb7 3.101171 1_555
Sb15 Sb2 3.479176 1_565
Sb16 Sb2 2.975338 1_555
Sb16 Sb23 3.130896 1_555
Sb16 Sb5 3.313179 1_655
Sb17 Sb3 2.975338 1_555
Sb17 Sb22 3.130896 1_555
Sb17 Sb4 3.313179 1_455
Sb18 Sb21 3.130896 1_555
Sb18 Sb7 3.313179 1_655
Sb19 Sb20 3.130896 1_555
Sb19 Sb6 3.313179 1_455
Sb20 Sb22 2.946321 1_555
Sb20 Sb8 3.324964 1_555
Sb21 Sb23 2.946321 1_555
Sb21 Sb9 3.324964 1_555
