# generated using pymatgen
data_Zr3Ga
_symmetry_space_group_name_H-M   'P 1'
_cell_length_a   4.34283198
_cell_length_b   4.34283198
_cell_length_c   4.34283198
_cell_angle_alpha   90.00000000
_cell_angle_beta   90.00000000
_cell_angle_gamma   90.00000000
_symmetry_Int_Tables_number   1
_chemical_formula_structural   Zr3Ga
_chemical_formula_sum   'Zr3 Ga1'
_cell_volume   81.90663457
_cell_formula_units_Z   1
loop_
 _symmetry_equiv_pos_site_id
 _symmetry_equiv_pos_as_xyz
  1  'x, y, z'
loop_
 _atom_site_type_symbol
 _atom_site_label
 _atom_site_symmetry_multiplicity
 _atom_site_fract_x
 _atom_site_fract_y
 _atom_site_fract_z
 _atom_site_occupancy
  Zr  Zr0  1  -0.00000000  0.50000000  0.50000000  1
  Zr  Zr1  1  0.50000000  -0.00000000  0.50000000  1
  Zr  Zr2  1  0.50000000  0.50000000  -0.00000000  1
  Ga  Ga0  1  0.00000000  0.00000000  0.00000000  1
loop_
_geom_bond_atom_site_label_1
_geom_bond_atom_site_label_2
_geom_bond_distance
_geom_bond_site_symmetry_2
Zr0 Zr1 3.070846 1_565
Zr0 Zr2 3.070846 1_555
Zr0 Zr1 3.070846 1_465
Zr0 Zr1 3.070846 1_555
Zr0 Zr1 3.070846 1_455
Zr0 Zr2 3.070846 1_455
Zr0 Zr2 3.070846 1_456
Zr0 Zr2 3.070846 1_556
Zr1 Zr2 3.070846 1_555
Zr1 Zr2 3.070846 1_545
Zr1 Zr2 3.070846 1_546
Zr1 Zr2 3.070846 1_556
Ga0 Zr2 3.070846 1_445
Ga0 Zr0 3.070846 1_555
Ga0 Zr0 3.070846 1_554
Ga0 Zr2 3.070846 1_555
Ga0 Zr1 3.070846 1_555
Ga0 Zr2 3.070846 1_545
Ga0 Zr1 3.070846 1_455
Ga0 Zr1 3.070846 1_454
Ga0 Zr1 3.070846 1_554
Ga0 Zr0 3.070846 1_544
Ga0 Zr2 3.070846 1_455
Ga0 Zr0 3.070846 1_545
