# generated using pymatgen
data_Sr8MgP4(IO4)4
_symmetry_space_group_name_H-M   'P 1'
_cell_length_a   9.22632745
_cell_length_b   8.94567940
_cell_length_c   9.61165547
_cell_angle_alpha   90.53345052
_cell_angle_beta   111.71525487
_cell_angle_gamma   89.68098045
_symmetry_Int_Tables_number   1
_chemical_formula_structural   Sr8MgP4(IO4)4
_chemical_formula_sum   'Sr8 Mg1 P4 I4 O16'
_cell_volume   736.97385973
_cell_formula_units_Z   1
loop_
 _symmetry_equiv_pos_site_id
 _symmetry_equiv_pos_as_xyz
  1  'x, y, z'
loop_
 _atom_site_type_symbol
 _atom_site_label
 _atom_site_symmetry_multiplicity
 _atom_site_fract_x
 _atom_site_fract_y
 _atom_site_fract_z
 _atom_site_occupancy
  Sr  Sr0  1  0.95268144  0.80352027  0.83915364  1
  Sr  Sr1  1  0.75423439  0.29095177  0.29483221  1
  Sr  Sr2  1  0.01010224  0.18812779  0.09635299  1
  Sr  Sr3  1  0.46976206  0.69923454  0.86358306  1
  Sr  Sr4  1  0.44230528  0.83853820  0.22290885  1
  Sr  Sr5  1  0.03910967  0.33006500  0.75363867  1
  Sr  Sr6  1  0.52275437  0.18077529  0.76987144  1
  Sr  Sr7  1  0.95819075  0.67965847  0.22288131  1
  Mg  Mg0  1  0.39006408  0.30283397  0.20206512  1
  P  P0  1  0.21989026  0.56863891  0.02084273  1
  P  P1  1  0.24746805  0.05722470  0.94425586  1
  P  P2  1  0.76019187  0.45537224  0.94107976  1
  P  P3  1  0.73283202  0.94915580  0.04381716  1
  I  I0  1  0.16557583  0.31119157  0.46294793  1
  I  I1  1  0.29025905  0.82364073  0.50027610  1
  I  I2  1  0.80318778  0.60434979  0.49562787  1
  I  I3  1  0.73441403  0.05051258  0.54614888  1
  O  O0  1  0.14249881  0.58490131  0.84705027  1
  O  O1  1  0.29527502  0.09076704  0.11777232  1
  O  O2  1  0.83948012  0.42961924  0.11581162  1
  O  O3  1  0.63511770  0.93394848  0.87331163  1
  O  O4  1  0.79310607  0.61963980  0.91394228  1
  O  O5  1  0.72753564  0.11457584  0.09253575  1
  O  O6  1  0.18741620  0.40411319  0.05794635  1
  O  O7  1  0.30254870  0.89703551  0.93024637  1
  O  O8  1  0.30873392  0.17646611  0.86446914  1
  O  O9  1  0.14739326  0.68575131  0.09701084  1
  O  O10  1  0.67317613  0.83388082  0.13041156  1
  O  O11  1  0.83101063  0.33447849  0.86601777  1
  O  O12  1  0.90918283  0.91540206  0.07442368  1
  O  O13  1  0.58088996  0.43299815  0.88201285  1
  O  O14  1  0.06450059  0.07028751  0.87757835  1
  O  O15  1  0.39723622  0.59948651  0.07488963  1
loop_
_geom_bond_atom_site_label_1
_geom_bond_atom_site_label_2
_geom_bond_distance
_geom_bond_site_symmetry_2
Mg0 O6 2.079287 1_555
Mg0 O1 2.117950 1_555
I0 Sr5 3.405581 1_555
I0 Sr2 3.448246 1_555
I0 Sr1 3.537141 1_455
I0 Sr6 3.708253 1_555
I1 Sr4 3.445169 1_555
I1 Sr3 3.456532 1_555
I1 Sr7 3.477023 1_455
I2 Sr1 3.325215 1_555
I2 Sr7 3.491342 1_555
I2 Sr0 3.539340 1_555
I2 Sr5 3.601081 1_655
I2 Sr4 3.989042 1_555
I3 Sr1 3.304959 1_555
I3 Sr0 3.569067 1_545
I3 Sr6 3.582022 1_555
I3 Sr5 3.737768 1_655
I3 Sr4 3.776640 1_545
O0 P0 1.562724 1_556
O0 Sr5 2.503067 1_555
O0 Sr0 2.600745 1_455
O0 Sr3 3.140806 1_555
O1 P1 1.585522 1_554
O1 Sr4 2.635627 1_545
O1 Sr2 2.701964 1_555
O2 P2 1.582720 1_554
O2 Sr1 2.483984 1_555
O2 Sr7 2.532225 1_555
O2 Sr2 2.711555 1_655
O3 P3 1.555949 1_556
O3 Sr6 2.488237 1_565
O3 Sr3 2.582899 1_555
O4 P2 1.546080 1_555
O4 Sr0 2.494464 1_555
O4 Sr7 2.838700 1_556
O4 Sr3 2.924967 1_555
O5 P3 1.553923 1_545
O5 Sr1 2.433848 1_555
O5 Sr2 2.679340 1_655
O6 P0 1.573812 1_555
O6 Sr2 2.653516 1_555
O6 Sr5 2.806879 1_554
O7 P1 1.539097 1_565
O7 Sr3 2.569370 1_555
O7 Sr4 2.680512 1_556
O8 P1 1.545376 1_555
O8 Sr6 2.461183 1_555
O8 Sr5 2.690609 1_555
O9 P0 1.556028 1_555
O9 Sr7 2.465563 1_455
O9 Sr0 2.685639 1_454
O9 Sr4 2.882731 1_555
O10 P3 1.555761 1_555
O10 Sr4 2.594054 1_555
O10 Sr7 2.803791 1_555
O10 Sr3 2.820720 1_554
O11 P2 1.563162 1_555
O11 Sr5 2.527380 1_655
O11 Sr2 2.582355 1_656
O12 P3 1.570688 1_555
O12 Sr7 2.501187 1_555
O12 Sr2 2.595017 1_665
O12 Sr0 2.627047 1_554
O13 P2 1.551019 1_555
O13 Sr6 2.465923 1_555
O13 Sr3 2.569284 1_555
O14 P1 1.572496 1_555
O14 Sr2 2.553169 1_556
O14 Sr0 2.573866 1_445
O14 Sr5 2.591026 1_555
O15 P0 1.548127 1_555
O15 Sr4 2.507107 1_555
O15 Sr3 2.532792 1_554
