# generated using pymatgen
data_Cr2HgS4
_symmetry_space_group_name_H-M   'P 1'
_cell_length_a   3.52385300
_cell_length_b   11.20465600
_cell_length_c   12.85376900
_cell_angle_alpha   90.00000000
_cell_angle_beta   90.00000000
_cell_angle_gamma   90.00000000
_symmetry_Int_Tables_number   1
_chemical_formula_structural   Cr2HgS4
_chemical_formula_sum   'Cr8 Hg4 S16'
_cell_volume   507.51256802
_cell_formula_units_Z   4
loop_
 _symmetry_equiv_pos_site_id
 _symmetry_equiv_pos_as_xyz
  1  'x, y, z'
loop_
 _atom_site_type_symbol
 _atom_site_label
 _atom_site_symmetry_multiplicity
 _atom_site_fract_x
 _atom_site_fract_y
 _atom_site_fract_z
 _atom_site_occupancy
  Cr  Cr0  1  0.25000000  0.05425500  0.11262400  1
  Cr  Cr1  1  0.75000000  0.94574500  0.88737600  1
  Cr  Cr2  1  0.75000000  0.44574500  0.61262400  1
  Cr  Cr3  1  0.25000000  0.55425500  0.38737600  1
  Cr  Cr4  1  0.25000000  0.08816800  0.59365600  1
  Cr  Cr5  1  0.75000000  0.91183200  0.40634400  1
  Cr  Cr6  1  0.75000000  0.41183200  0.09365600  1
  Cr  Cr7  1  0.25000000  0.58816800  0.90634400  1
  Hg  Hg0  1  0.25000000  0.24125300  0.32027000  1
  Hg  Hg1  1  0.75000000  0.75874700  0.67973000  1
  Hg  Hg2  1  0.75000000  0.25874700  0.82027000  1
  Hg  Hg3  1  0.25000000  0.74125300  0.17973000  1
  S  S0  1  0.75000000  0.04757400  0.71324800  1
  S  S1  1  0.25000000  0.95242600  0.28675200  1
  S  S2  1  0.25000000  0.45242600  0.21324800  1
  S  S3  1  0.75000000  0.54757400  0.78675200  1
  S  S4  1  0.25000000  0.08214700  0.93215500  1
  S  S5  1  0.75000000  0.91785300  0.06784500  1
  S  S6  1  0.75000000  0.41785300  0.43215500  1
  S  S7  1  0.25000000  0.58214700  0.56784500  1
  S  S8  1  0.75000000  0.11317600  0.46362800  1
  S  S9  1  0.25000000  0.88682400  0.53637200  1
  S  S10  1  0.25000000  0.38682400  0.96362800  1
  S  S11  1  0.75000000  0.61317600  0.03637200  1
  S  S12  1  0.75000000  0.19871900  0.14803400  1
  S  S13  1  0.25000000  0.80128100  0.85196600  1
  S  S14  1  0.25000000  0.30128100  0.64803400  1
  S  S15  1  0.75000000  0.69871900  0.35196600  1
loop_
_geom_bond_atom_site_label_1
_geom_bond_atom_site_label_2
_geom_bond_distance
_geom_bond_site_symmetry_2
Cr0 S4 2.340664 1_554
Cr0 S5 2.402393 1_445
Cr0 S5 2.402393 1_545
Cr0 S12 2.435496 1_455
Cr0 S12 2.435496 1_555
Cr0 S1 2.512236 1_545
Cr1 S5 2.340664 1_556
Cr1 S4 2.402393 1_565
Cr1 S4 2.402393 1_665
Cr1 S13 2.435496 1_655
Cr1 S13 2.435496 1_555
Cr1 S0 2.512236 1_565
Cr2 S6 2.340664 1_555
Cr2 S7 2.402393 1_555
Cr2 S7 2.402393 1_655
Cr2 S14 2.435496 1_555
Cr2 S14 2.435496 1_655
Cr2 S3 2.512236 1_555
Cr3 S7 2.340664 1_555
Cr3 S6 2.402393 1_455
Cr3 S6 2.402393 1_555
Cr3 S15 2.435496 1_455
Cr3 S15 2.435496 1_555
Cr3 S2 2.512236 1_555
Cr4 S9 2.373110 1_545
Cr4 S0 2.382074 1_555
Cr4 S0 2.382074 1_455
Cr4 S8 2.444649 1_455
Cr4 S8 2.444649 1_555
Cr4 S14 2.488054 1_555
Cr5 S8 2.373110 1_565
Cr5 S1 2.382074 1_555
Cr5 S1 2.382074 1_655
Cr5 S9 2.444649 1_555
Cr5 S9 2.444649 1_655
Cr5 S15 2.488054 1_555
Cr6 S11 2.373110 1_555
Cr6 S2 2.382074 1_555
Cr6 S2 2.382074 1_655
Cr6 S10 2.444649 1_554
Cr6 S10 2.444649 1_654
Cr6 S12 2.488054 1_555
Cr7 S10 2.373110 1_555
Cr7 S3 2.382074 1_555
Cr7 S3 2.382074 1_455
Cr7 S11 2.444649 1_556
Cr7 S11 2.444649 1_456
Cr7 S13 2.488054 1_555
Hg0 S2 2.736951 1_555
Hg0 S12 2.869283 1_555
Hg0 S12 2.869283 1_455
Hg0 S8 2.925626 1_455
Hg0 S8 2.925626 1_555
Hg0 S6 3.014642 1_455
Hg0 S6 3.014642 1_555
Hg1 S3 2.736951 1_555
Hg1 S13 2.869283 1_655
Hg1 S13 2.869283 1_555
Hg1 S9 2.925626 1_555
Hg1 S9 2.925626 1_655
Hg1 S7 3.014642 1_655
Hg1 S7 3.014642 1_555
Hg2 S0 2.736951 1_555
Hg2 S14 2.869283 1_555
Hg2 S14 2.869283 1_655
Hg2 S10 2.925626 1_555
Hg2 S10 2.925626 1_655
Hg2 S4 3.014642 1_555
Hg2 S4 3.014642 1_655
Hg3 S1 2.736951 1_555
Hg3 S15 2.869283 1_455
Hg3 S15 2.869283 1_555
Hg3 S11 2.925626 1_455
Hg3 S11 2.925626 1_555
Hg3 S5 3.014642 1_555
Hg3 S5 3.014642 1_455
