# generated using pymatgen
data_Li3MnV(PO4)3
_symmetry_space_group_name_H-M   'P 1'
_cell_length_a   8.76427500
_cell_length_b   8.57563200
_cell_length_c   12.07001006
_cell_angle_alpha   88.37618204
_cell_angle_beta   90.00000000
_cell_angle_gamma   90.00000000
_symmetry_Int_Tables_number   1
_chemical_formula_structural   Li3MnV(PO4)3
_chemical_formula_sum   'Li12 Mn4 V4 P12 O48'
_cell_volume   906.80796453
_cell_formula_units_Z   4
loop_
 _symmetry_equiv_pos_site_id
 _symmetry_equiv_pos_as_xyz
  1  'x, y, z'
loop_
 _atom_site_type_symbol
 _atom_site_label
 _atom_site_symmetry_multiplicity
 _atom_site_fract_x
 _atom_site_fract_y
 _atom_site_fract_z
 _atom_site_occupancy
  Li  Li0  1  0.51217100  0.31487500  0.40414300  1
  Li  Li1  1  0.08624900  0.32990200  0.05964600  1
  Li  Li2  1  0.77948400  0.42960000  0.57232900  1
  Li  Li3  1  0.27948400  0.57040000  0.42767100  1
  Li  Li4  1  0.58624900  0.67009800  0.94035400  1
  Li  Li5  1  0.01217100  0.68512500  0.59585700  1
  Li  Li6  1  0.98538300  0.81440800  0.90285600  1
  Li  Li7  1  0.41520200  0.83039500  0.55876600  1
  Li  Li8  1  0.72096300  0.93074600  0.07248900  1
  Li  Li9  1  0.22096300  0.06925400  0.92751100  1
  Li  Li10  1  0.91520200  0.16960500  0.44123400  1
  Li  Li11  1  0.48538300  0.18559200  0.09714400  1
  Mn  Mn0  1  0.03663500  0.99753700  0.14035100  1
  Mn  Mn1  1  0.47120400  0.99774000  0.35568300  1
  Mn  Mn2  1  0.53663500  0.00246300  0.85964900  1
  Mn  Mn3  1  0.97120400  0.00226000  0.64431700  1
  V  V0  1  0.02797000  0.49417000  0.85495400  1
  V  V1  1  0.46485300  0.49510200  0.64195200  1
  V  V2  1  0.52797000  0.50583000  0.14504600  1
  V  V3  1  0.96485300  0.50489800  0.35804800  1
  P  P0  1  0.24812400  0.29387800  0.26005700  1
  P  P1  1  0.38209400  0.36440900  0.90407900  1
  P  P2  1  0.11120900  0.36456400  0.60383000  1
  P  P3  1  0.88209400  0.63559100  0.09592100  1
  P  P4  1  0.61120900  0.63543600  0.39617000  1
  P  P5  1  0.74812400  0.70612200  0.73994300  1
  P  P6  1  0.24935200  0.79303400  0.75986100  1
  P  P7  1  0.38973200  0.86682400  0.10017100  1
  P  P8  1  0.11887600  0.86586300  0.39728400  1
  P  P9  1  0.88973200  0.13317600  0.89982900  1
  P  P10  1  0.61887600  0.13413700  0.60271600  1
  P  P11  1  0.74935200  0.20696600  0.24013900  1
  O  O0  1  0.89342300  0.30085700  0.85523200  1
  O  O1  1  0.86795300  0.29852000  0.30637500  1
  O  O2  1  0.66378800  0.30447400  0.15077000  1
  O  O3  1  0.58021000  0.30625300  0.56343400  1
  O  O4  1  0.36042000  0.35106100  0.16843900  1
  O  O5  1  0.20533000  0.37635500  0.92018600  1
  O  O6  1  0.42106600  0.38995400  0.78125000  1
  O  O7  1  0.99409200  0.37845100  0.50459800  1
  O  O8  1  0.26919700  0.42561600  0.56297000  1
  O  O9  1  0.17716200  0.43937800  0.31582600  1
  O  O10  1  0.47139800  0.48093500  0.97470900  1
  O  O11  1  0.05004100  0.48536200  0.68828800  1
  O  O12  1  0.55004100  0.51463800  0.31171200  1
  O  O13  1  0.97139800  0.51906500  0.02529100  1
  O  O14  1  0.67716200  0.56062200  0.68417400  1
  O  O15  1  0.76919700  0.57438400  0.43703000  1
  O  O16  1  0.92106600  0.61004600  0.21875000  1
  O  O17  1  0.49409200  0.62154900  0.49540200  1
  O  O18  1  0.70533000  0.62364500  0.07981400  1
  O  O19  1  0.86042000  0.64893900  0.83156100  1
  O  O20  1  0.16378800  0.69552600  0.84923000  1
  O  O21  1  0.08021000  0.69374700  0.43656600  1
  O  O22  1  0.39342300  0.69914300  0.14476800  1
  O  O23  1  0.36795300  0.70148000  0.69362500  1
  O  O24  1  0.62636200  0.79538100  0.80309500  1
  O  O25  1  0.61395900  0.80270800  0.35080500  1
  O  O26  1  0.91801100  0.80707600  0.05732900  1
  O  O27  1  0.83170200  0.80147500  0.64715700  1
  O  O28  1  0.13626700  0.85141600  0.66563800  1
  O  O29  1  0.29763900  0.87344300  0.41558500  1
  O  O30  1  0.50775000  0.87713800  0.99913900  1
  O  O31  1  0.08321000  0.88526300  0.27347600  1
  O  O32  1  0.23025600  0.92034000  0.05879700  1
  O  O33  1  0.31996100  0.93738500  0.81430800  1
  O  O34  1  0.03025800  0.98148800  0.46740400  1
  O  O35  1  0.45104100  0.98771300  0.18240300  1
  O  O36  1  0.95104100  0.01228700  0.81759700  1
  O  O37  1  0.53025800  0.01851200  0.53259600  1
  O  O38  1  0.81996100  0.06261500  0.18569200  1
  O  O39  1  0.73025600  0.07966000  0.94120300  1
  O  O40  1  0.00775000  0.12286200  0.00086100  1
  O  O41  1  0.58321000  0.11473700  0.72652400  1
  O  O42  1  0.79763900  0.12655700  0.58441500  1
  O  O43  1  0.63626700  0.14858400  0.33436200  1
  O  O44  1  0.41801100  0.19292400  0.94267100  1
  O  O45  1  0.33170200  0.19852500  0.35284300  1
  O  O46  1  0.12636200  0.20461900  0.19690500  1
  O  O47  1  0.11395900  0.19729200  0.64919500  1
loop_
_geom_bond_atom_site_label_1
_geom_bond_atom_site_label_2
_geom_bond_distance
_geom_bond_site_symmetry_2
Li0 O45 1.978807 1_555
Li0 O43 1.998496 1_555
Li0 O3 2.012352 1_555
Li0 O12 2.044797 1_555
Li1 O13 1.943848 1_455
Li1 O46 1.980335 1_555
Li1 O5 2.010810 1_554
Li1 O40 2.049527 1_555
Li2 O14 1.993756 1_555
Li2 O15 2.025267 1_555
Li2 O3 2.046239 1_555
Li2 O7 2.102088 1_555
Li3 O9 1.993756 1_555
Li3 O8 2.025267 1_555
Li3 O21 2.046239 1_555
Li3 O17 2.102088 1_555
Li4 O10 1.943848 1_555
Li4 O24 1.980335 1_555
Li4 O18 2.010810 1_556
Li4 O30 2.049527 1_555
Li5 O27 1.978807 1_455
Li5 O28 1.998496 1_555
Li5 O21 2.012352 1_555
Li5 O11 2.044797 1_555
Li6 O26 1.955067 1_556
Li6 O36 1.982478 1_565
Li6 O20 1.985075 1_655
Li6 O19 2.005684 1_555
Li7 O37 1.920994 1_565
Li7 O23 1.985259 1_555
Li7 O29 2.036766 1_555
Li7 O17 2.085244 1_555
Li8 O38 1.996539 1_565
Li8 O39 2.008429 1_564
Li8 O26 2.037575 1_555
Li8 O30 2.123702 1_554
Li9 O33 1.996539 1_545
Li9 O32 2.008429 1_546
Li9 O44 2.037575 1_555
Li9 O40 2.123702 1_556
Li10 O34 1.920994 1_645
Li10 O1 1.985259 1_555
Li10 O42 2.036766 1_555
Li10 O7 2.085244 1_555
Li11 O44 1.955067 1_554
Li11 O35 1.982478 1_545
Li11 O2 1.985075 1_555
Li11 O4 2.005684 1_555
Mn0 O31 1.894159 1_555
Mn0 O40 1.987780 1_565
Mn0 O38 2.057774 1_465
Mn0 O46 2.075269 1_565
Mn0 O32 2.079371 1_555
Mn0 O26 2.201259 1_455
Mn1 O43 1.952827 1_565
Mn1 O29 1.982230 1_555
Mn1 O25 2.090871 1_555
Mn1 O35 2.103129 1_555
Mn1 O45 2.111270 1_565
Mn1 O37 2.209264 1_565
Mn2 O41 1.894159 1_555
Mn2 O30 1.987780 1_545
Mn2 O33 2.057774 1_545
Mn2 O24 2.075269 1_545
Mn2 O39 2.079371 1_555
Mn2 O44 2.201259 1_555
Mn3 O28 1.952827 1_645
Mn3 O42 1.982230 1_555
Mn3 O47 2.090871 1_655
Mn3 O36 2.103129 1_555
Mn3 O27 2.111270 1_545
Mn3 O34 2.209264 1_645
O0 P9 1.521410 1_555
O0 V0 2.034321 1_655
O1 P11 1.540006 1_555
O1 V3 2.074864 1_555
O2 P11 1.540785 1_555
O2 V2 2.096812 1_555
O3 P10 1.574346 1_555
O3 V1 2.151763 1_555
O4 P0 1.549592 1_555
O4 V2 1.994095 1_555
O5 P1 1.565077 1_555
O5 V0 2.002968 1_555
O6 P1 1.531076 1_555
O6 V1 1.923876 1_555
O7 P2 1.579319 1_655
O7 V3 2.064381 1_555
O8 P2 1.555623 1_555
O8 V1 2.058291 1_555
O9 P0 1.563457 1_555
O9 V3 2.013449 1_455
O10 P1 1.544736 1_555
O10 V2 2.131500 1_556
O11 P2 1.568301 1_555
O11 V0 2.024478 1_555
O12 P4 1.568301 1_555
O12 V2 2.024478 1_555
O13 P3 1.544736 1_555
O13 V0 2.131500 1_654
O14 P5 1.563457 1_555
O14 V1 2.013449 1_555
O15 P4 1.555623 1_555
O15 V3 2.058291 1_555
O16 P3 1.531076 1_555
O16 V3 1.923876 1_555
O17 P4 1.579319 1_555
O17 V1 2.064381 1_555
O18 P3 1.565077 1_555
O18 V2 2.002968 1_555
O19 P5 1.549592 1_555
O19 V0 1.994095 1_655
O20 P6 1.540785 1_555
O20 V0 2.096812 1_555
O21 P8 1.574346 1_555
O21 V3 2.151763 1_455
O22 P7 1.521410 1_555
O22 V2 2.034321 1_555
O23 P6 1.540006 1_555
O23 V1 2.074864 1_555
O24 P5 1.529321 1_555
O25 P4 1.521042 1_555
O26 P3 1.562013 1_555
O27 P5 1.551627 1_555
O28 P6 1.579265 1_555
O29 P8 1.583815 1_555
O30 P7 1.599578 1_556
O31 P8 1.531150 1_555
O32 P7 1.549373 1_555
O33 P6 1.547044 1_555
O34 P8 1.533061 1_555
O35 P7 1.551426 1_555
O36 P9 1.551426 1_555
O37 P10 1.533061 1_555
O38 P11 1.547044 1_555
O39 P9 1.549373 1_555
O40 P9 1.599578 1_454
O41 P10 1.531150 1_555
O42 P10 1.583815 1_555
O43 P11 1.579265 1_555
O44 P1 1.562013 1_555
O45 P0 1.551627 1_555
O46 P0 1.529321 1_555
O47 P2 1.521042 1_555
