# generated using pymatgen
data_LiVP2HO8
_symmetry_space_group_name_H-M   'P 1'
_cell_length_a   4.86676943
_cell_length_b   8.01955202
_cell_length_c   7.49863746
_cell_angle_alpha   90.05031630
_cell_angle_beta   105.13626596
_cell_angle_gamma   89.96178605
_symmetry_Int_Tables_number   1
_chemical_formula_structural   LiVP2HO8
_chemical_formula_sum   'Li2 V2 P4 H2 O16'
_cell_volume   282.51318858
_cell_formula_units_Z   2
loop_
 _symmetry_equiv_pos_site_id
 _symmetry_equiv_pos_as_xyz
  1  'x, y, z'
loop_
 _atom_site_type_symbol
 _atom_site_label
 _atom_site_symmetry_multiplicity
 _atom_site_fract_x
 _atom_site_fract_y
 _atom_site_fract_z
 _atom_site_occupancy
  Li  Li0  1  0.40554200  0.87219400  0.85655000  1
  Li  Li1  1  0.91043800  0.63016600  0.36022500  1
  V  V0  1  0.49256100  0.49547600  0.99655700  1
  V  V1  1  0.99090200  0.00827800  0.49544400  1
  P  P0  1  0.12900900  0.34596300  0.26088400  1
  P  P1  1  0.37225200  0.84715000  0.23375300  1
  P  P2  1  0.62700200  0.15728800  0.76079500  1
  P  P3  1  0.87268100  0.65560400  0.73450000  1
  H  H0  1  0.47002100  0.49234100  0.48584500  1
  H  H1  1  0.96635400  0.00922500  0.98478500  1
  O  O0  1  0.14292000  0.56107400  0.85572100  1
  O  O1  1  0.05194700  0.17364800  0.31930700  1
  O  O2  1  0.16659800  0.82886500  0.36047500  1
  O  O3  1  0.25456000  0.45619000  0.43443600  1
  O  O4  1  0.35375400  0.05646700  0.66140600  1
  O  O5  1  0.55035400  0.32976300  0.81933300  1
  O  O6  1  0.24271500  0.93957400  0.05553800  1
  O  O7  1  0.32323500  0.33020400  0.12998600  1
  O  O8  1  0.66608500  0.67476700  0.86031900  1
  O  O9  1  0.75197800  0.04729100  0.93439000  1
  O  O10  1  0.48895000  0.67561000  0.19211300  1
  O  O11  1  0.64101500  0.94451300  0.35285600  1
  O  O12  1  0.74674800  0.55975800  0.55787900  1
  O  O13  1  0.82106700  0.17263300  0.62982100  1
  O  O14  1  0.98561000  0.82690900  0.68933200  1
  O  O15  1  0.85588700  0.44689700  0.16161200  1
loop_
_geom_bond_atom_site_label_1
_geom_bond_atom_site_label_2
_geom_bond_distance
_geom_bond_site_symmetry_2
Li0 O6 1.939573 1_556
Li0 O8 2.023383 1_555
Li0 O4 2.049234 1_565
Li0 O14 2.131394 1_455
Li0 O9 2.154746 1_565
Li1 O12 1.941357 1_555
Li1 O2 2.023558 1_655
Li1 O15 2.058856 1_555
Li1 O3 2.138376 1_655
Li1 O10 2.139886 1_555
H0 O3 1.058926 1_555
H0 O12 1.420707 1_555
H1 O9 1.057539 1_555
H1 O6 1.424547 1_646
O0 P3 1.583113 1_455
O0 V0 1.829993 1_555
O1 P0 1.526355 1_555
O1 V1 1.949373 1_455
O2 P1 1.556703 1_555
O2 V1 2.067216 1_465
O3 P0 1.559435 1_555
O4 P2 1.568577 1_555
O4 V1 1.915448 1_455
O5 P2 1.526026 1_555
O5 V0 1.950098 1_555
O6 P1 1.514544 1_555
O7 P0 1.535281 1_555
O7 V0 1.967547 1_554
O8 P3 1.555517 1_555
O8 V0 2.068566 1_555
O9 P2 1.558976 1_555
O10 P1 1.550273 1_555
O10 V0 2.060874 1_554
O11 P1 1.583749 1_555
O11 V1 1.831310 1_565
O12 P3 1.515077 1_555
O13 P2 1.535097 1_555
O13 V1 1.966458 1_555
O14 P3 1.550197 1_555
O14 V1 2.062368 1_565
O15 P0 1.568138 1_655
O15 V0 1.915015 1_554
