# generated using pymatgen
data_CuPS2
_symmetry_space_group_name_H-M   'P 1'
_cell_length_a   4.03701341
_cell_length_b   4.03701341
_cell_length_c   5.50043400
_cell_angle_alpha   90.00000000
_cell_angle_beta   90.00000000
_cell_angle_gamma   119.99999036
_symmetry_Int_Tables_number   1
_chemical_formula_structural   CuPS2
_chemical_formula_sum   'Cu1 P1 S2'
_cell_volume   77.63329444
_cell_formula_units_Z   1
loop_
 _symmetry_equiv_pos_site_id
 _symmetry_equiv_pos_as_xyz
  1  'x, y, z'
loop_
 _atom_site_type_symbol
 _atom_site_label
 _atom_site_symmetry_multiplicity
 _atom_site_fract_x
 _atom_site_fract_y
 _atom_site_fract_z
 _atom_site_occupancy
  Cu  Cu0  1  0.33333300  0.66666700  0.49239400  1
  P  P0  1  0.00000000  0.00000000  0.99219300  1
  S  S0  1  0.33333300  0.66666700  0.90461800  1
  S  S1  1  0.00000000  0.00000000  0.37279500  1
loop_
_geom_bond_atom_site_label_1
_geom_bond_atom_site_label_2
_geom_bond_distance
_geom_bond_site_symmetry_2
Cu0 S0 2.267411 1_555
Cu0 S1 2.421826 1_565
Cu0 S1 2.421830 1_665
Cu0 S1 2.421830 1_555
P0 S1 2.093476 1_556
P0 S0 2.380024 1_545
P0 S0 2.380028 1_445
P0 S0 2.380028 1_555
