# generated using pymatgen
data_ErCO4
_symmetry_space_group_name_H-M   'P 1'
_cell_length_a   11.98381952
_cell_length_b   11.98381952
_cell_length_c   9.59918500
_cell_angle_alpha   90.00000000
_cell_angle_beta   90.00000000
_cell_angle_gamma   119.99999735
_symmetry_Int_Tables_number   1
_chemical_formula_structural   ErCO4
_chemical_formula_sum   'Er18 C18 O72'
_cell_volume   1193.86583622
_cell_formula_units_Z   18
loop_
 _symmetry_equiv_pos_site_id
 _symmetry_equiv_pos_as_xyz
  1  'x, y, z'
loop_
 _atom_site_type_symbol
 _atom_site_label
 _atom_site_symmetry_multiplicity
 _atom_site_fract_x
 _atom_site_fract_y
 _atom_site_fract_z
 _atom_site_occupancy
  Er  Er0  1  0.43577900  0.21543000  0.73872800  1
  Er  Er1  1  0.77965200  0.56422100  0.73872800  1
  Er  Er2  1  0.78457000  0.22034800  0.73872800  1
  Er  Er3  1  0.43577900  0.21543000  0.26127200  1
  Er  Er4  1  0.77965200  0.56422100  0.26127200  1
  Er  Er5  1  0.78457000  0.22034800  0.26127200  1
  Er  Er6  1  0.10348500  0.54523700  0.75748400  1
  Er  Er7  1  0.44175100  0.89651500  0.75748400  1
  Er  Er8  1  0.45476300  0.55824900  0.75748400  1
  Er  Er9  1  0.10348500  0.54523700  0.24251600  1
  Er  Er10  1  0.44175100  0.89651500  0.24251600  1
  Er  Er11  1  0.45476300  0.55824900  0.24251600  1
  Er  Er12  1  0.12371600  0.23226700  0.75725500  1
  Er  Er13  1  0.10855100  0.87628400  0.75725500  1
  Er  Er14  1  0.76773300  0.89144900  0.75725500  1
  Er  Er15  1  0.12371600  0.23226700  0.24274500  1
  Er  Er16  1  0.10855100  0.87628400  0.24274500  1
  Er  Er17  1  0.76773300  0.89144900  0.24274500  1
  C  C0  1  0.15713000  0.68048500  0.50000000  1
  C  C1  1  0.52335500  0.84287000  0.50000000  1
  C  C2  1  0.31951500  0.47664500  0.50000000  1
  C  C3  1  0.55360200  0.13014100  0.50000000  1
  C  C4  1  0.57653800  0.44639800  0.50000000  1
  C  C5  1  0.86985900  0.42346200  0.50000000  1
  C  C6  1  0.19841800  0.17493400  0.50000000  1
  C  C7  1  0.97651600  0.80158200  0.50000000  1
  C  C8  1  0.82506600  0.02348400  0.50000000  1
  C  C9  1  0.24614400  0.46281200  0.00000000  1
  C  C10  1  0.21666800  0.75385600  0.00000000  1
  C  C11  1  0.53718800  0.78333200  0.00000000  1
  C  C12  1  0.89226800  0.09712400  0.00000000  1
  C  C13  1  0.20485600  0.10773200  0.00000000  1
  C  C14  1  0.90287600  0.79514400  0.00000000  1
  C  C15  1  0.48422500  0.13278500  0.00000000  1
  C  C16  1  0.64856000  0.51577500  0.00000000  1
  C  C17  1  0.86721500  0.35144000  0.00000000  1
  O  O0  1  0.15174000  0.56915900  0.50000000  1
  O  O1  1  0.41741900  0.84826000  0.50000000  1
  O  O2  1  0.43084100  0.58258100  0.50000000  1
  O  O3  1  0.15736900  0.73102000  0.61883100  1
  O  O4  1  0.57365200  0.84263100  0.61883100  1
  O  O5  1  0.26898000  0.42634800  0.61883100  1
  O  O6  1  0.15736900  0.73102000  0.38116900  1
  O  O7  1  0.57365200  0.84263100  0.38116900  1
  O  O8  1  0.26898000  0.42634800  0.38116900  1
  O  O9  1  0.49277200  0.19430000  0.50000000  1
  O  O10  1  0.70152800  0.50722800  0.50000000  1
  O  O11  1  0.80570000  0.29847200  0.50000000  1
  O  O12  1  0.51624600  0.41717800  0.61807700  1
  O  O13  1  0.90093100  0.48375400  0.61807700  1
  O  O14  1  0.58282200  0.09906900  0.61807700  1
  O  O15  1  0.51624600  0.41717800  0.38192300  1
  O  O16  1  0.90093100  0.48375400  0.38192300  1
  O  O17  1  0.58282200  0.09906900  0.38192300  1
  O  O18  1  0.09179300  0.17772800  0.50000000  1
  O  O19  1  0.08593500  0.90820700  0.50000000  1
  O  O20  1  0.82227200  0.91406500  0.50000000  1
  O  O21  1  0.25070200  0.17625400  0.61781600  1
  O  O22  1  0.92555200  0.74929800  0.61781600  1
  O  O23  1  0.82374600  0.07444800  0.61781600  1
  O  O24  1  0.25070200  0.17625400  0.38218400  1
  O  O25  1  0.92555200  0.74929800  0.38218400  1
  O  O26  1  0.82374600  0.07444800  0.38218400  1
  O  O27  1  0.16283200  0.62992700  0.00000000  1
  O  O28  1  0.46709500  0.83716800  0.00000000  1
  O  O29  1  0.37007300  0.53290500  0.00000000  1
  O  O30  1  0.18433600  0.42753800  0.88288100  1
  O  O31  1  0.24320200  0.81566400  0.88288100  1
  O  O32  1  0.57246200  0.75679800  0.88288100  1
  O  O33  1  0.18433600  0.42753800  0.11711900  1
  O  O34  1  0.24320200  0.81566400  0.11711900  1
  O  O35  1  0.57246200  0.75679800  0.11711900  1
  O  O36  1  0.14778400  0.17582400  0.00000000  1
  O  O37  1  0.02804000  0.85221600  0.00000000  1
  O  O38  1  0.82417600  0.97196000  0.00000000  1
  O  O39  1  0.92487200  0.15738500  0.88194500  1
  O  O40  1  0.23251300  0.07512800  0.88194500  1
  O  O41  1  0.84261500  0.76748700  0.88194500  1
  O  O42  1  0.92487200  0.15738500  0.11805500  1
  O  O43  1  0.23251300  0.07512800  0.11805500  1
  O  O44  1  0.84261500  0.76748700  0.11805500  1
  O  O45  1  0.48434800  0.24107900  0.00000000  1
  O  O46  1  0.75673200  0.51565200  0.00000000  1
  O  O47  1  0.75892100  0.24326800  0.00000000  1
  O  O48  1  0.48256500  0.08061800  0.88211400  1
  O  O49  1  0.59805400  0.51743500  0.88211400  1
  O  O50  1  0.91938200  0.40194600  0.88211400  1
  O  O51  1  0.48256500  0.08061800  0.11788600  1
  O  O52  1  0.59805400  0.51743500  0.11788600  1
  O  O53  1  0.91938200  0.40194600  0.11788600  1
  O  O54  1  0.66666700  0.33333300  0.75841500  1
  O  O55  1  0.66666700  0.33333300  0.24158500  1
  O  O56  1  0.33333300  0.66666700  0.74898300  1
  O  O57  1  0.33333300  0.66666700  0.25101700  1
  O  O58  1  0.00000000  0.00000000  0.74271700  1
  O  O59  1  0.00000000  0.00000000  0.25728300  1
  O  O60  1  0.99062000  0.65251100  0.81004600  1
  O  O61  1  0.66189200  0.00938000  0.81004600  1
  O  O62  1  0.34748900  0.33810800  0.81004600  1
  O  O63  1  0.99062000  0.65251100  0.18995400  1
  O  O64  1  0.66189200  0.00938000  0.18995400  1
  O  O65  1  0.34748900  0.33810800  0.18995400  1
  O  O66  1  0.00855800  0.32969900  0.69101100  1
  O  O67  1  0.32114100  0.99144200  0.69101100  1
  O  O68  1  0.67030100  0.67885900  0.69101100  1
  O  O69  1  0.00855800  0.32969900  0.30898900  1
  O  O70  1  0.32114100  0.99144200  0.30898900  1
  O  O71  1  0.67030100  0.67885900  0.30898900  1
loop_
_geom_bond_atom_site_label_1
_geom_bond_atom_site_label_2
_geom_bond_distance
_geom_bond_site_symmetry_2
Er0 O62 2.303255 1_555
Er0 O21 2.333554 1_555
Er0 O67 2.369522 1_545
Er0 O48 2.392624 1_555
Er0 O54 2.403844 1_555
Er0 O12 2.405227 1_555
Er0 O9 2.440277 1_555
Er0 O45 2.558203 1_556
Er0 O40 2.560262 1_555
Er1 O60 2.303255 1_555
Er1 O22 2.333551 1_555
Er1 O68 2.369532 1_555
Er1 O49 2.392624 1_555
Er1 O54 2.403844 1_555
Er1 O13 2.405208 1_555
Er1 O10 2.440280 1_555
Er1 O46 2.558203 1_556
Er1 O41 2.560264 1_555
Er2 O61 2.303255 1_555
Er2 O23 2.333544 1_555
Er2 O66 2.369522 1_655
Er2 O50 2.392624 1_555
Er2 O54 2.403844 1_555
Er2 O14 2.405225 1_555
Er2 O11 2.440281 1_555
Er2 O47 2.558203 1_556
Er2 O39 2.560255 1_555
Er3 O65 2.303255 1_555
Er3 O24 2.333554 1_555
Er3 O70 2.369522 1_545
Er3 O51 2.392624 1_555
Er3 O55 2.403844 1_555
Er3 O15 2.405227 1_555
Er3 O9 2.440277 1_555
Er3 O45 2.558203 1_555
Er3 O43 2.560262 1_555
Er4 O63 2.303255 1_555
Er4 O25 2.333551 1_555
Er4 O71 2.369532 1_555
Er4 O52 2.392624 1_555
Er4 O55 2.403844 1_555
Er4 O16 2.405208 1_555
Er4 O10 2.440280 1_555
Er4 O46 2.558203 1_555
Er4 O44 2.560264 1_555
Er5 O64 2.303255 1_555
Er5 O26 2.333544 1_555
Er5 O69 2.369522 1_655
Er5 O53 2.392624 1_555
Er5 O55 2.403844 1_555
Er5 O17 2.405225 1_555
Er5 O11 2.440281 1_555
Er5 O47 2.558203 1_555
Er5 O42 2.560255 1_555
Er6 O66 2.331230 1_555
Er6 O50 2.336445 1_455
Er6 O60 2.339957 1_455
Er6 O56 2.388098 1_555
Er6 O3 2.389052 1_555
Er6 O30 2.396618 1_555
Er6 O27 2.496683 1_556
Er6 O0 2.521864 1_555
Er6 O13 2.537179 1_455
Er7 O67 2.331220 1_555
Er7 O48 2.336438 1_565
Er7 O61 2.339977 1_565
Er7 O56 2.388098 1_555
Er7 O4 2.389071 1_555
Er7 O31 2.396608 1_555
Er7 O28 2.496686 1_556
Er7 O1 2.521864 1_555
Er7 O14 2.537179 1_565
Er8 O68 2.331229 1_555
Er8 O49 2.336459 1_555
Er8 O62 2.339977 1_555
Er8 O56 2.388098 1_555
Er8 O5 2.389057 1_555
Er8 O32 2.396609 1_555
Er8 O29 2.496682 1_556
Er8 O2 2.521862 1_555
Er8 O12 2.537179 1_555
Er9 O69 2.331230 1_555
Er9 O53 2.336445 1_455
Er9 O63 2.339957 1_455
Er9 O57 2.388098 1_555
Er9 O6 2.389052 1_555
Er9 O33 2.396618 1_555
Er9 O27 2.496683 1_555
Er9 O0 2.521864 1_555
Er9 O16 2.537179 1_455
Er10 O70 2.331220 1_555
Er10 O51 2.336438 1_565
Er10 O64 2.339977 1_565
Er10 O57 2.388098 1_555
Er10 O7 2.389071 1_555
Er10 O34 2.396608 1_555
Er10 O28 2.496686 1_555
Er10 O1 2.521864 1_555
Er10 O17 2.537179 1_565
Er11 O71 2.331229 1_555
Er11 O52 2.336459 1_555
Er11 O65 2.339977 1_555
Er11 O57 2.388098 1_555
Er11 O8 2.389057 1_555
Er11 O35 2.396609 1_555
Er11 O29 2.496682 1_555
Er11 O2 2.521862 1_555
Er11 O15 2.537179 1_555
Er12 O66 2.298584 1_555
Er12 O21 2.362088 1_555
Er12 O62 2.378130 1_555
Er12 O30 2.399585 1_555
Er12 O39 2.403707 1_455
Er12 O58 2.416280 1_555
Er12 O5 2.481267 1_555
Er12 O36 2.483027 1_556
Er12 O18 2.534091 1_555
Er13 O67 2.298584 1_555
Er13 O22 2.362088 1_455
Er13 O60 2.378129 1_455
Er13 O31 2.399585 1_555
Er13 O40 2.403707 1_565
Er13 O58 2.416280 1_565
Er13 O3 2.481274 1_555
Er13 O37 2.483027 1_556
Er13 O19 2.534091 1_555
Er14 O68 2.298584 1_555
Er14 O23 2.362088 1_565
Er14 O61 2.378119 1_565
Er14 O32 2.399585 1_555
Er14 O41 2.403707 1_555
Er14 O58 2.416280 1_665
Er14 O4 2.481264 1_555
Er14 O38 2.483027 1_556
Er14 O20 2.534091 1_555
Er15 O69 2.298584 1_555
Er15 O24 2.362088 1_555
Er15 O65 2.378130 1_555
Er15 O33 2.399585 1_555
Er15 O42 2.403707 1_455
Er15 O59 2.416280 1_555
Er15 O8 2.481267 1_555
Er15 O36 2.483027 1_555
Er15 O18 2.534091 1_555
Er16 O70 2.298584 1_555
Er16 O25 2.362088 1_455
Er16 O63 2.378129 1_455
Er16 O34 2.399585 1_555
Er16 O43 2.403707 1_565
Er16 O59 2.416280 1_565
Er16 O6 2.481274 1_555
Er16 O37 2.483027 1_555
Er16 O19 2.534091 1_555
Er17 O71 2.298584 1_555
Er17 O26 2.362088 1_565
Er17 O64 2.378119 1_565
Er17 O35 2.399585 1_555
Er17 O44 2.403707 1_555
Er17 O59 2.416280 1_665
Er17 O7 2.481264 1_555
Er17 O38 2.483027 1_555
Er17 O20 2.534091 1_555
C0 O3 1.290806 1_555
C0 O6 1.290806 1_555
C0 O0 1.303016 1_555
C1 O7 1.290812 1_555
C1 O4 1.290812 1_555
C1 O1 1.303016 1_555
C2 O5 1.290809 1_555
C2 O8 1.290809 1_555
C2 O2 1.303016 1_555
C3 O14 1.294740 1_555
C3 O17 1.294740 1_555
C3 O9 1.297326 1_555
C4 O12 1.294740 1_555
C4 O15 1.294740 1_555
C4 O10 1.297336 1_555
C5 O13 1.294740 1_555
C5 O16 1.294740 1_555
C5 O11 1.297336 1_555
C6 O24 1.289162 1_555
C6 O21 1.289162 1_555
C6 O18 1.294841 1_555
C7 O25 1.289162 1_555
C7 O22 1.289162 1_555
C7 O19 1.294841 1_655
C8 O26 1.289162 1_555
C8 O23 1.289162 1_555
C8 O20 1.294841 1_545
C9 O29 1.289855 1_555
C9 O30 1.295433 1_554
C9 O33 1.295433 1_555
C10 O27 1.289855 1_555
C10 O31 1.295433 1_554
C10 O34 1.295433 1_555
C11 O28 1.289855 1_555
C11 O32 1.295433 1_554
C11 O35 1.295433 1_555
C12 O42 1.294691 1_555
C12 O39 1.294691 1_554
C12 O38 1.300666 1_545
C13 O43 1.294691 1_555
C13 O40 1.294691 1_554
C13 O36 1.300666 1_555
C14 O44 1.294691 1_555
C14 O41 1.294691 1_554
C14 O37 1.300666 1_655
C15 O51 1.288148 1_555
C15 O48 1.288148 1_554
C15 O45 1.297039 1_555
C16 O52 1.288142 1_555
C16 O49 1.288142 1_554
C16 O46 1.297051 1_555
C17 O53 1.288145 1_555
C17 O50 1.288145 1_554
C17 O47 1.297045 1_555
