# generated using pymatgen
data_Zn4CdS5
_symmetry_space_group_name_H-M   'P 1'
_cell_length_a   3.92791683
_cell_length_b   3.92791683
_cell_length_c   32.33541100
_cell_angle_alpha   90.00000000
_cell_angle_beta   90.00000000
_cell_angle_gamma   120.00001400
_symmetry_Int_Tables_number   1
_chemical_formula_structural   Zn4CdS5
_chemical_formula_sum   'Zn8 Cd2 S10'
_cell_volume   432.04951606
_cell_formula_units_Z   2
loop_
 _symmetry_equiv_pos_site_id
 _symmetry_equiv_pos_as_xyz
  1  'x, y, z'
loop_
 _atom_site_type_symbol
 _atom_site_label
 _atom_site_symmetry_multiplicity
 _atom_site_fract_x
 _atom_site_fract_y
 _atom_site_fract_z
 _atom_site_occupancy
  Zn  Zn0  1  0.33333300  0.66666700  0.50152600  1
  Zn  Zn1  1  0.33333300  0.66666700  0.69968500  1
  Zn  Zn2  1  0.33333300  0.66666700  0.89804100  1
  Zn  Zn3  1  0.66666700  0.33333300  0.99507200  1
  Zn  Zn4  1  0.66666700  0.33333300  0.20043800  1
  Zn  Zn5  1  0.66666700  0.33333300  0.40495000  1
  Zn  Zn6  1  0.66666700  0.33333300  0.60006900  1
  Zn  Zn7  1  0.66666700  0.33333300  0.79934400  1
  Cd  Cd0  1  0.33333300  0.66666700  0.09636500  1
  Cd  Cd1  1  0.33333300  0.66666700  0.29994900  1
  S  S0  1  0.33333300  0.66666700  0.01831300  1
  S  S1  1  0.33333300  0.66666700  0.22228200  1
  S  S2  1  0.33333300  0.66666700  0.42823800  1
  S  S3  1  0.33333300  0.66666700  0.62524200  1
  S  S4  1  0.33333300  0.66666700  0.82421600  1
  S  S5  1  0.66666700  0.33333300  0.12859300  1
  S  S6  1  0.66666700  0.33333300  0.33258000  1
  S  S7  1  0.66666700  0.33333300  0.52608100  1
  S  S8  1  0.66666700  0.33333300  0.72497300  1
  S  S9  1  0.66666700  0.33333300  0.92204400  1
loop_
_geom_bond_atom_site_label_1
_geom_bond_atom_site_label_2
_geom_bond_distance
_geom_bond_site_symmetry_2
Cd0 S5 2.495760 1_455
Cd0 S5 2.495760 1_565
Cd0 S5 2.495766 1_555
Cd0 S0 2.523843 1_555
Cd1 S6 2.501229 1_455
Cd1 S6 2.501229 1_565
Cd1 S6 2.501235 1_555
Cd1 S1 2.511394 1_555
S0 Zn3 2.389057 1_454
S0 Zn3 2.389057 1_564
S0 Zn3 2.389064 1_554
S1 Zn4 2.375235 1_455
S1 Zn4 2.375235 1_565
S1 Zn4 2.375242 1_555
S2 Zn0 2.369798 1_555
S2 Zn5 2.389536 1_455
S2 Zn5 2.389536 1_565
S2 Zn5 2.389543 1_555
S3 Zn1 2.407145 1_555
S3 Zn6 2.409439 1_455
S3 Zn6 2.409439 1_565
S3 Zn6 2.409445 1_555
S4 Zn2 2.387162 1_555
S4 Zn7 2.406168 1_455
S4 Zn7 2.406168 1_565
S4 Zn7 2.406175 1_555
S5 Zn4 2.323138 1_555
S6 Zn5 2.340114 1_555
S7 Zn6 2.392432 1_555
S7 Zn0 2.402761 1_655
S7 Zn0 2.402761 1_545
S7 Zn0 2.402768 1_555
S8 Zn7 2.404817 1_555
S8 Zn1 2.410697 1_545
S8 Zn1 2.410697 1_655
S8 Zn1 2.410704 1_555
S9 Zn3 2.361390 1_555
S9 Zn2 2.396922 1_655
S9 Zn2 2.396922 1_545
S9 Zn2 2.396929 1_555
