# generated using pymatgen
data_PH11S(NO4)2
_symmetry_space_group_name_H-M   'P 1'
_cell_length_a   7.66316989
_cell_length_b   7.47640500
_cell_length_c   7.93926068
_cell_angle_alpha   90.00000000
_cell_angle_beta   101.94756590
_cell_angle_gamma   90.00000000
_symmetry_Int_Tables_number   1
_chemical_formula_structural   PH11S(NO4)2
_chemical_formula_sum   'P2 H22 S2 N4 O16'
_cell_volume   445.01025408
_cell_formula_units_Z   2
loop_
 _symmetry_equiv_pos_site_id
 _symmetry_equiv_pos_as_xyz
  1  'x, y, z'
loop_
 _atom_site_type_symbol
 _atom_site_label
 _atom_site_symmetry_multiplicity
 _atom_site_fract_x
 _atom_site_fract_y
 _atom_site_fract_z
 _atom_site_occupancy
  P  P0  1  0.40102100  0.68643900  0.24512200  1
  P  P1  1  0.90102100  0.81356100  0.74512200  1
  H  H0  1  0.00392300  0.99000800  0.97165500  1
  H  H1  1  0.04325400  0.25229500  0.77673500  1
  H  H2  1  0.06970800  0.29559900  0.57520500  1
  H  H3  1  0.07353600  0.46681800  0.71216200  1
  H  H4  1  0.25711900  0.80500900  0.75499700  1
  H  H5  1  0.24424300  0.31316600  0.74388000  1
  H  H6  1  0.28105700  0.91797900  0.37640900  1
  H  H7  1  0.22385500  0.46576400  0.11957500  1
  H  H8  1  0.42369500  0.96088200  0.77677900  1
  H  H9  1  0.43350900  0.80019100  0.92565500  1
  H  H10  1  0.45785300  0.74241500  0.72587500  1
  H  H11  1  0.50392300  0.50999200  0.47165500  1
  H  H12  1  0.54325400  0.24770500  0.27673500  1
  H  H13  1  0.56970800  0.20440100  0.07520500  1
  H  H14  1  0.57353600  0.03318200  0.21216200  1
  H  H15  1  0.78105700  0.58202100  0.87640900  1
  H  H16  1  0.72385500  0.03423600  0.61957500  1
  H  H17  1  0.75711900  0.69499100  0.25499700  1
  H  H18  1  0.74424300  0.18683400  0.24388000  1
  H  H19  1  0.92369500  0.53911800  0.27677900  1
  H  H20  1  0.93350900  0.69980900  0.42565500  1
  H  H21  1  0.95785300  0.75758500  0.22587500  1
  S  S0  1  0.09901000  0.17496900  0.24772100  1
  S  S1  1  0.59901000  0.32503100  0.74772100  1
  N  N0  1  0.10788200  0.33177300  0.70376900  1
  N  N1  1  0.39274000  0.82740000  0.79420200  1
  N  N2  1  0.60788200  0.16822700  0.20376900  1
  N  N3  1  0.89274000  0.67260000  0.29420200  1
  O  O0  1  0.01627300  0.96979100  0.84571800  1
  O  O1  1  0.01518100  0.69184200  0.66065100  1
  O  O2  1  0.18713600  0.26962300  0.12264400  1
  O  O3  1  0.23702300  0.10129600  0.39273300  1
  O  O4  1  0.25575100  0.59747600  0.09979000  1
  O  O5  1  0.30776900  0.77859000  0.37922500  1
  O  O6  1  0.48133400  0.20145600  0.82191400  1
  O  O7  1  0.48912900  0.47572700  0.65658600  1
  O  O8  1  0.51627300  0.53020900  0.34571800  1
  O  O9  1  0.51518100  0.80815800  0.16065100  1
  O  O10  1  0.68713600  0.23037700  0.62264400  1
  O  O11  1  0.73702300  0.39870400  0.89273300  1
  O  O12  1  0.75575100  0.90252400  0.59979000  1
  O  O13  1  0.80776900  0.72141000  0.87922500  1
  O  O14  1  0.98133400  0.29854400  0.32191400  1
  O  O15  1  0.98912900  0.02427300  0.15658600  1
loop_
_geom_bond_atom_site_label_1
_geom_bond_atom_site_label_2
_geom_bond_distance
_geom_bond_site_symmetry_2
H0 O0 1.034734 1_555
H0 O15 1.517581 1_466
H1 N0 1.026028 1_555
H2 N0 1.037752 1_555
H3 N0 1.048986 1_555
H4 N1 1.034934 1_555
H5 N0 1.036785 1_555
H6 O5 1.061385 1_555
H6 O3 1.423791 1_565
H7 O4 1.034413 1_555
H7 O2 1.494331 1_555
H8 N1 1.041597 1_555
H9 N1 1.045550 1_555
H10 N1 1.029088 1_555
H11 O8 1.034734 1_555
H11 O7 1.517581 1_555
H12 N2 1.026028 1_555
H13 N2 1.037752 1_555
H14 N2 1.048986 1_555
H15 O13 1.061385 1_555
H15 O11 1.423791 1_555
H16 O12 1.034413 1_545
H16 O10 1.494331 1_555
H17 N3 1.034934 1_555
H18 N2 1.036785 1_555
H19 N3 1.041597 1_555
H20 N3 1.045550 1_555
H21 N3 1.029088 1_555
O0 P1 1.578023 1_455
O1 P1 1.511994 1_455
O2 S0 1.490169 1_555
O3 S0 1.497756 1_555
O4 P0 1.575174 1_555
O5 P0 1.560087 1_555
O6 S1 1.494546 1_555
O7 S1 1.499888 1_555
O8 P0 1.578023 1_555
O9 P0 1.511994 1_555
O10 S1 1.490169 1_555
O11 S1 1.497756 1_555
O12 P1 1.575174 1_555
O13 P1 1.560087 1_555
O14 S0 1.494546 1_655
O15 S0 1.499888 1_655
