# generated using pymatgen
data_KBaCeWO6
_symmetry_space_group_name_H-M   'P 1'
_cell_length_a   8.53236485
_cell_length_b   8.56702913
_cell_length_c   8.55517102
_cell_angle_alpha   90.00000000
_cell_angle_beta   90.00000000
_cell_angle_gamma   90.00000000
_symmetry_Int_Tables_number   1
_chemical_formula_structural   KBaCeWO6
_chemical_formula_sum   'K4 Ba4 Ce4 W4 O24'
_cell_volume   625.35749190
_cell_formula_units_Z   4
loop_
 _symmetry_equiv_pos_site_id
 _symmetry_equiv_pos_as_xyz
  1  'x, y, z'
loop_
 _atom_site_type_symbol
 _atom_site_label
 _atom_site_symmetry_multiplicity
 _atom_site_fract_x
 _atom_site_fract_y
 _atom_site_fract_z
 _atom_site_occupancy
  K  K0  1  -0.00000000  0.50000000  0.50000000  1
  K  K1  1  0.50000000  0.50000000  -0.00000000  1
  K  K2  1  0.50000000  -0.00000000  0.00000000  1
  K  K3  1  -0.00000000  -0.00000000  0.50000000  1
  Ba  Ba0  1  0.50000000  -0.00000000  0.50000000  1
  Ba  Ba1  1  -0.00000000  0.50000000  -0.00000000  1
  Ba  Ba2  1  -0.00000000  -0.00000000  -0.00000000  1
  Ba  Ba3  1  0.50000000  0.50000000  0.50000000  1
  Ce  Ce0  1  0.75000000  0.75000000  0.75000000  1
  Ce  Ce1  1  0.25000000  0.25000000  0.75000000  1
  Ce  Ce2  1  0.25000000  0.75000000  0.25000000  1
  Ce  Ce3  1  0.75000000  0.25000000  0.25000000  1
  W  W0  1  0.25000000  0.25000000  0.25000000  1
  W  W1  1  0.75000000  0.75000000  0.25000000  1
  W  W2  1  0.75000000  0.25000000  0.75000000  1
  W  W3  1  0.25000000  0.75000000  0.75000000  1
  O  O0  1  0.02106816  0.23893126  0.25497434  1
  O  O1  1  0.97893184  0.76106874  0.25497434  1
  O  O2  1  0.97893184  0.23893126  0.74502566  1
  O  O3  1  0.02106816  0.76106874  0.74502566  1
  O  O4  1  0.26000799  0.01018384  0.24680561  1
  O  O5  1  0.26000799  0.98981616  0.75319439  1
  O  O6  1  0.73999201  0.98981616  0.24680561  1
  O  O7  1  0.73999201  0.01018384  0.75319439  1
  O  O8  1  0.23012433  0.25305715  0.01055408  1
  O  O9  1  0.76987567  0.25305715  0.98944592  1
  O  O10  1  0.23012433  0.74694285  0.98944592  1
  O  O11  1  0.76987567  0.74694285  0.01055408  1
  O  O12  1  0.47893184  0.26106874  0.24502566  1
  O  O13  1  0.52106816  0.73893126  0.24502566  1
  O  O14  1  0.52106816  0.26106874  0.75497434  1
  O  O15  1  0.47893184  0.73893126  0.75497434  1
  O  O16  1  0.23999201  0.48981616  0.25319439  1
  O  O17  1  0.23999201  0.51018384  0.74680561  1
  O  O18  1  0.76000799  0.51018384  0.25319439  1
  O  O19  1  0.76000799  0.48981616  0.74680561  1
  O  O20  1  0.26987567  0.24694285  0.48944592  1
  O  O21  1  0.73012433  0.24694285  0.51055408  1
  O  O22  1  0.26987567  0.75305715  0.51055408  1
  O  O23  1  0.73012433  0.75305715  0.48944592  1
loop_
_geom_bond_atom_site_label_1
_geom_bond_atom_site_label_2
_geom_bond_distance
_geom_bond_site_symmetry_2
K0 O16 2.942612 1_555
K0 O17 2.942612 1_555
K0 O18 2.942612 1_455
K0 O19 2.942612 1_455
K0 O1 3.070640 1_455
K0 O0 3.070640 1_555
K0 O2 3.070640 1_455
K0 O3 3.070640 1_555
K0 O23 3.163934 1_455
K0 O20 3.163934 1_555
K0 O21 3.163934 1_455
K0 O22 3.163934 1_555
K1 O14 2.935379 1_554
K1 O15 2.935379 1_554
K1 O12 2.935379 1_555
K1 O13 2.935379 1_555
K1 O17 3.101832 1_554
K1 O18 3.101832 1_555
K1 O16 3.101832 1_555
K1 O19 3.101832 1_554
K1 O8 3.128274 1_555
K1 O9 3.128274 1_554
K1 O11 3.128274 1_555
K1 O10 3.128274 1_554
K2 O5 2.942612 1_544
K2 O4 2.942612 1_555
K2 O6 2.942612 1_545
K2 O7 2.942612 1_554
K2 O14 3.070640 1_554
K2 O15 3.070640 1_544
K2 O13 3.070640 1_545
K2 O12 3.070640 1_555
K2 O11 3.163934 1_545
K2 O10 3.163934 1_544
K2 O8 3.163934 1_555
K2 O9 3.163934 1_554
K3 O1 2.935379 1_445
K3 O0 2.935379 1_555
K3 O2 2.935379 1_455
K3 O3 2.935379 1_545
K3 O6 3.101832 1_445
K3 O7 3.101832 1_455
K3 O5 3.101832 1_545
K3 O4 3.101832 1_555
K3 O20 3.128274 1_555
K3 O23 3.128274 1_445
K3 O22 3.128274 1_545
K3 O21 3.128274 1_455
Ba0 O23 2.887754 1_545
Ba0 O22 2.887754 1_545
Ba0 O20 2.887754 1_555
Ba0 O21 2.887754 1_555
Ba0 O7 2.982074 1_555
Ba0 O5 2.982074 1_545
Ba0 O4 2.982074 1_555
Ba0 O6 2.982074 1_545
Ba0 O15 3.129362 1_545
Ba0 O14 3.129362 1_555
Ba0 O13 3.129362 1_545
Ba0 O12 3.129362 1_555
Ba1 O9 2.887754 1_454
Ba1 O8 2.887754 1_555
Ba1 O11 2.887754 1_455
Ba1 O10 2.887754 1_554
Ba1 O19 2.982074 1_454
Ba1 O16 2.982074 1_555
Ba1 O17 2.982074 1_554
Ba1 O18 2.982074 1_455
Ba1 O2 3.129362 1_454
Ba1 O3 3.129362 1_554
Ba1 O0 3.129362 1_555
Ba1 O1 3.129362 1_455
Ba2 O11 2.926346 1_445
Ba2 O9 2.926346 1_454
Ba2 O8 2.926346 1_555
Ba2 O10 2.926346 1_544
Ba2 O3 2.996752 1_544
Ba2 O1 2.996752 1_445
Ba2 O2 2.996752 1_454
Ba2 O0 2.996752 1_555
Ba2 O5 3.063912 1_544
Ba2 O7 3.063912 1_454
Ba2 O6 3.063912 1_445
Ba2 O4 3.063912 1_555
Ba3 O22 2.926346 1_555
Ba3 O20 2.926346 1_555
Ba3 O23 2.926346 1_555
Ba3 O21 2.926346 1_555
Ba3 O14 2.996752 1_555
Ba3 O15 2.996752 1_555
Ba3 O12 2.996752 1_555
Ba3 O13 2.996752 1_555
Ba3 O19 3.063912 1_555
Ba3 O16 3.063912 1_555
Ba3 O17 3.063912 1_555
Ba3 O18 3.063912 1_555
Ce0 O19 2.230805 1_555
Ce0 O7 2.230805 1_565
Ce0 O11 2.235680 1_556
Ce0 O23 2.235680 1_555
Ce0 O15 2.315187 1_555
Ce0 O3 2.315187 1_655
Ce1 O5 2.230805 1_545
Ce1 O17 2.230805 1_555
Ce1 O8 2.235680 1_556
Ce1 O20 2.235680 1_555
Ce1 O14 2.315187 1_555
Ce1 O2 2.315187 1_455
Ce2 O16 2.230805 1_555
Ce2 O4 2.230805 1_565
Ce2 O10 2.235680 1_554
Ce2 O22 2.235680 1_555
Ce2 O13 2.315187 1_555
Ce2 O1 2.315187 1_455
Ce3 O6 2.230805 1_545
Ce3 O18 2.230805 1_555
Ce3 O21 2.235680 1_555
Ce3 O9 2.235680 1_554
Ce3 O12 2.315187 1_555
Ce3 O0 2.315187 1_655
O0 W0 1.956093 1_555
O1 W1 1.956093 1_555
O2 W2 1.956093 1_555
O3 W3 1.956093 1_555
O4 W0 2.056467 1_555
O5 W3 2.056467 1_555
O6 W1 2.056467 1_555
O7 W2 2.056467 1_555
O8 W0 2.055675 1_555
O9 W2 2.055675 1_555
O10 W3 2.055675 1_555
O11 W1 2.055675 1_555
O12 W0 1.956093 1_555
O13 W1 1.956093 1_555
O14 W2 1.956093 1_555
O15 W3 1.956093 1_555
O16 W0 2.056467 1_555
O17 W3 2.056467 1_555
O18 W1 2.056467 1_555
O19 W2 2.056467 1_555
O20 W0 2.055675 1_555
O21 W2 2.055675 1_555
O22 W3 2.055675 1_555
O23 W1 2.055675 1_555
