# generated using pymatgen
data_CoCuCO5
_symmetry_space_group_name_H-M   'P 1'
_cell_length_a   2.97912300
_cell_length_b   9.13986728
_cell_length_c   11.88798916
_cell_angle_alpha   89.97808125
_cell_angle_beta   95.62275916
_cell_angle_gamma   90.54487141
_symmetry_Int_Tables_number   1
_chemical_formula_structural   CoCuCO5
_chemical_formula_sum   'Co4 Cu4 C4 O20'
_cell_volume   322.12348917
_cell_formula_units_Z   4
loop_
 _symmetry_equiv_pos_site_id
 _symmetry_equiv_pos_as_xyz
  1  'x, y, z'
loop_
 _atom_site_type_symbol
 _atom_site_label
 _atom_site_symmetry_multiplicity
 _atom_site_fract_x
 _atom_site_fract_y
 _atom_site_fract_z
 _atom_site_occupancy
  Co  Co0  1  0.40905500  0.76296700  0.62126700  1
  Co  Co1  1  0.59094500  0.23703300  0.37873300  1
  Co  Co2  1  0.41542900  0.73002200  0.12131000  1
  Co  Co3  1  0.58457100  0.26997800  0.87869000  1
  Cu  Cu0  1  0.01411100  0.00354500  0.78098100  1
  Cu  Cu1  1  0.98588900  0.99645500  0.21901900  1
  Cu  Cu2  1  0.01190600  0.49875800  0.29130800  1
  Cu  Cu3  1  0.98809400  0.50124200  0.70869200  1
  C  C0  1  0.38514000  0.73371200  0.86644800  1
  C  C1  1  0.61486000  0.26628800  0.13355200  1
  C  C2  1  0.38777700  0.77013300  0.37945000  1
  C  C3  1  0.61222300  0.22986700  0.62055000  1
  O  O0  1  0.42093500  0.87559000  0.86628700  1
  O  O1  1  0.57906500  0.12441000  0.13371300  1
  O  O2  1  0.43063200  0.62826200  0.37645700  1
  O  O3  1  0.56936800  0.37173800  0.62354300  1
  O  O4  1  0.39642400  0.66473800  0.76625900  1
  O  O5  1  0.60357600  0.33526200  0.23374100  1
  O  O6  1  0.38576400  0.84099200  0.28208900  1
  O  O7  1  0.61423600  0.15900800  0.71791100  1
  O  O8  1  0.36569300  0.65823600  0.95318700  1
  O  O9  1  0.63430700  0.34176400  0.04681300  1
  O  O10  1  0.37343700  0.84187200  0.46961000  1
  O  O11  1  0.62656300  0.15812800  0.53039000  1
  O  O12  1  0.93406900  0.88780500  0.65317400  1
  O  O13  1  0.06593100  0.11219500  0.34682600  1
  O  O14  1  0.93231000  0.60992000  0.15956100  1
  O  O15  1  0.06769000  0.39008000  0.84043900  1
  O  O16  1  0.89612500  0.63658500  0.58905400  1
  O  O17  1  0.10387500  0.36341500  0.41094600  1
  O  O18  1  0.90763100  0.86436200  0.09494300  1
  O  O19  1  0.09236900  0.13563800  0.90505700  1
loop_
_geom_bond_atom_site_label_1
_geom_bond_atom_site_label_2
_geom_bond_distance
_geom_bond_site_symmetry_2
Co0 O12 1.893231 1_455
Co0 O16 1.915221 1_455
Co0 O16 1.930690 1_555
Co0 O12 1.934489 1_555
Co0 O10 1.935141 1_555
Co0 O4 1.946628 1_555
Co1 O13 1.893231 1_655
Co1 O17 1.915221 1_655
Co1 O17 1.930690 1_555
Co1 O13 1.934489 1_555
Co1 O11 1.935141 1_555
Co1 O5 1.946628 1_555
Co2 O14 1.892373 1_455
Co2 O14 1.917670 1_555
Co2 O18 1.952311 1_555
Co2 O18 1.958704 1_455
Co2 O8 2.094790 1_554
Co2 O6 2.173941 1_555
Co3 O15 1.892373 1_655
Co3 O15 1.917670 1_555
Co3 O19 1.952311 1_555
Co3 O19 1.958704 1_655
Co3 O9 2.094790 1_556
Co3 O7 2.173941 1_555
Cu0 O12 1.846570 1_445
Cu0 O19 1.901643 1_555
Cu0 O0 1.910560 1_545
Cu0 O7 1.963834 1_455
Cu0 O0 2.414519 1_445
Cu0 O7 2.447671 1_555
Cu1 O13 1.846570 1_665
Cu1 O18 1.901643 1_555
Cu1 O1 1.910560 1_565
Cu1 O6 1.963834 1_655
Cu1 O1 2.414519 1_665
Cu1 O6 2.447671 1_555
Cu2 O14 1.863354 1_455
Cu2 O17 1.885956 1_555
Cu2 O2 1.925401 1_555
Cu2 O5 1.996055 1_455
Cu2 O2 2.409940 1_455
Cu2 O5 2.468925 1_555
Cu3 O15 1.863354 1_655
Cu3 O16 1.885956 1_555
Cu3 O3 1.925401 1_555
Cu3 O4 1.996055 1_655
Cu3 O3 2.409940 1_655
Cu3 O4 2.468925 1_555
C0 O8 1.246160 1_555
C0 O0 1.300128 1_555
C0 O4 1.351282 1_555
C1 O9 1.246160 1_555
C1 O1 1.300128 1_555
C1 O5 1.351282 1_555
C2 O10 1.261186 1_555
C2 O2 1.305000 1_555
C2 O6 1.325614 1_555
C3 O11 1.261186 1_555
C3 O3 1.305000 1_555
C3 O7 1.325614 1_555
