# generated using pymatgen
data_Al2S3
_symmetry_space_group_name_H-M   'P 1'
_cell_length_a   6.48800212
_cell_length_b   6.48800212
_cell_length_c   7.02395419
_cell_angle_alpha   63.09641582
_cell_angle_beta   63.09641582
_cell_angle_gamma   59.71510286
_symmetry_Int_Tables_number   1
_chemical_formula_structural   Al2S3
_chemical_formula_sum   'Al4 S6'
_cell_volume   217.81180719
_cell_formula_units_Z   2
loop_
 _symmetry_equiv_pos_site_id
 _symmetry_equiv_pos_as_xyz
  1  'x, y, z'
loop_
 _atom_site_type_symbol
 _atom_site_label
 _atom_site_symmetry_multiplicity
 _atom_site_fract_x
 _atom_site_fract_y
 _atom_site_fract_z
 _atom_site_occupancy
  Al  Al0  1  0.18058450  0.98821082  0.49635461  1
  Al  Al1  1  0.80992482  0.67441087  0.50977515  1
  Al  Al2  1  0.98821082  0.18058450  0.99635461  1
  Al  Al3  1  0.67441087  0.80992482  0.00977515  1
  S  S0  1  0.29715332  0.11983212  0.11395330  1
  S  S1  1  0.95691557  0.80041750  0.12624604  1
  S  S2  1  0.63520551  0.45431897  0.12862690  1
  S  S3  1  0.11983212  0.29715332  0.61395330  1
  S  S4  1  0.80041750  0.95691557  0.62624604  1
  S  S5  1  0.45431897  0.63520551  0.62862690  1
loop_
_geom_bond_atom_site_label_1
_geom_bond_atom_site_label_2
_geom_bond_distance
_geom_bond_site_symmetry_2
Al0 S5 2.174358 1_555
Al0 S0 2.291927 1_565
Al0 S4 2.293102 1_455
Al0 S3 2.293947 1_565
Al1 S5 2.177465 1_555
Al1 S4 2.286886 1_555
Al1 S1 2.302869 1_555
Al1 S3 2.305674 1_655
Al2 S2 2.174358 1_556
Al2 S3 2.291927 1_655
Al2 S1 2.293102 1_546
Al2 S0 2.293947 1_656
Al3 S2 2.177465 1_555
Al3 S1 2.286886 1_555
Al3 S4 2.302869 1_554
Al3 S0 2.305674 1_565
