# generated using pymatgen
data_LuAl7Au3
_symmetry_space_group_name_H-M   'P 1'
_cell_length_a   8.35540751
_cell_length_b   8.35540751
_cell_length_c   8.35540714
_cell_angle_alpha   57.26987934
_cell_angle_beta   57.26987934
_cell_angle_gamma   57.26987661
_symmetry_Int_Tables_number   1
_chemical_formula_structural   LuAl7Au3
_chemical_formula_sum   'Lu2 Al14 Au6'
_cell_volume   386.53595528
_cell_formula_units_Z   2
loop_
 _symmetry_equiv_pos_site_id
 _symmetry_equiv_pos_as_xyz
  1  'x, y, z'
loop_
 _atom_site_type_symbol
 _atom_site_label
 _atom_site_symmetry_multiplicity
 _atom_site_fract_x
 _atom_site_fract_y
 _atom_site_fract_z
 _atom_site_occupancy
  Lu  Lu0  1  0.00000000  -0.00000000  -0.00000000  1
  Lu  Lu1  1  0.50000000  0.50000000  0.50000000  1
  Al  Al0  1  0.93167827  0.14710527  0.33250964  1
  Al  Al1  1  0.33250964  0.93167827  0.14710527  1
  Al  Al2  1  0.14710527  0.33250964  0.93167827  1
  Al  Al3  1  0.56832173  0.16749036  0.35289473  1
  Al  Al4  1  0.35289473  0.56832173  0.16749036  1
  Al  Al5  1  0.16749036  0.35289473  0.56832173  1
  Al  Al6  1  0.06832173  0.85289473  0.66749036  1
  Al  Al7  1  0.66749036  0.06832173  0.85289473  1
  Al  Al8  1  0.75000000  0.75000000  0.75000000  1
  Al  Al9  1  0.25000000  0.25000000  0.25000000  1
  Al  Al10  1  0.83250964  0.64710527  0.43167827  1
  Al  Al11  1  0.64710527  0.43167827  0.83250964  1
  Al  Al12  1  0.43167827  0.83250964  0.64710527  1
  Al  Al13  1  0.85289473  0.66749036  0.06832173  1
  Au  Au0  1  0.25000000  0.57611657  0.92388343  1
  Au  Au1  1  0.92388343  0.25000000  0.57611657  1
  Au  Au2  1  0.57611657  0.92388343  0.25000000  1
  Au  Au3  1  0.75000000  0.42388343  0.07611657  1
  Au  Au4  1  0.07611657  0.75000000  0.42388343  1
  Au  Au5  1  0.42388343  0.07611657  0.75000000  1
loop_
_geom_bond_atom_site_label_1
_geom_bond_atom_site_label_2
_geom_bond_distance
_geom_bond_site_symmetry_2
Al0 Au1 2.564131 1_555
Al0 Au3 2.569986 1_555
Al0 Au4 2.641082 1_645
Al0 Al1 2.782512 1_645
Al0 Al2 2.782512 1_654
Al0 Al9 2.852614 1_655
Al0 Al6 2.856692 1_645
Al0 Al3 2.861516 1_555
Al0 Lu0 3.282410 1_655
Al0 Lu1 3.341461 1_555
Al1 Au2 2.564131 1_555
Al1 Au4 2.569986 1_555
Al1 Au5 2.641081 1_564
Al1 Al2 2.782512 1_564
Al1 Al9 2.852614 1_565
Al1 Al7 2.856692 1_564
Al1 Al4 2.861516 1_555
Al1 Lu0 3.282410 1_565
Al1 Lu1 3.341461 1_555
Al2 Au0 2.564131 1_555
Al2 Au5 2.569986 1_555
Al2 Au3 2.641082 1_456
Al2 Al9 2.852614 1_556
Al2 Al5 2.861516 1_555
Al2 Lu0 3.282410 1_556
Al2 Lu1 3.341461 1_555
Al3 Au2 2.564131 1_545
Al3 Au3 2.569986 1_555
Al3 Au5 2.641081 1_555
Al3 Al4 2.782512 1_555
Al3 Al5 2.782512 1_555
Al3 Al9 2.852614 1_555
Al3 Lu1 3.282410 1_555
Al3 Lu0 3.341461 1_655
Al4 Au0 2.564131 1_554
Al4 Au4 2.569986 1_555
Al4 Au3 2.641082 1_555
Al4 Al5 2.782512 1_555
Al4 Al9 2.852614 1_555
Al4 Lu1 3.282410 1_555
Al4 Lu0 3.341461 1_565
Al5 Au1 2.564131 1_455
Al5 Au5 2.569986 1_555
Al5 Au4 2.641082 1_555
Al5 Al9 2.852614 1_555
Al5 Lu1 3.282410 1_555
Al5 Lu0 3.341461 1_556
Al6 Au4 2.564131 1_555
Al6 Au0 2.569986 1_555
Al6 Au1 2.641082 1_465
Al6 Al7 2.782512 1_465
Al6 Al8 2.852614 1_455
Al6 Lu0 3.282410 1_566
Al6 Lu1 3.341461 1_555
Al7 Au5 2.564131 1_555
Al7 Au1 2.569986 1_555
Al7 Au2 2.641081 1_546
Al7 Al8 2.852614 1_545
Al7 Lu0 3.282410 1_656
Al7 Lu1 3.341461 1_555
Al8 Au5 2.611632 1_565
Al8 Au3 2.611632 1_556
Al8 Au4 2.611632 1_655
Al9 Au2 2.611632 1_545
Al9 Au0 2.611632 1_554
Al9 Au1 2.611632 1_455
Al10 Au4 2.564131 1_655
Al10 Au2 2.569986 1_555
Al10 Au1 2.641082 1_555
Al10 Al12 2.782512 1_555
Al10 Al11 2.782512 1_555
Al10 Al8 2.852614 1_555
Al10 Al5 2.856692 1_655
Al10 Al13 2.861516 1_555
Al10 Lu1 3.282410 1_555
Al10 Lu0 3.341461 1_665
Al11 Au3 2.564131 1_556
Al11 Au1 2.569986 1_555
Al11 Au0 2.641082 1_555
Al11 Al12 2.782512 1_555
Al11 Al8 2.852614 1_555
Al11 Al4 2.856692 1_556
Al11 Al7 2.861516 1_555
Al11 Lu1 3.282410 1_555
Al11 Lu0 3.341461 1_656
Al12 Au5 2.564131 1_565
Al12 Au0 2.569986 1_555
Al12 Au2 2.641081 1_555
Al12 Al8 2.852614 1_555
Al12 Al3 2.856692 1_565
Al12 Al6 2.861516 1_555
Al12 Lu1 3.282410 1_555
Al12 Lu0 3.341461 1_566
Al13 Au3 2.564131 1_555
Al13 Au2 2.569986 1_555
Al13 Au0 2.641082 1_654
Al13 Al7 2.782512 1_564
Al13 Al6 2.782512 1_654
Al13 Al8 2.852614 1_554
Al13 Al2 2.856692 1_654
Al13 Lu0 3.282410 1_665
Al13 Lu1 3.341461 1_555
Au0 Lu1 3.211021 1_555
Au0 Lu0 3.211021 1_566
Au1 Lu0 3.211021 1_656
Au1 Lu1 3.211021 1_555
Au2 Lu0 3.211021 1_665
Au2 Lu1 3.211021 1_555
Au3 Lu1 3.211021 1_555
Au3 Lu0 3.211021 1_655
Au4 Lu0 3.211021 1_565
Au4 Lu1 3.211021 1_555
Au5 Lu1 3.211021 1_555
Au5 Lu0 3.211021 1_556
