# generated using pymatgen
data_MgTi
_symmetry_space_group_name_H-M   'P 1'
_cell_length_a   5.97019032
_cell_length_b   5.97019032
_cell_length_c   30.29534000
_cell_angle_alpha   90.00000000
_cell_angle_beta   90.00000000
_cell_angle_gamma   119.99998141
_symmetry_Int_Tables_number   1
_chemical_formula_structural   MgTi
_chemical_formula_sum   'Mg24 Ti24'
_cell_volume   935.15348392
_cell_formula_units_Z   24
loop_
 _symmetry_equiv_pos_site_id
 _symmetry_equiv_pos_as_xyz
  1  'x, y, z'
loop_
 _atom_site_type_symbol
 _atom_site_label
 _atom_site_symmetry_multiplicity
 _atom_site_fract_x
 _atom_site_fract_y
 _atom_site_fract_z
 _atom_site_occupancy
  Mg  Mg0_0  1  0.00000000  0.00000000  0.49714800  1
  Mg  Mg0_1  1  0.00000000  0.00000000  0.99714800  1
  Mg  Mg0_2  1  0.00000000  0.50000000  0.49714800  1
  Mg  Mg0_3  1  0.00000000  0.50000000  0.99714800  1
  Mg  Mg0_4  1  0.50000000  0.00000000  0.49714800  1
  Mg  Mg0_5  1  0.50000000  0.00000000  0.99714800  1
  Mg  Mg0_6  1  0.50000000  0.50000000  0.49714800  1
  Mg  Mg0_7  1  0.50000000  0.50000000  0.99714800  1
  Mg  Mg1_0  1  0.33333350  0.16666650  0.25463450  1
  Mg  Mg1_1  1  0.33333350  0.16666650  0.75463450  1
  Mg  Mg1_2  1  0.33333350  0.66666650  0.25463450  1
  Mg  Mg1_3  1  0.33333350  0.66666650  0.75463450  1
  Mg  Mg1_4  1  0.83333350  0.16666650  0.25463450  1
  Mg  Mg1_5  1  0.83333350  0.16666650  0.75463450  1
  Mg  Mg1_6  1  0.83333350  0.66666650  0.25463450  1
  Mg  Mg1_7  1  0.83333350  0.66666650  0.75463450  1
  Mg  Mg2_0  1  0.00000000  0.00000000  0.16601550  1
  Mg  Mg2_1  1  0.00000000  0.00000000  0.66601550  1
  Mg  Mg2_2  1  0.00000000  0.50000000  0.16601550  1
  Mg  Mg2_3  1  0.00000000  0.50000000  0.66601550  1
  Mg  Mg2_4  1  0.50000000  0.00000000  0.16601550  1
  Mg  Mg2_5  1  0.50000000  0.00000000  0.66601550  1
  Mg  Mg2_6  1  0.50000000  0.50000000  0.16601550  1
  Mg  Mg2_7  1  0.50000000  0.50000000  0.66601550  1
  Ti  Ti0_0  1  0.33333350  0.16666650  0.41062650  1
  Ti  Ti0_1  1  0.33333350  0.16666650  0.91062650  1
  Ti  Ti0_2  1  0.33333350  0.66666650  0.41062650  1
  Ti  Ti0_3  1  0.33333350  0.66666650  0.91062650  1
  Ti  Ti0_4  1  0.83333350  0.16666650  0.41062650  1
  Ti  Ti0_5  1  0.83333350  0.16666650  0.91062650  1
  Ti  Ti0_6  1  0.83333350  0.66666650  0.41062650  1
  Ti  Ti0_7  1  0.83333350  0.66666650  0.91062650  1
  Ti  Ti1_0  1  0.00000000  0.00000000  0.33883050  1
  Ti  Ti1_1  1  0.00000000  0.00000000  0.83883050  1
  Ti  Ti1_2  1  0.00000000  0.50000000  0.33883050  1
  Ti  Ti1_3  1  0.00000000  0.50000000  0.83883050  1
  Ti  Ti1_4  1  0.50000000  0.00000000  0.33883050  1
  Ti  Ti1_5  1  0.50000000  0.00000000  0.83883050  1
  Ti  Ti1_6  1  0.50000000  0.50000000  0.33883050  1
  Ti  Ti1_7  1  0.50000000  0.50000000  0.83883050  1
  Ti  Ti2_0  1  0.33333350  0.16666650  0.08274550  1
  Ti  Ti2_1  1  0.33333350  0.16666650  0.58274550  1
  Ti  Ti2_2  1  0.33333350  0.66666650  0.08274550  1
  Ti  Ti2_3  1  0.33333350  0.66666650  0.58274550  1
  Ti  Ti2_4  1  0.83333350  0.16666650  0.08274550  1
  Ti  Ti2_5  1  0.83333350  0.16666650  0.58274550  1
  Ti  Ti2_6  1  0.83333350  0.66666650  0.08274550  1
  Ti  Ti2_7  1  0.83333350  0.66666650  0.58274550  1
loop_
_geom_bond_atom_site_label_1
_geom_bond_atom_site_label_2
_geom_bond_distance
_geom_bond_site_symmetry_2
Mg0_0 Mg0_4 2.985095 1_555
Mg0_0 Mg0_2 2.985095 1_555
Mg0_0 Mg0_2 2.985095 1_545
Mg0_0 Mg0_4 2.985095 1_455
Mg0_0 Mg0_6 2.985096 1_555
Mg0_0 Mg0_6 2.985096 1_445
Mg0_0 Ti2_5 3.113675 1_455
Mg0_0 Ti2_1 3.113677 1_555
Mg0_0 Ti2_7 3.113677 1_445
Mg0_0 Ti0_4 3.137027 1_455
Mg0_0 Ti0_0 3.137029 1_555
Mg0_0 Ti0_6 3.137029 1_445
Mg0_1 Mg0_5 2.985095 1_555
Mg0_1 Mg0_5 2.985095 1_455
Mg0_1 Mg0_3 2.985095 1_545
Mg0_1 Mg0_3 2.985095 1_555
Mg0_1 Mg0_7 2.985096 1_555
Mg0_1 Mg0_7 2.985096 1_445
Mg0_1 Ti2_4 3.113675 1_456
Mg0_1 Ti2_0 3.113677 1_556
Mg0_1 Ti2_6 3.113677 1_446
Mg0_1 Ti0_5 3.137027 1_455
Mg0_1 Ti0_1 3.137029 1_555
Mg0_1 Ti0_7 3.137029 1_445
Mg0_2 Mg0_6 2.985095 1_455
Mg0_2 Mg0_6 2.985095 1_555
Mg0_2 Mg0_4 2.985096 1_565
Mg0_2 Mg0_4 2.985096 1_455
Mg0_2 Ti2_7 3.113675 1_455
Mg0_2 Ti2_3 3.113677 1_555
Mg0_2 Ti2_5 3.113677 1_455
Mg0_2 Ti0_6 3.137027 1_455
Mg0_2 Ti0_2 3.137029 1_555
Mg0_2 Ti0_4 3.137029 1_455
Mg0_3 Mg0_7 2.985095 1_455
Mg0_3 Mg0_7 2.985095 1_555
Mg0_3 Mg0_5 2.985096 1_565
Mg0_3 Mg0_5 2.985096 1_455
Mg0_3 Ti2_6 3.113675 1_456
Mg0_3 Ti2_2 3.113677 1_556
Mg0_3 Ti2_4 3.113677 1_456
Mg0_3 Ti0_7 3.137027 1_455
Mg0_3 Ti0_3 3.137029 1_555
Mg0_3 Ti0_5 3.137029 1_455
Mg0_4 Mg0_6 2.985095 1_555
Mg0_4 Mg0_6 2.985095 1_545
Mg0_4 Ti2_1 3.113675 1_555
Mg0_4 Ti2_3 3.113677 1_545
Mg0_4 Ti2_5 3.113677 1_555
Mg0_4 Ti0_0 3.137027 1_555
Mg0_4 Ti0_4 3.137029 1_555
Mg0_4 Ti0_2 3.137029 1_545
Mg0_5 Mg0_7 2.985095 1_555
Mg0_5 Mg0_7 2.985095 1_545
Mg0_5 Ti2_0 3.113675 1_556
Mg0_5 Ti2_4 3.113677 1_556
Mg0_5 Ti2_2 3.113677 1_546
Mg0_5 Ti0_1 3.137027 1_555
Mg0_5 Ti0_3 3.137029 1_545
Mg0_5 Ti0_5 3.137029 1_555
Mg0_6 Ti2_3 3.113675 1_555
Mg0_6 Ti2_7 3.113677 1_555
Mg0_6 Ti2_1 3.113677 1_555
Mg0_6 Ti0_2 3.137027 1_555
Mg0_6 Ti0_6 3.137029 1_555
Mg0_6 Ti0_0 3.137029 1_555
Mg0_7 Ti2_2 3.113675 1_556
Mg0_7 Ti2_6 3.113677 1_556
Mg0_7 Ti2_0 3.113677 1_556
Mg0_7 Ti0_3 3.137027 1_555
Mg0_7 Ti0_7 3.137029 1_555
Mg0_7 Ti0_1 3.137029 1_555
Mg1_0 Mg1_2 2.985095 1_555
Mg1_0 Mg1_4 2.985095 1_455
Mg1_0 Mg1_4 2.985095 1_555
Mg1_0 Mg1_2 2.985095 1_545
Mg1_0 Mg1_6 2.985096 1_555
Mg1_0 Mg1_6 2.985096 1_445
Mg1_0 Ti1_4 3.078403 1_555
Mg1_0 Ti1_0 3.078405 1_555
Mg1_0 Ti1_6 3.078405 1_555
Mg1_0 Mg2_4 3.190314 1_555
Mg1_0 Mg2_6 3.190315 1_555
Mg1_0 Mg2_0 3.190315 1_555
Mg1_1 Mg1_5 2.985095 1_455
Mg1_1 Mg1_3 2.985095 1_555
Mg1_1 Mg1_3 2.985095 1_545
Mg1_1 Mg1_5 2.985095 1_555
Mg1_1 Mg1_7 2.985096 1_555
Mg1_1 Mg1_7 2.985096 1_445
Mg1_1 Ti1_5 3.078403 1_555
Mg1_1 Ti1_7 3.078405 1_555
Mg1_1 Ti1_1 3.078405 1_555
Mg1_1 Mg2_5 3.190314 1_555
Mg1_1 Mg2_1 3.190315 1_555
Mg1_1 Mg2_7 3.190315 1_555
Mg1_2 Mg1_6 2.985095 1_555
Mg1_2 Mg1_6 2.985095 1_455
Mg1_2 Mg1_4 2.985096 1_565
Mg1_2 Mg1_4 2.985096 1_455
Mg1_2 Ti1_6 3.078403 1_555
Mg1_2 Ti1_4 3.078405 1_565
Mg1_2 Ti1_2 3.078405 1_555
Mg1_2 Mg2_6 3.190314 1_555
Mg1_2 Mg2_2 3.190315 1_555
Mg1_2 Mg2_4 3.190315 1_565
Mg1_3 Mg1_7 2.985095 1_555
Mg1_3 Mg1_7 2.985095 1_455
Mg1_3 Mg1_5 2.985096 1_565
Mg1_3 Mg1_5 2.985096 1_455
Mg1_3 Ti1_7 3.078403 1_555
Mg1_3 Ti1_5 3.078405 1_565
Mg1_3 Ti1_3 3.078405 1_555
Mg1_3 Mg2_7 3.190314 1_555
Mg1_3 Mg2_3 3.190315 1_555
Mg1_3 Mg2_5 3.190315 1_565
Mg1_4 Mg1_6 2.985095 1_555
Mg1_4 Mg1_6 2.985095 1_545
Mg1_4 Ti1_0 3.078403 1_655
Mg1_4 Ti1_2 3.078405 1_655
Mg1_4 Ti1_4 3.078405 1_555
Mg1_4 Mg2_0 3.190314 1_655
Mg1_4 Mg2_4 3.190315 1_555
Mg1_4 Mg2_2 3.190315 1_655
Mg1_5 Mg1_7 2.985095 1_555
Mg1_5 Mg1_7 2.985095 1_545
Mg1_5 Ti1_1 3.078403 1_655
Mg1_5 Ti1_5 3.078405 1_555
Mg1_5 Ti1_3 3.078405 1_655
Mg1_5 Mg2_1 3.190314 1_655
Mg1_5 Mg2_5 3.190315 1_555
Mg1_5 Mg2_3 3.190315 1_655
Mg1_6 Ti1_2 3.078403 1_655
Mg1_6 Ti1_6 3.078405 1_555
Mg1_6 Ti1_0 3.078405 1_665
Mg1_6 Mg2_2 3.190314 1_655
Mg1_6 Mg2_6 3.190315 1_555
Mg1_6 Mg2_0 3.190315 1_665
Mg1_7 Ti1_3 3.078403 1_655
Mg1_7 Ti1_7 3.078405 1_555
Mg1_7 Ti1_1 3.078405 1_665
Mg1_7 Mg2_3 3.190314 1_655
Mg1_7 Mg2_7 3.190315 1_555
Mg1_7 Mg2_1 3.190315 1_665
Mg2_0 Mg2_4 2.985095 1_555
Mg2_0 Mg2_2 2.985095 1_555
Mg2_0 Mg2_2 2.985095 1_545
Mg2_0 Mg2_4 2.985095 1_455
Mg2_0 Mg2_6 2.985096 1_555
Mg2_0 Mg2_6 2.985096 1_445
Mg2_0 Ti2_4 3.055198 1_455
Mg2_0 Ti2_0 3.055200 1_555
Mg2_0 Ti2_6 3.055200 1_445
Mg2_1 Mg2_5 2.985095 1_555
Mg2_1 Mg2_3 2.985095 1_555
Mg2_1 Mg2_3 2.985095 1_545
Mg2_1 Mg2_5 2.985095 1_455
Mg2_1 Mg2_7 2.985096 1_555
Mg2_1 Mg2_7 2.985096 1_445
Mg2_1 Ti2_5 3.055198 1_455
Mg2_1 Ti2_1 3.055200 1_555
Mg2_1 Ti2_7 3.055200 1_445
Mg2_2 Mg2_6 2.985095 1_455
Mg2_2 Mg2_6 2.985095 1_555
Mg2_2 Mg2_4 2.985096 1_565
Mg2_2 Mg2_4 2.985096 1_455
Mg2_2 Ti2_6 3.055198 1_455
Mg2_2 Ti2_4 3.055200 1_455
Mg2_2 Ti2_2 3.055200 1_555
Mg2_3 Mg2_7 2.985095 1_555
Mg2_3 Mg2_7 2.985095 1_455
Mg2_3 Mg2_5 2.985096 1_565
Mg2_3 Mg2_5 2.985096 1_455
Mg2_3 Ti2_7 3.055198 1_455
Mg2_3 Ti2_3 3.055200 1_555
Mg2_3 Ti2_5 3.055200 1_455
Mg2_4 Mg2_6 2.985095 1_555
Mg2_4 Mg2_6 2.985095 1_545
Mg2_4 Ti2_0 3.055198 1_555
Mg2_4 Ti2_2 3.055200 1_545
Mg2_4 Ti2_4 3.055200 1_555
Mg2_5 Mg2_7 2.985095 1_555
Mg2_5 Mg2_7 2.985095 1_545
Mg2_5 Ti2_1 3.055198 1_555
Mg2_5 Ti2_5 3.055200 1_555
Mg2_5 Ti2_3 3.055200 1_545
Mg2_6 Ti2_2 3.055198 1_555
Mg2_6 Ti2_6 3.055200 1_555
Mg2_6 Ti2_0 3.055200 1_555
Mg2_7 Ti2_3 3.055198 1_555
Mg2_7 Ti2_1 3.055200 1_555
Mg2_7 Ti2_7 3.055200 1_555
Ti0_0 Ti1_4 2.775112 1_555
Ti0_0 Ti1_0 2.775114 1_555
Ti0_0 Ti1_6 2.775114 1_555
Ti0_0 Ti0_2 2.985095 1_555
Ti0_0 Ti0_4 2.985095 1_455
Ti0_0 Ti0_4 2.985095 1_555
Ti0_0 Ti0_2 2.985095 1_545
Ti0_0 Ti0_6 2.985096 1_555
Ti0_0 Ti0_6 2.985096 1_445
Ti0_1 Ti1_5 2.775112 1_555
Ti0_1 Ti1_7 2.775114 1_555
Ti0_1 Ti1_1 2.775114 1_555
Ti0_1 Ti0_5 2.985095 1_455
Ti0_1 Ti0_3 2.985095 1_555
Ti0_1 Ti0_3 2.985095 1_545
Ti0_1 Ti0_5 2.985095 1_555
Ti0_1 Ti0_7 2.985096 1_555
Ti0_1 Ti0_7 2.985096 1_445
Ti0_2 Ti1_6 2.775112 1_555
Ti0_2 Ti1_4 2.775114 1_565
Ti0_2 Ti1_2 2.775114 1_555
Ti0_2 Ti0_6 2.985095 1_555
Ti0_2 Ti0_6 2.985095 1_455
Ti0_2 Ti0_4 2.985096 1_565
Ti0_2 Ti0_4 2.985096 1_455
Ti0_3 Ti1_7 2.775112 1_555
Ti0_3 Ti1_3 2.775114 1_555
Ti0_3 Ti1_5 2.775114 1_565
Ti0_3 Ti0_7 2.985095 1_555
Ti0_3 Ti0_7 2.985095 1_455
Ti0_3 Ti0_5 2.985096 1_565
Ti0_3 Ti0_5 2.985096 1_455
Ti0_4 Ti1_0 2.775112 1_655
Ti0_4 Ti1_4 2.775114 1_555
Ti0_4 Ti1_2 2.775114 1_655
Ti0_4 Ti0_6 2.985095 1_555
Ti0_4 Ti0_6 2.985095 1_545
Ti0_5 Ti1_1 2.775112 1_655
Ti0_5 Ti1_5 2.775114 1_555
Ti0_5 Ti1_3 2.775114 1_655
Ti0_5 Ti0_7 2.985095 1_555
Ti0_5 Ti0_7 2.985095 1_545
Ti0_6 Ti1_2 2.775112 1_655
Ti0_6 Ti1_6 2.775114 1_555
Ti0_6 Ti1_0 2.775114 1_665
Ti0_7 Ti1_3 2.775112 1_655
Ti0_7 Ti1_7 2.775114 1_555
Ti0_7 Ti1_1 2.775114 1_665
Ti1_0 Ti1_4 2.985095 1_555
Ti1_0 Ti1_2 2.985095 1_545
Ti1_0 Ti1_2 2.985095 1_555
Ti1_0 Ti1_4 2.985095 1_455
Ti1_0 Ti1_6 2.985096 1_555
Ti1_0 Ti1_6 2.985096 1_445
Ti1_1 Ti1_5 2.985095 1_555
Ti1_1 Ti1_5 2.985095 1_455
Ti1_1 Ti1_3 2.985095 1_555
Ti1_1 Ti1_3 2.985095 1_545
Ti1_1 Ti1_7 2.985096 1_555
Ti1_1 Ti1_7 2.985096 1_445
Ti1_2 Ti1_6 2.985095 1_555
Ti1_2 Ti1_6 2.985095 1_455
Ti1_2 Ti1_4 2.985096 1_565
Ti1_2 Ti1_4 2.985096 1_455
Ti1_3 Ti1_7 2.985095 1_455
Ti1_3 Ti1_7 2.985095 1_555
Ti1_3 Ti1_5 2.985096 1_565
Ti1_3 Ti1_5 2.985096 1_455
Ti1_4 Ti1_6 2.985095 1_555
Ti1_4 Ti1_6 2.985095 1_545
Ti1_5 Ti1_7 2.985095 1_555
Ti1_5 Ti1_7 2.985095 1_545
Ti2_0 Ti2_2 2.985095 1_555
Ti2_0 Ti2_4 2.985095 1_455
Ti2_0 Ti2_2 2.985095 1_545
Ti2_0 Ti2_4 2.985095 1_555
Ti2_0 Ti2_6 2.985096 1_555
Ti2_0 Ti2_6 2.985096 1_445
Ti2_1 Ti2_3 2.985095 1_555
Ti2_1 Ti2_5 2.985095 1_455
Ti2_1 Ti2_3 2.985095 1_545
Ti2_1 Ti2_5 2.985095 1_555
Ti2_1 Ti2_7 2.985096 1_555
Ti2_1 Ti2_7 2.985096 1_445
Ti2_2 Ti2_6 2.985095 1_555
Ti2_2 Ti2_6 2.985095 1_455
Ti2_2 Ti2_4 2.985096 1_565
Ti2_2 Ti2_4 2.985096 1_455
Ti2_3 Ti2_7 2.985095 1_555
Ti2_3 Ti2_7 2.985095 1_455
Ti2_3 Ti2_5 2.985096 1_565
Ti2_3 Ti2_5 2.985096 1_455
Ti2_4 Ti2_6 2.985095 1_555
Ti2_4 Ti2_6 2.985095 1_545
Ti2_5 Ti2_7 2.985095 1_555
Ti2_5 Ti2_7 2.985095 1_545
