# generated using pymatgen
data_Na2UP2O9
_symmetry_space_group_name_H-M   'P 1'
_cell_length_a   7.04976600
_cell_length_b   8.28027100
_cell_length_c   13.42895400
_cell_angle_alpha   90.00000000
_cell_angle_beta   90.00000000
_cell_angle_gamma   90.00000000
_symmetry_Int_Tables_number   1
_chemical_formula_structural   Na2UP2O9
_chemical_formula_sum   'Na8 U4 P8 O36'
_cell_volume   783.90139777
_cell_formula_units_Z   4
loop_
 _symmetry_equiv_pos_site_id
 _symmetry_equiv_pos_as_xyz
  1  'x, y, z'
loop_
 _atom_site_type_symbol
 _atom_site_label
 _atom_site_symmetry_multiplicity
 _atom_site_fract_x
 _atom_site_fract_y
 _atom_site_fract_z
 _atom_site_occupancy
  Na  Na0  1  0.50769900  0.97877500  0.97234900  1
  Na  Na1  1  0.23712600  0.76779200  0.33629300  1
  Na  Na2  1  0.73712600  0.23220800  0.66370700  1
  Na  Na3  1  0.23712600  0.73220800  0.83629300  1
  Na  Na4  1  0.73712600  0.26779200  0.16370700  1
  Na  Na5  1  0.00769900  0.02122500  0.02765100  1
  Na  Na6  1  0.00769900  0.47877500  0.52765100  1
  Na  Na7  1  0.50769900  0.52122500  0.47234900  1
  U  U0  1  0.24410300  0.25189000  0.30151500  1
  U  U1  1  0.74410300  0.74811000  0.69848500  1
  U  U2  1  0.24410300  0.24811000  0.80151500  1
  U  U3  1  0.74410300  0.75189000  0.19848500  1
  P  P0  1  0.24317600  0.34631900  0.07870600  1
  P  P1  1  0.74383500  0.21175000  0.40157700  1
  P  P2  1  0.24317600  0.15368100  0.57870600  1
  P  P3  1  0.24383500  0.71175000  0.09842300  1
  P  P4  1  0.74383500  0.28825000  0.90157700  1
  P  P5  1  0.74317600  0.84631900  0.42129400  1
  P  P6  1  0.74317600  0.65368100  0.92129400  1
  P  P7  1  0.24383500  0.78825000  0.59842300  1
  O  O0  1  0.92386800  0.28138300  0.83755700  1
  O  O1  1  0.42386800  0.71861700  0.16244300  1
  O  O2  1  0.92386800  0.21861700  0.33755700  1
  O  O3  1  0.42386800  0.78138300  0.66244300  1
  O  O4  1  0.07012100  0.29939200  0.14259800  1
  O  O5  1  0.57012100  0.70060800  0.85740200  1
  O  O6  1  0.07012100  0.20060800  0.64259800  1
  O  O7  1  0.57012100  0.79939200  0.35740200  1
  O  O8  1  0.74499500  0.32874900  0.48837800  1
  O  O9  1  0.24499500  0.67125100  0.51162200  1
  O  O10  1  0.74499500  0.17125100  0.98837800  1
  O  O11  1  0.24499500  0.82874900  0.01162200  1
  O  O12  1  0.41449500  0.31577400  0.14641100  1
  O  O13  1  0.91449500  0.68422600  0.85358900  1
  O  O14  1  0.41449500  0.18422600  0.64641100  1
  O  O15  1  0.91449500  0.81577400  0.35358900  1
  O  O16  1  0.73402700  0.46651900  0.95408400  1
  O  O17  1  0.23402700  0.53348100  0.04591600  1
  O  O18  1  0.73402700  0.03348100  0.45408400  1
  O  O19  1  0.23402700  0.96651900  0.54591600  1
  O  O20  1  0.74859600  0.96275400  0.72461800  1
  O  O21  1  0.24859600  0.03724600  0.27538200  1
  O  O22  1  0.74859600  0.53724600  0.22461800  1
  O  O23  1  0.24859600  0.46275400  0.77538200  1
  O  O24  1  0.74500400  0.96865000  0.17125900  1
  O  O25  1  0.24500400  0.03135000  0.82874100  1
  O  O26  1  0.74500400  0.53135000  0.67125900  1
  O  O27  1  0.24500400  0.46865000  0.32874100  1
  O  O28  1  0.74820600  0.74596400  0.02015900  1
  O  O29  1  0.24820600  0.25403600  0.97984100  1
  O  O30  1  0.74820600  0.75403600  0.52015900  1
  O  O31  1  0.24820600  0.24596400  0.47984100  1
  O  O32  1  0.06674900  0.77056500  0.66425800  1
  O  O33  1  0.56674900  0.22943500  0.33574200  1
  O  O34  1  0.06674900  0.72943500  0.16425800  1
  O  O35  1  0.56674900  0.27056500  0.83574200  1
loop_
_geom_bond_atom_site_label_1
_geom_bond_atom_site_label_2
_geom_bond_distance
_geom_bond_site_symmetry_2
Na0 O11 2.291562 1_556
Na0 O10 2.320542 1_565
Na0 O28 2.646350 1_556
Na0 O25 2.708934 1_565
Na0 O5 2.807417 1_555
Na0 O29 2.924314 1_565
Na1 O15 2.320566 1_455
Na1 O21 2.377742 1_565
Na1 O7 2.379023 1_555
Na1 O27 2.479674 1_555
Na1 O9 2.487106 1_555
Na1 O34 2.623131 1_555
Na1 O1 2.710978 1_555
Na2 O14 2.320566 1_555
Na2 O20 2.377742 1_545
Na2 O6 2.379023 1_655
Na2 O26 2.479674 1_555
Na2 O8 2.487106 1_555
Na2 O35 2.623131 1_555
Na2 O0 2.710978 1_555
Na3 O13 2.320566 1_455
Na3 O23 2.377742 1_555
Na3 O5 2.379023 1_555
Na3 O25 2.479674 1_565
Na3 O11 2.487106 1_556
Na3 O32 2.623131 1_555
Na3 O3 2.710978 1_555
Na4 O12 2.320566 1_555
Na4 O22 2.377742 1_555
Na4 O4 2.379023 1_655
Na4 O24 2.479674 1_545
Na4 O10 2.487106 1_554
Na4 O33 2.623131 1_555
Na4 O2 2.710978 1_555
Na5 O10 2.291562 1_454
Na5 O11 2.320542 1_545
Na5 O29 2.646350 1_554
Na5 O24 2.708934 1_445
Na5 O4 2.807417 1_555
Na5 O28 2.924314 1_445
Na6 O8 2.291562 1_455
Na6 O9 2.320542 1_555
Na6 O31 2.646350 1_555
Na6 O26 2.708934 1_455
Na6 O6 2.807417 1_555
Na6 O30 2.924314 1_455
Na7 O9 2.291562 1_555
Na7 O8 2.320542 1_555
Na7 O30 2.646350 1_555
Na7 O27 2.708934 1_555
Na7 O7 2.807417 1_555
Na7 O31 2.924314 1_555
O0 P4 1.534014 1_555
O0 U2 2.325262 1_655
O1 P3 1.534014 1_555
O1 U3 2.325262 1_555
O2 P1 1.534014 1_555
O2 U0 2.325262 1_655
O3 P7 1.534014 1_555
O3 U1 2.325262 1_555
O4 P0 1.541281 1_555
O4 U0 2.492674 1_555
O5 P6 1.541281 1_555
O5 U1 2.492674 1_555
O6 P2 1.541281 1_555
O6 U2 2.492674 1_555
O7 P5 1.541281 1_555
O7 U3 2.492674 1_555
O8 P1 1.515698 1_555
O9 P7 1.515698 1_555
O10 P4 1.515698 1_555
O11 P3 1.515698 1_555
O12 P0 1.532745 1_555
O12 U0 2.461943 1_555
O13 P6 1.532745 1_555
O13 U1 2.461943 1_555
O14 P2 1.532745 1_555
O14 U2 2.461943 1_555
O15 P5 1.532745 1_555
O15 U3 2.461943 1_555
O16 P6 1.612385 1_555
O16 P4 1.637341 1_555
O17 P0 1.612385 1_555
O17 P3 1.637341 1_555
O18 P5 1.612385 1_545
O18 P1 1.637341 1_555
O19 P2 1.612385 1_565
O19 P7 1.637341 1_555
O20 U1 1.811903 1_555
O21 U0 1.811903 1_555
O22 U3 1.811903 1_555
O23 U2 1.811903 1_555
O24 U3 1.831703 1_555
O25 U2 1.831703 1_555
O26 U1 1.831703 1_555
O27 U0 1.831703 1_555
O28 P6 1.532258 1_554
O28 U3 2.395409 1_555
O29 P0 1.532258 1_556
O29 U2 2.395409 1_555
O30 P5 1.532258 1_555
O30 U1 2.395409 1_555
O31 P2 1.532258 1_555
O31 U0 2.395409 1_555
O32 P7 1.536752 1_555
O32 U1 2.327991 1_455
O33 P1 1.536752 1_555
O33 U0 2.327991 1_555
O34 P3 1.536752 1_555
O34 U3 2.327991 1_455
O35 P4 1.536752 1_555
O35 U2 2.327991 1_555
