# generated using pymatgen
data_NdMgS3
_symmetry_space_group_name_H-M   'P 1'
_cell_length_a   7.80863315
_cell_length_b   11.61294800
_cell_length_c   7.67580098
_cell_angle_alpha   90.00000000
_cell_angle_beta   127.17855274
_cell_angle_gamma   90.00000000
_symmetry_Int_Tables_number   1
_chemical_formula_structural   NdMgS3
_chemical_formula_sum   'Nd4 Mg4 S12'
_cell_volume   554.58312046
_cell_formula_units_Z   4
loop_
 _symmetry_equiv_pos_site_id
 _symmetry_equiv_pos_as_xyz
  1  'x, y, z'
loop_
 _atom_site_type_symbol
 _atom_site_label
 _atom_site_symmetry_multiplicity
 _atom_site_fract_x
 _atom_site_fract_y
 _atom_site_fract_z
 _atom_site_occupancy
  Nd  Nd0  1  0.04586100  0.00000000  0.25981000  1
  Nd  Nd1  1  0.95413900  0.00000000  0.74019000  1
  Nd  Nd2  1  0.54586100  0.50000000  0.25981000  1
  Nd  Nd3  1  0.45413900  0.50000000  0.74019000  1
  Mg  Mg0  1  0.00000000  0.33993200  0.00000000  1
  Mg  Mg1  1  0.00000000  0.66006800  0.00000000  1
  Mg  Mg2  1  0.50000000  0.83993200  0.00000000  1
  Mg  Mg3  1  0.50000000  0.16006800  0.00000000  1
  S  S0  1  0.22592300  0.15174700  0.13360000  1
  S  S1  1  0.77407700  0.84825300  0.86640000  1
  S  S2  1  0.77407700  0.15174700  0.86640000  1
  S  S3  1  0.22592300  0.84825300  0.13360000  1
  S  S4  1  0.72592300  0.65174700  0.13360000  1
  S  S5  1  0.27407700  0.34825300  0.86640000  1
  S  S6  1  0.27407700  0.65174700  0.86640000  1
  S  S7  1  0.72592300  0.34825300  0.13360000  1
  S  S8  1  0.30031400  0.00000000  0.71677300  1
  S  S9  1  0.69968600  0.00000000  0.28322700  1
  S  S10  1  0.80031400  0.50000000  0.71677300  1
  S  S11  1  0.19968600  0.50000000  0.28322700  1
loop_
_geom_bond_atom_site_label_1
_geom_bond_atom_site_label_2
_geom_bond_distance
_geom_bond_site_symmetry_2
Nd0 S0 2.768963 1_555
Nd0 S3 2.768963 1_545
Nd0 S8 2.797816 1_555
Nd0 S9 2.815418 1_455
Nd0 S2 2.997120 1_454
Nd0 S1 2.997120 1_444
Nd1 S2 2.768963 1_555
Nd1 S1 2.768963 1_545
Nd1 S9 2.797816 1_555
Nd1 S8 2.815418 1_655
Nd1 S0 2.997120 1_656
Nd1 S3 2.997120 1_646
Nd2 S4 2.768963 1_555
Nd2 S7 2.768963 1_555
Nd2 S10 2.797816 1_555
Nd2 S11 2.815418 1_555
Nd2 S6 2.997120 1_554
Nd2 S5 2.997120 1_554
Nd3 S6 2.768963 1_555
Nd3 S5 2.768963 1_555
Nd3 S11 2.797816 1_555
Nd3 S10 2.815418 1_555
Nd3 S4 2.997120 1_556
Nd3 S7 2.997120 1_556
Mg0 S10 2.552640 1_454
Mg0 S11 2.552640 1_555
Mg0 S0 2.598701 1_555
Mg0 S2 2.598701 1_454
Mg0 S5 2.879897 1_554
Mg0 S7 2.879897 1_455
Mg1 S10 2.552640 1_454
Mg1 S11 2.552640 1_555
Mg1 S3 2.598701 1_555
Mg1 S1 2.598701 1_454
Mg1 S6 2.879897 1_554
Mg1 S4 2.879897 1_455
Mg2 S9 2.552640 1_565
Mg2 S8 2.552640 1_564
Mg2 S6 2.598701 1_554
Mg2 S4 2.598701 1_555
Mg2 S1 2.879897 1_554
Mg2 S3 2.879897 1_555
Mg3 S9 2.552640 1_555
Mg3 S8 2.552640 1_554
Mg3 S7 2.598701 1_555
Mg3 S5 2.598701 1_554
Mg3 S2 2.879897 1_554
Mg3 S0 2.879897 1_555
