# generated using pymatgen
data_Cu5Ge2
_symmetry_space_group_name_H-M   'P 1'
_cell_length_a   6.99973242
_cell_length_b   6.99973242
_cell_length_c   6.99973291
_cell_angle_alpha   34.17618326
_cell_angle_beta   34.17618326
_cell_angle_gamma   34.17618256
_symmetry_Int_Tables_number   1
_chemical_formula_structural   Cu5Ge2
_chemical_formula_sum   'Cu5 Ge2'
_cell_volume   96.49458734
_cell_formula_units_Z   1
loop_
 _symmetry_equiv_pos_site_id
 _symmetry_equiv_pos_as_xyz
  1  'x, y, z'
loop_
 _atom_site_type_symbol
 _atom_site_label
 _atom_site_symmetry_multiplicity
 _atom_site_fract_x
 _atom_site_fract_y
 _atom_site_fract_z
 _atom_site_occupancy
  Cu  Cu0  1  0.74477300  0.74477300  0.74477300  1
  Cu  Cu1  1  0.25890000  0.25890000  0.25890000  1
  Cu  Cu2  1  0.87506400  0.87506400  0.87506400  1
  Cu  Cu3  1  0.12885500  0.12885500  0.12885500  1
  Cu  Cu4  1  0.62128900  0.62128900  0.62128900  1
  Ge  Ge0  1  0.00452000  0.00452000  0.00452000  1
  Ge  Ge1  1  0.49159800  0.49159800  0.49159800  1
loop_
_geom_bond_atom_site_label_1
_geom_bond_atom_site_label_2
_geom_bond_distance
_geom_bond_site_symmetry_2
Cu0 Cu4 2.439241 1_555
Cu0 Cu2 2.573703 1_555
Cu0 Cu3 2.577901 1_665
Cu0 Cu3 2.577901 1_566
Cu0 Cu3 2.577901 1_656
Cu0 Ge0 2.784521 1_656
Cu0 Ge0 2.784521 1_566
Cu0 Ge0 2.784521 1_665
Cu0 Ge1 2.854438 1_565
Cu0 Ge1 2.854438 1_655
Cu0 Ge1 2.854439 1_556
Cu1 Cu4 2.443371 1_455
Cu1 Cu4 2.443371 1_545
Cu1 Cu4 2.443371 1_554
Cu1 Cu3 2.568843 1_555
Cu1 Cu2 2.576015 1_445
Cu1 Cu2 2.576015 1_454
Cu1 Cu2 2.576015 1_544
Cu1 Ge0 2.841303 1_565
Cu1 Ge0 2.841303 1_655
Cu1 Ge0 2.841304 1_556
Cu2 Ge0 2.557208 1_666
Cu2 Ge1 2.573193 1_556
Cu2 Ge1 2.573194 1_565
Cu2 Ge1 2.573194 1_655
Cu3 Ge1 2.445023 1_545
Cu3 Ge1 2.445023 1_455
Cu3 Ge1 2.445023 1_554
Cu3 Ge0 2.456051 1_555
Cu4 Ge1 2.561850 1_555
Cu4 Ge0 2.571411 1_665
Cu4 Ge0 2.571411 1_566
Cu4 Ge0 2.571411 1_656
