# generated using pymatgen
data_BaSn3Pd
_symmetry_space_group_name_H-M   'P 1'
_cell_length_a   4.93675167
_cell_length_b   4.93675182
_cell_length_c   6.62874419
_cell_angle_alpha   111.86213096
_cell_angle_beta   111.86212816
_cell_angle_gamma   90.00001054
_symmetry_Int_Tables_number   1
_chemical_formula_structural   BaSn3Pd
_chemical_formula_sum   'Ba1 Sn3 Pd1'
_cell_volume   137.33625613
_cell_formula_units_Z   1
loop_
 _symmetry_equiv_pos_site_id
 _symmetry_equiv_pos_as_xyz
  1  'x, y, z'
loop_
 _atom_site_type_symbol
 _atom_site_label
 _atom_site_symmetry_multiplicity
 _atom_site_fract_x
 _atom_site_fract_y
 _atom_site_fract_z
 _atom_site_occupancy
  Ba  Ba0  1  0.99998907  0.99998907  0.99997715  1
  Sn  Sn0  1  0.74953906  0.24953906  0.49907812  1
  Sn  Sn1  1  0.41255522  0.41255522  0.82511043  1
  Sn  Sn2  1  0.24953906  0.74953906  0.49907812  1
  Pd  Pd0  1  0.65037758  0.65037758  0.30075617  1
loop_
_geom_bond_atom_site_label_1
_geom_bond_atom_site_label_2
_geom_bond_distance
_geom_bond_site_symmetry_2
Ba0 Sn1 3.627221 1_665
Ba0 Sn1 3.627225 1_655
Ba0 Sn1 3.627225 1_565
Ba0 Sn1 3.627228 1_555
Ba0 Sn2 3.742054 1_666
Ba0 Sn0 3.742054 1_666
Ba0 Sn0 3.742057 1_566
Ba0 Sn2 3.742057 1_656
Ba0 Sn2 3.749675 1_655
Ba0 Sn0 3.749675 1_565
Ba0 Sn0 3.749679 1_555
Ba0 Sn2 3.749679 1_555
Ba0 Pd0 3.880525 1_666
Ba0 Pd0 3.880532 1_566
Ba0 Pd0 3.880532 1_656
Ba0 Pd0 3.880537 1_556
Ba0 Pd0 3.940189 1_555
Sn0 Sn1 3.077058 1_555
Sn0 Sn1 3.077059 1_655
Sn1 Sn2 3.077058 1_555
Sn1 Sn2 3.077059 1_545
Pd0 Sn1 2.680317 1_554
Pd0 Sn2 2.709580 1_555
Pd0 Sn0 2.709580 1_555
Pd0 Sn2 2.709584 1_655
Pd0 Sn0 2.709584 1_565
