# generated using pymatgen
data_CaNdNb2O7
_symmetry_space_group_name_H-M   'P 1'
_cell_length_a   7.51613845
_cell_length_b   7.51613845
_cell_length_c   7.51613845
_cell_angle_alpha   120.46062433
_cell_angle_beta   119.58021650
_cell_angle_gamma   89.96632652
_symmetry_Int_Tables_number   1
_chemical_formula_structural   CaNdNb2O7
_chemical_formula_sum   'Ca2 Nd2 Nb4 O14'
_cell_volume   300.12563903
_cell_formula_units_Z   2
loop_
 _symmetry_equiv_pos_site_id
 _symmetry_equiv_pos_as_xyz
  1  'x, y, z'
loop_
 _atom_site_type_symbol
 _atom_site_label
 _atom_site_symmetry_multiplicity
 _atom_site_fract_x
 _atom_site_fract_y
 _atom_site_fract_z
 _atom_site_occupancy
  Ca  Ca0  1  0.50000000  0.50000000  0.50000000  1
  Ca  Ca1  1  0.50000000  0.00000000  0.00000000  1
  Nd  Nd0  1  0.50000000  0.50000000  0.00000000  1
  Nd  Nd1  1  0.00000000  0.50000000  0.50000000  1
  Nb  Nb0  1  0.00000000  0.00000000  0.50000000  1
  Nb  Nb1  1  0.00000000  0.50000000  0.00000000  1
  Nb  Nb2  1  0.00000000  0.00000000  0.00000000  1
  Nb  Nb3  1  0.50000000  0.00000000  0.50000000  1
  O  O0  1  0.31888600  0.06888600  0.25000000  1
  O  O1  1  0.91963600  0.66963600  0.25000000  1
  O  O2  1  0.32360600  0.67486700  0.24647600  1
  O  O3  1  0.92839000  0.07713000  0.25352400  1
  O  O4  1  0.32360600  0.07713000  0.64874000  1
  O  O5  1  0.92839000  0.67486700  0.85126000  1
  O  O6  1  0.68111400  0.93111400  0.75000000  1
  O  O7  1  0.08036400  0.33036400  0.75000000  1
  O  O8  1  0.67639400  0.32513300  0.75352400  1
  O  O9  1  0.07161000  0.92287000  0.74647600  1
  O  O10  1  0.67639400  0.92287000  0.35126000  1
  O  O11  1  0.07161000  0.32513300  0.14874000  1
  O  O12  1  0.37553900  0.62553900  0.75000000  1
  O  O13  1  0.62446100  0.37446100  0.25000000  1
loop_
_geom_bond_atom_site_label_1
_geom_bond_atom_site_label_2
_geom_bond_distance
_geom_bond_site_symmetry_2
Ca0 O13 2.287563 1_555
Ca0 O12 2.287563 1_555
Ca0 O11 2.675664 1_555
Ca0 O5 2.675664 1_555
Ca0 O8 2.675671 1_555
Ca0 O2 2.675671 1_555
Ca0 O0 2.681428 1_555
Ca0 O6 2.681428 1_555
Ca1 O13 2.287563 1_555
Ca1 O12 2.287563 1_544
Ca1 O4 2.675664 1_554
Ca1 O9 2.675664 1_544
Ca1 O10 2.675664 1_545
Ca1 O3 2.675664 1_555
Ca1 O0 2.681428 1_555
Ca1 O6 2.681428 1_544
Nd0 O12 2.314597 1_554
Nd0 O13 2.314597 1_555
Nd0 O1 2.613211 1_555
Nd0 O7 2.613211 1_554
Nd0 O4 2.621313 1_554
Nd0 O10 2.621313 1_555
Nd0 O8 2.621314 1_554
Nd0 O2 2.621314 1_555
Nd1 O12 2.314597 1_555
Nd1 O13 2.314597 1_455
Nd1 O1 2.613211 1_455
Nd1 O7 2.613211 1_555
Nd1 O5 2.621313 1_455
Nd1 O11 2.621313 1_555
Nd1 O3 2.621313 1_455
Nd1 O9 2.621313 1_555
Nb0 O9 2.040047 1_545
Nb0 O4 2.040047 1_555
Nb0 O10 2.040047 1_445
Nb0 O3 2.040047 1_455
Nb0 O1 2.052278 1_445
Nb0 O7 2.052278 1_555
Nb1 O2 2.040049 1_555
Nb1 O8 2.040049 1_454
Nb1 O5 2.040054 1_454
Nb1 O11 2.040054 1_555
Nb1 O7 2.052278 1_554
Nb1 O1 2.052278 1_455
Nb2 O0 2.027839 1_555
Nb2 O6 2.027839 1_444
Nb2 O11 2.036894 1_555
Nb2 O5 2.036894 1_444
Nb2 O3 2.036901 1_455
Nb2 O9 2.036901 1_544
Nb3 O0 2.027839 1_555
Nb3 O6 2.027839 1_545
Nb3 O8 2.036896 1_555
Nb3 O2 2.036896 1_545
Nb3 O10 2.036901 1_545
Nb3 O4 2.036901 1_555
