# generated using pymatgen
data_Er5SbPd2
_symmetry_space_group_name_H-M   'P 1'
_cell_length_a   8.65522450
_cell_length_b   8.65522450
_cell_length_c   8.65522450
_cell_angle_alpha   127.70323478
_cell_angle_beta   127.70323478
_cell_angle_gamma   77.10627147
_symmetry_Int_Tables_number   1
_chemical_formula_structural   Er5SbPd2
_chemical_formula_sum   'Er10 Sb2 Pd4'
_cell_volume   393.91231069
_cell_formula_units_Z   2
loop_
 _symmetry_equiv_pos_site_id
 _symmetry_equiv_pos_as_xyz
  1  'x, y, z'
loop_
 _atom_site_type_symbol
 _atom_site_label
 _atom_site_symmetry_multiplicity
 _atom_site_fract_x
 _atom_site_fract_y
 _atom_site_fract_z
 _atom_site_occupancy
  Er  Er0  1  -0.00000000  0.00000000  -0.00000000  1
  Er  Er1  1  0.50000000  0.50000000  -0.00000000  1
  Er  Er2  1  0.79818224  0.29818224  0.81116991  1
  Er  Er3  1  0.20181776  0.70181776  0.18883009  1
  Er  Er4  1  0.48701334  0.98701334  0.18883009  1
  Er  Er5  1  0.29818224  0.48701334  0.50000000  1
  Er  Er6  1  0.01298666  0.20181776  0.50000000  1
  Er  Er7  1  0.51298666  0.01298666  0.81116991  1
  Er  Er8  1  0.70181776  0.51298666  0.50000000  1
  Er  Er9  1  0.98701334  0.79818224  0.50000000  1
  Sb  Sb0  1  0.25000000  0.25000000  -0.00000000  1
  Sb  Sb1  1  0.75000000  0.75000000  -0.00000000  1
  Pd  Pd0  1  0.13708935  0.63708935  0.77417969  1
  Pd  Pd1  1  0.86291065  0.36291065  0.22582031  1
  Pd  Pd2  1  0.63708935  0.86291065  0.50000000  1
  Pd  Pd3  1  0.36291065  0.13708935  0.50000000  1
loop_
_geom_bond_atom_site_label_1
_geom_bond_atom_site_label_2
_geom_bond_distance
_geom_bond_site_symmetry_2
Er0 Pd1 2.959465 1_455
Er0 Pd0 2.959465 1_544
Er0 Pd3 2.959468 1_555
Er0 Pd2 2.959468 1_444
Er0 Sb1 3.384325 1_445
Er0 Sb0 3.384325 1_555
Er1 Pd1 2.959465 1_555
Er1 Pd0 2.959465 1_554
Er1 Pd2 2.959468 1_555
Er1 Pd3 2.959468 1_554
Er1 Sb0 3.384325 1_555
Er1 Sb1 3.384325 1_555
Er2 Pd1 2.954550 1_556
Er2 Pd2 2.954878 1_545
Er2 Pd3 2.954878 1_555
Er2 Sb0 3.228943 1_656
Er2 Sb1 3.228943 1_556
Er3 Pd0 2.954550 1_554
Er3 Pd2 2.954878 1_555
Er3 Pd3 2.954878 1_565
Er3 Sb0 3.228943 1_555
Er3 Sb1 3.228943 1_455
Er4 Pd0 2.954567 1_554
Er4 Pd2 2.954886 1_555
Er4 Pd3 2.954886 1_565
Er4 Sb1 3.228937 1_555
Er4 Sb0 3.228937 1_565
Er5 Pd3 2.954567 1_555
Er5 Pd1 2.954877 1_455
Er5 Pd0 2.954886 1_555
Er5 Sb1 3.228942 1_556
Er5 Sb0 3.228942 1_555
Er6 Pd3 2.954567 1_555
Er6 Pd0 2.954877 1_555
Er6 Pd1 2.954886 1_455
Er6 Sb1 3.228942 1_445
Er6 Sb0 3.228942 1_556
Er7 Pd1 2.954567 1_556
Er7 Pd2 2.954886 1_545
Er7 Pd3 2.954886 1_555
Er7 Sb1 3.228937 1_546
Er7 Sb0 3.228937 1_556
Er8 Pd2 2.954567 1_555
Er8 Pd0 2.954877 1_655
Er8 Pd1 2.954886 1_555
Er8 Sb1 3.228942 1_556
Er8 Sb0 3.228942 1_555
Er9 Pd2 2.954567 1_555
Er9 Pd1 2.954877 1_555
Er9 Pd0 2.954886 1_655
Er9 Sb1 3.228942 1_555
Er9 Sb0 3.228942 1_666
