# generated using pymatgen
data_AlCoO3
_symmetry_space_group_name_H-M   'P 1'
_cell_length_a   4.85975400
_cell_length_b   4.87726982
_cell_length_c   5.18667464
_cell_angle_alpha   116.18739063
_cell_angle_beta   89.94434658
_cell_angle_gamma   118.68777878
_symmetry_Int_Tables_number   1
_chemical_formula_structural   AlCoO3
_chemical_formula_sum   'Al2 Co2 O6'
_cell_volume   93.23909211
_cell_formula_units_Z   2
loop_
 _symmetry_equiv_pos_site_id
 _symmetry_equiv_pos_as_xyz
  1  'x, y, z'
loop_
 _atom_site_type_symbol
 _atom_site_label
 _atom_site_symmetry_multiplicity
 _atom_site_fract_x
 _atom_site_fract_y
 _atom_site_fract_z
 _atom_site_occupancy
  Al  Al0  1  0.84619300  0.15513300  0.54410200  1
  Al  Al1  1  0.15380700  0.84486700  0.45589800  1
  Co  Co0  1  0.35112000  0.65534900  0.05230800  1
  Co  Co1  1  0.64888000  0.34465100  0.94769200  1
  O  O0  1  0.44279000  0.24232300  0.26298000  1
  O  O1  1  0.23215000  0.04376400  0.74365500  1
  O  O2  1  0.07487700  0.56525400  0.26698100  1
  O  O3  1  0.92512300  0.43474600  0.73301900  1
  O  O4  1  0.76785000  0.95623600  0.25634500  1
  O  O5  1  0.55721000  0.75767700  0.73702000  1
loop_
_geom_bond_atom_site_label_1
_geom_bond_atom_site_label_2
_geom_bond_distance
_geom_bond_site_symmetry_2
Al0 O3 1.134084 1_555
Al0 O4 1.296993 1_545
Al0 O5 2.413885 1_545
Al1 O2 1.134084 1_555
Al1 O1 1.296993 1_565
Al1 O0 2.413885 1_565
Co0 O2 1.760013 1_555
Co0 O4 1.776253 1_555
Co0 O5 2.040500 1_554
Co0 O3 2.116961 1_454
Co0 O0 2.367222 1_565
Co0 O1 2.434331 1_554
Co1 O3 1.760013 1_555
Co1 O1 1.776253 1_555
Co1 O0 2.040500 1_556
Co1 O2 2.116961 1_656
Co1 O5 2.367222 1_545
Co1 O4 2.434331 1_556
