# generated using pymatgen
data_Co4B
_symmetry_space_group_name_H-M   'P 1'
_cell_length_a   6.67790000
_cell_length_b   4.37115000
_cell_length_c   5.03944634
_cell_angle_alpha   89.22471566
_cell_angle_beta   90.00000000
_cell_angle_gamma   90.00000000
_symmetry_Int_Tables_number   1
_chemical_formula_structural   Co4B
_chemical_formula_sum   'Co12 B3'
_cell_volume   147.08848907
_cell_formula_units_Z   3
loop_
 _symmetry_equiv_pos_site_id
 _symmetry_equiv_pos_as_xyz
  1  'x, y, z'
loop_
 _atom_site_type_symbol
 _atom_site_label
 _atom_site_symmetry_multiplicity
 _atom_site_fract_x
 _atom_site_fract_y
 _atom_site_fract_z
 _atom_site_occupancy
  Co  Co0  1  0.18505700  0.65676600  0.30728800  1
  Co  Co1  1  0.81298800  0.84492200  0.82605500  1
  Co  Co2  1  0.69403300  0.34737300  0.68448600  1
  Co  Co3  1  0.31083900  0.15494800  0.18532700  1
  Co  Co4  1  0.30596700  0.34737300  0.68448600  1
  Co  Co5  1  0.68916100  0.15494800  0.18532700  1
  Co  Co6  1  0.81494300  0.65676600  0.30728800  1
  Co  Co7  1  0.18701200  0.84492200  0.82605500  1
  Co  Co8  1  0.00000000  0.13621200  0.46018100  1
  Co  Co9  1  0.00000000  0.33531600  0.97763900  1
  Co  Co10  1  0.50000000  0.86066300  0.53187500  1
  Co  Co11  1  0.50000000  0.63982300  0.02644300  1
  B  B0  1  0.00000000  0.56546100  0.62144100  1
  B  B1  1  0.50000000  0.06797500  0.88199200  1
  B  B2  1  0.50000000  0.43653200  0.38411500  1
loop_
_geom_bond_atom_site_label_1
_geom_bond_atom_site_label_2
_geom_bond_distance
_geom_bond_site_symmetry_2
B0 Co1 2.036954 1_455
B0 Co7 2.036954 1_555
B0 Co0 2.043467 1_555
B0 Co6 2.043467 1_455
B0 Co9 2.045809 1_555
B0 Co8 2.054806 1_555
B0 Co4 2.275138 1_555
B0 Co2 2.275138 1_455
B1 Co10 1.994378 1_545
B1 Co11 1.998905 1_546
B1 Co5 2.023035 1_556
B1 Co3 2.023035 1_556
B1 Co4 2.031808 1_555
B1 Co2 2.031808 1_555
B2 Co11 1.998796 1_555
B2 Co10 2.007218 1_555
B2 Co2 2.026363 1_555
B2 Co4 2.026363 1_555
B2 Co3 2.036562 1_555
B2 Co5 2.036562 1_555
