# generated using pymatgen
data_Ta13Co40Si31
_symmetry_space_group_name_H-M   'P 1'
_cell_length_a   17.15123146
_cell_length_b   17.15123146
_cell_length_c   7.86891300
_cell_angle_alpha   90.00000000
_cell_angle_beta   90.00000000
_cell_angle_gamma   119.99999793
_symmetry_Int_Tables_number   1
_chemical_formula_structural   Ta13Co40Si31
_chemical_formula_sum   'Ta26 Co80 Si62'
_cell_volume   2004.63819310
_cell_formula_units_Z   2
loop_
 _symmetry_equiv_pos_site_id
 _symmetry_equiv_pos_as_xyz
  1  'x, y, z'
loop_
 _atom_site_type_symbol
 _atom_site_label
 _atom_site_symmetry_multiplicity
 _atom_site_fract_x
 _atom_site_fract_y
 _atom_site_fract_z
 _atom_site_occupancy
  Ta  Ta0  1  0.72741300  0.72741300  0.70268600  1
  Ta  Ta1  1  0.27258700  0.00000000  0.70268600  1
  Ta  Ta2  1  0.00000000  0.27258700  0.70268600  1
  Ta  Ta3  1  0.27258700  0.27258700  0.70268600  1
  Ta  Ta4  1  0.72741300  0.00000000  0.70268600  1
  Ta  Ta5  1  0.00000000  0.72741300  0.70268600  1
  Ta  Ta6  1  0.27258700  0.27258700  0.29731400  1
  Ta  Ta7  1  0.72741300  0.00000000  0.29731400  1
  Ta  Ta8  1  0.00000000  0.72741300  0.29731400  1
  Ta  Ta9  1  0.72741300  0.72741300  0.29731400  1
  Ta  Ta10  1  0.27258700  0.00000000  0.29731400  1
  Ta  Ta11  1  0.00000000  0.27258700  0.29731400  1
  Ta  Ta12  1  0.42330700  0.57669300  0.50000000  1
  Ta  Ta13  1  0.42330700  0.84661400  0.50000000  1
  Ta  Ta14  1  0.15338600  0.57669300  0.50000000  1
  Ta  Ta15  1  0.57669300  0.42330700  0.50000000  1
  Ta  Ta16  1  0.84661400  0.42330700  0.50000000  1
  Ta  Ta17  1  0.57669300  0.15338600  0.50000000  1
  Ta  Ta18  1  0.75617000  0.24383000  0.00000000  1
  Ta  Ta19  1  0.75617000  0.51234000  0.00000000  1
  Ta  Ta20  1  0.48766000  0.24383000  0.00000000  1
  Ta  Ta21  1  0.24383000  0.75617000  0.00000000  1
  Ta  Ta22  1  0.51234000  0.75617000  0.00000000  1
  Ta  Ta23  1  0.24383000  0.48766000  0.00000000  1
  Ta  Ta24  1  0.00000000  0.00000000  0.80016100  1
  Ta  Ta25  1  0.00000000  0.00000000  0.19983900  1
  Co  Co0  1  0.89750000  0.34243900  0.77048600  1
  Co  Co1  1  0.65756100  0.55506200  0.77048600  1
  Co  Co2  1  0.44493800  0.10250000  0.77048600  1
  Co  Co3  1  0.34243900  0.89750000  0.77048600  1
  Co  Co4  1  0.55506200  0.65756100  0.77048600  1
  Co  Co5  1  0.10250000  0.44493800  0.77048600  1
  Co  Co6  1  0.10250000  0.65756100  0.77048600  1
  Co  Co7  1  0.34243900  0.44493800  0.77048600  1
  Co  Co8  1  0.55506200  0.89750000  0.77048600  1
  Co  Co9  1  0.65756100  0.10250000  0.77048600  1
  Co  Co10  1  0.44493800  0.34243900  0.77048600  1
  Co  Co11  1  0.89750000  0.55506200  0.77048600  1
  Co  Co12  1  0.10250000  0.65756100  0.22951400  1
  Co  Co13  1  0.34243900  0.44493800  0.22951400  1
  Co  Co14  1  0.55506200  0.89750000  0.22951400  1
  Co  Co15  1  0.65756100  0.10250000  0.22951400  1
  Co  Co16  1  0.44493800  0.34243900  0.22951400  1
  Co  Co17  1  0.89750000  0.55506200  0.22951400  1
  Co  Co18  1  0.89750000  0.34243900  0.22951400  1
  Co  Co19  1  0.65756100  0.55506200  0.22951400  1
  Co  Co20  1  0.44493800  0.10250000  0.22951400  1
  Co  Co21  1  0.34243900  0.89750000  0.22951400  1
  Co  Co22  1  0.55506200  0.65756100  0.22951400  1
  Co  Co23  1  0.10250000  0.44493800  0.22951400  1
  Co  Co24  1  0.91444000  0.23573300  0.00000000  1
  Co  Co25  1  0.76426700  0.67870700  0.00000000  1
  Co  Co26  1  0.32129300  0.08556000  0.00000000  1
  Co  Co27  1  0.23573300  0.91444000  0.00000000  1
  Co  Co28  1  0.67870700  0.76426700  0.00000000  1
  Co  Co29  1  0.08556000  0.32129300  0.00000000  1
  Co  Co30  1  0.08556000  0.76426700  0.00000000  1
  Co  Co31  1  0.23573300  0.32129300  0.00000000  1
  Co  Co32  1  0.67870700  0.91444000  0.00000000  1
  Co  Co33  1  0.76426700  0.08556000  0.00000000  1
  Co  Co34  1  0.32129300  0.23573300  0.00000000  1
  Co  Co35  1  0.91444000  0.67870700  0.00000000  1
  Co  Co36  1  0.91104200  0.08895800  0.75709900  1
  Co  Co37  1  0.91104200  0.82208500  0.75709900  1
  Co  Co38  1  0.17791500  0.08895800  0.75709900  1
  Co  Co39  1  0.08895800  0.91104200  0.75709900  1
  Co  Co40  1  0.82208500  0.91104200  0.75709900  1
  Co  Co41  1  0.08895800  0.17791500  0.75709900  1
  Co  Co42  1  0.08895800  0.91104200  0.24290100  1
  Co  Co43  1  0.08895800  0.17791500  0.24290100  1
  Co  Co44  1  0.82208500  0.91104200  0.24290100  1
  Co  Co45  1  0.91104200  0.08895800  0.24290100  1
  Co  Co46  1  0.17791500  0.08895800  0.24290100  1
  Co  Co47  1  0.91104200  0.82208500  0.24290100  1
  Co  Co48  1  0.73783500  0.26216500  0.65786000  1
  Co  Co49  1  0.73783500  0.47566900  0.65786000  1
  Co  Co50  1  0.52433100  0.26216500  0.65786000  1
  Co  Co51  1  0.26216500  0.73783500  0.65786000  1
  Co  Co52  1  0.47566900  0.73783500  0.65786000  1
  Co  Co53  1  0.26216500  0.52433100  0.65786000  1
  Co  Co54  1  0.26216500  0.73783500  0.34214000  1
  Co  Co55  1  0.26216500  0.52433100  0.34214000  1
  Co  Co56  1  0.47566900  0.73783500  0.34214000  1
  Co  Co57  1  0.73783500  0.26216500  0.34214000  1
  Co  Co58  1  0.52433100  0.26216500  0.34214000  1
  Co  Co59  1  0.73783500  0.47566900  0.34214000  1
  Co  Co60  1  0.85826000  0.14174000  0.50000000  1
  Co  Co61  1  0.85826000  0.71652000  0.50000000  1
  Co  Co62  1  0.28348000  0.14174000  0.50000000  1
  Co  Co63  1  0.14174000  0.85826000  0.50000000  1
  Co  Co64  1  0.71652000  0.85826000  0.50000000  1
  Co  Co65  1  0.14174000  0.28348000  0.50000000  1
  Co  Co66  1  0.45611900  0.54388100  0.00000000  1
  Co  Co67  1  0.45611900  0.91223700  0.00000000  1
  Co  Co68  1  0.08776300  0.54388100  0.00000000  1
  Co  Co69  1  0.54388100  0.45611900  0.00000000  1
  Co  Co70  1  0.91223700  0.45611900  0.00000000  1
  Co  Co71  1  0.54388100  0.08776300  0.00000000  1
  Co  Co72  1  0.58227300  0.58227300  0.50000000  1
  Co  Co73  1  0.41772700  0.00000000  0.50000000  1
  Co  Co74  1  0.00000000  0.41772700  0.50000000  1
  Co  Co75  1  0.41772700  0.41772700  0.50000000  1
  Co  Co76  1  0.58227300  0.00000000  0.50000000  1
  Co  Co77  1  0.00000000  0.58227300  0.50000000  1
  Co  Co78  1  0.66666700  0.33333300  0.00000000  1
  Co  Co79  1  0.33333300  0.66666700  0.00000000  1
  Si  Si0  1  0.87086500  0.28189600  0.50000000  1
  Si  Si1  1  0.71810400  0.58896900  0.50000000  1
  Si  Si2  1  0.41103100  0.12913500  0.50000000  1
  Si  Si3  1  0.28189600  0.87086500  0.50000000  1
  Si  Si4  1  0.58896900  0.71810400  0.50000000  1
  Si  Si5  1  0.12913500  0.41103100  0.50000000  1
  Si  Si6  1  0.12913500  0.71810400  0.50000000  1
  Si  Si7  1  0.28189600  0.41103100  0.50000000  1
  Si  Si8  1  0.58896900  0.87086500  0.50000000  1
  Si  Si9  1  0.71810400  0.12913500  0.50000000  1
  Si  Si10  1  0.41103100  0.28189600  0.50000000  1
  Si  Si11  1  0.87086500  0.58896900  0.50000000  1
  Si  Si12  1  0.82134300  0.17865700  0.76536200  1
  Si  Si13  1  0.82134300  0.64268600  0.76536200  1
  Si  Si14  1  0.35731400  0.17865700  0.76536200  1
  Si  Si15  1  0.17865700  0.82134300  0.76536200  1
  Si  Si16  1  0.64268600  0.82134300  0.76536200  1
  Si  Si17  1  0.17865700  0.35731400  0.76536200  1
  Si  Si18  1  0.17865700  0.82134300  0.23463800  1
  Si  Si19  1  0.17865700  0.35731400  0.23463800  1
  Si  Si20  1  0.64268600  0.82134300  0.23463800  1
  Si  Si21  1  0.82134300  0.17865700  0.23463800  1
  Si  Si22  1  0.35731400  0.17865700  0.23463800  1
  Si  Si23  1  0.82134300  0.64268600  0.23463800  1
  Si  Si24  1  0.39545300  0.60454700  0.81981900  1
  Si  Si25  1  0.39545300  0.79090600  0.81981900  1
  Si  Si26  1  0.20909400  0.60454700  0.81981900  1
  Si  Si27  1  0.60454700  0.39545300  0.81981900  1
  Si  Si28  1  0.79090600  0.39545300  0.81981900  1
  Si  Si29  1  0.60454700  0.20909400  0.81981900  1
  Si  Si30  1  0.60454700  0.39545300  0.18018100  1
  Si  Si31  1  0.60454700  0.20909400  0.18018100  1
  Si  Si32  1  0.79090600  0.39545300  0.18018100  1
  Si  Si33  1  0.39545300  0.60454700  0.18018100  1
  Si  Si34  1  0.20909400  0.60454700  0.18018100  1
  Si  Si35  1  0.39545300  0.79090600  0.18018100  1
  Si  Si36  1  0.85498800  0.85498800  0.50000000  1
  Si  Si37  1  0.14501200  0.00000000  0.50000000  1
  Si  Si38  1  0.00000000  0.14501200  0.50000000  1
  Si  Si39  1  0.14501200  0.14501200  0.50000000  1
  Si  Si40  1  0.85498800  0.00000000  0.50000000  1
  Si  Si41  1  0.00000000  0.85498800  0.50000000  1
  Si  Si42  1  0.83855900  0.83855900  0.00000000  1
  Si  Si43  1  0.16144100  0.00000000  0.00000000  1
  Si  Si44  1  0.00000000  0.16144100  0.00000000  1
  Si  Si45  1  0.16144100  0.16144100  0.00000000  1
  Si  Si46  1  0.83855900  0.00000000  0.00000000  1
  Si  Si47  1  0.00000000  0.83855900  0.00000000  1
  Si  Si48  1  0.61208800  0.61208800  0.00000000  1
  Si  Si49  1  0.38791200  0.00000000  0.00000000  1
  Si  Si50  1  0.00000000  0.38791200  0.00000000  1
  Si  Si51  1  0.38791200  0.38791200  0.00000000  1
  Si  Si52  1  0.61208800  0.00000000  0.00000000  1
  Si  Si53  1  0.00000000  0.61208800  0.00000000  1
  Si  Si54  1  0.50000000  0.50000000  0.73742300  1
  Si  Si55  1  0.50000000  0.00000000  0.73742300  1
  Si  Si56  1  0.00000000  0.50000000  0.73742300  1
  Si  Si57  1  0.50000000  0.50000000  0.26257700  1
  Si  Si58  1  0.50000000  0.00000000  0.26257700  1
  Si  Si59  1  0.00000000  0.50000000  0.26257700  1
  Si  Si60  1  0.66666700  0.33333300  0.50000000  1
  Si  Si61  1  0.33333300  0.66666700  0.50000000  1
loop_
_geom_bond_atom_site_label_1
_geom_bond_atom_site_label_2
_geom_bond_distance
_geom_bond_site_symmetry_2
Ta0 Ta9 3.189837 1_555
Ta1 Ta10 3.189837 1_555
Ta3 Ta6 3.189837 1_555
Ta4 Ta7 3.189837 1_555
Ta5 Ta8 3.189837 1_555
Ta11 Ta2 3.189837 1_555
Co0 Si0 2.311448 1_555
Co0 Si50 2.364207 1_656
Co0 Si56 2.389618 1_655
Co0 Si12 2.435041 1_555
Co0 Si28 2.445842 1_555
Co0 Co48 2.531763 1_555
Co0 Co70 2.575720 1_556
Co0 Ta2 2.629960 1_655
Co0 Co74 2.649173 1_655
Co0 Co24 2.688361 1_556
Co0 Ta18 2.810374 1_556
Co0 Ta16 2.902784 1_555
Co1 Si1 2.311448 1_555
Co1 Si48 2.364197 1_556
Co1 Si54 2.389615 1_555
Co1 Si13 2.435040 1_555
Co1 Si27 2.445858 1_555
Co1 Co49 2.531791 1_555
Co1 Co69 2.575720 1_556
Co1 Ta0 2.629945 1_555
Co1 Co72 2.649166 1_555
Co1 Co25 2.688353 1_556
Co1 Ta19 2.810384 1_556
Co1 Ta15 2.902793 1_555
Co2 Si2 2.311442 1_555
Co2 Si49 2.364206 1_556
Co2 Si55 2.389631 1_555
Co2 Si14 2.435026 1_555
Co2 Si29 2.445855 1_555
Co2 Co50 2.531763 1_555
Co2 Co71 2.575720 1_556
Co2 Ta1 2.629947 1_555
Co2 Co73 2.649176 1_555
Co2 Co26 2.688348 1_556
Co2 Ta20 2.810372 1_556
Co2 Ta17 2.902795 1_555
Co3 Si3 2.311448 1_555
Co3 Si49 2.364207 1_566
Co3 Si55 2.389618 1_565
Co3 Si15 2.435041 1_555
Co3 Si25 2.445842 1_555
Co3 Co51 2.531763 1_555
Co3 Co67 2.575720 1_556
Co3 Ta1 2.629960 1_565
Co3 Co73 2.649173 1_565
Co3 Ta21 2.810374 1_556
Co3 Ta13 2.902784 1_555
Co4 Si4 2.311448 1_555
Co4 Si48 2.364197 1_556
Co4 Si54 2.389615 1_555
Co4 Si16 2.435040 1_555
Co4 Si24 2.445858 1_555
Co4 Co52 2.531791 1_555
Co4 Co66 2.575720 1_556
Co4 Ta0 2.629945 1_555
Co4 Co72 2.649166 1_555
Co4 Ta22 2.810384 1_556
Co4 Ta12 2.902793 1_555
Co5 Si5 2.311442 1_555
Co5 Si50 2.364206 1_556
Co5 Si56 2.389631 1_555
Co5 Si17 2.435026 1_555
Co5 Si26 2.445855 1_555
Co5 Co53 2.531763 1_555
Co5 Co68 2.575720 1_556
Co5 Ta2 2.629947 1_555
Co5 Co74 2.649176 1_555
Co5 Ta23 2.810372 1_556
Co5 Ta14 2.902795 1_555
Co6 Si6 2.311448 1_555
Co6 Si53 2.364207 1_556
Co6 Si56 2.389618 1_555
Co6 Si15 2.435041 1_555
Co6 Si26 2.445842 1_555
Co6 Co68 2.575720 1_556
Co6 Ta5 2.629960 1_555
Co6 Co77 2.649173 1_555
Co6 Ta21 2.810374 1_556
Co6 Ta14 2.902784 1_555
Co7 Si7 2.311448 1_555
Co7 Si51 2.364197 1_556
Co7 Si54 2.389615 1_555
Co7 Si17 2.435040 1_555
Co7 Si24 2.445858 1_555
Co7 Ta3 2.629945 1_555
Co7 Co75 2.649166 1_555
Co7 Ta23 2.810384 1_556
Co7 Ta12 2.902793 1_555
Co8 Si8 2.311442 1_555
Co8 Si52 2.364206 1_566
Co8 Si55 2.389631 1_565
Co8 Si16 2.435026 1_555
Co8 Si25 2.445855 1_555
Co8 Ta4 2.629947 1_565
Co8 Ta22 2.810372 1_556
Co8 Ta13 2.902795 1_555
Co9 Si9 2.311448 1_555
Co9 Si52 2.364207 1_556
Co9 Si55 2.389618 1_555
Co9 Si12 2.435041 1_555
Co9 Si29 2.445842 1_555
Co9 Ta4 2.629960 1_555
Co9 Ta18 2.810374 1_556
Co9 Ta17 2.902784 1_555
Co10 Si10 2.311448 1_555
Co10 Si51 2.364197 1_556
Co10 Si54 2.389615 1_555
Co10 Si14 2.435040 1_555
Co10 Si27 2.445858 1_555
Co10 Co50 2.531791 1_555
Co10 Co69 2.575720 1_556
Co10 Ta3 2.629945 1_555
Co10 Co75 2.649166 1_555
Co10 Co34 2.688353 1_556
Co10 Ta20 2.810384 1_556
Co10 Ta15 2.902793 1_555
Co11 Si11 2.311442 1_555
Co11 Si53 2.364206 1_656
Co11 Si56 2.389631 1_655
Co11 Si13 2.435026 1_555
Co11 Si28 2.445855 1_555
Co11 Co49 2.531763 1_555
Co11 Co70 2.575720 1_556
Co11 Ta5 2.629947 1_655
Co11 Co77 2.649176 1_655
Co11 Co35 2.688348 1_556
Co11 Ta19 2.810372 1_556
Co11 Ta16 2.902795 1_555
Co12 Si6 2.311448 1_555
Co12 Si53 2.364207 1_555
Co12 Si59 2.389618 1_555
Co12 Si18 2.435041 1_555
Co12 Si34 2.445842 1_555
Co12 Co54 2.531763 1_555
Co12 Co68 2.575720 1_555
Co12 Ta8 2.629960 1_555
Co12 Co77 2.649173 1_555
Co12 Co30 2.688361 1_555
Co12 Ta21 2.810374 1_555
Co12 Ta14 2.902784 1_555
Co13 Si7 2.311448 1_555
Co13 Si51 2.364197 1_555
Co13 Si57 2.389615 1_555
Co13 Si19 2.435040 1_555
Co13 Si33 2.445858 1_555
Co13 Co55 2.531791 1_555
Co13 Co66 2.575720 1_555
Co13 Ta6 2.629945 1_555
Co13 Co75 2.649166 1_555
Co13 Co31 2.688353 1_555
Co13 Ta23 2.810384 1_555
Co13 Ta12 2.902793 1_555
Co14 Si8 2.311442 1_555
Co14 Si52 2.364206 1_565
Co14 Si58 2.389631 1_565
Co14 Si20 2.435026 1_555
Co14 Si35 2.445855 1_555
Co14 Co56 2.531763 1_555
Co14 Co67 2.575720 1_555
Co14 Ta7 2.629947 1_565
Co14 Co76 2.649176 1_565
Co14 Co32 2.688348 1_555
Co14 Ta22 2.810372 1_555
Co14 Ta13 2.902795 1_555
Co15 Si9 2.311448 1_555
Co15 Si52 2.364207 1_555
Co15 Si58 2.389618 1_555
Co15 Si21 2.435041 1_555
Co15 Si31 2.445842 1_555
Co15 Co57 2.531763 1_555
Co15 Co71 2.575720 1_555
Co15 Ta7 2.629960 1_555
Co15 Co76 2.649173 1_555
Co15 Co33 2.688361 1_555
Co15 Ta18 2.810374 1_555
Co15 Ta17 2.902784 1_555
Co16 Si10 2.311448 1_555
Co16 Si51 2.364197 1_555
Co16 Si57 2.389615 1_555
Co16 Si22 2.435040 1_555
Co16 Si30 2.445858 1_555
Co16 Co58 2.531791 1_555
Co16 Co69 2.575720 1_555
Co16 Ta6 2.629945 1_555
Co16 Co75 2.649166 1_555
Co16 Co34 2.688353 1_555
Co16 Ta20 2.810384 1_555
Co16 Ta15 2.902793 1_555
Co17 Si11 2.311442 1_555
Co17 Si53 2.364206 1_655
Co17 Si59 2.389631 1_655
Co17 Si23 2.435026 1_555
Co17 Si32 2.445855 1_555
Co17 Co59 2.531763 1_555
Co17 Co70 2.575720 1_555
Co17 Ta8 2.629947 1_655
Co17 Co77 2.649176 1_655
Co17 Co35 2.688348 1_555
Co17 Ta19 2.810372 1_555
Co17 Ta16 2.902795 1_555
Co18 Si0 2.311448 1_555
Co18 Si50 2.364207 1_655
Co18 Si59 2.389618 1_655
Co18 Si21 2.435041 1_555
Co18 Si32 2.445842 1_555
Co18 Co57 2.531763 1_555
Co18 Co70 2.575720 1_555
Co18 Ta11 2.629960 1_655
Co18 Co74 2.649173 1_655
Co18 Co24 2.688361 1_555
Co18 Ta18 2.810374 1_555
Co18 Ta16 2.902784 1_555
Co19 Si1 2.311448 1_555
Co19 Si48 2.364197 1_555
Co19 Si57 2.389615 1_555
Co19 Si23 2.435040 1_555
Co19 Si30 2.445858 1_555
Co19 Co59 2.531791 1_555
Co19 Co69 2.575720 1_555
Co19 Ta9 2.629945 1_555
Co19 Co72 2.649166 1_555
Co19 Co25 2.688353 1_555
Co19 Ta19 2.810384 1_555
Co19 Ta15 2.902793 1_555
Co20 Si2 2.311442 1_555
Co20 Si49 2.364206 1_555
Co20 Si58 2.389631 1_555
Co20 Si22 2.435026 1_555
Co20 Si31 2.445855 1_555
Co20 Co58 2.531763 1_555
Co20 Co71 2.575720 1_555
Co20 Ta10 2.629947 1_555
Co20 Co73 2.649176 1_555
Co20 Co26 2.688348 1_555
Co20 Ta20 2.810372 1_555
Co20 Ta17 2.902795 1_555
Co21 Si3 2.311448 1_555
Co21 Si49 2.364207 1_565
Co21 Si58 2.389618 1_565
Co21 Si18 2.435041 1_555
Co21 Si35 2.445842 1_555
Co21 Co54 2.531763 1_555
Co21 Co67 2.575720 1_555
Co21 Ta10 2.629960 1_565
Co21 Co73 2.649173 1_565
Co21 Co27 2.688361 1_555
Co21 Ta21 2.810374 1_555
Co21 Ta13 2.902784 1_555
Co22 Si4 2.311448 1_555
Co22 Si48 2.364197 1_555
Co22 Si57 2.389615 1_555
Co22 Si20 2.435040 1_555
Co22 Si33 2.445858 1_555
Co22 Co56 2.531791 1_555
Co22 Co66 2.575720 1_555
Co22 Ta9 2.629945 1_555
Co22 Co72 2.649166 1_555
Co22 Co28 2.688353 1_555
Co22 Ta22 2.810384 1_555
Co22 Ta12 2.902793 1_555
Co23 Si5 2.311442 1_555
Co23 Si50 2.364206 1_555
Co23 Si59 2.389631 1_555
Co23 Si19 2.435026 1_555
Co23 Si34 2.445855 1_555
Co23 Co55 2.531763 1_555
Co23 Co68 2.575720 1_555
Co23 Ta11 2.629947 1_555
Co23 Co74 2.649176 1_555
Co23 Co29 2.688348 1_555
Co23 Ta23 2.810372 1_555
Co23 Ta14 2.902795 1_555
Co24 Si50 2.266205 1_655
Co24 Si21 2.313817 1_555
Co24 Si12 2.313817 1_554
Co24 Si44 2.376312 1_655
Co24 Co29 2.541714 1_655
Co24 Co33 2.575652 1_555
Co24 Ta11 2.664366 1_655
Co24 Ta2 2.664366 1_654
Co24 Ta18 2.786559 1_555
Co25 Si48 2.266205 1_555
Co25 Si23 2.313817 1_555
Co25 Si13 2.313817 1_554
Co25 Si42 2.376312 1_555
Co25 Co28 2.541714 1_555
Co25 Co35 2.575652 1_555
Co25 Ta9 2.664366 1_555
Co25 Ta0 2.664366 1_554
Co25 Ta19 2.786559 1_555
Co26 Si49 2.266204 1_555
Co26 Si22 2.313817 1_555
Co26 Si14 2.313817 1_554
Co26 Si43 2.376312 1_555
Co26 Co27 2.541714 1_545
Co26 Co34 2.575652 1_555
Co26 Ta10 2.664366 1_555
Co26 Ta1 2.664366 1_554
Co26 Ta20 2.786559 1_555
Co27 Si49 2.266205 1_565
Co27 Si18 2.313817 1_555
Co27 Si15 2.313817 1_554
Co27 Si43 2.376312 1_565
Co27 Co30 2.575652 1_555
Co27 Ta10 2.664366 1_565
Co27 Ta1 2.664366 1_564
Co27 Co3 2.688361 1_554
Co27 Ta21 2.786559 1_555
Co28 Si48 2.266205 1_555
Co28 Si20 2.313817 1_555
Co28 Si16 2.313817 1_554
Co28 Si42 2.376312 1_555
Co28 Co32 2.575652 1_555
Co28 Ta9 2.664366 1_555
Co28 Ta0 2.664366 1_554
Co28 Co4 2.688353 1_554
Co28 Ta22 2.786559 1_555
Co29 Si50 2.266204 1_555
Co29 Si19 2.313817 1_555
Co29 Si17 2.313817 1_554
Co29 Si44 2.376312 1_555
Co29 Co31 2.575652 1_555
Co29 Ta11 2.664366 1_555
Co29 Ta2 2.664366 1_554
Co29 Co5 2.688348 1_554
Co29 Ta23 2.786559 1_555
Co30 Si53 2.266205 1_555
Co30 Si18 2.313817 1_555
Co30 Si15 2.313817 1_554
Co30 Si47 2.376312 1_555
Co30 Co35 2.541714 1_455
Co30 Ta8 2.664366 1_555
Co30 Ta5 2.664366 1_554
Co30 Co6 2.688361 1_554
Co30 Ta21 2.786559 1_555
Co31 Si51 2.266205 1_555
Co31 Si19 2.313817 1_555
Co31 Si17 2.313817 1_554
Co31 Si45 2.376312 1_555
Co31 Co34 2.541714 1_555
Co31 Ta6 2.664366 1_555
Co31 Ta3 2.664366 1_554
Co31 Co7 2.688353 1_554
Co31 Ta23 2.786559 1_555
Co32 Si52 2.266204 1_565
Co32 Si20 2.313817 1_555
Co32 Si16 2.313817 1_554
Co32 Si46 2.376312 1_565
Co32 Co33 2.541714 1_565
Co32 Ta7 2.664366 1_565
Co32 Ta4 2.664366 1_564
Co32 Co8 2.688348 1_554
Co32 Ta22 2.786559 1_555
Co33 Si52 2.266205 1_555
Co33 Si21 2.313817 1_555
Co33 Si12 2.313817 1_554
Co33 Si46 2.376312 1_555
Co33 Ta7 2.664366 1_555
Co33 Ta4 2.664366 1_554
Co33 Co9 2.688361 1_554
Co33 Ta18 2.786559 1_555
Co34 Si51 2.266205 1_555
Co34 Si22 2.313817 1_555
Co34 Si14 2.313817 1_554
Co34 Si45 2.376312 1_555
Co34 Ta6 2.664366 1_555
Co34 Ta3 2.664366 1_554
Co34 Ta20 2.786559 1_555
Co35 Si53 2.266204 1_655
Co35 Si23 2.313817 1_555
Co35 Si13 2.313817 1_554
Co35 Si47 2.376312 1_655
Co35 Ta8 2.664366 1_655
Co35 Ta5 2.664366 1_654
Co35 Ta19 2.786559 1_555
Co36 Si46 2.372746 1_556
Co36 Si44 2.372746 1_656
Co36 Si40 2.424503 1_555
Co36 Si38 2.424503 1_655
Co36 Co60 2.559583 1_555
Co36 Co40 2.642658 1_545
Co36 Co41 2.642658 1_655
Co36 Ta24 2.664294 1_655
Co36 Si12 2.665464 1_555
Co36 Ta2 2.761353 1_655
Co36 Ta4 2.761353 1_555
Co37 Si42 2.372740 1_556
Co37 Si47 2.372750 1_656
Co37 Si36 2.424496 1_555
Co37 Si41 2.424504 1_655
Co37 Co61 2.559593 1_555
Co37 Co40 2.642628 1_555
Co37 Co39 2.642658 1_655
Co37 Ta24 2.664279 1_665
Co37 Si13 2.665479 1_555
Co37 Ta0 2.761353 1_555
Co37 Ta5 2.761368 1_655
Co38 Si45 2.372740 1_556
Co38 Si43 2.372750 1_556
Co38 Si39 2.424496 1_555
Co38 Si37 2.424504 1_555
Co38 Co62 2.559593 1_555
Co38 Co41 2.642628 1_555
Co38 Co39 2.642658 1_545
Co38 Ta24 2.664279 1_555
Co38 Si14 2.665479 1_555
Co38 Ta3 2.761353 1_555
Co38 Ta1 2.761368 1_555
Co39 Si47 2.372746 1_556
Co39 Si43 2.372746 1_566
Co39 Si41 2.424503 1_555
Co39 Si37 2.424503 1_565
Co39 Co63 2.559583 1_555
Co39 Ta24 2.664294 1_565
Co39 Si15 2.665464 1_555
Co39 Ta1 2.761353 1_565
Co39 Ta5 2.761353 1_555
Co40 Si42 2.372740 1_556
Co40 Si46 2.372750 1_566
Co40 Si36 2.424496 1_555
Co40 Si40 2.424504 1_565
Co40 Co64 2.559593 1_555
Co40 Ta24 2.664279 1_665
Co40 Si16 2.665479 1_555
Co40 Ta0 2.761353 1_555
Co40 Ta4 2.761368 1_565
Co41 Si45 2.372740 1_556
Co41 Si44 2.372750 1_556
Co41 Si39 2.424496 1_555
Co41 Si38 2.424504 1_555
Co41 Co65 2.559593 1_555
Co41 Ta24 2.664279 1_555
Co41 Si17 2.665479 1_555
Co41 Ta3 2.761353 1_555
Co41 Ta2 2.761368 1_555
Co42 Si47 2.372746 1_555
Co42 Si43 2.372746 1_565
Co42 Si41 2.424503 1_555
Co42 Si37 2.424503 1_565
Co42 Co63 2.559583 1_555
Co42 Co47 2.642658 1_455
Co42 Co46 2.642658 1_565
Co42 Ta25 2.664294 1_565
Co42 Si18 2.665464 1_555
Co42 Ta10 2.761353 1_565
Co42 Ta8 2.761353 1_555
Co43 Si45 2.372740 1_555
Co43 Si44 2.372750 1_555
Co43 Si39 2.424496 1_555
Co43 Si38 2.424504 1_555
Co43 Co65 2.559593 1_555
Co43 Co46 2.642628 1_555
Co43 Co45 2.642658 1_455
Co43 Ta25 2.664279 1_555
Co43 Si19 2.665479 1_555
Co43 Ta6 2.761353 1_555
Co43 Ta11 2.761368 1_555
Co44 Si42 2.372740 1_555
Co44 Si46 2.372750 1_565
Co44 Si36 2.424496 1_555
Co44 Si40 2.424504 1_565
Co44 Co64 2.559593 1_555
Co44 Co47 2.642628 1_555
Co44 Co45 2.642658 1_565
Co44 Ta25 2.664279 1_665
Co44 Si20 2.665479 1_555
Co44 Ta9 2.761353 1_555
Co44 Ta7 2.761368 1_565
Co45 Si46 2.372746 1_555
Co45 Si44 2.372746 1_655
Co45 Si40 2.424503 1_555
Co45 Si38 2.424503 1_655
Co45 Co60 2.559583 1_555
Co45 Ta25 2.664294 1_655
Co45 Si21 2.665464 1_555
Co45 Ta11 2.761353 1_655
Co45 Ta7 2.761353 1_555
Co46 Si45 2.372740 1_555
Co46 Si43 2.372750 1_555
Co46 Si39 2.424496 1_555
Co46 Si37 2.424504 1_555
Co46 Co62 2.559593 1_555
Co46 Ta25 2.664279 1_555
Co46 Si22 2.665479 1_555
Co46 Ta6 2.761353 1_555
Co46 Ta10 2.761368 1_555
Co47 Si42 2.372740 1_555
Co47 Si47 2.372750 1_655
Co47 Si36 2.424496 1_555
Co47 Si41 2.424504 1_655
Co47 Co61 2.559593 1_555
Co47 Ta25 2.664279 1_665
Co47 Si23 2.665479 1_555
Co47 Ta9 2.761353 1_555
Co47 Ta8 2.761368 1_655
Co48 Si28 2.365993 1_555
Co48 Si29 2.365993 1_555
Co48 Si60 2.452093 1_555
Co48 Si9 2.468046 1_555
Co48 Si0 2.468046 1_555
Co48 Co57 2.484373 1_555
Co48 Co9 2.531763 1_555
Co48 Si12 2.621018 1_555
Co48 Ta17 2.739702 1_555
Co48 Ta16 2.739702 1_555
Co48 Ta18 2.746814 1_556
Co49 Si28 2.365980 1_555
Co49 Si27 2.365991 1_555
Co49 Si60 2.452093 1_555
Co49 Si11 2.468051 1_555
Co49 Si1 2.468060 1_555
Co49 Co59 2.484373 1_555
Co49 Si13 2.621032 1_555
Co49 Ta16 2.739691 1_555
Co49 Ta15 2.739705 1_555
Co49 Ta19 2.746817 1_556
Co50 Si29 2.365980 1_555
Co50 Si27 2.365991 1_555
Co50 Si60 2.452093 1_555
Co50 Si2 2.468051 1_555
Co50 Si10 2.468060 1_555
Co50 Co58 2.484373 1_555
Co50 Si14 2.621032 1_555
Co50 Ta17 2.739691 1_555
Co50 Ta15 2.739705 1_555
Co50 Ta20 2.746817 1_556
Co51 Si25 2.365993 1_555
Co51 Si26 2.365993 1_555
Co51 Si61 2.452093 1_555
Co51 Si6 2.468046 1_555
Co51 Si3 2.468046 1_555
Co51 Co54 2.484373 1_555
Co51 Co6 2.531763 1_555
Co51 Si15 2.621018 1_555
Co51 Ta14 2.739702 1_555
Co51 Ta13 2.739702 1_555
Co51 Ta21 2.746814 1_556
Co52 Si25 2.365980 1_555
Co52 Si24 2.365991 1_555
Co52 Si61 2.452093 1_555
Co52 Si8 2.468051 1_555
Co52 Si4 2.468060 1_555
Co52 Co56 2.484373 1_555
Co52 Co8 2.531763 1_555
Co52 Si16 2.621032 1_555
Co52 Ta13 2.739691 1_555
Co52 Ta12 2.739705 1_555
Co52 Ta22 2.746817 1_556
Co53 Si26 2.365980 1_555
Co53 Si24 2.365991 1_555
Co53 Si61 2.452093 1_555
Co53 Si5 2.468051 1_555
Co53 Si7 2.468060 1_555
Co53 Co55 2.484373 1_555
Co53 Co7 2.531791 1_555
Co53 Si17 2.621032 1_555
Co53 Ta14 2.739691 1_555
Co53 Ta12 2.739705 1_555
Co53 Ta23 2.746817 1_556
Co54 Si35 2.365993 1_555
Co54 Si34 2.365993 1_555
Co54 Si61 2.452093 1_555
Co54 Si6 2.468046 1_555
Co54 Si3 2.468046 1_555
Co54 Si18 2.621018 1_555
Co54 Ta13 2.739702 1_555
Co54 Ta14 2.739702 1_555
Co54 Ta21 2.746814 1_555
Co55 Si34 2.365980 1_555
Co55 Si33 2.365991 1_555
Co55 Si61 2.452093 1_555
Co55 Si5 2.468051 1_555
Co55 Si7 2.468060 1_555
Co55 Si19 2.621032 1_555
Co55 Ta14 2.739691 1_555
Co55 Ta12 2.739705 1_555
Co55 Ta23 2.746817 1_555
Co56 Si35 2.365980 1_555
Co56 Si33 2.365991 1_555
Co56 Si61 2.452093 1_555
Co56 Si8 2.468051 1_555
Co56 Si4 2.468060 1_555
Co56 Si20 2.621032 1_555
Co56 Ta13 2.739691 1_555
Co56 Ta12 2.739705 1_555
Co56 Ta22 2.746817 1_555
Co57 Si32 2.365993 1_555
Co57 Si31 2.365993 1_555
Co57 Si60 2.452093 1_555
Co57 Si9 2.468046 1_555
Co57 Si0 2.468046 1_555
Co57 Si21 2.621018 1_555
Co57 Ta16 2.739702 1_555
Co57 Ta17 2.739702 1_555
Co57 Ta18 2.746814 1_555
Co58 Si31 2.365980 1_555
Co58 Si30 2.365991 1_555
Co58 Si60 2.452093 1_555
Co58 Si2 2.468051 1_555
Co58 Si10 2.468060 1_555
Co58 Si22 2.621032 1_555
Co58 Ta17 2.739691 1_555
Co58 Ta15 2.739705 1_555
Co58 Ta20 2.746817 1_555
Co59 Si32 2.365980 1_555
Co59 Si30 2.365991 1_555
Co59 Si60 2.452093 1_555
Co59 Si11 2.468051 1_555
Co59 Si1 2.468060 1_555
Co59 Si23 2.621032 1_555
Co59 Ta16 2.739691 1_555
Co59 Ta15 2.739705 1_555
Co59 Ta19 2.746817 1_555
Co60 Si0 2.303374 1_555
Co60 Si9 2.303374 1_555
Co60 Si12 2.358586 1_555
Co60 Si21 2.358586 1_555
Co60 Si40 2.403448 1_555
Co60 Si38 2.403448 1_655
Co60 Ta2 2.834488 1_655
Co60 Ta4 2.834488 1_555
Co60 Ta11 2.834488 1_655
Co60 Ta7 2.834488 1_555
Co61 Si11 2.303374 1_555
Co61 Si1 2.303374 1_555
Co61 Si13 2.358586 1_555
Co61 Si23 2.358586 1_555
Co61 Si36 2.403448 1_555
Co61 Si41 2.403448 1_655
Co61 Ta0 2.834488 1_555
Co61 Ta9 2.834488 1_555
Co61 Ta5 2.834488 1_655
Co61 Ta8 2.834488 1_655
Co62 Si2 2.303374 1_555
Co62 Si10 2.303374 1_555
Co62 Si14 2.358586 1_555
Co62 Si22 2.358586 1_555
Co62 Si39 2.403448 1_555
Co62 Si37 2.403448 1_555
Co62 Ta3 2.834488 1_555
Co62 Ta6 2.834488 1_555
Co62 Ta1 2.834488 1_555
Co62 Ta10 2.834488 1_555
Co63 Si3 2.303374 1_555
Co63 Si6 2.303374 1_555
Co63 Si15 2.358586 1_555
Co63 Si18 2.358586 1_555
Co63 Si37 2.403448 1_565
Co63 Si41 2.403448 1_555
Co63 Ta1 2.834488 1_565
Co63 Ta5 2.834488 1_555
Co63 Ta10 2.834488 1_565
Co63 Ta8 2.834488 1_555
Co64 Si8 2.303374 1_555
Co64 Si4 2.303374 1_555
Co64 Si16 2.358586 1_555
Co64 Si20 2.358586 1_555
Co64 Si36 2.403448 1_555
Co64 Si40 2.403448 1_565
Co64 Ta0 2.834488 1_555
Co64 Ta9 2.834488 1_555
Co64 Ta4 2.834488 1_565
Co64 Ta7 2.834488 1_565
Co65 Si5 2.303374 1_555
Co65 Si7 2.303374 1_555
Co65 Si17 2.358586 1_555
Co65 Si19 2.358586 1_555
Co65 Si39 2.403448 1_555
Co65 Si38 2.403448 1_555
Co65 Ta3 2.834488 1_555
Co65 Ta6 2.834488 1_555
Co65 Ta2 2.834488 1_555
Co65 Ta11 2.834488 1_555
Co66 Si33 2.293063 1_555
Co66 Si24 2.293063 1_554
Co66 Si51 2.322732 1_555
Co66 Si48 2.322732 1_555
Co66 Si57 2.443040 1_555
Co66 Si54 2.443040 1_554
Co66 Co7 2.575720 1_554
Co67 Si35 2.293051 1_555
Co67 Si25 2.293051 1_554
Co67 Si52 2.322733 1_565
Co67 Si49 2.322747 1_565
Co67 Si58 2.443048 1_565
Co67 Si55 2.443048 1_564
Co67 Co8 2.575720 1_554
Co68 Si34 2.293051 1_555
Co68 Si26 2.293051 1_554
Co68 Si50 2.322733 1_555
Co68 Si53 2.322747 1_555
Co68 Si59 2.443048 1_555
Co68 Si56 2.443048 1_554
Co69 Si30 2.293063 1_555
Co69 Si27 2.293063 1_554
Co69 Si51 2.322732 1_555
Co69 Si48 2.322732 1_555
Co69 Si57 2.443040 1_555
Co69 Si54 2.443040 1_554
Co70 Si32 2.293051 1_555
Co70 Si28 2.293051 1_554
Co70 Si53 2.322733 1_655
Co70 Si50 2.322747 1_655
Co70 Si59 2.443048 1_655
Co70 Si56 2.443048 1_654
Co71 Si31 2.293051 1_555
Co71 Si29 2.293051 1_554
Co71 Si49 2.322733 1_555
Co71 Si52 2.322747 1_555
Co71 Si58 2.443048 1_555
Co71 Si55 2.443048 1_554
Co71 Co9 2.575720 1_554
Co72 Si1 2.274422 1_555
Co72 Si4 2.274422 1_555
Co72 Si54 2.341272 1_555
Co72 Si57 2.341272 1_555
Co72 Ta15 2.679893 1_555
Co72 Ta12 2.679893 1_555
Co72 Ta0 2.956438 1_555
Co72 Ta9 2.956438 1_555
Co73 Si2 2.274422 1_555
Co73 Si3 2.274422 1_545
Co73 Si55 2.341272 1_555
Co73 Si58 2.341272 1_555
Co73 Ta13 2.679893 1_545
Co73 Ta17 2.679893 1_555
Co73 Ta1 2.956438 1_555
Co73 Ta10 2.956438 1_555
Co74 Si5 2.274422 1_555
Co74 Si0 2.274422 1_455
Co74 Si56 2.341272 1_555
Co74 Si59 2.341272 1_555
Co74 Ta16 2.679893 1_455
Co74 Ta14 2.679893 1_555
Co74 Ta2 2.956438 1_555
Co74 Ta11 2.956438 1_555
Co75 Si7 2.274422 1_555
Co75 Si10 2.274422 1_555
Co75 Si54 2.341272 1_555
Co75 Si57 2.341272 1_555
Co75 Ta15 2.679893 1_555
Co75 Ta12 2.679893 1_555
Co75 Ta3 2.956438 1_555
Co75 Ta6 2.956438 1_555
Co76 Si8 2.274422 1_545
Co76 Si9 2.274422 1_555
Co76 Si55 2.341272 1_555
Co76 Si58 2.341272 1_555
Co76 Co9 2.649173 1_555
Co76 Co8 2.649176 1_545
Co76 Ta17 2.679893 1_555
Co76 Ta13 2.679893 1_545
Co76 Ta4 2.956438 1_555
Co76 Ta7 2.956438 1_555
Co77 Si11 2.274422 1_455
Co77 Si6 2.274422 1_555
Co77 Si56 2.341272 1_555
Co77 Si59 2.341272 1_555
Co77 Ta14 2.679893 1_555
Co77 Ta16 2.679893 1_455
Co77 Ta5 2.956438 1_555
Co77 Ta8 2.956438 1_555
Co78 Si31 2.327152 1_555
Co78 Si32 2.327152 1_555
Co78 Si28 2.327152 1_554
Co78 Si29 2.327152 1_554
Co78 Si30 2.327163 1_555
Co78 Si27 2.327163 1_554
Co78 Ta18 2.658848 1_555
Co78 Ta20 2.658863 1_555
Co78 Ta19 2.658863 1_555
Co79 Si34 2.327152 1_555
Co79 Si35 2.327152 1_555
Co79 Si25 2.327152 1_554
Co79 Si26 2.327152 1_554
Co79 Si33 2.327163 1_555
Co79 Si24 2.327163 1_554
Co79 Ta21 2.658848 1_555
Co79 Ta23 2.658863 1_555
Co79 Ta22 2.658863 1_555
Si0 Si12 2.590940 1_555
Si0 Si21 2.590940 1_555
Si0 Si9 2.620039 1_555
Si0 Ta16 2.657862 1_555
Si0 Ta2 2.797914 1_655
Si0 Ta11 2.797914 1_655
Si1 Si13 2.590940 1_555
Si1 Si23 2.590940 1_555
Si1 Si11 2.620039 1_555
Si1 Ta15 2.657862 1_555
Si1 Ta0 2.797914 1_555
Si1 Ta9 2.797914 1_555
Si2 Si22 2.590940 1_555
Si2 Ta17 2.657862 1_555
Si2 Ta1 2.797914 1_555
Si2 Ta10 2.797914 1_555
Si3 Si6 2.620039 1_555
Si3 Ta13 2.657862 1_555
Si3 Ta1 2.797914 1_565
Si3 Ta10 2.797914 1_565
Si4 Si8 2.620039 1_555
Si4 Ta12 2.657862 1_555
Si4 Ta0 2.797914 1_555
Si4 Ta9 2.797914 1_555
Si5 Si7 2.620039 1_555
Si5 Ta14 2.657862 1_555
Si5 Ta2 2.797914 1_555
Si5 Ta11 2.797914 1_555
Si6 Ta14 2.657862 1_555
Si6 Ta5 2.797914 1_555
Si6 Ta8 2.797914 1_555
Si7 Ta12 2.657862 1_555
Si7 Ta3 2.797914 1_555
Si7 Ta6 2.797914 1_555
Si8 Ta13 2.657862 1_555
Si8 Ta4 2.797914 1_565
Si8 Ta7 2.797914 1_565
Si9 Ta17 2.657862 1_555
Si9 Ta4 2.797914 1_555
Si9 Ta7 2.797914 1_555
Si10 Si14 2.590940 1_555
Si10 Si22 2.590940 1_555
Si10 Si2 2.620039 1_555
Si10 Ta15 2.657862 1_555
Si10 Ta3 2.797914 1_555
Si10 Ta6 2.797914 1_555
Si11 Si13 2.590940 1_555
Si11 Si23 2.590940 1_555
Si11 Ta16 2.657862 1_555
Si11 Ta5 2.797914 1_655
Si11 Ta8 2.797914 1_655
Si12 Si9 2.590940 1_555
Si12 Ta18 2.675333 1_556
Si12 Ta4 2.700259 1_555
Si12 Ta2 2.700259 1_655
Si13 Ta19 2.675333 1_556
Si13 Ta0 2.700259 1_555
Si13 Ta5 2.700259 1_655
Si14 Si2 2.590940 1_555
Si14 Ta20 2.675333 1_556
Si14 Ta3 2.700259 1_555
Si14 Ta1 2.700259 1_555
Si15 Si6 2.590940 1_555
Si15 Si3 2.590940 1_555
Si15 Ta21 2.675333 1_556
Si15 Ta5 2.700259 1_555
Si15 Ta1 2.700259 1_565
Si16 Si8 2.590940 1_555
Si16 Si4 2.590940 1_555
Si16 Ta22 2.675333 1_556
Si16 Ta0 2.700259 1_555
Si16 Ta4 2.700259 1_565
Si17 Si5 2.590940 1_555
Si17 Si7 2.590940 1_555
Si17 Ta23 2.675333 1_556
Si17 Ta3 2.700259 1_555
Si17 Ta2 2.700259 1_555
Si18 Si6 2.590940 1_555
Si18 Si3 2.590940 1_555
Si18 Ta21 2.675333 1_555
Si18 Ta8 2.700259 1_555
Si18 Ta10 2.700259 1_565
Si19 Si5 2.590940 1_555
Si19 Si7 2.590940 1_555
Si19 Ta23 2.675333 1_555
Si19 Ta6 2.700259 1_555
Si19 Ta11 2.700259 1_555
Si20 Si8 2.590940 1_555
Si20 Si4 2.590940 1_555
Si20 Ta22 2.675333 1_555
Si20 Ta9 2.700259 1_555
Si20 Ta7 2.700259 1_565
Si21 Si9 2.590940 1_555
Si21 Ta18 2.675333 1_555
Si21 Ta7 2.700259 1_555
Si21 Ta11 2.700259 1_655
Si22 Ta20 2.675333 1_555
Si22 Ta6 2.700259 1_555
Si22 Ta10 2.700259 1_555
Si23 Ta19 2.675333 1_555
Si23 Ta9 2.700259 1_555
Si23 Ta8 2.700259 1_655
Si24 Ta12 2.649169 1_555
Si24 Ta23 2.752923 1_556
Si24 Ta22 2.752923 1_556
Si25 Ta13 2.649169 1_555
Si25 Ta22 2.752923 1_556
Si25 Ta21 2.752923 1_556
Si26 Ta14 2.649169 1_555
Si26 Ta23 2.752923 1_556
Si26 Ta21 2.752923 1_556
Si27 Ta15 2.649169 1_555
Si27 Ta20 2.752923 1_556
Si27 Ta19 2.752923 1_556
Si28 Ta16 2.649169 1_555
Si28 Ta19 2.752923 1_556
Si28 Ta18 2.752923 1_556
Si29 Ta17 2.649169 1_555
Si29 Ta20 2.752923 1_556
Si29 Ta18 2.752923 1_556
Si30 Ta15 2.649169 1_555
Si30 Ta20 2.752923 1_555
Si30 Ta19 2.752923 1_555
Si31 Ta17 2.649169 1_555
Si31 Ta20 2.752923 1_555
Si31 Ta18 2.752923 1_555
Si32 Ta16 2.649169 1_555
Si32 Ta19 2.752923 1_555
Si32 Ta18 2.752923 1_555
Si33 Ta12 2.649169 1_555
Si33 Ta23 2.752923 1_555
Si33 Ta22 2.752923 1_555
Si34 Ta14 2.649169 1_555
Si34 Ta23 2.752923 1_555
Si34 Ta21 2.752923 1_555
Si35 Ta13 2.649169 1_555
Si35 Ta22 2.752923 1_555
Si35 Ta21 2.752923 1_555
Si36 Si41 2.487134 1_655
Si36 Si40 2.487134 1_565
Si36 Ta0 2.707657 1_555
Si36 Ta9 2.707657 1_555
Si37 Si39 2.487134 1_555
Si37 Si41 2.487134 1_545
Si37 Ta1 2.707657 1_555
Si37 Ta10 2.707657 1_555
Si38 Si39 2.487134 1_555
Si38 Si40 2.487134 1_455
Si38 Ta2 2.707657 1_555
Si38 Ta11 2.707657 1_555
Si39 Ta3 2.707657 1_555
Si39 Ta6 2.707657 1_555
Si40 Ta4 2.707657 1_555
Si40 Ta7 2.707657 1_555
Si41 Ta5 2.707657 1_555
Si41 Ta8 2.707657 1_555
Si42 Ta9 3.017844 1_555
Si42 Ta0 3.017844 1_554
Si43 Ta10 3.017844 1_555
Si43 Ta1 3.017844 1_554
Si44 Ta11 3.017844 1_555
Si44 Ta2 3.017844 1_554
Si45 Ta6 3.017844 1_555
Si45 Ta3 3.017844 1_554
Si46 Ta7 3.017844 1_555
Si46 Ta4 3.017844 1_554
Si47 Ta8 3.017844 1_555
Si47 Ta5 3.017844 1_554
Si48 Ta9 3.063623 1_555
Si48 Ta0 3.063623 1_554
Si49 Ta10 3.063623 1_555
Si49 Ta1 3.063623 1_554
Si50 Ta11 3.063623 1_555
Si50 Ta2 3.063623 1_554
Si51 Ta6 3.063623 1_555
Si51 Ta3 3.063623 1_554
Si52 Ta7 3.063623 1_555
Si52 Ta4 3.063623 1_554
Si53 Ta8 3.063623 1_555
Si53 Ta5 3.063623 1_554
Si54 Ta15 2.946365 1_555
Si54 Ta12 2.946365 1_555
Si55 Ta17 2.946365 1_555
Si55 Ta13 2.946365 1_545
Si56 Ta14 2.946365 1_555
Si56 Ta16 2.946365 1_455
Si57 Ta15 2.946365 1_555
Si57 Ta12 2.946365 1_555
Si58 Ta17 2.946365 1_555
Si58 Ta13 2.946365 1_545
Si59 Ta14 2.946365 1_555
Si59 Ta16 2.946365 1_455
Si60 Ta16 2.672825 1_555
Si60 Ta17 2.672825 1_555
Si60 Ta15 2.672840 1_555
Si61 Ta13 2.672825 1_555
Si61 Ta14 2.672825 1_555
Si61 Ta12 2.672840 1_555
