# generated using pymatgen
data_XeNO3F
_symmetry_space_group_name_H-M   'P 1'
_cell_length_a   9.09305600
_cell_length_b   4.79103700
_cell_length_c   9.65891547
_cell_angle_alpha   89.20171757
_cell_angle_beta   90.00000000
_cell_angle_gamma   90.00000000
_symmetry_Int_Tables_number   1
_chemical_formula_structural   XeNO3F
_chemical_formula_sum   'Xe4 N4 O12 F4'
_cell_volume   420.75143159
_cell_formula_units_Z   4
loop_
 _symmetry_equiv_pos_site_id
 _symmetry_equiv_pos_as_xyz
  1  'x, y, z'
loop_
 _atom_site_type_symbol
 _atom_site_label
 _atom_site_symmetry_multiplicity
 _atom_site_fract_x
 _atom_site_fract_y
 _atom_site_fract_z
 _atom_site_occupancy
  Xe  Xe0  1  0.54177700  0.84020400  0.77926100  1
  Xe  Xe1  1  0.04177700  0.15979600  0.72073900  1
  Xe  Xe2  1  0.45822300  0.15979600  0.22073900  1
  Xe  Xe3  1  0.95822300  0.84020400  0.27926100  1
  N  N0  1  0.68242200  0.51857900  0.53978600  1
  N  N1  1  0.18242200  0.48142100  0.96021400  1
  N  N2  1  0.31757800  0.48142100  0.46021400  1
  N  N3  1  0.81757800  0.51857900  0.03978600  1
  O  O0  1  0.75827000  0.33028000  0.49239000  1
  O  O1  1  0.25827000  0.66972000  0.00761000  1
  O  O2  1  0.24173000  0.66972000  0.50761000  1
  O  O3  1  0.74173000  0.33028000  0.99239000  1
  O  O4  1  0.62564000  0.71569800  0.47791000  1
  O  O5  1  0.12564000  0.28430200  0.02209000  1
  O  O6  1  0.37436000  0.28430200  0.52209000  1
  O  O7  1  0.87436000  0.71569800  0.97791000  1
  O  O8  1  0.66242200  0.48812900  0.68193100  1
  O  O9  1  0.16242200  0.51187100  0.81806900  1
  O  O10  1  0.33757800  0.51187100  0.31806900  1
  O  O11  1  0.83757800  0.48812900  0.18193100  1
  F  F0  1  0.43151100  0.17397100  0.87415500  1
  F  F1  1  0.93151100  0.82602900  0.62584500  1
  F  F2  1  0.56848900  0.82602900  0.12584500  1
  F  F3  1  0.06848900  0.17397100  0.37415500  1
loop_
_geom_bond_atom_site_label_1
_geom_bond_atom_site_label_2
_geom_bond_distance
_geom_bond_site_symmetry_2
N0 O4 1.224725 1_555
N0 O0 1.229075 1_555
N0 O8 1.390616 1_555
N1 O5 1.224725 1_556
N1 O1 1.229075 1_556
N1 O9 1.390616 1_555
N2 O6 1.224725 1_555
N2 O2 1.229075 1_555
N2 O10 1.390616 1_555
N3 O7 1.224725 1_554
N3 O3 1.229075 1_554
N3 O11 1.390616 1_555
O8 Xe0 2.230867 1_555
O9 Xe1 2.230867 1_555
O10 Xe2 2.230867 1_555
O11 Xe3 2.230867 1_555
F0 Xe0 2.107926 1_545
F1 Xe1 2.107926 1_665
F2 Xe2 2.107926 1_565
F3 Xe3 2.107926 1_445
