# generated using pymatgen
data_CaDy(CoO3)4
_symmetry_space_group_name_H-M   'P 1'
_cell_length_a   5.24587038
_cell_length_b   5.24587038
_cell_length_c   7.46673075
_cell_angle_alpha   90.00000000
_cell_angle_beta   90.00000000
_cell_angle_gamma   89.55474401
_symmetry_Int_Tables_number   1
_chemical_formula_structural   CaDy(CoO3)4
_chemical_formula_sum   'Ca1 Dy1 Co4 O12'
_cell_volume   205.47192445
_cell_formula_units_Z   1
loop_
 _symmetry_equiv_pos_site_id
 _symmetry_equiv_pos_as_xyz
  1  'x, y, z'
loop_
 _atom_site_type_symbol
 _atom_site_label
 _atom_site_symmetry_multiplicity
 _atom_site_fract_x
 _atom_site_fract_y
 _atom_site_fract_z
 _atom_site_occupancy
  Ca  Ca0  1  0.48841122  0.48841122  0.50000000  1
  Dy  Dy0  1  0.01776655  0.01776655  0.00000000  1
  Co  Co0  1  0.50413676  0.99636745  0.74663439  1
  Co  Co1  1  0.50413676  0.99636745  0.25336561  1
  Co  Co2  1  0.99636745  0.50413676  0.25336561  1
  Co  Co3  1  0.99636745  0.50413676  0.74663439  1
  O  O0  1  0.72641664  0.27336391  0.75209142  1
  O  O1  1  0.27336391  0.72641664  0.75209142  1
  O  O2  1  0.27336391  0.72641664  0.24790858  1
  O  O3  1  0.72641664  0.27336391  0.24790858  1
  O  O4  1  0.78927139  0.78927139  0.79054095  1
  O  O5  1  0.22158728  0.22158728  0.73052617  1
  O  O6  1  0.22158728  0.22158728  0.26947383  1
  O  O7  1  0.78927139  0.78927139  0.20945905  1
  O  O8  1  0.45460440  0.01983480  0.00000000  1
  O  O9  1  0.52844514  0.96715101  0.50000000  1
  O  O10  1  0.01983480  0.45460440  0.00000000  1
  O  O11  1  0.96715101  0.52844514  0.50000000  1
loop_
_geom_bond_atom_site_label_1
_geom_bond_atom_site_label_2
_geom_bond_distance
_geom_bond_site_symmetry_2
Ca0 O0 2.520448 1_555
Ca0 O1 2.520448 1_555
Ca0 O2 2.520448 1_555
Ca0 O3 2.520448 1_555
Ca0 O9 2.521798 1_555
Ca0 O11 2.521798 1_555
Ca0 O5 2.629011 1_555
Ca0 O6 2.629011 1_555
Ca0 O11 2.740889 1_455
Ca0 O9 2.740889 1_545
Dy0 O10 2.291705 1_555
Dy0 O8 2.291705 1_555
Dy0 O4 2.311255 1_444
Dy0 O7 2.311255 1_445
Dy0 O5 2.520460 1_554
Dy0 O6 2.520460 1_555
Dy0 O2 2.743790 1_545
Dy0 O3 2.743790 1_455
Dy0 O1 2.743790 1_544
Dy0 O0 2.743790 1_454
Dy0 O10 2.954211 1_545
Dy0 O8 2.954211 1_455
Co0 O9 1.852232 1_555
Co0 O0 1.870597 1_565
Co0 O1 1.870637 1_555
Co0 O4 1.870786 1_555
Co0 O5 1.892115 1_565
Co0 O8 1.913408 1_566
Co1 O9 1.852232 1_555
Co1 O3 1.870597 1_565
Co1 O2 1.870637 1_555
Co1 O7 1.870786 1_555
Co1 O6 1.892115 1_565
Co1 O8 1.913408 1_565
Co2 O11 1.852232 1_555
Co2 O2 1.870597 1_655
Co2 O3 1.870637 1_555
Co2 O7 1.870786 1_555
Co2 O6 1.892115 1_655
Co2 O10 1.913408 1_655
Co3 O11 1.852232 1_555
Co3 O1 1.870597 1_655
Co3 O0 1.870637 1_555
Co3 O4 1.870786 1_555
Co3 O5 1.892115 1_655
Co3 O10 1.913408 1_656
