# generated using pymatgen
data_Na2CuAuF6
_symmetry_space_group_name_H-M   'P 1'
_cell_length_a   5.96734908
_cell_length_b   5.96734908
_cell_length_c   5.96734908
_cell_angle_alpha   60.00000000
_cell_angle_beta   60.00000000
_cell_angle_gamma   60.00000000
_symmetry_Int_Tables_number   1
_chemical_formula_structural   Na2CuAuF6
_chemical_formula_sum   'Na2 Cu1 Au1 F6'
_cell_volume   150.25513893
_cell_formula_units_Z   1
loop_
 _symmetry_equiv_pos_site_id
 _symmetry_equiv_pos_as_xyz
  1  'x, y, z'
loop_
 _atom_site_type_symbol
 _atom_site_label
 _atom_site_symmetry_multiplicity
 _atom_site_fract_x
 _atom_site_fract_y
 _atom_site_fract_z
 _atom_site_occupancy
  Na  Na0  1  0.75000000  0.75000000  0.75000000  1
  Na  Na1  1  0.25000000  0.25000000  0.25000000  1
  Cu  Cu0  1  0.50000000  0.50000000  0.50000000  1
  Au  Au0  1  0.00000000  0.00000000  0.00000000  1
  F  F0  1  0.73498700  0.26501300  0.26501300  1
  F  F1  1  0.26501300  0.26501300  0.73498700  1
  F  F2  1  0.26501300  0.73498700  0.73498700  1
  F  F3  1  0.26501300  0.73498700  0.26501300  1
  F  F4  1  0.73498700  0.26501300  0.73498700  1
  F  F5  1  0.73498700  0.73498700  0.26501300  1
loop_
_geom_bond_atom_site_label_1
_geom_bond_atom_site_label_2
_geom_bond_distance
_geom_bond_site_symmetry_2
Cu0 F4 1.983080 1_555
Cu0 F5 1.983080 1_555
Cu0 F2 1.983080 1_555
Cu0 F3 1.983080 1_555
Cu0 F0 1.983080 1_555
Cu0 F1 1.983080 1_555
Au0 F1 2.236473 1_554
Au0 F3 2.236473 1_545
Au0 F0 2.236473 1_455
Au0 F2 2.236473 1_544
Au0 F5 2.236473 1_445
Au0 F4 2.236473 1_454
F0 Na1 2.986363 1_555
F0 Na0 2.986363 1_554
F0 Na0 2.986363 1_545
F0 Na1 2.986363 1_655
F1 Na1 2.986363 1_555
F1 Na0 2.986363 1_545
F1 Na0 2.986363 1_455
F1 Na1 2.986363 1_556
F2 Na0 2.986363 1_455
F2 Na1 2.986363 1_556
F2 Na1 2.986363 1_565
F2 Na0 2.986363 1_555
F3 Na1 2.986363 1_555
F3 Na0 2.986363 1_554
F3 Na0 2.986363 1_455
F3 Na1 2.986363 1_565
F4 Na0 2.986363 1_545
F4 Na1 2.986363 1_556
F4 Na1 2.986363 1_655
F4 Na0 2.986363 1_555
F5 Na0 2.986363 1_554
F5 Na1 2.986363 1_565
F5 Na1 2.986363 1_655
F5 Na0 2.986363 1_555
