# generated using pymatgen
data_LiSm6B3O14
_symmetry_space_group_name_H-M   'P 1'
_cell_length_a   15.91133300
_cell_length_b   8.61300400
_cell_length_c   12.28286494
_cell_angle_alpha   47.86903982
_cell_angle_beta   90.00000000
_cell_angle_gamma   90.00000000
_symmetry_Int_Tables_number   1
_chemical_formula_structural   LiSm6B3O14
_chemical_formula_sum   'Li4 Sm24 B12 O56'
_cell_volume   1248.35612194
_cell_formula_units_Z   4
loop_
 _symmetry_equiv_pos_site_id
 _symmetry_equiv_pos_as_xyz
  1  'x, y, z'
loop_
 _atom_site_type_symbol
 _atom_site_label
 _atom_site_symmetry_multiplicity
 _atom_site_fract_x
 _atom_site_fract_y
 _atom_site_fract_z
 _atom_site_occupancy
  Li  Li0  1  0.60369800  0.88040700  0.43993200  1
  Li  Li1  1  0.39630200  0.11959300  0.56006800  1
  Li  Li2  1  0.10369800  0.11959300  0.06006800  1
  Li  Li3  1  0.89630200  0.88040700  0.93993200  1
  Sm  Sm0  1  0.82201400  0.55214600  0.30624000  1
  Sm  Sm1  1  0.17798600  0.44785400  0.69376000  1
  Sm  Sm2  1  0.32201400  0.44785400  0.19376000  1
  Sm  Sm3  1  0.67798600  0.55214600  0.80624000  1
  Sm  Sm4  1  0.32520200  0.98577500  0.05433500  1
  Sm  Sm5  1  0.67479800  0.01422500  0.94566500  1
  Sm  Sm6  1  0.82520200  0.01422500  0.44566500  1
  Sm  Sm7  1  0.17479800  0.98577500  0.55433500  1
  Sm  Sm8  1  0.35633500  0.84828800  0.42407300  1
  Sm  Sm9  1  0.64366500  0.15171200  0.57592700  1
  Sm  Sm10  1  0.85633500  0.15171200  0.07592700  1
  Sm  Sm11  1  0.14366500  0.84828800  0.92407300  1
  Sm  Sm12  1  0.51377300  0.66485200  0.28321300  1
  Sm  Sm13  1  0.48622700  0.33514800  0.71678700  1
  Sm  Sm14  1  0.01377300  0.33514800  0.21678700  1
  Sm  Sm15  1  0.98622700  0.66485200  0.78321300  1
  Sm  Sm16  1  0.50429500  0.23750100  0.06214600  1
  Sm  Sm17  1  0.49570500  0.76249900  0.93785400  1
  Sm  Sm18  1  0.00429500  0.76249900  0.43785400  1
  Sm  Sm19  1  0.99570500  0.23750100  0.56214600  1
  Sm  Sm20  1  0.66574300  0.41140300  0.16657800  1
  Sm  Sm21  1  0.33425700  0.58859700  0.83342200  1
  Sm  Sm22  1  0.16574300  0.58859700  0.33342200  1
  Sm  Sm23  1  0.83425700  0.41140300  0.66657800  1
  B  B0  1  0.82690300  0.54421500  0.02693000  1
  B  B1  1  0.17309700  0.45578500  0.97307000  1
  B  B2  1  0.32690300  0.45578500  0.47307000  1
  B  B3  1  0.67309700  0.54421500  0.52693000  1
  B  B4  1  0.99928100  0.79199300  0.14448300  1
  B  B5  1  0.00071900  0.20800700  0.85551700  1
  B  B6  1  0.49928100  0.20800700  0.35551700  1
  B  B7  1  0.50071900  0.79199300  0.64448300  1
  B  B8  1  0.69306700  0.95837400  0.22128300  1
  B  B9  1  0.30693300  0.04162600  0.77871700  1
  B  B10  1  0.19306700  0.04162600  0.27871700  1
  B  B11  1  0.80693300  0.95837400  0.72128300  1
  O  O0  1  0.75048300  0.88414500  0.17827500  1
  O  O1  1  0.24951700  0.11585500  0.82172500  1
  O  O2  1  0.25048300  0.11585500  0.32172500  1
  O  O3  1  0.74951700  0.88414500  0.67827500  1
  O  O4  1  0.46736200  0.69760500  0.59527200  1
  O  O5  1  0.53263800  0.30239500  0.40472800  1
  O  O6  1  0.96736200  0.30239500  0.90472800  1
  O  O7  1  0.03263800  0.69760500  0.09527200  1
  O  O8  1  0.42096300  0.93428000  0.22047100  1
  O  O9  1  0.57903700  0.06572000  0.77952900  1
  O  O10  1  0.92096300  0.06572000  0.27952900  1
  O  O11  1  0.07903700  0.93428000  0.72047100  1
  O  O12  1  0.91576600  0.85233900  0.11778100  1
  O  O13  1  0.08423400  0.14766100  0.88221900  1
  O  O14  1  0.41576600  0.14766100  0.38221900  1
  O  O15  1  0.58423400  0.85233900  0.61778100  1
  O  O16  1  0.91091900  0.52482900  0.00981500  1
  O  O17  1  0.08908100  0.47517100  0.99018500  1
  O  O18  1  0.41091900  0.47517100  0.49018500  1
  O  O19  1  0.58908100  0.52482900  0.50981500  1
  O  O20  1  0.79639700  0.64076700  0.07442400  1
  O  O21  1  0.20360300  0.35923300  0.92557600  1
  O  O22  1  0.29639700  0.35923300  0.42557600  1
  O  O23  1  0.70360300  0.64076700  0.57442400  1
  O  O24  1  0.44958700  0.82373300  0.71868100  1
  O  O25  1  0.55041300  0.17626700  0.28131900  1
  O  O26  1  0.94958700  0.17626700  0.78131900  1
  O  O27  1  0.05041300  0.82373300  0.21868100  1
  O  O28  1  0.59815400  0.70216900  0.10545900  1
  O  O29  1  0.40184600  0.29783100  0.89454100  1
  O  O30  1  0.09815400  0.29783100  0.39454100  1
  O  O31  1  0.90184600  0.70216900  0.60545900  1
  O  O32  1  0.91065000  0.52708000  0.46409600  1
  O  O33  1  0.08935000  0.47292000  0.53590400  1
  O  O34  1  0.41065000  0.47292000  0.03590400  1
  O  O35  1  0.58935000  0.52708000  0.96409600  1
  O  O36  1  0.41429300  0.71423600  0.12353900  1
  O  O37  1  0.58570700  0.28576400  0.87646100  1
  O  O38  1  0.91429300  0.28576400  0.37646100  1
  O  O39  1  0.08570700  0.71423600  0.62353900  1
  O  O40  1  0.23215500  0.72375400  0.12140200  1
  O  O41  1  0.76784500  0.27624600  0.87859800  1
  O  O42  1  0.73215500  0.27624600  0.37859800  1
  O  O43  1  0.26784500  0.72375400  0.62140200  1
  O  O44  1  0.22460100  0.94741600  0.22972000  1
  O  O45  1  0.77539900  0.05258400  0.77028000  1
  O  O46  1  0.72460100  0.05258400  0.27028000  1
  O  O47  1  0.27539900  0.94741600  0.72972000  1
  O  O48  1  0.60842400  0.94803500  0.20120500  1
  O  O49  1  0.39157600  0.05196500  0.79879500  1
  O  O50  1  0.10842400  0.05196500  0.29879500  1
  O  O51  1  0.89157600  0.94803500  0.70120500  1
  O  O52  1  0.76859100  0.44850000  0.00390000  1
  O  O53  1  0.23140900  0.55150000  0.99610000  1
  O  O54  1  0.26859100  0.55150000  0.49610000  1
  O  O55  1  0.73140900  0.44850000  0.50390000  1
loop_
_geom_bond_atom_site_label_1
_geom_bond_atom_site_label_2
_geom_bond_distance
_geom_bond_site_symmetry_2
Li0 O15 2.053739 1_555
Li0 O25 2.085002 1_565
Li0 O23 2.222933 1_555
Li0 O46 2.469044 1_565
Li0 O19 2.577479 1_555
Li0 O48 2.579054 1_555
Li0 O4 2.606687 1_555
Li1 O14 2.053739 1_555
Li1 O24 2.085002 1_545
Li1 O22 2.222933 1_555
Li1 O47 2.469044 1_545
Li1 O18 2.577479 1_555
Li1 O49 2.579054 1_555
Li1 O5 2.606687 1_555
Li2 O13 2.053739 1_554
Li2 O27 2.085002 1_545
Li2 O21 2.222933 1_554
Li2 O44 2.469044 1_545
Li2 O17 2.577479 1_554
Li2 O50 2.579054 1_555
Li2 O6 2.606687 1_454
Li3 O12 2.053739 1_556
Li3 O26 2.085002 1_565
Li3 O20 2.222933 1_556
Li3 O45 2.469044 1_565
Li3 O16 2.577479 1_556
Li3 O51 2.579054 1_555
Li3 O7 2.606687 1_656
B0 O16 1.380658 1_555
B0 O20 1.385045 1_555
B0 O52 1.390457 1_555
B1 O17 1.380658 1_555
B1 O21 1.385045 1_555
B1 O53 1.390457 1_555
B2 O18 1.380658 1_555
B2 O22 1.385045 1_555
B2 O54 1.390457 1_555
B3 O19 1.380658 1_555
B3 O23 1.385045 1_555
B3 O55 1.390457 1_555
B4 O27 1.378948 1_655
B4 O12 1.383767 1_555
B4 O7 1.402590 1_655
B5 O26 1.378948 1_455
B5 O13 1.383767 1_555
B5 O6 1.402590 1_455
B6 O25 1.378948 1_555
B6 O14 1.383767 1_555
B6 O5 1.402590 1_555
B7 O24 1.378948 1_555
B7 O15 1.383767 1_555
B7 O4 1.402590 1_555
B8 O48 1.382764 1_555
B8 O46 1.388360 1_565
B8 O0 1.405537 1_555
B9 O49 1.382764 1_555
B9 O47 1.388360 1_545
B9 O1 1.405537 1_555
B10 O50 1.382764 1_555
B10 O44 1.388360 1_545
B10 O2 1.405537 1_555
B11 O51 1.382764 1_555
B11 O45 1.388360 1_565
B11 O3 1.405537 1_555
O0 Sm10 2.416836 1_565
O0 Sm0 2.431581 1_555
O0 Sm5 2.563957 1_564
O1 Sm11 2.416836 1_545
O1 Sm1 2.431581 1_555
O1 Sm4 2.563957 1_546
O2 Sm8 2.416836 1_545
O2 Sm2 2.431581 1_555
O2 Sm7 2.563957 1_545
O3 Sm9 2.416836 1_565
O3 Sm3 2.431581 1_555
O3 Sm6 2.563957 1_565
O4 Sm8 2.359135 1_555
O4 Sm13 2.410863 1_555
O5 Sm9 2.359135 1_555
O5 Sm12 2.410863 1_555
O6 Sm10 2.359135 1_556
O6 Sm15 2.410863 1_555
O7 Sm11 2.359135 1_554
O7 Sm14 2.410863 1_555
O8 Sm8 2.318411 1_555
O8 Sm4 2.338417 1_555
O8 Sm16 2.355106 1_565
O8 Sm12 2.400080 1_555
O9 Sm9 2.318411 1_555
O9 Sm5 2.338417 1_555
O9 Sm17 2.355106 1_545
O9 Sm13 2.400080 1_555
O10 Sm10 2.318411 1_555
O10 Sm6 2.338417 1_555
O10 Sm18 2.355106 1_645
O10 Sm14 2.400080 1_655
O11 Sm11 2.318411 1_555
O11 Sm7 2.338417 1_555
O11 Sm19 2.355106 1_465
O11 Sm15 2.400080 1_455
O12 Sm10 2.455341 1_565
O12 Sm0 2.497758 1_555
O13 Sm11 2.455341 1_545
O13 Sm1 2.497758 1_555
O14 Sm8 2.455341 1_545
O14 Sm2 2.497758 1_555
O15 Sm9 2.455341 1_565
O15 Sm3 2.497758 1_555
O16 Sm15 2.476607 1_554
O16 Sm14 2.497580 1_655
O16 Sm10 2.870555 1_555
O17 Sm14 2.476607 1_556
O17 Sm15 2.497580 1_455
O17 Sm11 2.870555 1_555
O18 Sm13 2.476607 1_555
O18 Sm12 2.497580 1_555
O18 Sm8 2.870555 1_555
O19 Sm12 2.476607 1_555
O19 Sm13 2.497580 1_555
O19 Sm9 2.870555 1_555
O20 Sm0 2.437278 1_555
O20 Sm20 2.550594 1_555
O21 Sm1 2.437278 1_555
O21 Sm21 2.550594 1_555
O22 Sm2 2.437278 1_555
O22 Sm22 2.550594 1_555
O23 Sm3 2.437278 1_555
O23 Sm23 2.550594 1_555
O24 Sm21 2.371879 1_555
O24 Sm17 2.481726 1_555
O25 Sm20 2.371879 1_555
O25 Sm16 2.481726 1_555
O26 Sm23 2.371879 1_555
O26 Sm19 2.481726 1_555
O27 Sm22 2.371879 1_555
O27 Sm18 2.481726 1_555
O28 Sm20 2.338714 1_555
O28 Sm5 2.342181 1_564
O28 Sm17 2.393772 1_554
O28 Sm12 2.394022 1_555
O29 Sm21 2.338714 1_555
O29 Sm4 2.342181 1_546
O29 Sm16 2.393772 1_556
O29 Sm13 2.394022 1_555
O30 Sm22 2.338714 1_555
O30 Sm7 2.342181 1_545
O30 Sm19 2.393772 1_455
O30 Sm14 2.394022 1_555
O31 Sm23 2.338714 1_555
O31 Sm6 2.342181 1_565
O31 Sm18 2.393772 1_655
O31 Sm15 2.394022 1_555
O32 Sm0 2.287665 1_555
O32 Sm23 2.308915 1_555
O32 Sm19 2.339372 1_555
O32 Sm18 2.357669 1_655
O33 Sm1 2.287665 1_555
O33 Sm22 2.308915 1_555
O33 Sm18 2.339372 1_555
O33 Sm19 2.357669 1_455
O34 Sm2 2.287665 1_555
O34 Sm21 2.308915 1_554
O34 Sm17 2.339372 1_554
O34 Sm16 2.357669 1_555
O35 Sm3 2.287665 1_555
O35 Sm20 2.308915 1_556
O35 Sm16 2.339372 1_556
O35 Sm17 2.357669 1_555
O36 Sm12 2.326727 1_555
O36 Sm2 2.347085 1_555
O36 Sm4 2.352577 1_555
O36 Sm17 2.404285 1_554
O37 Sm13 2.326727 1_555
O37 Sm3 2.347085 1_555
O37 Sm5 2.352577 1_555
O37 Sm16 2.404285 1_556
O38 Sm14 2.326727 1_655
O38 Sm0 2.347085 1_555
O38 Sm6 2.352577 1_555
O38 Sm19 2.404285 1_555
O39 Sm15 2.326727 1_455
O39 Sm1 2.347085 1_555
O39 Sm7 2.352577 1_555
O39 Sm18 2.404285 1_555
O40 Sm22 2.277357 1_555
O40 Sm4 2.338660 1_555
O40 Sm11 2.349383 1_554
O40 Sm2 2.376453 1_555
O41 Sm23 2.277357 1_555
O41 Sm5 2.338660 1_555
O41 Sm10 2.349383 1_556
O41 Sm3 2.376453 1_555
O42 Sm20 2.277357 1_555
O42 Sm6 2.338660 1_555
O42 Sm9 2.349383 1_555
O42 Sm0 2.376453 1_555
O43 Sm21 2.277357 1_555
O43 Sm7 2.338660 1_555
O43 Sm8 2.349383 1_555
O43 Sm1 2.376453 1_555
O44 Sm4 2.521348 1_555
O44 Sm22 2.601779 1_555
O44 Sm8 2.843710 1_555
O45 Sm5 2.521348 1_555
O45 Sm23 2.601779 1_555
O45 Sm9 2.843710 1_555
O46 Sm6 2.521348 1_555
O46 Sm20 2.601779 1_555
O46 Sm10 2.843710 1_555
O47 Sm7 2.521348 1_555
O47 Sm21 2.601779 1_555
O47 Sm11 2.843710 1_555
O48 Sm12 2.436289 1_555
O48 Sm16 2.482950 1_565
O49 Sm13 2.436289 1_555
O49 Sm17 2.482950 1_545
O50 Sm14 2.436289 1_555
O50 Sm18 2.482950 1_545
O51 Sm15 2.436289 1_555
O51 Sm19 2.482950 1_565
O52 Sm3 2.421118 1_554
O52 Sm20 2.432303 1_555
O52 Sm10 2.496407 1_555
O53 Sm2 2.421118 1_556
O53 Sm21 2.432303 1_555
O53 Sm11 2.496407 1_555
O54 Sm1 2.421118 1_555
O54 Sm22 2.432303 1_555
O54 Sm8 2.496407 1_555
O55 Sm0 2.421118 1_555
O55 Sm23 2.432303 1_555
O55 Sm9 2.496407 1_555
