# generated using pymatgen
data_Na4Mn2O5
_symmetry_space_group_name_H-M   'P 1'
_cell_length_a   10.79087936
_cell_length_b   10.15759226
_cell_length_c   5.44132932
_cell_angle_alpha   81.50079166
_cell_angle_beta   68.58597097
_cell_angle_gamma   29.92408734
_symmetry_Int_Tables_number   1
_chemical_formula_structural   Na4Mn2O5
_chemical_formula_sum   'Na8 Mn4 O10'
_cell_volume   258.08055535
_cell_formula_units_Z   2
loop_
 _symmetry_equiv_pos_site_id
 _symmetry_equiv_pos_as_xyz
  1  'x, y, z'
loop_
 _atom_site_type_symbol
 _atom_site_label
 _atom_site_symmetry_multiplicity
 _atom_site_fract_x
 _atom_site_fract_y
 _atom_site_fract_z
 _atom_site_occupancy
  Na  Na0  1  0.65783235  0.16220472  0.34133158  1
  Na  Na1  1  0.08733007  0.59253496  0.41214482  1
  Na  Na2  1  0.34171956  0.83825577  0.65819730  1
  Na  Na3  1  0.16266702  0.65748161  0.83785972  1
  Na  Na4  1  0.59218431  0.08779052  0.90864999  1
  Na  Na5  1  0.41185629  0.90825619  0.08756425  1
  Na  Na6  1  0.90826268  0.41175055  0.59182219  1
  Na  Na7  1  0.83814786  0.34172823  0.16243290  1
  Mn  Mn0  1  0.97167514  0.52827911  0.97175408  1
  Mn  Mn1  1  0.72170106  0.27825246  0.72172539  1
  Mn  Mn2  1  0.27830666  0.72174645  0.27828312  1
  Mn  Mn3  1  0.52831382  0.97172340  0.52824122  1
  O  O0  1  0.74995999  0.75002065  0.75003437  1
  O  O1  1  0.31557513  0.31558274  0.68439640  1
  O  O2  1  0.06636105  0.06636447  0.43364617  1
  O  O3  1  0.43357882  0.43366560  0.06642652  1
  O  O4  1  0.18363903  0.18362870  0.81635255  1
  O  O5  1  0.81642051  0.81633674  0.18357381  1
  O  O6  1  0.68437555  0.68443430  0.31564104  1
  O  O7  1  0.93445440  0.93441298  0.56555740  1
  O  O8  1  0.50003302  0.49998573  0.49997230  1
  O  O9  1  0.56560668  0.56556510  0.93439387  1
loop_
_geom_bond_atom_site_label_1
_geom_bond_atom_site_label_2
_geom_bond_distance
_geom_bond_site_symmetry_2
Na0 O8 2.256513 1_555
Na0 O1 2.324590 1_555
Na0 O5 2.324948 1_545
Na0 O3 2.356810 1_555
Na0 O7 2.367598 1_545
Na1 O0 2.253872 1_455
Na1 O7 2.323551 1_455
Na1 O3 2.327391 1_555
Na1 O5 2.358080 1_455
Na1 O1 2.365802 1_555
Na2 O8 2.256452 1_555
Na2 O6 2.324129 1_555
Na2 O4 2.324868 1_565
Na2 O2 2.360289 1_565
Na2 O9 2.364093 1_555
Na3 O8 2.253778 1_555
Na3 O1 2.323586 1_555
Na3 O5 2.327450 1_456
Na3 O3 2.358048 1_556
Na3 O7 2.365907 1_455
Na4 O0 2.256542 1_545
Na4 O7 2.324740 1_545
Na4 O3 2.324916 1_556
Na4 O5 2.356836 1_546
Na4 O1 2.367639 1_555
Na5 O0 2.254451 1_554
Na5 O9 2.324071 1_554
Na5 O2 2.326744 1_565
Na5 O4 2.357955 1_564
Na5 O6 2.366198 1_555
Na6 O0 2.256511 1_555
Na6 O9 2.324197 1_555
Na6 O2 2.324892 1_655
Na6 O4 2.360285 1_655
Na6 O6 2.364010 1_555
Na7 O8 2.254426 1_555
Na7 O6 2.324109 1_555
Na7 O4 2.326761 1_654
Na7 O2 2.357935 1_655
Na7 O9 2.366139 1_554
Mn0 O6 1.935500 1_556
Mn0 O1 1.935999 1_655
Mn0 O4 1.945610 1_655
Mn0 O5 1.945864 1_556
Mn0 O0 2.053392 1_555
Mn1 O7 1.935197 1_545
Mn1 O9 1.935848 1_555
Mn1 O3 1.945752 1_556
Mn1 O2 1.945972 1_655
Mn1 O8 2.053329 1_555
Mn2 O9 1.935395 1_554
Mn2 O7 1.935667 1_455
Mn2 O2 1.945383 1_565
Mn2 O3 1.946039 1_555
Mn2 O8 2.053303 1_555
Mn3 O1 1.935433 1_565
Mn3 O6 1.935690 1_555
Mn3 O5 1.945685 1_555
Mn3 O4 1.946049 1_565
Mn3 O0 2.053413 1_555
