# generated using pymatgen
data_Rb8Zr6BeBr20
_symmetry_space_group_name_H-M   'P 1'
_cell_length_a   12.05526128
_cell_length_b   12.05526128
_cell_length_c   12.05526128
_cell_angle_alpha   60.00000000
_cell_angle_beta   60.00000000
_cell_angle_gamma   60.00000000
_symmetry_Int_Tables_number   1
_chemical_formula_structural   Rb8Zr6BeBr20
_chemical_formula_sum   'Rb8 Zr6 Be1 Br20'
_cell_volume   1238.83904484
_cell_formula_units_Z   1
loop_
 _symmetry_equiv_pos_site_id
 _symmetry_equiv_pos_as_xyz
  1  'x, y, z'
loop_
 _atom_site_type_symbol
 _atom_site_label
 _atom_site_symmetry_multiplicity
 _atom_site_fract_x
 _atom_site_fract_y
 _atom_site_fract_z
 _atom_site_occupancy
  Rb  Rb0  1  0.36069200  0.36069200  0.36069200  1
  Rb  Rb1  1  0.63930800  0.63930800  0.63930800  1
  Rb  Rb2  1  0.36069200  0.36069200  0.91792300  1
  Rb  Rb3  1  0.36069200  0.91792300  0.36069200  1
  Rb  Rb4  1  0.63930800  0.63930800  0.08207700  1
  Rb  Rb5  1  0.63930800  0.08207700  0.63930800  1
  Rb  Rb6  1  0.91792300  0.36069200  0.36069200  1
  Rb  Rb7  1  0.08207700  0.63930800  0.63930800  1
  Zr  Zr0  1  0.85931100  0.14068900  0.14068900  1
  Zr  Zr1  1  0.14068900  0.85931100  0.85931100  1
  Zr  Zr2  1  0.14068900  0.85931100  0.14068900  1
  Zr  Zr3  1  0.85931100  0.14068900  0.85931100  1
  Zr  Zr4  1  0.14068900  0.14068900  0.85931100  1
  Zr  Zr5  1  0.85931100  0.85931100  0.14068900  1
  Be  Be0  1  0.00000000  0.00000000  0.00000000  1
  Br  Br0  1  0.32058800  0.00000000  0.00000000  1
  Br  Br1  1  0.67941200  0.00000000  0.00000000  1
  Br  Br2  1  0.00000000  0.32058800  0.67941200  1
  Br  Br3  1  0.00000000  0.67941200  0.32058800  1
  Br  Br4  1  0.00000000  0.32058800  0.00000000  1
  Br  Br5  1  0.67941200  0.00000000  0.32058800  1
  Br  Br6  1  0.00000000  0.67941200  0.00000000  1
  Br  Br7  1  0.32058800  0.00000000  0.67941200  1
  Br  Br8  1  0.00000000  0.00000000  0.32058800  1
  Br  Br9  1  0.00000000  0.00000000  0.67941200  1
  Br  Br10  1  0.67941200  0.32058800  0.00000000  1
  Br  Br11  1  0.32058800  0.67941200  0.00000000  1
  Br  Br12  1  0.68780600  0.31219400  0.31219400  1
  Br  Br13  1  0.31219400  0.68780600  0.68780600  1
  Br  Br14  1  0.31219400  0.68780600  0.31219400  1
  Br  Br15  1  0.68780600  0.31219400  0.68780600  1
  Br  Br16  1  0.31219400  0.31219400  0.68780600  1
  Br  Br17  1  0.68780600  0.68780600  0.31219400  1
  Br  Br18  1  0.25000000  0.25000000  0.25000000  1
  Br  Br19  1  0.75000000  0.75000000  0.75000000  1
loop_
_geom_bond_atom_site_label_1
_geom_bond_atom_site_label_2
_geom_bond_distance
_geom_bond_site_symmetry_2
Be0 Zr0 2.398567 1_455
Be0 Zr2 2.398567 1_545
Be0 Zr4 2.398567 1_554
Be0 Zr3 2.398567 1_454
Be0 Zr1 2.398567 1_544
Be0 Zr5 2.398567 1_445
Br0 Zr2 2.753171 1_545
Br0 Zr4 2.753171 1_554
Br1 Zr3 2.753171 1_554
Br1 Zr5 2.753171 1_545
Br2 Zr4 2.753171 1_555
Br2 Zr3 2.753171 1_455
Br3 Zr2 2.753171 1_555
Br3 Zr5 2.753171 1_455
Br4 Zr4 2.753171 1_554
Br4 Zr0 2.753171 1_455
Br5 Zr0 2.753171 1_555
Br5 Zr5 2.753171 1_545
Br6 Zr5 2.753171 1_455
Br6 Zr1 2.753171 1_554
Br7 Zr4 2.753171 1_555
Br7 Zr1 2.753171 1_545
Br8 Zr2 2.753171 1_545
Br8 Zr0 2.753171 1_455
Br9 Zr3 2.753171 1_455
Br9 Zr1 2.753171 1_545
Br10 Zr0 2.753171 1_555
Br10 Zr3 2.753171 1_554
Br11 Zr2 2.753171 1_555
Br11 Zr1 2.753171 1_554
Br12 Zr0 2.923940 1_555
Br12 Rb6 3.459050 1_555
Br12 Rb5 3.459058 1_555
Br12 Rb4 3.459058 1_555
Br12 Rb0 3.459062 1_555
Br13 Zr1 2.923940 1_555
Br13 Rb7 3.459050 1_555
Br13 Rb2 3.459058 1_555
Br13 Rb3 3.459058 1_555
Br13 Rb1 3.459062 1_555
Br14 Zr2 2.923940 1_555
Br14 Rb3 3.459050 1_555
Br14 Rb7 3.459058 1_555
Br14 Rb4 3.459058 1_555
Br14 Rb0 3.459062 1_555
Br15 Zr3 2.923940 1_555
Br15 Rb5 3.459050 1_555
Br15 Rb2 3.459058 1_555
Br15 Rb6 3.459058 1_555
Br15 Rb1 3.459062 1_555
Br16 Zr4 2.923940 1_555
Br16 Rb2 3.459050 1_555
Br16 Rb5 3.459058 1_555
Br16 Rb7 3.459058 1_555
Br16 Rb0 3.459062 1_555
Br17 Zr5 2.923940 1_555
Br17 Rb4 3.459050 1_555
Br17 Rb3 3.459058 1_555
Br17 Rb6 3.459058 1_555
Br17 Rb1 3.459062 1_555
Br18 Rb0 3.268651 1_555
Br18 Rb3 3.268660 1_545
Br18 Rb6 3.268660 1_455
Br18 Rb2 3.268660 1_554
Br19 Rb1 3.268651 1_555
Br19 Rb4 3.268660 1_556
Br19 Rb7 3.268660 1_655
Br19 Rb5 3.268660 1_565
