# generated using pymatgen
data_K4NaCl5
_symmetry_space_group_name_H-M   'P 1'
_cell_length_a   7.55681894
_cell_length_b   7.55675055
_cell_length_c   7.55666359
_cell_angle_alpha   99.72415763
_cell_angle_beta   99.72337103
_cell_angle_gamma   131.46995462
_symmetry_Int_Tables_number   1
_chemical_formula_structural   K4NaCl5
_chemical_formula_sum   'K4 Na1 Cl5'
_cell_volume   294.77166925
_cell_formula_units_Z   1
loop_
 _symmetry_equiv_pos_site_id
 _symmetry_equiv_pos_as_xyz
  1  'x, y, z'
loop_
 _atom_site_type_symbol
 _atom_site_label
 _atom_site_symmetry_multiplicity
 _atom_site_fract_x
 _atom_site_fract_y
 _atom_site_fract_z
 _atom_site_occupancy
  K  K0  1  0.59690312  0.20123168  0.79813328  1
  K  K1  1  0.20123203  0.40309776  0.60432940  1
  K  K2  1  0.79876820  0.59690396  0.39567071  1
  K  K3  1  0.40309610  0.79876549  0.20186658  1
  Na  Na0  1  0.00000022  0.00000021  -0.00000008  1
  Cl  Cl0  1  0.71624870  0.90712603  0.62337443  1
  Cl  Cl1  1  0.28375216  0.09287520  0.37662601  1
  Cl  Cl2  1  0.90712465  0.28375384  0.19087905  1
  Cl  Cl3  1  0.49999983  0.49999983  -0.00000025  1
  Cl  Cl4  1  0.09287501  0.71624600  0.80912087  1
loop_
_geom_bond_atom_site_label_1
_geom_bond_atom_site_label_2
_geom_bond_distance
_geom_bond_site_symmetry_2
Cl0 Na0 2.908784 1_666
Cl0 K0 3.092303 1_565
Cl0 K1 3.109210 1_555
Cl0 K1 3.109215 1_665
Cl0 K2 3.127485 1_555
Cl0 K3 3.228372 1_555
Cl1 Na0 2.908786 1_555
Cl1 K3 3.092320 1_545
Cl1 K2 3.109210 1_555
Cl1 K2 3.109214 1_445
Cl1 K1 3.127490 1_555
Cl1 K0 3.228375 1_555
Cl2 Na0 2.908835 1_655
Cl2 K1 3.092273 1_655
Cl2 K3 3.109194 1_655
Cl2 K3 3.109228 1_545
Cl2 K0 3.127482 1_554
Cl2 K2 3.228391 1_555
Cl3 K2 3.060045 1_555
Cl3 K1 3.060045 1_554
Cl3 K3 3.060066 1_555
Cl3 K0 3.060077 1_554
Cl3 Na0 3.105519 1_555
Cl3 Na0 3.105522 1_665
Cl4 Na0 2.908833 1_566
Cl4 K2 3.092275 1_455
Cl4 K0 3.109204 1_455
Cl4 K0 3.109219 1_565
Cl4 K3 3.127490 1_556
Cl4 K1 3.228382 1_555
