# generated using pymatgen
data_Mn5(PO5)4
_symmetry_space_group_name_H-M   'P 1'
_cell_length_a   9.67759786
_cell_length_b   9.67759786
_cell_length_c   9.25340992
_cell_angle_alpha   83.06357986
_cell_angle_beta   83.06357986
_cell_angle_gamma   55.60766557
_symmetry_Int_Tables_number   1
_chemical_formula_structural   Mn5(PO5)4
_chemical_formula_sum   'Mn10 P8 O40'
_cell_volume   708.44228412
_cell_formula_units_Z   2
loop_
 _symmetry_equiv_pos_site_id
 _symmetry_equiv_pos_as_xyz
  1  'x, y, z'
loop_
 _atom_site_type_symbol
 _atom_site_label
 _atom_site_symmetry_multiplicity
 _atom_site_fract_x
 _atom_site_fract_y
 _atom_site_fract_z
 _atom_site_occupancy
  Mn  Mn0  1  0.10778800  0.89221200  0.75000000  1
  Mn  Mn1  1  0.89221200  0.10778800  0.25000000  1
  Mn  Mn2  1  0.73968800  0.62233500  0.67782300  1
  Mn  Mn3  1  0.37766500  0.26031200  0.82217700  1
  Mn  Mn4  1  0.26031200  0.37766500  0.32217700  1
  Mn  Mn5  1  0.62233500  0.73968800  0.17782300  1
  Mn  Mn6  1  0.80270900  0.84460700  0.89335300  1
  Mn  Mn7  1  0.15539300  0.19729100  0.60664700  1
  Mn  Mn8  1  0.19729100  0.15539300  0.10664700  1
  Mn  Mn9  1  0.84460700  0.80270900  0.39335300  1
  P  P0  1  0.89324200  0.26332300  0.87813300  1
  P  P1  1  0.73667700  0.10675800  0.62186700  1
  P  P2  1  0.10675800  0.73667700  0.12186700  1
  P  P3  1  0.26332300  0.89324200  0.37813300  1
  P  P4  1  0.09272400  0.59367000  0.65112900  1
  P  P5  1  0.40633000  0.90727600  0.84887100  1
  P  P6  1  0.90727600  0.40633000  0.34887100  1
  P  P7  1  0.59367000  0.09272400  0.15112900  1
  O  O0  1  0.87447200  0.42785800  0.81939400  1
  O  O1  1  0.57214200  0.12552800  0.68060600  1
  O  O2  1  0.12552800  0.57214200  0.18060600  1
  O  O3  1  0.42785800  0.87447200  0.31939400  1
  O  O4  1  0.73655500  0.26068100  0.88426400  1
  O  O5  1  0.73931900  0.26344500  0.61573600  1
  O  O6  1  0.26344500  0.73931900  0.11573600  1
  O  O7  1  0.26068100  0.73655500  0.38426400  1
  O  O8  1  0.03356100  0.12858500  0.76502500  1
  O  O9  1  0.87141500  0.96643900  0.73497500  1
  O  O10  1  0.96643900  0.87141500  0.23497500  1
  O  O11  1  0.12858500  0.03356100  0.26502500  1
  O  O12  1  0.97022200  0.20007800  0.02963000  1
  O  O13  1  0.79992200  0.02977800  0.47037000  1
  O  O14  1  0.02977800  0.79992200  0.97037000  1
  O  O15  1  0.20007800  0.97022200  0.52963000  1
  O  O16  1  0.05395900  0.61446600  0.48700400  1
  O  O17  1  0.38553400  0.94604100  0.01299600  1
  O  O18  1  0.94604100  0.38553400  0.51299600  1
  O  O19  1  0.61446600  0.05395900  0.98700400  1
  O  O20  1  0.18102600  0.67612200  0.68358200  1
  O  O21  1  0.32387800  0.81897400  0.81641800  1
  O  O22  1  0.81897400  0.32387800  0.31641800  1
  O  O23  1  0.67612200  0.18102600  0.18358200  1
  O  O24  1  0.20889600  0.39964300  0.68161800  1
  O  O25  1  0.60035700  0.79110400  0.81838200  1
  O  O26  1  0.79110400  0.60035700  0.31838200  1
  O  O27  1  0.39964300  0.20889600  0.18161800  1
  O  O28  1  0.92289800  0.66335800  0.74408400  1
  O  O29  1  0.33664200  0.07710200  0.75591600  1
  O  O30  1  0.07710200  0.33664200  0.25591600  1
  O  O31  1  0.66335800  0.92289800  0.24408400  1
  O  O32  1  0.60868500  0.56963400  0.65377900  1
  O  O33  1  0.43036600  0.39131500  0.84622100  1
  O  O34  1  0.39131500  0.43036600  0.34622100  1
  O  O35  1  0.56963400  0.60868500  0.15377900  1
  O  O36  1  0.78469600  0.70585500  0.04106100  1
  O  O37  1  0.29414500  0.21530400  0.45893900  1
  O  O38  1  0.21530400  0.29414500  0.95893900  1
  O  O39  1  0.70585500  0.78469600  0.54106100  1
loop_
_geom_bond_atom_site_label_1
_geom_bond_atom_site_label_2
_geom_bond_distance
_geom_bond_site_symmetry_2
Mn0 O21 1.945274 1_555
Mn0 O20 1.945274 1_555
Mn0 O8 1.991088 1_565
Mn0 O9 1.991088 1_455
Mn0 O15 2.340062 1_555
Mn0 O14 2.340062 1_555
Mn1 O22 1.945274 1_555
Mn1 O23 1.945274 1_555
Mn1 O11 1.991088 1_655
Mn1 O10 1.991088 1_545
Mn1 O12 2.340062 1_555
Mn1 O13 2.340062 1_555
Mn2 O32 1.656180 1_555
Mn2 O39 1.793378 1_555
Mn2 O25 1.943960 1_555
Mn2 O0 2.000894 1_555
Mn2 O28 2.189470 1_555
Mn2 O18 2.550388 1_555
Mn3 O33 1.656180 1_555
Mn3 O38 1.793378 1_555
Mn3 O24 1.943960 1_555
Mn3 O1 2.000894 1_555
Mn3 O29 2.189470 1_555
Mn3 O19 2.550388 1_555
Mn4 O34 1.656180 1_555
Mn4 O37 1.793378 1_555
Mn4 O27 1.943960 1_555
Mn4 O2 2.000894 1_555
Mn4 O30 2.189470 1_555
Mn4 O16 2.550388 1_555
Mn5 O35 1.656180 1_555
Mn5 O36 1.793378 1_555
Mn5 O26 1.943960 1_555
Mn5 O3 2.000894 1_555
Mn5 O31 2.189470 1_555
Mn5 O17 2.550388 1_555
Mn6 O36 1.861507 1_556
Mn6 O19 2.011866 1_565
Mn6 O9 2.052550 1_555
Mn6 O28 2.056632 1_555
Mn6 O14 2.180392 1_655
Mn6 O25 2.478833 1_555
Mn7 O37 1.861507 1_555
Mn7 O18 2.011866 1_455
Mn7 O8 2.052550 1_555
Mn7 O29 2.056632 1_555
Mn7 O15 2.180392 1_545
Mn7 O24 2.478833 1_555
Mn8 O38 1.861507 1_554
Mn8 O17 2.011866 1_545
Mn8 O11 2.052550 1_555
Mn8 O30 2.056632 1_555
Mn8 O12 2.180392 1_455
Mn8 O27 2.478833 1_555
Mn9 O39 1.861507 1_555
Mn9 O16 2.011866 1_655
Mn9 O10 2.052550 1_555
Mn9 O31 2.056632 1_555
Mn9 O13 2.180392 1_565
Mn9 O26 2.478833 1_555
O0 P0 1.533592 1_555
O1 P1 1.533592 1_555
O2 P2 1.533592 1_555
O3 P3 1.533592 1_555
O4 P0 1.525081 1_555
O5 P1 1.525081 1_555
O6 P2 1.525081 1_555
O7 P3 1.525081 1_555
O8 P0 1.620405 1_455
O9 P1 1.620405 1_565
O10 P2 1.620405 1_655
O11 P3 1.620405 1_545
O12 P0 1.557153 1_554
O13 P1 1.557153 1_555
O14 P2 1.557153 1_556
O15 P3 1.557153 1_555
O16 P4 1.570425 1_555
O17 P5 1.570425 1_554
O18 P6 1.570425 1_555
O19 P7 1.570425 1_556
O20 P4 1.532100 1_555
O21 P5 1.532100 1_555
O22 P6 1.532100 1_555
O23 P7 1.532100 1_555
O24 P4 1.559859 1_555
O25 P5 1.559859 1_555
O26 P6 1.559859 1_555
O27 P7 1.559859 1_555
O28 P4 1.562785 1_655
O29 P5 1.562785 1_545
O30 P6 1.562785 1_455
O31 P7 1.562785 1_565
