# generated using pymatgen
data_Li6V3P8O29
_symmetry_space_group_name_H-M   'P 1'
_cell_length_a   9.81262734
_cell_length_b   9.81262734
_cell_length_c   14.00275611
_cell_angle_alpha   89.91166617
_cell_angle_beta   89.91166617
_cell_angle_gamma   59.66430665
_symmetry_Int_Tables_number   1
_chemical_formula_structural   Li6V3P8O29
_chemical_formula_sum   'Li12 V6 P16 O58'
_cell_volume   1163.68395422
_cell_formula_units_Z   2
loop_
 _symmetry_equiv_pos_site_id
 _symmetry_equiv_pos_as_xyz
  1  'x, y, z'
loop_
 _atom_site_type_symbol
 _atom_site_label
 _atom_site_symmetry_multiplicity
 _atom_site_fract_x
 _atom_site_fract_y
 _atom_site_fract_z
 _atom_site_occupancy
  Li  Li0  1  0.89915500  0.76359400  0.93808800  1
  Li  Li1  1  0.76359400  0.89915500  0.43808800  1
  Li  Li2  1  0.90004000  0.33472800  0.44010100  1
  Li  Li3  1  0.76245600  0.33504600  0.93988600  1
  Li  Li4  1  0.33472800  0.90004000  0.94010100  1
  Li  Li5  1  0.66514100  0.23394200  0.55958900  1
  Li  Li6  1  0.33504600  0.76245600  0.43988600  1
  Li  Li7  1  0.23394200  0.66514100  0.05958900  1
  Li  Li8  1  0.23539700  0.09861000  0.56079800  1
  Li  Li9  1  0.09861000  0.23539700  0.06079800  1
  Li  Li10  1  0.94802200  0.01414900  0.00509200  1
  Li  Li11  1  0.01414900  0.94802200  0.50509200  1
  V  V0  1  0.56496200  0.43479800  0.75048000  1
  V  V1  1  0.43479800  0.56496200  0.25048000  1
  V  V2  1  0.56345000  0.00266200  0.24670600  1
  V  V3  1  0.43851400  0.99869500  0.75241600  1
  V  V4  1  0.00266200  0.56345000  0.74670600  1
  V  V5  1  0.99869500  0.43851400  0.25241600  1
  P  P0  1  0.91446500  0.77404900  0.15594500  1
  P  P1  1  0.77404900  0.91446500  0.65594500  1
  P  P2  1  0.91320000  0.31312900  0.65867300  1
  P  P3  1  0.67129900  0.66265700  0.86941400  1
  P  P4  1  0.66265700  0.67129900  0.36941400  1
  P  P5  1  0.77660100  0.31363800  0.15724600  1
  P  P6  1  0.69014100  0.22404000  0.34125200  1
  P  P7  1  0.31312900  0.91320000  0.15867300  1
  P  P8  1  0.69306600  0.08568100  0.84066900  1
  P  P9  1  0.31363800  0.77660100  0.65724600  1
  P  P10  1  0.22404000  0.69014100  0.84125200  1
  P  P11  1  0.33436700  0.33057800  0.63129100  1
  P  P12  1  0.33057800  0.33436700  0.13129100  1
  P  P13  1  0.08568100  0.69306600  0.34066900  1
  P  P14  1  0.22584500  0.08666400  0.34238100  1
  P  P15  1  0.08666400  0.22584500  0.84238100  1
  O  O0  1  0.99257500  0.80149400  0.42111600  1
  O  O1  1  0.91254800  0.74725500  0.66068500  1
  O  O2  1  0.80149400  0.99257500  0.92111600  1
  O  O3  1  0.74725500  0.91254800  0.16068500  1
  O  O4  1  0.91826100  0.61572200  0.17040500  1
  O  O5  1  0.81513100  0.67232600  0.82731500  1
  O  O6  1  0.90608700  0.47138100  0.67044900  1
  O  O7  1  0.00035200  0.21917100  0.93068700  1
  O  O8  1  0.91940800  0.34055000  0.16225400  1
  O  O9  1  0.67232600  0.81513100  0.32731500  1
  O  O10  1  0.61572200  0.91826100  0.67040500  1
  O  O11  1  0.80772700  0.51504200  0.33024200  1
  O  O12  1  0.67474300  0.65947500  0.97610700  1
  O  O13  1  0.65947500  0.67474300  0.47610700  1
  O  O14  1  0.68053500  0.50837700  0.82859500  1
  O  O15  1  0.47138100  0.90608700  0.17044900  1
  O  O16  1  0.51504200  0.80772700  0.83024200  1
  O  O17  1  0.74513700  0.33450700  0.65958500  1
  O  O18  1  0.79720400  0.20396100  0.24862100  1
  O  O19  1  0.77684600  0.22628700  0.43028200  1
  O  O20  1  0.78920200  0.22539900  0.06693400  1
  O  O21  1  0.61909700  0.46859400  0.16998000  1
  O  O22  1  0.50837700  0.68053500  0.32859500  1
  O  O23  1  0.66062000  0.25788600  0.84212500  1
  O  O24  1  0.46859400  0.61909700  0.66998000  1
  O  O25  1  0.34055000  0.91940800  0.66225400  1
  O  O26  1  0.78898600  0.01374600  0.74232900  1
  O  O27  1  0.77672200  0.99828100  0.56472800  1
  O  O28  1  0.21917100  0.00035200  0.43068700  1
  O  O29  1  0.66741900  0.08076500  0.34137700  1
  O  O30  1  0.53208800  0.37995700  0.32772700  1
  O  O31  1  0.33450700  0.74513700  0.15958500  1
  O  O32  1  0.48812400  0.32257300  0.67079900  1
  O  O33  1  0.37995700  0.53208800  0.82772700  1
  O  O34  1  0.22628700  0.77684600  0.93028200  1
  O  O35  1  0.22539900  0.78920200  0.56693400  1
  O  O36  1  0.20396100  0.79720400  0.74862100  1
  O  O37  1  0.25788600  0.66062000  0.34212500  1
  O  O38  1  0.48030900  0.18864800  0.17846300  1
  O  O39  1  0.53919600  0.08170200  0.83348300  1
  O  O40  1  0.32257300  0.48812400  0.17079900  1
  O  O41  1  0.32893200  0.33174300  0.02516600  1
  O  O42  1  0.33174300  0.32893200  0.52516600  1
  O  O43  1  0.18864800  0.48030900  0.67846300  1
  O  O44  1  0.38045700  0.08621700  0.33195800  1
  O  O45  1  0.32414600  0.18705800  0.67336600  1
  O  O46  1  0.08076500  0.66741900  0.84137700  1
  O  O47  1  0.01374600  0.78898600  0.24232900  1
  O  O48  1  0.99828100  0.77672200  0.06472800  1
  O  O49  1  0.08170200  0.53919600  0.33348300  1
  O  O50  1  0.18705800  0.32414600  0.17336600  1
  O  O51  1  0.08621700  0.38045700  0.83195800  1
  O  O52  1  0.25737600  0.08057500  0.84204500  1
  O  O53  1  0.22487100  0.00062100  0.06951000  1
  O  O54  1  0.20245200  0.00117500  0.25006000  1
  O  O55  1  0.08057500  0.25737600  0.34204500  1
  O  O56  1  0.00062100  0.22487100  0.56951000  1
  O  O57  1  0.00117500  0.20245200  0.75006000  1
loop_
_geom_bond_atom_site_label_1
_geom_bond_atom_site_label_2
_geom_bond_distance
_geom_bond_site_symmetry_2
Li0 O2 1.961487 1_555
Li0 O46 2.048898 1_655
Li0 O48 2.059110 1_556
Li0 O5 2.154521 1_555
Li1 O0 1.961487 1_555
Li1 O29 2.048898 1_565
Li1 O27 2.059110 1_555
Li1 O9 2.154521 1_555
Li2 O19 1.978095 1_555
Li2 O55 2.058434 1_655
Li2 O56 2.084364 1_655
Li2 O11 2.166687 1_555
Li3 O7 2.019195 1_655
Li3 O20 2.025269 1_556
Li3 O23 2.053643 1_555
Li3 O14 2.140603 1_555
Li4 O34 1.978095 1_555
Li4 O52 2.058434 1_565
Li4 O53 2.084364 1_566
Li4 O16 2.166687 1_555
Li5 O27 1.998399 1_545
Li5 O17 2.083433 1_555
Li5 O19 2.096836 1_555
Li5 O32 2.160655 1_555
Li6 O28 2.019195 1_565
Li6 O35 2.025269 1_555
Li6 O37 2.053643 1_555
Li6 O22 2.140603 1_555
Li7 O48 1.998399 1_455
Li7 O31 2.083433 1_555
Li7 O34 2.096836 1_554
Li7 O40 2.160655 1_555
Li8 O56 1.993404 1_555
Li8 O25 2.083050 1_545
Li8 O28 2.106115 1_555
Li8 O45 2.183621 1_555
Li9 O53 1.993404 1_555
Li9 O8 2.083050 1_455
Li9 O7 2.106115 1_554
Li9 O50 2.183621 1_555
Li10 O2 1.951495 1_544
Li10 O20 2.052739 1_555
Li10 O48 2.281029 1_545
Li10 O7 2.536127 1_654
Li11 O0 1.951495 1_455
Li11 O35 2.052739 1_555
Li11 O27 2.281029 1_455
Li11 O28 2.536127 1_565
O0 P13 1.501429 1_655
O1 P1 1.513605 1_555
O1 V4 1.967584 1_655
O2 P8 1.501429 1_565
O3 P0 1.513605 1_555
O3 V2 1.967584 1_565
O4 P0 1.548117 1_555
O4 V5 1.890953 1_555
O5 P3 1.575121 1_555
O5 V4 1.952723 1_655
O6 P2 1.527983 1_555
O6 V4 1.930125 1_655
O7 P15 1.517616 1_555
O8 P5 1.553220 1_555
O8 V5 1.971183 1_555
O9 P4 1.575121 1_555
O9 V2 1.952723 1_565
O10 P1 1.548117 1_555
O10 V3 1.890953 1_555
O11 P4 1.572788 1_555
O11 V5 1.959032 1_555
O12 P3 1.494352 1_555
O13 P4 1.494352 1_555
O14 P3 1.578195 1_555
O14 V0 1.958885 1_555
O15 P7 1.527983 1_555
O15 V2 1.930125 1_565
O16 P3 1.572788 1_555
O16 V3 1.959032 1_555
O17 P2 1.553809 1_555
O17 V0 1.988375 1_555
O18 P6 1.616309 1_555
O18 P5 1.616482 1_555
O19 P6 1.516850 1_555
O20 P5 1.502997 1_555
O21 P5 1.535778 1_555
O21 V1 1.924814 1_555
O22 P4 1.578195 1_555
O22 V1 1.958885 1_555
O23 P8 1.553638 1_555
O23 V0 1.972902 1_555
O24 P9 1.535778 1_555
O24 V0 1.924814 1_555
O25 P9 1.553220 1_555
O25 V3 1.971183 1_555
O26 P1 1.606906 1_545
O26 P8 1.615011 1_555
O27 P1 1.525463 1_555
O28 P14 1.517616 1_555
O29 P6 1.530658 1_555
O29 V2 2.045155 1_555
O30 P6 1.544381 1_555
O30 V1 1.903551 1_555
O31 P7 1.553809 1_555
O31 V1 1.988375 1_555
O32 P11 1.572039 1_555
O32 V0 1.967532 1_555
O33 P10 1.544381 1_555
O33 V0 1.903551 1_555
O34 P10 1.516850 1_555
O35 P9 1.502997 1_555
O36 P10 1.616309 1_555
O36 P9 1.616482 1_555
O37 P13 1.553638 1_555
O37 V1 1.972902 1_555
O38 P12 1.586671 1_555
O38 V2 1.844571 1_555
O39 P8 1.533422 1_555
O39 V3 1.935782 1_545
O40 P12 1.572039 1_555
O40 V1 1.967532 1_555
O41 P12 1.486559 1_555
O42 P11 1.486559 1_555
O43 P11 1.586671 1_555
O43 V4 1.844571 1_555
O44 P14 1.521730 1_555
O44 V2 1.957264 1_555
O45 P11 1.574943 1_555
O45 V3 1.950198 1_545
O46 P10 1.530658 1_555
O46 V4 2.045155 1_555
O47 P0 1.606906 1_455
O47 P13 1.615011 1_555
O48 P0 1.525463 1_555
O49 P13 1.533422 1_555
O49 V5 1.935782 1_455
O50 P12 1.574943 1_555
O50 V5 1.950198 1_455
O51 P15 1.521730 1_555
O51 V4 1.957264 1_555
O52 P15 1.557570 1_555
O52 V3 1.983346 1_545
O53 P7 1.514699 1_545
O54 P7 1.616891 1_545
O54 P14 1.620607 1_555
O55 P14 1.557570 1_555
O55 V5 1.983346 1_455
O56 P2 1.514699 1_455
O57 P2 1.616891 1_455
O57 P15 1.620607 1_555
