# generated using pymatgen
data_La4FeSe6O
_symmetry_space_group_name_H-M   'P 1'
_cell_length_a   9.80926109
_cell_length_b   9.81350089
_cell_length_c   14.23230620
_cell_angle_alpha   90.46974363
_cell_angle_beta   90.30522071
_cell_angle_gamma   59.92448013
_symmetry_Int_Tables_number   1
_chemical_formula_structural   La4FeSe6O
_chemical_formula_sum   'La16 Fe4 Se24 O4'
_cell_volume   1185.55074520
_cell_formula_units_Z   4
loop_
 _symmetry_equiv_pos_site_id
 _symmetry_equiv_pos_as_xyz
  1  'x, y, z'
loop_
 _atom_site_type_symbol
 _atom_site_label
 _atom_site_symmetry_multiplicity
 _atom_site_fract_x
 _atom_site_fract_y
 _atom_site_fract_z
 _atom_site_occupancy
  La  La0  1  0.66728200  0.66760900  0.10377600  1
  La  La1  1  0.66688400  0.67000600  0.60339600  1
  La  La2  1  0.33222700  0.33068700  0.35355200  1
  La  La3  1  0.33429200  0.33288900  0.85336500  1
  La  La4  1  0.20005500  0.59903700  0.08074800  1
  La  La5  1  0.19832800  0.60081100  0.58098500  1
  La  La6  1  0.20046100  0.19849700  0.07854800  1
  La  La7  1  0.19967000  0.19975800  0.57866300  1
  La  La8  1  0.39745000  0.80153300  0.32954100  1
  La  La9  1  0.40081600  0.79808300  0.82987100  1
  La  La10  1  0.79885800  0.80130700  0.33025000  1
  La  La11  1  0.80127900  0.79873200  0.83118600  1
  La  La12  1  0.79834500  0.40141100  0.33068500  1
  La  La13  1  0.80069900  0.39810200  0.82834200  1
  La  La14  1  0.60076400  0.19841800  0.08034600  1
  La  La15  1  0.60132300  0.19772800  0.57928100  1
  Fe  Fe0  1  0.00404100  0.99951300  0.99928900  1
  Fe  Fe1  1  0.99781500  0.00327600  0.74830800  1
  Fe  Fe2  1  0.99693700  0.00545900  0.50094900  1
  Fe  Fe3  1  0.00362600  0.99855600  0.24972200  1
  Se  Se0  1  0.87797700  0.24507400  0.13216100  1
  Se  Se1  1  0.87680600  0.24509200  0.62811400  1
  Se  Se2  1  0.25019100  0.87422100  0.13117400  1
  Se  Se3  1  0.24391100  0.87843100  0.63123900  1
  Se  Se4  1  0.75525100  0.12332100  0.38342800  1
  Se  Se5  1  0.75258200  0.12390800  0.88148900  1
  Se  Se6  1  0.87670800  0.87438800  0.13298500  1
  Se  Se7  1  0.87309900  0.87450100  0.63472300  1
  Se  Se8  1  0.12446400  0.12756000  0.38011700  1
  Se  Se9  1  0.12456000  0.12308500  0.88029600  1
  Se  Se10  1  0.11841800  0.76183700  0.38493200  1
  Se  Se11  1  0.12571200  0.75060500  0.88366200  1
  Se  Se12  1  0.05958900  0.47066300  0.22261600  1
  Se  Se13  1  0.06002100  0.46888400  0.72282700  1
  Se  Se14  1  0.46912900  0.46847900  0.22430200  1
  Se  Se15  1  0.46990700  0.46983800  0.72266500  1
  Se  Se16  1  0.47144000  0.05919400  0.22210900  1
  Se  Se17  1  0.46911400  0.05913000  0.72228600  1
  Se  Se18  1  0.52816300  0.53324300  0.47302300  1
  Se  Se19  1  0.53243800  0.52808500  0.97280600  1
  Se  Se20  1  0.52883800  0.94153400  0.47243200  1
  Se  Se21  1  0.53042500  0.93945400  0.97279500  1
  Se  Se22  1  0.93968900  0.53225900  0.47275000  1
  Se  Se23  1  0.94052400  0.52790900  0.97275200  1
  O  O0  1  0.33408200  0.33187300  0.02158000  1
  O  O1  1  0.33296500  0.33363700  0.52156100  1
  O  O2  1  0.66583200  0.66675000  0.27178300  1
  O  O3  1  0.66701400  0.66563900  0.77155100  1
loop_
_geom_bond_atom_site_label_1
_geom_bond_atom_site_label_2
_geom_bond_distance
_geom_bond_site_symmetry_2
La0 O2 2.391354 1_555
La0 Se19 2.974218 1_554
La0 Se21 2.976500 1_554
La0 Se23 2.978135 1_554
La0 Se6 3.558937 1_555
La0 Se2 3.562565 1_555
La0 Se0 3.613537 1_555
La0 Se16 3.717972 1_565
La0 Se12 3.732935 1_655
La1 O3 2.393951 1_555
La1 Se22 2.971847 1_555
La1 Se20 2.974259 1_555
La1 Se18 2.976337 1_555
La1 Se7 3.516001 1_555
La1 Se3 3.612993 1_555
La1 Se1 3.627971 1_555
La1 Se17 3.703088 1_565
La1 Se13 3.743380 1_655
La2 O1 2.391110 1_555
La2 Se16 2.960037 1_555
La2 Se12 2.969639 1_555
La2 Se14 2.983776 1_555
La2 Se8 3.516014 1_555
La2 Se4 3.615604 1_555
La2 Se10 3.685802 1_555
La2 Se20 3.722324 1_545
La2 Se22 3.741360 1_455
La2 Se18 3.778290 1_555
La3 O0 2.394206 1_556
La3 Se17 2.971503 1_555
La3 Se13 2.976512 1_555
La3 Se15 2.982503 1_555
La3 Se11 3.570735 1_555
La3 Se5 3.572624 1_555
La3 Se9 3.589626 1_555
La3 Se19 3.738987 1_555
La4 O0 2.415016 1_555
La4 Se6 3.052310 1_455
La4 Se2 3.057012 1_555
La4 Se12 3.061627 1_555
La4 Se14 3.062417 1_555
La4 Se11 3.093802 1_554
La4 Se23 3.324547 1_454
La4 Se19 3.351982 1_554
La5 O1 2.416367 1_555
La5 Se3 3.052799 1_555
La5 Se15 3.060762 1_555
La5 Se7 3.062792 1_455
La5 Se13 3.069947 1_555
La5 Se10 3.115245 1_555
La5 Se22 3.303665 1_455
La5 Se18 3.339869 1_555
La6 O0 2.415942 1_555
La6 Se0 3.060816 1_455
La6 Se2 3.066782 1_545
La6 Se16 3.074883 1_555
La6 Se12 3.080361 1_555
La6 Se9 3.091759 1_554
La6 Se21 3.308515 1_544
La6 Se23 3.316068 1_454
La7 O1 2.418021 1_555
La7 Se1 3.054494 1_455
La7 Se3 3.058671 1_545
La7 Se13 3.062111 1_555
La7 Se17 3.066163 1_555
La7 Se8 3.082210 1_555
La7 Se20 3.304761 1_545
La7 Se22 3.335017 1_455
La8 O2 2.423037 1_555
La8 Se8 3.053031 1_565
La8 Se10 3.059682 1_555
La8 Se20 3.063572 1_555
La8 Se18 3.069658 1_555
La8 Se2 3.085905 1_555
La8 Se14 3.323851 1_555
La8 Se16 3.342577 1_565
La9 O3 2.408409 1_555
La9 Se9 3.057995 1_565
La9 Se21 3.061510 1_555
La9 Se11 3.061618 1_555
La9 Se19 3.075300 1_555
La9 Se3 3.123513 1_555
La9 Se15 3.302424 1_555
La9 Se17 3.339392 1_565
La10 O2 2.415828 1_555
La10 Se10 3.056752 1_655
La10 Se4 3.057995 1_565
La10 Se20 3.059799 1_555
La10 Se22 3.065125 1_555
La10 Se6 3.095893 1_555
La10 Se16 3.309581 1_565
La10 Se12 3.325502 1_655
La11 O3 2.419694 1_555
La11 Se21 3.059735 1_555
La11 Se5 3.059790 1_565
La11 Se11 3.063137 1_655
La11 Se23 3.067351 1_555
La11 Se7 3.073696 1_555
La11 Se13 3.320175 1_655
La11 Se17 3.348829 1_565
La12 O2 2.409246 1_555
La12 Se8 3.056324 1_655
La12 Se22 3.061255 1_555
La12 Se18 3.062557 1_555
La12 Se4 3.063174 1_555
La12 Se0 3.114233 1_555
La12 Se14 3.314866 1_555
La12 Se12 3.346516 1_655
La13 O3 2.416357 1_555
La13 Se9 3.055687 1_655
La13 Se5 3.057034 1_555
La13 Se23 3.066983 1_555
La13 Se19 3.070720 1_555
La13 Se1 3.124389 1_555
La13 Se15 3.310957 1_555
La13 Se13 3.322220 1_655
La14 O0 2.412212 1_555
La14 Se16 3.058823 1_555
La14 Se0 3.060847 1_555
La14 Se6 3.064336 1_545
La14 Se14 3.065619 1_555
La14 Se5 3.111591 1_554
La14 Se21 3.310582 1_544
La14 Se19 3.339941 1_554
La15 O1 2.420576 1_555
La15 Se1 3.038918 1_555
La15 Se7 3.055214 1_545
La15 Se15 3.073340 1_555
La15 Se4 3.080467 1_555
La15 Se17 3.084753 1_555
La15 Se20 3.294936 1_545
La15 Se18 3.368220 1_555
Fe0 Se11 2.670618 1_555
Fe0 Se9 2.688527 1_565
Fe0 Se5 2.712350 1_465
Fe0 Se0 2.806414 1_466
Fe0 Se2 2.806964 1_556
Fe0 Se6 2.879130 1_456
Fe1 Se3 2.673888 1_645
Fe1 Se1 2.681110 1_555
Fe1 Se7 2.683646 1_545
Fe1 Se9 2.803723 1_655
Fe1 Se5 2.817531 1_555
Fe1 Se11 2.892745 1_645
Fe2 Se10 2.638761 1_645
Fe2 Se4 2.645184 1_555
Fe2 Se1 2.714744 1_555
Fe2 Se8 2.741738 1_655
Fe2 Se3 2.797281 1_645
Fe2 Se7 2.895104 1_545
Fe3 Se0 2.688310 1_465
Fe3 Se2 2.690182 1_555
Fe3 Se6 2.694509 1_455
Fe3 Se10 2.792136 1_555
Fe3 Se8 2.809602 1_565
Fe3 Se4 2.842106 1_465
