# generated using pymatgen
data_Sr7Ca2Al3(O4F)3
_symmetry_space_group_name_H-M   'P 1'
_cell_length_a   6.74352000
_cell_length_b   7.30851703
_cell_length_c   17.49604850
_cell_angle_alpha   97.83792454
_cell_angle_beta   89.23098559
_cell_angle_gamma   116.96285591
_symmetry_Int_Tables_number   1
_chemical_formula_structural   Sr7Ca2Al3(O4F)3
_chemical_formula_sum   'Sr14 Ca4 Al6 O24 F6'
_cell_volume   760.23881083
_cell_formula_units_Z   2
loop_
 _symmetry_equiv_pos_site_id
 _symmetry_equiv_pos_as_xyz
  1  'x, y, z'
loop_
 _atom_site_type_symbol
 _atom_site_label
 _atom_site_symmetry_multiplicity
 _atom_site_fract_x
 _atom_site_fract_y
 _atom_site_fract_z
 _atom_site_occupancy
  Sr  Sr0  1  0.16536400  0.33469000  0.91742400  1
  Sr  Sr1  1  0.49979900  0.00022400  0.25009900  1
  Sr  Sr2  1  0.83179900  0.66811300  0.58399000  1
  Sr  Sr3  1  0.83308500  0.66651200  0.08428000  1
  Sr  Sr4  1  0.16543800  0.33497300  0.41642500  1
  Sr  Sr5  1  0.49848500  0.00155100  0.75081300  1
  Sr  Sr6  1  0.39013800  0.11039000  0.55472000  1
  Sr  Sr7  1  0.72314100  0.77675500  0.88863800  1
  Sr  Sr8  1  0.27614900  0.88835100  0.94430100  1
  Sr  Sr9  1  0.60743200  0.55352800  0.27680800  1
  Sr  Sr10  1  0.94244600  0.22129700  0.61048600  1
  Sr  Sr11  1  0.39092000  0.44555200  0.72274900  1
  Sr  Sr12  1  0.72474700  0.11316500  0.05689700  1
  Sr  Sr13  1  0.05811500  0.77833100  0.38886700  1
  Ca  Ca0  1  0.27995900  0.22024400  0.11008600  1
  Ca  Ca1  1  0.61562600  0.88402700  0.44205100  1
  Ca  Ca2  1  0.94886800  0.55122600  0.77561200  1
  Ca  Ca3  1  0.05341400  0.44629900  0.22329000  1
  Al  Al0  1  0.66603900  0.33392100  0.91700800  1
  Al  Al1  1  0.00017300  0.00022100  0.24995500  1
  Al  Al2  1  0.33278900  0.66740100  0.58355100  1
  Al  Al3  1  0.33068200  0.66671900  0.08476800  1
  Al  Al4  1  0.66859100  0.33361000  0.41562700  1
  Al  Al5  1  0.99932700  0.00045400  0.75029300  1
  O  O0  1  0.49586300  0.70720400  0.00188400  1
  O  O1  1  0.83556700  0.37623500  0.33243500  1
  O  O2  1  0.16422400  0.04174900  0.66785200  1
  O  O3  1  0.30423700  0.90412400  0.09800200  1
  O  O4  1  0.63891200  0.56914500  0.43042200  1
  O  O5  1  0.97113500  0.23661500  0.76447400  1
  O  O6  1  0.54789900  0.37459200  0.83447300  1
  O  O7  1  0.88234200  0.04544400  0.16873200  1
  O  O8  1  0.21483200  0.70796600  0.50091800  1
  O  O9  1  0.92585300  0.56315200  0.92909700  1
  O  O10  1  0.25578500  0.23257200  0.26183200  1
  O  O11  1  0.59230200  0.89680100  0.59545200  1
  O  O12  1  0.49935600  0.29338800  0.00050400  1
  O  O13  1  0.83288800  0.95788800  0.33344800  1
  O  O14  1  0.16586800  0.62643100  0.66697800  1
  O  O15  1  0.69366300  0.10044300  0.90314400  1
  O  O16  1  0.02753100  0.76307700  0.23607000  1
  O  O17  1  0.36050300  0.43401000  0.56991000  1
  O  O18  1  0.44961700  0.62078800  0.16556200  1
  O  O19  1  0.78921400  0.28935200  0.49656700  1
  O  O20  1  0.12182500  0.95589200  0.83080600  1
  O  O21  1  0.07540200  0.43392700  0.07233800  1
  O  O22  1  0.41253000  0.10079400  0.40210500  1
  O  O23  1  0.74399100  0.76696300  0.73630100  1
  F  F0  1  0.32565300  0.66426900  0.83216100  1
  F  F1  1  0.66667700  0.33361200  0.16674200  1
  F  F2  1  0.99223500  0.99732300  0.49868600  1
  F  F3  1  0.00555300  0.00450800  0.00222000  1
  F  F4  1  0.33356000  0.66656300  0.33338400  1
  F  F5  1  0.67245200  0.33762400  0.66876400  1
loop_
_geom_bond_atom_site_label_1
_geom_bond_atom_site_label_2
_geom_bond_distance
_geom_bond_site_symmetry_2
Ca0 O3 2.370266 1_545
Ca0 O12 2.374184 1_555
Ca0 F3 2.471483 1_555
Ca0 F1 2.521091 1_555
Ca0 O10 2.649517 1_555
Ca0 O21 2.652783 1_555
Ca0 O18 2.652983 1_555
Ca0 O7 2.655529 1_455
Ca1 O13 2.352923 1_555
Ca1 O4 2.358235 1_555
Ca1 F2 2.460530 1_555
Ca1 F4 2.508040 1_555
Ca1 O8 2.674775 1_555
Ca1 O22 2.677558 1_565
Ca1 O19 2.677718 1_565
Ca1 O11 2.677775 1_555
Ca2 O14 2.353064 1_655
Ca2 O5 2.353208 1_555
Ca2 F0 2.461369 1_655
Ca2 F5 2.462746 1_555
Ca2 O6 2.675976 1_555
Ca2 O20 2.676371 1_655
Ca2 O23 2.676673 1_555
Ca2 O9 2.679589 1_555
Ca3 O1 2.361391 1_455
Ca3 O16 2.380066 1_555
Ca3 F1 2.521491 1_455
Ca3 F4 2.522863 1_555
Ca3 O21 2.634747 1_555
Ca3 O18 2.640839 1_555
Ca3 O10 2.646148 1_555
Ca3 O7 2.650832 1_455
Al0 O6 1.780727 1_555
Al0 O9 1.781211 1_555
Al0 O15 1.783091 1_555
Al0 O12 1.804795 1_556
Al1 O7 1.776700 1_455
Al1 O10 1.776814 1_555
Al1 O13 1.806868 1_445
Al1 O16 1.808550 1_545
Al2 O11 1.780661 1_555
Al2 O8 1.781137 1_555
Al2 O17 1.782778 1_555
Al2 O14 1.804640 1_555
Al3 O18 1.777120 1_555
Al3 O21 1.777246 1_555
Al3 O0 1.790538 1_555
Al3 O3 1.807158 1_555
Al4 O19 1.779370 1_555
Al4 O22 1.780358 1_555
Al4 O1 1.801413 1_555
Al4 O4 1.805497 1_555
Al5 O23 1.780346 1_545
Al5 O20 1.781322 1_645
Al5 O2 1.783098 1_655
Al5 O5 1.804502 1_555
O0 Sr7 2.453546 1_554
O0 Sr8 2.673143 1_554
O0 Sr12 2.686989 1_565
O0 Sr0 2.837558 1_554
O0 Sr3 2.855915 1_555
O1 Sr13 2.666878 1_655
O1 Sr9 2.680446 1_555
O1 Sr4 2.831192 1_655
O1 Sr1 2.849430 1_555
O2 Sr6 2.446894 1_555
O2 Sr11 2.672865 1_555
O2 Sr10 2.673052 1_455
O2 Sr5 2.842311 1_555
O2 Sr2 2.842418 1_445
O3 Sr8 2.681431 1_554
O3 Sr12 2.684932 1_565
O3 Sr1 2.838732 1_565
O3 Sr3 2.841030 1_455
O4 Sr13 2.680697 1_655
O4 Sr9 2.681635 1_555
O4 Sr4 2.852173 1_555
O4 Sr2 2.853902 1_555
O5 Sr11 2.684571 1_655
O5 Sr10 2.687129 1_555
O5 Sr0 2.847802 1_655
O5 Sr5 2.847896 1_555
O6 Sr11 2.457727 1_555
O6 Sr7 2.655971 1_555
O6 Sr5 2.790603 1_555
O6 Sr0 2.859827 1_555
O7 Sr12 2.449467 1_555
O7 Sr3 2.833058 1_545
O7 Sr1 2.836770 1_555
O8 Sr13 2.459298 1_555
O8 Sr6 2.656245 1_565
O8 Sr4 2.796106 1_555
O8 Sr2 2.863842 1_455
O9 Sr8 2.460260 1_655
O9 Sr7 2.658840 1_555
O9 Sr0 2.789637 1_655
O9 Sr3 2.856091 1_556
O10 Sr9 2.449309 1_555
O10 Sr1 2.839585 1_555
O10 Sr4 2.839755 1_555
O11 Sr10 2.457108 1_565
O11 Sr6 2.657549 1_565
O11 Sr2 2.791025 1_555
O11 Sr5 2.863645 1_565
O12 Sr8 2.683415 1_544
O12 Sr12 2.688634 1_555
O12 Sr3 2.843016 1_555
O12 Sr0 2.846196 1_554
O13 Sr13 2.676397 1_655
O13 Sr9 2.682240 1_555
O13 Sr1 2.847618 1_565
O13 Sr4 2.850180 1_665
O14 Sr10 2.685211 1_455
O14 Sr11 2.685859 1_555
O14 Sr2 2.847259 1_455
O14 Sr5 2.848488 1_565
O15 Sr7 2.441660 1_545
O15 Sr8 2.672221 1_545
O15 Sr12 2.686690 1_556
O15 Sr5 2.839736 1_555
O15 Sr0 2.842179 1_655
O16 Sr13 2.667282 1_555
O16 Sr9 2.681083 1_455
O16 Sr3 2.830800 1_455
O16 Sr1 2.847157 1_565
O17 Sr6 2.441396 1_555
O17 Sr11 2.671590 1_555
O17 Sr10 2.672355 1_455
O17 Sr2 2.839707 1_555
O17 Sr4 2.857761 1_555
O18 Sr9 2.439983 1_555
O18 Sr1 2.834796 1_565
O18 Sr3 2.840485 1_555
O19 Sr10 2.465655 1_555
O19 Sr6 2.661929 1_555
O19 Sr4 2.789070 1_655
O19 Sr2 2.867217 1_555
O20 Sr8 2.461384 1_555
O20 Sr7 2.657525 1_455
O20 Sr5 2.790184 1_565
O20 Sr0 2.859674 1_565
O21 Sr12 2.444944 1_455
O21 Sr3 2.831284 1_455
O21 Sr0 2.838829 1_554
O22 Sr13 2.465387 1_545
O22 Sr6 2.665554 1_555
O22 Sr1 2.788662 1_555
O22 Sr4 2.868172 1_555
O23 Sr11 2.456526 1_555
O23 Sr7 2.660025 1_555
O23 Sr2 2.791848 1_555
O23 Sr5 2.861617 1_565
F0 Sr11 2.488807 1_555
F0 Sr8 2.498964 1_555
F0 Sr7 2.586192 1_555
F0 Sr5 2.787027 1_565
F0 Sr0 2.787732 1_555
F1 Sr12 2.479931 1_555
F1 Sr9 2.483702 1_555
F1 Sr3 2.774601 1_555
F1 Sr1 2.787277 1_555
F2 Sr10 2.495167 1_565
F2 Sr13 2.496779 1_655
F2 Sr6 2.585119 1_665
F2 Sr2 2.786134 1_555
F2 Sr4 2.799127 1_665
F3 Sr8 2.489551 1_544
F3 Sr12 2.497880 1_455
F3 Sr7 2.582918 1_444
F3 Sr0 2.785847 1_554
F3 Sr3 2.798800 1_445
F4 Sr13 2.484153 1_555
F4 Sr9 2.486895 1_555
F4 Sr4 2.773777 1_555
F4 Sr1 2.788000 1_565
F5 Sr10 2.488951 1_555
F5 Sr11 2.495066 1_555
F5 Sr6 2.587440 1_555
F5 Sr2 2.787356 1_555
F5 Sr5 2.788081 1_555
