# generated using pymatgen
data_Ba2LiLaIrO6
_symmetry_space_group_name_H-M   'P 1'
_cell_length_a   6.25549448
_cell_length_b   6.03139872
_cell_length_c   6.27208079
_cell_angle_alpha   61.37784056
_cell_angle_beta   58.93771713
_cell_angle_gamma   61.57503610
_symmetry_Int_Tables_number   1
_chemical_formula_structural   Ba2LiLaIrO6
_chemical_formula_sum   'Ba2 Li1 La1 Ir1 O6'
_cell_volume   169.49671163
_cell_formula_units_Z   1
loop_
 _symmetry_equiv_pos_site_id
 _symmetry_equiv_pos_as_xyz
  1  'x, y, z'
loop_
 _atom_site_type_symbol
 _atom_site_label
 _atom_site_symmetry_multiplicity
 _atom_site_fract_x
 _atom_site_fract_y
 _atom_site_fract_z
 _atom_site_occupancy
  Ba  Ba0  1  0.70299200  0.78675300  0.70623800  1
  Ba  Ba1  1  0.29700800  0.21324700  0.29376200  1
  Li  Li0  1  0.00000000  0.50000000  0.00000000  1
  La  La0  1  0.00000000  0.00000000  0.00000000  1
  Ir  Ir0  1  0.50000000  0.50000000  0.50000000  1
  O  O0  1  0.25767900  0.75351500  0.71650800  1
  O  O1  1  0.69189300  0.27557500  0.75757000  1
  O  O2  1  0.77786000  0.69084600  0.26033200  1
  O  O3  1  0.74232100  0.24648500  0.28349200  1
  O  O4  1  0.30810700  0.72442500  0.24243000  1
  O  O5  1  0.22214000  0.30915400  0.73966800  1
loop_
_geom_bond_atom_site_label_1
_geom_bond_atom_site_label_2
_geom_bond_distance
_geom_bond_site_symmetry_2
Ba0 Li0 2.694139 1_656
Ba0 O3 2.777049 1_565
Ba0 O0 2.852772 1_555
Ba0 O2 2.883780 1_555
Ba0 O4 2.941658 1_556
Ba0 O1 2.973854 1_555
Ba0 O1 3.080959 1_565
Ba0 O5 3.158920 1_565
Ba0 O5 3.179042 1_655
Ba0 O4 3.355895 1_655
Ba1 Li0 2.694139 1_555
Ba1 O0 2.777049 1_545
Ba1 O3 2.852772 1_555
Ba1 O5 2.883780 1_555
Ba1 O1 2.941658 1_554
Ba1 O4 2.973854 1_555
Ba1 O4 3.080959 1_545
Ba1 O2 3.158920 1_545
Ba1 O2 3.179042 1_455
Ba1 O1 3.355895 1_455
Li0 O5 1.964311 1_554
Li0 O2 1.964311 1_455
Li0 O0 2.209488 1_554
Li0 O3 2.209488 1_455
La0 O3 2.294229 1_455
La0 O0 2.294229 1_544
La0 O2 2.298331 1_445
La0 O5 2.298331 1_554
La0 O4 2.518437 1_545
La0 O1 2.518437 1_454
Ir0 O0 2.034293 1_555
Ir0 O3 2.034293 1_555
Ir0 O5 2.038751 1_555
Ir0 O2 2.038751 1_555
Ir0 O1 2.059672 1_555
Ir0 O4 2.059672 1_555
