# generated using pymatgen
data_Li2CrCo3O8
_symmetry_space_group_name_H-M   'P 1'
_cell_length_a   8.19434300
_cell_length_b   8.32124447
_cell_length_c   8.32163138
_cell_angle_alpha   89.97577043
_cell_angle_beta   89.85762159
_cell_angle_gamma   89.60328290
_symmetry_Int_Tables_number   1
_chemical_formula_structural   Li2CrCo3O8
_chemical_formula_sum   'Li8 Cr4 Co12 O32'
_cell_volume   567.41277150
_cell_formula_units_Z   4
loop_
 _symmetry_equiv_pos_site_id
 _symmetry_equiv_pos_as_xyz
  1  'x, y, z'
loop_
 _atom_site_type_symbol
 _atom_site_label
 _atom_site_symmetry_multiplicity
 _atom_site_fract_x
 _atom_site_fract_y
 _atom_site_fract_z
 _atom_site_occupancy
  Li  Li0  1  0.99877700  0.99812800  0.00156000  1
  Li  Li1  1  0.25143400  0.25148000  0.24747100  1
  Li  Li2  1  0.24998700  0.75212300  0.74687300  1
  Li  Li3  1  0.50181400  0.99665000  0.50277200  1
  Li  Li4  1  0.50118800  0.50101400  0.00298000  1
  Li  Li5  1  0.74794600  0.25012700  0.74732300  1
  Li  Li6  1  0.74825500  0.74968200  0.24961200  1
  Li  Li7  1  0.99927600  0.50073500  0.50198700  1
  Cr  Cr0  1  0.12255200  0.87053700  0.37739100  1
  Cr  Cr1  1  0.37935900  0.12120600  0.87255800  1
  Cr  Cr2  1  0.62572600  0.62803200  0.62109900  1
  Cr  Cr3  1  0.87281100  0.37804900  0.12769600  1
  Co  Co0  1  0.12366800  0.12212600  0.62690000  1
  Co  Co1  1  0.13292400  0.37680800  0.87681500  1
  Co  Co2  1  0.12645100  0.62852100  0.12816200  1
  Co  Co3  1  0.37534100  0.37661600  0.62238000  1
  Co  Co4  1  0.37638800  0.62349200  0.37450700  1
  Co  Co5  1  0.38325600  0.87139400  0.12242100  1
  Co  Co6  1  0.62463400  0.37823100  0.37369400  1
  Co  Co7  1  0.62401600  0.12501300  0.12556800  1
  Co  Co8  1  0.62546400  0.87559100  0.87216500  1
  Co  Co9  1  0.87142800  0.12263900  0.37991000  1
  Co  Co10  1  0.87244600  0.87377900  0.62614500  1
  Co  Co11  1  0.87347400  0.62792900  0.87327600  1
  O  O0  1  0.10393300  0.11181900  0.38183300  1
  O  O1  1  0.10442700  0.88608900  0.61595100  1
  O  O2  1  0.11042400  0.60844600  0.88638900  1
  O  O3  1  0.14196200  0.14294700  0.87301600  1
  O  O4  1  0.11612700  0.39086200  0.10815400  1
  O  O5  1  0.13546400  0.36011500  0.64285200  1
  O  O6  1  0.14323000  0.63176200  0.36433400  1
  O  O7  1  0.13651300  0.85768800  0.13570700  1
  O  O8  1  0.36330400  0.13052500  0.64185300  1
  O  O9  1  0.36895500  0.36382800  0.86454300  1
  O  O10  1  0.35909400  0.62964500  0.14525000  1
  O  O11  1  0.38277400  0.61841700  0.60017100  1
  O  O12  1  0.36656000  0.85142400  0.36574800  1
  O  O13  1  0.39235100  0.39423000  0.37999800  1
  O  O14  1  0.38880900  0.11447400  0.10955900  1
  O  O15  1  0.39128200  0.88581200  0.87967300  1
  O  O16  1  0.61421500  0.38601800  0.60235900  1
  O  O17  1  0.60827300  0.60896900  0.38097000  1
  O  O18  1  0.61625800  0.88243100  0.10235600  1
  O  O19  1  0.63036700  0.36815700  0.14845300  1
  O  O20  1  0.61089500  0.10610100  0.88148900  1
  O  O21  1  0.63892400  0.14712000  0.36897900  1
  O  O22  1  0.64362700  0.86620200  0.64093600  1
  O  O23  1  0.64209700  0.64295800  0.86279300  1
  O  O24  1  0.85345400  0.37111200  0.36671300  1
  O  O25  1  0.85991900  0.13845900  0.13946400  1
  O  O26  1  0.86146800  0.86054300  0.85738500  1
  O  O27  1  0.87929700  0.87916200  0.39861000  1
  O  O28  1  0.86913200  0.64611100  0.63506900  1
  O  O29  1  0.88197100  0.10234800  0.61639700  1
  O  O30  1  0.88142400  0.39760700  0.88699300  1
  O  O31  1  0.89485300  0.61884700  0.11487500  1
loop_
_geom_bond_atom_site_label_1
_geom_bond_atom_site_label_2
_geom_bond_distance
_geom_bond_site_symmetry_2
Li0 O7 1.967903 1_655
Li0 O25 1.987836 1_565
Li0 O3 1.996335 1_664
Li0 O26 2.010444 1_554
Li1 O14 1.964931 1_555
Li1 O4 1.976376 1_555
Li1 O13 1.996767 1_555
Li1 O0 2.018242 1_555
Li2 O15 1.955664 1_555
Li2 O1 1.959436 1_555
Li2 O11 1.972303 1_555
Li2 O2 2.023946 1_555
Li3 O22 1.959266 1_555
Li3 O8 1.961075 1_565
Li3 O12 2.003732 1_555
Li3 O21 2.020334 1_565
Li4 O19 1.948647 1_555
Li4 O9 1.956748 1_554
Li4 O10 1.969789 1_555
Li4 O23 2.024918 1_554
Li5 O29 1.970242 1_555
Li5 O16 1.980665 1_555
Li5 O20 1.988812 1_555
Li5 O30 2.019751 1_555
Li6 O31 1.965130 1_555
Li6 O27 1.968516 1_555
Li6 O18 1.969942 1_555
Li6 O17 1.973057 1_555
Li7 O28 1.950529 1_555
Li7 O24 1.970791 1_555
Li7 O6 1.975462 1_655
Li7 O5 1.993985 1_655
Cr0 O1 1.994579 1_555
Cr0 O6 1.995930 1_555
Cr0 O27 2.001478 1_455
Cr0 O12 2.006806 1_555
Cr0 O0 2.012850 1_565
Cr0 O7 2.017011 1_555
Cr1 O20 1.902210 1_555
Cr1 O8 1.926163 1_555
Cr1 O3 1.952453 1_555
Cr1 O15 1.961407 1_545
Cr1 O14 1.974703 1_556
Cr1 O9 2.021206 1_555
Cr2 O22 1.995245 1_555
Cr2 O11 2.001021 1_555
Cr2 O28 2.004921 1_555
Cr2 O17 2.010145 1_555
Cr2 O23 2.020021 1_555
Cr2 O16 2.022822 1_555
Cr3 O24 1.995775 1_555
Cr3 O19 1.995999 1_555
Cr3 O25 1.999559 1_555
Cr3 O4 2.003604 1_655
Cr3 O30 2.010678 1_554
Cr3 O31 2.015865 1_555
Co0 O8 1.969632 1_555
Co0 O1 1.973688 1_545
Co0 O5 1.987900 1_555
Co0 O29 1.990649 1_455
Co0 O0 2.048039 1_555
Co0 O3 2.061391 1_555
Co1 O4 1.933223 1_556
Co1 O2 1.936697 1_555
Co1 O9 1.938826 1_555
Co1 O3 1.947178 1_555
Co1 O5 1.952010 1_555
Co1 O30 2.068465 1_455
Co2 O31 1.903547 1_455
Co2 O7 1.910372 1_555
Co2 O10 1.912093 1_555
Co2 O6 1.970690 1_555
Co2 O4 1.987088 1_555
Co2 O2 2.023606 1_554
Co3 O16 1.966175 1_555
Co3 O5 1.978294 1_555
Co3 O9 2.018522 1_555
Co3 O11 2.021801 1_555
Co3 O13 2.026793 1_555
Co3 O8 2.057144 1_555
Co4 O11 1.879200 1_555
Co4 O12 1.899206 1_555
Co4 O17 1.904041 1_555
Co4 O13 1.911855 1_555
Co4 O6 1.913422 1_555
Co4 O10 1.914037 1_555
Co5 O18 1.919001 1_555
Co5 O15 2.024501 1_554
Co5 O14 2.026332 1_565
Co5 O7 2.028637 1_555
Co5 O10 2.031512 1_555
Co5 O12 2.035955 1_555
Co6 O24 1.876311 1_555
Co6 O19 1.876738 1_555
Co6 O16 1.905677 1_555
Co6 O13 1.907730 1_555
Co6 O17 1.924744 1_555
Co6 O21 1.926294 1_555
Co7 O14 1.934892 1_555
Co7 O25 1.940816 1_555
Co7 O18 2.029335 1_545
Co7 O19 2.033321 1_555
Co7 O21 2.038034 1_555
Co7 O20 2.040448 1_554
Co8 O18 1.917716 1_556
Co8 O15 1.921125 1_555
Co8 O20 1.922604 1_565
Co8 O22 1.931153 1_555
Co8 O26 1.940682 1_555
Co8 O23 1.941233 1_555
Co9 O0 1.906836 1_655
Co9 O21 1.917055 1_555
Co9 O29 1.977168 1_555
Co9 O25 2.007581 1_555
Co9 O27 2.032524 1_545
Co9 O24 2.074708 1_555
Co10 O22 1.880243 1_555
Co10 O27 1.894675 1_555
Co10 O28 1.896284 1_555
Co10 O29 1.905804 1_565
Co10 O1 1.906074 1_655
Co10 O26 1.929308 1_555
Co11 O23 1.901454 1_555
Co11 O30 1.920578 1_555
Co11 O26 1.941925 1_555
Co11 O2 1.950608 1_655
Co11 O28 1.988360 1_555
Co11 O31 2.019887 1_556
