# generated using pymatgen
data_Ho3SOF5
_symmetry_space_group_name_H-M   'P 1'
_cell_length_a   3.67443300
_cell_length_b   9.37211400
_cell_length_c   9.42408047
_cell_angle_alpha   60.43770842
_cell_angle_beta   90.00000000
_cell_angle_gamma   90.00000000
_symmetry_Int_Tables_number   1
_chemical_formula_structural   Ho3SOF5
_chemical_formula_sum   'Ho6 S2 O2 F10'
_cell_volume   282.29044724
_cell_formula_units_Z   2
loop_
 _symmetry_equiv_pos_site_id
 _symmetry_equiv_pos_as_xyz
  1  'x, y, z'
loop_
 _atom_site_type_symbol
 _atom_site_label
 _atom_site_symmetry_multiplicity
 _atom_site_fract_x
 _atom_site_fract_y
 _atom_site_fract_z
 _atom_site_occupancy
  Ho  Ho0  1  0.00000000  0.41607500  0.86699200  1
  Ho  Ho1  1  0.00000000  0.86677600  0.73042400  1
  Ho  Ho2  1  0.00000000  0.70158500  0.41406400  1
  Ho  Ho3  1  0.50000000  0.59612100  0.10360200  1
  Ho  Ho4  1  0.50000000  0.12248300  0.28396100  1
  Ho  Ho5  1  0.50000000  0.29584300  0.59894400  1
  S  S0  1  0.00000000  0.32917100  0.33313600  1
  S  S1  1  0.50000000  0.67327500  0.66146900  1
  O  O0  1  0.00000000  0.43586500  0.61369000  1
  O  O1  1  0.00000000  0.61602400  0.94901800  1
  F  F0  1  0.00000000  0.15722000  0.11823100  1
  F  F1  1  0.00000000  0.11014600  0.72944100  1
  F  F2  1  0.00000000  0.72808100  0.16138800  1
  F  F3  1  0.50000000  0.85358900  0.88187800  1
  F  F4  1  0.50000000  0.88225000  0.27873400  1
  F  F5  1  0.50000000  0.26995800  0.85218100  1
  F  F6  1  0.00000000  0.95268900  0.43187900  1
  F  F7  1  0.50000000  0.57098800  0.37534500  1
  F  F8  1  0.50000000  0.37696100  0.04856300  1
  F  F9  1  0.50000000  0.04490100  0.56706000  1
loop_
_geom_bond_atom_site_label_1
_geom_bond_atom_site_label_2
_geom_bond_distance
_geom_bond_site_symmetry_2
Ho0 O0 2.301293 1_555
Ho0 O1 2.353426 1_555
Ho0 S1 2.886251 1_555
Ho0 S1 2.886251 1_455
Ho1 O1 2.233738 1_555
Ho1 S1 2.872167 1_455
Ho1 S1 2.872167 1_555
Ho2 O0 2.262340 1_555
Ho2 S1 2.876028 1_455
Ho2 S1 2.876028 1_555
Ho3 O1 2.294411 1_554
Ho3 O1 2.294411 1_654
Ho3 S0 2.995634 1_555
Ho3 S0 2.995634 1_655
Ho4 S0 2.868503 1_555
Ho4 S0 2.868503 1_655
Ho5 O0 2.301470 1_555
Ho5 O0 2.301470 1_655
Ho5 S0 2.995975 1_555
Ho5 S0 2.995975 1_655
F0 Ho4 2.327876 1_555
F0 Ho4 2.327876 1_455
F0 Ho0 2.413224 1_554
F1 Ho1 2.276335 1_545
F1 Ho5 2.409306 1_455
F1 Ho5 2.409306 1_555
F2 Ho2 2.269028 1_555
F2 Ho3 2.421991 1_555
F2 Ho3 2.421991 1_455
F3 Ho3 2.283333 1_556
F3 Ho1 2.292118 1_655
F3 Ho1 2.292118 1_555
F4 Ho4 2.276198 1_565
F4 Ho2 2.395425 1_655
F4 Ho2 2.395425 1_555
F5 Ho5 2.276636 1_555
F5 Ho0 2.336404 1_655
F5 Ho0 2.336404 1_555
F6 Ho4 2.379500 1_465
F6 Ho4 2.379500 1_565
F6 Ho2 2.440580 1_555
F6 Ho1 2.515714 1_555
F7 Ho2 2.333946 1_555
F7 Ho2 2.333946 1_655
F7 Ho5 2.393366 1_555
F7 Ho3 2.453285 1_555
F8 Ho4 2.321382 1_555
F8 Ho3 2.353548 1_555
F8 Ho0 2.412217 1_554
F8 Ho0 2.412217 1_654
F9 Ho4 2.394258 1_555
F9 Ho1 2.448766 1_545
F9 Ho1 2.448766 1_645
F9 Ho5 2.513728 1_555
