# generated using pymatgen
data_Zn3Te2P2(PbO7)2
_symmetry_space_group_name_H-M   'P 1'
_cell_length_a   8.06722400
_cell_length_b   5.35155600
_cell_length_c   15.46132038
_cell_angle_alpha   89.94035595
_cell_angle_beta   90.00000000
_cell_angle_gamma   90.00000000
_symmetry_Int_Tables_number   1
_chemical_formula_structural   Zn3Te2P2(PbO7)2
_chemical_formula_sum   'Zn6 Te4 P4 Pb4 O28'
_cell_volume   667.49886940
_cell_formula_units_Z   2
loop_
 _symmetry_equiv_pos_site_id
 _symmetry_equiv_pos_as_xyz
  1  'x, y, z'
loop_
 _atom_site_type_symbol
 _atom_site_label
 _atom_site_symmetry_multiplicity
 _atom_site_fract_x
 _atom_site_fract_y
 _atom_site_fract_z
 _atom_site_occupancy
  Zn  Zn0  1  0.60963700  0.00946900  0.38502200  1
  Zn  Zn1  1  0.10963700  0.99053100  0.11497800  1
  Zn  Zn2  1  0.39036300  0.99053100  0.61497800  1
  Zn  Zn3  1  0.89036300  0.00946900  0.88502200  1
  Zn  Zn4  1  0.50000000  0.00000000  0.00000000  1
  Zn  Zn5  1  0.00000000  0.00000000  0.50000000  1
  Te  Te0  1  0.72246400  0.48396200  0.51154200  1
  Te  Te1  1  0.22246400  0.51603800  0.98845800  1
  Te  Te2  1  0.27753600  0.51603800  0.48845800  1
  Te  Te3  1  0.77753600  0.48396200  0.01154200  1
  P  P0  1  0.73814100  0.03632600  0.19216000  1
  P  P1  1  0.23814100  0.96367400  0.30784000  1
  P  P2  1  0.26185900  0.96367400  0.80784000  1
  P  P3  1  0.76185900  0.03632600  0.69216000  1
  Pb  Pb0  1  0.93984600  0.49676200  0.30156200  1
  Pb  Pb1  1  0.43984600  0.50323800  0.19843800  1
  Pb  Pb2  1  0.06015400  0.50323800  0.69843800  1
  Pb  Pb3  1  0.56015400  0.49676200  0.80156200  1
  O  O0  1  0.69685000  0.18495600  0.27798400  1
  O  O1  1  0.19685000  0.81504400  0.22201600  1
  O  O2  1  0.30315000  0.81504400  0.72201600  1
  O  O3  1  0.80315000  0.18495600  0.77798400  1
  O  O4  1  0.74786900  0.75203500  0.21052700  1
  O  O5  1  0.24786900  0.24796500  0.28947300  1
  O  O6  1  0.25213100  0.24796500  0.78947300  1
  O  O7  1  0.75213100  0.75203500  0.71052700  1
  O  O8  1  0.59928300  0.09480700  0.12582800  1
  O  O9  1  0.09928300  0.90519300  0.37417200  1
  O  O10  1  0.40071700  0.90519300  0.87417200  1
  O  O11  1  0.90071700  0.09480700  0.62582800  1
  O  O12  1  0.40583800  0.85081100  0.33969600  1
  O  O13  1  0.90583800  0.14918900  0.16030400  1
  O  O14  1  0.59416200  0.14918900  0.66030400  1
  O  O15  1  0.09416200  0.85081100  0.83969600  1
  O  O16  1  0.88950400  0.29211600  0.44991300  1
  O  O17  1  0.38950400  0.70788400  0.05008700  1
  O  O18  1  0.11049600  0.70788400  0.55008700  1
  O  O19  1  0.61049600  0.29211600  0.94991300  1
  O  O20  1  0.54730900  0.29366600  0.45952900  1
  O  O21  1  0.04730900  0.70633400  0.04047100  1
  O  O22  1  0.45269100  0.70633400  0.54047100  1
  O  O23  1  0.95269100  0.29366600  0.95952900  1
  O  O24  1  0.76009000  0.74815200  0.42926200  1
  O  O25  1  0.26009000  0.25184800  0.07073800  1
  O  O26  1  0.23991000  0.25184800  0.57073800  1
  O  O27  1  0.73991000  0.74815200  0.92926200  1
loop_
_geom_bond_atom_site_label_1
_geom_bond_atom_site_label_2
_geom_bond_distance
_geom_bond_site_symmetry_2
O0 P0 1.583232 1_555
O0 Zn0 2.027952 1_555
O0 Pb0 2.600256 1_555
O1 P1 1.583232 1_555
O1 Zn1 2.027952 1_555
O1 Pb1 2.600256 1_555
O2 P2 1.583232 1_555
O2 Zn2 2.027952 1_555
O2 Pb2 2.600256 1_555
O3 P3 1.583232 1_555
O3 Zn3 2.027952 1_555
O3 Pb3 2.600256 1_555
O4 P0 1.549374 1_565
O4 Pb0 2.498380 1_555
O5 P1 1.549374 1_545
O5 Pb1 2.498380 1_555
O6 P2 1.549374 1_545
O6 Pb2 2.498380 1_555
O7 P3 1.549374 1_565
O7 Pb3 2.498380 1_555
O8 P0 1.550464 1_555
O8 Zn4 2.164675 1_555
O9 P1 1.550464 1_555
O9 Zn5 2.164675 1_565
O10 P2 1.550464 1_555
O10 Zn4 2.164675 1_566
O11 P3 1.550464 1_555
O11 Zn5 2.164675 1_655
O12 P1 1.561083 1_555
O12 Zn0 1.978968 1_565
O13 P0 1.561083 1_555
O13 Zn1 1.978968 1_645
O14 P3 1.561083 1_555
O14 Zn2 1.978968 1_545
O15 P2 1.561083 1_555
O15 Zn3 1.978968 1_465
O16 Te0 1.944207 1_555
O16 Zn5 1.958471 1_655
O16 Pb0 2.572971 1_555
O17 Te1 1.944207 1_554
O17 Zn4 1.958471 1_565
O17 Pb1 2.572971 1_555
O18 Te2 1.944207 1_555
O18 Zn5 1.958471 1_565
O18 Pb2 2.572971 1_555
O19 Te3 1.944207 1_556
O19 Zn4 1.958471 1_556
O19 Pb3 2.572971 1_555
O20 Te0 1.918889 1_555
O20 Zn0 1.973992 1_555
O20 Te2 2.520659 1_555
O21 Te1 1.918889 1_554
O21 Zn1 1.973992 1_555
O21 Te3 2.520659 1_455
O22 Te2 1.918889 1_555
O22 Zn2 1.973992 1_555
O22 Te0 2.520659 1_555
O23 Te3 1.918889 1_556
O23 Zn3 1.973992 1_555
O23 Te1 2.520659 1_655
O24 Te0 1.925015 1_555
O24 Zn0 1.973501 1_565
O25 Te1 1.925015 1_554
O25 Zn1 1.973501 1_545
O26 Te2 1.925015 1_555
O26 Zn2 1.973501 1_545
O27 Te3 1.925015 1_556
O27 Zn3 1.973501 1_565
