# generated using pymatgen
data_Ca4Mg4V3AsO20
_symmetry_space_group_name_H-M   'P 1'
_cell_length_a   6.06044700
_cell_length_b   7.43056325
_cell_length_c   9.15359621
_cell_angle_alpha   89.62401021
_cell_angle_beta   89.83219847
_cell_angle_gamma   89.95540829
_symmetry_Int_Tables_number   1
_chemical_formula_structural   Ca4Mg4V3AsO20
_chemical_formula_sum   'Ca4 Mg4 V3 As1 O20'
_cell_volume   412.19887753
_cell_formula_units_Z   1
loop_
 _symmetry_equiv_pos_site_id
 _symmetry_equiv_pos_as_xyz
  1  'x, y, z'
loop_
 _atom_site_type_symbol
 _atom_site_label
 _atom_site_symmetry_multiplicity
 _atom_site_fract_x
 _atom_site_fract_y
 _atom_site_fract_z
 _atom_site_occupancy
  Ca  Ca0  1  0.02549600  0.86698800  0.16323400  1
  Ca  Ca1  1  0.52603300  0.63035400  0.83667000  1
  Ca  Ca2  1  0.97104300  0.37251000  0.33932800  1
  Ca  Ca3  1  0.47460900  0.13362700  0.66272400  1
  Mg  Mg0  1  0.25519200  0.25709200  0.00549400  1
  Mg  Mg1  1  0.75252100  0.24154100  0.99574200  1
  Mg  Mg2  1  0.74524500  0.75975700  0.49474800  1
  Mg  Mg3  1  0.24466300  0.74326500  0.50355300  1
  V  V0  1  0.01510200  0.38097500  0.68360700  1
  V  V1  1  0.48555800  0.61930100  0.18285400  1
  V  V2  1  0.98495400  0.88130700  0.81745400  1
  As  As0  1  0.51534000  0.12023600  0.31689300  1
  O  O0  1  0.74008200  0.10493900  0.19976400  1
  O  O1  1  0.24525400  0.39195600  0.79915800  1
  O  O2  1  0.25356200  0.60920200  0.29805600  1
  O  O3  1  0.75479500  0.89199600  0.70161100  1
  O  O4  1  0.58444200  0.29099800  0.43423100  1
  O  O5  1  0.07896000  0.20835600  0.56743500  1
  O  O6  1  0.42311700  0.79134000  0.06440400  1
  O  O7  1  0.92324600  0.70687800  0.93419600  1
  O  O8  1  0.99359700  0.38361800  0.08930400  1
  O  O9  1  0.49461200  0.11320300  0.91173900  1
  O  O10  1  0.00469800  0.88755100  0.41142200  1
  O  O11  1  0.50416100  0.61586000  0.58743300  1
  O  O12  1  0.48942500  0.93717100  0.43619600  1
  O  O13  1  0.98786000  0.56419700  0.55994200  1
  O  O14  1  0.51088100  0.43613400  0.06073700  1
  O  O15  1  0.01117700  0.06303700  0.94162800  1
  O  O16  1  0.26855500  0.14679900  0.22397300  1
  O  O17  1  0.76344800  0.34835800  0.77777600  1
  O  O18  1  0.73695600  0.65274200  0.27636400  1
  O  O19  1  0.23541700  0.84871000  0.72233000  1
loop_
_geom_bond_atom_site_label_1
_geom_bond_atom_site_label_2
_geom_bond_distance
_geom_bond_site_symmetry_2
Ca0 O10 2.281056 1_555
Ca0 O15 2.491284 1_564
Ca0 O0 2.495921 1_465
Ca0 O7 2.497259 1_454
Ca0 O18 2.576179 1_455
Ca0 O16 2.612775 1_565
Ca0 O6 2.633078 1_555
Ca0 O2 2.660341 1_555
Ca1 O11 2.288895 1_555
Ca1 O1 2.483459 1_555
Ca1 O6 2.487851 1_556
Ca1 O14 2.501617 1_556
Ca1 O17 2.599448 1_555
Ca1 O19 2.610375 1_555
Ca1 O7 2.633758 1_555
Ca1 O3 2.681940 1_555
Ca2 O8 2.293246 1_555
Ca2 O13 2.481198 1_555
Ca2 O2 2.481878 1_655
Ca2 O5 2.499726 1_655
Ca2 O4 2.567958 1_555
Ca2 O18 2.581694 1_555
Ca2 O16 2.680711 1_655
Ca2 O0 2.755425 1_555
Ca3 O9 2.286999 1_555
Ca3 O4 2.479099 1_555
Ca3 O3 2.494825 1_545
Ca3 O12 2.545003 1_545
Ca3 O17 2.599304 1_555
Ca3 O5 2.611981 1_555
Ca3 O19 2.620330 1_545
Ca3 O1 2.682065 1_555
Mg0 O8 1.996472 1_455
Mg0 O9 1.996835 1_554
Mg0 O14 2.107956 1_555
Mg0 O1 2.133271 1_554
Mg0 O15 2.151130 1_554
Mg0 O16 2.158011 1_555
Mg1 O9 1.990663 1_555
Mg1 O8 2.001049 1_556
Mg1 O15 2.112528 1_655
Mg1 O0 2.120866 1_556
Mg1 O14 2.142936 1_556
Mg1 O17 2.143269 1_555
Mg2 O10 1.985373 1_655
Mg2 O11 1.995259 1_555
Mg2 O12 2.102673 1_555
Mg2 O3 2.139981 1_555
Mg2 O13 2.149433 1_555
Mg2 O18 2.156930 1_555
Mg3 O11 1.988533 1_555
Mg3 O10 1.992116 1_555
Mg3 O13 2.109160 1_455
Mg3 O2 2.134822 1_555
Mg3 O12 2.154722 1_555
Mg3 O19 2.155759 1_555
As0 O4 1.720566 1_555
As0 O16 1.733230 1_555
As0 O0 1.735044 1_555
As0 O12 1.745688 1_545
O1 V0 1.755246 1_555
O2 V1 1.756389 1_555
O3 V2 1.756062 1_555
O5 V0 1.714789 1_555
O6 V1 1.713597 1_555
O7 V2 1.715200 1_555
O13 V0 1.772760 1_655
O14 V1 1.773162 1_555
O15 V2 1.778258 1_445
O17 V0 1.765766 1_655
O18 V1 1.768256 1_555
O19 V2 1.765039 1_455
