# generated using pymatgen
data_Sr4LiMn2(GaO5)2
_symmetry_space_group_name_H-M   'P 1'
_cell_length_a   5.66070597
_cell_length_b   5.74657244
_cell_length_c   9.11767020
_cell_angle_alpha   71.79144921
_cell_angle_beta   72.07375589
_cell_angle_gamma   90.48075727
_symmetry_Int_Tables_number   1
_chemical_formula_structural   Sr4LiMn2(GaO5)2
_chemical_formula_sum   'Sr4 Li1 Mn2 Ga2 O10'
_cell_volume   266.26501190
_cell_formula_units_Z   1
loop_
 _symmetry_equiv_pos_site_id
 _symmetry_equiv_pos_as_xyz
  1  'x, y, z'
loop_
 _atom_site_type_symbol
 _atom_site_label
 _atom_site_symmetry_multiplicity
 _atom_site_fract_x
 _atom_site_fract_y
 _atom_site_fract_z
 _atom_site_occupancy
  Sr  Sr0  1  0.08591900  0.62149300  0.79242900  1
  Sr  Sr1  1  0.91408100  0.37850700  0.20757100  1
  Sr  Sr2  1  0.62165100  0.08605200  0.79242800  1
  Sr  Sr3  1  0.37834900  0.91394800  0.20757200  1
  Li  Li0  1  0.50000000  0.00000000  0.50000000  1
  Mn  Mn0  1  0.50000000  0.50000000  0.00000000  1
  Mn  Mn1  1  0.00000000  0.00000000  0.00000000  1
  Ga  Ga0  1  0.70382800  0.64406700  0.50000700  1
  Ga  Ga1  1  0.29617200  0.35593300  0.49999300  1
  O  O0  1  0.25651700  0.25646500  0.98682700  1
  O  O1  1  0.24826800  0.74840800  0.00330600  1
  O  O2  1  0.75173200  0.25159200  0.99669400  1
  O  O3  1  0.74348300  0.74353500  0.01317300  1
  O  O4  1  0.66911800  0.69071000  0.69515800  1
  O  O5  1  0.33088200  0.30929000  0.30484200  1
  O  O6  1  0.13576500  0.11404900  0.69510200  1
  O  O7  1  0.86423500  0.88595100  0.30489800  1
  O  O8  1  0.34132700  0.68258400  0.50000800  1
  O  O9  1  0.65867300  0.31741600  0.49999200  1
loop_
_geom_bond_atom_site_label_1
_geom_bond_atom_site_label_2
_geom_bond_distance
_geom_bond_site_symmetry_2
Li0 O9 2.026406 1_555
Li0 O8 2.026406 1_545
Mn0 O3 2.011779 1_555
Mn0 O0 2.011779 1_554
Mn0 O1 2.025785 1_555
Mn0 O2 2.025785 1_554
Mn0 O4 2.506718 1_554
Mn0 O5 2.506718 1_555
Mn1 O0 2.010248 1_554
Mn1 O3 2.010248 1_445
Mn1 O2 2.024656 1_454
Mn1 O1 2.024656 1_545
Mn1 O6 2.507204 1_554
Mn1 O7 2.507204 1_445
Ga0 O4 1.833075 1_555
Ga0 O7 1.833126 1_555
Ga0 O9 1.892369 1_555
Ga0 O8 2.065758 1_555
Ga1 O5 1.833075 1_555
Ga1 O6 1.833126 1_555
Ga1 O8 1.892369 1_555
Ga1 O9 2.065758 1_555
O0 Sr3 2.608096 1_546
O0 Sr1 2.608353 1_456
O0 Sr2 2.690038 1_555
O0 Sr0 2.690438 1_555
O1 Sr1 2.618260 1_455
O1 Sr3 2.618301 1_555
O1 Sr0 2.650687 1_554
O1 Sr2 2.650846 1_564
O2 Sr0 2.618260 1_655
O2 Sr2 2.618301 1_555
O2 Sr1 2.650687 1_556
O2 Sr3 2.650846 1_546
O3 Sr2 2.608096 1_564
O3 Sr0 2.608353 1_654
O3 Sr3 2.690038 1_555
O3 Sr1 2.690438 1_555
O4 Sr2 2.672610 1_565
O4 Sr0 2.755883 1_655
O5 Sr3 2.672610 1_545
O5 Sr1 2.755883 1_455
O6 Sr0 2.672374 1_545
O6 Sr2 2.756092 1_455
O7 Sr1 2.672374 1_565
O7 Sr3 2.756092 1_655
O8 Sr0 2.521062 1_555
O8 Sr3 2.521276 1_555
O9 Sr1 2.521062 1_555
O9 Sr2 2.521276 1_555
