# generated using pymatgen
data_Fe7(SiO3)8
_symmetry_space_group_name_H-M   'P 1'
_cell_length_a   10.43648705
_cell_length_b   10.43648705
_cell_length_c   5.36921110
_cell_angle_alpha   84.11872288
_cell_angle_beta   84.11872288
_cell_angle_gamma   124.37147576
_symmetry_Int_Tables_number   1
_chemical_formula_structural   Fe7(SiO3)8
_chemical_formula_sum   'Fe7 Si8 O24'
_cell_volume   470.92095299
_cell_formula_units_Z   1
loop_
 _symmetry_equiv_pos_site_id
 _symmetry_equiv_pos_as_xyz
  1  'x, y, z'
loop_
 _atom_site_type_symbol
 _atom_site_label
 _atom_site_symmetry_multiplicity
 _atom_site_fract_x
 _atom_site_fract_y
 _atom_site_fract_z
 _atom_site_occupancy
  Fe  Fe0  1  0.74202300  0.25797700  0.50000000  1
  Fe  Fe1  1  0.25797700  0.74202300  0.50000000  1
  Fe  Fe2  1  0.82131500  0.17868500  0.00000000  1
  Fe  Fe3  1  0.17868500  0.82131500  0.00000000  1
  Fe  Fe4  1  0.00000000  0.00000000  0.00000000  1
  Fe  Fe5  1  0.91976500  0.08023500  0.50000000  1
  Fe  Fe6  1  0.08023500  0.91976500  0.50000000  1
  Si  Si0  1  0.62695700  0.79283300  0.27314200  1
  Si  Si1  1  0.37304300  0.20716700  0.72685800  1
  Si  Si2  1  0.20716700  0.37304300  0.72685800  1
  Si  Si3  1  0.79283300  0.62695700  0.27314200  1
  Si  Si4  1  0.46388100  0.13016500  0.22223900  1
  Si  Si5  1  0.53611900  0.86983500  0.77776100  1
  Si  Si6  1  0.86983500  0.53611900  0.77776100  1
  Si  Si7  1  0.13016500  0.46388100  0.22223900  1
  O  O0  1  0.46851400  0.23192600  0.44428200  1
  O  O1  1  0.53148600  0.76807400  0.55571800  1
  O  O2  1  0.76807400  0.53148600  0.55571800  1
  O  O3  1  0.23192600  0.46851400  0.44428200  1
  O  O4  1  0.65410900  0.65410900  0.27342500  1
  O  O5  1  0.34589100  0.34589100  0.72657500  1
  O  O6  1  0.90073300  0.90073300  0.72163000  1
  O  O7  1  0.09926700  0.09926700  0.27837000  1
  O  O8  1  0.51843900  0.78165800  0.06459900  1
  O  O9  1  0.48156100  0.21834200  0.93540100  1
  O  O10  1  0.21834200  0.48156100  0.93540100  1
  O  O11  1  0.78165800  0.51843900  0.06459900  1
  O  O12  1  0.62355200  0.13752300  0.23387700  1
  O  O13  1  0.37644800  0.86247700  0.76612300  1
  O  O14  1  0.86247700  0.37644800  0.76612300  1
  O  O15  1  0.13752300  0.62355200  0.23387700  1
  O  O16  1  0.79755000  0.96866100  0.20554500  1
  O  O17  1  0.20245000  0.03133900  0.79445500  1
  O  O18  1  0.03133900  0.20245000  0.79445500  1
  O  O19  1  0.96866100  0.79755000  0.20554500  1
  O  O20  1  0.29495600  0.95280700  0.29078000  1
  O  O21  1  0.70504400  0.04719300  0.70922000  1
  O  O22  1  0.04719300  0.70504400  0.70922000  1
  O  O23  1  0.95280700  0.29495600  0.29078000  1
loop_
_geom_bond_atom_site_label_1
_geom_bond_atom_site_label_2
_geom_bond_distance
_geom_bond_site_symmetry_2
Fe0 O14 2.031235 1_555
Fe0 O12 2.031235 1_555
Fe0 O23 2.167091 1_555
Fe0 O21 2.167091 1_555
Fe1 O13 2.031235 1_555
Fe1 O15 2.031235 1_555
Fe1 O20 2.167091 1_555
Fe1 O22 2.167091 1_555
Fe2 O12 2.092484 1_555
Fe2 O14 2.092484 1_554
Fe2 O21 2.177234 1_554
Fe2 O23 2.177234 1_555
Fe2 O16 2.217721 1_545
Fe2 O18 2.217721 1_654
Fe3 O15 2.092484 1_555
Fe3 O13 2.092484 1_554
Fe3 O22 2.177234 1_554
Fe3 O20 2.177234 1_555
Fe3 O19 2.217721 1_455
Fe3 O17 2.217721 1_564
Fe4 O6 1.950201 1_444
Fe4 O7 1.950201 1_555
Fe4 O16 2.111168 1_445
Fe4 O19 2.111168 1_445
Fe4 O18 2.111168 1_554
Fe4 O17 2.111168 1_554
Fe5 O6 2.009870 1_545
Fe5 O7 2.009870 1_655
Fe5 O18 2.143801 1_655
Fe5 O16 2.143801 1_545
Fe5 O21 2.221437 1_555
Fe5 O23 2.221437 1_555
Fe6 O6 2.009870 1_455
Fe6 O7 2.009870 1_565
Fe6 O17 2.143801 1_565
Fe6 O19 2.143801 1_455
Fe6 O22 2.221437 1_555
Fe6 O20 2.221437 1_555
O0 Si1 1.637260 1_555
O0 Si4 1.662793 1_555
O1 Si0 1.637260 1_555
O1 Si5 1.662793 1_555
O2 Si3 1.637260 1_555
O2 Si6 1.662793 1_555
O3 Si2 1.637260 1_555
O3 Si7 1.662793 1_555
O4 Si3 1.624583 1_555
O4 Si0 1.624583 1_555
O5 Si2 1.624583 1_555
O5 Si1 1.624583 1_555
O8 Si0 1.639367 1_555
O8 Si5 1.646935 1_554
O9 Si1 1.639367 1_555
O9 Si4 1.646935 1_556
O10 Si2 1.639367 1_555
O10 Si7 1.646935 1_556
O11 Si3 1.639367 1_555
O11 Si6 1.646935 1_554
O12 Si4 1.632342 1_555
O13 Si5 1.632342 1_555
O14 Si6 1.632342 1_555
O15 Si7 1.632342 1_555
O16 Si0 1.646526 1_555
O17 Si1 1.646526 1_555
O18 Si2 1.646526 1_555
O19 Si3 1.646526 1_555
O20 Si4 1.646986 1_565
O21 Si5 1.646986 1_545
O22 Si6 1.646986 1_455
O23 Si7 1.646986 1_655
