# generated using pymatgen
data_Sc4FeBr5
_symmetry_space_group_name_H-M   'P 1'
_cell_length_a   11.16893000
_cell_length_b   11.16893000
_cell_length_c   16.22913100
_cell_angle_alpha   90.00000000
_cell_angle_beta   90.00000000
_cell_angle_gamma   90.00000000
_symmetry_Int_Tables_number   1
_chemical_formula_structural   Sc4FeBr5
_chemical_formula_sum   'Sc32 Fe8 Br40'
_cell_volume   2024.50290351
_cell_formula_units_Z   8
loop_
 _symmetry_equiv_pos_site_id
 _symmetry_equiv_pos_as_xyz
  1  'x, y, z'
loop_
 _atom_site_type_symbol
 _atom_site_label
 _atom_site_symmetry_multiplicity
 _atom_site_fract_x
 _atom_site_fract_y
 _atom_site_fract_z
 _atom_site_occupancy
  Sc  Sc0  1  0.37266200  0.62733800  0.09032100  1
  Sc  Sc1  1  0.87266200  0.87266200  0.59032100  1
  Sc  Sc2  1  0.12733800  0.12733800  0.59032100  1
  Sc  Sc3  1  0.62733800  0.37266200  0.09032100  1
  Sc  Sc4  1  0.12733800  0.87266200  0.40967900  1
  Sc  Sc5  1  0.62733800  0.62733800  0.90967900  1
  Sc  Sc6  1  0.37266200  0.37266200  0.90967900  1
  Sc  Sc7  1  0.87266200  0.12733800  0.40967900  1
  Sc  Sc8  1  0.38572800  0.18294100  0.07484500  1
  Sc  Sc9  1  0.88572800  0.31705900  0.57484500  1
  Sc  Sc10  1  0.11427200  0.68294100  0.57484500  1
  Sc  Sc11  1  0.61427200  0.81705900  0.07484500  1
  Sc  Sc12  1  0.11427200  0.31705900  0.42515500  1
  Sc  Sc13  1  0.61427200  0.18294100  0.92515500  1
  Sc  Sc14  1  0.38572800  0.81705900  0.92515500  1
  Sc  Sc15  1  0.88572800  0.68294100  0.42515500  1
  Sc  Sc16  1  0.18294100  0.38572800  0.07484500  1
  Sc  Sc17  1  0.31705900  0.88572800  0.57484500  1
  Sc  Sc18  1  0.68294100  0.11427200  0.57484500  1
  Sc  Sc19  1  0.81705900  0.61427200  0.07484500  1
  Sc  Sc20  1  0.31705900  0.11427200  0.42515500  1
  Sc  Sc21  1  0.18294100  0.61427200  0.92515500  1
  Sc  Sc22  1  0.81705900  0.38572800  0.92515500  1
  Sc  Sc23  1  0.68294100  0.88572800  0.42515500  1
  Sc  Sc24  1  0.38775700  0.38775700  0.21987500  1
  Sc  Sc25  1  0.88775700  0.11224300  0.71987500  1
  Sc  Sc26  1  0.11224300  0.88775700  0.71987500  1
  Sc  Sc27  1  0.61224300  0.61224300  0.21987500  1
  Sc  Sc28  1  0.11224300  0.11224300  0.28012500  1
  Sc  Sc29  1  0.61224300  0.38775700  0.78012500  1
  Sc  Sc30  1  0.38775700  0.61224300  0.78012500  1
  Sc  Sc31  1  0.88775700  0.88775700  0.28012500  1
  Fe  Fe0  1  0.40062600  0.40062600  0.06791000  1
  Fe  Fe1  1  0.90062600  0.09937400  0.56791000  1
  Fe  Fe2  1  0.09937400  0.90062600  0.56791000  1
  Fe  Fe3  1  0.59937400  0.59937400  0.06791000  1
  Fe  Fe4  1  0.09937400  0.09937400  0.43209000  1
  Fe  Fe5  1  0.59937400  0.40062600  0.93209000  1
  Fe  Fe6  1  0.40062600  0.59937400  0.93209000  1
  Fe  Fe7  1  0.90062600  0.90062600  0.43209000  1
  Br  Br0  1  0.36747000  0.13253000  0.25000000  1
  Br  Br1  1  0.86747000  0.36747000  0.75000000  1
  Br  Br2  1  0.13253000  0.63253000  0.75000000  1
  Br  Br3  1  0.63253000  0.86747000  0.25000000  1
  Br  Br4  1  0.13253000  0.36747000  0.25000000  1
  Br  Br5  1  0.63253000  0.13253000  0.75000000  1
  Br  Br6  1  0.36747000  0.86747000  0.75000000  1
  Br  Br7  1  0.86747000  0.63253000  0.25000000  1
  Br  Br8  1  0.14396000  0.14396000  0.08627700  1
  Br  Br9  1  0.64396000  0.35604000  0.58627700  1
  Br  Br10  1  0.35604000  0.64396000  0.58627700  1
  Br  Br11  1  0.85604000  0.85604000  0.08627700  1
  Br  Br12  1  0.35604000  0.35604000  0.41372300  1
  Br  Br13  1  0.85604000  0.14396000  0.91372300  1
  Br  Br14  1  0.14396000  0.85604000  0.91372300  1
  Br  Br15  1  0.64396000  0.64396000  0.41372300  1
  Br  Br16  1  0.12469900  0.87530100  0.23502000  1
  Br  Br17  1  0.62469900  0.62469900  0.73502000  1
  Br  Br18  1  0.37530100  0.37530100  0.73502000  1
  Br  Br19  1  0.87530100  0.12469900  0.23502000  1
  Br  Br20  1  0.37530100  0.62469900  0.26498000  1
  Br  Br21  1  0.87530100  0.87530100  0.76498000  1
  Br  Br22  1  0.12469900  0.12469900  0.76498000  1
  Br  Br23  1  0.62469900  0.37530100  0.26498000  1
  Br  Br24  1  0.37796900  0.89136600  0.08733000  1
  Br  Br25  1  0.87796900  0.60863400  0.58733000  1
  Br  Br26  1  0.12203100  0.39136600  0.58733000  1
  Br  Br27  1  0.62203100  0.10863400  0.08733000  1
  Br  Br28  1  0.12203100  0.60863400  0.41267000  1
  Br  Br29  1  0.62203100  0.89136600  0.91267000  1
  Br  Br30  1  0.37796900  0.10863400  0.91267000  1
  Br  Br31  1  0.87796900  0.39136600  0.41267000  1
  Br  Br32  1  0.89136600  0.37796900  0.08733000  1
  Br  Br33  1  0.60863400  0.87796900  0.58733000  1
  Br  Br34  1  0.39136600  0.12203100  0.58733000  1
  Br  Br35  1  0.10863400  0.62203100  0.08733000  1
  Br  Br36  1  0.60863400  0.12203100  0.41267000  1
  Br  Br37  1  0.89136600  0.62203100  0.91267000  1
  Br  Br38  1  0.10863400  0.37796900  0.91267000  1
  Br  Br39  1  0.39136600  0.87796900  0.41267000  1
loop_
_geom_bond_atom_site_label_1
_geom_bond_atom_site_label_2
_geom_bond_distance
_geom_bond_site_symmetry_2
Fe0 Sc16 2.439593 1_555
Fe0 Sc8 2.439593 1_555
Fe0 Sc24 2.474622 1_555
Fe0 Sc0 2.577114 1_555
Fe0 Sc3 2.577114 1_555
Fe0 Sc6 2.605662 1_554
Fe1 Sc9 2.439593 1_555
Fe1 Sc18 2.439593 1_555
Fe1 Sc25 2.474622 1_555
Fe1 Sc2 2.577114 1_655
Fe1 Sc1 2.577114 1_545
Fe1 Sc7 2.605662 1_555
Fe2 Sc17 2.439593 1_555
Fe2 Sc10 2.439593 1_555
Fe2 Sc26 2.474622 1_555
Fe2 Sc2 2.577114 1_565
Fe2 Sc1 2.577114 1_455
Fe2 Sc4 2.605662 1_555
Fe3 Sc19 2.439593 1_555
Fe3 Sc11 2.439593 1_555
Fe3 Sc27 2.474622 1_555
Fe3 Sc0 2.577114 1_555
Fe3 Sc3 2.577114 1_555
Fe3 Sc5 2.605662 1_554
Fe4 Sc20 2.439593 1_555
Fe4 Sc12 2.439593 1_555
Fe4 Sc28 2.474622 1_555
Fe4 Sc4 2.577114 1_545
Fe4 Sc7 2.577114 1_455
Fe4 Sc2 2.605662 1_555
Fe5 Sc13 2.439593 1_555
Fe5 Sc22 2.439593 1_555
Fe5 Sc29 2.474622 1_555
Fe5 Sc5 2.577114 1_555
Fe5 Sc6 2.577114 1_555
Fe5 Sc3 2.605662 1_556
Fe6 Sc21 2.439593 1_555
Fe6 Sc14 2.439593 1_555
Fe6 Sc30 2.474622 1_555
Fe6 Sc5 2.577114 1_555
Fe6 Sc6 2.577114 1_555
Fe6 Sc0 2.605662 1_556
Fe7 Sc15 2.439593 1_555
Fe7 Sc23 2.439593 1_555
Fe7 Sc31 2.474622 1_555
Fe7 Sc7 2.577114 1_565
Fe7 Sc4 2.577114 1_655
Fe7 Sc1 2.605662 1_555
Br0 Sc24 2.901096 1_555
Br0 Sc28 2.901096 1_555
Br0 Sc20 2.905004 1_555
Br0 Sc8 2.905004 1_555
Br1 Sc29 2.901096 1_555
Br1 Sc25 2.901096 1_555
Br1 Sc9 2.905004 1_555
Br1 Sc22 2.905004 1_555
Br2 Sc26 2.901096 1_555
Br2 Sc30 2.901096 1_555
Br2 Sc10 2.905004 1_555
Br2 Sc21 2.905004 1_555
Br3 Sc31 2.901096 1_555
Br3 Sc27 2.901096 1_555
Br3 Sc23 2.905004 1_555
Br3 Sc11 2.905004 1_555
Br4 Sc24 2.901096 1_555
Br4 Sc28 2.901096 1_555
Br4 Sc12 2.905004 1_555
Br4 Sc16 2.905004 1_555
Br5 Sc25 2.901096 1_555
Br5 Sc29 2.901096 1_555
Br5 Sc18 2.905004 1_555
Br5 Sc13 2.905004 1_555
Br6 Sc30 2.901096 1_555
Br6 Sc26 2.901096 1_555
Br6 Sc17 2.905004 1_555
Br6 Sc14 2.905004 1_555
Br7 Sc31 2.901096 1_555
Br7 Sc27 2.901096 1_555
Br7 Sc15 2.905004 1_555
Br7 Sc19 2.905004 1_555
Br8 Sc8 2.741448 1_555
Br8 Sc16 2.741448 1_555
Br8 Sc28 3.185624 1_555
Br9 Sc9 2.741448 1_555
Br9 Sc18 2.741448 1_555
Br9 Sc29 3.185624 1_555
Br10 Sc17 2.741448 1_555
Br10 Sc10 2.741448 1_555
Br10 Sc30 3.185624 1_555
Br11 Sc19 2.741448 1_555
Br11 Sc11 2.741448 1_555
Br11 Sc31 3.185624 1_555
Br12 Sc20 2.741448 1_555
Br12 Sc12 2.741448 1_555
Br12 Sc24 3.185624 1_555
Br13 Sc13 2.741448 1_555
Br13 Sc22 2.741448 1_555
Br13 Sc25 3.185624 1_555
Br14 Sc21 2.741448 1_555
Br14 Sc14 2.741448 1_555
Br14 Sc26 3.185624 1_555
Br15 Sc15 2.741448 1_555
Br15 Sc23 2.741448 1_555
Br15 Sc27 3.185624 1_555
Br16 Sc31 2.749286 1_455
Br16 Sc28 2.749286 1_565
Br16 Sc4 2.834870 1_555
Br17 Sc30 2.749286 1_555
Br17 Sc29 2.749286 1_555
Br17 Sc5 2.834870 1_555
Br18 Sc29 2.749286 1_555
Br18 Sc30 2.749286 1_555
Br18 Sc6 2.834870 1_555
Br19 Sc31 2.749286 1_545
Br19 Sc28 2.749286 1_655
Br19 Sc7 2.834870 1_555
Br20 Sc27 2.749286 1_555
Br20 Sc24 2.749286 1_555
Br20 Sc0 2.834870 1_555
Br21 Sc26 2.749286 1_655
Br21 Sc25 2.749286 1_565
Br21 Sc1 2.834870 1_555
Br22 Sc25 2.749286 1_455
Br22 Sc26 2.749286 1_545
Br22 Sc2 2.834870 1_555
Br23 Sc27 2.749286 1_555
Br23 Sc24 2.749286 1_555
Br23 Sc3 2.834870 1_555
Br24 Sc14 2.761069 1_554
Br24 Sc11 2.774074 1_555
Br24 Sc0 2.949905 1_555
Br24 Sc8 3.264029 1_565
Br25 Sc15 2.761069 1_555
Br25 Sc10 2.774074 1_655
Br25 Sc1 2.949905 1_555
Br25 Sc9 3.264029 1_555
Br26 Sc12 2.761069 1_555
Br26 Sc9 2.774074 1_455
Br26 Sc2 2.949905 1_555
Br26 Sc10 3.264029 1_555
Br27 Sc13 2.761069 1_554
Br27 Sc8 2.774074 1_555
Br27 Sc3 2.949905 1_555
Br27 Sc11 3.264029 1_545
Br28 Sc10 2.761069 1_555
Br28 Sc15 2.774074 1_455
Br28 Sc4 2.949905 1_555
Br28 Sc12 3.264029 1_555
Br29 Sc11 2.761069 1_556
Br29 Sc14 2.774074 1_555
Br29 Sc5 2.949905 1_555
Br29 Sc13 3.264029 1_565
Br30 Sc8 2.761069 1_556
Br30 Sc13 2.774074 1_555
Br30 Sc6 2.949905 1_555
Br30 Sc14 3.264029 1_545
Br31 Sc9 2.761069 1_555
Br31 Sc12 2.774074 1_655
Br31 Sc7 2.949905 1_555
Br31 Sc15 3.264029 1_555
Br32 Sc22 2.761069 1_554
Br32 Sc19 2.774074 1_555
Br32 Sc3 2.949905 1_555
Br32 Sc16 3.264029 1_655
Br33 Sc23 2.761069 1_555
Br33 Sc18 2.774074 1_565
Br33 Sc1 2.949905 1_555
Br33 Sc17 3.264029 1_555
Br34 Sc20 2.761069 1_555
Br34 Sc17 2.774074 1_545
Br34 Sc2 2.949905 1_555
Br34 Sc18 3.264029 1_555
Br35 Sc21 2.761069 1_554
Br35 Sc16 2.774074 1_555
Br35 Sc0 2.949905 1_555
Br35 Sc19 3.264029 1_455
Br36 Sc18 2.761069 1_555
Br36 Sc23 2.774074 1_545
Br36 Sc7 2.949905 1_555
Br36 Sc20 3.264029 1_555
Br37 Sc19 2.761069 1_556
Br37 Sc22 2.774074 1_555
Br37 Sc5 2.949905 1_555
Br37 Sc21 3.264029 1_655
Br38 Sc16 2.761069 1_556
Br38 Sc21 2.774074 1_555
Br38 Sc6 2.949905 1_555
Br38 Sc22 3.264029 1_455
Br39 Sc17 2.761069 1_555
Br39 Sc20 2.774074 1_565
Br39 Sc4 2.949905 1_555
Br39 Sc23 3.264029 1_555
