# generated using pymatgen
data_LiCl
_symmetry_space_group_name_H-M   'P 1'
_cell_length_a   3.92488242
_cell_length_b   3.92488242
_cell_length_c   6.35716100
_cell_angle_alpha   90.00000000
_cell_angle_beta   90.00000000
_cell_angle_gamma   120.00000702
_symmetry_Int_Tables_number   1
_chemical_formula_structural   LiCl
_chemical_formula_sum   'Li2 Cl2'
_cell_volume   84.81000960
_cell_formula_units_Z   2
loop_
 _symmetry_equiv_pos_site_id
 _symmetry_equiv_pos_as_xyz
  1  'x, y, z'
loop_
 _atom_site_type_symbol
 _atom_site_label
 _atom_site_symmetry_multiplicity
 _atom_site_fract_x
 _atom_site_fract_y
 _atom_site_fract_z
 _atom_site_occupancy
  Li  Li0  1  0.00000000  0.00000000  0.37601700  1
  Li  Li1  1  0.33333200  0.66666400  0.87601700  1
  Cl  Cl0  1  0.00000000  0.00000000  0.99898400  1
  Cl  Cl1  1  0.33333200  0.66666400  0.49898300  1
loop_
_geom_bond_atom_site_label_1
_geom_bond_atom_site_label_2
_geom_bond_distance
_geom_bond_site_symmetry_2
Cl0 Li0 2.396859 1_556
Cl0 Li1 2.397070 1_555
Cl0 Li1 2.397083 1_445
Cl0 Li1 2.397084 1_545
Cl1 Li1 2.396866 1_555
Cl1 Li0 2.397068 1_555
Cl1 Li0 2.397081 1_665
Cl1 Li0 2.397081 1_565
