# generated using pymatgen
data_YbVO2
_symmetry_space_group_name_H-M   'P 1'
_cell_length_a   6.45282200
_cell_length_b   6.45282200
_cell_length_c   6.44933415
_cell_angle_alpha   120.01789140
_cell_angle_beta   120.01788114
_cell_angle_gamma   90.00000000
_symmetry_Int_Tables_number   1
_chemical_formula_structural   YbVO2
_chemical_formula_sum   'Yb4 V4 O8'
_cell_volume   189.78603757
_cell_formula_units_Z   4
loop_
 _symmetry_equiv_pos_site_id
 _symmetry_equiv_pos_as_xyz
  1  'x, y, z'
loop_
 _atom_site_type_symbol
 _atom_site_label
 _atom_site_symmetry_multiplicity
 _atom_site_fract_x
 _atom_site_fract_y
 _atom_site_fract_z
 _atom_site_occupancy
  Yb  Yb0  1  0.62500000  0.87500000  0.25000000  1
  Yb  Yb1  1  0.62500000  0.37500000  0.25000000  1
  Yb  Yb2  1  0.62500000  0.37500000  0.75000000  1
  Yb  Yb3  1  0.12500000  0.37500000  0.75000000  1
  V  V0  1  0.12500000  0.37500000  0.25000000  1
  V  V1  1  0.12500000  0.87500000  0.25000000  1
  V  V2  1  0.12500000  0.87500000  0.75000000  1
  V  V3  1  0.62500000  0.87500000  0.75000000  1
  O  O0  1  0.35956900  0.12072100  0.24015600  1
  O  O1  1  0.88058700  0.11943600  0.24015600  1
  O  O2  1  0.36943600  0.10956900  0.74015600  1
  O  O3  1  0.89043100  0.62927900  0.25984400  1
  O  O4  1  0.37072100  0.63058700  0.74015600  1
  O  O5  1  0.36941300  0.63056400  0.25984400  1
  O  O6  1  0.88056400  0.64043100  0.75984400  1
  O  O7  1  0.87927900  0.11941300  0.75984400  1
loop_
_geom_bond_atom_site_label_1
_geom_bond_atom_site_label_2
_geom_bond_distance
_geom_bond_site_symmetry_2
O0 V0 2.231438 1_555
O0 V2 2.235115 1_544
O0 V1 2.237429 1_545
O0 Yb2 2.324811 1_555
O0 Yb1 2.327423 1_555
O0 Yb0 2.333168 1_545
O1 V1 2.231442 1_645
O1 V3 2.235115 1_544
O1 V0 2.237424 1_655
O1 Yb3 2.324811 1_655
O1 Yb0 2.327427 1_545
O1 Yb1 2.333163 1_555
O2 V2 2.231442 1_545
O2 V1 2.235115 1_545
O2 V3 2.237424 1_545
O2 Yb1 2.324811 1_556
O2 Yb3 2.327427 1_555
O2 Yb2 2.333163 1_555
O3 V0 2.231438 1_655
O3 V2 2.235115 1_655
O3 V1 2.237429 1_655
O3 Yb2 2.324811 1_554
O3 Yb1 2.327423 1_555
O3 Yb0 2.333168 1_555
O4 V3 2.231438 1_555
O4 V0 2.235115 1_555
O4 V2 2.237429 1_555
O4 Yb0 2.324811 1_556
O4 Yb2 2.327423 1_555
O4 Yb3 2.333168 1_555
O5 V1 2.231442 1_555
O5 V3 2.235115 1_555
O5 V0 2.237424 1_555
O5 Yb3 2.324811 1_554
O5 Yb0 2.327427 1_555
O5 Yb1 2.333163 1_555
O6 V2 2.231442 1_655
O6 V1 2.235115 1_656
O6 V3 2.237424 1_555
O6 Yb1 2.324811 1_555
O6 Yb3 2.327427 1_655
O6 Yb2 2.333163 1_555
O7 V3 2.231438 1_545
O7 V0 2.235115 1_656
O7 V2 2.237429 1_645
O7 Yb0 2.324811 1_545
O7 Yb2 2.327423 1_555
O7 Yb3 2.333168 1_655
