# generated using pymatgen
data_Er(AlCu)6
_symmetry_space_group_name_H-M   'P 1'
_cell_length_a   4.97331248
_cell_length_b   6.56363065
_cell_length_c   6.56363065
_cell_angle_alpha   99.08310517
_cell_angle_beta   112.26270552
_cell_angle_gamma   67.73729448
_symmetry_Int_Tables_number   1
_chemical_formula_structural   Er(AlCu)6
_chemical_formula_sum   'Er1 Al6 Cu6'
_cell_volume   183.47850673
_cell_formula_units_Z   1
loop_
 _symmetry_equiv_pos_site_id
 _symmetry_equiv_pos_as_xyz
  1  'x, y, z'
loop_
 _atom_site_type_symbol
 _atom_site_label
 _atom_site_symmetry_multiplicity
 _atom_site_fract_x
 _atom_site_fract_y
 _atom_site_fract_z
 _atom_site_occupancy
  Er  Er0  1  0.00000000  -0.00000000  -0.00000000  1
  Al  Al0  1  0.65129646  0.34870354  0.65129646  1
  Al  Al1  1  0.34870354  0.65129646  0.34870354  1
  Al  Al2  1  0.00000000  0.34565281  0.34565281  1
  Al  Al3  1  -0.00000000  0.65434719  0.65434719  1
  Al  Al4  1  0.70107726  0.79892274  0.20107726  1
  Al  Al5  1  0.29892274  0.20107726  0.79892274  1
  Cu  Cu0  1  0.50000000  -0.00000000  0.50000000  1
  Cu  Cu1  1  0.00000000  -0.00000000  0.50000000  1
  Cu  Cu2  1  0.50000000  0.50000000  -0.00000000  1
  Cu  Cu3  1  0.00000000  0.50000000  -0.00000000  1
  Cu  Cu4  1  0.50000000  0.77085080  0.77085080  1
  Cu  Cu5  1  0.50000000  0.22914920  0.22914920  1
loop_
_geom_bond_atom_site_label_1
_geom_bond_atom_site_label_2
_geom_bond_distance
_geom_bond_site_symmetry_2
Al0 Cu3 2.609954 1_656
Al0 Cu1 2.609954 1_655
Al0 Cu2 2.609955 1_556
Al0 Cu0 2.609955 1_555
Al0 Al1 2.621071 1_555
Al0 Cu4 2.653401 1_555
Al0 Cu5 2.653401 1_555
Al0 Al5 2.796184 1_655
Al0 Al5 2.796184 1_555
Al0 Er0 3.020482 1_656
Al1 Cu3 2.609954 1_555
Al1 Cu1 2.609954 1_565
Al1 Cu0 2.609955 1_565
Al1 Cu2 2.609955 1_555
Al1 Cu4 2.653401 1_555
Al1 Cu5 2.653401 1_555
Al1 Al4 2.796184 1_455
Al1 Al4 2.796184 1_555
Al1 Er0 3.020482 1_565
Al2 Cu2 2.626629 1_455
Al2 Cu0 2.626629 1_555
Al2 Cu3 2.626629 1_555
Al2 Cu1 2.626629 1_555
Al2 Al3 2.629531 1_555
Al2 Cu5 2.677373 1_455
Al2 Cu5 2.677373 1_555
Al2 Al5 2.903959 1_555
Al2 Al4 2.903959 1_455
Al2 Er0 2.944351 1_555
Al3 Cu2 2.626629 1_556
Al3 Cu0 2.626629 1_465
Al3 Cu3 2.626629 1_556
Al3 Cu1 2.626629 1_565
Al3 Cu4 2.677373 1_455
Al3 Cu4 2.677373 1_555
Al3 Al4 2.903959 1_455
Al3 Al5 2.903959 1_555
Al3 Er0 2.944351 1_566
Al4 Cu1 2.502092 1_665
Al4 Cu3 2.502092 1_655
Al4 Cu0 2.502092 1_565
Al4 Cu2 2.502092 1_555
Al4 Cu5 2.616055 1_565
Al4 Cu4 2.616055 1_554
Al4 Er0 3.035969 1_565
Al4 Er0 3.035970 1_665
Al5 Cu1 2.502092 1_555
Al5 Cu3 2.502092 1_556
Al5 Cu2 2.502092 1_556
Al5 Cu0 2.502092 1_555
Al5 Cu5 2.616055 1_556
Al5 Cu4 2.616055 1_545
Al5 Er0 3.035969 1_656
Al5 Er0 3.035970 1_556
Cu0 Cu1 2.486656 1_655
Cu0 Cu1 2.486656 1_555
Cu0 Cu5 2.503366 1_555
Cu0 Cu4 2.503366 1_545
Cu0 Er0 3.281815 1_555
Cu0 Er0 3.281815 1_656
Cu1 Cu4 2.503365 1_545
Cu1 Cu5 2.503365 1_455
Cu1 Er0 3.281815 1_556
Cu1 Er0 3.281815 1_555
Cu2 Cu3 2.486656 1_655
Cu2 Cu3 2.486656 1_555
Cu2 Cu5 2.503366 1_555
Cu2 Cu4 2.503366 1_554
Cu2 Er0 3.281815 1_565
Cu2 Er0 3.281815 1_655
Cu3 Cu4 2.503365 1_454
Cu3 Cu5 2.503365 1_555
Cu3 Er0 3.281815 1_555
Cu3 Er0 3.281815 1_565
Cu4 Er0 3.161258 1_566
Cu4 Er0 3.161258 1_666
Cu5 Er0 3.161258 1_655
Cu5 Er0 3.161258 1_555
