# generated using pymatgen
data_Mg30CuSiO32
_symmetry_space_group_name_H-M   'P 1'
_cell_length_a   8.53294247
_cell_length_b   8.54383136
_cell_length_c   8.54383136
_cell_angle_alpha   90.00000000
_cell_angle_beta   90.00000000
_cell_angle_gamma   90.00000000
_symmetry_Int_Tables_number   1
_chemical_formula_structural   Mg30CuSiO32
_chemical_formula_sum   'Mg30 Cu1 Si1 O32'
_cell_volume   622.87966489
_cell_formula_units_Z   1
loop_
 _symmetry_equiv_pos_site_id
 _symmetry_equiv_pos_as_xyz
  1  'x, y, z'
loop_
 _atom_site_type_symbol
 _atom_site_label
 _atom_site_symmetry_multiplicity
 _atom_site_fract_x
 _atom_site_fract_y
 _atom_site_fract_z
 _atom_site_occupancy
  Mg  Mg0  1  0.00000000  0.00000000  0.50000000  1
  Mg  Mg1  1  0.00000000  0.50000000  0.00000000  1
  Mg  Mg2  1  0.50000000  0.00000000  0.00000000  1
  Mg  Mg3  1  0.50000000  0.00000000  0.50000000  1
  Mg  Mg4  1  0.50000000  0.50000000  0.00000000  1
  Mg  Mg5  1  0.50000000  0.50000000  0.50000000  1
  Mg  Mg6  1  0.00000000  0.24485101  0.24485101  1
  Mg  Mg7  1  0.00000000  0.24485101  0.75514899  1
  Mg  Mg8  1  0.00000000  0.75514899  0.24485101  1
  Mg  Mg9  1  0.00000000  0.75514899  0.75514899  1
  Mg  Mg10  1  0.50000000  0.24831091  0.24831091  1
  Mg  Mg11  1  0.50000000  0.24831091  0.75168909  1
  Mg  Mg12  1  0.50000000  0.75168909  0.24831091  1
  Mg  Mg13  1  0.50000000  0.75168909  0.75168909  1
  Mg  Mg14  1  0.24820498  0.00000000  0.24657822  1
  Mg  Mg15  1  0.24820498  0.00000000  0.75342178  1
  Mg  Mg16  1  0.25125586  0.50000000  0.24777069  1
  Mg  Mg17  1  0.25125586  0.50000000  0.75222931  1
  Mg  Mg18  1  0.75179502  0.00000000  0.24657822  1
  Mg  Mg19  1  0.75179502  -0.00000000  0.75342178  1
  Mg  Mg20  1  0.74874414  0.50000000  0.24777069  1
  Mg  Mg21  1  0.74874414  0.50000000  0.75222931  1
  Mg  Mg22  1  0.24820498  0.24657822  -0.00000000  1
  Mg  Mg23  1  0.25125586  0.24777069  0.50000000  1
  Mg  Mg24  1  0.24820498  0.75342178  0.00000000  1
  Mg  Mg25  1  0.25125586  0.75222931  0.50000000  1
  Mg  Mg26  1  0.75179502  0.24657822  -0.00000000  1
  Mg  Mg27  1  0.74874414  0.24777069  0.50000000  1
  Mg  Mg28  1  0.75179502  0.75342178  0.00000000  1
  Mg  Mg29  1  0.74874414  0.75222931  0.50000000  1
  Cu  Cu0  1  0.00000000  0.00000000  0.00000000  1
  Si  Si0  1  0.00000000  0.50000000  0.50000000  1
  O  O0  1  0.26280957  0.00000000  0.00000000  1
  O  O1  1  0.24900607  0.00000000  0.50000000  1
  O  O2  1  0.24900607  0.50000000  -0.00000000  1
  O  O3  1  0.22480419  0.50000000  0.50000000  1
  O  O4  1  0.73719043  0.00000000  -0.00000000  1
  O  O5  1  0.75099393  0.00000000  0.50000000  1
  O  O6  1  0.75099393  0.50000000  0.00000000  1
  O  O7  1  0.77519581  0.50000000  0.50000000  1
  O  O8  1  0.24896346  0.25117288  0.25117288  1
  O  O9  1  0.24896346  0.25117288  0.74882712  1
  O  O10  1  0.24896346  0.74882712  0.25117288  1
  O  O11  1  0.24896346  0.74882712  0.74882712  1
  O  O12  1  0.75103654  0.25117288  0.25117288  1
  O  O13  1  0.75103654  0.25117288  0.74882712  1
  O  O14  1  0.75103654  0.74882712  0.25117288  1
  O  O15  1  0.75103654  0.74882712  0.74882712  1
  O  O16  1  0.00000000  0.00000000  0.26877646  1
  O  O17  1  0.00000000  0.00000000  0.73122354  1
  O  O18  1  0.00000000  0.50000000  0.28148449  1
  O  O19  1  0.00000000  0.50000000  0.71851551  1
  O  O20  1  0.50000000  0.00000000  0.25333917  1
  O  O21  1  0.50000000  -0.00000000  0.74666083  1
  O  O22  1  0.50000000  0.50000000  0.25469164  1
  O  O23  1  0.50000000  0.50000000  0.74530836  1
  O  O24  1  0.00000000  0.26877646  -0.00000000  1
  O  O25  1  0.00000000  0.28148449  0.50000000  1
  O  O26  1  0.00000000  0.73122354  0.00000000  1
  O  O27  1  0.00000000  0.71851551  0.50000000  1
  O  O28  1  0.50000000  0.25333917  0.00000000  1
  O  O29  1  0.50000000  0.25469164  0.50000000  1
  O  O30  1  0.50000000  0.74666083  -0.00000000  1
  O  O31  1  0.50000000  0.74530836  0.50000000  1
loop_
_geom_bond_atom_site_label_1
_geom_bond_atom_site_label_2
_geom_bond_distance
_geom_bond_site_symmetry_2
Mg0 O16 1.975535 1_555
Mg0 O17 1.975535 1_555
Mg0 O5 2.124754 1_455
Mg0 O1 2.124754 1_555
Mg0 O27 2.404956 1_545
Mg0 O25 2.404956 1_555
Mg1 O24 1.975535 1_555
Mg1 O26 1.975535 1_555
Mg1 O2 2.124754 1_555
Mg1 O6 2.124754 1_455
Mg1 O19 2.404956 1_554
Mg1 O18 2.404956 1_555
Mg2 O4 2.023932 1_555
Mg2 O0 2.023932 1_555
Mg2 O21 2.164487 1_554
Mg2 O30 2.164487 1_545
Mg2 O28 2.164487 1_555
Mg2 O20 2.164487 1_555
Mg3 O20 2.107429 1_555
Mg3 O21 2.107429 1_555
Mg3 O1 2.141717 1_555
Mg3 O5 2.141717 1_555
Mg3 O29 2.176042 1_555
Mg3 O31 2.176042 1_545
Mg4 O28 2.107429 1_555
Mg4 O30 2.107429 1_555
Mg4 O2 2.141717 1_555
Mg4 O6 2.141717 1_555
Mg4 O23 2.176042 1_554
Mg4 O22 2.176042 1_555
Mg5 O22 2.095873 1_555
Mg5 O23 2.095873 1_555
Mg5 O29 2.095873 1_555
Mg5 O31 2.095873 1_555
Mg5 O3 2.348230 1_555
Mg5 O7 2.348230 1_555
Mg6 O24 2.101929 1_555
Mg6 O16 2.101929 1_555
Mg6 O12 2.125764 1_455
Mg6 O8 2.125764 1_555
Mg6 O25 2.202304 1_555
Mg6 O18 2.202304 1_555
Mg7 O24 2.101929 1_556
Mg7 O17 2.101929 1_555
Mg7 O9 2.125764 1_555
Mg7 O13 2.125764 1_455
Mg7 O25 2.202304 1_555
Mg7 O19 2.202304 1_555
Mg8 O16 2.101929 1_565
Mg8 O26 2.101929 1_555
Mg8 O14 2.125764 1_455
Mg8 O10 2.125764 1_555
Mg8 O27 2.202304 1_555
Mg8 O18 2.202304 1_555
Mg9 O26 2.101929 1_556
Mg9 O17 2.101929 1_565
Mg9 O11 2.125764 1_555
Mg9 O15 2.125764 1_455
Mg9 O27 2.202304 1_555
Mg9 O19 2.202304 1_555
Mg10 O20 2.121961 1_555
Mg10 O28 2.121961 1_555
Mg10 O12 2.142359 1_555
Mg10 O8 2.142359 1_555
Mg10 O22 2.151080 1_555
Mg10 O29 2.151080 1_555
Mg11 O21 2.121961 1_555
Mg11 O28 2.121961 1_556
Mg11 O13 2.142359 1_555
Mg11 O9 2.142359 1_555
Mg11 O23 2.151080 1_555
Mg11 O29 2.151080 1_555
Mg12 O30 2.121961 1_555
Mg12 O20 2.121961 1_565
Mg12 O14 2.142359 1_555
Mg12 O10 2.142359 1_555
Mg12 O22 2.151080 1_555
Mg12 O31 2.151080 1_555
Mg13 O30 2.121961 1_556
Mg13 O21 2.121961 1_565
Mg13 O11 2.142359 1_555
Mg13 O15 2.142359 1_555
Mg13 O23 2.151080 1_555
Mg13 O31 2.151080 1_555
Mg14 O0 2.110405 1_555
Mg14 O16 2.126394 1_555
Mg14 O8 2.146348 1_555
Mg14 O10 2.146348 1_545
Mg14 O20 2.149329 1_555
Mg14 O1 2.165204 1_555
Mg15 O0 2.110405 1_556
Mg15 O17 2.126394 1_555
Mg15 O9 2.146348 1_555
Mg15 O11 2.146348 1_545
Mg15 O21 2.149329 1_555
Mg15 O1 2.165204 1_555
Mg16 O2 2.116998 1_555
Mg16 O22 2.123343 1_555
Mg16 O10 2.126226 1_555
Mg16 O8 2.126226 1_555
Mg16 O18 2.163215 1_555
Mg16 O3 2.166793 1_555
Mg17 O2 2.116998 1_556
Mg17 O23 2.123343 1_555
Mg17 O11 2.126226 1_555
Mg17 O9 2.126226 1_555
Mg17 O19 2.163215 1_555
Mg17 O3 2.166793 1_555
Mg18 O4 2.110405 1_555
Mg18 O16 2.126394 1_655
Mg18 O12 2.146348 1_555
Mg18 O14 2.146348 1_545
Mg18 O20 2.149329 1_555
Mg18 O5 2.165204 1_555
Mg19 O4 2.110405 1_556
Mg19 O17 2.126394 1_655
Mg19 O13 2.146348 1_555
Mg19 O15 2.146348 1_545
Mg19 O21 2.149329 1_555
Mg19 O5 2.165204 1_555
Mg20 O6 2.116998 1_555
Mg20 O22 2.123343 1_555
Mg20 O14 2.126226 1_555
Mg20 O12 2.126226 1_555
Mg20 O18 2.163215 1_655
Mg20 O7 2.166793 1_555
Mg21 O6 2.116998 1_556
Mg21 O23 2.123343 1_555
Mg21 O15 2.126226 1_555
Mg21 O13 2.126226 1_555
Mg21 O19 2.163215 1_655
Mg21 O7 2.166793 1_555
Mg22 O0 2.110405 1_555
Mg22 O24 2.126394 1_555
Mg22 O8 2.146348 1_555
Mg22 O9 2.146348 1_554
Mg22 O28 2.149329 1_555
Mg22 O2 2.165204 1_555
Mg23 O1 2.116998 1_555
Mg23 O29 2.123343 1_555
Mg23 O9 2.126226 1_555
Mg23 O8 2.126226 1_555
Mg23 O25 2.163215 1_555
Mg23 O3 2.166793 1_555
Mg24 O0 2.110405 1_565
Mg24 O26 2.126394 1_555
Mg24 O10 2.146348 1_555
Mg24 O11 2.146348 1_554
Mg24 O30 2.149329 1_555
Mg24 O2 2.165204 1_555
Mg25 O1 2.116998 1_565
Mg25 O31 2.123343 1_555
Mg25 O11 2.126226 1_555
Mg25 O10 2.126226 1_555
Mg25 O27 2.163215 1_555
Mg25 O3 2.166793 1_555
Mg26 O4 2.110405 1_555
Mg26 O24 2.126394 1_655
Mg26 O12 2.146348 1_555
Mg26 O13 2.146348 1_554
Mg26 O28 2.149329 1_555
Mg26 O6 2.165204 1_555
Mg27 O5 2.116998 1_555
Mg27 O29 2.123343 1_555
Mg27 O13 2.126226 1_555
Mg27 O12 2.126226 1_555
Mg27 O25 2.163215 1_655
Mg27 O7 2.166793 1_555
Mg28 O4 2.110405 1_565
Mg28 O26 2.126394 1_655
Mg28 O14 2.146348 1_555
Mg28 O15 2.146348 1_554
Mg28 O30 2.149329 1_555
Mg28 O6 2.165204 1_555
Mg29 O5 2.116998 1_565
Mg29 O31 2.123343 1_555
Mg29 O15 2.126226 1_555
Mg29 O14 2.126226 1_555
Mg29 O27 2.163215 1_655
Mg29 O7 2.166793 1_555
Cu0 O0 2.242539 1_555
Cu0 O4 2.242539 1_455
Cu0 O17 2.296381 1_554
Cu0 O26 2.296381 1_545
Cu0 O24 2.296381 1_555
Cu0 O16 2.296381 1_555
O3 Si0 1.918241 1_555
O7 Si0 1.918241 1_655
O18 Si0 1.866960 1_555
O19 Si0 1.866960 1_555
O25 Si0 1.866960 1_555
O27 Si0 1.866960 1_555
