# generated using pymatgen
data_BaNi2(AsO4)2
_symmetry_space_group_name_H-M   'P 1'
_cell_length_a   5.02479826
_cell_length_b   8.55675410
_cell_length_c   8.70320597
_cell_angle_alpha   109.81830349
_cell_angle_beta   89.99999698
_cell_angle_gamma   90.00000013
_symmetry_Int_Tables_number   1
_chemical_formula_structural   BaNi2(AsO4)2
_chemical_formula_sum   'Ba2 Ni4 As4 O16'
_cell_volume   352.03963451
_cell_formula_units_Z   2
loop_
 _symmetry_equiv_pos_site_id
 _symmetry_equiv_pos_as_xyz
  1  'x, y, z'
loop_
 _atom_site_type_symbol
 _atom_site_label
 _atom_site_symmetry_multiplicity
 _atom_site_fract_x
 _atom_site_fract_y
 _atom_site_fract_z
 _atom_site_occupancy
  Ba  Ba0  1  0.50000000  0.00000000  0.50000000  1
  Ba  Ba1  1  0.00000000  0.00000000  0.00000000  1
  Ni  Ni0  1  0.50000000  0.49352800  0.33117600  1
  Ni  Ni1  1  0.00000000  0.50647200  0.16882400  1
  Ni  Ni2  1  0.00000000  0.49352800  0.83117600  1
  Ni  Ni3  1  0.50000000  0.50647200  0.66882400  1
  As  As0  1  0.50000000  0.71689600  0.07229900  1
  As  As1  1  0.00000000  0.71689600  0.57229900  1
  As  As2  1  0.50000000  0.28310400  0.92770100  1
  As  As3  1  0.00000000  0.28310400  0.42770100  1
  O  O0  1  0.50000000  0.07266000  0.85755300  1
  O  O1  1  0.00000000  0.07266000  0.35755300  1
  O  O2  1  0.50000000  0.92734000  0.14244700  1
  O  O3  1  0.00000000  0.92734000  0.64244700  1
  O  O4  1  0.67215800  0.65142400  0.88745100  1
  O  O5  1  0.17215800  0.65142400  0.38745100  1
  O  O6  1  0.65845600  0.65142400  0.21806600  1
  O  O7  1  0.15845600  0.65142400  0.71806600  1
  O  O8  1  0.16938500  0.65142400  0.04590700  1
  O  O9  1  0.66938500  0.65142400  0.54590700  1
  O  O10  1  0.32784200  0.34857600  0.11254900  1
  O  O11  1  0.82784200  0.34857600  0.61254900  1
  O  O12  1  0.34154400  0.34857600  0.78193400  1
  O  O13  1  0.84154400  0.34857600  0.28193400  1
  O  O14  1  0.83061500  0.34857600  0.95409300  1
  O  O15  1  0.33061500  0.34857600  0.45409300  1
loop_
_geom_bond_atom_site_label_1
_geom_bond_atom_site_label_2
_geom_bond_distance
_geom_bond_site_symmetry_2
Ba0 O0 2.959443 1_555
Ba0 O2 2.959443 1_545
Ba0 O3 2.959447 1_545
Ba0 O1 2.959447 1_655
Ba0 O3 2.959447 1_645
Ba0 O1 2.959447 1_555
Ba0 O6 3.253994 1_545
Ba0 O12 3.253994 1_555
Ba0 O9 3.253994 1_545
Ba0 O15 3.253994 1_555
Ba0 O11 3.253997 1_555
Ba0 O5 3.253997 1_545
Ba1 O1 2.959443 1_555
Ba1 O3 2.959443 1_544
Ba1 O0 2.959447 1_554
Ba1 O2 2.959447 1_445
Ba1 O0 2.959447 1_454
Ba1 O2 2.959447 1_545
Ba1 O13 3.253994 1_455
Ba1 O7 3.253994 1_544
Ba1 O14 3.253994 1_454
Ba1 O8 3.253994 1_545
Ba1 O10 3.253997 1_555
Ba1 O4 3.253997 1_444
Ni0 O10 2.075312 1_555
Ni0 O13 2.075314 1_555
Ni0 O15 2.075314 1_555
Ni0 O6 2.080938 1_555
Ni0 O9 2.080938 1_555
Ni0 O5 2.080942 1_555
Ni1 O5 2.075312 1_555
Ni1 O6 2.075314 1_455
Ni1 O8 2.075314 1_555
Ni1 O13 2.080938 1_455
Ni1 O14 2.080938 1_454
Ni1 O10 2.080942 1_555
Ni2 O11 2.075312 1_455
Ni2 O12 2.075314 1_555
Ni2 O14 2.075314 1_455
Ni2 O7 2.080938 1_555
Ni2 O8 2.080938 1_556
Ni2 O4 2.080942 1_455
Ni3 O4 2.075312 1_555
Ni3 O7 2.075314 1_555
Ni3 O9 2.075314 1_555
Ni3 O12 2.080938 1_555
Ni3 O15 2.080938 1_555
Ni3 O11 2.080942 1_555
As0 O2 1.694066 1_555
As0 O6 1.743325 1_555
As0 O4 1.743327 1_554
As0 O8 1.743327 1_555
As1 O3 1.694066 1_555
As1 O7 1.743325 1_555
As1 O5 1.743327 1_555
As1 O9 1.743327 1_455
As2 O0 1.694066 1_555
As2 O12 1.743325 1_555
As2 O10 1.743327 1_556
As2 O14 1.743327 1_555
As3 O1 1.694066 1_555
As3 O13 1.743325 1_455
As3 O11 1.743327 1_455
As3 O15 1.743327 1_555
