# generated using pymatgen
data_Mg3Al8Fe(Si5O18)2
_symmetry_space_group_name_H-M   'P 1'
_cell_length_a   9.96781876
_cell_length_b   9.96781876
_cell_length_c   9.43981029
_cell_angle_alpha   89.98520001
_cell_angle_beta   89.98520001
_cell_angle_gamma   120.76593826
_symmetry_Int_Tables_number   1
_chemical_formula_structural   Mg3Al8Fe(Si5O18)2
_chemical_formula_sum   'Mg3 Al8 Fe1 Si10 O36'
_cell_volume   805.91671903
_cell_formula_units_Z   1
loop_
 _symmetry_equiv_pos_site_id
 _symmetry_equiv_pos_as_xyz
  1  'x, y, z'
loop_
 _atom_site_type_symbol
 _atom_site_label
 _atom_site_symmetry_multiplicity
 _atom_site_fract_x
 _atom_site_fract_y
 _atom_site_fract_z
 _atom_site_occupancy
  Mg  Mg0  1  0.33748000  0.66252000  0.00000000  1
  Mg  Mg1  1  0.66251000  0.33749000  0.00000000  1
  Mg  Mg2  1  0.66253900  0.33746100  0.50000000  1
  Al  Al0  1  0.74237400  0.64213500  0.24987800  1
  Al  Al1  1  0.25734100  0.35741300  0.24948100  1
  Al  Al2  1  0.64258700  0.74265900  0.75051900  1
  Al  Al3  1  0.35786500  0.25762600  0.75012200  1
  Al  Al4  1  0.99996300  0.50006900  0.00002300  1
  Al  Al5  1  0.49993100  0.00003700  0.99997700  1
  Al  Al6  1  0.99915200  0.49984000  0.49986800  1
  Al  Al7  1  0.50016000  0.00084800  0.50013200  1
  Fe  Fe0  1  0.33824500  0.66175500  0.50000000  1
  Si  Si0  1  0.50003600  0.49996400  0.00000000  1
  Si  Si1  1  0.50064300  0.49935700  0.50000000  1
  Si  Si2  1  0.37160000  0.10119000  0.24997700  1
  Si  Si3  1  0.62881500  0.89898500  0.24946900  1
  Si  Si4  1  0.10101500  0.37118500  0.75053100  1
  Si  Si5  1  0.89881000  0.62840000  0.75002300  1
  Si  Si6  1  0.11250000  0.72961100  0.24947100  1
  Si  Si7  1  0.88715000  0.27064900  0.25002000  1
  Si  Si8  1  0.72935100  0.11285000  0.74998000  1
  Si  Si9  1  0.27038900  0.88750000  0.75052900  1
  O  O0  1  0.93629700  0.69333300  0.24956500  1
  O  O1  1  0.06340800  0.30675700  0.25001400  1
  O  O2  1  0.69324300  0.93659200  0.74998600  1
  O  O3  1  0.30666700  0.06370300  0.75043500  1
  O  O4  1  0.34972800  0.85650000  0.89173600  1
  O  O5  1  0.65024100  0.14345300  0.89159200  1
  O  O6  1  0.85654700  0.34975900  0.10840800  1
  O  O7  1  0.14350000  0.65027200  0.10826400  1
  O  O8  1  0.65047600  0.14369400  0.60844000  1
  O  O9  1  0.34994600  0.85959900  0.60850700  1
  O  O10  1  0.14040100  0.65005400  0.39149300  1
  O  O11  1  0.85630600  0.34952400  0.39156000  1
  O  O12  1  0.24243200  0.91447200  0.24992600  1
  O  O13  1  0.75776900  0.08562800  0.24991700  1
  O  O14  1  0.91437200  0.24223100  0.75008300  1
  O  O15  1  0.08552800  0.75756800  0.75007400  1
  O  O16  1  0.13577900  0.48283200  0.89198200  1
  O  O17  1  0.86419100  0.51708800  0.89196600  1
  O  O18  1  0.48291200  0.13580900  0.10803400  1
  O  O19  1  0.51716800  0.86422100  0.10801800  1
  O  O20  1  0.86396600  0.51705900  0.60823500  1
  O  O21  1  0.13383700  0.48118900  0.60796000  1
  O  O22  1  0.51881100  0.86616300  0.39204000  1
  O  O23  1  0.48294100  0.13603400  0.39176500  1
  O  O24  1  0.29300500  0.20527200  0.24989200  1
  O  O25  1  0.70687900  0.79449300  0.25004000  1
  O  O26  1  0.20550700  0.29312100  0.74996000  1
  O  O27  1  0.79472800  0.70699500  0.75010800  1
  O  O28  1  0.47814300  0.35374900  0.90120600  1
  O  O29  1  0.52185800  0.64630900  0.90126900  1
  O  O30  1  0.35369100  0.47814200  0.09873100  1
  O  O31  1  0.64625100  0.52185700  0.09879400  1
  O  O32  1  0.52442100  0.64584500  0.59905400  1
  O  O33  1  0.47822000  0.35335000  0.59901500  1
  O  O34  1  0.64665000  0.52178000  0.40098500  1
  O  O35  1  0.35415500  0.47557900  0.40094600  1
loop_
_geom_bond_atom_site_label_1
_geom_bond_atom_site_label_2
_geom_bond_distance
_geom_bond_site_symmetry_2
Mg0 O7 2.134345 1_555
Mg0 O4 2.134345 1_554
Mg0 O30 2.139027 1_555
Mg0 O29 2.139027 1_554
Mg0 O19 2.146591 1_555
Mg0 O16 2.146591 1_554
Mg1 O6 2.135917 1_555
Mg1 O5 2.135917 1_554
Mg1 O31 2.139811 1_555
Mg1 O28 2.139811 1_554
Mg1 O17 2.145310 1_554
Mg1 O18 2.145310 1_555
Mg2 O11 2.134029 1_555
Mg2 O8 2.134029 1_555
Mg2 O33 2.138017 1_555
Mg2 O34 2.138017 1_555
Mg2 O23 2.145856 1_555
Mg2 O20 2.145856 1_555
Al0 O25 1.726637 1_555
Al0 O0 1.728489 1_555
Al0 O34 1.792108 1_555
Al0 O31 1.793277 1_555
Al1 O24 1.725614 1_555
Al1 O1 1.730092 1_555
Al1 O35 1.789317 1_555
Al1 O30 1.792102 1_555
Al2 O27 1.725614 1_555
Al2 O2 1.730092 1_555
Al2 O32 1.789317 1_555
Al2 O29 1.792102 1_555
Al3 O26 1.726637 1_555
Al3 O3 1.728489 1_555
Al3 O33 1.792108 1_555
Al3 O28 1.793277 1_555
Al4 O17 1.770965 1_554
Al4 O16 1.771942 1_654
Al4 O6 1.772685 1_555
Al4 O7 1.772764 1_655
Al5 O18 1.770965 1_556
Al5 O19 1.771942 1_546
Al5 O5 1.772685 1_555
Al5 O4 1.772764 1_545
Al6 O10 1.764245 1_655
Al6 O20 1.768528 1_555
Al6 O21 1.770315 1_655
Al6 O11 1.771046 1_555
Al7 O9 1.764245 1_545
Al7 O23 1.768528 1_555
Al7 O22 1.770315 1_545
Al7 O8 1.771046 1_555
Fe0 O32 2.155286 1_555
Fe0 O35 2.155286 1_555
Fe0 O21 2.162333 1_555
Fe0 O22 2.162333 1_555
Fe0 O9 2.172010 1_555
Fe0 O10 2.172010 1_555
O0 Si6 1.601809 1_655
O1 Si7 1.602916 1_455
O2 Si8 1.602916 1_565
O3 Si9 1.601809 1_545
O4 Si9 1.657723 1_555
O5 Si8 1.657600 1_555
O6 Si7 1.657600 1_555
O7 Si6 1.657723 1_555
O8 Si8 1.656946 1_555
O9 Si9 1.651925 1_555
O10 Si6 1.651925 1_555
O11 Si7 1.656946 1_555
O12 Si6 1.622117 1_555
O12 Si2 1.634046 1_565
O13 Si7 1.622090 1_555
O13 Si3 1.633066 1_545
O14 Si8 1.622090 1_555
O14 Si4 1.633066 1_655
O15 Si9 1.622117 1_555
O15 Si5 1.634046 1_455
O16 Si4 1.657708 1_555
O17 Si5 1.659160 1_555
O18 Si2 1.659160 1_555
O19 Si3 1.657708 1_555
O20 Si5 1.658449 1_555
O21 Si4 1.659109 1_555
O22 Si3 1.659109 1_555
O23 Si2 1.658449 1_555
O24 Si2 1.587960 1_555
O25 Si3 1.587297 1_555
O26 Si4 1.587297 1_555
O27 Si5 1.587960 1_555
O28 Si0 1.648309 1_556
O29 Si0 1.648769 1_556
O30 Si0 1.648769 1_555
O31 Si0 1.648309 1_555
O32 Si1 1.646007 1_555
O33 Si1 1.645628 1_555
O34 Si1 1.645628 1_555
O35 Si1 1.646007 1_555
