# generated using pymatgen
data_Ba2AlSn3O8
_symmetry_space_group_name_H-M   'P 1'
_cell_length_a   4.26064300
_cell_length_b   4.26064300
_cell_length_c   11.25980000
_cell_angle_alpha   90.00000000
_cell_angle_beta   90.00000000
_cell_angle_gamma   90.00000000
_symmetry_Int_Tables_number   1
_chemical_formula_structural   Ba2AlSn3O8
_chemical_formula_sum   'Ba2 Al1 Sn3 O8'
_cell_volume   204.40003637
_cell_formula_units_Z   1
loop_
 _symmetry_equiv_pos_site_id
 _symmetry_equiv_pos_as_xyz
  1  'x, y, z'
loop_
 _atom_site_type_symbol
 _atom_site_label
 _atom_site_symmetry_multiplicity
 _atom_site_fract_x
 _atom_site_fract_y
 _atom_site_fract_z
 _atom_site_occupancy
  Ba  Ba0  1  0.50000000  0.50000000  0.18058700  1
  Ba  Ba1  1  0.50000000  0.50000000  0.81941300  1
  Al  Al0  1  0.50000000  0.50000000  0.50000000  1
  Sn  Sn0  1  0.00000000  0.00000000  0.37416100  1
  Sn  Sn1  1  0.00000000  0.00000000  0.00000000  1
  Sn  Sn2  1  0.00000000  0.00000000  0.62583900  1
  O  O0  1  0.00000000  0.50000000  0.37284700  1
  O  O1  1  0.50000000  0.00000000  0.37284700  1
  O  O2  1  0.50000000  0.00000000  0.00000000  1
  O  O3  1  0.00000000  0.00000000  0.18649600  1
  O  O4  1  0.00000000  0.50000000  0.62715300  1
  O  O5  1  0.50000000  0.00000000  0.62715300  1
  O  O6  1  0.00000000  0.00000000  0.81350400  1
  O  O7  1  0.00000000  0.50000000  0.00000000  1
loop_
_geom_bond_atom_site_label_1
_geom_bond_atom_site_label_2
_geom_bond_distance
_geom_bond_site_symmetry_2
Ba0 O2 2.944975 1_555
Ba0 O2 2.944975 1_565
Ba0 O7 2.944975 1_555
Ba0 O7 2.944975 1_655
Ba0 O3 3.013464 1_555
Ba0 O3 3.013464 1_565
Ba0 O3 3.013464 1_655
Ba0 O3 3.013464 1_665
Ba0 O0 3.037214 1_655
Ba0 O1 3.037214 1_555
Ba0 O0 3.037214 1_555
Ba0 O1 3.037214 1_565
Ba1 O2 2.944975 1_566
Ba1 O7 2.944975 1_656
Ba1 O2 2.944975 1_556
Ba1 O7 2.944975 1_556
Ba1 O6 3.013464 1_555
Ba1 O6 3.013464 1_565
Ba1 O6 3.013464 1_655
Ba1 O6 3.013464 1_665
Ba1 O5 3.037214 1_565
Ba1 O4 3.037214 1_555
Ba1 O5 3.037214 1_555
Ba1 O4 3.037214 1_655
Al0 O4 2.566726 1_655
Al0 O5 2.566726 1_565
Al0 O4 2.566726 1_555
Al0 O5 2.566726 1_555
Al0 O0 2.566726 1_655
Al0 O1 2.566726 1_555
Al0 O0 2.566726 1_555
Al0 O1 2.566726 1_565
O0 Sn0 2.130373 1_565
O0 Sn0 2.130373 1_555
O1 Sn0 2.130373 1_555
O1 Sn0 2.130373 1_655
O2 Sn1 2.130321 1_655
O2 Sn1 2.130321 1_555
O3 Sn1 2.099908 1_555
O3 Sn0 2.113070 1_555
O4 Sn2 2.130373 1_555
O4 Sn2 2.130373 1_565
O5 Sn2 2.130373 1_555
O5 Sn2 2.130373 1_655
O6 Sn1 2.099908 1_556
O6 Sn2 2.113070 1_555
O7 Sn1 2.130321 1_565
O7 Sn1 2.130321 1_555
