# generated using pymatgen
data_Li4MnCo2O7
_symmetry_space_group_name_H-M   'P 1'
_cell_length_a   10.29114922
_cell_length_b   10.29114922
_cell_length_c   5.14695194
_cell_angle_alpha   84.90507740
_cell_angle_beta   84.90507740
_cell_angle_gamma   151.31193233
_symmetry_Int_Tables_number   1
_chemical_formula_structural   Li4MnCo2O7
_chemical_formula_sum   'Li8 Mn2 Co4 O14'
_cell_volume   244.28198639
_cell_formula_units_Z   2
loop_
 _symmetry_equiv_pos_site_id
 _symmetry_equiv_pos_as_xyz
  1  'x, y, z'
loop_
 _atom_site_type_symbol
 _atom_site_label
 _atom_site_symmetry_multiplicity
 _atom_site_fract_x
 _atom_site_fract_y
 _atom_site_fract_z
 _atom_site_occupancy
  Li  Li0  1  0.92996500  0.07003500  0.50000000  1
  Li  Li1  1  0.35800900  0.64199100  0.50000000  1
  Li  Li2  1  0.78751300  0.21248700  0.50000000  1
  Li  Li3  1  0.21315700  0.78684300  0.50000000  1
  Li  Li4  1  0.63790500  0.36209500  0.50000000  1
  Li  Li5  1  0.07224500  0.92775500  0.50000000  1
  Li  Li6  1  0.50244400  0.49755600  0.50000000  1
  Li  Li7  1  0.57096700  0.42903300  0.00000000  1
  Mn  Mn0  1  0.00085400  0.99914600  0.00000000  1
  Mn  Mn1  1  0.71272100  0.28727900  0.00000000  1
  Co  Co0  1  0.42865100  0.57134900  0.00000000  1
  Co  Co1  1  0.85751000  0.14249000  0.00000000  1
  Co  Co2  1  0.28641000  0.71359000  0.00000000  1
  Co  Co3  1  0.14228000  0.85772000  0.00000000  1
  O  O0  1  0.70182700  0.84552500  0.23131400  1
  O  O1  1  0.13073900  0.41853300  0.22429600  1
  O  O2  1  0.56128600  0.98892300  0.23017100  1
  O  O3  1  0.96793400  0.53895600  0.21376300  1
  O  O4  1  0.39491500  0.09891600  0.22173500  1
  O  O5  1  0.85079000  0.70887900  0.23158400  1
  O  O6  1  0.24375400  0.25214200  0.21541500  1
  O  O7  1  0.15447500  0.29817300  0.76868600  1
  O  O8  1  0.58146700  0.86926100  0.77570400  1
  O  O9  1  0.01107700  0.43871400  0.76982900  1
  O  O10  1  0.46104400  0.03206600  0.78623700  1
  O  O11  1  0.90108400  0.60508500  0.77826500  1
  O  O12  1  0.29112100  0.14921000  0.76841600  1
  O  O13  1  0.74785800  0.75624600  0.78458500  1
loop_
_geom_bond_atom_site_label_1
_geom_bond_atom_site_label_2
_geom_bond_distance
_geom_bond_site_symmetry_2
Li0 O6 2.034713 1_655
Li0 O13 2.034713 1_545
Li0 O7 2.095180 1_655
Li0 O0 2.095180 1_545
Li0 O1 2.172424 1_655
Li0 O8 2.172424 1_545
Li1 O7 2.105383 1_555
Li1 O0 2.105383 1_555
Li1 O8 2.122441 1_555
Li1 O1 2.122441 1_555
Li1 O9 2.133387 1_555
Li1 O2 2.133387 1_555
Li2 O9 2.094358 1_655
Li2 O2 2.094358 1_545
Li2 O8 2.102571 1_545
Li2 O1 2.102571 1_655
Li2 O3 2.143831 1_555
Li2 O10 2.143831 1_555
Li3 O11 2.007941 1_455
Li3 O4 2.007941 1_565
Li3 O2 2.149484 1_555
Li3 O9 2.149484 1_555
Li3 O10 2.253804 1_565
Li3 O3 2.253804 1_455
Li4 O12 2.076942 1_555
Li4 O5 2.076942 1_555
Li4 O3 2.192668 1_555
Li4 O10 2.192668 1_555
Li4 O11 2.254386 1_555
Li4 O4 2.254386 1_555
Li5 O5 2.069189 1_455
Li5 O12 2.069189 1_565
Li5 O11 2.150717 1_455
Li5 O4 2.150717 1_565
Li5 O13 2.177071 1_455
Li5 O6 2.177071 1_565
Li6 O12 2.097099 1_555
Li6 O5 2.097099 1_555
Li6 O0 2.161258 1_555
Li6 O7 2.161258 1_555
Li6 O13 2.272554 1_555
Li6 O6 2.272554 1_555
Li7 O13 2.026282 1_554
Li7 O6 2.026282 1_555
Li7 O4 2.066772 1_555
Li7 O11 2.066772 1_554
Li7 O12 2.162447 1_554
Li7 O5 2.162447 1_555
Mn0 O12 1.917237 1_564
Mn0 O5 1.917237 1_455
Mn0 O13 1.960329 1_454
Mn0 O6 1.960329 1_565
Mn0 O7 1.966219 1_564
Mn0 O0 1.966219 1_455
Mn1 O11 1.891462 1_554
Mn1 O4 1.891462 1_555
Mn1 O2 1.972401 1_545
Mn1 O9 1.972401 1_654
Mn1 O3 1.975167 1_555
Mn1 O10 1.975167 1_554
Co0 O6 1.911222 1_555
Co0 O13 1.911222 1_554
Co0 O8 1.948082 1_554
Co0 O1 1.948082 1_555
Co0 O7 2.134504 1_554
Co0 O0 2.134504 1_555
Co1 O7 1.936101 1_654
Co1 O0 1.936101 1_545
Co1 O9 1.941036 1_654
Co1 O2 1.941036 1_545
Co1 O1 2.110376 1_655
Co1 O8 2.110376 1_544
Co2 O8 1.906186 1_554
Co2 O1 1.906186 1_555
Co2 O10 1.963728 1_564
Co2 O3 1.963728 1_455
Co2 O2 2.136057 1_555
Co2 O9 2.136057 1_554
Co3 O5 1.935090 1_455
Co3 O12 1.935090 1_564
Co3 O3 1.967926 1_455
Co3 O10 1.967926 1_564
Co3 O4 1.982636 1_565
Co3 O11 1.982636 1_454
