# generated using pymatgen
data_Ba10Gd4Y(Cu3O7)5
_symmetry_space_group_name_H-M   'P 1'
_cell_length_a   3.92824300
_cell_length_b   11.84618100
_cell_length_c   19.24081400
_cell_angle_alpha   90.00000000
_cell_angle_beta   90.00000000
_cell_angle_gamma   90.00000000
_symmetry_Int_Tables_number   1
_chemical_formula_structural   Ba10Gd4Y(Cu3O7)5
_chemical_formula_sum   'Ba10 Gd4 Y1 Cu15 O35'
_cell_volume   895.36507606
_cell_formula_units_Z   1
loop_
 _symmetry_equiv_pos_site_id
 _symmetry_equiv_pos_as_xyz
  1  'x, y, z'
loop_
 _atom_site_type_symbol
 _atom_site_label
 _atom_site_symmetry_multiplicity
 _atom_site_fract_x
 _atom_site_fract_y
 _atom_site_fract_z
 _atom_site_occupancy
  Ba  Ba0  1  0.50000000  0.18012000  0.10003800  1
  Ba  Ba1  1  0.50000000  0.18014000  0.29994100  1
  Ba  Ba2  1  0.50000000  0.18014000  0.50005900  1
  Ba  Ba3  1  0.50000000  0.18012000  0.69996200  1
  Ba  Ba4  1  0.50000000  0.18046600  0.90000000  1
  Ba  Ba5  1  0.50000000  0.81988000  0.10003800  1
  Ba  Ba6  1  0.50000000  0.81986000  0.29994100  1
  Ba  Ba7  1  0.50000000  0.81986000  0.50005900  1
  Ba  Ba8  1  0.50000000  0.81988000  0.69996200  1
  Ba  Ba9  1  0.50000000  0.81953400  0.90000000  1
  Gd  Gd0  1  0.50000000  0.50000000  0.09977100  1
  Gd  Gd1  1  0.50000000  0.50000000  0.29994100  1
  Gd  Gd2  1  0.50000000  0.50000000  0.50005900  1
  Gd  Gd3  1  0.50000000  0.50000000  0.70022900  1
  Y  Y0  1  0.50000000  0.50000000  0.90000000  1
  Cu  Cu0  1  0.00000000  0.35142900  0.99958600  1
  Cu  Cu1  1  0.00000000  0.35079700  0.19994300  1
  Cu  Cu2  1  0.00000000  0.35076100  0.40000000  1
  Cu  Cu3  1  0.00000000  0.35079700  0.60005700  1
  Cu  Cu4  1  0.00000000  0.35142900  0.80041400  1
  Cu  Cu5  1  0.00000000  0.64857100  0.99958600  1
  Cu  Cu6  1  0.00000000  0.64920300  0.19994300  1
  Cu  Cu7  1  0.00000000  0.64923900  0.40000000  1
  Cu  Cu8  1  0.00000000  0.64920300  0.60005700  1
  Cu  Cu9  1  0.00000000  0.64857100  0.80041400  1
  Cu  Cu10  1  0.00000000  0.00000000  0.99997900  1
  Cu  Cu11  1  0.00000000  0.00000000  0.19997800  1
  Cu  Cu12  1  0.00000000  0.00000000  0.40000000  1
  Cu  Cu13  1  0.00000000  0.00000000  0.60002200  1
  Cu  Cu14  1  0.00000000  0.00000000  0.80002100  1
  O  O0  1  0.00000000  0.15848100  0.99990700  1
  O  O1  1  0.00000000  0.15824500  0.19998000  1
  O  O2  1  0.00000000  0.15829700  0.40000000  1
  O  O3  1  0.00000000  0.15824500  0.60002000  1
  O  O4  1  0.00000000  0.15848100  0.80009300  1
  O  O5  1  0.00000000  0.84151900  0.99990700  1
  O  O6  1  0.00000000  0.84175500  0.19998000  1
  O  O7  1  0.00000000  0.84170300  0.40000000  1
  O  O8  1  0.00000000  0.84175500  0.60002000  1
  O  O9  1  0.00000000  0.84151900  0.80009300  1
  O  O10  1  0.50000000  0.37741400  0.99883600  1
  O  O11  1  0.50000000  0.37614000  0.19989300  1
  O  O12  1  0.50000000  0.37612700  0.40000000  1
  O  O13  1  0.50000000  0.37614000  0.60010700  1
  O  O14  1  0.50000000  0.37741400  0.80116400  1
  O  O15  1  0.50000000  0.62258600  0.99883600  1
  O  O16  1  0.50000000  0.62386000  0.19989300  1
  O  O17  1  0.50000000  0.62387300  0.40000000  1
  O  O18  1  0.50000000  0.62386000  0.60010700  1
  O  O19  1  0.50000000  0.62258600  0.80116400  1
  O  O20  1  0.50000000  0.00000000  0.00000500  1
  O  O21  1  0.50000000  0.00000000  0.19993000  1
  O  O22  1  0.50000000  0.00000000  0.40000000  1
  O  O23  1  0.50000000  0.00000000  0.60007000  1
  O  O24  1  0.50000000  0.00000000  0.79999500  1
  O  O25  1  0.00000000  0.37679700  0.09970000  1
  O  O26  1  0.00000000  0.37689300  0.29999100  1
  O  O27  1  0.00000000  0.37689300  0.50000900  1
  O  O28  1  0.00000000  0.37679700  0.70030000  1
  O  O29  1  0.00000000  0.37984300  0.90000000  1
  O  O30  1  0.00000000  0.62320300  0.09970000  1
  O  O31  1  0.00000000  0.62310700  0.29999100  1
  O  O32  1  0.00000000  0.62310700  0.50000900  1
  O  O33  1  0.00000000  0.62320300  0.70030000  1
  O  O34  1  0.00000000  0.62015700  0.90000000  1
loop_
_geom_bond_atom_site_label_1
_geom_bond_atom_site_label_2
_geom_bond_distance
_geom_bond_site_symmetry_2
Ba0 O1 2.760927 1_555
Ba0 O1 2.760927 1_655
Ba0 O0 2.763201 1_554
Ba0 O0 2.763201 1_654
Ba0 O21 2.871745 1_555
Ba0 O20 2.873561 1_555
Ba0 O11 3.013877 1_555
Ba0 O10 3.042044 1_554
Ba0 O25 3.047313 1_655
Ba0 O25 3.047313 1_555
Ba1 O1 2.761204 1_555
Ba1 O1 2.761204 1_655
Ba1 O2 2.762460 1_655
Ba1 O2 2.762460 1_555
Ba1 O21 2.873454 1_555
Ba1 O22 2.874072 1_555
Ba1 O11 3.016063 1_555
Ba1 O12 3.016080 1_555
Ba1 O26 3.047995 1_555
Ba1 O26 3.047995 1_655
Ba2 O3 2.761204 1_655
Ba2 O3 2.761204 1_555
Ba2 O2 2.762460 1_655
Ba2 O2 2.762460 1_555
Ba2 O23 2.873454 1_555
Ba2 O22 2.874072 1_555
Ba2 O13 3.016063 1_555
Ba2 O12 3.016080 1_555
Ba2 O27 3.047995 1_555
Ba2 O27 3.047995 1_655
Ba3 O3 2.760927 1_555
Ba3 O3 2.760927 1_655
Ba3 O4 2.763201 1_555
Ba3 O4 2.763201 1_655
Ba3 O23 2.871745 1_555
Ba3 O24 2.873561 1_555
Ba3 O13 3.013877 1_555
Ba3 O14 3.042044 1_555
Ba3 O28 3.047313 1_655
Ba3 O28 3.047313 1_555
Ba4 O4 2.760581 1_655
Ba4 O4 2.760581 1_555
Ba4 O0 2.760581 1_555
Ba4 O0 2.760581 1_655
Ba4 O20 2.876246 1_556
Ba4 O24 2.876246 1_555
Ba4 O10 3.009930 1_555
Ba4 O14 3.009930 1_555
Ba4 O29 3.071830 1_655
Ba4 O29 3.071830 1_555
Ba5 O6 2.760927 1_655
Ba5 O6 2.760927 1_555
Ba5 O5 2.763201 1_654
Ba5 O5 2.763201 1_554
Ba5 O21 2.871745 1_565
Ba5 O20 2.873561 1_565
Ba5 O16 3.013877 1_555
Ba5 O15 3.042044 1_554
Ba5 O30 3.047313 1_555
Ba5 O30 3.047313 1_655
Ba6 O6 2.761204 1_555
Ba6 O6 2.761204 1_655
Ba6 O7 2.762460 1_555
Ba6 O7 2.762460 1_655
Ba6 O21 2.873454 1_565
Ba6 O22 2.874072 1_565
Ba6 O16 3.016063 1_555
Ba6 O17 3.016080 1_555
Ba6 O31 3.047995 1_655
Ba6 O31 3.047995 1_555
Ba7 O8 2.761204 1_555
Ba7 O8 2.761204 1_655
Ba7 O7 2.762460 1_555
Ba7 O7 2.762460 1_655
Ba7 O23 2.873454 1_565
Ba7 O22 2.874072 1_565
Ba7 O18 3.016063 1_555
Ba7 O17 3.016080 1_555
Ba7 O32 3.047995 1_655
Ba7 O32 3.047995 1_555
Ba8 O8 2.760927 1_655
Ba8 O8 2.760927 1_555
Ba8 O9 2.763201 1_555
Ba8 O9 2.763201 1_655
Ba8 O23 2.871745 1_565
Ba8 O24 2.873561 1_565
Ba8 O18 3.013877 1_555
Ba8 O19 3.042044 1_555
Ba8 O33 3.047313 1_555
Ba8 O33 3.047313 1_655
Ba9 O9 2.760581 1_655
Ba9 O5 2.760581 1_555
Ba9 O5 2.760581 1_655
Ba9 O9 2.760581 1_555
Ba9 O20 2.876246 1_566
Ba9 O24 2.876246 1_565
Ba9 O15 3.009930 1_555
Ba9 O19 3.009930 1_555
Ba9 O34 3.071830 1_555
Ba9 O34 3.071830 1_655
Gd0 O16 2.421570 1_555
Gd0 O11 2.421570 1_555
Gd0 O15 2.424965 1_554
Gd0 O10 2.424965 1_554
Gd0 O30 2.447013 1_555
Gd0 O30 2.447013 1_655
Gd0 O25 2.447013 1_555
Gd0 O25 2.447013 1_655
Gd1 O16 2.420438 1_555
Gd1 O11 2.420438 1_555
Gd1 O17 2.420700 1_555
Gd1 O12 2.420700 1_555
Gd1 O31 2.446335 1_555
Gd1 O31 2.446335 1_655
Gd1 O26 2.446335 1_555
Gd1 O26 2.446335 1_655
Gd2 O18 2.420438 1_555
Gd2 O13 2.420438 1_555
Gd2 O12 2.420700 1_555
Gd2 O17 2.420700 1_555
Gd2 O32 2.446335 1_655
Gd2 O32 2.446335 1_555
Gd2 O27 2.446335 1_555
Gd2 O27 2.446335 1_655
Gd3 O13 2.421570 1_555
Gd3 O18 2.421570 1_555
Gd3 O14 2.424965 1_555
Gd3 O19 2.424965 1_555
Gd3 O33 2.447013 1_655
Gd3 O33 2.447013 1_555
Gd3 O28 2.447013 1_555
Gd3 O28 2.447013 1_655
Cu0 O29 1.945456 1_555
Cu0 O25 1.949575 1_556
Cu0 O10 1.988149 1_455
Cu0 O10 1.988149 1_555
Cu0 O0 2.285705 1_555
Cu1 O26 1.949669 1_555
Cu1 O25 1.953194 1_555
Cu1 O11 1.986934 1_455
Cu1 O11 1.986934 1_555
Cu1 O1 2.281006 1_555
Cu2 O27 1.948996 1_555
Cu2 O26 1.948996 1_555
Cu2 O12 1.986974 1_455
Cu2 O12 1.986974 1_555
Cu2 O2 2.279963 1_555
Cu3 O27 1.949669 1_555
Cu3 O28 1.953194 1_555
Cu3 O13 1.986934 1_455
Cu3 O13 1.986934 1_555
Cu3 O3 2.281006 1_555
Cu4 O29 1.945456 1_555
Cu4 O28 1.949575 1_555
Cu4 O14 1.988149 1_555
Cu4 O14 1.988149 1_455
Cu4 O4 2.285705 1_555
Cu5 O34 1.945456 1_555
Cu5 O30 1.949575 1_556
Cu5 O15 1.988149 1_455
Cu5 O15 1.988149 1_555
Cu5 O5 2.285705 1_555
Cu6 O31 1.949669 1_555
Cu6 O30 1.953194 1_555
Cu6 O16 1.986934 1_555
Cu6 O16 1.986934 1_455
Cu6 O6 2.281006 1_555
Cu7 O31 1.948996 1_555
Cu7 O32 1.948996 1_555
Cu7 O17 1.986974 1_455
Cu7 O17 1.986974 1_555
Cu7 O7 2.279963 1_555
Cu8 O32 1.949669 1_555
Cu8 O33 1.953194 1_555
Cu8 O18 1.986934 1_455
Cu8 O18 1.986934 1_555
Cu8 O8 2.281006 1_555
Cu9 O34 1.945456 1_555
Cu9 O33 1.949575 1_555
Cu9 O19 1.988149 1_455
Cu9 O19 1.988149 1_555
Cu9 O9 2.285705 1_555
Cu10 O5 1.877395 1_545
Cu10 O0 1.877395 1_555
Cu10 O20 1.964122 1_456
Cu10 O20 1.964122 1_556
Cu11 O6 1.874599 1_545
Cu11 O1 1.874599 1_555
Cu11 O21 1.964122 1_555
Cu11 O21 1.964122 1_455
Cu12 O2 1.875215 1_555
Cu12 O7 1.875215 1_545
Cu12 O22 1.964122 1_555
Cu12 O22 1.964122 1_455
Cu13 O8 1.874599 1_545
Cu13 O3 1.874599 1_555
Cu13 O23 1.964122 1_555
Cu13 O23 1.964122 1_455
Cu14 O9 1.877395 1_545
Cu14 O4 1.877395 1_555
Cu14 O24 1.964122 1_455
Cu14 O24 1.964122 1_555
O10 Y0 2.392743 1_555
O14 Y0 2.392743 1_555
O15 Y0 2.392743 1_555
O19 Y0 2.392743 1_555
O29 Y0 2.425664 1_455
O29 Y0 2.425664 1_555
O34 Y0 2.425664 1_555
O34 Y0 2.425664 1_455
