# generated using pymatgen
data_Sm3Ni3Bi4
_symmetry_space_group_name_H-M   'P 1'
_cell_length_a   8.49374507
_cell_length_b   8.49374507
_cell_length_c   8.49374507
_cell_angle_alpha   109.47122063
_cell_angle_beta   109.47122063
_cell_angle_gamma   109.47122063
_symmetry_Int_Tables_number   1
_chemical_formula_structural   Sm3Ni3Bi4
_chemical_formula_sum   'Sm6 Ni6 Bi8'
_cell_volume   471.71075097
_cell_formula_units_Z   2
loop_
 _symmetry_equiv_pos_site_id
 _symmetry_equiv_pos_as_xyz
  1  'x, y, z'
loop_
 _atom_site_type_symbol
 _atom_site_label
 _atom_site_symmetry_multiplicity
 _atom_site_fract_x
 _atom_site_fract_y
 _atom_site_fract_z
 _atom_site_occupancy
  Sm  Sm0  1  0.12500000  0.87500000  0.25000000  1
  Sm  Sm1  1  0.37500000  0.62500000  0.75000000  1
  Sm  Sm2  1  0.87500000  0.25000000  0.12500000  1
  Sm  Sm3  1  0.62500000  0.75000000  0.37500000  1
  Sm  Sm4  1  0.25000000  0.12500000  0.87500000  1
  Sm  Sm5  1  0.75000000  0.37500000  0.62500000  1
  Ni  Ni0  1  0.62500000  0.37500000  0.25000000  1
  Ni  Ni1  1  0.87500000  0.12500000  0.75000000  1
  Ni  Ni2  1  0.37500000  0.25000000  0.62500000  1
  Ni  Ni3  1  0.12500000  0.75000000  0.87500000  1
  Ni  Ni4  1  0.25000000  0.62500000  0.37500000  1
  Ni  Ni5  1  0.75000000  0.87500000  0.12500000  1
  Bi  Bi0  1  0.34779400  0.34779400  0.34779400  1
  Bi  Bi1  1  0.15220600  0.50000000  0.00000000  1
  Bi  Bi2  1  0.00000000  0.15220600  0.50000000  1
  Bi  Bi3  1  0.84779400  0.84779400  0.84779400  1
  Bi  Bi4  1  0.50000000  0.00000000  0.15220600  1
  Bi  Bi5  1  0.65220600  0.50000000  0.00000000  1
  Bi  Bi6  1  0.50000000  0.00000000  0.65220600  1
  Bi  Bi7  1  0.00000000  0.65220600  0.50000000  1
loop_
_geom_bond_atom_site_label_1
_geom_bond_atom_site_label_2
_geom_bond_distance
_geom_bond_site_symmetry_2
Ni0 Sm3 3.002992 1_555
Ni0 Sm4 3.002992 1_554
Ni0 Sm2 3.002992 1_555
Ni0 Sm5 3.002992 1_555
Ni1 Sm3 3.002992 1_545
Ni1 Sm4 3.002992 1_655
Ni1 Sm2 3.002992 1_556
Ni1 Sm5 3.002992 1_555
Ni2 Sm4 3.002992 1_555
Ni2 Sm0 3.002992 1_545
Ni2 Sm5 3.002992 1_555
Ni2 Sm1 3.002992 1_555
Ni3 Sm0 3.002992 1_556
Ni3 Sm4 3.002992 1_565
Ni3 Sm5 3.002992 1_455
Ni3 Sm1 3.002992 1_555
Ni4 Sm3 3.002992 1_555
Ni4 Sm0 3.002992 1_555
Ni4 Sm2 3.002992 1_455
Ni4 Sm1 3.002992 1_555
Ni5 Sm3 3.002992 1_555
Ni5 Sm2 3.002992 1_565
Ni5 Sm1 3.002992 1_554
Ni5 Sm0 3.002992 1_655
Bi0 Ni2 2.712228 1_555
Bi0 Ni4 2.712228 1_555
Bi0 Ni0 2.712228 1_555
Bi0 Sm5 3.319099 1_555
Bi0 Sm3 3.319099 1_555
Bi0 Sm1 3.319099 1_555
Bi0 Sm2 3.472702 1_455
Bi0 Sm0 3.472702 1_545
Bi0 Sm4 3.472702 1_554
Bi1 Ni3 2.712228 1_554
Bi1 Ni1 2.712228 1_454
Bi1 Ni4 2.712228 1_555
Bi1 Sm0 3.319099 1_555
Bi1 Sm5 3.319099 1_454
Bi1 Sm2 3.319099 1_455
Bi1 Sm1 3.472702 1_554
Bi1 Sm4 3.472702 1_554
Bi1 Sm3 3.472702 1_555
Bi2 Ni5 2.712228 1_445
Bi2 Ni2 2.712228 1_555
Bi2 Ni1 2.712228 1_455
Bi2 Sm3 3.319099 1_445
Bi2 Sm0 3.319099 1_545
Bi2 Sm4 3.319099 1_555
Bi2 Sm5 3.472702 1_455
Bi2 Sm2 3.472702 1_455
Bi2 Sm1 3.472702 1_555
Bi3 Ni3 2.712228 1_655
Bi3 Ni1 2.712228 1_565
Bi3 Ni5 2.712228 1_556
Bi3 Sm2 3.319099 1_566
Bi3 Sm0 3.319099 1_656
Bi3 Sm4 3.319099 1_665
Bi3 Sm1 3.472702 1_555
Bi3 Sm5 3.472702 1_555
Bi3 Sm3 3.472702 1_555
Bi4 Ni5 2.712228 1_545
Bi4 Ni0 2.712228 1_555
Bi4 Ni3 2.712228 1_544
Bi4 Sm2 3.319099 1_555
Bi4 Sm4 3.319099 1_554
Bi4 Sm1 3.319099 1_544
Bi4 Sm0 3.472702 1_545
Bi4 Sm5 3.472702 1_555
Bi4 Sm3 3.472702 1_545
Bi5 Ni0 2.712228 1_555
Bi5 Ni2 2.712228 1_554
Bi5 Ni5 2.712228 1_555
Bi5 Sm1 3.319099 1_554
Bi5 Sm4 3.319099 1_554
Bi5 Sm3 3.319099 1_555
Bi5 Sm0 3.472702 1_655
Bi5 Sm5 3.472702 1_554
Bi5 Sm2 3.472702 1_555
Bi6 Ni2 2.712228 1_555
Bi6 Ni1 2.712228 1_555
Bi6 Ni4 2.712228 1_545
Bi6 Sm0 3.319099 1_545
Bi6 Sm5 3.319099 1_555
Bi6 Sm3 3.319099 1_545
Bi6 Sm2 3.472702 1_556
Bi6 Sm4 3.472702 1_555
Bi6 Sm1 3.472702 1_545
Bi7 Ni3 2.712228 1_555
Bi7 Ni4 2.712228 1_555
Bi7 Ni0 2.712228 1_455
Bi7 Sm1 3.319099 1_555
Bi7 Sm5 3.319099 1_455
Bi7 Sm2 3.319099 1_455
Bi7 Sm0 3.472702 1_555
Bi7 Sm4 3.472702 1_565
Bi7 Sm3 3.472702 1_455
