# generated using pymatgen
data_Eu2CoSi3O10
_symmetry_space_group_name_H-M   'P 1'
_cell_length_a   6.65509119
_cell_length_b   6.81457918
_cell_length_c   17.25837211
_cell_angle_alpha   90.00000000
_cell_angle_beta   89.86914391
_cell_angle_gamma   90.00000000
_symmetry_Int_Tables_number   1
_chemical_formula_structural   Eu2CoSi3O10
_chemical_formula_sum   'Eu8 Co4 Si12 O40'
_cell_volume   782.69353842
_cell_formula_units_Z   4
loop_
 _symmetry_equiv_pos_site_id
 _symmetry_equiv_pos_as_xyz
  1  'x, y, z'
loop_
 _atom_site_type_symbol
 _atom_site_label
 _atom_site_symmetry_multiplicity
 _atom_site_fract_x
 _atom_site_fract_y
 _atom_site_fract_z
 _atom_site_occupancy
  Eu  Eu0  1  0.60336633  0.22709310  0.26028208  1
  Eu  Eu1  1  0.10336633  0.27290690  0.76028208  1
  Eu  Eu2  1  0.39663367  0.77290690  0.73971792  1
  Eu  Eu3  1  0.89663367  0.72709310  0.23971792  1
  Eu  Eu4  1  0.26851314  0.82078760  0.40964555  1
  Eu  Eu5  1  0.76851314  0.67921240  0.90964555  1
  Eu  Eu6  1  0.73148686  0.17921240  0.59035445  1
  Eu  Eu7  1  0.23148686  0.32078760  0.09035445  1
  Co  Co0  1  0.85025463  0.44592304  0.42282403  1
  Co  Co1  1  0.35025463  0.05407696  0.92282403  1
  Co  Co2  1  0.14974537  0.55407696  0.57717597  1
  Co  Co3  1  0.64974537  0.94592304  0.07717597  1
  Si  Si0  1  0.08346702  0.23213755  0.28864814  1
  Si  Si1  1  0.58346702  0.26786245  0.78864814  1
  Si  Si2  1  0.91653298  0.76786245  0.71135186  1
  Si  Si3  1  0.41653298  0.73213755  0.21135186  1
  Si  Si4  1  0.34137710  0.32295239  0.43093947  1
  Si  Si5  1  0.84137710  0.17704761  0.93093947  1
  Si  Si6  1  0.65862290  0.67704761  0.56906053  1
  Si  Si7  1  0.15862290  0.82295239  0.06906053  1
  Si  Si8  1  0.74607243  0.93083021  0.42201118  1
  Si  Si9  1  0.24607243  0.56916979  0.92201118  1
  Si  Si10  1  0.25392757  0.06916979  0.57798882  1
  Si  Si11  1  0.75392757  0.43083021  0.07798882  1
  O  O0  1  0.92110224  0.06427569  0.26794100  1
  O  O1  1  0.42110224  0.43572431  0.76794100  1
  O  O2  1  0.07889776  0.93572431  0.73205900  1
  O  O3  1  0.57889776  0.56427569  0.23205900  1
  O  O4  1  0.25614244  0.26174599  0.22325274  1
  O  O5  1  0.75614244  0.23825401  0.72325274  1
  O  O6  1  0.74385756  0.73825401  0.77674726  1
  O  O7  1  0.24385756  0.76174599  0.27674726  1
  O  O8  1  0.93898613  0.41893641  0.31175088  1
  O  O9  1  0.43898613  0.08106359  0.81175088  1
  O  O10  1  0.06101387  0.58106359  0.68824912  1
  O  O11  1  0.56101387  0.91893641  0.18824912  1
  O  O12  1  0.21527770  0.17760006  0.36934549  1
  O  O13  1  0.71527770  0.32239994  0.86934549  1
  O  O14  1  0.78472230  0.82239994  0.63065451  1
  O  O15  1  0.28472230  0.67760006  0.13065451  1
  O  O16  1  0.54270195  0.40999346  0.39129160  1
  O  O17  1  0.04270195  0.09000654  0.89129160  1
  O  O18  1  0.45729805  0.59000654  0.60870840  1
  O  O19  1  0.95729805  0.90999346  0.10870840  1
  O  O20  1  0.18520819  0.49397835  0.45967672  1
  O  O21  1  0.68520819  0.00602165  0.95967672  1
  O  O22  1  0.81479181  0.50602165  0.54032328  1
  O  O23  1  0.31479181  0.99397835  0.04032328  1
  O  O24  1  0.38876681  0.17733738  0.50535365  1
  O  O25  1  0.88876681  0.32266262  0.00535365  1
  O  O26  1  0.61123319  0.82266262  0.49464635  1
  O  O27  1  0.11123319  0.67733738  0.99464635  1
  O  O28  1  0.83647266  0.13476000  0.45805179  1
  O  O29  1  0.33647266  0.36524000  0.95805179  1
  O  O30  1  0.16352734  0.86524000  0.54194821  1
  O  O31  1  0.66352734  0.63476000  0.04194821  1
  O  O32  1  0.57182490  0.96476995  0.35763919  1
  O  O33  1  0.07182490  0.53523005  0.85763919  1
  O  O34  1  0.42817510  0.03523005  0.64236081  1
  O  O35  1  0.92817510  0.46476995  0.14236081  1
  O  O36  1  0.90813200  0.76638314  0.39222652  1
  O  O37  1  0.40813200  0.73361686  0.89222652  1
  O  O38  1  0.09186800  0.23361686  0.60777348  1
  O  O39  1  0.59186800  0.26638314  0.10777348  1
loop_
_geom_bond_atom_site_label_1
_geom_bond_atom_site_label_2
_geom_bond_distance
_geom_bond_site_symmetry_2
Eu0 O3 2.354532 1_555
Eu0 O0 2.391899 1_555
Eu0 O4 2.410548 1_555
Eu0 O11 2.456897 1_545
Eu0 O32 2.461951 1_545
Eu0 O16 2.612371 1_555
Eu0 O39 2.646914 1_555
Eu0 O8 2.737897 1_555
Eu1 O2 2.354532 1_545
Eu1 O1 2.391899 1_555
Eu1 O5 2.410548 1_455
Eu1 O10 2.456897 1_555
Eu1 O33 2.461951 1_555
Eu1 O17 2.612371 1_555
Eu1 O38 2.646914 1_555
Eu1 O9 2.737897 1_555
Eu2 O1 2.354532 1_555
Eu2 O2 2.391899 1_555
Eu2 O6 2.410548 1_555
Eu2 O9 2.456897 1_565
Eu2 O34 2.461951 1_565
Eu2 O18 2.612371 1_555
Eu2 O37 2.646914 1_555
Eu2 O10 2.737897 1_555
Eu3 O0 2.354532 1_565
Eu3 O3 2.391899 1_555
Eu3 O7 2.410548 1_655
Eu3 O8 2.456897 1_555
Eu3 O35 2.461951 1_555
Eu3 O19 2.612371 1_555
Eu3 O36 2.646914 1_555
Eu3 O11 2.737897 1_555
Eu4 O7 2.334772 1_555
Eu4 O30 2.405459 1_555
Eu4 O32 2.415500 1_555
Eu4 O36 2.446077 1_455
Eu4 O20 2.451645 1_555
Eu4 O12 2.553959 1_565
Eu4 O26 2.714712 1_555
Eu5 O6 2.334772 1_555
Eu5 O31 2.405459 1_556
Eu5 O33 2.415500 1_655
Eu5 O37 2.446077 1_555
Eu5 O21 2.451645 1_565
Eu5 O13 2.553959 1_555
Eu5 O27 2.714712 1_655
Eu6 O5 2.334772 1_555
Eu6 O28 2.405459 1_555
Eu6 O34 2.415500 1_555
Eu6 O38 2.446077 1_655
Eu6 O22 2.451645 1_555
Eu6 O14 2.553959 1_545
Eu6 O24 2.714712 1_555
Eu7 O4 2.334772 1_555
Eu7 O29 2.405459 1_554
Eu7 O35 2.415500 1_455
Eu7 O39 2.446077 1_555
Eu7 O23 2.451645 1_545
Eu7 O15 2.553959 1_555
Eu7 O25 2.714712 1_455
Co0 O8 2.012964 1_555
Co0 O22 2.081682 1_555
Co0 O16 2.133200 1_555
Co0 O28 2.207731 1_555
Co0 O36 2.279314 1_555
Co0 O20 2.342505 1_655
Co1 O9 2.012964 1_555
Co1 O23 2.081682 1_546
Co1 O17 2.133200 1_555
Co1 O29 2.207731 1_555
Co1 O37 2.279314 1_545
Co1 O21 2.342505 1_555
Co2 O10 2.012964 1_555
Co2 O20 2.081682 1_555
Co2 O18 2.133200 1_555
Co2 O30 2.207731 1_555
Co2 O38 2.279314 1_555
Co2 O22 2.342505 1_455
Co3 O11 2.012964 1_555
Co3 O21 2.081682 1_564
Co3 O19 2.133200 1_555
Co3 O31 2.207731 1_555
Co3 O39 2.279314 1_565
Co3 O23 2.342505 1_555
O0 Si0 1.614186 1_655
O1 Si1 1.614186 1_555
O2 Si2 1.614186 1_455
O3 Si3 1.614186 1_555
O4 Si0 1.621468 1_555
O5 Si1 1.621468 1_555
O6 Si2 1.621468 1_555
O7 Si3 1.621468 1_555
O8 Si0 1.643833 1_655
O9 Si1 1.643833 1_555
O10 Si2 1.643833 1_455
O11 Si3 1.643833 1_555
O12 Si4 1.679122 1_555
O12 Si0 1.689033 1_555
O13 Si5 1.679122 1_555
O13 Si1 1.689033 1_555
O14 Si6 1.679122 1_555
O14 Si2 1.689033 1_555
O15 Si7 1.679122 1_555
O15 Si3 1.689033 1_555
O16 Si4 1.615860 1_555
O17 Si5 1.615860 1_455
O18 Si6 1.615860 1_555
O19 Si7 1.615860 1_655
O20 Si4 1.637719 1_555
O21 Si5 1.637719 1_555
O22 Si6 1.637719 1_555
O23 Si7 1.637719 1_555
O24 Si4 1.653883 1_555
O24 Si10 1.707307 1_555
O25 Si5 1.653883 1_554
O25 Si11 1.707307 1_555
O26 Si6 1.653883 1_555
O26 Si8 1.707307 1_555
O27 Si7 1.653883 1_556
O27 Si9 1.707307 1_555
O28 Si8 1.637620 1_545
O29 Si9 1.637620 1_555
O30 Si10 1.637620 1_565
O31 Si11 1.637620 1_555
O32 Si8 1.624300 1_555
O33 Si9 1.624300 1_555
O34 Si10 1.624300 1_555
O35 Si11 1.624300 1_555
O36 Si8 1.637295 1_555
O37 Si9 1.637295 1_555
O38 Si10 1.637295 1_555
O39 Si11 1.637295 1_555
