# generated using pymatgen
data_Cs3Ag9(SbS3)4
_symmetry_space_group_name_H-M   'P 1'
_cell_length_a   9.98325362
_cell_length_b   9.98325362
_cell_length_c   9.98325362
_cell_angle_alpha   111.30872140
_cell_angle_beta   111.30872140
_cell_angle_gamma   105.85560303
_symmetry_Int_Tables_number   1
_chemical_formula_structural   Cs3Ag9(SbS3)4
_chemical_formula_sum   'Cs3 Ag9 Sb4 S12'
_cell_volume   763.67046275
_cell_formula_units_Z   1
loop_
 _symmetry_equiv_pos_site_id
 _symmetry_equiv_pos_as_xyz
  1  'x, y, z'
loop_
 _atom_site_type_symbol
 _atom_site_label
 _atom_site_symmetry_multiplicity
 _atom_site_fract_x
 _atom_site_fract_y
 _atom_site_fract_z
 _atom_site_occupancy
  Cs  Cs0  1  0.00000000  0.00000000  0.00000000  1
  Cs  Cs1  1  0.32615700  0.32615700  0.00000000  1
  Cs  Cs2  1  0.67384300  0.67384300  0.00000000  1
  Ag  Ag0  1  0.25000000  0.75000000  0.50000000  1
  Ag  Ag1  1  0.33203700  0.48633800  0.48865000  1
  Ag  Ag2  1  0.99768800  0.84338700  0.51135000  1
  Ag  Ag3  1  0.49906400  0.00938400  0.16861100  1
  Ag  Ag4  1  0.84077300  0.33045400  0.83138900  1
  Ag  Ag5  1  0.66954600  0.50093600  0.51032000  1
  Ag  Ag6  1  0.99061600  0.15922700  0.48968000  1
  Ag  Ag7  1  0.51366200  0.00231200  0.84569900  1
  Ag  Ag8  1  0.15661300  0.66796300  0.15430100  1
  Sb  Sb0  1  0.12547900  0.60722400  0.74355500  1
  Sb  Sb1  1  0.86366900  0.38192400  0.25644500  1
  Sb  Sb2  1  0.61807600  0.87452100  0.48174500  1
  Sb  Sb3  1  0.39277600  0.13633100  0.51825500  1
  S  S0  1  0.66983200  0.30404600  0.96962200  1
  S  S1  1  0.33442400  0.70021000  0.03037800  1
  S  S2  1  0.29979000  0.33016800  0.63421400  1
  S  S3  1  0.69595400  0.66557600  0.36578600  1
  S  S4  1  0.42499600  0.21610200  0.32024200  1
  S  S5  1  0.89586000  0.10475400  0.67975800  1
  S  S6  1  0.21485700  0.88417500  0.77958400  1
  S  S7  1  0.10459200  0.43527400  0.22041600  1
  S  S8  1  0.56472600  0.78514300  0.66931800  1
  S  S9  1  0.11582500  0.89540800  0.33068200  1
  S  S10  1  0.78389800  0.10414000  0.20889500  1
  S  S11  1  0.89524600  0.57500400  0.79110500  1
loop_
_geom_bond_atom_site_label_1
_geom_bond_atom_site_label_2
_geom_bond_distance
_geom_bond_site_symmetry_2
Cs0 S4 3.606117 1_555
Cs0 S5 3.606117 1_454
Cs0 S11 3.606117 1_444
Cs0 S10 3.606124 1_455
Cs0 S6 3.703571 1_544
Cs0 S7 3.703577 1_555
Cs0 S8 3.703578 1_444
Cs0 S9 3.703578 1_545
Cs1 S3 3.580429 1_555
Cs1 S2 3.580429 1_554
Cs1 S0 3.610242 1_554
Cs1 S1 3.610242 1_555
Cs1 S4 3.640680 1_555
Cs1 S5 3.640680 1_454
Cs1 S7 3.746117 1_555
Cs1 S6 3.746124 1_544
Cs2 S0 3.580429 1_554
Cs2 S1 3.580429 1_555
Cs2 S3 3.610242 1_555
Cs2 S2 3.610242 1_554
Cs2 S10 3.640681 1_565
Cs2 S11 3.640687 1_554
Cs2 S8 3.746124 1_554
Cs2 S9 3.746124 1_655
Ag0 S9 2.821187 1_555
Ag0 S8 2.821187 1_555
Ag0 S7 2.821191 1_555
Ag0 S6 2.821195 1_555
Ag1 S2 2.521624 1_555
Ag1 S7 2.557875 1_555
Ag1 S8 2.608826 1_555
Ag1 S4 3.189314 1_555
Ag2 S3 2.521624 1_555
Ag2 S6 2.557875 1_655
Ag2 S9 2.608826 1_655
Ag2 S5 3.189314 1_565
Ag3 S4 2.544425 1_555
Ag3 S10 2.562225 1_555
Ag3 S1 2.572246 1_545
Ag4 S5 2.544432 1_555
Ag4 S11 2.562225 1_555
Ag4 S0 2.572247 1_555
Ag5 S11 2.544422 1_555
Ag5 S4 2.562225 1_555
Ag5 S3 2.572247 1_555
Ag6 S10 2.544417 1_555
Ag6 S5 2.562229 1_555
Ag6 S2 2.572246 1_655
Ag7 S0 2.521624 1_555
Ag7 S8 2.557868 1_545
Ag7 S6 2.608829 1_545
Ag7 S10 3.189321 1_556
Ag8 S1 2.521624 1_555
Ag8 S9 2.557868 1_555
Ag8 S7 2.608820 1_555
Ag8 S11 3.189321 1_454
S0 Sb1 2.465987 1_556
S1 Sb0 2.465987 1_554
S2 Sb3 2.465987 1_555
S3 Sb2 2.465987 1_555
S4 Sb3 2.472206 1_555
S5 Sb2 2.472206 1_545
S6 Sb0 2.503190 1_555
S7 Sb1 2.503200 1_455
S8 Sb2 2.503194 1_555
S9 Sb3 2.503194 1_565
S10 Sb1 2.472209 1_555
S11 Sb0 2.472200 1_655
