# generated using pymatgen
data_Al(NF3)4
_symmetry_space_group_name_H-M   'P 1'
_cell_length_a   14.89232784
_cell_length_b   14.89232784
_cell_length_c   14.89232784
_cell_angle_alpha   60.00000000
_cell_angle_beta   60.00000000
_cell_angle_gamma   60.00000000
_symmetry_Int_Tables_number   1
_chemical_formula_structural   Al(NF3)4
_chemical_formula_sum   'Al2 N8 F24'
_cell_volume   2335.46179072
_cell_formula_units_Z   2
loop_
 _symmetry_equiv_pos_site_id
 _symmetry_equiv_pos_as_xyz
  1  'x, y, z'
loop_
 _atom_site_type_symbol
 _atom_site_label
 _atom_site_symmetry_multiplicity
 _atom_site_fract_x
 _atom_site_fract_y
 _atom_site_fract_z
 _atom_site_occupancy
  Al  Al0  1  0.00000000  0.00000000  0.00000000  1
  Al  Al1  1  0.25000000  0.25000000  0.25000000  1
  N  N0  1  0.37410500  0.37410500  0.37410500  1
  N  N1  1  0.37410500  0.37410500  0.87768500  1
  N  N2  1  0.37410500  0.87768500  0.37410500  1
  N  N3  1  0.87589500  0.87589500  0.37231500  1
  N  N4  1  0.87589500  0.87589500  0.87589500  1
  N  N5  1  0.87768500  0.37410500  0.37410500  1
  N  N6  1  0.87589500  0.37231500  0.87589500  1
  N  N7  1  0.37231500  0.87589500  0.87589500  1
  F  F0  1  0.92975100  0.30763000  0.30763000  1
  F  F1  1  0.30763000  0.92975100  0.45498900  1
  F  F2  1  0.30763000  0.45498900  0.92975100  1
  F  F3  1  0.30763000  0.92975100  0.30763000  1
  F  F4  1  0.32024900  0.94237000  0.79501100  1
  F  F5  1  0.32024900  0.94237000  0.94237000  1
  F  F6  1  0.45498900  0.30763000  0.30763000  1
  F  F7  1  0.45498900  0.30763000  0.92975100  1
  F  F8  1  0.94237000  0.32024900  0.94237000  1
  F  F9  1  0.94237000  0.32024900  0.79501100  1
  F  F10  1  0.92975100  0.30763000  0.45498900  1
  F  F11  1  0.94237000  0.79501100  0.94237000  1
  F  F12  1  0.94237000  0.79501100  0.32024900  1
  F  F13  1  0.30763000  0.45498900  0.30763000  1
  F  F14  1  0.79501100  0.94237000  0.32024900  1
  F  F15  1  0.79501100  0.94237000  0.94237000  1
  F  F16  1  0.30763000  0.30763000  0.92975100  1
  F  F17  1  0.45498900  0.92975100  0.30763000  1
  F  F18  1  0.30763000  0.30763000  0.45498900  1
  F  F19  1  0.92975100  0.45498900  0.30763000  1
  F  F20  1  0.79501100  0.32024900  0.94237000  1
  F  F21  1  0.94237000  0.94237000  0.32024900  1
  F  F22  1  0.32024900  0.79501100  0.94237000  1
  F  F23  1  0.94237000  0.94237000  0.79501100  1
loop_
_geom_bond_atom_site_label_1
_geom_bond_atom_site_label_2
_geom_bond_distance
_geom_bond_site_symmetry_2
F0 N5 1.416375 1_555
F1 N2 1.416375 1_555
F2 N1 1.416375 1_555
F3 N2 1.416375 1_555
F4 N7 1.416375 1_555
F5 N7 1.416375 1_555
F6 N0 1.416375 1_555
F7 N1 1.416375 1_555
F8 N6 1.416375 1_555
F9 N6 1.416375 1_555
F10 N5 1.416375 1_555
F11 N4 1.416375 1_555
F12 N3 1.416375 1_555
F13 N0 1.416375 1_555
F14 N3 1.416375 1_555
F15 N4 1.416375 1_555
F16 N1 1.416375 1_555
F17 N2 1.416375 1_555
F18 N0 1.416375 1_555
F19 N5 1.416375 1_555
F20 N6 1.416375 1_555
F21 N3 1.416375 1_555
F22 N7 1.416375 1_555
F23 N4 1.416375 1_555
