# generated using pymatgen
data_Sm3Ge13Ru4
_symmetry_space_group_name_H-M   'P 1'
_cell_length_a   9.09926700
_cell_length_b   9.09926700
_cell_length_c   9.09926700
_cell_angle_alpha   90.00000000
_cell_angle_beta   90.00000000
_cell_angle_gamma   90.00000000
_symmetry_Int_Tables_number   1
_chemical_formula_structural   Sm3Ge13Ru4
_chemical_formula_sum   'Sm6 Ge26 Ru8'
_cell_volume   753.38891548
_cell_formula_units_Z   2
loop_
 _symmetry_equiv_pos_site_id
 _symmetry_equiv_pos_as_xyz
  1  'x, y, z'
loop_
 _atom_site_type_symbol
 _atom_site_label
 _atom_site_symmetry_multiplicity
 _atom_site_fract_x
 _atom_site_fract_y
 _atom_site_fract_z
 _atom_site_occupancy
  Sm  Sm0  1  0.50000000  0.00000000  0.75000000  1
  Sm  Sm1  1  0.00000000  0.25000000  0.50000000  1
  Sm  Sm2  1  0.75000000  0.50000000  0.00000000  1
  Sm  Sm3  1  0.50000000  0.00000000  0.25000000  1
  Sm  Sm4  1  0.00000000  0.75000000  0.50000000  1
  Sm  Sm5  1  0.25000000  0.50000000  0.00000000  1
  Ge  Ge0  1  0.50000000  0.50000000  0.50000000  1
  Ge  Ge1  1  0.00000000  0.00000000  0.00000000  1
  Ge  Ge2  1  0.64553400  0.20355700  0.50000000  1
  Ge  Ge3  1  0.79644300  0.50000000  0.64553400  1
  Ge  Ge4  1  0.50000000  0.35446600  0.79644300  1
  Ge  Ge5  1  0.35446600  0.79644300  0.50000000  1
  Ge  Ge6  1  0.20355700  0.50000000  0.35446600  1
  Ge  Ge7  1  0.50000000  0.64553400  0.20355700  1
  Ge  Ge8  1  0.64553400  0.79644300  0.50000000  1
  Ge  Ge9  1  0.79644300  0.50000000  0.35446600  1
  Ge  Ge10  1  0.35446600  0.20355700  0.50000000  1
  Ge  Ge11  1  0.20355700  0.50000000  0.64553400  1
  Ge  Ge12  1  0.50000000  0.64553400  0.79644300  1
  Ge  Ge13  1  0.50000000  0.35446600  0.20355700  1
  Ge  Ge14  1  0.14553400  0.00000000  0.70355700  1
  Ge  Ge15  1  0.29644300  0.14553400  0.00000000  1
  Ge  Ge16  1  0.00000000  0.29644300  0.85446600  1
  Ge  Ge17  1  0.85446600  0.00000000  0.29644300  1
  Ge  Ge18  1  0.70355700  0.85446600  0.00000000  1
  Ge  Ge19  1  0.00000000  0.70355700  0.14553400  1
  Ge  Ge20  1  0.14553400  0.00000000  0.29644300  1
  Ge  Ge21  1  0.29644300  0.85446600  0.00000000  1
  Ge  Ge22  1  0.85446600  0.00000000  0.70355700  1
  Ge  Ge23  1  0.70355700  0.14553400  0.00000000  1
  Ge  Ge24  1  0.00000000  0.29644300  0.14553400  1
  Ge  Ge25  1  0.00000000  0.70355700  0.85446600  1
  Ru  Ru0  1  0.75000000  0.25000000  0.75000000  1
  Ru  Ru1  1  0.25000000  0.75000000  0.25000000  1
  Ru  Ru2  1  0.75000000  0.75000000  0.25000000  1
  Ru  Ru3  1  0.25000000  0.25000000  0.75000000  1
  Ru  Ru4  1  0.25000000  0.75000000  0.75000000  1
  Ru  Ru5  1  0.75000000  0.25000000  0.25000000  1
  Ru  Ru6  1  0.25000000  0.25000000  0.25000000  1
  Ru  Ru7  1  0.75000000  0.75000000  0.75000000  1
loop_
_geom_bond_atom_site_label_1
_geom_bond_atom_site_label_2
_geom_bond_distance
_geom_bond_site_symmetry_2
Ge0 Ge7 3.004944 1_555
Ge0 Ge12 3.004944 1_555
Ge0 Ge2 3.004944 1_555
Ge0 Ge11 3.004944 1_555
Ge0 Ge3 3.004944 1_555
Ge0 Ge8 3.004944 1_555
Ge0 Ge6 3.004944 1_555
Ge0 Ge13 3.004944 1_555
Ge0 Ge9 3.004944 1_555
Ge0 Ge10 3.004944 1_555
Ge0 Ge4 3.004944 1_555
Ge0 Ge5 3.004944 1_555
Ge1 Ge17 3.004944 1_455
Ge1 Ge16 3.004944 1_554
Ge1 Ge23 3.004944 1_455
Ge1 Ge18 3.004944 1_445
Ge1 Ge20 3.004944 1_555
Ge1 Ge22 3.004944 1_454
Ge1 Ge21 3.004944 1_545
Ge1 Ge25 3.004944 1_544
Ge1 Ge14 3.004944 1_554
Ge1 Ge19 3.004944 1_545
Ge1 Ge24 3.004944 1_555
Ge1 Ge15 3.004944 1_555
Ge2 Ru5 2.501390 1_555
Ge2 Ru0 2.501390 1_555
Ge2 Sm0 3.218564 1_555
Ge2 Sm3 3.218564 1_555
Ge2 Sm1 3.252948 1_655
Ge3 Ru0 2.501390 1_555
Ge3 Ru7 2.501390 1_555
Ge3 Sm1 3.218564 1_655
Ge3 Sm4 3.218564 1_655
Ge3 Sm2 3.252948 1_556
Ge4 Ru3 2.501390 1_555
Ge4 Ru0 2.501390 1_555
Ge4 Sm5 3.218564 1_556
Ge4 Sm2 3.218564 1_556
Ge4 Sm0 3.252948 1_555
Ge5 Ru4 2.501390 1_555
Ge5 Ru1 2.501390 1_555
Ge5 Sm0 3.218564 1_565
Ge5 Sm3 3.218564 1_565
Ge5 Sm4 3.252948 1_555
Ge6 Ru1 2.501390 1_555
Ge6 Ru6 2.501390 1_555
Ge6 Sm1 3.218564 1_555
Ge6 Sm4 3.218564 1_555
Ge6 Sm5 3.252948 1_555
Ge7 Ru1 2.501390 1_555
Ge7 Ru2 2.501390 1_555
Ge7 Sm5 3.218564 1_555
Ge7 Sm2 3.218564 1_555
Ge7 Sm3 3.252948 1_565
Ge8 Ru2 2.501390 1_555
Ge8 Ru7 2.501390 1_555
Ge8 Sm0 3.218564 1_565
Ge8 Sm3 3.218564 1_565
Ge8 Sm4 3.252948 1_655
Ge9 Ru5 2.501390 1_555
Ge9 Ru2 2.501390 1_555
Ge9 Sm4 3.218564 1_655
Ge9 Sm1 3.218564 1_655
Ge9 Sm2 3.252948 1_555
Ge10 Ru3 2.501390 1_555
Ge10 Ru6 2.501390 1_555
Ge10 Sm3 3.218564 1_555
Ge10 Sm0 3.218564 1_555
Ge10 Sm1 3.252948 1_555
Ge11 Ru4 2.501390 1_555
Ge11 Ru3 2.501390 1_555
Ge11 Sm1 3.218564 1_555
Ge11 Sm4 3.218564 1_555
Ge11 Sm5 3.252948 1_556
Ge12 Ru4 2.501390 1_555
Ge12 Ru7 2.501390 1_555
Ge12 Sm5 3.218564 1_556
Ge12 Sm2 3.218564 1_556
Ge12 Sm0 3.252948 1_565
Ge13 Ru5 2.501390 1_555
Ge13 Ru6 2.501390 1_555
Ge13 Sm2 3.218564 1_555
Ge13 Sm5 3.218564 1_555
Ge13 Sm3 3.252948 1_555
Ge14 Ru3 2.501390 1_555
Ge14 Ru4 2.501390 1_545
Ge14 Sm4 3.218564 1_545
Ge14 Sm1 3.218564 1_555
Ge14 Sm0 3.252948 1_555
Ge15 Ru3 2.501390 1_554
Ge15 Ru6 2.501390 1_555
Ge15 Sm0 3.218564 1_554
Ge15 Sm3 3.218564 1_555
Ge15 Sm5 3.252948 1_555
Ge16 Ru3 2.501390 1_555
Ge16 Ru0 2.501390 1_455
Ge16 Sm2 3.218564 1_456
Ge16 Sm5 3.218564 1_556
Ge16 Sm1 3.252948 1_555
Ge17 Ru5 2.501390 1_555
Ge17 Ru2 2.501390 1_545
Ge17 Sm4 3.218564 1_645
Ge17 Sm1 3.218564 1_655
Ge17 Sm3 3.252948 1_555
Ge18 Ru2 2.501390 1_555
Ge18 Ru7 2.501390 1_554
Ge18 Sm0 3.218564 1_564
Ge18 Sm3 3.218564 1_565
Ge18 Sm2 3.252948 1_555
Ge19 Ru2 2.501390 1_455
Ge19 Ru1 2.501390 1_555
Ge19 Sm2 3.218564 1_455
Ge19 Sm5 3.218564 1_555
Ge19 Sm4 3.252948 1_555
Ge20 Ru6 2.501390 1_555
Ge20 Ru1 2.501390 1_545
Ge20 Sm4 3.218564 1_545
Ge20 Sm1 3.218564 1_555
Ge20 Sm3 3.252948 1_555
Ge21 Ru1 2.501390 1_555
Ge21 Ru4 2.501390 1_554
Ge21 Sm0 3.218564 1_564
Ge21 Sm3 3.218564 1_565
Ge21 Sm5 3.252948 1_555
Ge22 Ru7 2.501390 1_545
Ge22 Ru0 2.501390 1_555
Ge22 Sm4 3.218564 1_645
Ge22 Sm1 3.218564 1_655
Ge22 Sm0 3.252948 1_555
Ge23 Ru5 2.501390 1_555
Ge23 Ru0 2.501390 1_554
Ge23 Sm0 3.218564 1_554
Ge23 Sm3 3.218564 1_555
Ge23 Sm2 3.252948 1_555
Ge24 Ru5 2.501390 1_455
Ge24 Ru6 2.501390 1_555
Ge24 Sm2 3.218564 1_455
Ge24 Sm5 3.218564 1_555
Ge24 Sm1 3.252948 1_555
Ge25 Ru4 2.501390 1_555
Ge25 Ru7 2.501390 1_455
Ge25 Sm2 3.218564 1_456
Ge25 Sm5 3.218564 1_556
Ge25 Sm4 3.252948 1_555
Ru0 Sm1 3.217077 1_655
Ru0 Sm2 3.217077 1_556
Ru0 Sm0 3.217077 1_555
Ru1 Sm4 3.217077 1_555
Ru1 Sm5 3.217077 1_555
Ru1 Sm3 3.217077 1_565
Ru2 Sm4 3.217077 1_655
Ru2 Sm2 3.217077 1_555
Ru2 Sm3 3.217077 1_565
Ru3 Sm5 3.217077 1_556
Ru3 Sm1 3.217077 1_555
Ru3 Sm0 3.217077 1_555
Ru4 Sm4 3.217077 1_555
Ru4 Sm5 3.217077 1_556
Ru4 Sm0 3.217077 1_565
Ru5 Sm1 3.217077 1_655
Ru5 Sm2 3.217077 1_555
Ru5 Sm3 3.217077 1_555
Ru6 Sm5 3.217077 1_555
Ru6 Sm1 3.217077 1_555
Ru6 Sm3 3.217077 1_555
Ru7 Sm4 3.217077 1_655
Ru7 Sm2 3.217077 1_556
Ru7 Sm0 3.217077 1_565
