# generated using pymatgen
data_ErAlZn
_symmetry_space_group_name_H-M   'P 1'
_cell_length_a   4.41954509
_cell_length_b   4.41954509
_cell_length_c   7.06302359
_cell_angle_alpha   90.00000000
_cell_angle_beta   90.00000000
_cell_angle_gamma   119.99999267
_symmetry_Int_Tables_number   1
_chemical_formula_structural   ErAlZn
_chemical_formula_sum   'Er2 Al2 Zn2'
_cell_volume   119.47484034
_cell_formula_units_Z   2
loop_
 _symmetry_equiv_pos_site_id
 _symmetry_equiv_pos_as_xyz
  1  'x, y, z'
loop_
 _atom_site_type_symbol
 _atom_site_label
 _atom_site_symmetry_multiplicity
 _atom_site_fract_x
 _atom_site_fract_y
 _atom_site_fract_z
 _atom_site_occupancy
  Er  Er0  1  0.00000000  -0.00000000  0.50000000  1
  Er  Er1  1  0.00000000  -0.00000000  0.00000000  1
  Al  Al0  1  0.33333300  0.66666700  0.25000000  1
  Al  Al1  1  0.66666700  0.33333300  0.75000000  1
  Zn  Zn0  1  0.33333300  0.66666700  0.75000000  1
  Zn  Zn1  1  0.66666700  0.33333300  0.25000000  1
loop_
_geom_bond_atom_site_label_1
_geom_bond_atom_site_label_2
_geom_bond_distance
_geom_bond_site_symmetry_2
Er0 Zn1 3.103010 1_455
Er0 Zn0 3.103010 1_545
Er0 Zn0 3.103014 1_445
Er0 Zn0 3.103014 1_555
Er0 Zn1 3.103014 1_445
Er0 Zn1 3.103014 1_555
Er0 Er1 3.531512 1_556
Er0 Er1 3.531512 1_555
Er1 Zn1 3.103010 1_455
Er1 Zn0 3.103010 1_544
Er1 Zn0 3.103014 1_444
Er1 Zn1 3.103014 1_555
Er1 Zn1 3.103014 1_445
Er1 Zn0 3.103014 1_554
Al0 Zn1 2.551623 1_455
Al0 Zn1 2.551623 1_565
Al0 Zn1 2.551631 1_555
Al0 Er1 3.103010 1_565
Al0 Er0 3.103010 1_565
Al0 Er0 3.103014 1_665
Al0 Er1 3.103014 1_665
Al0 Er1 3.103014 1_555
Al0 Er0 3.103014 1_555
Al1 Zn0 2.551623 1_545
Al1 Zn0 2.551623 1_655
Al1 Zn0 2.551631 1_555
Al1 Er0 3.103010 1_655
Al1 Er1 3.103010 1_656
Al1 Er0 3.103014 1_665
Al1 Er1 3.103014 1_666
Al1 Er1 3.103014 1_556
Al1 Er0 3.103014 1_555
