# generated using pymatgen
data_ThCd2
_symmetry_space_group_name_H-M   'P 1'
_cell_length_a   10.17892188
_cell_length_b   10.17892072
_cell_length_c   6.77929458
_cell_angle_alpha   90.00000000
_cell_angle_beta   90.00000000
_cell_angle_gamma   119.99999027
_symmetry_Int_Tables_number   1
_chemical_formula_structural   ThCd2
_chemical_formula_sum   'Th8 Cd16'
_cell_volume   608.30122776
_cell_formula_units_Z   8
loop_
 _symmetry_equiv_pos_site_id
 _symmetry_equiv_pos_as_xyz
  1  'x, y, z'
loop_
 _atom_site_type_symbol
 _atom_site_label
 _atom_site_symmetry_multiplicity
 _atom_site_fract_x
 _atom_site_fract_y
 _atom_site_fract_z
 _atom_site_occupancy
  Th  Th0_0  1  0.00000000  0.00000000  0.00000000  1
  Th  Th0_1  1  0.00000000  0.00000000  0.50000000  1
  Th  Th0_2  1  0.00000000  0.50000000  0.00000000  1
  Th  Th0_3  1  0.00000000  0.50000000  0.50000000  1
  Th  Th0_4  1  0.50000000  0.00000000  0.00000000  1
  Th  Th0_5  1  0.50000000  0.00000000  0.50000000  1
  Th  Th0_6  1  0.50000000  0.50000000  0.00000000  1
  Th  Th0_7  1  0.50000000  0.50000000  0.50000000  1
  Cd  Cd0_0  1  0.16666650  0.33333350  0.25000000  1
  Cd  Cd0_1  1  0.16666650  0.33333350  0.75000000  1
  Cd  Cd0_2  1  0.16666650  0.83333350  0.25000000  1
  Cd  Cd0_3  1  0.16666650  0.83333350  0.75000000  1
  Cd  Cd0_4  1  0.66666650  0.33333350  0.25000000  1
  Cd  Cd0_5  1  0.66666650  0.33333350  0.75000000  1
  Cd  Cd0_6  1  0.66666650  0.83333350  0.25000000  1
  Cd  Cd0_7  1  0.66666650  0.83333350  0.75000000  1
  Cd  Cd1_0  1  0.33333350  0.16666650  0.25000000  1
  Cd  Cd1_1  1  0.33333350  0.16666650  0.75000000  1
  Cd  Cd1_2  1  0.33333350  0.66666650  0.25000000  1
  Cd  Cd1_3  1  0.33333350  0.66666650  0.75000000  1
  Cd  Cd1_4  1  0.83333350  0.16666650  0.25000000  1
  Cd  Cd1_5  1  0.83333350  0.16666650  0.75000000  1
  Cd  Cd1_6  1  0.83333350  0.66666650  0.25000000  1
  Cd  Cd1_7  1  0.83333350  0.66666650  0.75000000  1
loop_
_geom_bond_atom_site_label_1
_geom_bond_atom_site_label_2
_geom_bond_distance
_geom_bond_site_symmetry_2
Th0_0 Th0_1 3.389647 1_555
Th0_0 Th0_1 3.389647 1_554
Th0_2 Th0_3 3.389647 1_555
Th0_2 Th0_3 3.389647 1_554
Th0_4 Th0_5 3.389647 1_555
Th0_4 Th0_5 3.389647 1_554
Th0_6 Th0_7 3.389647 1_555
Th0_6 Th0_7 3.389647 1_554
Cd0_0 Cd1_2 2.938399 1_555
Cd0_0 Cd1_4 2.938399 1_455
Cd0_0 Cd1_0 2.938407 1_555
Cd0_0 Cd0_1 3.389647 1_555
Cd0_0 Cd0_1 3.389647 1_554
Cd0_0 Th0_3 3.392140 1_555
Cd0_0 Th0_2 3.392140 1_555
Cd0_0 Th0_1 3.392144 1_555
Cd0_0 Th0_0 3.392144 1_555
Cd0_0 Th0_6 3.392144 1_555
Cd0_0 Th0_7 3.392144 1_555
Cd0_1 Cd1_3 2.938399 1_555
Cd0_1 Cd1_5 2.938399 1_455
Cd0_1 Cd1_1 2.938407 1_555
Cd0_1 Th0_2 3.392140 1_556
Cd0_1 Th0_3 3.392140 1_555
Cd0_1 Th0_1 3.392144 1_555
Cd0_1 Th0_0 3.392144 1_556
Cd0_1 Th0_6 3.392144 1_556
Cd0_1 Th0_7 3.392144 1_555
Cd0_2 Cd1_0 2.938399 1_565
Cd0_2 Cd1_6 2.938399 1_455
Cd0_2 Cd1_2 2.938407 1_555
Cd0_2 Cd0_3 3.389647 1_555
Cd0_2 Cd0_3 3.389647 1_554
Cd0_2 Th0_0 3.392140 1_565
Cd0_2 Th0_1 3.392140 1_565
Cd0_2 Th0_3 3.392144 1_555
Cd0_2 Th0_2 3.392144 1_555
Cd0_2 Th0_4 3.392144 1_565
Cd0_2 Th0_5 3.392144 1_565
Cd0_3 Cd1_1 2.938399 1_565
Cd0_3 Cd1_7 2.938399 1_455
Cd0_3 Cd1_3 2.938407 1_555
Cd0_3 Th0_0 3.392140 1_566
Cd0_3 Th0_1 3.392140 1_565
Cd0_3 Th0_2 3.392144 1_556
Cd0_3 Th0_3 3.392144 1_555
Cd0_3 Th0_5 3.392144 1_565
Cd0_3 Th0_4 3.392144 1_566
Cd0_4 Cd1_6 2.938399 1_555
Cd0_4 Cd1_0 2.938399 1_555
Cd0_4 Cd1_4 2.938407 1_555
Cd0_4 Cd0_5 3.389647 1_555
Cd0_4 Cd0_5 3.389647 1_554
Cd0_4 Th0_7 3.392140 1_555
Cd0_4 Th0_6 3.392140 1_555
Cd0_4 Th0_5 3.392144 1_555
Cd0_4 Th0_4 3.392144 1_555
Cd0_4 Th0_2 3.392144 1_655
Cd0_4 Th0_3 3.392144 1_655
Cd0_5 Cd1_7 2.938399 1_555
Cd0_5 Cd1_1 2.938399 1_555
Cd0_5 Cd1_5 2.938407 1_555
Cd0_5 Th0_6 3.392140 1_556
Cd0_5 Th0_7 3.392140 1_555
Cd0_5 Th0_4 3.392144 1_556
Cd0_5 Th0_5 3.392144 1_555
Cd0_5 Th0_2 3.392144 1_656
Cd0_5 Th0_3 3.392144 1_655
Cd0_6 Cd1_4 2.938399 1_565
Cd0_6 Cd1_2 2.938399 1_555
Cd0_6 Cd1_6 2.938407 1_555
Cd0_6 Cd0_7 3.389647 1_555
Cd0_6 Cd0_7 3.389647 1_554
Cd0_6 Th0_4 3.392140 1_565
Cd0_6 Th0_5 3.392140 1_565
Cd0_6 Th0_6 3.392144 1_555
Cd0_6 Th0_7 3.392144 1_555
Cd0_6 Th0_1 3.392144 1_665
Cd0_6 Th0_0 3.392144 1_665
Cd0_7 Cd1_5 2.938399 1_565
Cd0_7 Cd1_3 2.938399 1_555
Cd0_7 Cd1_7 2.938407 1_555
Cd0_7 Th0_4 3.392140 1_566
Cd0_7 Th0_5 3.392140 1_565
Cd0_7 Th0_6 3.392144 1_556
Cd0_7 Th0_7 3.392144 1_555
Cd0_7 Th0_1 3.392144 1_665
Cd0_7 Th0_0 3.392144 1_666
Cd1_0 Cd1_1 3.389647 1_554
Cd1_0 Cd1_1 3.389647 1_555
Cd1_0 Th0_5 3.392140 1_555
Cd1_0 Th0_4 3.392140 1_555
Cd1_0 Th0_6 3.392144 1_555
Cd1_0 Th0_7 3.392144 1_555
Cd1_0 Th0_0 3.392144 1_555
Cd1_0 Th0_1 3.392144 1_555
Cd1_1 Th0_4 3.392140 1_556
Cd1_1 Th0_5 3.392140 1_555
Cd1_1 Th0_6 3.392144 1_556
Cd1_1 Th0_7 3.392144 1_555
Cd1_1 Th0_0 3.392144 1_556
Cd1_1 Th0_1 3.392144 1_555
Cd1_2 Cd1_3 3.389647 1_555
Cd1_2 Cd1_3 3.389647 1_554
Cd1_2 Th0_7 3.392140 1_555
Cd1_2 Th0_6 3.392140 1_555
Cd1_2 Th0_4 3.392144 1_565
Cd1_2 Th0_5 3.392144 1_565
Cd1_2 Th0_3 3.392144 1_555
Cd1_2 Th0_2 3.392144 1_555
Cd1_3 Th0_6 3.392140 1_556
Cd1_3 Th0_7 3.392140 1_555
Cd1_3 Th0_4 3.392144 1_566
Cd1_3 Th0_5 3.392144 1_565
Cd1_3 Th0_3 3.392144 1_555
Cd1_3 Th0_2 3.392144 1_556
Cd1_4 Cd1_5 3.389647 1_555
Cd1_4 Cd1_5 3.389647 1_554
Cd1_4 Th0_0 3.392140 1_655
Cd1_4 Th0_1 3.392140 1_655
Cd1_4 Th0_2 3.392144 1_655
Cd1_4 Th0_3 3.392144 1_655
Cd1_4 Th0_4 3.392144 1_555
Cd1_4 Th0_5 3.392144 1_555
Cd1_5 Th0_0 3.392140 1_656
Cd1_5 Th0_1 3.392140 1_655
Cd1_5 Th0_2 3.392144 1_656
Cd1_5 Th0_3 3.392144 1_655
Cd1_5 Th0_4 3.392144 1_556
Cd1_5 Th0_5 3.392144 1_555
Cd1_6 Cd1_7 3.389647 1_554
Cd1_6 Cd1_7 3.389647 1_555
Cd1_6 Th0_2 3.392140 1_655
Cd1_6 Th0_3 3.392140 1_655
Cd1_6 Th0_1 3.392144 1_665
Cd1_6 Th0_0 3.392144 1_665
Cd1_6 Th0_6 3.392144 1_555
Cd1_6 Th0_7 3.392144 1_555
Cd1_7 Th0_2 3.392140 1_656
Cd1_7 Th0_3 3.392140 1_655
Cd1_7 Th0_0 3.392144 1_666
Cd1_7 Th0_1 3.392144 1_665
Cd1_7 Th0_7 3.392144 1_555
Cd1_7 Th0_6 3.392144 1_556
