# generated using pymatgen
data_La2Ni2I
_symmetry_space_group_name_H-M   'P 1'
_cell_length_a   4.12078306
_cell_length_b   4.12078306
_cell_length_c   17.72346694
_cell_angle_alpha   90.00000000
_cell_angle_beta   90.00000000
_cell_angle_gamma   119.99999709
_symmetry_Int_Tables_number   1
_chemical_formula_structural   La2Ni2I
_chemical_formula_sum   'La4 Ni4 I2'
_cell_volume   260.63865555
_cell_formula_units_Z   2
loop_
 _symmetry_equiv_pos_site_id
 _symmetry_equiv_pos_as_xyz
  1  'x, y, z'
loop_
 _atom_site_type_symbol
 _atom_site_label
 _atom_site_symmetry_multiplicity
 _atom_site_fract_x
 _atom_site_fract_y
 _atom_site_fract_z
 _atom_site_occupancy
  La  La0  1  0.00000000  -0.00000000  0.10385419  1
  La  La1  1  0.00000000  -0.00000000  0.89621077  1
  La  La2  1  0.00000000  -0.00000000  0.60363191  1
  La  La3  1  0.00000000  -0.00000000  0.39630242  1
  Ni  Ni0  1  0.33333300  0.66666700  0.50066486  1
  Ni  Ni1  1  0.66666700  0.33333300  0.49915568  1
  Ni  Ni2  1  0.66666700  0.33333300  0.00085110  1
  Ni  Ni3  1  0.33333300  0.66666700  0.99934893  1
  I  I0  1  0.33333300  0.66666700  0.25021973  1
  I  I1  1  0.66666700  0.33333300  0.74976041  1
loop_
_geom_bond_atom_site_label_1
_geom_bond_atom_site_label_2
_geom_bond_distance
_geom_bond_site_symmetry_2
La0 Ni2 2.998831 1_455
La0 Ni2 2.998834 1_555
La0 Ni2 2.998834 1_445
La0 Ni3 3.015112 1_544
La0 Ni3 3.015115 1_554
La0 Ni3 3.015115 1_444
La1 Ni3 3.000289 1_545
La1 Ni3 3.000292 1_445
La1 Ni3 3.000292 1_555
La1 Ni2 3.016583 1_456
La1 Ni2 3.016586 1_556
La1 Ni2 3.016586 1_446
La2 Ni0 2.998442 1_545
La2 Ni0 2.998445 1_555
La2 Ni0 2.998445 1_445
La2 Ni1 3.014796 1_455
La2 Ni1 3.014799 1_445
La2 Ni1 3.014799 1_555
La3 Ni1 2.997215 1_455
La3 Ni1 2.997218 1_445
La3 Ni1 2.997218 1_555
La3 Ni0 3.013558 1_545
La3 Ni0 3.013561 1_555
La3 Ni0 3.013561 1_445
Ni0 Ni1 2.379283 1_455
Ni0 Ni1 2.379283 1_565
Ni0 Ni1 2.379290 1_555
Ni2 Ni3 2.379282 1_544
Ni2 Ni3 2.379282 1_654
Ni2 Ni3 2.379289 1_554
I0 La3 3.516201 1_565
I0 La3 3.516203 1_555
I0 La3 3.516203 1_665
I0 La0 3.519894 1_565
I0 La0 3.519896 1_665
I0 La0 3.519896 1_555
I1 La2 3.516799 1_655
I1 La2 3.516801 1_665
I1 La2 3.516801 1_555
I1 La1 3.521002 1_655
I1 La1 3.521004 1_555
I1 La1 3.521004 1_665
