# generated using pymatgen
data_CrN
_symmetry_space_group_name_H-M   'P 1'
_cell_length_a   2.93204302
_cell_length_b   8.26930600
_cell_length_c   2.93256274
_cell_angle_alpha   89.99952057
_cell_angle_beta   89.99523330
_cell_angle_gamma   89.99955967
_symmetry_Int_Tables_number   1
_chemical_formula_structural   CrN
_chemical_formula_sum   'Cr4 N4'
_cell_volume   71.10280145
_cell_formula_units_Z   4
loop_
 _symmetry_equiv_pos_site_id
 _symmetry_equiv_pos_as_xyz
  1  'x, y, z'
loop_
 _atom_site_type_symbol
 _atom_site_label
 _atom_site_symmetry_multiplicity
 _atom_site_fract_x
 _atom_site_fract_y
 _atom_site_fract_z
 _atom_site_occupancy
  Cr  Cr0  1  0.50026200  0.74013600  0.50026500  1
  Cr  Cr1  1  0.00011400  0.00995900  0.00012100  1
  Cr  Cr2  1  0.50006300  0.24007900  0.50005600  1
  Cr  Cr3  1  0.99992100  0.50990000  0.99991600  1
  N  N0  1  0.99984400  0.75753900  0.99983800  1
  N  N1  1  0.49974300  0.99232200  0.49974000  1
  N  N2  1  0.00007100  0.25756100  0.00007600  1
  N  N3  1  0.49998200  0.49250400  0.49998800  1
loop_
_geom_bond_atom_site_label_1
_geom_bond_atom_site_label_2
_geom_bond_distance
_geom_bond_site_symmetry_2
Cr0 N3 2.047745 1_555
Cr0 N0 2.076779 1_555
Cr0 N0 2.078335 1_455
Cr0 N0 2.078373 1_554
Cr0 N0 2.080272 1_454
Cr0 N1 2.085404 1_555
Cr1 N2 2.047497 1_555
Cr1 N1 2.077103 1_545
Cr1 N1 2.078468 1_445
Cr1 N1 2.078510 1_544
Cr1 N1 2.080217 1_444
Cr1 N0 2.087339 1_444
Cr2 N1 2.048779 1_545
Cr2 N2 2.078374 1_655
Cr2 N2 2.078424 1_556
Cr2 N2 2.078511 1_555
Cr2 N2 2.078630 1_656
Cr2 N3 2.087380 1_555
Cr3 N0 2.047803 1_555
Cr3 N3 2.078248 1_555
Cr3 N3 2.078327 1_655
Cr3 N3 2.078372 1_556
Cr3 N3 2.078795 1_656
Cr3 N2 2.086668 1_656
