# generated using pymatgen
data_CaSbO3
_symmetry_space_group_name_H-M   'P 1'
_cell_length_a   5.68246100
_cell_length_b   5.90012400
_cell_length_c   8.16497700
_cell_angle_alpha   90.00000000
_cell_angle_beta   90.00000000
_cell_angle_gamma   90.00000000
_symmetry_Int_Tables_number   1
_chemical_formula_structural   CaSbO3
_chemical_formula_sum   'Ca4 Sb4 O12'
_cell_volume   273.74901712
_cell_formula_units_Z   4
loop_
 _symmetry_equiv_pos_site_id
 _symmetry_equiv_pos_as_xyz
  1  'x, y, z'
loop_
 _atom_site_type_symbol
 _atom_site_label
 _atom_site_symmetry_multiplicity
 _atom_site_fract_x
 _atom_site_fract_y
 _atom_site_fract_z
 _atom_site_occupancy
  Ca  Ca0  1  0.48758000  0.55450200  0.25000000  1
  Ca  Ca1  1  0.98758000  0.94549800  0.75000000  1
  Ca  Ca2  1  0.01242000  0.05450200  0.25000000  1
  Ca  Ca3  1  0.51242000  0.44549800  0.75000000  1
  Sb  Sb0  1  0.00000000  0.50000000  0.00000000  1
  Sb  Sb1  1  0.50000000  0.00000000  0.00000000  1
  Sb  Sb2  1  0.50000000  0.00000000  0.50000000  1
  Sb  Sb3  1  0.00000000  0.50000000  0.50000000  1
  O  O0  1  0.38872800  0.04756100  0.75000000  1
  O  O1  1  0.88872800  0.45243900  0.25000000  1
  O  O2  1  0.11127200  0.54756100  0.75000000  1
  O  O3  1  0.61127200  0.95243900  0.25000000  1
  O  O4  1  0.19314500  0.80335400  0.44238000  1
  O  O5  1  0.69314500  0.69664600  0.55762000  1
  O  O6  1  0.30685500  0.30335400  0.05762000  1
  O  O7  1  0.80685500  0.19664600  0.94238000  1
  O  O8  1  0.19314500  0.80335400  0.05762000  1
  O  O9  1  0.69314500  0.69664600  0.94238000  1
  O  O10  1  0.80685500  0.19664600  0.55762000  1
  O  O11  1  0.30685500  0.30335400  0.44238000  1
loop_
_geom_bond_atom_site_label_1
_geom_bond_atom_site_label_2
_geom_bond_distance
_geom_bond_site_symmetry_2
Ca0 O1 2.357707 1_555
Ca0 O6 2.391180 1_555
Ca0 O11 2.391180 1_555
Ca0 O3 2.450829 1_555
Ca0 O8 2.724416 1_555
Ca0 O4 2.724416 1_555
Ca0 O9 2.894226 1_554
Ca0 O5 2.894226 1_555
Ca1 O0 2.357707 1_665
Ca1 O10 2.391180 1_565
Ca1 O7 2.391180 1_565
Ca1 O2 2.450829 1_655
Ca1 O5 2.724416 1_555
Ca1 O9 2.724416 1_555
Ca1 O4 2.894226 1_655
Ca1 O8 2.894226 1_656
Ca2 O3 2.357707 1_445
Ca2 O8 2.391180 1_545
Ca2 O4 2.391180 1_545
Ca2 O1 2.450829 1_455
Ca2 O6 2.724416 1_555
Ca2 O11 2.724416 1_555
Ca2 O7 2.894226 1_454
Ca2 O10 2.894226 1_455
Ca3 O2 2.357707 1_555
Ca3 O5 2.391180 1_555
Ca3 O9 2.391180 1_555
Ca3 O0 2.450829 1_555
Ca3 O10 2.724416 1_555
Ca3 O7 2.724416 1_555
Ca3 O11 2.894226 1_555
Ca3 O6 2.894226 1_556
O0 Sb2 2.155278 1_555
O0 Sb1 2.155278 1_556
O1 Sb0 2.155278 1_655
O1 Sb3 2.155278 1_655
O2 Sb0 2.155278 1_556
O2 Sb3 2.155278 1_555
O3 Sb1 2.155278 1_565
O3 Sb2 2.155278 1_565
O4 Sb2 2.146613 1_565
O4 Sb3 2.151606 1_555
O5 Sb3 2.146613 1_655
O5 Sb2 2.151606 1_565
O6 Sb0 2.146613 1_555
O6 Sb1 2.151606 1_555
O7 Sb1 2.146613 1_556
O7 Sb0 2.151606 1_656
O8 Sb1 2.146613 1_565
O8 Sb0 2.151606 1_555
O9 Sb0 2.146613 1_656
O9 Sb1 2.151606 1_566
O10 Sb2 2.146613 1_555
O10 Sb3 2.151606 1_655
O11 Sb3 2.146613 1_555
O11 Sb2 2.151606 1_555
