# generated using pymatgen
data_Mg14NbW
_symmetry_space_group_name_H-M   'P 1'
_cell_length_a   6.27138766
_cell_length_b   6.27138717
_cell_length_c   9.91770071
_cell_angle_alpha   90.00000000
_cell_angle_beta   90.00000000
_cell_angle_gamma   120.00000256
_symmetry_Int_Tables_number   1
_chemical_formula_structural   Mg14NbW
_chemical_formula_sum   'Mg14 Nb1 W1'
_cell_volume   337.80718253
_cell_formula_units_Z   1
loop_
 _symmetry_equiv_pos_site_id
 _symmetry_equiv_pos_as_xyz
  1  'x, y, z'
loop_
 _atom_site_type_symbol
 _atom_site_label
 _atom_site_symmetry_multiplicity
 _atom_site_fract_x
 _atom_site_fract_y
 _atom_site_fract_z
 _atom_site_occupancy
  Mg  Mg0  1  0.17061911  0.83530905  0.12500000  1
  Mg  Mg1  1  0.16792604  0.83396252  0.62500000  1
  Mg  Mg2  1  0.66469095  0.32938089  0.12500000  1
  Mg  Mg3  1  0.66603748  0.33207396  0.62500000  1
  Mg  Mg4  1  0.66469095  0.83530905  0.12500000  1
  Mg  Mg5  1  0.66603748  0.83396252  0.62500000  1
  Mg  Mg6  1  0.32492134  0.17507866  0.37865994  1
  Mg  Mg7  1  0.32492134  0.17507866  0.87134006  1
  Mg  Mg8  1  0.32492134  0.64984369  0.37865994  1
  Mg  Mg9  1  0.32492134  0.64984369  0.87134006  1
  Mg  Mg10  1  0.85015631  0.17507866  0.37865994  1
  Mg  Mg11  1  0.85015631  0.17507866  0.87134006  1
  Mg  Mg12  1  0.83333300  0.66666700  0.37330720  1
  Mg  Mg13  1  0.83333300  0.66666700  0.87669280  1
  Nb  Nb0  1  0.16666700  0.33333300  0.12500000  1
  W  W0  1  0.16666700  0.33333300  0.62500000  1
loop_
_geom_bond_atom_site_label_1
_geom_bond_atom_site_label_2
_geom_bond_distance
_geom_bond_site_symmetry_2
Mg0 Mg13 3.069250 1_454
Mg0 Mg12 3.069250 1_455
Mg0 Mg2 3.098516 1_565
Mg0 Mg4 3.098516 1_555
Mg0 Mg8 3.121488 1_555
Mg0 Mg9 3.121488 1_554
Mg0 Mg6 3.121495 1_565
Mg0 Mg7 3.121495 1_564
Mg0 Nb0 3.135767 1_555
Mg0 Nb0 3.135767 1_565
Mg0 Mg2 3.172871 1_455
Mg0 Mg4 3.172872 1_455
Mg1 Mg9 3.067316 1_555
Mg1 Mg8 3.067316 1_555
Mg1 Mg7 3.067322 1_565
Mg1 Mg6 3.067322 1_565
Mg1 Mg12 3.087625 1_455
Mg1 Mg13 3.087625 1_455
Mg1 W0 3.135701 1_555
Mg1 W0 3.135701 1_565
Mg2 Mg4 3.098516 1_545
Mg2 Mg6 3.121495 1_555
Mg2 Mg7 3.121495 1_554
Mg2 Nb0 3.135767 1_655
Mg2 Nb0 3.135767 1_555
Mg2 Mg4 3.172871 1_555
Mg3 Mg6 3.067322 1_555
Mg3 Mg7 3.067322 1_555
Mg3 W0 3.135701 1_655
Mg3 W0 3.135701 1_555
Mg4 Mg8 3.121495 1_555
Mg4 Mg9 3.121495 1_554
Mg4 Nb0 3.135767 1_555
Mg4 Nb0 3.135767 1_665
Mg5 Mg9 3.067322 1_555
Mg5 Mg8 3.067322 1_555
Mg5 W0 3.135701 1_555
Mg5 W0 3.135701 1_665
Mg6 Mg8 2.977435 1_555
Mg6 W0 2.987287 1_555
Mg6 Nb0 3.046946 1_555
Mg6 Mg8 3.293952 1_545
Mg7 Mg9 2.977435 1_555
Mg7 W0 2.987287 1_555
Mg7 Nb0 3.046946 1_556
Mg7 Mg9 3.293952 1_545
Mg8 W0 2.987293 1_555
Mg8 Nb0 3.046952 1_555
Mg9 W0 2.987293 1_555
Mg9 Nb0 3.046952 1_556
Mg10 Mg8 2.977435 1_655
Mg10 Mg6 2.977436 1_655
Mg10 W0 2.987294 1_655
Mg10 Nb0 3.046952 1_655
Mg10 Mg3 3.067316 1_555
Mg10 Mg5 3.067322 1_545
Mg10 Mg2 3.121488 1_555
Mg10 Mg4 3.121495 1_545
Mg10 Mg12 3.137474 1_555
Mg10 Mg12 3.137474 1_545
Mg10 Mg8 3.293952 1_545
Mg10 Mg6 3.293952 1_555
Mg11 Mg9 2.977435 1_655
Mg11 Mg7 2.977436 1_655
Mg11 W0 2.987294 1_655
Mg11 Nb0 3.046952 1_656
Mg11 Mg3 3.067316 1_555
Mg11 Mg5 3.067322 1_545
Mg11 Mg2 3.121488 1_556
Mg11 Mg4 3.121495 1_546
Mg11 Mg13 3.137474 1_555
Mg11 Mg13 3.137474 1_545
Mg11 Mg9 3.293952 1_545
Mg11 Mg7 3.293952 1_555
Mg12 Mg4 3.069244 1_555
Mg12 Mg2 3.069250 1_555
Mg12 Mg5 3.087619 1_555
Mg12 Mg3 3.087625 1_555
Mg12 Mg6 3.137474 1_665
Mg12 Mg6 3.137474 1_555
Mg12 Mg8 3.137474 1_655
Mg12 Mg8 3.137474 1_555
Mg13 Mg4 3.069244 1_556
Mg13 Mg2 3.069250 1_556
Mg13 Mg5 3.087619 1_555
Mg13 Mg3 3.087625 1_555
Mg13 Mg7 3.137474 1_665
Mg13 Mg7 3.137474 1_555
Mg13 Mg9 3.137474 1_655
Mg13 Mg9 3.137474 1_555
