# generated using pymatgen
data_HfZrNb2
_symmetry_space_group_name_H-M   'P 1'
_cell_length_a   6.03461363
_cell_length_b   6.03461363
_cell_length_c   19.49224600
_cell_angle_alpha   90.00000000
_cell_angle_beta   90.00000000
_cell_angle_gamma   112.25737384
_symmetry_Int_Tables_number   1
_chemical_formula_structural   HfZrNb2
_chemical_formula_sum   'Hf8 Zr8 Nb16'
_cell_volume   656.95160941
_cell_formula_units_Z   8
loop_
 _symmetry_equiv_pos_site_id
 _symmetry_equiv_pos_as_xyz
  1  'x, y, z'
loop_
 _atom_site_type_symbol
 _atom_site_label
 _atom_site_symmetry_multiplicity
 _atom_site_fract_x
 _atom_site_fract_y
 _atom_site_fract_z
 _atom_site_occupancy
  Hf  Hf0_0  1  0.00000000  0.00000000  0.01004050  1
  Hf  Hf0_1  1  0.00000000  0.00000000  0.51004050  1
  Hf  Hf0_2  1  0.00000000  0.50000000  0.01004050  1
  Hf  Hf0_3  1  0.00000000  0.50000000  0.51004050  1
  Hf  Hf0_4  1  0.50000000  0.00000000  0.01004050  1
  Hf  Hf0_5  1  0.50000000  0.00000000  0.51004050  1
  Hf  Hf0_6  1  0.50000000  0.50000000  0.01004050  1
  Hf  Hf0_7  1  0.50000000  0.50000000  0.51004050  1
  Zr  Zr0_0  1  0.25000000  0.25000000  0.36637750  1
  Zr  Zr0_1  1  0.25000000  0.25000000  0.86637750  1
  Zr  Zr0_2  1  0.25000000  0.75000000  0.36637750  1
  Zr  Zr0_3  1  0.25000000  0.75000000  0.86637750  1
  Zr  Zr0_4  1  0.75000000  0.25000000  0.36637750  1
  Zr  Zr0_5  1  0.75000000  0.25000000  0.86637750  1
  Zr  Zr0_6  1  0.75000000  0.75000000  0.36637750  1
  Zr  Zr0_7  1  0.75000000  0.75000000  0.86637750  1
  Nb  Nb0_0  1  0.00000000  0.00000000  0.24234650  1
  Nb  Nb0_1  1  0.00000000  0.00000000  0.74234650  1
  Nb  Nb0_2  1  0.00000000  0.50000000  0.24234650  1
  Nb  Nb0_3  1  0.00000000  0.50000000  0.74234650  1
  Nb  Nb0_4  1  0.50000000  0.00000000  0.24234650  1
  Nb  Nb0_5  1  0.50000000  0.00000000  0.74234650  1
  Nb  Nb0_6  1  0.50000000  0.50000000  0.24234650  1
  Nb  Nb0_7  1  0.50000000  0.50000000  0.74234650  1
  Nb  Nb1_0  1  0.25000000  0.25000000  0.13123600  1
  Nb  Nb1_1  1  0.25000000  0.25000000  0.63123600  1
  Nb  Nb1_2  1  0.25000000  0.75000000  0.13123600  1
  Nb  Nb1_3  1  0.25000000  0.75000000  0.63123600  1
  Nb  Nb1_4  1  0.75000000  0.25000000  0.13123600  1
  Nb  Nb1_5  1  0.75000000  0.25000000  0.63123600  1
  Nb  Nb1_6  1  0.75000000  0.75000000  0.13123600  1
  Nb  Nb1_7  1  0.75000000  0.75000000  0.63123600  1
loop_
_geom_bond_atom_site_label_1
_geom_bond_atom_site_label_2
_geom_bond_distance
_geom_bond_site_symmetry_2
Hf0_0 Nb1_6 2.899775 1_445
Hf0_0 Nb1_0 2.899775 1_555
Hf0_0 Hf0_2 3.017307 1_555
Hf0_0 Hf0_4 3.017307 1_555
Hf0_0 Hf0_4 3.017307 1_455
Hf0_0 Hf0_2 3.017307 1_545
Hf0_0 Zr0_7 3.266444 1_444
Hf0_0 Zr0_1 3.266444 1_554
Hf0_1 Nb1_7 2.899775 1_445
Hf0_1 Nb1_1 2.899775 1_555
Hf0_1 Hf0_3 3.017307 1_555
Hf0_1 Hf0_5 3.017307 1_455
Hf0_1 Hf0_3 3.017307 1_545
Hf0_1 Hf0_5 3.017307 1_555
Hf0_1 Zr0_6 3.266444 1_445
Hf0_1 Zr0_0 3.266444 1_555
Hf0_2 Nb1_4 2.899775 1_455
Hf0_2 Nb1_2 2.899775 1_555
Hf0_2 Hf0_6 3.017307 1_455
Hf0_2 Hf0_6 3.017307 1_555
Hf0_2 Zr0_3 3.266444 1_554
Hf0_2 Zr0_5 3.266444 1_454
Hf0_3 Nb1_3 2.899775 1_555
Hf0_3 Nb1_5 2.899775 1_455
Hf0_3 Hf0_7 3.017307 1_455
Hf0_3 Hf0_7 3.017307 1_555
Hf0_3 Zr0_4 3.266444 1_455
Hf0_3 Zr0_2 3.266444 1_555
Hf0_4 Nb1_2 2.899775 1_545
Hf0_4 Nb1_4 2.899775 1_555
Hf0_4 Hf0_6 3.017307 1_555
Hf0_4 Hf0_6 3.017307 1_545
Hf0_4 Zr0_3 3.266444 1_544
Hf0_4 Zr0_5 3.266444 1_554
Hf0_5 Nb1_5 2.899775 1_555
Hf0_5 Nb1_3 2.899775 1_545
Hf0_5 Hf0_7 3.017307 1_555
Hf0_5 Hf0_7 3.017307 1_545
Hf0_5 Zr0_2 3.266444 1_545
Hf0_5 Zr0_4 3.266444 1_555
Hf0_6 Nb1_0 2.899775 1_555
Hf0_6 Nb1_6 2.899775 1_555
Hf0_6 Zr0_1 3.266444 1_554
Hf0_6 Zr0_7 3.266444 1_554
Hf0_7 Nb1_7 2.899775 1_555
Hf0_7 Nb1_1 2.899775 1_555
Hf0_7 Zr0_0 3.266444 1_555
Hf0_7 Zr0_6 3.266444 1_555
Zr0_0 Zr0_2 3.017307 1_555
Zr0_0 Zr0_4 3.017307 1_455
Zr0_0 Zr0_4 3.017307 1_555
Zr0_0 Zr0_2 3.017307 1_545
Zr0_1 Zr0_3 3.017307 1_555
Zr0_1 Zr0_5 3.017307 1_455
Zr0_1 Zr0_5 3.017307 1_555
Zr0_1 Zr0_3 3.017307 1_545
Zr0_2 Zr0_6 3.017307 1_555
Zr0_2 Zr0_6 3.017307 1_455
Zr0_3 Zr0_7 3.017307 1_555
Zr0_3 Zr0_7 3.017307 1_455
Zr0_4 Zr0_6 3.017307 1_545
Zr0_4 Zr0_6 3.017307 1_555
Zr0_5 Zr0_7 3.017307 1_545
Zr0_5 Zr0_7 3.017307 1_555
Nb0_0 Nb1_6 2.741998 1_445
Nb0_0 Nb1_0 2.741998 1_555
Nb0_0 Zr0_6 2.944977 1_445
Nb0_0 Zr0_0 2.944977 1_555
Nb0_0 Nb0_2 3.017307 1_555
Nb0_0 Nb0_4 3.017307 1_455
Nb0_0 Nb0_2 3.017307 1_545
Nb0_0 Nb0_4 3.017307 1_555
Nb0_1 Nb1_7 2.741998 1_445
Nb0_1 Nb1_1 2.741998 1_555
Nb0_1 Zr0_1 2.944977 1_555
Nb0_1 Zr0_7 2.944977 1_445
Nb0_1 Nb0_3 3.017307 1_555
Nb0_1 Nb0_3 3.017307 1_545
Nb0_1 Nb0_5 3.017307 1_455
Nb0_1 Nb0_5 3.017307 1_555
Nb0_2 Nb1_4 2.741998 1_455
Nb0_2 Nb1_2 2.741998 1_555
Nb0_2 Zr0_2 2.944977 1_555
Nb0_2 Zr0_4 2.944977 1_455
Nb0_2 Nb0_6 3.017307 1_455
Nb0_2 Nb0_6 3.017307 1_555
Nb0_3 Nb1_3 2.741998 1_555
Nb0_3 Nb1_5 2.741998 1_455
Nb0_3 Zr0_3 2.944977 1_555
Nb0_3 Zr0_5 2.944977 1_455
Nb0_3 Nb0_7 3.017307 1_455
Nb0_3 Nb0_7 3.017307 1_555
Nb0_4 Nb1_4 2.741998 1_555
Nb0_4 Nb1_2 2.741998 1_545
Nb0_4 Zr0_2 2.944977 1_545
Nb0_4 Zr0_4 2.944977 1_555
Nb0_4 Nb0_6 3.017307 1_555
Nb0_4 Nb0_6 3.017307 1_545
Nb0_5 Nb1_3 2.741998 1_545
Nb0_5 Nb1_5 2.741998 1_555
Nb0_5 Zr0_5 2.944977 1_555
Nb0_5 Zr0_3 2.944977 1_545
Nb0_5 Nb0_7 3.017307 1_555
Nb0_5 Nb0_7 3.017307 1_545
Nb0_6 Nb1_6 2.741998 1_555
Nb0_6 Nb1_0 2.741998 1_555
Nb0_6 Zr0_6 2.944977 1_555
Nb0_6 Zr0_0 2.944977 1_555
Nb0_7 Nb1_7 2.741998 1_555
Nb0_7 Nb1_1 2.741998 1_555
Nb0_7 Zr0_7 2.944977 1_555
Nb0_7 Zr0_1 2.944977 1_555
Nb1_0 Nb1_2 3.017307 1_555
Nb1_0 Nb1_4 3.017307 1_455
Nb1_0 Nb1_4 3.017307 1_555
Nb1_0 Nb1_2 3.017307 1_545
Nb1_1 Nb1_3 3.017307 1_555
Nb1_1 Nb1_5 3.017307 1_455
Nb1_1 Nb1_5 3.017307 1_555
Nb1_1 Nb1_3 3.017307 1_545
Nb1_2 Nb1_6 3.017307 1_555
Nb1_2 Nb1_6 3.017307 1_455
Nb1_3 Nb1_7 3.017307 1_555
Nb1_3 Nb1_7 3.017307 1_455
Nb1_4 Nb1_6 3.017307 1_545
Nb1_4 Nb1_6 3.017307 1_555
Nb1_5 Nb1_7 3.017307 1_545
Nb1_5 Nb1_7 3.017307 1_555
