# generated using pymatgen
data_Y2GaCo2
_symmetry_space_group_name_H-M   'P 1'
_cell_length_a   4.27718010
_cell_length_b   5.02242519
_cell_length_c   5.48451597
_cell_angle_alpha   117.24994426
_cell_angle_beta   112.98424536
_cell_angle_gamma   90.00000000
_symmetry_Int_Tables_number   1
_chemical_formula_structural   Y2GaCo2
_chemical_formula_sum   'Y2 Ga1 Co2'
_cell_volume   94.09759855
_cell_formula_units_Z   1
loop_
 _symmetry_equiv_pos_site_id
 _symmetry_equiv_pos_as_xyz
  1  'x, y, z'
loop_
 _atom_site_type_symbol
 _atom_site_label
 _atom_site_symmetry_multiplicity
 _atom_site_fract_x
 _atom_site_fract_y
 _atom_site_fract_z
 _atom_site_occupancy
  Y  Y0  1  0.80644896  0.30651500  0.61311691  1
  Y  Y1  1  0.19355104  0.69339809  0.38688309  1
  Ga  Ga0  1  0.00000000  -0.00018484  0.00000000  1
  Co  Co0  1  0.50000000  0.26373818  0.00000000  1
  Co  Co1  1  0.50000000  0.73653356  -0.00000000  1
loop_
_geom_bond_atom_site_label_1
_geom_bond_atom_site_label_2
_geom_bond_distance
_geom_bond_site_symmetry_2
Y0 Y1 3.389357 1_656
Y0 Y1 3.443094 1_555
Y0 Y1 3.443094 1_545
Y0 Y1 3.445098 1_655
Y0 Y1 3.445098 1_645
Ga0 Y1 3.028953 1_545
Ga0 Y0 3.028953 1_444
Ga0 Y0 3.030130 1_454
Ga0 Y1 3.030131 1_555
Ga0 Y1 3.431688 1_444
Ga0 Y0 3.431688 1_555
Ga0 Y1 3.434558 1_544
Ga0 Y0 3.434558 1_455
Co0 Co1 2.374579 1_555
Co0 Ga0 2.516070 1_555
Co0 Ga0 2.516070 1_655
Co0 Co1 2.647846 1_545
Co0 Y0 2.974907 1_454
Co0 Y1 2.974907 1_655
Co0 Y0 2.975898 1_554
Co0 Y1 2.975898 1_555
Co0 Y0 2.994649 1_555
Co0 Y1 2.994650 1_544
Co1 Ga0 2.514374 1_665
Co1 Ga0 2.514374 1_565
Co1 Y1 2.975626 1_655
Co1 Y0 2.975626 1_454
Co1 Y1 2.976617 1_555
Co1 Y0 2.976617 1_554
Co1 Y1 2.993853 1_554
Co1 Y0 2.993853 1_565
