# generated using pymatgen
data_HfMg14CoO16
_symmetry_space_group_name_H-M   'P 1'
_cell_length_a   8.64652174
_cell_length_b   8.64158022
_cell_length_c   4.28864758
_cell_angle_alpha   90.00000000
_cell_angle_beta   90.00000000
_cell_angle_gamma   90.00000000
_symmetry_Int_Tables_number   1
_chemical_formula_structural   HfMg14CoO16
_chemical_formula_sum   'Hf1 Mg14 Co1 O16'
_cell_volume   320.44607992
_cell_formula_units_Z   1
loop_
 _symmetry_equiv_pos_site_id
 _symmetry_equiv_pos_as_xyz
  1  'x, y, z'
loop_
 _atom_site_type_symbol
 _atom_site_label
 _atom_site_symmetry_multiplicity
 _atom_site_fract_x
 _atom_site_fract_y
 _atom_site_fract_z
 _atom_site_occupancy
  Hf  Hf0  1  0.00000000  0.50000000  0.00000000  1
  Mg  Mg0  1  0.50000000  0.00000000  0.00000000  1
  Mg  Mg1  1  0.50000000  0.50000000  0.00000000  1
  Mg  Mg2  1  0.00000000  0.23313475  0.50000000  1
  Mg  Mg3  1  0.00000000  0.76686525  0.50000000  1
  Mg  Mg4  1  0.50000000  0.24711485  0.50000000  1
  Mg  Mg5  1  0.50000000  0.75288515  0.50000000  1
  Mg  Mg6  1  0.24726153  0.00000000  0.50000000  1
  Mg  Mg7  1  0.25776010  0.50000000  0.50000000  1
  Mg  Mg8  1  0.75273847  0.00000000  0.50000000  1
  Mg  Mg9  1  0.74223990  0.50000000  0.50000000  1
  Mg  Mg10  1  0.25424365  0.24019340  0.00000000  1
  Mg  Mg11  1  0.25424365  0.75980660  0.00000000  1
  Mg  Mg12  1  0.74575635  0.24019340  0.00000000  1
  Mg  Mg13  1  0.74575635  0.75980660  0.00000000  1
  Co  Co0  1  0.00000000  0.00000000  0.00000000  1
  O  O0  1  0.26392623  0.00000000  0.00000000  1
  O  O1  1  0.25434372  0.50000000  0.00000000  1
  O  O2  1  0.73607377  0.00000000  0.00000000  1
  O  O3  1  0.74565628  0.50000000  0.00000000  1
  O  O4  1  0.24811314  0.25107996  0.50000000  1
  O  O5  1  0.24811314  0.74892004  0.50000000  1
  O  O6  1  0.75188686  0.25107996  0.50000000  1
  O  O7  1  0.75188686  0.74892004  0.50000000  1
  O  O8  1  0.00000000  0.00000000  0.50000000  1
  O  O9  1  0.00000000  0.50000000  0.50000000  1
  O  O10  1  0.50000000  0.00000000  0.50000000  1
  O  O11  1  0.50000000  0.50000000  0.50000000  1
  O  O12  1  0.00000000  0.26226113  0.00000000  1
  O  O13  1  0.00000000  0.73773887  0.00000000  1
  O  O14  1  0.50000000  0.25296576  0.00000000  1
  O  O15  1  0.50000000  0.74703424  0.00000000  1
loop_
_geom_bond_atom_site_label_1
_geom_bond_atom_site_label_2
_geom_bond_distance
_geom_bond_site_symmetry_2
Hf0 O12 2.054440 1_555
Hf0 O13 2.054440 1_555
Hf0 O9 2.144324 1_554
Hf0 O9 2.144324 1_555
Hf0 O3 2.199189 1_455
Hf0 O1 2.199189 1_555
Mg0 O2 2.041217 1_555
Mg0 O0 2.041217 1_555
Mg0 O10 2.144324 1_554
Mg0 O10 2.144324 1_555
Mg0 O14 2.186024 1_555
Mg0 O15 2.186024 1_545
Mg1 O1 2.124072 1_555
Mg1 O3 2.124072 1_555
Mg1 O15 2.134766 1_555
Mg1 O14 2.134766 1_555
Mg1 O11 2.144324 1_554
Mg1 O11 2.144324 1_555
Mg2 O8 2.014653 1_555
Mg2 O6 2.150913 1_455
Mg2 O4 2.150913 1_555
Mg2 O12 2.159045 1_556
Mg2 O12 2.159045 1_555
Mg2 O9 2.306137 1_555
Mg3 O8 2.014653 1_565
Mg3 O7 2.150913 1_455
Mg3 O5 2.150913 1_555
Mg3 O13 2.159045 1_555
Mg3 O13 2.159045 1_556
Mg3 O9 2.306137 1_555
Mg4 O10 2.135463 1_555
Mg4 O14 2.144920 1_556
Mg4 O14 2.144920 1_555
Mg4 O4 2.178215 1_555
Mg4 O6 2.178215 1_555
Mg4 O11 2.185327 1_555
Mg5 O10 2.135463 1_565
Mg5 O15 2.144920 1_556
Mg5 O15 2.144920 1_555
Mg5 O5 2.178215 1_555
Mg5 O7 2.178215 1_555
Mg5 O11 2.185327 1_555
Mg6 O8 2.137952 1_555
Mg6 O0 2.149160 1_555
Mg6 O0 2.149160 1_556
Mg6 O4 2.169740 1_555
Mg6 O5 2.169740 1_545
Mg6 O10 2.185309 1_555
Mg7 O11 2.094533 1_555
Mg7 O1 2.144527 1_555
Mg7 O1 2.144527 1_556
Mg7 O4 2.152679 1_555
Mg7 O5 2.152679 1_555
Mg7 O9 2.228728 1_555
Mg8 O8 2.137952 1_655
Mg8 O2 2.149160 1_556
Mg8 O2 2.149160 1_555
Mg8 O6 2.169740 1_555
Mg8 O7 2.169740 1_545
Mg8 O10 2.185309 1_555
Mg9 O11 2.094533 1_555
Mg9 O3 2.144527 1_556
Mg9 O3 2.144527 1_555
Mg9 O6 2.152679 1_555
Mg9 O7 2.152679 1_555
Mg9 O9 2.228728 1_655
Mg10 O0 2.077338 1_555
Mg10 O14 2.127802 1_555
Mg10 O4 2.147041 1_554
Mg10 O4 2.147041 1_555
Mg10 O12 2.206579 1_555
Mg10 O1 2.245140 1_555
Mg11 O0 2.077338 1_565
Mg11 O15 2.127802 1_555
Mg11 O5 2.147041 1_554
Mg11 O5 2.147041 1_555
Mg11 O13 2.206579 1_555
Mg11 O1 2.245140 1_555
Mg12 O2 2.077338 1_555
Mg12 O14 2.127802 1_555
Mg12 O6 2.147041 1_555
Mg12 O6 2.147041 1_554
Mg12 O12 2.206579 1_655
Mg12 O3 2.245140 1_555
Mg13 O2 2.077338 1_565
Mg13 O15 2.127802 1_555
Mg13 O7 2.147041 1_554
Mg13 O7 2.147041 1_555
Mg13 O13 2.206579 1_655
Mg13 O3 2.245140 1_555
Co0 O8 2.144324 1_554
Co0 O8 2.144324 1_555
Co0 O13 2.266351 1_545
Co0 O12 2.266351 1_555
Co0 O0 2.282044 1_555
Co0 O2 2.282044 1_455
