# generated using pymatgen
data_Sr(ScTe2)2
_symmetry_space_group_name_H-M   'P 1'
_cell_length_a   4.26178251
_cell_length_b   13.28018432
_cell_length_c   15.46483481
_cell_angle_alpha   90.00000000
_cell_angle_beta   90.00000000
_cell_angle_gamma   90.00000000
_symmetry_Int_Tables_number   1
_chemical_formula_structural   Sr(ScTe2)2
_chemical_formula_sum   'Sr4 Sc8 Te16'
_cell_volume   875.26723430
_cell_formula_units_Z   4
loop_
 _symmetry_equiv_pos_site_id
 _symmetry_equiv_pos_as_xyz
  1  'x, y, z'
loop_
 _atom_site_type_symbol
 _atom_site_label
 _atom_site_symmetry_multiplicity
 _atom_site_fract_x
 _atom_site_fract_y
 _atom_site_fract_z
 _atom_site_occupancy
  Sr  Sr0  1  0.25000000  0.23820834  0.32678948  1
  Sr  Sr1  1  0.75000000  0.76179166  0.67321052  1
  Sr  Sr2  1  0.25000000  0.73820834  0.17321052  1
  Sr  Sr3  1  0.75000000  0.26179166  0.82678948  1
  Sc  Sc0  1  0.25000000  0.55357294  0.38824628  1
  Sc  Sc1  1  0.75000000  0.44642706  0.61175372  1
  Sc  Sc2  1  0.25000000  0.05357294  0.11175372  1
  Sc  Sc3  1  0.75000000  0.94642706  0.88824628  1
  Sc  Sc4  1  0.75000000  0.41578140  0.09420728  1
  Sc  Sc5  1  0.25000000  0.58421860  0.90579272  1
  Sc  Sc6  1  0.75000000  0.91578140  0.40579272  1
  Sc  Sc7  1  0.25000000  0.08421860  0.59420728  1
  Te  Te0  1  0.75000000  0.40742733  0.42663590  1
  Te  Te1  1  0.25000000  0.59257267  0.57336410  1
  Te  Te2  1  0.75000000  0.90742733  0.07336410  1
  Te  Te3  1  0.25000000  0.09257267  0.92663590  1
  Te  Te4  1  0.75000000  0.20165493  0.15731054  1
  Te  Te5  1  0.25000000  0.79834507  0.84268946  1
  Te  Te6  1  0.75000000  0.70165493  0.34268946  1
  Te  Te7  1  0.25000000  0.29834507  0.65731054  1
  Te  Te8  1  0.75000000  0.12358522  0.46789321  1
  Te  Te9  1  0.25000000  0.87641478  0.53210679  1
  Te  Te10  1  0.75000000  0.62358522  0.03210679  1
  Te  Te11  1  0.25000000  0.37641478  0.96789321  1
  Te  Te12  1  0.75000000  0.03180813  0.71417760  1
  Te  Te13  1  0.25000000  0.96819187  0.28582240  1
  Te  Te14  1  0.75000000  0.53180813  0.78582240  1
  Te  Te15  1  0.25000000  0.46819187  0.21417760  1
loop_
_geom_bond_atom_site_label_1
_geom_bond_atom_site_label_2
_geom_bond_distance
_geom_bond_site_symmetry_2
Sr0 Te8 3.408753 1_555
Sr0 Te8 3.408753 1_455
Sr0 Te4 3.412594 1_455
Sr0 Te4 3.412594 1_555
Sr0 Te0 3.460512 1_455
Sr0 Te0 3.460512 1_555
Sr0 Te15 3.515848 1_555
Sr0 Te13 3.641406 1_545
Sr1 Te9 3.408753 1_555
Sr1 Te9 3.408753 1_655
Sr1 Te5 3.412594 1_555
Sr1 Te5 3.412594 1_655
Sr1 Te1 3.460512 1_555
Sr1 Te1 3.460512 1_655
Sr1 Te14 3.515848 1_555
Sr1 Te12 3.641406 1_565
Sr2 Te10 3.408753 1_555
Sr2 Te10 3.408753 1_455
Sr2 Te6 3.412594 1_455
Sr2 Te6 3.412594 1_555
Sr2 Te2 3.460512 1_455
Sr2 Te2 3.460512 1_555
Sr2 Te13 3.515848 1_555
Sr2 Te15 3.641406 1_555
Sr3 Te11 3.408753 1_555
Sr3 Te11 3.408753 1_655
Sr3 Te7 3.412594 1_655
Sr3 Te7 3.412594 1_555
Sr3 Te3 3.460512 1_655
Sr3 Te3 3.460512 1_555
Sr3 Te12 3.515848 1_555
Sr3 Te14 3.641406 1_555
Sc0 Te1 2.909289 1_555
Sc0 Te15 2.920999 1_555
Sc0 Te0 2.942792 1_555
Sc0 Te0 2.942792 1_455
Sc0 Te6 2.984024 1_455
Sc0 Te6 2.984024 1_555
Sc1 Te0 2.909289 1_555
Sc1 Te14 2.920999 1_555
Sc1 Te1 2.942792 1_555
Sc1 Te1 2.942792 1_655
Sc1 Te7 2.984024 1_555
Sc1 Te7 2.984024 1_655
Sc2 Te3 2.909289 1_554
Sc2 Te13 2.920999 1_545
Sc2 Te2 2.942792 1_445
Sc2 Te2 2.942792 1_545
Sc2 Te4 2.984024 1_555
Sc2 Te4 2.984024 1_455
Sc3 Te2 2.909289 1_556
Sc3 Te12 2.920999 1_565
Sc3 Te3 2.942792 1_665
Sc3 Te3 2.942792 1_565
Sc3 Te5 2.984024 1_555
Sc3 Te5 2.984024 1_655
Sc4 Te15 2.909873 1_555
Sc4 Te15 2.909873 1_655
Sc4 Te10 2.922005 1_555
Sc4 Te11 2.937667 1_654
Sc4 Te11 2.937667 1_554
Sc4 Te4 3.006431 1_555
Sc5 Te14 2.909873 1_555
Sc5 Te14 2.909873 1_455
Sc5 Te11 2.922005 1_555
Sc5 Te10 2.937667 1_556
Sc5 Te10 2.937667 1_456
Sc5 Te5 3.006431 1_555
Sc6 Te13 2.909873 1_655
Sc6 Te13 2.909873 1_555
Sc6 Te8 2.922005 1_565
Sc6 Te9 2.937667 1_655
Sc6 Te9 2.937667 1_555
Sc6 Te6 3.006431 1_555
Sc7 Te12 2.909873 1_455
Sc7 Te12 2.909873 1_555
Sc7 Te9 2.922005 1_545
Sc7 Te8 2.937667 1_555
Sc7 Te8 2.937667 1_455
Sc7 Te7 3.006431 1_555
