# generated using pymatgen
data_LiMn2(BO3)2
_symmetry_space_group_name_H-M   'P 1'
_cell_length_a   5.79294864
_cell_length_b   5.32201726
_cell_length_c   8.14756606
_cell_angle_alpha   89.93289995
_cell_angle_beta   79.12527808
_cell_angle_gamma   89.92909272
_symmetry_Int_Tables_number   1
_chemical_formula_structural   LiMn2(BO3)2
_chemical_formula_sum   'Li2 Mn4 B4 O12'
_cell_volume   246.67969225
_cell_formula_units_Z   2
loop_
 _symmetry_equiv_pos_site_id
 _symmetry_equiv_pos_as_xyz
  1  'x, y, z'
loop_
 _atom_site_type_symbol
 _atom_site_label
 _atom_site_symmetry_multiplicity
 _atom_site_fract_x
 _atom_site_fract_y
 _atom_site_fract_z
 _atom_site_occupancy
  Li  Li0  1  0.05438900  0.65734500  0.25574800  1
  Li  Li1  1  0.94157900  0.34172300  0.74182400  1
  Mn  Mn0  1  0.19010400  0.81510300  0.56181600  1
  Mn  Mn1  1  0.35466500  0.70366300  0.91392000  1
  Mn  Mn2  1  0.65061200  0.29427000  0.08820400  1
  Mn  Mn3  1  0.80170000  0.17493900  0.43866300  1
  B  B0  1  0.15024900  0.17541500  0.10088200  1
  B  B1  1  0.32138300  0.32056800  0.41750100  1
  B  B2  1  0.68040700  0.67770300  0.58201600  1
  B  B3  1  0.84989800  0.81918000  0.90250500  1
  O  O0  1  0.16081400  0.92312000  0.10625100  1
  O  O1  1  0.04450300  0.70042100  0.80098900  1
  O  O2  1  0.15313700  0.19452200  0.53233700  1
  O  O3  1  0.30267300  0.57296800  0.38790500  1
  O  O4  1  0.50553600  0.18738700  0.32146600  1
  O  O5  1  0.68072200  0.66204100  0.99137800  1
  O  O6  1  0.33975100  0.32750700  0.02796200  1
  O  O7  1  0.48450500  0.82852800  0.64344600  1
  O  O8  1  0.68785300  0.43260300  0.61979200  1
  O  O9  1  0.87791200  0.80231500  0.48576700  1
  O  O10  1  0.94687500  0.31257900  0.18085900  1
  O  O11  1  0.82073300  0.07610000  0.89876900  1
loop_
_geom_bond_atom_site_label_1
_geom_bond_atom_site_label_2
_geom_bond_distance
_geom_bond_site_symmetry_2
Li0 O0 1.891871 1_555
Li0 O3 2.002844 1_555
Li0 O10 2.067783 1_455
Li0 O9 2.105029 1_455
Li1 O11 1.945264 1_555
Li1 O8 1.982776 1_555
Li1 O2 2.059214 1_655
Li1 O1 2.084600 1_655
Mn0 O3 1.935756 1_555
Mn0 O7 1.945354 1_555
Mn0 O9 2.020519 1_455
Mn0 O2 2.048955 1_565
Mn0 O1 2.063877 1_555
Mn1 O0 2.101859 1_556
Mn1 O5 2.112688 1_555
Mn1 O1 2.167749 1_555
Mn1 O6 2.200961 1_556
Mn1 O7 2.288239 1_555
Mn2 O6 1.961531 1_555
Mn2 O10 2.003573 1_555
Mn2 O4 2.009432 1_555
Mn2 O11 2.031994 1_554
Mn2 O5 2.104530 1_554
Mn3 O8 2.031877 1_555
Mn3 O9 2.082047 1_545
Mn3 O4 2.115982 1_555
Mn3 O10 2.233212 1_555
Mn3 O2 2.307611 1_655
B0 O0 1.345073 1_545
B0 O6 1.402945 1_555
B0 O10 1.433460 1_455
B1 O3 1.372235 1_555
B1 O2 1.389747 1_555
B1 O4 1.391806 1_555
B2 O8 1.342404 1_555
B2 O7 1.402524 1_555
B2 O9 1.423356 1_555
B3 O11 1.378529 1_565
B3 O5 1.384562 1_555
B3 O1 1.414956 1_655
