# generated using pymatgen
data_BaLi4O3
_symmetry_space_group_name_H-M   'P 1'
_cell_length_a   5.45192661
_cell_length_b   5.45192661
_cell_length_c   13.70745700
_cell_angle_alpha   90.00000000
_cell_angle_beta   90.00000000
_cell_angle_gamma   115.47656686
_symmetry_Int_Tables_number   1
_chemical_formula_structural   BaLi4O3
_chemical_formula_sum   'Ba4 Li16 O12'
_cell_volume   367.81532317
_cell_formula_units_Z   4
loop_
 _symmetry_equiv_pos_site_id
 _symmetry_equiv_pos_as_xyz
  1  'x, y, z'
loop_
 _atom_site_type_symbol
 _atom_site_label
 _atom_site_symmetry_multiplicity
 _atom_site_fract_x
 _atom_site_fract_y
 _atom_site_fract_z
 _atom_site_occupancy
  Ba  Ba0  1  0.97885100  0.02114900  0.65656200  1
  Ba  Ba1  1  0.52114900  0.47885100  0.15656200  1
  Ba  Ba2  1  0.02115000  0.97885000  0.34343800  1
  Ba  Ba3  1  0.47885100  0.52114900  0.84343800  1
  Li  Li0  1  0.16394600  0.83605400  0.82239300  1
  Li  Li1  1  0.33605400  0.66394600  0.32239300  1
  Li  Li2  1  0.79774100  0.20225900  0.84012400  1
  Li  Li3  1  0.70225900  0.29774100  0.34012400  1
  Li  Li4  1  0.80908600  0.54089700  0.50628500  1
  Li  Li5  1  0.04089700  0.30908600  0.00628500  1
  Li  Li6  1  0.95910300  0.69091400  0.99371500  1
  Li  Li7  1  0.19091400  0.45910300  0.49371500  1
  Li  Li8  1  0.54089700  0.80908600  0.49371500  1
  Li  Li9  1  0.30908600  0.04089700  0.99371500  1
  Li  Li10  1  0.69091400  0.95910300  0.00628500  1
  Li  Li11  1  0.45910300  0.19091400  0.50628500  1
  Li  Li12  1  0.66394600  0.33605400  0.67760700  1
  Li  Li13  1  0.83605400  0.16394600  0.17760700  1
  Li  Li14  1  0.29774100  0.70225900  0.65987600  1
  Li  Li15  1  0.20225900  0.79774100  0.15987600  1
  O  O0  1  0.49144400  0.00855600  0.75000000  1
  O  O1  1  0.50855600  0.99144400  0.25000000  1
  O  O2  1  0.31139300  0.68860700  0.00886100  1
  O  O3  1  0.18860700  0.81139300  0.50886100  1
  O  O4  1  0.49531300  0.50468700  0.60097500  1
  O  O5  1  0.00468700  0.99531300  0.10097500  1
  O  O6  1  0.99144400  0.50855600  0.75000000  1
  O  O7  1  0.00855600  0.49144400  0.25000000  1
  O  O8  1  0.81139300  0.18860700  0.49113900  1
  O  O9  1  0.68860700  0.31139300  0.99113900  1
  O  O10  1  0.99531300  0.00468700  0.89902500  1
  O  O11  1  0.50468700  0.49531300  0.39902500  1
loop_
_geom_bond_atom_site_label_1
_geom_bond_atom_site_label_2
_geom_bond_distance
_geom_bond_site_symmetry_2
Ba0 O8 2.743313 1_555
Ba0 O3 2.799928 1_645
Ba0 O6 2.923951 1_555
Ba0 O0 2.923951 1_555
Ba0 O4 3.012093 1_655
Ba0 O4 3.012093 1_545
Ba1 O9 2.743313 1_554
Ba1 O2 2.799928 1_555
Ba1 O1 2.923951 1_545
Ba1 O7 2.923951 1_655
Ba1 O5 3.012093 1_655
Ba1 O5 3.012093 1_545
Ba2 O3 2.743308 1_555
Ba2 O8 2.799934 1_465
Ba2 O7 2.923944 1_555
Ba2 O1 2.923944 1_555
Ba2 O11 3.012094 1_565
Ba2 O11 3.012094 1_455
Ba3 O2 2.743313 1_556
Ba3 O9 2.799928 1_555
Ba3 O6 2.923951 1_455
Ba3 O0 2.923951 1_565
Ba3 O10 3.012093 1_455
Ba3 O10 3.012093 1_565
Li0 O10 1.876448 1_465
Li0 O0 1.900681 1_565
Li0 O6 1.900681 1_455
Li1 O11 1.876448 1_555
Li1 O1 1.900681 1_555
Li1 O7 1.900681 1_555
Li2 O6 1.978096 1_555
Li2 O0 1.978096 1_555
Li2 O10 1.992613 1_555
Li2 O9 2.301654 1_555
Li3 O1 1.978096 1_545
Li3 O7 1.978096 1_655
Li3 O11 1.992613 1_555
Li3 O8 2.301654 1_555
Li4 O8 1.937260 1_555
Li4 O3 1.957617 1_655
Li4 O4 2.087948 1_555
Li4 O11 2.150061 1_555
Li5 O9 1.937260 1_454
Li5 O2 1.957617 1_555
Li5 O5 2.087948 1_545
Li5 O10 2.150061 1_454
Li6 O2 1.937260 1_656
Li6 O9 1.957617 1_555
Li6 O10 2.087948 1_565
Li6 O5 2.150061 1_656
Li7 O3 1.937260 1_555
Li7 O8 1.957617 1_455
Li7 O11 2.087948 1_555
Li7 O4 2.150061 1_555
Li8 O3 1.937260 1_555
Li8 O8 1.957617 1_565
Li8 O11 2.087948 1_555
Li8 O4 2.150061 1_555
Li9 O2 1.937260 1_546
Li9 O9 1.957617 1_555
Li9 O10 2.087948 1_455
Li9 O5 2.150061 1_546
Li10 O9 1.937260 1_564
Li10 O2 1.957617 1_555
Li10 O5 2.087948 1_655
Li10 O10 2.150061 1_564
Li11 O8 1.937260 1_555
Li11 O3 1.957617 1_545
Li11 O4 2.087948 1_555
Li11 O11 2.150061 1_555
Li12 O4 1.876448 1_555
Li12 O6 1.900681 1_555
Li12 O0 1.900681 1_555
Li13 O5 1.876448 1_645
Li13 O1 1.900681 1_545
Li13 O7 1.900681 1_655
Li14 O6 1.978096 1_455
Li14 O0 1.978096 1_565
Li14 O4 1.992613 1_555
Li14 O3 2.301654 1_555
Li15 O1 1.978096 1_555
Li15 O7 1.978096 1_555
Li15 O5 1.992613 1_555
Li15 O2 2.301654 1_555
