# generated using pymatgen
data_Nd(Sb3Ru)4
_symmetry_space_group_name_H-M   'P 1'
_cell_length_a   8.08047837
_cell_length_b   8.08047837
_cell_length_c   8.08047837
_cell_angle_alpha   109.47122063
_cell_angle_beta   109.47122063
_cell_angle_gamma   109.47122063
_symmetry_Int_Tables_number   1
_chemical_formula_structural   Nd(Sb3Ru)4
_chemical_formula_sum   'Nd1 Sb12 Ru4'
_cell_volume   406.15268151
_cell_formula_units_Z   1
loop_
 _symmetry_equiv_pos_site_id
 _symmetry_equiv_pos_as_xyz
  1  'x, y, z'
loop_
 _atom_site_type_symbol
 _atom_site_label
 _atom_site_symmetry_multiplicity
 _atom_site_fract_x
 _atom_site_fract_y
 _atom_site_fract_z
 _atom_site_occupancy
  Nd  Nd0  1  0.00000000  0.00000000  0.00000000  1
  Sb  Sb0  1  0.34059289  0.18254010  0.84194721  1
  Sb  Sb1  1  0.65940711  0.81745990  0.15805279  1
  Sb  Sb2  1  0.65940711  0.50135432  0.84194721  1
  Sb  Sb3  1  0.34059289  0.49864568  0.15805279  1
  Sb  Sb4  1  0.18254010  0.84194721  0.34059289  1
  Sb  Sb5  1  0.81745990  0.15805279  0.65940711  1
  Sb  Sb6  1  0.50135432  0.84194721  0.65940711  1
  Sb  Sb7  1  0.49864568  0.15805279  0.34059289  1
  Sb  Sb8  1  0.84194721  0.34059289  0.18254010  1
  Sb  Sb9  1  0.15805279  0.65940711  0.81745990  1
  Sb  Sb10  1  0.84194721  0.65940711  0.50135432  1
  Sb  Sb11  1  0.15805279  0.34059289  0.49864568  1
  Ru  Ru0  1  0.00000000  0.00000000  0.50000000  1
  Ru  Ru1  1  0.50000000  0.00000000  0.00000000  1
  Ru  Ru2  1  0.00000000  0.50000000  0.00000000  1
  Ru  Ru3  1  0.50000000  0.50000000  0.50000000  1
loop_
_geom_bond_atom_site_label_1
_geom_bond_atom_site_label_2
_geom_bond_distance
_geom_bond_site_symmetry_2
Nd0 Sb4 3.503416 1_545
Nd0 Sb0 3.503416 1_554
Nd0 Sb8 3.503416 1_455
Nd0 Sb7 3.503416 1_555
Nd0 Sb10 3.503416 1_444
Nd0 Sb1 3.503416 1_445
Nd0 Sb5 3.503416 1_454
Nd0 Sb2 3.503416 1_444
Nd0 Sb6 3.503416 1_444
Nd0 Sb11 3.503416 1_555
Nd0 Sb9 3.503416 1_544
Nd0 Sb3 3.503416 1_555
Sb0 Sb3 2.949433 1_556
Sb0 Sb2 2.974707 1_555
Sb1 Sb2 2.949433 1_554
Sb1 Sb3 2.974707 1_555
Sb4 Sb7 2.949433 1_565
Sb4 Sb6 2.974707 1_555
Sb5 Sb6 2.949433 1_545
Sb5 Sb7 2.974707 1_555
Sb10 Sb9 2.949433 1_655
Sb10 Sb8 2.974707 1_555
Sb11 Sb8 2.949433 1_455
Sb11 Sb9 2.974707 1_555
Ru0 Sb4 2.625204 1_545
Ru0 Sb11 2.625204 1_555
Ru0 Sb5 2.625204 1_455
Ru0 Sb1 2.625204 1_445
Ru0 Sb10 2.625204 1_445
Ru0 Sb0 2.625204 1_555
Ru1 Sb0 2.625204 1_554
Ru1 Sb1 2.625204 1_545
Ru1 Sb7 2.625204 1_555
Ru1 Sb9 2.625204 1_544
Ru1 Sb6 2.625204 1_544
Ru1 Sb8 2.625204 1_555
Ru2 Sb8 2.625204 1_455
Ru2 Sb3 2.625204 1_555
Ru2 Sb9 2.625204 1_554
Ru2 Sb5 2.625204 1_454
Ru2 Sb2 2.625204 1_454
Ru2 Sb4 2.625204 1_555
Ru3 Sb3 2.625204 1_555
Ru3 Sb11 2.625204 1_555
Ru3 Sb2 2.625204 1_555
Ru3 Sb6 2.625204 1_555
Ru3 Sb7 2.625204 1_555
Ru3 Sb10 2.625204 1_555
