# generated using pymatgen
data_Mg14CdSiO16
_symmetry_space_group_name_H-M   'P 1'
_cell_length_a   8.69142014
_cell_length_b   8.61064268
_cell_length_c   4.34423087
_cell_angle_alpha   90.00000000
_cell_angle_beta   90.00000000
_cell_angle_gamma   90.00000000
_symmetry_Int_Tables_number   1
_chemical_formula_structural   Mg14CdSiO16
_chemical_formula_sum   'Mg14 Cd1 Si1 O16'
_cell_volume   325.11664819
_cell_formula_units_Z   1
loop_
 _symmetry_equiv_pos_site_id
 _symmetry_equiv_pos_as_xyz
  1  'x, y, z'
loop_
 _atom_site_type_symbol
 _atom_site_label
 _atom_site_symmetry_multiplicity
 _atom_site_fract_x
 _atom_site_fract_y
 _atom_site_fract_z
 _atom_site_occupancy
  Mg  Mg0  1  0.50000000  0.00000000  0.00000000  1
  Mg  Mg1  1  0.50000000  0.50000000  0.00000000  1
  Mg  Mg2  1  -0.00000000  0.24743325  0.50000000  1
  Mg  Mg3  1  -0.00000000  0.75256675  0.50000000  1
  Mg  Mg4  1  0.50000000  0.24952402  0.50000000  1
  Mg  Mg5  1  0.50000000  0.75047598  0.50000000  1
  Mg  Mg6  1  0.25325648  -0.00000000  0.50000000  1
  Mg  Mg7  1  0.25548736  0.50000000  0.50000000  1
  Mg  Mg8  1  0.74674352  0.00000000  0.50000000  1
  Mg  Mg9  1  0.74451264  0.50000000  0.50000000  1
  Mg  Mg10  1  0.25512585  0.24865889  -0.00000000  1
  Mg  Mg11  1  0.25512585  0.75134111  -0.00000000  1
  Mg  Mg12  1  0.74487415  0.24865889  0.00000000  1
  Mg  Mg13  1  0.74487415  0.75134111  -0.00000000  1
  Cd  Cd0  1  -0.00000000  0.50000000  0.00000000  1
  Si  Si0  1  -0.00000000  0.00000000  0.00000000  1
  O  O0  1  0.26379479  -0.00000000  0.00000000  1
  O  O1  1  0.26646559  0.50000000  0.00000000  1
  O  O2  1  0.73620521  0.00000000  0.00000000  1
  O  O3  1  0.73353441  0.50000000  0.00000000  1
  O  O4  1  0.24875219  0.25001873  0.50000000  1
  O  O5  1  0.24875219  0.74998127  0.50000000  1
  O  O6  1  0.75124781  0.25001873  0.50000000  1
  O  O7  1  0.75124781  0.74998127  0.50000000  1
  O  O8  1  -0.00000000  0.00000000  0.50000000  1
  O  O9  1  -0.00000000  0.50000000  0.50000000  1
  O  O10  1  0.50000000  0.00000000  0.50000000  1
  O  O11  1  0.50000000  0.50000000  0.50000000  1
  O  O12  1  -0.00000000  0.23857114  0.00000000  1
  O  O13  1  -0.00000000  0.76142886  -0.00000000  1
  O  O14  1  0.50000000  0.24924000  0.00000000  1
  O  O15  1  0.50000000  0.75076000  0.00000000  1
loop_
_geom_bond_atom_site_label_1
_geom_bond_atom_site_label_2
_geom_bond_distance
_geom_bond_site_symmetry_2
Mg0 O0 2.052959 1_555
Mg0 O2 2.052959 1_555
Mg0 O15 2.146117 1_545
Mg0 O14 2.146117 1_555
Mg0 O10 2.172115 1_555
Mg0 O10 2.172115 1_554
Mg1 O3 2.029746 1_555
Mg1 O1 2.029746 1_555
Mg1 O14 2.159205 1_555
Mg1 O15 2.159205 1_555
Mg1 O11 2.172115 1_554
Mg1 O11 2.172115 1_555
Mg2 O8 2.130559 1_555
Mg2 O4 2.162124 1_555
Mg2 O6 2.162124 1_455
Mg2 O12 2.173455 1_555
Mg2 O12 2.173455 1_556
Mg2 O9 2.174762 1_555
Mg3 O8 2.130559 1_565
Mg3 O5 2.162124 1_555
Mg3 O7 2.162124 1_455
Mg3 O13 2.173455 1_555
Mg3 O13 2.173455 1_556
Mg3 O9 2.174762 1_555
Mg4 O10 2.148562 1_555
Mg4 O11 2.156759 1_555
Mg4 O14 2.172117 1_556
Mg4 O14 2.172117 1_555
Mg4 O4 2.183704 1_555
Mg4 O6 2.183704 1_555
Mg5 O10 2.148562 1_565
Mg5 O11 2.156759 1_555
Mg5 O15 2.172117 1_556
Mg5 O15 2.172117 1_555
Mg5 O7 2.183704 1_555
Mg5 O5 2.183704 1_555
Mg6 O10 2.144552 1_555
Mg6 O5 2.153178 1_545
Mg6 O4 2.153178 1_555
Mg6 O0 2.174046 1_555
Mg6 O0 2.174046 1_556
Mg6 O8 2.201158 1_555
Mg7 O11 2.125162 1_555
Mg7 O4 2.153295 1_555
Mg7 O5 2.153295 1_555
Mg7 O1 2.174210 1_555
Mg7 O1 2.174210 1_556
Mg7 O9 2.220548 1_555
Mg8 O10 2.144552 1_555
Mg8 O7 2.153178 1_545
Mg8 O6 2.153178 1_555
Mg8 O2 2.174046 1_556
Mg8 O2 2.174046 1_555
Mg8 O8 2.201158 1_655
Mg9 O11 2.125162 1_555
Mg9 O6 2.153295 1_555
Mg9 O7 2.153295 1_555
Mg9 O3 2.174210 1_556
Mg9 O3 2.174210 1_555
Mg9 O9 2.220548 1_655
Mg10 O14 2.128310 1_555
Mg10 O0 2.142438 1_555
Mg10 O1 2.166452 1_555
Mg10 O4 2.172853 1_554
Mg10 O4 2.172853 1_555
Mg10 O12 2.219107 1_555
Mg11 O15 2.128310 1_555
Mg11 O0 2.142438 1_565
Mg11 O1 2.166452 1_555
Mg11 O5 2.172853 1_555
Mg11 O5 2.172853 1_554
Mg11 O13 2.219107 1_555
Mg12 O14 2.128310 1_555
Mg12 O2 2.142438 1_555
Mg12 O3 2.166452 1_555
Mg12 O6 2.172853 1_555
Mg12 O6 2.172853 1_554
Mg12 O12 2.219107 1_655
Mg13 O15 2.128310 1_555
Mg13 O2 2.142438 1_565
Mg13 O3 2.166452 1_555
Mg13 O7 2.172853 1_555
Mg13 O7 2.172853 1_554
Mg13 O13 2.219107 1_655
Cd0 O9 2.172115 1_554
Cd0 O9 2.172115 1_555
Cd0 O13 2.251070 1_555
Cd0 O12 2.251070 1_555
Cd0 O1 2.315964 1_555
Cd0 O3 2.315964 1_455
O0 Si0 2.292751 1_555
O2 Si0 2.292751 1_655
O8 Si0 2.172115 1_555
O8 Si0 2.172115 1_556
O12 Si0 2.054251 1_555
O13 Si0 2.054251 1_565
