# generated using pymatgen
data_CsTb(PO3)4
_symmetry_space_group_name_H-M   'P 1'
_cell_length_a   9.17285900
_cell_length_b   7.11061000
_cell_length_c   8.80939334
_cell_angle_alpha   80.01698641
_cell_angle_beta   90.00000000
_cell_angle_gamma   90.00000000
_symmetry_Int_Tables_number   1
_chemical_formula_structural   CsTb(PO3)4
_chemical_formula_sum   'Cs2 Tb2 P8 O24'
_cell_volume   565.88961127
_cell_formula_units_Z   2
loop_
 _symmetry_equiv_pos_site_id
 _symmetry_equiv_pos_as_xyz
  1  'x, y, z'
loop_
 _atom_site_type_symbol
 _atom_site_label
 _atom_site_symmetry_multiplicity
 _atom_site_fract_x
 _atom_site_fract_y
 _atom_site_fract_z
 _atom_site_occupancy
  Cs  Cs0  1  0.66597300  0.66893400  0.82630400  1
  Cs  Cs1  1  0.16597300  0.33106600  0.17369600  1
  Tb  Tb0  1  0.50124700  0.80140900  0.30265100  1
  Tb  Tb1  1  0.00124700  0.19859100  0.69734900  1
  P  P0  1  0.13301300  0.64150500  0.46030300  1
  P  P1  1  0.63301300  0.35849500  0.53969700  1
  P  P2  1  0.39102200  0.05864500  0.62130400  1
  P  P3  1  0.89102200  0.94135500  0.37869600  1
  P  P4  1  0.57504200  0.31306200  0.22312900  1
  P  P5  1  0.07504200  0.68693800  0.77687100  1
  P  P6  1  0.77519100  0.08272200  0.06859400  1
  P  P7  1  0.27519100  0.91727800  0.93140600  1
  O  O0  1  0.74477100  0.84891700  0.40712000  1
  O  O1  1  0.24477100  0.15108300  0.59288000  1
  O  O2  1  0.51785100  0.21165600  0.63406200  1
  O  O3  1  0.01785100  0.78834400  0.36593800  1
  O  O4  1  0.66777500  0.28063900  0.38195400  1
  O  O5  1  0.16777500  0.71936100  0.61804600  1
  O  O6  1  0.55871200  0.54846300  0.50325700  1
  O  O7  1  0.05871200  0.45153700  0.49674300  1
  O  O8  1  0.52820900  0.51825100  0.18154000  1
  O  O9  1  0.02820900  0.48174900  0.81846000  1
  O  O10  1  0.90047000  0.05211500  0.20022400  1
  O  O11  1  0.40047000  0.94788500  0.79977600  1
  O  O12  1  0.16720000  0.07849900  0.90410800  1
  O  O13  1  0.66720000  0.92150100  0.09589200  1
  O  O14  1  0.84920900  0.13194800  0.91708100  1
  O  O15  1  0.34920900  0.86805200  0.08291900  1
  O  O16  1  0.44529700  0.92210700  0.52275100  1
  O  O17  1  0.94529700  0.07789300  0.47724900  1
  O  O18  1  0.20054100  0.71799700  0.89942800  1
  O  O19  1  0.70054100  0.28200300  0.10057200  1
  O  O20  1  0.77000800  0.34065100  0.63295000  1
  O  O21  1  0.27000800  0.65934900  0.36705000  1
  O  O22  1  0.96447000  0.84414900  0.76657700  1
  O  O23  1  0.46447000  0.15585100  0.23342300  1
loop_
_geom_bond_atom_site_label_1
_geom_bond_atom_site_label_2
_geom_bond_distance
_geom_bond_site_symmetry_2
Cs0 O22 3.016426 1_555
Cs0 O11 3.124019 1_555
Cs0 O13 3.216263 1_556
Cs0 O20 3.261824 1_555
Cs0 O6 3.262808 1_555
Cs0 O19 3.347118 1_556
Cs0 O8 3.372775 1_556
Cs1 O23 3.016426 1_555
Cs1 O10 3.124019 1_455
Cs1 O12 3.216263 1_554
Cs1 O21 3.261824 1_555
Cs1 O7 3.262808 1_555
Cs1 O18 3.347118 1_554
Cs1 O9 3.372775 1_554
O0 P3 1.495793 1_555
O0 Tb0 2.461460 1_555
O1 P2 1.495793 1_555
O1 Tb1 2.461460 1_555
O2 P2 1.610043 1_555
O2 P1 1.611274 1_555
O3 P3 1.610043 1_455
O3 P0 1.611274 1_555
O4 P1 1.614287 1_555
O4 P4 1.619415 1_555
O5 P0 1.614287 1_555
O5 P5 1.619415 1_555
O6 P1 1.497281 1_555
O6 Tb0 2.352412 1_555
O7 P0 1.497281 1_555
O7 Tb1 2.352412 1_555
O8 P4 1.504055 1_555
O8 Tb0 2.449112 1_555
O9 P5 1.504055 1_555
O9 Tb1 2.449112 1_555
O10 P6 1.620209 1_555
O10 P3 1.634127 1_545
O11 P7 1.620209 1_555
O11 P2 1.634127 1_565
O12 P7 1.502563 1_545
O12 Tb1 2.413460 1_555
O13 P6 1.502563 1_565
O13 Tb0 2.413460 1_555
O14 P6 1.484265 1_556
O14 Tb1 2.366105 1_655
O15 P7 1.484265 1_554
O15 Tb0 2.366105 1_555
O16 P2 1.495476 1_565
O16 Tb0 2.310073 1_555
O17 P3 1.495476 1_545
O17 Tb1 2.310073 1_655
O18 P5 1.619358 1_555
O18 P7 1.641513 1_555
O19 P4 1.619358 1_555
O19 P6 1.641513 1_555
O20 P1 1.494644 1_555
O20 Tb1 2.375435 1_655
O21 P0 1.494644 1_555
O21 Tb0 2.375435 1_555
O22 P5 1.500476 1_655
O22 Tb1 2.510923 1_665
O23 P4 1.500476 1_555
O23 Tb0 2.510923 1_545
