# generated using pymatgen
data_CsEr2Ag3Te5
_symmetry_space_group_name_H-M   'P 1'
_cell_length_a   8.51159440
_cell_length_b   8.51159440
_cell_length_c   18.57270296
_cell_angle_alpha   90.00000000
_cell_angle_beta   90.00000000
_cell_angle_gamma   149.15189876
_symmetry_Int_Tables_number   1
_chemical_formula_structural   CsEr2Ag3Te5
_chemical_formula_sum   'Cs2 Er4 Ag6 Te10'
_cell_volume   689.94474788
_cell_formula_units_Z   2
loop_
 _symmetry_equiv_pos_site_id
 _symmetry_equiv_pos_as_xyz
  1  'x, y, z'
loop_
 _atom_site_type_symbol
 _atom_site_label
 _atom_site_symmetry_multiplicity
 _atom_site_fract_x
 _atom_site_fract_y
 _atom_site_fract_z
 _atom_site_occupancy
  Cs  Cs0  1  0.55722198  0.44277802  0.25000000  1
  Cs  Cs1  1  0.44277802  0.55722198  0.75000000  1
  Er  Er0  1  0.69404649  0.30595351  0.90497603  1
  Er  Er1  1  0.30595351  0.69404649  0.09502397  1
  Er  Er2  1  0.69404649  0.30595351  0.59502397  1
  Er  Er3  1  0.30595351  0.69404649  0.40497603  1
  Ag  Ag0  1  0.84165844  0.15834156  0.25000000  1
  Ag  Ag1  1  0.15834156  0.84165844  0.75000000  1
  Ag  Ag2  1  0.07944046  0.92055954  0.46339266  1
  Ag  Ag3  1  0.92055954  0.07944046  0.53660734  1
  Ag  Ag4  1  0.07944046  0.92055954  0.03660734  1
  Ag  Ag5  1  0.92055954  0.07944046  0.96339266  1
  Te  Te0  1  0.06815930  0.93184070  0.88230820  1
  Te  Te1  1  0.93184070  0.06815930  0.11769180  1
  Te  Te2  1  0.06815930  0.93184070  0.61769180  1
  Te  Te3  1  0.93184070  0.06815930  0.38230820  1
  Te  Te4  1  0.67755858  0.32244142  0.43069360  1
  Te  Te5  1  0.32244142  0.67755858  0.56930640  1
  Te  Te6  1  0.67755858  0.32244142  0.06930640  1
  Te  Te7  1  0.32244142  0.67755858  0.93069360  1
  Te  Te8  1  0.24497036  0.75502964  0.25000000  1
  Te  Te9  1  0.75502964  0.24497036  0.75000000  1
loop_
_geom_bond_atom_site_label_1
_geom_bond_atom_site_label_2
_geom_bond_distance
_geom_bond_site_symmetry_2
Cs0 Te8 3.823207 1_655
Cs0 Te8 3.823207 1_545
Cs0 Te4 3.893854 1_555
Cs0 Te6 3.893854 1_555
Cs0 Te3 3.923820 1_565
Cs0 Te1 3.923820 1_565
Cs0 Te3 3.923820 1_455
Cs0 Te1 3.923820 1_455
Cs1 Te9 3.823207 1_565
Cs1 Te9 3.823207 1_455
Cs1 Te7 3.893854 1_555
Cs1 Te5 3.893854 1_555
Cs1 Te0 3.923820 1_655
Cs1 Te2 3.923820 1_655
Cs1 Te2 3.923820 1_545
Cs1 Te0 3.923820 1_545
Er0 Te9 3.047331 1_555
Er0 Te6 3.064029 1_556
Er0 Te0 3.093447 1_655
Er0 Te0 3.093447 1_545
Er0 Te7 3.129223 1_545
Er0 Te7 3.129223 1_655
Er1 Te8 3.047331 1_555
Er1 Te7 3.064029 1_554
Er1 Te1 3.093447 1_565
Er1 Te1 3.093447 1_455
Er1 Te6 3.129223 1_565
Er1 Te6 3.129223 1_455
Er2 Te9 3.047331 1_555
Er2 Te4 3.064029 1_555
Er2 Te2 3.093447 1_655
Er2 Te2 3.093447 1_545
Er2 Te5 3.129223 1_545
Er2 Te5 3.129223 1_655
Er3 Te8 3.047331 1_555
Er3 Te5 3.064029 1_555
Er3 Te3 3.093447 1_565
Er3 Te3 3.093447 1_455
Er3 Te4 3.129223 1_565
Er3 Te4 3.129223 1_455
Ag0 Te8 2.764426 1_655
Ag0 Te8 2.764426 1_545
Ag0 Te3 2.868540 1_555
Ag0 Te1 2.868540 1_555
Ag1 Te9 2.764426 1_455
Ag1 Te9 2.764426 1_565
Ag1 Te2 2.868540 1_555
Ag1 Te0 2.868540 1_555
Ag2 Te4 2.843571 1_455
Ag2 Te4 2.843571 1_565
Ag2 Te3 2.852121 1_465
Ag2 Te2 2.871725 1_555
Ag3 Te5 2.843571 1_655
Ag3 Te5 2.843571 1_545
Ag3 Te2 2.852121 1_645
Ag3 Te3 2.871725 1_555
Ag4 Te6 2.843571 1_565
Ag4 Te6 2.843571 1_455
Ag4 Te1 2.852121 1_465
Ag4 Te0 2.871725 1_554
Ag5 Te7 2.843571 1_655
Ag5 Te7 2.843571 1_545
Ag5 Te0 2.852121 1_645
Ag5 Te1 2.871725 1_556
