# generated using pymatgen
data_Sr4HfTi3O12
_symmetry_space_group_name_H-M   'P 1'
_cell_length_a   8.92408941
_cell_length_b   8.92408941
_cell_length_c   4.00848100
_cell_angle_alpha   90.00000000
_cell_angle_beta   90.00000000
_cell_angle_gamma   126.82468666
_symmetry_Int_Tables_number   1
_chemical_formula_structural   Sr4HfTi3O12
_chemical_formula_sum   'Sr4 Hf1 Ti3 O12'
_cell_volume   255.53738760
_cell_formula_units_Z   1
loop_
 _symmetry_equiv_pos_site_id
 _symmetry_equiv_pos_as_xyz
  1  'x, y, z'
loop_
 _atom_site_type_symbol
 _atom_site_label
 _atom_site_symmetry_multiplicity
 _atom_site_fract_x
 _atom_site_fract_y
 _atom_site_fract_z
 _atom_site_occupancy
  Sr  Sr0  1  0.61426200  0.87081900  0.50000000  1
  Sr  Sr1  1  0.87081900  0.61426200  0.50000000  1
  Sr  Sr2  1  0.12918100  0.38573800  0.50000000  1
  Sr  Sr3  1  0.38573800  0.12918100  0.50000000  1
  Hf  Hf0  1  0.00000000  0.00000000  0.00000000  1
  Ti  Ti0  1  0.25059800  0.74940200  0.00000000  1
  Ti  Ti1  1  0.50000000  0.50000000  0.00000000  1
  Ti  Ti2  1  0.74940200  0.25059800  0.00000000  1
  O  O0  1  0.37495300  0.62504700  0.00000000  1
  O  O1  1  0.62504700  0.37495300  0.00000000  1
  O  O2  1  0.87000800  0.12999200  0.00000000  1
  O  O3  1  0.12999200  0.87000800  0.00000000  1
  O  O4  1  0.50000000  0.00000000  0.00000000  1
  O  O5  1  0.74191500  0.74191500  0.00000000  1
  O  O6  1  0.00000000  0.50000000  0.00000000  1
  O  O7  1  0.25808500  0.25808500  0.00000000  1
  O  O8  1  0.25274800  0.74725200  0.50000000  1
  O  O9  1  0.50000000  0.50000000  0.50000000  1
  O  O10  1  0.74725200  0.25274800  0.50000000  1
  O  O11  1  0.00000000  0.00000000  0.50000000  1
loop_
_geom_bond_atom_site_label_1
_geom_bond_atom_site_label_2
_geom_bond_distance
_geom_bond_site_symmetry_2
Hf0 O11 2.004240 1_554
Hf0 O11 2.004240 1_555
Hf0 O7 2.061646 1_555
Hf0 O5 2.061646 1_445
Hf0 O3 2.074769 1_545
Hf0 O2 2.074769 1_455
O0 Ti0 1.984799 1_555
O0 Ti1 1.995843 1_555
O0 Sr0 2.788089 1_555
O0 Sr0 2.788089 1_554
O0 Sr2 2.788089 1_555
O0 Sr2 2.788089 1_554
O1 Ti2 1.984799 1_555
O1 Ti1 1.995843 1_555
O1 Sr1 2.788089 1_554
O1 Sr1 2.788089 1_555
O1 Sr3 2.788089 1_555
O1 Sr3 2.788089 1_554
O2 Ti2 1.924962 1_555
O2 Sr2 2.871852 1_655
O2 Sr2 2.871852 1_654
O2 Sr0 2.871852 1_545
O2 Sr0 2.871852 1_544
O3 Ti0 1.924962 1_555
O3 Sr3 2.871852 1_564
O3 Sr3 2.871852 1_565
O3 Sr1 2.871852 1_454
O3 Sr1 2.871852 1_455
O4 Ti0 1.997084 1_545
O4 Ti2 1.997084 1_555
O4 Sr0 2.791929 1_544
O4 Sr0 2.791929 1_545
O4 Sr3 2.791929 1_554
O4 Sr3 2.791929 1_555
O5 Ti1 1.932477 1_555
O5 Sr1 2.865124 1_554
O5 Sr1 2.865124 1_555
O5 Sr0 2.865124 1_555
O5 Sr0 2.865124 1_554
O6 Ti0 1.997084 1_555
O6 Ti2 1.997084 1_455
O6 Sr1 2.791929 1_455
O6 Sr1 2.791929 1_454
O6 Sr2 2.791929 1_555
O6 Sr2 2.791929 1_554
O7 Ti1 1.932477 1_555
O7 Sr2 2.865124 1_555
O7 Sr2 2.865124 1_554
O7 Sr3 2.865124 1_555
O7 Sr3 2.865124 1_554
O8 Ti0 2.004534 1_555
O8 Ti0 2.004534 1_556
O8 Sr0 2.712867 1_555
O8 Sr2 2.712867 1_555
O8 Sr1 2.859457 1_455
O8 Sr3 2.859457 1_565
O9 Ti1 2.004240 1_555
O9 Ti1 2.004240 1_556
O9 Sr2 2.818818 1_555
O9 Sr3 2.818818 1_555
O9 Sr0 2.818818 1_555
O9 Sr1 2.818818 1_555
O10 Ti2 2.004534 1_555
O10 Ti2 2.004534 1_556
O10 Sr1 2.712867 1_555
O10 Sr3 2.712867 1_555
O10 Sr0 2.859457 1_545
O10 Sr2 2.859457 1_655
O11 Sr3 2.902023 1_555
O11 Sr2 2.902023 1_555
O11 Sr0 2.902023 1_445
O11 Sr1 2.902023 1_445
