# generated using pymatgen
data_Li3MnCoO5
_symmetry_space_group_name_H-M   'P 1'
_cell_length_a   6.52598021
_cell_length_b   6.52598021
_cell_length_c   9.89450235
_cell_angle_alpha   79.98652911
_cell_angle_beta   79.98652911
_cell_angle_gamma   25.86208280
_symmetry_Int_Tables_number   1
_chemical_formula_structural   Li3MnCoO5
_chemical_formula_sum   'Li6 Mn2 Co2 O10'
_cell_volume   180.86466878
_cell_formula_units_Z   2
loop_
 _symmetry_equiv_pos_site_id
 _symmetry_equiv_pos_as_xyz
  1  'x, y, z'
loop_
 _atom_site_type_symbol
 _atom_site_label
 _atom_site_symmetry_multiplicity
 _atom_site_fract_x
 _atom_site_fract_y
 _atom_site_fract_z
 _atom_site_occupancy
  Li  Li0  1  0.50196200  0.50196200  0.50888600  1
  Li  Li1  1  0.70583200  0.70583200  0.88406600  1
  Li  Li2  1  0.88741400  0.88741400  0.32145700  1
  Li  Li3  1  0.10626000  0.10626000  0.68367600  1
  Li  Li4  1  0.29728400  0.29728400  0.10851300  1
  Li  Li5  1  0.20158600  0.20158600  0.40129700  1
  Mn  Mn0  1  0.99935700  0.99935700  0.00125000  1
  Mn  Mn1  1  0.60518900  0.60518900  0.20530500  1
  Co  Co0  1  0.39785400  0.39785400  0.79268900  1
  Co  Co1  1  0.78995100  0.78995100  0.58895900  1
  O  O0  1  0.25446900  0.25446900  0.74807300  1
  O  O1  1  0.46026100  0.46026100  0.13214700  1
  O  O2  1  0.65526100  0.65526100  0.55270000  1
  O  O3  1  0.86261900  0.86261900  0.94514100  1
  O  O4  1  0.05474700  0.05474700  0.32499200  1
  O  O5  1  0.73907000  0.73907000  0.24104700  1
  O  O6  1  0.94682800  0.94682800  0.66211700  1
  O  O7  1  0.13782000  0.13782000  0.06312600  1
  O  O8  1  0.35184600  0.35184600  0.46016800  1
  O  O9  1  0.54439200  0.54439200  0.87439100  1
loop_
_geom_bond_atom_site_label_1
_geom_bond_atom_site_label_2
_geom_bond_distance
_geom_bond_site_symmetry_2
Li0 O8 2.051209 1_555
Li0 O2 2.071840 1_555
Li0 O6 2.131635 1_545
Li0 O6 2.131635 1_455
Li0 O4 2.336311 1_565
Li0 O4 2.336311 1_655
Li1 O0 2.007244 1_655
Li1 O0 2.007244 1_565
Li1 O9 2.072892 1_555
Li1 O3 2.184765 1_555
Li1 O7 2.339496 1_566
Li1 O7 2.339496 1_656
Li2 O8 1.999881 1_565
Li2 O8 1.999881 1_655
Li2 O4 2.135155 1_665
Li2 O5 2.174806 1_555
Li2 O1 2.425014 1_655
Li2 O1 2.425014 1_565
Li3 O2 1.977997 1_545
Li3 O2 1.977997 1_455
Li3 O6 2.076819 1_445
Li3 O0 2.095046 1_555
Li3 O9 2.404800 1_545
Li3 O9 2.404800 1_455
Li4 O5 2.013515 1_455
Li4 O5 2.013515 1_545
Li4 O1 2.127424 1_555
Li4 O7 2.154455 1_555
Li4 O3 2.226456 1_544
Li4 O3 2.226456 1_454
Li5 O8 2.095288 1_555
Li5 O2 2.099796 1_545
Li5 O2 2.099796 1_455
Li5 O4 2.135978 1_555
Li5 O5 2.145785 1_545
Li5 O5 2.145785 1_455
Mn0 O3 1.917923 1_554
Mn0 O9 1.944184 1_654
Mn0 O9 1.944184 1_564
Mn0 O1 1.956436 1_655
Mn0 O1 1.956436 1_565
Mn0 O7 1.965215 1_665
Mn1 O5 1.800141 1_555
Mn1 O4 1.917218 1_655
Mn1 O4 1.917218 1_565
Mn1 O7 2.018834 1_655
Mn1 O7 2.018834 1_565
Mn1 O1 2.097402 1_555
Co0 O0 1.951703 1_555
Co0 O6 1.975537 1_545
Co0 O6 1.975537 1_455
Co0 O3 2.089911 1_455
Co0 O3 2.089911 1_545
Co0 O9 2.160113 1_555
Co1 O2 1.812108 1_555
Co1 O8 2.004625 1_565
Co1 O8 2.004625 1_655
Co1 O0 2.135757 1_565
Co1 O0 2.135757 1_655
Co1 O6 2.240967 1_555
