# generated using pymatgen
data_YbBi2C
_symmetry_space_group_name_H-M   'P 1'
_cell_length_a   10.66650843
_cell_length_b   10.66650843
_cell_length_c   6.63324307
_cell_angle_alpha   90.00000000
_cell_angle_beta   90.00000000
_cell_angle_gamma   90.00000000
_symmetry_Int_Tables_number   1
_chemical_formula_structural   YbBi2C
_chemical_formula_sum   'Yb8 Bi16 C8'
_cell_volume   754.69326404
_cell_formula_units_Z   8
loop_
 _symmetry_equiv_pos_site_id
 _symmetry_equiv_pos_as_xyz
  1  'x, y, z'
loop_
 _atom_site_type_symbol
 _atom_site_label
 _atom_site_symmetry_multiplicity
 _atom_site_fract_x
 _atom_site_fract_y
 _atom_site_fract_z
 _atom_site_occupancy
  Yb  Yb0  1  0.16768910  0.66768910  0.25000000  1
  Yb  Yb1  1  0.83231090  0.33231090  0.75000000  1
  Yb  Yb2  1  0.83231090  0.33231090  0.25000000  1
  Yb  Yb3  1  0.33231090  0.16768910  0.75000000  1
  Yb  Yb4  1  0.16768910  0.66768910  0.75000000  1
  Yb  Yb5  1  0.66768910  0.83231090  0.25000000  1
  Yb  Yb6  1  0.66768910  0.83231090  0.75000000  1
  Yb  Yb7  1  0.33231090  0.16768910  0.25000000  1
  Bi  Bi0  1  0.09631631  0.38811208  0.00000000  1
  Bi  Bi1  1  0.90368369  0.61188792  0.00000000  1
  Bi  Bi2  1  0.61188792  0.09631631  0.50000000  1
  Bi  Bi3  1  0.40368369  0.88811208  0.00000000  1
  Bi  Bi4  1  0.38811208  0.90368369  0.50000000  1
  Bi  Bi5  1  0.59631631  0.11188792  0.00000000  1
  Bi  Bi6  1  0.88811208  0.59631631  0.50000000  1
  Bi  Bi7  1  0.11188792  0.40368369  0.50000000  1
  Bi  Bi8  1  0.91659918  0.11414515  0.00000000  1
  Bi  Bi9  1  0.08340082  0.88585485  0.00000000  1
  Bi  Bi10  1  0.88585485  0.91659918  0.50000000  1
  Bi  Bi11  1  0.58340082  0.61414515  0.00000000  1
  Bi  Bi12  1  0.11414515  0.08340082  0.50000000  1
  Bi  Bi13  1  0.41659918  0.38585485  0.00000000  1
  Bi  Bi14  1  0.61414515  0.41659918  0.50000000  1
  Bi  Bi15  1  0.38585485  0.58340082  0.50000000  1
  C  C0  1  0.35177707  0.59707240  0.00000000  1
  C  C1  1  0.64822293  0.40292760  0.00000000  1
  C  C2  1  0.40292760  0.35177707  0.50000000  1
  C  C3  1  0.14822293  0.09707240  0.00000000  1
  C  C4  1  0.59707240  0.64822293  0.50000000  1
  C  C5  1  0.85177707  0.90292760  0.00000000  1
  C  C6  1  0.09707240  0.85177707  0.50000000  1
  C  C7  1  0.90292760  0.14822293  0.50000000  1
loop_
_geom_bond_atom_site_label_1
_geom_bond_atom_site_label_2
_geom_bond_distance
_geom_bond_site_symmetry_2
Bi0 Bi1 3.149474 1_455
Bi0 Yb1 3.321778 1_454
Bi0 Yb2 3.321778 1_455
Bi0 Bi7 3.324929 1_554
Bi0 Bi7 3.324929 1_555
Bi0 Bi13 3.416385 1_555
Bi0 Bi8 3.494908 1_455
Bi0 Yb4 3.496077 1_554
Bi0 Yb0 3.496077 1_555
Bi0 Yb7 3.822873 1_555
Bi0 Yb3 3.822873 1_554
Bi1 Yb4 3.321778 1_654
Bi1 Yb0 3.321778 1_655
Bi1 Bi6 3.324929 1_555
Bi1 Bi6 3.324929 1_554
Bi1 Bi11 3.416385 1_555
Bi1 Bi9 3.494908 1_655
Bi1 Yb2 3.496077 1_555
Bi1 Yb1 3.496077 1_554
Bi1 Yb6 3.822873 1_554
Bi1 Yb5 3.822873 1_555
Bi2 Bi4 3.149474 1_545
Bi2 Yb5 3.321778 1_545
Bi2 Yb6 3.321778 1_545
Bi2 Bi5 3.324929 1_556
Bi2 Bi5 3.324929 1_555
Bi2 Yb7 3.496077 1_555
Bi2 Yb3 3.496077 1_555
Bi2 Yb2 3.822873 1_555
Bi2 Yb1 3.822873 1_555
Bi3 Bi5 3.149474 1_565
Bi3 Yb5 3.321778 1_555
Bi3 Yb6 3.321778 1_554
Bi3 Bi4 3.324929 1_555
Bi3 Bi4 3.324929 1_554
Bi3 Bi9 3.416385 1_555
Bi3 Yb3 3.496077 1_564
Bi3 Yb7 3.496077 1_565
Bi3 Yb0 3.822873 1_555
Bi3 Yb4 3.822873 1_554
Bi4 Yb7 3.321778 1_565
Bi4 Yb3 3.321778 1_565
Bi4 Yb6 3.496077 1_555
Bi4 Yb5 3.496077 1_555
Bi4 Yb4 3.822873 1_555
Bi4 Yb0 3.822873 1_555
Bi5 Yb7 3.321778 1_555
Bi5 Yb3 3.321778 1_554
Bi5 Bi8 3.416385 1_555
Bi5 Yb5 3.496077 1_545
Bi5 Yb6 3.496077 1_544
Bi5 Yb1 3.822873 1_554
Bi5 Yb2 3.822873 1_555
Bi6 Bi7 3.149474 1_655
Bi6 Yb1 3.321778 1_555
Bi6 Yb2 3.321778 1_555
Bi6 Yb0 3.496077 1_655
Bi6 Yb4 3.496077 1_655
Bi6 Yb5 3.822873 1_555
Bi6 Yb6 3.822873 1_555
Bi7 Yb0 3.321778 1_555
Bi7 Yb4 3.321778 1_555
Bi7 Yb1 3.496077 1_455
Bi7 Yb2 3.496077 1_455
Bi7 Yb3 3.822873 1_555
Bi7 Yb7 3.822873 1_555
Bi8 C5 2.356665 1_545
Bi8 C3 2.477319 1_655
Bi8 Yb1 2.995588 1_554
Bi8 Yb2 2.995588 1_555
Bi9 C3 2.356665 1_565
Bi9 C5 2.477319 1_455
Bi9 Yb0 2.995588 1_555
Bi9 Yb4 2.995588 1_554
Bi10 C6 2.356665 1_655
Bi10 C7 2.477319 1_565
Bi10 Yb6 2.995588 1_555
Bi10 Yb5 2.995588 1_555
Bi10 Bi6 3.416385 1_555
Bi10 Bi2 3.494908 1_565
Bi11 C1 2.356665 1_555
Bi11 C0 2.477319 1_555
Bi11 Yb6 2.995588 1_554
Bi11 Yb5 2.995588 1_555
Bi11 Bi3 3.494908 1_555
Bi12 C7 2.356665 1_455
Bi12 C6 2.477319 1_545
Bi12 Yb3 2.995588 1_555
Bi12 Yb7 2.995588 1_555
Bi12 Bi7 3.416385 1_555
Bi12 Bi4 3.494908 1_545
Bi13 C0 2.356665 1_555
Bi13 C1 2.477319 1_555
Bi13 Yb3 2.995588 1_554
Bi13 Yb7 2.995588 1_555
Bi13 Bi5 3.494908 1_555
Bi14 C2 2.356665 1_555
Bi14 C4 2.477319 1_555
Bi14 Yb1 2.995588 1_555
Bi14 Yb2 2.995588 1_555
Bi14 Bi2 3.416385 1_555
Bi14 Bi6 3.494908 1_555
Bi15 C4 2.356665 1_555
Bi15 C2 2.477319 1_555
Bi15 Yb0 2.995588 1_555
Bi15 Yb4 2.995588 1_555
Bi15 Bi4 3.416385 1_555
Bi15 Bi7 3.494908 1_555
C0 Yb0 2.678243 1_555
C0 Yb4 2.678243 1_554
C1 Yb2 2.678243 1_555
C1 Yb1 2.678243 1_554
C2 Yb3 2.678243 1_555
C2 Yb7 2.678243 1_555
C3 Yb3 2.678243 1_554
C3 Yb7 2.678243 1_555
C4 Yb6 2.678243 1_555
C4 Yb5 2.678243 1_555
C5 Yb6 2.678243 1_554
C5 Yb5 2.678243 1_555
C6 Yb4 2.678243 1_555
C6 Yb0 2.678243 1_555
C7 Yb2 2.678243 1_555
C7 Yb1 2.678243 1_555
