# generated using pymatgen
data_TmSnPd
_symmetry_space_group_name_H-M   'P 1'
_cell_length_a   7.51941896
_cell_length_b   7.51941896
_cell_length_c   3.87166951
_cell_angle_alpha   90.00000000
_cell_angle_beta   90.00000000
_cell_angle_gamma   120.00000245
_symmetry_Int_Tables_number   1
_chemical_formula_structural   TmSnPd
_chemical_formula_sum   'Tm3 Sn3 Pd3'
_cell_volume   189.58215926
_cell_formula_units_Z   3
loop_
 _symmetry_equiv_pos_site_id
 _symmetry_equiv_pos_as_xyz
  1  'x, y, z'
loop_
 _atom_site_type_symbol
 _atom_site_label
 _atom_site_symmetry_multiplicity
 _atom_site_fract_x
 _atom_site_fract_y
 _atom_site_fract_z
 _atom_site_occupancy
  Tm  Tm0  1  -0.00000000  0.40384370  0.50000000  1
  Tm  Tm1  1  0.59615630  0.59615630  0.50000000  1
  Tm  Tm2  1  0.40384370  -0.00000000  0.50000000  1
  Sn  Sn0  1  0.00000000  0.73765843  -0.00000000  1
  Sn  Sn1  1  0.26234157  0.26234157  0.00000000  1
  Sn  Sn2  1  0.73765843  0.00000000  -0.00000000  1
  Pd  Pd0  1  0.33333300  0.66666700  0.00000000  1
  Pd  Pd1  1  0.66666700  0.33333300  0.00000000  1
  Pd  Pd2  1  -0.00000000  -0.00000000  0.50000000  1
loop_
_geom_bond_atom_site_label_1
_geom_bond_atom_site_label_2
_geom_bond_distance
_geom_bond_site_symmetry_2
Sn0 Tm0 3.169862 1_555
Sn0 Tm0 3.169862 1_554
Sn0 Tm2 3.296951 1_565
Sn0 Tm2 3.296951 1_564
Sn0 Tm1 3.296951 1_455
Sn0 Tm1 3.296951 1_454
Sn1 Tm1 3.169861 1_555
Sn1 Tm1 3.169861 1_554
Sn1 Tm2 3.296951 1_554
Sn1 Tm0 3.296951 1_555
Sn1 Tm0 3.296951 1_554
Sn1 Tm2 3.296951 1_555
Sn2 Tm2 3.169862 1_554
Sn2 Tm2 3.169862 1_555
Sn2 Tm0 3.296951 1_654
Sn2 Tm0 3.296951 1_655
Sn2 Tm1 3.296951 1_544
Sn2 Tm1 3.296951 1_545
Pd0 Sn0 2.811644 1_555
Pd0 Sn2 2.811649 1_565
Pd0 Sn1 2.811651 1_555
Pd0 Tm2 2.997004 1_565
Pd0 Tm2 2.997004 1_564
Pd0 Tm0 2.997006 1_555
Pd0 Tm0 2.997006 1_554
Pd0 Tm1 2.997010 1_554
Pd0 Tm1 2.997010 1_555
Pd1 Sn2 2.811644 1_555
Pd1 Sn0 2.811649 1_655
Pd1 Sn1 2.811651 1_555
Pd1 Tm0 2.997004 1_654
Pd1 Tm0 2.997004 1_655
Pd1 Tm2 2.997006 1_554
Pd1 Tm2 2.997006 1_555
Pd1 Tm1 2.997010 1_554
Pd1 Tm1 2.997010 1_555
Pd2 Sn1 2.763843 1_555
Pd2 Sn1 2.763843 1_556
Pd2 Sn0 2.763843 1_546
Pd2 Sn2 2.763843 1_456
Pd2 Sn2 2.763843 1_455
Pd2 Sn0 2.763843 1_545
Pd2 Tm1 3.036670 1_445
Pd2 Tm2 3.036670 1_555
Pd2 Tm0 3.036670 1_555
