# generated using pymatgen
data_KNdTe2
_symmetry_space_group_name_H-M   'P 1'
_cell_length_a   8.62212601
_cell_length_b   8.62212601
_cell_length_c   8.62212564
_cell_angle_alpha   31.08601397
_cell_angle_beta   31.08601397
_cell_angle_gamma   31.08601897
_symmetry_Int_Tables_number   1
_chemical_formula_structural   KNdTe2
_chemical_formula_sum   'K1 Nd1 Te2'
_cell_volume   151.60938301
_cell_formula_units_Z   1
loop_
 _symmetry_equiv_pos_site_id
 _symmetry_equiv_pos_as_xyz
  1  'x, y, z'
loop_
 _atom_site_type_symbol
 _atom_site_label
 _atom_site_symmetry_multiplicity
 _atom_site_fract_x
 _atom_site_fract_y
 _atom_site_fract_z
 _atom_site_occupancy
  K  K0  1  0.50000000  0.50000000  0.50000000  1
  Nd  Nd0  1  0.00000000  0.00000000  -0.00000000  1
  Te  Te0  1  0.26143047  0.26143047  0.26143047  1
  Te  Te1  1  0.73856953  0.73856953  0.73856953  1
loop_
_geom_bond_atom_site_label_1
_geom_bond_atom_site_label_2
_geom_bond_distance
_geom_bond_site_symmetry_2
K0 Te1 3.542653 1_554
K0 Te0 3.542653 1_556
K0 Te1 3.542654 1_455
K0 Te1 3.542654 1_545
K0 Te0 3.542654 1_565
K0 Te0 3.542654 1_655
Nd0 Te0 3.200811 1_554
Nd0 Te1 3.200811 1_445
Nd0 Te0 3.200812 1_545
Nd0 Te0 3.200812 1_455
Nd0 Te1 3.200812 1_454
Nd0 Te1 3.200812 1_544
