# generated using pymatgen
data_Fe4AgAs(XeF3)2
_symmetry_space_group_name_H-M   'P 1'
_cell_length_a   7.29576200
_cell_length_b   7.29576200
_cell_length_c   13.06003414
_cell_angle_alpha   106.21940628
_cell_angle_beta   106.21940628
_cell_angle_gamma   90.00000000
_symmetry_Int_Tables_number   1
_chemical_formula_structural   Fe4AgAs(XeF3)2
_chemical_formula_sum   'Fe8 Ag2 As2 Xe4 F12'
_cell_volume   638.62774858
_cell_formula_units_Z   2
loop_
 _symmetry_equiv_pos_site_id
 _symmetry_equiv_pos_as_xyz
  1  'x, y, z'
loop_
 _atom_site_type_symbol
 _atom_site_label
 _atom_site_symmetry_multiplicity
 _atom_site_fract_x
 _atom_site_fract_y
 _atom_site_fract_z
 _atom_site_occupancy
  Fe  Fe0  1  0.27604700  0.17762300  0.17818400  1
  Fe  Fe1  1  0.90213800  0.00056200  0.17818400  1
  Fe  Fe2  1  0.99943800  0.72395300  0.82181600  1
  Fe  Fe3  1  0.77604700  0.50056200  0.17818400  1
  Fe  Fe4  1  0.82237700  0.09786200  0.82181600  1
  Fe  Fe5  1  0.40213800  0.67762300  0.17818400  1
  Fe  Fe6  1  0.49943800  0.59786200  0.82181600  1
  Fe  Fe7  1  0.32237700  0.22395300  0.82181600  1
  Ag  Ag0  1  0.00000000  0.50000000  0.00000000  1
  Ag  Ag1  1  0.50000000  0.00000000  0.00000000  1
  As  As0  1  0.00000000  0.00000000  0.00000000  1
  As  As1  1  0.50000000  0.50000000  0.00000000  1
  Xe  Xe0  1  0.47510100  0.47510100  0.50000000  1
  Xe  Xe1  1  0.02489900  0.02489900  0.50000000  1
  Xe  Xe2  1  0.97510100  0.52489900  0.50000000  1
  Xe  Xe3  1  0.52489900  0.97510100  0.50000000  1
  F  F0  1  0.25823800  0.45665400  0.19593700  1
  F  F1  1  0.93769800  0.73928300  0.19593700  1
  F  F2  1  0.26071700  0.74176200  0.80406300  1
  F  F3  1  0.75823800  0.23928300  0.19593700  1
  F  F4  1  0.54334600  0.06230200  0.80406300  1
  F  F5  1  0.43769800  0.95665400  0.19593700  1
  F  F6  1  0.76071700  0.56230200  0.80406300  1
  F  F7  1  0.04334600  0.24176200  0.80406300  1
  F  F8  1  0.14388100  0.14388100  0.28776200  1
  F  F9  1  0.85611900  0.85611900  0.71223800  1
  F  F10  1  0.64388100  0.64388100  0.28776200  1
  F  F11  1  0.35611900  0.35611900  0.71223800  1
loop_
_geom_bond_atom_site_label_1
_geom_bond_atom_site_label_2
_geom_bond_distance
_geom_bond_site_symmetry_2
As0 Fe1 2.616860 1_455
As0 Fe4 2.616862 1_454
As0 Fe2 2.616864 1_444
As0 Fe0 2.616866 1_555
As1 Fe6 2.616860 1_554
As1 Fe5 2.616862 1_555
As1 Fe3 2.616864 1_555
As1 Fe7 2.616866 1_554
F0 Fe0 1.991996 1_555
F0 Fe5 2.024780 1_555
F1 Fe1 1.992002 1_565
F1 Fe3 2.024766 1_555
F2 Fe2 1.992003 1_455
F2 Fe6 2.024774 1_555
F3 Fe3 1.992003 1_555
F3 Fe1 2.024774 1_555
F4 Fe4 1.991994 1_555
F4 Fe7 2.024772 1_555
F5 Fe5 1.991994 1_555
F5 Fe0 2.024772 1_565
F6 Fe6 1.992002 1_555
F6 Fe2 2.024766 1_555
F7 Fe7 1.991996 1_555
F7 Fe4 2.024780 1_455
F8 Fe1 2.001514 1_455
F8 Fe0 2.001522 1_555
F9 Fe4 2.001517 1_565
F9 Fe2 2.001519 1_555
F10 Fe5 2.001517 1_555
F10 Fe3 2.001519 1_555
F11 Fe6 2.001514 1_555
F11 Fe7 2.001522 1_555
