# generated using pymatgen
data_Li4MnCo2O7
_symmetry_space_group_name_H-M   'P 1'
_cell_length_a   4.99306000
_cell_length_b   5.96850337
_cell_length_c   8.71414373
_cell_angle_alpha   88.62802915
_cell_angle_beta   86.44899133
_cell_angle_gamma   78.03235167
_symmetry_Int_Tables_number   1
_chemical_formula_structural   Li4MnCo2O7
_chemical_formula_sum   'Li8 Mn2 Co4 O14'
_cell_volume   253.54246188
_cell_formula_units_Z   2
loop_
 _symmetry_equiv_pos_site_id
 _symmetry_equiv_pos_as_xyz
  1  'x, y, z'
loop_
 _atom_site_type_symbol
 _atom_site_label
 _atom_site_symmetry_multiplicity
 _atom_site_fract_x
 _atom_site_fract_y
 _atom_site_fract_z
 _atom_site_occupancy
  Li  Li0  1  0.28329900  0.92913900  0.42807200  1
  Li  Li1  1  0.85543000  0.78839600  0.27971700  1
  Li  Li2  1  0.71670100  0.07086100  0.57192800  1
  Li  Li3  1  0.14457000  0.21160400  0.72028300  1
  Li  Li4  1  0.42465900  0.64361000  0.14129300  1
  Li  Li5  1  0.00000000  0.50000000  0.00000000  1
  Li  Li6  1  0.57534100  0.35639000  0.85870700  1
  Li  Li7  1  0.00000000  0.00000000  0.00000000  1
  Mn  Mn0  1  0.71160000  0.57437400  0.57487800  1
  Mn  Mn1  1  0.28840000  0.42562600  0.42512200  1
  Co  Co0  1  0.85985800  0.28122700  0.28245900  1
  Co  Co1  1  0.43126900  0.12794200  0.13780800  1
  Co  Co2  1  0.56873100  0.87205800  0.86219200  1
  Co  Co3  1  0.14014200  0.71877300  0.71754100  1
  O  O0  1  0.56665100  0.60097200  0.36918700  1
  O  O1  1  0.13008200  0.45852300  0.22179700  1
  O  O2  1  0.99531800  0.74536000  0.51497100  1
  O  O3  1  0.41456900  0.88837200  0.65824800  1
  O  O4  1  0.69360400  0.30918200  0.09016200  1
  O  O5  1  0.30673600  0.16783600  0.93943300  1
  O  O6  1  0.83225300  0.01745500  0.79114000  1
  O  O7  1  0.00468200  0.25464000  0.48502900  1
  O  O8  1  0.58543100  0.11162800  0.34175200  1
  O  O9  1  0.43334900  0.39902800  0.63081300  1
  O  O10  1  0.86991800  0.54147700  0.77820300  1
  O  O11  1  0.16774700  0.98254500  0.20886000  1
  O  O12  1  0.69326400  0.83216400  0.06056700  1
  O  O13  1  0.30639600  0.69081800  0.90983800  1
loop_
_geom_bond_atom_site_label_1
_geom_bond_atom_site_label_2
_geom_bond_distance
_geom_bond_site_symmetry_2
Li0 O11 2.028452 1_555
Li0 O2 2.079328 1_455
Li0 O8 2.128269 1_565
Li0 O3 2.141338 1_555
Li0 O7 2.189917 1_565
Li0 O0 2.215916 1_555
Li1 O0 2.103847 1_555
Li1 O12 2.109685 1_555
Li1 O8 2.170847 1_565
Li1 O11 2.179833 1_655
Li1 O2 2.198691 1_555
Li1 O1 2.203141 1_655
Li2 O6 2.028452 1_555
Li2 O7 2.079328 1_655
Li2 O3 2.128269 1_545
Li2 O8 2.141338 1_555
Li2 O2 2.189917 1_545
Li2 O9 2.215916 1_555
Li3 O9 2.103847 1_555
Li3 O5 2.109685 1_555
Li3 O3 2.170847 1_545
Li3 O6 2.179833 1_455
Li3 O7 2.198691 1_555
Li3 O10 2.203141 1_455
Li4 O12 2.007791 1_555
Li4 O1 2.093985 1_555
Li4 O13 2.132465 1_554
Li4 O0 2.141633 1_555
Li4 O4 2.200639 1_555
Li4 O11 2.229741 1_555
Li5 O1 2.069942 1_555
Li5 O10 2.069942 1_454
Li5 O4 2.187620 1_455
Li5 O13 2.187620 1_554
Li5 O5 2.290274 1_554
Li5 O12 2.290274 1_455
Li6 O5 2.007791 1_555
Li6 O10 2.093985 1_555
Li6 O4 2.132465 1_556
Li6 O9 2.141633 1_555
Li6 O13 2.200639 1_555
Li6 O6 2.229741 1_555
Li7 O12 2.034327 1_445
Li7 O5 2.034327 1_554
Li7 O11 2.041685 1_545
Li7 O6 2.041685 1_454
Li7 O13 2.261154 1_544
Li7 O4 2.261154 1_455
Mn0 O9 1.938496 1_555
Mn0 O2 1.950195 1_555
Mn0 O0 1.964992 1_555
Mn0 O10 1.973622 1_555
Mn0 O3 2.240233 1_555
Mn0 O7 2.273257 1_655
Mn1 O0 1.938496 1_555
Mn1 O7 1.950195 1_555
Mn1 O9 1.964992 1_555
Mn1 O1 1.973622 1_555
Mn1 O8 2.240233 1_555
Mn1 O2 2.273257 1_455
Co0 O4 1.904310 1_555
Co0 O8 1.905683 1_555
Co0 O1 1.922667 1_655
Co0 O7 1.939384 1_655
Co0 O11 2.179146 1_645
Co0 O0 2.264903 1_555
Co1 O11 1.792934 1_545
Co1 O5 1.866458 1_554
Co1 O4 1.885999 1_555
Co1 O8 1.972435 1_555
Co1 O12 2.066612 1_545
Co1 O1 2.322174 1_555
Co2 O6 1.792934 1_565
Co2 O12 1.866458 1_556
Co2 O13 1.885999 1_555
Co2 O3 1.972435 1_555
Co2 O5 2.066612 1_565
Co2 O10 2.322174 1_555
Co3 O13 1.904310 1_555
Co3 O3 1.905683 1_555
Co3 O10 1.922667 1_455
Co3 O2 1.939384 1_455
Co3 O6 2.179146 1_465
Co3 O9 2.264903 1_555
