# generated using pymatgen
data_V2Ni(H4O5)2
_symmetry_space_group_name_H-M   'P 1'
_cell_length_a   8.00148778
_cell_length_b   8.00148778
_cell_length_c   7.16172134
_cell_angle_alpha   71.81312509
_cell_angle_beta   71.81312509
_cell_angle_gamma   69.83679223
_symmetry_Int_Tables_number   1
_chemical_formula_structural   V2Ni(H4O5)2
_chemical_formula_sum   'V4 Ni2 H16 O20'
_cell_volume   398.01842683
_cell_formula_units_Z   2
loop_
 _symmetry_equiv_pos_site_id
 _symmetry_equiv_pos_as_xyz
  1  'x, y, z'
loop_
 _atom_site_type_symbol
 _atom_site_label
 _atom_site_symmetry_multiplicity
 _atom_site_fract_x
 _atom_site_fract_y
 _atom_site_fract_z
 _atom_site_occupancy
  V  V0  1  0.88041700  0.89677500  0.20688600  1
  V  V1  1  0.10322500  0.11958300  0.29311400  1
  V  V2  1  0.11958300  0.10322500  0.79311400  1
  V  V3  1  0.89677500  0.88041700  0.70688600  1
  Ni  Ni0  1  0.00000000  0.50000000  0.50000000  1
  Ni  Ni1  1  0.50000000  0.00000000  0.00000000  1
  H  H0  1  0.43819000  0.30875500  0.31068500  1
  H  H1  1  0.69124500  0.56181000  0.18931500  1
  H  H2  1  0.56181000  0.69124500  0.68931500  1
  H  H3  1  0.30875500  0.43819000  0.81068500  1
  H  H4  1  0.65782800  0.71586800  0.40073900  1
  H  H5  1  0.28413200  0.34217200  0.09926100  1
  H  H6  1  0.34217200  0.28413200  0.59926100  1
  H  H7  1  0.71586800  0.65782800  0.90073900  1
  H  H8  1  0.67215000  0.16131900  0.47782000  1
  H  H9  1  0.83868100  0.32785000  0.02218000  1
  H  H10  1  0.32785000  0.83868100  0.52218000  1
  H  H11  1  0.16131900  0.67215000  0.97782000  1
  H  H12  1  0.33922200  0.52072300  0.74748500  1
  H  H13  1  0.47927700  0.66077800  0.75251500  1
  H  H14  1  0.66077800  0.47927700  0.25251500  1
  H  H15  1  0.52072300  0.33922200  0.24748500  1
  O  O0  1  0.88522500  0.98918200  0.42323400  1
  O  O1  1  0.01081800  0.11477500  0.07676600  1
  O  O2  1  0.11477500  0.01081800  0.57676600  1
  O  O3  1  0.98918200  0.88522500  0.92323400  1
  O  O4  1  0.99592700  0.32661900  0.33915400  1
  O  O5  1  0.67338100  0.00407300  0.16084600  1
  O  O6  1  0.00407300  0.67338100  0.66084600  1
  O  O7  1  0.32661900  0.99592700  0.83915400  1
  O  O8  1  0.20917400  0.30254200  0.62104800  1
  O  O9  1  0.69745800  0.79082600  0.87895200  1
  O  O10  1  0.79082600  0.69745800  0.37895200  1
  O  O11  1  0.30254200  0.20917400  0.12104800  1
  O  O12  1  0.68175600  0.10809800  0.75100200  1
  O  O13  1  0.89190200  0.31824400  0.74899800  1
  O  O14  1  0.31824400  0.89190200  0.24899800  1
  O  O15  1  0.10809800  0.68175600  0.25100200  1
  O  O16  1  0.40937200  0.78062300  0.40961200  1
  O  O17  1  0.21937700  0.59062800  0.09038800  1
  O  O18  1  0.59062800  0.21937700  0.59038800  1
  O  O19  1  0.78062300  0.40937200  0.90961200  1
loop_
_geom_bond_atom_site_label_1
_geom_bond_atom_site_label_2
_geom_bond_distance
_geom_bond_site_symmetry_2
Ni0 O8 2.068044 1_555
Ni0 O10 2.068044 1_455
Ni0 O4 2.074805 1_455
Ni0 O6 2.074805 1_555
Ni0 O13 2.080535 1_455
Ni0 O15 2.080535 1_555
Ni1 O11 2.068044 1_555
Ni1 O9 2.068044 1_544
Ni1 O5 2.074805 1_555
Ni1 O7 2.074805 1_544
Ni1 O12 2.080535 1_554
Ni1 O14 2.080535 1_545
H0 H15 0.745604 1_555
H1 H14 0.745604 1_555
H4 O10 0.990532 1_555
H5 O11 0.990532 1_555
H6 O8 0.990532 1_555
H7 O9 0.990532 1_555
H8 O18 0.993902 1_555
H9 O19 0.993902 1_554
H10 O16 0.993902 1_555
H11 O17 0.993902 1_556
H12 H3 0.745604 1_555
H13 H2 0.745604 1_555
O0 V0 1.928953 1_555
O0 V3 1.962349 1_555
O0 V1 2.152398 1_665
O1 V1 1.928953 1_555
O1 V2 1.962349 1_554
O1 V0 2.152398 1_445
O2 V2 1.928953 1_555
O2 V1 1.962349 1_555
O2 V3 2.152398 1_445
O3 V3 1.928953 1_555
O3 V0 1.962349 1_556
O3 V2 2.152398 1_665
O4 V1 1.665501 1_655
O5 V0 1.665501 1_545
O6 V3 1.665501 1_455
O7 V2 1.665501 1_565
O8 V2 1.893631 1_555
O9 V3 1.893631 1_555
O10 V0 1.893631 1_555
O11 V1 1.893631 1_555
O12 O18 1.443694 1_555
O12 V3 2.058629 1_545
O13 O19 1.443694 1_555
O13 V2 2.058629 1_655
O14 O16 1.443694 1_555
O14 V1 2.058629 1_565
O15 O17 1.443694 1_555
O15 V0 2.058629 1_455
