# generated using pymatgen
data_La16(Mo3O8)7
_symmetry_space_group_name_H-M   'P 1'
_cell_length_a   13.73438593
_cell_length_b   13.73117000
_cell_length_c   13.77346368
_cell_angle_alpha   90.00000000
_cell_angle_beta   100.14674999
_cell_angle_gamma   90.00000000
_symmetry_Int_Tables_number   1
_chemical_formula_structural   La16(Mo3O8)7
_chemical_formula_sum   'La32 Mo42 O112'
_cell_volume   2556.90040625
_cell_formula_units_Z   2
loop_
 _symmetry_equiv_pos_site_id
 _symmetry_equiv_pos_as_xyz
  1  'x, y, z'
loop_
 _atom_site_type_symbol
 _atom_site_label
 _atom_site_symmetry_multiplicity
 _atom_site_fract_x
 _atom_site_fract_y
 _atom_site_fract_z
 _atom_site_occupancy
  La  La0  1  0.21891100  0.61664000  0.63451600  1
  La  La1  1  0.28108900  0.11664000  0.36548400  1
  La  La2  1  0.78108900  0.38336000  0.36548400  1
  La  La3  1  0.71891100  0.88336000  0.63451600  1
  La  La4  1  0.22655400  0.80627900  0.86101000  1
  La  La5  1  0.27344600  0.30627900  0.13899000  1
  La  La6  1  0.77344600  0.19372100  0.13899000  1
  La  La7  1  0.72655400  0.69372100  0.86101000  1
  La  La8  1  0.42576900  0.81292200  0.67131000  1
  La  La9  1  0.07423100  0.31292200  0.32869000  1
  La  La10  1  0.57423100  0.18707800  0.32869000  1
  La  La11  1  0.92576900  0.68707800  0.67131000  1
  La  La12  1  0.45006200  0.60855700  0.88815400  1
  La  La13  1  0.04993800  0.10855700  0.11184600  1
  La  La14  1  0.54993800  0.39144300  0.11184600  1
  La  La15  1  0.95006200  0.89144300  0.88815400  1
  La  La16  1  0.85821500  0.66761200  0.35802400  1
  La  La17  1  0.64178500  0.16761200  0.64197600  1
  La  La18  1  0.14178500  0.33238800  0.64197600  1
  La  La19  1  0.35821500  0.83238800  0.35802400  1
  La  La20  1  0.36757500  0.59327300  0.15199800  1
  La  La21  1  0.13242500  0.09327300  0.84800200  1
  La  La22  1  0.63242500  0.40672700  0.84800200  1
  La  La23  1  0.86757500  0.90672700  0.15199800  1
  La  La24  1  0.36253800  0.32819900  0.87365800  1
  La  La25  1  0.13746200  0.82819900  0.12634200  1
  La  La26  1  0.63746200  0.67180100  0.12634200  1
  La  La27  1  0.86253800  0.17180100  0.87365800  1
  La  La28  1  0.14540600  0.62372100  0.32166400  1
  La  La29  1  0.35459400  0.12372100  0.67833600  1
  La  La30  1  0.85459400  0.37627900  0.67833600  1
  La  La31  1  0.64540600  0.87627900  0.32166400  1
  Mo  Mo0  1  0.28216300  0.42427800  0.47708500  1
  Mo  Mo1  1  0.21783700  0.92427800  0.52291500  1
  Mo  Mo2  1  0.71783700  0.57572200  0.52291500  1
  Mo  Mo3  1  0.78216300  0.07572200  0.47708500  1
  Mo  Mo4  1  0.07443700  0.78578700  0.48602700  1
  Mo  Mo5  1  0.42556300  0.28578700  0.51397300  1
  Mo  Mo6  1  0.92556300  0.21421300  0.51397300  1
  Mo  Mo7  1  0.57443700  0.71421300  0.48602700  1
  Mo  Mo8  1  0.43055500  0.43547400  0.64886300  1
  Mo  Mo9  1  0.06944500  0.93547400  0.35113700  1
  Mo  Mo10  1  0.56944500  0.56452600  0.35113700  1
  Mo  Mo11  1  0.93055500  0.06452600  0.64886300  1
  Mo  Mo12  1  0.58623200  0.59029900  0.64764400  1
  Mo  Mo13  1  0.91376800  0.09029900  0.35235600  1
  Mo  Mo14  1  0.41376800  0.40970100  0.35235600  1
  Mo  Mo15  1  0.08623200  0.90970100  0.64764400  1
  Mo  Mo16  1  0.57400600  0.43054600  0.51341100  1
  Mo  Mo17  1  0.92599400  0.93054600  0.48658900  1
  Mo  Mo18  1  0.42599400  0.56945400  0.48658900  1
  Mo  Mo19  1  0.07400600  0.06945400  0.51341100  1
  Mo  Mo20  1  0.21730700  0.49703500  0.95912400  1
  Mo  Mo21  1  0.28269300  0.99703500  0.04087600  1
  Mo  Mo22  1  0.78269300  0.50296500  0.04087600  1
  Mo  Mo23  1  0.71730700  0.00296500  0.95912400  1
  Mo  Mo24  1  0.07469000  0.50602500  0.79962000  1
  Mo  Mo25  1  0.42531000  0.00602500  0.20038000  1
  Mo  Mo26  1  0.92531000  0.49397500  0.20038000  1
  Mo  Mo27  1  0.57469000  0.99397500  0.79962000  1
  Mo  Mo28  1  0.93474700  0.64885200  0.07147600  1
  Mo  Mo29  1  0.56525300  0.14885200  0.92852400  1
  Mo  Mo30  1  0.06525300  0.35114800  0.92852400  1
  Mo  Mo31  1  0.43474700  0.85114800  0.07147600  1
  Mo  Mo32  1  0.08169500  0.64327500  0.94778200  1
  Mo  Mo33  1  0.41830500  0.14327500  0.05221800  1
  Mo  Mo34  1  0.91830500  0.35672500  0.05221800  1
  Mo  Mo35  1  0.58169500  0.85672500  0.94778200  1
  Mo  Mo36  1  0.07450200  0.48998100  0.08464100  1
  Mo  Mo37  1  0.42549800  0.98998100  0.91535900  1
  Mo  Mo38  1  0.92549800  0.51001900  0.91535900  1
  Mo  Mo39  1  0.57450200  0.01001900  0.08464100  1
  Mo  Mo40  1  0.00000000  0.50000000  0.50000000  1
  Mo  Mo41  1  0.50000000  0.00000000  0.50000000  1
  O  O0  1  0.73486900  0.58924300  0.67007800  1
  O  O1  1  0.76513100  0.08924300  0.32992200  1
  O  O2  1  0.26513100  0.41075700  0.32992200  1
  O  O3  1  0.23486900  0.91075700  0.67007800  1
  O  O4  1  0.27678500  0.44103000  0.62532100  1
  O  O5  1  0.22321500  0.94103000  0.37467900  1
  O  O6  1  0.72321500  0.55897000  0.37467900  1
  O  O7  1  0.77678500  0.05897000  0.62532100  1
  O  O8  1  0.22790300  0.07330900  0.52990800  1
  O  O9  1  0.27209700  0.57330900  0.47009200  1
  O  O10  1  0.77209700  0.92669100  0.47009200  1
  O  O11  1  0.72790300  0.42669100  0.52990800  1
  O  O12  1  0.22431400  0.77588100  0.51153100  1
  O  O13  1  0.27568600  0.27588100  0.48846900  1
  O  O14  1  0.77568600  0.22411900  0.48846900  1
  O  O15  1  0.72431400  0.72411900  0.51153100  1
  O  O16  1  0.87667000  0.58186700  0.53847800  1
  O  O17  1  0.62333000  0.08186700  0.46152200  1
  O  O18  1  0.12333000  0.41813300  0.46152200  1
  O  O19  1  0.37667000  0.91813300  0.53847800  1
  O  O20  1  0.08651700  0.76203000  0.63629300  1
  O  O21  1  0.41348300  0.26203000  0.36370600  1
  O  O22  1  0.91348300  0.23797000  0.36370600  1
  O  O23  1  0.58651700  0.73797000  0.63629300  1
  O  O24  1  0.93411200  0.21619700  0.66092800  1
  O  O25  1  0.56588800  0.71619700  0.33907200  1
  O  O26  1  0.06588800  0.78380300  0.33907200  1
  O  O27  1  0.43411200  0.28380300  0.66092800  1
  O  O28  1  0.07264000  0.22106800  0.51560500  1
  O  O29  1  0.42736000  0.72106800  0.48439500  1
  O  O30  1  0.92736000  0.77893200  0.48439500  1
  O  O31  1  0.57264000  0.27893200  0.51560500  1
  O  O32  1  0.93199400  0.36656500  0.53505600  1
  O  O33  1  0.56800600  0.86656500  0.46494400  1
  O  O34  1  0.06800600  0.63343500  0.46494400  1
  O  O35  1  0.43199400  0.13343500  0.53505600  1
  O  O36  1  0.93055000  0.90676600  0.63767000  1
  O  O37  1  0.56945000  0.40676600  0.36233000  1
  O  O38  1  0.06945000  0.09323400  0.36233000  1
  O  O39  1  0.43055000  0.59323400  0.63767000  1
  O  O40  1  0.09035500  0.06258400  0.66740000  1
  O  O41  1  0.40964500  0.56258400  0.33260000  1
  O  O42  1  0.90964500  0.93741600  0.33260000  1
  O  O43  1  0.59035500  0.43741600  0.66740000  1
  O  O44  1  0.95131100  0.05163200  0.80152300  1
  O  O45  1  0.54868900  0.55163200  0.19847700  1
  O  O46  1  0.04868900  0.94836800  0.19847700  1
  O  O47  1  0.45131100  0.44836800  0.80152300  1
  O  O48  1  0.08934300  0.90510200  0.79676400  1
  O  O49  1  0.41065700  0.40510200  0.20323600  1
  O  O50  1  0.91065700  0.09489800  0.20323600  1
  O  O51  1  0.58934300  0.59489800  0.79676400  1
  O  O52  1  0.23787700  0.64026100  0.97123300  1
  O  O53  1  0.26212300  0.14026100  0.02876700  1
  O  O54  1  0.76212300  0.35973900  0.02876700  1
  O  O55  1  0.73787700  0.85973900  0.97123300  1
  O  O56  1  0.21858500  0.34564600  0.95757200  1
  O  O57  1  0.28141500  0.84564600  0.04242800  1
  O  O58  1  0.78141500  0.65435400  0.04242800  1
  O  O59  1  0.71858500  0.15435400  0.95757200  1
  O  O60  1  0.27223600  0.98174500  0.89057100  1
  O  O61  1  0.22776400  0.48174500  0.10942900  1
  O  O62  1  0.72776400  0.01825500  0.10942900  1
  O  O63  1  0.77223600  0.51825500  0.89057100  1
  O  O64  1  0.22351400  0.49104500  0.81410400  1
  O  O65  1  0.27648600  0.99104500  0.18589600  1
  O  O66  1  0.77648600  0.50895500  0.18589600  1
  O  O67  1  0.72351400  0.00895500  0.81410400  1
  O  O68  1  0.87925400  0.00419400  0.98812800  1
  O  O69  1  0.62074600  0.50419400  0.01187200  1
  O  O70  1  0.12074600  0.99580600  0.01187200  1
  O  O71  1  0.37925400  0.49580600  0.98812800  1
  O  O72  1  0.08162500  0.65473600  0.79743400  1
  O  O73  1  0.41837500  0.15473600  0.20256600  1
  O  O74  1  0.91837500  0.34526400  0.20256600  1
  O  O75  1  0.58162500  0.84526400  0.79743400  1
  O  O76  1  0.05197100  0.36191400  0.77343100  1
  O  O77  1  0.44802900  0.86191400  0.22656900  1
  O  O78  1  0.94802900  0.63808600  0.22656900  1
  O  O79  1  0.55197100  0.13808600  0.77343100  1
  O  O80  1  0.92423300  0.52355300  0.76153600  1
  O  O81  1  0.57576700  0.02355300  0.23846400  1
  O  O82  1  0.07576700  0.47644700  0.23846400  1
  O  O83  1  0.42423300  0.97644700  0.76153600  1
  O  O84  1  0.08247000  0.51437500  0.64627800  1
  O  O85  1  0.41753000  0.01437500  0.35372200  1
  O  O86  1  0.91753000  0.48562500  0.35372200  1
  O  O87  1  0.58247000  0.98562500  0.64627800  1
  O  O88  1  0.92237000  0.66286700  0.91424500  1
  O  O89  1  0.57763000  0.16286700  0.08575500  1
  O  O90  1  0.07763000  0.33713300  0.08575500  1
  O  O91  1  0.42237000  0.83713300  0.91424500  1
  O  O92  1  0.90663200  0.35684300  0.89287100  1
  O  O93  1  0.59336800  0.85684300  0.10712900  1
  O  O94  1  0.09336800  0.64315700  0.10712900  1
  O  O95  1  0.40663200  0.14315700  0.89287100  1
  O  O96  1  0.04704400  0.20304100  0.92553200  1
  O  O97  1  0.45295600  0.70304100  0.07446800  1
  O  O98  1  0.95295600  0.79695900  0.07446800  1
  O  O99  1  0.54704400  0.29695900  0.92553200  1
  O  O100  1  0.09187000  0.78900000  0.95461800  1
  O  O101  1  0.40813000  0.28900000  0.04538200  1
  O  O102  1  0.90813000  0.21100000  0.04538200  1
  O  O103  1  0.59187000  0.71100000  0.95461800  1
  O  O104  1  0.74543100  0.27425000  0.74679700  1
  O  O105  1  0.75456900  0.77425000  0.25320300  1
  O  O106  1  0.25456900  0.72575000  0.25320300  1
  O  O107  1  0.24543100  0.22575000  0.74679700  1
  O  O108  1  0.82362000  0.79125100  0.75634000  1
  O  O109  1  0.67638000  0.29125100  0.24366000  1
  O  O110  1  0.17638000  0.20874900  0.24366000  1
  O  O111  1  0.32362000  0.70874900  0.75634000  1
loop_
_geom_bond_atom_site_label_1
_geom_bond_atom_site_label_2
_geom_bond_distance
_geom_bond_site_symmetry_2
La0 O84 2.369950 1_555
La0 O111 2.373406 1_555
La0 O4 2.549085 1_555
La0 O9 2.568909 1_555
La0 O20 2.703366 1_555
La0 O12 2.774934 1_555
La0 O34 2.845737 1_555
La0 O39 2.917152 1_555
La0 O64 3.006904 1_555
La0 O72 3.217911 1_555
La1 O85 2.369950 1_555
La1 O110 2.373406 1_555
La1 O5 2.549085 1_545
La1 O8 2.568909 1_555
La1 O21 2.703368 1_555
La1 O13 2.774934 1_555
La1 O35 2.845737 1_555
La1 O38 2.917152 1_555
La1 O65 3.006904 1_545
La1 O73 3.217911 1_555
La2 O86 2.369950 1_555
La2 O109 2.373406 1_555
La2 O6 2.549085 1_555
La2 O11 2.568909 1_555
La2 O22 2.703368 1_555
La2 O14 2.774934 1_555
La2 O32 2.845737 1_555
La2 O37 2.917152 1_555
La2 O66 3.006904 1_555
La2 O74 3.217911 1_555
La3 O87 2.369950 1_555
La3 O108 2.373406 1_555
La3 O7 2.549085 1_565
La3 O10 2.568909 1_555
La3 O23 2.703366 1_555
La3 O15 2.774934 1_555
La3 O33 2.845737 1_555
La3 O36 2.917152 1_555
La3 O67 3.006904 1_565
La3 O75 3.217911 1_555
La4 O48 2.363932 1_555
La4 O100 2.445545 1_555
La4 O60 2.504876 1_555
La4 O111 2.515216 1_555
La4 O57 2.537781 1_556
La4 O91 2.693558 1_555
La4 O52 2.728087 1_555
La4 O72 2.905989 1_555
La4 O3 3.015422 1_555
La5 O49 2.363932 1_555
La5 O101 2.445545 1_555
La5 O61 2.504876 1_555
La5 O110 2.515216 1_555
La5 O56 2.537781 1_554
La5 O90 2.693558 1_555
La5 O53 2.728087 1_555
La5 O73 2.905989 1_555
La5 O2 3.015422 1_555
La6 O50 2.363932 1_555
La6 O102 2.445545 1_555
La6 O62 2.504876 1_555
La6 O109 2.515216 1_555
La6 O59 2.537781 1_554
La6 O89 2.693558 1_555
La6 O54 2.728087 1_555
La6 O74 2.905989 1_555
La6 O1 3.015422 1_555
La7 O51 2.363932 1_555
La7 O103 2.445545 1_555
La7 O63 2.504876 1_555
La7 O108 2.515216 1_555
La7 O58 2.537781 1_556
La7 O88 2.693558 1_555
La7 O55 2.728087 1_555
La7 O75 2.905989 1_555
La7 O0 3.015422 1_555
La8 O19 2.335464 1_555
La8 O111 2.442316 1_555
La8 O75 2.546935 1_555
La8 O23 2.557592 1_555
La8 O83 2.568233 1_555
La8 O29 2.870359 1_555
La9 O18 2.335464 1_555
La9 O110 2.442316 1_555
La9 O74 2.546935 1_455
La9 O22 2.557587 1_455
La9 O82 2.568233 1_555
La9 O28 2.870359 1_555
La10 O17 2.335464 1_555
La10 O109 2.442316 1_555
La10 O73 2.546935 1_555
La10 O21 2.557587 1_555
La10 O81 2.568233 1_555
La10 O31 2.870359 1_555
La11 O16 2.335464 1_555
La11 O108 2.442316 1_555
La11 O72 2.546935 1_655
La11 O20 2.557592 1_655
La11 O80 2.568233 1_555
La11 O30 2.870359 1_555
La12 O71 2.389691 1_555
La12 O103 2.445782 1_555
La12 O51 2.475356 1_555
La12 O47 2.503880 1_555
La12 O111 2.663414 1_555
La12 O97 2.869521 1_556
La12 O69 3.007533 1_556
La13 O70 2.389691 1_545
La13 O102 2.445782 1_455
La13 O50 2.475356 1_455
La13 O46 2.503880 1_545
La13 O110 2.663414 1_555
La13 O96 2.869521 1_554
La13 O68 3.007533 1_454
La14 O69 2.389691 1_555
La14 O101 2.445782 1_555
La14 O49 2.475356 1_555
La14 O45 2.503880 1_555
La14 O109 2.663414 1_555
La14 O99 2.869521 1_554
La14 O71 3.007533 1_554
La15 O68 2.389691 1_565
La15 O100 2.445782 1_655
La15 O48 2.475356 1_655
La15 O44 2.503880 1_565
La15 O108 2.663414 1_555
La15 O98 2.869521 1_556
La15 O70 3.007533 1_656
La16 O105 2.351753 1_555
La16 O30 2.384430 1_555
La16 O78 2.398157 1_555
La16 O6 2.421929 1_555
La16 O86 2.632234 1_555
La16 O16 2.721414 1_555
La16 O34 3.032503 1_655
La17 O104 2.351753 1_555
La17 O31 2.384430 1_555
La17 O79 2.398157 1_555
La17 O7 2.421929 1_555
La17 O87 2.632234 1_545
La17 O17 2.721414 1_555
La17 O35 3.032503 1_555
La18 O107 2.351753 1_555
La18 O28 2.384430 1_555
La18 O76 2.398157 1_555
La18 O4 2.421929 1_555
La18 O84 2.632234 1_555
La18 O18 2.721414 1_555
La18 O32 3.032503 1_455
La19 O106 2.351753 1_555
La19 O29 2.384430 1_555
La19 O77 2.398157 1_555
La19 O5 2.421929 1_555
La19 O85 2.632234 1_565
La19 O19 2.721414 1_555
La19 O33 3.032503 1_555
La20 O97 2.286576 1_555
La20 O61 2.445310 1_555
La20 O41 2.488523 1_555
La20 O45 2.522555 1_555
La20 O71 2.653063 1_554
La20 O49 2.716081 1_555
La20 O52 2.868039 1_554
La20 O106 2.902288 1_555
La21 O96 2.286576 1_555
La21 O60 2.445310 1_545
La21 O40 2.488523 1_555
La21 O44 2.522555 1_455
La21 O70 2.653063 1_546
La21 O48 2.716081 1_545
La21 O53 2.868039 1_556
La21 O107 2.902288 1_555
La22 O99 2.286576 1_555
La22 O63 2.445310 1_555
La22 O43 2.488523 1_555
La22 O47 2.522555 1_555
La22 O69 2.653063 1_556
La22 O51 2.716081 1_555
La22 O54 2.868039 1_556
La22 O104 2.902288 1_555
La23 O98 2.286576 1_555
La23 O62 2.445310 1_565
La23 O42 2.488523 1_555
La23 O46 2.522555 1_655
La23 O68 2.653063 1_564
La23 O50 2.716081 1_565
La23 O55 2.868039 1_554
La23 O105 2.902288 1_555
La24 O47 2.371331 1_555
La24 O101 2.398814 1_556
La24 O56 2.471299 1_555
La24 O99 2.545213 1_555
La24 O107 2.574638 1_555
La24 O95 2.614613 1_555
La24 O71 2.776260 1_555
La24 O64 2.960883 1_555
La24 O27 3.307245 1_555
La25 O46 2.371331 1_555
La25 O100 2.398814 1_554
La25 O57 2.471299 1_555
La25 O98 2.545213 1_455
La25 O106 2.574638 1_555
La25 O94 2.614613 1_555
La25 O70 2.776260 1_555
La25 O65 2.960883 1_555
La25 O26 3.307245 1_555
La26 O45 2.371331 1_555
La26 O103 2.398814 1_554
La26 O58 2.471299 1_555
La26 O97 2.545213 1_555
La26 O105 2.574638 1_555
La26 O93 2.614613 1_555
La26 O69 2.776260 1_555
La26 O66 2.960883 1_555
La26 O25 3.307245 1_555
La27 O44 2.371331 1_555
La27 O102 2.398814 1_556
La27 O59 2.471299 1_555
La27 O96 2.545213 1_655
La27 O104 2.574638 1_555
La27 O92 2.614613 1_555
La27 O68 2.776260 1_555
La27 O67 2.960883 1_555
La27 O24 3.307245 1_555
La28 O106 2.365980 1_555
La28 O34 2.404488 1_555
La28 O82 2.435425 1_555
La28 O26 2.484794 1_555
La28 O9 2.536321 1_555
La28 O78 2.802166 1_455
La28 O94 2.927338 1_555
La29 O107 2.365980 1_555
La29 O35 2.404488 1_555
La29 O83 2.435425 1_545
La29 O27 2.484794 1_555
La29 O8 2.536321 1_555
La29 O79 2.802166 1_555
La29 O95 2.927338 1_555
La30 O104 2.365980 1_555
La30 O32 2.404488 1_555
La30 O80 2.435425 1_555
La30 O24 2.484794 1_555
La30 O11 2.536321 1_555
La30 O76 2.802166 1_655
La30 O92 2.927338 1_555
La31 O105 2.365980 1_555
La31 O33 2.404488 1_555
La31 O81 2.435425 1_565
La31 O25 2.484794 1_555
La31 O10 2.536321 1_555
La31 O77 2.802166 1_555
La31 O93 2.927338 1_555
Mo0 O2 2.007643 1_555
Mo0 O13 2.046824 1_555
Mo0 O9 2.052152 1_555
Mo0 O4 2.068849 1_555
Mo0 O18 2.155722 1_555
Mo1 O3 2.007643 1_555
Mo1 O12 2.046824 1_555
Mo1 O8 2.052152 1_565
Mo1 O5 2.068849 1_555
Mo1 O19 2.155722 1_555
Mo2 O0 2.007643 1_555
Mo2 O15 2.046824 1_555
Mo2 O11 2.052152 1_555
Mo2 O6 2.068849 1_555
Mo2 O16 2.155722 1_555
Mo3 O1 2.007643 1_555
Mo3 O14 2.046824 1_555
Mo3 O10 2.052152 1_545
Mo3 O7 2.068849 1_555
Mo3 O17 2.155722 1_555
Mo4 O26 2.006910 1_555
Mo4 O30 2.018370 1_455
Mo4 O12 2.030866 1_555
Mo4 O20 2.072810 1_555
Mo4 O34 2.111737 1_555
Mo5 O27 2.006910 1_555
Mo5 O31 2.018370 1_555
Mo5 O13 2.030866 1_555
Mo5 O21 2.072824 1_555
Mo5 O35 2.111737 1_555
Mo6 O24 2.006910 1_555
Mo6 O28 2.018370 1_655
Mo6 O14 2.030866 1_555
Mo6 O22 2.072824 1_555
Mo6 O32 2.111737 1_555
Mo7 O25 2.006910 1_555
Mo7 O29 2.018370 1_555
Mo7 O15 2.030866 1_555
Mo7 O23 2.072810 1_555
Mo7 O33 2.111737 1_555
Mo8 O47 2.079082 1_555
Mo8 O4 2.080854 1_555
Mo8 O27 2.089126 1_555
Mo8 O43 2.164581 1_555
Mo8 O39 2.171707 1_555
Mo9 O46 2.079082 1_555
Mo9 O5 2.080854 1_555
Mo9 O26 2.089126 1_555
Mo9 O42 2.164581 1_455
Mo9 O38 2.171707 1_565
Mo10 O45 2.079082 1_555
Mo10 O6 2.080854 1_555
Mo10 O25 2.089126 1_555
Mo10 O41 2.164581 1_555
Mo10 O37 2.171707 1_555
Mo11 O44 2.079082 1_555
Mo11 O7 2.080854 1_555
Mo11 O24 2.089126 1_555
Mo11 O40 2.164581 1_655
Mo11 O36 2.171707 1_545
Mo12 O0 2.010200 1_555
Mo12 O23 2.033771 1_555
Mo12 O51 2.047778 1_555
Mo12 O43 2.116299 1_555
Mo12 O39 2.118699 1_555
Mo13 O1 2.010200 1_555
Mo13 O22 2.033770 1_555
Mo13 O50 2.047778 1_555
Mo13 O42 2.116299 1_545
Mo13 O38 2.118699 1_655
Mo14 O2 2.010200 1_555
Mo14 O21 2.033770 1_555
Mo14 O49 2.047778 1_555
Mo14 O41 2.116299 1_555
Mo14 O37 2.118699 1_555
Mo15 O3 2.010200 1_555
Mo15 O20 2.033771 1_555
Mo15 O48 2.047778 1_555
Mo15 O40 2.116299 1_565
Mo15 O36 2.118699 1_455
Mo16 O31 2.082189 1_555
Mo16 O11 2.086351 1_555
Mo16 O43 2.095232 1_555
Mo16 O37 2.096387 1_555
Mo17 O30 2.082189 1_555
Mo17 O10 2.086351 1_555
Mo17 O42 2.095232 1_555
Mo17 O36 2.096387 1_555
Mo18 O29 2.082189 1_555
Mo18 O9 2.086351 1_555
Mo18 O41 2.095232 1_555
Mo18 O39 2.096387 1_555
Mo19 O28 2.082189 1_555
Mo19 O8 2.086351 1_555
Mo19 O40 2.095232 1_555
Mo19 O38 2.096387 1_555
Mo20 O52 1.989669 1_555
Mo20 O64 2.015874 1_555
Mo20 O61 2.060524 1_556
Mo20 O56 2.078964 1_555
Mo20 O71 2.189533 1_555
Mo21 O53 1.989669 1_565
Mo21 O65 2.015874 1_555
Mo21 O60 2.060524 1_554
Mo21 O57 2.078964 1_555
Mo21 O70 2.189533 1_555
Mo22 O54 1.989669 1_555
Mo22 O66 2.015874 1_555
Mo22 O63 2.060524 1_554
Mo22 O58 2.078964 1_555
Mo22 O69 2.189533 1_555
Mo23 O55 1.989669 1_545
Mo23 O67 2.015874 1_555
Mo23 O62 2.060524 1_556
Mo23 O59 2.078964 1_555
Mo23 O68 2.189533 1_555
Mo24 O76 2.025715 1_555
Mo24 O64 2.028890 1_555
Mo24 O72 2.044665 1_555
Mo24 O80 2.054583 1_455
Mo24 O84 2.136548 1_555
Mo25 O77 2.025715 1_545
Mo25 O65 2.028890 1_545
Mo25 O73 2.044665 1_555
Mo25 O81 2.054583 1_555
Mo25 O85 2.136548 1_555
Mo26 O78 2.025715 1_555
Mo26 O66 2.028890 1_555
Mo26 O74 2.044665 1_555
Mo26 O82 2.054583 1_655
Mo26 O86 2.136548 1_555
Mo27 O79 2.025715 1_565
Mo27 O67 2.028890 1_565
Mo27 O75 2.044665 1_555
Mo27 O83 2.054583 1_555
Mo27 O87 2.136548 1_555
Mo28 O98 2.048530 1_555
Mo28 O58 2.074564 1_555
Mo28 O78 2.116848 1_555
Mo28 O94 2.148593 1_655
Mo28 O88 2.150840 1_554
Mo29 O99 2.048530 1_555
Mo29 O59 2.074564 1_555
Mo29 O79 2.116848 1_555
Mo29 O95 2.148593 1_555
Mo29 O89 2.150840 1_556
Mo30 O96 2.048530 1_555
Mo30 O56 2.074564 1_555
Mo30 O76 2.116848 1_555
Mo30 O92 2.148593 1_455
Mo30 O90 2.150840 1_556
Mo31 O97 2.048530 1_555
Mo31 O57 2.074564 1_555
Mo31 O77 2.116848 1_555
Mo31 O93 2.148593 1_555
Mo31 O91 2.150840 1_554
Mo32 O100 2.006903 1_555
Mo32 O72 2.076615 1_555
Mo32 O52 2.112633 1_555
Mo32 O88 2.172086 1_455
Mo32 O94 2.172257 1_556
Mo33 O101 2.006903 1_555
Mo33 O73 2.076615 1_555
Mo33 O53 2.112633 1_555
Mo33 O89 2.172086 1_555
Mo33 O95 2.172257 1_554
Mo34 O102 2.006903 1_555
Mo34 O74 2.076615 1_555
Mo34 O54 2.112633 1_555
Mo34 O90 2.172086 1_655
Mo34 O92 2.172257 1_554
Mo35 O103 2.006903 1_555
Mo35 O75 2.076615 1_555
Mo35 O55 2.112633 1_555
Mo35 O91 2.172086 1_555
Mo35 O93 2.172257 1_556
Mo36 O61 2.075330 1_555
Mo36 O90 2.099222 1_555
Mo36 O82 2.123830 1_555
Mo36 O94 2.135090 1_555
Mo37 O60 2.075330 1_555
Mo37 O91 2.099222 1_555
Mo37 O83 2.123830 1_555
Mo37 O95 2.135090 1_565
Mo38 O63 2.075330 1_555
Mo38 O88 2.099222 1_555
Mo38 O80 2.123830 1_555
Mo38 O92 2.135090 1_555
Mo39 O62 2.075330 1_555
Mo39 O89 2.099222 1_555
Mo39 O81 2.123830 1_555
Mo39 O93 2.135090 1_545
Mo40 O84 2.139413 1_555
Mo40 O86 2.139413 1_455
Mo40 O34 2.149757 1_555
Mo40 O32 2.149757 1_455
Mo40 O18 2.174858 1_555
Mo40 O16 2.174858 1_455
Mo41 O85 2.139413 1_555
Mo41 O87 2.139413 1_545
Mo41 O35 2.149757 1_555
Mo41 O33 2.149757 1_545
Mo41 O19 2.174858 1_545
Mo41 O17 2.174858 1_555
