# generated using pymatgen
data_CsPr3CI6
_symmetry_space_group_name_H-M   'P 1'
_cell_length_a   9.65666100
_cell_length_b   9.71000609
_cell_length_c   10.26243434
_cell_angle_alpha   108.96322284
_cell_angle_beta   95.36851563
_cell_angle_gamma   89.39848986
_symmetry_Int_Tables_number   1
_chemical_formula_structural   CsPr3CI6
_chemical_formula_sum   'Cs2 Pr6 C2 I12'
_cell_volume   905.85054334
_cell_formula_units_Z   2
loop_
 _symmetry_equiv_pos_site_id
 _symmetry_equiv_pos_as_xyz
  1  'x, y, z'
loop_
 _atom_site_type_symbol
 _atom_site_label
 _atom_site_symmetry_multiplicity
 _atom_site_fract_x
 _atom_site_fract_y
 _atom_site_fract_z
 _atom_site_occupancy
  Cs  Cs0  1  0.46684000  0.37059900  0.67147400  1
  Cs  Cs1  1  0.53316000  0.62940100  0.32852600  1
  Pr  Pr0  1  0.91776100  0.74856700  0.99425900  1
  Pr  Pr1  1  0.08223900  0.25143300  0.00574100  1
  Pr  Pr2  1  0.97437000  0.89331600  0.68442700  1
  Pr  Pr3  1  0.02563000  0.10668400  0.31557300  1
  Pr  Pr4  1  0.74726200  0.08313700  0.99747500  1
  Pr  Pr5  1  0.25273800  0.91686300  0.00252500  1
  C  C0  1  0.00576400  0.02406000  0.07284500  1
  C  C1  1  0.99423600  0.97594000  0.92715500  1
  I  I0  1  0.07830900  0.20523400  0.67316900  1
  I  I1  1  0.92169100  0.79476600  0.32683100  1
  I  I2  1  0.40849400  0.20451500  0.99603200  1
  I  I3  1  0.59150600  0.79548500  0.00396800  1
  I  I4  1  0.20855700  0.58874500  0.00095100  1
  I  I5  1  0.79144300  0.41125500  0.99904900  1
  I  I6  1  0.28499400  0.77511900  0.67376200  1
  I  I7  1  0.71500600  0.22488100  0.32623800  1
  I  I8  1  0.66243100  0.00405400  0.66673200  1
  I  I9  1  0.33756900  0.99594600  0.33326800  1
  I  I10  1  0.84467100  0.58686700  0.66598800  1
  I  I11  1  0.15532900  0.41313300  0.33401200  1
loop_
_geom_bond_atom_site_label_1
_geom_bond_atom_site_label_2
_geom_bond_distance
_geom_bond_site_symmetry_2
Cs0 I8 4.000104 1_555
Cs0 I0 4.100276 1_555
Cs0 I2 4.227690 1_555
Cs0 I9 4.232905 1_545
Cs0 I10 4.242799 1_555
Cs0 I6 4.279657 1_555
Cs0 I5 4.298166 1_555
Cs0 I7 4.307794 1_555
Cs0 I4 4.353461 1_556
Cs0 I11 4.490803 1_555
Cs0 I3 4.505513 1_556
Cs1 I9 4.000104 1_555
Cs1 I1 4.100276 1_555
Cs1 I3 4.227690 1_555
Cs1 I8 4.232905 1_565
Cs1 I11 4.242799 1_555
Cs1 I7 4.279657 1_555
Cs1 I4 4.298166 1_555
Cs1 I6 4.307794 1_555
Cs1 I5 4.353461 1_554
Cs1 I10 4.490803 1_555
Cs1 I2 4.505513 1_554
C0 C1 1.407854 1_444
C0 Pr3 2.345294 1_555
C0 Pr1 2.647924 1_555
C0 Pr0 2.654391 1_444
C0 Pr4 2.656253 1_454
C0 Pr5 2.659685 1_545
C1 Pr2 2.345294 1_555
C1 Pr0 2.647924 1_555
C1 Pr1 2.654391 1_666
C1 Pr5 2.656253 1_656
C1 Pr4 2.659685 1_565
I0 Pr2 3.241434 1_445
I0 Pr1 3.291245 1_556
I0 Pr3 3.467059 1_555
I1 Pr3 3.241434 1_665
I1 Pr0 3.291245 1_554
I1 Pr2 3.467059 1_555
I2 Pr1 3.184720 1_556
I2 Pr5 3.208746 1_546
I2 Pr4 3.465897 1_555
I3 Pr0 3.184720 1_554
I3 Pr4 3.208746 1_564
I3 Pr5 3.465897 1_555
I4 Pr0 3.200037 1_454
I4 Pr5 3.213543 1_555
I4 Pr1 3.523876 1_555
I5 Pr1 3.200037 1_656
I5 Pr4 3.213543 1_555
I5 Pr0 3.523876 1_555
I6 Pr2 3.199099 1_455
I6 Pr5 3.247188 1_556
I7 Pr3 3.199099 1_655
I7 Pr4 3.247188 1_554
I8 Pr2 3.196811 1_545
I8 Pr4 3.252762 1_555
I9 Pr3 3.196811 1_565
I9 Pr5 3.252762 1_555
I10 Pr2 3.182253 1_555
I10 Pr0 3.233141 1_555
I11 Pr3 3.182253 1_555
I11 Pr1 3.233141 1_555
