# generated using pymatgen
data_CaH12(ClO7)2
_symmetry_space_group_name_H-M   'P 1'
_cell_length_a   11.15575500
_cell_length_b   8.08503400
_cell_length_c   27.26213300
_cell_angle_alpha   90.00000000
_cell_angle_beta   90.00000000
_cell_angle_gamma   90.00000000
_symmetry_Int_Tables_number   1
_chemical_formula_structural   CaH12(ClO7)2
_chemical_formula_sum   'Ca8 H96 Cl16 O112'
_cell_volume   2458.89877512
_cell_formula_units_Z   8
loop_
 _symmetry_equiv_pos_site_id
 _symmetry_equiv_pos_as_xyz
  1  'x, y, z'
loop_
 _atom_site_type_symbol
 _atom_site_label
 _atom_site_symmetry_multiplicity
 _atom_site_fract_x
 _atom_site_fract_y
 _atom_site_fract_z
 _atom_site_occupancy
  Ca  Ca0  1  0.37800600  0.97092000  0.79228800  1
  Ca  Ca1  1  0.62199400  0.02908000  0.29228800  1
  Ca  Ca2  1  0.12199400  0.97092000  0.29228800  1
  Ca  Ca3  1  0.87800600  0.02908000  0.79228800  1
  Ca  Ca4  1  0.37809200  0.52259600  0.57497200  1
  Ca  Ca5  1  0.62190800  0.47740400  0.07497200  1
  Ca  Ca6  1  0.12190800  0.52259600  0.07497200  1
  Ca  Ca7  1  0.87809200  0.47740400  0.57497200  1
  H  H0  1  0.22190400  0.68150800  0.76872000  1
  H  H1  1  0.77809600  0.31849200  0.26872000  1
  H  H2  1  0.27809600  0.68150800  0.26872000  1
  H  H3  1  0.72190400  0.31849200  0.76872000  1
  H  H4  1  0.14070200  0.78243500  0.80644900  1
  H  H5  1  0.85929800  0.21756500  0.30644900  1
  H  H6  1  0.35929800  0.78243500  0.30644900  1
  H  H7  1  0.64070200  0.21756500  0.80644900  1
  H  H8  1  0.16680500  0.20393900  0.80086600  1
  H  H9  1  0.83319500  0.79606100  0.30086600  1
  H  H10  1  0.33319500  0.20393900  0.30086600  1
  H  H11  1  0.66680500  0.79606100  0.80086600  1
  H  H12  1  0.26048400  0.29350900  0.76565900  1
  H  H13  1  0.73951600  0.70649100  0.26565900  1
  H  H14  1  0.23951600  0.29350900  0.26565900  1
  H  H15  1  0.76048400  0.70649100  0.76565900  1
  H  H16  1  0.48537800  0.42432400  0.47308400  1
  H  H17  1  0.51462200  0.57567600  0.97308400  1
  H  H18  1  0.01462200  0.42432400  0.97308400  1
  H  H19  1  0.98537800  0.57567600  0.47308400  1
  H  H20  1  0.47700900  0.61717200  0.47164200  1
  H  H21  1  0.52299100  0.38282800  0.97164200  1
  H  H22  1  0.02299100  0.61717200  0.97164200  1
  H  H23  1  0.97700900  0.38282800  0.47164200  1
  H  H24  1  0.60620300  0.73293600  0.56046000  1
  H  H25  1  0.39379700  0.26706400  0.06046000  1
  H  H26  1  0.89379700  0.73293600  0.06046000  1
  H  H27  1  0.10620300  0.26706400  0.56046000  1
  H  H28  1  0.52041600  0.82567600  0.59834100  1
  H  H29  1  0.47958400  0.17432400  0.09834100  1
  H  H30  1  0.97958400  0.82567600  0.09834100  1
  H  H31  1  0.02041600  0.17432400  0.59834100  1
  H  H32  1  0.26356500  0.43569500  0.66945200  1
  H  H33  1  0.73643500  0.56430500  0.16945200  1
  H  H34  1  0.23643500  0.43569500  0.16945200  1
  H  H35  1  0.76356500  0.56430500  0.66945200  1
  H  H36  1  0.17488300  0.36113300  0.62986500  1
  H  H37  1  0.82511700  0.63886700  0.12986500  1
  H  H38  1  0.32511700  0.36113300  0.12986500  1
  H  H39  1  0.67488300  0.63886700  0.62986500  1
  H  H40  1  0.48584900  0.06111700  0.69678000  1
  H  H41  1  0.51415100  0.93888300  0.19678000  1
  H  H42  1  0.01415100  0.06111700  0.19678000  1
  H  H43  1  0.98584900  0.93888300  0.69678000  1
  H  H44  1  0.58107300  0.12258800  0.73559900  1
  H  H45  1  0.41892700  0.87741200  0.23559900  1
  H  H46  1  0.91892700  0.12258800  0.23559900  1
  H  H47  1  0.08107300  0.87741200  0.73559900  1
  H  H48  1  0.51750600  0.17228000  0.87338600  1
  H  H49  1  0.48249400  0.82772000  0.37338600  1
  H  H50  1  0.98249400  0.17228000  0.37338600  1
  H  H51  1  0.01750600  0.82772000  0.87338600  1
  H  H52  1  0.46205400  0.29600400  0.83587900  1
  H  H53  1  0.53794600  0.70399600  0.33587900  1
  H  H54  1  0.03794600  0.29600400  0.33587900  1
  H  H55  1  0.96205400  0.70399600  0.83587900  1
  H  H56  1  0.28539700  0.08052100  0.89504700  1
  H  H57  1  0.71460300  0.91947900  0.39504700  1
  H  H58  1  0.21460300  0.08052100  0.39504700  1
  H  H59  1  0.78539700  0.91947900  0.89504700  1
  H  H60  1  0.28713700  0.88711800  0.89806500  1
  H  H61  1  0.71286300  0.11288200  0.39806500  1
  H  H62  1  0.21286300  0.88711800  0.39806500  1
  H  H63  1  0.78713700  0.11288200  0.89806500  1
  H  H64  1  0.53568700  0.81866900  0.87261100  1
  H  H65  1  0.46431300  0.18133100  0.37261100  1
  H  H66  1  0.96431300  0.81866900  0.37261100  1
  H  H67  1  0.03568700  0.18133100  0.87261100  1
  H  H68  1  0.50701100  0.67840200  0.83504100  1
  H  H69  1  0.49298900  0.32159800  0.33504100  1
  H  H70  1  0.99298900  0.67840200  0.33504100  1
  H  H71  1  0.00701100  0.32159800  0.83504100  1
  H  H72  1  0.21836900  0.66890800  0.49516100  1
  H  H73  1  0.78163100  0.33109200  0.99516100  1
  H  H74  1  0.28163100  0.66890800  0.99516100  1
  H  H75  1  0.71836900  0.33109200  0.49516100  1
  H  H76  1  0.25958300  0.81365900  0.52871200  1
  H  H77  1  0.74041700  0.18634100  0.02871200  1
  H  H78  1  0.24041700  0.81365900  0.02871200  1
  H  H79  1  0.75958300  0.18634100  0.52871200  1
  H  H80  1  0.23615700  0.33074000  0.49353600  1
  H  H81  1  0.76384300  0.66926000  0.99353600  1
  H  H82  1  0.26384300  0.33074000  0.99353600  1
  H  H83  1  0.73615700  0.66926000  0.49353600  1
  H  H84  1  0.29470500  0.20386800  0.52893200  1
  H  H85  1  0.70529500  0.79613200  0.02893200  1
  H  H86  1  0.20529500  0.20386800  0.02893200  1
  H  H87  1  0.79470500  0.79613200  0.52893200  1
  H  H88  1  0.58586300  0.28019400  0.56809300  1
  H  H89  1  0.41413700  0.71980600  0.06809300  1
  H  H90  1  0.91413700  0.28019400  0.06809300  1
  H  H91  1  0.08586300  0.71980600  0.56809300  1
  H  H92  1  0.48411300  0.19041100  0.59906700  1
  H  H93  1  0.51588700  0.80958900  0.09906700  1
  H  H94  1  0.01588700  0.19041100  0.09906700  1
  H  H95  1  0.98411300  0.80958900  0.59906700  1
  Cl  Cl0  1  0.27873700  0.49798600  0.89738500  1
  Cl  Cl1  1  0.72126300  0.50201400  0.39738500  1
  Cl  Cl2  1  0.22126300  0.49798600  0.39738500  1
  Cl  Cl3  1  0.77873700  0.50201400  0.89738500  1
  Cl  Cl4  1  0.30058400  0.93256000  0.63813500  1
  Cl  Cl5  1  0.69941600  0.06744000  0.13813500  1
  Cl  Cl6  1  0.19941600  0.93256000  0.13813500  1
  Cl  Cl7  1  0.80058400  0.06744000  0.63813500  1
  Cl  Cl8  1  0.44908600  0.56410600  0.72979200  1
  Cl  Cl9  1  0.55091400  0.43589400  0.22979200  1
  Cl  Cl10  1  0.05091400  0.56410600  0.22979200  1
  Cl  Cl11  1  0.94908600  0.43589400  0.72979200  1
  Cl  Cl12  1  0.52817400  0.00046100  0.97062000  1
  Cl  Cl13  1  0.47182600  0.99953900  0.47062000  1
  Cl  Cl14  1  0.97182600  0.00046100  0.47062000  1
  Cl  Cl15  1  0.02817400  0.99953900  0.97062000  1
  O  O0  1  0.20891000  0.79107700  0.78314900  1
  O  O1  1  0.79109000  0.20892300  0.28314900  1
  O  O2  1  0.29109000  0.79107700  0.28314900  1
  O  O3  1  0.70891000  0.20892300  0.78314900  1
  O  O4  1  0.24350300  0.19085900  0.78328100  1
  O  O5  1  0.75649700  0.80914100  0.28328100  1
  O  O6  1  0.25649700  0.19085900  0.28328100  1
  O  O7  1  0.74350300  0.80914100  0.78328100  1
  O  O8  1  0.47514700  0.52176000  0.49377800  1
  O  O9  1  0.52485300  0.47824000  0.99377800  1
  O  O10  1  0.02485300  0.52176000  0.99377800  1
  O  O11  1  0.97514700  0.47824000  0.49377800  1
  O  O12  1  0.54022500  0.71716400  0.58427000  1
  O  O13  1  0.45977500  0.28283600  0.08427000  1
  O  O14  1  0.95977500  0.71716400  0.08427000  1
  O  O15  1  0.04022500  0.28283600  0.58427000  1
  O  O16  1  0.25806100  0.39558500  0.63557500  1
  O  O17  1  0.74193900  0.60441500  0.13557500  1
  O  O18  1  0.24193900  0.39558500  0.13557500  1
  O  O19  1  0.75806100  0.60441500  0.63557500  1
  O  O20  1  0.49582300  0.09731900  0.73088600  1
  O  O21  1  0.50417700  0.90268100  0.23088600  1
  O  O22  1  0.00417700  0.09731900  0.23088600  1
  O  O23  1  0.99582300  0.90268100  0.73088600  1
  O  O24  1  0.50131700  0.18743600  0.83808900  1
  O  O25  1  0.49868300  0.81256400  0.33808900  1
  O  O26  1  0.99868300  0.18743600  0.33808900  1
  O  O27  1  0.00131700  0.81256400  0.83808900  1
  O  O28  1  0.28972800  0.98023700  0.87516200  1
  O  O29  1  0.71027200  0.01976300  0.37516200  1
  O  O30  1  0.21027200  0.98023700  0.37516200  1
  O  O31  1  0.78972800  0.01976300  0.87516200  1
  O  O32  1  0.42668500  0.99315500  0.63316000  1
  O  O33  1  0.57331500  0.00684500  0.13316000  1
  O  O34  1  0.07331500  0.99315500  0.13316000  1
  O  O35  1  0.92668500  0.00684500  0.63316000  1
  O  O36  1  0.22727000  0.00485300  0.59980600  1
  O  O37  1  0.77273000  0.99514700  0.09980600  1
  O  O38  1  0.27273000  0.00485300  0.09980600  1
  O  O39  1  0.72727000  0.99514700  0.59980600  1
  O  O40  1  0.32358100  0.50269400  0.73351400  1
  O  O41  1  0.67641900  0.49730600  0.23351400  1
  O  O42  1  0.17641900  0.50269400  0.23351400  1
  O  O43  1  0.82358100  0.49730600  0.73351400  1
  O  O44  1  0.52099500  0.49235200  0.76888400  1
  O  O45  1  0.47900500  0.50764800  0.26888400  1
  O  O46  1  0.97900500  0.49235200  0.26888400  1
  O  O47  1  0.02099500  0.50764800  0.76888400  1
  O  O48  1  0.35825200  0.49510300  0.85485300  1
  O  O49  1  0.64174800  0.50489700  0.35485300  1
  O  O50  1  0.14174800  0.49510300  0.35485300  1
  O  O51  1  0.85825200  0.50489700  0.85485300  1
  O  O52  1  0.52394700  0.79722400  0.83732700  1
  O  O53  1  0.47605300  0.20277600  0.33732700  1
  O  O54  1  0.97605300  0.79722400  0.33732700  1
  O  O55  1  0.02394700  0.20277600  0.83732700  1
  O  O56  1  0.25620600  0.97663500  0.68621800  1
  O  O57  1  0.74379400  0.02336500  0.18621800  1
  O  O58  1  0.24379400  0.97663500  0.18621800  1
  O  O59  1  0.75620600  0.02336500  0.68621800  1
  O  O60  1  0.61084800  0.99978700  0.01236200  1
  O  O61  1  0.38915200  0.00021300  0.51236200  1
  O  O62  1  0.88915200  0.99978700  0.51236200  1
  O  O63  1  0.11084800  0.00021300  0.01236200  1
  O  O64  1  0.29778100  0.34614600  0.92625300  1
  O  O65  1  0.70221900  0.65385400  0.42625300  1
  O  O66  1  0.20221900  0.34614600  0.42625300  1
  O  O67  1  0.79778100  0.65385400  0.92625300  1
  O  O68  1  0.31038500  0.64222500  0.92814800  1
  O  O69  1  0.68961500  0.35777500  0.42814800  1
  O  O70  1  0.18961500  0.64222500  0.42814800  1
  O  O71  1  0.81038500  0.35777500  0.92814800  1
  O  O72  1  0.55254100  0.14887500  0.94065900  1
  O  O73  1  0.44745900  0.85112500  0.44065900  1
  O  O74  1  0.94745900  0.14887500  0.44065900  1
  O  O75  1  0.05254100  0.85112500  0.94065900  1
  O  O76  1  0.55005000  0.85203800  0.94082100  1
  O  O77  1  0.44995000  0.14796200  0.44082100  1
  O  O78  1  0.94995000  0.85203800  0.44082100  1
  O  O79  1  0.05005000  0.14796200  0.94082100  1
  O  O80  1  0.49739100  0.52153900  0.68223900  1
  O  O81  1  0.50260900  0.47846100  0.18223900  1
  O  O82  1  0.00260900  0.52153900  0.18223900  1
  O  O83  1  0.99739100  0.47846100  0.68223900  1
  O  O84  1  0.30210000  0.75229700  0.63258500  1
  O  O85  1  0.69790000  0.24770300  0.13258500  1
  O  O86  1  0.19790000  0.75229700  0.13258500  1
  O  O87  1  0.80210000  0.24770300  0.63258500  1
  O  O88  1  0.44727500  0.74441800  0.73558200  1
  O  O89  1  0.55272500  0.25558200  0.23558200  1
  O  O90  1  0.05272500  0.74441800  0.23558200  1
  O  O91  1  0.94727500  0.25558200  0.73558200  1
  O  O92  1  0.23521200  0.69703700  0.52968700  1
  O  O93  1  0.76478800  0.30296300  0.02968700  1
  O  O94  1  0.26478800  0.69703700  0.02968700  1
  O  O95  1  0.73521200  0.30296300  0.52968700  1
  O  O96  1  0.40521700  0.00325100  0.98760500  1
  O  O97  1  0.59478300  0.99674900  0.48760500  1
  O  O98  1  0.09478300  0.00325100  0.48760500  1
  O  O99  1  0.90521700  0.99674900  0.98760500  1
  O  O100  1  0.15492400  0.50995300  0.88207000  1
  O  O101  1  0.84507600  0.49004700  0.38207000  1
  O  O102  1  0.34507600  0.50995300  0.38207000  1
  O  O103  1  0.65492400  0.49004700  0.88207000  1
  O  O104  1  0.25331900  0.31134400  0.52853900  1
  O  O105  1  0.74668100  0.68865600  0.02853900  1
  O  O106  1  0.24668100  0.31134400  0.02853900  1
  O  O107  1  0.75331900  0.68865600  0.52853900  1
  O  O108  1  0.50615000  0.29429200  0.58287000  1
  O  O109  1  0.49385000  0.70570800  0.08287000  1
  O  O110  1  0.99385000  0.29429200  0.08287000  1
  O  O111  1  0.00615000  0.70570800  0.58287000  1
loop_
_geom_bond_atom_site_label_1
_geom_bond_atom_site_label_2
_geom_bond_distance
_geom_bond_site_symmetry_2
Ca0 O4 2.339613 1_565
Ca0 O20 2.360922 1_565
Ca0 O0 2.394740 1_555
Ca0 O28 2.465777 1_555
Ca0 O52 2.475976 1_555
Ca0 O88 2.518055 1_555
Ca0 O24 2.552611 1_565
Ca1 O5 2.339613 1_545
Ca1 O21 2.360922 1_545
Ca1 O1 2.394740 1_555
Ca1 O29 2.465777 1_555
Ca1 O53 2.475976 1_555
Ca1 O89 2.518055 1_555
Ca1 O25 2.552611 1_545
Ca2 O6 2.339613 1_565
Ca2 O22 2.360922 1_565
Ca2 O2 2.394740 1_555
Ca2 O30 2.465777 1_555
Ca2 O54 2.475976 1_455
Ca2 O90 2.518055 1_555
Ca2 O26 2.552611 1_465
Ca3 O7 2.339613 1_545
Ca3 O23 2.360922 1_545
Ca3 O3 2.394740 1_555
Ca3 O31 2.465777 1_555
Ca3 O55 2.475976 1_655
Ca3 O91 2.518055 1_555
Ca3 O27 2.552611 1_645
Ca4 O108 2.344005 1_555
Ca4 O16 2.361604 1_555
Ca4 O12 2.410460 1_555
Ca4 O92 2.460467 1_555
Ca4 O8 2.464145 1_555
Ca4 O104 2.541081 1_555
Ca4 O84 2.575772 1_555
Ca5 O109 2.344005 1_555
Ca5 O17 2.361604 1_555
Ca5 O13 2.410460 1_555
Ca5 O93 2.460467 1_555
Ca5 O9 2.464145 1_554
Ca5 O105 2.541081 1_555
Ca5 O85 2.575772 1_555
Ca6 O110 2.344005 1_455
Ca6 O18 2.361604 1_555
Ca6 O14 2.410460 1_455
Ca6 O94 2.460467 1_555
Ca6 O10 2.464145 1_554
Ca6 O106 2.541081 1_555
Ca6 O86 2.575772 1_555
Ca7 O111 2.344005 1_655
Ca7 O19 2.361604 1_555
Ca7 O15 2.410460 1_655
Ca7 O95 2.460467 1_555
Ca7 O11 2.464145 1_555
Ca7 O107 2.541081 1_555
Ca7 O87 2.575772 1_555
H0 O0 0.980058 1_555
H1 O1 0.980058 1_555
H2 O2 0.980058 1_555
H3 O3 0.980058 1_555
H4 O0 0.993659 1_555
H5 O1 0.993659 1_555
H6 O2 0.993659 1_555
H7 O3 0.993659 1_555
H8 O4 0.986461 1_555
H9 O5 0.986461 1_555
H10 O6 0.986461 1_555
H11 O7 0.986461 1_555
H12 O4 0.977479 1_555
H13 O5 0.977479 1_555
H14 O6 0.977479 1_555
H15 O7 0.977479 1_555
H16 O8 0.975650 1_555
H17 O9 0.975650 1_555
H18 O10 0.975650 1_555
H19 O11 0.975650 1_555
H20 O8 0.979635 1_555
H21 O9 0.979635 1_555
H22 O10 0.979635 1_555
H23 O11 0.979635 1_555
H24 O12 0.989623 1_555
H25 O13 0.989623 1_555
H26 O14 0.989623 1_555
H27 O15 0.989623 1_555
H28 O12 0.982692 1_555
H29 O13 0.982692 1_555
H30 O14 0.982692 1_555
H31 O15 0.982692 1_555
H32 O16 0.980763 1_555
H33 O17 0.980763 1_555
H34 O18 0.980763 1_555
H35 O19 0.980763 1_555
H36 O16 0.981246 1_555
H37 O17 0.981246 1_555
H38 O18 0.981246 1_555
H39 O19 0.981246 1_555
H40 O20 0.981113 1_555
H41 O21 0.981113 1_555
H42 O22 0.981113 1_555
H43 O23 0.981113 1_555
H44 O20 0.981174 1_555
H45 O21 0.981174 1_555
H46 O22 0.981174 1_655
H47 O23 0.981174 1_455
H48 O24 0.986711 1_555
H49 O25 0.986711 1_555
H50 O26 0.986711 1_555
H51 O27 0.986711 1_555
H52 O24 0.982839 1_555
H53 O25 0.982839 1_555
H54 O26 0.982839 1_455
H55 O27 0.982839 1_655
H56 O28 0.976530 1_545
H57 O29 0.976530 1_565
H58 O30 0.976530 1_545
H59 O31 0.976530 1_565
H60 O28 0.978522 1_555
H61 O29 0.978522 1_555
H62 O30 0.978522 1_555
H63 O31 0.978522 1_555
H64 O52 0.986154 1_555
H65 O53 0.986154 1_555
H66 O54 0.986154 1_555
H67 O55 0.986154 1_555
H68 O52 0.981064 1_555
H69 O53 0.981064 1_555
H70 O54 0.981064 1_555
H71 O55 0.981064 1_555
H72 O92 0.986399 1_555
H73 O93 0.986399 1_556
H74 O94 0.986399 1_556
H75 O95 0.986399 1_555
H76 O92 0.981667 1_555
H77 O93 0.981667 1_555
H78 O94 0.981667 1_555
H79 O95 0.981667 1_555
H80 O104 0.985826 1_555
H81 O105 0.985826 1_556
H82 O106 0.985826 1_556
H83 O107 0.985826 1_555
H84 O104 0.984044 1_555
H85 O105 0.984044 1_555
H86 O106 0.984044 1_555
H87 O107 0.984044 1_555
H88 O108 0.982885 1_555
H89 O109 0.982885 1_555
H90 O110 0.982885 1_555
H91 O111 0.982885 1_555
H92 O108 0.980213 1_555
H93 O109 0.980213 1_555
H94 O110 0.980213 1_455
H95 O111 0.980213 1_655
Cl0 O100 1.446193 1_555
Cl0 O48 1.460093 1_555
Cl0 O64 1.473631 1_555
Cl0 O68 1.479181 1_555
Cl1 O101 1.446193 1_555
Cl1 O49 1.460093 1_555
Cl1 O65 1.473631 1_555
Cl1 O69 1.479181 1_555
Cl2 O102 1.446193 1_555
Cl2 O50 1.460093 1_555
Cl2 O66 1.473631 1_555
Cl2 O70 1.479181 1_555
Cl3 O103 1.446193 1_555
Cl3 O51 1.460093 1_555
Cl3 O67 1.473631 1_555
Cl3 O71 1.479181 1_555
Cl4 O56 1.445819 1_555
Cl4 O36 1.449974 1_565
Cl4 O84 1.465363 1_555
Cl4 O32 1.495781 1_555
Cl5 O57 1.445819 1_555
Cl5 O37 1.449974 1_545
Cl5 O85 1.465363 1_555
Cl5 O33 1.495781 1_555
Cl6 O58 1.445819 1_555
Cl6 O38 1.449974 1_565
Cl6 O86 1.465363 1_555
Cl6 O34 1.495781 1_555
Cl7 O59 1.445819 1_555
Cl7 O39 1.449974 1_545
Cl7 O87 1.465363 1_555
Cl7 O35 1.495781 1_555
Cl8 O80 1.445502 1_555
Cl8 O44 1.454600 1_555
Cl8 O88 1.466488 1_555
Cl8 O40 1.488998 1_555
Cl9 O81 1.445502 1_555
Cl9 O45 1.454600 1_555
Cl9 O89 1.466488 1_555
Cl9 O41 1.488998 1_555
Cl10 O82 1.445502 1_555
Cl10 O46 1.454600 1_455
Cl10 O90 1.466488 1_555
Cl10 O42 1.488998 1_555
Cl11 O83 1.445502 1_555
Cl11 O47 1.454600 1_655
Cl11 O91 1.466488 1_555
Cl11 O43 1.488998 1_555
Cl12 O96 1.447903 1_555
Cl12 O60 1.464800 1_546
Cl12 O76 1.469536 1_545
Cl12 O72 1.476785 1_555
Cl13 O97 1.447903 1_555
Cl13 O61 1.464800 1_565
Cl13 O77 1.469536 1_565
Cl13 O73 1.476785 1_555
Cl14 O98 1.447903 1_655
Cl14 O62 1.464800 1_545
Cl14 O78 1.469536 1_545
Cl14 O74 1.476785 1_555
Cl15 O99 1.447903 1_455
Cl15 O63 1.464800 1_566
Cl15 O79 1.469536 1_565
Cl15 O75 1.476785 1_555
