# generated using pymatgen
data_BiRu5(CO)18
_symmetry_space_group_name_H-M   'P 1'
_cell_length_a   11.66434002
_cell_length_b   16.83012780
_cell_length_c   18.00578680
_cell_angle_alpha   73.39827948
_cell_angle_beta   89.62144425
_cell_angle_gamma   80.29934446
_symmetry_Int_Tables_number   1
_chemical_formula_structural   BiRu5(CO)18
_chemical_formula_sum   'Bi4 Ru20 C72 O72'
_cell_volume   3335.74377880
_cell_formula_units_Z   4
loop_
 _symmetry_equiv_pos_site_id
 _symmetry_equiv_pos_as_xyz
  1  'x, y, z'
loop_
 _atom_site_type_symbol
 _atom_site_label
 _atom_site_symmetry_multiplicity
 _atom_site_fract_x
 _atom_site_fract_y
 _atom_site_fract_z
 _atom_site_occupancy
  Bi  Bi0  1  0.61293051  0.78726625  0.24319728  1
  Bi  Bi1  1  0.38706949  0.21273375  0.75680272  1
  Bi  Bi2  1  0.99711084  0.76559971  0.75251680  1
  Bi  Bi3  1  0.00288916  0.23440029  0.24748320  1
  Ru  Ru0  1  0.75687094  0.88661232  0.14362571  1
  Ru  Ru1  1  0.24312906  0.11338768  0.85637429  1
  Ru  Ru2  1  0.83282920  0.69929207  0.21927947  1
  Ru  Ru3  1  0.16717080  0.30070793  0.78072053  1
  Ru  Ru4  1  0.50141957  0.81944355  0.37114698  1
  Ru  Ru5  1  0.49858043  0.18055645  0.62885302  1
  Ru  Ru6  1  0.37561581  0.79790572  0.22834428  1
  Ru  Ru7  1  0.62438419  0.20209428  0.77165572  1
  Ru  Ru8  1  0.39616411  0.66862264  0.37866655  1
  Ru  Ru9  1  0.60383589  0.33137736  0.62133345  1
  Ru  Ru10  1  0.80770238  0.87330512  0.65684361  1
  Ru  Ru11  1  0.19229762  0.12669488  0.34315639  1
  Ru  Ru12  1  0.81988234  0.68342109  0.71791028  1
  Ru  Ru13  1  0.18011766  0.31657891  0.28208972  1
  Ru  Ru14  1  0.09253738  0.78798074  0.88413673  1
  Ru  Ru15  1  0.90746262  0.21201926  0.11586327  1
  Ru  Ru16  1  0.22861871  0.78143646  0.73633924  1
  Ru  Ru17  1  0.77138129  0.21856354  0.26366076  1
  Ru  Ru18  1  0.28032902  0.64590364  0.88481714  1
  Ru  Ru19  1  0.71967098  0.35409636  0.11518286  1
  C  C0  1  0.65256262  0.99140258  0.12264119  1
  C  C1  1  0.34743738  0.00859742  0.87735881  1
  C  C2  1  0.89635113  0.90431359  0.08667892  1
  C  C3  1  0.10364887  0.09568641  0.91332108  1
  C  C4  1  0.68472509  0.85913771  0.05869701  1
  C  C5  1  0.31527491  0.14086229  0.94130299  1
  C  C6  1  0.81971469  0.90938996  0.23395983  1
  C  C7  1  0.18028531  0.09061004  0.76604017  1
  C  C8  1  0.84981677  0.58414198  0.27915122  1
  C  C9  1  0.15018323  0.41585802  0.72084878  1
  C  C10  1  0.97849688  0.70600167  0.16808172  1
  C  C11  1  0.02150312  0.29399833  0.83191828  1
  C  C12  1  0.88953185  0.72530485  0.30981769  1
  C  C13  1  0.11046815  0.27469515  0.69018231  1
  C  C14  1  0.75584485  0.67049582  0.13678136  1
  C  C15  1  0.24415515  0.32950418  0.86321864  1
  C  C16  1  0.39788956  0.84365033  0.44795694  1
  C  C17  1  0.60211044  0.15634967  0.55204306  1
  C  C18  1  0.55487104  0.92430587  0.34562119  1
  C  C19  1  0.44512896  0.07569413  0.65437881  1
  C  C20  1  0.62391758  0.75333416  0.43835680  1
  C  C21  1  0.37608242  0.24666584  0.56164320  1
  C  C22  1  0.21249129  0.81475940  0.24435090  1
  C  C23  1  0.78750871  0.18524060  0.75564910  1
  C  C24  1  0.36857689  0.89444363  0.14080402  1
  C  C25  1  0.63142311  0.10555637  0.85919598  1
  C  C26  1  0.37863836  0.71855533  0.17369701  1
  C  C27  1  0.62136164  0.28144467  0.82630299  1
  C  C28  1  0.25963884  0.73127467  0.41196493  1
  C  C29  1  0.74036116  0.26872533  0.58803507  1
  C  C30  1  0.52437913  0.61105278  0.33376696  1
  C  C31  1  0.47562087  0.38894722  0.66623304  1
  C  C32  1  0.30406019  0.59296026  0.35755954  1
  C  C33  1  0.69593981  0.40703974  0.64244046  1
  C  C34  1  0.45475810  0.61452972  0.48342173  1
  C  C35  1  0.54524190  0.38547028  0.51657827  1
  C  C36  1  0.85898855  0.97756694  0.64625243  1
  C  C37  1  0.14101145  0.02243306  0.35374757  1
  C  C38  1  0.66343656  0.89753361  0.59564685  1
  C  C39  1  0.33656344  0.10246639  0.40435315  1
  C  C40  1  0.72895109  0.88416684  0.75022740  1
  C  C41  1  0.27104891  0.11583316  0.24977260  1
  C  C42  1  0.89757602  0.85975262  0.56811266  1
  C  C43  1  0.10242398  0.14024738  0.43188734  1
  C  C44  1  0.86316593  0.56493200  0.76488131  1
  C  C45  1  0.13683407  0.43506800  0.23511869  1
  C  C46  1  0.66945456  0.69238485  0.66921127  1
  C  C47  1  0.33054544  0.30761515  0.33078873  1
  C  C48  1  0.90546349  0.67231688  0.62672319  1
  C  C49  1  0.09453651  0.32768312  0.37327681  1
  C  C50  1  0.75310207  0.69467624  0.81492265  1
  C  C51  1  0.24689793  0.30532376  0.18507735  1
  C  C52  1  0.18565553  0.81334927  0.95876607  1
  C  C53  1  0.81434447  0.18665073  0.04123393  1
  C  C54  1  0.98664107  0.89122146  0.86472791  1
  C  C55  1  0.01335893  0.10877854  0.13527209  1
  C  C56  1  0.00574276  0.71637053  0.95059533  1
  C  C57  1  0.99425724  0.28362947  0.04940467  1
  C  C58  1  0.38427378  0.79672025  0.75155683  1
  C  C59  1  0.61572622  0.20327975  0.24844317  1
  C  C60  1  0.18652190  0.88093502  0.65189996  1
  C  C61  1  0.81347810  0.11906498  0.34810004  1
  C  C62  1  0.25829034  0.70791593  0.67537721  1
  C  C63  1  0.74170966  0.29208407  0.32462279  1
  C  C64  1  0.38471306  0.70926316  0.91841791  1
  C  C65  1  0.61528694  0.29073684  0.08158209  1
  C  C66  1  0.16592828  0.58986066  0.85325439  1
  C  C67  1  0.83407172  0.41013934  0.14674561  1
  C  C68  1  0.27500954  0.57570553  0.98895410  1
  C  C69  1  0.72499046  0.42429447  0.01104590  1
  C  C70  1  0.40571753  0.58339061  0.84408798  1
  C  C71  1  0.59428247  0.41660939  0.15591202  1
  O  O0  1  0.59049545  0.05547399  0.11079197  1
  O  O1  1  0.40950455  0.94452601  0.88920803  1
  O  O2  1  0.97918623  0.91544282  0.05232873  1
  O  O3  1  0.02081377  0.08455718  0.94767127  1
  O  O4  1  0.64166353  0.84583584  0.00698656  1
  O  O5  1  0.35833647  0.15416416  0.99301344  1
  O  O6  1  0.85457305  0.92755190  0.28567038  1
  O  O7  1  0.14542695  0.07244810  0.71432962  1
  O  O8  1  0.86523016  0.51378567  0.31444531  1
  O  O9  1  0.13476984  0.48621433  0.68555469  1
  O  O10  1  0.06737654  0.70818349  0.13943906  1
  O  O11  1  0.93262346  0.29181651  0.86056094  1
  O  O12  1  0.92382836  0.73524423  0.36596066  1
  O  O13  1  0.07617164  0.26475577  0.63403934  1
  O  O14  1  0.71091547  0.64804329  0.09141849  1
  O  O15  1  0.28908453  0.35195671  0.90858151  1
  O  O16  1  0.34440635  0.86098601  0.49759089  1
  O  O17  1  0.65559365  0.13901399  0.50240911  1
  O  O18  1  0.58612168  0.98898093  0.33138316  1
  O  O19  1  0.41387832  0.01101907  0.66861684  1
  O  O20  1  0.69996117  0.71420743  0.48233678  1
  O  O21  1  0.30003883  0.28579257  0.51766322  1
  O  O22  1  0.11126523  0.82593330  0.24537360  1
  O  O23  1  0.88873477  0.17406670  0.75462640  1
  O  O24  1  0.36038756  0.95309935  0.08668860  1
  O  O25  1  0.63961244  0.04690065  0.91331140  1
  O  O26  1  0.37918884  0.66922395  0.13965796  1
  O  O27  1  0.62081116  0.33077605  0.86034204  1
  O  O28  1  0.17506057  0.75996687  0.43560803  1
  O  O29  1  0.82493943  0.24003313  0.56439197  1
  O  O30  1  0.59316814  0.56680763  0.31046617  1
  O  O31  1  0.40683186  0.43319237  0.68953383  1
  O  O32  1  0.24921369  0.54581888  0.34600115  1
  O  O33  1  0.75078631  0.45418112  0.65399885  1
  O  O34  1  0.49215329  0.58002453  0.54603147  1
  O  O35  1  0.50784671  0.41997547  0.45396853  1
  O  O36  1  0.88765638  0.04173990  0.63961588  1
  O  O37  1  0.11234362  0.95826010  0.36038412  1
  O  O38  1  0.57897437  0.91419358  0.55691665  1
  O  O39  1  0.42102563  0.08580642  0.44308335  1
  O  O40  1  0.68202488  0.89599135  0.80380208  1
  O  O41  1  0.31797512  0.10400865  0.19619792  1
  O  O42  1  0.94945639  0.85688979  0.51383326  1
  O  O43  1  0.05054361  0.14311021  0.48616674  1
  O  O44  1  0.88569685  0.49278449  0.79161891  1
  O  O45  1  0.11430315  0.50721551  0.20838109  1
  O  O46  1  0.57874744  0.69505729  0.64211423  1
  O  O47  1  0.42125256  0.30494271  0.35788577  1
  O  O48  1  0.95763132  0.66179734  0.57465523  1
  O  O49  1  0.04236868  0.33820266  0.42534477  1
  O  O50  1  0.71499200  0.69686526  0.87376735  1
  O  O51  1  0.28500800  0.30313474  0.12623265  1
  O  O52  1  0.23015169  0.83362208  0.00638407  1
  O  O53  1  0.76984831  0.16637792  0.99361593  1
  O  O54  1  0.92421176  0.95550902  0.85473855  1
  O  O55  1  0.07578824  0.04449098  0.14526145  1
  O  O56  1  0.95204384  0.67234325  0.99350056  1
  O  O57  1  0.04795616  0.32765675  0.00649944  1
  O  O58  1  0.48040615  0.80713510  0.75271753  1
  O  O59  1  0.51959385  0.19286490  0.24728247  1
  O  O60  1  0.16430111  0.94113962  0.59956009  1
  O  O61  1  0.83569889  0.05886038  0.40043991  1
  O  O62  1  0.27753450  0.66306017  0.63644313  1
  O  O63  1  0.72246550  0.33693983  0.36355687  1
  O  O64  1  0.45346275  0.73871710  0.94253059  1
  O  O65  1  0.54653725  0.26128290  0.05746941  1
  O  O66  1  0.10617806  0.54573008  0.84143543  1
  O  O67  1  0.89382194  0.45426992  0.15856457  1
  O  O68  1  0.27184646  0.52993792  0.05055263  1
  O  O69  1  0.72815354  0.47006208  0.94944737  1
  O  O70  1  0.48167634  0.54506563  0.82017922  1
  O  O71  1  0.51832366  0.45493437  0.17982078  1
loop_
_geom_bond_atom_site_label_1
_geom_bond_atom_site_label_2
_geom_bond_distance
_geom_bond_site_symmetry_2
Bi0 Ru6 2.753443 1_555
Bi0 Ru4 2.780057 1_555
Bi0 Ru0 2.832349 1_555
Bi0 Ru2 2.833145 1_555
Bi1 Ru7 2.753443 1_555
Bi1 Ru5 2.780057 1_555
Bi1 Ru1 2.832349 1_555
Bi1 Ru3 2.833145 1_555
Bi2 Ru16 2.763290 1_655
Bi2 Ru14 2.771938 1_655
Bi2 Ru12 2.836856 1_555
Bi2 Ru10 2.837398 1_555
Bi3 Ru17 2.763290 1_455
Bi3 Ru15 2.771938 1_455
Bi3 Ru13 2.836856 1_555
Bi3 Ru11 2.837398 1_555
C0 O0 1.157555 1_565
C0 Ru0 1.906737 1_555
C1 O1 1.157555 1_545
C1 Ru1 1.906737 1_555
C2 O2 1.156761 1_555
C2 Ru0 1.937480 1_555
C3 O3 1.156761 1_555
C3 Ru1 1.937480 1_555
C4 O4 1.154348 1_555
C4 Ru0 1.952608 1_555
C5 O5 1.154348 1_555
C5 Ru1 1.952608 1_555
C6 O6 1.155509 1_555
C6 Ru0 1.948507 1_555
C7 O7 1.155509 1_555
C7 Ru1 1.948507 1_555
C8 O8 1.156742 1_555
C8 Ru2 1.907037 1_555
C9 O9 1.156742 1_555
C9 Ru3 1.907037 1_555
C10 O10 1.156316 1_655
C10 Ru2 1.932368 1_555
C11 O11 1.156316 1_455
C11 Ru3 1.932368 1_555
C12 O12 1.155190 1_555
C12 Ru2 1.950992 1_555
C13 O13 1.155190 1_555
C13 Ru3 1.950992 1_555
C14 O14 1.154714 1_555
C14 Ru2 1.955363 1_555
C15 O15 1.154714 1_555
C15 Ru3 1.955363 1_555
C16 O16 1.163314 1_555
C16 Ru4 1.916026 1_555
C17 O17 1.163314 1_555
C17 Ru5 1.916026 1_555
C18 O18 1.164657 1_555
C18 Ru4 1.902147 1_555
C19 O19 1.164657 1_555
C19 Ru5 1.902147 1_555
C20 O20 1.167026 1_555
C20 Ru4 1.860579 1_555
C21 O21 1.167026 1_555
C21 Ru5 1.860579 1_555
C22 O22 1.164776 1_555
C22 Ru6 1.908279 1_555
C23 O23 1.164776 1_555
C23 Ru7 1.908279 1_555
C24 O24 1.163134 1_555
C24 Ru6 1.903778 1_555
C25 O25 1.163134 1_555
C25 Ru7 1.903778 1_555
C26 O26 1.163590 1_555
C26 Ru6 1.867488 1_555
C27 O27 1.163590 1_555
C27 Ru7 1.867488 1_555
C28 O28 1.157183 1_555
C28 Ru8 1.946810 1_555
C29 O29 1.157183 1_555
C29 Ru9 1.946810 1_555
C30 O30 1.160629 1_555
C30 Ru8 1.942250 1_555
C31 O31 1.160629 1_555
C31 Ru9 1.942250 1_555
C32 O32 1.161566 1_555
C32 Ru8 1.913942 1_555
C33 O33 1.161566 1_555
C33 Ru9 1.913942 1_555
C34 O34 1.159924 1_555
C34 Ru8 1.918273 1_555
C35 O35 1.159924 1_555
C35 Ru9 1.918273 1_555
C36 O36 1.157590 1_565
C36 Ru10 1.906403 1_555
C37 O37 1.157590 1_545
C37 Ru11 1.906403 1_555
C38 O38 1.157498 1_555
C38 Ru10 1.936144 1_555
C39 O39 1.157498 1_555
C39 Ru11 1.936144 1_555
C40 O40 1.155761 1_555
C40 Ru10 1.950160 1_555
C41 O41 1.155761 1_555
C41 Ru11 1.950160 1_555
C42 O42 1.154554 1_555
C42 Ru10 1.951684 1_555
C43 O43 1.154554 1_555
C43 Ru11 1.951684 1_555
C44 O44 1.155566 1_555
C44 Ru12 1.910378 1_555
C45 O45 1.155566 1_555
C45 Ru13 1.910378 1_555
C46 O46 1.156617 1_555
C46 Ru12 1.930271 1_555
C47 O47 1.156617 1_555
C47 Ru13 1.930271 1_555
C48 O48 1.153940 1_555
C48 Ru12 1.953985 1_555
C49 O49 1.153940 1_555
C49 Ru13 1.953985 1_555
C50 O50 1.154193 1_555
C50 Ru12 1.953272 1_555
C51 O51 1.154193 1_555
C51 Ru13 1.953272 1_555
C52 O52 1.163466 1_556
C52 Ru14 1.916023 1_555
C53 O53 1.163466 1_554
C53 Ru15 1.916023 1_555
C54 O54 1.165454 1_555
C54 Ru14 1.897998 1_655
C55 O55 1.165454 1_555
C55 Ru15 1.897998 1_455
C56 O56 1.166668 1_455
C56 Ru14 1.865608 1_555
C57 O57 1.166668 1_655
C57 Ru15 1.865608 1_555
C58 O58 1.164973 1_555
C58 Ru16 1.908386 1_555
C59 O59 1.164973 1_555
C59 Ru17 1.908386 1_555
C60 O60 1.162355 1_555
C60 Ru16 1.906513 1_555
C61 O61 1.162355 1_555
C61 Ru17 1.906513 1_555
C62 O62 1.164042 1_555
C62 Ru16 1.866149 1_555
C63 O63 1.164042 1_555
C63 Ru17 1.866149 1_555
C64 O64 1.157092 1_555
C64 Ru18 1.949758 1_555
C65 O65 1.157092 1_555
C65 Ru19 1.949758 1_555
C66 O66 1.161631 1_555
C66 Ru18 1.932295 1_555
C67 O67 1.161631 1_555
C67 Ru19 1.932295 1_555
C68 O68 1.160041 1_556
C68 Ru18 1.916459 1_555
C69 O69 1.160041 1_554
C69 Ru19 1.916459 1_555
C70 O70 1.160786 1_555
C70 Ru18 1.921463 1_555
C71 O71 1.160786 1_555
C71 Ru19 1.921463 1_555
