# generated using pymatgen
data_BiPtSe
_symmetry_space_group_name_H-M   'P 1'
_cell_length_a   6.50525786
_cell_length_b   6.50525683
_cell_length_c   6.50525683
_cell_angle_alpha   90.00000000
_cell_angle_beta   90.00000000
_cell_angle_gamma   90.00000000
_symmetry_Int_Tables_number   1
_chemical_formula_structural   BiPtSe
_chemical_formula_sum   'Bi4 Pt4 Se4'
_cell_volume   275.29188580
_cell_formula_units_Z   4
loop_
 _symmetry_equiv_pos_site_id
 _symmetry_equiv_pos_as_xyz
  1  'x, y, z'
loop_
 _atom_site_type_symbol
 _atom_site_label
 _atom_site_symmetry_multiplicity
 _atom_site_fract_x
 _atom_site_fract_y
 _atom_site_fract_z
 _atom_site_occupancy
  Bi  Bi0  1  0.12793941  0.62793941  0.87206059  1
  Bi  Bi1  1  0.62793941  0.87206059  0.12793941  1
  Bi  Bi2  1  0.87206059  0.12793941  0.62793941  1
  Bi  Bi3  1  0.37206059  0.37206059  0.37206059  1
  Pt  Pt0  1  0.48986058  0.98986058  0.51013942  1
  Pt  Pt1  1  0.98986058  0.51013942  0.48986058  1
  Pt  Pt2  1  0.51013942  0.48986058  0.98986058  1
  Pt  Pt3  1  0.01013942  0.01013942  0.01013942  1
  Se  Se0  1  0.87922113  0.37922113  0.12077887  1
  Se  Se1  1  0.37922113  0.12077887  0.87922113  1
  Se  Se2  1  0.12077887  0.87922113  0.37922113  1
  Se  Se3  1  0.62077887  0.62077887  0.62077887  1
loop_
_geom_bond_atom_site_label_1
_geom_bond_atom_site_label_2
_geom_bond_distance
_geom_bond_site_symmetry_2
Bi0 Pt3 2.752419 1_566
Bi0 Pt1 2.752419 1_455
Bi0 Pt2 2.752419 1_555
Bi0 Se0 2.802417 1_456
Bi1 Pt2 2.752419 1_554
Bi1 Pt0 2.752419 1_555
Bi1 Pt3 2.752419 1_665
Bi1 Se1 2.802417 1_564
Bi2 Pt1 2.752419 1_555
Bi2 Pt3 2.752419 1_656
Bi2 Pt0 2.752419 1_545
Bi2 Se2 2.802417 1_645
Bi3 Pt0 2.752419 1_545
Bi3 Pt2 2.752419 1_554
Bi3 Pt1 2.752419 1_455
Bi3 Se3 2.802417 1_555
Pt0 Se1 2.647264 1_565
Pt0 Se3 2.647264 1_555
Pt0 Se2 2.647264 1_555
Pt1 Se0 2.647264 1_555
Pt1 Se2 2.647264 1_655
Pt1 Se3 2.647264 1_555
Pt2 Se3 2.647264 1_555
Pt2 Se1 2.647264 1_555
Pt2 Se0 2.647264 1_556
Pt3 Se2 2.647264 1_545
Pt3 Se0 2.647264 1_455
Pt3 Se1 2.647264 1_554
