# generated using pymatgen
data_NaIn10CuS16
_symmetry_space_group_name_H-M   'P 1'
_cell_length_a   7.76282700
_cell_length_b   7.76282700
_cell_length_c   10.98842600
_cell_angle_alpha   90.00000000
_cell_angle_beta   90.00000000
_cell_angle_gamma   90.00000000
_symmetry_Int_Tables_number   1
_chemical_formula_structural   NaIn10CuS16
_chemical_formula_sum   'Na1 In10 Cu1 S16'
_cell_volume   662.17884695
_cell_formula_units_Z   1
loop_
 _symmetry_equiv_pos_site_id
 _symmetry_equiv_pos_as_xyz
  1  'x, y, z'
loop_
 _atom_site_type_symbol
 _atom_site_label
 _atom_site_symmetry_multiplicity
 _atom_site_fract_x
 _atom_site_fract_y
 _atom_site_fract_z
 _atom_site_occupancy
  Na  Na0  1  0.50000000  0.50000000  0.50000000  1
  In  In0  1  0.00000000  0.74292900  0.63757600  1
  In  In1  1  0.50000000  0.23169600  0.12509500  1
  In  In2  1  0.74292900  0.00000000  0.36242400  1
  In  In3  1  0.23169600  0.50000000  0.87490500  1
  In  In4  1  0.25707100  0.00000000  0.36242400  1
  In  In5  1  0.76830400  0.50000000  0.87490500  1
  In  In6  1  0.00000000  0.25707100  0.63757600  1
  In  In7  1  0.50000000  0.76830400  0.12509500  1
  In  In8  1  0.00000000  0.50000000  0.24754900  1
  In  In9  1  0.50000000  0.00000000  0.75245100  1
  Cu  Cu0  1  0.00000000  0.00000000  0.00000000  1
  S  S0  1  0.00000000  0.23325400  0.38563200  1
  S  S1  1  0.50000000  0.72975600  0.88347900  1
  S  S2  1  0.23325400  0.00000000  0.61436800  1
  S  S3  1  0.72975600  0.50000000  0.11652100  1
  S  S4  1  0.76674600  0.00000000  0.61436800  1
  S  S5  1  0.27024400  0.50000000  0.11652100  1
  S  S6  1  0.00000000  0.76674600  0.38563200  1
  S  S7  1  0.50000000  0.27024400  0.88347900  1
  S  S8  1  0.00000000  0.25059900  0.87690600  1
  S  S9  1  0.50000000  0.77254500  0.35912100  1
  S  S10  1  0.77254500  0.50000000  0.64087900  1
  S  S11  1  0.25059900  0.00000000  0.12309400  1
  S  S12  1  0.22745500  0.50000000  0.64087900  1
  S  S13  1  0.74940100  0.00000000  0.12309400  1
  S  S14  1  0.00000000  0.74940100  0.87690600  1
  S  S15  1  0.50000000  0.22745500  0.35912100  1
loop_
_geom_bond_atom_site_label_1
_geom_bond_atom_site_label_2
_geom_bond_distance
_geom_bond_site_symmetry_2
Na0 S15 2.621582 1_555
Na0 S10 2.621582 1_555
Na0 S9 2.621582 1_555
Na0 S12 2.621582 1_555
In0 S10 2.583659 1_455
In0 S12 2.583659 1_555
In0 S14 2.630340 1_555
In0 S4 2.706680 1_465
In0 S2 2.706680 1_565
In0 S6 2.774635 1_555
In1 S15 2.571788 1_555
In1 S13 2.642692 1_555
In1 S11 2.642692 1_555
In1 S7 2.671790 1_554
In1 S3 2.743719 1_555
In1 S5 2.743719 1_555
In2 S9 2.583659 1_545
In2 S15 2.583659 1_555
In2 S13 2.630340 1_555
In2 S6 2.706680 1_645
In2 S0 2.706680 1_655
In2 S4 2.774635 1_555
In3 S12 2.571788 1_555
In3 S14 2.642692 1_555
In3 S8 2.642692 1_555
In3 S5 2.671790 1_556
In3 S1 2.743719 1_555
In3 S7 2.743719 1_555
In4 S9 2.583659 1_545
In4 S15 2.583659 1_555
In4 S11 2.630340 1_555
In4 S0 2.706680 1_555
In4 S6 2.706680 1_545
In4 S2 2.774635 1_555
In5 S10 2.571788 1_555
In5 S14 2.642692 1_655
In5 S8 2.642692 1_655
In5 S3 2.671790 1_556
In5 S1 2.743719 1_555
In5 S7 2.743719 1_555
In6 S10 2.583659 1_455
In6 S12 2.583659 1_555
In6 S8 2.630340 1_555
In6 S4 2.706680 1_455
In6 S2 2.706680 1_555
In6 S0 2.774635 1_555
In7 S9 2.571788 1_555
In7 S13 2.642692 1_565
In7 S11 2.642692 1_565
In7 S1 2.671790 1_554
In7 S3 2.743719 1_555
In7 S5 2.743719 1_555
In8 S5 2.544407 1_555
In8 S3 2.544407 1_455
In8 S6 2.567110 1_555
In8 S0 2.567110 1_555
In9 S1 2.544407 1_545
In9 S7 2.544407 1_555
In9 S2 2.567110 1_555
In9 S4 2.567110 1_555
Cu0 S11 2.369381 1_555
Cu0 S13 2.369381 1_455
Cu0 S14 2.369381 1_544
Cu0 S8 2.369381 1_554
