# generated using pymatgen
data_CaMn6O5F7
_symmetry_space_group_name_H-M   'P 1'
_cell_length_a   7.19041177
_cell_length_b   6.01283399
_cell_length_c   6.50052392
_cell_angle_alpha   86.37601704
_cell_angle_beta   73.51408341
_cell_angle_gamma   72.84339498
_symmetry_Int_Tables_number   1
_chemical_formula_structural   CaMn6O5F7
_chemical_formula_sum   'Ca1 Mn6 O5 F7'
_cell_volume   257.43807018
_cell_formula_units_Z   1
loop_
 _symmetry_equiv_pos_site_id
 _symmetry_equiv_pos_as_xyz
  1  'x, y, z'
loop_
 _atom_site_type_symbol
 _atom_site_label
 _atom_site_symmetry_multiplicity
 _atom_site_fract_x
 _atom_site_fract_y
 _atom_site_fract_z
 _atom_site_occupancy
  Ca  Ca0  1  0.70618900  0.29183900  0.79791200  1
  Mn  Mn0  1  0.85482100  0.72402600  0.60296000  1
  Mn  Mn1  1  0.67822900  0.35139600  0.31210100  1
  Mn  Mn2  1  0.32525900  0.78262300  0.60019800  1
  Mn  Mn3  1  0.17062400  0.30765600  0.31783700  1
  Mn  Mn4  1  0.50953600  0.93038000  0.06971000  1
  Mn  Mn5  1  0.00120200  0.94578400  0.04659500  1
  O  O0  1  0.63575200  0.56106300  0.54354100  1
  O  O1  1  0.96413800  0.19811100  0.25817500  1
  O  O2  1  0.71348300  0.09023400  0.11901000  1
  O  O3  1  0.00717600  0.86116700  0.76458200  1
  O  O4  1  0.31917000  0.01493600  0.36382200  1
  F  F0  1  0.60843900  0.01651800  0.68425300  1
  F  F1  1  0.34975200  0.29483600  0.01932100  1
  F  F2  1  0.30082600  0.83653400  0.94420000  1
  F  F3  1  0.37371100  0.45564700  0.39009800  1
  F  F4  1  0.68399400  0.57911500  0.02793600  1
  F  F5  1  0.01400700  0.36695600  0.63171500  1
  F  F6  1  0.02443100  0.65159600  0.27686800  1
loop_
_geom_bond_atom_site_label_1
_geom_bond_atom_site_label_2
_geom_bond_distance
_geom_bond_site_symmetry_2
Ca0 F0 2.217268 1_555
Ca0 O0 2.294442 1_555
Ca0 F4 2.296405 1_556
Ca0 F5 2.332596 1_655
Ca0 O2 2.352407 1_556
Ca0 F1 2.553993 1_556
Ca0 O3 2.816913 1_645
Mn0 O3 2.068722 1_655
Mn0 O0 2.212319 1_555
Mn1 O0 1.922993 1_555
Mn1 O1 1.926827 1_555
Mn1 O2 1.984799 1_555
Mn2 O4 2.011203 1_565
Mn2 O3 2.152992 1_555
Mn2 O0 2.176104 1_555
Mn3 O4 1.825834 1_555
Mn3 O1 1.929956 1_455
Mn4 O4 2.003603 1_565
Mn4 O2 2.077096 1_565
Mn5 O3 1.918795 1_554
Mn5 O2 1.922197 1_465
Mn5 O1 2.020348 1_465
F0 Mn0 2.063687 1_545
F0 Mn4 2.468661 1_546
F1 Mn3 1.993054 1_555
F1 Mn4 2.206138 1_545
F2 Mn5 1.980537 1_556
F2 Mn4 2.118709 1_556
F2 Mn2 2.229702 1_555
F3 Mn1 2.011150 1_555
F3 Mn3 2.086543 1_555
F3 Mn2 2.348900 1_555
F4 Mn4 2.103413 1_555
F4 Mn1 2.226890 1_555
F5 Mn3 2.027169 1_555
F5 Mn0 2.139055 1_455
F6 Mn3 2.063854 1_555
F6 Mn0 2.122859 1_455
F6 Mn5 2.242871 1_555
