# generated using pymatgen
data_KMg6Cr
_symmetry_space_group_name_H-M   'P 1'
_cell_length_a   5.30997400
_cell_length_b   6.61212200
_cell_length_c   11.53966500
_cell_angle_alpha   90.00000000
_cell_angle_beta   90.00000000
_cell_angle_gamma   90.00000000
_symmetry_Int_Tables_number   1
_chemical_formula_structural   KMg6Cr
_chemical_formula_sum   'K2 Mg12 Cr2'
_cell_volume   405.15989883
_cell_formula_units_Z   2
loop_
 _symmetry_equiv_pos_site_id
 _symmetry_equiv_pos_as_xyz
  1  'x, y, z'
loop_
 _atom_site_type_symbol
 _atom_site_label
 _atom_site_symmetry_multiplicity
 _atom_site_fract_x
 _atom_site_fract_y
 _atom_site_fract_z
 _atom_site_occupancy
  K  K0  1  0.00000000  0.50000000  0.33209600  1
  K  K1  1  0.00000000  0.00000000  0.83209600  1
  Mg  Mg0  1  0.00000000  0.25810500  0.08514500  1
  Mg  Mg1  1  0.00000000  0.74189500  0.08514500  1
  Mg  Mg2  1  0.00000000  0.00000000  0.33428600  1
  Mg  Mg3  1  0.50000000  0.76391100  0.42250300  1
  Mg  Mg4  1  0.50000000  0.23608900  0.42250300  1
  Mg  Mg5  1  0.50000000  0.00000000  0.16694000  1
  Mg  Mg6  1  0.00000000  0.75810500  0.58514500  1
  Mg  Mg7  1  0.00000000  0.24189500  0.58514500  1
  Mg  Mg8  1  0.00000000  0.50000000  0.83428600  1
  Mg  Mg9  1  0.50000000  0.26391100  0.92250300  1
  Mg  Mg10  1  0.50000000  0.73608900  0.92250300  1
  Mg  Mg11  1  0.50000000  0.50000000  0.66694000  1
  Cr  Cr0  1  0.50000000  0.50000000  0.15138300  1
  Cr  Cr1  1  0.50000000  0.00000000  0.65138300  1
loop_
_geom_bond_atom_site_label_1
_geom_bond_atom_site_label_2
_geom_bond_distance
_geom_bond_site_symmetry_2
K0 Mg1 3.267901 1_555
K0 Mg0 3.267901 1_555
K0 Mg2 3.306158 1_555
K0 Mg2 3.306158 1_565
K0 Mg3 3.344014 1_555
K0 Mg4 3.344014 1_555
K0 Mg3 3.344014 1_455
K0 Mg4 3.344014 1_455
K0 Mg6 3.382240 1_555
K0 Mg7 3.382240 1_555
K1 Mg7 3.267901 1_555
K1 Mg6 3.267901 1_545
K1 Mg8 3.306158 1_545
K1 Mg8 3.306158 1_555
K1 Mg9 3.344014 1_555
K1 Mg10 3.344014 1_445
K1 Mg10 3.344014 1_545
K1 Mg9 3.344014 1_455
K1 Mg0 3.382240 1_556
K1 Mg1 3.382240 1_546
Mg0 Mg1 3.198879 1_555
Mg0 Mg9 3.251605 1_554
Mg0 Mg9 3.251605 1_454
Mg0 Mg5 3.294304 1_455
Mg0 Mg5 3.294304 1_555
Mg0 Mg8 3.307301 1_554
Mg0 Mg2 3.343382 1_555
Mg0 Mg1 3.413243 1_545
Mg1 Mg10 3.251605 1_554
Mg1 Mg10 3.251605 1_454
Mg1 Mg5 3.294304 1_565
Mg1 Mg5 3.294304 1_465
Mg1 Mg8 3.307301 1_554
Mg1 Mg2 3.343382 1_565
Mg2 Mg4 3.243785 1_455
Mg2 Mg3 3.243785 1_545
Mg2 Mg3 3.243785 1_445
Mg2 Mg4 3.243785 1_555
Mg2 Mg5 3.283012 1_455
Mg2 Mg5 3.283012 1_555
Mg2 Mg7 3.307301 1_555
Mg2 Mg6 3.307301 1_545
Mg3 Mg4 3.122099 1_565
Mg3 Mg6 3.251605 1_555
Mg3 Mg6 3.251605 1_655
Mg3 Mg5 3.336785 1_565
Mg3 Mg4 3.490023 1_555
Mg4 Mg7 3.251605 1_555
Mg4 Mg7 3.251605 1_655
Mg4 Mg5 3.336785 1_555
Mg5 Mg9 3.316856 1_554
Mg6 Mg7 3.198879 1_565
Mg6 Mg8 3.343382 1_555
Mg6 Mg7 3.413243 1_555
Mg7 Mg8 3.343382 1_555
Mg8 Mg9 3.243785 1_455
Mg8 Mg9 3.243785 1_555
Mg10 Mg9 3.122099 1_555
Mg10 Mg8 3.243785 1_555
Mg10 Mg8 3.243785 1_655
Mg10 Mg5 3.316856 1_566
Mg10 Mg11 3.336785 1_555
Mg10 Mg9 3.490023 1_565
Mg11 Mg8 3.283012 1_555
Mg11 Mg8 3.283012 1_655
Mg11 Mg6 3.294304 1_555
Mg11 Mg6 3.294304 1_655
Mg11 Mg7 3.294304 1_555
Mg11 Mg7 3.294304 1_655
Mg11 Mg3 3.316856 1_555
Mg11 Mg4 3.316856 1_555
Mg11 Mg9 3.336785 1_555
Cr0 Mg9 3.068029 1_554
Cr0 Mg10 3.068029 1_554
Cr0 Mg1 3.192400 1_655
Cr0 Mg0 3.192400 1_555
Cr0 Mg0 3.192400 1_655
Cr0 Mg1 3.192400 1_555
Cr0 Mg5 3.310932 1_555
Cr0 Mg5 3.310932 1_565
Cr0 K0 3.376050 1_655
Cr0 K0 3.376050 1_555
Cr1 Mg3 3.068029 1_545
Cr1 Mg4 3.068029 1_555
Cr1 Mg7 3.192400 1_655
Cr1 Mg7 3.192400 1_555
Cr1 Mg6 3.192400 1_645
Cr1 Mg6 3.192400 1_545
Cr1 Mg11 3.310932 1_555
Cr1 Mg11 3.310932 1_545
Cr1 K1 3.376050 1_655
Cr1 K1 3.376050 1_555
