# generated using pymatgen
data_SrHo2CuO5
_symmetry_space_group_name_H-M   'P 1'
_cell_length_a   5.62060700
_cell_length_b   7.14907500
_cell_length_c   12.04468600
_cell_angle_alpha   90.00000000
_cell_angle_beta   90.00000000
_cell_angle_gamma   90.00000000
_symmetry_Int_Tables_number   1
_chemical_formula_structural   SrHo2CuO5
_chemical_formula_sum   'Sr4 Ho8 Cu4 O20'
_cell_volume   483.98127101
_cell_formula_units_Z   4
loop_
 _symmetry_equiv_pos_site_id
 _symmetry_equiv_pos_as_xyz
  1  'x, y, z'
loop_
 _atom_site_type_symbol
 _atom_site_label
 _atom_site_symmetry_multiplicity
 _atom_site_fract_x
 _atom_site_fract_y
 _atom_site_fract_z
 _atom_site_occupancy
  Sr  Sr0  1  0.75000000  0.07903400  0.08821900  1
  Sr  Sr1  1  0.75000000  0.42096600  0.58821900  1
  Sr  Sr2  1  0.25000000  0.57903400  0.41178100  1
  Sr  Sr3  1  0.25000000  0.92096600  0.91178100  1
  Ho  Ho0  1  0.25000000  0.39477700  0.07331000  1
  Ho  Ho1  1  0.75000000  0.61327500  0.21352500  1
  Ho  Ho2  1  0.75000000  0.88672500  0.71352500  1
  Ho  Ho3  1  0.25000000  0.11327500  0.28647500  1
  Ho  Ho4  1  0.75000000  0.60522300  0.92669000  1
  Ho  Ho5  1  0.75000000  0.89477700  0.42669000  1
  Ho  Ho6  1  0.25000000  0.10522300  0.57331000  1
  Ho  Ho7  1  0.25000000  0.38672500  0.78647500  1
  Cu  Cu0  1  0.25000000  0.77956700  0.16261600  1
  Cu  Cu1  1  0.75000000  0.22043300  0.83738400  1
  Cu  Cu2  1  0.75000000  0.27956700  0.33738400  1
  Cu  Cu3  1  0.25000000  0.72043300  0.66261600  1
  O  O0  1  0.25000000  0.42424700  0.59442100  1
  O  O1  1  0.75000000  0.57575300  0.40557900  1
  O  O2  1  0.75000000  0.92424700  0.90557900  1
  O  O3  1  0.25000000  0.07575300  0.09442100  1
  O  O4  1  0.00480300  0.85032700  0.27568600  1
  O  O5  1  0.50480300  0.14967300  0.72431400  1
  O  O6  1  0.99519700  0.35032700  0.22431400  1
  O  O7  1  0.49519700  0.64967300  0.77568600  1
  O  O8  1  0.99519700  0.14967300  0.72431400  1
  O  O9  1  0.49519700  0.85032700  0.27568600  1
  O  O10  1  0.00480300  0.64967300  0.77568600  1
  O  O11  1  0.50480300  0.35032700  0.22431400  1
  O  O12  1  0.49338500  0.66338900  0.06695800  1
  O  O13  1  0.99338500  0.33661100  0.93304200  1
  O  O14  1  0.50661500  0.16338900  0.43304200  1
  O  O15  1  0.00661500  0.83661100  0.56695800  1
  O  O16  1  0.99338500  0.16338900  0.43304200  1
  O  O17  1  0.49338500  0.83661100  0.56695800  1
  O  O18  1  0.00661500  0.66338900  0.06695800  1
  O  O19  1  0.50661500  0.33661100  0.93304200  1
loop_
_geom_bond_atom_site_label_1
_geom_bond_atom_site_label_2
_geom_bond_distance
_geom_bond_site_symmetry_2
Ho0 O19 2.259999 1_554
Ho0 O13 2.259999 1_454
Ho0 O3 2.294857 1_555
Ho0 O11 2.336674 1_555
Ho0 O6 2.336674 1_455
Ho0 O12 2.358995 1_555
Ho0 O18 2.358995 1_555
Ho1 O18 2.307629 1_655
Ho1 O12 2.307629 1_555
Ho1 O1 2.328731 1_555
Ho1 O11 2.334519 1_555
Ho1 O6 2.334519 1_555
Ho1 O4 2.341715 1_655
Ho1 O9 2.341715 1_555
Ho2 O15 2.307629 1_655
Ho2 O17 2.307629 1_555
Ho2 O2 2.328731 1_555
Ho2 O8 2.334519 1_565
Ho2 O5 2.334519 1_565
Ho2 O10 2.341715 1_655
Ho2 O7 2.341715 1_555
Ho3 O14 2.307629 1_555
Ho3 O16 2.307629 1_455
Ho3 O3 2.328731 1_555
Ho3 O4 2.334519 1_545
Ho3 O9 2.334519 1_545
Ho3 O11 2.341715 1_555
Ho3 O6 2.341715 1_455
Ho4 O18 2.259999 1_656
Ho4 O12 2.259999 1_556
Ho4 O2 2.294857 1_555
Ho4 O10 2.336674 1_655
Ho4 O7 2.336674 1_555
Ho4 O13 2.358995 1_555
Ho4 O19 2.358995 1_555
Ho5 O15 2.259999 1_655
Ho5 O17 2.259999 1_555
Ho5 O1 2.294857 1_555
Ho5 O4 2.336674 1_655
Ho5 O9 2.336674 1_555
Ho5 O16 2.358995 1_565
Ho5 O14 2.358995 1_565
Ho6 O14 2.259999 1_555
Ho6 O16 2.259999 1_455
Ho6 O0 2.294857 1_555
Ho6 O8 2.336674 1_455
Ho6 O5 2.336674 1_555
Ho6 O17 2.358995 1_545
Ho6 O15 2.358995 1_545
Ho7 O19 2.307629 1_555
Ho7 O13 2.307629 1_455
Ho7 O0 2.328731 1_555
Ho7 O10 2.334519 1_555
Ho7 O7 2.334519 1_555
Ho7 O8 2.341715 1_455
Ho7 O5 2.341715 1_555
Cu0 O12 1.971974 1_555
Cu0 O18 1.971974 1_555
Cu0 O9 2.002491 1_555
Cu0 O4 2.002491 1_555
Cu0 O3 2.271188 1_565
Cu1 O13 1.971974 1_555
Cu1 O19 1.971974 1_555
Cu1 O8 2.002491 1_555
Cu1 O5 2.002491 1_555
Cu1 O2 2.271188 1_545
Cu2 O16 1.971974 1_555
Cu2 O14 1.971974 1_555
Cu2 O11 2.002491 1_555
Cu2 O6 2.002491 1_555
Cu2 O1 2.271188 1_555
Cu3 O17 1.971974 1_555
Cu3 O15 1.971974 1_555
Cu3 O10 2.002491 1_555
Cu3 O7 2.002491 1_555
Cu3 O0 2.271188 1_555
O0 Sr2 2.462485 1_555
O0 Sr1 2.811394 1_455
O0 Sr1 2.811394 1_555
O1 Sr1 2.462485 1_555
O1 Sr2 2.811394 1_555
O1 Sr2 2.811394 1_655
O2 Sr0 2.462485 1_566
O2 Sr3 2.811394 1_555
O2 Sr3 2.811394 1_655
O3 Sr3 2.462485 1_544
O3 Sr0 2.811394 1_555
O3 Sr0 2.811394 1_455
O4 Sr2 2.889290 1_555
O4 Sr0 3.134149 1_465
O5 Sr1 2.889290 1_555
O5 Sr3 3.134149 1_545
O6 Sr0 2.889290 1_555
O6 Sr2 3.134149 1_655
O7 Sr3 2.889290 1_555
O7 Sr1 3.134149 1_555
O8 Sr1 2.889290 1_555
O8 Sr3 3.134149 1_645
O9 Sr2 2.889290 1_555
O9 Sr0 3.134149 1_565
O10 Sr3 2.889290 1_555
O10 Sr1 3.134149 1_455
O11 Sr0 2.889290 1_555
O11 Sr2 3.134149 1_555
O12 Sr3 2.958989 1_554
O13 Sr0 2.958989 1_556
O14 Sr1 2.958989 1_555
O15 Sr2 2.958989 1_555
O16 Sr1 2.958989 1_555
O17 Sr2 2.958989 1_555
O18 Sr3 2.958989 1_554
O19 Sr0 2.958989 1_556
