# generated using pymatgen
data_Yb2Ru
_symmetry_space_group_name_H-M   'P 1'
_cell_length_a   6.59044640
_cell_length_b   6.59044640
_cell_length_c   13.71430816
_cell_angle_alpha   90.00000000
_cell_angle_beta   90.00000000
_cell_angle_gamma   90.00000000
_symmetry_Int_Tables_number   1
_chemical_formula_structural   Yb2Ru
_chemical_formula_sum   'Yb16 Ru8'
_cell_volume   595.66703834
_cell_formula_units_Z   8
loop_
 _symmetry_equiv_pos_site_id
 _symmetry_equiv_pos_as_xyz
  1  'x, y, z'
loop_
 _atom_site_type_symbol
 _atom_site_label
 _atom_site_symmetry_multiplicity
 _atom_site_fract_x
 _atom_site_fract_y
 _atom_site_fract_z
 _atom_site_occupancy
  Yb  Yb0_0  1  0.00000000  0.00000000  0.38310996  1
  Yb  Yb0_1  1  0.00000000  0.00000000  0.88310996  1
  Yb  Yb0_2  1  0.00000000  0.50000000  0.38310996  1
  Yb  Yb0_3  1  0.00000000  0.50000000  0.88310996  1
  Yb  Yb0_4  1  0.50000000  0.00000000  0.38310996  1
  Yb  Yb0_5  1  0.50000000  0.00000000  0.88310996  1
  Yb  Yb0_6  1  0.50000000  0.50000000  0.38310996  1
  Yb  Yb0_7  1  0.50000000  0.50000000  0.88310996  1
  Yb  Yb1_0  1  0.00000000  0.00000000  0.11689004  1
  Yb  Yb1_1  1  0.00000000  0.00000000  0.61689004  1
  Yb  Yb1_2  1  0.00000000  0.50000000  0.11689004  1
  Yb  Yb1_3  1  0.00000000  0.50000000  0.61689004  1
  Yb  Yb1_4  1  0.50000000  0.00000000  0.11689004  1
  Yb  Yb1_5  1  0.50000000  0.00000000  0.61689004  1
  Yb  Yb1_6  1  0.50000000  0.50000000  0.11689004  1
  Yb  Yb1_7  1  0.50000000  0.50000000  0.61689004  1
  Ru  Ru0_0  1  0.25000000  0.25000000  0.00000000  1
  Ru  Ru0_1  1  0.25000000  0.25000000  0.50000000  1
  Ru  Ru0_2  1  0.25000000  0.75000000  0.00000000  1
  Ru  Ru0_3  1  0.25000000  0.75000000  0.50000000  1
  Ru  Ru0_4  1  0.75000000  0.25000000  0.00000000  1
  Ru  Ru0_5  1  0.75000000  0.25000000  0.50000000  1
  Ru  Ru0_6  1  0.75000000  0.75000000  0.00000000  1
  Ru  Ru0_7  1  0.75000000  0.75000000  0.50000000  1
loop_
_geom_bond_atom_site_label_1
_geom_bond_atom_site_label_2
_geom_bond_distance
_geom_bond_site_symmetry_2
Yb0_0 Yb1_1 3.206132 1_555
Yb0_0 Yb0_4 3.295223 1_555
Yb0_0 Yb0_2 3.295223 1_555
Yb0_0 Yb0_2 3.295223 1_545
Yb0_0 Yb0_4 3.295223 1_455
Yb0_0 Yb1_0 3.651022 1_555
Yb0_1 Yb1_0 3.206132 1_556
Yb0_1 Yb0_5 3.295223 1_555
Yb0_1 Yb0_3 3.295223 1_555
Yb0_1 Yb0_3 3.295223 1_545
Yb0_1 Yb0_5 3.295223 1_455
Yb0_1 Yb1_1 3.651022 1_555
Yb0_2 Yb1_3 3.206132 1_555
Yb0_2 Yb0_6 3.295223 1_555
Yb0_2 Yb0_6 3.295223 1_455
Yb0_2 Yb1_2 3.651022 1_555
Yb0_3 Yb1_2 3.206132 1_556
Yb0_3 Yb0_7 3.295223 1_555
Yb0_3 Yb0_7 3.295223 1_455
Yb0_3 Yb1_3 3.651022 1_555
Yb0_4 Yb1_5 3.206132 1_555
Yb0_4 Yb0_6 3.295223 1_555
Yb0_4 Yb0_6 3.295223 1_545
Yb0_4 Yb1_4 3.651022 1_555
Yb0_5 Yb1_4 3.206132 1_556
Yb0_5 Yb0_7 3.295223 1_555
Yb0_5 Yb0_7 3.295223 1_545
Yb0_5 Yb1_5 3.651022 1_555
Yb0_6 Yb1_7 3.206132 1_555
Yb0_6 Yb1_6 3.651022 1_555
Yb0_7 Yb1_6 3.206132 1_556
Yb0_7 Yb1_7 3.651022 1_555
Yb1_0 Yb1_2 3.295223 1_555
Yb1_0 Yb1_4 3.295223 1_555
Yb1_0 Yb1_2 3.295223 1_545
Yb1_0 Yb1_4 3.295223 1_455
Yb1_1 Yb1_3 3.295223 1_555
Yb1_1 Yb1_5 3.295223 1_555
Yb1_1 Yb1_5 3.295223 1_455
Yb1_1 Yb1_3 3.295223 1_545
Yb1_2 Yb1_6 3.295223 1_555
Yb1_2 Yb1_6 3.295223 1_455
Yb1_3 Yb1_7 3.295223 1_555
Yb1_3 Yb1_7 3.295223 1_455
Yb1_4 Yb1_6 3.295223 1_555
Yb1_4 Yb1_6 3.295223 1_545
Yb1_5 Yb1_7 3.295223 1_555
Yb1_5 Yb1_7 3.295223 1_545
Ru0_0 Yb1_2 2.828262 1_555
Ru0_0 Yb1_6 2.828262 1_555
Ru0_0 Yb1_0 2.828262 1_555
Ru0_0 Yb1_4 2.828262 1_555
Ru0_0 Yb0_7 2.828262 1_554
Ru0_0 Yb0_5 2.828262 1_554
Ru0_0 Yb0_3 2.828262 1_554
Ru0_0 Yb0_1 2.828262 1_554
Ru0_1 Yb1_7 2.828262 1_555
Ru0_1 Yb1_1 2.828262 1_555
Ru0_1 Yb1_5 2.828262 1_555
Ru0_1 Yb1_3 2.828262 1_555
Ru0_1 Yb0_0 2.828262 1_555
Ru0_1 Yb0_6 2.828262 1_555
Ru0_1 Yb0_4 2.828262 1_555
Ru0_1 Yb0_2 2.828262 1_555
Ru0_2 Yb1_2 2.828262 1_555
Ru0_2 Yb1_6 2.828262 1_555
Ru0_2 Yb1_4 2.828262 1_565
Ru0_2 Yb1_0 2.828262 1_565
Ru0_2 Yb0_7 2.828262 1_554
Ru0_2 Yb0_3 2.828262 1_554
Ru0_2 Yb0_1 2.828262 1_564
Ru0_2 Yb0_5 2.828262 1_564
Ru0_3 Yb1_7 2.828262 1_555
Ru0_3 Yb1_3 2.828262 1_555
Ru0_3 Yb1_5 2.828262 1_565
Ru0_3 Yb1_1 2.828262 1_565
Ru0_3 Yb0_2 2.828262 1_555
Ru0_3 Yb0_6 2.828262 1_555
Ru0_3 Yb0_0 2.828262 1_565
Ru0_3 Yb0_4 2.828262 1_565
Ru0_4 Yb1_6 2.828262 1_555
Ru0_4 Yb1_4 2.828262 1_555
Ru0_4 Yb1_2 2.828262 1_655
Ru0_4 Yb1_0 2.828262 1_655
Ru0_4 Yb0_5 2.828262 1_554
Ru0_4 Yb0_7 2.828262 1_554
Ru0_4 Yb0_3 2.828262 1_654
Ru0_4 Yb0_1 2.828262 1_654
Ru0_5 Yb1_7 2.828262 1_555
Ru0_5 Yb1_5 2.828262 1_555
Ru0_5 Yb1_3 2.828262 1_655
Ru0_5 Yb1_1 2.828262 1_655
Ru0_5 Yb0_4 2.828262 1_555
Ru0_5 Yb0_6 2.828262 1_555
Ru0_5 Yb0_2 2.828262 1_655
Ru0_5 Yb0_0 2.828262 1_655
Ru0_6 Yb1_6 2.828262 1_555
Ru0_6 Yb1_4 2.828262 1_565
Ru0_6 Yb1_2 2.828262 1_655
Ru0_6 Yb1_0 2.828262 1_665
Ru0_6 Yb0_7 2.828262 1_554
Ru0_6 Yb0_5 2.828262 1_564
Ru0_6 Yb0_3 2.828262 1_654
Ru0_6 Yb0_1 2.828262 1_664
Ru0_7 Yb1_7 2.828262 1_555
Ru0_7 Yb1_5 2.828262 1_565
Ru0_7 Yb1_3 2.828262 1_655
Ru0_7 Yb1_1 2.828262 1_665
Ru0_7 Yb0_6 2.828262 1_555
Ru0_7 Yb0_2 2.828262 1_655
Ru0_7 Yb0_4 2.828262 1_565
Ru0_7 Yb0_0 2.828262 1_665
