# generated using pymatgen
data_SnAsPd6
_symmetry_space_group_name_H-M   'P 1'
_cell_length_a   7.76232742
_cell_length_b   7.76232742
_cell_length_c   7.76232771
_cell_angle_alpha   33.77111110
_cell_angle_beta   33.77111110
_cell_angle_gamma   33.77110894
_symmetry_Int_Tables_number   1
_chemical_formula_structural   SnAsPd6
_chemical_formula_sum   'Sn1 As1 Pd6'
_cell_volume   128.77414072
_cell_formula_units_Z   1
loop_
 _symmetry_equiv_pos_site_id
 _symmetry_equiv_pos_as_xyz
  1  'x, y, z'
loop_
 _atom_site_type_symbol
 _atom_site_label
 _atom_site_symmetry_multiplicity
 _atom_site_fract_x
 _atom_site_fract_y
 _atom_site_fract_z
 _atom_site_occupancy
  Sn  Sn0  1  0.50000000  0.50000000  0.50000000  1
  As  As0  1  0.00000000  0.00000000  0.00000000  1
  Pd  Pd0  1  0.63032400  0.63032400  0.63032400  1
  Pd  Pd1  1  0.11845900  0.11845900  0.11845900  1
  Pd  Pd2  1  0.88154100  0.88154100  0.88154100  1
  Pd  Pd3  1  0.36967600  0.36967600  0.36967600  1
  Pd  Pd4  1  0.24493700  0.24493700  0.24493700  1
  Pd  Pd5  1  0.75506300  0.75506300  0.75506300  1
loop_
_geom_bond_atom_site_label_1
_geom_bond_atom_site_label_2
_geom_bond_distance
_geom_bond_site_symmetry_2
As0 Pd1 2.598770 1_555
As0 Pd2 2.598770 1_444
As0 Pd3 2.722796 1_455
As0 Pd3 2.722796 1_545
As0 Pd0 2.722796 1_544
As0 Pd0 2.722796 1_454
As0 Pd3 2.722796 1_554
As0 Pd0 2.722796 1_445
Pd0 Pd5 2.736542 1_555
Pd0 Pd4 2.842890 1_565
Pd0 Pd4 2.842890 1_655
Pd0 Pd4 2.842890 1_556
Pd0 Sn0 2.859066 1_555
Pd1 Pd5 2.685687 1_544
Pd1 Pd5 2.685687 1_454
Pd1 Pd5 2.685687 1_445
Pd1 Pd4 2.774692 1_555
Pd1 Sn0 2.810060 1_455
Pd1 Sn0 2.810060 1_545
Pd1 Sn0 2.810060 1_554
Pd2 Pd4 2.685687 1_656
Pd2 Pd4 2.685687 1_566
Pd2 Pd4 2.685687 1_665
Pd2 Pd5 2.774692 1_555
Pd2 Sn0 2.810060 1_565
Pd2 Sn0 2.810060 1_655
Pd2 Sn0 2.810060 1_556
Pd3 Pd4 2.736542 1_555
Pd3 Pd5 2.842890 1_455
Pd3 Pd5 2.842890 1_545
Pd3 Pd5 2.842890 1_554
Pd3 Sn0 2.859066 1_555
Pd4 Sn0 3.118717 1_455
Pd4 Sn0 3.118717 1_545
Pd4 Sn0 3.118718 1_554
Pd5 Sn0 3.118717 1_565
Pd5 Sn0 3.118717 1_655
Pd5 Sn0 3.118718 1_556
