# generated using pymatgen
data_Ba3Y
_symmetry_space_group_name_H-M   'P 1'
_cell_length_a   8.44421774
_cell_length_b   8.44421774
_cell_length_c   6.73617200
_cell_angle_alpha   90.00000000
_cell_angle_beta   90.00000000
_cell_angle_gamma   119.99999794
_symmetry_Int_Tables_number   1
_chemical_formula_structural   Ba3Y
_chemical_formula_sum   'Ba6 Y2'
_cell_volume   415.97061760
_cell_formula_units_Z   2
loop_
 _symmetry_equiv_pos_site_id
 _symmetry_equiv_pos_as_xyz
  1  'x, y, z'
loop_
 _atom_site_type_symbol
 _atom_site_label
 _atom_site_symmetry_multiplicity
 _atom_site_fract_x
 _atom_site_fract_y
 _atom_site_fract_z
 _atom_site_occupancy
  Ba  Ba0  1  0.17211400  0.34422900  0.25000000  1
  Ba  Ba1  1  0.65577100  0.82788600  0.25000000  1
  Ba  Ba2  1  0.17211400  0.82788600  0.25000000  1
  Ba  Ba3  1  0.82788600  0.65577100  0.75000000  1
  Ba  Ba4  1  0.34422900  0.17211400  0.75000000  1
  Ba  Ba5  1  0.82788600  0.17211400  0.75000000  1
  Y  Y0  1  0.33333300  0.66666700  0.75000000  1
  Y  Y1  1  0.66666700  0.33333300  0.25000000  1
loop_
_geom_bond_atom_site_label_1
_geom_bond_atom_site_label_2
_geom_bond_distance
_geom_bond_site_symmetry_2
Ba0 Ba2 4.084105 1_555
Ba0 Ba1 4.084105 1_555
Ba0 Y0 4.111444 1_555
Ba0 Y0 4.111444 1_554
Ba0 Ba5 4.204859 1_455
Ba0 Ba5 4.204859 1_454
Ba0 Ba4 4.204868 1_554
Ba0 Ba4 4.204868 1_555
Ba0 Y1 4.222852 1_455
Ba0 Y1 4.222869 1_555
Ba0 Ba2 4.360113 1_545
Ba0 Ba1 4.360113 1_445
Ba1 Ba2 4.084105 1_555
Ba1 Y0 4.111444 1_555
Ba1 Y0 4.111444 1_554
Ba1 Ba5 4.204859 1_565
Ba1 Ba5 4.204859 1_564
Ba1 Ba3 4.204868 1_555
Ba1 Ba3 4.204868 1_554
Ba1 Y1 4.222852 1_565
Ba1 Y1 4.222869 1_555
Ba1 Ba2 4.360113 1_655
Ba2 Y0 4.111444 1_555
Ba2 Y0 4.111444 1_554
Ba2 Ba3 4.204859 1_454
Ba2 Ba4 4.204859 1_564
Ba2 Ba3 4.204859 1_455
Ba2 Ba4 4.204859 1_565
Ba2 Y1 4.222861 1_455
Ba2 Y1 4.222861 1_565
Ba3 Ba5 4.084105 1_555
Ba3 Ba4 4.084105 1_555
Ba3 Y1 4.111444 1_556
Ba3 Y1 4.111444 1_555
Ba3 Y0 4.222852 1_655
Ba3 Y0 4.222869 1_555
Ba3 Ba5 4.360113 1_565
Ba3 Ba4 4.360113 1_665
Ba4 Ba5 4.084105 1_555
Ba4 Y1 4.111444 1_556
Ba4 Y1 4.111444 1_555
Ba4 Y0 4.222852 1_545
Ba4 Y0 4.222869 1_555
Ba4 Ba5 4.360113 1_455
Ba5 Y1 4.111444 1_556
Ba5 Y1 4.111444 1_555
Ba5 Y0 4.222861 1_545
Ba5 Y0 4.222861 1_655
