# generated using pymatgen
data_NaSrDyMnO6
_symmetry_space_group_name_H-M   'P 1'
_cell_length_a   5.72408504
_cell_length_b   5.72412446
_cell_length_c   5.72406667
_cell_angle_alpha   60.00024902
_cell_angle_beta   60.00028127
_cell_angle_gamma   59.99948246
_symmetry_Int_Tables_number   1
_chemical_formula_structural   NaSrDyMnO6
_chemical_formula_sum   'Na1 Sr1 Dy1 Mn1 O6'
_cell_volume   132.61873254
_cell_formula_units_Z   1
loop_
 _symmetry_equiv_pos_site_id
 _symmetry_equiv_pos_as_xyz
  1  'x, y, z'
loop_
 _atom_site_type_symbol
 _atom_site_label
 _atom_site_symmetry_multiplicity
 _atom_site_fract_x
 _atom_site_fract_y
 _atom_site_fract_z
 _atom_site_occupancy
  Na  Na0  1  0.25000173  0.24999863  0.24999952  1
  Sr  Sr0  1  0.75000259  0.74999774  0.74999935  1
  Dy  Dy0  1  0.00002286  0.99998147  0.99999376  1
  Mn  Mn0  1  0.49997709  0.50001858  0.50000598  1
  O  O0  1  0.72940033  0.27059955  0.27059923  1
  O  O1  1  0.27059852  0.72940144  0.72940111  1
  O  O2  1  0.72940095  0.27059880  0.72940230  1
  O  O3  1  0.27059742  0.72940252  0.27059825  1
  O  O4  1  0.72939752  0.72939890  0.27060196  1
  O  O5  1  0.27060099  0.27060237  0.72939853  1
loop_
_geom_bond_atom_site_label_1
_geom_bond_atom_site_label_2
_geom_bond_distance
_geom_bond_site_symmetry_2
Na0 O4 2.866873 1_545
Na0 O5 2.866885 1_554
Na0 O5 2.866891 1_555
Na0 O0 2.866891 1_555
Na0 O2 2.866894 1_554
Na0 O4 2.866897 1_455
Na0 O0 2.866902 1_455
Na0 O1 2.866908 1_545
Na0 O3 2.866909 1_545
Na0 O2 2.866913 1_455
Na0 O1 2.866915 1_554
Na0 O3 2.866921 1_555
Dy0 O1 2.190414 1_555
Dy0 O3 2.190431 1_556
Dy0 O5 2.190549 1_565
Dy0 O2 2.190570 1_465
Dy0 O4 2.190585 1_456
Dy0 O0 2.190620 1_466
Mn0 O1 1.856919 1_555
Mn0 O3 1.856949 1_555
Mn0 O5 1.857001 1_555
Mn0 O4 1.857035 1_555
Mn0 O2 1.857082 1_555
Mn0 O0 1.857112 1_555
O0 Sr0 2.866907 1_554
O0 Sr0 2.866919 1_545
O1 Sr0 2.866887 1_455
O1 Sr0 2.866904 1_555
O2 Sr0 2.866906 1_555
O2 Sr0 2.866926 1_545
O3 Sr0 2.866890 1_455
O3 Sr0 2.866915 1_554
O4 Sr0 2.866885 1_555
O4 Sr0 2.866892 1_554
O5 Sr0 2.866866 1_455
O5 Sr0 2.866904 1_545
