# generated using pymatgen
data_Tb(GeIr)2
_symmetry_space_group_name_H-M   'P 1'
_cell_length_a   4.20890521
_cell_length_b   4.20890521
_cell_length_c   10.03534061
_cell_angle_alpha   90.00000000
_cell_angle_beta   90.00000000
_cell_angle_gamma   90.00000000
_symmetry_Int_Tables_number   1
_chemical_formula_structural   Tb(GeIr)2
_chemical_formula_sum   'Tb2 Ge4 Ir4'
_cell_volume   177.77488544
_cell_formula_units_Z   2
loop_
 _symmetry_equiv_pos_site_id
 _symmetry_equiv_pos_as_xyz
  1  'x, y, z'
loop_
 _atom_site_type_symbol
 _atom_site_label
 _atom_site_symmetry_multiplicity
 _atom_site_fract_x
 _atom_site_fract_y
 _atom_site_fract_z
 _atom_site_occupancy
  Tb  Tb0  1  0.00000000  0.50000000  0.25435601  1
  Tb  Tb1  1  0.50000000  0.00000000  0.74564399  1
  Ge  Ge0  1  0.00000000  0.00000000  0.50000000  1
  Ge  Ge1  1  0.50000000  0.50000000  0.50000000  1
  Ge  Ge2  1  0.00000000  0.50000000  0.86784946  1
  Ge  Ge3  1  0.50000000  0.00000000  0.13215054  1
  Ir  Ir0  1  -0.00000000  -0.00000000  -0.00000000  1
  Ir  Ir1  1  0.50000000  0.50000000  -0.00000000  1
  Ir  Ir2  1  0.00000000  0.50000000  0.62895215  1
  Ir  Ir3  1  0.50000000  0.00000000  0.37104785  1
loop_
_geom_bond_atom_site_label_1
_geom_bond_atom_site_label_2
_geom_bond_distance
_geom_bond_site_symmetry_2
Ge0 Ir3 2.470498 1_555
Ge0 Ir3 2.470498 1_455
Ge0 Ir2 2.470498 1_555
Ge0 Ir2 2.470498 1_545
Ge0 Tb0 3.241226 1_555
Ge0 Tb0 3.241226 1_545
Ge0 Tb1 3.241226 1_455
Ge0 Tb1 3.241226 1_555
Ge1 Ir3 2.470498 1_555
Ge1 Ir3 2.470498 1_565
Ge1 Ir2 2.470498 1_555
Ge1 Ir2 2.470498 1_655
Ge1 Tb0 3.241226 1_655
Ge1 Tb0 3.241226 1_555
Ge1 Tb1 3.241226 1_555
Ge1 Tb1 3.241226 1_565
Ge2 Ir2 2.397416 1_555
Ge2 Ir1 2.487461 1_456
Ge2 Ir1 2.487461 1_556
Ge2 Ir0 2.487461 1_556
Ge2 Ir0 2.487461 1_566
Ge2 Tb1 3.218918 1_455
Ge2 Tb1 3.218918 1_555
Ge2 Tb1 3.218918 1_465
Ge2 Tb1 3.218918 1_565
Ge3 Ir3 2.397416 1_555
Ge3 Ir1 2.487461 1_545
Ge3 Ir1 2.487461 1_555
Ge3 Ir0 2.487461 1_655
Ge3 Ir0 2.487461 1_555
Ge3 Tb0 3.218918 1_555
Ge3 Tb0 3.218918 1_645
Ge3 Tb0 3.218918 1_545
Ge3 Tb0 3.218918 1_655
Ir0 Tb1 3.308206 1_454
Ir0 Tb1 3.308206 1_554
Ir0 Tb0 3.308206 1_555
Ir0 Tb0 3.308206 1_545
Ir1 Tb1 3.308206 1_554
Ir1 Tb1 3.308206 1_564
Ir1 Tb0 3.308206 1_655
Ir1 Tb0 3.308206 1_555
Ir2 Tb1 3.198247 1_455
Ir2 Tb1 3.198247 1_565
Ir2 Tb1 3.198247 1_555
Ir2 Tb1 3.198247 1_465
Ir3 Tb0 3.198247 1_555
Ir3 Tb0 3.198247 1_645
Ir3 Tb0 3.198247 1_545
Ir3 Tb0 3.198247 1_655
