# generated using pymatgen
data_Ba2CaTi2CuF14
_symmetry_space_group_name_H-M   'P 1'
_cell_length_a   7.70407146
_cell_length_b   7.70407146
_cell_length_c   15.25835864
_cell_angle_alpha   86.81041791
_cell_angle_beta   86.81041791
_cell_angle_gamma   42.40342163
_symmetry_Int_Tables_number   1
_chemical_formula_structural   Ba2CaTi2CuF14
_chemical_formula_sum   'Ba4 Ca2 Ti4 Cu2 F28'
_cell_volume   609.61653956
_cell_formula_units_Z   2
loop_
 _symmetry_equiv_pos_site_id
 _symmetry_equiv_pos_as_xyz
  1  'x, y, z'
loop_
 _atom_site_type_symbol
 _atom_site_label
 _atom_site_symmetry_multiplicity
 _atom_site_fract_x
 _atom_site_fract_y
 _atom_site_fract_z
 _atom_site_occupancy
  Ba  Ba0  1  0.73604400  0.90542800  0.12322000  1
  Ba  Ba1  1  0.90542800  0.73604400  0.62322000  1
  Ba  Ba2  1  0.26395600  0.09457200  0.87678000  1
  Ba  Ba3  1  0.09457200  0.26395600  0.37678000  1
  Ca  Ca0  1  0.42840600  0.57159400  0.25000000  1
  Ca  Ca1  1  0.57159400  0.42840600  0.75000000  1
  Ti  Ti0  1  0.85209600  0.89832600  0.37641700  1
  Ti  Ti1  1  0.14790400  0.10167400  0.62358300  1
  Ti  Ti2  1  0.89832600  0.85209600  0.87641700  1
  Ti  Ti3  1  0.10167400  0.14790400  0.12358300  1
  Cu  Cu0  1  0.50000000  0.50000000  0.50000000  1
  Cu  Cu1  1  0.50000000  0.50000000  0.00000000  1
  F  F0  1  0.92019900  0.08474800  0.84415600  1
  F  F1  1  0.59010500  0.10653300  0.95106400  1
  F  F2  1  0.40989500  0.89346700  0.04893600  1
  F  F3  1  0.14865000  0.35946800  0.10462700  1
  F  F4  1  0.52048600  0.37973900  0.11905600  1
  F  F5  1  0.62026100  0.47951400  0.38094400  1
  F  F6  1  0.10653300  0.59010500  0.45106400  1
  F  F7  1  0.91525200  0.07980100  0.65584400  1
  F  F8  1  0.03199500  0.64778200  0.27949300  1
  F  F9  1  0.85135000  0.64053200  0.89537300  1
  F  F10  1  0.59564300  0.16937400  0.29133100  1
  F  F11  1  0.64053200  0.85135000  0.39537300  1
  F  F12  1  0.16937400  0.59564300  0.79133100  1
  F  F13  1  0.40435700  0.83062600  0.70866900  1
  F  F14  1  0.37973900  0.52048600  0.61905600  1
  F  F15  1  0.96800500  0.35221800  0.72050700  1
  F  F16  1  0.26861700  0.91425300  0.51980100  1
  F  F17  1  0.07980100  0.91525200  0.15584400  1
  F  F18  1  0.73138300  0.08574700  0.48019900  1
  F  F19  1  0.91425300  0.26861700  0.01980100  1
  F  F20  1  0.89346700  0.40989500  0.54893600  1
  F  F21  1  0.83062600  0.40435700  0.20866900  1
  F  F22  1  0.64778200  0.03199500  0.77949300  1
  F  F23  1  0.08574700  0.73138300  0.98019900  1
  F  F24  1  0.47951400  0.62026100  0.88094400  1
  F  F25  1  0.08474800  0.92019900  0.34415600  1
  F  F26  1  0.35221800  0.96800500  0.22050700  1
  F  F27  1  0.35946800  0.14865000  0.60462700  1
loop_
_geom_bond_atom_site_label_1
_geom_bond_atom_site_label_2
_geom_bond_distance
_geom_bond_site_symmetry_2
Ba0 F4 2.671807 1_565
Ba0 F17 2.777422 1_655
Ba0 F1 2.804978 1_564
Ba0 F23 2.855686 1_654
Ba0 F3 2.857145 1_655
Ba0 F8 2.866842 1_655
Ba0 F2 2.877018 1_555
Ba0 F26 2.943774 1_555
Ba0 F10 2.984636 1_565
Ba0 F3 3.074063 1_565
Ba1 F14 2.671807 1_655
Ba1 F7 2.777422 1_565
Ba1 F6 2.804978 1_655
Ba1 F18 2.855686 1_565
Ba1 F27 2.857145 1_565
Ba1 F22 2.866842 1_565
Ba1 F20 2.877018 1_555
Ba1 F15 2.943774 1_555
Ba1 F12 2.984636 1_655
Ba1 F27 3.074063 1_655
Ba2 F24 2.671807 1_545
Ba2 F0 2.777422 1_455
Ba2 F2 2.804978 1_546
Ba2 F19 2.855686 1_456
Ba2 F9 2.857145 1_455
Ba2 F15 2.866842 1_455
Ba2 F1 2.877018 1_555
Ba2 F22 2.943774 1_555
Ba2 F13 2.984636 1_545
Ba2 F9 3.074063 1_545
Ba3 F5 2.671807 1_455
Ba3 F25 2.777422 1_545
Ba3 F20 2.804978 1_455
Ba3 F16 2.855686 1_545
Ba3 F11 2.857145 1_545
Ba3 F26 2.866842 1_545
Ba3 F6 2.877018 1_555
Ba3 F8 2.943774 1_555
Ba3 F21 2.984636 1_455
Ba3 F11 3.074063 1_455
Ca0 F4 2.302669 1_555
Ca0 F5 2.302669 1_555
Ca0 F10 2.374165 1_555
Ca0 F21 2.374165 1_555
Ca0 F25 2.406566 1_555
Ca0 F17 2.406566 1_555
Ca0 F8 2.665141 1_555
Ca0 F26 2.665141 1_555
Ca1 F24 2.302669 1_555
Ca1 F14 2.302669 1_555
Ca1 F12 2.374165 1_555
Ca1 F13 2.374165 1_555
Ca1 F0 2.406566 1_555
Ca1 F7 2.406566 1_555
Ca1 F22 2.665141 1_555
Ca1 F15 2.665141 1_555
Cu0 F14 1.952435 1_555
Cu0 F5 1.952435 1_555
Cu0 F16 2.258277 1_555
Cu0 F18 2.258277 1_555
Cu1 F4 1.952435 1_555
Cu1 F24 1.952435 1_554
Cu1 F19 2.258277 1_555
Cu1 F23 2.258277 1_554
F0 Ti2 1.954975 1_545
F1 Ti2 1.962555 1_545
F2 Ti3 1.962555 1_565
F3 Ti3 1.917878 1_555
F6 Ti0 1.962555 1_455
F7 Ti1 1.954975 1_655
F8 Ti0 1.993114 1_455
F9 Ti2 1.917878 1_555
F10 Ti0 1.959678 1_545
F11 Ti0 1.917878 1_555
F12 Ti2 1.959678 1_455
F13 Ti1 1.959678 1_565
F15 Ti1 1.993114 1_655
F16 Ti1 1.888068 1_565
F17 Ti3 1.954975 1_565
F18 Ti0 1.888068 1_545
F19 Ti3 1.888068 1_655
F20 Ti1 1.962555 1_655
F21 Ti3 1.959678 1_655
F22 Ti2 1.993114 1_545
F23 Ti2 1.888068 1_455
F25 Ti0 1.954975 1_455
F26 Ti3 1.993114 1_565
F27 Ti1 1.917878 1_555
