# generated using pymatgen
data_AlBiSe4
_symmetry_space_group_name_H-M   'P 1'
_cell_length_a   7.34837300
_cell_length_b   7.34837300
_cell_length_c   12.27678100
_cell_angle_alpha   90.00000000
_cell_angle_beta   90.00000000
_cell_angle_gamma   90.00000000
_symmetry_Int_Tables_number   1
_chemical_formula_structural   AlBiSe4
_chemical_formula_sum   'Al4 Bi4 Se16'
_cell_volume   662.92881153
_cell_formula_units_Z   4
loop_
 _symmetry_equiv_pos_site_id
 _symmetry_equiv_pos_as_xyz
  1  'x, y, z'
loop_
 _atom_site_type_symbol
 _atom_site_label
 _atom_site_symmetry_multiplicity
 _atom_site_fract_x
 _atom_site_fract_y
 _atom_site_fract_z
 _atom_site_occupancy
  Al  Al0  1  0.50000000  0.50000000  0.75000000  1
  Al  Al1  1  0.00000000  0.00000000  0.00000000  1
  Al  Al2  1  0.00000000  0.00000000  0.50000000  1
  Al  Al3  1  0.50000000  0.50000000  0.25000000  1
  Bi  Bi0  1  0.50000000  0.00000000  0.54715100  1
  Bi  Bi1  1  0.00000000  0.50000000  0.45284900  1
  Bi  Bi2  1  0.00000000  0.50000000  0.04715100  1
  Bi  Bi3  1  0.50000000  0.00000000  0.95284900  1
  Se  Se0  1  0.81448900  0.22537700  0.60025500  1
  Se  Se1  1  0.77462300  0.18551100  0.10025500  1
  Se  Se2  1  0.27996900  0.28996800  0.16412300  1
  Se  Se3  1  0.18551100  0.77462300  0.60025500  1
  Se  Se4  1  0.77462300  0.81448900  0.39974500  1
  Se  Se5  1  0.71003200  0.27996900  0.83587700  1
  Se  Se6  1  0.81448900  0.77462300  0.89974500  1
  Se  Se7  1  0.28996800  0.27996900  0.66412300  1
  Se  Se8  1  0.28996800  0.72003100  0.83587700  1
  Se  Se9  1  0.22537700  0.18551100  0.39974500  1
  Se  Se10  1  0.71003200  0.72003100  0.66412300  1
  Se  Se11  1  0.22537700  0.81448900  0.10025500  1
  Se  Se12  1  0.72003100  0.71003200  0.16412300  1
  Se  Se13  1  0.27996900  0.71003200  0.33587700  1
  Se  Se14  1  0.72003100  0.28996800  0.33587700  1
  Se  Se15  1  0.18551100  0.22537700  0.89974500  1
loop_
_geom_bond_atom_site_label_1
_geom_bond_atom_site_label_2
_geom_bond_distance
_geom_bond_site_symmetry_2
Al0 Se7 2.471410 1_555
Al0 Se5 2.471410 1_555
Al0 Se8 2.471410 1_555
Al0 Se10 2.471410 1_555
Al1 Se11 2.473067 1_545
Al1 Se6 2.473067 1_444
Al1 Se1 2.473067 1_455
Al1 Se15 2.473067 1_554
Al2 Se0 2.473067 1_455
Al2 Se9 2.473067 1_555
Al2 Se4 2.473067 1_445
Al2 Se3 2.473067 1_545
Al3 Se14 2.471410 1_555
Al3 Se13 2.471410 1_555
Al3 Se2 2.471410 1_555
Al3 Se12 2.471410 1_555
Bi0 Se0 2.916937 1_555
Bi0 Se3 2.916937 1_545
Bi0 Se7 2.945645 1_555
Bi0 Se10 2.945645 1_545
Bi0 Se4 3.034088 1_545
Bi0 Se9 3.034088 1_555
Bi1 Se9 2.916937 1_555
Bi1 Se4 2.916937 1_455
Bi1 Se13 2.945645 1_555
Bi1 Se14 2.945645 1_455
Bi1 Se0 3.034088 1_455
Bi1 Se3 3.034088 1_555
Bi2 Se11 2.916937 1_555
Bi2 Se1 2.916937 1_455
Bi2 Se12 2.945645 1_455
Bi2 Se2 2.945645 1_555
Bi2 Se6 3.034088 1_454
Bi2 Se15 3.034088 1_554
Bi3 Se15 2.916937 1_555
Bi3 Se6 2.916937 1_545
Bi3 Se8 2.945645 1_545
Bi3 Se5 2.945645 1_555
Bi3 Se1 3.034088 1_556
Bi3 Se11 3.034088 1_546
