# generated using pymatgen
data_GdMnGe2O7
_symmetry_space_group_name_H-M   'P 1'
_cell_length_a   4.81337700
_cell_length_b   7.91085731
_cell_length_c   7.91085731
_cell_angle_alpha   119.46511890
_cell_angle_beta   90.00000000
_cell_angle_gamma   90.00000000
_symmetry_Int_Tables_number   1
_chemical_formula_structural   GdMnGe2O7
_chemical_formula_sum   'Gd2 Mn2 Ge4 O14'
_cell_volume   262.26675139
_cell_formula_units_Z   2
loop_
 _symmetry_equiv_pos_site_id
 _symmetry_equiv_pos_as_xyz
  1  'x, y, z'
loop_
 _atom_site_type_symbol
 _atom_site_label
 _atom_site_symmetry_multiplicity
 _atom_site_fract_x
 _atom_site_fract_y
 _atom_site_fract_z
 _atom_site_occupancy
  Gd  Gd0  1  0.00000000  0.00000000  0.00000000  1
  Gd  Gd1  1  0.00000000  0.50000000  0.50000000  1
  Mn  Mn0  1  0.00000000  0.74981700  0.25018300  1
  Mn  Mn1  1  0.00000000  0.25018300  0.74981700  1
  Ge  Ge0  1  0.48010300  0.11377700  0.38670400  1
  Ge  Ge1  1  0.48010300  0.88622300  0.61329600  1
  Ge  Ge2  1  0.51989700  0.61329600  0.88622300  1
  Ge  Ge3  1  0.51989700  0.38670400  0.11377700  1
  O  O0  1  0.68545600  0.00000000  0.50000000  1
  O  O1  1  0.31454400  0.50000000  0.00000000  1
  O  O2  1  0.24298400  0.27882700  0.56786800  1
  O  O3  1  0.24298400  0.72117300  0.43213200  1
  O  O4  1  0.75701600  0.43213200  0.72117300  1
  O  O5  1  0.75701600  0.56786800  0.27882700  1
  O  O6  1  0.73960700  0.79651100  0.70364600  1
  O  O7  1  0.73960700  0.20348900  0.29635400  1
  O  O8  1  0.26039300  0.29635400  0.20348900  1
  O  O9  1  0.26039300  0.70364600  0.79651100  1
  O  O10  1  0.24156400  0.06682800  0.77706000  1
  O  O11  1  0.24156400  0.93317200  0.22294000  1
  O  O12  1  0.75843600  0.22294000  0.93317200  1
  O  O13  1  0.75843600  0.77706000  0.06682800  1
loop_
_geom_bond_atom_site_label_1
_geom_bond_atom_site_label_2
_geom_bond_distance
_geom_bond_site_symmetry_2
Gd0 O10 2.378900 1_554
Gd0 O13 2.378900 1_445
Gd0 O11 2.378900 1_545
Gd0 O12 2.378900 1_454
Gd0 O8 2.438400 1_555
Gd0 O7 2.438400 1_455
Gd0 O6 2.438400 1_444
Gd0 O9 2.438400 1_544
Gd1 O2 2.375216 1_555
Gd1 O5 2.375216 1_455
Gd1 O3 2.375216 1_555
Gd1 O4 2.375216 1_455
Gd1 O7 2.439423 1_455
Gd1 O6 2.439423 1_455
Gd1 O8 2.439423 1_555
Gd1 O9 2.439423 1_555
Mn0 O11 1.951891 1_555
Mn0 O13 1.951891 1_455
Mn0 O3 1.952413 1_555
Mn0 O5 1.952413 1_455
Mn0 O1 2.503403 1_555
Mn0 O0 2.503403 1_465
Mn1 O12 1.951891 1_455
Mn1 O10 1.951891 1_555
Mn1 O4 1.952413 1_455
Mn1 O2 1.952413 1_555
Mn1 O0 2.503403 1_455
Mn1 O1 2.503403 1_556
Ge0 O7 1.753223 1_555
Ge0 O11 1.793606 1_545
Ge0 O2 1.794579 1_555
Ge0 O0 1.839585 1_555
Ge1 O6 1.753223 1_555
Ge1 O10 1.793606 1_565
Ge1 O3 1.794579 1_555
Ge1 O0 1.839585 1_565
Ge2 O9 1.753223 1_555
Ge2 O13 1.793606 1_556
Ge2 O4 1.794579 1_555
Ge2 O1 1.839585 1_556
Ge3 O8 1.753223 1_555
Ge3 O12 1.793606 1_554
Ge3 O5 1.794579 1_555
Ge3 O1 1.839585 1_555
