# generated using pymatgen
data_NaFeH4SO6F
_symmetry_space_group_name_H-M   'P 1'
_cell_length_a   5.84512827
_cell_length_b   7.30439623
_cell_length_c   7.47618559
_cell_angle_alpha   89.91177607
_cell_angle_beta   89.90546758
_cell_angle_gamma   112.64027572
_symmetry_Int_Tables_number   1
_chemical_formula_structural   NaFeH4SO6F
_chemical_formula_sum   'Na2 Fe2 H8 S2 O12 F2'
_cell_volume   294.59817018
_cell_formula_units_Z   2
loop_
 _symmetry_equiv_pos_site_id
 _symmetry_equiv_pos_as_xyz
  1  'x, y, z'
loop_
 _atom_site_type_symbol
 _atom_site_label
 _atom_site_symmetry_multiplicity
 _atom_site_fract_x
 _atom_site_fract_y
 _atom_site_fract_z
 _atom_site_occupancy
  Na  Na0  1  0.86607500  0.29432600  0.75024900  1
  Na  Na1  1  0.13391700  0.70560400  0.24969300  1
  Fe  Fe0  1  0.49984800  0.50006100  0.00034500  1
  Fe  Fe1  1  0.49984200  0.50004200  0.49983000  1
  H  H0  1  0.80705800  0.87774600  0.09232500  1
  H  H1  1  0.19167800  0.12203700  0.59090600  1
  H  H2  1  0.19301600  0.12229000  0.90767300  1
  H  H3  1  0.80826000  0.87787200  0.40907600  1
  H  H4  1  0.93501800  0.80762800  0.56896900  1
  H  H5  1  0.06637500  0.19183100  0.06820700  1
  H  H6  1  0.06499500  0.19233800  0.43098800  1
  H  H7  1  0.93380900  0.80832100  0.93178600  1
  S  S0  1  0.34666400  0.80930200  0.75096900  1
  S  S1  1  0.65328600  0.19074400  0.24903200  1
  O  O0  1  0.15828500  0.90758200  0.75034900  1
  O  O1  1  0.84172100  0.09245900  0.24958400  1
  O  O2  1  0.59925200  0.96027800  0.75044200  1
  O  O3  1  0.40070700  0.03968900  0.24945200  1
  O  O4  1  0.29550900  0.67951800  0.58880800  1
  O  O5  1  0.70512700  0.31975800  0.08573100  1
  O  O6  1  0.70440400  0.32044600  0.41125100  1
  O  O7  1  0.29489000  0.68028100  0.91421400  1
  O  O8  1  0.83907700  0.76357400  0.04500800  1
  O  O9  1  0.15948800  0.23634700  0.54396600  1
  O  O10  1  0.16093600  0.23645800  0.95492200  1
  O  O11  1  0.84041800  0.76355200  0.45604500  1
  F  F0  1  0.61598700  0.46925000  0.74991700  1
  F  F1  1  0.38435700  0.53066600  0.25026200  1
loop_
_geom_bond_atom_site_label_1
_geom_bond_atom_site_label_2
_geom_bond_distance
_geom_bond_site_symmetry_2
Na0 O2 2.335866 1_545
Na0 O9 2.459997 1_655
Na0 O10 2.461327 1_655
Na0 O5 2.708954 1_556
Na0 O6 2.738223 1_555
Na1 O3 2.336027 1_565
Na1 O11 2.460603 1_455
Na1 O8 2.461617 1_455
Na1 O7 2.708825 1_554
Na1 O4 2.738811 1_555
Fe0 O7 2.190173 1_554
Fe0 O5 2.190497 1_555
Fe0 O8 2.194046 1_555
Fe0 O10 2.194234 1_554
Fe1 O4 2.189323 1_555
Fe1 O6 2.190167 1_555
Fe1 O11 2.195634 1_555
Fe1 O9 2.195995 1_555
H0 O8 0.988183 1_555
H1 O9 0.987922 1_555
H2 O10 0.988157 1_555
H3 O11 0.987969 1_555
H4 O11 0.993714 1_555
H5 O10 0.993961 1_554
H6 O9 0.993732 1_555
H7 O8 0.994088 1_556
O0 S0 1.528514 1_555
O1 S1 1.528834 1_555
O2 S0 1.463695 1_555
O3 S1 1.463868 1_555
O4 S0 1.498127 1_555
O5 S1 1.498596 1_555
O6 S1 1.498154 1_555
O7 S0 1.498300 1_555
F0 Fe1 2.031670 1_555
F0 Fe0 2.032613 1_556
F0 Na0 2.281968 1_555
F1 Fe1 2.026348 1_555
F1 Fe0 2.027315 1_555
F1 Na1 2.283815 1_555
