# generated using pymatgen
data_NaLaCuTe4
_symmetry_space_group_name_H-M   'P 1'
_cell_length_a   4.45723400
_cell_length_b   4.45723400
_cell_length_c   19.92707800
_cell_angle_alpha   90.00000000
_cell_angle_beta   90.00000000
_cell_angle_gamma   90.00000000
_symmetry_Int_Tables_number   1
_chemical_formula_structural   NaLaCuTe4
_chemical_formula_sum   'Na2 La2 Cu2 Te8'
_cell_volume   395.88996199
_cell_formula_units_Z   2
loop_
 _symmetry_equiv_pos_site_id
 _symmetry_equiv_pos_as_xyz
  1  'x, y, z'
loop_
 _atom_site_type_symbol
 _atom_site_label
 _atom_site_symmetry_multiplicity
 _atom_site_fract_x
 _atom_site_fract_y
 _atom_site_fract_z
 _atom_site_occupancy
  Na  Na0  1  0.00000000  0.50000000  0.12428200  1
  Na  Na1  1  0.50000000  0.00000000  0.87571800  1
  La  La0  1  0.00000000  0.50000000  0.60751600  1
  La  La1  1  0.50000000  0.00000000  0.39248400  1
  Cu  Cu0  1  0.00000000  0.00000000  0.00000000  1
  Cu  Cu1  1  0.50000000  0.50000000  0.00000000  1
  Te  Te0  1  0.00000000  0.00000000  0.26361100  1
  Te  Te1  1  0.50000000  0.50000000  0.73638900  1
  Te  Te2  1  0.00000000  0.50000000  0.92191100  1
  Te  Te3  1  0.50000000  0.00000000  0.07808900  1
  Te  Te4  1  0.00000000  0.00000000  0.73638900  1
  Te  Te5  1  0.50000000  0.50000000  0.26361100  1
  Te  Te6  1  0.00000000  0.50000000  0.43875800  1
  Te  Te7  1  0.50000000  0.00000000  0.56124200  1
loop_
_geom_bond_atom_site_label_1
_geom_bond_atom_site_label_2
_geom_bond_distance
_geom_bond_site_symmetry_2
Na0 Te3 3.283409 1_455
Na0 Te3 3.283409 1_555
Na0 Te3 3.283409 1_565
Na0 Te3 3.283409 1_465
Na0 Te5 3.560230 1_555
Na0 Te5 3.560230 1_455
Na0 Te0 3.560230 1_565
Na0 Te0 3.560230 1_555
Na1 Te2 3.283409 1_655
Na1 Te2 3.283409 1_545
Na1 Te2 3.283409 1_645
Na1 Te2 3.283409 1_555
Na1 Te4 3.560230 1_555
Na1 Te1 3.560230 1_545
Na1 Te1 3.560230 1_555
Na1 Te4 3.560230 1_655
La0 Te7 3.283861 1_455
La0 Te7 3.283861 1_555
La0 Te7 3.283861 1_465
La0 Te7 3.283861 1_565
La0 Te6 3.362854 1_555
La0 Te1 3.400247 1_555
La0 Te4 3.400247 1_565
La0 Te4 3.400247 1_555
La0 Te1 3.400247 1_455
La1 Te6 3.283861 1_555
La1 Te6 3.283861 1_655
La1 Te6 3.283861 1_645
La1 Te6 3.283861 1_545
La1 Te7 3.362854 1_555
La1 Te5 3.400247 1_545
La1 Te5 3.400247 1_555
La1 Te0 3.400247 1_555
La1 Te0 3.400247 1_655
Cu0 Te3 2.718113 1_455
Cu0 Te3 2.718113 1_555
Cu0 Te2 2.718113 1_554
Cu0 Te2 2.718113 1_544
Cu0 Na0 3.331691 1_545
Cu0 Na0 3.331691 1_555
Cu0 Na1 3.331691 1_554
Cu0 Na1 3.331691 1_454
Cu1 Te3 2.718113 1_565
Cu1 Te3 2.718113 1_555
Cu1 Te2 2.718113 1_554
Cu1 Te2 2.718113 1_654
Cu1 Na0 3.331691 1_655
Cu1 Na0 3.331691 1_555
Cu1 Na1 3.331691 1_554
Cu1 Na1 3.331691 1_564
Te0 Te5 3.151740 1_545
Te0 Te5 3.151740 1_555
Te0 Te5 3.151740 1_445
Te0 Te5 3.151740 1_455
Te1 Te4 3.151740 1_565
Te1 Te4 3.151740 1_555
Te1 Te4 3.151740 1_655
Te1 Te4 3.151740 1_665
