# generated using pymatgen
data_BaP3NO11
_symmetry_space_group_name_H-M   'P 1'
_cell_length_a   12.33884200
_cell_length_b   7.25681000
_cell_length_c   13.18949300
_cell_angle_alpha   67.77670027
_cell_angle_beta   90.00000000
_cell_angle_gamma   90.00000000
_symmetry_Int_Tables_number   1
_chemical_formula_structural   BaP3NO11
_chemical_formula_sum   'Ba4 P12 N4 O44'
_cell_volume   1093.26747816
_cell_formula_units_Z   4
loop_
 _symmetry_equiv_pos_site_id
 _symmetry_equiv_pos_as_xyz
  1  'x, y, z'
loop_
 _atom_site_type_symbol
 _atom_site_label
 _atom_site_symmetry_multiplicity
 _atom_site_fract_x
 _atom_site_fract_y
 _atom_site_fract_z
 _atom_site_occupancy
  Ba  Ba0  1  0.55149600  0.58676400  0.14946000  1
  Ba  Ba1  1  0.94850400  0.58676400  0.64946000  1
  Ba  Ba2  1  0.44850400  0.41323600  0.85054000  1
  Ba  Ba3  1  0.05149600  0.41323600  0.35054000  1
  P  P0  1  0.66427900  0.15932500  0.06457800  1
  P  P1  1  0.83572100  0.15932500  0.56457800  1
  P  P2  1  0.33572100  0.84067500  0.93542200  1
  P  P3  1  0.16427900  0.84067500  0.43542200  1
  P  P4  1  0.84895500  0.34824500  0.91868800  1
  P  P5  1  0.65104500  0.34824500  0.41868800  1
  P  P6  1  0.15104500  0.65175500  0.08131200  1
  P  P7  1  0.34895500  0.65175500  0.58131200  1
  P  P8  1  0.83023000  0.36400600  0.13577800  1
  P  P9  1  0.66977000  0.36400600  0.63577800  1
  P  P10  1  0.16977000  0.63599400  0.86422200  1
  P  P11  1  0.33023000  0.63599400  0.36422200  1
  N  N0  1  0.74682000  0.75953300  0.85370300  1
  N  N1  1  0.75318000  0.75953300  0.35370300  1
  N  N2  1  0.25318000  0.24046700  0.14629700  1
  N  N3  1  0.24682000  0.24046700  0.64629700  1
  O  O0  1  0.89726000  0.36276700  0.02658600  1
  O  O1  1  0.60274000  0.36276700  0.52658600  1
  O  O2  1  0.10274000  0.63723300  0.97341400  1
  O  O3  1  0.39726000  0.63723300  0.47341400  1
  O  O4  1  0.74875600  0.17313500  0.15572100  1
  O  O5  1  0.75124400  0.17313500  0.65572100  1
  O  O6  1  0.25124400  0.82686500  0.84427900  1
  O  O7  1  0.24875600  0.82686500  0.34427900  1
  O  O8  1  0.74486900  0.20940100  0.95763900  1
  O  O9  1  0.75513100  0.20940100  0.45763900  1
  O  O10  1  0.25513100  0.79059900  0.04236100  1
  O  O11  1  0.24486900  0.79059900  0.54236100  1
  O  O12  1  0.62778700  0.94991500  0.09737900  1
  O  O13  1  0.87221300  0.94991500  0.59737900  1
  O  O14  1  0.37221300  0.05008500  0.90262100  1
  O  O15  1  0.12778700  0.05008500  0.40262100  1
  O  O16  1  0.58163600  0.32496500  0.03475300  1
  O  O17  1  0.91836400  0.32496500  0.53475300  1
  O  O18  1  0.41836400  0.67503500  0.96524700  1
  O  O19  1  0.08163600  0.67503500  0.46524700  1
  O  O20  1  0.81298500  0.56089400  0.83535900  1
  O  O21  1  0.68701500  0.56089400  0.33535900  1
  O  O22  1  0.18701500  0.43910600  0.16464100  1
  O  O23  1  0.31298500  0.43910600  0.66464100  1
  O  O24  1  0.92602900  0.27330800  0.85686600  1
  O  O25  1  0.57397100  0.27330800  0.35686600  1
  O  O26  1  0.07397100  0.72669200  0.14313400  1
  O  O27  1  0.42602900  0.72669200  0.64313400  1
  O  O28  1  0.76286300  0.54862400  0.10176900  1
  O  O29  1  0.73713700  0.54862400  0.60176900  1
  O  O30  1  0.23713700  0.45137600  0.89823100  1
  O  O31  1  0.26286300  0.45137600  0.39823100  1
  O  O32  1  0.90935500  0.30778700  0.22723200  1
  O  O33  1  0.59064500  0.30778700  0.72723200  1
  O  O34  1  0.09064500  0.69221300  0.77276800  1
  O  O35  1  0.40935500  0.69221300  0.27276800  1
  O  O36  1  0.69165900  0.85348700  0.38304500  1
  O  O37  1  0.80834100  0.85348700  0.88304500  1
  O  O38  1  0.30834100  0.14651300  0.61695500  1
  O  O39  1  0.19165900  0.14651300  0.11695500  1
  O  O40  1  0.65600200  0.76520200  0.82312800  1
  O  O41  1  0.84399800  0.76520200  0.32312800  1
  O  O42  1  0.34399800  0.23479800  0.17687200  1
  O  O43  1  0.15600200  0.23479800  0.67687200  1
loop_
_geom_bond_atom_site_label_1
_geom_bond_atom_site_label_2
_geom_bond_distance
_geom_bond_site_symmetry_2
Ba0 O12 2.633163 1_555
Ba0 O35 2.692223 1_555
Ba0 O28 2.721351 1_555
Ba0 O18 2.799072 1_554
Ba0 O25 2.833290 1_555
Ba0 O16 2.865451 1_555
Ba0 O21 2.914620 1_555
Ba1 O13 2.633163 1_555
Ba1 O34 2.692223 1_655
Ba1 O29 2.721351 1_555
Ba1 O19 2.799072 1_655
Ba1 O24 2.833290 1_555
Ba1 O17 2.865451 1_555
Ba1 O20 2.914620 1_555
Ba2 O14 2.633163 1_555
Ba2 O33 2.692223 1_555
Ba2 O30 2.721351 1_555
Ba2 O16 2.799072 1_556
Ba2 O27 2.833290 1_555
Ba2 O18 2.865451 1_555
Ba2 O23 2.914620 1_555
Ba3 O15 2.633163 1_555
Ba3 O32 2.692223 1_455
Ba3 O31 2.721351 1_555
Ba3 O17 2.799072 1_455
Ba3 O26 2.833290 1_555
Ba3 O19 2.865451 1_555
Ba3 O22 2.914620 1_555
N0 O37 1.179177 1_555
N0 O40 1.186376 1_555
N0 O20 1.751212 1_555
N1 O36 1.179177 1_555
N1 O41 1.186376 1_555
N1 O21 1.751212 1_555
N2 O39 1.179177 1_555
N2 O42 1.186376 1_555
N2 O22 1.751212 1_555
N3 O38 1.179177 1_555
N3 O43 1.186376 1_555
N3 O23 1.751212 1_555
O0 P4 1.582741 1_554
O0 P8 1.663750 1_555
O1 P5 1.582741 1_555
O1 P9 1.663750 1_555
O2 P6 1.582741 1_556
O2 P10 1.663750 1_555
O3 P7 1.582741 1_555
O3 P11 1.663750 1_555
O4 P0 1.622584 1_555
O4 P8 1.650076 1_555
O5 P1 1.622584 1_555
O5 P9 1.650076 1_555
O6 P2 1.622584 1_555
O6 P10 1.650076 1_555
O7 P3 1.622584 1_555
O7 P11 1.650076 1_555
O8 P4 1.592794 1_555
O8 P0 1.650023 1_556
O9 P5 1.592794 1_555
O9 P1 1.650023 1_555
O10 P6 1.592794 1_555
O10 P2 1.650023 1_554
O11 P7 1.592794 1_555
O11 P3 1.650023 1_555
O12 P0 1.483890 1_565
O13 P1 1.483890 1_565
O14 P2 1.483890 1_545
O15 P3 1.483890 1_545
O16 P0 1.510544 1_555
O17 P1 1.510544 1_555
O18 P2 1.510544 1_555
O19 P3 1.510544 1_555
O20 P4 1.582188 1_555
O21 P5 1.582188 1_555
O22 P6 1.582188 1_555
O23 P7 1.582188 1_555
O24 P4 1.483383 1_555
O25 P5 1.483383 1_555
O26 P6 1.483383 1_555
O27 P7 1.483383 1_555
O28 P8 1.494144 1_555
O29 P9 1.494144 1_555
O30 P10 1.494144 1_555
O31 P11 1.494144 1_555
O32 P8 1.484039 1_555
O33 P9 1.484039 1_555
O34 P10 1.484039 1_555
O35 P11 1.484039 1_555
