# generated using pymatgen
data_Li9Co7O16
_symmetry_space_group_name_H-M   'P 1'
_cell_length_a   5.08070500
_cell_length_b   7.65129120
_cell_length_c   7.73559266
_cell_angle_alpha   82.49253641
_cell_angle_beta   84.17768985
_cell_angle_gamma   71.70506132
_symmetry_Int_Tables_number   1
_chemical_formula_structural   Li9Co7O16
_chemical_formula_sum   'Li9 Co7 O16'
_cell_volume   282.48162852
_cell_formula_units_Z   1
loop_
 _symmetry_equiv_pos_site_id
 _symmetry_equiv_pos_as_xyz
  1  'x, y, z'
loop_
 _atom_site_type_symbol
 _atom_site_label
 _atom_site_symmetry_multiplicity
 _atom_site_fract_x
 _atom_site_fract_y
 _atom_site_fract_z
 _atom_site_occupancy
  Li  Li0  1  0.49661600  0.56243600  0.81574600  1
  Li  Li1  1  0.49329100  0.81579600  0.06167500  1
  Li  Li2  1  0.50338400  0.43756400  0.18425400  1
  Li  Li3  1  0.49589800  0.69224000  0.43815700  1
  Li  Li4  1  0.50410200  0.30776000  0.56184300  1
  Li  Li5  1  0.50670900  0.18420400  0.93832500  1
  Li  Li6  1  0.49160100  0.05977300  0.31584600  1
  Li  Li7  1  0.50839900  0.94022700  0.68415400  1
  Li  Li8  1  0.00000000  0.00000000  0.50000000  1
  Co  Co0  1  0.99351900  0.62773800  0.62281200  1
  Co  Co1  1  0.00648100  0.37226200  0.37718800  1
  Co  Co2  1  0.00129500  0.87545100  0.86982500  1
  Co  Co3  1  0.99870500  0.12454900  0.13017500  1
  Co  Co4  1  0.00000000  0.50000000  0.00000000  1
  Co  Co5  1  0.00171900  0.75727500  0.25412100  1
  Co  Co6  1  0.99828100  0.24272500  0.74587900  1
  O  O0  1  0.78335300  0.46820100  0.58306900  1
  O  O1  1  0.76842100  0.71134600  0.83053500  1
  O  O2  1  0.76837700  0.34626100  0.97020300  1
  O  O3  1  0.78388200  0.57995100  0.22950800  1
  O  O4  1  0.78161300  0.23021300  0.33488500  1
  O  O5  1  0.76126400  0.10159200  0.72323800  1
  O  O6  1  0.76680900  0.96151400  0.08960300  1
  O  O7  1  0.77207200  0.82168900  0.47897700  1
  O  O8  1  0.23162300  0.65373900  0.02979700  1
  O  O9  1  0.23873600  0.89840800  0.27676200  1
  O  O10  1  0.21664700  0.53179900  0.41693100  1
  O  O11  1  0.21838700  0.76978700  0.66511500  1
  O  O12  1  0.21611800  0.42004900  0.77049200  1
  O  O13  1  0.23157900  0.28865400  0.16946500  1
  O  O14  1  0.22792800  0.17831100  0.52102300  1
  O  O15  1  0.23319100  0.03848600  0.91039700  1
loop_
_geom_bond_atom_site_label_1
_geom_bond_atom_site_label_2
_geom_bond_distance
_geom_bond_site_symmetry_2
Li0 O1 2.066928 1_555
Li0 O8 2.074096 1_556
Li0 O11 2.077528 1_555
Li0 O2 2.110522 1_555
Li0 O12 2.125100 1_555
Li0 O0 2.242653 1_555
Li1 O9 2.040961 1_555
Li1 O6 2.077857 1_555
Li1 O15 2.097148 1_564
Li1 O8 2.132387 1_555
Li1 O1 2.225891 1_554
Li1 O3 2.285975 1_555
Li2 O13 2.066928 1_555
Li2 O2 2.074096 1_554
Li2 O4 2.077528 1_555
Li2 O8 2.110522 1_555
Li2 O3 2.125100 1_555
Li2 O10 2.242653 1_555
Li3 O7 2.023288 1_555
Li3 O9 2.067981 1_555
Li3 O3 2.139642 1_555
Li3 O0 2.141564 1_555
Li3 O11 2.160347 1_555
Li3 O10 2.177218 1_555
Li4 O14 2.023288 1_555
Li4 O5 2.067981 1_555
Li4 O12 2.139642 1_555
Li4 O10 2.141564 1_555
Li4 O4 2.160347 1_555
Li4 O0 2.177218 1_555
Li5 O5 2.040961 1_555
Li5 O15 2.077857 1_555
Li5 O6 2.097148 1_546
Li5 O2 2.132387 1_555
Li5 O13 2.225891 1_556
Li5 O12 2.285975 1_555
Li6 O14 2.078052 1_555
Li6 O13 2.104082 1_555
Li6 O9 2.106774 1_545
Li6 O6 2.184174 1_545
Li6 O7 2.252969 1_545
Li6 O4 2.279038 1_555
Li7 O7 2.078052 1_555
Li7 O1 2.104082 1_555
Li7 O5 2.106774 1_565
Li7 O15 2.184174 1_565
Li7 O14 2.252969 1_565
Li7 O11 2.279038 1_555
Li8 O14 2.077719 1_555
Li8 O7 2.077719 1_445
Li8 O5 2.095572 1_455
Li8 O9 2.095572 1_545
Li8 O4 2.106601 1_455
Li8 O11 2.106601 1_545
Co0 O7 1.865566 1_555
Co0 O11 1.882018 1_655
Co0 O0 1.925536 1_555
Co0 O1 1.932776 1_555
Co0 O12 1.941335 1_655
Co0 O10 1.943488 1_655
Co1 O14 1.865566 1_555
Co1 O4 1.882018 1_455
Co1 O10 1.925536 1_555
Co1 O13 1.932776 1_555
Co1 O3 1.941335 1_455
Co1 O0 1.943488 1_455
Co2 O11 1.948887 1_555
Co2 O6 2.032832 1_456
Co2 O15 2.035377 1_565
Co2 O1 2.043082 1_455
Co2 O5 2.051829 1_465
Co2 O8 2.068198 1_556
Co3 O4 1.948887 1_555
Co3 O15 2.032832 1_654
Co3 O6 2.035377 1_545
Co3 O13 2.043082 1_655
Co3 O9 2.051829 1_645
Co3 O2 2.068198 1_554
Co4 O8 1.953625 1_555
Co4 O2 1.953625 1_454
Co4 O12 2.049010 1_554
Co4 O3 2.049010 1_455
Co4 O1 2.069362 1_454
Co4 O13 2.069362 1_555
Co5 O9 1.885600 1_555
Co5 O7 2.020143 1_455
Co5 O6 2.025746 1_455
Co5 O3 2.038373 1_455
Co5 O10 2.069636 1_555
Co5 O8 2.090498 1_555
Co6 O5 1.885600 1_555
Co6 O14 2.020143 1_655
Co6 O15 2.025746 1_655
Co6 O12 2.038373 1_655
Co6 O0 2.069636 1_555
Co6 O2 2.090498 1_555
