# generated using pymatgen
data_BaCr(Si2O5)2
_symmetry_space_group_name_H-M   'P 1'
_cell_length_a   7.64082800
_cell_length_b   7.64082800
_cell_length_c   16.43155800
_cell_angle_alpha   90.00000000
_cell_angle_beta   90.00000000
_cell_angle_gamma   90.00000000
_symmetry_Int_Tables_number   1
_chemical_formula_structural   BaCr(Si2O5)2
_chemical_formula_sum   'Ba4 Cr4 Si16 O40'
_cell_volume   959.31136854
_cell_formula_units_Z   4
loop_
 _symmetry_equiv_pos_site_id
 _symmetry_equiv_pos_as_xyz
  1  'x, y, z'
loop_
 _atom_site_type_symbol
 _atom_site_label
 _atom_site_symmetry_multiplicity
 _atom_site_fract_x
 _atom_site_fract_y
 _atom_site_fract_z
 _atom_site_occupancy
  Ba  Ba0  1  0.50000000  0.50000000  0.50000000  1
  Ba  Ba1  1  0.00000000  0.00000000  0.50000000  1
  Ba  Ba2  1  0.00000000  0.00000000  0.00000000  1
  Ba  Ba3  1  0.50000000  0.50000000  0.00000000  1
  Cr  Cr0  1  0.50000000  0.00000000  0.59433100  1
  Cr  Cr1  1  0.00000000  0.50000000  0.90566900  1
  Cr  Cr2  1  0.00000000  0.50000000  0.40566900  1
  Cr  Cr3  1  0.50000000  0.00000000  0.09433100  1
  Si  Si0  1  0.18218100  0.26718400  0.65513000  1
  Si  Si1  1  0.81781900  0.73281600  0.65513000  1
  Si  Si2  1  0.26718400  0.18218100  0.84487000  1
  Si  Si3  1  0.76718400  0.31781900  0.65513000  1
  Si  Si4  1  0.23281600  0.68218100  0.65513000  1
  Si  Si5  1  0.31781900  0.76718400  0.84487000  1
  Si  Si6  1  0.68218100  0.23281600  0.84487000  1
  Si  Si7  1  0.73281600  0.81781900  0.84487000  1
  Si  Si8  1  0.31781900  0.23281600  0.34487000  1
  Si  Si9  1  0.68218100  0.76718400  0.34487000  1
  Si  Si10  1  0.23281600  0.31781900  0.15513000  1
  Si  Si11  1  0.73281600  0.18218100  0.34487000  1
  Si  Si12  1  0.26718400  0.81781900  0.34487000  1
  Si  Si13  1  0.18218100  0.73281600  0.15513000  1
  Si  Si14  1  0.81781900  0.26718400  0.15513000  1
  Si  Si15  1  0.76718400  0.68218100  0.15513000  1
  O  O0  1  0.27087400  0.13602200  0.59118900  1
  O  O1  1  0.72912600  0.86397800  0.59118900  1
  O  O2  1  0.13602200  0.27087400  0.90881100  1
  O  O3  1  0.63602200  0.22912600  0.59118900  1
  O  O4  1  0.36397800  0.77087400  0.59118900  1
  O  O5  1  0.22912600  0.63602200  0.90881100  1
  O  O6  1  0.77087400  0.36397800  0.90881100  1
  O  O7  1  0.86397800  0.72912600  0.90881100  1
  O  O8  1  0.22912600  0.36397800  0.40881100  1
  O  O9  1  0.77087400  0.63602200  0.40881100  1
  O  O10  1  0.36397800  0.22912600  0.09118900  1
  O  O11  1  0.86397800  0.27087400  0.40881100  1
  O  O12  1  0.13602200  0.72912600  0.40881100  1
  O  O13  1  0.27087400  0.86397800  0.09118900  1
  O  O14  1  0.72912600  0.13602200  0.09118900  1
  O  O15  1  0.25434100  0.03029600  0.36225000  1
  O  O16  1  0.63602200  0.77087400  0.09118900  1
  O  O17  1  0.75434100  0.53029600  0.63775000  1
  O  O18  1  0.46970400  0.24565900  0.86225000  1
  O  O19  1  0.96970400  0.25434100  0.63775000  1
  O  O20  1  0.03029600  0.74565900  0.63775000  1
  O  O21  1  0.25434100  0.96970400  0.86225000  1
  O  O22  1  0.74565900  0.03029600  0.86225000  1
  O  O23  1  0.53029600  0.75434100  0.86225000  1
  O  O24  1  0.72084700  0.72084700  0.25000000  1
  O  O25  1  0.77915300  0.22084700  0.25000000  1
  O  O26  1  0.22084700  0.77915300  0.25000000  1
  O  O27  1  0.27915300  0.27915300  0.25000000  1
  O  O28  1  0.77915300  0.77915300  0.75000000  1
  O  O29  1  0.72084700  0.27915300  0.75000000  1
  O  O30  1  0.27915300  0.72084700  0.75000000  1
  O  O31  1  0.22084700  0.22084700  0.75000000  1
  O  O32  1  0.96970400  0.74565900  0.13775000  1
  O  O33  1  0.75434100  0.46970400  0.13775000  1
  O  O34  1  0.24565900  0.53029600  0.13775000  1
  O  O35  1  0.46970400  0.75434100  0.36225000  1
  O  O36  1  0.53029600  0.24565900  0.36225000  1
  O  O37  1  0.03029600  0.25434100  0.13775000  1
  O  O38  1  0.74565900  0.96970400  0.36225000  1
  O  O39  1  0.24565900  0.46970400  0.63775000  1
loop_
_geom_bond_atom_site_label_1
_geom_bond_atom_site_label_2
_geom_bond_distance
_geom_bond_site_symmetry_2
Ba0 O4 2.758439 1_555
Ba0 O3 2.758439 1_555
Ba0 O8 2.758439 1_555
Ba0 O9 2.758439 1_555
Ba0 O35 2.992238 1_555
Ba0 O36 2.992238 1_555
Ba0 O39 2.992238 1_555
Ba0 O17 2.992238 1_555
Ba1 O1 2.758439 1_445
Ba1 O0 2.758439 1_555
Ba1 O12 2.758439 1_545
Ba1 O11 2.758439 1_455
Ba1 O15 2.992238 1_555
Ba1 O38 2.992238 1_445
Ba1 O19 2.992238 1_455
Ba1 O20 2.992238 1_545
Ba2 O7 2.758439 1_444
Ba2 O2 2.758439 1_554
Ba2 O14 2.758439 1_455
Ba2 O13 2.758439 1_545
Ba2 O32 2.992238 1_445
Ba2 O37 2.992238 1_555
Ba2 O21 2.992238 1_544
Ba2 O22 2.992238 1_454
Ba3 O5 2.758439 1_554
Ba3 O6 2.758439 1_554
Ba3 O16 2.758439 1_555
Ba3 O10 2.758439 1_555
Ba3 O34 2.992238 1_555
Ba3 O33 2.992238 1_555
Ba3 O23 2.992238 1_554
Ba3 O18 2.992238 1_554
Cr0 O3 2.036626 1_555
Cr0 O0 2.036626 1_555
Cr0 O4 2.036626 1_545
Cr0 O1 2.036626 1_545
Cr1 O2 2.036626 1_555
Cr1 O5 2.036626 1_555
Cr1 O7 2.036626 1_455
Cr1 O6 2.036626 1_455
Cr2 O8 2.036626 1_555
Cr2 O11 2.036626 1_455
Cr2 O9 2.036626 1_455
Cr2 O12 2.036626 1_555
Cr3 O10 2.036626 1_555
Cr3 O13 2.036626 1_545
Cr3 O16 2.036626 1_545
Cr3 O14 2.036626 1_555
O0 Si0 1.602343 1_555
O1 Si1 1.602343 1_555
O2 Si2 1.602343 1_555
O3 Si3 1.602343 1_555
O4 Si4 1.602343 1_555
O5 Si5 1.602343 1_555
O6 Si6 1.602343 1_555
O7 Si7 1.602343 1_555
O8 Si8 1.602343 1_555
O9 Si9 1.602343 1_555
O10 Si10 1.602343 1_555
O11 Si11 1.602343 1_555
O12 Si12 1.602343 1_555
O13 Si13 1.602343 1_555
O14 Si14 1.602343 1_555
O15 Si8 1.646607 1_555
O15 Si12 1.651345 1_545
O16 Si15 1.602343 1_555
O17 Si1 1.646607 1_555
O17 Si3 1.651345 1_555
O18 Si2 1.646607 1_555
O18 Si6 1.651345 1_555
O19 Si3 1.646607 1_555
O19 Si0 1.651345 1_655
O20 Si4 1.646607 1_555
O20 Si1 1.651345 1_455
O21 Si5 1.646607 1_555
O21 Si2 1.651345 1_565
O22 Si6 1.646607 1_555
O22 Si7 1.651345 1_545
O23 Si7 1.646607 1_555
O23 Si5 1.651345 1_555
O24 Si15 1.625635 1_555
O24 Si9 1.625635 1_555
O25 Si14 1.625635 1_555
O25 Si11 1.625635 1_555
O26 Si13 1.625635 1_555
O26 Si12 1.625635 1_555
O27 Si8 1.625635 1_555
O27 Si10 1.625635 1_555
O28 Si7 1.625635 1_555
O28 Si1 1.625635 1_555
O29 Si6 1.625635 1_555
O29 Si3 1.625635 1_555
O30 Si5 1.625635 1_555
O30 Si4 1.625635 1_555
O31 Si0 1.625635 1_555
O31 Si2 1.625635 1_555
O32 Si15 1.646607 1_555
O32 Si13 1.651345 1_655
O33 Si14 1.646607 1_555
O33 Si15 1.651345 1_555
O34 Si13 1.646607 1_555
O34 Si10 1.651345 1_555
O35 Si12 1.646607 1_555
O35 Si9 1.651345 1_555
O36 Si11 1.646607 1_555
O36 Si8 1.651345 1_555
O37 Si10 1.646607 1_555
O37 Si14 1.651345 1_455
O38 Si9 1.646607 1_555
O38 Si11 1.651345 1_565
O39 Si0 1.646607 1_555
O39 Si4 1.651345 1_555
