# generated using pymatgen
data_B2F3
_symmetry_space_group_name_H-M   'P 1'
_cell_length_a   7.50429636
_cell_length_b   25.10894418
_cell_length_c   26.10623810
_cell_angle_alpha   106.73374050
_cell_angle_beta   90.00000000
_cell_angle_gamma   90.00000000
_symmetry_Int_Tables_number   1
_chemical_formula_structural   B2F3
_chemical_formula_sum   'B128 F192'
_cell_volume   4710.75963199
_cell_formula_units_Z   64
loop_
 _symmetry_equiv_pos_site_id
 _symmetry_equiv_pos_as_xyz
  1  'x, y, z'
loop_
 _atom_site_type_symbol
 _atom_site_label
 _atom_site_symmetry_multiplicity
 _atom_site_fract_x
 _atom_site_fract_y
 _atom_site_fract_z
 _atom_site_occupancy
  B  B0  1  0.17621310  0.68574375  0.39314268  1
  B  B1  1  0.17621310  0.31425625  0.10685732  1
  B  B2  1  0.82378690  0.31425625  0.60685732  1
  B  B3  1  0.82378690  0.68574375  0.89314268  1
  B  B4  1  0.39502406  0.66203110  0.36517135  1
  B  B5  1  0.39502406  0.33796890  0.13482865  1
  B  B6  1  0.60497594  0.33796890  0.63482865  1
  B  B7  1  0.60497594  0.66203110  0.86517135  1
  B  B8  1  0.38819273  0.58980843  0.33171192  1
  B  B9  1  0.38819273  0.41019157  0.16828808  1
  B  B10  1  0.61180727  0.41019157  0.66828808  1
  B  B11  1  0.61180727  0.58980843  0.83171192  1
  B  B12  1  0.25620690  0.64538658  0.31416085  1
  B  B13  1  0.25620690  0.35461342  0.18583915  1
  B  B14  1  0.74379310  0.35461342  0.68583915  1
  B  B15  1  0.74379310  0.64538658  0.81416085  1
  B  B16  1  0.49134404  0.63768039  0.41398109  1
  B  B17  1  0.49134404  0.36231961  0.08601891  1
  B  B18  1  0.50865596  0.36231961  0.58601891  1
  B  B19  1  0.50865596  0.63768039  0.91398109  1
  B  B20  1  0.53775611  0.71264386  0.35915723  1
  B  B21  1  0.53775611  0.28735614  0.14084277  1
  B  B22  1  0.46224389  0.28735614  0.64084277  1
  B  B23  1  0.46224389  0.71264386  0.85915723  1
  B  B24  1  0.11702314  0.59133316  0.28187207  1
  B  B25  1  0.11702314  0.40866684  0.21812793  1
  B  B26  1  0.88297686  0.40866684  0.71812793  1
  B  B27  1  0.88297686  0.59133316  0.78187207  1
  B  B28  1  0.23569119  0.69274151  0.27866180  1
  B  B29  1  0.23569119  0.30725849  0.22133820  1
  B  B30  1  0.76430881  0.30725849  0.72133820  1
  B  B31  1  0.76430881  0.69274151  0.77866180  1
  B  B32  1  0.20918448  0.41330903  0.96211459  1
  B  B33  1  0.20918448  0.58669097  0.53788541  1
  B  B34  1  0.79081552  0.58669097  0.03788541  1
  B  B35  1  0.79081552  0.41330903  0.46211459  1
  B  B36  1  0.22794025  0.40699841  0.89165473  1
  B  B37  1  0.22794025  0.59300159  0.60834527  1
  B  B38  1  0.77205975  0.59300159  0.10834527  1
  B  B39  1  0.77205975  0.40699841  0.39165473  1
  B  B40  1  0.41440648  0.44089007  0.87517572  1
  B  B41  1  0.41440648  0.55910993  0.62482428  1
  B  B42  1  0.58559352  0.55910993  0.12482428  1
  B  B43  1  0.58559352  0.44089007  0.37517572  1
  B  B44  1  0.41633704  0.37971661  0.90598103  1
  B  B45  1  0.41633704  0.62028339  0.59401897  1
  B  B46  1  0.58366296  0.62028339  0.09401897  1
  B  B47  1  0.58366296  0.37971661  0.40598103  1
  B  B48  1  0.13068181  0.46975885  0.89137921  1
  B  B49  1  0.13068181  0.53024115  0.60862079  1
  B  B50  1  0.86931819  0.53024115  0.10862079  1
  B  B51  1  0.86931819  0.46975885  0.39137921  1
  B  B52  1  0.09818032  0.35718234  0.85029251  1
  B  B53  1  0.09818032  0.64281766  0.64970749  1
  B  B54  1  0.90181968  0.64281766  0.14970749  1
  B  B55  1  0.90181968  0.35718234  0.35029251  1
  B  B56  1  0.62419126  0.40336814  0.92985474  1
  B  B57  1  0.62419126  0.59663186  0.57014526  1
  B  B58  1  0.37580874  0.59663186  0.07014526  1
  B  B59  1  0.37580874  0.40336814  0.42985474  1
  B  B60  1  0.41234048  0.30873765  0.89279844  1
  B  B61  1  0.41234048  0.69126235  0.60720156  1
  B  B62  1  0.58765952  0.69126235  0.10720156  1
  B  B63  1  0.58765952  0.30873765  0.39279844  1
  B  B64  1  0.09269477  0.86365408  0.04362979  1
  B  B65  1  0.09269477  0.13634592  0.45637021  1
  B  B66  1  0.90730523  0.13634592  0.95637021  1
  B  B67  1  0.90730523  0.86365408  0.54362979  1
  B  B68  1  0.31516807  0.85142907  0.06767545  1
  B  B69  1  0.31516807  0.14857093  0.43232455  1
  B  B70  1  0.68483193  0.14857093  0.93232455  1
  B  B71  1  0.68483193  0.85142907  0.56767545  1
  B  B72  1  0.31847733  0.86784369  0.13883883  1
  B  B73  1  0.31847733  0.13215631  0.36116117  1
  B  B74  1  0.68152267  0.13215631  0.86116117  1
  B  B75  1  0.68152267  0.86784369  0.63883883  1
  B  B76  1  0.17097431  0.81542487  0.09214072  1
  B  B77  1  0.17097431  0.18457513  0.40785928  1
  B  B78  1  0.82902569  0.18457513  0.90785928  1
  B  B79  1  0.82902569  0.81542487  0.59214072  1
  B  B80  1  0.41286700  0.91679678  0.08287758  1
  B  B81  1  0.41286700  0.08320322  0.41712242  1
  B  B82  1  0.58713300  0.08320322  0.91712242  1
  B  B83  1  0.58713300  0.91679678  0.58287758  1
  B  B84  1  0.45095098  0.80994055  0.01979623  1
  B  B85  1  0.45095098  0.19005945  0.48020377  1
  B  B86  1  0.54904902  0.19005945  0.98020377  1
  B  B87  1  0.54904902  0.80994055  0.51979623  1
  B  B88  1  0.02532887  0.82477005  0.14517172  1
  B  B89  1  0.02532887  0.17522995  0.35482828  1
  B  B90  1  0.97467113  0.17522995  0.85482828  1
  B  B91  1  0.97467113  0.82477005  0.64517172  1
  B  B92  1  0.14776941  0.74741330  0.05568342  1
  B  B93  1  0.14776941  0.25258670  0.44431658  1
  B  B94  1  0.85223059  0.25258670  0.94431658  1
  B  B95  1  0.85223059  0.74741330  0.55568342  1
  B  B96  1  0.15046506  0.85817515  0.84761425  1
  B  B97  1  0.15046506  0.14182485  0.65238575  1
  B  B98  1  0.84953494  0.14182485  0.15238575  1
  B  B99  1  0.84953494  0.85817515  0.34761425  1
  B  B100  1  0.36533912  0.89095511  0.84896055  1
  B  B101  1  0.36533912  0.10904489  0.65103945  1
  B  B102  1  0.63466088  0.10904489  0.15103945  1
  B  B103  1  0.63466088  0.89095511  0.34896055  1
  B  B104  1  0.37779470  0.93228716  0.80510484  1
  B  B105  1  0.37779470  0.06771284  0.69489516  1
  B  B106  1  0.62220530  0.06771284  0.19489516  1
  B  B107  1  0.62220530  0.93228716  0.30510484  1
  B  B108  1  0.22419703  0.94403825  0.86737560  1
  B  B109  1  0.22419703  0.05596175  0.63262440  1
  B  B110  1  0.77580297  0.05596175  0.13262440  1
  B  B111  1  0.77580297  0.94403825  0.36737560  1
  B  B112  1  0.45796676  0.84374863  0.79320912  1
  B  B113  1  0.45796676  0.15625137  0.70679088  1
  B  B114  1  0.54203324  0.15625137  0.20679088  1
  B  B115  1  0.54203324  0.84374863  0.29320912  1
  B  B116  1  0.50319586  0.88843282  0.90016628  1
  B  B117  1  0.50319586  0.11156718  0.59983372  1
  B  B118  1  0.49680414  0.11156718  0.09983372  1
  B  B119  1  0.49680414  0.88843282  0.40016628  1
  B  B120  1  0.08435467  0.97966479  0.83614579  1
  B  B121  1  0.08435467  0.02033521  0.66385421  1
  B  B122  1  0.91564533  0.02033521  0.16385421  1
  B  B123  1  0.91564533  0.97966479  0.33614579  1
  B  B124  1  0.19504613  0.96818772  0.93528763  1
  B  B125  1  0.19504613  0.03181228  0.56471237  1
  B  B126  1  0.80495387  0.03181228  0.06471237  1
  B  B127  1  0.80495387  0.96818772  0.43528763  1
  F  F0  1  0.06311510  0.65287079  0.40828522  1
  F  F1  1  0.06311510  0.34712921  0.09171478  1
  F  F2  1  0.93688490  0.34712921  0.59171478  1
  F  F3  1  0.93688490  0.65287079  0.90828522  1
  F  F4  1  0.15145658  0.74026184  0.40915428  1
  F  F5  1  0.15145658  0.25973816  0.09084572  1
  F  F6  1  0.84854342  0.25973816  0.59084572  1
  F  F7  1  0.84854342  0.74026184  0.90915428  1
  F  F8  1  0.29663411  0.55426941  0.35273632  1
  F  F9  1  0.29663411  0.44573059  0.14726368  1
  F  F10  1  0.70336589  0.44573059  0.64726368  1
  F  F11  1  0.70336589  0.55426941  0.85273632  1
  F  F12  1  0.52003871  0.56829814  0.29709803  1
  F  F13  1  0.52003871  0.43170186  0.20290197  1
  F  F14  1  0.47996129  0.43170186  0.70290197  1
  F  F15  1  0.47996129  0.56829814  0.79709803  1
  F  F16  1  0.40730895  0.64542100  0.46076588  1
  F  F17  1  0.40730895  0.35457900  0.03923412  1
  F  F18  1  0.59269105  0.35457900  0.53923412  1
  F  F19  1  0.59269105  0.64542100  0.96076588  1
  F  F20  1  0.65801757  0.61918152  0.41080590  1
  F  F21  1  0.65801757  0.38081848  0.08919410  1
  F  F22  1  0.34198243  0.38081848  0.58919410  1
  F  F23  1  0.34198243  0.61918152  0.91080590  1
  F  F24  1  0.47849032  0.76336954  0.35955902  1
  F  F25  1  0.47849032  0.23663046  0.14044098  1
  F  F26  1  0.52150968  0.23663046  0.64044098  1
  F  F27  1  0.52150968  0.76336954  0.85955902  1
  F  F28  1  0.71196555  0.70372819  0.35123132  1
  F  F29  1  0.71196555  0.29627181  0.14876868  1
  F  F30  1  0.28803445  0.29627181  0.64876868  1
  F  F31  1  0.28803445  0.70372819  0.85123132  1
  F  F32  1  0.95054180  0.58993054  0.29853112  1
  F  F33  1  0.95054180  0.41006946  0.20146888  1
  F  F34  1  0.04945820  0.41006946  0.70146888  1
  F  F35  1  0.04945820  0.58993054  0.79853112  1
  F  F36  1  0.16756890  0.55446981  0.23654079  1
  F  F37  1  0.16756890  0.44553019  0.26345921  1
  F  F38  1  0.83243110  0.44553019  0.76345921  1
  F  F39  1  0.83243110  0.55446981  0.73654079  1
  F  F40  1  0.11594066  0.73347409  0.29130152  1
  F  F41  1  0.11594066  0.26652591  0.20869848  1
  F  F42  1  0.88405934  0.26652591  0.70869848  1
  F  F43  1  0.88405934  0.73347409  0.79130152  1
  F  F44  1  0.34169070  0.68915431  0.23673991  1
  F  F45  1  0.34169070  0.31084569  0.26326009  1
  F  F46  1  0.65830930  0.31084569  0.76326009  1
  F  F47  1  0.65830930  0.68915431  0.73673991  1
  F  F48  1  0.28611593  0.45342829  0.00019044  1
  F  F49  1  0.28611593  0.54657171  0.49980956  1
  F  F50  1  0.71388407  0.54657171  0.99980956  1
  F  F51  1  0.71388407  0.45342829  0.50019044  1
  F  F52  1  0.08314721  0.38290028  0.97510266  1
  F  F53  1  0.08314721  0.61709972  0.52489734  1
  F  F54  1  0.91685279  0.61709972  0.02489734  1
  F  F55  1  0.91685279  0.38290028  0.47510266  1
  F  F56  1  0.47512746  0.49018623  0.90720940  1
  F  F57  1  0.47512746  0.50981377  0.59279060  1
  F  F58  1  0.52487254  0.50981377  0.09279060  1
  F  F59  1  0.52487254  0.49018623  0.40720940  1
  F  F60  1  0.46538577  0.42613274  0.82379895  1
  F  F61  1  0.46538577  0.57386726  0.67620105  1
  F  F62  1  0.53461423  0.57386726  0.17620105  1
  F  F63  1  0.53461423  0.42613274  0.32379895  1
  F  F64  1  0.05524091  0.50103970  0.93628896  1
  F  F65  1  0.05524091  0.49896030  0.56371104  1
  F  F66  1  0.94475909  0.49896030  0.06371104  1
  F  F67  1  0.94475909  0.50103970  0.43628896  1
  F  F68  1  0.10555319  0.48434427  0.84703774  1
  F  F69  1  0.10555319  0.51565573  0.65296226  1
  F  F70  1  0.89444681  0.51565573  0.15296226  1
  F  F71  1  0.89444681  0.48434427  0.34703774  1
  F  F72  1  0.05470156  0.31037191  0.86234391  1
  F  F73  1  0.05470156  0.68962809  0.63765609  1
  F  F74  1  0.94529844  0.68962809  0.13765609  1
  F  F75  1  0.94529844  0.31037191  0.36234391  1
  F  F76  1  0.04200782  0.36065101  0.80269341  1
  F  F77  1  0.04200782  0.63934899  0.69730659  1
  F  F78  1  0.95799218  0.63934899  0.19730659  1
  F  F79  1  0.95799218  0.36065101  0.30269341  1
  F  F80  1  0.65757705  0.42071824  0.98206383  1
  F  F81  1  0.65757705  0.57928176  0.51793617  1
  F  F82  1  0.34242295  0.57928176  0.01793617  1
  F  F83  1  0.34242295  0.42071824  0.48206383  1
  F  F84  1  0.76238074  0.40071146  0.89668547  1
  F  F85  1  0.76238074  0.59928854  0.60331453  1
  F  F86  1  0.23761926  0.59928854  0.10331453  1
  F  F87  1  0.23761926  0.40071146  0.39668547  1
  F  F88  1  0.35435890  0.28321403  0.92794465  1
  F  F89  1  0.35435890  0.71678597  0.57205535  1
  F  F90  1  0.64564110  0.71678597  0.07205535  1
  F  F91  1  0.64564110  0.28321403  0.42794465  1
  F  F92  1  0.99734917  0.90776761  0.06969936  1
  F  F93  1  0.99734917  0.09223239  0.43030064  1
  F  F94  1  0.00265083  0.09223239  0.93030064  1
  F  F95  1  0.00265083  0.90776761  0.56969936  1
  F  F96  1  0.05043209  0.83693596  0.99401592  1
  F  F97  1  0.05043209  0.16306404  0.50598408  1
  F  F98  1  0.94956791  0.16306404  0.00598408  1
  F  F99  1  0.94956791  0.83693596  0.49401592  1
  F  F100  1  0.24129303  0.91464907  0.17049802  1
  F  F101  1  0.24129303  0.08535093  0.32950198  1
  F  F102  1  0.75870697  0.08535093  0.82950198  1
  F  F103  1  0.75870697  0.91464907  0.67049802  1
  F  F104  1  0.44855300  0.84469663  0.16050087  1
  F  F105  1  0.44855300  0.15530337  0.33949913  1
  F  F106  1  0.55144700  0.15530337  0.83949913  1
  F  F107  1  0.55144700  0.84469663  0.66050087  1
  F  F108  1  0.33073309  0.95863193  0.07060775  1
  F  F109  1  0.33073309  0.04136807  0.42939225  1
  F  F110  1  0.66926691  0.04136807  0.92939225  1
  F  F111  1  0.66926691  0.95863193  0.57060775  1
  F  F112  1  0.58066970  0.92452543  0.09943240  1
  F  F113  1  0.58066970  0.07547457  0.40056760  1
  F  F114  1  0.41933030  0.07547457  0.90056760  1
  F  F115  1  0.41933030  0.92452543  0.59943240  1
  F  F116  1  0.38508658  0.76689434  0.98081038  1
  F  F117  1  0.38508658  0.23310566  0.51918962  1
  F  F118  1  0.61491342  0.23310566  0.01918962  1
  F  F119  1  0.61491342  0.76689434  0.48081038  1
  F  F120  1  0.62702546  0.81662434  0.01957144  1
  F  F121  1  0.62702546  0.18337566  0.48042856  1
  F  F122  1  0.37297454  0.18337566  0.98042856  1
  F  F123  1  0.37297454  0.81662434  0.51957144  1
  F  F124  1  0.85840010  0.83940749  0.13865713  1
  F  F125  1  0.85840010  0.16059251  0.36134287  1
  F  F126  1  0.14159990  0.16059251  0.86134287  1
  F  F127  1  0.14159990  0.83940749  0.63865713  1
  F  F128  1  0.06629280  0.81154794  0.18947108  1
  F  F129  1  0.06629280  0.18845206  0.31052892  1
  F  F130  1  0.93370720  0.18845206  0.81052892  1
  F  F131  1  0.93370720  0.81154794  0.68947108  1
  F  F132  1  0.02027945  0.73051031  0.01935834  1
  F  F133  1  0.02027945  0.26948969  0.48064166  1
  F  F134  1  0.97972055  0.26948969  0.98064166  1
  F  F135  1  0.97972055  0.73051031  0.51935834  1
  F  F136  1  0.25555689  0.70806093  0.06420635  1
  F  F137  1  0.25555689  0.29193907  0.43579365  1
  F  F138  1  0.74444311  0.29193907  0.93579365  1
  F  F139  1  0.74444311  0.70806093  0.56420635  1
  F  F140  1  0.03277169  0.85195879  0.80872743  1
  F  F141  1  0.03277169  0.14804121  0.69127257  1
  F  F142  1  0.96722831  0.14804121  0.19127257  1
  F  F143  1  0.96722831  0.85195879  0.30872743  1
  F  F144  1  0.12962314  0.83009227  0.88310907  1
  F  F145  1  0.12962314  0.16990773  0.61689093  1
  F  F146  1  0.87037686  0.16990773  0.11689093  1
  F  F147  1  0.87037686  0.83009227  0.38310907  1
  F  F148  1  0.29377567  0.91849489  0.75705937  1
  F  F149  1  0.29377567  0.08150511  0.74294063  1
  F  F150  1  0.70622433  0.08150511  0.24294063  1
  F  F151  1  0.70622433  0.91849489  0.25705937  1
  F  F152  1  0.51069244  0.96945280  0.81215513  1
  F  F153  1  0.51069244  0.03054720  0.68784487  1
  F  F154  1  0.48930756  0.03054720  0.18784487  1
  F  F155  1  0.48930756  0.96945280  0.31215513  1
  F  F156  1  0.36260256  0.79976388  0.76584400  1
  F  F157  1  0.36260256  0.20023612  0.73415600  1
  F  F158  1  0.63739744  0.20023612  0.23415600  1
  F  F159  1  0.63739744  0.79976388  0.26584400  1
  F  F160  1  0.62946250  0.84480859  0.78140180  1
  F  F161  1  0.62946250  0.15519141  0.71859820  1
  F  F162  1  0.37053750  0.15519141  0.21859820  1
  F  F163  1  0.37053750  0.84480859  0.28140180  1
  F  F164  1  0.43613437  0.88512665  0.94715302  1
  F  F165  1  0.43613437  0.11487335  0.55284698  1
  F  F166  1  0.56386563  0.11487335  0.05284698  1
  F  F167  1  0.56386563  0.88512665  0.44715302  1
  F  F168  1  0.67986658  0.89138223  0.89758643  1
  F  F169  1  0.67986658  0.10861777  0.60241357  1
  F  F170  1  0.32013342  0.10861777  0.10241357  1
  F  F171  1  0.32013342  0.89138223  0.39758643  1
  F  F172  1  0.91415118  0.96449901  0.82983898  1
  F  F173  1  0.91415118  0.03550099  0.67016102  1
  F  F174  1  0.08584882  0.03550099  0.17016102  1
  F  F175  1  0.08584882  0.96449901  0.32983898  1
  F  F176  1  0.13376743  0.02435664  0.82200060  1
  F  F177  1  0.13376743  0.97564336  0.67799940  1
  F  F178  1  0.86623257  0.97564336  0.17799940  1
  F  F179  1  0.86623257  0.02435664  0.32200060  1
  F  F180  1  0.06627297  0.94713744  0.95900144  1
  F  F181  1  0.06627297  0.05286256  0.54099856  1
  F  F182  1  0.93372703  0.05286256  0.04099856  1
  F  F183  1  0.93372703  0.94713744  0.45900144  1
  F  F184  1  0.46857040  0.27692431  0.84543291  1
  F  F185  1  0.46857040  0.72307569  0.65456709  1
  F  F186  1  0.53142960  0.72307569  0.15456709  1
  F  F187  1  0.53142960  0.27692431  0.34543291  1
  F  F188  1  0.29742405  0.00773898  0.96678785  1
  F  F189  1  0.29742405  0.99226102  0.53321215  1
  F  F190  1  0.70257595  0.99226102  0.03321215  1
  F  F191  1  0.70257595  0.00773898  0.46678785  1
loop_
_geom_bond_atom_site_label_1
_geom_bond_atom_site_label_2
_geom_bond_distance
_geom_bond_site_symmetry_2
B0 F0 1.321284 1_555
B0 F4 1.324237 1_555
B0 B4 1.825816 1_555
B0 B12 2.106067 1_555
B1 F1 1.321284 1_555
B1 F5 1.324237 1_555
B1 B5 1.825816 1_555
B1 B13 2.106067 1_555
B2 F2 1.321284 1_555
B2 F6 1.324237 1_555
B2 B6 1.825816 1_555
B3 F3 1.321284 1_555
B3 F7 1.324237 1_555
B3 B7 1.825816 1_555
B4 B8 1.772572 1_555
B5 B9 1.772572 1_555
B8 F12 1.343934 1_555
B8 F8 1.360758 1_555
B9 F13 1.343934 1_555
B9 F9 1.360758 1_555
B10 F14 1.343934 1_555
B10 F10 1.360758 1_555
B10 B6 1.772572 1_555
B10 B14 1.872592 1_555
B11 F15 1.343934 1_555
B11 F11 1.360758 1_555
B11 B7 1.772572 1_555
B11 B15 1.872592 1_555
B12 B4 1.647049 1_555
B12 B28 1.711989 1_555
B12 B24 1.727637 1_555
B12 B8 1.872592 1_555
B13 B5 1.647049 1_555
B13 B29 1.711989 1_555
B13 B25 1.727637 1_555
B13 B9 1.872592 1_555
B14 B6 1.647049 1_555
B14 B30 1.711989 1_555
B14 B26 1.727637 1_555
B14 B2 2.106067 1_555
B15 B7 1.647049 1_555
B15 B31 1.711989 1_555
B15 B27 1.727637 1_555
B15 B3 2.106067 1_555
B16 F20 1.328483 1_555
B16 F16 1.338104 1_555
B16 B4 1.722969 1_555
B17 F21 1.328483 1_555
B17 F17 1.338104 1_555
B17 B5 1.722969 1_555
B18 F22 1.328483 1_555
B18 F18 1.338104 1_555
B18 B6 1.722969 1_555
B19 F23 1.328483 1_555
B19 F19 1.338104 1_555
B19 B7 1.722969 1_555
B20 F28 1.332418 1_555
B20 F24 1.346272 1_555
B20 B4 1.703475 1_555
B21 F29 1.332418 1_555
B21 F25 1.346272 1_555
B21 B5 1.703475 1_555
B22 F30 1.332418 1_555
B22 F26 1.346272 1_555
B22 B6 1.703475 1_555
B23 F31 1.332418 1_555
B23 F27 1.346272 1_555
B23 B7 1.703475 1_555
B24 F32 1.326656 1_455
B24 F36 1.330542 1_555
B25 F33 1.326656 1_455
B25 F37 1.330542 1_555
B26 F34 1.326656 1_655
B26 F38 1.330542 1_555
B27 F35 1.326656 1_655
B27 F39 1.330542 1_555
B28 F40 1.329709 1_555
B28 F44 1.334861 1_555
B29 F41 1.329709 1_555
B29 F45 1.334861 1_555
B30 F42 1.329709 1_555
B30 F46 1.334861 1_555
B31 F43 1.329709 1_555
B31 F47 1.334861 1_555
B32 F52 1.319700 1_555
B32 F48 1.326465 1_556
B32 B36 1.805720 1_555
B32 B44 2.136292 1_555
B33 F53 1.319700 1_555
B33 F49 1.326465 1_555
B33 B37 1.805720 1_555
B33 B45 2.136292 1_555
B34 F54 1.319700 1_555
B34 F50 1.326465 1_554
B34 B38 1.805720 1_555
B34 B46 2.136292 1_555
B35 F55 1.319700 1_555
B35 F51 1.326465 1_555
B35 B39 1.805720 1_555
B35 B47 2.136292 1_555
B36 B44 1.659955 1_555
B36 B52 1.703230 1_555
B36 B48 1.738553 1_555
B36 B40 1.754452 1_555
B37 B45 1.659955 1_555
B37 B53 1.703230 1_555
B37 B49 1.738553 1_555
B37 B41 1.754452 1_555
B38 B46 1.659955 1_555
B38 B54 1.703230 1_555
B38 B50 1.738553 1_555
B38 B42 1.754452 1_555
B39 B47 1.659955 1_555
B39 B55 1.703230 1_555
B39 B51 1.738553 1_555
B39 B43 1.754452 1_555
B40 F60 1.340309 1_555
B40 F56 1.357574 1_555
B40 B44 1.928106 1_555
B41 F61 1.340309 1_555
B41 F57 1.357574 1_555
B41 B45 1.928106 1_555
B42 F62 1.340309 1_555
B42 F58 1.357574 1_555
B42 B46 1.928106 1_555
B43 F63 1.340309 1_555
B43 F59 1.357574 1_555
B43 B47 1.928106 1_555
B44 B60 1.715344 1_555
B44 B56 1.720743 1_555
B45 B61 1.715344 1_555
B45 B57 1.720743 1_555
B46 B62 1.715344 1_555
B46 B58 1.720743 1_555
B47 B63 1.715344 1_555
B47 B59 1.720743 1_555
B48 F68 1.324317 1_555
B48 F64 1.334806 1_555
B49 F69 1.324317 1_555
B49 F65 1.334806 1_555
B50 F70 1.324317 1_555
B50 F66 1.334806 1_555
B51 F71 1.324317 1_555
B51 F67 1.334806 1_555
B52 F76 1.338558 1_555
B52 F72 1.341587 1_555
B53 F77 1.338558 1_555
B53 F73 1.341587 1_555
B54 F78 1.338558 1_555
B54 F74 1.341587 1_555
B55 F79 1.338558 1_555
B55 F75 1.341587 1_555
B56 F80 1.329794 1_555
B56 F84 1.340303 1_555
B57 F81 1.329794 1_555
B57 F85 1.340303 1_555
B58 F82 1.329794 1_555
B58 F86 1.340303 1_555
B59 F83 1.329794 1_555
B59 F87 1.340303 1_555
B60 F184 1.332803 1_555
B60 F88 1.334361 1_555
B61 F185 1.332803 1_555
B61 F89 1.334361 1_555
B62 F186 1.332803 1_555
B62 F90 1.334361 1_555
B63 F187 1.332803 1_555
B63 F91 1.334361 1_555
B64 F96 1.314496 1_554
B64 F92 1.329627 1_455
B64 B68 1.840242 1_555
B64 B76 2.073299 1_555
B65 F97 1.314496 1_555
B65 F93 1.329627 1_455
B65 B69 1.840242 1_555
B65 B77 2.073299 1_555
B66 F98 1.314496 1_556
B66 F94 1.329627 1_655
B66 B70 1.840242 1_555
B66 B78 2.073299 1_555
B67 F99 1.314496 1_555
B67 F95 1.329627 1_655
B67 B71 1.840242 1_555
B67 B79 2.073299 1_555
B68 B76 1.651840 1_555
B68 B84 1.713483 1_555
B68 B80 1.736042 1_555
B68 B72 1.783538 1_555
B69 B77 1.651840 1_555
B69 B85 1.713483 1_555
B69 B81 1.736042 1_555
B69 B73 1.783538 1_555
B70 B78 1.651840 1_555
B70 B86 1.713483 1_555
B70 B82 1.736042 1_555
B70 B74 1.783538 1_555
B71 B79 1.651840 1_555
B71 B87 1.713483 1_555
B71 B83 1.736042 1_555
B71 B75 1.783538 1_555
B72 F104 1.341525 1_555
B72 F100 1.356624 1_555
B72 B76 1.876118 1_555
B73 F105 1.341525 1_555
B73 F101 1.356624 1_555
B73 B77 1.876118 1_555
B74 F106 1.341525 1_555
B74 F102 1.356624 1_555
B74 B78 1.876118 1_555
B75 F107 1.341525 1_555
B75 F103 1.356624 1_555
B75 B79 1.876118 1_555
B76 B92 1.707767 1_555
B76 B88 1.726048 1_555
B77 B93 1.707767 1_555
B77 B89 1.726048 1_555
B78 B94 1.707767 1_555
B78 B90 1.726048 1_555
B79 B95 1.707767 1_555
B79 B91 1.726048 1_555
B80 F112 1.327341 1_555
B80 F108 1.334045 1_555
B81 F113 1.327341 1_555
B81 F109 1.334045 1_555
B82 F114 1.327341 1_555
B82 F110 1.334045 1_555
B83 F115 1.327341 1_555
B83 F111 1.334045 1_555
B84 F120 1.332156 1_555
B84 F116 1.347190 1_554
B85 F121 1.332156 1_555
B85 F117 1.347190 1_555
B86 F122 1.332156 1_555
B86 F118 1.347190 1_556
B87 F123 1.332156 1_555
B87 F119 1.347190 1_555
B88 F128 1.327886 1_555
B88 F124 1.330117 1_455
B89 F129 1.327886 1_555
B89 F125 1.330117 1_455
B90 F130 1.327886 1_555
B90 F126 1.330117 1_655
B91 F131 1.327886 1_555
B91 F127 1.330117 1_655
B92 F132 1.327770 1_555
B92 F136 1.344140 1_555
B93 F133 1.327770 1_555
B93 F137 1.344140 1_555
B94 F134 1.327770 1_555
B94 F138 1.344140 1_555
B95 F135 1.327770 1_555
B95 F139 1.344140 1_555
B96 F140 1.320521 1_555
B96 F144 1.325363 1_555
B97 F141 1.320521 1_555
B97 F145 1.325363 1_555
B98 F142 1.320521 1_555
B98 F146 1.325363 1_555
B99 F143 1.320521 1_555
B99 F147 1.325363 1_555
B100 B108 1.661474 1_555
B100 B116 1.705871 1_555
B100 B112 1.735814 1_555
B100 B104 1.755222 1_555
B100 B96 1.806131 1_555
B101 B109 1.661474 1_555
B101 B117 1.705871 1_555
B101 B113 1.735814 1_555
B101 B105 1.755222 1_555
B101 B97 1.806131 1_555
B102 B110 1.661474 1_555
B102 B118 1.705871 1_555
B102 B114 1.735814 1_555
B102 B106 1.755222 1_555
B102 B98 1.806131 1_555
B103 B111 1.661474 1_555
B103 B119 1.705871 1_555
B103 B115 1.735814 1_555
B103 B107 1.755222 1_555
B103 B99 1.806131 1_555
B104 F152 1.341800 1_555
B104 F148 1.356675 1_555
B104 B108 1.944784 1_555
B105 F153 1.341800 1_555
B105 F149 1.356675 1_555
B105 B109 1.944784 1_555
B106 F154 1.341800 1_555
B106 F150 1.356675 1_555
B106 B110 1.944784 1_555
B107 F155 1.341800 1_555
B107 F151 1.356675 1_555
B107 B111 1.944784 1_555
B108 B124 1.714568 1_555
B108 B120 1.728053 1_555
B108 B96 2.140060 1_555
B109 B125 1.714568 1_555
B109 B121 1.728053 1_555
B109 B97 2.140060 1_555
B110 B126 1.714568 1_555
B110 B122 1.728053 1_555
B110 B98 2.140060 1_555
B111 B127 1.714568 1_555
B111 B123 1.728053 1_555
B111 B99 2.140060 1_555
B112 F160 1.325406 1_555
B112 F156 1.337121 1_555
B113 F161 1.325406 1_555
B113 F157 1.337121 1_555
B114 F162 1.325406 1_555
B114 F158 1.337121 1_555
B115 F163 1.325406 1_555
B115 F159 1.337121 1_555
B116 F168 1.330643 1_555
B116 F164 1.350353 1_555
B117 F169 1.330643 1_555
B117 F165 1.350353 1_555
B118 F170 1.330643 1_555
B118 F166 1.350353 1_555
B119 F171 1.330643 1_555
B119 F167 1.350353 1_555
B120 F172 1.329435 1_455
B120 F176 1.331069 1_565
B121 F173 1.329435 1_455
B121 F177 1.331069 1_545
B122 F174 1.329435 1_655
B122 F178 1.331069 1_545
B123 F175 1.329435 1_655
B123 F179 1.331069 1_565
B124 F188 1.335087 1_565
B124 F180 1.335996 1_555
B125 F189 1.335087 1_545
B125 F181 1.335996 1_555
B126 F190 1.335087 1_545
B126 F182 1.335996 1_555
B127 F191 1.335087 1_565
B127 F183 1.335996 1_555
