# generated using pymatgen
data_Na5Sn2
_symmetry_space_group_name_H-M   'P 1'
_cell_length_a   8.04235316
_cell_length_b   8.04235316
_cell_length_c   8.04235284
_cell_angle_alpha   39.25732627
_cell_angle_beta   39.25732627
_cell_angle_gamma   39.25732687
_symmetry_Int_Tables_number   1
_chemical_formula_structural   Na5Sn2
_chemical_formula_sum   'Na5 Sn2'
_cell_volume   187.41796745
_cell_formula_units_Z   1
loop_
 _symmetry_equiv_pos_site_id
 _symmetry_equiv_pos_as_xyz
  1  'x, y, z'
loop_
 _atom_site_type_symbol
 _atom_site_label
 _atom_site_symmetry_multiplicity
 _atom_site_fract_x
 _atom_site_fract_y
 _atom_site_fract_z
 _atom_site_occupancy
  Na  Na0  1  0.50000000  0.50000000  0.50000000  1
  Na  Na1  1  0.64549287  0.64549287  0.64549287  1
  Na  Na2  1  0.35450713  0.35450713  0.35450713  1
  Na  Na3  1  0.78749266  0.78749266  0.78749266  1
  Na  Na4  1  0.21250734  0.21250734  0.21250734  1
  Sn  Sn0  1  0.93304697  0.93304697  0.93304697  1
  Sn  Sn1  1  0.06695303  0.06695303  0.06695303  1
loop_
_geom_bond_atom_site_label_1
_geom_bond_atom_site_label_2
_geom_bond_distance
_geom_bond_site_symmetry_2
Na0 Na1 3.235477 1_555
Na0 Na2 3.235477 1_555
Na0 Na4 3.281887 1_556
Na0 Na3 3.281887 1_554
Na0 Na4 3.281887 1_655
Na0 Na3 3.281887 1_455
Na0 Na3 3.281887 1_545
Na0 Na4 3.281887 1_565
Na1 Sn0 3.281463 1_554
Na1 Sn0 3.281463 1_455
Na1 Sn0 3.281463 1_545
Na2 Sn1 3.281463 1_556
Na2 Sn1 3.281463 1_655
Na2 Sn1 3.281463 1_565
Na3 Sn0 3.236843 1_555
Na3 Sn1 3.341686 1_665
Na3 Sn1 3.341687 1_566
Na3 Sn1 3.341687 1_656
Na4 Sn1 3.236843 1_555
Na4 Sn0 3.341686 1_445
Na4 Sn0 3.341687 1_544
Na4 Sn0 3.341687 1_454
