# generated using pymatgen
data_Ca(CoO2)4
_symmetry_space_group_name_H-M   'P 1'
_cell_length_a   6.34891879
_cell_length_b   6.34890359
_cell_length_c   6.34890359
_cell_angle_alpha   52.19473184
_cell_angle_beta   52.19471288
_cell_angle_gamma   52.19479803
_symmetry_Int_Tables_number   1
_chemical_formula_structural   Ca(CoO2)4
_chemical_formula_sum   'Ca1 Co4 O8'
_cell_volume   147.77119962
_cell_formula_units_Z   1
loop_
 _symmetry_equiv_pos_site_id
 _symmetry_equiv_pos_as_xyz
  1  'x, y, z'
loop_
 _atom_site_type_symbol
 _atom_site_label
 _atom_site_symmetry_multiplicity
 _atom_site_fract_x
 _atom_site_fract_y
 _atom_site_fract_z
 _atom_site_occupancy
  Ca  Ca0  1  0.50000000  0.50000000  0.50000000  1
  Co  Co0  1  0.00000000  0.50000000  0.50000000  1
  Co  Co1  1  0.50000000  -0.00000000  0.50000000  1
  Co  Co2  1  0.50000000  0.50000000  -0.00000000  1
  Co  Co3  1  0.00000000  -0.00000000  -0.00000000  1
  O  O0  1  0.27409219  0.77333585  0.77333585  1
  O  O1  1  0.22667079  0.22665628  0.72591333  1
  O  O2  1  0.72590781  0.22666415  0.22666415  1
  O  O3  1  0.22667079  0.72591333  0.22665528  1
  O  O4  1  0.27680750  0.27680144  0.27680144  1
  O  O5  1  0.72319250  0.72319856  0.72319856  1
  O  O6  1  0.77332921  0.27408667  0.77334472  1
  O  O7  1  0.77332921  0.77334372  0.27408667  1
loop_
_geom_bond_atom_site_label_1
_geom_bond_atom_site_label_2
_geom_bond_distance
_geom_bond_site_symmetry_2
Ca0 O1 2.381057 1_555
Ca0 O7 2.381057 1_555
Ca0 O2 2.381058 1_555
Ca0 O0 2.381058 1_555
Ca0 O3 2.381065 1_555
Ca0 O6 2.381065 1_555
Co0 O4 1.860186 1_555
Co0 O5 1.860186 1_455
Co0 O6 1.886036 1_455
Co0 O3 1.886036 1_555
Co0 O7 1.886039 1_455
Co0 O1 1.886039 1_555
Co1 O5 1.860163 1_545
Co1 O4 1.860163 1_555
Co1 O7 1.885976 1_545
Co1 O1 1.885976 1_555
Co1 O0 1.885986 1_545
Co1 O2 1.885986 1_555
Co2 O4 1.860160 1_555
Co2 O5 1.860160 1_554
Co2 O6 1.885972 1_554
Co2 O3 1.885972 1_555
Co2 O0 1.885988 1_554
Co2 O2 1.885988 1_555
Co3 O6 1.889105 1_454
Co3 O3 1.889105 1_545
Co3 O7 1.889106 1_445
Co3 O1 1.889106 1_554
Co3 O0 1.889111 1_544
Co3 O2 1.889111 1_455
