# generated using pymatgen
data_Li2V3O6
_symmetry_space_group_name_H-M   'P 1'
_cell_length_a   5.17270990
_cell_length_b   5.17243775
_cell_length_c   10.07193759
_cell_angle_alpha   95.46785142
_cell_angle_beta   95.47400110
_cell_angle_gamma   120.31584053
_symmetry_Int_Tables_number   1
_chemical_formula_structural   Li2V3O6
_chemical_formula_sum   'Li4 V6 O12'
_cell_volume   228.32040550
_cell_formula_units_Z   2
loop_
 _symmetry_equiv_pos_site_id
 _symmetry_equiv_pos_as_xyz
  1  'x, y, z'
loop_
 _atom_site_type_symbol
 _atom_site_label
 _atom_site_symmetry_multiplicity
 _atom_site_fract_x
 _atom_site_fract_y
 _atom_site_fract_z
 _atom_site_occupancy
  Li  Li0  1  0.16410100  0.82684200  0.50026500  1
  Li  Li1  1  0.67321100  0.33592600  0.99973300  1
  Li  Li2  1  0.33235000  0.67435300  0.00002000  1
  Li  Li3  1  0.82565000  0.16755700  0.49999000  1
  V  V0  1  0.25044300  0.24971800  0.75000300  1
  V  V1  1  0.58761700  0.91237200  0.74993200  1
  V  V2  1  0.91463600  0.58545800  0.74994500  1
  V  V3  1  0.74990600  0.75000700  0.25001600  1
  V  V4  1  0.08495100  0.41493600  0.25003900  1
  V  V5  1  0.41485000  0.08505600  0.25006000  1
  O  O0  1  0.40262100  0.40296400  0.14178200  1
  O  O1  1  0.88907800  0.87539500  0.64133700  1
  O  O2  1  0.09694300  0.09726200  0.35827100  1
  O  O3  1  0.62471900  0.61108500  0.85860800  1
  O  O4  1  0.03765600  0.69994700  0.14177300  1
  O  O5  1  0.54998600  0.20638300  0.64185200  1
  O  O6  1  0.69934500  0.03722600  0.14124900  1
  O  O7  1  0.19106500  0.54558000  0.64111900  1
  O  O8  1  0.79996600  0.46223200  0.35827100  1
  O  O9  1  0.29366400  0.95005400  0.85813000  1
  O  O10  1  0.46269900  0.80055900  0.35880000  1
  O  O11  1  0.95454300  0.30908900  0.85880500  1
loop_
_geom_bond_atom_site_label_1
_geom_bond_atom_site_label_2
_geom_bond_distance
_geom_bond_site_symmetry_2
Li0 O8 2.129739 1_455
Li0 O7 2.170019 1_555
Li0 O1 2.187257 1_455
Li0 O5 2.199852 1_565
Li0 O2 2.213468 1_565
Li0 O10 2.242592 1_555
Li1 O4 2.129432 1_656
Li1 O11 2.170770 1_555
Li1 O3 2.187883 1_555
Li1 O9 2.199913 1_545
Li1 O0 2.214444 1_556
Li1 O6 2.242918 1_556
Li2 O6 2.128136 1_565
Li2 O11 2.154486 1_454
Li2 O9 2.176675 1_554
Li2 O0 2.222463 1_555
Li2 O4 2.227680 1_555
Li2 O3 2.290118 1_554
Li3 O10 2.128094 1_545
Li3 O7 2.154787 1_655
Li3 O5 2.176757 1_555
Li3 O2 2.222004 1_655
Li3 O8 2.227350 1_555
Li3 O1 2.288998 1_545
O0 V3 1.906762 1_555
O0 V4 2.079558 1_555
O0 V5 2.081072 1_555
O1 V2 1.987038 1_555
O1 V0 1.998209 1_665
O1 V1 2.061834 1_555
O2 V3 1.906769 1_445
O2 V4 2.079296 1_555
O2 V5 2.080789 1_555
O3 V2 1.987593 1_555
O3 V0 1.997883 1_555
O3 V1 2.061659 1_555
O4 V4 2.010410 1_555
O4 V3 2.028786 1_455
O4 V5 2.054424 1_565
O5 V2 2.013797 1_555
O5 V1 2.027185 1_545
O5 V0 2.064869 1_555
O6 V5 2.012833 1_555
O6 V3 2.030598 1_545
O6 V4 2.058414 1_655
O7 V2 1.960157 1_455
O7 V1 2.062581 1_555
O7 V0 2.090219 1_555
O8 V4 2.010253 1_655
O8 V3 2.028807 1_555
O8 V5 2.054137 1_555
O9 V2 2.013913 1_455
O9 V1 2.027917 1_555
O9 V0 2.064840 1_565
O10 V5 2.012294 1_565
O10 V3 2.030788 1_555
O10 V4 2.058430 1_555
O11 V2 1.960016 1_555
O11 V1 2.063449 1_545
O11 V0 2.090056 1_655
