# generated using pymatgen
data_H2O
_symmetry_space_group_name_H-M   'P 1'
_cell_length_a   5.63314800
_cell_length_b   6.15202019
_cell_length_c   10.36386312
_cell_angle_alpha   84.15791649
_cell_angle_beta   76.47291154
_cell_angle_gamma   75.01806800
_symmetry_Int_Tables_number   1
_chemical_formula_structural   H2O
_chemical_formula_sum   'H24 O12'
_cell_volume   337.00203406
_cell_formula_units_Z   12
loop_
 _symmetry_equiv_pos_site_id
 _symmetry_equiv_pos_as_xyz
  1  'x, y, z'
loop_
 _atom_site_type_symbol
 _atom_site_label
 _atom_site_symmetry_multiplicity
 _atom_site_fract_x
 _atom_site_fract_y
 _atom_site_fract_z
 _atom_site_occupancy
  H  H0  1  0.67055400  0.69506200  0.04253400  1
  H  H1  1  0.95922000  0.08406000  0.37863900  1
  H  H2  1  0.52816000  0.51613700  0.12247000  1
  H  H3  1  0.32944600  0.30493800  0.95746600  1
  H  H4  1  0.04078000  0.91594000  0.62136100  1
  H  H5  1  0.47184000  0.48386300  0.87753000  1
  H  H6  1  0.49147600  0.74629100  0.30318600  1
  H  H7  1  0.05614500  0.79343400  0.64214900  1
  H  H8  1  0.18512000  0.13558100  0.16017800  1
  H  H9  1  0.50852400  0.25370900  0.69681400  1
  H  H10  1  0.94385500  0.20656600  0.35785100  1
  H  H11  1  0.81488000  0.86441900  0.83982200  1
  H  H12  1  0.66793400  0.15270700  0.26749800  1
  H  H13  1  0.97756800  0.32864400  0.67034900  1
  H  H14  1  0.75989700  0.04013100  0.94428600  1
  H  H15  1  0.33206600  0.84729300  0.73250200  1
  H  H16  1  0.02243200  0.67135600  0.32965100  1
  H  H17  1  0.24010300  0.95986900  0.05571400  1
  H  H18  1  0.62027200  0.53924700  0.60781300  1
  H  H19  1  0.56692800  0.23928600  0.54138600  1
  H  H20  1  0.99169700  0.26148200  0.81482900  1
  H  H21  1  0.37972800  0.46075300  0.39218700  1
  H  H22  1  0.43307200  0.76071400  0.45861400  1
  H  H23  1  0.00830300  0.73851800  0.18517100  1
  O  O0  1  0.49340600  0.22947300  0.26222800  1
  O  O1  1  0.36864400  0.72431800  0.38502600  1
  O  O2  1  0.07131400  0.33851200  0.73665100  1
  O  O3  1  0.50659400  0.77052700  0.73777200  1
  O  O4  1  0.63135600  0.27568200  0.61497400  1
  O  O5  1  0.92868600  0.66148800  0.26334900  1
  O  O6  1  0.49101700  0.32286000  0.90093500  1
  O  O7  1  0.86774300  0.89125900  0.91856800  1
  O  O8  1  0.38471600  0.29285800  0.40021700  1
  O  O9  1  0.50898300  0.67714000  0.09906500  1
  O  O10  1  0.13225700  0.10874100  0.08143200  1
  O  O11  1  0.61528400  0.70714200  0.59978300  1
loop_
_geom_bond_atom_site_label_1
_geom_bond_atom_site_label_2
_geom_bond_distance
_geom_bond_site_symmetry_2
H0 O9 0.986443 1_555
H1 H10 0.750901 1_555
H2 O9 0.979598 1_555
H3 O6 0.986443 1_555
H4 H7 0.750901 1_555
H5 O6 0.979598 1_555
H6 O1 0.983320 1_555
H8 O10 0.973923 1_555
H9 O4 0.983320 1_555
H11 O7 0.973923 1_555
H12 O0 0.986102 1_555
H13 O2 0.974448 1_655
H14 O7 0.982441 1_545
H15 O3 0.986102 1_555
H16 O5 0.974448 1_455
H17 O10 0.982441 1_565
H18 O11 1.021359 1_555
H18 O4 1.601205 1_555
H19 O4 0.984766 1_555
H20 O2 0.971553 1_655
H21 O8 1.021359 1_555
H21 O1 1.601205 1_555
H22 O1 0.984766 1_555
H23 O5 0.971553 1_455
