# generated using pymatgen
data_Ba2GaAsSe5
_symmetry_space_group_name_H-M   'P 1'
_cell_length_a   9.14495600
_cell_length_b   9.38916200
_cell_length_c   12.79951600
_cell_angle_alpha   90.00000000
_cell_angle_beta   90.00000000
_cell_angle_gamma   90.00000000
_symmetry_Int_Tables_number   1
_chemical_formula_structural   Ba2GaAsSe5
_chemical_formula_sum   'Ba8 Ga4 As4 Se20'
_cell_volume   1099.01090117
_cell_formula_units_Z   4
loop_
 _symmetry_equiv_pos_site_id
 _symmetry_equiv_pos_as_xyz
  1  'x, y, z'
loop_
 _atom_site_type_symbol
 _atom_site_label
 _atom_site_symmetry_multiplicity
 _atom_site_fract_x
 _atom_site_fract_y
 _atom_site_fract_z
 _atom_site_occupancy
  Ba  Ba0  1  0.99397100  0.13226300  0.67419200  1
  Ba  Ba1  1  0.50602900  0.36773700  0.17419200  1
  Ba  Ba2  1  0.49397100  0.86773700  0.32580800  1
  Ba  Ba3  1  0.00602900  0.63226300  0.82580800  1
  Ba  Ba4  1  0.00602900  0.86773700  0.32580800  1
  Ba  Ba5  1  0.49397100  0.63226300  0.82580800  1
  Ba  Ba6  1  0.50602900  0.13226300  0.67419200  1
  Ba  Ba7  1  0.99397100  0.36773700  0.17419200  1
  Ga  Ga0  1  0.25000000  0.83574600  0.59669300  1
  Ga  Ga1  1  0.25000000  0.66425400  0.09669300  1
  Ga  Ga2  1  0.75000000  0.16425400  0.40330700  1
  Ga  Ga3  1  0.75000000  0.33574600  0.90330700  1
  As  As0  1  0.25000000  0.49456100  0.53566900  1
  As  As1  1  0.25000000  0.00543900  0.03566900  1
  As  As2  1  0.75000000  0.50543900  0.46433100  1
  As  As3  1  0.75000000  0.99456100  0.96433100  1
  Se  Se0  1  0.04714000  0.66994700  0.55693000  1
  Se  Se1  1  0.45286000  0.83005300  0.05693000  1
  Se  Se2  1  0.54714000  0.33005300  0.44307000  1
  Se  Se3  1  0.95286000  0.16994700  0.94307000  1
  Se  Se4  1  0.95286000  0.33005300  0.44307000  1
  Se  Se5  1  0.54714000  0.16994700  0.94307000  1
  Se  Se6  1  0.45286000  0.66994700  0.55693000  1
  Se  Se7  1  0.04714000  0.83005300  0.05693000  1
  Se  Se8  1  0.75000000  0.95833200  0.51203200  1
  Se  Se9  1  0.75000000  0.54166800  0.01203200  1
  Se  Se10  1  0.25000000  0.04166800  0.48796800  1
  Se  Se11  1  0.25000000  0.45833200  0.98796800  1
  Se  Se12  1  0.25000000  0.90088900  0.77839100  1
  Se  Se13  1  0.25000000  0.59911100  0.27839100  1
  Se  Se14  1  0.75000000  0.09911100  0.22160900  1
  Se  Se15  1  0.75000000  0.40088900  0.72160900  1
  Se  Se16  1  0.25000000  0.39791600  0.71261400  1
  Se  Se17  1  0.25000000  0.10208400  0.21261400  1
  Se  Se18  1  0.75000000  0.60208400  0.28738600  1
  Se  Se19  1  0.75000000  0.89791600  0.78738600  1
loop_
_geom_bond_atom_site_label_1
_geom_bond_atom_site_label_2
_geom_bond_distance
_geom_bond_site_symmetry_2
Ba0 Se15 3.421626 1_555
Ba0 Se10 3.447754 1_655
Ba0 Se19 3.452296 1_545
Ba0 Se16 3.456184 1_655
Ba0 Se8 3.457271 1_545
Ba0 Se12 3.461233 1_645
Ba0 Se3 3.480016 1_555
Ba0 Se4 3.513024 1_555
Ba1 Se14 3.421626 1_555
Ba1 Se11 3.447754 1_554
Ba1 Se18 3.452296 1_555
Ba1 Se17 3.456184 1_555
Ba1 Se9 3.457271 1_555
Ba1 Se13 3.461233 1_555
Ba1 Se2 3.480016 1_555
Ba1 Se5 3.513024 1_554
Ba2 Se13 3.421626 1_555
Ba2 Se8 3.447754 1_555
Ba2 Se17 3.452296 1_565
Ba2 Se18 3.456184 1_555
Ba2 Se10 3.457271 1_565
Ba2 Se14 3.461233 1_565
Ba2 Se1 3.480016 1_555
Ba2 Se6 3.513024 1_555
Ba3 Se12 3.421626 1_555
Ba3 Se9 3.447754 1_456
Ba3 Se16 3.452296 1_555
Ba3 Se19 3.456184 1_455
Ba3 Se11 3.457271 1_555
Ba3 Se15 3.461233 1_455
Ba3 Se0 3.480016 1_555
Ba3 Se7 3.513024 1_556
Ba4 Se13 3.421626 1_555
Ba4 Se8 3.447754 1_455
Ba4 Se17 3.452296 1_565
Ba4 Se18 3.456184 1_455
Ba4 Se10 3.457271 1_565
Ba4 Se14 3.461233 1_465
Ba4 Se7 3.480016 1_555
Ba4 Se0 3.513024 1_555
Ba5 Se12 3.421626 1_555
Ba5 Se9 3.447754 1_556
Ba5 Se16 3.452296 1_555
Ba5 Se19 3.456184 1_555
Ba5 Se11 3.457271 1_555
Ba5 Se15 3.461233 1_555
Ba5 Se6 3.480016 1_555
Ba5 Se1 3.513024 1_556
Ba6 Se15 3.421626 1_555
Ba6 Se10 3.447754 1_555
Ba6 Se19 3.452296 1_545
Ba6 Se16 3.456184 1_555
Ba6 Se8 3.457271 1_545
Ba6 Se12 3.461233 1_545
Ba6 Se5 3.480016 1_555
Ba6 Se2 3.513024 1_555
Ba7 Se14 3.421626 1_555
Ba7 Se11 3.447754 1_654
Ba7 Se18 3.452296 1_555
Ba7 Se17 3.456184 1_655
Ba7 Se9 3.457271 1_555
Ba7 Se13 3.461233 1_655
Ba7 Se4 3.480016 1_555
Ba7 Se3 3.513024 1_554
Ga0 Se10 2.382183 1_565
Ga0 Se12 2.404731 1_555
Ga0 Se0 2.474662 1_555
Ga0 Se6 2.474662 1_555
Ga1 Se11 2.382183 1_554
Ga1 Se13 2.404731 1_555
Ga1 Se7 2.474662 1_555
Ga1 Se1 2.474662 1_555
Ga2 Se8 2.382183 1_545
Ga2 Se14 2.404731 1_555
Ga2 Se2 2.474662 1_555
Ga2 Se4 2.474662 1_555
Ga3 Se9 2.382183 1_556
Ga3 Se15 2.404731 1_555
Ga3 Se5 2.474662 1_555
Ga3 Se3 2.474662 1_555
As0 Se16 2.439830 1_555
As0 Se0 2.495462 1_555
As0 Se6 2.495462 1_555
As1 Se17 2.439830 1_555
As1 Se7 2.495462 1_545
As1 Se1 2.495462 1_545
As2 Se18 2.439830 1_555
As2 Se2 2.495462 1_555
As2 Se4 2.495462 1_555
As3 Se19 2.439830 1_555
As3 Se5 2.495462 1_565
As3 Se3 2.495462 1_565
