# generated using pymatgen
data_Ca2H26I4O13
_symmetry_space_group_name_H-M   'P 1'
_cell_length_a   8.50333300
_cell_length_b   9.35330509
_cell_length_c   17.67133178
_cell_angle_alpha   78.53607804
_cell_angle_beta   76.07822960
_cell_angle_gamma   62.96317561
_symmetry_Int_Tables_number   1
_chemical_formula_structural   Ca2H26I4O13
_chemical_formula_sum   'Ca4 H52 I8 O26'
_cell_volume   1208.59289257
_cell_formula_units_Z   2
loop_
 _symmetry_equiv_pos_site_id
 _symmetry_equiv_pos_as_xyz
  1  'x, y, z'
loop_
 _atom_site_type_symbol
 _atom_site_label
 _atom_site_symmetry_multiplicity
 _atom_site_fract_x
 _atom_site_fract_y
 _atom_site_fract_z
 _atom_site_occupancy
  Ca  Ca0  1  0.59647600  0.36828200  0.84371500  1
  Ca  Ca1  1  0.80847200  0.13171800  0.65628500  1
  Ca  Ca2  1  0.40352400  0.63171800  0.15628500  1
  Ca  Ca3  1  0.19152800  0.86828200  0.34371500  1
  H  H0  1  0.45487200  0.19993000  0.98778700  1
  H  H1  1  0.64258900  0.30007000  0.51221300  1
  H  H2  1  0.54512800  0.80007000  0.01221300  1
  H  H3  1  0.35741100  0.69993000  0.48778700  1
  H  H4  1  0.99695400  0.16648900  0.77496200  1
  H  H5  1  0.93840500  0.33351100  0.72503800  1
  H  H6  1  0.00304600  0.83351100  0.22503800  1
  H  H7  1  0.06159500  0.66648900  0.27496200  1
  H  H8  1  0.92732900  0.25765700  0.92207800  1
  H  H9  1  0.10706400  0.24234300  0.57792200  1
  H  H10  1  0.07267100  0.74234300  0.07792200  1
  H  H11  1  0.89293600  0.75765700  0.42207800  1
  H  H12  1  0.84132300  0.44664800  0.91470200  1
  H  H13  1  0.20267300  0.05335200  0.58529800  1
  H  H14  1  0.15867700  0.55335200  0.08529800  1
  H  H15  1  0.79732700  0.94664800  0.41470200  1
  H  H16  1  0.63335400  0.66416300  0.73154700  1
  H  H17  1  0.02906400  0.83583700  0.76845300  1
  H  H18  1  0.36664600  0.33583700  0.26845300  1
  H  H19  1  0.97093600  0.16416300  0.23154700  1
  H  H20  1  0.38000400  0.70040400  0.89344900  1
  H  H21  1  0.97385600  0.79959600  0.60655100  1
  H  H22  1  0.61999600  0.29959600  0.10655100  1
  H  H23  1  0.02614400  0.20040400  0.39344900  1
  H  H24  1  0.65645800  0.11418800  0.99560600  1
  H  H25  1  0.76625300  0.38581200  0.50439400  1
  H  H26  1  0.34354200  0.88581200  0.00439400  1
  H  H27  1  0.23374700  0.61418800  0.49560600  1
  H  H28  1  0.33073800  0.60481300  0.97141400  1
  H  H29  1  0.90696500  0.89518700  0.52858600  1
  H  H30  1  0.66926200  0.39518700  0.02858600  1
  H  H31  1  0.09303500  0.10481300  0.47141400  1
  H  H32  1  0.19263700  0.47932400  0.87110000  1
  H  H33  1  0.54306000  0.02067600  0.62890000  1
  H  H34  1  0.80736300  0.52067600  0.12890000  1
  H  H35  1  0.45694000  0.97932400  0.37110000  1
  H  H36  1  0.26718400  0.29740500  0.85586500  1
  H  H37  1  0.42045400  0.20259500  0.64413500  1
  H  H38  1  0.73281600  0.70259500  0.14413500  1
  H  H39  1  0.57954600  0.79740500  0.35586500  1
  H  H40  1  0.70978900  0.64775900  0.80776900  1
  H  H41  1  0.16531700  0.85224100  0.69223100  1
  H  H42  1  0.29021100  0.35224100  0.19223100  1
  H  H43  1  0.83468300  0.14775900  0.30776900  1
  H  H44  1  0.55194700  0.50035400  0.66837900  1
  H  H45  1  0.72067900  0.99964600  0.83162100  1
  H  H46  1  0.44805300  0.49964600  0.33162100  1
  H  H47  1  0.27932100  0.00035400  0.16837900  1
  H  H48  1  0.42769400  0.41514500  0.70238600  1
  H  H49  1  0.54522500  0.08485500  0.79761400  1
  H  H50  1  0.57230600  0.58485500  0.29761400  1
  H  H51  1  0.45477500  0.91514500  0.20238600  1
  I  I0  1  0.86641700  0.71509300  0.89909500  1
  I  I1  1  0.48060500  0.78490700  0.60090500  1
  I  I2  1  0.13358300  0.28490700  0.10090500  1
  I  I3  1  0.51939500  0.21509300  0.39909500  1
  I  I4  1  0.23688700  0.03488600  0.86479300  1
  I  I5  1  0.13656600  0.46511400  0.63520700  1
  I  I6  1  0.76311300  0.96511400  0.13520700  1
  I  I7  1  0.86343400  0.53488600  0.36479300  1
  O  O0  1  0.65793600  0.59912900  0.78197600  1
  O  O1  1  0.03904100  0.90087100  0.71802400  1
  O  O2  1  0.34206400  0.40087100  0.21802400  1
  O  O3  1  0.96095900  0.09912900  0.28197600  1
  O  O4  1  0.54686900  0.40593400  0.70425700  1
  O  O5  1  0.65706000  0.09406600  0.79574300  1
  O  O6  1  0.45313100  0.59406600  0.29574300  1
  O  O7  1  0.34294000  0.90593400  0.20425700  1
  O  O8  1  0.89543300  0.25000000  0.75000000  1
  O  O9  1  0.10456700  0.75000000  0.25000000  1
  O  O10  1  0.81034500  0.35360800  0.92551700  1
  O  O11  1  0.08947100  0.14639200  0.57448300  1
  O  O12  1  0.18965500  0.64639200  0.07448300  1
  O  O13  1  0.91052900  0.85360800  0.42551700  1
  O  O14  1  0.40261300  0.59107400  0.91829900  1
  O  O15  1  0.91198600  0.90892600  0.58170100  1
  O  O16  1  0.59738700  0.40892600  0.08170100  1
  O  O17  1  0.08801400  0.09107400  0.41829900  1
  O  O18  1  0.57494700  0.18305200  0.95879400  1
  O  O19  1  0.71679400  0.31694800  0.54120600  1
  O  O20  1  0.42505300  0.81694800  0.04120600  1
  O  O21  1  0.28320600  0.68305200  0.45879400  1
  O  O22  1  0.30230500  0.38584000  0.85244500  1
  O  O23  1  0.54059000  0.11416000  0.64755500  1
  O  O24  1  0.69769500  0.61416000  0.14755500  1
  O  O25  1  0.45941000  0.88584000  0.35244500  1
loop_
_geom_bond_atom_site_label_1
_geom_bond_atom_site_label_2
_geom_bond_distance
_geom_bond_site_symmetry_2
Ca0 O14 2.391705 1_555
Ca0 O22 2.399761 1_555
Ca0 O18 2.424737 1_555
Ca0 O0 2.437338 1_555
Ca0 O10 2.524870 1_555
Ca0 O4 2.528923 1_555
Ca0 O8 2.564096 1_555
Ca0 O5 2.648635 1_555
Ca1 O15 2.391703 1_545
Ca1 O23 2.399752 1_555
Ca1 O19 2.424734 1_555
Ca1 O1 2.437343 1_645
Ca1 O11 2.524884 1_655
Ca1 O5 2.528920 1_555
Ca1 O8 2.564101 1_555
Ca1 O4 2.648632 1_555
Ca2 O16 2.391705 1_555
Ca2 O24 2.399761 1_555
Ca2 O20 2.424737 1_555
Ca2 O2 2.437338 1_555
Ca2 O12 2.524870 1_555
Ca2 O6 2.528923 1_555
Ca2 O9 2.564096 1_555
Ca2 O7 2.648635 1_555
Ca3 O17 2.391703 1_565
Ca3 O25 2.399752 1_555
Ca3 O21 2.424734 1_555
Ca3 O3 2.437343 1_465
Ca3 O13 2.524884 1_455
Ca3 O7 2.528920 1_555
Ca3 O9 2.564101 1_555
Ca3 O6 2.648632 1_555
H0 O18 0.981746 1_555
H1 O19 0.981753 1_555
H2 O20 0.981746 1_555
H3 O21 0.981753 1_555
H4 O8 0.991556 1_555
H5 O8 0.991556 1_555
H6 O9 0.991556 1_555
H7 O9 0.991556 1_555
H8 O10 0.989762 1_555
H9 O11 0.989757 1_555
H10 O12 0.989762 1_555
H11 O13 0.989757 1_555
H12 O10 0.990597 1_555
H13 O11 0.990592 1_555
H14 O12 0.990597 1_555
H15 O13 0.990592 1_555
H16 O0 0.983063 1_555
H17 O1 0.983063 1_555
H18 O2 0.983063 1_555
H19 O3 0.983063 1_555
H20 O14 0.979232 1_555
H21 O15 0.979231 1_555
H22 O16 0.979232 1_555
H23 O17 0.979231 1_555
H24 O18 0.981322 1_555
H25 O19 0.981322 1_555
H26 O20 0.981322 1_555
H27 O21 0.981322 1_555
H28 O14 0.985671 1_555
H29 O15 0.985671 1_555
H30 O16 0.985671 1_555
H31 O17 0.985671 1_555
H32 O22 0.983975 1_555
H33 O23 0.983979 1_555
H34 O24 0.983975 1_555
H35 O25 0.983979 1_555
H36 O22 0.986437 1_555
H37 O23 0.986437 1_555
H38 O24 0.986437 1_555
H39 O25 0.986437 1_555
H40 O0 0.985139 1_555
H41 O1 0.985139 1_555
H42 O2 0.985139 1_555
H43 O3 0.985139 1_555
H44 O4 0.991310 1_555
H45 O5 0.991308 1_565
H46 O6 0.991310 1_555
H47 O7 0.991308 1_545
H48 O4 0.985435 1_555
H49 O5 0.985435 1_555
H50 O6 0.985435 1_555
H51 O7 0.985435 1_555
