# generated using pymatgen
data_LuCuS2
_symmetry_space_group_name_H-M   'P 1'
_cell_length_a   3.82992335
_cell_length_b   3.82998149
_cell_length_c   6.06580551
_cell_angle_alpha   89.99929943
_cell_angle_beta   90.00070181
_cell_angle_gamma   119.99818979
_symmetry_Int_Tables_number   1
_chemical_formula_structural   LuCuS2
_chemical_formula_sum   'Lu1 Cu1 S2'
_cell_volume   77.05730068
_cell_formula_units_Z   1
loop_
 _symmetry_equiv_pos_site_id
 _symmetry_equiv_pos_as_xyz
  1  'x, y, z'
loop_
 _atom_site_type_symbol
 _atom_site_label
 _atom_site_symmetry_multiplicity
 _atom_site_fract_x
 _atom_site_fract_y
 _atom_site_fract_z
 _atom_site_occupancy
  Lu  Lu0  1  0.00001442  0.00000467  0.00286560  1
  Cu  Cu0  1  0.33335012  0.66668689  0.39767660  1
  S  S0  1  0.33334166  0.66666674  0.77342986  1
  S  S1  1  0.66669480  0.33334070  0.26902794  1
loop_
_geom_bond_atom_site_label_1
_geom_bond_atom_site_label_2
_geom_bond_distance
_geom_bond_site_symmetry_2
Lu0 S0 2.612729 1_544
Lu0 S0 2.612761 1_554
Lu0 S0 2.612762 1_444
Lu0 S1 2.737871 1_455
Lu0 S1 2.737928 1_445
Lu0 S1 2.737945 1_555
Cu0 S0 2.279246 1_555
Cu0 S1 2.344863 1_455
Cu0 S1 2.344890 1_565
Cu0 S1 2.344949 1_555
