# generated using pymatgen
data_In3Cu
_symmetry_space_group_name_H-M   'P 1'
_cell_length_a   4.48276700
_cell_length_b   4.48276700
_cell_length_c   4.48276700
_cell_angle_alpha   90.00000000
_cell_angle_beta   90.00000000
_cell_angle_gamma   90.00000000
_symmetry_Int_Tables_number   1
_chemical_formula_structural   In3Cu
_chemical_formula_sum   'In3 Cu1'
_cell_volume   90.08209931
_cell_formula_units_Z   1
loop_
 _symmetry_equiv_pos_site_id
 _symmetry_equiv_pos_as_xyz
  1  'x, y, z'
loop_
 _atom_site_type_symbol
 _atom_site_label
 _atom_site_symmetry_multiplicity
 _atom_site_fract_x
 _atom_site_fract_y
 _atom_site_fract_z
 _atom_site_occupancy
  In  In0  1  0.00000000  0.50000000  0.50000000  1
  In  In1  1  0.50000000  0.00000000  0.50000000  1
  In  In2  1  0.50000000  0.50000000  0.00000000  1
  Cu  Cu0  1  0.00000000  0.00000000  0.00000000  1
loop_
_geom_bond_atom_site_label_1
_geom_bond_atom_site_label_2
_geom_bond_distance
_geom_bond_site_symmetry_2
In0 In1 3.169795 1_455
In0 In2 3.169795 1_456
In0 In2 3.169795 1_455
In0 In1 3.169795 1_555
In0 In1 3.169795 1_565
In0 In2 3.169795 1_556
In0 In2 3.169795 1_555
In0 In1 3.169795 1_465
In1 In2 3.169795 1_546
In1 In2 3.169795 1_545
In1 In2 3.169795 1_556
In1 In2 3.169795 1_555
Cu0 In1 3.169795 1_455
Cu0 In0 3.169795 1_545
Cu0 In1 3.169795 1_454
Cu0 In0 3.169795 1_544
Cu0 In0 3.169795 1_555
Cu0 In2 3.169795 1_455
Cu0 In1 3.169795 1_555
Cu0 In0 3.169795 1_554
Cu0 In2 3.169795 1_545
Cu0 In2 3.169795 1_555
Cu0 In2 3.169795 1_445
Cu0 In1 3.169795 1_554
