# generated using pymatgen
data_Na2Np(CO4)2
_symmetry_space_group_name_H-M   'P 1'
_cell_length_a   6.05538700
_cell_length_b   18.38867200
_cell_length_c   6.90914874
_cell_angle_alpha   90.00000000
_cell_angle_beta   91.64913139
_cell_angle_gamma   90.00000000
_symmetry_Int_Tables_number   1
_chemical_formula_structural   Na2Np(CO4)2
_chemical_formula_sum   'Na8 Np4 C8 O32'
_cell_volume   769.01868585
_cell_formula_units_Z   4
loop_
 _symmetry_equiv_pos_site_id
 _symmetry_equiv_pos_as_xyz
  1  'x, y, z'
loop_
 _atom_site_type_symbol
 _atom_site_label
 _atom_site_symmetry_multiplicity
 _atom_site_fract_x
 _atom_site_fract_y
 _atom_site_fract_z
 _atom_site_occupancy
  Na  Na0  1  0.88256000  0.31911700  0.45826100  1
  Na  Na1  1  0.11744000  0.81911700  0.04173900  1
  Na  Na2  1  0.11744000  0.68088300  0.54173900  1
  Na  Na3  1  0.88256000  0.18088300  0.95826100  1
  Na  Na4  1  0.33691000  0.41382500  0.52207700  1
  Na  Na5  1  0.66309000  0.91382500  0.97792300  1
  Na  Na6  1  0.66309000  0.58617500  0.47792300  1
  Na  Na7  1  0.33691000  0.08617500  0.02207700  1
  Np  Np0  1  0.06056300  0.40760900  0.97891100  1
  Np  Np1  1  0.93943700  0.90760900  0.52108900  1
  Np  Np2  1  0.93943700  0.59239100  0.02108900  1
  Np  Np3  1  0.06056300  0.09239100  0.47891100  1
  C  C0  1  0.55017100  0.32804400  0.95983400  1
  C  C1  1  0.44982900  0.82804400  0.54016600  1
  C  C2  1  0.44982900  0.67195600  0.04016600  1
  C  C3  1  0.55017100  0.17195600  0.45983400  1
  C  C4  1  0.40156500  0.25985800  0.97490700  1
  C  C5  1  0.59843500  0.75985800  0.52509300  1
  C  C6  1  0.59843500  0.74014200  0.02509300  1
  C  C7  1  0.40156500  0.24014200  0.47490700  1
  O  O0  1  0.02069000  0.40152300  0.71462100  1
  O  O1  1  0.97931000  0.90152300  0.78537900  1
  O  O2  1  0.97931000  0.59847700  0.28537900  1
  O  O3  1  0.02069000  0.09847700  0.21462100  1
  O  O4  1  0.11262000  0.39486100  0.23984200  1
  O  O5  1  0.88738000  0.89486100  0.26015800  1
  O  O6  1  0.88738000  0.60513900  0.76015800  1
  O  O7  1  0.11262000  0.10513900  0.73984200  1
  O  O8  1  0.45136900  0.38669400  0.91794400  1
  O  O9  1  0.54863100  0.88669400  0.58205600  1
  O  O10  1  0.54863100  0.61330600  0.08205600  1
  O  O11  1  0.45136900  0.11330600  0.41794400  1
  O  O12  1  0.75684000  0.31889900  0.98903700  1
  O  O13  1  0.24316000  0.81889900  0.51096300  1
  O  O14  1  0.24316000  0.68110100  0.01096300  1
  O  O15  1  0.75684000  0.18110100  0.48903700  1
  O  O16  1  0.19397600  0.27280500  0.96989600  1
  O  O17  1  0.80602400  0.77280500  0.53010400  1
  O  O18  1  0.80602400  0.72719500  0.03010400  1
  O  O19  1  0.19397600  0.22719500  0.46989600  1
  O  O20  1  0.49439900  0.19914900  0.98875500  1
  O  O21  1  0.50560100  0.69914900  0.51124500  1
  O  O22  1  0.50560100  0.80085100  0.01124500  1
  O  O23  1  0.49439900  0.30085100  0.48875500  1
  O  O24  1  0.18558400  0.51986400  0.97595900  1
  O  O25  1  0.81441600  0.01986400  0.52404100  1
  O  O26  1  0.81441600  0.48013600  0.02404100  1
  O  O27  1  0.18558400  0.98013600  0.47596000  1
  O  O28  1  0.66982100  0.46331400  0.44789400  1
  O  O29  1  0.33017900  0.96331400  0.05210600  1
  O  O30  1  0.33017900  0.53668600  0.55210600  1
  O  O31  1  0.66982100  0.03668600  0.94789400  1
loop_
_geom_bond_atom_site_label_1
_geom_bond_atom_site_label_2
_geom_bond_distance
_geom_bond_site_symmetry_2
Na0 O23 2.389644 1_555
Na0 O0 2.459236 1_655
Na0 O4 2.505807 1_655
Na0 O19 2.531988 1_655
Na0 O15 2.659920 1_555
Na0 O28 2.947925 1_555
Na1 O22 2.389644 1_555
Na1 O1 2.459236 1_454
Na1 O5 2.505807 1_455
Na1 O18 2.531988 1_455
Na1 O14 2.659920 1_555
Na1 O29 2.947925 1_555
Na2 O21 2.389644 1_555
Na2 O2 2.459236 1_455
Na2 O6 2.505807 1_455
Na2 O17 2.531988 1_455
Na2 O13 2.659920 1_555
Na2 O30 2.947925 1_555
Na3 O20 2.389644 1_555
Na3 O3 2.459236 1_656
Na3 O7 2.505807 1_655
Na3 O16 2.531988 1_655
Na3 O12 2.659920 1_555
Na3 O31 2.947925 1_555
Na4 O30 2.269231 1_555
Na4 O28 2.283464 1_555
Na4 O23 2.300189 1_555
Na4 O4 2.369871 1_555
Na4 O0 2.373631 1_555
Na4 O8 2.846220 1_555
Na5 O31 2.269231 1_565
Na5 O29 2.283464 1_556
Na5 O22 2.300189 1_556
Na5 O5 2.369871 1_556
Na5 O1 2.373631 1_555
Na5 O9 2.846220 1_555
Na6 O28 2.269231 1_555
Na6 O30 2.283464 1_555
Na6 O21 2.300189 1_555
Na6 O6 2.369871 1_555
Na6 O2 2.373631 1_555
Na6 O10 2.846220 1_555
Na7 O29 2.269231 1_545
Na7 O31 2.283464 1_554
Na7 O20 2.300189 1_554
Na7 O7 2.369871 1_554
Na7 O3 2.373631 1_555
Na7 O11 2.846220 1_555
Np0 O4 1.836229 1_556
Np0 O0 1.838420 1_555
Np0 O26 2.030838 1_456
Np0 O24 2.198962 1_555
Np0 O8 2.446009 1_555
Np0 O12 2.460857 1_455
Np0 O16 2.608487 1_555
Np1 O5 1.836229 1_555
Np1 O1 1.838420 1_555
Np1 O27 2.030836 1_655
Np1 O25 2.198962 1_565
Np1 O9 2.446009 1_555
Np1 O13 2.460857 1_655
Np1 O17 2.608487 1_555
Np2 O6 1.836229 1_554
Np2 O2 1.838420 1_555
Np2 O24 2.030838 1_654
Np2 O26 2.198962 1_555
Np2 O10 2.446009 1_555
Np2 O14 2.460857 1_655
Np2 O18 2.608487 1_555
Np3 O7 1.836229 1_555
Np3 O3 1.838420 1_555
Np3 O25 2.030838 1_455
Np3 O27 2.198962 1_545
Np3 O11 2.446009 1_555
Np3 O15 2.460857 1_455
Np3 O19 2.608487 1_555
C0 O8 1.262892 1_555
C0 O12 1.273032 1_555
C1 O9 1.262892 1_555
C1 O13 1.273032 1_555
C2 O10 1.262892 1_555
C2 O14 1.273032 1_555
C3 O11 1.262892 1_555
C3 O15 1.273032 1_555
C4 O20 1.252326 1_555
C4 O16 1.278868 1_555
C5 O21 1.252326 1_555
C5 O17 1.278868 1_555
C6 O22 1.252326 1_555
C6 O18 1.278868 1_555
C7 O23 1.252326 1_555
C7 O19 1.278868 1_555
