# generated using pymatgen
data_TiTl5F9
_symmetry_space_group_name_H-M   'P 1'
_cell_length_a   6.68507796
_cell_length_b   7.77698288
_cell_length_c   10.94410860
_cell_angle_alpha   90.00109790
_cell_angle_beta   90.00345967
_cell_angle_gamma   89.99931407
_symmetry_Int_Tables_number   1
_chemical_formula_structural   TiTl5F9
_chemical_formula_sum   'Ti2 Tl10 F18'
_cell_volume   568.98132437
_cell_formula_units_Z   2
loop_
 _symmetry_equiv_pos_site_id
 _symmetry_equiv_pos_as_xyz
  1  'x, y, z'
loop_
 _atom_site_type_symbol
 _atom_site_label
 _atom_site_symmetry_multiplicity
 _atom_site_fract_x
 _atom_site_fract_y
 _atom_site_fract_z
 _atom_site_occupancy
  Ti  Ti0  1  0.49918290  0.00000122  0.00289030  1
  Ti  Ti1  1  0.99934691  0.00000211  0.49689661  1
  Tl  Tl0  1  0.03801117  0.73621728  0.83122140  1
  Tl  Tl1  1  0.03800404  0.26377345  0.83122821  1
  Tl  Tl2  1  0.46844499  0.49999534  0.99825455  1
  Tl  Tl3  1  0.45264508  0.26604920  0.33188720  1
  Tl  Tl4  1  0.45264204  0.73395094  0.33188721  1
  Tl  Tl5  1  0.53814447  0.26381372  0.66887074  1
  Tl  Tl6  1  0.53811374  0.73618846  0.66886655  1
  Tl  Tl7  1  0.96915647  0.50000545  0.50202735  1
  Tl  Tl8  1  0.95249262  0.26596650  0.16826381  1
  Tl  Tl9  1  0.95244307  0.73403796  0.16825000  1
  F  F0  1  0.11845425  0.00001360  0.34177019  1
  F  F1  1  0.17672709  0.17443220  0.54787760  1
  F  F2  1  0.17672539  0.82555486  0.54786932  1
  F  F3  1  0.17022999  0.50000424  0.28069285  1
  F  F4  1  0.30461650  0.49999169  0.76041048  1
  F  F5  1  0.31945047  0.82707933  0.05475054  1
  F  F6  1  0.31945040  0.17291273  0.05477061  1
  F  F7  1  0.37885515  0.00002602  0.84828332  1
  F  F8  1  0.54558729  0.50000166  0.49820252  1
  F  F9  1  0.61814791  0.99998410  0.15802504  1
  F  F10  1  0.67657902  0.82552817  0.95196064  1
  F  F11  1  0.67658923  0.17446976  0.95198450  1
  F  F12  1  0.67054558  0.49999434  0.21972824  1
  F  F13  1  0.80445309  0.50000346  0.73990452  1
  F  F14  1  0.81978563  0.17301736  0.44494986  1
  F  F15  1  0.81978843  0.82701153  0.44491572  1
  F  F16  1  0.87879410  0.99997682  0.65146972  1
  F  F17  1  0.04559197  0.49999752  0.00189140  1
loop_
_geom_bond_atom_site_label_1
_geom_bond_atom_site_label_2
_geom_bond_distance
_geom_bond_site_symmetry_2
F0 Ti1 1.875212 1_455
F1 Ti1 1.886147 1_455
F2 Ti1 1.886204 1_465
F3 Tl8 2.635388 1_455
F3 Tl9 2.635629 1_455
F3 Tl4 2.681116 1_555
F3 Tl3 2.681158 1_555
F3 Tl7 2.770348 1_455
F4 Tl5 2.610469 1_555
F4 Tl6 2.610520 1_555
F4 Tl0 2.674347 1_555
F4 Tl1 2.674411 1_555
F5 Ti0 1.890624 1_565
F6 Ti0 1.890597 1_555
F7 Ti0 1.873467 1_556
F8 Tl6 2.620083 1_555
F8 Tl5 2.620169 1_555
F8 Tl3 2.647492 1_555
F8 Tl4 2.647518 1_555
F9 Ti0 1.874803 1_565
F10 Ti0 1.886310 1_566
F11 Ti0 1.886287 1_556
F12 Tl3 2.634229 1_555
F12 Tl4 2.634246 1_555
F12 Tl9 2.679920 1_555
F12 Tl8 2.679993 1_555
F12 Tl2 2.774874 1_554
F13 Tl0 2.609805 1_655
F13 Tl1 2.609894 1_655
F13 Tl5 2.673509 1_555
F13 Tl6 2.673625 1_555
F14 Ti1 1.890634 1_555
F15 Ti1 1.890603 1_565
F16 Ti1 1.873867 1_565
F17 Tl1 2.620290 1_554
F17 Tl0 2.620368 1_554
F17 Tl9 2.648654 1_455
F17 Tl8 2.648688 1_455
