# generated using pymatgen
data_Zn2FeN2
_symmetry_space_group_name_H-M   'P 1'
_cell_length_a   5.90129784
_cell_length_b   5.90129784
_cell_length_c   7.20375215
_cell_angle_alpha   57.86542193
_cell_angle_beta   57.86542193
_cell_angle_gamma   36.92706588
_symmetry_Int_Tables_number   1
_chemical_formula_structural   Zn2FeN2
_chemical_formula_sum   'Zn4 Fe2 N4'
_cell_volume   124.79459738
_cell_formula_units_Z   2
loop_
 _symmetry_equiv_pos_site_id
 _symmetry_equiv_pos_as_xyz
  1  'x, y, z'
loop_
 _atom_site_type_symbol
 _atom_site_label
 _atom_site_symmetry_multiplicity
 _atom_site_fract_x
 _atom_site_fract_y
 _atom_site_fract_z
 _atom_site_occupancy
  Zn  Zn0  1  0.31155100  0.31155100  0.78414700  1
  Zn  Zn1  1  0.68844900  0.68844900  0.21585300  1
  Zn  Zn2  1  0.94465900  0.94465900  0.33726500  1
  Zn  Zn3  1  0.05534100  0.05534100  0.66273500  1
  Fe  Fe0  1  0.62801000  0.62801000  0.87268200  1
  Fe  Fe1  1  0.37199000  0.37199000  0.12731800  1
  N  N0  1  0.82670100  0.82670100  0.67186900  1
  N  N1  1  0.17329900  0.17329900  0.32813100  1
  N  N2  1  0.49153900  0.49153900  0.80939100  1
  N  N3  1  0.50846100  0.50846100  0.19060900  1
loop_
_geom_bond_atom_site_label_1
_geom_bond_atom_site_label_2
_geom_bond_distance
_geom_bond_site_symmetry_2
Fe0 N2 1.822991 1_555
Fe0 N0 1.852443 1_555
Fe0 N3 1.897038 1_556
Fe1 N3 1.822991 1_555
Fe1 N1 1.852443 1_555
Fe1 N2 1.897038 1_554
N0 Zn2 1.995981 1_555
N0 Zn0 2.005509 1_655
N0 Zn0 2.005509 1_565
N0 Zn3 2.523329 1_665
N1 Zn3 1.995981 1_555
N1 Zn1 2.005509 1_455
N1 Zn1 2.005509 1_545
N1 Zn2 2.523329 1_445
N2 Zn3 2.067111 1_655
N2 Zn3 2.067111 1_565
N2 Zn0 2.122302 1_555
N3 Zn2 2.067111 1_455
N3 Zn2 2.067111 1_545
N3 Zn1 2.122302 1_555
