# generated using pymatgen
data_KSr6Sc(SiO4)4
_symmetry_space_group_name_H-M   'P 1'
_cell_length_a   7.21629400
_cell_length_b   11.32410400
_cell_length_c   19.34662000
_cell_angle_alpha   90.00000000
_cell_angle_beta   90.00000000
_cell_angle_gamma   90.00000000
_symmetry_Int_Tables_number   1
_chemical_formula_structural   KSr6Sc(SiO4)4
_chemical_formula_sum   'K4 Sr24 Sc4 Si16 O64'
_cell_volume   1580.96832652
_cell_formula_units_Z   4
loop_
 _symmetry_equiv_pos_site_id
 _symmetry_equiv_pos_as_xyz
  1  'x, y, z'
loop_
 _atom_site_type_symbol
 _atom_site_label
 _atom_site_symmetry_multiplicity
 _atom_site_fract_x
 _atom_site_fract_y
 _atom_site_fract_z
 _atom_site_occupancy
  K  K0  1  0.84428500  0.75000000  0.67756800  1
  K  K1  1  0.15571500  0.25000000  0.32243200  1
  K  K2  1  0.34428500  0.25000000  0.82243200  1
  K  K3  1  0.65571500  0.75000000  0.17756800  1
  Sr  Sr0  1  0.67007600  0.49827200  0.90903000  1
  Sr  Sr1  1  0.32992400  0.50172800  0.09097000  1
  Sr  Sr2  1  0.17007600  0.50172800  0.59097000  1
  Sr  Sr3  1  0.32992400  0.99827200  0.09097000  1
  Sr  Sr4  1  0.82992400  0.49827200  0.40903000  1
  Sr  Sr5  1  0.67007600  0.00172800  0.90903000  1
  Sr  Sr6  1  0.82992400  0.00172800  0.40903000  1
  Sr  Sr7  1  0.17007600  0.99827200  0.59097000  1
  Sr  Sr8  1  0.51365000  0.52667200  0.72446800  1
  Sr  Sr9  1  0.48635000  0.47332800  0.27553200  1
  Sr  Sr10  1  0.01365000  0.47332800  0.77553200  1
  Sr  Sr11  1  0.48635000  0.02667200  0.27553200  1
  Sr  Sr12  1  0.98635000  0.52667200  0.22446800  1
  Sr  Sr13  1  0.51365000  0.97332800  0.72446800  1
  Sr  Sr14  1  0.98635000  0.97332800  0.22446800  1
  Sr  Sr15  1  0.01365000  0.02667200  0.77553200  1
  Sr  Sr16  1  0.49926200  0.75000000  0.52092700  1
  Sr  Sr17  1  0.50073800  0.25000000  0.47907300  1
  Sr  Sr18  1  0.99926200  0.25000000  0.97907300  1
  Sr  Sr19  1  0.00073800  0.75000000  0.02092700  1
  Sr  Sr20  1  0.27576600  0.75000000  0.84246300  1
  Sr  Sr21  1  0.72423400  0.25000000  0.15753700  1
  Sr  Sr22  1  0.77576600  0.25000000  0.65753700  1
  Sr  Sr23  1  0.22423400  0.75000000  0.34246300  1
  Sc  Sc0  1  0.01688200  0.75000000  0.50179600  1
  Sc  Sc1  1  0.98311800  0.25000000  0.49820400  1
  Sc  Sc2  1  0.51688200  0.25000000  0.99820400  1
  Sc  Sc3  1  0.48311800  0.75000000  0.00179600  1
  Si  Si0  1  0.77578200  0.75000000  0.84677000  1
  Si  Si1  1  0.22421800  0.25000000  0.15323000  1
  Si  Si2  1  0.27578200  0.25000000  0.65323000  1
  Si  Si3  1  0.72421800  0.75000000  0.34677000  1
  Si  Si4  1  0.72950200  0.50300900  0.57626500  1
  Si  Si5  1  0.27049800  0.49699100  0.42373500  1
  Si  Si6  1  0.22950200  0.49699100  0.92373500  1
  Si  Si7  1  0.27049800  0.00300900  0.42373500  1
  Si  Si8  1  0.77049800  0.50300900  0.07626500  1
  Si  Si9  1  0.72950200  0.99699100  0.57626500  1
  Si  Si10  1  0.77049800  0.99699100  0.07626500  1
  Si  Si11  1  0.22950200  0.00300900  0.92373500  1
  Si  Si12  1  0.26755600  0.75000000  0.67353000  1
  Si  Si13  1  0.73244400  0.25000000  0.32647000  1
  Si  Si14  1  0.76755600  0.25000000  0.82647000  1
  Si  Si15  1  0.23244400  0.75000000  0.17353000  1
  O  O0  1  0.00802500  0.75000000  0.17801000  1
  O  O1  1  0.99197500  0.25000000  0.82199000  1
  O  O2  1  0.50802500  0.25000000  0.32199000  1
  O  O3  1  0.49197500  0.75000000  0.67801000  1
  O  O4  1  0.18544200  0.75000000  0.59252600  1
  O  O5  1  0.81455800  0.25000000  0.40747400  1
  O  O6  1  0.68544200  0.25000000  0.90747400  1
  O  O7  1  0.31455800  0.75000000  0.09252600  1
  O  O8  1  0.96895400  0.75000000  0.89025500  1
  O  O9  1  0.03104600  0.25000000  0.10974500  1
  O  O10  1  0.46895400  0.25000000  0.60974500  1
  O  O11  1  0.53104600  0.75000000  0.39025500  1
  O  O12  1  0.59747800  0.75000000  0.90383700  1
  O  O13  1  0.40252200  0.25000000  0.09616300  1
  O  O14  1  0.09747800  0.25000000  0.59616300  1
  O  O15  1  0.90252200  0.75000000  0.40383700  1
  O  O16  1  0.78524200  0.11764900  0.53097500  1
  O  O17  1  0.21475800  0.88235100  0.46902500  1
  O  O18  1  0.28524200  0.88235100  0.96902500  1
  O  O19  1  0.21475800  0.61764900  0.46902500  1
  O  O20  1  0.71475800  0.11764900  0.03097500  1
  O  O21  1  0.78524200  0.38235100  0.53097500  1
  O  O22  1  0.71475800  0.38235100  0.03097500  1
  O  O23  1  0.28524200  0.61764900  0.96902500  1
  O  O24  1  0.51032300  0.53407500  0.58347700  1
  O  O25  1  0.48967700  0.46592500  0.41652300  1
  O  O26  1  0.01032300  0.46592500  0.91652300  1
  O  O27  1  0.48967700  0.03407500  0.41652300  1
  O  O28  1  0.98967700  0.53407500  0.08347700  1
  O  O29  1  0.51032300  0.96592500  0.58347700  1
  O  O30  1  0.98967700  0.96592500  0.08347700  1
  O  O31  1  0.01032300  0.03407500  0.91652300  1
  O  O32  1  0.82512100  0.01707500  0.65303900  1
  O  O33  1  0.17487900  0.98292500  0.34696100  1
  O  O34  1  0.32512100  0.98292500  0.84696100  1
  O  O35  1  0.17487900  0.51707500  0.34696100  1
  O  O36  1  0.67487900  0.01707500  0.15303900  1
  O  O37  1  0.82512100  0.48292500  0.65303900  1
  O  O38  1  0.67487900  0.48292500  0.15303900  1
  O  O39  1  0.32512100  0.51707500  0.84696100  1
  O  O40  1  0.68895000  0.13063300  0.78814800  1
  O  O41  1  0.31105000  0.86936700  0.21185200  1
  O  O42  1  0.18895000  0.86936700  0.71185200  1
  O  O43  1  0.31105000  0.63063300  0.21185200  1
  O  O44  1  0.81105000  0.13063300  0.28814800  1
  O  O45  1  0.68895000  0.36936700  0.78814800  1
  O  O46  1  0.81105000  0.36936700  0.28814800  1
  O  O47  1  0.18895000  0.63063300  0.71185200  1
  O  O48  1  0.75267200  0.62739000  0.80211100  1
  O  O49  1  0.24732800  0.37261000  0.19788900  1
  O  O50  1  0.25267200  0.37261000  0.69788900  1
  O  O51  1  0.24732800  0.12739000  0.19788900  1
  O  O52  1  0.74732800  0.62739000  0.30211100  1
  O  O53  1  0.75267200  0.87261000  0.80211100  1
  O  O54  1  0.74732800  0.87261000  0.30211100  1
  O  O55  1  0.25267200  0.12739000  0.69788900  1
  O  O56  1  0.83557100  0.61488700  0.53503700  1
  O  O57  1  0.16442900  0.38511300  0.46496300  1
  O  O58  1  0.33557100  0.38511300  0.96496300  1
  O  O59  1  0.16442900  0.11488700  0.46496300  1
  O  O60  1  0.66442900  0.61488700  0.03503700  1
  O  O61  1  0.83557100  0.88511300  0.53503700  1
  O  O62  1  0.66442900  0.88511300  0.03503700  1
  O  O63  1  0.33557100  0.11488700  0.96496300  1
loop_
_geom_bond_atom_site_label_1
_geom_bond_atom_site_label_2
_geom_bond_distance
_geom_bond_site_symmetry_2
K0 O3 2.542387 1_555
K0 O48 2.858404 1_555
K0 O53 2.858404 1_555
K0 O47 2.907453 1_655
K0 O42 2.907453 1_655
K0 O4 2.961052 1_655
K0 O32 3.064512 1_565
K0 O37 3.064512 1_555
K0 O61 3.154160 1_555
K0 O56 3.154160 1_555
K1 O2 2.542387 1_555
K1 O51 2.858404 1_555
K1 O49 2.858404 1_555
K1 O46 2.907453 1_455
K1 O44 2.907453 1_455
K1 O5 2.961052 1_455
K1 O35 3.064512 1_555
K1 O33 3.064512 1_545
K1 O57 3.154160 1_555
K1 O59 3.154160 1_555
K2 O1 2.542387 1_455
K2 O55 2.858404 1_555
K2 O50 2.858404 1_555
K2 O40 2.907453 1_555
K2 O45 2.907453 1_555
K2 O6 2.961052 1_555
K2 O39 3.064512 1_555
K2 O34 3.064512 1_545
K2 O58 3.154160 1_555
K2 O63 3.154160 1_555
K3 O0 2.542387 1_655
K3 O52 2.858404 1_555
K3 O54 2.858404 1_555
K3 O41 2.907453 1_555
K3 O43 2.907453 1_555
K3 O7 2.961052 1_555
K3 O36 3.064512 1_565
K3 O38 3.064512 1_555
K3 O62 3.154160 1_555
K3 O60 3.154160 1_555
O0 Si15 1.621791 1_555
O0 Sr12 2.688513 1_455
O0 Sr14 2.688513 1_455
O0 Sr19 3.039480 1_555
O1 Si14 1.621791 1_555
O1 Sr10 2.688513 1_655
O1 Sr15 2.688513 1_655
O1 Sr18 3.039480 1_555
O2 Si13 1.621791 1_555
O2 Sr9 2.688513 1_555
O2 Sr11 2.688513 1_555
O2 Sr17 3.039480 1_555
O3 Si12 1.621791 1_555
O3 Sr8 2.688513 1_555
O3 Sr13 2.688513 1_555
O3 Sr16 3.039480 1_555
O4 Si12 1.675439 1_555
O4 Sc0 2.135584 1_555
O4 Sr16 2.654669 1_555
O4 Sr7 2.813805 1_555
O4 Sr2 2.813805 1_555
O5 Si13 1.675439 1_555
O5 Sc1 2.135584 1_555
O5 Sr17 2.654669 1_555
O5 Sr6 2.813805 1_555
O5 Sr4 2.813805 1_555
O6 Si14 1.675439 1_555
O6 Sc2 2.135584 1_555
O6 Sr18 2.654669 1_555
O6 Sr5 2.813805 1_555
O6 Sr0 2.813805 1_555
O7 Si15 1.675439 1_555
O7 Sc3 2.135584 1_555
O7 Sr19 2.654669 1_555
O7 Sr3 2.813805 1_555
O7 Sr1 2.813805 1_555
O8 Si0 1.628177 1_555
O8 Sr20 2.399356 1_655
O8 Sr19 2.538445 1_656
O9 Si1 1.628177 1_555
O9 Sr21 2.399356 1_455
O9 Sr18 2.538445 1_454
O10 Si2 1.628177 1_555
O10 Sr22 2.399356 1_555
O10 Sr17 2.538445 1_555
O11 Si3 1.628177 1_555
O11 Sr23 2.399356 1_555
O11 Sr16 2.538445 1_555
O12 Si0 1.695440 1_555
O12 Sc3 2.067060 1_556
O12 Sr20 2.607595 1_555
O12 Sr5 2.900076 1_565
O12 Sr0 2.900076 1_555
O13 Si1 1.695440 1_555
O13 Sc2 2.067060 1_554
O13 Sr21 2.607595 1_555
O13 Sr1 2.900076 1_555
O13 Sr3 2.900076 1_545
O14 Si2 1.695440 1_555
O14 Sc1 2.067060 1_455
O14 Sr22 2.607595 1_455
O14 Sr2 2.900076 1_555
O14 Sr7 2.900076 1_545
O15 Si3 1.695440 1_555
O15 Sc0 2.067060 1_655
O15 Sr23 2.607595 1_655
O15 Sr6 2.900076 1_565
O15 Sr4 2.900076 1_555
O16 Si9 1.672253 1_545
O16 Sc1 2.165000 1_555
O16 Sr6 2.719023 1_555
O16 Sr17 2.733060 1_555
O16 Sr22 2.871642 1_555
O17 Si7 1.672253 1_565
O17 Sc0 2.165000 1_555
O17 Sr7 2.719023 1_555
O17 Sr16 2.733060 1_555
O17 Sr23 2.871642 1_555
O18 Si11 1.672253 1_565
O18 Sc3 2.165000 1_556
O18 Sr3 2.719023 1_556
O18 Sr19 2.733060 1_556
O18 Sr20 2.871642 1_555
O19 Si5 1.672253 1_555
O19 Sc0 2.165000 1_555
O19 Sr2 2.719023 1_555
O19 Sr16 2.733060 1_555
O19 Sr23 2.871642 1_555
O20 Si10 1.672253 1_545
O20 Sc2 2.165000 1_554
O20 Sr5 2.719023 1_554
O20 Sr18 2.733060 1_554
O20 Sr21 2.871642 1_555
O21 Si4 1.672253 1_555
O21 Sc1 2.165000 1_555
O21 Sr4 2.719023 1_555
O21 Sr17 2.733060 1_555
O21 Sr22 2.871642 1_555
O22 Si8 1.672253 1_555
O22 Sc2 2.165000 1_554
O22 Sr0 2.719023 1_554
O22 Sr18 2.733060 1_554
O22 Sr21 2.871642 1_555
O23 Si6 1.672253 1_555
O23 Sc3 2.165000 1_556
O23 Sr1 2.719023 1_556
O23 Sr19 2.733060 1_556
O23 Sr20 2.871642 1_555
O24 Si4 1.626308 1_555
O24 Sr2 2.486725 1_555
O24 Sr8 2.729093 1_555
O24 Sr16 2.729392 1_555
O25 Si5 1.626308 1_555
O25 Sr4 2.486725 1_555
O25 Sr9 2.729093 1_555
O25 Sr17 2.729392 1_555
O26 Si6 1.626308 1_555
O26 Sr0 2.486725 1_455
O26 Sr10 2.729093 1_555
O26 Sr18 2.729392 1_455
O27 Si7 1.626308 1_555
O27 Sr6 2.486725 1_555
O27 Sr11 2.729093 1_555
O27 Sr17 2.729392 1_555
O28 Si8 1.626308 1_555
O28 Sr1 2.486725 1_655
O28 Sr12 2.729093 1_555
O28 Sr19 2.729392 1_655
O29 Si9 1.626308 1_555
O29 Sr7 2.486725 1_555
O29 Sr13 2.729093 1_555
O29 Sr16 2.729392 1_555
O30 Si10 1.626308 1_555
O30 Sr3 2.486725 1_655
O30 Sr14 2.729093 1_555
O30 Sr19 2.729392 1_655
O31 Si11 1.626308 1_555
O31 Sr5 2.486725 1_455
O31 Sr15 2.729093 1_555
O31 Sr18 2.729392 1_455
O32 Si9 1.653485 1_545
O32 Sr22 2.663026 1_555
O32 Sr13 2.684603 1_545
O32 Sr15 2.734738 1_655
O32 Sr7 2.771988 1_645
O33 Si7 1.653485 1_565
O33 Sr23 2.663026 1_555
O33 Sr11 2.684603 1_565
O33 Sr14 2.734738 1_455
O33 Sr6 2.771988 1_465
O34 Si11 1.653485 1_565
O34 Sr20 2.663026 1_555
O34 Sr15 2.684603 1_565
O34 Sr13 2.734738 1_555
O34 Sr5 2.771988 1_565
O35 Si5 1.653485 1_555
O35 Sr23 2.663026 1_555
O35 Sr9 2.684603 1_555
O35 Sr12 2.734738 1_455
O35 Sr4 2.771988 1_455
O36 Si10 1.653485 1_545
O36 Sr21 2.663026 1_555
O36 Sr14 2.684603 1_545
O36 Sr11 2.734738 1_555
O36 Sr3 2.771988 1_545
O37 Si4 1.653485 1_555
O37 Sr22 2.663026 1_555
O37 Sr8 2.684603 1_555
O37 Sr10 2.734738 1_655
O37 Sr2 2.771988 1_655
O38 Si8 1.653485 1_555
O38 Sr21 2.663026 1_555
O38 Sr12 2.684603 1_555
O38 Sr9 2.734738 1_555
O38 Sr1 2.771988 1_555
O39 Si6 1.653485 1_555
O39 Sr20 2.663026 1_555
O39 Sr10 2.684603 1_555
O39 Sr8 2.734738 1_555
O39 Sr0 2.771988 1_555
O40 Si14 1.642742 1_555
O40 Sr13 2.508234 1_545
O40 Sr15 2.633588 1_655
O40 Sr5 2.760198 1_555
O40 Sr22 2.933390 1_555
O41 Si15 1.642742 1_555
O41 Sr11 2.508234 1_565
O41 Sr14 2.633588 1_455
O41 Sr3 2.760198 1_555
O41 Sr23 2.933390 1_555
O42 Si12 1.642742 1_555
O42 Sr15 2.508234 1_565
O42 Sr13 2.633588 1_555
O42 Sr7 2.760198 1_555
O42 Sr20 2.933390 1_555
O43 Si15 1.642742 1_555
O43 Sr9 2.508234 1_555
O43 Sr12 2.633588 1_455
O43 Sr1 2.760198 1_555
O43 Sr23 2.933390 1_555
O44 Si13 1.642742 1_555
O44 Sr14 2.508234 1_545
O44 Sr11 2.633588 1_555
O44 Sr6 2.760198 1_555
O44 Sr21 2.933390 1_555
O45 Si14 1.642742 1_555
O45 Sr8 2.508234 1_555
O45 Sr10 2.633588 1_655
O45 Sr0 2.760198 1_555
O45 Sr22 2.933390 1_555
O46 Si13 1.642742 1_555
O46 Sr12 2.508234 1_555
O46 Sr9 2.633588 1_555
O46 Sr4 2.760198 1_555
O46 Sr21 2.933390 1_555
O47 Si12 1.642742 1_555
O47 Sr10 2.508234 1_555
O47 Sr8 2.633588 1_555
O47 Sr2 2.760198 1_555
O47 Sr20 2.933390 1_555
O48 Si0 1.643806 1_555
O48 Sr8 2.555845 1_555
O48 Sr0 2.602289 1_555
O48 Sr10 2.618185 1_655
O49 Si1 1.643806 1_555
O49 Sr9 2.555845 1_555
O49 Sr1 2.602289 1_555
O49 Sr12 2.618185 1_455
O50 Si2 1.643806 1_555
O50 Sr10 2.555845 1_555
O50 Sr2 2.602289 1_555
O50 Sr8 2.618185 1_555
O51 Si1 1.643806 1_555
O51 Sr11 2.555845 1_555
O51 Sr3 2.602289 1_545
O51 Sr14 2.618185 1_445
O52 Si3 1.643806 1_555
O52 Sr12 2.555845 1_555
O52 Sr4 2.602289 1_555
O52 Sr9 2.618185 1_555
O53 Si0 1.643806 1_555
O53 Sr13 2.555845 1_555
O53 Sr5 2.602289 1_565
O53 Sr15 2.618185 1_665
O54 Si3 1.643806 1_555
O54 Sr14 2.555845 1_555
O54 Sr6 2.602289 1_565
O54 Sr11 2.618185 1_565
O55 Si2 1.643806 1_555
O55 Sr15 2.555845 1_555
O55 Sr7 2.602289 1_545
O55 Sr13 2.618185 1_545
O56 Si4 1.681416 1_555
O56 Sc0 2.113404 1_655
O56 Sr4 2.772806 1_555
O56 Sr16 2.881907 1_555
O56 Sr2 2.939365 1_655
O57 Si5 1.681416 1_555
O57 Sc1 2.113404 1_455
O57 Sr2 2.772806 1_555
O57 Sr17 2.881907 1_555
O57 Sr4 2.939365 1_455
O58 Si6 1.681416 1_555
O58 Sc2 2.113404 1_555
O58 Sr1 2.772806 1_556
O58 Sr18 2.881907 1_455
O58 Sr0 2.939365 1_555
O59 Si7 1.681416 1_555
O59 Sc1 2.113404 1_455
O59 Sr7 2.772806 1_545
O59 Sr17 2.881907 1_555
O59 Sr6 2.939365 1_455
O60 Si8 1.681416 1_555
O60 Sc3 2.113404 1_555
O60 Sr0 2.772806 1_554
O60 Sr19 2.881907 1_655
O60 Sr1 2.939365 1_555
O61 Si9 1.681416 1_555
O61 Sc0 2.113404 1_655
O61 Sr6 2.772806 1_565
O61 Sr16 2.881907 1_555
O61 Sr7 2.939365 1_655
O62 Si10 1.681416 1_555
O62 Sc3 2.113404 1_555
O62 Sr5 2.772806 1_564
O62 Sr19 2.881907 1_655
O62 Sr3 2.939365 1_555
O63 Si11 1.681416 1_555
O63 Sc2 2.113404 1_555
O63 Sr3 2.772806 1_546
O63 Sr18 2.881907 1_455
O63 Sr5 2.939365 1_555
