# generated using pymatgen
data_Sr2AlGaFe2O7
_symmetry_space_group_name_H-M   'P 1'
_cell_length_a   11.77610041
_cell_length_b   11.77610041
_cell_length_c   5.51008399
_cell_angle_alpha   76.55296039
_cell_angle_beta   76.55296039
_cell_angle_gamma   28.31290843
_symmetry_Int_Tables_number   1
_chemical_formula_structural   Sr2AlGaFe2O7
_chemical_formula_sum   'Sr4 Al2 Ga2 Fe4 O14'
_cell_volume   351.83456519
_cell_formula_units_Z   2
loop_
 _symmetry_equiv_pos_site_id
 _symmetry_equiv_pos_as_xyz
  1  'x, y, z'
loop_
 _atom_site_type_symbol
 _atom_site_label
 _atom_site_symmetry_multiplicity
 _atom_site_fract_x
 _atom_site_fract_y
 _atom_site_fract_z
 _atom_site_occupancy
  Sr  Sr0  1  0.11848200  0.68609900  0.84473700  1
  Sr  Sr1  1  0.87395500  0.32728400  0.14535500  1
  Sr  Sr2  1  0.68609900  0.11848200  0.34473700  1
  Sr  Sr3  1  0.32728400  0.87395500  0.64535500  1
  Al  Al0  1  0.50523700  0.00191300  0.50332100  1
  Al  Al1  1  0.00191300  0.50523700  0.00332100  1
  Ga  Ga0  1  0.67331800  0.32850600  0.71613600  1
  Ga  Ga1  1  0.32850600  0.67331800  0.21613600  1
  Fe  Fe0  1  0.93788800  0.44792000  0.56014500  1
  Fe  Fe1  1  0.55879000  0.08120500  0.93363000  1
  Fe  Fe2  1  0.44792000  0.93788800  0.06014500  1
  Fe  Fe3  1  0.08120500  0.55879000  0.43363000  1
  O  O0  1  0.89188100  0.71849700  0.75785700  1
  O  O1  1  0.61233200  0.39047100  0.37410700  1
  O  O2  1  0.71849700  0.89188100  0.25785700  1
  O  O3  1  0.26703000  0.88446200  0.20256700  1
  O  O4  1  0.60839300  0.78023500  0.72687000  1
  O  O5  1  0.78023500  0.60839300  0.22687000  1
  O  O6  1  0.39047100  0.61233200  0.87410700  1
  O  O7  1  0.27727600  0.12209700  0.37873000  1
  O  O8  1  0.12209700  0.27727600  0.87873000  1
  O  O9  1  0.88446200  0.26703000  0.70256700  1
  O  O10  1  0.71582800  0.13135700  0.84833400  1
  O  O11  1  0.13135700  0.71582800  0.34833400  1
  O  O12  1  0.40598000  0.21612700  0.61495200  1
  O  O13  1  0.21612700  0.40598000  0.11495200  1
loop_
_geom_bond_atom_site_label_1
_geom_bond_atom_site_label_2
_geom_bond_distance
_geom_bond_site_symmetry_2
Al0 O12 1.817613 1_555
Al0 O2 1.822349 1_545
Al0 O7 1.842936 1_555
Al0 O4 1.850528 1_545
Al1 O13 1.817613 1_555
Al1 O0 1.822349 1_454
Al1 O8 1.842936 1_554
Al1 O5 1.850528 1_455
Ga0 O6 1.850970 1_555
Ga0 O9 1.865853 1_555
Ga0 O10 1.872948 1_555
Ga0 O1 1.914984 1_555
Ga1 O1 1.850970 1_555
Ga1 O3 1.865853 1_555
Ga1 O11 1.872948 1_555
Ga1 O6 1.914984 1_554
Fe0 O5 2.045585 1_555
Fe0 O8 2.068924 1_655
Fe0 O4 2.119500 1_555
Fe0 O7 2.149300 1_655
Fe0 O9 2.627160 1_555
Fe1 O12 1.995951 1_555
Fe1 O2 2.006670 1_546
Fe1 O13 2.153414 1_556
Fe1 O0 2.285908 1_545
Fe1 O10 2.319333 1_555
Fe2 O4 2.045585 1_554
Fe2 O7 2.068924 1_565
Fe2 O5 2.119500 1_555
Fe2 O8 2.149300 1_564
Fe2 O3 2.627160 1_555
Fe3 O13 1.995951 1_555
Fe3 O0 2.006670 1_455
Fe3 O12 2.153414 1_555
Fe3 O2 2.285908 1_455
Fe3 O11 2.319333 1_555
O0 Sr0 2.492408 1_655
O1 Sr1 2.495590 1_555
O1 Sr2 2.513258 1_555
O2 Sr2 2.492408 1_565
O3 Sr1 2.476286 1_465
O3 Sr3 2.642267 1_555
O3 Sr3 2.992375 1_554
O4 Sr3 2.531093 1_555
O5 Sr1 2.531093 1_555
O6 Sr3 2.495590 1_555
O6 Sr0 2.513258 1_555
O7 Sr3 2.533739 1_545
O8 Sr1 2.533739 1_456
O9 Sr3 2.476286 1_645
O9 Sr1 2.642267 1_556
O9 Sr1 2.992375 1_555
O10 Sr0 2.491050 1_645
O10 Sr2 2.661243 1_556
O10 Sr2 2.930249 1_555
O11 Sr2 2.491050 1_465
O11 Sr0 2.661243 1_555
O11 Sr0 2.930249 1_554
O12 Sr2 2.500767 1_555
O13 Sr0 2.500767 1_554
