# generated using pymatgen
data_YMg14CO16
_symmetry_space_group_name_H-M   'P 1'
_cell_length_a   4.28914100
_cell_length_b   8.60629900
_cell_length_c   8.84187600
_cell_angle_alpha   90.00000000
_cell_angle_beta   90.00000000
_cell_angle_gamma   90.00000000
_symmetry_Int_Tables_number   1
_chemical_formula_structural   YMg14CO16
_chemical_formula_sum   'Y1 Mg14 C1 O16'
_cell_volume   326.38573828
_cell_formula_units_Z   1
loop_
 _symmetry_equiv_pos_site_id
 _symmetry_equiv_pos_as_xyz
  1  'x, y, z'
loop_
 _atom_site_type_symbol
 _atom_site_label
 _atom_site_symmetry_multiplicity
 _atom_site_fract_x
 _atom_site_fract_y
 _atom_site_fract_z
 _atom_site_occupancy
  Y  Y0  1  0.00000000  0.00000000  0.00000000  1
  Mg  Mg0  1  0.00000000  0.00000000  0.50000000  1
  Mg  Mg1  1  0.00000000  0.50000000  0.50000000  1
  Mg  Mg2  1  0.50000000  0.73120300  0.00000000  1
  Mg  Mg3  1  0.50000000  0.26879700  0.00000000  1
  Mg  Mg4  1  0.50000000  0.74451700  0.50000000  1
  Mg  Mg5  1  0.50000000  0.25548300  0.50000000  1
  Mg  Mg6  1  0.50000000  0.00000000  0.73647000  1
  Mg  Mg7  1  0.50000000  0.50000000  0.75014600  1
  Mg  Mg8  1  0.50000000  0.00000000  0.26353000  1
  Mg  Mg9  1  0.50000000  0.50000000  0.24985400  1
  Mg  Mg10  1  0.00000000  0.73499300  0.74523500  1
  Mg  Mg11  1  0.00000000  0.26500700  0.74523500  1
  Mg  Mg12  1  0.00000000  0.73499300  0.25476500  1
  Mg  Mg13  1  0.00000000  0.26500700  0.25476500  1
  C  C0  1  0.00000000  0.50000000  0.00000000  1
  O  O0  1  0.00000000  0.00000000  0.74165700  1
  O  O1  1  0.00000000  0.50000000  0.71985000  1
  O  O2  1  0.00000000  0.00000000  0.25834300  1
  O  O3  1  0.00000000  0.50000000  0.28015000  1
  O  O4  1  0.50000000  0.75067100  0.75336400  1
  O  O5  1  0.50000000  0.24932900  0.75336400  1
  O  O6  1  0.50000000  0.75067100  0.24663600  1
  O  O7  1  0.50000000  0.24932900  0.24663600  1
  O  O8  1  0.50000000  0.00000000  0.00000000  1
  O  O9  1  0.50000000  0.50000000  0.00000000  1
  O  O10  1  0.50000000  0.00000000  0.50000000  1
  O  O11  1  0.50000000  0.50000000  0.50000000  1
  O  O12  1  0.00000000  0.74322600  0.00000000  1
  O  O13  1  0.00000000  0.25677400  0.00000000  1
  O  O14  1  0.00000000  0.75480100  0.50000000  1
  O  O15  1  0.00000000  0.24519900  0.50000000  1
loop_
_geom_bond_atom_site_label_1
_geom_bond_atom_site_label_2
_geom_bond_distance
_geom_bond_site_symmetry_2
Mg0 O15 2.110256 1_555
Mg0 O14 2.110256 1_545
Mg0 O0 2.136701 1_555
Mg0 O2 2.136701 1_555
Mg0 O10 2.144570 1_555
Mg0 O10 2.144570 1_455
Mg1 O3 1.943886 1_555
Mg1 O1 1.943886 1_555
Mg1 O11 2.144570 1_455
Mg1 O11 2.144570 1_555
Mg1 O14 2.192894 1_555
Mg1 O15 2.192894 1_555
Mg2 O9 1.989802 1_555
Mg2 O12 2.147065 1_655
Mg2 O12 2.147065 1_555
Mg2 O6 2.187152 1_555
Mg2 O4 2.187152 1_554
Mg2 O8 2.313347 1_565
Mg3 O9 1.989802 1_555
Mg3 O13 2.147065 1_655
Mg3 O13 2.147065 1_555
Mg3 O7 2.187152 1_555
Mg3 O5 2.187152 1_554
Mg3 O8 2.313347 1_555
Mg4 O11 2.104386 1_555
Mg4 O14 2.146396 1_655
Mg4 O14 2.146396 1_555
Mg4 O10 2.198763 1_565
Mg4 O4 2.240839 1_555
Mg4 O6 2.240839 1_555
Mg5 O11 2.104386 1_555
Mg5 O15 2.146396 1_555
Mg5 O15 2.146396 1_655
Mg5 O10 2.198763 1_555
Mg5 O5 2.240839 1_555
Mg5 O7 2.240839 1_555
Mg6 O10 2.090838 1_555
Mg6 O0 2.145061 1_555
Mg6 O0 2.145061 1_655
Mg6 O5 2.150993 1_555
Mg6 O4 2.150993 1_545
Mg6 O8 2.330100 1_556
Mg7 O4 2.157537 1_555
Mg7 O5 2.157537 1_555
Mg7 O1 2.161235 1_655
Mg7 O1 2.161235 1_555
Mg7 O9 2.209178 1_556
Mg7 O11 2.211760 1_555
Mg8 O10 2.090838 1_555
Mg8 O2 2.145061 1_655
Mg8 O2 2.145061 1_555
Mg8 O7 2.150993 1_555
Mg8 O6 2.150993 1_545
Mg8 O8 2.330100 1_555
Mg9 O6 2.157537 1_555
Mg9 O7 2.157537 1_555
Mg9 O3 2.161235 1_555
Mg9 O3 2.161235 1_655
Mg9 O9 2.209178 1_555
Mg9 O11 2.211760 1_555
Mg10 O1 2.034837 1_555
Mg10 O4 2.150013 1_455
Mg10 O4 2.150013 1_555
Mg10 O14 2.175028 1_555
Mg10 O12 2.253715 1_556
Mg10 O0 2.280949 1_565
Mg11 O1 2.034837 1_555
Mg11 O5 2.150013 1_455
Mg11 O5 2.150013 1_555
Mg11 O15 2.175028 1_555
Mg11 O13 2.253715 1_556
Mg11 O0 2.280949 1_555
Mg12 O3 2.034837 1_555
Mg12 O6 2.150013 1_555
Mg12 O6 2.150013 1_455
Mg12 O14 2.175028 1_555
Mg12 O12 2.253715 1_555
Mg12 O2 2.280949 1_565
Mg13 O3 2.034837 1_555
Mg13 O7 2.150013 1_555
Mg13 O7 2.150013 1_455
Mg13 O15 2.175028 1_555
Mg13 O13 2.253715 1_555
Mg13 O2 2.280949 1_555
C0 O12 2.093276 1_555
C0 O13 2.093276 1_555
C0 O9 2.144570 1_555
C0 O9 2.144570 1_455
O0 Y0 2.284237 1_556
O2 Y0 2.284237 1_555
O8 Y0 2.144570 1_555
O8 Y0 2.144570 1_655
O12 Y0 2.209874 1_565
O13 Y0 2.209874 1_555
