# generated using pymatgen
data_LiLa2Co2Sb2(PbO6)2
_symmetry_space_group_name_H-M   'P 1'
_cell_length_a   5.63692805
_cell_length_b   5.72905554
_cell_length_c   9.34065798
_cell_angle_alpha   81.01695290
_cell_angle_beta   92.73365699
_cell_angle_gamma   91.55453496
_symmetry_Int_Tables_number   1
_chemical_formula_structural   LiLa2Co2Sb2(PbO6)2
_chemical_formula_sum   'Li1 La2 Co2 Sb2 Pb2 O12'
_cell_volume   297.55162711
_cell_formula_units_Z   1
loop_
 _symmetry_equiv_pos_site_id
 _symmetry_equiv_pos_as_xyz
  1  'x, y, z'
loop_
 _atom_site_type_symbol
 _atom_site_label
 _atom_site_symmetry_multiplicity
 _atom_site_fract_x
 _atom_site_fract_y
 _atom_site_fract_z
 _atom_site_occupancy
  Li  Li0  1  0.45489400  0.67247300  0.41968400  1
  La  La0  1  0.51437300  0.48196900  0.76015500  1
  La  La1  1  0.00397100  0.95187600  0.20763500  1
  Co  Co0  1  0.99470400  0.57431200  0.54772600  1
  Co  Co1  1  0.50921700  0.95318500  0.99098600  1
  Sb  Sb0  1  0.01787200  0.47915900  0.98340200  1
  Sb  Sb1  1  0.47366900  0.08820100  0.53292500  1
  Pb  Pb0  1  0.54348900  0.37566600  0.19538300  1
  Pb  Pb1  1  0.98172800  0.00673100  0.75511900  1
  O  O0  1  0.59611900  0.95765300  0.21178800  1
  O  O1  1  0.08249600  0.55227000  0.77203200  1
  O  O2  1  0.42229900  0.02962600  0.74713500  1
  O  O3  1  0.97094300  0.37541600  0.19607700  1
  O  O4  1  0.17861000  0.86967500  0.45093000  1
  O  O5  1  0.71271900  0.66384700  0.96296900  1
  O  O6  1  0.75924600  0.30384600  0.58140000  1
  O  O7  1  0.30756500  0.27139700  0.00329100  1
  O  O8  1  0.28458500  0.39700200  0.52443300  1
  O  O9  1  0.80452400  0.20200300  0.94287800  1
  O  O10  1  0.67624600  0.78027300  0.56635600  1
  O  O11  1  0.19882600  0.76342000  0.03102800  1
loop_
_geom_bond_atom_site_label_1
_geom_bond_atom_site_label_2
_geom_bond_distance
_geom_bond_site_symmetry_2
Li0 O10 1.968396 1_555
Li0 O8 1.973528 1_555
Li0 O4 2.007200 1_555
Li0 O0 2.481956 1_555
Li0 Pb0 2.964589 1_555
La0 O10 2.477294 1_555
La0 O1 2.488781 1_555
La0 O5 2.505157 1_555
La0 O6 2.561818 1_555
La0 O8 2.605978 1_555
La0 O2 2.649425 1_555
La0 O9 2.679900 1_555
La0 O7 2.700495 1_556
La1 O0 2.302431 1_455
La1 O4 2.415128 1_555
La1 O3 2.423825 1_465
La1 O11 2.426269 1_555
La1 O9 2.854598 1_464
La1 O7 2.995539 1_565
Co0 O8 1.985522 1_655
Co0 O6 2.009374 1_555
Co0 O4 2.066874 1_655
Co0 O1 2.114813 1_655
Co0 O10 2.203159 1_555
Co1 O11 2.053132 1_556
Co1 O5 2.097476 1_555
Co1 O0 2.100880 1_556
Co1 O9 2.178874 1_565
Co1 O7 2.195256 1_566
Co1 O2 2.283326 1_565
O0 Pb0 2.401306 1_565
O1 Sb0 2.002053 1_555
O1 Pb1 2.658898 1_465
O2 Sb1 2.010031 1_555
O2 Pb1 2.487431 1_455
O3 Sb0 2.010571 1_654
O3 Pb0 2.409266 1_555
O4 Sb1 2.232762 1_565
O5 Sb0 2.029576 1_655
O5 Pb0 2.709506 1_556
O6 Sb1 2.078455 1_555
O6 Pb1 2.482420 1_555
O7 Sb0 2.031100 1_554
O7 Pb0 2.325690 1_555
O8 Sb1 2.079088 1_555
O9 Sb0 2.037522 1_655
O9 Pb1 2.483051 1_555
O10 Sb1 2.101644 1_565
O11 Sb0 1.995832 1_554
