# generated using pymatgen
data_Li5Co4NiO10
_symmetry_space_group_name_H-M   'P 1'
_cell_length_a   5.16700811
_cell_length_b   5.16700811
_cell_length_c   12.44767937
_cell_angle_alpha   79.24347175
_cell_angle_beta   79.24347175
_cell_angle_gamma   33.74056120
_symmetry_Int_Tables_number   1
_chemical_formula_structural   Li5Co4NiO10
_chemical_formula_sum   'Li5 Co4 Ni1 O10'
_cell_volume   181.04138998
_cell_formula_units_Z   1
loop_
 _symmetry_equiv_pos_site_id
 _symmetry_equiv_pos_as_xyz
  1  'x, y, z'
loop_
 _atom_site_type_symbol
 _atom_site_label
 _atom_site_symmetry_multiplicity
 _atom_site_fract_x
 _atom_site_fract_y
 _atom_site_fract_z
 _atom_site_occupancy
  Li  Li0  1  0.09914300  0.09914300  0.30116600  1
  Li  Li1  1  0.50000000  0.50000000  0.50000000  1
  Li  Li2  1  0.90085700  0.90085700  0.69883400  1
  Li  Li3  1  0.30082600  0.30082600  0.89847100  1
  Li  Li4  1  0.69917400  0.69917400  0.10152900  1
  Co  Co0  1  0.40408700  0.40408700  0.19730000  1
  Co  Co1  1  0.80135400  0.80135400  0.39946800  1
  Co  Co2  1  0.19864600  0.19864600  0.60053200  1
  Co  Co3  1  0.59591300  0.59591300  0.80270000  1
  Ni  Ni0  1  0.00000000  0.00000000  0.00000000  1
  O  O0  1  0.04149800  0.04149800  0.15521800  1
  O  O1  1  0.44143500  0.44143500  0.34724700  1
  O  O2  1  0.84259700  0.84259700  0.54394000  1
  O  O3  1  0.24065000  0.24065000  0.74253000  1
  O  O4  1  0.64396700  0.64396700  0.94019700  1
  O  O5  1  0.15740300  0.15740300  0.45606000  1
  O  O6  1  0.55856500  0.55856500  0.65275300  1
  O  O7  1  0.95850200  0.95850200  0.84478200  1
  O  O8  1  0.35603300  0.35603300  0.05980300  1
  O  O9  1  0.75935000  0.75935000  0.25747000  1
loop_
_geom_bond_atom_site_label_1
_geom_bond_atom_site_label_2
_geom_bond_distance
_geom_bond_site_symmetry_2
Li0 O0 2.007334 1_555
Li0 O5 2.117240 1_555
Li0 O1 2.158929 1_545
Li0 O1 2.158929 1_455
Li0 O9 2.172167 1_455
Li0 O9 2.172167 1_545
Li1 O6 2.092936 1_555
Li1 O1 2.092936 1_555
Li1 O2 2.153733 1_455
Li1 O5 2.153733 1_655
Li1 O2 2.153733 1_545
Li1 O5 2.153733 1_565
Li2 O7 2.007334 1_555
Li2 O2 2.117240 1_555
Li2 O6 2.158929 1_565
Li2 O6 2.158929 1_655
Li2 O3 2.172167 1_565
Li2 O3 2.172167 1_655
Li3 O3 2.138364 1_555
Li3 O4 2.147157 1_455
Li3 O4 2.147157 1_545
Li3 O7 2.172572 1_455
Li3 O7 2.172572 1_545
Li3 O8 2.181429 1_556
Li4 O9 2.138364 1_555
Li4 O8 2.147157 1_655
Li4 O8 2.147157 1_565
Li4 O0 2.172572 1_655
Li4 O0 2.172572 1_565
Li4 O4 2.181429 1_554
Co0 O8 1.863433 1_555
Co0 O1 1.972082 1_555
Co0 O0 2.022826 1_565
Co0 O0 2.022826 1_655
Co0 O9 2.107141 1_455
Co0 O9 2.107141 1_545
Co1 O9 1.892922 1_555
Co1 O2 1.920022 1_555
Co1 O1 2.058845 1_565
Co1 O1 2.058845 1_655
Co1 O5 2.092874 1_655
Co1 O5 2.092874 1_565
Co2 O3 1.892922 1_555
Co2 O5 1.920022 1_555
Co2 O6 2.058845 1_545
Co2 O6 2.058845 1_455
Co2 O2 2.092874 1_455
Co2 O2 2.092874 1_545
Co3 O4 1.863433 1_555
Co3 O6 1.972082 1_555
Co3 O7 2.022826 1_545
Co3 O7 2.022826 1_455
Co3 O3 2.107141 1_655
Co3 O3 2.107141 1_565
Ni0 O7 2.052004 1_444
Ni0 O0 2.052004 1_555
Ni0 O8 2.101486 1_545
Ni0 O4 2.101486 1_454
Ni0 O4 2.101486 1_544
Ni0 O8 2.101486 1_455
