# generated using pymatgen
data_LaCrS3
_symmetry_space_group_name_H-M   'P 1'
_cell_length_a   3.81736164
_cell_length_b   7.90286332
_cell_length_c   13.17595561
_cell_angle_alpha   90.00000000
_cell_angle_beta   90.00000000
_cell_angle_gamma   90.00000000
_symmetry_Int_Tables_number   1
_chemical_formula_structural   LaCrS3
_chemical_formula_sum   'La4 Cr4 S12'
_cell_volume   397.49337889
_cell_formula_units_Z   4
loop_
 _symmetry_equiv_pos_site_id
 _symmetry_equiv_pos_as_xyz
  1  'x, y, z'
loop_
 _atom_site_type_symbol
 _atom_site_label
 _atom_site_symmetry_multiplicity
 _atom_site_fract_x
 _atom_site_fract_y
 _atom_site_fract_z
 _atom_site_occupancy
  La  La0  1  0.25000000  0.08696923  0.82837968  1
  La  La1  1  0.75000000  0.91303077  0.17162032  1
  La  La2  1  0.25000000  0.58696923  0.67162032  1
  La  La3  1  0.75000000  0.41303077  0.32837968  1
  Cr  Cr0  1  0.25000000  0.33975779  0.05257875  1
  Cr  Cr1  1  0.75000000  0.66024221  0.94742125  1
  Cr  Cr2  1  0.25000000  0.83975779  0.44742125  1
  Cr  Cr3  1  0.75000000  0.16024221  0.55257875  1
  S  S0  1  0.25000000  0.48731834  0.89499852  1
  S  S1  1  0.75000000  0.51268166  0.10500148  1
  S  S2  1  0.25000000  0.98731834  0.60500148  1
  S  S3  1  0.75000000  0.01268166  0.39499852  1
  S  S4  1  0.25000000  0.33594587  0.49439146  1
  S  S5  1  0.75000000  0.66405413  0.50560854  1
  S  S6  1  0.25000000  0.83594587  0.00560854  1
  S  S7  1  0.75000000  0.16405413  0.99439146  1
  S  S8  1  0.75000000  0.30353118  0.71208784  1
  S  S9  1  0.25000000  0.69646882  0.28791216  1
  S  S10  1  0.75000000  0.80353118  0.78791216  1
  S  S11  1  0.25000000  0.19646882  0.21208784  1
loop_
_geom_bond_atom_site_label_1
_geom_bond_atom_site_label_2
_geom_bond_distance
_geom_bond_site_symmetry_2
La0 S7 2.966267 1_455
La0 S7 2.966267 1_555
La0 S8 2.986631 1_455
La0 S8 2.986631 1_555
La0 S10 2.990792 1_445
La0 S10 2.990792 1_545
La0 S2 3.046761 1_545
La0 S6 3.064057 1_546
La0 S0 3.283408 1_555
La1 S6 2.966267 1_555
La1 S6 2.966267 1_655
La1 S9 2.986631 1_555
La1 S9 2.986631 1_655
La1 S11 2.990792 1_565
La1 S11 2.990792 1_665
La1 S3 3.046761 1_565
La1 S7 3.064057 1_564
La1 S1 3.283408 1_555
La2 S5 2.966267 1_455
La2 S5 2.966267 1_555
La2 S10 2.986631 1_555
La2 S10 2.986631 1_455
La2 S8 2.990792 1_455
La2 S8 2.990792 1_555
La2 S0 3.046761 1_555
La2 S4 3.064057 1_555
La2 S2 3.283408 1_555
La3 S4 2.966267 1_555
La3 S4 2.966267 1_655
La3 S11 2.986631 1_555
La3 S11 2.986631 1_655
La3 S9 2.990792 1_555
La3 S9 2.990792 1_655
La3 S1 3.046761 1_555
La3 S5 3.064057 1_555
La3 S3 3.283408 1_555
Cr0 S0 2.381345 1_554
Cr0 S11 2.387340 1_555
Cr0 S1 2.446985 1_455
Cr0 S1 2.446985 1_555
Cr0 S7 2.481724 1_554
Cr0 S7 2.481724 1_454
Cr1 S1 2.381345 1_556
Cr1 S10 2.387340 1_555
Cr1 S0 2.446985 1_655
Cr1 S0 2.446985 1_555
Cr1 S6 2.481724 1_656
Cr1 S6 2.481724 1_556
Cr2 S2 2.381345 1_555
Cr2 S9 2.387340 1_555
Cr2 S3 2.446985 1_565
Cr2 S3 2.446985 1_465
Cr2 S5 2.481724 1_455
Cr2 S5 2.481724 1_555
Cr3 S3 2.381345 1_555
Cr3 S8 2.387340 1_555
Cr3 S2 2.446985 1_645
Cr3 S2 2.446985 1_545
Cr3 S4 2.481724 1_655
Cr3 S4 2.481724 1_555
