# generated using pymatgen
data_Tm2(Al3Rh)3
_symmetry_space_group_name_H-M   'P 1'
_cell_length_a   7.47340078
_cell_length_b   7.47340078
_cell_length_c   9.36753048
_cell_angle_alpha   90.00000000
_cell_angle_beta   90.00000000
_cell_angle_gamma   119.37122040
_symmetry_Int_Tables_number   1
_chemical_formula_structural   Tm2(Al3Rh)3
_chemical_formula_sum   'Tm4 Al18 Rh6'
_cell_volume   455.94164209
_cell_formula_units_Z   2
loop_
 _symmetry_equiv_pos_site_id
 _symmetry_equiv_pos_as_xyz
  1  'x, y, z'
loop_
 _atom_site_type_symbol
 _atom_site_label
 _atom_site_symmetry_multiplicity
 _atom_site_fract_x
 _atom_site_fract_y
 _atom_site_fract_z
 _atom_site_occupancy
  Tm  Tm0  1  0.99444866  0.67252235  0.25000000  1
  Tm  Tm1  1  0.00555134  0.32747765  0.75000000  1
  Tm  Tm2  1  0.67252235  0.99444866  0.25000000  1
  Tm  Tm3  1  0.32747765  0.00555134  0.75000000  1
  Al  Al0  1  0.12928570  0.12928570  0.25000000  1
  Al  Al1  1  0.87071430  0.87071430  0.75000000  1
  Al  Al2  1  0.00110158  0.33575562  0.07483179  1
  Al  Al3  1  -0.00110158  0.66424438  0.92516821  1
  Al  Al4  1  -0.00110158  0.66424438  0.57483179  1
  Al  Al5  1  0.33575562  0.00110158  0.42516821  1
  Al  Al6  1  0.00110158  0.33575562  0.42516821  1
  Al  Al7  1  0.66424438  -0.00110158  0.57483179  1
  Al  Al8  1  0.66424438  -0.00110158  0.92516821  1
  Al  Al9  1  0.33575562  0.00110158  0.07483179  1
  Al  Al10  1  0.33324564  0.33324564  0.55019640  1
  Al  Al11  1  0.66675436  0.66675436  0.44980360  1
  Al  Al12  1  0.66675436  0.66675436  0.05019640  1
  Al  Al13  1  0.33324564  0.33324564  0.94980360  1
  Al  Al14  1  0.33975856  0.55020988  0.25000000  1
  Al  Al15  1  0.66024144  0.44979012  0.75000000  1
  Al  Al16  1  0.55020988  0.33975856  0.25000000  1
  Al  Al17  1  0.44979012  0.66024144  0.75000000  1
  Rh  Rh0  1  0.67260201  0.32739799  -0.00000000  1
  Rh  Rh1  1  0.32739799  0.67260201  -0.00000000  1
  Rh  Rh2  1  0.32739799  0.67260201  0.50000000  1
  Rh  Rh3  1  0.67260201  0.32739799  0.50000000  1
  Rh  Rh4  1  0.00000000  -0.00000000  -0.00000000  1
  Rh  Rh5  1  0.00000000  -0.00000000  0.50000000  1
loop_
_geom_bond_atom_site_label_1
_geom_bond_atom_site_label_2
_geom_bond_distance
_geom_bond_site_symmetry_2
Al0 Rh4 2.536881 1_555
Al0 Rh5 2.536881 1_555
Al0 Tm0 3.048557 1_445
Al0 Tm2 3.048557 1_445
Al1 Rh4 2.536881 1_666
Al1 Rh5 2.536881 1_665
Al1 Tm1 3.048557 1_665
Al1 Tm3 3.048557 1_665
Al2 Rh0 2.524270 1_455
Al2 Rh1 2.598734 1_555
Al2 Rh4 2.601434 1_555
Al2 Tm2 3.014064 1_445
Al2 Tm0 3.025227 1_455
Al2 Tm1 3.044014 1_554
Al3 Rh1 2.524270 1_556
Al3 Rh0 2.598734 1_456
Al3 Rh4 2.601434 1_566
Al3 Tm3 3.014064 1_565
Al3 Tm1 3.025227 1_555
Al3 Tm0 3.044014 1_456
Al4 Rh2 2.524270 1_555
Al4 Rh3 2.598734 1_455
Al4 Rh5 2.601434 1_565
Al4 Tm3 3.014064 1_565
Al4 Tm1 3.025227 1_555
Al4 Tm0 3.044014 1_455
Al5 Rh2 2.524270 1_545
Al5 Rh3 2.598734 1_555
Al5 Rh5 2.601434 1_555
Al5 Tm0 3.014064 1_445
Al5 Tm2 3.025227 1_545
Al5 Tm3 3.044014 1_555
Al6 Rh3 2.524270 1_455
Al6 Rh2 2.598734 1_555
Al6 Rh5 2.601434 1_555
Al6 Tm2 3.014064 1_445
Al6 Tm0 3.025227 1_455
Al6 Tm1 3.044014 1_555
Al7 Rh3 2.524270 1_555
Al7 Rh2 2.598734 1_545
Al7 Rh5 2.601434 1_655
Al7 Tm1 3.014064 1_655
Al7 Tm3 3.025227 1_555
Al7 Tm2 3.044014 1_545
Al8 Rh0 2.524270 1_556
Al8 Rh1 2.598734 1_546
Al8 Rh4 2.601434 1_656
Al8 Tm1 3.014064 1_655
Al8 Tm3 3.025227 1_555
Al8 Tm2 3.044014 1_546
Al9 Rh1 2.524270 1_545
Al9 Rh0 2.598734 1_555
Al9 Rh4 2.601434 1_555
Al9 Tm0 3.014064 1_445
Al9 Tm2 3.025227 1_545
Al9 Tm3 3.044014 1_554
Al10 Rh5 2.557705 1_555
Al10 Rh3 2.600725 1_555
Al10 Rh2 2.600725 1_555
Al10 Tm3 3.065778 1_555
Al10 Tm1 3.065778 1_555
Al11 Rh5 2.557705 1_665
Al11 Rh2 2.600725 1_555
Al11 Rh3 2.600725 1_555
Al11 Tm0 3.065778 1_555
Al11 Tm2 3.065778 1_555
Al12 Rh4 2.557705 1_665
Al12 Rh0 2.600725 1_555
Al12 Rh1 2.600725 1_555
Al12 Tm0 3.065778 1_555
Al12 Tm2 3.065778 1_555
Al13 Rh4 2.557705 1_556
Al13 Rh0 2.600725 1_556
Al13 Rh1 2.600725 1_556
Al13 Tm3 3.065778 1_555
Al13 Tm1 3.065778 1_555
Al14 Rh2 2.532288 1_555
Al14 Rh1 2.532288 1_555
Al14 Tm2 3.017922 1_555
Al14 Tm0 3.131967 1_455
Al15 Rh0 2.532288 1_556
Al15 Rh3 2.532288 1_555
Al15 Tm3 3.017922 1_555
Al15 Tm1 3.131967 1_655
Al16 Rh3 2.532288 1_555
Al16 Rh0 2.532288 1_555
Al16 Tm0 3.017922 1_555
Al16 Tm2 3.131967 1_545
Al17 Rh2 2.532288 1_555
Al17 Rh1 2.532288 1_556
Al17 Tm1 3.017922 1_555
Al17 Tm3 3.131967 1_565
Rh0 Tm2 3.416785 1_545
Rh0 Tm1 3.416785 1_654
Rh0 Tm0 3.440468 1_555
Rh0 Tm3 3.440468 1_554
Rh1 Tm0 3.416785 1_455
Rh1 Tm3 3.416785 1_564
Rh1 Tm1 3.440468 1_554
Rh1 Tm2 3.440468 1_555
Rh2 Tm0 3.416785 1_455
Rh2 Tm3 3.416785 1_565
Rh2 Tm1 3.440468 1_555
Rh2 Tm2 3.440468 1_555
Rh3 Tm2 3.416785 1_545
Rh3 Tm1 3.416785 1_655
Rh3 Tm3 3.440468 1_555
Rh3 Tm0 3.440468 1_555
Rh4 Tm0 3.372857 1_445
Rh4 Tm1 3.372857 1_554
Rh4 Tm2 3.372857 1_445
Rh4 Tm3 3.372857 1_554
Rh5 Tm0 3.372857 1_445
Rh5 Tm3 3.372857 1_555
Rh5 Tm1 3.372857 1_555
Rh5 Tm2 3.372857 1_445
