# generated using pymatgen
data_La2Al(BOs)2
_symmetry_space_group_name_H-M   'P 1'
_cell_length_a   6.10227306
_cell_length_b   8.87360879
_cell_length_c   10.45788058
_cell_angle_alpha   112.01712367
_cell_angle_beta   90.01628811
_cell_angle_gamma   110.10870684
_symmetry_Int_Tables_number   1
_chemical_formula_structural   La2Al(BOs)2
_chemical_formula_sum   'La8 Al4 B8 Os8'
_cell_volume   487.52850289
_cell_formula_units_Z   4
loop_
 _symmetry_equiv_pos_site_id
 _symmetry_equiv_pos_as_xyz
  1  'x, y, z'
loop_
 _atom_site_type_symbol
 _atom_site_label
 _atom_site_symmetry_multiplicity
 _atom_site_fract_x
 _atom_site_fract_y
 _atom_site_fract_z
 _atom_site_occupancy
  La  La0  1  0.08631300  0.50755400  0.15028200  1
  La  La1  1  0.57898100  0.49264000  0.34966000  1
  La  La2  1  0.91367300  0.49243000  0.84971200  1
  La  La3  1  0.42102200  0.50736600  0.65033400  1
  La  La4  1  0.65558300  0.11073300  0.16699100  1
  La  La5  1  0.54462100  0.88918400  0.33299400  1
  La  La6  1  0.34440900  0.88927500  0.83300600  1
  La  La7  1  0.45536800  0.11081000  0.66701200  1
  Al  Al0  1  0.02674800  0.85570700  0.39983000  1
  Al  Al1  1  0.17093500  0.14418400  0.10015500  1
  Al  Al2  1  0.97325500  0.14429700  0.60017400  1
  Al  Al3  1  0.82906500  0.85581800  0.89984200  1
  B  B0  1  0.26905400  0.77517200  0.05921800  1
  B  B1  1  0.49359800  0.22483700  0.44079700  1
  B  B2  1  0.73094100  0.22482500  0.94077400  1
  B  B3  1  0.50639800  0.77516600  0.55921100  1
  B  B4  1  0.09671700  0.38538300  0.38272600  1
  B  B5  1  0.71162700  0.61463500  0.11729200  1
  B  B6  1  0.90328500  0.61461200  0.61727600  1
  B  B7  1  0.28837500  0.38536300  0.88270700  1
  Os  Os0  1  0.99626300  0.84433100  0.13198600  1
  Os  Os1  1  0.15165800  0.15558000  0.36801900  1
  Os  Os2  1  0.00376000  0.15572000  0.86804800  1
  Os  Os3  1  0.84831000  0.84439200  0.63195900  1
  Os  Os4  1  0.15978800  0.65734000  0.48394900  1
  Os  Os5  1  0.50265800  0.34291200  0.01631300  1
  Os  Os6  1  0.84024200  0.34264600  0.51604200  1
  Os  Os7  1  0.49735300  0.65708900  0.98369200  1
loop_
_geom_bond_atom_site_label_1
_geom_bond_atom_site_label_2
_geom_bond_distance
_geom_bond_site_symmetry_2
La0 Os4 3.202475 1_555
La1 Os5 3.199367 1_555
La2 Os6 3.202506 1_555
La3 Os7 3.199476 1_555
Al0 Os4 2.583525 1_555
Al0 Os1 2.653597 1_565
Al0 Os3 2.682898 1_455
Al0 Al2 2.758000 1_465
Al0 Os0 2.768689 1_455
Al0 La5 3.160385 1_455
Al0 La5 3.174130 1_555
Al0 La1 3.286267 1_455
Al0 La7 3.309841 1_565
Al0 La0 3.348851 1_555
Al1 Os5 2.584942 1_555
Al1 Os0 2.653461 1_445
Al1 Os2 2.683262 1_554
Al1 Al3 2.756108 1_444
Al1 Os1 2.768982 1_555
Al1 La4 3.159349 1_455
Al1 La4 3.175091 1_555
Al1 La0 3.288761 1_555
Al1 La6 3.309449 1_544
Al1 La1 3.349995 1_555
Al2 Os6 2.583370 1_555
Al2 Os3 2.653718 1_545
Al2 Os1 2.682997 1_655
Al2 Os2 2.768856 1_655
Al2 La7 3.160352 1_655
Al2 La7 3.174203 1_555
Al2 La3 3.286300 1_655
Al2 La5 3.309885 1_545
Al2 La2 3.348731 1_555
Al3 Os7 2.584960 1_555
Al3 Os2 2.653672 1_665
Al3 Os0 2.683451 1_556
Al3 Os3 2.769082 1_555
Al3 La6 3.159293 1_655
Al3 La6 3.175164 1_555
Al3 La2 3.288868 1_555
Al3 La4 3.309501 1_566
Al3 La3 3.349987 1_555
B0 Os7 2.011586 1_554
B0 Os0 2.019848 1_455
B0 La0 2.768611 1_555
B0 La2 2.816510 1_454
B0 La6 2.882625 1_554
B0 La4 2.890167 1_565
B0 La5 2.950320 1_555
B1 Os6 2.012058 1_555
B1 Os1 2.019297 1_555
B1 La1 2.770222 1_555
B1 La3 2.815722 1_555
B1 La7 2.882297 1_555
B1 La5 2.891257 1_545
B1 La4 2.952546 1_555
B2 Os5 2.011550 1_556
B2 Os2 2.019677 1_655
B2 La2 2.768493 1_555
B2 La0 2.816455 1_656
B2 La4 2.882617 1_556
B2 La6 2.890116 1_545
B2 La7 2.950207 1_555
B3 Os4 2.011914 1_555
B3 Os3 2.019109 1_555
B3 La3 2.770105 1_555
B3 La1 2.815790 1_555
B3 La5 2.882269 1_555
B3 La7 2.891203 1_565
B3 La6 2.952464 1_555
B4 Os6 2.127591 1_455
B4 Os1 2.128213 1_555
B4 Os4 2.130307 1_555
B4 La1 2.829757 1_555
B4 La0 3.018532 1_555
B4 La3 3.028690 1_555
B4 La4 3.104684 1_455
B5 Os0 2.127353 1_555
B5 Os5 2.128608 1_555
B5 Os7 2.129793 1_554
B5 La0 2.826463 1_655
B5 La1 3.017173 1_555
B5 La2 3.028659 1_554
B5 La5 3.106523 1_555
B6 Os4 2.127776 1_655
B6 Os3 2.128185 1_555
B6 Os6 2.130422 1_555
B6 La3 2.829728 1_555
B6 La2 3.018505 1_555
B6 La1 3.028774 1_555
B6 La6 3.104650 1_655
B7 Os2 2.127090 1_555
B7 Os7 2.128644 1_555
B7 Os5 2.129859 1_556
B7 La2 2.826485 1_455
B7 La3 3.017263 1_555
B7 La0 3.028651 1_556
B7 La7 3.106466 1_555
