# generated using pymatgen
data_CsLaCdTe3
_symmetry_space_group_name_H-M   'P 1'
_cell_length_a   8.83665743
_cell_length_b   8.83665743
_cell_length_c   12.28456919
_cell_angle_alpha   90.00000000
_cell_angle_beta   90.00000000
_cell_angle_gamma   149.08221441
_symmetry_Int_Tables_number   1
_chemical_formula_structural   CsLaCdTe3
_chemical_formula_sum   'Cs2 La2 Cd2 Te6'
_cell_volume   492.87464829
_cell_formula_units_Z   2
loop_
 _symmetry_equiv_pos_site_id
 _symmetry_equiv_pos_as_xyz
  1  'x, y, z'
loop_
 _atom_site_type_symbol
 _atom_site_label
 _atom_site_symmetry_multiplicity
 _atom_site_fract_x
 _atom_site_fract_y
 _atom_site_fract_z
 _atom_site_occupancy
  Cs  Cs0  1  0.25070134  0.74929866  0.75000000  1
  Cs  Cs1  1  0.74929866  0.25070134  0.25000000  1
  La  La0  1  0.00000000  -0.00000000  0.50000000  1
  La  La1  1  0.00000000  -0.00000000  0.00000000  1
  Cd  Cd0  1  0.53471973  0.46528027  0.75000000  1
  Cd  Cd1  1  0.46528027  0.53471973  0.25000000  1
  Te  Te0  1  0.37528770  0.62471230  0.44277582  1
  Te  Te1  1  0.62471230  0.37528770  0.55722418  1
  Te  Te2  1  0.62471230  0.37528770  0.94277582  1
  Te  Te3  1  0.37528770  0.62471230  0.05722418  1
  Te  Te4  1  0.93369363  0.06630637  0.75000000  1
  Te  Te5  1  0.06630637  0.93369363  0.25000000  1
loop_
_geom_bond_atom_site_label_1
_geom_bond_atom_site_label_2
_geom_bond_distance
_geom_bond_site_symmetry_2
Cs0 Te4 3.906918 1_455
Cs0 Te4 3.906918 1_565
Cs0 Te1 3.970107 1_565
Cs0 Te2 3.970107 1_565
Cs0 Te1 3.970107 1_455
Cs0 Te2 3.970107 1_455
Cs0 Te3 4.329858 1_556
Cs0 Te0 4.329858 1_555
Cs1 Te5 3.906918 1_545
Cs1 Te5 3.906918 1_655
Cs1 Te0 3.970107 1_655
Cs1 Te3 3.970107 1_655
Cs1 Te3 3.970107 1_545
Cs1 Te0 3.970107 1_545
Cs1 Te1 4.329858 1_555
Cs1 Te2 4.329858 1_554
La0 Te0 3.248820 1_445
La0 Te0 3.248820 1_555
La0 Te1 3.248820 1_445
La0 Te1 3.248820 1_555
La0 Te4 3.272245 1_455
La0 Te5 3.272245 1_545
La1 Te3 3.248820 1_555
La1 Te3 3.248820 1_445
La1 Te2 3.248820 1_554
La1 Te2 3.248820 1_444
La1 Te4 3.272245 1_454
La1 Te5 3.272245 1_545
Cd0 Te2 2.821008 1_555
Cd0 Te1 2.821008 1_555
Cd0 Te4 2.917059 1_565
Cd0 Te4 2.917059 1_455
Cd1 Te3 2.821008 1_555
Cd1 Te0 2.821008 1_555
Cd1 Te5 2.917059 1_655
Cd1 Te5 2.917059 1_545
