# generated using pymatgen
data_Lu5Si3B
_symmetry_space_group_name_H-M   'P 1'
_cell_length_a   8.33378653
_cell_length_b   8.33378653
_cell_length_c   6.16425300
_cell_angle_alpha   90.00000000
_cell_angle_beta   90.00000000
_cell_angle_gamma   120.00000422
_symmetry_Int_Tables_number   1
_chemical_formula_structural   Lu5Si3B
_chemical_formula_sum   'Lu10 Si6 B2'
_cell_volume   370.76250884
_cell_formula_units_Z   2
loop_
 _symmetry_equiv_pos_site_id
 _symmetry_equiv_pos_as_xyz
  1  'x, y, z'
loop_
 _atom_site_type_symbol
 _atom_site_label
 _atom_site_symmetry_multiplicity
 _atom_site_fract_x
 _atom_site_fract_y
 _atom_site_fract_z
 _atom_site_occupancy
  Lu  Lu0  1  0.76130000  0.76130000  0.25000000  1
  Lu  Lu1  1  0.76130000  0.00000000  0.75000000  1
  Lu  Lu2  1  0.00000000  0.23870000  0.25000000  1
  Lu  Lu3  1  0.00000000  0.76130000  0.75000000  1
  Lu  Lu4  1  0.23870000  0.23870000  0.75000000  1
  Lu  Lu5  1  0.23870000  0.00000000  0.25000000  1
  Lu  Lu6  1  0.66666700  0.33333300  0.00000000  1
  Lu  Lu7  1  0.33333300  0.66666700  0.50000000  1
  Lu  Lu8  1  0.33333300  0.66666700  0.00000000  1
  Lu  Lu9  1  0.66666700  0.33333300  0.50000000  1
  Si  Si0  1  0.40068600  0.00000000  0.75000000  1
  Si  Si1  1  0.40068600  0.40068600  0.25000000  1
  Si  Si2  1  0.00000000  0.59931400  0.25000000  1
  Si  Si3  1  0.00000000  0.40068600  0.75000000  1
  Si  Si4  1  0.59931400  0.59931400  0.75000000  1
  Si  Si5  1  0.59931400  0.00000000  0.25000000  1
  B  B0  1  0.00000000  0.00000000  0.50000000  1
  B  B1  1  0.00000000  0.00000000  0.00000000  1
loop_
_geom_bond_atom_site_label_1
_geom_bond_atom_site_label_2
_geom_bond_distance
_geom_bond_site_symmetry_2
Lu0 Si5 2.909473 1_565
Lu0 Si2 2.909473 1_655
Lu0 Si1 3.005280 1_555
Lu0 Si4 3.364801 1_555
Lu0 Si4 3.364801 1_554
Lu1 Si3 2.909473 1_655
Lu1 Si4 2.909473 1_545
Lu1 Si0 3.005280 1_555
Lu1 Si5 3.364801 1_555
Lu1 Si5 3.364801 1_556
Lu2 Si5 2.909473 1_455
Lu2 Si1 2.909473 1_555
Lu2 Si2 3.005280 1_555
Lu2 Si3 3.364801 1_554
Lu2 Si3 3.364801 1_555
Lu3 Si0 2.909473 1_565
Lu3 Si4 2.909473 1_455
Lu3 Si3 3.005280 1_555
Lu3 Si2 3.364801 1_556
Lu3 Si2 3.364801 1_555
Lu4 Si3 2.909473 1_555
Lu4 Si0 2.909473 1_555
Lu4 Si4 3.005280 1_555
Lu4 Si1 3.364801 1_555
Lu4 Si1 3.364801 1_556
Lu5 Si2 2.909473 1_545
Lu5 Si1 2.909473 1_555
Lu5 Si5 3.005280 1_555
Lu5 Si0 3.364801 1_555
Lu5 Si0 3.364801 1_554
Lu6 Si3 2.974483 1_654
Lu6 Si5 2.974483 1_555
Lu6 Si0 2.974485 1_554
Lu6 Si2 2.974485 1_655
Lu6 Si4 2.974490 1_554
Lu6 Si1 2.974490 1_555
Lu7 Si2 2.974483 1_555
Lu7 Si0 2.974483 1_565
Lu7 Si3 2.974485 1_555
Lu7 Si5 2.974485 1_565
Lu7 Si1 2.974490 1_555
Lu7 Si4 2.974490 1_555
Lu8 Si2 2.974483 1_555
Lu8 Si0 2.974483 1_564
Lu8 Si5 2.974485 1_565
Lu8 Si3 2.974485 1_554
Lu8 Si4 2.974490 1_554
Lu8 Si1 2.974490 1_555
Lu9 Si3 2.974483 1_655
Lu9 Si5 2.974483 1_555
Lu9 Si0 2.974485 1_555
Lu9 Si2 2.974485 1_655
Lu9 Si1 2.974490 1_555
Lu9 Si4 2.974490 1_555
B0 Lu0 2.516364 1_445
B0 Lu4 2.516364 1_555
B0 Lu3 2.516365 1_545
B0 Lu1 2.516365 1_455
B0 Lu5 2.516365 1_555
B0 Lu2 2.516365 1_555
B1 Lu0 2.516364 1_445
B1 Lu4 2.516364 1_554
B1 Lu3 2.516365 1_544
B1 Lu1 2.516365 1_454
B1 Lu5 2.516365 1_555
B1 Lu2 2.516365 1_555
