# generated using pymatgen
data_LiH2N
_symmetry_space_group_name_H-M   'P 1'
_cell_length_a   3.41003100
_cell_length_b   5.81231000
_cell_length_c   6.52452900
_cell_angle_alpha   90.00000000
_cell_angle_beta   90.00000000
_cell_angle_gamma   90.00000000
_symmetry_Int_Tables_number   1
_chemical_formula_structural   LiH2N
_chemical_formula_sum   'Li4 H8 N4'
_cell_volume   129.31719097
_cell_formula_units_Z   4
loop_
 _symmetry_equiv_pos_site_id
 _symmetry_equiv_pos_as_xyz
  1  'x, y, z'
loop_
 _atom_site_type_symbol
 _atom_site_label
 _atom_site_symmetry_multiplicity
 _atom_site_fract_x
 _atom_site_fract_y
 _atom_site_fract_z
 _atom_site_occupancy
  Li  Li0  1  0.85160700  0.35739600  0.95093200  1
  Li  Li1  1  0.14839300  0.85739600  0.04906800  1
  Li  Li2  1  0.35160700  0.85739600  0.54906800  1
  Li  Li3  1  0.64839300  0.35739600  0.45093200  1
  H  H0  1  0.81157100  0.68221600  0.75554100  1
  H  H1  1  0.18842900  0.18221600  0.24445900  1
  H  H2  1  0.31157100  0.18221600  0.74445900  1
  H  H3  1  0.68842900  0.68221600  0.25554100  1
  H  H4  1  0.93494700  0.05007000  0.41685500  1
  H  H5  1  0.06505300  0.55007000  0.58314500  1
  H  H6  1  0.43494700  0.55007000  0.08314500  1
  H  H7  1  0.56505300  0.05007000  0.91685500  1
  N  N0  1  0.83032100  0.66030800  0.59862100  1
  N  N1  1  0.16967900  0.16030800  0.40137900  1
  N  N2  1  0.33032100  0.16030800  0.90137900  1
  N  N3  1  0.66967900  0.66030800  0.09862100  1
loop_
_geom_bond_atom_site_label_1
_geom_bond_atom_site_label_2
_geom_bond_distance
_geom_bond_site_symmetry_2
Li0 N2 2.020299 1_655
Li0 N3 2.100756 1_556
Li0 N2 2.139311 1_555
Li1 N3 2.020299 1_455
Li1 N2 2.100756 1_564
Li1 N3 2.139311 1_555
Li2 N0 2.020299 1_555
Li2 N1 2.100756 1_565
Li2 N0 2.139311 1_455
Li3 N1 2.020299 1_555
Li3 N0 2.100756 1_555
Li3 N1 2.139311 1_655
H0 N0 1.033697 1_555
H0 Li0 2.282151 1_555
H1 N1 1.033697 1_555
H1 Li1 2.282151 1_545
H2 N2 1.033697 1_555
H2 Li2 2.282151 1_545
H3 N3 1.033697 1_555
H3 Li3 2.282151 1_555
H4 N1 1.030267 1_655
H4 Li2 2.004245 1_645
H4 Li3 2.048181 1_555
H5 N0 1.030267 1_455
H5 Li3 2.004245 1_455
H5 Li2 2.048181 1_555
H6 N3 1.030267 1_555
H6 Li0 2.004245 1_554
H6 Li1 2.048181 1_555
H7 N2 1.030267 1_555
H7 Li1 2.004245 1_546
H7 Li0 2.048181 1_555
