# generated using pymatgen
data_CsTm2Cl7
_symmetry_space_group_name_H-M   'P 1'
_cell_length_a   6.89701224
_cell_length_b   12.47929153
_cell_length_c   13.66582839
_cell_angle_alpha   90.00000000
_cell_angle_beta   90.00000000
_cell_angle_gamma   90.00000000
_symmetry_Int_Tables_number   1
_chemical_formula_structural   CsTm2Cl7
_chemical_formula_sum   'Cs4 Tm8 Cl28'
_cell_volume   1176.21547753
_cell_formula_units_Z   4
loop_
 _symmetry_equiv_pos_site_id
 _symmetry_equiv_pos_as_xyz
  1  'x, y, z'
loop_
 _atom_site_type_symbol
 _atom_site_label
 _atom_site_symmetry_multiplicity
 _atom_site_fract_x
 _atom_site_fract_y
 _atom_site_fract_z
 _atom_site_occupancy
  Cs  Cs0  1  0.25000000  0.79694157  0.03757700  1
  Cs  Cs1  1  0.75000000  0.20305843  0.96242300  1
  Cs  Cs2  1  0.75000000  0.29694157  0.46242300  1
  Cs  Cs3  1  0.25000000  0.70305843  0.53757700  1
  Tm  Tm0  1  0.25000000  0.45259186  0.24310372  1
  Tm  Tm1  1  0.75000000  0.54740814  0.75689628  1
  Tm  Tm2  1  0.75000000  0.95259186  0.25689628  1
  Tm  Tm3  1  0.25000000  0.04740814  0.74310372  1
  Tm  Tm4  1  0.25000000  0.14918236  0.25012113  1
  Tm  Tm5  1  0.75000000  0.85081764  0.74987887  1
  Tm  Tm6  1  0.75000000  0.64918236  0.24987887  1
  Tm  Tm7  1  0.25000000  0.35081764  0.75012113  1
  Cl  Cl0  1  0.00926030  0.29992352  0.18313044  1
  Cl  Cl1  1  0.99073970  0.70007648  0.81686956  1
  Cl  Cl2  1  0.99073970  0.79992352  0.31686956  1
  Cl  Cl3  1  0.50926030  0.70007648  0.81686956  1
  Cl  Cl4  1  0.00926030  0.20007648  0.68313044  1
  Cl  Cl5  1  0.49073970  0.29992352  0.18313044  1
  Cl  Cl6  1  0.49073970  0.20007648  0.68313044  1
  Cl  Cl7  1  0.50926030  0.79992352  0.31686956  1
  Cl  Cl8  1  0.00900918  0.56590735  0.12934089  1
  Cl  Cl9  1  0.99099082  0.43409265  0.87065911  1
  Cl  Cl10  1  0.99099082  0.06590735  0.37065911  1
  Cl  Cl11  1  0.50900918  0.43409265  0.87065911  1
  Cl  Cl12  1  0.00900918  0.93409265  0.62934089  1
  Cl  Cl13  1  0.49099082  0.56590735  0.12934089  1
  Cl  Cl14  1  0.49099082  0.93409265  0.62934089  1
  Cl  Cl15  1  0.50900918  0.06590735  0.37065911  1
  Cl  Cl16  1  0.00989687  0.03487373  0.13422808  1
  Cl  Cl17  1  0.99010313  0.96512627  0.86577192  1
  Cl  Cl18  1  0.99010313  0.53487373  0.36577192  1
  Cl  Cl19  1  0.50989687  0.96512627  0.86577192  1
  Cl  Cl20  1  0.00989687  0.46512627  0.63422808  1
  Cl  Cl21  1  0.49010313  0.03487373  0.13422808  1
  Cl  Cl22  1  0.49010313  0.46512627  0.63422808  1
  Cl  Cl23  1  0.50989687  0.53487373  0.36577192  1
  Cl  Cl24  1  0.25000000  0.30262805  0.38982705  1
  Cl  Cl25  1  0.75000000  0.69737195  0.61017295  1
  Cl  Cl26  1  0.75000000  0.80262805  0.11017295  1
  Cl  Cl27  1  0.25000000  0.19737195  0.88982705  1
loop_
_geom_bond_atom_site_label_1
_geom_bond_atom_site_label_2
_geom_bond_distance
_geom_bond_site_symmetry_2
Cl0 Tm0 2.656757 1_555
Cl0 Tm4 2.670896 1_555
Cl0 Cs1 3.708875 1_454
Cl1 Tm1 2.656757 1_555
Cl1 Tm5 2.670896 1_555
Cl1 Cs0 3.708875 1_656
Cl2 Tm2 2.656757 1_555
Cl2 Tm6 2.670896 1_555
Cl2 Cs3 3.708875 1_655
Cl3 Tm1 2.656757 1_555
Cl3 Tm5 2.670896 1_555
Cl3 Cs0 3.708875 1_556
Cl4 Tm3 2.656757 1_555
Cl4 Tm7 2.670896 1_555
Cl4 Cs2 3.708875 1_455
Cl5 Tm0 2.656757 1_555
Cl5 Tm4 2.670896 1_555
Cl5 Cs1 3.708875 1_554
Cl6 Tm3 2.656757 1_555
Cl6 Tm7 2.670896 1_555
Cl6 Cs2 3.708875 1_555
Cl7 Tm2 2.656757 1_555
Cl7 Tm6 2.670896 1_555
Cl7 Cs3 3.708875 1_555
Cl8 Tm6 2.642837 1_455
Cl8 Tm0 2.679418 1_555
Cl8 Cs0 3.556366 1_555
Cl9 Tm7 2.642837 1_655
Cl9 Tm1 2.679418 1_555
Cl9 Cs1 3.556366 1_555
Cl10 Tm4 2.642837 1_655
Cl10 Tm2 2.679418 1_545
Cl10 Cs2 3.556366 1_555
Cl11 Tm7 2.642837 1_555
Cl11 Tm1 2.679418 1_555
Cl11 Cs1 3.556366 1_555
Cl12 Tm5 2.642837 1_455
Cl12 Tm3 2.679418 1_565
Cl12 Cs3 3.556366 1_555
Cl13 Tm6 2.642837 1_555
Cl13 Tm0 2.679418 1_555
Cl13 Cs0 3.556366 1_555
Cl14 Tm5 2.642837 1_555
Cl14 Tm3 2.679418 1_565
Cl14 Cs3 3.556366 1_555
Cl15 Tm4 2.642837 1_555
Cl15 Tm2 2.679418 1_545
Cl15 Cs2 3.556366 1_555
Cl16 Tm2 2.660385 1_445
Cl16 Tm4 2.699173 1_555
Cl16 Cs1 3.623618 1_454
Cl16 Cs0 3.647351 1_545
Cl17 Tm3 2.660385 1_665
Cl17 Tm5 2.699173 1_555
Cl17 Cs0 3.623618 1_656
Cl17 Cs1 3.647351 1_565
Cl18 Tm0 2.660385 1_655
Cl18 Tm6 2.699173 1_555
Cl18 Cs3 3.623618 1_655
Cl18 Cs2 3.647351 1_555
Cl19 Tm3 2.660385 1_565
Cl19 Tm5 2.699173 1_555
Cl19 Cs0 3.623618 1_556
Cl19 Cs1 3.647351 1_565
Cl20 Tm1 2.660385 1_455
Cl20 Tm7 2.699173 1_555
Cl20 Cs2 3.623618 1_455
Cl20 Cs3 3.647351 1_555
Cl21 Tm2 2.660385 1_545
Cl21 Tm4 2.699173 1_555
Cl21 Cs1 3.623618 1_554
Cl21 Cs0 3.647351 1_545
Cl22 Tm1 2.660385 1_555
Cl22 Tm7 2.699173 1_555
Cl22 Cs2 3.623618 1_555
Cl22 Cs3 3.647351 1_555
Cl23 Tm0 2.660385 1_555
Cl23 Tm6 2.699173 1_555
Cl23 Cs3 3.623618 1_555
Cl23 Cs2 3.647351 1_555
Cl24 Tm4 2.704043 1_555
Cl24 Tm0 2.742755 1_555
Cl24 Cs2 3.589075 1_455
Cl24 Cs2 3.589075 1_555
Cl25 Tm5 2.704043 1_555
Cl25 Tm1 2.742755 1_555
Cl25 Cs3 3.589075 1_555
Cl25 Cs3 3.589075 1_655
Cl26 Tm6 2.704043 1_555
Cl26 Tm2 2.742755 1_555
Cl26 Cs0 3.589075 1_555
Cl26 Cs0 3.589075 1_655
Cl27 Tm7 2.704043 1_555
Cl27 Tm3 2.742755 1_555
Cl27 Cs1 3.589075 1_455
Cl27 Cs1 3.589075 1_555
