# generated using pymatgen
data_Ti3As2POs3
_symmetry_space_group_name_H-M   'P 1'
_cell_length_a   2.97665800
_cell_length_b   7.13935294
_cell_length_c   7.13935326
_cell_angle_alpha   59.62639660
_cell_angle_beta   90.00000000
_cell_angle_gamma   90.00000000
_symmetry_Int_Tables_number   1
_chemical_formula_structural   Ti3As2POs3
_chemical_formula_sum   'Ti3 As2 P1 Os3'
_cell_volume   130.89708526
_cell_formula_units_Z   1
loop_
 _symmetry_equiv_pos_site_id
 _symmetry_equiv_pos_as_xyz
  1  'x, y, z'
loop_
 _atom_site_type_symbol
 _atom_site_label
 _atom_site_symmetry_multiplicity
 _atom_site_fract_x
 _atom_site_fract_y
 _atom_site_fract_z
 _atom_site_occupancy
  Ti  Ti0  1  0.50000000  0.62915600  0.37084400  1
  Ti  Ti1  1  0.50000000  0.37139700  0.99993800  1
  Ti  Ti2  1  0.50000000  0.00006200  0.62860300  1
  As  As0  1  0.00000000  0.33348400  0.33372300  1
  As  As1  1  0.00000000  0.66627700  0.66651600  1
  P  P0  1  0.50000000  0.99905900  0.00094100  1
  Os  Os0  1  0.00000000  0.28539800  0.71460200  1
  Os  Os1  1  0.00000000  0.71423700  0.99917000  1
  Os  Os2  1  0.00000000  0.00083000  0.28576300  1
loop_
_geom_bond_atom_site_label_1
_geom_bond_atom_site_label_2
_geom_bond_distance
_geom_bond_site_symmetry_2
As0 Os1 2.555056 1_554
As0 Os0 2.562816 1_555
As0 Os2 2.565133 1_555
As0 Ti2 2.691789 1_455
As0 Ti2 2.691789 1_555
As0 Ti0 2.703151 1_555
As0 Ti0 2.703151 1_455
As0 Ti1 2.704594 1_454
As0 Ti1 2.704594 1_554
As1 Os2 2.555056 1_565
As1 Os0 2.562816 1_555
As1 Os1 2.565133 1_555
As1 Ti1 2.691789 1_455
As1 Ti1 2.691789 1_555
As1 Ti0 2.703151 1_455
As1 Ti0 2.703151 1_555
As1 Ti2 2.704594 1_465
As1 Ti2 2.704594 1_565
P0 Ti0 2.625941 1_555
P0 Ti1 2.654639 1_564
P0 Ti2 2.654639 1_564
Os0 P0 2.519340 1_546
Os0 P0 2.519340 1_446
Os0 Ti2 2.829623 1_455
Os0 Ti2 2.829623 1_555
Os0 Ti1 2.829623 1_455
Os0 Ti1 2.829623 1_555
Os0 Ti0 2.858386 1_555
Os0 Ti0 2.858386 1_455
Os1 P0 2.525110 1_556
Os1 P0 2.525110 1_456
Os1 Ti2 2.814061 1_465
Os1 Ti2 2.814061 1_565
Os1 Ti0 2.827585 1_556
Os1 Ti0 2.827585 1_456
Os1 Ti1 2.862272 1_455
Os1 Ti1 2.862272 1_555
Os2 P0 2.525110 1_445
Os2 P0 2.525110 1_545
Os2 Ti1 2.814061 1_554
Os2 Ti1 2.814061 1_454
Os2 Ti0 2.827585 1_545
Os2 Ti0 2.827585 1_445
Os2 Ti2 2.862272 1_455
Os2 Ti2 2.862272 1_555
