# generated using pymatgen
data_Sm4In21Pd10
_symmetry_space_group_name_H-M   'P 1'
_cell_length_a   11.81726287
_cell_length_b   11.81726287
_cell_length_c   17.34613761
_cell_angle_alpha   56.14796007
_cell_angle_beta   56.14796007
_cell_angle_gamma   21.91203081
_symmetry_Int_Tables_number   1
_chemical_formula_structural   Sm4In21Pd10
_chemical_formula_sum   'Sm4 In21 Pd10'
_cell_volume   744.37903161
_cell_formula_units_Z   1
loop_
 _symmetry_equiv_pos_site_id
 _symmetry_equiv_pos_as_xyz
  1  'x, y, z'
loop_
 _atom_site_type_symbol
 _atom_site_label
 _atom_site_symmetry_multiplicity
 _atom_site_fract_x
 _atom_site_fract_y
 _atom_site_fract_z
 _atom_site_occupancy
  Sm  Sm0  1  0.23001985  0.23001985  0.67293133  1
  Sm  Sm1  1  0.76998015  0.76998015  0.32706867  1
  Sm  Sm2  1  0.87774379  0.87774379  0.83179092  1
  Sm  Sm3  1  0.12225621  0.12225621  0.16820908  1
  In  In0  1  0.50000000  0.50000000  -0.00000000  1
  In  In1  1  0.11599795  0.11599795  0.94883520  1
  In  In2  1  0.88400205  0.88400205  0.05116480  1
  In  In3  1  0.45784584  0.45784584  0.86670844  1
  In  In4  1  0.54215416  0.54215416  0.13329156  1
  In  In5  1  0.06345433  0.06345433  0.70394906  1
  In  In6  1  0.93654567  0.93654567  0.29605094  1
  In  In7  1  0.36881999  0.36881999  0.69839825  1
  In  In8  1  0.63118001  0.63118001  0.30160175  1
  In  In9  1  0.98844122  0.98844122  0.59380042  1
  In  In10  1  0.01155878  0.01155878  0.40619958  1
  In  In11  1  0.74863599  0.74863599  0.79408575  1
  In  In12  1  0.25136401  0.25136401  0.20591425  1
  In  In13  1  0.61633568  0.61633568  0.79470336  1
  In  In14  1  0.38366432  0.38366432  0.20529664  1
  In  In15  1  0.60132943  0.60132943  0.50339052  1
  In  In16  1  0.39867057  0.39867057  0.49660948  1
  In  In17  1  0.20173394  0.20173394  0.49637114  1
  In  In18  1  0.79826606  0.79826606  0.50362886  1
  In  In19  1  0.70106854  0.70106854  -0.00002196  1
  In  In20  1  0.29893146  0.29893146  0.00002196  1
  Pd  Pd0  1  0.25089133  0.25089133  0.88492958  1
  Pd  Pd1  1  0.74910867  0.74910867  0.11507042  1
  Pd  Pd2  1  0.02499143  0.02499143  0.88936279  1
  Pd  Pd3  1  0.97500857  0.97500857  0.11063721  1
  Pd  Pd4  1  0.65322377  0.65322377  0.61340887  1
  Pd  Pd5  1  0.34677623  0.34677623  0.38659113  1
  Pd  Pd6  1  0.86154809  0.86154809  0.60637730  1
  Pd  Pd7  1  0.13845191  0.13845191  0.39362270  1
  Pd  Pd8  1  0.49362569  0.49362569  0.68674101  1
  Pd  Pd9  1  0.50637431  0.50637431  0.31325899  1
loop_
_geom_bond_atom_site_label_1
_geom_bond_atom_site_label_2
_geom_bond_distance
_geom_bond_site_symmetry_2
In0 Pd3 2.792966 1_545
In0 Pd3 2.792966 1_455
In0 Pd2 2.792966 1_654
In0 Pd2 2.792966 1_564
In1 Pd0 2.662435 1_555
In1 Pd2 2.827641 1_555
In1 Pd3 2.856639 1_446
In1 Sm3 3.889522 1_556
In2 Pd1 2.662435 1_555
In2 Pd3 2.827641 1_555
In2 Pd2 2.856639 1_664
In2 Sm2 3.889522 1_554
In3 Pd8 2.737418 1_555
In3 Pd2 2.884592 1_565
In3 Pd2 2.884592 1_655
In3 Sm2 3.184842 1_545
In3 Sm2 3.184842 1_455
In4 Pd9 2.737418 1_555
In4 Pd3 2.884592 1_455
In4 Pd3 2.884592 1_545
In4 Sm3 3.184842 1_565
In4 Sm3 3.184842 1_655
In5 Pd2 2.807712 1_555
In5 Pd4 2.852594 1_455
In5 Pd4 2.852594 1_545
In5 Pd8 2.882270 1_455
In5 Pd8 2.882270 1_545
In5 Sm2 3.555667 1_445
In5 Sm0 3.587132 1_555
In6 Pd3 2.807712 1_555
In6 Pd5 2.852594 1_565
In6 Pd5 2.852594 1_655
In6 Pd9 2.882270 1_655
In6 Pd9 2.882270 1_565
In6 Sm3 3.555667 1_665
In6 Sm1 3.587132 1_555
In7 Pd8 2.786209 1_555
In7 Pd0 2.812420 1_555
In7 Pd6 2.815353 1_455
In7 Pd6 2.815353 1_545
In7 Sm2 3.314315 1_545
In7 Sm2 3.314315 1_455
In7 Sm0 3.490338 1_555
In8 Pd9 2.786209 1_555
In8 Pd1 2.812420 1_555
In8 Pd7 2.815353 1_565
In8 Pd7 2.815353 1_655
In8 Sm3 3.314315 1_565
In8 Sm3 3.314315 1_655
In8 Sm1 3.490338 1_555
In9 Pd8 2.806748 1_655
In9 Pd8 2.806748 1_565
In9 Pd6 2.826329 1_555
In9 Pd7 3.233801 1_665
In9 Sm2 3.406894 1_555
In10 Pd9 2.806748 1_545
In10 Pd9 2.806748 1_455
In10 Pd7 2.826329 1_555
In10 Pd6 3.233801 1_445
In10 Sm3 3.406894 1_555
In11 Pd0 2.761096 1_655
In11 Pd0 2.761096 1_565
In11 Pd6 2.790242 1_555
In11 Sm0 3.267649 1_655
In11 Sm0 3.267649 1_565
In11 Sm2 3.409684 1_555
In12 Pd1 2.761096 1_545
In12 Pd1 2.761096 1_455
In12 Pd7 2.790242 1_555
In12 Sm1 3.267649 1_455
In12 Sm1 3.267649 1_545
In12 Sm3 3.409684 1_555
In13 Pd4 2.750930 1_555
In13 Pd2 2.878093 1_565
In13 Pd2 2.878093 1_655
In13 Sm0 3.184566 1_565
In13 Sm0 3.184566 1_655
In14 Pd5 2.750930 1_555
In14 Pd3 2.878093 1_545
In14 Pd3 2.878093 1_455
In14 Sm1 3.184566 1_545
In14 Sm1 3.184566 1_455
In15 Pd8 2.709456 1_555
In15 Pd7 2.747804 1_565
In15 Pd7 2.747804 1_655
In15 Pd4 2.774822 1_555
In15 In17 3.188248 1_565
In15 In17 3.188248 1_655
In15 Sm1 3.329631 1_555
In16 Pd9 2.709456 1_555
In16 Pd6 2.747804 1_455
In16 Pd6 2.747804 1_545
In16 Pd5 2.774822 1_555
In16 In18 3.188248 1_455
In16 In18 3.188248 1_545
In16 Sm0 3.329631 1_555
In17 Pd5 2.771340 1_555
In17 Pd4 2.799924 1_455
In17 Pd4 2.799924 1_545
In17 Pd7 2.881408 1_555
In17 In5 3.185858 1_555
In17 In18 3.224477 1_545
In17 In18 3.224477 1_455
In17 Sm1 3.301367 1_455
In17 Sm1 3.301367 1_545
In17 Sm0 3.477296 1_555
In18 Pd4 2.771340 1_555
In18 Pd5 2.799924 1_565
In18 Pd5 2.799924 1_655
In18 Pd6 2.881408 1_555
In18 In6 3.185858 1_555
In18 Sm0 3.301367 1_655
In18 Sm0 3.301367 1_565
In18 Sm1 3.477296 1_555
In19 Pd0 2.783030 1_654
In19 Pd0 2.783030 1_564
In19 Pd1 2.784528 1_555
In19 Sm3 3.293680 1_565
In19 Sm3 3.293680 1_655
In19 Sm2 3.427153 1_554
In20 Pd1 2.783030 1_455
In20 Pd1 2.783030 1_545
In20 Pd0 2.784528 1_554
In20 Sm2 3.293680 1_454
In20 Sm2 3.293680 1_544
In20 Sm3 3.427153 1_555
Pd0 Sm2 3.388059 1_545
Pd0 Sm2 3.388059 1_455
Pd1 Sm3 3.388059 1_565
Pd1 Sm3 3.388059 1_655
Pd4 Sm0 3.372453 1_565
Pd4 Sm0 3.372453 1_655
Pd5 Sm1 3.372453 1_455
Pd5 Sm1 3.372453 1_545
Pd6 Sm0 3.419525 1_655
Pd6 Sm0 3.419525 1_565
Pd7 Sm1 3.419525 1_545
Pd7 Sm1 3.419525 1_455
Pd8 Sm2 3.305698 1_545
Pd8 Sm2 3.305698 1_455
Pd9 Sm3 3.305698 1_565
Pd9 Sm3 3.305698 1_655
