# generated using pymatgen
data_SrMg6Ga
_symmetry_space_group_name_H-M   'P 1'
_cell_length_a   7.41642943
_cell_length_b   7.41642943
_cell_length_c   4.98268600
_cell_angle_alpha   90.00000000
_cell_angle_beta   90.00000000
_cell_angle_gamma   130.83989944
_symmetry_Int_Tables_number   1
_chemical_formula_structural   SrMg6Ga
_chemical_formula_sum   'Sr1 Mg6 Ga1'
_cell_volume   207.34094018
_cell_formula_units_Z   1
loop_
 _symmetry_equiv_pos_site_id
 _symmetry_equiv_pos_as_xyz
  1  'x, y, z'
loop_
 _atom_site_type_symbol
 _atom_site_label
 _atom_site_symmetry_multiplicity
 _atom_site_fract_x
 _atom_site_fract_y
 _atom_site_fract_z
 _atom_site_occupancy
  Sr  Sr0  1  0.80038200  0.19961800  0.50000000  1
  Mg  Mg0  1  0.30655400  0.17748100  0.50000000  1
  Mg  Mg1  1  0.82251900  0.69344600  0.50000000  1
  Mg  Mg2  1  0.18100400  0.32757200  0.00000000  1
  Mg  Mg3  1  0.67242800  0.81899600  0.00000000  1
  Mg  Mg4  1  0.63098500  0.36901500  0.00000000  1
  Mg  Mg5  1  0.20382700  0.79617300  0.00000000  1
  Ga  Ga0  1  0.38230200  0.61769800  0.50000000  1
loop_
_geom_bond_atom_site_label_1
_geom_bond_atom_site_label_2
_geom_bond_distance
_geom_bond_site_symmetry_2
Mg0 Mg4 3.089300 1_556
Mg0 Mg4 3.089300 1_555
Mg0 Mg2 3.109419 1_555
Mg0 Mg2 3.109419 1_556
Mg0 Sr0 3.557246 1_555
Mg1 Mg4 3.089300 1_556
Mg1 Mg4 3.089300 1_555
Mg1 Mg3 3.109419 1_555
Mg1 Mg3 3.109419 1_556
Mg1 Sr0 3.557246 1_555
Mg2 Mg3 3.032056 1_555
Mg2 Mg3 3.137882 1_445
Mg2 Mg4 3.144864 1_555
Mg2 Mg5 3.367092 1_555
Mg2 Sr0 3.401804 1_455
Mg2 Sr0 3.401804 1_454
Mg3 Mg4 3.144864 1_555
Mg3 Mg5 3.367092 1_555
Mg3 Sr0 3.401804 1_564
Mg3 Sr0 3.401804 1_565
Mg4 Mg5 3.237658 1_545
Mg4 Mg5 3.237658 1_655
Mg4 Sr0 3.380500 1_555
Mg4 Sr0 3.380500 1_554
Ga0 Mg0 2.928469 1_555
Ga0 Mg1 2.928469 1_555
Ga0 Mg2 2.977253 1_556
Ga0 Mg2 2.977253 1_555
Ga0 Mg3 2.977253 1_555
Ga0 Mg3 2.977253 1_556
Ga0 Sr0 3.276896 1_455
Ga0 Sr0 3.276896 1_565
