# generated using pymatgen
data_Zn2Cr2O5
_symmetry_space_group_name_H-M   'P 1'
_cell_length_a   3.76034300
_cell_length_b   5.34533300
_cell_length_c   10.25536000
_cell_angle_alpha   90.00000000
_cell_angle_beta   90.00000000
_cell_angle_gamma   90.00000000
_symmetry_Int_Tables_number   1
_chemical_formula_structural   Zn2Cr2O5
_chemical_formula_sum   'Zn4 Cr4 O10'
_cell_volume   206.13566420
_cell_formula_units_Z   2
loop_
 _symmetry_equiv_pos_site_id
 _symmetry_equiv_pos_as_xyz
  1  'x, y, z'
loop_
 _atom_site_type_symbol
 _atom_site_label
 _atom_site_symmetry_multiplicity
 _atom_site_fract_x
 _atom_site_fract_y
 _atom_site_fract_z
 _atom_site_occupancy
  Zn  Zn0  1  0.00000000  0.28025600  0.40123800  1
  Zn  Zn1  1  0.00000000  0.71974400  0.59876200  1
  Zn  Zn2  1  0.00000000  0.78025600  0.09876200  1
  Zn  Zn3  1  0.00000000  0.21974400  0.90123800  1
  Cr  Cr0  1  0.50000000  0.24154500  0.13534300  1
  Cr  Cr1  1  0.50000000  0.75845500  0.86465700  1
  Cr  Cr2  1  0.50000000  0.25845500  0.63534300  1
  Cr  Cr3  1  0.50000000  0.74154500  0.36465700  1
  O  O0  1  0.50000000  0.50000000  0.00000000  1
  O  O1  1  0.50000000  0.13466700  0.81392500  1
  O  O2  1  0.50000000  0.63466700  0.68607500  1
  O  O3  1  0.50000000  0.36533300  0.31392500  1
  O  O4  1  0.00000000  0.31335000  0.59877500  1
  O  O5  1  0.00000000  0.68665000  0.40122500  1
  O  O6  1  0.50000000  0.86533300  0.18607500  1
  O  O7  1  0.00000000  0.18665000  0.09877500  1
  O  O8  1  0.50000000  0.00000000  0.50000000  1
  O  O9  1  0.00000000  0.81335000  0.90122500  1
loop_
_geom_bond_atom_site_label_1
_geom_bond_atom_site_label_2
_geom_bond_distance
_geom_bond_site_symmetry_2
Cr0 O7 1.939532 1_555
Cr0 O7 1.939532 1_655
Cr0 O3 1.947290 1_555
Cr0 O0 1.958351 1_555
Cr0 O6 2.077190 1_545
Cr1 O9 1.939532 1_655
Cr1 O9 1.939532 1_555
Cr1 O2 1.947290 1_555
Cr1 O0 1.958351 1_556
Cr1 O1 2.077190 1_565
Cr2 O4 1.939532 1_555
Cr2 O4 1.939532 1_655
Cr2 O1 1.947290 1_555
Cr2 O8 1.958351 1_555
Cr2 O2 2.077190 1_555
Cr3 O5 1.939532 1_655
Cr3 O5 1.939532 1_555
Cr3 O6 1.947290 1_555
Cr3 O8 1.958351 1_565
Cr3 O3 2.077190 1_555
O1 Zn3 2.131583 1_555
O1 Zn3 2.131583 1_655
O2 Zn1 2.131583 1_555
O2 Zn1 2.131583 1_655
O3 Zn0 2.131583 1_655
O3 Zn0 2.131583 1_555
O4 Zn0 2.033522 1_555
O4 Zn1 2.172311 1_555
O5 Zn1 2.033522 1_555
O5 Zn0 2.172311 1_555
O6 Zn2 2.131583 1_555
O6 Zn2 2.131583 1_655
O7 Zn3 2.033522 1_554
O7 Zn2 2.172311 1_545
O9 Zn2 2.033522 1_556
O9 Zn3 2.172311 1_565
