# generated using pymatgen
data_KBa3(BiO3)4
_symmetry_space_group_name_H-M   'P 1'
_cell_length_a   6.17410500
_cell_length_b   6.25041900
_cell_length_c   8.75079200
_cell_angle_alpha   90.00000000
_cell_angle_beta   90.00000000
_cell_angle_gamma   90.00000000
_symmetry_Int_Tables_number   1
_chemical_formula_structural   KBa3(BiO3)4
_chemical_formula_sum   'K1 Ba3 Bi4 O12'
_cell_volume   337.69956687
_cell_formula_units_Z   1
loop_
 _symmetry_equiv_pos_site_id
 _symmetry_equiv_pos_as_xyz
  1  'x, y, z'
loop_
 _atom_site_type_symbol
 _atom_site_label
 _atom_site_symmetry_multiplicity
 _atom_site_fract_x
 _atom_site_fract_y
 _atom_site_fract_z
 _atom_site_occupancy
  K  K0  1  0.50000000  0.00336200  0.50000000  1
  Ba  Ba0  1  0.00000000  0.49549300  0.00000000  1
  Ba  Ba1  1  0.50000000  0.99813800  0.00000000  1
  Ba  Ba2  1  0.00000000  0.49937900  0.50000000  1
  Bi  Bi0  1  0.00000000  0.99920300  0.25246800  1
  Bi  Bi1  1  0.50000000  0.50036300  0.74845900  1
  Bi  Bi2  1  0.00000000  0.99920300  0.74753200  1
  Bi  Bi3  1  0.50000000  0.50036300  0.25154100  1
  O  O0  1  0.00000000  0.03682600  0.00000000  1
  O  O1  1  0.50000000  0.54269700  0.50000000  1
  O  O2  1  0.00000000  0.95672200  0.50000000  1
  O  O3  1  0.50000000  0.45410800  0.00000000  1
  O  O4  1  0.75344000  0.26159100  0.26298300  1
  O  O5  1  0.25016500  0.74194500  0.77878800  1
  O  O6  1  0.74983500  0.74194500  0.22121200  1
  O  O7  1  0.24656000  0.26159100  0.73701700  1
  O  O8  1  0.24656000  0.26159100  0.26298300  1
  O  O9  1  0.74983500  0.74194500  0.77878800  1
  O  O10  1  0.25016500  0.74194500  0.22121200  1
  O  O11  1  0.75344000  0.26159100  0.73701700  1
loop_
_geom_bond_atom_site_label_1
_geom_bond_atom_site_label_2
_geom_bond_distance
_geom_bond_site_symmetry_2
K0 O1 2.879349 1_545
K0 O4 3.058668 1_555
K0 O8 3.058668 1_555
K0 O7 3.058668 1_555
K0 O11 3.058668 1_555
K0 O2 3.100786 1_645
K0 O2 3.100786 1_545
K0 O9 3.316760 1_545
K0 O6 3.316760 1_545
K0 O10 3.316760 1_545
K0 O5 3.316760 1_545
K0 O1 3.371070 1_555
Ba0 O0 2.866861 1_555
Ba0 O9 2.916468 1_454
Ba0 O6 2.916468 1_455
Ba0 O5 2.916468 1_554
Ba0 O10 2.916468 1_555
Ba0 O3 3.097871 1_455
Ba0 O3 3.097871 1_555
Ba0 O11 3.122625 1_454
Ba0 O7 3.122625 1_554
Ba0 O4 3.122625 1_455
Ba0 O8 3.122625 1_555
Ba0 O0 3.383558 1_565
Ba1 O3 2.850004 1_565
Ba1 O10 2.948013 1_555
Ba1 O5 2.948013 1_554
Ba1 O9 2.948013 1_554
Ba1 O6 2.948013 1_555
Ba1 O0 3.096509 1_665
Ba1 O0 3.096509 1_565
Ba1 O4 3.233591 1_565
Ba1 O8 3.233591 1_565
Ba1 O7 3.233591 1_564
Ba1 O11 3.233591 1_564
Ba1 O3 3.400415 1_555
Ba2 O2 2.858585 1_555
Ba2 O7 2.971230 1_555
Ba2 O4 2.971230 1_455
Ba2 O11 2.971230 1_455
Ba2 O8 2.971230 1_555
Ba2 O1 3.098903 1_455
Ba2 O1 3.098903 1_555
Ba2 O9 3.261292 1_455
Ba2 O5 3.261292 1_555
Ba2 O10 3.261292 1_555
Ba2 O6 3.261292 1_455
Ba2 O2 3.391834 1_545
Bi0 O2 2.182315 1_555
Bi0 O0 2.221775 1_565
Bi0 O8 2.239540 1_565
Bi0 O4 2.239540 1_465
Bi0 O6 2.246330 1_455
Bi0 O10 2.246330 1_555
Bi1 O11 2.164682 1_555
Bi1 O7 2.164682 1_555
Bi1 O5 2.174818 1_555
Bi1 O9 2.174818 1_555
Bi1 O1 2.190255 1_555
Bi1 O3 2.220088 1_556
Bi2 O2 2.182315 1_555
Bi2 O0 2.221775 1_566
Bi2 O11 2.239540 1_465
Bi2 O7 2.239540 1_565
Bi2 O9 2.246330 1_455
Bi2 O5 2.246330 1_555
Bi3 O8 2.164682 1_555
Bi3 O4 2.164682 1_555
Bi3 O10 2.174818 1_555
Bi3 O6 2.174818 1_555
Bi3 O1 2.190255 1_555
Bi3 O3 2.220088 1_555
