# generated using pymatgen
data_Mn2IrN3
_symmetry_space_group_name_H-M   'P 1'
_cell_length_a   5.37133591
_cell_length_b   5.48475016
_cell_length_c   5.28924853
_cell_angle_alpha   90.00000000
_cell_angle_beta   90.00000000
_cell_angle_gamma   120.70096990
_symmetry_Int_Tables_number   1
_chemical_formula_structural   Mn2IrN3
_chemical_formula_sum   'Mn4 Ir2 N6'
_cell_volume   133.98389976
_cell_formula_units_Z   2
loop_
 _symmetry_equiv_pos_site_id
 _symmetry_equiv_pos_as_xyz
  1  'x, y, z'
loop_
 _atom_site_type_symbol
 _atom_site_label
 _atom_site_symmetry_multiplicity
 _atom_site_fract_x
 _atom_site_fract_y
 _atom_site_fract_z
 _atom_site_occupancy
  Mn  Mn0  1  0.34420209  0.34492407  0.51303604  1
  Mn  Mn1  1  0.65579791  0.00072198  0.51303604  1
  Mn  Mn2  1  0.65579791  0.65507593  0.01303604  1
  Mn  Mn3  1  0.34420209  -0.00072198  0.01303604  1
  Ir  Ir0  1  -0.00000000  0.60367390  0.47745304  1
  Ir  Ir1  1  0.00000000  0.39632610  0.97745304  1
  N  N0  1  0.33246406  0.32212710  0.87696657  1
  N  N1  1  0.66753594  -0.01033695  0.87696657  1
  N  N2  1  0.66753594  0.67787290  0.37696657  1
  N  N3  1  0.33246406  0.01033695  0.37696657  1
  N  N4  1  1.00000000  0.72846963  0.83054173  1
  N  N5  1  0.00000000  0.27153037  0.33054173  1
loop_
_geom_bond_atom_site_label_1
_geom_bond_atom_site_label_2
_geom_bond_distance
_geom_bond_site_symmetry_2
Mn0 N2 1.905394 1_555
Mn0 N0 1.927919 1_555
Mn0 N5 1.937000 1_555
Mn0 N3 1.942034 1_555
Mn1 N3 1.905394 1_555
Mn1 N1 1.927919 1_555
Mn1 N5 1.937000 1_655
Mn1 N2 1.942034 1_545
Mn2 N0 1.905394 1_554
Mn2 N2 1.927919 1_555
Mn2 N4 1.937000 1_554
Mn2 N1 1.942034 1_564
Mn3 N1 1.905394 1_554
Mn3 N3 1.927919 1_555
Mn3 N4 1.937000 1_444
Mn3 N0 1.942034 1_554
Ir0 N5 1.980527 1_555
Ir0 N4 1.989054 1_455
Ir0 N3 2.092652 1_565
Ir0 N2 2.092653 1_455
Ir1 N4 1.980527 1_455
Ir1 N5 1.989054 1_556
Ir1 N1 2.092652 1_455
Ir1 N0 2.092653 1_555
