# generated using pymatgen
data_BaSm2CoO5
_symmetry_space_group_name_H-M   'P 1'
_cell_length_a   6.88028452
_cell_length_b   6.88028452
_cell_length_c   6.88028452
_cell_angle_alpha   147.76995249
_cell_angle_beta   128.83129922
_cell_angle_gamma   61.77449384
_symmetry_Int_Tables_number   1
_chemical_formula_structural   BaSm2CoO5
_chemical_formula_sum   'Ba1 Sm2 Co1 O5'
_cell_volume   134.01289890
_cell_formula_units_Z   1
loop_
 _symmetry_equiv_pos_site_id
 _symmetry_equiv_pos_as_xyz
  1  'x, y, z'
loop_
 _atom_site_type_symbol
 _atom_site_label
 _atom_site_symmetry_multiplicity
 _atom_site_fract_x
 _atom_site_fract_y
 _atom_site_fract_z
 _atom_site_occupancy
  Ba  Ba0  1  0.00000000  0.50000000  0.50000000  1
  Sm  Sm0  1  0.70298000  0.70298000  0.00000000  1
  Sm  Sm1  1  0.29702000  0.29702000  0.00000000  1
  Co  Co0  1  0.50000000  0.00000000  0.50000000  1
  O  O0  1  0.10904000  0.85170000  0.25734000  1
  O  O1  1  0.89096000  0.14830000  0.74266000  1
  O  O2  1  0.40564000  0.14830000  0.25734000  1
  O  O3  1  0.59436000  0.85170000  0.74266000  1
  O  O4  1  0.50000000  0.50000000  0.00000000  1
loop_
_geom_bond_atom_site_label_1
_geom_bond_atom_site_label_2
_geom_bond_distance
_geom_bond_site_symmetry_2
Ba0 O4 2.971178 1_556
Ba0 O4 2.971178 1_455
Ba0 O1 3.008745 1_465
Ba0 O1 3.008745 1_454
Ba0 O2 3.008745 1_566
Ba0 O3 3.008745 1_444
Ba0 O0 3.008745 1_545
Ba0 O3 3.008745 1_455
Ba0 O2 3.008745 1_555
Ba0 O0 3.008745 1_556
Co0 O4 1.909737 1_556
Co0 O4 1.909737 1_545
Co0 O1 2.268538 1_555
Co0 O0 2.268538 1_545
Co0 O3 2.268538 1_545
Co0 O2 2.268538 1_555
O0 Sm0 2.328701 1_455
O0 Sm1 2.478574 1_566
O0 Sm1 2.478574 1_555
O1 Sm1 2.328701 1_656
O1 Sm0 2.478574 1_556
O1 Sm0 2.478574 1_545
O2 Sm1 2.328701 1_555
O2 Sm0 2.478574 1_556
O2 Sm0 2.478574 1_545
O3 Sm0 2.328701 1_556
O3 Sm1 2.478574 1_555
O3 Sm1 2.478574 1_566
O4 Sm1 2.396998 1_555
O4 Sm0 2.396998 1_555
