# generated using pymatgen
data_Mg14ZnSn
_symmetry_space_group_name_H-M   'P 1'
_cell_length_a   6.30050737
_cell_length_b   6.32552990
_cell_length_c   10.42984705
_cell_angle_alpha   90.00000000
_cell_angle_beta   90.00000000
_cell_angle_gamma   120.13146896
_symmetry_Int_Tables_number   1
_chemical_formula_structural   Mg14ZnSn
_chemical_formula_sum   'Mg14 Zn1 Sn1'
_cell_volume   359.50434404
_cell_formula_units_Z   1
loop_
 _symmetry_equiv_pos_site_id
 _symmetry_equiv_pos_as_xyz
  1  'x, y, z'
loop_
 _atom_site_type_symbol
 _atom_site_label
 _atom_site_symmetry_multiplicity
 _atom_site_fract_x
 _atom_site_fract_y
 _atom_site_fract_z
 _atom_site_occupancy
  Mg  Mg0  1  0.16734341  0.33367121  0.62500000  1
  Mg  Mg1  1  0.16700716  0.83350308  0.62500000  1
  Mg  Mg2  1  0.66709339  0.33347648  0.12500000  1
  Mg  Mg3  1  0.66623873  0.33335543  0.62500000  1
  Mg  Mg4  1  0.66709339  0.83361592  0.12500000  1
  Mg  Mg5  1  0.66623873  0.83288230  0.62500000  1
  Mg  Mg6  1  0.33249210  0.16800611  0.37466091  1
  Mg  Mg7  1  0.33249210  0.16800611  0.87533909  1
  Mg  Mg8  1  0.33249210  0.66448700  0.37466091  1
  Mg  Mg9  1  0.33249210  0.66448700  0.87533909  1
  Mg  Mg10  1  0.83529421  0.16764760  0.37487096  1
  Mg  Mg11  1  0.83529421  0.16764760  0.87512904  1
  Mg  Mg12  1  0.83298425  0.66649262  0.37710773  1
  Mg  Mg13  1  0.83298425  0.66649262  0.87289227  1
  Zn  Zn0  1  0.16592784  0.33296342  0.12500000  1
  Sn  Sn0  1  0.16653201  0.83326551  0.12500000  1
loop_
_geom_bond_atom_site_label_1
_geom_bond_atom_site_label_2
_geom_bond_distance
_geom_bond_site_symmetry_2
Mg0 Mg5 3.144297 1_555
Mg0 Mg3 3.144297 1_555
Mg0 Mg5 3.156211 1_445
Mg0 Mg3 3.156211 1_455
Mg0 Mg1 3.162765 1_555
Mg0 Mg1 3.162766 1_545
Mg0 Mg10 3.174864 1_455
Mg0 Mg11 3.174864 1_455
Mg0 Mg6 3.176924 1_555
Mg0 Mg7 3.176924 1_555
Mg0 Mg8 3.176930 1_555
Mg0 Mg9 3.176930 1_555
Mg1 Mg3 3.147385 1_565
Mg1 Mg5 3.147385 1_555
Mg1 Mg3 3.153126 1_455
Mg1 Mg5 3.153126 1_455
Mg1 Mg12 3.161901 1_455
Mg1 Mg13 3.161901 1_455
Mg1 Mg9 3.188503 1_555
Mg1 Mg8 3.188503 1_555
Mg1 Mg7 3.188509 1_565
Mg1 Mg6 3.188509 1_565
Mg2 Zn0 3.144541 1_655
Mg2 Sn0 3.147830 1_655
Mg2 Sn0 3.152678 1_545
Mg2 Zn0 3.155969 1_555
Mg2 Mg4 3.161883 1_545
Mg2 Mg4 3.163647 1_555
Mg2 Mg7 3.178831 1_554
Mg2 Mg6 3.178831 1_555
Mg3 Mg5 3.159772 1_555
Mg3 Mg5 3.165758 1_545
Mg3 Mg6 3.181957 1_555
Mg3 Mg7 3.181957 1_555
Mg4 Zn0 3.144540 1_665
Mg4 Sn0 3.147830 1_655
Mg4 Sn0 3.152679 1_555
Mg4 Zn0 3.155969 1_555
Mg4 Mg8 3.178831 1_555
Mg4 Mg9 3.178831 1_554
Mg5 Mg8 3.181957 1_555
Mg5 Mg9 3.181957 1_555
Mg6 Mg8 3.140505 1_555
Mg6 Zn0 3.173311 1_555
Mg6 Sn0 3.183454 1_545
Mg6 Mg8 3.185025 1_545
Mg7 Mg9 3.140505 1_555
Mg7 Zn0 3.173311 1_556
Mg7 Sn0 3.183454 1_546
Mg7 Mg9 3.185025 1_545
Mg8 Zn0 3.173317 1_555
Mg8 Sn0 3.183447 1_555
Mg9 Zn0 3.173317 1_556
Mg9 Sn0 3.183447 1_556
Mg10 Mg8 3.131462 1_655
Mg10 Mg6 3.131462 1_655
Mg10 Mg12 3.162876 1_545
Mg10 Mg12 3.162876 1_555
Mg10 Zn0 3.168260 1_655
Mg10 Mg8 3.169048 1_545
Mg10 Mg6 3.169048 1_555
Mg10 Mg2 3.182965 1_555
Mg10 Mg4 3.182971 1_545
Mg10 Mg3 3.187474 1_555
Mg10 Mg5 3.187480 1_545
Mg11 Mg9 3.131462 1_655
Mg11 Mg7 3.131462 1_655
Mg11 Mg13 3.162876 1_545
Mg11 Mg13 3.162876 1_555
Mg11 Zn0 3.168260 1_656
Mg11 Mg9 3.169048 1_545
Mg11 Mg7 3.169048 1_555
Mg11 Mg2 3.182965 1_556
Mg11 Mg4 3.182971 1_546
Mg11 Mg3 3.187474 1_555
Mg11 Mg5 3.187480 1_545
Mg12 Mg6 3.147108 1_555
Mg12 Mg8 3.147109 1_555
Mg12 Mg6 3.153644 1_665
Mg12 Mg8 3.153644 1_655
Mg12 Mg5 3.163276 1_555
Mg12 Mg3 3.163282 1_555
Mg12 Sn0 3.196480 1_655
Mg12 Mg4 3.198950 1_555
Mg12 Mg2 3.198956 1_555
Mg13 Mg7 3.147108 1_555
Mg13 Mg9 3.147109 1_555
Mg13 Mg7 3.153644 1_665
Mg13 Mg9 3.153644 1_655
Mg13 Mg5 3.163276 1_555
Mg13 Mg3 3.163282 1_555
Mg13 Sn0 3.196480 1_656
Mg13 Mg4 3.198950 1_556
Mg13 Mg2 3.198956 1_556
Sn0 Zn0 3.162767 1_565
Sn0 Zn0 3.162767 1_555
