# generated using pymatgen
data_K6CdO4
_symmetry_space_group_name_H-M   'P 1'
_cell_length_a   8.66748218
_cell_length_b   8.66749077
_cell_length_c   6.63122184
_cell_angle_alpha   89.99980017
_cell_angle_beta   90.00005911
_cell_angle_gamma   120.00045022
_symmetry_Int_Tables_number   1
_chemical_formula_structural   K6CdO4
_chemical_formula_sum   'K12 Cd2 O8'
_cell_volume   431.42823423
_cell_formula_units_Z   2
loop_
 _symmetry_equiv_pos_site_id
 _symmetry_equiv_pos_as_xyz
  1  'x, y, z'
loop_
 _atom_site_type_symbol
 _atom_site_label
 _atom_site_symmetry_multiplicity
 _atom_site_fract_x
 _atom_site_fract_y
 _atom_site_fract_z
 _atom_site_occupancy
  K  K0  1  0.53639221  0.07278280  0.14045909  1
  K  K1  1  0.46362555  0.53637264  0.64046761  1
  K  K2  1  0.92721491  0.46360864  0.14045704  1
  K  K3  1  0.53639241  0.46361019  0.14045813  1
  K  K4  1  0.14384878  0.85615106  0.97225407  1
  K  K5  1  0.28772455  0.14386324  0.47226103  1
  K  K6  1  0.07274595  0.53637101  0.64046753  1
  K  K7  1  0.85613680  0.71227210  0.47225899  1
  K  K8  1  0.85613613  0.14386227  0.47226356  1
  K  K9  1  0.71230376  0.85615593  0.97224721  1
  K  K10  1  0.14384362  0.28769764  0.97225721  1
  K  K11  1  0.46362794  0.92725421  0.64046715  1
  Cd  Cd0  1  0.66666704  0.33333273  0.75075221  1
  Cd  Cd1  1  0.33333744  0.66666561  0.25073318  1
  O  O0  1  0.19160066  0.80840048  0.36216339  1
  O  O1  1  0.38320204  0.19160194  0.86216851  1
  O  O2  1  0.80839875  0.61679771  0.86216738  1
  O  O3  1  0.19159823  0.38319541  0.36216384  1
  O  O4  1  0.61680688  0.80840302  0.36216242  1
  O  O5  1  0.80839917  0.19160163  0.86216882  1
  O  O6  1  0.66666621  0.33333328  0.41701090  1
  O  O7  1  0.33333395  0.66666645  0.91698872  1
loop_
_geom_bond_atom_site_label_1
_geom_bond_atom_site_label_2
_geom_bond_distance
_geom_bond_site_symmetry_2
K0 O6 2.681062 1_555
K0 O5 2.756162 1_554
K0 O1 2.756184 1_554
K0 O0 3.081429 1_545
K0 O4 3.081454 1_545
K1 O7 2.681122 1_555
K1 O3 2.756326 1_555
K1 O4 2.756346 1_555
K1 O1 3.081242 1_555
K1 O2 3.081255 1_555
K2 O6 2.681055 1_555
K2 O2 2.756158 1_554
K2 O5 2.756162 1_554
K2 O0 3.081452 1_655
K2 O3 3.081484 1_655
K3 O6 2.681069 1_555
K3 O2 2.756158 1_554
K3 O1 2.756172 1_554
K3 O4 3.081446 1_555
K3 O3 3.081453 1_555
K4 O0 2.683112 1_556
K4 O2 2.694156 1_455
K4 O1 2.694157 1_565
K4 O7 2.868164 1_555
K5 O1 2.683051 1_555
K5 O3 2.694201 1_555
K5 O0 2.694236 1_545
K5 O6 2.867920 1_555
K6 O7 2.681124 1_555
K6 O0 2.756335 1_555
K6 O3 2.756342 1_555
K6 O5 3.081225 1_455
K6 O2 3.081268 1_455
K7 O2 2.683048 1_555
K7 O4 2.694209 1_555
K7 O0 2.694227 1_655
K7 O6 2.867901 1_555
K8 O5 2.683037 1_555
K8 O4 2.694192 1_545
K8 O3 2.694210 1_655
K8 O6 2.867936 1_555
K9 O4 2.683138 1_556
K9 O5 2.694117 1_565
K9 O2 2.694195 1_555
K9 O7 2.868137 1_555
K10 O3 2.683088 1_556
K10 O5 2.694123 1_455
K10 O1 2.694214 1_555
K10 O7 2.868139 1_555
K11 O7 2.681120 1_555
K11 O0 2.756325 1_555
K11 O4 2.756359 1_555
K11 O5 3.081242 1_565
K11 O1 3.081276 1_565
Cd0 O6 2.213113 1_555
Cd0 O1 2.252375 1_555
Cd0 O5 2.252376 1_555
Cd0 O2 2.252377 1_555
Cd1 O7 2.213134 1_554
Cd1 O4 2.252435 1_555
Cd1 O3 2.252443 1_555
Cd1 O0 2.252469 1_555
