# generated using pymatgen
data_Ti8Al15Rh7
_symmetry_space_group_name_H-M   'P 1'
_cell_length_a   8.59177021
_cell_length_b   8.59172819
_cell_length_c   8.59177857
_cell_angle_alpha   120.10102447
_cell_angle_beta   119.85224223
_cell_angle_gamma   90.04091530
_symmetry_Int_Tables_number   1
_chemical_formula_structural   Ti8Al15Rh7
_chemical_formula_sum   'Ti8 Al15 Rh7'
_cell_volume   448.62223532
_cell_formula_units_Z   1
loop_
 _symmetry_equiv_pos_site_id
 _symmetry_equiv_pos_as_xyz
  1  'x, y, z'
loop_
 _atom_site_type_symbol
 _atom_site_label
 _atom_site_symmetry_multiplicity
 _atom_site_fract_x
 _atom_site_fract_y
 _atom_site_fract_z
 _atom_site_occupancy
  Ti  Ti0  1  0.79139842  0.28998748  0.07355949  1
  Ti  Ti1  1  0.21642754  0.28998770  0.49858883  1
  Ti  Ti2  1  0.20778808  0.70779122  0.50000355  1
  Ti  Ti3  1  0.21642599  0.71783997  0.92643548  1
  Ti  Ti4  1  0.79140383  0.71784050  0.50141440  1
  Ti  Ti5  1  0.78222937  0.28222394  0.49999489  1
  Ti  Ti6  1  0.37930156  0.12270656  0.74340503  1
  Ti  Ti7  1  0.37929973  0.63589373  0.25659365  1
  Al  Al0  1  0.99563995  0.49566323  0.50002258  1
  Al  Al1  1  0.15414011  0.34298518  0.18884504  1
  Al  Al2  1  0.15413027  0.96528130  0.81115030  1
  Al  Al3  1  0.14961037  0.34684109  0.80277646  1
  Al  Al4  1  0.54406532  0.34684179  0.19723153  1
  Al  Al5  1  0.84557675  0.65224905  0.80667296  1
  Al  Al6  1  0.84556074  0.03887445  0.19331452  1
  Al  Al7  1  0.84316039  0.65481134  0.18836336  1
  Al  Al8  1  0.46644805  0.65481100  0.81165114  1
  Al  Al9  1  0.37927627  0.12156085  0.25769921  1
  Al  Al10  1  0.86386086  0.12156018  0.74228364  1
  Al  Al11  1  0.62168501  0.87786151  0.25617589  1
  Al  Al12  1  0.62170494  0.36552771  0.74382126  1
  Al  Al13  1  0.62199384  0.87802249  0.74393837  1
  Al  Al14  1  0.13408411  0.87802267  0.25602796  1
  Rh  Rh0  1  0.00159590  -0.00018763  0.50171339  1
  Rh  Rh1  1  0.49809886  -0.00018756  0.99821667  1
  Rh  Rh2  1  0.49719693  0.49717179  -0.00002507  1
  Rh  Rh3  1  0.49808543  0.49986756  0.49829899  1
  Rh  Rh4  1  0.00156783  0.49986576  0.00178047  1
  Rh  Rh5  1  0.99921029  0.99922932  0.00001884  1
  Rh  Rh6  1  0.49902826  0.99905385  0.50002519  1
loop_
_geom_bond_atom_site_label_1
_geom_bond_atom_site_label_2
_geom_bond_distance
_geom_bond_site_symmetry_2
Ti0 Ti6 2.924557 1_554
Ti1 Ti6 2.924569 1_555
Ti2 Ti6 2.949540 1_565
Ti2 Ti7 2.949602 1_555
Ti3 Ti7 2.924619 1_556
Ti4 Ti7 2.924610 1_555
Al0 Ti2 2.576793 1_655
Al0 Ti5 2.592140 1_555
Al0 Ti3 2.593429 1_655
Al0 Ti4 2.593437 1_555
Al0 Ti0 2.593734 1_555
Al0 Ti1 2.593739 1_655
Al1 Rh5 2.482969 1_445
Al1 Rh3 2.489237 1_555
Al1 Rh4 2.489241 1_555
Al1 Ti0 2.715504 1_455
Al1 Ti1 2.715507 1_555
Al1 Ti2 2.747690 1_555
Al1 Al10 2.775910 1_454
Al1 Al9 2.775911 1_555
Al1 Ti7 2.795910 1_555
Al2 Rh5 2.483141 1_456
Al2 Rh0 2.489345 1_565
Al2 Rh1 2.489346 1_565
Al2 Ti4 2.715365 1_455
Al2 Ti3 2.715376 1_555
Al2 Ti2 2.747638 1_555
Al2 Al9 2.775837 1_566
Al2 Ti6 2.796048 1_565
Al3 Rh0 2.486323 1_555
Al3 Rh4 2.486453 1_556
Al3 Rh2 2.493918 1_556
Al3 Ti5 2.722703 1_455
Al3 Ti3 2.758971 1_555
Al3 Ti1 2.759013 1_555
Al3 Ti7 2.808015 1_556
Al3 Ti6 2.808086 1_555
Al4 Rh1 2.486329 1_554
Al4 Rh3 2.486457 1_555
Al4 Rh2 2.493924 1_555
Al4 Ti5 2.722708 1_555
Al4 Ti4 2.758962 1_555
Al4 Ti0 2.759011 1_555
Al4 Al9 2.785290 1_555
Al4 Ti7 2.808022 1_555
Al4 Ti6 2.808087 1_554
Al5 Rh5 2.496653 1_556
Al5 Rh3 2.507517 1_555
Al5 Rh4 2.507522 1_656
Al5 Ti5 2.741075 1_555
Al5 Ti3 2.771362 1_655
Al5 Ti4 2.771369 1_555
Al6 Rh5 2.496532 1_545
Al6 Rh0 2.507398 1_655
Al6 Rh1 2.507402 1_554
Al6 Ti5 2.741057 1_555
Al6 Ti1 2.771519 1_655
Al6 Ti0 2.771534 1_555
Al7 Rh4 2.495681 1_655
Al7 Rh0 2.495716 1_665
Al7 Rh2 2.509045 1_555
Al7 Ti4 2.730449 1_555
Al7 Ti0 2.730516 1_555
Al7 Ti2 2.759639 1_655
Al8 Rh3 2.495675 1_555
Al8 Rh1 2.495722 1_565
Al8 Rh2 2.509048 1_556
Al8 Ti3 2.730442 1_555
Al8 Ti1 2.730509 1_555
Al8 Ti2 2.759642 1_555
Al9 Rh6 2.562871 1_545
Al9 Rh3 2.652321 1_555
Al9 Rh1 2.652340 1_554
Al9 Rh5 2.670804 1_445
Al9 Ti5 2.856739 1_555
Al9 Ti3 2.866357 1_544
Al9 Ti1 2.866504 1_555
Al10 Rh6 2.562861 1_545
Al10 Rh4 2.652313 1_656
Al10 Rh0 2.652341 1_655
Al10 Rh5 2.670811 1_546
Al10 Al2 2.775837 1_645
Al10 Al3 2.785288 1_655
Al10 Ti5 2.856743 1_555
Al10 Ti4 2.866351 1_545
Al10 Ti0 2.866504 1_556
Al10 Al11 2.954272 1_545
Al10 Al12 2.954372 1_555
Al10 Al13 2.958002 1_545
Al11 Rh6 2.568196 1_555
Al11 Rh2 2.667742 1_555
Al11 Rh0 2.669352 1_665
Al11 Rh1 2.669354 1_564
Al11 Al8 2.760764 1_554
Al11 Al7 2.760771 1_555
Al11 Al6 2.772200 1_565
Al11 Ti5 2.859606 1_565
Al11 Ti3 2.882002 1_554
Al11 Ti4 2.882013 1_555
Al11 Ti7 2.944071 1_555
Al11 Al9 2.954279 1_565
Al12 Rh6 2.567949 1_545
Al12 Rh2 2.667564 1_556
Al12 Rh4 2.669013 1_656
Al12 Rh3 2.669015 1_555
Al12 Al8 2.760832 1_555
Al12 Al7 2.760837 1_556
Al12 Al5 2.772119 1_555
Al12 Ti5 2.859519 1_555
Al12 Ti1 2.882113 1_555
Al12 Ti0 2.882126 1_556
Al12 Ti6 2.944298 1_555
Al12 Al9 2.954358 1_555
Al13 Rh6 2.563693 1_555
Al13 Rh3 2.650269 1_555
Al13 Rh1 2.650416 1_565
Al13 Rh5 2.650890 1_556
Al13 Al8 2.773406 1_555
Al13 Al5 2.786881 1_555
Al13 Al6 2.787009 1_566
Al13 Ti4 2.915517 1_555
Al13 Ti0 2.915712 1_566
Al13 Ti2 2.947727 1_555
Al13 Ti7 2.961864 1_555
Al13 Ti6 2.962060 1_565
Al14 Rh6 2.563684 1_555
Al14 Rh4 2.650283 1_555
Al14 Rh0 2.650418 1_565
Al14 Rh5 2.650892 1_455
Al14 Al7 2.773404 1_455
Al14 Al5 2.786866 1_454
Al14 Al6 2.787006 1_465
Al14 Ti3 2.915519 1_554
Al14 Ti1 2.915715 1_565
Al14 Ti2 2.947743 1_555
Al14 Al9 2.958000 1_565
Al14 Ti7 2.961868 1_555
Al14 Ti6 2.962059 1_565
Rh0 Ti6 2.654283 1_555
Rh0 Ti4 3.018835 1_445
Rh0 Ti2 3.070639 1_545
Rh0 Ti1 3.119794 1_555
Rh1 Ti6 2.654290 1_555
Rh1 Ti3 3.018830 1_545
Rh1 Ti2 3.070630 1_545
Rh1 Ti0 3.119793 1_556
Rh2 Ti6 2.625833 1_554
Rh2 Ti7 2.626220 1_555
Rh2 Ti1 3.082531 1_554
Rh2 Ti0 3.082534 1_555
Rh2 Ti4 3.082809 1_555
Rh2 Ti3 3.082814 1_554
Rh3 Ti7 2.654472 1_555
Rh3 Ti1 3.018613 1_555
Rh3 Ti2 3.070649 1_555
Rh3 Ti4 3.120066 1_555
Rh4 Ti7 2.654468 1_555
Rh4 Ti0 3.018611 1_455
Rh4 Ti2 3.070657 1_555
Rh4 Ti3 3.120076 1_554
Rh5 Ti1 3.061685 1_665
Rh5 Ti0 3.061690 1_565
Rh5 Ti4 3.061929 1_554
Rh5 Ti3 3.061939 1_654
Rh6 Ti6 2.544410 1_565
Rh6 Ti7 2.544764 1_555
