# generated using pymatgen
data_BaEuVBiO6
_symmetry_space_group_name_H-M   'P 1'
_cell_length_a   5.60882619
_cell_length_b   5.61136096
_cell_length_c   7.92742914
_cell_angle_alpha   90.38646322
_cell_angle_beta   90.31960238
_cell_angle_gamma   90.60450338
_symmetry_Int_Tables_number   1
_chemical_formula_structural   BaEuVBiO6
_chemical_formula_sum   'Ba2 Eu2 V2 Bi2 O12'
_cell_volume   249.47760989
_cell_formula_units_Z   2
loop_
 _symmetry_equiv_pos_site_id
 _symmetry_equiv_pos_as_xyz
  1  'x, y, z'
loop_
 _atom_site_type_symbol
 _atom_site_label
 _atom_site_symmetry_multiplicity
 _atom_site_fract_x
 _atom_site_fract_y
 _atom_site_fract_z
 _atom_site_occupancy
  Ba  Ba0  1  0.50487801  0.51915276  0.24937517  1
  Ba  Ba1  1  0.49512199  0.48084724  0.75062483  1
  Eu  Eu0  1  0.99646647  0.02306001  0.25062550  1
  Eu  Eu1  1  0.00353353  0.97693999  0.74937450  1
  V  V0  1  0.50000000  -0.00000000  -0.00000000  1
  V  V1  1  -0.00000000  0.50000000  0.50000000  1
  Bi  Bi0  1  -0.00000000  0.50000000  -0.00000000  1
  Bi  Bi1  1  0.50000000  -0.00000000  0.50000000  1
  O  O0  1  0.24040506  0.19110284  0.96576425  1
  O  O1  1  0.24804528  0.69981299  0.53016182  1
  O  O2  1  0.75959494  0.80889716  0.03423575  1
  O  O3  1  0.75195472  0.30018701  0.46983818  1
  O  O4  1  0.30249731  0.75060233  0.96858178  1
  O  O5  1  0.18941243  0.23746277  0.53244435  1
  O  O6  1  0.69750269  0.24939767  0.03141822  1
  O  O7  1  0.81058757  0.76253723  0.46755565  1
  O  O8  1  0.42963951  0.99526688  0.22402572  1
  O  O9  1  0.05411895  0.48554170  0.27554506  1
  O  O10  1  0.57036049  0.00473312  0.77597428  1
  O  O11  1  0.94588105  0.51445830  0.72445494  1
loop_
_geom_bond_atom_site_label_1
_geom_bond_atom_site_label_2
_geom_bond_distance
_geom_bond_site_symmetry_2
Ba0 O6 2.542441 1_555
Ba0 O9 2.543004 1_555
Ba0 O3 2.553921 1_555
Ba0 O8 2.717767 1_555
Ba0 O2 2.758408 1_555
Ba0 O7 2.771727 1_555
Ba0 O4 2.823490 1_554
Ba0 O1 2.844937 1_555
Ba0 O8 2.970738 1_545
Ba0 O9 3.094244 1_655
Ba0 O0 3.239323 1_554
Ba0 O5 3.270774 1_555
Ba1 O4 2.542441 1_555
Ba1 O11 2.543004 1_555
Ba1 O1 2.553921 1_555
Ba1 O10 2.717767 1_555
Ba1 O0 2.758408 1_555
Ba1 O5 2.771727 1_555
Ba1 O6 2.823490 1_556
Ba1 O3 2.844937 1_555
Ba1 O10 2.970738 1_565
Ba1 O11 3.094244 1_455
Ba1 O2 3.239323 1_556
Ba1 O7 3.270774 1_555
Eu0 O8 2.446421 1_645
Eu0 O2 2.462725 1_545
Eu0 O7 2.490616 1_545
Eu0 O9 2.617836 1_655
Eu0 O3 2.711839 1_555
Eu0 O6 2.736205 1_555
Eu0 O5 2.742094 1_655
Eu0 O0 2.810101 1_654
Eu0 O9 3.044505 1_645
Eu0 O8 3.187151 1_545
Eu0 O1 3.203933 1_645
Eu0 O4 3.214799 1_644
Eu1 O10 2.446421 1_465
Eu1 O0 2.462725 1_565
Eu1 O5 2.490616 1_565
Eu1 O11 2.617836 1_455
Eu1 O1 2.711839 1_555
Eu1 O4 2.736205 1_555
Eu1 O7 2.742094 1_455
Eu1 O2 2.810101 1_456
Eu1 O11 3.044505 1_465
Eu1 O10 3.187151 1_565
Eu1 O3 3.203933 1_465
Eu1 O6 3.214799 1_466
Bi0 O11 2.205829 1_454
Bi0 O9 2.205829 1_555
Bi0 O6 2.208443 1_455
Bi0 O4 2.208443 1_554
Bi0 O2 2.223356 1_455
Bi0 O0 2.223356 1_554
Bi1 O3 2.202406 1_555
Bi1 O1 2.202406 1_545
Bi1 O5 2.219394 1_555
Bi1 O7 2.219394 1_545
Bi1 O8 2.220840 1_545
Bi1 O10 2.220840 1_555
O0 V0 1.837404 1_556
O1 V1 1.791543 1_555
O2 V0 1.837404 1_565
O3 V1 1.791543 1_655
O4 V0 1.790854 1_566
O5 V1 1.843959 1_555
O6 V0 1.790854 1_555
O7 V1 1.843959 1_655
O8 V0 1.821722 1_565
O9 V1 1.808150 1_555
O10 V0 1.821722 1_556
O11 V1 1.808150 1_655
