# generated using pymatgen
data_CaVSiO5
_symmetry_space_group_name_H-M   'P 1'
_cell_length_a   5.49946193
_cell_length_b   7.48277858
_cell_length_c   9.90974681
_cell_angle_alpha   75.87465631
_cell_angle_beta   91.16569711
_cell_angle_gamma   72.16169541
_symmetry_Int_Tables_number   1
_chemical_formula_structural   CaVSiO5
_chemical_formula_sum   'Ca4 V4 Si4 O20'
_cell_volume   374.45315753
_cell_formula_units_Z   4
loop_
 _symmetry_equiv_pos_site_id
 _symmetry_equiv_pos_as_xyz
  1  'x, y, z'
loop_
 _atom_site_type_symbol
 _atom_site_label
 _atom_site_symmetry_multiplicity
 _atom_site_fract_x
 _atom_site_fract_y
 _atom_site_fract_z
 _atom_site_occupancy
  Ca  Ca0  1  0.12686900  0.54109800  0.20894400  1
  Ca  Ca1  1  0.62695600  0.04108600  0.70888300  1
  Ca  Ca2  1  0.87316000  0.45889900  0.79114000  1
  Ca  Ca3  1  0.37305800  0.95896100  0.29103200  1
  V  V0  1  0.50003300  0.49997500  0.50005800  1
  V  V1  1  0.25029700  0.74977200  0.74985000  1
  V  V2  1  0.00009700  0.99985500  0.99982700  1
  V  V3  1  0.75000200  0.25001900  0.25004700  1
  Si  Si0  1  0.60108200  0.71669600  0.03392700  1
  Si  Si1  1  0.10110500  0.21676200  0.53392200  1
  Si  Si2  1  0.39884200  0.28331900  0.96608900  1
  Si  Si3  1  0.89891100  0.78331800  0.46606600  1
  O  O0  1  0.52657200  0.40688000  0.34254500  1
  O  O1  1  0.02677700  0.90665100  0.84237300  1
  O  O2  1  0.47350800  0.59323100  0.65759800  1
  O  O3  1  0.97315500  0.09326500  0.15753800  1
  O  O4  1  0.78951000  0.83020200  0.07989100  1
  O  O5  1  0.28959800  0.33018700  0.57988000  1
  O  O6  1  0.21025300  0.16987800  0.92026400  1
  O  O7  1  0.71043100  0.66977800  0.42010900  1
  O  O8  1  0.76393700  0.48614400  0.10553800  1
  O  O9  1  0.26416400  0.98619500  0.60527700  1
  O  O10  1  0.23588300  0.51384000  0.89449100  1
  O  O11  1  0.73571600  0.01385400  0.39469600  1
  O  O12  1  0.56025500  0.75527200  0.86216400  1
  O  O13  1  0.06006000  0.25539000  0.36216700  1
  O  O14  1  0.43977600  0.24476300  0.13784300  1
  O  O15  1  0.94001700  0.74462000  0.63784500  1
  O  O16  1  0.32314600  0.78470600  0.09936600  1
  O  O17  1  0.82321400  0.28478800  0.59939500  1
  O  O18  1  0.67674100  0.21525200  0.90060500  1
  O  O19  1  0.17687600  0.71534500  0.40063100  1
loop_
_geom_bond_atom_site_label_1
_geom_bond_atom_site_label_2
_geom_bond_distance
_geom_bond_site_symmetry_2
Ca0 O0 2.339535 1_555
Ca0 O8 2.414164 1_455
Ca0 O4 2.419024 1_455
Ca0 O13 2.435288 1_555
Ca0 O16 2.440120 1_555
Ca0 O19 2.606018 1_555
Ca0 O14 2.617003 1_555
Ca1 O1 2.339572 1_645
Ca1 O9 2.414137 1_545
Ca1 O5 2.418863 1_555
Ca1 O12 2.435881 1_545
Ca1 O17 2.440352 1_555
Ca1 O18 2.605585 1_555
Ca1 O15 2.617737 1_545
Ca2 O2 2.339056 1_555
Ca2 O10 2.412868 1_655
Ca2 O6 2.418197 1_655
Ca2 O15 2.435772 1_555
Ca2 O18 2.440574 1_555
Ca2 O17 2.605701 1_555
Ca2 O12 2.616828 1_555
Ca3 O3 2.339945 1_465
Ca3 O11 2.413763 1_565
Ca3 O7 2.419445 1_555
Ca3 O14 2.435476 1_565
Ca3 O19 2.439868 1_555
Ca3 O16 2.605757 1_555
Ca3 O13 2.617870 1_565
O0 V3 1.847994 1_555
O0 V0 1.849519 1_555
O1 V1 1.848471 1_555
O1 V2 1.849411 1_555
O2 V1 1.844473 1_555
O2 V0 1.850444 1_555
O3 V3 1.846892 1_555
O3 V2 1.852633 1_644
O4 Si0 1.646668 1_555
O4 V2 2.007191 1_654
O5 Si1 1.646454 1_555
O5 V0 2.006656 1_555
O6 Si2 1.646447 1_555
O6 V2 2.006074 1_545
O7 Si3 1.647062 1_555
O7 V0 2.006895 1_555
O8 Si0 1.646787 1_555
O8 V3 2.007712 1_555
O9 Si1 1.646701 1_565
O9 V1 2.009509 1_555
O10 Si2 1.646709 1_555
O10 V1 2.008180 1_555
O11 Si3 1.646706 1_545
O11 V3 2.009243 1_555
O12 Si0 1.654057 1_556
O12 V1 2.033294 1_555
O13 Si1 1.654007 1_555
O13 V3 2.032328 1_455
O14 Si2 1.654023 1_554
O14 V3 2.033190 1_555
O15 Si3 1.654200 1_555
O15 V1 2.032066 1_655
O16 Si0 1.655495 1_555
O16 V2 2.030367 1_554
O17 Si1 1.655466 1_655
O17 V0 2.030386 1_555
O18 Si2 1.655592 1_555
O18 V2 2.031313 1_645
O19 Si3 1.655576 1_455
O19 V0 2.031105 1_555
