# generated using pymatgen
data_Al38O21
_symmetry_space_group_name_H-M   'P 1'
_cell_length_a   5.64119654
_cell_length_b   5.63986883
_cell_length_c   50.14751905
_cell_angle_alpha   90.70754521
_cell_angle_beta   91.31687664
_cell_angle_gamma   60.29595815
_symmetry_Int_Tables_number   1
_chemical_formula_structural   Al38O21
_chemical_formula_sum   'Al38 O21'
_cell_volume   1385.45621881
_cell_formula_units_Z   1
loop_
 _symmetry_equiv_pos_site_id
 _symmetry_equiv_pos_as_xyz
  1  'x, y, z'
loop_
 _atom_site_type_symbol
 _atom_site_label
 _atom_site_symmetry_multiplicity
 _atom_site_fract_x
 _atom_site_fract_y
 _atom_site_fract_z
 _atom_site_occupancy
  Al  Al0  1  0.49077261  0.50191041  0.00171441  1
  Al  Al1  1  0.98999158  0.50181580  0.00203883  1
  Al  Al2  1  0.49031169  0.00151068  0.00185107  1
  Al  Al3  1  0.16160981  0.16757646  0.04905328  1
  Al  Al4  1  0.16269838  0.66863396  0.04899594  1
  Al  Al5  1  0.66176073  0.66743128  0.04902810  1
  Al  Al6  1  0.66291085  0.16875479  0.04898820  1
  Al  Al7  1  0.33332500  0.33335000  0.09523900  1
  Al  Al8  1  0.33332500  0.83335000  0.09523900  1
  Al  Al9  1  0.83332500  0.83335000  0.09523900  1
  Al  Al10  1  0.83332500  0.33335000  0.09523900  1
  Al  Al11  1  0.99999200  0.00001700  0.14285800  1
  Al  Al12  1  0.99999200  0.50001700  0.14285800  1
  Al  Al13  1  0.49999200  0.50001700  0.14285800  1
  Al  Al14  1  0.49999200  0.00001700  0.14285800  1
  Al  Al15  1  0.17857247  0.16658351  0.18874176  1
  Al  Al16  1  0.67270534  0.16284219  0.18876914  1
  Al  Al17  1  0.67806872  0.66920828  0.18905895  1
  Al  Al18  1  0.17342368  0.66401272  0.18925208  1
  Al  Al19  1  0.85184758  0.32933836  0.23287090  1
  Al  Al20  1  0.35312310  0.83499187  0.23355465  1
  Al  Al21  1  0.35866382  0.33554032  0.23941791  1
  Al  Al22  1  0.85649581  0.84113273  0.24126740  1
  Al  Al23  1  0.95469800  0.42726503  0.28175114  1
  Al  Al24  1  0.50711188  0.95196431  0.29316445  1
  Al  Al25  1  0.43586608  0.44139153  0.30939252  1
  Al  Al26  1  0.97729377  0.98360376  0.32435415  1
  Al  Al27  1  0.25549448  0.70652531  0.36846840  1
  Al  Al28  1  0.78933179  0.29043518  0.38169239  1
  Al  Al29  1  0.65202135  0.83722678  0.38497452  1
  Al  Al30  1  0.20933538  0.40895889  0.41745551  1
  Al  Al31  1  0.20562215  0.95335740  0.42874832  1
  Al  Al32  1  0.05628223  0.71380511  0.47542505  1
  Al  Al33  1  0.49974599  0.07478128  0.47840664  1
  Al  Al34  1  0.70129613  0.42584323  0.49302060  1
  Al  Al35  1  0.21689989  0.09942581  0.53343405  1
  Al  Al36  1  0.75222287  0.15863319  0.54729068  1
  Al  Al37  1  0.99029163  0.00204502  0.00177000  1
  O  O0  1  0.33546674  0.33033034  0.27950871  1
  O  O1  1  0.85159091  0.80152199  0.27826358  1
  O  O2  1  0.63022970  0.58930549  0.30114053  1
  O  O3  1  0.13517714  0.09955948  0.30244309  1
  O  O4  1  0.62515622  0.10065211  0.32161202  1
  O  O5  1  0.18485099  0.63100206  0.33295767  1
  O  O6  1  0.02609387  0.05795047  0.35902762  1
  O  O7  1  0.62017174  0.59551150  0.36141756  1
  O  O8  1  0.01816316  0.65800797  0.38903591  1
  O  O9  1  0.52875743  0.20086686  0.39067345  1
  O  O10  1  0.41557043  0.77303979  0.40199128  1
  O  O11  1  0.97309409  0.26747454  0.41165960  1
  O  O12  1  0.14436757  0.69504285  0.44004585  1
  O  O13  1  0.35912979  0.13183731  0.44400875  1
  O  O14  1  0.82898789  0.07336395  0.47918607  1
  O  O15  1  0.77994588  0.64676143  0.47529805  1
  O  O16  1  0.36912893  0.45357215  0.48802128  1
  O  O17  1  0.32293447  0.98680447  0.50050629  1
  O  O18  1  0.82699698  0.36931529  0.52632963  1
  O  O19  1  0.08849305  0.93447571  0.55359475  1
  O  O20  1  0.44631127  0.17909040  0.54877077  1
loop_
_geom_bond_atom_site_label_1
_geom_bond_atom_site_label_2
_geom_bond_distance
_geom_bond_site_symmetry_2
Al0 Al5 2.857251 1_555
Al0 Al6 2.879139 1_555
Al0 Al4 2.890197 1_555
Al1 Al4 2.850899 1_655
Al1 Al3 2.871500 1_655
Al1 Al5 2.878491 1_555
Al2 Al6 2.859131 1_555
Al2 Al5 2.877758 1_545
Al2 Al3 2.888671 1_555
Al3 Al6 2.809899 1_455
Al3 Al4 2.810898 1_545
Al3 Al7 2.813843 1_555
Al3 Al4 2.828984 1_555
Al3 Al6 2.831314 1_555
Al3 Al5 2.832021 1_455
Al3 Al5 2.833726 1_545
Al3 Al8 2.837422 1_545
Al3 Al37 2.856927 1_455
Al4 Al8 2.810246 1_555
Al4 Al5 2.811917 1_555
Al4 Al5 2.829292 1_455
Al4 Al6 2.832610 1_465
Al4 Al6 2.833138 1_555
Al4 Al7 2.842840 1_555
Al4 Al9 2.850832 1_455
Al5 Al6 2.809237 1_555
Al5 Al9 2.814853 1_555
Al5 Al6 2.830645 1_565
Al5 Al8 2.846779 1_555
Al6 Al9 2.843515 1_545
Al6 Al7 2.851767 1_555
Al7 Al8 2.819934 1_545
Al7 Al8 2.819934 1_555
Al7 Al9 2.832873 1_455
Al7 Al9 2.832873 1_545
Al8 Al9 2.820598 1_455
Al8 Al9 2.820598 1_555
Al10 Al6 2.809644 1_555
Al10 Al9 2.819934 1_545
Al10 Al9 2.819934 1_555
Al10 Al7 2.820598 1_655
Al10 Al7 2.820598 1_555
Al10 Al8 2.832873 1_645
Al10 Al8 2.832873 1_555
Al10 Al5 2.838046 1_555
Al10 Al3 2.845309 1_655
Al10 Al12 2.861325 1_555
Al10 Al11 2.894237 1_555
Al10 Al13 2.919098 1_555
Al11 Al12 2.819934 1_555
Al11 Al12 2.819934 1_545
Al11 Al14 2.820598 1_655
Al11 Al14 2.820598 1_555
Al11 Al15 2.823072 1_655
Al11 Al16 2.831199 1_555
Al11 Al13 2.832873 1_555
Al11 Al13 2.832873 1_645
Al11 Al18 2.850961 1_645
Al11 Al9 2.861325 1_545
Al11 Al8 2.919098 1_645
Al12 Al13 2.820598 1_555
Al12 Al13 2.820598 1_655
Al12 Al18 2.822146 1_655
Al12 Al15 2.822849 1_655
Al12 Al17 2.828036 1_555
Al12 Al14 2.832873 1_655
Al12 Al14 2.832873 1_565
Al12 Al9 2.894237 1_555
Al12 Al7 2.919098 1_655
Al13 Al14 2.819934 1_555
Al13 Al14 2.819934 1_565
Al13 Al16 2.834612 1_555
Al13 Al17 2.841820 1_555
Al13 Al18 2.849095 1_555
Al13 Al7 2.861325 1_555
Al13 Al8 2.894237 1_555
Al14 Al16 2.797264 1_555
Al14 Al15 2.813337 1_555
Al14 Al17 2.828471 1_545
Al14 Al8 2.861325 1_545
Al14 Al7 2.894237 1_555
Al14 Al9 2.919098 1_545
Al15 Al19 2.756360 1_455
Al15 Al20 2.773851 1_545
Al15 Al16 2.777074 1_555
Al15 Al18 2.790963 1_555
Al15 Al17 2.823907 1_545
Al15 Al17 2.841964 1_455
Al15 Al18 2.849373 1_545
Al15 Al16 2.864242 1_455
Al15 Al21 3.029714 1_555
Al16 Al19 2.753288 1_555
Al16 Al17 2.769378 1_545
Al16 Al18 2.831455 1_645
Al16 Al18 2.834525 1_555
Al16 Al17 2.870806 1_555
Al16 Al21 2.995655 1_555
Al16 Al22 3.070193 1_545
Al17 Al19 2.757727 1_555
Al17 Al20 2.766087 1_555
Al17 Al18 2.779786 1_655
Al17 Al18 2.861674 1_555
Al17 Al22 3.096981 1_555
Al18 Al20 2.775903 1_555
Al18 Al21 2.988033 1_555
Al18 Al22 3.062400 1_455
Al19 Al23 2.620862 1_555
Al19 Al22 2.777743 1_545
Al19 Al21 2.791883 1_555
Al19 Al20 2.820519 1_645
Al19 Al20 2.846028 1_555
Al19 Al21 2.887709 1_655
Al19 Al22 2.924736 1_555
Al20 Al22 2.820092 1_455
Al20 Al21 2.820426 1_555
Al20 Al21 2.850165 1_565
Al20 Al22 2.874181 1_555
Al21 O0 2.019226 1_555
Al22 O1 1.873875 1_555
Al23 O2 1.879632 1_555
Al23 O1 1.900509 1_555
Al23 O3 1.913936 1_655
Al23 O0 1.941956 1_655
Al24 O2 1.850787 1_555
Al24 O1 1.863232 1_555
Al24 O3 1.901605 1_565
Al24 O4 1.913629 1_565
Al24 O0 1.979413 1_565
Al25 O2 1.733552 1_555
Al25 O5 1.757896 1_555
Al25 O4 1.781601 1_555
Al25 O0 1.802305 1_555
Al26 O3 1.751641 1_665
Al26 O4 1.758087 1_565
Al26 O5 1.789450 1_655
Al26 O6 1.830130 1_665
Al27 O6 1.811138 1_565
Al27 O8 1.834300 1_555
Al27 O7 1.871000 1_555
Al27 O5 1.904802 1_555
Al27 O10 2.008133 1_555
Al28 O6 1.758500 1_655
Al28 O11 1.774798 1_555
Al28 O7 1.810033 1_555
Al28 O9 1.841392 1_555
Al29 O10 1.782397 1_555
Al29 O8 1.801685 1_655
Al29 O9 1.831026 1_565
Al29 O7 1.865327 1_555
Al30 O12 1.846315 1_555
Al30 O11 1.878194 1_455
Al30 O13 1.902818 1_555
Al30 O8 1.909096 1_555
Al30 O9 2.098709 1_555
Al31 O10 1.755857 1_555
Al31 O12 1.758154 1_555
Al31 O13 1.778533 1_565
Al31 O11 1.810062 1_465
Al32 O16 1.752819 1_555
Al32 O15 1.776716 1_455
Al32 O14 1.793513 1_465
Al32 O12 1.841087 1_555
Al33 O17 1.738998 1_545
Al33 O13 1.845575 1_555
Al33 O14 1.852884 1_555
Al33 O16 1.941694 1_555
Al33 O15 2.137899 1_545
Al34 O18 1.768970 1_555
Al34 O15 1.769866 1_555
Al34 O16 1.813139 1_555
Al34 O14 1.876659 1_555
Al35 O20 1.729215 1_555
Al35 O17 1.769411 1_545
Al35 O19 1.771166 1_545
Al35 O18 1.985225 1_455
Al36 O20 1.674886 1_555
Al36 O19 1.703609 1_645
Al36 O18 1.800734 1_555
Al37 Al4 2.877870 1_645
Al37 Al6 2.885611 1_555
