# generated using pymatgen
data_SrMo(PO4)2
_symmetry_space_group_name_H-M   'P 1'
_cell_length_a   5.72047468
_cell_length_b   7.13519840
_cell_length_c   9.33753936
_cell_angle_alpha   111.17623594
_cell_angle_beta   100.85610269
_cell_angle_gamma   98.01423764
_symmetry_Int_Tables_number   1
_chemical_formula_structural   SrMo(PO4)2
_chemical_formula_sum   'Sr2 Mo2 P4 O16'
_cell_volume   339.95765643
_cell_formula_units_Z   2
loop_
 _symmetry_equiv_pos_site_id
 _symmetry_equiv_pos_as_xyz
  1  'x, y, z'
loop_
 _atom_site_type_symbol
 _atom_site_label
 _atom_site_symmetry_multiplicity
 _atom_site_fract_x
 _atom_site_fract_y
 _atom_site_fract_z
 _atom_site_occupancy
  Sr  Sr0  1  0.24395800  0.75889000  0.02585000  1
  Sr  Sr1  1  0.75604200  0.24111000  0.97415000  1
  Mo  Mo0  1  0.66367200  0.84362500  0.56272600  1
  Mo  Mo1  1  0.33632800  0.15637500  0.43727400  1
  P  P0  1  0.39203200  0.44028800  0.23014600  1
  P  P1  1  0.60796800  0.55971200  0.76985400  1
  P  P2  1  0.84548300  0.03353100  0.30232900  1
  P  P3  1  0.15451700  0.96646900  0.69767100  1
  O  O0  1  0.83012600  0.55742700  0.88760500  1
  O  O1  1  0.62673100  0.47575100  0.18310000  1
  O  O2  1  0.64547100  0.77377600  0.74866300  1
  O  O3  1  0.95183800  0.09942300  0.70596700  1
  O  O4  1  0.37326900  0.52424900  0.81690000  1
  O  O5  1  0.99242600  0.75240000  0.57398800  1
  O  O6  1  0.00757400  0.24760000  0.42601200  1
  O  O7  1  0.28129400  0.98748400  0.86189200  1
  O  O8  1  0.35452900  0.22622400  0.25133700  1
  O  O9  1  0.71870600  0.01251600  0.13810800  1
  O  O10  1  0.16987400  0.44257300  0.11239500  1
  O  O11  1  0.40742200  0.61046100  0.40014700  1
  O  O12  1  0.59257800  0.38953900  0.59985300  1
  O  O13  1  0.63954000  0.97062500  0.38256100  1
  O  O14  1  0.04816200  0.90057700  0.29403300  1
  O  O15  1  0.36046000  0.02937600  0.61743900  1
loop_
_geom_bond_atom_site_label_1
_geom_bond_atom_site_label_2
_geom_bond_distance
_geom_bond_site_symmetry_2
Mo0 O11 1.969322 1_555
Mo0 O2 1.988059 1_555
Mo0 O5 2.070699 1_555
Mo0 O3 2.098667 1_565
Mo0 O13 2.172350 1_555
Mo0 O15 2.347716 1_565
Mo1 O12 1.969322 1_555
Mo1 O8 1.988059 1_555
Mo1 O6 2.070699 1_555
Mo1 O14 2.098667 1_545
Mo1 O15 2.172345 1_555
Mo1 O13 2.347712 1_545
O0 P1 1.522044 1_555
O0 Sr0 2.428221 1_656
O0 Sr1 2.665832 1_555
O1 P0 1.505756 1_555
O1 Sr1 2.384507 1_554
O2 P1 1.600334 1_555
O3 P3 1.592994 1_645
O3 Sr1 2.844405 1_555
O4 P1 1.505756 1_555
O4 Sr0 2.384507 1_556
O5 P3 1.566469 1_655
O6 P2 1.566469 1_455
O7 P3 1.511445 1_555
O7 Sr0 2.622968 1_556
O7 Sr1 2.817081 1_565
O8 P0 1.600334 1_555
O9 P2 1.511445 1_555
O9 Sr1 2.622968 1_554
O9 Sr0 2.817081 1_545
O10 P0 1.522044 1_555
O10 Sr1 2.428221 1_454
O10 Sr0 2.665832 1_555
O11 P0 1.589626 1_555
O12 P1 1.589626 1_555
O13 P2 1.605794 1_565
O14 P2 1.592994 1_465
O14 Sr0 2.844405 1_555
O15 P3 1.605796 1_545
