# generated using pymatgen
data_K2NdP2S7
_symmetry_space_group_name_H-M   'P 1'
_cell_length_a   6.94957200
_cell_length_b   9.22699800
_cell_length_c   21.42024334
_cell_angle_alpha   70.27729338
_cell_angle_beta   90.00000000
_cell_angle_gamma   90.00000000
_symmetry_Int_Tables_number   1
_chemical_formula_structural   K2NdP2S7
_chemical_formula_sum   'K8 Nd4 P8 S28'
_cell_volume   1292.96854212
_cell_formula_units_Z   4
loop_
 _symmetry_equiv_pos_site_id
 _symmetry_equiv_pos_as_xyz
  1  'x, y, z'
loop_
 _atom_site_type_symbol
 _atom_site_label
 _atom_site_symmetry_multiplicity
 _atom_site_fract_x
 _atom_site_fract_y
 _atom_site_fract_z
 _atom_site_occupancy
  K  K0  1  0.98713800  0.75267000  0.49034100  1
  K  K1  1  0.48713800  0.24733000  0.00965900  1
  K  K2  1  0.01286200  0.24733000  0.50965900  1
  K  K3  1  0.51286200  0.75267000  0.99034100  1
  K  K4  1  0.54250100  0.16217700  0.68352700  1
  K  K5  1  0.04250100  0.83782300  0.81647300  1
  K  K6  1  0.45749900  0.83782300  0.31647300  1
  K  K7  1  0.95749900  0.16217700  0.18352700  1
  Nd  Nd0  1  0.96708000  0.34138600  0.84886700  1
  Nd  Nd1  1  0.46708000  0.65861400  0.65113300  1
  Nd  Nd2  1  0.03292000  0.65861400  0.15113300  1
  Nd  Nd3  1  0.53292000  0.34138600  0.34886700  1
  P  P0  1  0.48926500  0.96298700  0.45579200  1
  P  P1  1  0.51073500  0.03701300  0.54420800  1
  P  P2  1  0.01073500  0.96298700  0.95579200  1
  P  P3  1  0.98926500  0.03701300  0.04420800  1
  P  P4  1  0.98744900  0.56906900  0.32884200  1
  P  P5  1  0.48744900  0.43093100  0.17115800  1
  P  P6  1  0.01255100  0.43093100  0.67115800  1
  P  P7  1  0.51255100  0.56906900  0.82884200  1
  S  S0  1  0.53654200  0.26796200  0.50598800  1
  S  S1  1  0.03654200  0.73203800  0.99401200  1
  S  S2  1  0.46345800  0.73203800  0.49401200  1
  S  S3  1  0.96345800  0.26796200  0.00598800  1
  S  S4  1  0.75910500  0.92326100  0.09710900  1
  S  S5  1  0.25910500  0.07673900  0.40289100  1
  S  S6  1  0.24089500  0.07673900  0.90289100  1
  S  S7  1  0.74089500  0.92326100  0.59710900  1
  S  S8  1  0.73256700  0.04434200  0.40159900  1
  S  S9  1  0.76743300  0.04434200  0.90159900  1
  S  S10  1  0.23256700  0.95565800  0.09840100  1
  S  S11  1  0.26743300  0.95565800  0.59840100  1
  S  S12  1  0.77606200  0.49119900  0.61063900  1
  S  S13  1  0.27606200  0.50880100  0.88936100  1
  S  S14  1  0.22393800  0.50880100  0.38936100  1
  S  S15  1  0.72393800  0.49119900  0.11063900  1
  S  S16  1  0.74170100  0.56380500  0.88960000  1
  S  S17  1  0.24170100  0.43619500  0.61040000  1
  S  S18  1  0.25829900  0.43619500  0.11040000  1
  S  S19  1  0.75829900  0.56380500  0.38960000  1
  S  S20  1  0.52546800  0.21745300  0.24142800  1
  S  S21  1  0.02546800  0.78254700  0.25857200  1
  S  S22  1  0.47453200  0.78254700  0.75857200  1
  S  S23  1  0.97453200  0.21745300  0.74142800  1
  S  S24  1  0.57900800  0.41809000  0.77927900  1
  S  S25  1  0.07900800  0.58191000  0.72072100  1
  S  S26  1  0.42099200  0.58191000  0.22072100  1
  S  S27  1  0.92099200  0.41809000  0.27927900  1
loop_
_geom_bond_atom_site_label_1
_geom_bond_atom_site_label_2
_geom_bond_distance
_geom_bond_site_symmetry_2
K0 S12 3.227442 1_555
K0 S8 3.245507 1_565
K0 S2 3.315099 1_655
K0 S5 3.498846 1_665
K0 S19 3.572200 1_555
K0 S7 3.614708 1_555
K0 S17 3.633438 1_655
K0 S2 3.643790 1_555
K1 S13 3.227442 1_554
K1 S10 3.245507 1_545
K1 S3 3.315099 1_555
K1 S4 3.498846 1_545
K1 S18 3.572200 1_555
K1 S6 3.614708 1_554
K1 S16 3.633438 1_554
K1 S3 3.643790 1_455
K2 S14 3.227442 1_555
K2 S11 3.245507 1_545
K2 S0 3.315099 1_455
K2 S7 3.498846 1_445
K2 S17 3.572200 1_555
K2 S5 3.614708 1_555
K2 S19 3.633438 1_455
K2 S0 3.643790 1_555
K3 S15 3.227442 1_556
K3 S9 3.245507 1_565
K3 S1 3.315099 1_555
K3 S6 3.498846 1_565
K3 S16 3.572200 1_555
K3 S4 3.614708 1_556
K3 S18 3.633438 1_556
K3 S1 3.643790 1_655
K4 S17 3.247013 1_555
K4 S12 3.330120 1_555
K4 S23 3.352595 1_555
K4 S22 3.358070 1_545
K4 P1 3.551673 1_555
K4 S0 3.593240 1_555
K4 S7 3.597422 1_545
K4 S11 3.599356 1_545
K4 S24 3.621557 1_555
K5 S16 3.247013 1_455
K5 S13 3.330120 1_555
K5 S22 3.352595 1_555
K5 S23 3.358070 1_465
K5 P2 3.551673 1_555
K5 S1 3.593240 1_555
K5 S6 3.597422 1_565
K5 S9 3.599356 1_465
K5 S25 3.621557 1_555
K6 S19 3.247013 1_555
K6 S14 3.330120 1_555
K6 S21 3.352595 1_555
K6 S20 3.358070 1_565
K6 P0 3.551673 1_555
K6 S2 3.593240 1_555
K6 S5 3.597422 1_565
K6 S8 3.599356 1_565
K6 S26 3.621557 1_555
K7 S18 3.247013 1_655
K7 S15 3.330120 1_555
K7 S20 3.352595 1_555
K7 S21 3.358070 1_645
K7 P3 3.551673 1_555
K7 S3 3.593240 1_555
K7 S4 3.597422 1_545
K7 S10 3.599356 1_645
K7 S27 3.621557 1_555
Nd0 S23 2.895318 1_555
Nd0 S9 2.936581 1_555
Nd0 S16 2.938513 1_555
Nd0 S13 2.941733 1_655
Nd0 S25 2.992220 1_655
Nd0 S6 3.002630 1_655
Nd0 S24 3.046997 1_555
Nd0 S3 3.201210 1_556
Nd1 S22 2.895318 1_555
Nd1 S11 2.936581 1_555
Nd1 S17 2.938513 1_555
Nd1 S12 2.941733 1_555
Nd1 S24 2.992220 1_555
Nd1 S7 3.002630 1_555
Nd1 S25 3.046997 1_555
Nd1 S2 3.201210 1_555
Nd2 S21 2.895318 1_555
Nd2 S10 2.936581 1_555
Nd2 S18 2.938513 1_555
Nd2 S15 2.941733 1_455
Nd2 S27 2.992220 1_455
Nd2 S4 3.002630 1_455
Nd2 S26 3.046997 1_555
Nd2 S1 3.201210 1_554
Nd3 S20 2.895318 1_555
Nd3 S8 2.936581 1_555
Nd3 S19 2.938513 1_555
Nd3 S14 2.941733 1_555
Nd3 S26 2.992220 1_555
Nd3 S5 3.002630 1_555
Nd3 S27 3.046997 1_555
Nd3 S0 3.201210 1_555
P0 S2 2.016417 1_555
P0 S5 2.035039 1_565
P0 S8 2.044954 1_565
P1 S0 2.016417 1_555
P1 S7 2.035039 1_545
P1 S11 2.044954 1_545
P2 S1 2.016417 1_555
P2 S6 2.035039 1_565
P2 S9 2.044954 1_465
P3 S3 2.016417 1_555
P3 S4 2.035039 1_545
P3 S10 2.044954 1_645
P4 S19 2.046829 1_555
P4 S14 2.050427 1_655
P4 S21 2.052873 1_655
P4 S27 2.068646 1_555
P5 S18 2.046829 1_555
P5 S15 2.050427 1_555
P5 S20 2.052873 1_555
P5 S26 2.068646 1_555
P6 S17 2.046829 1_555
P6 S12 2.050427 1_455
P6 S23 2.052873 1_455
P6 S25 2.068646 1_555
P7 S16 2.046829 1_555
P7 S13 2.050427 1_555
P7 S22 2.052873 1_555
P7 S24 2.068646 1_555
