# generated using pymatgen
data_TiS2
_symmetry_space_group_name_H-M   'P 1'
_cell_length_a   4.31354651
_cell_length_b   4.31354651
_cell_length_c   2.93110900
_cell_angle_alpha   90.00000000
_cell_angle_beta   90.00000000
_cell_angle_gamma   120.00000775
_symmetry_Int_Tables_number   1
_chemical_formula_structural   TiS2
_chemical_formula_sum   'Ti1 S2'
_cell_volume   47.23147800
_cell_formula_units_Z   1
loop_
 _symmetry_equiv_pos_site_id
 _symmetry_equiv_pos_as_xyz
  1  'x, y, z'
loop_
 _atom_site_type_symbol
 _atom_site_label
 _atom_site_symmetry_multiplicity
 _atom_site_fract_x
 _atom_site_fract_y
 _atom_site_fract_z
 _atom_site_occupancy
  Ti  Ti0  1  0.00000000  0.00000000  0.00000000  1
  S  S0  1  0.66666700  0.33333300  0.50000000  1
  S  S1  1  0.33333300  0.66666700  0.50000000  1
loop_
_geom_bond_atom_site_label_1
_geom_bond_atom_site_label_2
_geom_bond_distance
_geom_bond_site_symmetry_2
S0 S1 2.490425 1_655
S0 S1 2.490425 1_545
S0 S1 2.490432 1_555
S0 Ti0 2.889648 1_656
S0 Ti0 2.889648 1_655
S0 Ti0 2.889651 1_665
S0 Ti0 2.889651 1_666
S0 Ti0 2.889651 1_556
S0 Ti0 2.889651 1_555
S1 Ti0 2.889648 1_566
S1 Ti0 2.889648 1_565
S1 Ti0 2.889651 1_665
S1 Ti0 2.889651 1_666
S1 Ti0 2.889651 1_556
S1 Ti0 2.889651 1_555
