# generated using pymatgen
data_Hg8Br3O4
_symmetry_space_group_name_H-M   'P 1'
_cell_length_a   6.46965100
_cell_length_b   7.32647500
_cell_length_c   43.60641906
_cell_angle_alpha   84.57270031
_cell_angle_beta   90.00000000
_cell_angle_gamma   90.00000000
_symmetry_Int_Tables_number   1
_chemical_formula_structural   Hg8Br3O4
_chemical_formula_sum   'Hg32 Br12 O16'
_cell_volume   2057.66672978
_cell_formula_units_Z   4
loop_
 _symmetry_equiv_pos_site_id
 _symmetry_equiv_pos_as_xyz
  1  'x, y, z'
loop_
 _atom_site_type_symbol
 _atom_site_label
 _atom_site_symmetry_multiplicity
 _atom_site_fract_x
 _atom_site_fract_y
 _atom_site_fract_z
 _atom_site_occupancy
  Hg  Hg0  1  0.87482000  0.36204900  0.72089100  1
  Hg  Hg1  1  0.29840900  0.80225200  0.69379300  1
  Hg  Hg2  1  0.58789300  0.25920200  0.88404600  1
  Hg  Hg3  1  0.01386800  0.11353800  0.66849200  1
  Hg  Hg4  1  0.37482000  0.63795100  0.77910900  1
  Hg  Hg5  1  0.92479100  0.99312000  0.15126200  1
  Hg  Hg6  1  0.27046000  0.30031800  0.62285500  1
  Hg  Hg7  1  0.91210700  0.25920200  0.38404600  1
  Hg  Hg8  1  0.07520900  0.00688000  0.84873800  1
  Hg  Hg9  1  0.41210700  0.74079800  0.11595400  1
  Hg  Hg10  1  0.72954000  0.69968200  0.37714500  1
  Hg  Hg11  1  0.48613200  0.11353800  0.16849200  1
  Hg  Hg12  1  0.51386800  0.88646200  0.83150800  1
  Hg  Hg13  1  0.42479100  0.00688000  0.34873800  1
  Hg  Hg14  1  0.68989100  0.04227000  0.99122500  1
  Hg  Hg15  1  0.81010900  0.04227000  0.49122500  1
  Hg  Hg16  1  0.23087600  0.10933100  0.26588400  1
  Hg  Hg17  1  0.76912400  0.89066900  0.73411600  1
  Hg  Hg18  1  0.31010900  0.95773000  0.00877500  1
  Hg  Hg19  1  0.79840900  0.19774800  0.80620700  1
  Hg  Hg20  1  0.57520900  0.99312000  0.65126200  1
  Hg  Hg21  1  0.08789300  0.74079800  0.61595400  1
  Hg  Hg22  1  0.62518000  0.36204900  0.22089100  1
  Hg  Hg23  1  0.70159100  0.19774800  0.30620700  1
  Hg  Hg24  1  0.26912400  0.10933100  0.76588400  1
  Hg  Hg25  1  0.73087600  0.89066900  0.23411600  1
  Hg  Hg26  1  0.98613200  0.88646200  0.33150800  1
  Hg  Hg27  1  0.18989100  0.95773000  0.50877500  1
  Hg  Hg28  1  0.77046000  0.69968200  0.87714500  1
  Hg  Hg29  1  0.20159100  0.80225200  0.19379300  1
  Hg  Hg30  1  0.22954000  0.30031800  0.12285500  1
  Hg  Hg31  1  0.12518000  0.63795100  0.27910900  1
  Br  Br0  1  0.26835900  0.80193100  0.40982500  1
  Br  Br1  1  0.49378100  0.17964100  0.46304000  1
  Br  Br2  1  0.62697700  0.58959800  0.28031400  1
  Br  Br3  1  0.00621900  0.17964100  0.96304000  1
  Br  Br4  1  0.23164100  0.80193100  0.90982500  1
  Br  Br5  1  0.50621900  0.82035900  0.53696000  1
  Br  Br6  1  0.73164100  0.19806900  0.59017500  1
  Br  Br7  1  0.12697700  0.41040200  0.21968600  1
  Br  Br8  1  0.37302300  0.41040200  0.71968600  1
  Br  Br9  1  0.99378100  0.82035900  0.03696000  1
  Br  Br10  1  0.76835900  0.19806900  0.09017500  1
  Br  Br11  1  0.87302300  0.58959800  0.78031400  1
  O  O0  1  0.08347400  0.86349000  0.24572000  1
  O  O1  1  0.01075000  0.65470800  0.91561700  1
  O  O2  1  0.83084700  0.58172700  0.68646800  1
  O  O3  1  0.16915300  0.41827300  0.31353200  1
  O  O4  1  0.07841400  0.25614100  0.30521300  1
  O  O5  1  0.91652600  0.13651000  0.75428000  1
  O  O6  1  0.51075000  0.34529200  0.58438300  1
  O  O7  1  0.66915300  0.58172700  0.18646800  1
  O  O8  1  0.33084700  0.41827300  0.81353200  1
  O  O9  1  0.92158600  0.74385900  0.69478700  1
  O  O10  1  0.98925000  0.34529200  0.08438300  1
  O  O11  1  0.57841400  0.74385900  0.19478700  1
  O  O12  1  0.58347400  0.13651000  0.25428000  1
  O  O13  1  0.41652600  0.86349000  0.74572000  1
  O  O14  1  0.42158600  0.25614100  0.80521300  1
  O  O15  1  0.48925000  0.65470800  0.41561700  1
loop_
_geom_bond_atom_site_label_1
_geom_bond_atom_site_label_2
_geom_bond_distance
_geom_bond_site_symmetry_2
Hg0 O2 2.113646 1_555
Hg0 O5 2.113766 1_555
Hg1 O13 2.470773 1_555
Hg1 O9 2.474837 1_455
Hg1 Hg20 2.848068 1_555
Hg4 O8 2.113646 1_555
Hg4 O13 2.113766 1_555
Hg6 O6 2.288054 1_555
Hg10 O15 2.288054 1_555
Hg10 Hg13 3.155930 1_565
Hg11 Hg5 3.085826 1_545
Hg12 Hg8 3.085826 1_565
Hg13 Hg23 2.848068 1_555
Hg13 Hg26 3.085826 1_445
Hg14 Hg18 2.629975 1_546
Hg15 Hg27 2.629975 1_645
Hg16 O0 2.286106 1_545
Hg16 O4 2.328092 1_555
Hg16 O12 2.341035 1_555
Hg17 O5 2.286106 1_565
Hg17 O9 2.328092 1_555
Hg17 O13 2.341035 1_555
Hg19 O5 2.470773 1_555
Hg19 O14 2.474837 1_555
Hg19 Hg8 2.848068 1_655
Hg20 Hg3 3.085826 1_665
Hg20 Hg6 3.155930 1_565
Hg22 O7 2.113646 1_555
Hg22 O12 2.113766 1_555
Hg23 O12 2.470773 1_555
Hg23 O4 2.474837 1_655
Hg24 O13 2.286106 1_545
Hg24 O14 2.328092 1_555
Hg24 O5 2.341035 1_455
Hg25 O12 2.286106 1_565
Hg25 O11 2.328092 1_555
Hg25 O0 2.341035 1_655
Hg28 O1 2.288054 1_655
Hg28 Hg8 3.155930 1_665
Hg29 O0 2.470773 1_555
Hg29 O11 2.474837 1_555
Hg29 Hg5 2.848068 1_455
Hg30 O10 2.288054 1_455
Hg30 Hg5 3.155930 1_445
Hg31 O3 2.113646 1_555
Hg31 O0 2.113766 1_555
Br0 O15 1.793873 1_555
Br0 Hg13 3.101299 1_565
Br1 Hg15 2.545150 1_555
Br1 Hg27 3.142092 1_545
Br2 Hg25 2.921488 1_555
Br2 Hg23 3.022691 1_555
Br2 Hg22 3.211088 1_555
Br2 Hg31 3.242492 1_655
Br2 Hg31 3.265606 1_555
Br3 Hg14 2.545150 1_455
Br3 Hg18 3.142092 1_546
Br4 O1 1.793873 1_555
Br4 Hg8 3.101299 1_565
Br5 Hg27 2.545150 1_555
Br5 Hg15 3.142092 1_565
Br6 O6 1.793873 1_555
Br6 Hg20 3.101299 1_545
Br7 Hg16 2.921488 1_555
Br7 Hg29 3.022691 1_555
Br7 Hg31 3.211088 1_555
Br7 Hg22 3.242492 1_555
Br7 Hg22 3.265606 1_455
Br8 Hg24 2.921488 1_555
Br8 Hg1 3.022691 1_555
Br8 Hg4 3.211088 1_555
Br8 Hg0 3.242492 1_455
Br8 Hg0 3.265606 1_555
Br9 Hg18 2.545150 1_655
Br9 Hg14 3.142092 1_564
Br10 O10 1.793873 1_555
Br10 Hg5 3.101299 1_545
Br11 Hg17 2.921488 1_555
Br11 Hg19 3.022691 1_555
Br11 Hg0 3.211088 1_555
Br11 Hg4 3.242492 1_555
Br11 Hg4 3.265606 1_655
O2 O9 1.403117 1_555
O3 O4 1.403117 1_555
O11 O7 1.403117 1_555
O14 O8 1.403117 1_555
