# generated using pymatgen
data_Li4MnCo2NiO8
_symmetry_space_group_name_H-M   'P 1'
_cell_length_a   5.16317547
_cell_length_b   5.16317547
_cell_length_c   10.12765229
_cell_angle_alpha   79.90920489
_cell_angle_beta   79.90920489
_cell_angle_gamma   33.24476541
_symmetry_Int_Tables_number   1
_chemical_formula_structural   Li4MnCo2NiO8
_chemical_formula_sum   'Li4 Mn1 Co2 Ni1 O8'
_cell_volume   145.51597279
_cell_formula_units_Z   1
loop_
 _symmetry_equiv_pos_site_id
 _symmetry_equiv_pos_as_xyz
  1  'x, y, z'
loop_
 _atom_site_type_symbol
 _atom_site_label
 _atom_site_symmetry_multiplicity
 _atom_site_fract_x
 _atom_site_fract_y
 _atom_site_fract_z
 _atom_site_occupancy
  Li  Li0  1  0.99719800  0.99719800  0.00368300  1
  Li  Li1  1  0.50018000  0.50018000  0.24684000  1
  Li  Li2  1  0.99697200  0.99697200  0.48724200  1
  Li  Li3  1  0.50380700  0.50380700  0.75790800  1
  Mn  Mn0  1  0.25025300  0.25025300  0.62410700  1
  Co  Co0  1  0.74590700  0.74590700  0.88575600  1
  Co  Co1  1  0.25185800  0.25185800  0.13416300  1
  Ni  Ni0  1  0.75222800  0.75222800  0.37146300  1
  O  O0  1  0.87114500  0.87114500  0.18300600  1
  O  O1  1  0.36454900  0.36454900  0.45100100  1
  O  O2  1  0.85634600  0.85634600  0.68588200  1
  O  O3  1  0.36510600  0.36510600  0.93736800  1
  O  O4  1  0.64033900  0.64033900  0.57059100  1
  O  O5  1  0.13764300  0.13764300  0.80312100  1
  O  O6  1  0.63504900  0.63504900  0.05493600  1
  O  O7  1  0.13142100  0.13142100  0.30293300  1
loop_
_geom_bond_atom_site_label_1
_geom_bond_atom_site_label_2
_geom_bond_distance
_geom_bond_site_symmetry_2
Li0 O0 2.006390 1_555
Li0 O6 2.137847 1_565
Li0 O6 2.137847 1_655
Li0 O3 2.159146 1_654
Li0 O3 2.159146 1_564
Li0 O5 2.241605 1_664
Li1 O7 2.111965 1_655
Li1 O7 2.111965 1_565
Li1 O0 2.128726 1_455
Li1 O0 2.128726 1_545
Li1 O6 2.147030 1_555
Li1 O1 2.249793 1_555
Li2 O1 2.051582 1_565
Li2 O1 2.051582 1_655
Li2 O7 2.084698 1_665
Li2 O2 2.227027 1_555
Li2 O4 2.311791 1_565
Li2 O4 2.311791 1_655
Li3 O3 2.067530 1_555
Li3 O5 2.089656 1_655
Li3 O5 2.089656 1_565
Li3 O4 2.118199 1_555
Li3 O2 2.287316 1_545
Li3 O2 2.287316 1_455
Mn0 O1 1.904601 1_555
Mn0 O5 1.946726 1_555
Mn0 O4 1.968160 1_455
Mn0 O4 1.968160 1_545
Mn0 O2 1.978668 1_545
Mn0 O2 1.978668 1_455
Co0 O6 1.857860 1_556
Co0 O3 2.017745 1_565
Co0 O3 2.017745 1_655
Co0 O5 2.087426 1_565
Co0 O5 2.087426 1_655
Co0 O2 2.117266 1_555
Co1 O7 1.896516 1_555
Co1 O0 2.008204 1_455
Co1 O0 2.008204 1_545
Co1 O3 2.100301 1_554
Co1 O6 2.121405 1_455
Co1 O6 2.121405 1_545
Ni0 O0 2.050878 1_555
Ni0 O1 2.095946 1_565
Ni0 O1 2.095946 1_655
Ni0 O7 2.096545 1_565
Ni0 O7 2.096545 1_655
Ni0 O4 2.115723 1_555
