# generated using pymatgen
data_Al2O3
_symmetry_space_group_name_H-M   'P 1'
_cell_length_a   10.35972124
_cell_length_b   10.36448392
_cell_length_c   10.48079158
_cell_angle_alpha   93.67248115
_cell_angle_beta   89.97627455
_cell_angle_gamma   88.85181623
_symmetry_Int_Tables_number   1
_chemical_formula_structural   Al2O3
_chemical_formula_sum   'Al40 O60'
_cell_volume   1122.81771752
_cell_formula_units_Z   20
loop_
 _symmetry_equiv_pos_site_id
 _symmetry_equiv_pos_as_xyz
  1  'x, y, z'
loop_
 _atom_site_type_symbol
 _atom_site_label
 _atom_site_symmetry_multiplicity
 _atom_site_fract_x
 _atom_site_fract_y
 _atom_site_fract_z
 _atom_site_occupancy
  Al  Al0  1  0.34711200  0.52216800  0.26095000  1
  Al  Al1  1  0.35993000  0.10075400  0.40442700  1
  Al  Al2  1  0.53816700  0.75942500  0.64212200  1
  Al  Al3  1  0.76696300  0.87220500  0.82863000  1
  Al  Al4  1  0.29928000  0.94658400  0.69649800  1
  Al  Al5  1  0.80145700  0.61875900  0.76398500  1
  Al  Al6  1  0.31936400  0.38064200  0.52738200  1
  Al  Al7  1  0.15920100  0.89057700  0.01295200  1
  Al  Al8  1  0.42363100  0.69405500  0.08295600  1
  Al  Al9  1  0.86963000  0.49499700  0.45884400  1
  Al  Al10  1  0.74220500  0.74598200  0.41182100  1
  Al  Al11  1  0.83610900  0.25876600  0.24731700  1
  Al  Al12  1  0.91701200  0.88152300  0.29242600  1
  Al  Al13  1  0.35116800  0.82317500  0.42128400  1
  Al  Al14  1  0.07108300  0.79995100  0.54135500  1
  Al  Al15  1  0.26755700  0.10677600  0.93252600  1
  Al  Al16  1  0.95717500  0.39749100  0.95883000  1
  Al  Al17  1  0.66645500  0.24768200  0.45263800  1
  Al  Al18  1  0.63191200  0.01098900  0.38775000  1
  Al  Al19  1  0.54987200  0.15366200  0.16386600  1
  Al  Al20  1  0.06291200  0.10456600  0.20083200  1
  Al  Al21  1  0.85851800  0.08811700  0.98795400  1
  Al  Al22  1  0.67574800  0.82689200  0.15813900  1
  Al  Al23  1  0.37358300  0.98623700  0.15760400  1
  Al  Al24  1  0.06386500  0.52510400  0.64442700  1
  Al  Al25  1  0.07872200  0.26919100  0.45610000  1
  Al  Al26  1  0.73372900  0.99775700  0.62577200  1
  Al  Al27  1  0.67740500  0.34089400  0.94758000  1
  Al  Al28  1  0.54110300  0.54538100  0.48880400  1
  Al  Al29  1  0.78349400  0.53444300  0.16354200  1
  Al  Al30  1  0.26242200  0.45105500  0.97686000  1
  Al  Al31  1  0.60113700  0.44008500  0.71143900  1
  Al  Al32  1  0.28200100  0.64524600  0.72348400  1
  Al  Al33  1  0.03972900  0.43889700  0.21427900  1
  Al  Al34  1  0.11773900  0.26805200  0.72473400  1
  Al  Al35  1  0.93678500  0.72356700  0.02083800  1
  Al  Al36  1  0.39929300  0.25418300  0.79224300  1
  Al  Al37  1  0.18647800  0.71717000  0.24204900  1
  Al  Al38  1  0.56631700  0.04636900  0.90964000  1
  Al  Al39  1  0.04387600  0.99300000  0.78462700  1
  O  O0  1  0.92196300  0.78973400  0.44183600  1
  O  O1  1  0.42575200  0.03737100  0.00565000  1
  O  O2  1  0.62374200  0.99129900  0.75590500  1
  O  O3  1  0.51054400  0.57512500  0.66339400  1
  O  O4  1  0.31407600  0.28498200  0.93810100  1
  O  O5  1  0.03715100  0.20087600  0.59369900  1
  O  O6  1  0.29143500  0.30171900  0.67726400  1
  O  O7  1  0.73221100  0.47546900  0.81381500  1
  O  O8  1  0.89686400  0.11857600  0.15086200  1
  O  O9  1  0.31118600  0.83026300  0.07958000  1
  O  O10  1  0.38137100  0.08557700  0.78449700  1
  O  O11  1  0.04764800  0.98066400  0.30113700  1
  O  O12  1  0.87056900  0.96611900  0.72604700  1
  O  O13  1  0.59243700  0.37458200  0.55043700  1
  O  O14  1  0.56323900  0.97334400  0.21044400  1
  O  O15  1  0.69890900  0.67881400  0.24809300  1
  O  O16  1  0.65360300  0.86727900  0.52841900  1
  O  O17  1  0.89040600  0.37005600  0.14033200  1
  O  O18  1  0.88099100  0.74088600  0.86403700  1
  O  O19  1  0.39432500  0.15962900  0.23103100  1
  O  O20  1  0.89522100  0.56136000  0.02409900  1
  O  O21  1  0.21207800  0.93336700  0.86013700  1
  O  O22  1  0.28050400  0.57681900  0.87246800  1
  O  O23  1  0.84444000  0.25417900  0.92146900  1
  O  O24  1  0.35773300  0.96452300  0.53734300  1
  O  O25  1  0.10883000  0.69436700  0.67127400  1
  O  O26  1  0.47338200  0.71286800  0.48040600  1
  O  O27  1  0.17528400  0.54073900  0.25971000  1
  O  O28  1  0.04557200  0.41939200  0.78960000  1
  O  O29  1  0.37869000  0.78953700  0.71420500  1
  O  O30  1  0.67368400  0.20257700  0.27386000  1
  O  O31  1  0.37798800  0.51938900  0.09225100  1
  O  O32  1  0.41529600  0.45562400  0.39785100  1
  O  O33  1  0.11459000  0.15141100  0.83857700  1
  O  O34  1  0.57039800  0.75530600  0.04215200  1
  O  O35  1  0.18293400  0.76835100  0.41125800  1
  O  O36  1  0.66036700  0.44665600  0.08320000  1
  O  O37  1  0.24940100  0.52050700  0.60186400  1
  O  O38  1  0.18976600  0.05683000  0.08996800  1
  O  O39  1  0.36701500  0.69588600  0.26025200  1
  O  O40  1  0.09071500  0.75470500  0.09796800  1
  O  O41  1  0.05042000  0.26275800  0.28562600  1
  O  O42  1  0.85489200  0.82471200  0.13360900  1
  O  O43  1  0.55222800  0.31974100  0.81077000  1
  O  O44  1  0.91275600  0.54442700  0.29851700  1
  O  O45  1  0.32710200  0.94985700  0.31261500  1
  O  O46  1  0.81499700  0.33319200  0.40963900  1
  O  O47  1  0.52119200  0.13448300  0.45072200  1
  O  O48  1  0.10879500  0.41204500  0.04765000  1
  O  O49  1  0.12340600  0.93836500  0.63803200  1
  O  O50  1  0.04234000  0.43640400  0.48968600  1
  O  O51  1  0.68092400  0.74380300  0.74117200  1
  O  O52  1  0.70785900  0.58757000  0.46845600  1
  O  O53  1  0.75151000  0.90515300  0.32204200  1
  O  O54  1  0.60907400  0.19295400  0.00921500  1
  O  O55  1  0.98801200  0.96648200  0.94904800  1
  O  O56  1  0.89149300  0.56621800  0.62668100  1
  O  O57  1  0.74646000  0.10379600  0.50511900  1
  O  O58  1  0.25408100  0.24246000  0.44068900  1
  O  O59  1  0.72471900  0.97516800  0.96843100  1
loop_
_geom_bond_atom_site_label_1
_geom_bond_atom_site_label_2
_geom_bond_distance
_geom_bond_site_symmetry_2
Al0 O32 1.772417 1_555
Al0 O27 1.786770 1_555
Al0 O31 1.794981 1_555
Al0 O39 1.816844 1_555
Al1 O47 1.775102 1_555
Al1 O45 1.821100 1_545
Al1 O58 1.835105 1_555
Al1 O19 1.988024 1_555
Al1 O24 2.046468 1_545
Al2 O51 1.817783 1_555
Al2 O29 1.829158 1_555
Al2 O26 1.861496 1_555
Al2 O3 1.963867 1_555
Al2 O16 2.079164 1_555
Al3 O59 1.804904 1_555
Al3 O51 1.815963 1_555
Al3 O18 1.840183 1_555
Al3 O12 1.852138 1_555
Al3 O2 2.086650 1_555
Al4 O24 1.796423 1_555
Al4 O29 1.829159 1_555
Al4 O10 1.878490 1_565
Al4 O49 1.924294 1_555
Al4 O21 1.951948 1_555
Al5 O56 1.765102 1_555
Al5 O7 1.770515 1_555
Al5 O18 1.803660 1_555
Al5 O51 1.808628 1_555
Al6 O37 1.746022 1_555
Al6 O58 1.790741 1_555
Al6 O6 1.842342 1_555
Al6 O32 1.897286 1_555
Al7 O21 1.778191 1_554
Al7 O9 1.837098 1_555
Al7 O40 1.865675 1_555
Al7 O38 1.888089 1_565
Al7 O55 2.055547 1_454
Al8 O34 1.723556 1_555
Al8 O9 1.814315 1_555
Al8 O31 1.888705 1_555
Al8 O39 1.947158 1_555
Al9 O46 1.823785 1_555
Al9 O44 1.845128 1_555
Al9 O56 1.879146 1_555
Al9 O50 1.912250 1_655
Al9 O52 1.913745 1_555
Al10 O52 1.822835 1_555
Al10 O15 1.868312 1_555
Al10 O16 1.916356 1_555
Al10 O0 1.946431 1_555
Al10 O53 1.954851 1_555
Al11 O17 1.759358 1_555
Al11 O8 1.817683 1_555
Al11 O30 1.818678 1_555
Al11 O46 1.833571 1_555
Al11 O41 2.257102 1_655
Al12 O11 1.714516 1_655
Al12 O53 1.751862 1_555
Al12 O42 1.849872 1_555
Al12 O0 1.883825 1_555
Al13 O45 1.806094 1_555
Al13 O26 1.824129 1_555
Al13 O35 1.844902 1_555
Al13 O24 1.845597 1_555
Al13 O39 2.078891 1_555
Al14 O49 1.795536 1_555
Al14 O35 1.798726 1_555
Al14 O25 1.838136 1_555
Al14 O0 1.865320 1_455
Al15 O4 1.915462 1_555
Al15 O33 1.930051 1_555
Al15 O38 1.940457 1_556
Al15 O10 1.946785 1_555
Al15 O1 1.953227 1_556
Al15 O21 2.000823 1_545
Al16 O48 1.830104 1_656
Al16 O20 1.889875 1_556
Al16 O23 1.928470 1_555
Al16 O28 2.023513 1_655
Al16 O17 2.062544 1_556
Al17 O13 1.776163 1_555
Al17 O57 1.808153 1_555
Al17 O46 1.860615 1_555
Al17 O30 1.902972 1_555
Al17 O47 1.925970 1_555
Al18 O53 1.749489 1_545
Al18 O47 1.794954 1_555
Al18 O57 1.934434 1_555
Al18 O14 2.007738 1_545
Al18 O16 2.170450 1_545
Al18 O30 2.427507 1_555
Al19 O19 1.756569 1_555
Al19 O30 1.784280 1_555
Al19 O54 1.806364 1_555
Al19 O14 1.963887 1_545
Al19 O1 2.379854 1_555
Al20 O11 1.720538 1_545
Al20 O38 1.794708 1_555
Al20 O8 1.804155 1_455
Al20 O41 1.816454 1_555
Al21 O8 1.763304 1_556
Al21 O59 1.835271 1_545
Al21 O55 1.849646 1_545
Al21 O23 1.900746 1_555
Al22 O34 1.771275 1_555
Al22 O15 1.863513 1_555
Al22 O42 1.872988 1_555
Al22 O14 1.945519 1_555
Al22 O53 2.018179 1_555
Al23 O45 1.760284 1_555
Al23 O1 1.796728 1_565
Al23 O9 1.890212 1_555
Al23 O19 1.925225 1_565
Al23 O14 2.045676 1_555
Al23 O38 2.162381 1_565
Al24 O50 1.828296 1_555
Al24 O25 1.828508 1_555
Al24 O56 1.839817 1_455
Al24 O28 1.942435 1_555
Al24 O37 1.971963 1_555
Al25 O5 1.705611 1_555
Al25 O50 1.779068 1_555
Al25 O41 1.807948 1_555
Al25 O58 1.837659 1_555
Al26 O57 1.734374 1_565
Al26 O2 1.782266 1_555
Al26 O12 1.802348 1_555
Al26 O16 1.851449 1_555
Al27 O36 1.745156 1_556
Al27 O54 1.854586 1_556
Al27 O43 1.938664 1_555
Al27 O23 1.944951 1_555
Al27 O7 2.124835 1_555
Al28 O52 1.806381 1_555
Al28 O32 1.846295 1_555
Al28 O3 1.861968 1_555
Al28 O26 1.866593 1_555
Al28 O13 1.985672 1_555
Al29 O36 1.764430 1_555
Al29 O15 1.889204 1_555
Al29 O20 1.901899 1_555
Al29 O44 1.947700 1_555
Al29 O17 2.014906 1_555
Al30 O22 1.767354 1_555
Al30 O4 1.813131 1_555
Al30 O48 1.819384 1_556
Al30 O31 1.822924 1_556
Al31 O43 1.757144 1_555
Al31 O7 1.760797 1_555
Al31 O3 1.769562 1_555
Al31 O13 1.781087 1_555
Al32 O22 1.756046 1_555
Al32 O37 1.793619 1_555
Al32 O29 1.824257 1_555
Al32 O25 1.943444 1_555
Al33 O27 1.818942 1_555
Al33 O17 1.864717 1_455
Al33 O44 1.877168 1_455
Al33 O48 1.888928 1_555
Al33 O41 2.017686 1_555
Al34 O5 1.723255 1_555
Al34 O33 1.752865 1_555
Al34 O28 1.815901 1_555
Al34 O6 1.911529 1_555
Al35 O42 1.737954 1_555
Al35 O20 1.746237 1_555
Al35 O18 1.761106 1_554
Al35 O40 1.813529 1_655
Al36 O6 1.731642 1_555
Al36 O43 1.742440 1_555
Al36 O10 1.757757 1_555
Al36 O4 1.772935 1_555
Al37 O35 1.818377 1_555
Al37 O27 1.855637 1_555
Al37 O40 1.864657 1_555
Al37 O39 1.890049 1_555
Al38 O2 1.773035 1_545
Al38 O1 1.777096 1_556
Al38 O54 1.848728 1_556
Al38 O59 1.904652 1_545
Al38 O10 2.365501 1_555
Al39 O49 1.796914 1_555
Al39 O55 1.856430 1_455
Al39 O33 1.865924 1_565
Al39 O12 1.917584 1_455
Al39 O21 2.016275 1_555
