# generated using pymatgen
data_Li9Mn2Co5O16
_symmetry_space_group_name_H-M   'P 1'
_cell_length_a   3.00709700
_cell_length_b   4.99486049
_cell_length_c   19.28048197
_cell_angle_alpha   92.47896656
_cell_angle_beta   91.98876874
_cell_angle_gamma   92.79066548
_symmetry_Int_Tables_number   1
_chemical_formula_structural   Li9Mn2Co5O16
_chemical_formula_sum   'Li9 Mn2 Co5 O16'
_cell_volume   288.78262012
_cell_formula_units_Z   1
loop_
 _symmetry_equiv_pos_site_id
 _symmetry_equiv_pos_as_xyz
  1  'x, y, z'
loop_
 _atom_site_type_symbol
 _atom_site_label
 _atom_site_symmetry_multiplicity
 _atom_site_fract_x
 _atom_site_fract_y
 _atom_site_fract_z
 _atom_site_occupancy
  Li  Li0  1  0.00228700  0.36733400  0.13198300  1
  Li  Li1  1  0.50937600  0.62262000  0.37068300  1
  Li  Li2  1  0.99875300  0.87511700  0.62478600  1
  Li  Li3  1  0.50438400  0.12198600  0.87215600  1
  Li  Li4  1  0.48980900  0.87878600  0.13196600  1
  Li  Li5  1  0.99285000  0.13383700  0.37137700  1
  Li  Li6  1  0.49833400  0.37634700  0.62477200  1
  Li  Li7  1  0.00416500  0.62298100  0.87213500  1
  Li  Li8  1  0.50070800  0.24965900  0.25075600  1
  Mn  Mn0  1  0.99843400  0.99968100  0.00087800  1
  Mn  Mn1  1  0.49820600  0.49991200  0.00065400  1
  Co  Co0  1  0.00139700  0.50003700  0.49915600  1
  Co  Co1  1  0.50064900  0.74976600  0.74908900  1
  Co  Co2  1  0.00044800  0.75025000  0.25076600  1
  Co  Co3  1  0.50267100  0.99951100  0.49933400  1
  Co  Co4  1  0.00065700  0.24975700  0.74911200  1
  O  O0  1  0.46596600  0.19495100  0.06032900  1
  O  O1  1  0.99371700  0.47507400  0.30645900  1
  O  O2  1  0.50963400  0.69266000  0.55827800  1
  O  O3  1  0.96712900  0.94590700  0.80551700  1
  O  O4  1  0.96599400  0.69162200  0.05835700  1
  O  O5  1  0.52184400  0.91523600  0.30400700  1
  O  O6  1  0.00611400  0.19415100  0.55787600  1
  O  O7  1  0.46729600  0.44622800  0.80551300  1
  O  O8  1  0.47957300  0.58424800  0.19716900  1
  O  O9  1  0.99250800  0.81017000  0.44261000  1
  O  O10  1  0.53146700  0.05447100  0.69329400  1
  O  O11  1  0.03273100  0.30449400  0.94131200  1
  O  O12  1  0.00699400  0.02581000  0.19489000  1
  O  O13  1  0.49120700  0.30692100  0.44044800  1
  O  O14  1  0.03173700  0.55466300  0.69329000  1
  O  O15  1  0.53296300  0.80581300  0.94104600  1
loop_
_geom_bond_atom_site_label_1
_geom_bond_atom_site_label_2
_geom_bond_distance
_geom_bond_site_symmetry_2
Li0 O8 2.102137 1_555
Li0 O12 2.135740 1_555
Li0 O0 2.177574 1_555
Li0 O4 2.203645 1_455
Li0 O0 2.204142 1_455
Li0 O8 2.325798 1_455
Li1 O5 1.987658 1_555
Li1 O1 2.038976 1_455
Li1 O1 2.085298 1_555
Li1 O13 2.116367 1_555
Li1 O9 2.127605 1_555
Li1 O9 2.322824 1_455
Li2 O2 2.067771 1_555
Li2 O6 2.092954 1_665
Li2 O14 2.122632 1_655
Li2 O10 2.161201 1_565
Li2 O10 2.173575 1_665
Li2 O2 2.237622 1_655
Li3 O15 2.110055 1_545
Li3 O7 2.115185 1_555
Li3 O3 2.122765 1_545
Li3 O3 2.157361 1_445
Li3 O11 2.177134 1_655
Li3 O11 2.184599 1_555
Li4 O8 1.975851 1_555
Li4 O12 2.027472 1_665
Li4 O12 2.065936 1_565
Li4 O0 2.144656 1_565
Li4 O4 2.226197 1_455
Li4 O4 2.257255 1_555
Li5 O13 2.098202 1_655
Li5 O5 2.117669 1_545
Li5 O1 2.157791 1_555
Li5 O9 2.166075 1_545
Li5 O13 2.227838 1_555
Li5 O5 2.366370 1_645
Li6 O2 2.077016 1_555
Li6 O6 2.077831 1_555
Li6 O10 2.128453 1_555
Li6 O14 2.157715 1_555
Li6 O14 2.173319 1_655
Li6 O6 2.234671 1_655
Li7 O3 2.109647 1_455
Li7 O11 2.122698 1_555
Li7 O7 2.124790 1_555
Li7 O7 2.157524 1_455
Li7 O15 2.175963 1_555
Li7 O15 2.181445 1_455
Li8 O5 2.000638 1_545
Li8 O8 2.004907 1_555
Li8 O12 2.058566 1_555
Li8 O1 2.059455 1_555
Li8 O12 2.214403 1_655
Li8 O1 2.218474 1_455
Mn0 O4 1.935383 1_555
Mn0 O11 1.947252 1_664
Mn0 O15 1.971542 1_554
Mn0 O0 1.974761 1_665
Mn0 O0 2.238684 1_565
Mn0 O15 2.244050 1_654
Mn1 O0 1.948953 1_555
Mn1 O4 1.949743 1_555
Mn1 O15 1.952183 1_554
Mn1 O11 1.969834 1_554
Mn1 O4 2.212838 1_455
Mn1 O11 2.242598 1_654
Co0 O9 1.933145 1_455
Co0 O6 1.940862 1_555
Co0 O2 2.049840 1_555
Co0 O13 2.050934 1_455
Co0 O13 2.130899 1_555
Co0 O2 2.138343 1_455
Co1 O10 1.901844 1_565
Co1 O7 1.904637 1_555
Co1 O14 1.940510 1_555
Co1 O3 1.944023 1_555
Co1 O14 2.199479 1_655
Co1 O3 2.213455 1_455
Co2 O1 1.780185 1_455
Co2 O12 1.783966 1_565
Co2 O5 1.969876 1_555
Co2 O8 1.973779 1_455
Co2 O5 1.987212 1_455
Co2 O8 1.994177 1_555
Co3 O2 1.947628 1_555
Co3 O13 1.949646 1_565
Co3 O9 2.024057 1_455
Co3 O6 2.038193 1_665
Co3 O9 2.101949 1_555
Co3 O6 2.147607 1_565
Co4 O14 1.903007 1_555
Co4 O3 1.905708 1_445
Co4 O10 1.941672 1_455
Co4 O7 1.944813 1_555
Co4 O10 2.199439 1_555
Co4 O7 2.213584 1_455
