# generated using pymatgen
data_K2PH4O7
_symmetry_space_group_name_H-M   'P 1'
_cell_length_a   6.14374573
_cell_length_b   6.64992500
_cell_length_c   17.34195543
_cell_angle_alpha   90.00000000
_cell_angle_beta   99.04706007
_cell_angle_gamma   90.00000000
_symmetry_Int_Tables_number   1
_chemical_formula_structural   K2PH4O7
_chemical_formula_sum   'K8 P4 H16 O28'
_cell_volume   699.69911702
_cell_formula_units_Z   4
loop_
 _symmetry_equiv_pos_site_id
 _symmetry_equiv_pos_as_xyz
  1  'x, y, z'
loop_
 _atom_site_type_symbol
 _atom_site_label
 _atom_site_symmetry_multiplicity
 _atom_site_fract_x
 _atom_site_fract_y
 _atom_site_fract_z
 _atom_site_occupancy
  K  K0  1  0.29128200  0.30249500  0.96397000  1
  K  K1  1  0.79128200  0.19750500  0.46397000  1
  K  K2  1  0.70871800  0.69750500  0.03603000  1
  K  K3  1  0.20871800  0.80249500  0.53603000  1
  K  K4  1  0.77407200  0.53645800  0.68955200  1
  K  K5  1  0.27407200  0.96354200  0.18955200  1
  K  K6  1  0.22592800  0.46354200  0.31044800  1
  K  K7  1  0.72592800  0.03645800  0.81044800  1
  P  P0  1  0.25142700  0.79166300  0.84555600  1
  P  P1  1  0.75142700  0.70833700  0.34555600  1
  P  P2  1  0.74857300  0.20833700  0.15444400  1
  P  P3  1  0.24857300  0.29166300  0.65444400  1
  H  H0  1  0.07787700  0.41071000  0.12419400  1
  H  H1  1  0.57787700  0.08929000  0.62419400  1
  H  H2  1  0.92212300  0.58929000  0.87580600  1
  H  H3  1  0.42212300  0.91071000  0.37580600  1
  H  H4  1  0.57376800  0.53109100  0.84391800  1
  H  H5  1  0.07376800  0.96890900  0.34391800  1
  H  H6  1  0.42623200  0.46890900  0.15608200  1
  H  H7  1  0.92623200  0.03109100  0.65608200  1
  H  H8  1  0.20061100  0.09336600  0.78264200  1
  H  H9  1  0.70061100  0.40663400  0.28264200  1
  H  H10  1  0.79938900  0.90663400  0.21735800  1
  H  H11  1  0.29938900  0.59336600  0.71735800  1
  H  H12  1  0.16022400  0.86473500  0.98788500  1
  H  H13  1  0.66022400  0.63526500  0.48788500  1
  H  H14  1  0.83977600  0.13526500  0.01211500  1
  H  H15  1  0.33977600  0.36473500  0.51211500  1
  O  O0  1  0.14373300  0.49852700  0.08485300  1
  O  O1  1  0.64373300  0.00147300  0.58485300  1
  O  O2  1  0.85626700  0.50147300  0.91514700  1
  O  O3  1  0.35626700  0.99852700  0.41514700  1
  O  O4  1  0.41991000  0.70089800  0.79693000  1
  O  O5  1  0.91991000  0.79910200  0.29693000  1
  O  O6  1  0.58009000  0.29910200  0.20307000  1
  O  O7  1  0.08009000  0.20089800  0.70307000  1
  O  O8  1  0.31868700  0.75422500  0.93357800  1
  O  O9  1  0.81868700  0.74577500  0.43357800  1
  O  O10  1  0.68131300  0.24577500  0.06642200  1
  O  O11  1  0.18131300  0.25422500  0.56642200  1
  O  O12  1  0.26184400  0.03500200  0.83627200  1
  O  O13  1  0.76184400  0.46499800  0.33627200  1
  O  O14  1  0.73815600  0.96499800  0.16372800  1
  O  O15  1  0.23815600  0.53500200  0.66372800  1
  O  O16  1  0.01612100  0.72094800  0.81451600  1
  O  O17  1  0.51612100  0.77905200  0.31451600  1
  O  O18  1  0.98387900  0.27905200  0.18548400  1
  O  O19  1  0.48387900  0.22094800  0.68548400  1
  O  O20  1  0.66659500  0.40999500  0.86499000  1
  O  O21  1  0.16659500  0.09000500  0.36499000  1
  O  O22  1  0.33340500  0.59000500  0.13501000  1
  O  O23  1  0.83340500  0.90999500  0.63501000  1
  O  O24  1  0.08596200  0.94557700  0.02673300  1
  O  O25  1  0.58596200  0.55442300  0.52673300  1
  O  O26  1  0.91403800  0.05442300  0.97326700  1
  O  O27  1  0.41403800  0.44557700  0.47326700  1
loop_
_geom_bond_atom_site_label_1
_geom_bond_atom_site_label_2
_geom_bond_distance
_geom_bond_site_symmetry_2
K0 O0 2.741064 1_556
K0 O10 2.775262 1_556
K0 O12 2.824016 1_555
K0 O26 2.869945 1_455
K0 O24 2.973397 1_546
K0 O2 2.983112 1_455
K0 O8 3.059066 1_555
K0 O20 3.165283 1_555
K1 O1 2.741064 1_555
K1 O11 2.775262 1_655
K1 O13 2.824016 1_555
K1 O27 2.869945 1_555
K1 O25 2.973397 1_555
K1 O3 2.983112 1_545
K1 O9 3.059066 1_545
K1 O21 3.165283 1_655
K2 O2 2.741064 1_554
K2 O8 2.775262 1_554
K2 O14 2.824016 1_555
K2 O24 2.869945 1_655
K2 O26 2.973397 1_564
K2 O0 2.983112 1_655
K2 O10 3.059066 1_555
K2 O22 3.165283 1_555
K3 O3 2.741064 1_555
K3 O9 2.775262 1_455
K3 O15 2.824016 1_555
K3 O25 2.869945 1_555
K3 O27 2.973397 1_555
K3 O1 2.983112 1_565
K3 O11 3.059066 1_565
K3 O23 3.165283 1_455
K4 O23 2.702998 1_555
K4 O16 2.720198 1_655
K4 O19 2.747026 1_555
K4 O25 2.880342 1_555
K4 O7 2.903528 1_655
K4 O15 2.954936 1_655
K5 O22 2.702998 1_555
K5 O17 2.720198 1_555
K5 O18 2.747026 1_465
K5 O24 2.880342 1_555
K5 O6 2.903528 1_565
K5 O14 2.954936 1_555
K6 O21 2.702998 1_555
K6 O18 2.720198 1_455
K6 O17 2.747026 1_555
K6 O27 2.880342 1_555
K6 O5 2.903528 1_455
K6 O13 2.954936 1_455
K7 O20 2.702998 1_555
K7 O19 2.720198 1_555
K7 O16 2.747026 1_645
K7 O26 2.880342 1_555
K7 O4 2.903528 1_545
K7 O12 2.954936 1_555
H0 O0 1.028109 1_555
H0 O18 1.556537 1_455
H1 O1 1.028109 1_555
H1 O19 1.556537 1_555
H2 O2 1.028109 1_555
H2 O16 1.556537 1_655
H3 O3 1.028109 1_555
H3 O17 1.556537 1_555
H4 O20 1.020647 1_555
H4 O4 1.609468 1_555
H5 O21 1.020647 1_565
H5 O5 1.609468 1_455
H6 O22 1.020647 1_555
H6 O6 1.609468 1_555
H7 O23 1.020647 1_545
H7 O7 1.609468 1_655
H8 O12 1.023287 1_555
H8 O7 1.625572 1_555
H9 O13 1.023287 1_555
H9 O6 1.625572 1_555
H10 O14 1.023287 1_555
H10 O5 1.625572 1_555
H11 O15 1.023287 1_555
H11 O4 1.625572 1_555
H12 O24 1.023575 1_556
H12 O8 1.631927 1_555
H13 O25 1.023575 1_555
H13 O9 1.631927 1_555
H14 O26 1.023575 1_554
H14 O10 1.631927 1_555
H15 O27 1.023575 1_555
H15 O11 1.631927 1_555
O4 P0 1.556083 1_555
O5 P1 1.556083 1_555
O6 P2 1.556083 1_555
O7 P3 1.556083 1_555
O8 P0 1.537688 1_555
O9 P1 1.537688 1_555
O10 P2 1.537688 1_555
O11 P3 1.537688 1_555
O12 P0 1.628430 1_545
O13 P1 1.628430 1_555
O14 P2 1.628430 1_565
O15 P3 1.628430 1_555
O16 P0 1.534958 1_555
O17 P1 1.534958 1_555
O18 P2 1.534958 1_555
O19 P3 1.534958 1_555
