# generated using pymatgen
data_SrLa3Mn4O12
_symmetry_space_group_name_H-M   'P 1'
_cell_length_a   6.80908013
_cell_length_b   6.80910095
_cell_length_c   6.79137965
_cell_angle_alpha   69.94186022
_cell_angle_beta   110.06299316
_cell_angle_gamma   71.59422607
_symmetry_Int_Tables_number   1
_chemical_formula_structural   SrLa3Mn4O12
_chemical_formula_sum   'Sr1 La3 Mn4 O12'
_cell_volume   242.00021765
_cell_formula_units_Z   1
loop_
 _symmetry_equiv_pos_site_id
 _symmetry_equiv_pos_as_xyz
  1  'x, y, z'
loop_
 _atom_site_type_symbol
 _atom_site_label
 _atom_site_symmetry_multiplicity
 _atom_site_fract_x
 _atom_site_fract_y
 _atom_site_fract_z
 _atom_site_occupancy
  Sr  Sr0  1  0.00004200  0.00001800  0.00001600  1
  La  La0  1  0.49994500  0.00003200  0.49991400  1
  La  La1  1  0.49997400  0.49997900  0.00000300  1
  La  La2  1  0.00002400  0.49997000  0.50004700  1
  Mn  Mn0  1  0.00006800  0.49991100  0.00004000  1
  Mn  Mn1  1  0.49995500  0.00004400  0.00003000  1
  Mn  Mn2  1  0.00001600  0.99998200  0.49999100  1
  Mn  Mn3  1  0.49999100  0.50003200  0.49997000  1
  O  O0  1  0.00069400  0.26424300  0.24542700  1
  O  O1  1  0.50846800  0.74326200  0.25510600  1
  O  O2  1  0.99926900  0.73581100  0.75456600  1
  O  O3  1  0.49157500  0.25667400  0.74492000  1
  O  O4  1  0.73580700  0.99927200  0.24542800  1
  O  O5  1  0.25672000  0.49156700  0.25512100  1
  O  O6  1  0.74327300  0.50846200  0.74489600  1
  O  O7  1  0.26421000  0.00069400  0.75453400  1
  O  O8  1  0.75515900  0.24483600  0.49068200  1
  O  O9  1  0.24479800  0.75518600  0.50933000  1
  O  O10  1  0.74659900  0.74661300  0.99999000  1
  O  O11  1  0.25341300  0.25341100  0.99999000  1
loop_
_geom_bond_atom_site_label_1
_geom_bond_atom_site_label_2
_geom_bond_distance
_geom_bond_site_symmetry_2
La0 O4 2.733427 1_545
La0 O7 2.733470 1_555
La0 O5 2.739043 1_555
La0 O6 2.739221 1_545
La0 O11 2.750350 1_554
La0 O10 2.751180 1_545
La0 O9 2.762970 1_545
La0 O8 2.763081 1_555
La0 O0 2.784581 1_555
La0 O2 2.784962 1_545
La0 O1 2.796499 1_545
La0 O3 2.796852 1_555
La1 O9 2.700341 1_554
La1 O8 2.700367 1_555
La1 O11 2.723457 1_554
La1 O10 2.724175 1_554
La1 O1 2.776583 1_555
La1 O5 2.776590 1_555
La1 O3 2.776598 1_554
La1 O6 2.776776 1_554
La1 O2 2.790750 1_454
La1 O0 2.790847 1_655
La1 O4 2.790858 1_545
La1 O7 2.790905 1_564
La2 O0 2.733351 1_555
La2 O2 2.733422 1_455
La2 O3 2.739037 1_555
La2 O1 2.739056 1_455
La2 O11 2.750449 1_555
La2 O10 2.751072 1_454
La2 O9 2.762935 1_555
La2 O8 2.762983 1_455
La2 O7 2.784797 1_555
La2 O4 2.784932 1_455
La2 O6 2.796690 1_455
La2 O5 2.796792 1_555
Mn0 O0 1.873162 1_555
Mn0 O2 1.873709 1_454
Mn0 O5 1.962377 1_555
Mn0 O6 1.962401 1_454
Mn0 O11 1.991316 1_554
Mn0 O10 1.992208 1_454
Mn1 O4 1.873211 1_545
Mn1 O7 1.873682 1_554
Mn1 O1 1.962353 1_545
Mn1 O3 1.962388 1_554
Mn1 O11 1.991211 1_554
Mn1 O10 1.992187 1_544
Mn2 O9 1.913363 1_555
Mn2 O8 1.914008 1_465
Mn2 O7 2.025374 1_565
Mn2 O4 2.025502 1_455
Mn2 O2 2.025663 1_455
Mn2 O0 2.025717 1_565
Mn3 O5 1.936093 1_555
Mn3 O1 1.936161 1_555
Mn3 O6 1.936295 1_555
Mn3 O3 1.936748 1_555
Mn3 O8 2.070275 1_555
Mn3 O9 2.070503 1_555
O0 Sr0 2.841049 1_555
O1 Sr0 2.833391 1_565
O2 Sr0 2.841160 1_666
O3 Sr0 2.833604 1_656
O4 Sr0 2.841191 1_665
O5 Sr0 2.833609 1_565
O6 Sr0 2.833581 1_656
O7 Sr0 2.841192 1_556
O8 Sr0 2.802943 1_656
O9 Sr0 2.802843 1_565
O10 Sr0 2.799224 1_666
O11 Sr0 2.798760 1_556
