# generated using pymatgen
data_RhI3
_symmetry_space_group_name_H-M   'P 1'
_cell_length_a   6.86621056
_cell_length_b   6.86621056
_cell_length_c   7.10845960
_cell_angle_alpha   98.47692929
_cell_angle_beta   98.47692929
_cell_angle_gamma   119.99910335
_symmetry_Int_Tables_number   1
_chemical_formula_structural   RhI3
_chemical_formula_sum   'Rh2 I6'
_cell_volume   277.33151054
_cell_formula_units_Z   2
loop_
 _symmetry_equiv_pos_site_id
 _symmetry_equiv_pos_as_xyz
  1  'x, y, z'
loop_
 _atom_site_type_symbol
 _atom_site_label
 _atom_site_symmetry_multiplicity
 _atom_site_fract_x
 _atom_site_fract_y
 _atom_site_fract_z
 _atom_site_occupancy
  Rh  Rh0  1  0.83336288  0.16663712  0.00000000  1
  Rh  Rh1  1  0.16663712  0.83336288  -0.00000000  1
  I  I0  1  0.43261750  0.07586484  0.77800227  1
  I  I1  1  0.56738250  0.92413516  0.22199773  1
  I  I2  1  0.92413516  0.56738250  0.22199773  1
  I  I3  1  0.07586484  0.43261750  0.77800227  1
  I  I4  1  0.78823615  0.78823615  0.77715024  1
  I  I5  1  0.21176385  0.21176385  0.22284976  1
loop_
_geom_bond_atom_site_label_1
_geom_bond_atom_site_label_2
_geom_bond_distance
_geom_bond_site_symmetry_2
I0 Rh0 2.676748 1_556
I0 Rh1 2.679845 1_546
I1 Rh1 2.676748 1_555
I1 Rh0 2.679845 1_565
I2 Rh0 2.676748 1_555
I2 Rh1 2.679845 1_655
I3 Rh1 2.676748 1_556
I3 Rh0 2.679845 1_456
I4 Rh1 2.681942 1_656
I4 Rh0 2.681942 1_566
I5 Rh1 2.681942 1_545
I5 Rh0 2.681942 1_455
