# generated using pymatgen
data_Sr8Fe5Re5O28
_symmetry_space_group_name_H-M   'P 1'
_cell_length_a   5.58114700
_cell_length_b   5.58114700
_cell_length_c   25.60190400
_cell_angle_alpha   90.00000000
_cell_angle_beta   90.00000000
_cell_angle_gamma   90.00000000
_symmetry_Int_Tables_number   1
_chemical_formula_structural   Sr8Fe5Re5O28
_chemical_formula_sum   'Sr8 Fe5 Re5 O28'
_cell_volume   797.47887507
_cell_formula_units_Z   1
loop_
 _symmetry_equiv_pos_site_id
 _symmetry_equiv_pos_as_xyz
  1  'x, y, z'
loop_
 _atom_site_type_symbol
 _atom_site_label
 _atom_site_symmetry_multiplicity
 _atom_site_fract_x
 _atom_site_fract_y
 _atom_site_fract_z
 _atom_site_occupancy
  Sr  Sr0  1  0.00000000  0.50000000  0.26126300  1
  Sr  Sr1  1  0.50000000  0.00000000  0.26126300  1
  Sr  Sr2  1  0.00000000  0.50000000  0.73873700  1
  Sr  Sr3  1  0.50000000  0.00000000  0.73873700  1
  Sr  Sr4  1  0.00000000  0.50000000  0.42198000  1
  Sr  Sr5  1  0.50000000  0.00000000  0.42198000  1
  Sr  Sr6  1  0.00000000  0.50000000  0.57802000  1
  Sr  Sr7  1  0.50000000  0.00000000  0.57802000  1
  Fe  Fe0  1  0.00000000  0.00000000  0.18853800  1
  Fe  Fe1  1  0.00000000  0.00000000  0.81146200  1
  Fe  Fe2  1  0.50000000  0.50000000  0.34570300  1
  Fe  Fe3  1  0.50000000  0.50000000  0.65429700  1
  Fe  Fe4  1  0.00000000  0.00000000  0.50000000  1
  Re  Re0  1  0.50000000  0.50000000  0.19040400  1
  Re  Re1  1  0.50000000  0.50000000  0.80959600  1
  Re  Re2  1  0.00000000  0.00000000  0.34325500  1
  Re  Re3  1  0.00000000  0.00000000  0.65674500  1
  Re  Re4  1  0.50000000  0.50000000  0.50000000  1
  O  O0  1  0.74339600  0.25660400  0.18638600  1
  O  O1  1  0.25660400  0.74339600  0.18638600  1
  O  O2  1  0.25660400  0.25660400  0.18638600  1
  O  O3  1  0.74339600  0.74339600  0.18638600  1
  O  O4  1  0.25660400  0.74339600  0.81361400  1
  O  O5  1  0.74339600  0.25660400  0.81361400  1
  O  O6  1  0.74339600  0.74339600  0.81361400  1
  O  O7  1  0.25660400  0.25660400  0.81361400  1
  O  O8  1  0.00000000  0.00000000  0.26657200  1
  O  O9  1  0.00000000  0.00000000  0.73342800  1
  O  O10  1  0.50000000  0.50000000  0.26423900  1
  O  O11  1  0.50000000  0.50000000  0.73576100  1
  O  O12  1  0.75335300  0.24664700  0.34345600  1
  O  O13  1  0.24664700  0.75335300  0.34345600  1
  O  O14  1  0.24664700  0.24664700  0.34345600  1
  O  O15  1  0.75335300  0.75335300  0.34345600  1
  O  O16  1  0.24664700  0.75335300  0.65654400  1
  O  O17  1  0.75335300  0.24664700  0.65654400  1
  O  O18  1  0.75335300  0.75335300  0.65654400  1
  O  O19  1  0.24664700  0.24664700  0.65654400  1
  O  O20  1  0.00000000  0.00000000  0.41979500  1
  O  O21  1  0.00000000  0.00000000  0.58020500  1
  O  O22  1  0.50000000  0.50000000  0.42323700  1
  O  O23  1  0.50000000  0.50000000  0.57676300  1
  O  O24  1  0.74711700  0.25288300  0.50000000  1
  O  O25  1  0.25288300  0.74711700  0.50000000  1
  O  O26  1  0.25288300  0.25288300  0.50000000  1
  O  O27  1  0.74711700  0.74711700  0.50000000  1
loop_
_geom_bond_atom_site_label_1
_geom_bond_atom_site_label_2
_geom_bond_distance
_geom_bond_site_symmetry_2
Fe0 O8 1.997819 1_555
Fe0 O0 2.026108 1_455
Fe0 O2 2.026108 1_555
Fe0 O1 2.026108 1_545
Fe0 O3 2.026108 1_445
Fe1 O9 1.997819 1_555
Fe1 O5 2.026108 1_455
Fe1 O4 2.026108 1_545
Fe1 O6 2.026108 1_445
Fe1 O7 2.026108 1_555
Fe2 O22 1.985018 1_555
Fe2 O15 2.000526 1_555
Fe2 O13 2.000526 1_555
Fe2 O12 2.000526 1_555
Fe2 O14 2.000526 1_555
Fe2 O10 2.085634 1_555
Fe3 O23 1.985018 1_555
Fe3 O18 2.000526 1_555
Fe3 O16 2.000526 1_555
Fe3 O17 2.000526 1_555
Fe3 O19 2.000526 1_555
Fe3 O11 2.085634 1_555
Fe4 O26 1.995989 1_555
Fe4 O25 1.995989 1_545
Fe4 O24 1.995989 1_455
Fe4 O27 1.995989 1_445
Fe4 O21 2.053401 1_555
Fe4 O20 2.053401 1_555
O0 Re0 1.923861 1_555
O0 Sr1 2.751587 1_555
O0 Sr0 2.751587 1_655
O1 Re0 1.923861 1_555
O1 Sr0 2.751587 1_555
O1 Sr1 2.751587 1_565
O2 Re0 1.923861 1_555
O2 Sr0 2.751587 1_555
O2 Sr1 2.751587 1_555
O3 Re0 1.923861 1_555
O3 Sr0 2.751587 1_655
O3 Sr1 2.751587 1_565
O4 Re1 1.923861 1_555
O4 Sr2 2.751587 1_555
O4 Sr3 2.751587 1_565
O5 Re1 1.923861 1_555
O5 Sr3 2.751587 1_555
O5 Sr2 2.751587 1_655
O6 Re1 1.923861 1_555
O6 Sr2 2.751587 1_655
O6 Sr3 2.751587 1_565
O7 Re1 1.923861 1_555
O7 Sr2 2.751587 1_555
O7 Sr3 2.751587 1_555
O8 Re2 1.963231 1_555
O8 Sr0 2.793882 1_555
O8 Sr1 2.793882 1_455
O8 Sr1 2.793882 1_555
O8 Sr0 2.793882 1_545
O9 Re3 1.963231 1_555
O9 Sr2 2.793882 1_555
O9 Sr2 2.793882 1_545
O9 Sr3 2.793882 1_455
O9 Sr3 2.793882 1_555
O10 Re0 1.890317 1_555
O10 Sr1 2.791613 1_555
O10 Sr1 2.791613 1_565
O10 Sr0 2.791613 1_655
O10 Sr0 2.791613 1_555
O11 Re1 1.890317 1_555
O11 Sr3 2.791613 1_565
O11 Sr2 2.791613 1_555
O11 Sr2 2.791613 1_655
O11 Sr3 2.791613 1_555
O12 Re2 1.946775 1_655
O12 Sr5 2.817075 1_555
O12 Sr4 2.817075 1_655
O12 Sr1 2.884860 1_555
O12 Sr0 2.884860 1_655
O13 Re2 1.946775 1_565
O13 Sr4 2.817075 1_555
O13 Sr5 2.817075 1_565
O13 Sr0 2.884860 1_555
O13 Sr1 2.884860 1_565
O14 Re2 1.946775 1_555
O14 Sr4 2.817075 1_555
O14 Sr5 2.817075 1_555
O14 Sr0 2.884860 1_555
O14 Sr1 2.884860 1_555
O15 Re2 1.946775 1_665
O15 Sr4 2.817075 1_655
O15 Sr5 2.817075 1_565
O15 Sr0 2.884860 1_655
O15 Sr1 2.884860 1_565
O16 Re3 1.946775 1_565
O16 Sr6 2.817075 1_555
O16 Sr7 2.817075 1_565
O16 Sr2 2.884860 1_555
O16 Sr3 2.884860 1_565
O17 Re3 1.946775 1_655
O17 Sr7 2.817075 1_555
O17 Sr6 2.817075 1_655
O17 Sr3 2.884860 1_555
O17 Sr2 2.884860 1_655
O18 Re3 1.946775 1_665
O18 Sr7 2.817075 1_565
O18 Sr6 2.817075 1_655
O18 Sr2 2.884860 1_655
O18 Sr3 2.884860 1_565
O19 Re3 1.946775 1_555
O19 Sr7 2.817075 1_555
O19 Sr6 2.817075 1_555
O19 Sr2 2.884860 1_555
O19 Sr3 2.884860 1_555
O20 Re2 1.959570 1_555
O20 Sr5 2.791134 1_455
O20 Sr5 2.791134 1_555
O20 Sr4 2.791134 1_545
O20 Sr4 2.791134 1_555
O21 Re3 1.959570 1_555
O21 Sr6 2.791134 1_555
O21 Sr7 2.791134 1_455
O21 Sr7 2.791134 1_555
O21 Sr6 2.791134 1_545
O22 Re4 1.965279 1_555
O22 Sr5 2.790759 1_565
O22 Sr4 2.790759 1_555
O22 Sr4 2.790759 1_655
O22 Sr5 2.790759 1_555
O23 Re4 1.965279 1_555
O23 Sr6 2.790759 1_655
O23 Sr6 2.790759 1_555
O23 Sr7 2.790759 1_555
O23 Sr7 2.790759 1_565
O24 Re4 1.950478 1_555
O24 Sr5 2.807849 1_555
O24 Sr7 2.807849 1_555
O24 Sr4 2.807849 1_655
O24 Sr6 2.807849 1_655
O25 Re4 1.950478 1_555
O25 Sr4 2.807849 1_555
O25 Sr6 2.807849 1_555
O25 Sr5 2.807849 1_565
O25 Sr7 2.807849 1_565
O26 Re4 1.950478 1_555
O26 Sr5 2.807849 1_555
O26 Sr4 2.807849 1_555
O26 Sr6 2.807849 1_555
O26 Sr7 2.807849 1_555
O27 Re4 1.950478 1_555
O27 Sr4 2.807849 1_655
O27 Sr5 2.807849 1_565
O27 Sr7 2.807849 1_565
O27 Sr6 2.807849 1_655
