# generated using pymatgen
data_K2Cd(C2O5)2
_symmetry_space_group_name_H-M   'P 1'
_cell_length_a   11.81226271
_cell_length_b   9.88210408
_cell_length_c   8.51481142
_cell_angle_alpha   79.51374620
_cell_angle_beta   55.34840638
_cell_angle_gamma   45.13784742
_symmetry_Int_Tables_number   1
_chemical_formula_structural   K2Cd(C2O5)2
_chemical_formula_sum   'K4 Cd2 C8 O20'
_cell_volume   537.08027067
_cell_formula_units_Z   2
loop_
 _symmetry_equiv_pos_site_id
 _symmetry_equiv_pos_as_xyz
  1  'x, y, z'
loop_
 _atom_site_type_symbol
 _atom_site_label
 _atom_site_symmetry_multiplicity
 _atom_site_fract_x
 _atom_site_fract_y
 _atom_site_fract_z
 _atom_site_occupancy
  K  K0  1  0.04971700  0.59035100  0.68283600  1
  K  K1  1  0.67709700  0.68283600  0.59035100  1
  K  K2  1  0.56716400  0.57290300  0.20028300  1
  K  K3  1  0.65964900  0.20028300  0.57290300  1
  Cd  Cd0  1  0.28429000  0.21571000  0.21571000  1
  Cd  Cd1  1  0.03429000  0.96571000  0.96571000  1
  C  C0  1  0.58031300  0.19383600  0.19073300  1
  C  C1  1  0.03511800  0.19073300  0.19383600  1
  C  C2  1  0.05926700  0.21488200  0.66968700  1
  C  C3  1  0.05616400  0.66968700  0.21488200  1
  C  C4  1  0.19479900  0.53792900  0.98474300  1
  C  C5  1  0.28252900  0.98474300  0.53792900  1
  C  C6  1  0.26525700  0.96747100  0.05520100  1
  C  C7  1  0.71207100  0.05520100  0.96747100  1
  O  O0  1  0.40219400  0.27539300  0.32072800  1
  O  O1  1  0.00168400  0.32072800  0.27539300  1
  O  O2  1  0.92927200  0.24831600  0.84780600  1
  O  O3  1  0.97460700  0.84780600  0.24831600  1
  O  O4  1  0.21456400  0.61712000  0.85092600  1
  O  O5  1  0.31739100  0.85092600  0.61712000  1
  O  O6  1  0.39907400  0.93260900  0.03543600  1
  O  O7  1  0.63288000  0.03543600  0.93260900  1
  O  O8  1  0.27981900  0.35704900  0.94991700  1
  O  O9  1  0.41321500  0.94991700  0.35704900  1
  O  O10  1  0.30008300  0.83678500  0.97018100  1
  O  O11  1  0.89295100  0.97018100  0.83678500  1
  O  O12  1  0.66099700  0.21404500  0.22206800  1
  O  O13  1  0.90289000  0.22206800  0.21404500  1
  O  O14  1  0.02793200  0.34711000  0.58900300  1
  O  O15  1  0.03595500  0.58900300  0.34711000  1
  O  O16  1  0.77381800  0.67898300  0.16003400  1
  O  O17  1  0.38716500  0.16003400  0.67898300  1
  O  O18  1  0.08996600  0.86283500  0.47618200  1
  O  O19  1  0.57101700  0.47618200  0.86283500  1
loop_
_geom_bond_atom_site_label_1
_geom_bond_atom_site_label_2
_geom_bond_distance
_geom_bond_site_symmetry_2
K0 O0 2.672365 1_555
K0 O14 2.878894 1_555
K0 O11 2.908764 1_455
K0 O15 2.956993 1_555
K0 O7 3.009313 1_465
K0 O18 3.114982 1_555
K0 O4 3.153394 1_555
K0 O17 3.156126 1_555
K0 O16 3.179311 1_456
K1 O1 2.672367 1_655
K1 O15 2.878884 1_655
K1 O10 2.908770 1_555
K1 O14 2.956986 1_655
K1 O6 3.009309 1_556
K1 O19 3.114987 1_555
K1 O5 3.153394 1_555
K1 O16 3.156130 1_555
K1 O17 3.179309 1_565
K2 O2 2.672360 1_554
K2 O12 2.878884 1_555
K2 O9 2.908773 1_555
K2 O13 2.956991 1_555
K2 O5 3.009322 1_555
K2 O16 3.114991 1_555
K2 O6 3.153394 1_555
K2 O19 3.156122 1_554
K2 O18 3.179309 1_555
K3 O3 2.672357 1_545
K3 O13 2.878890 1_555
K3 O8 2.908766 1_555
K3 O12 2.956985 1_555
K3 O4 3.009314 1_555
K3 O17 3.114979 1_555
K3 O7 3.153394 1_555
K3 O18 3.156130 1_645
K3 O19 3.179317 1_555
Cd0 O0 2.419534 1_555
Cd0 O1 2.419546 1_555
Cd0 O7 2.422034 1_554
Cd0 O6 2.422041 1_545
Cd0 O8 2.440664 1_554
Cd0 O9 2.440664 1_545
Cd0 O14 2.443044 1_555
Cd0 O15 2.443044 1_555
Cd1 O3 2.419541 1_456
Cd1 O2 2.419541 1_465
Cd1 O4 2.422032 1_555
Cd1 O5 2.422036 1_555
Cd1 O11 2.440664 1_455
Cd1 O10 2.440664 1_555
Cd1 O13 2.443044 1_466
Cd1 O12 2.443044 1_466
C0 O0 1.259203 1_555
C0 O12 1.263520 1_555
C1 O1 1.259194 1_555
C1 O13 1.263520 1_455
C2 O2 1.259199 1_455
C2 O14 1.263520 1_555
C3 O3 1.259203 1_455
C3 O15 1.263520 1_555
C4 O4 1.263290 1_555
C4 O8 1.270153 1_555
C5 O5 1.263289 1_555
C5 O9 1.270153 1_555
C6 O6 1.263285 1_555
C6 O10 1.270153 1_554
C7 O7 1.263296 1_555
C7 O11 1.270153 1_545
