# generated using pymatgen
data_KVPO5
_symmetry_space_group_name_H-M   'P 1'
_cell_length_a   6.35194589
_cell_length_b   10.46683990
_cell_length_c   12.73184994
_cell_angle_alpha   90.00000901
_cell_angle_beta   89.99999202
_cell_angle_gamma   90.00169745
_symmetry_Int_Tables_number   1
_chemical_formula_structural   KVPO5
_chemical_formula_sum   'K8 V8 P8 O40'
_cell_volume   846.47450492
_cell_formula_units_Z   8
loop_
 _symmetry_equiv_pos_site_id
 _symmetry_equiv_pos_as_xyz
  1  'x, y, z'
loop_
 _atom_site_type_symbol
 _atom_site_label
 _atom_site_symmetry_multiplicity
 _atom_site_fract_x
 _atom_site_fract_y
 _atom_site_fract_z
 _atom_site_occupancy
  K  K0  1  0.22110703  0.81303432  0.62526821  1
  K  K1  1  0.72110905  0.31303381  0.87473109  1
  K  K2  1  0.27890279  0.81303585  0.12527559  1
  K  K3  1  0.70270743  0.06901090  0.10507254  1
  K  K4  1  0.20270909  0.56900751  0.39492691  1
  K  K5  1  0.29722788  0.56898987  0.89493818  1
  K  K6  1  0.79722946  0.06899553  0.60506114  1
  K  K7  1  0.77890131  0.31303592  0.37472359  1
  V  V0  1  0.49442775  0.00223157  0.37524664  1
  V  V1  1  0.50545224  0.50221808  0.62473821  1
  V  V2  1  0.00545253  0.00221796  0.87526156  1
  V  V3  1  0.27004657  0.25516181  0.24641106  1
  V  V4  1  0.72993766  0.75513354  0.75357423  1
  V  V5  1  0.22993860  0.25513341  0.74642588  1
  V  V6  1  0.77004691  0.75516197  0.25358888  1
  V  V7  1  0.99442791  0.50223231  0.12475323  1
  P  P0  1  0.99747954  0.01765563  0.31961200  1
  P  P1  1  0.00251956  0.51762669  0.68037982  1
  P  P2  1  0.50251991  0.01762730  0.81962010  1
  P  P3  1  0.49747979  0.51765542  0.18038778  1
  P  P4  1  0.83301370  0.76336966  0.00335693  1
  P  P5  1  0.16698796  0.26337124  0.99665232  1
  P  P6  1  0.66698729  0.76337087  0.50334770  1
  P  P7  1  0.33301202  0.26336887  0.49664324  1
  O  O0  1  0.54162928  0.89249575  0.28085680  1
  O  O1  1  0.45848986  0.39255524  0.71919546  1
  O  O2  1  0.95849085  0.89255481  0.78080493  1
  O  O3  1  0.04162958  0.39249616  0.21914306  1
  O  O4  1  0.95564254  0.64431024  0.22626811  1
  O  O5  1  0.04420035  0.14438260  0.77375461  1
  O  O6  1  0.54419967  0.64438247  0.72624536  1
  O  O7  1  0.45564220  0.14431037  0.27373181  1
  O  O8  1  0.95404618  0.90461227  0.24553298  1
  O  O9  1  0.04601492  0.40462121  0.75448494  1
  O  O10  1  0.54601352  0.90462078  0.74551588  1
  O  O11  1  0.45404567  0.40461256  0.25446728  1
  O  O12  1  0.03344644  0.13304867  0.24635004  1
  O  O13  1  0.96655581  0.63304157  0.75362652  1
  O  O14  1  0.46655630  0.13304136  0.74637249  1
  O  O15  1  0.68993982  0.74663196  0.90772987  1
  O  O16  1  0.53344645  0.63304891  0.25364933  1
  O  O17  1  0.81181994  0.48854197  0.61103012  1
  O  O18  1  0.31182067  0.98854419  0.88897061  1
  O  O19  1  0.68822724  0.48857594  0.11104404  1
  O  O20  1  0.80658817  0.04441607  0.38953396  1
  O  O21  1  0.19346791  0.54437776  0.61046781  1
  O  O22  1  0.69346892  0.04437859  0.88953156  1
  O  O23  1  0.30658889  0.54441570  0.11046569  1
  O  O24  1  0.47873149  0.14848242  0.48168660  1
  O  O25  1  0.52126727  0.64847620  0.51829180  1
  O  O26  1  0.02126615  0.14847749  0.98170835  1
  O  O27  1  0.97873300  0.64848316  0.01831370  1
  O  O28  1  0.47381597  0.38264135  0.50876853  1
  O  O29  1  0.52619758  0.88263766  0.49121132  1
  O  O30  1  0.02620002  0.38263897  0.00878803  1
  O  O31  1  0.97381728  0.88264221  0.99123180  1
  O  O32  1  0.19552893  0.28403388  0.39873574  1
  O  O33  1  0.80445874  0.78403197  0.60126017  1
  O  O34  1  0.30446081  0.28403103  0.89874004  1
  O  O35  1  0.69553046  0.78403462  0.10126436  1
  O  O36  1  0.18993762  0.24663136  0.59227021  1
  O  O37  1  0.81011673  0.74664078  0.40773448  1
  O  O38  1  0.31011708  0.24664105  0.09226566  1
  O  O39  1  0.18822668  0.98857666  0.38895611  1
loop_
_geom_bond_atom_site_label_1
_geom_bond_atom_site_label_2
_geom_bond_distance
_geom_bond_site_symmetry_2
K0 O33 2.681351 1_455
K0 O29 2.683158 1_555
K0 O2 2.719735 1_455
K0 O10 2.742616 1_555
K0 O21 2.823750 1_555
K0 O25 2.908103 1_555
K0 O13 2.972237 1_455
K0 O6 2.996826 1_555
K1 O34 2.681352 1_555
K1 O30 2.683166 1_656
K1 O1 2.719740 1_555
K1 O9 2.742606 1_655
K1 O22 2.823736 1_555
K1 O26 2.908084 1_655
K1 O14 2.972243 1_555
K1 O5 2.996812 1_655
K2 O35 2.681243 1_555
K2 O31 2.683069 1_454
K2 O0 2.720353 1_555
K2 O8 2.742453 1_455
K2 O23 2.823407 1_555
K2 O27 2.907956 1_455
K2 O16 2.972342 1_555
K2 O4 2.998022 1_455
K3 O26 2.693160 1_654
K3 O22 2.756945 1_554
K3 O7 2.774019 1_555
K3 O12 2.845717 1_655
K3 O8 2.950926 1_545
K3 O31 2.978541 1_544
K3 O35 2.983542 1_545
K3 O0 3.077193 1_545
K3 O38 3.114833 1_555
K4 O25 2.693169 1_555
K4 O21 2.756941 1_555
K4 O4 2.774029 1_455
K4 O16 2.845718 1_555
K4 O11 2.950889 1_555
K4 O28 2.978519 1_555
K4 O32 2.983515 1_555
K4 O3 3.077168 1_555
K4 O37 3.114864 1_455
K5 O27 2.693062 1_456
K5 O23 2.756734 1_556
K5 O6 2.774265 1_555
K5 O13 2.845742 1_455
K5 O9 2.950200 1_555
K5 O30 2.978108 1_556
K5 O34 2.983366 1_555
K5 O1 3.076726 1_555
K5 O15 3.115428 1_555
K6 O24 2.693049 1_555
K6 O20 2.756735 1_555
K6 O5 2.774252 1_655
K6 O14 2.845729 1_555
K6 O10 2.950259 1_545
K6 O29 2.978170 1_545
K6 O33 2.983415 1_545
K6 O2 3.076774 1_545
K6 O36 3.115369 1_655
K7 O32 2.681245 1_655
K7 O28 2.683074 1_555
K7 O3 2.720355 1_655
K7 O11 2.742442 1_555
K7 O20 2.823405 1_555
K7 O24 2.907967 1_555
K7 O12 2.972347 1_655
K7 O7 2.998012 1_555
O0 V0 1.689197 1_565
O0 V6 2.071718 1_555
O1 V1 1.689008 1_555
O1 V5 2.072813 1_555
O2 V2 1.689003 1_665
O2 V4 2.072818 1_555
O3 V7 1.689200 1_455
O3 V3 2.071720 1_555
O4 V6 1.690292 1_555
O4 V7 1.985620 1_555
O5 V5 1.690172 1_555
O5 V2 1.986194 1_555
O6 V4 1.690173 1_555
O6 V1 1.986193 1_555
O7 V3 1.690290 1_555
O7 V0 1.985627 1_555
O8 P0 1.538060 1_565
O8 V6 1.955337 1_555
O9 P1 1.538042 1_555
O9 V5 1.955422 1_555
O10 P2 1.538041 1_565
O10 V4 1.955419 1_555
O11 P3 1.538061 1_555
O11 V3 1.955341 1_555
O12 P0 1.543049 1_455
O12 V3 1.972853 1_555
O13 P1 1.543118 1_655
O13 V4 1.972854 1_555
O14 P2 1.543119 1_555
O14 V5 1.972852 1_555
O15 P4 1.529354 1_556
O15 V4 1.981061 1_555
O16 P3 1.543050 1_555
O16 V6 1.972854 1_555
O17 P1 1.529554 1_655
O17 V1 1.959083 1_555
O18 P2 1.529554 1_565
O18 V2 1.959085 1_565
O19 P3 1.529754 1_555
O19 V7 1.958006 1_555
O20 P0 1.530107 1_555
O20 V0 2.039508 1_555
O21 P1 1.530289 1_555
O21 V1 2.038371 1_555
O22 P2 1.530289 1_555
O22 V2 2.038368 1_655
O23 P3 1.530105 1_555
O23 V7 2.039509 1_455
O24 P7 1.529401 1_555
O24 V0 2.046889 1_555
O25 P6 1.529408 1_555
O25 V1 2.047033 1_555
O26 P5 1.529407 1_555
O26 V2 2.047047 1_555
O27 P4 1.529401 1_555
O27 V7 2.046886 1_555
O28 P7 1.543437 1_555
O28 V1 1.946002 1_555
O29 P6 1.543393 1_555
O29 V0 1.946165 1_565
O30 P5 1.543394 1_554
O30 V7 1.946167 1_455
O31 P4 1.543436 1_556
O31 V2 1.946000 1_665
O32 P7 1.537301 1_555
O32 V3 2.019047 1_555
O33 P6 1.537297 1_555
O33 V4 2.018959 1_555
O34 P5 1.537298 1_555
O34 V5 2.018961 1_555
O35 P4 1.537300 1_555
O35 V6 2.019044 1_555
O36 P7 1.529355 1_555
O36 V5 1.981064 1_555
O37 P6 1.529421 1_555
O37 V6 1.981003 1_555
O38 P5 1.529421 1_554
O38 V3 1.981001 1_555
O39 P0 1.529754 1_465
O39 V0 1.958008 1_565
