# generated using pymatgen
data_PbS2N3
_symmetry_space_group_name_H-M   'P 1'
_cell_length_a   6.00997050
_cell_length_b   6.27528590
_cell_length_c   16.54923600
_cell_angle_alpha   90.00000000
_cell_angle_beta   90.00000000
_cell_angle_gamma   93.95764428
_symmetry_Int_Tables_number   1
_chemical_formula_structural   PbS2N3
_chemical_formula_sum   'Pb4 S8 N12'
_cell_volume   622.65420786
_cell_formula_units_Z   4
loop_
 _symmetry_equiv_pos_site_id
 _symmetry_equiv_pos_as_xyz
  1  'x, y, z'
loop_
 _atom_site_type_symbol
 _atom_site_label
 _atom_site_symmetry_multiplicity
 _atom_site_fract_x
 _atom_site_fract_y
 _atom_site_fract_z
 _atom_site_occupancy
  Pb  Pb0  1  0.30348700  0.22308800  0.56541300  1
  Pb  Pb1  1  0.19651300  0.77691200  0.06541300  1
  Pb  Pb2  1  0.69651300  0.77691200  0.43458700  1
  Pb  Pb3  1  0.80348700  0.22308800  0.93458700  1
  S  S0  1  0.19566200  0.64094000  0.55878100  1
  S  S1  1  0.30433800  0.35906000  0.05878100  1
  S  S2  1  0.80433800  0.35906000  0.44121900  1
  S  S3  1  0.69566200  0.64094000  0.94121900  1
  S  S4  1  0.53059100  0.62078400  0.67894300  1
  S  S5  1  0.96940900  0.37921600  0.17894300  1
  S  S6  1  0.46940900  0.37921600  0.32105700  1
  S  S7  1  0.03059100  0.62078400  0.82105700  1
  N  N0  1  0.36191100  0.75958200  0.62781400  1
  N  N1  1  0.13808900  0.24041800  0.12781400  1
  N  N2  1  0.63808900  0.24041800  0.37218600  1
  N  N3  1  0.86191100  0.75958200  0.87218600  1
  N  N4  1  0.53143300  0.38267900  0.66049600  1
  N  N5  1  0.96856700  0.61732100  0.16049600  1
  N  N6  1  0.46856700  0.61732100  0.33950400  1
  N  N7  1  0.03143300  0.38267900  0.83950400  1
  N  N8  1  0.01663500  0.13135500  0.66249900  1
  N  N9  1  0.48336500  0.86864500  0.16249900  1
  N  N10  1  0.98336500  0.86864500  0.33750100  1
  N  N11  1  0.51663500  0.13135500  0.83750100  1
loop_
_geom_bond_atom_site_label_1
_geom_bond_atom_site_label_2
_geom_bond_distance
_geom_bond_site_symmetry_2
Pb0 S0 2.746299 1_555
Pb1 S1 2.746299 1_555
Pb2 S2 2.746299 1_555
Pb3 S3 2.746299 1_555
N0 S4 1.619937 1_555
N0 S0 1.659848 1_555
N1 S5 1.619937 1_455
N1 S1 1.659848 1_555
N2 S6 1.619937 1_555
N2 S2 1.659848 1_555
N3 S7 1.619937 1_655
N3 S3 1.659848 1_555
N4 S4 1.525396 1_555
N4 Pb0 2.272971 1_555
N5 S5 1.525396 1_555
N5 Pb1 2.272971 1_655
N6 S6 1.525396 1_555
N6 Pb2 2.272971 1_555
N7 S7 1.525396 1_555
N7 Pb3 2.272971 1_455
N8 Pb0 2.397487 1_555
N9 Pb1 2.397487 1_555
N10 Pb2 2.397487 1_555
N11 Pb3 2.397487 1_555
