# generated using pymatgen
data_BaCaCeZrO6
_symmetry_space_group_name_H-M   'P 1'
_cell_length_a   8.51626562
_cell_length_b   8.55468822
_cell_length_c   8.53205127
_cell_angle_alpha   90.00000000
_cell_angle_beta   90.00000000
_cell_angle_gamma   90.00000000
_symmetry_Int_Tables_number   1
_chemical_formula_structural   BaCaCeZrO6
_chemical_formula_sum   'Ba4 Ca4 Ce4 Zr4 O24'
_cell_volume   621.59403915
_cell_formula_units_Z   4
loop_
 _symmetry_equiv_pos_site_id
 _symmetry_equiv_pos_as_xyz
  1  'x, y, z'
loop_
 _atom_site_type_symbol
 _atom_site_label
 _atom_site_symmetry_multiplicity
 _atom_site_fract_x
 _atom_site_fract_y
 _atom_site_fract_z
 _atom_site_occupancy
  Ba  Ba0  1  0.00000000  0.00000000  0.00000000  1
  Ba  Ba1  1  0.50000000  0.50000000  0.50000000  1
  Ba  Ba2  1  0.00000000  0.50000000  0.00000000  1
  Ba  Ba3  1  0.00000000  0.00000000  0.50000000  1
  Ca  Ca0  1  0.00000000  0.50000000  0.50000000  1
  Ca  Ca1  1  0.50000000  0.00000000  0.50000000  1
  Ca  Ca2  1  0.50000000  0.50000000  0.00000000  1
  Ca  Ca3  1  0.50000000  0.00000000  0.00000000  1
  Ce  Ce0  1  0.74405261  0.74874649  0.74877647  1
  Ce  Ce1  1  0.25594739  0.25125351  0.74877647  1
  Ce  Ce2  1  0.25594739  0.74874649  0.25122353  1
  Ce  Ce3  1  0.74405261  0.25125351  0.25122353  1
  Zr  Zr0  1  0.25633965  0.25113138  0.25029351  1
  Zr  Zr1  1  0.74366035  0.74886862  0.25029351  1
  Zr  Zr2  1  0.74366035  0.25113138  0.74970649  1
  Zr  Zr3  1  0.25633965  0.74886862  0.74970649  1
  O  O0  1  0.00833160  0.21496602  0.27387040  1
  O  O1  1  0.99166840  0.78503398  0.27387040  1
  O  O2  1  0.99166840  0.21496602  0.72612960  1
  O  O3  1  0.00833160  0.78503398  0.72612960  1
  O  O4  1  0.30035736  0.00726256  0.20366000  1
  O  O5  1  0.30035736  0.99273744  0.79634000  1
  O  O6  1  0.69964264  0.99273744  0.20366000  1
  O  O7  1  0.69964264  0.00726256  0.79634000  1
  O  O8  1  0.22271382  0.28281655  0.00561411  1
  O  O9  1  0.77728618  0.28281655  0.99438589  1
  O  O10  1  0.22271382  0.71718345  0.99438589  1
  O  O11  1  0.77728618  0.71718345  0.00561411  1
  O  O12  1  0.49351849  0.31296345  0.20819817  1
  O  O13  1  0.50648151  0.68703655  0.20819817  1
  O  O14  1  0.50648151  0.31296345  0.79180183  1
  O  O15  1  0.49351849  0.68703655  0.79180183  1
  O  O16  1  0.20854424  0.49209640  0.30707430  1
  O  O17  1  0.20854424  0.50790360  0.69292570  1
  O  O18  1  0.79145576  0.50790360  0.30707430  1
  O  O19  1  0.79145576  0.49209640  0.69292570  1
  O  O20  1  0.30415803  0.20076880  0.49138026  1
  O  O21  1  0.69584197  0.20076880  0.50861974  1
  O  O22  1  0.30415803  0.79923120  0.50861974  1
  O  O23  1  0.69584197  0.79923120  0.49138026  1
loop_
_geom_bond_atom_site_label_1
_geom_bond_atom_site_label_2
_geom_bond_distance
_geom_bond_site_symmetry_2
Ba0 O3 2.974372 1_544
Ba0 O1 2.974372 1_445
Ba0 O2 2.974372 1_454
Ba0 O0 2.974372 1_555
Ba0 O9 3.074615 1_454
Ba0 O8 3.074615 1_555
Ba0 O11 3.074615 1_445
Ba0 O10 3.074615 1_544
Ba0 O5 3.092930 1_544
Ba0 O7 3.092930 1_454
Ba0 O6 3.092930 1_445
Ba0 O4 3.092930 1_555
Ba1 O13 2.960003 1_555
Ba1 O15 2.960003 1_555
Ba1 O14 2.960003 1_555
Ba1 O12 2.960003 1_555
Ba1 O18 2.979086 1_555
Ba1 O19 2.979086 1_555
Ba1 O17 2.979086 1_555
Ba1 O16 2.979086 1_555
Ba1 O20 3.056114 1_555
Ba1 O23 3.056114 1_555
Ba1 O21 3.056114 1_555
Ba1 O22 3.056114 1_555
Ba2 O10 2.655495 1_554
Ba2 O9 2.655495 1_454
Ba2 O11 2.655495 1_455
Ba2 O8 2.655495 1_555
Ba3 O1 2.666313 1_445
Ba3 O0 2.666313 1_555
Ba3 O2 2.666313 1_455
Ba3 O3 2.666313 1_545
Ba3 O20 3.108837 1_555
Ba3 O23 3.108837 1_445
Ba3 O22 3.108837 1_545
Ba3 O21 3.108837 1_455
Ca0 O17 2.422457 1_555
Ca0 O16 2.422457 1_555
Ca0 O18 2.422457 1_455
Ca0 O19 2.422457 1_455
Ca1 O22 2.395196 1_545
Ca1 O20 2.395196 1_555
Ca1 O23 2.395196 1_545
Ca1 O21 2.395196 1_555
Ca2 O15 2.391363 1_554
Ca2 O13 2.391363 1_555
Ca2 O14 2.391363 1_554
Ca2 O12 2.391363 1_555
Ca2 O10 3.005102 1_554
Ca2 O11 3.005102 1_555
Ca2 O9 3.005102 1_554
Ca2 O8 3.005102 1_555
Ca3 O7 2.431863 1_554
Ca3 O5 2.431863 1_544
Ca3 O6 2.431863 1_545
Ca3 O4 2.431863 1_555
Ce0 O11 2.225990 1_556
Ce0 O15 2.228399 1_555
Ce0 O23 2.275528 1_555
Ce0 O7 2.280036 1_565
Ce0 O3 2.280179 1_655
Ce0 O19 2.282660 1_555
Ce1 O8 2.225990 1_556
Ce1 O14 2.228399 1_555
Ce1 O20 2.275528 1_555
Ce1 O5 2.280036 1_545
Ce1 O2 2.280179 1_455
Ce1 O17 2.282660 1_555
Ce2 O10 2.225990 1_554
Ce2 O13 2.228399 1_555
Ce2 O22 2.275528 1_555
Ce2 O4 2.280036 1_565
Ce2 O1 2.280179 1_455
Ce2 O16 2.282660 1_555
Ce3 O9 2.225990 1_554
Ce3 O12 2.228399 1_555
Ce3 O21 2.275528 1_555
Ce3 O6 2.280036 1_545
Ce3 O0 2.280179 1_655
Ce3 O18 2.282660 1_555
O0 Zr0 2.144099 1_555
O1 Zr1 2.144099 1_555
O2 Zr2 2.144099 1_555
O3 Zr3 2.144099 1_555
O4 Zr0 2.156653 1_555
O5 Zr3 2.156653 1_555
O6 Zr1 2.156653 1_555
O7 Zr2 2.156653 1_555
O8 Zr0 2.124529 1_555
O9 Zr2 2.124529 1_555
O10 Zr3 2.124529 1_555
O11 Zr1 2.124529 1_555
O12 Zr0 2.118654 1_555
O13 Zr1 2.118654 1_555
O14 Zr2 2.118654 1_555
O15 Zr3 2.118654 1_555
O16 Zr0 2.156309 1_555
O17 Zr3 2.156309 1_555
O18 Zr1 2.156309 1_555
O19 Zr2 2.156309 1_555
O20 Zr0 2.140692 1_555
O21 Zr2 2.140692 1_555
O22 Zr3 2.140692 1_555
O23 Zr1 2.140692 1_555
