# generated using pymatgen
data_NaVCdO4
_symmetry_space_group_name_H-M   'P 1'
_cell_length_a   5.42122306
_cell_length_b   5.42122380
_cell_length_c   7.03359448
_cell_angle_alpha   90.00000000
_cell_angle_beta   90.00000000
_cell_angle_gamma   115.00779098
_symmetry_Int_Tables_number   1
_chemical_formula_structural   NaVCdO4
_chemical_formula_sum   'Na2 V2 Cd2 O8'
_cell_volume   187.33551032
_cell_formula_units_Z   2
loop_
 _symmetry_equiv_pos_site_id
 _symmetry_equiv_pos_as_xyz
  1  'x, y, z'
loop_
 _atom_site_type_symbol
 _atom_site_label
 _atom_site_symmetry_multiplicity
 _atom_site_fract_x
 _atom_site_fract_y
 _atom_site_fract_z
 _atom_site_occupancy
  Na  Na0  1  0.31817582  0.68182418  0.25000000  1
  Na  Na1  1  0.68182418  0.31817582  0.75000000  1
  V  V0  1  0.35049582  0.64950418  0.75000000  1
  V  V1  1  0.64950418  0.35049582  0.25000000  1
  Cd  Cd0  1  -0.00000000  0.00000000  0.50000000  1
  Cd  Cd1  1  -0.00000000  0.00000000  -0.00000000  1
  O  O0  1  0.77852643  0.70609535  0.25000000  1
  O  O1  1  0.22147357  0.29390465  0.75000000  1
  O  O2  1  0.70609535  0.77852643  0.75000000  1
  O  O3  1  0.29390465  0.22147357  0.25000000  1
  O  O4  1  0.24256868  0.75743132  0.55482016  1
  O  O5  1  0.75743132  0.24256868  0.05482016  1
  O  O6  1  0.24256868  0.75743132  0.94517984  1
  O  O7  1  0.75743132  0.24256868  0.44517984  1
loop_
_geom_bond_atom_site_label_1
_geom_bond_atom_site_label_2
_geom_bond_distance
_geom_bond_site_symmetry_2
Na0 O6 2.252712 1_554
Na0 O4 2.252712 1_555
Na0 O0 2.442951 1_555
Na0 O3 2.442952 1_555
Na1 O5 2.252712 1_556
Na1 O7 2.252712 1_555
Na1 O1 2.442951 1_555
Na1 O2 2.442952 1_555
Cd0 O7 2.251510 1_455
Cd0 O4 2.251510 1_545
Cd0 O2 2.335548 1_445
Cd0 O3 2.335548 1_555
Cd0 O1 2.335548 1_555
Cd0 O0 2.335548 1_445
Cd1 O6 2.251510 1_544
Cd1 O5 2.251510 1_455
Cd1 O2 2.335548 1_444
Cd1 O3 2.335548 1_555
Cd1 O1 2.335548 1_554
Cd1 O0 2.335548 1_445
O0 V1 1.750869 1_555
O1 V0 1.750869 1_555
O2 V0 1.750869 1_555
O3 V1 1.750869 1_555
O4 V0 1.690782 1_555
O5 V1 1.690782 1_555
O6 V0 1.690782 1_555
O7 V1 1.690782 1_555
