# generated using pymatgen
data_Ca10Ge6F
_symmetry_space_group_name_H-M   'P 1'
_cell_length_a   9.18390799
_cell_length_b   9.18390799
_cell_length_c   9.18390799
_cell_angle_alpha   130.25500706
_cell_angle_beta   130.25500706
_cell_angle_gamma   72.99942202
_symmetry_Int_Tables_number   1
_chemical_formula_structural   Ca10Ge6F
_chemical_formula_sum   'Ca10 Ge6 F1'
_cell_volume   440.61795015
_cell_formula_units_Z   1
loop_
 _symmetry_equiv_pos_site_id
 _symmetry_equiv_pos_as_xyz
  1  'x, y, z'
loop_
 _atom_site_type_symbol
 _atom_site_label
 _atom_site_symmetry_multiplicity
 _atom_site_fract_x
 _atom_site_fract_y
 _atom_site_fract_z
 _atom_site_occupancy
  Ca  Ca0  1  0.25000000  0.75000000  0.50000000  1
  Ca  Ca1  1  0.75000000  0.25000000  0.50000000  1
  Ca  Ca2  1  0.76777900  0.43495800  0.00000000  1
  Ca  Ca3  1  0.43495800  0.76777900  0.00000000  1
  Ca  Ca4  1  0.93254700  0.93254700  0.64982800  1
  Ca  Ca5  1  0.28271800  0.28271800  0.35017200  1
  Ca  Ca6  1  0.71728200  0.06745300  0.00000000  1
  Ca  Ca7  1  0.06745300  0.71728200  0.00000000  1
  Ca  Ca8  1  0.56504200  0.56504200  0.33282100  1
  Ca  Ca9  1  0.23222100  0.23222100  0.66717900  1
  Ge  Ge0  1  0.00000000  0.50000000  0.50000000  1
  Ge  Ge1  1  0.50000000  0.00000000  0.50000000  1
  Ge  Ge2  1  0.12955400  0.36656600  0.00000000  1
  Ge  Ge3  1  0.36656600  0.12955400  0.00000000  1
  Ge  Ge4  1  0.87044600  0.87044600  0.23701200  1
  Ge  Ge5  1  0.63343400  0.63343400  0.76298800  1
  F  F0  1  0.50000000  0.50000000  0.00000000  1
loop_
_geom_bond_atom_site_label_1
_geom_bond_atom_site_label_2
_geom_bond_distance
_geom_bond_site_symmetry_2
Ca0 Ge5 3.086291 1_555
Ca0 Ge4 3.086291 1_455
Ca0 Ge3 3.086291 1_566
Ca0 Ge2 3.086291 1_555
Ca1 Ge4 3.086291 1_545
Ca1 Ge5 3.086291 1_555
Ca1 Ge2 3.086291 1_656
Ca1 Ge3 3.086291 1_555
Ca2 F0 2.354939 1_555
Ca2 Ge4 3.150331 1_555
Ca2 Ge5 3.150331 1_554
Ca2 Ge2 3.195817 1_655
Ca2 Ge1 3.245713 1_554
Ca2 Ge0 3.245713 1_655
Ca3 F0 2.354939 1_555
Ca3 Ge4 3.150331 1_555
Ca3 Ge5 3.150331 1_554
Ca3 Ge3 3.195817 1_565
Ca3 Ge0 3.245713 1_554
Ca3 Ge1 3.245713 1_565
Ca4 Ge4 3.102497 1_555
Ca4 Ge3 3.103974 1_666
Ca4 Ge2 3.103974 1_666
Ca4 Ge0 3.264345 1_655
Ca4 Ge1 3.264345 1_565
Ca5 Ge5 3.102507 1_555
Ca5 Ge3 3.103984 1_555
Ca5 Ge2 3.103984 1_555
Ca5 Ge0 3.264338 1_555
Ca5 Ge1 3.264338 1_555
Ca6 Ge3 3.102506 1_555
Ca6 Ge4 3.103975 1_545
Ca6 Ge5 3.103975 1_544
Ca6 Ge1 3.264343 1_554
Ca6 Ge0 3.264343 1_655
Ca7 Ge2 3.102506 1_555
Ca7 Ge5 3.103975 1_454
Ca7 Ge4 3.103975 1_455
Ca7 Ge1 3.264343 1_565
Ca7 Ge0 3.264343 1_554
Ca8 F0 2.354939 1_555
Ca8 Ge3 3.150331 1_555
Ca8 Ge2 3.150331 1_555
Ca8 Ge5 3.195817 1_555
Ca8 Ge0 3.245713 1_655
Ca8 Ge1 3.245713 1_565
Ca9 F0 2.354939 1_556
Ca9 Ge3 3.150331 1_556
Ca9 Ge2 3.150331 1_556
Ca9 Ge4 3.195817 1_445
Ca9 Ge0 3.245713 1_555
Ca9 Ge1 3.245713 1_555
Ge2 Ge3 2.589480 1_555
Ge4 Ge5 2.589480 1_554
