# generated using pymatgen
data_Mn5Fe2BC2
_symmetry_space_group_name_H-M   'P 1'
_cell_length_a   4.40335200
_cell_length_b   6.76280100
_cell_length_c   12.03845700
_cell_angle_alpha   90.00000000
_cell_angle_beta   90.00000000
_cell_angle_gamma   90.00000000
_symmetry_Int_Tables_number   1
_chemical_formula_structural   Mn5Fe2BC2
_chemical_formula_sum   'Mn20 Fe8 B4 C8'
_cell_volume   358.49313045
_cell_formula_units_Z   4
loop_
 _symmetry_equiv_pos_site_id
 _symmetry_equiv_pos_as_xyz
  1  'x, y, z'
loop_
 _atom_site_type_symbol
 _atom_site_label
 _atom_site_symmetry_multiplicity
 _atom_site_fract_x
 _atom_site_fract_y
 _atom_site_fract_z
 _atom_site_occupancy
  Mn  Mn0  1  0.75297900  0.25000000  0.09331600  1
  Mn  Mn1  1  0.25297900  0.25000000  0.40668400  1
  Mn  Mn2  1  0.24702100  0.75000000  0.90668400  1
  Mn  Mn3  1  0.74702100  0.75000000  0.59331600  1
  Mn  Mn4  1  0.55894300  0.06208800  0.69125900  1
  Mn  Mn5  1  0.05894300  0.43791200  0.80874100  1
  Mn  Mn6  1  0.44105700  0.56208800  0.30874100  1
  Mn  Mn7  1  0.94105700  0.93791200  0.19125900  1
  Mn  Mn8  1  0.44105700  0.93791200  0.30874100  1
  Mn  Mn9  1  0.94105700  0.56208800  0.19125900  1
  Mn  Mn10  1  0.55894300  0.43791200  0.69125900  1
  Mn  Mn11  1  0.05894300  0.06208800  0.80874100  1
  Mn  Mn12  1  0.75259800  0.06183900  0.47561300  1
  Mn  Mn13  1  0.25259800  0.43816100  0.02438700  1
  Mn  Mn14  1  0.24740200  0.56183900  0.52438700  1
  Mn  Mn15  1  0.74740200  0.93816100  0.97561300  1
  Mn  Mn16  1  0.24740200  0.93816100  0.52438700  1
  Mn  Mn17  1  0.74740200  0.56183900  0.97561300  1
  Mn  Mn18  1  0.75259800  0.43816100  0.47561300  1
  Mn  Mn19  1  0.25259800  0.06183900  0.02438700  1
  Fe  Fe0  1  0.54940000  0.25000000  0.87031700  1
  Fe  Fe1  1  0.04940000  0.25000000  0.62968300  1
  Fe  Fe2  1  0.45060000  0.75000000  0.12968300  1
  Fe  Fe3  1  0.95060000  0.75000000  0.37031700  1
  Fe  Fe4  1  0.76881900  0.25000000  0.29830100  1
  Fe  Fe5  1  0.26881900  0.25000000  0.20169900  1
  Fe  Fe6  1  0.23118100  0.75000000  0.70169900  1
  Fe  Fe7  1  0.73118100  0.75000000  0.79830100  1
  B  B0  1  0.95929400  0.25000000  0.94150700  1
  B  B1  1  0.45929400  0.25000000  0.55849300  1
  B  B2  1  0.04070600  0.75000000  0.05849300  1
  B  B3  1  0.54070600  0.75000000  0.44150700  1
  C  C0  1  0.52624800  0.02673700  0.15398100  1
  C  C1  1  0.02624800  0.47326300  0.34601900  1
  C  C2  1  0.47375200  0.52673700  0.84601900  1
  C  C3  1  0.97375200  0.97326300  0.65398100  1
  C  C4  1  0.47375200  0.97326300  0.84601900  1
  C  C5  1  0.97375200  0.52673700  0.65398100  1
  C  C6  1  0.52624800  0.47326300  0.15398100  1
  C  C7  1  0.02624800  0.02673700  0.34601900  1
loop_
_geom_bond_atom_site_label_1
_geom_bond_atom_site_label_2
_geom_bond_distance
_geom_bond_site_symmetry_2
B0 Fe0 1.998042 1_555
B0 Mn0 2.040896 1_556
B0 Mn13 2.069485 1_656
B0 Mn19 2.069485 1_656
B0 Mn5 2.088553 1_655
B0 Mn11 2.088553 1_655
B0 Mn17 2.342352 1_555
B0 Mn15 2.342352 1_545
B1 Fe1 1.998042 1_555
B1 Mn1 2.040896 1_555
B1 Mn18 2.069485 1_555
B1 Mn12 2.069485 1_555
B1 Mn10 2.088553 1_555
B1 Mn4 2.088553 1_555
B1 Mn14 2.342352 1_555
B1 Mn16 2.342352 1_545
B2 Fe2 1.998042 1_555
B2 Mn2 2.040896 1_554
B2 Mn15 2.069485 1_454
B2 Mn17 2.069485 1_454
B2 Mn7 2.088553 1_455
B2 Mn9 2.088553 1_455
B2 Mn19 2.342352 1_565
B2 Mn13 2.342352 1_555
B3 Fe3 1.998042 1_555
B3 Mn3 2.040896 1_555
B3 Mn16 2.069485 1_555
B3 Mn14 2.069485 1_555
B3 Mn8 2.088553 1_555
B3 Mn6 2.088553 1_555
B3 Mn12 2.342352 1_565
B3 Mn18 2.342352 1_555
C0 Fe2 1.923304 1_545
C0 Mn0 1.951886 1_555
C0 Fe5 1.973494 1_555
C0 Mn7 1.974469 1_545
C0 Mn19 1.985516 1_555
C0 Mn8 1.993139 1_545
C1 Fe3 1.923304 1_455
C1 Mn1 1.951886 1_555
C1 Fe4 1.973494 1_455
C1 Mn6 1.974469 1_555
C1 Mn18 1.985516 1_455
C1 Mn9 1.993139 1_455
C2 Fe0 1.923304 1_555
C2 Mn2 1.951886 1_555
C2 Fe7 1.973494 1_555
C2 Mn5 1.974469 1_555
C2 Mn17 1.985516 1_555
C2 Mn10 1.993139 1_555
C3 Fe1 1.923304 1_665
C3 Mn3 1.951886 1_555
C3 Fe6 1.973494 1_655
C3 Mn4 1.974469 1_565
C3 Mn16 1.985516 1_655
C3 Mn11 1.993139 1_665
C4 Fe0 1.923304 1_565
C4 Mn2 1.951886 1_555
C4 Fe7 1.973494 1_555
C4 Mn11 1.974469 1_565
C4 Mn15 1.985516 1_555
C4 Mn4 1.993139 1_565
C5 Fe1 1.923304 1_655
C5 Mn3 1.951886 1_555
C5 Fe6 1.973494 1_655
C5 Mn10 1.974469 1_555
C5 Mn14 1.985516 1_655
C5 Mn5 1.993139 1_655
C6 Fe2 1.923304 1_555
C6 Mn0 1.951886 1_555
C6 Fe5 1.973494 1_555
C6 Mn9 1.974469 1_555
C6 Mn13 1.985516 1_555
C6 Mn6 1.993139 1_555
C7 Fe3 1.923304 1_445
C7 Mn1 1.951886 1_555
C7 Fe4 1.973494 1_455
C7 Mn8 1.974469 1_545
C7 Mn12 1.985516 1_455
C7 Mn7 1.993139 1_445
