# generated using pymatgen
data_ScGaCu
_symmetry_space_group_name_H-M   'P 1'
_cell_length_a   4.15011674
_cell_length_b   5.34866156
_cell_length_c   5.28080180
_cell_angle_alpha   93.18292590
_cell_angle_beta   113.13122648
_cell_angle_gamma   67.24804339
_symmetry_Int_Tables_number   1
_chemical_formula_structural   ScGaCu
_chemical_formula_sum   'Sc2 Ga2 Cu2'
_cell_volume   98.76494940
_cell_formula_units_Z   2
loop_
 _symmetry_equiv_pos_site_id
 _symmetry_equiv_pos_as_xyz
  1  'x, y, z'
loop_
 _atom_site_type_symbol
 _atom_site_label
 _atom_site_symmetry_multiplicity
 _atom_site_fract_x
 _atom_site_fract_y
 _atom_site_fract_z
 _atom_site_occupancy
  Sc  Sc0  1  0.75589302  0.70765363  0.22094925  1
  Sc  Sc1  1  0.24410717  0.29234586  0.77905060  1
  Ga  Ga0  1  0.04824863  0.11932186  0.21659374  1
  Ga  Ga1  1  0.95175162  0.88067780  0.78340624  1
  Cu  Cu0  1  0.54290315  0.29271318  0.37871559  1
  Cu  Cu1  1  0.45709641  0.70728667  0.62128357  1
loop_
_geom_bond_atom_site_label_1
_geom_bond_atom_site_label_2
_geom_bond_distance
_geom_bond_site_symmetry_2
Sc0 Sc1 3.206214 1_655
Sc0 Sc1 3.393445 1_564
Ga0 Ga1 2.524682 1_444
Ga0 Sc0 2.900837 1_445
Ga0 Sc0 2.902489 1_545
Ga0 Sc0 2.904414 1_455
Ga0 Sc1 2.952815 1_555
Ga0 Sc1 3.020404 1_454
Ga0 Sc1 3.025033 1_554
Ga1 Sc1 2.900836 1_665
Ga1 Sc1 2.902489 1_565
Ga1 Sc1 2.904415 1_655
Ga1 Sc0 2.952816 1_555
Ga1 Sc0 3.020404 1_656
Ga1 Sc0 3.025033 1_556
Cu0 Ga0 2.410306 1_655
Cu0 Ga0 2.410587 1_555
Cu0 Cu1 2.473211 1_555
Cu0 Ga1 2.661718 1_545
Cu0 Sc1 2.840618 1_555
Cu0 Sc1 2.846113 1_655
Cu0 Sc1 2.912340 1_554
Cu0 Sc0 2.949985 1_555
Cu0 Sc0 2.957730 1_455
Cu0 Sc0 3.068785 1_545
Cu1 Ga1 2.410307 1_455
Cu1 Ga1 2.410589 1_555
Cu1 Ga0 2.661715 1_565
Cu1 Sc0 2.840617 1_555
Cu1 Sc0 2.846111 1_455
Cu1 Sc0 2.912344 1_556
Cu1 Sc1 2.949987 1_555
Cu1 Sc1 2.957732 1_655
Cu1 Sc1 3.068784 1_565
