# generated using pymatgen
data_Si6Bi9O26
_symmetry_space_group_name_H-M   'P 1'
_cell_length_a   9.76271694
_cell_length_b   9.75984685
_cell_length_c   14.13756475
_cell_angle_alpha   90.02181776
_cell_angle_beta   90.03683884
_cell_angle_gamma   59.93708549
_symmetry_Int_Tables_number   1
_chemical_formula_structural   Si6Bi9O26
_chemical_formula_sum   'Si12 Bi18 O52'
_cell_volume   1165.85132392
_cell_formula_units_Z   2
loop_
 _symmetry_equiv_pos_site_id
 _symmetry_equiv_pos_as_xyz
  1  'x, y, z'
loop_
 _atom_site_type_symbol
 _atom_site_label
 _atom_site_symmetry_multiplicity
 _atom_site_fract_x
 _atom_site_fract_y
 _atom_site_fract_z
 _atom_site_occupancy
  Si  Si0  1  0.02150200  0.60421300  0.37453000  1
  Si  Si1  1  0.02401700  0.60181400  0.87334300  1
  Si  Si2  1  0.62587700  0.97728100  0.62569200  1
  Si  Si3  1  0.62582200  0.97555300  0.12660600  1
  Si  Si4  1  0.39832100  0.62570400  0.12705300  1
  Si  Si5  1  0.39589000  0.62605300  0.62515000  1
  Si  Si6  1  0.60426300  0.37426600  0.37468100  1
  Si  Si7  1  0.60195600  0.37428000  0.87336900  1
  Si  Si8  1  0.37424500  0.02413100  0.87323500  1
  Si  Si9  1  0.37377500  0.02239100  0.37430400  1
  Si  Si10  1  0.97623300  0.39795800  0.12702400  1
  Si  Si11  1  0.97821800  0.39564200  0.62517200  1
  Bi  Bi0  1  0.24371400  0.99019000  0.62692700  1
  Bi  Bi1  1  0.24023200  0.98490700  0.12628700  1
  Bi  Bi2  1  0.22528400  0.75871200  0.87345100  1
  Bi  Bi3  1  0.23606600  0.75308200  0.37381800  1
  Bi  Bi4  1  0.01247500  0.23463000  0.37379900  1
  Bi  Bi5  1  0.01575600  0.22537200  0.87355400  1
  Bi  Bi6  1  0.66666900  0.66679000  0.75939800  1
  Bi  Bi7  1  0.33361100  0.33351000  0.97928100  1
  Bi  Bi8  1  0.33391500  0.33273600  0.52922400  1
  Bi  Bi9  1  0.66644700  0.66739800  0.01983600  1
  Bi  Bi10  1  0.66676800  0.66687700  0.47112800  1
  Bi  Bi11  1  0.33424100  0.33232200  0.23913900  1
  Bi  Bi12  1  0.98373700  0.77460600  0.12634600  1
  Bi  Bi13  1  0.98861600  0.76611200  0.62652400  1
  Bi  Bi14  1  0.76509700  0.24411800  0.62677000  1
  Bi  Bi15  1  0.77366600  0.24103700  0.12633400  1
  Bi  Bi16  1  0.75934200  0.01543000  0.87341800  1
  Bi  Bi17  1  0.75294600  0.01111800  0.37365300  1
  O  O0  1  0.07321400  0.68321400  0.78661300  1
  O  O1  1  0.08667000  0.66626000  0.28498300  1
  O  O2  1  0.09474300  0.65462000  0.46547000  1
  O  O3  1  0.08918900  0.66234700  0.96441100  1
  O  O4  1  0.31720800  0.75636300  0.21412700  1
  O  O5  1  0.33211600  0.75438500  0.71443100  1
  O  O6  1  0.34410200  0.74969300  0.53363600  1
  O  O7  1  0.33589200  0.75241300  0.03631700  1
  O  O8  1  0.51931000  0.89001400  0.63341300  1
  O  O9  1  0.49811300  0.83354100  0.87323200  1
  O  O10  1  0.47510600  0.82992500  0.37718800  1
  O  O11  1  0.52792700  0.87896200  0.11926100  1
  O  O12  1  0.10918800  0.40952500  0.36725900  1
  O  O13  1  0.12140900  0.40713000  0.88047500  1
  O  O14  1  0.30832100  0.52187400  0.62291900  1
  O  O15  1  0.16649700  0.33177700  0.12704200  1
  O  O16  1  0.33234300  0.50152800  0.12706000  1
  O  O17  1  0.74898300  0.90428700  0.53436200  1
  O  O18  1  0.75599800  0.92678100  0.21351900  1
  O  O19  1  0.75350100  0.91311800  0.71529200  1
  O  O20  1  0.17019500  0.30761400  0.62316800  1
  O  O21  1  0.75131000  0.90995700  0.03548000  1
  O  O22  1  0.41010500  0.48256900  0.36742300  1
  O  O23  1  0.40743000  0.47140600  0.88043500  1
  O  O24  1  0.00116500  0.00082800  0.87880400  1
  O  O25  1  0.99963200  0.00015800  0.62705800  1
  O  O26  1  0.00683800  0.00430800  0.37376700  1
  O  O27  1  0.99973300  0.99988400  0.12123300  1
  O  O28  1  0.59278800  0.52882400  0.11898700  1
  O  O29  1  0.59003400  0.52040300  0.63307900  1
  O  O30  1  0.24821200  0.08934700  0.96427200  1
  O  O31  1  0.82955800  0.69172200  0.37671300  1
  O  O32  1  0.24661200  0.08889000  0.28447200  1
  O  O33  1  0.24339400  0.07373300  0.78638200  1
  O  O34  1  0.24947700  0.09709900  0.46520600  1
  O  O35  1  0.66817900  0.49834400  0.87324100  1
  O  O36  1  0.83359300  0.66786100  0.87322300  1
  O  O37  1  0.69359800  0.47689100  0.37701500  1
  O  O38  1  0.87865400  0.59225100  0.11910200  1
  O  O39  1  0.88965300  0.58953100  0.63304600  1
  O  O40  1  0.47150100  0.12119800  0.88053200  1
  O  O41  1  0.52234000  0.16954200  0.62327800  1
  O  O42  1  0.50179100  0.16626400  0.12649700  1
  O  O43  1  0.48193400  0.10792600  0.36742300  1
  O  O44  1  0.66261500  0.24859900  0.96459600  1
  O  O45  1  0.65367200  0.25081800  0.46577200  1
  O  O46  1  0.66485800  0.24732800  0.28486100  1
  O  O47  1  0.68307000  0.24348300  0.78654400  1
  O  O48  1  0.91233800  0.33511400  0.03632700  1
  O  O49  1  0.90642500  0.34390000  0.53355900  1
  O  O50  1  0.91379200  0.33169100  0.71439700  1
  O  O51  1  0.92687700  0.31661800  0.21405900  1
loop_
_geom_bond_atom_site_label_1
_geom_bond_atom_site_label_2
_geom_bond_distance
_geom_bond_site_symmetry_2
Bi0 O25 2.335688 1_465
Bi0 O8 2.359583 1_555
Bi0 O5 2.362747 1_555
Bi0 O33 2.396410 1_565
Bi0 O6 2.429808 1_555
Bi0 O34 2.525873 1_565
Bi0 O20 2.808543 1_565
Bi1 O27 2.279288 1_455
Bi1 O4 2.324600 1_555
Bi1 O7 2.348418 1_555
Bi1 O11 2.461363 1_555
Bi1 O32 2.469110 1_565
Bi1 O30 2.524486 1_564
Bi2 O24 2.279671 1_565
Bi2 O0 2.312404 1_555
Bi2 O3 2.357682 1_555
Bi2 O23 2.457410 1_555
Bi2 O5 2.470342 1_555
Bi2 O7 2.530190 1_556
Bi3 O22 2.317577 1_555
Bi3 O26 2.350004 1_565
Bi3 O1 2.378588 1_555
Bi3 O4 2.398597 1_555
Bi3 O2 2.416110 1_555
Bi3 O6 2.486088 1_555
Bi3 O10 2.786424 1_555
Bi4 O26 2.275974 1_555
Bi4 O12 2.329950 1_555
Bi4 O32 2.363856 1_555
Bi4 O34 2.389792 1_555
Bi4 O51 2.401605 1_455
Bi4 O49 2.491092 1_455
Bi4 O37 2.812367 1_455
Bi5 O24 2.267476 1_555
Bi5 O33 2.314061 1_555
Bi5 O30 2.352989 1_555
Bi5 O13 2.460339 1_555
Bi5 O50 2.468717 1_455
Bi5 O48 2.525827 1_456
Bi6 O36 2.293260 1_555
Bi6 O9 2.294494 1_555
Bi6 O35 2.295877 1_555
Bi6 O8 2.616856 1_555
Bi6 O29 2.618683 1_555
Bi6 O39 2.618753 1_555
Bi7 O23 2.293032 1_555
Bi7 O40 2.293555 1_555
Bi7 O13 2.294563 1_555
Bi7 O42 2.646687 1_556
Bi7 O16 2.651638 1_556
Bi7 O15 2.656677 1_556
Bi8 O41 2.179866 1_555
Bi8 O14 2.181984 1_555
Bi8 O20 2.185044 1_555
Bi9 O11 2.295802 1_555
Bi9 O38 2.296542 1_555
Bi9 O28 2.299640 1_555
Bi9 O9 2.637077 1_554
Bi9 O36 2.640233 1_554
Bi9 O35 2.643354 1_554
Bi10 O31 2.180677 1_555
Bi10 O37 2.188392 1_555
Bi10 O10 2.193729 1_555
Bi11 O42 2.276757 1_555
Bi11 O15 2.280086 1_555
Bi11 O16 2.282446 1_555
Bi11 O43 2.645846 1_555
Bi11 O12 2.649786 1_555
Bi11 O22 2.659407 1_555
Bi12 O27 2.282092 1_555
Bi12 O18 2.315532 1_555
Bi12 O21 2.353411 1_555
Bi12 O38 2.461611 1_555
Bi12 O1 2.468231 1_655
Bi12 O3 2.524381 1_654
Bi13 O25 2.339989 1_565
Bi13 O39 2.362314 1_555
Bi13 O19 2.367473 1_555
Bi13 O0 2.405952 1_655
Bi13 O17 2.413692 1_555
Bi13 O2 2.512658 1_655
Bi13 O14 2.823557 1_655
Bi14 O25 2.334478 1_555
Bi14 O29 2.362783 1_555
Bi14 O50 2.369078 1_555
Bi14 O47 2.398100 1_555
Bi14 O49 2.436837 1_555
Bi14 O45 2.508783 1_555
Bi14 O41 2.806606 1_555
Bi15 O27 2.282846 1_545
Bi15 O51 2.328506 1_555
Bi15 O48 2.354481 1_555
Bi15 O28 2.459441 1_555
Bi15 O46 2.468338 1_555
Bi15 O44 2.515169 1_554
Bi16 O24 2.293993 1_655
Bi16 O47 2.314590 1_555
Bi16 O44 2.361863 1_555
Bi16 O19 2.460299 1_545
Bi16 O40 2.463003 1_555
Bi16 O21 2.529454 1_546
Bi17 O43 2.322920 1_555
Bi17 O46 2.375830 1_555
Bi17 O18 2.403699 1_545
Bi17 O45 2.415783 1_555
Bi17 O26 2.446056 1_655
Bi17 O17 2.508604 1_545
Bi17 O31 2.818275 1_545
O0 Si1 1.658035 1_555
O1 Si0 1.661869 1_555
O2 Si0 1.660428 1_555
O3 Si1 1.669263 1_555
O4 Si4 1.660409 1_555
O5 Si5 1.663759 1_555
O6 Si5 1.665753 1_555
O7 Si4 1.670744 1_555
O8 Si2 1.645520 1_555
O9 Si8 1.633631 1_565
O10 Si9 1.626972 1_565
O11 Si3 1.647840 1_555
O12 Si0 1.650495 1_555
O13 Si1 1.647574 1_555
O14 Si5 1.623741 1_555
O15 Si10 1.632612 1_455
O16 Si4 1.632733 1_555
O17 Si2 1.662102 1_555
O18 Si3 1.656453 1_555
O19 Si2 1.663130 1_555
O20 Si11 1.624311 1_455
O21 Si3 1.669147 1_555
O22 Si6 1.647182 1_555
O23 Si7 1.646716 1_555
O28 Si4 1.647150 1_555
O29 Si5 1.646194 1_555
O30 Si8 1.671021 1_555
O31 Si0 1.624329 1_655
O32 Si9 1.663338 1_555
O33 Si8 1.659160 1_555
O34 Si9 1.664502 1_555
O35 Si7 1.633541 1_555
O36 Si1 1.634309 1_655
O37 Si6 1.624838 1_555
O38 Si10 1.645003 1_555
O39 Si11 1.643645 1_555
O40 Si8 1.646408 1_555
O41 Si2 1.625914 1_545
O42 Si3 1.634809 1_545
O43 Si9 1.644601 1_555
O44 Si7 1.670672 1_555
O45 Si6 1.661580 1_555
O46 Si6 1.662162 1_555
O47 Si7 1.658516 1_555
O48 Si10 1.670669 1_555
O49 Si11 1.666353 1_555
O50 Si11 1.664724 1_555
O51 Si10 1.661685 1_555
