# generated using pymatgen
data_NdPd2
_symmetry_space_group_name_H-M   'P 1'
_cell_length_a   3.96828000
_cell_length_b   3.96828000
_cell_length_c   5.24313975
_cell_angle_alpha   112.23621474
_cell_angle_beta   112.23621474
_cell_angle_gamma   90.00000000
_symmetry_Int_Tables_number   1
_chemical_formula_structural   NdPd2
_chemical_formula_sum   'Nd1 Pd2'
_cell_volume   69.74606497
_cell_formula_units_Z   1
loop_
 _symmetry_equiv_pos_site_id
 _symmetry_equiv_pos_as_xyz
  1  'x, y, z'
loop_
 _atom_site_type_symbol
 _atom_site_label
 _atom_site_symmetry_multiplicity
 _atom_site_fract_x
 _atom_site_fract_y
 _atom_site_fract_z
 _atom_site_occupancy
  Nd  Nd0  1  0.00000000  0.00000000  0.00000000  1
  Pd  Pd0  1  0.25000000  0.75000000  0.50000000  1
  Pd  Pd1  1  0.75000000  0.25000000  0.50000000  1
loop_
_geom_bond_atom_site_label_1
_geom_bond_atom_site_label_2
_geom_bond_distance
_geom_bond_site_symmetry_2
Nd0 Pd1 2.973388 1_444
Nd0 Pd0 2.973388 1_545
Nd0 Pd0 2.973388 1_544
Nd0 Pd0 2.973388 1_444
Nd0 Pd0 2.973388 1_555
Nd0 Pd1 2.973388 1_555
Nd0 Pd1 2.973388 1_455
Nd0 Pd1 2.973388 1_454
Pd0 Pd1 2.805998 1_465
Pd0 Pd1 2.805998 1_455
Pd0 Pd1 2.805998 1_555
Pd0 Pd1 2.805998 1_565
