# generated using pymatgen
data_K(Mo3S4)2
_symmetry_space_group_name_H-M   'P 1'
_cell_length_a   6.65147003
_cell_length_b   6.65147003
_cell_length_c   6.65147012
_cell_angle_alpha   88.94173200
_cell_angle_beta   88.94173200
_cell_angle_gamma   88.94173121
_symmetry_Int_Tables_number   1
_chemical_formula_structural   K(Mo3S4)2
_chemical_formula_sum   'K1 Mo6 S8'
_cell_volume   294.12594318
_cell_formula_units_Z   1
loop_
 _symmetry_equiv_pos_site_id
 _symmetry_equiv_pos_as_xyz
  1  'x, y, z'
loop_
 _atom_site_type_symbol
 _atom_site_label
 _atom_site_symmetry_multiplicity
 _atom_site_fract_x
 _atom_site_fract_y
 _atom_site_fract_z
 _atom_site_occupancy
  K  K0  1  0.00000000  0.00000000  0.00000000  1
  Mo  Mo0  1  0.77299200  0.59090900  0.43774400  1
  Mo  Mo1  1  0.43774400  0.77299200  0.59090900  1
  Mo  Mo2  1  0.59090900  0.43774400  0.77299200  1
  Mo  Mo3  1  0.22700800  0.40909100  0.56225600  1
  Mo  Mo4  1  0.56225600  0.22700800  0.40909100  1
  Mo  Mo5  1  0.40909100  0.56225600  0.22700800  1
  S  S0  1  0.75497000  0.75497000  0.75497000  1
  S  S1  1  0.24503000  0.24503000  0.24503000  1
  S  S2  1  0.26795100  0.60079000  0.87489900  1
  S  S3  1  0.87489900  0.26795100  0.60079000  1
  S  S4  1  0.60079000  0.87489900  0.26795100  1
  S  S5  1  0.73204900  0.39921000  0.12510100  1
  S  S6  1  0.12510100  0.73204900  0.39921000  1
  S  S7  1  0.39921000  0.12510100  0.73204900  1
loop_
_geom_bond_atom_site_label_1
_geom_bond_atom_site_label_2
_geom_bond_distance
_geom_bond_site_symmetry_2
K0 S0 2.874577 1_444
K0 S1 2.874577 1_555
K0 S2 3.282026 1_544
K0 S5 3.282026 1_455
K0 S4 3.282026 1_445
K0 S7 3.282026 1_554
K0 S3 3.282026 1_454
K0 S6 3.282026 1_545
Mo0 S0 2.393376 1_555
Mo0 S4 2.458580 1_555
Mo0 S3 2.477384 1_555
Mo0 S5 2.481160 1_555
Mo0 S6 2.546043 1_655
Mo1 S0 2.393376 1_555
Mo1 S2 2.458580 1_555
Mo1 S4 2.477384 1_555
Mo1 S6 2.481160 1_555
Mo1 S7 2.546043 1_565
Mo2 S0 2.393376 1_555
Mo2 S3 2.458580 1_555
Mo2 S2 2.477384 1_555
Mo2 S7 2.481160 1_555
Mo2 S5 2.546043 1_556
Mo3 S1 2.393376 1_555
Mo3 S7 2.458580 1_555
Mo3 S6 2.477384 1_555
Mo3 S2 2.481160 1_555
Mo3 S3 2.546043 1_455
Mo4 S1 2.393376 1_555
Mo4 S5 2.458580 1_555
Mo4 S7 2.477384 1_555
Mo4 S3 2.481160 1_555
Mo4 S4 2.546043 1_545
Mo5 S1 2.393376 1_555
Mo5 S6 2.458580 1_555
Mo5 S5 2.477384 1_555
Mo5 S4 2.481160 1_555
Mo5 S2 2.546043 1_554
