# generated using pymatgen
data_Ca2Al2Si(HO4)2
_symmetry_space_group_name_H-M   'P 1'
_cell_length_a   7.63712335
_cell_length_b   7.63712335
_cell_length_c   7.63712335
_cell_angle_alpha   109.26821481
_cell_angle_beta   109.26821481
_cell_angle_gamma   109.87799968
_symmetry_Int_Tables_number   1
_chemical_formula_structural   Ca2Al2Si(HO4)2
_chemical_formula_sum   'Ca4 Al4 Si2 H4 O16'
_cell_volume   342.88705817
_cell_formula_units_Z   2
loop_
 _symmetry_equiv_pos_site_id
 _symmetry_equiv_pos_as_xyz
  1  'x, y, z'
loop_
 _atom_site_type_symbol
 _atom_site_label
 _atom_site_symmetry_multiplicity
 _atom_site_fract_x
 _atom_site_fract_y
 _atom_site_fract_z
 _atom_site_occupancy
  Ca  Ca0  1  0.71248152  0.71248152  0.71565659  1
  Ca  Ca1  1  0.99682493  0.99682493  0.28434341  1
  Ca  Ca2  1  0.28751848  0.00317507  -0.00000000  1
  Ca  Ca3  1  0.00317507  0.28751848  -0.00000000  1
  Al  Al0  1  0.75275438  0.50000000  0.25275438  1
  Al  Al1  1  0.50000000  0.24724562  0.74724562  1
  Al  Al2  1  0.50000000  0.75275438  0.25275438  1
  Al  Al3  1  0.24724562  0.50000000  0.74724562  1
  Si  Si0  1  0.25000000  0.75000000  0.50000000  1
  Si  Si1  1  0.75000000  0.25000000  0.50000000  1
  H  H0  1  0.34612043  0.34612043  0.37241013  1
  H  H1  1  0.97371029  0.97371029  0.62758987  1
  H  H2  1  0.65387957  0.02628971  0.00000000  1
  H  H3  1  0.02628971  0.65387957  -0.00000000  1
  O  O0  1  0.43118063  0.43118063  0.70509542  1
  O  O1  1  0.43408604  0.72570271  0.44813555  1
  O  O2  1  0.72570271  0.43408604  0.44813555  1
  O  O3  1  0.72608521  0.72608521  0.29490458  1
  O  O4  1  0.27756717  0.98595049  0.55186445  1
  O  O5  1  0.98595049  0.27756717  0.55186445  1
  O  O6  1  0.56881937  0.27391479  -0.00000000  1
  O  O7  1  0.56591396  0.01404951  0.29161667  1
  O  O8  1  0.27429729  0.72243283  0.70838333  1
  O  O9  1  0.27391479  0.56881937  -0.00000000  1
  O  O10  1  0.72243283  0.27429729  0.70838333  1
  O  O11  1  0.01404951  0.56591396  0.29161667  1
  O  O12  1  0.23281529  0.23281529  0.23051537  1
  O  O13  1  0.00229991  0.00229991  0.76948463  1
  O  O14  1  0.76718471  0.99770009  0.00000000  1
  O  O15  1  0.99770009  0.76718471  -0.00000000  1
loop_
_geom_bond_atom_site_label_1
_geom_bond_atom_site_label_2
_geom_bond_distance
_geom_bond_site_symmetry_2
Ca0 O15 2.301207 1_556
Ca0 O14 2.301207 1_556
Ca0 O13 2.331206 1_665
Ca0 O0 2.422775 1_555
Ca0 O1 2.473891 1_555
Ca0 O2 2.473891 1_555
Ca1 O14 2.301207 1_555
Ca1 O15 2.301207 1_555
Ca1 O12 2.331206 1_665
Ca1 O3 2.422775 1_555
Ca1 O4 2.473892 1_655
Ca1 O5 2.473892 1_565
Ca2 O12 2.301207 1_555
Ca2 O13 2.301207 1_554
Ca2 O15 2.331206 1_445
Ca2 O6 2.422775 1_555
Ca2 O7 2.473891 1_555
Ca2 O8 2.473891 1_544
Ca3 O12 2.301207 1_555
Ca3 O13 2.301207 1_554
Ca3 O14 2.331206 1_445
Ca3 O9 2.422775 1_555
Ca3 O11 2.473891 1_555
Ca3 O10 2.473891 1_454
Al0 O6 1.744130 1_555
Al0 O3 1.744130 1_555
Al0 O11 1.775125 1_655
Al0 O2 1.775125 1_555
Al1 O6 1.744130 1_556
Al1 O0 1.744130 1_555
Al1 O10 1.775125 1_555
Al1 O4 1.775125 1_545
Al2 O9 1.744130 1_555
Al2 O3 1.744130 1_555
Al2 O7 1.775125 1_565
Al2 O1 1.775125 1_555
Al3 O9 1.744130 1_556
Al3 O0 1.744130 1_555
Al3 O8 1.775125 1_555
Al3 O5 1.775125 1_455
H0 O12 0.961741 1_555
H1 O13 0.961741 1_665
H2 O14 0.961741 1_545
H3 O15 0.961741 1_455
O1 Si0 1.632257 1_555
O2 Si1 1.632257 1_555
O4 Si0 1.632257 1_555
O5 Si1 1.632257 1_555
O7 Si1 1.632257 1_555
O8 Si0 1.632257 1_555
O10 Si1 1.632257 1_555
O11 Si0 1.632257 1_555
