# generated using pymatgen
data_TePb5O8
_symmetry_space_group_name_H-M   'P 1'
_cell_length_a   12.27139400
_cell_length_b   7.59902400
_cell_length_c   13.16114697
_cell_angle_alpha   55.53267995
_cell_angle_beta   90.00000000
_cell_angle_gamma   90.00000000
_symmetry_Int_Tables_number   1
_chemical_formula_structural   TePb5O8
_chemical_formula_sum   'Te4 Pb20 O32'
_cell_volume   1011.83410252
_cell_formula_units_Z   4
loop_
 _symmetry_equiv_pos_site_id
 _symmetry_equiv_pos_as_xyz
  1  'x, y, z'
loop_
 _atom_site_type_symbol
 _atom_site_label
 _atom_site_symmetry_multiplicity
 _atom_site_fract_x
 _atom_site_fract_y
 _atom_site_fract_z
 _atom_site_occupancy
  Te  Te0  1  0.61373400  0.07207100  0.78152300  1
  Te  Te1  1  0.88626600  0.07207100  0.28152300  1
  Te  Te2  1  0.38626600  0.92792900  0.21847700  1
  Te  Te3  1  0.11373400  0.92792900  0.71847700  1
  Pb  Pb0  1  0.60745600  0.78511000  0.09999100  1
  Pb  Pb1  1  0.89254400  0.78511000  0.59999100  1
  Pb  Pb2  1  0.39254400  0.21489000  0.90000900  1
  Pb  Pb3  1  0.10745600  0.21489000  0.40000900  1
  Pb  Pb4  1  0.62046900  0.17564800  0.45529900  1
  Pb  Pb5  1  0.87953100  0.17564800  0.95529900  1
  Pb  Pb6  1  0.37953100  0.82435200  0.54470100  1
  Pb  Pb7  1  0.12046900  0.82435200  0.04470100  1
  Pb  Pb8  1  0.62013500  0.27371800  0.12276700  1
  Pb  Pb9  1  0.87986500  0.27371800  0.62276700  1
  Pb  Pb10  1  0.37986500  0.72628200  0.87723300  1
  Pb  Pb11  1  0.12013500  0.72628200  0.37723300  1
  Pb  Pb12  1  0.65470300  0.71475000  0.42009800  1
  Pb  Pb13  1  0.84529700  0.71475000  0.92009800  1
  Pb  Pb14  1  0.34529700  0.28525000  0.57990200  1
  Pb  Pb15  1  0.15470300  0.28525000  0.07990200  1
  Pb  Pb16  1  0.37180900  0.41180200  0.25760000  1
  Pb  Pb17  1  0.12819100  0.41180200  0.75760000  1
  Pb  Pb18  1  0.62819100  0.58819800  0.74240000  1
  Pb  Pb19  1  0.87180900  0.58819800  0.24240000  1
  O  O0  1  0.76882900  0.06255800  0.82527700  1
  O  O1  1  0.73117100  0.06255800  0.32527700  1
  O  O2  1  0.23117100  0.93744200  0.17472300  1
  O  O3  1  0.26882900  0.93744200  0.67472300  1
  O  O4  1  0.57623200  0.15369000  0.89859700  1
  O  O5  1  0.92376800  0.15369000  0.39859700  1
  O  O6  1  0.42376800  0.84631000  0.10140300  1
  O  O7  1  0.07623200  0.84631000  0.60140300  1
  O  O8  1  0.45453200  0.06546200  0.75307800  1
  O  O9  1  0.04546800  0.06546200  0.25307800  1
  O  O10  1  0.54546800  0.93453800  0.24692200  1
  O  O11  1  0.95453200  0.93453800  0.74692200  1
  O  O12  1  0.57543300  0.82597700  0.52967800  1
  O  O13  1  0.92456700  0.82597700  0.02967800  1
  O  O14  1  0.42456700  0.17402300  0.47032200  1
  O  O15  1  0.07543300  0.17402300  0.97032200  1
  O  O16  1  0.55034100  0.41944900  0.21694800  1
  O  O17  1  0.94965900  0.41944900  0.71694800  1
  O  O18  1  0.44965900  0.58055100  0.78305200  1
  O  O19  1  0.05034100  0.58055100  0.28305200  1
  O  O20  1  0.59246100  0.77039900  0.92465900  1
  O  O21  1  0.90753900  0.77039900  0.42465900  1
  O  O22  1  0.40753900  0.22960100  0.07534100  1
  O  O23  1  0.09246100  0.22960100  0.57534100  1
  O  O24  1  0.65328400  0.97708900  0.67840300  1
  O  O25  1  0.84671600  0.97708900  0.17840300  1
  O  O26  1  0.34671600  0.02291100  0.32159700  1
  O  O27  1  0.15328400  0.02291100  0.82159700  1
  O  O28  1  0.61945100  0.37172300  0.65070500  1
  O  O29  1  0.88054900  0.37172300  0.15070500  1
  O  O30  1  0.38054900  0.62827700  0.34929500  1
  O  O31  1  0.11945100  0.62827700  0.84929500  1
loop_
_geom_bond_atom_site_label_1
_geom_bond_atom_site_label_2
_geom_bond_distance
_geom_bond_site_symmetry_2
O0 Te0 1.977879 1_555
O0 Pb13 2.385388 1_545
O0 Pb9 2.587335 1_555
O0 Pb5 2.678959 1_555
O1 Te1 1.977879 1_555
O1 Pb12 2.385388 1_545
O1 Pb8 2.587335 1_555
O1 Pb4 2.678959 1_555
O2 Te2 1.977879 1_555
O2 Pb15 2.385388 1_565
O2 Pb11 2.587335 1_555
O2 Pb7 2.678959 1_555
O3 Te3 1.977879 1_555
O3 Pb14 2.385388 1_565
O3 Pb10 2.587335 1_555
O3 Pb6 2.678959 1_555
O4 Te0 2.013033 1_555
O4 Pb2 2.303782 1_555
O4 Pb0 2.571819 1_546
O4 Pb18 2.802125 1_555
O5 Te1 2.013033 1_555
O5 Pb3 2.303782 1_655
O5 Pb1 2.571819 1_545
O5 Pb19 2.802125 1_555
O6 Te2 2.013033 1_555
O6 Pb0 2.303782 1_555
O6 Pb2 2.571819 1_564
O6 Pb16 2.802125 1_555
O7 Te3 2.013033 1_555
O7 Pb1 2.303782 1_455
O7 Pb3 2.571819 1_565
O7 Pb17 2.802125 1_555
O8 Te0 1.995151 1_555
O8 Pb10 2.320728 1_545
O8 Pb14 2.339319 1_555
O9 Te1 1.995151 1_455
O9 Pb11 2.320728 1_545
O9 Pb15 2.339319 1_555
O10 Te2 1.995151 1_555
O10 Pb8 2.320728 1_565
O10 Pb12 2.339319 1_555
O11 Te3 1.995151 1_655
O11 Pb9 2.320728 1_565
O11 Pb13 2.339319 1_555
O12 Pb12 2.262807 1_555
O12 Pb4 2.319492 1_565
O12 Pb18 2.407558 1_555
O12 Pb6 2.411567 1_555
O13 Pb13 2.262807 1_554
O13 Pb5 2.319492 1_564
O13 Pb19 2.407558 1_555
O13 Pb7 2.411567 1_655
O14 Pb14 2.262807 1_555
O14 Pb6 2.319492 1_545
O14 Pb16 2.407558 1_555
O14 Pb4 2.411567 1_555
O15 Pb15 2.262807 1_556
O15 Pb7 2.319492 1_546
O15 Pb17 2.407558 1_555
O15 Pb5 2.411567 1_455
O16 Pb8 2.247227 1_555
O16 Pb16 2.248156 1_555
O16 Pb0 2.395918 1_555
O16 Pb4 2.726788 1_555
O17 Pb9 2.247227 1_555
O17 Pb17 2.248156 1_655
O17 Pb1 2.395918 1_555
O17 Pb5 2.726788 1_555
O18 Pb10 2.247227 1_555
O18 Pb18 2.248156 1_555
O18 Pb2 2.395918 1_555
O18 Pb6 2.726788 1_555
O19 Pb11 2.247227 1_555
O19 Pb19 2.248156 1_455
O19 Pb3 2.395918 1_555
O19 Pb7 2.726788 1_555
O20 Te0 1.996025 1_565
O20 Pb0 2.379751 1_556
O20 Pb10 2.746804 1_555
O21 Te1 1.996025 1_565
O21 Pb1 2.379751 1_555
O21 Pb11 2.746804 1_655
O22 Te2 1.996025 1_545
O22 Pb2 2.379751 1_554
O22 Pb8 2.746804 1_555
O23 Te3 1.996025 1_545
O23 Pb3 2.379751 1_555
O23 Pb9 2.746804 1_455
O24 Te0 1.925404 1_565
O24 Pb4 2.458856 1_565
O24 Pb18 2.592312 1_555
O25 Te1 1.925404 1_565
O25 Pb5 2.458856 1_564
O25 Pb19 2.592312 1_555
O26 Te2 1.925404 1_545
O26 Pb6 2.458856 1_545
O26 Pb16 2.592312 1_555
O27 Te3 1.925404 1_545
O27 Pb7 2.458856 1_546
O27 Pb17 2.592312 1_555
O28 Te0 1.927897 1_555
O28 Pb18 2.533952 1_555
O28 Pb12 2.690490 1_555
O29 Te1 1.927897 1_555
O29 Pb19 2.533952 1_555
O29 Pb13 2.690490 1_554
O30 Te2 1.927897 1_555
O30 Pb16 2.533952 1_555
O30 Pb14 2.690490 1_555
O31 Te3 1.927897 1_555
O31 Pb17 2.533952 1_555
O31 Pb15 2.690490 1_556
