# generated using pymatgen
data_Mn3Ge
_symmetry_space_group_name_H-M   'P 1'
_cell_length_a   16.41600256
_cell_length_b   16.41600256
_cell_length_c   16.41600261
_cell_angle_alpha   18.85723148
_cell_angle_beta   18.85723148
_cell_angle_gamma   18.85723305
_symmetry_Int_Tables_number   1
_chemical_formula_structural   Mn3Ge
_chemical_formula_sum   'Mn24 Ge8'
_cell_volume   403.83810540
_cell_formula_units_Z   8
loop_
 _symmetry_equiv_pos_site_id
 _symmetry_equiv_pos_as_xyz
  1  'x, y, z'
loop_
 _atom_site_type_symbol
 _atom_site_label
 _atom_site_symmetry_multiplicity
 _atom_site_fract_x
 _atom_site_fract_y
 _atom_site_fract_z
 _atom_site_occupancy
  Mn  Mn0_0  1  0.12364300  0.12364300  0.12364300  1
  Mn  Mn0_1  1  0.12364300  0.12364300  0.62364300  1
  Mn  Mn0_2  1  0.12364300  0.62364300  0.12364300  1
  Mn  Mn0_3  1  0.12364300  0.62364300  0.62364300  1
  Mn  Mn0_4  1  0.62364300  0.12364300  0.12364300  1
  Mn  Mn0_5  1  0.62364300  0.12364300  0.62364300  1
  Mn  Mn0_6  1  0.62364300  0.62364300  0.12364300  1
  Mn  Mn0_7  1  0.62364300  0.62364300  0.62364300  1
  Mn  Mn1_0  1  0.25000000  0.25000000  0.25000000  1
  Mn  Mn1_1  1  0.25000000  0.25000000  0.75000000  1
  Mn  Mn1_2  1  0.25000000  0.75000000  0.25000000  1
  Mn  Mn1_3  1  0.25000000  0.75000000  0.75000000  1
  Mn  Mn1_4  1  0.75000000  0.25000000  0.25000000  1
  Mn  Mn1_5  1  0.75000000  0.25000000  0.75000000  1
  Mn  Mn1_6  1  0.75000000  0.75000000  0.25000000  1
  Mn  Mn1_7  1  0.75000000  0.75000000  0.75000000  1
  Mn  Mn2_0  1  0.37635700  0.37635700  0.37635700  1
  Mn  Mn2_1  1  0.37635700  0.37635700  0.87635700  1
  Mn  Mn2_2  1  0.37635700  0.87635700  0.37635700  1
  Mn  Mn2_3  1  0.37635700  0.87635700  0.87635700  1
  Mn  Mn2_4  1  0.87635700  0.37635700  0.37635700  1
  Mn  Mn2_5  1  0.87635700  0.37635700  0.87635700  1
  Mn  Mn2_6  1  0.87635700  0.87635700  0.37635700  1
  Mn  Mn2_7  1  0.87635700  0.87635700  0.87635700  1
  Ge  Ge0_0  1  0.00000000  0.00000000  0.00000000  1
  Ge  Ge0_1  1  0.00000000  0.00000000  0.50000000  1
  Ge  Ge0_2  1  0.00000000  0.50000000  0.00000000  1
  Ge  Ge0_3  1  0.00000000  0.50000000  0.50000000  1
  Ge  Ge0_4  1  0.50000000  0.00000000  0.00000000  1
  Ge  Ge0_5  1  0.50000000  0.00000000  0.50000000  1
  Ge  Ge0_6  1  0.50000000  0.50000000  0.00000000  1
  Ge  Ge0_7  1  0.50000000  0.50000000  0.50000000  1
loop_
_geom_bond_atom_site_label_1
_geom_bond_atom_site_label_2
_geom_bond_distance
_geom_bond_site_symmetry_2
Mn0_0 Mn1_1 2.492102 1_554
Mn0_0 Mn1_2 2.492102 1_545
Mn0_0 Mn1_4 2.492102 1_455
Mn0_0 Mn0_5 2.689248 1_455
Mn0_0 Mn0_3 2.689248 1_545
Mn0_0 Mn0_5 2.689248 1_554
Mn0_0 Mn0_3 2.689248 1_554
Mn0_0 Mn0_6 2.689248 1_455
Mn0_0 Mn0_6 2.689248 1_545
Mn0_1 Mn1_0 2.492102 1_555
Mn0_1 Mn1_5 2.492102 1_455
Mn0_1 Mn1_3 2.492102 1_545
Mn0_1 Mn0_4 2.689248 1_555
Mn0_1 Mn0_2 2.689248 1_555
Mn0_1 Mn0_2 2.689248 1_546
Mn0_1 Mn0_4 2.689248 1_456
Mn0_1 Mn0_7 2.689248 1_455
Mn0_1 Mn0_7 2.689248 1_545
Mn0_2 Mn1_3 2.492102 1_554
Mn0_2 Mn1_0 2.492102 1_555
Mn0_2 Mn1_6 2.492102 1_455
Mn0_2 Mn0_7 2.689248 1_554
Mn0_2 Mn0_7 2.689248 1_455
Mn0_2 Mn0_4 2.689248 1_555
Mn0_2 Mn0_4 2.689248 1_465
Mn0_3 Mn1_2 2.492102 1_555
Mn0_3 Mn1_1 2.492102 1_555
Mn0_3 Mn1_7 2.492102 1_455
Mn0_3 Mn0_6 2.689248 1_456
Mn0_3 Mn0_6 2.689248 1_555
Mn0_3 Mn0_5 2.689248 1_465
Mn0_3 Mn0_5 2.689248 1_555
Mn0_4 Mn1_5 2.492102 1_554
Mn0_4 Mn1_0 2.492102 1_555
Mn0_4 Mn1_6 2.492102 1_545
Mn0_4 Mn0_7 2.689248 1_554
Mn0_4 Mn0_7 2.689248 1_545
Mn0_5 Mn1_4 2.492102 1_555
Mn0_5 Mn1_1 2.492102 1_555
Mn0_5 Mn1_7 2.492102 1_545
Mn0_5 Mn0_6 2.689248 1_555
Mn0_5 Mn0_6 2.689248 1_546
Mn0_6 Mn1_7 2.492102 1_554
Mn0_6 Mn1_4 2.492102 1_555
Mn0_6 Mn1_2 2.492102 1_555
Mn0_7 Mn1_6 2.492102 1_555
Mn0_7 Mn1_5 2.492102 1_555
Mn0_7 Mn1_3 2.492102 1_555
Mn1_0 Mn2_1 2.492102 1_554
Mn1_0 Mn2_2 2.492102 1_545
Mn1_0 Mn2_4 2.492102 1_455
Mn1_0 Mn1_3 2.689248 1_554
Mn1_0 Mn1_5 2.689248 1_455
Mn1_0 Mn1_5 2.689248 1_554
Mn1_0 Mn1_3 2.689248 1_545
Mn1_0 Mn1_6 2.689248 1_455
Mn1_0 Mn1_6 2.689248 1_545
Mn1_1 Mn2_0 2.492102 1_555
Mn1_1 Mn2_3 2.492102 1_545
Mn1_1 Mn2_5 2.492102 1_455
Mn1_1 Mn1_2 2.689248 1_555
Mn1_1 Mn1_4 2.689248 1_555
Mn1_1 Mn1_4 2.689248 1_456
Mn1_1 Mn1_2 2.689248 1_546
Mn1_1 Mn1_7 2.689248 1_545
Mn1_1 Mn1_7 2.689248 1_455
Mn1_2 Mn2_3 2.492102 1_554
Mn1_2 Mn2_0 2.492102 1_555
Mn1_2 Mn2_6 2.492102 1_455
Mn1_2 Mn1_7 2.689248 1_554
Mn1_2 Mn1_7 2.689248 1_455
Mn1_2 Mn1_4 2.689248 1_555
Mn1_2 Mn1_4 2.689248 1_465
Mn1_3 Mn2_2 2.492102 1_555
Mn1_3 Mn2_1 2.492102 1_555
Mn1_3 Mn2_7 2.492102 1_455
Mn1_3 Mn1_6 2.689248 1_555
Mn1_3 Mn1_6 2.689248 1_456
Mn1_3 Mn1_5 2.689248 1_555
Mn1_3 Mn1_5 2.689248 1_465
Mn1_4 Mn2_5 2.492102 1_554
Mn1_4 Mn2_0 2.492102 1_555
Mn1_4 Mn2_6 2.492102 1_545
Mn1_4 Mn1_7 2.689248 1_545
Mn1_4 Mn1_7 2.689248 1_554
Mn1_5 Mn2_4 2.492102 1_555
Mn1_5 Mn2_1 2.492102 1_555
Mn1_5 Mn2_7 2.492102 1_545
Mn1_5 Mn1_6 2.689248 1_555
Mn1_5 Mn1_6 2.689248 1_546
Mn1_6 Mn2_7 2.492102 1_554
Mn1_6 Mn2_2 2.492102 1_555
Mn1_6 Mn2_4 2.492102 1_555
Mn1_7 Mn2_6 2.492102 1_555
Mn1_7 Mn2_3 2.492102 1_555
Mn1_7 Mn2_5 2.492102 1_555
Mn2_0 Mn2_5 2.689248 1_554
Mn2_0 Mn2_3 2.689248 1_554
Mn2_0 Mn2_3 2.689248 1_545
Mn2_0 Mn2_5 2.689248 1_455
Mn2_0 Mn2_6 2.689248 1_455
Mn2_0 Mn2_6 2.689248 1_545
Mn2_1 Mn2_4 2.689248 1_456
Mn2_1 Mn2_2 2.689248 1_546
Mn2_1 Mn2_4 2.689248 1_555
Mn2_1 Mn2_2 2.689248 1_555
Mn2_1 Mn2_7 2.689248 1_545
Mn2_1 Mn2_7 2.689248 1_455
Mn2_2 Mn2_7 2.689248 1_554
Mn2_2 Mn2_7 2.689248 1_455
Mn2_2 Mn2_4 2.689248 1_555
Mn2_2 Mn2_4 2.689248 1_465
Mn2_3 Mn2_6 2.689248 1_456
Mn2_3 Mn2_6 2.689248 1_555
Mn2_3 Mn2_5 2.689248 1_555
Mn2_3 Mn2_5 2.689248 1_465
Mn2_4 Mn2_7 2.689248 1_554
Mn2_4 Mn2_7 2.689248 1_545
Mn2_5 Mn2_6 2.689248 1_555
Mn2_5 Mn2_6 2.689248 1_546
Ge0_0 Mn2_6 2.596051 1_445
Ge0_0 Mn0_1 2.596051 1_554
Ge0_0 Mn2_3 2.596051 1_544
Ge0_0 Mn2_5 2.596051 1_454
Ge0_0 Mn0_4 2.596051 1_455
Ge0_0 Mn0_2 2.596051 1_545
Ge0_1 Mn2_7 2.596051 1_445
Ge0_1 Mn0_0 2.596051 1_555
Ge0_1 Mn2_4 2.596051 1_455
Ge0_1 Mn2_2 2.596051 1_545
Ge0_1 Mn0_5 2.596051 1_455
Ge0_1 Mn0_3 2.596051 1_545
Ge0_2 Mn2_4 2.596051 1_455
Ge0_2 Mn0_3 2.596051 1_554
Ge0_2 Mn2_7 2.596051 1_454
Ge0_2 Mn2_1 2.596051 1_554
Ge0_2 Mn0_0 2.596051 1_555
Ge0_2 Mn0_6 2.596051 1_455
Ge0_3 Mn2_5 2.596051 1_455
Ge0_3 Mn0_2 2.596051 1_555
Ge0_3 Mn2_6 2.596051 1_455
Ge0_3 Mn2_0 2.596051 1_555
Ge0_3 Mn0_1 2.596051 1_555
Ge0_3 Mn0_7 2.596051 1_455
Ge0_4 Mn2_2 2.596051 1_545
Ge0_4 Mn0_5 2.596051 1_554
Ge0_4 Mn2_7 2.596051 1_544
Ge0_4 Mn2_1 2.596051 1_554
Ge0_4 Mn0_6 2.596051 1_545
Ge0_4 Mn0_0 2.596051 1_555
Ge0_5 Mn2_3 2.596051 1_545
Ge0_5 Mn0_4 2.596051 1_555
Ge0_5 Mn2_6 2.596051 1_545
Ge0_5 Mn2_0 2.596051 1_555
Ge0_5 Mn0_1 2.596051 1_555
Ge0_5 Mn0_7 2.596051 1_545
Ge0_6 Mn2_0 2.596051 1_555
Ge0_6 Mn0_7 2.596051 1_554
Ge0_6 Mn2_5 2.596051 1_554
Ge0_6 Mn2_3 2.596051 1_554
Ge0_6 Mn0_4 2.596051 1_555
Ge0_6 Mn0_2 2.596051 1_555
Ge0_7 Mn0_6 2.596051 1_555
Ge0_7 Mn2_1 2.596051 1_555
Ge0_7 Mn0_5 2.596051 1_555
Ge0_7 Mn2_4 2.596051 1_555
Ge0_7 Mn0_3 2.596051 1_555
Ge0_7 Mn2_2 2.596051 1_555
