# generated using pymatgen
data_DyAsS
_symmetry_space_group_name_H-M   'P 1'
_cell_length_a   3.83366800
_cell_length_b   3.85172600
_cell_length_c   17.03214100
_cell_angle_alpha   90.00000000
_cell_angle_beta   90.00000000
_cell_angle_gamma   90.00000000
_symmetry_Int_Tables_number   1
_chemical_formula_structural   DyAsS
_chemical_formula_sum   'Dy4 As4 S4'
_cell_volume   251.50065976
_cell_formula_units_Z   4
loop_
 _symmetry_equiv_pos_site_id
 _symmetry_equiv_pos_as_xyz
  1  'x, y, z'
loop_
 _atom_site_type_symbol
 _atom_site_label
 _atom_site_symmetry_multiplicity
 _atom_site_fract_x
 _atom_site_fract_y
 _atom_site_fract_z
 _atom_site_occupancy
  Dy  Dy0  1  0.25000000  0.77120900  0.14567300  1
  Dy  Dy1  1  0.25000000  0.72879100  0.64567300  1
  Dy  Dy2  1  0.75000000  0.22879100  0.85432700  1
  Dy  Dy3  1  0.75000000  0.27120900  0.35432700  1
  As  As0  1  0.75000000  0.78079000  0.49827500  1
  As  As1  1  0.75000000  0.71921000  0.99827500  1
  As  As2  1  0.25000000  0.21921000  0.50172500  1
  As  As3  1  0.25000000  0.28079000  0.00172500  1
  S  S0  1  0.25000000  0.76969400  0.31314100  1
  S  S1  1  0.25000000  0.73030600  0.81314100  1
  S  S2  1  0.75000000  0.23030600  0.68685900  1
  S  S3  1  0.75000000  0.26969400  0.18685900  1
loop_
_geom_bond_atom_site_label_1
_geom_bond_atom_site_label_2
_geom_bond_distance
_geom_bond_site_symmetry_2
Dy0 S3 2.802292 1_565
Dy0 S3 2.802292 1_465
Dy0 S3 2.810301 1_455
Dy0 S3 2.810301 1_555
Dy0 S0 2.852345 1_555
Dy1 S2 2.802292 1_555
Dy1 S2 2.802292 1_455
Dy1 S2 2.810301 1_565
Dy1 S2 2.810301 1_465
Dy1 S1 2.852345 1_555
Dy2 S1 2.802292 1_645
Dy2 S1 2.802292 1_545
Dy2 S1 2.810301 1_655
Dy2 S1 2.810301 1_555
Dy2 S2 2.852345 1_555
Dy3 S0 2.802292 1_655
Dy3 S0 2.802292 1_555
Dy3 S0 2.810301 1_645
Dy3 S0 2.810301 1_545
Dy3 S3 2.852345 1_555
As0 As2 2.555254 1_565
As0 As2 2.555254 1_665
As0 As2 2.890761 1_655
As0 As2 2.890761 1_555
As0 Dy3 3.095030 1_565
As0 Dy3 3.140620 1_555
As0 Dy1 3.164964 1_655
As0 Dy1 3.164964 1_555
As1 As3 2.555254 1_556
As1 As3 2.555254 1_656
As1 As3 2.890761 1_566
As1 As3 2.890761 1_666
As1 Dy2 3.095030 1_555
As1 Dy2 3.140620 1_565
As1 Dy0 3.164964 1_656
As1 Dy0 3.164964 1_556
As2 Dy1 3.095030 1_545
As2 Dy1 3.140620 1_555
As2 Dy3 3.164964 1_455
As2 Dy3 3.164964 1_555
As3 Dy0 3.095030 1_555
As3 Dy0 3.140620 1_545
As3 Dy2 3.164964 1_554
As3 Dy2 3.164964 1_454
