# generated using pymatgen
data_AcZn2In
_symmetry_space_group_name_H-M   'P 1'
_cell_length_a   5.18096573
_cell_length_b   5.18096573
_cell_length_c   5.18096573
_cell_angle_alpha   60.00000000
_cell_angle_beta   60.00000000
_cell_angle_gamma   60.00000000
_symmetry_Int_Tables_number   1
_chemical_formula_structural   AcZn2In
_chemical_formula_sum   'Ac1 Zn2 In1'
_cell_volume   98.33704659
_cell_formula_units_Z   1
loop_
 _symmetry_equiv_pos_site_id
 _symmetry_equiv_pos_as_xyz
  1  'x, y, z'
loop_
 _atom_site_type_symbol
 _atom_site_label
 _atom_site_symmetry_multiplicity
 _atom_site_fract_x
 _atom_site_fract_y
 _atom_site_fract_z
 _atom_site_occupancy
  Ac  Ac0  1  0.00000000  0.00000000  0.00000000  1
  Zn  Zn0  1  0.75000000  0.75000000  0.75000000  1
  Zn  Zn1  1  0.25000000  0.25000000  0.25000000  1
  In  In0  1  0.50000000  0.50000000  0.50000000  1
loop_
_geom_bond_atom_site_label_1
_geom_bond_atom_site_label_2
_geom_bond_distance
_geom_bond_site_symmetry_2
Ac0 Zn0 3.172681 1_454
Ac0 Zn0 3.172681 1_544
Ac0 Zn1 3.172681 1_455
Ac0 Zn1 3.172681 1_545
Ac0 Zn1 3.172681 1_554
Ac0 Zn0 3.172681 1_445
Ac0 Zn0 3.172681 1_444
Ac0 Zn1 3.172681 1_555
Ac0 In0 3.663496 1_545
Ac0 In0 3.663496 1_554
Ac0 In0 3.663496 1_445
Ac0 In0 3.663496 1_544
Ac0 In0 3.663496 1_455
Ac0 In0 3.663496 1_454
In0 Zn1 3.172681 1_565
In0 Zn0 3.172681 1_545
In0 Zn1 3.172681 1_655
In0 Zn0 3.172681 1_455
In0 Zn1 3.172681 1_556
In0 Zn0 3.172681 1_554
In0 Zn0 3.172681 1_555
In0 Zn1 3.172681 1_555
