# generated using pymatgen
data_Li9Mn2Co5O16
_symmetry_space_group_name_H-M   'P 1'
_cell_length_a   3.03599400
_cell_length_b   9.84072530
_cell_length_c   10.12218542
_cell_angle_alpha   76.56803328
_cell_angle_beta   88.28113802
_cell_angle_gamma   86.49882115
_symmetry_Int_Tables_number   1
_chemical_formula_structural   Li9Mn2Co5O16
_chemical_formula_sum   'Li9 Mn2 Co5 O16'
_cell_volume   293.55424247
_cell_formula_units_Z   1
loop_
 _symmetry_equiv_pos_site_id
 _symmetry_equiv_pos_as_xyz
  1  'x, y, z'
loop_
 _atom_site_type_symbol
 _atom_site_label
 _atom_site_symmetry_multiplicity
 _atom_site_fract_x
 _atom_site_fract_y
 _atom_site_fract_z
 _atom_site_occupancy
  Li  Li0  1  0.99956200  0.74759700  0.87132800  1
  Li  Li1  1  0.50330100  0.49904200  0.50320700  1
  Li  Li2  1  0.00079700  0.24957000  0.12754300  1
  Li  Li3  1  0.49584000  0.00111400  0.74460500  1
  Li  Li4  1  0.50378400  0.50129300  0.99883900  1
  Li  Li5  1  0.00008400  0.25011500  0.62334400  1
  Li  Li6  1  0.49612500  0.99989100  0.25293500  1
  Li  Li7  1  0.00002800  0.75210300  0.37832700  1
  Li  Li8  1  0.49990300  0.75108100  0.62476300  1
  Mn  Mn0  1  0.99757200  0.99707100  0.00018200  1
  Mn  Mn1  1  0.50246000  0.25371300  0.87325700  1
  Co  Co0  1  0.00684000  0.50085600  0.25107400  1
  Co  Co1  1  0.99945000  0.98990200  0.50278700  1
  Co  Co2  1  0.49586600  0.74767500  0.12720500  1
  Co  Co3  1  0.00554900  0.51264000  0.74494500  1
  Co  Co4  1  0.50036400  0.24811400  0.37599700  1
  O  O0  1  0.47266600  0.87028200  0.94918100  1
  O  O1  1  0.99469800  0.61166700  0.57875400  1
  O  O2  1  0.50478400  0.37121400  0.19824000  1
  O  O3  1  0.97118800  0.12525100  0.82164500  1
  O  O4  1  0.95344400  0.62470800  0.07571400  1
  O  O5  1  0.47416500  0.37878200  0.69689400  1
  O  O6  1  0.00961100  0.12009300  0.32984600  1
  O  O7  1  0.48027200  0.88575900  0.44338700  1
  O  O8  1  0.52535500  0.61580300  0.80594800  1
  O  O9  1  0.99145600  0.37489300  0.42685400  1
  O  O10  1  0.53336800  0.12643600  0.05367600  1
  O  O11  1  0.00338200  0.89073100  0.66970900  1
  O  O12  1  0.02632300  0.38213900  0.92001500  1
  O  O13  1  0.52929100  0.12466100  0.55031400  1
  O  O14  1  0.03841300  0.87034700  0.17764700  1
  O  O15  1  0.48406000  0.62545800  0.30184300  1
loop_
_geom_bond_atom_site_label_1
_geom_bond_atom_site_label_2
_geom_bond_distance
_geom_bond_site_symmetry_2
Li0 O4 2.145484 1_556
Li0 O8 2.179619 1_655
Li0 O0 2.183575 1_555
Li0 O11 2.194126 1_655
Li0 O0 2.205310 1_655
Li0 O8 2.208328 1_555
Li1 O5 2.043657 1_555
Li1 O1 2.076367 1_455
Li1 O9 2.105976 1_555
Li1 O15 2.127372 1_555
Li1 O1 2.168631 1_555
Li1 O9 2.290694 1_455
Li2 O2 2.079886 1_455
Li2 O6 2.145789 1_555
Li2 O10 2.176190 1_455
Li2 O10 2.179618 1_555
Li2 O12 2.202277 1_554
Li2 O2 2.230167 1_555
Li3 O11 2.058420 1_645
Li3 O13 2.061175 1_555
Li3 O11 2.153817 1_545
Li3 O0 2.171247 1_545
Li3 O3 2.183563 1_455
Li3 O3 2.215515 1_555
Li4 O8 2.016299 1_555
Li4 O2 2.124146 1_556
Li4 O4 2.156260 1_556
Li4 O12 2.158646 1_655
Li4 O12 2.196445 1_555
Li4 O4 2.232797 1_456
Li5 O9 2.080576 1_455
Li5 O3 2.098404 1_455
Li5 O13 2.182302 1_555
Li5 O13 2.194640 1_455
Li5 O5 2.196947 1_455
Li5 O5 2.225730 1_555
Li6 O7 1.993809 1_555
Li6 O6 2.081441 1_565
Li6 O10 2.113815 1_565
Li6 O14 2.206389 1_555
Li6 O14 2.244148 1_655
Li6 O6 2.271875 1_665
Li7 O14 2.097158 1_555
Li7 O15 2.113852 1_555
Li7 O1 2.173529 1_455
Li7 O7 2.177202 1_455
Li7 O7 2.232415 1_555
Li7 O15 2.316435 1_455
Li8 O7 1.999289 1_555
Li8 O8 2.000836 1_555
Li8 O1 2.087781 1_555
Li8 O11 2.089073 1_555
Li8 O11 2.240716 1_655
Li8 O1 2.246849 1_455
Mn0 O14 1.936774 1_655
Mn0 O3 1.949546 1_564
Mn0 O0 1.984561 1_654
Mn0 O10 1.988809 1_565
Mn0 O0 2.225825 1_554
Mn0 O10 2.277262 1_665
Mn1 O5 1.919524 1_555
Mn1 O10 1.961110 1_556
Mn1 O12 1.981044 1_555
Mn1 O3 1.984595 1_555
Mn1 O12 2.217943 1_655
Mn1 O3 2.253667 1_455
Co0 O4 1.910632 1_455
Co0 O9 1.918847 1_455
Co0 O2 2.057161 1_555
Co0 O15 2.071901 1_455
Co0 O15 2.102643 1_555
Co0 O2 2.200065 1_455
Co1 O11 1.743870 1_655
Co1 O7 1.895691 1_655
Co1 O6 1.914785 1_665
Co1 O13 2.012837 1_565
Co1 O7 2.106351 1_555
Co1 O13 2.276176 1_665
Co2 O15 1.893767 1_555
Co2 O14 1.919858 1_555
Co2 O0 1.922246 1_554
Co2 O4 1.926161 1_555
Co2 O14 2.238486 1_655
Co2 O4 2.244051 1_455
Co3 O1 1.737351 1_455
Co3 O8 1.895718 1_455
Co3 O12 1.932111 1_555
Co3 O5 2.005767 1_555
Co3 O8 2.108974 1_555
Co3 O5 2.275674 1_455
Co4 O13 1.896670 1_555
Co4 O2 1.921721 1_555
Co4 O6 2.046436 1_655
Co4 O9 2.055209 1_455
Co4 O6 2.137679 1_555
Co4 O9 2.148499 1_555
