# generated using pymatgen
data_Li2Nd(NO3)5
_symmetry_space_group_name_H-M   'P 1'
_cell_length_a   9.04326100
_cell_length_b   10.62223100
_cell_length_c   11.84150400
_cell_angle_alpha   90.00000000
_cell_angle_beta   90.00000000
_cell_angle_gamma   90.00000000
_symmetry_Int_Tables_number   1
_chemical_formula_structural   Li2Nd(NO3)5
_chemical_formula_sum   'Li8 Nd4 N20 O60'
_cell_volume   1137.49022450
_cell_formula_units_Z   4
loop_
 _symmetry_equiv_pos_site_id
 _symmetry_equiv_pos_as_xyz
  1  'x, y, z'
loop_
 _atom_site_type_symbol
 _atom_site_label
 _atom_site_symmetry_multiplicity
 _atom_site_fract_x
 _atom_site_fract_y
 _atom_site_fract_z
 _atom_site_occupancy
  Li  Li0  1  0.11688300  0.22810900  0.32104400  1
  Li  Li1  1  0.88311700  0.77189100  0.67895600  1
  Li  Li2  1  0.88311700  0.77189100  0.32104400  1
  Li  Li3  1  0.38311700  0.72810900  0.17895600  1
  Li  Li4  1  0.11688300  0.22810900  0.67895600  1
  Li  Li5  1  0.61688300  0.27189100  0.82104400  1
  Li  Li6  1  0.61688300  0.27189100  0.17895600  1
  Li  Li7  1  0.38311700  0.72810900  0.82104400  1
  Nd  Nd0  1  0.00000000  0.00000000  0.00000000  1
  Nd  Nd1  1  0.50000000  0.50000000  0.50000000  1
  Nd  Nd2  1  0.00000000  0.50000000  0.00000000  1
  Nd  Nd3  1  0.50000000  0.00000000  0.50000000  1
  N  N0  1  0.00000000  0.00000000  0.26008000  1
  N  N1  1  0.00000000  0.00000000  0.73992000  1
  N  N2  1  0.50000000  0.50000000  0.23992000  1
  N  N3  1  0.50000000  0.50000000  0.76008000  1
  N  N4  1  0.17475600  0.24910100  0.00000000  1
  N  N5  1  0.82524400  0.75089900  0.00000000  1
  N  N6  1  0.32524400  0.74910100  0.50000000  1
  N  N7  1  0.67475600  0.25089900  0.50000000  1
  N  N8  1  0.39997400  0.15494500  0.29135700  1
  N  N9  1  0.60002600  0.84505500  0.70864300  1
  N  N10  1  0.60002600  0.84505500  0.29135700  1
  N  N11  1  0.10002600  0.65494500  0.20864300  1
  N  N12  1  0.39997400  0.15494500  0.70864300  1
  N  N13  1  0.89997400  0.34505500  0.79135700  1
  N  N14  1  0.89997400  0.34505500  0.20864300  1
  N  N15  1  0.10002600  0.65494500  0.79135700  1
  N  N16  1  0.70636500  0.14683300  0.00000000  1
  N  N17  1  0.29363500  0.85316700  0.00000000  1
  N  N18  1  0.79363500  0.64683300  0.50000000  1
  N  N19  1  0.20636500  0.35316700  0.50000000  1
  O  O0  1  0.31195600  0.11244400  0.36810400  1
  O  O1  1  0.68804400  0.88755600  0.63189600  1
  O  O2  1  0.68804400  0.88755600  0.36810400  1
  O  O3  1  0.18804400  0.61244400  0.13189600  1
  O  O4  1  0.31195600  0.11244400  0.63189600  1
  O  O5  1  0.81195600  0.38755600  0.86810400  1
  O  O6  1  0.81195600  0.38755600  0.13189600  1
  O  O7  1  0.18804400  0.61244400  0.86810400  1
  O  O8  1  0.03049900  0.24720300  0.00000000  1
  O  O9  1  0.96950100  0.75279700  0.00000000  1
  O  O10  1  0.46950100  0.74720300  0.50000000  1
  O  O11  1  0.53049900  0.25279700  0.50000000  1
  O  O12  1  0.03648700  0.37435400  0.20136900  1
  O  O13  1  0.96351300  0.62564600  0.79863100  1
  O  O14  1  0.96351300  0.62564600  0.20136900  1
  O  O15  1  0.46351300  0.87435400  0.29863100  1
  O  O16  1  0.03648700  0.37435400  0.79863100  1
  O  O17  1  0.53648700  0.12564600  0.70136900  1
  O  O18  1  0.53648700  0.12564600  0.29863100  1
  O  O19  1  0.46351300  0.87435400  0.70136900  1
  O  O20  1  0.24057200  0.14593900  0.00000000  1
  O  O21  1  0.75942800  0.85406100  0.00000000  1
  O  O22  1  0.25942800  0.64593900  0.50000000  1
  O  O23  1  0.74057200  0.35406100  0.50000000  1
  O  O24  1  0.59701900  0.21996800  0.00000000  1
  O  O25  1  0.40298100  0.78003200  0.00000000  1
  O  O26  1  0.90298100  0.71996800  0.50000000  1
  O  O27  1  0.09701900  0.28003200  0.50000000  1
  O  O28  1  0.00000000  0.00000000  0.36363500  1
  O  O29  1  0.00000000  0.00000000  0.63636500  1
  O  O30  1  0.50000000  0.50000000  0.13636500  1
  O  O31  1  0.50000000  0.50000000  0.86363500  1
  O  O32  1  0.23754000  0.35417000  0.00000000  1
  O  O33  1  0.76246000  0.64583000  0.00000000  1
  O  O34  1  0.26246000  0.85417000  0.50000000  1
  O  O35  1  0.73754000  0.14583000  0.50000000  1
  O  O36  1  0.26426700  0.38940100  0.40763700  1
  O  O37  1  0.73573300  0.61059900  0.59236300  1
  O  O38  1  0.73573300  0.61059900  0.40763700  1
  O  O39  1  0.23573300  0.88940100  0.09236300  1
  O  O40  1  0.26426700  0.38940100  0.59236300  1
  O  O41  1  0.76426700  0.11059900  0.90763700  1
  O  O42  1  0.76426700  0.11059900  0.09236300  1
  O  O43  1  0.23573300  0.88940100  0.90763700  1
  O  O44  1  0.05769500  0.09005400  0.20195700  1
  O  O45  1  0.94230500  0.90994600  0.79804300  1
  O  O46  1  0.94230500  0.90994600  0.20195700  1
  O  O47  1  0.44230500  0.59005400  0.29804300  1
  O  O48  1  0.05769500  0.09005400  0.79804300  1
  O  O49  1  0.55769500  0.40994600  0.70195700  1
  O  O50  1  0.55769500  0.40994600  0.29804300  1
  O  O51  1  0.44230500  0.59005400  0.70195700  1
  O  O52  1  0.35352600  0.22424200  0.21514400  1
  O  O53  1  0.64647400  0.77575800  0.78485600  1
  O  O54  1  0.64647400  0.77575800  0.21514400  1
  O  O55  1  0.14647400  0.72424200  0.28485600  1
  O  O56  1  0.35352600  0.22424200  0.78485600  1
  O  O57  1  0.85352600  0.27575800  0.71514400  1
  O  O58  1  0.85352600  0.27575800  0.28485600  1
  O  O59  1  0.14647400  0.72424200  0.71514400  1
loop_
_geom_bond_atom_site_label_1
_geom_bond_atom_site_label_2
_geom_bond_distance
_geom_bond_site_symmetry_2
Li0 O44 2.103700 1_555
Li0 O27 2.197062 1_555
Li0 O0 2.220829 1_555
Li0 O12 2.224872 1_555
Li0 O36 2.400667 1_555
Li0 O58 2.472216 1_455
Li0 O52 2.480715 1_555
Li1 O45 2.103700 1_555
Li1 O26 2.197062 1_555
Li1 O1 2.220829 1_555
Li1 O13 2.224872 1_555
Li1 O37 2.400667 1_555
Li1 O59 2.472216 1_655
Li1 O53 2.480715 1_555
Li2 O46 2.103700 1_555
Li2 O26 2.197062 1_555
Li2 O2 2.220829 1_555
Li2 O14 2.224872 1_555
Li2 O38 2.400667 1_555
Li2 O55 2.472216 1_655
Li2 O54 2.480715 1_555
Li3 O47 2.103700 1_555
Li3 O25 2.197062 1_555
Li3 O3 2.220829 1_555
Li3 O15 2.224872 1_555
Li3 O39 2.400667 1_555
Li3 O54 2.472216 1_555
Li3 O55 2.480715 1_555
Li4 O48 2.103700 1_555
Li4 O27 2.197062 1_555
Li4 O4 2.220829 1_555
Li4 O16 2.224872 1_555
Li4 O40 2.400667 1_555
Li4 O57 2.472216 1_455
Li4 O56 2.480715 1_555
Li5 O49 2.103700 1_555
Li5 O24 2.197062 1_556
Li5 O5 2.220829 1_555
Li5 O17 2.224872 1_555
Li5 O41 2.400667 1_555
Li5 O56 2.472216 1_555
Li5 O57 2.480715 1_555
Li6 O50 2.103700 1_555
Li6 O24 2.197062 1_555
Li6 O6 2.220829 1_555
Li6 O18 2.224872 1_555
Li6 O42 2.400667 1_555
Li6 O52 2.472216 1_555
Li6 O58 2.480715 1_555
Li7 O51 2.103700 1_555
Li7 O25 2.197062 1_556
Li7 O7 2.220829 1_555
Li7 O19 2.224872 1_555
Li7 O43 2.400667 1_555
Li7 O53 2.472216 1_555
Li7 O59 2.480715 1_555
Nd0 O46 2.628005 1_445
Nd0 O44 2.628005 1_555
Nd0 O48 2.628005 1_554
Nd0 O45 2.628005 1_444
Nd0 O9 2.640293 1_445
Nd0 O8 2.640293 1_555
Nd0 O41 2.668509 1_454
Nd0 O39 2.668509 1_545
Nd0 O43 2.668509 1_544
Nd0 O42 2.668509 1_455
Nd0 O20 2.671358 1_555
Nd0 O21 2.671358 1_445
Nd1 O47 2.628005 1_555
Nd1 O50 2.628005 1_555
Nd1 O51 2.628005 1_555
Nd1 O49 2.628005 1_555
Nd1 O10 2.640293 1_555
Nd1 O11 2.640293 1_555
Nd1 O38 2.668509 1_555
Nd1 O37 2.668509 1_555
Nd1 O40 2.668509 1_555
Nd1 O36 2.668509 1_555
Nd1 O23 2.671358 1_555
Nd1 O22 2.671358 1_555
Nd2 O6 2.599573 1_455
Nd2 O5 2.599573 1_454
Nd2 O3 2.599573 1_555
Nd2 O7 2.599573 1_554
Nd2 O33 2.648398 1_455
Nd2 O32 2.648398 1_555
Nd2 O8 2.699396 1_555
Nd2 O9 2.699396 1_455
Nd2 O12 2.752460 1_555
Nd2 O16 2.752460 1_554
Nd2 O13 2.752460 1_454
Nd2 O14 2.752460 1_455
Nd3 O1 2.599573 1_545
Nd3 O0 2.599573 1_555
Nd3 O4 2.599573 1_555
Nd3 O2 2.599573 1_545
Nd3 O34 2.648398 1_545
Nd3 O35 2.648398 1_555
Nd3 O11 2.699396 1_555
Nd3 O10 2.699396 1_545
Nd3 O15 2.752460 1_545
Nd3 O17 2.752460 1_555
Nd3 O19 2.752460 1_545
Nd3 O18 2.752460 1_555
N0 O28 1.226247 1_555
N0 O44 1.288785 1_555
N0 O46 1.288785 1_445
N1 O29 1.226247 1_555
N1 O45 1.288785 1_445
N1 O48 1.288785 1_555
N2 O30 1.226247 1_555
N2 O47 1.288785 1_555
N2 O50 1.288785 1_555
N3 O31 1.226247 1_555
N3 O51 1.288785 1_555
N3 O49 1.288785 1_555
N4 O20 1.247018 1_555
N4 O32 1.252187 1_555
N4 O8 1.304709 1_555
N5 O21 1.247018 1_555
N5 O33 1.252187 1_555
N5 O9 1.304709 1_555
N6 O22 1.247018 1_555
N6 O34 1.252187 1_555
N6 O10 1.304709 1_555
N7 O23 1.247018 1_555
N7 O35 1.252187 1_555
N7 O11 1.304709 1_555
N8 O52 1.238033 1_555
N8 O18 1.276058 1_555
N8 O0 1.289689 1_555
N9 O53 1.238033 1_555
N9 O19 1.276058 1_555
N9 O1 1.289689 1_555
N10 O54 1.238033 1_555
N10 O15 1.276058 1_555
N10 O2 1.289689 1_555
N11 O55 1.238033 1_555
N11 O14 1.276058 1_455
N11 O3 1.289689 1_555
N12 O56 1.238033 1_555
N12 O17 1.276058 1_555
N12 O4 1.289689 1_555
N13 O57 1.238033 1_555
N13 O16 1.276058 1_655
N13 O5 1.289689 1_555
N14 O58 1.238033 1_555
N14 O12 1.276058 1_655
N14 O6 1.289689 1_555
N15 O59 1.238033 1_555
N15 O13 1.276058 1_455
N15 O7 1.289689 1_555
N16 O24 1.257505 1_555
N16 O41 1.272216 1_554
N16 O42 1.272216 1_555
N17 O25 1.257505 1_555
N17 O43 1.272216 1_554
N17 O39 1.272216 1_555
N18 O26 1.257505 1_555
N18 O37 1.272216 1_555
N18 O38 1.272216 1_555
N19 O27 1.257505 1_555
N19 O36 1.272216 1_555
N19 O40 1.272216 1_555
