# generated using pymatgen
data_Li2MnO2F
_symmetry_space_group_name_H-M   'P 1'
_cell_length_a   5.69188301
_cell_length_b   8.72625400
_cell_length_c   4.58499401
_cell_angle_alpha   89.99925013
_cell_angle_beta   90.00680592
_cell_angle_gamma   90.00279120
_symmetry_Int_Tables_number   1
_chemical_formula_structural   Li2MnO2F
_chemical_formula_sum   'Li8 Mn4 O8 F4'
_cell_volume   227.73122605
_cell_formula_units_Z   4
loop_
 _symmetry_equiv_pos_site_id
 _symmetry_equiv_pos_as_xyz
  1  'x, y, z'
loop_
 _atom_site_type_symbol
 _atom_site_label
 _atom_site_symmetry_multiplicity
 _atom_site_fract_x
 _atom_site_fract_y
 _atom_site_fract_z
 _atom_site_occupancy
  Li  Li0  1  0.12572400  0.42701700  0.73901700  1
  Li  Li1  1  0.12572100  0.07297500  0.73901700  1
  Li  Li2  1  0.37429400  0.57293900  0.23902700  1
  Li  Li3  1  0.37427600  0.92704600  0.23894000  1
  Li  Li4  1  0.62575900  0.07296300  0.76102900  1
  Li  Li5  1  0.62576000  0.42705500  0.76099200  1
  Li  Li6  1  0.87431900  0.57295500  0.26097400  1
  Li  Li7  1  0.87433000  0.92701600  0.26086900  1
  Mn  Mn0  1  0.12313400  0.75002500  0.75073300  1
  Mn  Mn1  1  0.37683000  0.24998000  0.25086900  1
  Mn  Mn2  1  0.62310300  0.75005500  0.74916500  1
  Mn  Mn3  1  0.87682800  0.24991600  0.24935700  1
  O  O0  1  0.12680700  0.09791100  0.25374200  1
  O  O1  1  0.12679300  0.40188900  0.25378800  1
  O  O2  1  0.37317500  0.90207200  0.75375200  1
  O  O3  1  0.37320500  0.59809600  0.75370100  1
  O  O4  1  0.62667800  0.09793300  0.24636600  1
  O  O5  1  0.62679600  0.40189800  0.24626700  1
  O  O6  1  0.87323000  0.59814700  0.74620600  1
  O  O7  1  0.87318100  0.90207500  0.74621400  1
  F  F0  1  0.12333400  0.75000400  0.25005100  1
  F  F1  1  0.37670200  0.25002900  0.75003000  1
  F  F2  1  0.62330300  0.75001500  0.25000200  1
  F  F3  1  0.87671600  0.24998700  0.74989200  1
loop_
_geom_bond_atom_site_label_1
_geom_bond_atom_site_label_2
_geom_bond_distance
_geom_bond_site_symmetry_2
Li0 O3 2.053592 1_555
Li0 O6 2.072865 1_455
Li0 O1 2.235564 1_555
Li0 O1 2.370390 1_556
Li1 O2 2.052477 1_545
Li1 O7 2.071501 1_445
Li1 O0 2.235604 1_555
Li1 O0 2.370031 1_556
Li2 O1 2.053508 1_555
Li2 O5 2.072335 1_555
Li2 O3 2.236024 1_554
Li2 O3 2.369978 1_555
Li3 O0 2.052317 1_565
Li3 O4 2.070886 1_565
Li3 O2 2.235244 1_554
Li3 O2 2.370455 1_555
Li4 O7 2.052281 1_545
Li4 O2 2.071619 1_545
Li4 O4 2.235918 1_556
Li4 O4 2.369769 1_555
Li5 O6 2.053657 1_555
Li5 O3 2.072548 1_555
Li5 O5 2.235791 1_556
Li5 O5 2.370210 1_555
Li6 O5 2.053620 1_555
Li6 O1 2.072384 1_655
Li6 O6 2.235632 1_555
Li6 O6 2.370428 1_554
Li7 O4 2.053305 1_565
Li7 O0 2.071215 1_665
Li7 O7 2.235929 1_555
Li7 O7 2.369717 1_554
Mn0 O6 1.944228 1_455
Mn0 O3 1.945258 1_555
Mn0 O7 1.945549 1_455
Mn0 O2 1.945742 1_555
Mn1 O5 1.944731 1_555
Mn1 O1 1.944999 1_555
Mn1 O4 1.945097 1_555
Mn1 O0 1.945796 1_555
Mn2 O3 1.944688 1_555
Mn2 O2 1.945256 1_555
Mn2 O6 1.945369 1_555
Mn2 O7 1.945736 1_555
Mn3 O1 1.945042 1_655
Mn3 O0 1.945383 1_655
Mn3 O5 1.945415 1_555
Mn3 O4 1.945815 1_555
F0 Li7 2.096994 1_455
F0 Li6 2.097183 1_455
F0 Li3 2.104587 1_555
F0 Li2 2.104897 1_555
F0 Mn0 2.289370 1_554
F0 Mn0 2.295624 1_555
F1 Li5 2.097198 1_555
F1 Li4 2.097556 1_555
F1 Li0 2.104463 1_555
F1 Li1 2.104797 1_555
F1 Mn1 2.288650 1_555
F1 Mn1 2.296344 1_556
F2 Li3 2.097223 1_555
F2 Li2 2.097332 1_555
F2 Li7 2.104619 1_555
F2 Li6 2.105067 1_555
F2 Mn2 2.288660 1_555
F2 Mn2 2.296335 1_554
F3 Li1 2.097004 1_655
F3 Li0 2.097029 1_655
F3 Li4 2.104533 1_555
F3 Li5 2.104910 1_555
F3 Mn3 2.290044 1_556
F3 Mn3 2.294950 1_555
