# generated using pymatgen
data_LaPd3C
_symmetry_space_group_name_H-M   'P 1'
_cell_length_a   4.38488900
_cell_length_b   4.38488900
_cell_length_c   4.38488900
_cell_angle_alpha   90.00000000
_cell_angle_beta   90.00000000
_cell_angle_gamma   90.00000000
_symmetry_Int_Tables_number   1
_chemical_formula_structural   LaPd3C
_chemical_formula_sum   'La1 Pd3 C1'
_cell_volume   84.30936379
_cell_formula_units_Z   1
loop_
 _symmetry_equiv_pos_site_id
 _symmetry_equiv_pos_as_xyz
  1  'x, y, z'
loop_
 _atom_site_type_symbol
 _atom_site_label
 _atom_site_symmetry_multiplicity
 _atom_site_fract_x
 _atom_site_fract_y
 _atom_site_fract_z
 _atom_site_occupancy
  La  La0  1  0.00000000  0.00000000  0.00000000  1
  Pd  Pd0  1  0.00000000  0.50000000  0.50000000  1
  Pd  Pd1  1  0.50000000  0.50000000  0.00000000  1
  Pd  Pd2  1  0.50000000  0.00000000  0.50000000  1
  C  C0  1  0.50000000  0.50000000  0.50000000  1
loop_
_geom_bond_atom_site_label_1
_geom_bond_atom_site_label_2
_geom_bond_distance
_geom_bond_site_symmetry_2
La0 Pd2 3.100585 1_554
La0 Pd0 3.100585 1_544
La0 Pd0 3.100585 1_545
La0 Pd0 3.100585 1_555
La0 Pd2 3.100585 1_455
La0 Pd1 3.100585 1_555
La0 Pd2 3.100585 1_454
La0 Pd1 3.100585 1_445
La0 Pd2 3.100585 1_555
La0 Pd0 3.100585 1_554
La0 Pd1 3.100585 1_545
La0 Pd1 3.100585 1_455
C0 Pd2 2.192445 1_555
C0 Pd2 2.192445 1_565
C0 Pd1 2.192445 1_556
C0 Pd1 2.192445 1_555
C0 Pd0 2.192445 1_655
C0 Pd0 2.192445 1_555
