# generated using pymatgen
data_B9Pb8O21F
_symmetry_space_group_name_H-M   'P 1'
_cell_length_a   14.23098601
_cell_length_b   14.23098601
_cell_length_c   14.23098600
_cell_angle_alpha   40.76842827
_cell_angle_beta   40.76842827
_cell_angle_gamma   40.76843003
_symmetry_Int_Tables_number   1
_chemical_formula_structural   B9Pb8O21F
_chemical_formula_sum   'B18 Pb16 O42 F2'
_cell_volume   1108.97126707
_cell_formula_units_Z   2
loop_
 _symmetry_equiv_pos_site_id
 _symmetry_equiv_pos_as_xyz
  1  'x, y, z'
loop_
 _atom_site_type_symbol
 _atom_site_label
 _atom_site_symmetry_multiplicity
 _atom_site_fract_x
 _atom_site_fract_y
 _atom_site_fract_z
 _atom_site_occupancy
  B  B0  1  0.59855300  0.75000000  0.90144700  1
  B  B1  1  0.90144700  0.59855300  0.75000000  1
  B  B2  1  0.75000000  0.90144700  0.59855300  1
  B  B3  1  0.40144700  0.25000000  0.09855300  1
  B  B4  1  0.09855300  0.40144700  0.25000000  1
  B  B5  1  0.25000000  0.09855300  0.40144700  1
  B  B6  1  0.43054600  0.88577400  0.07758600  1
  B  B7  1  0.07758600  0.43054600  0.88577400  1
  B  B8  1  0.88577400  0.07758600  0.43054600  1
  B  B9  1  0.57758600  0.38577400  0.93054600  1
  B  B10  1  0.93054600  0.57758600  0.38577400  1
  B  B11  1  0.38577400  0.93054600  0.57758600  1
  B  B12  1  0.56945400  0.11422600  0.92241400  1
  B  B13  1  0.92241400  0.56945400  0.11422600  1
  B  B14  1  0.11422600  0.92241400  0.56945400  1
  B  B15  1  0.42241400  0.61422600  0.06945400  1
  B  B16  1  0.06945400  0.42241400  0.61422600  1
  B  B17  1  0.61422600  0.06945400  0.42241400  1
  Pb  Pb0  1  0.20127000  0.71011100  0.46911900  1
  Pb  Pb1  1  0.46911900  0.20127000  0.71011100  1
  Pb  Pb2  1  0.71011100  0.46911900  0.20127000  1
  Pb  Pb3  1  0.96911900  0.21011100  0.70127000  1
  Pb  Pb4  1  0.70127000  0.96911900  0.21011100  1
  Pb  Pb5  1  0.21011100  0.70127000  0.96911900  1
  Pb  Pb6  1  0.79873000  0.28988900  0.53088100  1
  Pb  Pb7  1  0.53088100  0.79873000  0.28988900  1
  Pb  Pb8  1  0.28988900  0.53088100  0.79873000  1
  Pb  Pb9  1  0.03088100  0.78988900  0.29873000  1
  Pb  Pb10  1  0.29873000  0.03088100  0.78988900  1
  Pb  Pb11  1  0.78988900  0.29873000  0.03088100  1
  Pb  Pb12  1  0.16355400  0.16355400  0.16355400  1
  Pb  Pb13  1  0.66355400  0.66355400  0.66355400  1
  Pb  Pb14  1  0.83644600  0.83644600  0.83644600  1
  Pb  Pb15  1  0.33644600  0.33644600  0.33644600  1
  O  O0  1  0.38684300  0.84730400  0.22720500  1
  O  O1  1  0.22720500  0.38684300  0.84730400  1
  O  O2  1  0.84730400  0.22720500  0.38684300  1
  O  O3  1  0.72720500  0.34730400  0.88684300  1
  O  O4  1  0.88684300  0.72720500  0.34730400  1
  O  O5  1  0.34730400  0.88684300  0.72720500  1
  O  O6  1  0.61315700  0.15269600  0.77279500  1
  O  O7  1  0.77279500  0.61315700  0.15269600  1
  O  O8  1  0.15269600  0.77279500  0.61315700  1
  O  O9  1  0.27279500  0.65269600  0.11315700  1
  O  O10  1  0.11315700  0.27279500  0.65269600  1
  O  O11  1  0.65269600  0.11315700  0.27279500  1
  O  O12  1  0.54733700  0.76398200  0.03122500  1
  O  O13  1  0.03122500  0.54733700  0.76398200  1
  O  O14  1  0.76398200  0.03122500  0.54733700  1
  O  O15  1  0.53122500  0.26398200  0.04733700  1
  O  O16  1  0.04733700  0.53122500  0.26398200  1
  O  O17  1  0.26398200  0.04733700  0.53122500  1
  O  O18  1  0.45266300  0.23601800  0.96877500  1
  O  O19  1  0.96877500  0.45266300  0.23601800  1
  O  O20  1  0.23601800  0.96877500  0.45266300  1
  O  O21  1  0.46877500  0.73601800  0.95266300  1
  O  O22  1  0.95266300  0.46877500  0.73601800  1
  O  O23  1  0.73601800  0.95266300  0.46877500  1
  O  O24  1  0.75000000  0.60679900  0.89320100  1
  O  O25  1  0.89320100  0.75000000  0.60679900  1
  O  O26  1  0.60679900  0.89320100  0.75000000  1
  O  O27  1  0.39320100  0.10679900  0.25000000  1
  O  O28  1  0.25000000  0.39320100  0.10679900  1
  O  O29  1  0.10679900  0.25000000  0.39320100  1
  O  O30  1  0.35390200  0.04015200  0.98741100  1
  O  O31  1  0.98741100  0.35390200  0.04015200  1
  O  O32  1  0.04015200  0.98741100  0.35390200  1
  O  O33  1  0.48741100  0.54015200  0.85390200  1
  O  O34  1  0.85390200  0.48741100  0.54015200  1
  O  O35  1  0.54015200  0.85390200  0.48741100  1
  O  O36  1  0.64609800  0.95984800  0.01258900  1
  O  O37  1  0.01258900  0.64609800  0.95984800  1
  O  O38  1  0.95984800  0.01258900  0.64609800  1
  O  O39  1  0.51258900  0.45984800  0.14609800  1
  O  O40  1  0.14609800  0.51258900  0.45984800  1
  O  O41  1  0.45984800  0.14609800  0.51258900  1
  F  F0  1  0.50000000  0.50000000  0.50000000  1
  F  F1  1  0.00000000  0.00000000  0.00000000  1
loop_
_geom_bond_atom_site_label_1
_geom_bond_atom_site_label_2
_geom_bond_distance
_geom_bond_site_symmetry_2
B0 O26 1.462240 1_555
B0 O24 1.462240 1_555
B0 O21 1.509887 1_555
B0 O12 1.509887 1_556
B1 O24 1.462240 1_555
B1 O25 1.462240 1_555
B1 O13 1.509887 1_655
B1 O22 1.509887 1_555
B2 O26 1.462240 1_555
B2 O25 1.462240 1_555
B2 O14 1.509887 1_565
B2 O23 1.509887 1_555
B3 O27 1.462240 1_555
B3 O28 1.462240 1_555
B3 O15 1.509887 1_555
B3 O18 1.509887 1_554
B4 O29 1.462240 1_555
B4 O28 1.462240 1_555
B4 O16 1.509887 1_555
B4 O19 1.509887 1_455
B5 O27 1.462240 1_555
B5 O29 1.462240 1_555
B5 O20 1.509887 1_545
B5 O17 1.509887 1_555
B6 O30 1.372277 1_564
B6 O12 1.381829 1_555
B6 O0 1.401556 1_555
B7 O31 1.372277 1_456
B7 O13 1.381829 1_555
B7 O1 1.401556 1_555
B8 O32 1.372278 1_645
B8 O14 1.381828 1_555
B8 O2 1.401556 1_555
B9 O33 1.372278 1_555
B9 O15 1.381828 1_556
B9 O3 1.401556 1_555
B10 O34 1.372277 1_555
B10 O16 1.381829 1_655
B10 O4 1.401556 1_555
B11 O35 1.372277 1_555
B11 O17 1.381829 1_565
B11 O5 1.401556 1_555
B12 O36 1.372277 1_546
B12 O18 1.381829 1_555
B12 O6 1.401556 1_555
B13 O37 1.372277 1_654
B13 O19 1.381829 1_555
B13 O7 1.401556 1_555
B14 O38 1.372278 1_465
B14 O20 1.381828 1_555
B14 O8 1.401556 1_555
B15 O39 1.372278 1_555
B15 O21 1.381828 1_554
B15 O9 1.401556 1_555
B16 O40 1.372277 1_555
B16 O22 1.381829 1_455
B16 O10 1.401556 1_555
B17 O41 1.372277 1_555
B17 O23 1.381829 1_545
B17 O11 1.401556 1_555
O0 Pb7 2.272600 1_555
O0 Pb0 2.548663 1_555
O0 Pb12 2.774108 1_565
O1 Pb8 2.272600 1_555
O1 Pb1 2.548663 1_555
O1 Pb12 2.774108 1_556
O2 Pb6 2.272600 1_555
O2 Pb2 2.548663 1_555
O2 Pb12 2.774108 1_655
O3 Pb11 2.272600 1_556
O3 Pb3 2.548663 1_555
O3 Pb13 2.774108 1_555
O4 Pb9 2.272600 1_655
O4 Pb4 2.548663 1_555
O4 Pb13 2.774108 1_555
O5 Pb10 2.272600 1_565
O5 Pb5 2.548663 1_555
O5 Pb13 2.774108 1_555
O6 Pb1 2.272600 1_555
O6 Pb6 2.548663 1_555
O6 Pb14 2.774108 1_545
O7 Pb2 2.272600 1_555
O7 Pb7 2.548663 1_555
O7 Pb14 2.774108 1_554
O8 Pb0 2.272600 1_555
O8 Pb8 2.548663 1_555
O8 Pb14 2.774108 1_455
O9 Pb5 2.272600 1_554
O9 Pb9 2.548663 1_555
O9 Pb15 2.774108 1_555
O10 Pb3 2.272600 1_455
O10 Pb10 2.548663 1_555
O10 Pb15 2.774108 1_555
O11 Pb4 2.272600 1_545
O11 Pb11 2.548663 1_555
O11 Pb15 2.774108 1_555
O12 Pb2 2.686333 1_555
O13 Pb0 2.686333 1_555
O14 Pb1 2.686333 1_555
O15 Pb4 2.686333 1_545
O16 Pb5 2.686333 1_554
O17 Pb3 2.686333 1_455
O18 Pb8 2.686333 1_555
O19 Pb6 2.686333 1_555
O20 Pb7 2.686333 1_555
O21 Pb10 2.686333 1_565
O22 Pb11 2.686333 1_556
O23 Pb9 2.686333 1_655
O30 Pb1 2.388894 1_555
O30 Pb12 2.425358 1_556
O31 Pb2 2.388894 1_555
O31 Pb12 2.425358 1_655
O32 Pb0 2.388894 1_555
O32 Pb12 2.425358 1_565
O33 Pb5 2.388894 1_555
O33 Pb13 2.425358 1_555
O34 Pb3 2.388894 1_555
O34 Pb13 2.425358 1_555
O35 Pb4 2.388894 1_555
O35 Pb13 2.425358 1_555
O36 Pb7 2.388894 1_555
O36 Pb14 2.425358 1_554
O37 Pb8 2.388894 1_555
O37 Pb14 2.425358 1_455
O38 Pb6 2.388894 1_555
O38 Pb14 2.425358 1_545
O39 Pb11 2.388894 1_555
O39 Pb15 2.425358 1_555
O40 Pb9 2.388894 1_555
O40 Pb15 2.425358 1_555
O41 Pb10 2.388894 1_555
O41 Pb15 2.425358 1_555
