# generated using pymatgen
data_AlVCrC
_symmetry_space_group_name_H-M   'P 1'
_cell_length_a   5.76221475
_cell_length_b   5.76221475
_cell_length_c   25.74070200
_cell_angle_alpha   90.00000000
_cell_angle_beta   90.00000000
_cell_angle_gamma   119.99998570
_symmetry_Int_Tables_number   1
_chemical_formula_structural   AlVCrC
_chemical_formula_sum   'Al16 V16 Cr16 C16'
_cell_volume   740.16741419
_cell_formula_units_Z   16
loop_
 _symmetry_equiv_pos_site_id
 _symmetry_equiv_pos_as_xyz
  1  'x, y, z'
loop_
 _atom_site_type_symbol
 _atom_site_label
 _atom_site_symmetry_multiplicity
 _atom_site_fract_x
 _atom_site_fract_y
 _atom_site_fract_z
 _atom_site_occupancy
  Al  Al0_0  1  0.16666650  0.33333350  0.37163350  1
  Al  Al0_1  1  0.16666650  0.33333350  0.87163350  1
  Al  Al0_2  1  0.16666650  0.83333350  0.37163350  1
  Al  Al0_3  1  0.16666650  0.83333350  0.87163350  1
  Al  Al0_4  1  0.66666650  0.33333350  0.37163350  1
  Al  Al0_5  1  0.66666650  0.33333350  0.87163350  1
  Al  Al0_6  1  0.66666650  0.83333350  0.37163350  1
  Al  Al0_7  1  0.66666650  0.83333350  0.87163350  1
  Al  Al1_0  1  0.33333350  0.16666650  0.12836650  1
  Al  Al1_1  1  0.33333350  0.16666650  0.62836650  1
  Al  Al1_2  1  0.33333350  0.66666650  0.12836650  1
  Al  Al1_3  1  0.33333350  0.66666650  0.62836650  1
  Al  Al1_4  1  0.83333350  0.16666650  0.12836650  1
  Al  Al1_5  1  0.83333350  0.16666650  0.62836650  1
  Al  Al1_6  1  0.83333350  0.66666650  0.12836650  1
  Al  Al1_7  1  0.83333350  0.66666650  0.62836650  1
  V  V0_0  1  0.33333350  0.16666650  0.45621550  1
  V  V0_1  1  0.33333350  0.16666650  0.95621550  1
  V  V0_2  1  0.33333350  0.66666650  0.45621550  1
  V  V0_3  1  0.33333350  0.66666650  0.95621550  1
  V  V0_4  1  0.83333350  0.16666650  0.45621550  1
  V  V0_5  1  0.83333350  0.16666650  0.95621550  1
  V  V0_6  1  0.83333350  0.66666650  0.45621550  1
  V  V0_7  1  0.83333350  0.66666650  0.95621550  1
  V  V1_0  1  0.16666650  0.33333350  0.04378450  1
  V  V1_1  1  0.16666650  0.33333350  0.54378450  1
  V  V1_2  1  0.16666650  0.83333350  0.04378450  1
  V  V1_3  1  0.16666650  0.83333350  0.54378450  1
  V  V1_4  1  0.66666650  0.33333350  0.04378450  1
  V  V1_5  1  0.66666650  0.33333350  0.54378450  1
  V  V1_6  1  0.66666650  0.83333350  0.04378450  1
  V  V1_7  1  0.66666650  0.83333350  0.54378450  1
  Cr  Cr0_0  1  0.16666650  0.33333350  0.20877250  1
  Cr  Cr0_1  1  0.16666650  0.33333350  0.70877250  1
  Cr  Cr0_2  1  0.16666650  0.83333350  0.20877250  1
  Cr  Cr0_3  1  0.16666650  0.83333350  0.70877250  1
  Cr  Cr0_4  1  0.66666650  0.33333350  0.20877250  1
  Cr  Cr0_5  1  0.66666650  0.33333350  0.70877250  1
  Cr  Cr0_6  1  0.66666650  0.83333350  0.20877250  1
  Cr  Cr0_7  1  0.66666650  0.83333350  0.70877250  1
  Cr  Cr1_0  1  0.33333350  0.16666650  0.29122750  1
  Cr  Cr1_1  1  0.33333350  0.16666650  0.79122750  1
  Cr  Cr1_2  1  0.33333350  0.66666650  0.29122750  1
  Cr  Cr1_3  1  0.33333350  0.66666650  0.79122750  1
  Cr  Cr1_4  1  0.83333350  0.16666650  0.29122750  1
  Cr  Cr1_5  1  0.83333350  0.16666650  0.79122750  1
  Cr  Cr1_6  1  0.83333350  0.66666650  0.29122750  1
  Cr  Cr1_7  1  0.83333350  0.66666650  0.79122750  1
  C  C0_0  1  0.00000000  0.00000000  0.25000000  1
  C  C0_1  1  0.00000000  0.00000000  0.75000000  1
  C  C0_2  1  0.00000000  0.50000000  0.25000000  1
  C  C0_3  1  0.00000000  0.50000000  0.75000000  1
  C  C0_4  1  0.50000000  0.00000000  0.25000000  1
  C  C0_5  1  0.50000000  0.00000000  0.75000000  1
  C  C0_6  1  0.50000000  0.50000000  0.25000000  1
  C  C0_7  1  0.50000000  0.50000000  0.75000000  1
  C  C1_0  1  0.00000000  0.00000000  0.00000000  1
  C  C1_1  1  0.00000000  0.00000000  0.50000000  1
  C  C1_2  1  0.00000000  0.50000000  0.00000000  1
  C  C1_3  1  0.00000000  0.50000000  0.50000000  1
  C  C1_4  1  0.50000000  0.00000000  0.00000000  1
  C  C1_5  1  0.50000000  0.00000000  0.50000000  1
  C  C1_6  1  0.50000000  0.50000000  0.00000000  1
  C  C1_7  1  0.50000000  0.50000000  0.50000000  1
loop_
_geom_bond_atom_site_label_1
_geom_bond_atom_site_label_2
_geom_bond_distance
_geom_bond_site_symmetry_2
Al0_0 Cr1_4 2.655298 1_455
Al0_0 Cr1_2 2.655298 1_555
Al0_0 Cr1_0 2.655301 1_555
Al0_0 V0_2 2.739913 1_555
Al0_0 V0_4 2.739913 1_455
Al0_0 V0_0 2.739916 1_555
Al0_0 Al0_2 2.881107 1_545
Al0_0 Al0_4 2.881107 1_555
Al0_0 Al0_4 2.881107 1_455
Al0_0 Al0_2 2.881107 1_555
Al0_0 Al0_6 2.881108 1_445
Al0_0 Al0_6 2.881108 1_555
Al0_1 Cr1_5 2.655298 1_455
Al0_1 Cr1_3 2.655298 1_555
Al0_1 Cr1_1 2.655301 1_555
Al0_1 V0_5 2.739913 1_455
Al0_1 V0_3 2.739913 1_555
Al0_1 V0_1 2.739916 1_555
Al0_1 Al0_3 2.881107 1_545
Al0_1 Al0_5 2.881107 1_555
Al0_1 Al0_5 2.881107 1_455
Al0_1 Al0_3 2.881107 1_555
Al0_1 Al0_7 2.881108 1_445
Al0_1 Al0_7 2.881108 1_555
Al0_2 Cr1_6 2.655298 1_455
Al0_2 Cr1_0 2.655298 1_565
Al0_2 Cr1_2 2.655301 1_555
Al0_2 V0_6 2.739913 1_455
Al0_2 V0_0 2.739913 1_565
Al0_2 V0_2 2.739916 1_555
Al0_2 Al0_6 2.881107 1_455
Al0_2 Al0_6 2.881107 1_555
Al0_2 Al0_4 2.881108 1_565
Al0_2 Al0_4 2.881108 1_455
Al0_3 Cr1_7 2.655298 1_455
Al0_3 Cr1_1 2.655298 1_565
Al0_3 Cr1_3 2.655301 1_555
Al0_3 V0_7 2.739913 1_455
Al0_3 V0_1 2.739913 1_565
Al0_3 V0_3 2.739916 1_555
Al0_3 Al0_7 2.881107 1_455
Al0_3 Al0_7 2.881107 1_555
Al0_3 Al0_5 2.881108 1_565
Al0_3 Al0_5 2.881108 1_455
Al0_4 Cr1_0 2.655298 1_555
Al0_4 Cr1_6 2.655298 1_555
Al0_4 Cr1_4 2.655301 1_555
Al0_4 V0_0 2.739913 1_555
Al0_4 V0_6 2.739913 1_555
Al0_4 V0_4 2.739916 1_555
Al0_4 Al0_6 2.881107 1_545
Al0_4 Al0_6 2.881107 1_555
Al0_5 Cr1_1 2.655298 1_555
Al0_5 Cr1_7 2.655298 1_555
Al0_5 Cr1_5 2.655301 1_555
Al0_5 V0_1 2.739913 1_555
Al0_5 V0_7 2.739913 1_555
Al0_5 V0_5 2.739916 1_555
Al0_5 Al0_7 2.881107 1_545
Al0_5 Al0_7 2.881107 1_555
Al0_6 Cr1_4 2.655298 1_565
Al0_6 Cr1_2 2.655298 1_555
Al0_6 Cr1_6 2.655301 1_555
Al0_6 V0_4 2.739913 1_565
Al0_6 V0_2 2.739913 1_555
Al0_6 V0_6 2.739916 1_555
Al0_7 Cr1_5 2.655298 1_565
Al0_7 Cr1_3 2.655298 1_555
Al0_7 Cr1_7 2.655301 1_555
Al0_7 V0_5 2.739913 1_565
Al0_7 V0_3 2.739913 1_555
Al0_7 V0_7 2.739916 1_555
Al1_0 Cr0_2 2.655298 1_545
Al1_0 Cr0_4 2.655298 1_555
Al1_0 Cr0_0 2.655301 1_555
Al1_0 V1_4 2.739913 1_555
Al1_0 V1_2 2.739913 1_545
Al1_0 V1_0 2.739916 1_555
Al1_0 Al1_2 2.881107 1_545
Al1_0 Al1_4 2.881107 1_555
Al1_0 Al1_4 2.881107 1_455
Al1_0 Al1_2 2.881107 1_555
Al1_0 Al1_6 2.881108 1_445
Al1_0 Al1_6 2.881108 1_555
Al1_1 Cr0_3 2.655298 1_545
Al1_1 Cr0_5 2.655298 1_555
Al1_1 Cr0_1 2.655301 1_555
Al1_1 V1_3 2.739913 1_545
Al1_1 V1_5 2.739913 1_555
Al1_1 V1_1 2.739916 1_555
Al1_1 Al1_3 2.881107 1_545
Al1_1 Al1_5 2.881107 1_555
Al1_1 Al1_5 2.881107 1_455
Al1_1 Al1_3 2.881107 1_555
Al1_1 Al1_7 2.881108 1_445
Al1_1 Al1_7 2.881108 1_555
Al1_2 Cr0_6 2.655298 1_555
Al1_2 Cr0_0 2.655298 1_555
Al1_2 Cr0_2 2.655301 1_555
Al1_2 V1_0 2.739913 1_555
Al1_2 V1_6 2.739913 1_555
Al1_2 V1_2 2.739916 1_555
Al1_2 Al1_6 2.881107 1_455
Al1_2 Al1_6 2.881107 1_555
Al1_2 Al1_4 2.881108 1_565
Al1_2 Al1_4 2.881108 1_455
Al1_3 Cr0_1 2.655298 1_555
Al1_3 Cr0_7 2.655298 1_555
Al1_3 Cr0_3 2.655301 1_555
Al1_3 V1_7 2.739913 1_555
Al1_3 V1_1 2.739913 1_555
Al1_3 V1_3 2.739916 1_555
Al1_3 Al1_7 2.881107 1_455
Al1_3 Al1_7 2.881107 1_555
Al1_3 Al1_5 2.881108 1_565
Al1_3 Al1_5 2.881108 1_455
Al1_4 Cr0_6 2.655298 1_545
Al1_4 Cr0_0 2.655298 1_655
Al1_4 Cr0_4 2.655301 1_555
Al1_4 V1_6 2.739913 1_545
Al1_4 V1_0 2.739913 1_655
Al1_4 V1_4 2.739916 1_555
Al1_4 Al1_6 2.881107 1_555
Al1_4 Al1_6 2.881107 1_545
Al1_5 Cr0_7 2.655298 1_545
Al1_5 Cr0_1 2.655298 1_655
Al1_5 Cr0_5 2.655301 1_555
Al1_5 V1_7 2.739913 1_545
Al1_5 V1_1 2.739913 1_655
Al1_5 V1_5 2.739916 1_555
Al1_5 Al1_7 2.881107 1_555
Al1_5 Al1_7 2.881107 1_545
Al1_6 Cr0_2 2.655298 1_655
Al1_6 Cr0_4 2.655298 1_555
Al1_6 Cr0_6 2.655301 1_555
Al1_6 V1_2 2.739913 1_655
Al1_6 V1_4 2.739913 1_555
Al1_6 V1_6 2.739916 1_555
Al1_7 Cr0_3 2.655298 1_655
Al1_7 Cr0_5 2.655298 1_555
Al1_7 Cr0_7 2.655301 1_555
Al1_7 V1_3 2.739913 1_655
Al1_7 V1_5 2.739913 1_555
Al1_7 V1_7 2.739916 1_555
C0_0 Cr0_2 1.973099 1_545
C0_0 Cr1_4 1.973099 1_455
C0_0 Cr1_6 1.973101 1_445
C0_0 Cr1_0 1.973101 1_555
C0_0 Cr0_6 1.973101 1_445
C0_0 Cr0_0 1.973101 1_555
C0_1 Cr0_3 1.973099 1_545
C0_1 Cr1_5 1.973099 1_455
C0_1 Cr1_7 1.973101 1_445
C0_1 Cr0_7 1.973101 1_445
C0_1 Cr0_1 1.973101 1_555
C0_1 Cr1_1 1.973101 1_555
C0_2 Cr1_6 1.973099 1_455
C0_2 Cr0_0 1.973099 1_555
C0_2 Cr1_2 1.973101 1_555
C0_2 Cr1_4 1.973101 1_455
C0_2 Cr0_2 1.973101 1_555
C0_2 Cr0_4 1.973101 1_455
C0_3 Cr1_7 1.973099 1_455
C0_3 Cr0_1 1.973099 1_555
C0_3 Cr1_3 1.973101 1_555
C0_3 Cr0_3 1.973101 1_555
C0_3 Cr1_5 1.973101 1_455
C0_3 Cr0_5 1.973101 1_455
C0_4 Cr1_0 1.973099 1_555
C0_4 Cr0_6 1.973099 1_545
C0_4 Cr1_4 1.973101 1_555
C0_4 Cr1_2 1.973101 1_545
C0_4 Cr0_4 1.973101 1_555
C0_4 Cr0_2 1.973101 1_545
C0_5 Cr0_7 1.973099 1_545
C0_5 Cr1_1 1.973099 1_555
C0_5 Cr1_5 1.973101 1_555
C0_5 Cr1_3 1.973101 1_545
C0_5 Cr0_5 1.973101 1_555
C0_5 Cr0_3 1.973101 1_545
C0_6 Cr1_2 1.973099 1_555
C0_6 Cr0_4 1.973099 1_555
C0_6 Cr1_0 1.973101 1_555
C0_6 Cr0_0 1.973101 1_555
C0_6 Cr1_6 1.973101 1_555
C0_6 Cr0_6 1.973101 1_555
C0_7 Cr0_5 1.973099 1_555
C0_7 Cr1_3 1.973099 1_555
C0_7 Cr0_1 1.973101 1_555
C0_7 Cr1_1 1.973101 1_555
C0_7 Cr1_7 1.973101 1_555
C0_7 Cr0_7 1.973101 1_555
C1_0 V1_2 2.009266 1_545
C1_0 V0_5 2.009266 1_454
C1_0 V0_7 2.009268 1_444
C1_0 V1_6 2.009268 1_445
C1_0 V1_0 2.009268 1_555
C1_0 V0_1 2.009268 1_554
C1_1 V1_3 2.009266 1_545
C1_1 V0_4 2.009266 1_455
C1_1 V1_7 2.009268 1_445
C1_1 V0_6 2.009268 1_445
C1_1 V0_0 2.009268 1_555
C1_1 V1_1 2.009268 1_555
C1_2 V0_7 2.009266 1_454
C1_2 V1_0 2.009266 1_555
C1_2 V0_3 2.009268 1_554
C1_2 V1_2 2.009268 1_555
C1_2 V1_4 2.009268 1_455
C1_2 V0_5 2.009268 1_454
C1_3 V0_6 2.009266 1_455
C1_3 V1_1 2.009266 1_555
C1_3 V0_4 2.009268 1_455
C1_3 V0_2 2.009268 1_555
C1_3 V1_3 2.009268 1_555
C1_3 V1_5 2.009268 1_455
C1_4 V1_6 2.009266 1_545
C1_4 V0_1 2.009266 1_554
C1_4 V0_5 2.009268 1_554
C1_4 V1_4 2.009268 1_555
C1_4 V0_3 2.009268 1_544
C1_4 V1_2 2.009268 1_545
C1_5 V1_7 2.009266 1_545
C1_5 V0_0 2.009266 1_555
C1_5 V0_2 2.009268 1_545
C1_5 V0_4 2.009268 1_555
C1_5 V1_5 2.009268 1_555
C1_5 V1_3 2.009268 1_545
C1_6 V1_4 2.009266 1_555
C1_6 V0_3 2.009266 1_554
C1_6 V1_0 2.009268 1_555
C1_6 V0_1 2.009268 1_554
C1_6 V1_6 2.009268 1_555
C1_6 V0_7 2.009268 1_554
C1_7 V1_5 2.009266 1_555
C1_7 V0_2 2.009266 1_555
C1_7 V0_0 2.009268 1_555
C1_7 V1_1 2.009268 1_555
C1_7 V1_7 2.009268 1_555
C1_7 V0_6 2.009268 1_555
