# generated using pymatgen
data_Ca3(CoO3)2
_symmetry_space_group_name_H-M   'P 1'
_cell_length_a   3.39804100
_cell_length_b   6.55560181
_cell_length_c   9.95464355
_cell_angle_alpha   83.90226792
_cell_angle_beta   84.30360190
_cell_angle_gamma   89.14622167
_symmetry_Int_Tables_number   1
_chemical_formula_structural   Ca3(CoO3)2
_chemical_formula_sum   'Ca3 Co2 O6'
_cell_volume   219.40604687
_cell_formula_units_Z   1
loop_
 _symmetry_equiv_pos_site_id
 _symmetry_equiv_pos_as_xyz
  1  'x, y, z'
loop_
 _atom_site_type_symbol
 _atom_site_label
 _atom_site_symmetry_multiplicity
 _atom_site_fract_x
 _atom_site_fract_y
 _atom_site_fract_z
 _atom_site_occupancy
  Ca  Ca0  1  0.68635700  0.84781200  0.71592800  1
  Ca  Ca1  1  0.68499600  0.34336400  0.72278300  1
  Ca  Ca2  1  0.82830100  0.91356700  0.28358100  1
  Co  Co0  1  0.19158500  0.61547400  0.49219900  1
  Co  Co1  1  0.17765800  0.14631300  0.48640300  1
  O  O0  1  0.20152900  0.59743700  0.69914900  1
  O  O1  1  0.19564100  0.09989300  0.70914600  1
  O  O2  1  0.33381900  0.68318300  0.31946200  1
  O  O3  1  0.32197600  0.13633000  0.31285600  1
  O  O4  1  0.85227200  0.88819300  0.50406500  1
  O  O5  1  0.83136300  0.38118000  0.50512700  1
loop_
_geom_bond_atom_site_label_1
_geom_bond_atom_site_label_2
_geom_bond_distance
_geom_bond_site_symmetry_2
Ca0 O4 2.117946 1_555
Ca0 O1 2.330761 1_565
Ca0 O0 2.372668 1_555
Ca0 O0 2.387686 1_655
Ca0 O1 2.401802 1_665
Ca1 O5 2.163099 1_555
Ca1 O0 2.332474 1_555
Ca1 O1 2.343841 1_655
Ca1 O1 2.345413 1_555
Ca1 O0 2.414996 1_655
Ca2 O4 2.192977 1_555
Ca2 O2 2.252508 1_555
Ca2 O3 2.256923 1_565
Ca2 O2 2.299830 1_655
Ca2 O3 2.300457 1_665
Co0 O2 1.751194 1_555
Co0 O5 1.963855 1_455
Co0 O0 2.054541 1_555
Co0 O4 2.120406 1_455
Co1 O3 1.756203 1_555
Co1 O5 1.937400 1_455
Co1 O4 2.017598 1_445
Co1 O1 2.212661 1_555
