# generated using pymatgen
data_Y2InPd2
_symmetry_space_group_name_H-M   'P 1'
_cell_length_a   7.75513305
_cell_length_b   7.75513305
_cell_length_c   3.66279156
_cell_angle_alpha   90.00000000
_cell_angle_beta   90.00000000
_cell_angle_gamma   90.00000000
_symmetry_Int_Tables_number   1
_chemical_formula_structural   Y2InPd2
_chemical_formula_sum   'Y4 In2 Pd4'
_cell_volume   220.28793461
_cell_formula_units_Z   2
loop_
 _symmetry_equiv_pos_site_id
 _symmetry_equiv_pos_as_xyz
  1  'x, y, z'
loop_
 _atom_site_type_symbol
 _atom_site_label
 _atom_site_symmetry_multiplicity
 _atom_site_fract_x
 _atom_site_fract_y
 _atom_site_fract_z
 _atom_site_occupancy
  Y  Y0  1  0.67356264  0.17356264  0.50000000  1
  Y  Y1  1  0.32643736  0.82643736  0.50000000  1
  Y  Y2  1  0.17356264  0.32643736  0.50000000  1
  Y  Y3  1  0.82643736  0.67356264  0.50000000  1
  In  In0  1  0.50000000  0.50000000  0.00000000  1
  In  In1  1  0.00000000  0.00000000  0.00000000  1
  Pd  Pd0  1  0.12748657  0.62748657  0.00000000  1
  Pd  Pd1  1  0.87251343  0.37251343  -0.00000000  1
  Pd  Pd2  1  0.62748657  0.87251343  0.00000000  1
  Pd  Pd3  1  0.37251343  0.12748657  -0.00000000  1
loop_
_geom_bond_atom_site_label_1
_geom_bond_atom_site_label_2
_geom_bond_distance
_geom_bond_site_symmetry_2
In0 Pd1 3.053387 1_555
In0 Pd0 3.053387 1_555
In0 Pd2 3.053387 1_555
In0 Pd3 3.053387 1_555
In0 Y3 3.402139 1_555
In0 Y2 3.402139 1_554
In0 Y2 3.402139 1_555
In0 Y3 3.402139 1_554
In0 Y0 3.402139 1_554
In0 Y1 3.402139 1_555
In0 Y1 3.402139 1_554
In0 Y0 3.402139 1_555
In1 Pd3 3.053387 1_555
In1 Pd1 3.053387 1_455
In1 Pd0 3.053387 1_545
In1 Pd2 3.053387 1_445
In1 Y0 3.402139 1_455
In1 Y0 3.402139 1_454
In1 Y1 3.402139 1_544
In1 Y1 3.402139 1_545
In1 Y2 3.402139 1_555
In1 Y3 3.402139 1_444
In1 Y2 3.402139 1_554
In1 Y3 3.402139 1_445
Pd0 Pd1 2.796396 1_455
Pd0 Y1 2.848689 1_554
Pd0 Y1 2.848689 1_555
Pd0 Y3 2.988713 1_455
Pd0 Y2 2.988713 1_555
Pd0 Y3 2.988713 1_454
Pd0 Y2 2.988713 1_554
Pd1 Y0 2.848689 1_555
Pd1 Y0 2.848689 1_554
Pd1 Y3 2.988713 1_555
Pd1 Y3 2.988713 1_554
Pd1 Y2 2.988713 1_655
Pd1 Y2 2.988713 1_654
Pd2 Pd3 2.796396 1_565
Pd2 Y3 2.848689 1_555
Pd2 Y3 2.848689 1_554
Pd2 Y1 2.988713 1_555
Pd2 Y1 2.988713 1_554
Pd2 Y0 2.988713 1_564
Pd2 Y0 2.988713 1_565
Pd3 Y2 2.848689 1_554
Pd3 Y2 2.848689 1_555
Pd3 Y1 2.988713 1_545
Pd3 Y1 2.988713 1_544
Pd3 Y0 2.988713 1_555
Pd3 Y0 2.988713 1_554
