# generated using pymatgen
data_ZnGaPd2
_symmetry_space_group_name_H-M   'P 1'
_cell_length_a   10.23855058
_cell_length_b   10.23855058
_cell_length_c   10.23855058
_cell_angle_alpha   123.87989191
_cell_angle_beta   118.73439278
_cell_angle_gamma   87.81055569
_symmetry_Int_Tables_number   1
_chemical_formula_structural   ZnGaPd2
_chemical_formula_sum   'Zn1 Ga1 Pd2'
_cell_volume   741.37736967
_cell_formula_units_Z   1
loop_
 _symmetry_equiv_pos_site_id
 _symmetry_equiv_pos_as_xyz
  1  'x, y, z'
loop_
 _atom_site_type_symbol
 _atom_site_label
 _atom_site_symmetry_multiplicity
 _atom_site_fract_x
 _atom_site_fract_y
 _atom_site_fract_z
 _atom_site_occupancy
  Zn  Zn0  1  0.00000000  0.00000000  0.00000000  1
  Ga  Ga0  1  0.00000000  0.50000000  0.50000000  1
  Pd  Pd0  1  0.00000000  0.25787900  0.25787900  1
  Pd  Pd1  1  0.00000000  0.74212100  0.74212100  1
loop_
_geom_bond_atom_site_label_1
_geom_bond_atom_site_label_2
_geom_bond_distance
_geom_bond_site_symmetry_2
Ga0 Pd1 2.332197 1_555
Ga0 Pd0 2.332197 1_555
Pd0 Zn0 2.483984 1_555
Pd1 Zn0 2.483984 1_566
