# generated using pymatgen
data_FeAgS2
_symmetry_space_group_name_H-M   'P 1'
_cell_length_a   7.09407078
_cell_length_b   7.09407078
_cell_length_c   7.09407023
_cell_angle_alpha   27.47160211
_cell_angle_beta   27.47160211
_cell_angle_gamma   27.47160491
_symmetry_Int_Tables_number   1
_chemical_formula_structural   FeAgS2
_chemical_formula_sum   'Fe1 Ag1 S2'
_cell_volume   67.05542968
_cell_formula_units_Z   1
loop_
 _symmetry_equiv_pos_site_id
 _symmetry_equiv_pos_as_xyz
  1  'x, y, z'
loop_
 _atom_site_type_symbol
 _atom_site_label
 _atom_site_symmetry_multiplicity
 _atom_site_fract_x
 _atom_site_fract_y
 _atom_site_fract_z
 _atom_site_occupancy
  Fe  Fe0  1  0.99991500  0.99991500  0.99991500  1
  Ag  Ag0  1  0.84395000  0.84395000  0.84395000  1
  S  S0  1  0.72400800  0.72400800  0.72400800  1
  S  S1  1  0.27312700  0.27312700  0.27312700  1
loop_
_geom_bond_atom_site_label_1
_geom_bond_atom_site_label_2
_geom_bond_distance
_geom_bond_site_symmetry_2
Fe0 S0 2.272567 1_556
Fe0 S0 2.272568 1_565
Fe0 S0 2.272568 1_655
Fe0 S1 2.301578 1_665
Fe0 S1 2.301578 1_566
Fe0 S1 2.301578 1_656
Ag0 S0 2.454812 1_555
Ag0 S1 2.762435 1_566
Ag0 S1 2.762435 1_656
Ag0 S1 2.762435 1_665
