# generated using pymatgen
data_NaH12RuC4S2(Cl2O)2
_symmetry_space_group_name_H-M   'P 1'
_cell_length_a   8.19853098
_cell_length_b   12.08353228
_cell_length_c   13.98281642
_cell_angle_alpha   98.50042321
_cell_angle_beta   90.00000000
_cell_angle_gamma   90.00000000
_symmetry_Int_Tables_number   1
_chemical_formula_structural   NaH12RuC4S2(Cl2O)2
_chemical_formula_sum   'Na4 H48 Ru4 C16 S8 Cl16 O8'
_cell_volume   1370.02150020
_cell_formula_units_Z   4
loop_
 _symmetry_equiv_pos_site_id
 _symmetry_equiv_pos_as_xyz
  1  'x, y, z'
loop_
 _atom_site_type_symbol
 _atom_site_label
 _atom_site_symmetry_multiplicity
 _atom_site_fract_x
 _atom_site_fract_y
 _atom_site_fract_z
 _atom_site_occupancy
  Na  Na0  1  0.50271456  0.64350514  0.98495820  1
  Na  Na1  1  0.00271456  0.35649486  0.51504180  1
  Na  Na2  1  0.49728544  0.35649486  0.01504180  1
  Na  Na3  1  0.99728544  0.64350514  0.48495820  1
  H  H0  1  0.72869126  0.69258485  0.24315907  1
  H  H1  1  0.22869126  0.30741515  0.25684093  1
  H  H2  1  0.27130874  0.30741515  0.75684093  1
  H  H3  1  0.77130874  0.69258485  0.74315907  1
  H  H4  1  0.94680327  0.68593551  0.22601432  1
  H  H5  1  0.44680327  0.31406449  0.27398568  1
  H  H6  1  0.05319673  0.31406449  0.77398568  1
  H  H7  1  0.55319673  0.68593551  0.72601432  1
  H  H8  1  0.81902656  0.73777244  0.13726306  1
  H  H9  1  0.31902656  0.26222756  0.36273694  1
  H  H10  1  0.18097344  0.26222756  0.86273694  1
  H  H11  1  0.68097344  0.73777244  0.63726306  1
  H  H12  1  0.75064113  0.48876561  0.27937967  1
  H  H13  1  0.25064113  0.51123439  0.22062033  1
  H  H14  1  0.24935887  0.51123439  0.72062033  1
  H  H15  1  0.74935887  0.48876561  0.77937967  1
  H  H16  1  0.80777054  0.37118980  0.19037446  1
  H  H17  1  0.30777054  0.62881020  0.30962554  1
  H  H18  1  0.19222946  0.62881020  0.80962554  1
  H  H19  1  0.69222946  0.37118980  0.69037446  1
  H  H20  1  0.96127460  0.46699703  0.24519373  1
  H  H21  1  0.46127460  0.53300297  0.25480627  1
  H  H22  1  0.03872540  0.53300297  0.75480627  1
  H  H23  1  0.53872540  0.46699703  0.74519373  1
  H  H24  1  0.31313274  0.84723509  0.71363822  1
  H  H25  1  0.81313274  0.15276491  0.78636178  1
  H  H26  1  0.68686726  0.15276491  0.28636178  1
  H  H27  1  0.18686726  0.84723509  0.21363822  1
  H  H28  1  0.32349358  0.99420790  0.76234652  1
  H  H29  1  0.82349358  0.00579210  0.73765348  1
  H  H30  1  0.67650642  0.00579210  0.23765348  1
  H  H31  1  0.17650642  0.99420790  0.26234652  1
  H  H32  1  0.50739838  0.91330366  0.74757517  1
  H  H33  1  0.00739838  0.08669634  0.75242483  1
  H  H34  1  0.49260162  0.08669634  0.25242483  1
  H  H35  1  0.99260162  0.91330366  0.24757517  1
  H  H36  1  0.08199940  0.83597531  0.83489786  1
  H  H37  1  0.58199940  0.16402469  0.66510214  1
  H  H38  1  0.91800060  0.16402469  0.16510214  1
  H  H39  1  0.41800060  0.83597531  0.33489786  1
  H  H40  1  0.10831215  0.85106345  0.96416597  1
  H  H41  1  0.60831215  0.14893655  0.53583403  1
  H  H42  1  0.89168785  0.14893655  0.03583403  1
  H  H43  1  0.39168785  0.85106345  0.46416597  1
  H  H44  1  0.10402891  0.97332841  0.90545397  1
  H  H45  1  0.60402891  0.02667159  0.59454603  1
  H  H46  1  0.89597109  0.02667159  0.09454603  1
  H  H47  1  0.39597109  0.97332841  0.40545397  1
  Ru  Ru0  1  0.00000000  0.50000000  -0.00000000  1
  Ru  Ru1  1  0.50000000  0.50000000  0.50000000  1
  Ru  Ru2  1  0.50000000  -0.00000000  -0.00000000  1
  Ru  Ru3  1  0.00000000  -0.00000000  0.50000000  1
  C  C0  1  0.82779674  0.67917605  0.18989129  1
  C  C1  1  0.32779674  0.32082395  0.31010871  1
  C  C2  1  0.17220326  0.32082395  0.81010871  1
  C  C3  1  0.67220326  0.67917605  0.68989129  1
  C  C4  1  0.83464473  0.45834627  0.22015857  1
  C  C5  1  0.33464473  0.54165373  0.27984143  1
  C  C6  1  0.16535527  0.54165373  0.77984143  1
  C  C7  1  0.66535527  0.45834627  0.72015857  1
  C  C8  1  0.37670437  0.91149072  0.76381986  1
  C  C9  1  0.87670437  0.08850928  0.73618014  1
  C  C10  1  0.62329563  0.08850928  0.23618014  1
  C  C11  1  0.12329563  0.91149072  0.26381986  1
  C  C12  1  0.13969299  0.88520418  0.89811779  1
  C  C13  1  0.63969299  0.11479582  0.60188221  1
  C  C14  1  0.86030701  0.11479582  0.10188221  1
  C  C15  1  0.36030701  0.88520418  0.39811779  1
  S  S0  1  0.80652704  0.54047653  0.12505413  1
  S  S1  1  0.30652704  0.45952347  0.37494587  1
  S  S2  1  0.19347296  0.45952347  0.87494587  1
  S  S3  1  0.69347296  0.54047653  0.62505413  1
  S  S4  1  0.35708383  0.87527965  0.88333770  1
  S  S5  1  0.85708383  0.12472035  0.61666230  1
  S  S6  1  0.64291617  0.12472035  0.11666230  1
  S  S7  1  0.14291617  0.87527965  0.38333770  1
  Cl  Cl0  1  0.17838554  0.64314719  0.07227884  1
  Cl  Cl1  1  0.67838554  0.35685281  0.42772116  1
  Cl  Cl2  1  0.82161446  0.35685281  0.92772116  1
  Cl  Cl3  1  0.32161446  0.64314719  0.57227884  1
  Cl  Cl4  1  0.14594585  0.36417206  0.07312330  1
  Cl  Cl5  1  0.64594585  0.63582794  0.42687670  1
  Cl  Cl6  1  0.85405415  0.63582794  0.92687670  1
  Cl  Cl7  1  0.35405415  0.36417206  0.57312330  1
  Cl  Cl8  1  0.73583560  0.92956971  0.91527666  1
  Cl  Cl9  1  0.23583560  0.07043029  0.58472334  1
  Cl  Cl10  1  0.26416440  0.07043029  0.08472334  1
  Cl  Cl11  1  0.76416440  0.92956971  0.41527666  1
  Cl  Cl12  1  0.48175801  0.14435567  0.90036229  1
  Cl  Cl13  1  0.98175801  0.85564433  0.59963771  1
  Cl  Cl14  1  0.51824199  0.85564433  0.09963771  1
  Cl  Cl15  1  0.01824199  0.14435567  0.40036229  1
  O  O0  1  0.63014803  0.52825118  0.09479677  1
  O  O1  1  0.13014803  0.47174882  0.40520323  1
  O  O2  1  0.36985197  0.47174882  0.90520323  1
  O  O3  1  0.86985197  0.52825118  0.59479677  1
  O  O4  1  0.40044655  0.75418075  0.87530535  1
  O  O5  1  0.90044655  0.24581925  0.62469465  1
  O  O6  1  0.59955345  0.24581925  0.12469465  1
  O  O7  1  0.09955345  0.75418075  0.37530535  1
loop_
_geom_bond_atom_site_label_1
_geom_bond_atom_site_label_2
_geom_bond_distance
_geom_bond_site_symmetry_2
Na0 O4 2.334218 1_555
Na0 O0 2.454031 1_556
Na0 O2 2.460352 1_555
Na1 O5 2.334218 1_455
Na1 O1 2.454031 1_555
Na1 O3 2.460352 1_455
Na2 O6 2.334218 1_555
Na2 O2 2.454031 1_554
Na2 O0 2.460352 1_555
Na3 O7 2.334218 1_655
Na3 O3 2.454031 1_555
Na3 O1 2.460352 1_655
Ru0 S2 2.357970 1_554
Ru0 S0 2.357970 1_455
Ru1 S1 2.357970 1_555
Ru1 S3 2.357970 1_555
Ru2 S4 2.361856 1_544
Ru2 S6 2.361856 1_555
Ru3 S7 2.361856 1_545
Ru3 S5 2.361856 1_455
C0 H4 1.096153 1_555
C0 H8 1.096395 1_555
C0 H0 1.097971 1_555
C1 H5 1.096153 1_555
C1 H9 1.096395 1_555
C1 H1 1.097971 1_555
C2 H6 1.096153 1_555
C2 H10 1.096395 1_555
C2 H2 1.097971 1_555
C3 H7 1.096153 1_555
C3 H11 1.096395 1_555
C3 H3 1.097971 1_555
C4 H20 1.095659 1_555
C4 H16 1.096113 1_555
C4 H12 1.097795 1_555
C5 H21 1.095659 1_555
C5 H17 1.096113 1_555
C5 H13 1.097795 1_555
C6 H22 1.095659 1_555
C6 H18 1.096113 1_555
C6 H14 1.097795 1_555
C7 H23 1.095659 1_555
C7 H19 1.096113 1_555
C7 H15 1.097795 1_555
C8 H28 1.093553 1_555
C8 H32 1.096201 1_555
C8 H24 1.098083 1_555
C9 H29 1.093553 1_555
C9 H33 1.096201 1_655
C9 H25 1.098083 1_555
C10 H30 1.093553 1_555
C10 H34 1.096201 1_555
C10 H26 1.098083 1_555
C11 H31 1.093553 1_555
C11 H35 1.096201 1_455
C11 H27 1.098083 1_555
C12 H44 1.094364 1_555
C12 H40 1.096331 1_555
C12 H36 1.097074 1_555
C13 H45 1.094364 1_555
C13 H41 1.096331 1_555
C13 H37 1.097074 1_555
C14 H46 1.094364 1_555
C14 H42 1.096331 1_555
C14 H38 1.097074 1_555
C15 H47 1.094364 1_555
C15 H43 1.096331 1_555
C15 H39 1.097074 1_555
Cl0 Ru0 2.373914 1_555
Cl0 Na0 2.926224 1_554
Cl1 Ru1 2.373914 1_555
Cl1 Na1 2.926224 1_655
Cl2 Ru0 2.373914 1_656
Cl2 Na2 2.926224 1_556
Cl3 Ru1 2.373914 1_555
Cl3 Na3 2.926224 1_455
Cl4 Ru0 2.380563 1_555
Cl4 Na2 2.990486 1_555
Cl5 Ru1 2.380563 1_555
Cl5 Na3 2.990486 1_555
Cl6 Ru0 2.380563 1_656
Cl6 Na0 2.990486 1_555
Cl7 Ru1 2.380563 1_555
Cl7 Na1 2.990486 1_555
Cl8 Ru2 2.359684 1_566
Cl9 Ru3 2.359684 1_555
Cl10 Ru2 2.359684 1_555
Cl11 Ru3 2.359684 1_665
Cl12 Ru2 2.392603 1_556
Cl12 Na2 2.818390 1_556
Cl13 Ru3 2.392603 1_665
Cl13 Na3 2.818390 1_555
Cl14 Ru2 2.392603 1_565
Cl14 Na0 2.818390 1_554
Cl15 Ru3 2.392603 1_555
Cl15 Na1 2.818390 1_555
O0 S0 1.507781 1_555
O1 S1 1.507781 1_555
O2 S2 1.507781 1_555
O3 S3 1.507781 1_555
O4 S4 1.493877 1_555
O5 S5 1.493877 1_555
O6 S6 1.493877 1_555
O7 S7 1.493877 1_555
