# generated using pymatgen
data_Nd4MgNi
_symmetry_space_group_name_H-M   'P 1'
_cell_length_a   9.90810540
_cell_length_b   9.90810000
_cell_length_c   9.90809566
_cell_angle_alpha   60.00102012
_cell_angle_beta   60.00100987
_cell_angle_gamma   60.00101523
_symmetry_Int_Tables_number   1
_chemical_formula_structural   Nd4MgNi
_chemical_formula_sum   'Nd16 Mg4 Ni4'
_cell_volume   687.80635889
_cell_formula_units_Z   4
loop_
 _symmetry_equiv_pos_site_id
 _symmetry_equiv_pos_as_xyz
  1  'x, y, z'
loop_
 _atom_site_type_symbol
 _atom_site_label
 _atom_site_symmetry_multiplicity
 _atom_site_fract_x
 _atom_site_fract_y
 _atom_site_fract_z
 _atom_site_occupancy
  Nd  Nd0  1  0.81056227  0.18944010  0.18943884  1
  Nd  Nd1  1  0.18944083  0.81056371  0.81055635  1
  Nd  Nd2  1  0.18944042  0.81055917  0.18944043  1
  Nd  Nd3  1  0.81056593  0.18944068  0.81055488  1
  Nd  Nd4  1  0.18944015  0.18944130  0.81055585  1
  Nd  Nd5  1  0.81056257  0.81055892  0.18944003  1
  Nd  Nd6  1  0.93668067  0.56331882  0.56332103  1
  Nd  Nd7  1  0.56331981  0.93668156  0.93667981  1
  Nd  Nd8  1  0.56331853  0.93667932  0.56332108  1
  Nd  Nd9  1  0.93668312  0.56332012  0.93667760  1
  Nd  Nd10  1  0.56331977  0.56332001  0.93667799  1
  Nd  Nd11  1  0.93668215  0.93667897  0.56332029  1
  Nd  Nd12  1  0.34556564  0.34556865  0.34557428  1
  Nd  Nd13  1  0.34556667  0.34557113  0.96329252  1
  Nd  Nd14  1  0.34556553  0.96329260  0.34557386  1
  Nd  Nd15  1  0.96329341  0.34556745  0.34557231  1
  Mg  Mg0  1  0.57875981  0.57876049  0.57876019  1
  Mg  Mg1  1  0.57875477  0.57875532  0.26373015  1
  Mg  Mg2  1  0.57875462  0.26373026  0.57875522  1
  Mg  Mg3  1  0.26372865  0.57875550  0.57875538  1
  Ni  Ni0  1  0.14218164  0.14218149  0.14218267  1
  Ni  Ni1  1  0.14218368  0.14218326  0.57345115  1
  Ni  Ni2  1  0.14218407  0.57345056  0.14218544  1
  Ni  Ni3  1  0.57344729  0.14218461  0.14218662  1
loop_
_geom_bond_atom_site_label_1
_geom_bond_atom_site_label_2
_geom_bond_distance
_geom_bond_site_symmetry_2
Nd0 Ni0 2.894272 1_655
Nd0 Ni3 2.894298 1_555
Nd0 Nd9 3.711991 1_554
Nd0 Nd11 3.711997 1_545
Nd0 Nd10 3.712021 1_554
Nd0 Nd8 3.712034 1_545
Nd1 Ni1 2.894301 1_565
Nd1 Ni2 2.894388 1_556
Nd1 Nd11 3.711927 1_455
Nd1 Nd8 3.711946 1_555
Nd1 Nd9 3.711962 1_455
Nd1 Nd10 3.711986 1_555
Nd2 Ni2 2.894259 1_555
Nd2 Ni0 2.894293 1_565
Nd2 Nd7 3.711994 1_554
Nd2 Nd6 3.712007 1_455
Nd3 Ni1 2.894286 1_655
Nd3 Ni3 2.894422 1_556
Nd3 Nd6 3.711944 1_555
Nd3 Nd7 3.711982 1_545
Nd4 Ni1 2.894241 1_555
Nd4 Ni0 2.894329 1_556
Nd4 Nd6 3.711969 1_455
Nd4 Nd8 3.711983 1_545
Nd4 Nd9 3.711984 1_455
Nd4 Nd7 3.712004 1_545
Nd5 Ni2 2.894325 1_655
Nd5 Ni3 2.894374 1_565
Nd5 Nd9 3.711961 1_554
Nd5 Nd7 3.711970 1_554
Nd5 Nd6 3.711983 1_555
Nd5 Nd8 3.711994 1_555
Nd6 Ni2 3.585617 1_655
Nd6 Ni1 3.585623 1_655
Nd6 Nd9 3.699271 1_555
Nd6 Nd8 3.699359 1_555
Nd7 Ni3 3.585588 1_566
Nd7 Ni0 3.585650 1_566
Nd7 Nd8 3.699291 1_555
Nd7 Nd9 3.699370 1_555
Nd8 Ni3 3.585616 1_565
Nd8 Ni1 3.585619 1_565
Nd9 Ni2 3.585597 1_656
Nd9 Ni0 3.585654 1_656
Nd10 Ni2 3.585625 1_556
Nd10 Ni3 3.585629 1_556
Nd10 Nd13 3.591097 1_555
Nd10 Nd12 3.591223 1_556
Nd10 Nd7 3.699313 1_555
Nd10 Nd9 3.699322 1_555
Nd10 Nd8 3.699326 1_555
Nd10 Nd6 3.699334 1_555
Nd10 Nd3 3.711994 1_555
Nd10 Nd2 3.712010 1_556
Nd11 Ni1 3.585575 1_665
Nd11 Ni0 3.585643 1_665
Nd11 Nd14 3.591110 1_655
Nd11 Nd15 3.591144 1_565
Nd11 Nd6 3.699293 1_555
Nd11 Nd8 3.699320 1_555
Nd11 Nd9 3.699325 1_555
Nd11 Nd7 3.699354 1_555
Nd11 Nd3 3.711935 1_565
Nd11 Nd2 3.711982 1_655
Nd12 Ni1 2.860188 1_555
Nd12 Ni2 2.860212 1_555
Nd12 Ni3 2.860220 1_555
Nd12 Nd6 3.591136 1_455
Nd12 Nd8 3.591168 1_545
Nd13 Ni2 2.860217 1_556
Nd13 Ni0 2.860233 1_556
Nd13 Ni3 2.860235 1_556
Nd13 Nd9 3.591116 1_455
Nd13 Nd7 3.591158 1_545
Nd14 Ni1 2.860186 1_565
Nd14 Ni3 2.860230 1_565
Nd14 Ni0 2.860236 1_565
Nd14 Nd8 3.591087 1_555
Nd14 Nd7 3.591189 1_554
Nd15 Ni1 2.860196 1_655
Nd15 Ni2 2.860231 1_655
Nd15 Ni0 2.860239 1_655
Nd15 Nd6 3.591088 1_555
Nd15 Nd9 3.591193 1_554
Mg0 Mg1 3.121398 1_555
Mg0 Mg2 3.121401 1_555
Mg0 Mg3 3.121410 1_555
Mg0 Nd10 3.400195 1_555
Mg0 Nd8 3.400207 1_555
Mg0 Nd6 3.400227 1_555
Mg0 Nd14 3.595202 1_555
Mg0 Nd15 3.595209 1_555
Mg0 Nd13 3.595211 1_555
Mg0 Nd1 3.603586 1_555
Mg0 Nd3 3.603596 1_555
Mg0 Nd5 3.603598 1_555
Mg1 Mg2 3.121347 1_555
Mg1 Mg3 3.121354 1_555
Mg1 Nd10 3.400278 1_554
Mg1 Nd7 3.400348 1_554
Mg1 Nd9 3.400370 1_554
Mg1 Nd12 3.595121 1_555
Mg1 Nd14 3.595205 1_555
Mg1 Nd15 3.595211 1_555
Mg1 Nd2 3.603567 1_555
Mg1 Nd0 3.603579 1_555
Mg1 Nd5 3.603586 1_555
Mg2 Mg3 3.121354 1_555
Mg2 Nd8 3.400267 1_545
Mg2 Nd7 3.400331 1_545
Mg2 Nd11 3.400360 1_545
Mg2 Nd12 3.595095 1_555
Mg2 Nd13 3.595191 1_555
Mg2 Nd15 3.595191 1_555
Mg2 Nd4 3.603565 1_555
Mg2 Nd0 3.603583 1_555
Mg2 Nd3 3.603584 1_555
Mg3 Nd6 3.400244 1_455
Mg3 Nd9 3.400305 1_455
Mg3 Nd11 3.400317 1_455
Mg3 Nd12 3.595082 1_555
Mg3 Nd14 3.595174 1_555
Mg3 Nd13 3.595178 1_555
Mg3 Nd4 3.603559 1_555
Mg3 Nd2 3.603563 1_555
Mg3 Nd1 3.603575 1_555
