# generated using pymatgen
data_MnAu4
_symmetry_space_group_name_H-M   'P 1'
_cell_length_a   4.00211736
_cell_length_b   5.03359048
_cell_length_c   5.03185636
_cell_angle_alpha   80.94920275
_cell_angle_beta   66.56689943
_cell_angle_gamma   66.57544167
_symmetry_Int_Tables_number   1
_chemical_formula_structural   MnAu4
_chemical_formula_sum   'Mn1 Au4'
_cell_volume   85.34137780
_cell_formula_units_Z   1
loop_
 _symmetry_equiv_pos_site_id
 _symmetry_equiv_pos_as_xyz
  1  'x, y, z'
loop_
 _atom_site_type_symbol
 _atom_site_label
 _atom_site_symmetry_multiplicity
 _atom_site_fract_x
 _atom_site_fract_y
 _atom_site_fract_z
 _atom_site_occupancy
  Mn  Mn0  1  0.00000000  -0.00000000  -0.00000000  1
  Au  Au0  1  0.20461174  0.19384330  0.39693323  1
  Au  Au1  1  0.60146860  0.60315080  0.19391000  1
  Au  Au2  1  0.39853140  0.39684920  0.80609000  1
  Au  Au3  1  0.79538826  0.80615670  0.60306677  1
loop_
_geom_bond_atom_site_label_1
_geom_bond_atom_site_label_2
_geom_bond_distance
_geom_bond_site_symmetry_2
Au0 Au3 2.849466 1_545
Au0 Au3 2.849466 1_445
Au0 Mn0 2.856768 1_655
Au0 Mn0 2.856769 1_555
Au0 Au1 2.883958 1_545
Au0 Au2 2.885309 1_554
Au0 Au2 2.906624 1_455
Au0 Au2 2.906630 1_555
Au0 Au1 2.908615 1_555
Au0 Au1 2.908620 1_455
Au0 Mn0 2.925473 1_556
Au0 Au3 2.983112 1_455
Au1 Au2 2.848663 1_554
Au1 Au2 2.848674 1_654
Au1 Mn0 2.858048 1_565
Au1 Mn0 2.858054 1_665
Au1 Au3 2.885309 1_554
Au1 Au3 2.906624 1_455
Au1 Au3 2.906630 1_555
Au1 Mn0 2.925323 1_655
Au1 Au2 2.983483 1_555
Au2 Mn0 2.858048 1_656
Au2 Mn0 2.858054 1_556
Au2 Au3 2.883958 1_545
Au2 Au3 2.908615 1_555
Au2 Au3 2.908620 1_455
Au2 Mn0 2.925323 1_566
Au3 Mn0 2.856768 1_566
Au3 Mn0 2.856769 1_666
Au3 Mn0 2.925473 1_665
