# generated using pymatgen
data_Hg3Bi2(SCl4)2
_symmetry_space_group_name_H-M   'P 1'
_cell_length_a   7.64867800
_cell_length_b   7.64867800
_cell_length_c   9.52491249
_cell_angle_alpha   67.20974476
_cell_angle_beta   67.20974476
_cell_angle_gamma   59.37032206
_symmetry_Int_Tables_number   1
_chemical_formula_structural   Hg3Bi2(SCl4)2
_chemical_formula_sum   'Hg3 Bi2 S2 Cl8'
_cell_volume   429.18323217
_cell_formula_units_Z   1
loop_
 _symmetry_equiv_pos_site_id
 _symmetry_equiv_pos_as_xyz
  1  'x, y, z'
loop_
 _atom_site_type_symbol
 _atom_site_label
 _atom_site_symmetry_multiplicity
 _atom_site_fract_x
 _atom_site_fract_y
 _atom_site_fract_z
 _atom_site_occupancy
  Hg  Hg0  1  0.00000000  0.50000000  0.00000000  1
  Hg  Hg1  1  0.50000000  0.00000000  0.00000000  1
  Hg  Hg2  1  0.50000000  0.50000000  0.00000000  1
  Bi  Bi0  1  0.12674500  0.12674500  0.57394400  1
  Bi  Bi1  1  0.87325500  0.87325500  0.42605600  1
  S  S0  1  0.62478200  0.62478200  0.12480400  1
  S  S1  1  0.37521800  0.37521800  0.87519600  1
  Cl  Cl0  1  0.23951000  0.76049000  0.50000000  1
  Cl  Cl1  1  0.76049000  0.23951000  0.50000000  1
  Cl  Cl2  1  0.92746200  0.45942700  0.71035400  1
  Cl  Cl3  1  0.45942700  0.92746200  0.71035400  1
  Cl  Cl4  1  0.07253800  0.54057300  0.28964600  1
  Cl  Cl5  1  0.54057300  0.07253800  0.28964600  1
  Cl  Cl6  1  0.95107000  0.95107000  0.85001600  1
  Cl  Cl7  1  0.04893000  0.04893000  0.14998400  1
loop_
_geom_bond_atom_site_label_1
_geom_bond_atom_site_label_2
_geom_bond_distance
_geom_bond_site_symmetry_2
Hg0 S1 2.450579 1_554
Hg0 S0 2.450579 1_455
Hg1 S1 2.450579 1_554
Hg1 S0 2.450579 1_545
Hg2 S0 2.433325 1_555
Hg2 S1 2.433325 1_554
Bi0 Cl6 2.625011 1_445
Bi0 Cl3 2.749774 1_545
Bi0 Cl2 2.749774 1_455
Bi0 Cl0 2.771915 1_545
Bi0 Cl1 2.771915 1_455
Bi1 Cl7 2.625011 1_665
Bi1 Cl4 2.749774 1_655
Bi1 Cl5 2.749774 1_565
Bi1 Cl1 2.771915 1_565
Bi1 Cl0 2.771915 1_655
Cl6 Hg0 3.060090 1_656
Cl6 Hg1 3.060090 1_566
Cl7 Hg0 3.060090 1_555
Cl7 Hg1 3.060090 1_555
