# generated using pymatgen
data_Na(WO3)3
_symmetry_space_group_name_H-M   'P 1'
_cell_length_a   5.41459220
_cell_length_b   5.41459220
_cell_length_c   6.63508347
_cell_angle_alpha   90.00000000
_cell_angle_beta   90.00000000
_cell_angle_gamma   120.00001445
_symmetry_Int_Tables_number   1
_chemical_formula_structural   Na(WO3)3
_chemical_formula_sum   'Na1 W3 O9'
_cell_volume   168.46452671
_cell_formula_units_Z   1
loop_
 _symmetry_equiv_pos_site_id
 _symmetry_equiv_pos_as_xyz
  1  'x, y, z'
loop_
 _atom_site_type_symbol
 _atom_site_label
 _atom_site_symmetry_multiplicity
 _atom_site_fract_x
 _atom_site_fract_y
 _atom_site_fract_z
 _atom_site_occupancy
  Na  Na0  1  -0.00000000  -0.00000000  0.00000000  1
  W  W0  1  -0.00000000  -0.00000000  0.50000000  1
  W  W1  1  0.66666700  0.33333300  0.82982889  1
  W  W2  1  0.33333300  0.66666700  0.17017111  1
  O  O0  1  0.83508929  0.16491071  0.67004800  1
  O  O1  1  0.50000000  0.50000000  0.00000000  1
  O  O2  1  0.16491071  0.83508929  0.32995200  1
  O  O3  1  0.67017858  0.83508929  0.32995200  1
  O  O4  1  0.32982142  0.16491071  0.67004800  1
  O  O5  1  -0.00000000  0.50000000  0.00000000  1
  O  O6  1  0.83508929  0.67017858  0.67004800  1
  O  O7  1  0.50000000  -0.00000000  0.00000000  1
  O  O8  1  0.16491071  0.32982142  0.32995200  1
loop_
_geom_bond_atom_site_label_1
_geom_bond_atom_site_label_2
_geom_bond_distance
_geom_bond_site_symmetry_2
Na0 O3 2.680447 1_445
Na0 O8 2.680447 1_555
Na0 O4 2.680447 1_554
Na0 O6 2.680447 1_444
Na0 O2 2.680447 1_545
Na0 O0 2.680447 1_454
Na0 O1 2.707296 1_445
Na0 O1 2.707296 1_555
Na0 O7 2.707296 1_455
Na0 O7 2.707296 1_555
Na0 O5 2.707296 1_545
Na0 O5 2.707296 1_555
O0 W1 1.902323 1_555
O0 W0 1.914409 1_655
O1 W1 1.928218 1_554
O1 W2 1.928218 1_555
O2 W2 1.902323 1_555
O2 W0 1.914409 1_565
O3 W2 1.902326 1_555
O3 W0 1.914409 1_665
O4 W1 1.902326 1_555
O4 W0 1.914409 1_555
O5 W1 1.928214 1_454
O5 W2 1.928214 1_555
O6 W1 1.902326 1_555
O6 W0 1.914409 1_665
O7 W1 1.928214 1_554
O7 W2 1.928214 1_545
O8 W2 1.902326 1_555
O8 W0 1.914409 1_555
