# generated using pymatgen
data_Dy2Co3Si5
_symmetry_space_group_name_H-M   'P 1'
_cell_length_a   5.54201400
_cell_length_b   7.84432211
_cell_length_c   7.84432211
_cell_angle_alpha   75.16900534
_cell_angle_beta   69.31376933
_cell_angle_gamma   69.31376933
_symmetry_Int_Tables_number   1
_chemical_formula_structural   Dy2Co3Si5
_chemical_formula_sum   'Dy4 Co6 Si10'
_cell_volume   295.09295318
_cell_formula_units_Z   2
loop_
 _symmetry_equiv_pos_site_id
 _symmetry_equiv_pos_as_xyz
  1  'x, y, z'
loop_
 _atom_site_type_symbol
 _atom_site_label
 _atom_site_symmetry_multiplicity
 _atom_site_fract_x
 _atom_site_fract_y
 _atom_site_fract_z
 _atom_site_occupancy
  Dy  Dy0  1  0.86724700  0.86809500  0.39741200  1
  Dy  Dy1  1  0.13275300  0.13190500  0.60258800  1
  Dy  Dy2  1  0.36724700  0.39741200  0.86809500  1
  Dy  Dy3  1  0.63275300  0.60258800  0.13190500  1
  Co  Co0  1  0.25000000  0.00000000  0.00000000  1
  Co  Co1  1  0.75000000  0.00000000  0.00000000  1
  Co  Co2  1  0.63618500  0.25171200  0.47591700  1
  Co  Co3  1  0.36381500  0.74828800  0.52408300  1
  Co  Co4  1  0.13618500  0.47591700  0.25171200  1
  Co  Co5  1  0.86381500  0.52408300  0.74828800  1
  Si  Si0  1  0.25000000  0.50000000  0.50000000  1
  Si  Si1  1  0.75000000  0.50000000  0.50000000  1
  Si  Si2  1  0.01876200  0.23123800  0.23123800  1
  Si  Si3  1  0.48123800  0.76876200  0.76876200  1
  Si  Si4  1  0.98123800  0.76876200  0.76876200  1
  Si  Si5  1  0.51876200  0.23123800  0.23123800  1
  Si  Si6  1  0.60287800  0.05253600  0.74170900  1
  Si  Si7  1  0.39712200  0.94746400  0.25829100  1
  Si  Si8  1  0.10287800  0.74170900  0.05253600  1
  Si  Si9  1  0.89712200  0.25829100  0.94746400  1
loop_
_geom_bond_atom_site_label_1
_geom_bond_atom_site_label_2
_geom_bond_distance
_geom_bond_site_symmetry_2
Dy0 Si8 2.823014 1_655
Dy0 Si7 2.980232 1_655
Dy0 Si7 2.980243 1_555
Dy0 Si0 3.028823 1_655
Dy0 Si1 3.028825 1_555
Dy0 Si6 3.039942 1_565
Dy0 Si4 3.046657 1_555
Dy0 Si3 3.046659 1_555
Dy0 Si2 3.087803 1_665
Dy0 Si5 3.087805 1_565
Dy1 Si9 2.823014 1_455
Dy1 Si6 2.980232 1_455
Dy1 Si6 2.980243 1_555
Dy1 Si1 3.028823 1_455
Dy1 Si0 3.028825 1_555
Dy1 Si7 3.039942 1_545
Dy1 Si2 3.046657 1_555
Dy1 Si5 3.046659 1_555
Dy1 Si4 3.087803 1_445
Dy1 Si3 3.087805 1_545
Dy2 Si6 2.823014 1_555
Dy2 Si9 2.980232 1_555
Dy2 Si9 2.980243 1_455
Dy2 Si1 3.028823 1_555
Dy2 Si0 3.028825 1_555
Dy2 Si8 3.039942 1_556
Dy2 Si3 3.046657 1_555
Dy2 Si4 3.046659 1_455
Dy2 Si5 3.087803 1_556
Dy2 Si2 3.087805 1_556
Dy3 Si7 2.823014 1_555
Dy3 Si8 2.980232 1_555
Dy3 Si8 2.980243 1_655
Dy3 Si0 3.028823 1_555
Dy3 Si1 3.028825 1_555
Dy3 Si9 3.039942 1_554
Dy3 Si5 3.046657 1_555
Dy3 Si2 3.046659 1_655
Dy3 Si3 3.087803 1_554
Dy3 Si4 3.087805 1_554
Co0 Si7 2.332825 1_545
Co0 Si8 2.332825 1_545
Co0 Si9 2.332828 1_454
Co0 Si6 2.332828 1_554
Co0 Si2 2.573442 1_555
Co0 Si3 2.573442 1_544
Co0 Co1 2.771007 1_455
Co0 Co1 2.771007 1_555
Co0 Dy3 3.242835 1_545
Co0 Dy0 3.242835 1_445
Co0 Dy1 3.242838 1_554
Co0 Dy2 3.242838 1_554
Co1 Si9 2.332825 1_554
Co1 Si6 2.332825 1_554
Co1 Si7 2.332828 1_545
Co1 Si8 2.332828 1_645
Co1 Si5 2.573442 1_555
Co1 Si4 2.573442 1_544
Co1 Dy1 3.242835 1_654
Co1 Dy2 3.242835 1_554
Co1 Dy0 3.242838 1_545
Co1 Dy3 3.242838 1_545
Co2 Si6 2.255308 1_555
Co2 Si5 2.290685 1_555
Co2 Si2 2.290689 1_655
Co2 Si0 2.316759 1_555
Co2 Si1 2.316762 1_555
Co2 Dy0 2.956942 1_545
Co2 Dy1 3.011747 1_555
Co2 Dy1 3.011747 1_655
Co3 Si7 2.255308 1_555
Co3 Si3 2.290685 1_555
Co3 Si4 2.290689 1_455
Co3 Si1 2.316759 1_555
Co3 Si0 2.316762 1_555
Co3 Dy1 2.956942 1_565
Co3 Dy0 3.011747 1_455
Co3 Dy0 3.011747 1_555
Co4 Si8 2.255308 1_555
Co4 Si2 2.290685 1_555
Co4 Si5 2.290689 1_555
Co4 Si1 2.316759 1_455
Co4 Si0 2.316762 1_555
Co4 Dy2 2.956942 1_554
Co4 Dy3 3.011747 1_455
Co4 Dy3 3.011747 1_555
Co5 Si9 2.255308 1_555
Co5 Si4 2.290685 1_555
Co5 Si3 2.290689 1_555
Co5 Si0 2.316759 1_655
Co5 Si1 2.316762 1_555
Co5 Dy3 2.956942 1_556
Co5 Dy2 3.011747 1_655
Co5 Dy2 3.011747 1_555
Si2 Si7 2.484331 1_545
Si2 Si9 2.484334 1_454
Si2 Si5 2.771007 1_555
Si2 Si5 2.771007 1_455
Si3 Si8 2.484331 1_556
Si3 Si6 2.484334 1_565
Si3 Si4 2.771007 1_455
Si3 Si4 2.771007 1_555
Si4 Si6 2.484331 1_565
Si4 Si8 2.484334 1_656
Si5 Si9 2.484331 1_554
Si5 Si7 2.484334 1_545
