# generated using pymatgen
data_BaLa7Mg5Nb3O24
_symmetry_space_group_name_H-M   'P 1'
_cell_length_a   9.90075846
_cell_length_b   9.90075846
_cell_length_c   9.89284332
_cell_angle_alpha   80.28095748
_cell_angle_beta   80.28095748
_cell_angle_gamma   33.39726791
_symmetry_Int_Tables_number   1
_chemical_formula_structural   BaLa7Mg5Nb3O24
_chemical_formula_sum   'Ba1 La7 Mg5 Nb3 O24'
_cell_volume   525.43179760
_cell_formula_units_Z   1
loop_
 _symmetry_equiv_pos_site_id
 _symmetry_equiv_pos_as_xyz
  1  'x, y, z'
loop_
 _atom_site_type_symbol
 _atom_site_label
 _atom_site_symmetry_multiplicity
 _atom_site_fract_x
 _atom_site_fract_y
 _atom_site_fract_z
 _atom_site_occupancy
  Ba  Ba0  1  0.68713500  0.68713500  0.43354700  1
  La  La0  1  0.55450000  0.55450000  0.81378200  1
  La  La1  1  0.06538800  0.06538800  0.32304200  1
  La  La2  1  0.82397700  0.82397700  0.04652300  1
  La  La3  1  0.31993600  0.31993600  0.58979500  1
  La  La4  1  0.19362500  0.19362500  0.94097200  1
  La  La5  1  0.93000000  0.93000000  0.69141300  1
  La  La6  1  0.43188300  0.43188300  0.17137200  1
  Mg  Mg0  1  0.00206900  0.00206900  0.99948300  1
  Mg  Mg1  1  0.49879600  0.49879600  0.50104100  1
  Mg  Mg2  1  0.37563000  0.37563000  0.87904400  1
  Mg  Mg3  1  0.25062300  0.25062300  0.24763900  1
  Mg  Mg4  1  0.74921600  0.74921600  0.75226800  1
  Nb  Nb0  1  0.12520200  0.12520200  0.62726800  1
  Nb  Nb1  1  0.62421400  0.62421400  0.11977800  1
  Nb  Nb2  1  0.87459300  0.87459300  0.37611900  1
  O  O0  1  0.30865100  0.83344300  0.52990100  1
  O  O1  1  0.03933100  0.03933100  0.78379500  1
  O  O2  1  0.20678400  0.20678400  0.46571000  1
  O  O3  1  0.83344300  0.30865100  0.52990100  1
  O  O4  1  0.92967200  0.41029100  0.21100500  1
  O  O5  1  0.07003100  0.58504000  0.27290500  1
  O  O6  1  0.82057600  0.33397300  0.01725400  1
  O  O7  1  0.54104100  0.54104100  0.28049500  1
  O  O8  1  0.71016700  0.71016700  0.96550300  1
  O  O9  1  0.58504000  0.07003100  0.27290500  1
  O  O10  1  0.41029100  0.92967200  0.21100500  1
  O  O11  1  0.33397300  0.82057600  0.01725400  1
  O  O12  1  0.57588800  0.07246400  0.77862300  1
  O  O13  1  0.41944200  0.92494200  0.72414800  1
  O  O14  1  0.67705400  0.17722100  0.98034500  1
  O  O15  1  0.29013900  0.29013900  0.04222100  1
  O  O16  1  0.45799800  0.45799800  0.70912400  1
  O  O17  1  0.07246400  0.57588800  0.77862300  1
  O  O18  1  0.92494200  0.41944200  0.72414800  1
  O  O19  1  0.17722100  0.67705400  0.98034500  1
  O  O20  1  0.17223100  0.67468300  0.47412800  1
  O  O21  1  0.79973100  0.79973100  0.54158900  1
  O  O22  1  0.96241900  0.96241900  0.22186300  1
  O  O23  1  0.67468300  0.17223100  0.47412800  1
loop_
_geom_bond_atom_site_label_1
_geom_bond_atom_site_label_2
_geom_bond_distance
_geom_bond_site_symmetry_2
Ba0 O21 2.550999 1_555
Ba0 O0 2.691760 1_555
Ba0 O3 2.691760 1_555
Ba0 O10 2.718172 1_555
Ba0 O4 2.718172 1_555
Ba0 O2 2.893987 1_655
Ba0 O2 2.893987 1_565
La0 O16 2.256100 1_555
La0 O11 2.541898 1_556
La0 O6 2.541898 1_556
La0 O18 2.671959 1_555
La0 O13 2.671959 1_555
La0 O1 2.879947 1_655
La0 O1 2.879947 1_565
La0 O14 3.028078 1_555
La0 O19 3.028078 1_555
La0 O0 3.147030 1_555
La0 O3 3.147030 1_555
La1 O22 2.346277 1_445
La1 O0 2.470714 1_545
La1 O3 2.470714 1_455
La1 O4 2.501650 1_455
La1 O10 2.501650 1_545
La2 O14 2.414537 1_564
La2 O19 2.414537 1_654
La2 O8 2.431408 1_554
La2 O9 2.641426 1_565
La2 O5 2.641426 1_655
La2 O15 2.918315 1_655
La2 O15 2.918315 1_565
La2 O17 3.002704 1_654
La2 O12 3.002704 1_564
La3 O12 2.366460 1_555
La3 O17 2.366460 1_555
La3 O20 2.532915 1_555
La3 O23 2.532915 1_555
La3 O2 2.653535 1_555
La4 O15 2.236167 1_556
La4 O6 2.642998 1_456
La4 O11 2.642998 1_546
La4 O13 2.655693 1_545
La4 O18 2.655693 1_455
La4 O8 2.877048 1_545
La4 O8 2.877048 1_455
La4 O4 2.963893 1_456
La4 O10 2.963893 1_546
La4 O17 3.059387 1_555
La4 O12 3.059387 1_555
La5 O1 2.408982 1_665
La5 O12 2.481556 1_565
La5 O17 2.481556 1_655
La5 O20 2.594914 1_655
La5 O23 2.594914 1_565
La6 O14 2.379361 1_554
La6 O19 2.379361 1_554
La6 O7 2.497910 1_555
La6 O5 2.524211 1_555
La6 O9 2.524211 1_555
Mg0 O19 2.043312 1_545
Mg0 O14 2.043312 1_455
Mg0 O6 2.070521 1_456
Mg0 O11 2.070521 1_546
Mg0 O1 2.126232 1_555
Mg0 O22 2.195956 1_446
Mg1 O16 2.067565 1_555
Mg1 O23 2.071230 1_555
Mg1 O20 2.071230 1_555
Mg1 O0 2.079954 1_555
Mg1 O3 2.079954 1_555
Mg1 O7 2.187722 1_555
Mg2 O15 2.076629 1_556
Mg2 O19 2.079841 1_555
Mg2 O14 2.079841 1_555
Mg2 O12 2.081391 1_555
Mg2 O17 2.081391 1_555
Mg2 O16 2.083411 1_555
Mg3 O15 2.038270 1_555
Mg3 O5 2.113193 1_555
Mg3 O9 2.113193 1_555
Mg3 O10 2.129684 1_545
Mg3 O4 2.129684 1_455
Mg3 O2 2.170983 1_555
Mg4 O12 2.053203 1_565
Mg4 O17 2.053203 1_655
Mg4 O18 2.103060 1_555
Mg4 O13 2.103060 1_555
Mg4 O8 2.108978 1_555
Mg4 O21 2.134946 1_555
Nb0 O13 1.998250 1_545
Nb0 O18 1.998250 1_455
Nb0 O2 2.019140 1_555
Nb0 O3 2.039413 1_455
Nb0 O0 2.039413 1_545
Nb0 O1 2.039953 1_555
Nb1 O10 2.006828 1_555
Nb1 O4 2.006828 1_555
Nb1 O11 2.013935 1_555
Nb1 O6 2.013935 1_555
Nb1 O8 2.027297 1_554
Nb1 O7 2.032811 1_555
Nb2 O21 1.968854 1_555
Nb2 O9 2.015959 1_565
Nb2 O5 2.015959 1_655
Nb2 O23 2.029602 1_565
Nb2 O20 2.029602 1_655
Nb2 O22 2.051205 1_555
