# generated using pymatgen
data_Tm2Si5Ni3
_symmetry_space_group_name_H-M   'P 1'
_cell_length_a   7.82224206
_cell_length_b   7.82224206
_cell_length_c   7.82224206
_cell_angle_alpha   138.06707202
_cell_angle_beta   104.08699754
_cell_angle_gamma   90.72638523
_symmetry_Int_Tables_number   1
_chemical_formula_structural   Tm2Si5Ni3
_chemical_formula_sum   'Tm4 Si10 Ni6'
_cell_volume   296.04264337
_cell_formula_units_Z   2
loop_
 _symmetry_equiv_pos_site_id
 _symmetry_equiv_pos_as_xyz
  1  'x, y, z'
loop_
 _atom_site_type_symbol
 _atom_site_label
 _atom_site_symmetry_multiplicity
 _atom_site_fract_x
 _atom_site_fract_y
 _atom_site_fract_z
 _atom_site_occupancy
  Tm  Tm0  1  0.86703300  0.63018900  0.23684400  1
  Tm  Tm1  1  0.13296700  0.36981100  0.76315600  1
  Tm  Tm2  1  0.39334600  0.13018900  0.26315600  1
  Tm  Tm3  1  0.60665400  0.86981100  0.73684400  1
  Si  Si0  1  0.50000000  0.75000000  0.25000000  1
  Si  Si1  1  0.50000000  0.25000000  0.75000000  1
  Si  Si2  1  0.23637500  0.98637500  0.75000000  1
  Si  Si3  1  0.76362500  0.51362500  0.75000000  1
  Si  Si4  1  0.76362500  0.01362500  0.25000000  1
  Si  Si5  1  0.23637500  0.48637500  0.25000000  1
  Si  Si6  1  0.04226600  0.89114400  0.15112300  1
  Si  Si7  1  0.95773400  0.10885600  0.84887700  1
  Si  Si8  1  0.74002100  0.39114400  0.34887700  1
  Si  Si9  1  0.25997900  0.60885600  0.65112300  1
  Ni  Ni0  1  0.00000000  0.75000000  0.75000000  1
  Ni  Ni1  1  0.00000000  0.25000000  0.25000000  1
  Ni  Ni2  1  0.25013600  0.86640400  0.38373100  1
  Ni  Ni3  1  0.74986400  0.13359600  0.61626900  1
  Ni  Ni4  1  0.48267300  0.36640400  0.11626900  1
  Ni  Ni5  1  0.51732700  0.63359600  0.88373100  1
loop_
_geom_bond_atom_site_label_1
_geom_bond_atom_site_label_2
_geom_bond_distance
_geom_bond_site_symmetry_2
Si0 Tm2 3.033185 1_565
Si0 Tm0 3.033188 1_555
Si0 Tm1 3.033188 1_554
Si0 Tm3 3.033188 1_555
Si1 Tm3 3.033185 1_545
Si1 Tm0 3.033188 1_556
Si1 Tm1 3.033188 1_555
Si1 Tm2 3.033188 1_555
Si2 Si7 2.457196 1_465
Si2 Si9 2.457204 1_555
Si2 Tm3 3.050181 1_555
Si2 Tm1 3.050189 1_565
Si2 Tm0 3.119746 1_455
Si2 Tm2 3.119747 1_566
Si3 Si6 2.457199 1_656
Si3 Si8 2.457204 1_555
Si3 Tm2 3.050184 1_555
Si3 Tm0 3.050189 1_556
Si3 Tm1 3.119746 1_655
Si3 Tm3 3.119750 1_555
Si4 Si6 2.457196 1_645
Si4 Si8 2.457204 1_555
Si4 Tm2 3.050181 1_555
Si4 Tm0 3.050189 1_545
Si4 Tm1 3.119746 1_655
Si4 Tm3 3.119747 1_544
Si5 Si7 2.457199 1_454
Si5 Si9 2.457204 1_555
Si5 Tm3 3.050184 1_555
Si5 Tm1 3.050189 1_554
Si5 Tm0 3.119746 1_455
Si5 Tm2 3.119750 1_555
Si6 Tm2 2.840135 1_565
Si6 Tm0 2.984646 1_455
Si6 Tm1 3.008541 1_565
Si6 Tm1 3.008546 1_554
Si7 Tm3 2.840135 1_545
Si7 Tm1 2.984646 1_655
Si7 Tm0 3.008541 1_545
Si7 Tm0 3.008546 1_556
Si8 Tm0 2.840121 1_555
Si8 Tm2 2.984644 1_555
Si8 Tm3 3.008541 1_544
Si8 Tm3 3.008547 1_555
Si9 Tm1 2.840121 1_555
Si9 Tm3 2.984644 1_555
Si9 Tm2 3.008541 1_566
Si9 Tm2 3.008547 1_555
Ni0 Si7 2.346238 1_465
Ni0 Si9 2.346240 1_555
Ni0 Si8 2.346240 1_455
Ni0 Si6 2.346241 1_556
Ni0 Si2 2.598228 1_555
Ni0 Si3 2.598228 1_455
Ni0 Ni1 2.798966 1_555
Ni0 Ni1 2.798966 1_566
Ni0 Tm0 3.227745 1_455
Ni0 Tm1 3.227745 1_555
Ni0 Tm2 3.227750 1_566
Ni0 Tm3 3.227752 1_455
Ni1 Si6 2.346238 1_545
Ni1 Si9 2.346240 1_555
Ni1 Si8 2.346240 1_455
Ni1 Si7 2.346241 1_454
Ni1 Si5 2.598228 1_555
Ni1 Si4 2.598228 1_455
Ni1 Tm1 3.227745 1_555
Ni1 Tm0 3.227745 1_455
Ni1 Tm3 3.227750 1_444
Ni1 Tm2 3.227752 1_555
Ni2 Si6 2.254702 1_555
Ni2 Si5 2.291953 1_555
Ni2 Si2 2.291956 1_555
Ni2 Si0 2.316599 1_555
Ni2 Si1 2.316603 1_565
Ni2 Tm0 2.956246 1_455
Ni2 Tm1 3.030133 1_554
Ni2 Tm1 3.030138 1_565
Ni2 Tm2 3.123028 1_565
Ni3 Si7 2.254702 1_555
Ni3 Si3 2.291953 1_555
Ni3 Si4 2.291956 1_555
Ni3 Si1 2.316599 1_555
Ni3 Si0 2.316603 1_545
Ni3 Tm1 2.956246 1_655
Ni3 Tm0 3.030133 1_556
Ni3 Tm0 3.030138 1_545
Ni3 Tm3 3.123028 1_545
Ni4 Si8 2.254694 1_555
Ni4 Si5 2.291954 1_555
Ni4 Si2 2.291954 1_544
Ni4 Si0 2.316607 1_555
Ni4 Si1 2.316607 1_554
Ni4 Tm2 2.956236 1_555
Ni4 Tm3 3.030129 1_544
Ni4 Tm3 3.030134 1_555
Ni4 Tm0 3.123028 1_555
Ni5 Si9 2.254694 1_555
Ni5 Si3 2.291954 1_555
Ni5 Si4 2.291954 1_566
Ni5 Si1 2.316607 1_555
Ni5 Si0 2.316607 1_556
Ni5 Tm3 2.956236 1_555
Ni5 Tm2 3.030129 1_566
Ni5 Tm2 3.030134 1_555
Ni5 Tm1 3.123028 1_555
