# generated using pymatgen
data_Ba2Cu2Te4Br2O11
_symmetry_space_group_name_H-M   'P 1'
_cell_length_a   9.29479167
_cell_length_b   9.29115877
_cell_length_c   9.53179850
_cell_angle_alpha   99.63635877
_cell_angle_beta   99.72664308
_cell_angle_gamma   108.30785683
_symmetry_Int_Tables_number   1
_chemical_formula_structural   Ba2Cu2Te4Br2O11
_chemical_formula_sum   'Ba4 Cu4 Te8 Br4 O22'
_cell_volume   748.57607170
_cell_formula_units_Z   2
loop_
 _symmetry_equiv_pos_site_id
 _symmetry_equiv_pos_as_xyz
  1  'x, y, z'
loop_
 _atom_site_type_symbol
 _atom_site_label
 _atom_site_symmetry_multiplicity
 _atom_site_fract_x
 _atom_site_fract_y
 _atom_site_fract_z
 _atom_site_occupancy
  Ba  Ba0  1  0.98179989  0.73411183  0.42916685  1
  Ba  Ba1  1  0.01820011  0.26588817  0.57083315  1
  Ba  Ba2  1  0.48159590  0.23192066  0.43100016  1
  Ba  Ba3  1  0.51840410  0.76807934  0.56899984  1
  Cu  Cu0  1  0.19991122  0.45021917  0.30056363  1
  Cu  Cu1  1  0.80008878  0.54978083  0.69943637  1
  Cu  Cu2  1  0.30171260  0.05116688  0.69989490  1
  Cu  Cu3  1  0.69828740  0.94883312  0.30010510  1
  Te  Te0  1  0.79095144  0.31274817  0.21155852  1
  Te  Te1  1  0.20904856  0.68725183  0.78844148  1
  Te  Te2  1  0.06534646  0.04243408  0.21439634  1
  Te  Te3  1  0.93465354  0.95756592  0.78560366  1
  Te  Te4  1  0.69735891  0.20456184  0.80088728  1
  Te  Te5  1  0.30264109  0.79543816  0.19911272  1
  Te  Te6  1  0.46058398  0.44558643  0.80648481  1
  Te  Te7  1  0.53941602  0.55441357  0.19351519  1
  Br  Br0  1  0.64486368  0.89270427  0.95422041  1
  Br  Br1  1  0.35513632  0.10729573  0.04577959  1
  Br  Br2  1  0.91639726  0.66947466  0.04250413  1
  Br  Br3  1  0.08360274  0.33052534  0.95749587  1
  O  O0  1  0.23699883  0.67317387  0.33189886  1
  O  O1  1  0.76300117  0.32682613  0.66810114  1
  O  O2  1  0.42255504  0.48645707  0.32820332  1
  O  O3  1  0.57744496  0.51354293  0.67179668  1
  O  O4  1  0.00851119  0.57504190  0.66971643  1
  O  O5  1  0.99148881  0.42495810  0.33028357  1
  O  O6  1  0.32279534  0.26007336  0.67456762  1
  O  O7  1  0.67720466  0.73992664  0.32543238  1
  O  O8  1  0.17606712  0.24438793  0.33534586  1
  O  O9  1  0.82393288  0.75561207  0.66465414  1
  O  O10  1  0.26310598  0.82831693  0.67037538  1
  O  O11  1  0.73689402  0.17168307  0.32962462  1
  O  O12  1  0.07807025  0.00797282  0.66708619  1
  O  O13  1  0.92192975  0.99202718  0.33291381  1
  O  O14  1  0.50843081  0.07329186  0.66735830  1
  O  O15  1  0.49156919  0.92670814  0.33264170  1
  O  O16  1  0.70605675  0.44802162  0.30981157  1
  O  O17  1  0.29394325  0.55197838  0.69018843  1
  O  O18  1  0.19951216  0.96051480  0.32171011  1
  O  O19  1  0.80048784  0.03948520  0.67828989  1
  O  O20  1  0.39968667  0.65360090  0.11099524  1
  O  O21  1  0.60031333  0.34639910  0.88900476  1
loop_
_geom_bond_atom_site_label_1
_geom_bond_atom_site_label_2
_geom_bond_distance
_geom_bond_site_symmetry_2
Ba0 O7 2.857287 1_555
Ba0 O0 2.866657 1_655
Ba0 O13 2.880127 1_555
Ba0 O18 2.883806 1_655
Ba0 O12 2.893106 1_665
Ba0 O9 2.894518 1_555
Ba0 O5 2.903783 1_555
Ba0 O16 2.941257 1_555
Ba0 O4 2.945488 1_655
Ba0 O10 2.957361 1_655
Ba0 Br2 3.547727 1_555
Ba1 O6 2.857287 1_555
Ba1 O1 2.866657 1_455
Ba1 O12 2.880127 1_555
Ba1 O19 2.883806 1_455
Ba1 O13 2.893106 1_445
Ba1 O8 2.894518 1_555
Ba1 O4 2.903783 1_555
Ba1 O17 2.941257 1_555
Ba1 O5 2.945488 1_455
Ba1 O11 2.957361 1_455
Ba1 Br3 3.547727 1_555
Ba2 O15 2.869431 1_545
Ba2 O2 2.874651 1_555
Ba2 O8 2.876884 1_555
Ba2 O11 2.881995 1_555
Ba2 O18 2.891779 1_545
Ba2 O14 2.909089 1_555
Ba2 O1 2.934786 1_555
Ba2 O16 2.945771 1_555
Ba2 O3 2.956730 1_555
Ba2 O6 2.972235 1_555
Ba2 Br1 3.531005 1_555
Ba3 O14 2.869431 1_565
Ba3 O3 2.874651 1_555
Ba3 O9 2.876884 1_555
Ba3 O10 2.881995 1_555
Ba3 O19 2.891779 1_565
Ba3 O15 2.909089 1_555
Ba3 O0 2.934786 1_555
Ba3 O17 2.945771 1_555
Ba3 O2 2.956730 1_555
Ba3 O7 2.972235 1_555
Ba3 Br0 3.531005 1_555
Cu0 O8 1.946065 1_555
Cu0 O0 1.951571 1_555
Cu0 O5 1.951996 1_455
Cu0 O2 1.952856 1_555
Cu1 O9 1.946065 1_555
Cu1 O1 1.951571 1_555
Cu1 O4 1.951996 1_655
Cu1 O3 1.952856 1_555
Cu2 O12 1.947849 1_555
Cu2 O6 1.948846 1_555
Cu2 O10 1.949130 1_545
Cu2 O14 1.950584 1_555
Cu3 O13 1.947849 1_555
Cu3 O7 1.948846 1_555
Cu3 O11 1.949130 1_565
Cu3 O15 1.950584 1_555
Br0 Cu3 3.177519 1_556
Br1 Cu2 3.177519 1_554
Br2 Cu1 3.151411 1_554
Br2 Te2 3.305717 1_665
Br2 Te5 3.383962 1_655
Br3 Cu0 3.151411 1_556
Br3 Te3 3.305717 1_445
Br3 Te4 3.383962 1_455
O0 Te5 1.889851 1_555
O1 Te4 1.889851 1_555
O2 Te7 1.881060 1_555
O3 Te6 1.881060 1_555
O4 Te1 1.874385 1_555
O5 Te0 1.874385 1_555
O6 Te6 1.880330 1_555
O7 Te7 1.880330 1_555
O8 Te2 1.889641 1_555
O9 Te3 1.889641 1_555
O10 Te1 1.872943 1_555
O11 Te0 1.872943 1_555
O12 Te3 1.888449 1_445
O13 Te2 1.888449 1_665
O14 Te4 1.889637 1_555
O15 Te5 1.889637 1_555
O16 Te0 1.886290 1_555
O16 Te7 2.313785 1_555
O17 Te1 1.886290 1_555
O17 Te6 2.313785 1_555
O18 Te2 1.899124 1_565
O18 Te5 2.310606 1_555
O19 Te3 1.899124 1_545
O19 Te4 2.310606 1_555
O20 Te7 1.950428 1_555
O20 Te5 1.971804 1_555
O21 Te6 1.950428 1_555
O21 Te4 1.971804 1_555
