# generated using pymatgen
data_Yb2MgTiO6
_symmetry_space_group_name_H-M   'P 1'
_cell_length_a   5.65157900
_cell_length_b   5.35430600
_cell_length_c   9.20794257
_cell_angle_alpha   55.87784193
_cell_angle_beta   90.00000000
_cell_angle_gamma   90.00000000
_symmetry_Int_Tables_number   1
_chemical_formula_structural   Yb2MgTiO6
_chemical_formula_sum   'Yb4 Mg2 Ti2 O12'
_cell_volume   230.66612100
_cell_formula_units_Z   2
loop_
 _symmetry_equiv_pos_site_id
 _symmetry_equiv_pos_as_xyz
  1  'x, y, z'
loop_
 _atom_site_type_symbol
 _atom_site_label
 _atom_site_symmetry_multiplicity
 _atom_site_fract_x
 _atom_site_fract_y
 _atom_site_fract_z
 _atom_site_occupancy
  Yb  Yb0  1  0.06494200  0.72333400  0.75515800  1
  Yb  Yb1  1  0.93505800  0.27666600  0.24484200  1
  Yb  Yb2  1  0.56494200  0.27666600  0.74484200  1
  Yb  Yb3  1  0.43505800  0.72333400  0.25515800  1
  Mg  Mg0  1  0.50000000  0.50000000  0.00000000  1
  Mg  Mg1  1  0.00000000  0.50000000  0.50000000  1
  Ti  Ti0  1  0.50000000  0.00000000  0.50000000  1
  Ti  Ti1  1  0.00000000  0.00000000  0.00000000  1
  O  O0  1  0.46682300  0.85661200  0.74504600  1
  O  O1  1  0.53317700  0.14338800  0.25495400  1
  O  O2  1  0.96682300  0.14338800  0.75495400  1
  O  O3  1  0.03317700  0.85661200  0.24504600  1
  O  O4  1  0.78325400  0.74985200  0.55653200  1
  O  O5  1  0.21674600  0.25014800  0.44346800  1
  O  O6  1  0.28325400  0.25014800  0.94346800  1
  O  O7  1  0.71674600  0.74985200  0.05653200  1
  O  O8  1  0.30155000  0.66030000  0.54717000  1
  O  O9  1  0.69845000  0.33970000  0.45283000  1
  O  O10  1  0.80155000  0.33970000  0.95283000  1
  O  O11  1  0.19845000  0.66030000  0.04717000  1
loop_
_geom_bond_atom_site_label_1
_geom_bond_atom_site_label_2
_geom_bond_distance
_geom_bond_site_symmetry_2
Mg0 O0 2.040392 1_554
Mg0 O1 2.040392 1_555
Mg0 O11 2.061061 1_555
Mg0 O10 2.061061 1_554
Mg0 O7 2.083849 1_555
Mg0 O6 2.083849 1_554
Mg1 O3 2.040392 1_555
Mg1 O2 2.040392 1_455
Mg1 O9 2.061061 1_455
Mg1 O8 2.061061 1_555
Mg1 O4 2.083849 1_455
Mg1 O5 2.083849 1_555
O0 Ti0 1.942235 1_565
O0 Yb2 2.315427 1_565
O0 Yb0 2.366854 1_555
O1 Ti0 1.942235 1_555
O1 Yb3 2.315427 1_545
O1 Yb1 2.366854 1_555
O2 Ti1 1.942235 1_656
O2 Yb0 2.315427 1_645
O2 Yb2 2.366854 1_555
O3 Ti1 1.942235 1_565
O3 Yb1 2.315427 1_465
O3 Yb3 2.366854 1_555
O4 Ti0 1.960953 1_565
O4 Yb0 2.368171 1_655
O4 Yb2 2.453405 1_555
O4 Yb1 2.801254 1_565
O5 Ti0 1.960953 1_555
O5 Yb1 2.368171 1_455
O5 Yb3 2.453405 1_555
O5 Yb0 2.801254 1_545
O6 Ti1 1.960953 1_556
O6 Yb2 2.368171 1_555
O6 Yb0 2.453405 1_555
O6 Yb3 2.801254 1_546
O7 Ti1 1.960953 1_665
O7 Yb3 2.368171 1_555
O7 Yb1 2.453405 1_555
O7 Yb2 2.801254 1_564
O8 Ti0 1.966841 1_565
O8 Yb2 2.356595 1_555
O8 Yb0 2.508979 1_555
O8 Yb3 2.625815 1_555
O9 Ti0 1.966841 1_555
O9 Yb3 2.356595 1_555
O9 Yb1 2.508979 1_555
O9 Yb2 2.625815 1_555
O10 Ti1 1.966841 1_656
O10 Yb0 2.356595 1_655
O10 Yb2 2.508979 1_555
O10 Yb1 2.625815 1_556
O11 Ti1 1.966841 1_565
O11 Yb1 2.356595 1_455
O11 Yb3 2.508979 1_555
O11 Yb0 2.625815 1_554
