# generated using pymatgen
data_Li9Mn2Co5O16
_symmetry_space_group_name_H-M   'P 1'
_cell_length_a   5.16019300
_cell_length_b   5.87488879
_cell_length_c   10.08802424
_cell_angle_alpha   89.49465423
_cell_angle_beta   99.80943210
_cell_angle_gamma   107.36065186
_symmetry_Int_Tables_number   1
_chemical_formula_structural   Li9Mn2Co5O16
_chemical_formula_sum   'Li9 Mn2 Co5 O16'
_cell_volume   287.33775020
_cell_formula_units_Z   1
loop_
 _symmetry_equiv_pos_site_id
 _symmetry_equiv_pos_as_xyz
  1  'x, y, z'
loop_
 _atom_site_type_symbol
 _atom_site_label
 _atom_site_symmetry_multiplicity
 _atom_site_fract_x
 _atom_site_fract_y
 _atom_site_fract_z
 _atom_site_occupancy
  Li  Li0  1  0.50256000  0.87528600  0.13195400  1
  Li  Li1  1  0.50736900  0.12910900  0.37899500  1
  Li  Li2  1  0.50530200  0.38449500  0.61710200  1
  Li  Li3  1  0.50119500  0.62601000  0.87209200  1
  Li  Li4  1  0.49495500  0.37595800  0.12844400  1
  Li  Li5  1  0.49786300  0.62546300  0.37850500  1
  Li  Li6  1  0.49395100  0.86479800  0.61731800  1
  Li  Li7  1  0.49823900  0.12222800  0.87340500  1
  Li  Li8  1  0.00118500  0.50292100  0.50150100  1
  Mn  Mn0  1  0.99501700  0.99808600  0.99895400  1
  Mn  Mn1  1  0.00327000  0.25333200  0.74604000  1
  Co  Co0  1  0.00478500  0.25320700  0.26103500  1
  Co  Co1  1  0.00342600  0.74626400  0.74520800  1
  Co  Co2  1  0.00323400  0.50227000  0.00590400  1
  Co  Co3  1  0.99326200  0.74363100  0.25817100  1
  Co  Co4  1  0.99771400  0.99537400  0.49864200  1
  O  O0  1  0.76559500  0.70051100  0.05263200  1
  O  O1  1  0.75942300  0.93881000  0.31572500  1
  O  O2  1  0.77508100  0.18623000  0.57614400  1
  O  O3  1  0.79282600  0.44182500  0.81301800  1
  O  O4  1  0.77818800  0.18033400  0.06283800  1
  O  O5  1  0.76357900  0.44817400  0.30096500  1
  O  O6  1  0.77544500  0.70376400  0.57693900  1
  O  O7  1  0.77279300  0.96045400  0.82081400  1
  O  O8  1  0.21625600  0.04461400  0.17539800  1
  O  O9  1  0.23653600  0.30231400  0.42555300  1
  O  O10  1  0.24112800  0.54047300  0.69719800  1
  O  O11  1  0.21167400  0.81679100  0.93030500  1
  O  O12  1  0.23187600  0.55894300  0.17665600  1
  O  O13  1  0.23399200  0.82609300  0.43511700  1
  O  O14  1  0.21813400  0.05830100  0.69267700  1
  O  O15  1  0.22414800  0.29393800  0.93475300  1
loop_
_geom_bond_atom_site_label_1
_geom_bond_atom_site_label_2
_geom_bond_distance
_geom_bond_site_symmetry_2
Li0 O1 2.052495 1_555
Li0 O12 2.063735 1_555
Li0 O8 2.114169 1_565
Li0 O4 2.124975 1_565
Li0 O0 2.180180 1_555
Li0 O11 2.274504 1_554
Li1 O13 2.057990 1_545
Li1 O9 2.071215 1_555
Li1 O1 2.124192 1_545
Li1 O5 2.175054 1_555
Li1 O2 2.185278 1_555
Li1 O8 2.289792 1_555
Li2 O6 2.060144 1_555
Li2 O10 2.117714 1_555
Li2 O9 2.143412 1_555
Li2 O2 2.153503 1_555
Li2 O3 2.221547 1_555
Li2 O14 2.261425 1_555
Li3 O10 1.993178 1_555
Li3 O0 2.044779 1_556
Li3 O7 2.162890 1_555
Li3 O15 2.207060 1_555
Li3 O3 2.253747 1_555
Li3 O11 2.267803 1_555
Li4 O5 1.992595 1_555
Li4 O12 2.083323 1_555
Li4 O8 2.151069 1_555
Li4 O15 2.165015 1_554
Li4 O0 2.218095 1_555
Li4 O4 2.289181 1_555
Li5 O9 2.079012 1_555
Li5 O1 2.097516 1_555
Li5 O13 2.191821 1_555
Li5 O5 2.192908 1_555
Li5 O6 2.217328 1_555
Li5 O12 2.219134 1_555
Li6 O6 2.049242 1_555
Li6 O13 2.052993 1_555
Li6 O2 2.097534 1_565
Li6 O10 2.197620 1_555
Li6 O7 2.265340 1_555
Li6 O14 2.290298 1_565
Li7 O7 2.064093 1_545
Li7 O14 2.084328 1_555
Li7 O11 2.103233 1_545
Li7 O15 2.135836 1_555
Li7 O4 2.152178 1_556
Li7 O3 2.190738 1_555
Li8 O2 2.090228 1_455
Li8 O13 2.094495 1_555
Li8 O6 2.113393 1_455
Li8 O10 2.119178 1_555
Li8 O5 2.151811 1_455
Li8 O9 2.153605 1_555
Mn0 O8 1.917364 1_666
Mn0 O0 1.928124 1_556
Mn0 O7 1.935683 1_555
Mn0 O4 1.945863 1_566
Mn0 O11 1.962488 1_655
Mn0 O15 1.962931 1_665
Mn1 O2 1.877939 1_455
Mn1 O10 1.884344 1_555
Mn1 O14 1.950463 1_555
Mn1 O3 1.960336 1_455
Mn1 O7 2.001398 1_445
Mn1 O15 2.021538 1_555
Co0 O9 1.842308 1_555
Co0 O5 2.013254 1_455
Co0 O1 2.035552 1_445
Co0 O12 2.093037 1_555
Co0 O4 2.113745 1_455
Co0 O8 2.139350 1_555
Co1 O6 1.865357 1_455
Co1 O14 1.959532 1_565
Co1 O11 1.969093 1_555
Co1 O3 1.979808 1_455
Co1 O10 2.073283 1_555
Co1 O7 2.191222 1_455
Co2 O12 1.885003 1_555
Co2 O0 2.035010 1_455
Co2 O4 2.037888 1_455
Co2 O3 2.038001 1_454
Co2 O11 2.054604 1_554
Co2 O15 2.107045 1_554
Co3 O5 1.880805 1_555
Co3 O13 1.965884 1_655
Co3 O1 2.045508 1_555
Co3 O8 2.057943 1_665
Co3 O12 2.127816 1_655
Co3 O0 2.178372 1_555
Co4 O13 1.971638 1_655
Co4 O6 1.996637 1_555
Co4 O1 2.005308 1_555
Co4 O14 2.065212 1_665
Co4 O9 2.067374 1_665
Co4 O2 2.068465 1_565
