# generated using pymatgen
data_NaCaSiO4
_symmetry_space_group_name_H-M   'P 1'
_cell_length_a   7.15836200
_cell_length_b   5.40832800
_cell_length_c   5.44929022
_cell_angle_alpha   63.28035092
_cell_angle_beta   90.00000000
_cell_angle_gamma   90.00000000
_symmetry_Int_Tables_number   1
_chemical_formula_structural   NaCaSiO4
_chemical_formula_sum   'Na2 Ca2 Si2 O8'
_cell_volume   188.44026974
_cell_formula_units_Z   2
loop_
 _symmetry_equiv_pos_site_id
 _symmetry_equiv_pos_as_xyz
  1  'x, y, z'
loop_
 _atom_site_type_symbol
 _atom_site_label
 _atom_site_symmetry_multiplicity
 _atom_site_fract_x
 _atom_site_fract_y
 _atom_site_fract_z
 _atom_site_occupancy
  Na  Na0  1  0.75000000  0.71937800  0.65862200  1
  Na  Na1  1  0.25000000  0.28062200  0.34137800  1
  Ca  Ca0  1  0.50000000  0.00000000  0.00000000  1
  Ca  Ca1  1  0.00000000  0.00000000  0.00000000  1
  Si  Si0  1  0.25000000  0.62283600  0.66785300  1
  Si  Si1  1  0.75000000  0.37716400  0.33214700  1
  O  O0  1  0.25000000  0.28943000  0.76662600  1
  O  O1  1  0.75000000  0.71057000  0.23337400  1
  O  O2  1  0.75000000  0.19592500  0.66725500  1
  O  O3  1  0.25000000  0.80407500  0.33274500  1
  O  O4  1  0.44027900  0.71174400  0.78442900  1
  O  O5  1  0.94027900  0.28825600  0.21557100  1
  O  O6  1  0.55972100  0.28825600  0.21557100  1
  O  O7  1  0.05972100  0.71174400  0.78442900  1
loop_
_geom_bond_atom_site_label_1
_geom_bond_atom_site_label_2
_geom_bond_distance
_geom_bond_site_symmetry_2
Na0 O7 2.315546 1_655
Na0 O4 2.315546 1_555
Na0 O1 2.339105 1_555
Na0 O2 2.598814 1_565
Na0 O2 2.810168 1_555
Na1 O6 2.315546 1_555
Na1 O5 2.315546 1_455
Na1 O0 2.339105 1_555
Na1 O3 2.598814 1_545
Na1 O3 2.810168 1_555
Ca0 O1 2.340954 1_545
Ca0 O0 2.340954 1_554
Ca0 O4 2.374863 1_544
Ca0 O6 2.374863 1_555
Ca0 O2 2.425996 1_554
Ca0 O3 2.425996 1_545
Ca1 O1 2.340954 1_445
Ca1 O0 2.340954 1_554
Ca1 O7 2.374863 1_544
Ca1 O5 2.374863 1_455
Ca1 O3 2.425996 1_545
Ca1 O2 2.425996 1_454
O0 Si0 1.633512 1_555
O1 Si1 1.633512 1_555
O2 Si1 1.638849 1_555
O3 Si0 1.638849 1_555
O4 Si0 1.662746 1_555
O5 Si1 1.662746 1_555
O6 Si1 1.662746 1_555
O7 Si0 1.662746 1_555
