# generated using pymatgen
data_VRu4
_symmetry_space_group_name_H-M   'P 1'
_cell_length_a   22.46715756
_cell_length_b   22.18534377
_cell_length_c   5.34946504
_cell_angle_alpha   86.12685242
_cell_angle_beta   80.13070685
_cell_angle_gamma   13.74244073
_symmetry_Int_Tables_number   1
_chemical_formula_structural   VRu4
_chemical_formula_sum   'V8 Ru32'
_cell_volume   565.53550975
_cell_formula_units_Z   8
loop_
 _symmetry_equiv_pos_site_id
 _symmetry_equiv_pos_as_xyz
  1  'x, y, z'
loop_
 _atom_site_type_symbol
 _atom_site_label
 _atom_site_symmetry_multiplicity
 _atom_site_fract_x
 _atom_site_fract_y
 _atom_site_fract_z
 _atom_site_occupancy
  V  V0_0  1  0.00000000  0.00000000  0.00000000  1
  V  V0_1  1  0.00000000  0.00000000  0.50000000  1
  V  V0_2  1  0.00000000  0.50000000  0.00000000  1
  V  V0_3  1  0.00000000  0.50000000  0.50000000  1
  V  V0_4  1  0.50000000  0.00000000  0.00000000  1
  V  V0_5  1  0.50000000  0.00000000  0.50000000  1
  V  V0_6  1  0.50000000  0.50000000  0.00000000  1
  V  V0_7  1  0.50000000  0.50000000  0.50000000  1
  Ru  Ru0_0  1  0.20334400  0.20334400  0.29665600  1
  Ru  Ru0_1  1  0.20334400  0.20334400  0.79665600  1
  Ru  Ru0_2  1  0.20334400  0.70334400  0.29665600  1
  Ru  Ru0_3  1  0.20334400  0.70334400  0.79665600  1
  Ru  Ru0_4  1  0.70334400  0.20334400  0.29665600  1
  Ru  Ru0_5  1  0.70334400  0.20334400  0.79665600  1
  Ru  Ru0_6  1  0.70334400  0.70334400  0.29665600  1
  Ru  Ru0_7  1  0.70334400  0.70334400  0.79665600  1
  Ru  Ru1_0  1  0.40015350  0.40015350  0.09984650  1
  Ru  Ru1_1  1  0.40015350  0.40015350  0.59984650  1
  Ru  Ru1_2  1  0.40015350  0.90015350  0.09984650  1
  Ru  Ru1_3  1  0.40015350  0.90015350  0.59984650  1
  Ru  Ru1_4  1  0.90015350  0.40015350  0.09984650  1
  Ru  Ru1_5  1  0.90015350  0.40015350  0.59984650  1
  Ru  Ru1_6  1  0.90015350  0.90015350  0.09984650  1
  Ru  Ru1_7  1  0.90015350  0.90015350  0.59984650  1
  Ru  Ru2_0  1  0.09984650  0.09984650  0.40015350  1
  Ru  Ru2_1  1  0.09984650  0.09984650  0.90015350  1
  Ru  Ru2_2  1  0.09984650  0.59984650  0.40015350  1
  Ru  Ru2_3  1  0.09984650  0.59984650  0.90015350  1
  Ru  Ru2_4  1  0.59984650  0.09984650  0.40015350  1
  Ru  Ru2_5  1  0.59984650  0.09984650  0.90015350  1
  Ru  Ru2_6  1  0.59984650  0.59984650  0.40015350  1
  Ru  Ru2_7  1  0.59984650  0.59984650  0.90015350  1
  Ru  Ru3_0  1  0.29665600  0.29665600  0.20334400  1
  Ru  Ru3_1  1  0.29665600  0.29665600  0.70334400  1
  Ru  Ru3_2  1  0.29665600  0.79665600  0.20334400  1
  Ru  Ru3_3  1  0.29665600  0.79665600  0.70334400  1
  Ru  Ru3_4  1  0.79665600  0.29665600  0.20334400  1
  Ru  Ru3_5  1  0.79665600  0.29665600  0.70334400  1
  Ru  Ru3_6  1  0.79665600  0.79665600  0.20334400  1
  Ru  Ru3_7  1  0.79665600  0.79665600  0.70334400  1
loop_
_geom_bond_atom_site_label_1
_geom_bond_atom_site_label_2
_geom_bond_distance
_geom_bond_site_symmetry_2
V0_0 V0_1 2.674733 1_554
V0_0 V0_6 2.674733 1_545
V0_0 V0_6 2.674733 1_455
V0_0 V0_1 2.674733 1_555
V0_1 V0_7 2.674733 1_455
V0_1 V0_7 2.674733 1_545
V0_2 V0_3 2.674733 1_554
V0_2 V0_3 2.674733 1_555
V0_2 V0_4 2.674733 1_555
V0_2 V0_4 2.674733 1_465
V0_3 V0_5 2.674733 1_465
V0_3 V0_5 2.674733 1_555
V0_4 V0_5 2.674733 1_554
V0_4 V0_5 2.674733 1_555
V0_6 V0_7 2.674733 1_554
V0_6 V0_7 2.674733 1_555
Ru0_0 V0_4 2.493971 1_555
Ru0_0 V0_3 2.493971 1_555
Ru0_0 Ru0_1 2.674733 1_554
Ru0_0 Ru0_6 2.674733 1_455
Ru0_0 Ru0_1 2.674733 1_555
Ru0_0 Ru0_6 2.674733 1_545
Ru0_0 Ru1_5 2.735595 1_455
Ru0_0 Ru1_2 2.735595 1_545
Ru0_0 Ru0_7 2.831350 1_455
Ru0_0 Ru0_7 2.831350 1_544
Ru0_1 V0_2 2.493971 1_556
Ru0_1 V0_5 2.493971 1_555
Ru0_1 Ru0_7 2.674733 1_455
Ru0_1 Ru0_7 2.674733 1_545
Ru0_1 Ru1_4 2.735595 1_456
Ru0_1 Ru1_3 2.735595 1_545
Ru0_1 Ru0_6 2.831350 1_545
Ru0_1 Ru0_6 2.831350 1_456
Ru0_2 V0_1 2.493971 1_565
Ru0_2 V0_6 2.493971 1_555
Ru0_2 Ru0_3 2.674733 1_555
Ru0_2 Ru0_4 2.674733 1_465
Ru0_2 Ru0_4 2.674733 1_555
Ru0_2 Ru0_3 2.674733 1_554
Ru0_2 Ru1_7 2.735595 1_455
Ru0_2 Ru1_0 2.735595 1_555
Ru0_2 Ru0_5 2.831350 1_465
Ru0_2 Ru0_5 2.831350 1_554
Ru0_3 V0_7 2.493971 1_555
Ru0_3 V0_0 2.493971 1_566
Ru0_3 Ru0_5 2.674733 1_465
Ru0_3 Ru0_5 2.674733 1_555
Ru0_3 Ru1_6 2.735595 1_456
Ru0_3 Ru1_1 2.735595 1_555
Ru0_3 Ru0_4 2.831350 1_555
Ru0_3 Ru0_4 2.831350 1_466
Ru0_4 V0_0 2.493971 1_655
Ru0_4 V0_7 2.493971 1_555
Ru0_4 Ru0_5 2.674733 1_555
Ru0_4 Ru0_5 2.674733 1_554
Ru0_4 Ru1_6 2.735595 1_545
Ru0_4 Ru1_1 2.735595 1_555
Ru0_5 V0_1 2.493971 1_655
Ru0_5 V0_6 2.493971 1_556
Ru0_5 Ru1_7 2.735595 1_545
Ru0_5 Ru1_0 2.735595 1_556
Ru0_6 V0_5 2.493971 1_565
Ru0_6 V0_2 2.493971 1_655
Ru0_6 Ru0_7 2.674733 1_555
Ru0_6 Ru0_7 2.674733 1_554
Ru0_6 Ru1_3 2.735595 1_555
Ru0_6 Ru1_4 2.735595 1_555
Ru0_7 V0_3 2.493971 1_655
Ru0_7 V0_4 2.493971 1_566
Ru0_7 Ru1_2 2.735595 1_556
Ru0_7 Ru1_5 2.735595 1_555
Ru1_0 Ru2_2 2.627833 1_555
Ru1_0 Ru2_5 2.627833 1_554
Ru1_0 Ru1_6 2.674733 1_455
Ru1_0 Ru1_1 2.674733 1_554
Ru1_0 Ru1_6 2.674733 1_545
Ru1_0 Ru1_1 2.674733 1_555
Ru1_0 Ru1_7 2.831350 1_544
Ru1_0 Ru1_7 2.831350 1_455
Ru1_1 Ru2_3 2.627833 1_555
Ru1_1 Ru2_4 2.627833 1_555
Ru1_1 Ru1_7 2.674733 1_545
Ru1_1 Ru1_7 2.674733 1_455
Ru1_1 Ru1_6 2.831350 1_456
Ru1_1 Ru1_6 2.831350 1_545
Ru1_2 Ru2_7 2.627833 1_554
Ru1_2 Ru2_0 2.627833 1_565
Ru1_2 Ru1_4 2.674733 1_465
Ru1_2 Ru1_3 2.674733 1_554
Ru1_2 Ru1_3 2.674733 1_555
Ru1_2 Ru1_4 2.674733 1_555
Ru1_2 Ru1_5 2.831350 1_465
Ru1_2 Ru1_5 2.831350 1_554
Ru1_3 Ru2_1 2.627833 1_565
Ru1_3 Ru2_6 2.627833 1_555
Ru1_3 Ru1_5 2.674733 1_555
Ru1_3 Ru1_5 2.674733 1_465
Ru1_3 Ru1_4 2.831350 1_466
Ru1_3 Ru1_4 2.831350 1_555
Ru1_4 Ru2_6 2.627833 1_555
Ru1_4 Ru2_1 2.627833 1_654
Ru1_4 Ru1_5 2.674733 1_555
Ru1_4 Ru1_5 2.674733 1_554
Ru1_5 Ru2_0 2.627833 1_655
Ru1_5 Ru2_7 2.627833 1_555
Ru1_6 Ru2_3 2.627833 1_654
Ru1_6 Ru2_4 2.627833 1_565
Ru1_6 Ru1_7 2.674733 1_555
Ru1_6 Ru1_7 2.674733 1_554
Ru1_7 Ru2_5 2.627833 1_565
Ru1_7 Ru2_2 2.627833 1_655
Ru2_0 Ru2_6 2.674733 1_455
Ru2_0 Ru2_1 2.674733 1_554
Ru2_0 Ru2_1 2.674733 1_555
Ru2_0 Ru2_6 2.674733 1_545
Ru2_0 Ru3_2 2.735595 1_545
Ru2_0 Ru3_5 2.735595 1_455
Ru2_0 Ru2_7 2.831350 1_544
Ru2_0 Ru2_7 2.831350 1_455
Ru2_1 Ru2_7 2.674733 1_545
Ru2_1 Ru2_7 2.674733 1_455
Ru2_1 Ru3_3 2.735595 1_545
Ru2_1 Ru3_4 2.735595 1_456
Ru2_1 Ru2_6 2.831350 1_456
Ru2_1 Ru2_6 2.831350 1_545
Ru2_2 Ru2_4 2.674733 1_465
Ru2_2 Ru2_3 2.674733 1_554
Ru2_2 Ru2_4 2.674733 1_555
Ru2_2 Ru2_3 2.674733 1_555
Ru2_2 Ru3_0 2.735595 1_555
Ru2_2 Ru3_7 2.735595 1_455
Ru2_2 Ru2_5 2.831350 1_465
Ru2_2 Ru2_5 2.831350 1_554
Ru2_3 Ru2_5 2.674733 1_555
Ru2_3 Ru2_5 2.674733 1_465
Ru2_3 Ru3_1 2.735595 1_555
Ru2_3 Ru3_6 2.735595 1_456
Ru2_3 Ru2_4 2.831350 1_555
Ru2_3 Ru2_4 2.831350 1_466
Ru2_4 Ru2_5 2.674733 1_555
Ru2_4 Ru2_5 2.674733 1_554
Ru2_4 Ru3_6 2.735595 1_545
Ru2_4 Ru3_1 2.735595 1_555
Ru2_5 Ru3_7 2.735595 1_545
Ru2_5 Ru3_0 2.735595 1_556
Ru2_6 Ru2_7 2.674733 1_555
Ru2_6 Ru2_7 2.674733 1_554
Ru2_6 Ru3_4 2.735595 1_555
Ru2_6 Ru3_3 2.735595 1_555
Ru2_7 Ru3_5 2.735595 1_555
Ru2_7 Ru3_2 2.735595 1_556
Ru3_0 V0_3 2.493971 1_555
Ru3_0 V0_4 2.493971 1_555
Ru3_0 Ru3_6 2.674733 1_455
Ru3_0 Ru3_1 2.674733 1_555
Ru3_0 Ru3_1 2.674733 1_554
Ru3_0 Ru3_6 2.674733 1_545
Ru3_0 Ru3_7 2.831350 1_455
Ru3_0 Ru3_7 2.831350 1_544
Ru3_1 V0_2 2.493971 1_556
Ru3_1 V0_5 2.493971 1_555
Ru3_1 Ru3_7 2.674733 1_455
Ru3_1 Ru3_7 2.674733 1_545
Ru3_1 Ru3_6 2.831350 1_456
Ru3_1 Ru3_6 2.831350 1_545
Ru3_2 V0_6 2.493971 1_555
Ru3_2 V0_1 2.493971 1_565
Ru3_2 Ru3_3 2.674733 1_555
Ru3_2 Ru3_4 2.674733 1_555
Ru3_2 Ru3_4 2.674733 1_465
Ru3_2 Ru3_3 2.674733 1_554
Ru3_2 Ru3_5 2.831350 1_554
Ru3_2 Ru3_5 2.831350 1_465
Ru3_3 V0_7 2.493971 1_555
Ru3_3 V0_0 2.493971 1_566
Ru3_3 Ru3_5 2.674733 1_555
Ru3_3 Ru3_5 2.674733 1_465
Ru3_3 Ru3_4 2.831350 1_555
Ru3_3 Ru3_4 2.831350 1_466
Ru3_4 V0_0 2.493971 1_655
Ru3_4 V0_7 2.493971 1_555
Ru3_4 Ru3_5 2.674733 1_555
Ru3_4 Ru3_5 2.674733 1_554
Ru3_5 V0_6 2.493971 1_556
Ru3_5 V0_1 2.493971 1_655
Ru3_6 V0_2 2.493971 1_655
Ru3_6 V0_5 2.493971 1_565
Ru3_6 Ru3_7 2.674733 1_555
Ru3_6 Ru3_7 2.674733 1_554
Ru3_7 V0_3 2.493971 1_655
Ru3_7 V0_4 2.493971 1_566
