# generated using pymatgen
data_Li2MnCrO4
_symmetry_space_group_name_H-M   'P 1'
_cell_length_a   4.11654266
_cell_length_b   7.82018099
_cell_length_c   5.21640178
_cell_angle_alpha   92.59679647
_cell_angle_beta   113.24075573
_cell_angle_gamma   105.25922322
_symmetry_Int_Tables_number   1
_chemical_formula_structural   Li2MnCrO4
_chemical_formula_sum   'Li4 Mn2 Cr2 O8'
_cell_volume   146.73819135
_cell_formula_units_Z   2
loop_
 _symmetry_equiv_pos_site_id
 _symmetry_equiv_pos_as_xyz
  1  'x, y, z'
loop_
 _atom_site_type_symbol
 _atom_site_label
 _atom_site_symmetry_multiplicity
 _atom_site_fract_x
 _atom_site_fract_y
 _atom_site_fract_z
 _atom_site_occupancy
  Li  Li0  1  0.62551700  0.87516100  0.37587500  1
  Li  Li1  1  0.12411400  0.37493600  0.87331800  1
  Li  Li2  1  0.25210400  0.75105700  0.75313800  1
  Li  Li3  1  0.74734000  0.25004700  0.24465800  1
  Mn  Mn0  1  0.00155200  0.99849800  0.00463600  1
  Mn  Mn1  1  0.49910900  0.50233100  0.49584700  1
  Cr  Cr0  1  0.87388100  0.62529600  0.12247200  1
  Cr  Cr1  1  0.37582700  0.12484100  0.62680500  1
  O  O0  1  0.24934100  0.23046600  0.26824400  1
  O  O1  1  0.76817700  0.75205800  0.78430400  1
  O  O2  1  0.49235400  0.00883200  0.97587600  1
  O  O3  1  0.99051400  0.50855100  0.47246500  1
  O  O4  1  0.11693500  0.88316000  0.35069100  1
  O  O5  1  0.61606800  0.38241000  0.84969600  1
  O  O6  1  0.88579500  0.11391400  0.65768100  1
  O  O7  1  0.38137000  0.61844100  0.14429400  1
loop_
_geom_bond_atom_site_label_1
_geom_bond_atom_site_label_2
_geom_bond_distance
_geom_bond_site_symmetry_2
Li0 O6 2.061614 1_565
Li0 O4 2.063239 1_555
Li0 O4 2.063331 1_655
Li0 O7 2.063945 1_555
Li0 O1 2.303654 1_555
Li0 O2 2.311605 1_564
Li1 O5 2.062557 1_455
Li1 O5 2.062793 1_555
Li1 O7 2.063723 1_556
Li1 O6 2.064305 1_455
Li1 O3 2.315059 1_455
Li1 O0 2.337838 1_556
Li2 O2 2.055050 1_565
Li2 O1 2.063561 1_555
Li2 O1 2.063653 1_455
Li2 O3 2.080598 1_455
Li2 O7 2.268787 1_556
Li2 O4 2.315433 1_555
Li3 O2 2.045130 1_554
Li3 O0 2.068009 1_655
Li3 O0 2.068030 1_555
Li3 O3 2.068623 1_555
Li3 O5 2.284128 1_554
Li3 O6 2.378688 1_555
Mn0 O1 1.977719 1_454
Mn0 O0 1.978655 1_565
Mn0 O4 1.998533 1_555
Mn0 O6 2.002768 1_464
Mn0 O2 2.065166 1_464
Mn0 O2 2.065296 1_564
Mn1 O7 2.025695 1_555
Mn1 O5 2.052194 1_555
Mn1 O3 2.062229 1_555
Mn1 O3 2.062338 1_455
Mn1 O1 2.141182 1_555
Mn1 O0 2.155005 1_555
Cr0 O1 2.015818 1_554
Cr0 O3 2.021685 1_555
Cr0 O7 2.061998 1_555
Cr0 O7 2.062037 1_655
Cr0 O5 2.064224 1_554
Cr0 O4 2.065233 1_655
Cr1 O0 2.012359 1_555
Cr1 O2 2.014502 1_555
Cr1 O5 2.053980 1_555
Cr1 O4 2.064961 1_545
Cr1 O6 2.066194 1_555
Cr1 O6 2.066255 1_455
