# generated using pymatgen
data_AlBi3Se2ClO8
_symmetry_space_group_name_H-M   'P 1'
_cell_length_a   6.99269500
_cell_length_b   8.17810900
_cell_length_c   9.55342500
_cell_angle_alpha   90.00000000
_cell_angle_beta   90.00000000
_cell_angle_gamma   90.00000000
_symmetry_Int_Tables_number   1
_chemical_formula_structural   AlBi3Se2ClO8
_chemical_formula_sum   'Al2 Bi6 Se4 Cl2 O16'
_cell_volume   546.33192483
_cell_formula_units_Z   2
loop_
 _symmetry_equiv_pos_site_id
 _symmetry_equiv_pos_as_xyz
  1  'x, y, z'
loop_
 _atom_site_type_symbol
 _atom_site_label
 _atom_site_symmetry_multiplicity
 _atom_site_fract_x
 _atom_site_fract_y
 _atom_site_fract_z
 _atom_site_occupancy
  Al  Al0  1  0.67865300  0.50000000  0.50000000  1
  Al  Al1  1  0.32134700  0.00000000  0.00000000  1
  Bi  Bi0  1  0.00000000  0.25000000  0.75000000  1
  Bi  Bi1  1  0.00000000  0.25000000  0.25000000  1
  Bi  Bi2  1  0.00000000  0.75000000  0.75000000  1
  Bi  Bi3  1  0.85031100  0.00000000  0.00000000  1
  Bi  Bi4  1  0.14968900  0.50000000  0.50000000  1
  Bi  Bi5  1  0.00000000  0.75000000  0.25000000  1
  Se  Se0  1  0.54581700  0.00000000  0.69037200  1
  Se  Se1  1  0.45418300  0.50000000  0.80962800  1
  Se  Se2  1  0.54581700  0.00000000  0.30962800  1
  Se  Se3  1  0.45418300  0.50000000  0.19037200  1
  Cl  Cl0  1  0.92089900  0.50000000  0.00000000  1
  Cl  Cl1  1  0.07910100  0.00000000  0.50000000  1
  O  O0  1  0.86007400  0.50000000  0.63985300  1
  O  O1  1  0.47392900  0.50000000  0.62334700  1
  O  O2  1  0.52607100  0.00000000  0.12334700  1
  O  O3  1  0.69204800  0.16570600  0.66965200  1
  O  O4  1  0.30795200  0.33429400  0.16965200  1
  O  O5  1  0.30795200  0.66570600  0.16965200  1
  O  O6  1  0.13992600  0.00000000  0.86014700  1
  O  O7  1  0.69204800  0.83429400  0.66965200  1
  O  O8  1  0.69204800  0.83429400  0.33034800  1
  O  O9  1  0.30795200  0.66570600  0.83034800  1
  O  O10  1  0.86007400  0.50000000  0.36014700  1
  O  O11  1  0.13992600  0.00000000  0.13985300  1
  O  O12  1  0.30795200  0.33429400  0.83034800  1
  O  O13  1  0.69204800  0.16570600  0.33034800  1
  O  O14  1  0.52607100  0.00000000  0.87665300  1
  O  O15  1  0.47392900  0.50000000  0.37665300  1
loop_
_geom_bond_atom_site_label_1
_geom_bond_atom_site_label_2
_geom_bond_distance
_geom_bond_site_symmetry_2
Al0 O10 1.842416 1_555
Al0 O0 1.842416 1_555
Al0 O1 1.854183 1_555
Al0 O15 1.854183 1_555
Al1 O6 1.842416 1_554
Al1 O11 1.842416 1_555
Al1 O14 1.854183 1_554
Al1 O2 1.854183 1_555
Bi0 O3 2.387808 1_455
Bi0 O12 2.387808 1_555
Bi0 O0 2.498954 1_455
Bi0 O6 2.498954 1_555
Bi0 Cl1 3.192223 1_555
Bi0 Cl0 3.192223 1_456
Bi1 O13 2.387808 1_455
Bi1 O4 2.387808 1_555
Bi1 O11 2.498954 1_555
Bi1 O10 2.498954 1_455
Bi1 Cl0 3.192223 1_455
Bi1 Cl1 3.192223 1_555
Bi2 O7 2.387808 1_455
Bi2 O9 2.387808 1_555
Bi2 O0 2.498954 1_455
Bi2 O6 2.498954 1_565
Bi2 Cl1 3.192223 1_565
Bi2 Cl0 3.192223 1_456
Bi3 O6 2.426209 1_654
Bi3 O11 2.426209 1_655
Bi3 O14 2.555249 1_554
Bi3 O2 2.555249 1_555
Bi4 O10 2.426209 1_455
Bi4 O0 2.426209 1_455
Bi4 O15 2.555249 1_555
Bi4 O1 2.555249 1_555
Bi5 O8 2.387808 1_455
Bi5 O5 2.387808 1_555
Bi5 O10 2.498954 1_455
Bi5 O11 2.498954 1_565
Bi5 Cl0 3.192223 1_455
Bi5 Cl1 3.192223 1_565
O1 Se1 1.784970 1_555
O2 Se2 1.784970 1_555
O3 Se0 1.709167 1_555
O4 Se3 1.709167 1_555
O5 Se3 1.709167 1_555
O7 Se0 1.709167 1_565
O8 Se2 1.709167 1_565
O9 Se1 1.709167 1_555
O12 Se1 1.709167 1_555
O13 Se2 1.709167 1_555
O14 Se0 1.784970 1_555
O15 Se3 1.784970 1_555
