# generated using pymatgen
data_ScO2
_symmetry_space_group_name_H-M   'P 1'
_cell_length_a   3.24683700
_cell_length_b   5.28227700
_cell_length_c   10.29427700
_cell_angle_alpha   90.00000000
_cell_angle_beta   90.00000000
_cell_angle_gamma   90.00000000
_symmetry_Int_Tables_number   1
_chemical_formula_structural   ScO2
_chemical_formula_sum   'Sc4 O8'
_cell_volume   176.55397839
_cell_formula_units_Z   4
loop_
 _symmetry_equiv_pos_site_id
 _symmetry_equiv_pos_as_xyz
  1  'x, y, z'
loop_
 _atom_site_type_symbol
 _atom_site_label
 _atom_site_symmetry_multiplicity
 _atom_site_fract_x
 _atom_site_fract_y
 _atom_site_fract_z
 _atom_site_occupancy
  Sc  Sc0  1  0.25000000  0.39473500  0.34012900  1
  Sc  Sc1  1  0.25000000  0.10526500  0.84012900  1
  Sc  Sc2  1  0.75000000  0.60526500  0.65987100  1
  Sc  Sc3  1  0.75000000  0.89473500  0.15987100  1
  O  O0  1  0.25000000  0.80949500  0.71545600  1
  O  O1  1  0.25000000  0.69050500  0.21545600  1
  O  O2  1  0.75000000  0.19050500  0.28454400  1
  O  O3  1  0.75000000  0.30949500  0.78454400  1
  O  O4  1  0.25000000  0.38253500  0.54702700  1
  O  O5  1  0.25000000  0.11746500  0.04702700  1
  O  O6  1  0.75000000  0.61746500  0.45297300  1
  O  O7  1  0.75000000  0.88253500  0.95297300  1
loop_
_geom_bond_atom_site_label_1
_geom_bond_atom_site_label_2
_geom_bond_distance
_geom_bond_site_symmetry_2
O0 Sc1 2.021897 1_565
O0 Sc2 2.031432 1_455
O0 Sc2 2.031432 1_555
O1 Sc0 2.021897 1_555
O1 Sc3 2.031432 1_555
O1 Sc3 2.031432 1_455
O2 Sc3 2.021897 1_545
O2 Sc0 2.031432 1_555
O2 Sc0 2.031432 1_655
O3 Sc2 2.021897 1_555
O3 Sc1 2.031432 1_655
O3 Sc1 2.031432 1_555
O4 Sc0 2.130840 1_555
O4 Sc2 2.317135 1_555
O4 Sc2 2.317135 1_455
O5 Sc1 2.130840 1_554
O5 Sc3 2.317135 1_445
O5 Sc3 2.317135 1_545
O6 Sc2 2.130840 1_555
O6 Sc0 2.317135 1_655
O6 Sc0 2.317135 1_555
O7 Sc3 2.130840 1_556
O7 Sc1 2.317135 1_665
O7 Sc1 2.317135 1_565
