# generated using pymatgen
data_CdHgS4
_symmetry_space_group_name_H-M   'P 1'
_cell_length_a   15.00644697
_cell_length_b   15.00644697
_cell_length_c   15.00644697
_cell_angle_alpha   92.30599053
_cell_angle_beta   92.30599053
_cell_angle_gamma   156.85709945
_symmetry_Int_Tables_number   1
_chemical_formula_structural   CdHgS4
_chemical_formula_sum   'Cd8 Hg8 S32'
_cell_volume   1301.17821432
_cell_formula_units_Z   8
loop_
 _symmetry_equiv_pos_site_id
 _symmetry_equiv_pos_as_xyz
  1  'x, y, z'
loop_
 _atom_site_type_symbol
 _atom_site_label
 _atom_site_symmetry_multiplicity
 _atom_site_fract_x
 _atom_site_fract_y
 _atom_site_fract_z
 _atom_site_occupancy
  Cd  Cd0_0  1  0.37500000  0.12500000  0.25000000  1
  Cd  Cd0_1  1  0.37500000  0.12500000  0.75000000  1
  Cd  Cd0_2  1  0.37500000  0.62500000  0.25000000  1
  Cd  Cd0_3  1  0.37500000  0.62500000  0.75000000  1
  Cd  Cd0_4  1  0.87500000  0.12500000  0.25000000  1
  Cd  Cd0_5  1  0.87500000  0.12500000  0.75000000  1
  Cd  Cd0_6  1  0.87500000  0.62500000  0.25000000  1
  Cd  Cd0_7  1  0.87500000  0.62500000  0.75000000  1
  Hg  Hg0_0  1  0.00000000  0.00000000  0.00000000  1
  Hg  Hg0_1  1  0.00000000  0.00000000  0.50000000  1
  Hg  Hg0_2  1  0.00000000  0.50000000  0.00000000  1
  Hg  Hg0_3  1  0.00000000  0.50000000  0.50000000  1
  Hg  Hg0_4  1  0.50000000  0.00000000  0.00000000  1
  Hg  Hg0_5  1  0.50000000  0.00000000  0.50000000  1
  Hg  Hg0_6  1  0.50000000  0.50000000  0.00000000  1
  Hg  Hg0_7  1  0.50000000  0.50000000  0.50000000  1
  S  S0_0  1  0.34916900  0.36209200  0.19962800  1
  S  S0_1  1  0.34916900  0.36209200  0.69962800  1
  S  S0_2  1  0.34916900  0.86209200  0.19962800  1
  S  S0_3  1  0.34916900  0.86209200  0.69962800  1
  S  S0_4  1  0.84916900  0.36209200  0.19962800  1
  S  S0_5  1  0.84916900  0.36209200  0.69962800  1
  S  S0_6  1  0.84916900  0.86209200  0.19962800  1
  S  S0_7  1  0.84916900  0.86209200  0.69962800  1
  S  S1_0  1  0.16246400  0.14954100  0.30037200  1
  S  S1_1  1  0.16246400  0.14954100  0.80037200  1
  S  S1_2  1  0.16246400  0.64954100  0.30037200  1
  S  S1_3  1  0.16246400  0.64954100  0.80037200  1
  S  S1_4  1  0.66246400  0.14954100  0.30037200  1
  S  S1_5  1  0.66246400  0.14954100  0.80037200  1
  S  S1_6  1  0.66246400  0.64954100  0.30037200  1
  S  S1_7  1  0.66246400  0.64954100  0.80037200  1
  S  S2_0  1  0.35045900  0.15083100  0.01292350  1
  S  S2_1  1  0.35045900  0.15083100  0.51292350  1
  S  S2_2  1  0.35045900  0.65083100  0.01292350  1
  S  S2_3  1  0.35045900  0.65083100  0.51292350  1
  S  S2_4  1  0.85045900  0.15083100  0.01292350  1
  S  S2_5  1  0.85045900  0.15083100  0.51292350  1
  S  S2_6  1  0.85045900  0.65083100  0.01292350  1
  S  S2_7  1  0.85045900  0.65083100  0.51292350  1
  S  S3_0  1  0.13790800  0.33753600  0.48707650  1
  S  S3_1  1  0.13790800  0.33753600  0.98707650  1
  S  S3_2  1  0.13790800  0.83753600  0.48707650  1
  S  S3_3  1  0.13790800  0.83753600  0.98707650  1
  S  S3_4  1  0.63790800  0.33753600  0.48707650  1
  S  S3_5  1  0.63790800  0.33753600  0.98707650  1
  S  S3_6  1  0.63790800  0.83753600  0.48707650  1
  S  S3_7  1  0.63790800  0.83753600  0.98707650  1
loop_
_geom_bond_atom_site_label_1
_geom_bond_atom_site_label_2
_geom_bond_distance
_geom_bond_site_symmetry_2
Cd0_0 Cd0_6 3.010140 1_555
Cd0_0 Cd0_6 3.010140 1_445
Cd0_1 Cd0_7 3.010140 1_445
Cd0_1 Cd0_7 3.010140 1_555
Cd0_2 Cd0_4 3.010140 1_455
Cd0_2 Cd0_4 3.010140 1_565
Cd0_3 Cd0_5 3.010140 1_455
Cd0_3 Cd0_5 3.010140 1_565
Hg0_0 Hg0_6 3.010140 1_555
Hg0_0 Hg0_6 3.010140 1_445
Hg0_1 Hg0_7 3.010140 1_555
Hg0_1 Hg0_7 3.010140 1_445
Hg0_2 Hg0_4 3.010140 1_455
Hg0_2 Hg0_4 3.010140 1_565
Hg0_3 Hg0_5 3.010140 1_455
Hg0_3 Hg0_5 3.010140 1_565
S0_0 S1_6 2.145512 1_555
S0_0 S1_0 2.145512 1_555
S0_1 S1_1 2.145512 1_555
S0_1 S1_7 2.145512 1_555
S0_2 S1_4 2.145512 1_565
S0_2 S1_2 2.145512 1_555
S0_3 S1_3 2.145512 1_555
S0_3 S1_5 2.145512 1_565
S0_4 S1_4 2.145512 1_555
S0_4 S1_2 2.145512 1_655
S0_5 S1_3 2.145512 1_655
S0_5 S1_5 2.145512 1_555
S0_6 S1_6 2.145512 1_555
S0_6 S1_0 2.145512 1_665
S0_7 S1_7 2.145512 1_555
S0_7 S1_1 2.145512 1_665
S2_0 S3_3 2.145512 1_544
S2_0 S3_5 2.145517 1_554
S2_1 S3_2 2.145512 1_545
S2_1 S3_4 2.145517 1_555
S2_2 S3_1 2.145512 1_554
S2_2 S3_7 2.145517 1_554
S2_3 S3_0 2.145512 1_555
S2_3 S3_6 2.145517 1_555
S2_4 S3_7 2.145512 1_544
S2_4 S3_1 2.145517 1_654
S2_5 S3_6 2.145512 1_545
S2_5 S3_0 2.145517 1_655
S2_6 S3_5 2.145512 1_554
S2_6 S3_3 2.145517 1_654
S2_7 S3_4 2.145512 1_555
S2_7 S3_2 2.145517 1_655
