# generated using pymatgen
data_PrLuS3
_symmetry_space_group_name_H-M   'P 1'
_cell_length_a   6.57786490
_cell_length_b   6.57786490
_cell_length_c   9.49266203
_cell_angle_alpha   90.00000000
_cell_angle_beta   90.00000000
_cell_angle_gamma   145.64587291
_symmetry_Int_Tables_number   1
_chemical_formula_structural   PrLuS3
_chemical_formula_sum   'Pr2 Lu2 S6'
_cell_volume   231.77828568
_cell_formula_units_Z   2
loop_
 _symmetry_equiv_pos_site_id
 _symmetry_equiv_pos_as_xyz
  1  'x, y, z'
loop_
 _atom_site_type_symbol
 _atom_site_label
 _atom_site_symmetry_multiplicity
 _atom_site_fract_x
 _atom_site_fract_y
 _atom_site_fract_z
 _atom_site_occupancy
  Pr  Pr0  1  0.74658065  0.25341935  0.25000000  1
  Pr  Pr1  1  0.25341935  0.74658065  0.75000000  1
  Lu  Lu0  1  0.00000000  0.00000000  0.50000000  1
  Lu  Lu1  1  0.00000000  0.00000000  -0.00000000  1
  S  S0  1  0.64059183  0.35940817  0.56185087  1
  S  S1  1  0.64059183  0.35940817  0.93814913  1
  S  S2  1  0.35940817  0.64059183  0.06185087  1
  S  S3  1  0.35940817  0.64059183  0.43814913  1
  S  S4  1  0.08428723  0.91571277  0.25000000  1
  S  S5  1  0.91571277  0.08428723  0.75000000  1
loop_
_geom_bond_atom_site_label_1
_geom_bond_atom_site_label_2
_geom_bond_distance
_geom_bond_site_symmetry_2
Pr0 S4 2.816870 1_545
Pr0 S4 2.816870 1_655
Pr0 S2 2.995787 1_655
Pr0 S3 2.995787 1_655
Pr0 S2 2.995787 1_545
Pr0 S3 2.995787 1_545
Pr0 S1 3.246231 1_554
Pr0 S0 3.246231 1_555
Pr1 S5 2.816870 1_455
Pr1 S5 2.816870 1_565
Pr1 S0 2.995787 1_455
Pr1 S1 2.995787 1_455
Pr1 S0 2.995787 1_565
Pr1 S1 2.995787 1_565
Pr1 S2 3.246231 1_556
Pr1 S3 3.246231 1_555
Lu0 S5 2.598893 1_455
Lu0 S4 2.598893 1_545
Lu0 S3 2.690924 1_555
Lu0 S3 2.690924 1_445
Lu0 S0 2.690924 1_555
Lu0 S0 2.690924 1_445
Lu1 S4 2.598893 1_545
Lu1 S5 2.598893 1_454
Lu1 S1 2.690924 1_554
Lu1 S1 2.690924 1_444
Lu1 S2 2.690924 1_555
Lu1 S2 2.690924 1_445
