# generated using pymatgen
data_DyTiCo11
_symmetry_space_group_name_H-M   'P 1'
_cell_length_a   4.68893900
_cell_length_b   6.34481993
_cell_length_c   6.34481993
_cell_angle_alpha   97.60288069
_cell_angle_beta   111.68534831
_cell_angle_gamma   68.31465169
_symmetry_Int_Tables_number   1
_chemical_formula_structural   DyTiCo11
_chemical_formula_sum   'Dy1 Ti1 Co11'
_cell_volume   162.98652440
_cell_formula_units_Z   1
loop_
 _symmetry_equiv_pos_site_id
 _symmetry_equiv_pos_as_xyz
  1  'x, y, z'
loop_
 _atom_site_type_symbol
 _atom_site_label
 _atom_site_symmetry_multiplicity
 _atom_site_fract_x
 _atom_site_fract_y
 _atom_site_fract_z
 _atom_site_occupancy
  Dy  Dy0  1  0.00693400  0.99306600  0.00693400  1
  Ti  Ti0  1  0.62994700  0.37005300  0.62994700  1
  Co  Co0  1  0.72630500  0.77369500  0.22630500  1
  Co  Co1  1  0.28052500  0.21947500  0.78052500  1
  Co  Co2  1  0.49864900  0.78333100  0.78062900  1
  Co  Co3  1  0.49864900  0.21937100  0.21666900  1
  Co  Co4  1  0.49979000  0.99554000  0.49925800  1
  Co  Co5  1  0.00392800  0.99554000  0.49925800  1
  Co  Co6  1  0.49979000  0.50074200  0.00446000  1
  Co  Co7  1  0.00392800  0.50074200  0.00446000  1
  Co  Co8  1  0.35371300  0.64628700  0.35371300  1
  Co  Co9  1  0.99892100  0.35973800  0.35757900  1
  Co  Co10  1  0.99892100  0.64242100  0.64026200  1
loop_
_geom_bond_atom_site_label_1
_geom_bond_atom_site_label_2
_geom_bond_distance
_geom_bond_site_symmetry_2
Dy0 Ti0 3.135566 1_464
Co0 Co6 2.391251 1_555
Co0 Co4 2.391251 1_555
Co0 Co7 2.391251 1_655
Co0 Co5 2.391251 1_655
Co0 Co9 2.556762 1_555
Co0 Co10 2.556762 1_555
Co0 Co8 2.572842 1_555
Co0 Co8 2.572843 1_655
Co0 Co2 2.627943 1_554
Co0 Co3 2.627943 1_565
Co0 Dy0 2.970811 1_655
Co0 Dy0 2.970811 1_555
Co1 Co4 2.421977 1_545
Co1 Co6 2.421977 1_556
Co1 Co5 2.421977 1_545
Co1 Co7 2.421977 1_556
Co1 Co2 2.571406 1_545
Co1 Co3 2.571406 1_556
Co1 Co9 2.623295 1_455
Co1 Co10 2.623295 1_455
Co1 Ti0 2.658026 1_555
Co1 Ti0 2.658026 1_455
Co1 Dy0 3.007119 1_546
Co1 Dy0 3.007119 1_646
Co2 Co4 2.376645 1_555
Co2 Co5 2.376645 1_555
Co2 Co6 2.427499 1_556
Co2 Co7 2.427500 1_656
Co2 Ti0 2.597584 1_555
Co2 Co8 2.647275 1_555
Co2 Dy0 2.970180 1_556
Co2 Dy0 2.970180 1_656
Co3 Co6 2.376645 1_555
Co3 Co7 2.376645 1_555
Co3 Co4 2.427499 1_545
Co3 Co5 2.427500 1_645
Co3 Ti0 2.597584 1_555
Co3 Co9 2.622656 1_455
Co3 Co9 2.622660 1_555
Co3 Co8 2.647275 1_555
Co3 Dy0 2.970180 1_545
Co3 Dy0 2.970180 1_645
Co4 Co5 2.325067 1_555
Co4 Co5 2.363872 1_655
Co4 Co8 2.518949 1_555
Co4 Co9 2.577255 1_465
Co4 Ti0 2.623509 1_565
Co4 Dy0 3.126882 1_555
Co4 Dy0 3.218024 1_656
Co5 Co8 2.518949 1_555
Co5 Co9 2.577257 1_465
Co5 Ti0 2.623510 1_465
Co5 Dy0 3.126882 1_555
Co5 Dy0 3.218024 1_556
Co6 Co7 2.325067 1_555
Co6 Co7 2.363872 1_655
Co6 Co8 2.518949 1_555
Co6 Co9 2.530905 1_555
Co6 Ti0 2.623509 1_554
Co6 Dy0 3.126882 1_555
Co6 Dy0 3.218024 1_645
Co7 Co8 2.518949 1_555
Co7 Co9 2.530903 1_455
Co7 Ti0 2.623510 1_454
Co7 Dy0 3.126882 1_555
Co7 Dy0 3.218024 1_545
Co8 Ti0 2.297559 1_555
Co8 Dy0 2.884313 1_555
Co8 Co9 2.889782 1_455
Co8 Co9 2.889786 1_555
Co9 Ti0 2.842507 1_655
Co9 Ti0 2.842510 1_555
Co9 Dy0 2.998513 1_645
Co10 Co9 2.362747 1_555
Co10 Co5 2.530903 1_655
Co10 Co4 2.530905 1_555
Co10 Co6 2.577255 1_656
Co10 Co7 2.577257 1_656
Co10 Co2 2.622656 1_655
Co10 Co2 2.622660 1_555
Co10 Ti0 2.842507 1_655
Co10 Ti0 2.842510 1_555
Co10 Co8 2.889782 1_655
Co10 Co8 2.889786 1_555
Co10 Dy0 2.998513 1_656
