# generated using pymatgen
data_Cd2P4PdO8
_symmetry_space_group_name_H-M   'P 1'
_cell_length_a   10.53883994
_cell_length_b   10.51713216
_cell_length_c   9.17178226
_cell_angle_alpha   64.29925282
_cell_angle_beta   64.05511937
_cell_angle_gamma   51.64562781
_symmetry_Int_Tables_number   1
_chemical_formula_structural   Cd2P4PdO8
_chemical_formula_sum   'Cd4 P8 Pd2 O16'
_cell_volume   697.63015160
_cell_formula_units_Z   2
loop_
 _symmetry_equiv_pos_site_id
 _symmetry_equiv_pos_as_xyz
  1  'x, y, z'
loop_
 _atom_site_type_symbol
 _atom_site_label
 _atom_site_symmetry_multiplicity
 _atom_site_fract_x
 _atom_site_fract_y
 _atom_site_fract_z
 _atom_site_occupancy
  Cd  Cd0  1  0.12500000  0.62500000  0.12500000  1
  Cd  Cd1  1  0.12500000  0.12500000  0.62500000  1
  Cd  Cd2  1  0.12500000  0.12500000  0.12500000  1
  Cd  Cd3  1  0.62500000  0.12500000  0.12500000  1
  P  P0  1  0.44846300  0.44029800  0.78743000  1
  P  P1  1  0.32380900  0.78743000  0.44029800  1
  P  P2  1  0.78743000  0.32380900  0.44846300  1
  P  P3  1  0.80153700  0.80970200  0.46257000  1
  P  P4  1  0.44029800  0.44846300  0.32380900  1
  P  P5  1  0.92619100  0.46257000  0.80970200  1
  P  P6  1  0.46257000  0.92619100  0.80153700  1
  P  P7  1  0.80970200  0.80153700  0.92619100  1
  Pd  Pd0  1  0.75000000  0.75000000  0.75000000  1
  Pd  Pd1  1  0.50000000  0.50000000  0.50000000  1
  O  O0  1  0.56881800  0.32109500  0.21771500  1
  O  O1  1  0.89237200  0.21771500  0.32109500  1
  O  O2  1  0.21771500  0.89237200  0.56881800  1
  O  O3  1  0.68118200  0.92890500  0.03228500  1
  O  O4  1  0.32109500  0.56881800  0.89237200  1
  O  O5  1  0.35762800  0.03228500  0.92890500  1
  O  O6  1  0.03228500  0.35762800  0.68118200  1
  O  O7  1  0.92890500  0.68118200  0.35762800  1
  O  O8  1  0.56763600  0.27080600  0.88071400  1
  O  O9  1  0.28084500  0.88071400  0.27080600  1
  O  O10  1  0.88071400  0.28084500  0.56763600  1
  O  O11  1  0.68236400  0.97919400  0.36928600  1
  O  O12  1  0.27080600  0.56763600  0.28084500  1
  O  O13  1  0.96915500  0.36928600  0.97919400  1
  O  O14  1  0.36928600  0.96915500  0.68236400  1
  O  O15  1  0.97919400  0.68236400  0.96915500  1
loop_
_geom_bond_atom_site_label_1
_geom_bond_atom_site_label_2
_geom_bond_distance
_geom_bond_site_symmetry_2
Cd0 O15 2.189004 1_454
Cd0 O12 2.189004 1_555
Cd0 O4 2.211807 1_554
Cd0 O7 2.211807 1_455
Cd1 O14 2.188995 1_545
Cd1 O10 2.188995 1_455
Cd1 O2 2.211807 1_545
Cd1 O6 2.211807 1_555
Cd2 O13 2.188999 1_454
Cd2 O9 2.188999 1_545
Cd2 O1 2.211807 1_455
Cd2 O5 2.211807 1_554
Cd3 O11 2.188996 1_545
Cd3 O8 2.188996 1_554
Cd3 O3 2.211807 1_545
Cd3 O0 2.211807 1_555
P0 Pd1 2.318124 1_555
P1 Pd1 2.318124 1_555
P2 Pd1 2.318124 1_555
P3 Pd0 2.318124 1_555
P4 Pd1 2.318124 1_555
P5 Pd0 2.318124 1_555
P6 Pd0 2.318124 1_555
P7 Pd0 2.318124 1_555
O0 P4 1.517039 1_555
O1 P2 1.517039 1_555
O2 P1 1.517039 1_555
O3 P7 1.517039 1_554
O4 P0 1.517039 1_555
O5 P6 1.517039 1_545
O6 P5 1.517039 1_455
O7 P3 1.517039 1_555
O8 P0 1.525106 1_555
O9 P1 1.525102 1_555
O10 P2 1.525110 1_555
O11 P3 1.525106 1_555
O12 P4 1.525102 1_555
O13 P5 1.525102 1_555
O14 P6 1.525110 1_555
O15 P7 1.525102 1_555
