# generated using pymatgen
data_Sb4(TeSe)3
_symmetry_space_group_name_H-M   'P 1'
_cell_length_a   10.37550710
_cell_length_b   10.37550710
_cell_length_c   7.28556733
_cell_angle_alpha   83.42441966
_cell_angle_beta   83.42441966
_cell_angle_gamma   23.41046655
_symmetry_Int_Tables_number   1
_chemical_formula_structural   Sb4(TeSe)3
_chemical_formula_sum   'Sb4 Te3 Se3'
_cell_volume   309.47624581
_cell_formula_units_Z   1
loop_
 _symmetry_equiv_pos_site_id
 _symmetry_equiv_pos_as_xyz
  1  'x, y, z'
loop_
 _atom_site_type_symbol
 _atom_site_label
 _atom_site_symmetry_multiplicity
 _atom_site_fract_x
 _atom_site_fract_y
 _atom_site_fract_z
 _atom_site_occupancy
  Sb  Sb0  1  0.90901200  0.90901200  0.70076800  1
  Sb  Sb1  1  0.40766700  0.40766700  0.19223000  1
  Sb  Sb2  1  0.58873200  0.58873200  0.80319800  1
  Sb  Sb3  1  0.08968300  0.08968300  0.30391400  1
  Te  Te0  1  0.82086000  0.82086000  0.39021100  1
  Te  Te1  1  0.17705500  0.17705500  0.60979900  1
  Te  Te2  1  0.67630300  0.67630300  0.10648000  1
  Se  Se0  1  0.49673400  0.49673400  0.50200500  1
  Se  Se1  1  0.99953100  0.99953100  0.00015800  1
  Se  Se2  1  0.33442400  0.33442400  0.89123700  1
loop_
_geom_bond_atom_site_label_1
_geom_bond_atom_site_label_2
_geom_bond_distance
_geom_bond_site_symmetry_2
Sb0 Se2 2.856844 1_565
Sb0 Se2 2.856844 1_655
Sb0 Se1 3.013158 1_556
Sb0 Se0 3.016832 1_655
Sb0 Se0 3.016832 1_565
Sb0 Te0 3.045586 1_555
Sb1 Se2 2.790534 1_554
Sb1 Te0 3.004583 1_455
Sb1 Te0 3.004583 1_545
Sb1 Se1 3.043413 1_455
Sb1 Se1 3.043413 1_545
Sb1 Se0 3.053560 1_555
Sb2 Te2 2.994679 1_556
Sb2 Te1 3.007585 1_565
Sb2 Te1 3.007585 1_655
Sb2 Se1 3.027677 1_456
Sb2 Se1 3.027677 1_546
Sb2 Se0 3.044525 1_555
Sb3 Te2 3.000928 1_455
Sb3 Te2 3.000928 1_545
Sb3 Te1 3.007271 1_555
Sb3 Se1 3.033372 1_445
Sb3 Se0 3.072982 1_455
Sb3 Se0 3.072982 1_545
