# generated using pymatgen
data_MnBiO3
_symmetry_space_group_name_H-M   'P 1'
_cell_length_a   5.61453159
_cell_length_b   5.61453159
_cell_length_c   9.98448811
_cell_angle_alpha   72.43527194
_cell_angle_beta   72.43527194
_cell_angle_gamma   60.80682567
_symmetry_Int_Tables_number   1
_chemical_formula_structural   MnBiO3
_chemical_formula_sum   'Mn4 Bi4 O12'
_cell_volume   257.39382458
_cell_formula_units_Z   4
loop_
 _symmetry_equiv_pos_site_id
 _symmetry_equiv_pos_as_xyz
  1  'x, y, z'
loop_
 _atom_site_type_symbol
 _atom_site_label
 _atom_site_symmetry_multiplicity
 _atom_site_fract_x
 _atom_site_fract_y
 _atom_site_fract_z
 _atom_site_occupancy
  Mn  Mn0  1  0.22732900  0.78129500  0.75686500  1
  Mn  Mn1  1  0.78129500  0.22732900  0.25686500  1
  Mn  Mn2  1  0.50317200  0.00761400  0.00670100  1
  Mn  Mn3  1  0.00761400  0.50317200  0.50670100  1
  Bi  Bi0  1  0.34882200  0.92723100  0.37844400  1
  Bi  Bi1  1  0.92723100  0.34882200  0.87844400  1
  Bi  Bi2  1  0.07986900  0.65446800  0.13245200  1
  Bi  Bi3  1  0.65446800  0.07986900  0.63245200  1
  O  O0  1  0.27917100  0.91914300  0.92678900  1
  O  O1  1  0.91914300  0.27917100  0.42678900  1
  O  O2  1  0.09283300  0.73027500  0.58682100  1
  O  O3  1  0.73027500  0.09283300  0.08682100  1
  O  O4  1  0.70159900  0.60204400  0.14140200  1
  O  O5  1  0.60204400  0.70159900  0.64140200  1
  O  O6  1  0.41598300  0.29388500  0.37805400  1
  O  O7  1  0.29388500  0.41598300  0.87805400  1
  O  O8  1  0.90751800  0.81663200  0.34242700  1
  O  O9  1  0.81663200  0.90751800  0.84242700  1
  O  O10  1  0.18859700  0.12390000  0.16932500  1
  O  O11  1  0.12390000  0.18859700  0.66932500  1
loop_
_geom_bond_atom_site_label_1
_geom_bond_atom_site_label_2
_geom_bond_distance
_geom_bond_site_symmetry_2
Mn0 O7 1.959055 1_555
Mn0 O5 1.970930 1_555
Mn0 O9 2.032592 1_455
Mn0 O11 2.033515 1_565
Mn0 O2 2.193895 1_555
Mn0 O0 2.207383 1_555
Mn1 O6 1.959055 1_555
Mn1 O4 1.970930 1_555
Mn1 O8 2.032592 1_545
Mn1 O10 2.033515 1_655
Mn1 O3 2.193895 1_555
Mn1 O1 2.207383 1_555
Mn2 O0 1.979731 1_544
Mn2 O3 1.984056 1_555
Mn2 O9 1.988129 1_544
Mn2 O10 1.991534 1_555
Mn2 O7 2.189251 1_554
Mn2 O4 2.194607 1_545
Mn3 O1 1.979731 1_455
Mn3 O2 1.984056 1_555
Mn3 O8 1.988129 1_455
Mn3 O11 1.991534 1_555
Mn3 O6 2.189251 1_555
Mn3 O5 2.194607 1_455
Bi0 O6 2.265284 1_565
Bi0 O10 2.271823 1_565
Bi0 O1 2.275966 1_465
Bi0 O2 2.444208 1_555
Bi1 O7 2.265284 1_655
Bi1 O11 2.271823 1_655
Bi1 O0 2.275966 1_645
Bi1 O3 2.444208 1_556
Bi2 O4 2.254898 1_455
Bi2 O8 2.286656 1_455
Bi2 O3 2.295238 1_465
Bi2 O0 2.463844 1_554
Bi2 O10 2.661156 1_555
Bi3 O5 2.254898 1_545
Bi3 O9 2.286656 1_545
Bi3 O2 2.295238 1_645
Bi3 O1 2.463844 1_555
Bi3 O11 2.661156 1_555
