# generated using pymatgen
data_Rb4Tc6S13
_symmetry_space_group_name_H-M   'P 1'
_cell_length_a   9.72573351
_cell_length_b   9.72573351
_cell_length_c   14.08910541
_cell_angle_alpha   85.46280863
_cell_angle_beta   85.46280863
_cell_angle_gamma   119.70968849
_symmetry_Int_Tables_number   1
_chemical_formula_structural   Rb4Tc6S13
_chemical_formula_sum   'Rb8 Tc12 S26'
_cell_volume   1143.05142379
_cell_formula_units_Z   2
loop_
 _symmetry_equiv_pos_site_id
 _symmetry_equiv_pos_as_xyz
  1  'x, y, z'
loop_
 _atom_site_type_symbol
 _atom_site_label
 _atom_site_symmetry_multiplicity
 _atom_site_fract_x
 _atom_site_fract_y
 _atom_site_fract_z
 _atom_site_occupancy
  Rb  Rb0  1  0.09433934  0.37769241  0.61949919  1
  Rb  Rb1  1  0.62230759  0.90566066  0.88050081  1
  Rb  Rb2  1  0.90566066  0.62230759  0.38050081  1
  Rb  Rb3  1  0.37769241  0.09433934  0.11949919  1
  Rb  Rb4  1  0.29709036  0.23552835  0.84062003  1
  Rb  Rb5  1  0.76447165  0.70290964  0.65937997  1
  Rb  Rb6  1  0.70290964  0.76447165  0.15937997  1
  Rb  Rb7  1  0.23552835  0.29709036  0.34062003  1
  Tc  Tc0  1  0.98299013  0.67943229  0.98084112  1
  Tc  Tc1  1  0.32056771  0.01700987  0.51915888  1
  Tc  Tc2  1  0.01700987  0.32056771  0.01915888  1
  Tc  Tc3  1  0.67943229  0.98299013  0.48084112  1
  Tc  Tc4  1  0.15191848  0.57492164  0.89237782  1
  Tc  Tc5  1  0.42507836  0.84808152  0.60762218  1
  Tc  Tc6  1  0.84808152  0.42507836  0.10762218  1
  Tc  Tc7  1  0.57492164  0.15191848  0.39237782  1
  Tc  Tc8  1  0.59936264  0.15585390  0.57522631  1
  Tc  Tc9  1  0.84414610  0.40063736  0.92477369  1
  Tc  Tc10  1  0.40063736  0.84414610  0.42477369  1
  Tc  Tc11  1  0.15585390  0.59936264  0.07522631  1
  S  S0  1  0.64630232  0.35369768  0.25000000  1
  S  S1  1  0.35369768  0.64630232  0.75000000  1
  S  S2  1  0.35826758  0.73899424  0.17866029  1
  S  S3  1  0.26100576  0.64173242  0.32133971  1
  S  S4  1  0.64173242  0.26100576  0.82133971  1
  S  S5  1  0.73899424  0.35826758  0.67866029  1
  S  S6  1  0.04980639  0.08079536  0.04970528  1
  S  S7  1  0.91920464  0.95019361  0.45029472  1
  S  S8  1  0.95019361  0.91920464  0.95029472  1
  S  S9  1  0.08079536  0.04980639  0.54970528  1
  S  S10  1  0.01991491  0.35646255  0.18440074  1
  S  S11  1  0.64353745  0.98008509  0.31559926  1
  S  S12  1  0.98008509  0.64353745  0.81559926  1
  S  S13  1  0.35646255  0.01991491  0.68440074  1
  S  S14  1  0.73175368  0.17062601  0.04700214  1
  S  S15  1  0.82937399  0.26824632  0.45299786  1
  S  S16  1  0.26824632  0.82937399  0.95299786  1
  S  S17  1  0.17062601  0.73175368  0.54700214  1
  S  S18  1  0.69781516  0.50113684  0.01056958  1
  S  S19  1  0.49886316  0.30218484  0.48943042  1
  S  S20  1  0.69190661  0.99438517  0.64814711  1
  S  S21  1  0.00561483  0.30809339  0.85185289  1
  S  S22  1  0.30809339  0.00561483  0.35185289  1
  S  S23  1  0.99438517  0.69190661  0.14814711  1
  S  S24  1  0.50113684  0.69781516  0.51056958  1
  S  S25  1  0.30218484  0.49886316  0.98943042  1
loop_
_geom_bond_atom_site_label_1
_geom_bond_atom_site_label_2
_geom_bond_distance
_geom_bond_site_symmetry_2
Rb0 S17 3.200422 1_555
Rb0 S21 3.247020 1_555
Rb0 S9 3.354672 1_555
Rb0 S1 3.395592 1_555
Rb0 S5 3.398014 1_455
Rb0 S15 3.451009 1_455
Rb0 S24 3.711547 1_555
Rb0 S20 3.798520 1_445
Rb1 S16 3.200422 1_555
Rb1 S20 3.247020 1_555
Rb1 S8 3.354672 1_555
Rb1 S1 3.395592 1_555
Rb1 S4 3.398014 1_565
Rb1 S14 3.451009 1_566
Rb1 S25 3.711547 1_555
Rb1 S21 3.798520 1_665
Rb2 S15 3.200422 1_555
Rb2 S23 3.247020 1_555
Rb2 S7 3.354672 1_555
Rb2 S0 3.395592 1_555
Rb2 S3 3.398014 1_655
Rb2 S17 3.451009 1_655
Rb2 S19 3.711547 1_555
Rb2 S22 3.798520 1_665
Rb3 S14 3.200422 1_555
Rb3 S22 3.247020 1_555
Rb3 S6 3.354672 1_555
Rb3 S0 3.395592 1_555
Rb3 S2 3.398014 1_545
Rb3 S16 3.451009 1_544
Rb3 S18 3.711547 1_555
Rb3 S23 3.798520 1_445
Rb4 S4 3.223731 1_555
Rb4 S21 3.238683 1_555
Rb4 S13 3.362230 1_555
Rb4 S6 3.364065 1_556
Rb4 S8 3.371931 1_445
Rb4 S25 3.420200 1_555
Rb4 S1 3.846491 1_555
Rb5 S5 3.223731 1_555
Rb5 S20 3.238683 1_555
Rb5 S12 3.362230 1_555
Rb5 S7 3.364065 1_555
Rb5 S9 3.371931 1_665
Rb5 S24 3.420200 1_555
Rb5 S1 3.846491 1_555
Rb6 S2 3.223731 1_555
Rb6 S23 3.238683 1_555
Rb6 S11 3.362230 1_555
Rb6 S8 3.364065 1_554
Rb6 S6 3.371931 1_665
Rb6 S18 3.420200 1_555
Rb6 S0 3.846491 1_555
Rb7 S3 3.223731 1_555
Rb7 S22 3.238683 1_555
Rb7 S10 3.362230 1_555
Rb7 S9 3.364065 1_555
Rb7 S7 3.371931 1_445
Rb7 S19 3.420200 1_555
Rb7 S0 3.846491 1_555
S0 Tc6 2.482648 1_555
S0 Tc7 2.482648 1_555
S1 Tc4 2.482648 1_555
S1 Tc5 2.482648 1_555
S2 S3 2.083741 1_555
S2 Tc11 2.441404 1_555
S3 Tc10 2.441404 1_555
S4 S5 2.083741 1_555
S4 Tc9 2.441404 1_555
S5 Tc8 2.441404 1_555
S6 S8 2.103313 1_444
S6 Tc2 2.515001 1_555
S7 S9 2.103313 1_665
S7 Tc3 2.515001 1_555
S8 Tc0 2.515001 1_555
S9 Tc1 2.515001 1_555
S10 Tc2 2.381593 1_555
S10 Tc6 2.384471 1_455
S10 Tc11 2.387941 1_555
S11 Tc3 2.381593 1_555
S11 Tc7 2.384471 1_565
S11 Tc10 2.387941 1_555
S12 Tc0 2.381593 1_555
S12 Tc4 2.384471 1_655
S12 Tc9 2.387941 1_555
S13 Tc1 2.381593 1_555
S13 Tc5 2.384471 1_545
S13 Tc8 2.387941 1_555
S14 Tc2 2.388404 1_655
S14 Tc9 2.415293 1_554
S14 Tc6 2.417812 1_555
S15 Tc3 2.388404 1_545
S15 Tc8 2.415293 1_555
S15 Tc7 2.417812 1_555
S16 Tc0 2.388404 1_455
S16 Tc11 2.415293 1_556
S16 Tc4 2.417812 1_555
S17 Tc1 2.388404 1_565
S17 Tc10 2.415293 1_555
S17 Tc5 2.417812 1_555
S18 Tc9 2.394901 1_554
S18 Tc6 2.404262 1_555
S18 Tc0 2.410183 1_554
S19 Tc8 2.394901 1_555
S19 Tc7 2.404262 1_555
S19 Tc1 2.410183 1_555
S20 Tc8 2.371468 1_565
S20 Tc3 2.378361 1_555
S20 Tc5 2.405833 1_555
S21 Tc9 2.371468 1_455
S21 Tc2 2.378361 1_556
S21 Tc4 2.405833 1_555
S22 Tc10 2.371468 1_545
S22 Tc1 2.378361 1_555
S22 Tc7 2.405833 1_555
S23 Tc11 2.371468 1_655
S23 Tc0 2.378361 1_554
S23 Tc6 2.405833 1_555
S24 Tc10 2.394901 1_555
S24 Tc5 2.404262 1_555
S24 Tc3 2.410183 1_555
S25 Tc11 2.394901 1_556
S25 Tc4 2.404262 1_555
S25 Tc2 2.410183 1_556
