# generated using pymatgen
data_Na6Cd7S10
_symmetry_space_group_name_H-M   'P 1'
_cell_length_a   13.51985037
_cell_length_b   13.51985037
_cell_length_c   10.50526894
_cell_angle_alpha   72.33446748
_cell_angle_beta   72.33446748
_cell_angle_gamma   17.97915972
_symmetry_Int_Tables_number   1
_chemical_formula_structural   Na6Cd7S10
_chemical_formula_sum   'Na6 Cd7 S10'
_cell_volume   564.04899075
_cell_formula_units_Z   1
loop_
 _symmetry_equiv_pos_site_id
 _symmetry_equiv_pos_as_xyz
  1  'x, y, z'
loop_
 _atom_site_type_symbol
 _atom_site_label
 _atom_site_symmetry_multiplicity
 _atom_site_fract_x
 _atom_site_fract_y
 _atom_site_fract_z
 _atom_site_occupancy
  Na  Na0  1  0.70777700  0.70777700  0.39738700  1
  Na  Na1  1  0.29846300  0.29846300  0.57834000  1
  Na  Na2  1  0.12107900  0.12107900  0.25700700  1
  Na  Na3  1  0.88768800  0.88768800  0.72930700  1
  Na  Na4  1  0.99047200  0.99047200  0.19520200  1
  Na  Na5  1  0.00822500  0.00822500  0.80594700  1
  Cd  Cd0  1  0.55837100  0.55837100  0.52507100  1
  Cd  Cd1  1  0.44221900  0.44221900  0.47409900  1
  Cd  Cd2  1  0.84032400  0.84032400  0.27913400  1
  Cd  Cd3  1  0.15742200  0.15742200  0.72402600  1
  Cd  Cd4  1  0.75121200  0.75121200  0.91085500  1
  Cd  Cd5  1  0.60924400  0.60924400  0.03584900  1
  Cd  Cd6  1  0.38258500  0.38258500  0.97141600  1
  S  S0  1  0.53495000  0.53495000  0.30058200  1
  S  S1  1  0.46522500  0.46522500  0.70089900  1
  S  S2  1  0.88898900  0.88898900  0.46385600  1
  S  S3  1  0.11353500  0.11353500  0.53326200  1
  S  S4  1  0.68298500  0.68298500  0.13305400  1
  S  S5  1  0.31434500  0.31434500  0.84876300  1
  S  S6  1  0.28532700  0.28532700  0.32414300  1
  S  S7  1  0.71554800  0.71554800  0.69916500  1
  S  S8  1  0.91545400  0.91545400  0.05109600  1
  S  S9  1  0.07976100  0.07976100  0.94454200  1
loop_
_geom_bond_atom_site_label_1
_geom_bond_atom_site_label_2
_geom_bond_distance
_geom_bond_site_symmetry_2
Na0 S6 2.892297 1_565
Na0 S6 2.892297 1_655
Na0 S4 3.046201 1_555
Na0 S7 3.240049 1_555
Na0 S3 3.260039 1_655
Na0 S3 3.260039 1_565
Na1 S6 2.798183 1_555
Na1 S5 2.998480 1_555
Na1 S7 3.041484 1_455
Na1 S7 3.041484 1_545
Na1 S2 3.157209 1_545
Na1 S2 3.157209 1_455
Na2 S4 2.751207 1_545
Na2 S4 2.751207 1_455
Na2 S3 2.846696 1_555
Na2 S0 3.052329 1_455
Na2 S0 3.052329 1_545
Na3 S2 2.778156 1_555
Na3 S5 2.892084 1_655
Na3 S5 2.892084 1_565
Na3 S1 2.908688 1_655
Na3 S1 2.908688 1_565
Na4 S0 2.812036 1_565
Na4 S0 2.812036 1_655
Na4 S8 2.858280 1_555
Na4 S9 2.960105 1_664
Na4 S2 3.257459 1_555
Na5 S9 2.734842 1_555
Na5 S1 2.788961 1_455
Na5 S1 2.788961 1_545
Na5 S8 2.974983 1_446
Na5 S3 3.341544 1_555
Cd0 S3 2.592053 1_655
Cd0 S3 2.592053 1_565
Cd0 S1 2.603265 1_555
Cd0 S0 2.619041 1_555
Cd1 S2 2.566999 1_545
Cd1 S2 2.566999 1_455
Cd1 S0 2.585033 1_555
Cd1 S1 2.637013 1_555
Cd2 S6 2.533205 1_565
Cd2 S6 2.533205 1_655
Cd2 S8 2.609873 1_555
Cd2 S2 2.646664 1_555
Cd3 S7 2.586865 1_455
Cd3 S7 2.586865 1_545
Cd3 S9 2.591549 1_555
Cd3 S3 2.614064 1_555
Cd4 S4 2.481029 1_556
Cd4 S5 2.656224 1_565
Cd4 S5 2.656224 1_655
Cd4 S7 2.674769 1_555
Cd5 S4 2.481381 1_555
Cd5 S9 2.543038 1_564
Cd5 S9 2.543038 1_654
Cd5 S0 2.877632 1_555
Cd6 S8 2.526983 1_456
Cd6 S8 2.526983 1_546
Cd6 S5 2.534720 1_555
Cd6 S1 3.015520 1_555
Cd6 Na3 3.276797 1_545
Cd6 Na3 3.276797 1_455
