# generated using pymatgen
data_Mg(Mn5N4)2
_symmetry_space_group_name_H-M   'P 1'
_cell_length_a   7.57248739
_cell_length_b   4.07354379
_cell_length_c   6.63412460
_cell_angle_alpha   90.00000249
_cell_angle_beta   73.20157235
_cell_angle_gamma   74.39701801
_symmetry_Int_Tables_number   1
_chemical_formula_structural   Mg(Mn5N4)2
_chemical_formula_sum   'Mg1 Mn10 N8'
_cell_volume   188.01802542
_cell_formula_units_Z   1
loop_
 _symmetry_equiv_pos_site_id
 _symmetry_equiv_pos_as_xyz
  1  'x, y, z'
loop_
 _atom_site_type_symbol
 _atom_site_label
 _atom_site_symmetry_multiplicity
 _atom_site_fract_x
 _atom_site_fract_y
 _atom_site_fract_z
 _atom_site_occupancy
  Mg  Mg0  1  0.00000000  0.50000000  0.50000000  1
  Mn  Mn0  1  0.43466884  0.78266558  0.82318007  1
  Mn  Mn1  1  0.56533116  0.21733442  0.17681993  1
  Mn  Mn2  1  0.08351581  0.95824260  0.78209662  1
  Mn  Mn3  1  0.91648419  0.04175740  0.21790338  1
  Mn  Mn4  1  0.64090579  0.67954711  0.42095341  1
  Mn  Mn5  1  0.35909421  0.32045289  0.57904659  1
  Mn  Mn6  1  0.80414052  0.59792974  0.96469336  1
  Mn  Mn7  1  0.19585948  0.40207026  0.03530664  1
  Mn  Mn8  1  0.29964651  0.85017725  0.28709654  1
  Mn  Mn9  1  0.70035349  0.14982275  0.71290346  1
  N  N0  1  0.19772455  0.90113772  0.04599614  1
  N  N1  1  0.80227545  0.09886228  0.95400386  1
  N  N2  1  0.35174641  0.82412630  0.57181830  1
  N  N3  1  0.64825359  0.17587370  0.42818170  1
  N  N4  1  0.70800502  0.64599699  0.70813879  1
  N  N5  1  0.29199498  0.35400301  0.29186121  1
  N  N6  1  0.90421705  0.54789147  0.22276962  1
  N  N7  1  0.09578295  0.45210853  0.77723038  1
loop_
_geom_bond_atom_site_label_1
_geom_bond_atom_site_label_2
_geom_bond_distance
_geom_bond_site_symmetry_2
Mg0 N7 2.154453 1_555
Mg0 N6 2.154453 1_455
Mg0 N5 2.162703 1_555
Mg0 N4 2.162703 1_455
Mn0 N0 1.907477 1_556
Mn0 N4 1.908839 1_555
Mn0 N2 1.936953 1_555
Mn1 N1 1.907477 1_554
Mn1 N5 1.908839 1_555
Mn1 N3 1.936953 1_555
Mn2 N1 2.025884 1_465
Mn2 N2 2.033581 1_555
Mn2 N7 2.038564 1_565
Mn2 N7 2.038569 1_555
Mn2 N0 2.152701 1_556
Mn3 N0 2.025884 1_645
Mn3 N3 2.033581 1_555
Mn3 N6 2.038564 1_545
Mn3 N6 2.038569 1_555
Mn3 N1 2.152701 1_554
Mn4 N6 1.975207 1_555
Mn4 N3 2.038417 1_555
Mn4 N3 2.038421 1_565
Mn4 N2 2.045168 1_555
Mn4 N4 2.104500 1_555
Mn5 N7 1.975207 1_555
Mn5 N2 2.038417 1_555
Mn5 N2 2.038421 1_545
Mn5 N3 2.045168 1_555
Mn5 N5 2.104500 1_555
Mn6 N4 2.025995 1_555
Mn6 N1 2.038193 1_555
Mn6 N1 2.038194 1_565
Mn6 N6 2.052812 1_556
Mn6 N7 2.117445 1_655
Mn7 N5 2.025995 1_555
Mn7 N0 2.038193 1_555
Mn7 N0 2.038194 1_545
Mn7 N7 2.052812 1_554
Mn7 N6 2.117445 1_455
Mn8 N0 1.955634 1_555
Mn8 N2 2.035435 1_555
Mn8 N5 2.037522 1_565
Mn8 N5 2.037522 1_555
Mn9 N1 1.955634 1_555
Mn9 N3 2.035435 1_555
Mn9 N4 2.037522 1_545
Mn9 N4 2.037522 1_555
