# generated using pymatgen
data_Fe4Te3Se
_symmetry_space_group_name_H-M   'P 1'
_cell_length_a   5.13773746
_cell_length_b   5.13773746
_cell_length_c   7.42904862
_cell_angle_alpha   69.77015299
_cell_angle_beta   69.77015299
_cell_angle_gamma   90.00000000
_symmetry_Int_Tables_number   1
_chemical_formula_structural   Fe4Te3Se
_chemical_formula_sum   'Fe4 Te3 Se1'
_cell_volume   171.05278461
_cell_formula_units_Z   1
loop_
 _symmetry_equiv_pos_site_id
 _symmetry_equiv_pos_as_xyz
  1  'x, y, z'
loop_
 _atom_site_type_symbol
 _atom_site_label
 _atom_site_symmetry_multiplicity
 _atom_site_fract_x
 _atom_site_fract_y
 _atom_site_fract_z
 _atom_site_occupancy
  Fe  Fe0  1  0.49548600  0.99548600  0.00479900  1
  Fe  Fe1  1  0.99971500  0.49971500  0.00479900  1
  Fe  Fe2  1  0.49548600  0.49971500  0.00479900  1
  Fe  Fe3  1  0.99971500  0.99548600  0.00479900  1
  Te  Te0  1  0.60657100  0.10657100  0.28685700  1
  Te  Te1  1  0.39029300  0.39029300  0.71941500  1
  Te  Te2  1  0.89029300  0.89029300  0.71941500  1
  Se  Se0  1  0.12244100  0.62244100  0.25511800  1
loop_
_geom_bond_atom_site_label_1
_geom_bond_atom_site_label_2
_geom_bond_distance
_geom_bond_site_symmetry_2
Fe0 Se0 2.423882 1_555
Fe0 Fe3 2.547141 1_455
Fe0 Fe2 2.547141 1_555
Fe0 Te0 2.587735 1_565
Fe0 Fe2 2.590596 1_565
Fe0 Fe3 2.590596 1_555
Fe0 Te1 2.592263 1_564
Fe0 Te2 2.592263 1_554
Fe1 Se0 2.423882 1_655
Fe1 Fe2 2.547141 1_655
Fe1 Fe3 2.547141 1_555
Fe1 Te0 2.587740 1_555
Fe1 Fe3 2.590596 1_545
Fe1 Fe2 2.590596 1_555
Fe1 Te1 2.592263 1_654
Fe1 Te2 2.592263 1_554
Fe2 Se0 2.423882 1_555
Fe2 Te0 2.587738 1_555
Fe2 Te1 2.592260 1_554
Fe2 Te2 2.592265 1_554
Fe3 Se0 2.423882 1_655
Fe3 Te0 2.587738 1_565
Fe3 Te2 2.592260 1_554
Fe3 Te1 2.592265 1_664
