# generated using pymatgen
data_TaRh2
_symmetry_space_group_name_H-M   'P 1'
_cell_length_a   4.01400363
_cell_length_b   5.47646884
_cell_length_c   8.22014410
_cell_angle_alpha   90.00000000
_cell_angle_beta   90.00000000
_cell_angle_gamma   90.00000000
_symmetry_Int_Tables_number   1
_chemical_formula_structural   TaRh2
_chemical_formula_sum   'Ta4 Rh8'
_cell_volume   180.69985859
_cell_formula_units_Z   4
loop_
 _symmetry_equiv_pos_site_id
 _symmetry_equiv_pos_as_xyz
  1  'x, y, z'
loop_
 _atom_site_type_symbol
 _atom_site_label
 _atom_site_symmetry_multiplicity
 _atom_site_fract_x
 _atom_site_fract_y
 _atom_site_fract_z
 _atom_site_occupancy
  Ta  Ta0  1  0.75000000  0.16393746  0.60273190  1
  Ta  Ta1  1  0.75000000  0.66393746  0.89726810  1
  Ta  Ta2  1  0.25000000  0.83605017  0.39727085  1
  Ta  Ta3  1  0.25000000  0.33605017  0.10272915  1
  Rh  Rh0  1  0.75000000  0.14733375  0.92624983  1
  Rh  Rh1  1  0.75000000  0.64733375  0.57375017  1
  Rh  Rh2  1  0.25000000  0.85266182  0.07385057  1
  Rh  Rh3  1  0.25000000  0.35266182  0.42614943  1
  Rh  Rh4  1  0.75000000  0.08753737  0.26819965  1
  Rh  Rh5  1  0.75000000  0.58753737  0.23180035  1
  Rh  Rh6  1  0.25000000  0.91247843  0.73179251  1
  Rh  Rh7  1  0.25000000  0.41247843  0.76820749  1
loop_
_geom_bond_atom_site_label_1
_geom_bond_atom_site_label_2
_geom_bond_distance
_geom_bond_site_symmetry_2
Rh0 Ta1 2.658003 1_545
Rh0 Ta0 2.660918 1_555
Rh0 Ta3 2.683406 1_656
Rh0 Ta3 2.683406 1_556
Rh0 Ta1 2.839177 1_555
Rh1 Ta0 2.658003 1_555
Rh1 Ta1 2.660918 1_555
Rh1 Ta2 2.683406 1_655
Rh1 Ta2 2.683406 1_555
Rh1 Ta0 2.839177 1_565
Rh2 Ta3 2.657883 1_565
Rh2 Ta2 2.660117 1_555
Rh2 Ta1 2.683881 1_554
Rh2 Ta1 2.683881 1_454
Rh2 Ta3 2.839149 1_555
Rh3 Ta2 2.657883 1_555
Rh3 Ta3 2.660117 1_555
Rh3 Ta0 2.683881 1_455
Rh3 Ta0 2.683881 1_555
Rh3 Ta2 2.839149 1_545
Rh4 Ta2 2.655295 1_545
Rh4 Ta2 2.655295 1_645
Rh4 Ta3 2.780364 1_555
Rh4 Ta3 2.780364 1_655
Rh4 Ta0 2.781552 1_555
Rh5 Ta3 2.655295 1_555
Rh5 Ta3 2.655295 1_655
Rh5 Ta2 2.780364 1_655
Rh5 Ta2 2.780364 1_555
Rh5 Ta1 2.781552 1_554
Rh6 Ta0 2.655181 1_565
Rh6 Ta0 2.655181 1_465
Rh6 Ta1 2.780460 1_555
Rh6 Ta1 2.780460 1_455
Rh6 Ta2 2.781489 1_555
Rh7 Ta1 2.655181 1_555
Rh7 Ta1 2.655181 1_455
Rh7 Ta0 2.780460 1_455
Rh7 Ta0 2.780460 1_555
Rh7 Ta3 2.781489 1_556
