# generated using pymatgen
data_Y(GeRh2)2
_symmetry_space_group_name_H-M   'P 1'
_cell_length_a   4.23300100
_cell_length_b   9.17392500
_cell_length_c   11.54820400
_cell_angle_alpha   90.00000000
_cell_angle_beta   90.00000000
_cell_angle_gamma   90.00000000
_symmetry_Int_Tables_number   1
_chemical_formula_structural   Y(GeRh2)2
_chemical_formula_sum   'Y4 Ge8 Rh16'
_cell_volume   448.45410473
_cell_formula_units_Z   4
loop_
 _symmetry_equiv_pos_site_id
 _symmetry_equiv_pos_as_xyz
  1  'x, y, z'
loop_
 _atom_site_type_symbol
 _atom_site_label
 _atom_site_symmetry_multiplicity
 _atom_site_fract_x
 _atom_site_fract_y
 _atom_site_fract_z
 _atom_site_occupancy
  Y  Y0  1  0.25000000  0.14898200  0.82540400  1
  Y  Y1  1  0.25000000  0.35101800  0.32540400  1
  Y  Y2  1  0.75000000  0.85101800  0.17459600  1
  Y  Y3  1  0.75000000  0.64898200  0.67459600  1
  Ge  Ge0  1  0.25000000  0.41432100  0.63883000  1
  Ge  Ge1  1  0.25000000  0.08567900  0.13883000  1
  Ge  Ge2  1  0.75000000  0.58567900  0.36117000  1
  Ge  Ge3  1  0.75000000  0.91432100  0.86117000  1
  Ge  Ge4  1  0.25000000  0.61798000  0.05940200  1
  Ge  Ge5  1  0.25000000  0.88202000  0.55940200  1
  Ge  Ge6  1  0.75000000  0.38202000  0.94059800  1
  Ge  Ge7  1  0.75000000  0.11798000  0.44059800  1
  Rh  Rh0  1  0.25000000  0.61504600  0.49837700  1
  Rh  Rh1  1  0.25000000  0.88495400  0.99837700  1
  Rh  Rh2  1  0.75000000  0.38495400  0.50162300  1
  Rh  Rh3  1  0.75000000  0.11504600  0.00162300  1
  Rh  Rh4  1  0.25000000  0.68783500  0.26914300  1
  Rh  Rh5  1  0.25000000  0.81216500  0.76914300  1
  Rh  Rh6  1  0.75000000  0.31216500  0.73085700  1
  Rh  Rh7  1  0.75000000  0.18783500  0.23085700  1
  Rh  Rh8  1  0.25000000  0.17110000  0.55982300  1
  Rh  Rh9  1  0.25000000  0.32890000  0.05982300  1
  Rh  Rh10  1  0.75000000  0.82890000  0.44017700  1
  Rh  Rh11  1  0.75000000  0.67110000  0.94017700  1
  Rh  Rh12  1  0.25000000  0.00309400  0.34493600  1
  Rh  Rh13  1  0.25000000  0.49690600  0.84493600  1
  Rh  Rh14  1  0.75000000  0.99690600  0.65506400  1
  Rh  Rh15  1  0.75000000  0.50309400  0.15506400  1
loop_
_geom_bond_atom_site_label_1
_geom_bond_atom_site_label_2
_geom_bond_distance
_geom_bond_site_symmetry_2
Ge0 Rh8 2.410625 1_555
Ge0 Rh0 2.453916 1_555
Ge0 Rh13 2.497826 1_555
Ge0 Rh6 2.547017 1_555
Ge0 Rh6 2.547017 1_455
Ge0 Rh2 2.657589 1_555
Ge0 Rh2 2.657589 1_455
Ge0 Y3 3.047057 1_455
Ge0 Y3 3.047057 1_555
Ge0 Y0 3.250786 1_555
Ge1 Rh9 2.410625 1_555
Ge1 Rh1 2.453916 1_544
Ge1 Rh12 2.497826 1_555
Ge1 Rh7 2.547017 1_555
Ge1 Rh7 2.547017 1_455
Ge1 Rh3 2.657589 1_455
Ge1 Rh3 2.657589 1_555
Ge1 Y2 3.047057 1_545
Ge1 Y2 3.047057 1_445
Ge1 Y1 3.250786 1_555
Ge2 Rh10 2.410625 1_555
Ge2 Rh2 2.453916 1_555
Ge2 Rh15 2.497826 1_555
Ge2 Rh4 2.547017 1_555
Ge2 Rh4 2.547017 1_655
Ge2 Rh0 2.657589 1_555
Ge2 Rh0 2.657589 1_655
Ge2 Y1 3.047057 1_555
Ge2 Y1 3.047057 1_655
Ge2 Y2 3.250786 1_555
Ge3 Rh11 2.410625 1_555
Ge3 Rh3 2.453916 1_566
Ge3 Rh14 2.497826 1_555
Ge3 Rh5 2.547017 1_555
Ge3 Rh5 2.547017 1_655
Ge3 Rh1 2.657589 1_655
Ge3 Rh1 2.657589 1_555
Ge3 Y0 3.047057 1_665
Ge3 Y0 3.047057 1_565
Ge3 Y3 3.250786 1_555
Ge4 Rh4 2.505475 1_555
Ge4 Rh1 2.548572 1_554
Ge4 Rh11 2.571522 1_554
Ge4 Rh11 2.571522 1_454
Ge4 Rh15 2.609753 1_555
Ge4 Rh15 2.609753 1_455
Ge4 Rh9 2.652003 1_555
Ge4 Rh13 2.714357 1_554
Ge4 Y2 3.289336 1_455
Ge4 Y2 3.289336 1_555
Ge5 Rh5 2.505475 1_555
Ge5 Rh0 2.548572 1_555
Ge5 Rh10 2.571522 1_555
Ge5 Rh10 2.571522 1_455
Ge5 Rh14 2.609753 1_455
Ge5 Rh14 2.609753 1_555
Ge5 Rh8 2.652003 1_565
Ge5 Rh12 2.714357 1_565
Ge5 Y3 3.289336 1_555
Ge5 Y3 3.289336 1_455
Ge6 Rh6 2.505475 1_555
Ge6 Rh3 2.548572 1_556
Ge6 Rh9 2.571522 1_556
Ge6 Rh9 2.571522 1_656
Ge6 Rh13 2.609753 1_655
Ge6 Rh13 2.609753 1_555
Ge6 Rh11 2.652003 1_555
Ge6 Rh15 2.714357 1_556
Ge6 Y0 3.289336 1_555
Ge6 Y0 3.289336 1_655
Ge7 Rh7 2.505475 1_555
Ge7 Rh2 2.548572 1_555
Ge7 Rh8 2.571522 1_655
Ge7 Rh8 2.571522 1_555
Ge7 Rh12 2.609753 1_555
Ge7 Rh12 2.609753 1_655
Ge7 Rh10 2.652003 1_545
Ge7 Rh14 2.714357 1_545
Ge7 Y1 3.289336 1_655
Ge7 Y1 3.289336 1_555
Rh0 Rh4 2.730163 1_555
Rh0 Y3 2.952588 1_555
Rh0 Y3 2.952588 1_455
Rh0 Rh10 2.963153 1_555
Rh0 Rh10 2.963153 1_455
Rh0 Rh2 2.989424 1_455
Rh0 Rh2 2.989424 1_555
Rh0 Y1 3.139592 1_555
Rh1 Rh5 2.730163 1_555
Rh1 Y2 2.952588 1_556
Rh1 Y2 2.952588 1_456
Rh1 Rh11 2.963153 1_555
Rh1 Rh11 2.963153 1_455
Rh1 Rh3 2.989424 1_566
Rh1 Rh3 2.989424 1_466
Rh1 Y0 3.139592 1_565
Rh2 Rh6 2.730163 1_555
Rh2 Y1 2.952588 1_555
Rh2 Y1 2.952588 1_655
Rh2 Rh8 2.963153 1_655
Rh2 Rh8 2.963153 1_555
Rh2 Y3 3.139592 1_555
Rh3 Rh7 2.730163 1_555
Rh3 Y0 2.952588 1_654
Rh3 Y0 2.952588 1_554
Rh3 Rh9 2.963153 1_655
Rh3 Rh9 2.963153 1_555
Rh3 Y2 3.139592 1_545
Rh4 Y2 2.812970 1_555
Rh4 Y2 2.812970 1_455
Rh4 Y1 3.157502 1_555
Rh5 Y3 2.812970 1_555
Rh5 Y3 2.812970 1_455
Rh5 Y0 3.157502 1_565
Rh6 Y0 2.812970 1_555
Rh6 Y0 2.812970 1_655
Rh6 Y3 3.157502 1_555
Rh7 Y1 2.812970 1_655
Rh7 Y1 2.812970 1_555
Rh7 Y2 3.157502 1_545
Rh8 Y0 3.073688 1_555
Rh8 Y1 3.170618 1_555
Rh9 Y1 3.073688 1_555
Rh9 Y0 3.170618 1_554
Rh10 Rh12 2.871065 1_665
Rh10 Rh12 2.871065 1_565
Rh10 Rh14 2.921243 1_555
Rh10 Y2 3.073688 1_555
Rh10 Y3 3.170618 1_555
Rh11 Rh13 2.871065 1_655
Rh11 Rh13 2.871065 1_555
Rh11 Rh15 2.921243 1_556
Rh11 Y3 3.073688 1_555
Rh11 Y2 3.170618 1_556
Rh12 Rh8 2.921243 1_555
Rh12 Rh7 3.014545 1_555
Rh12 Rh7 3.014545 1_455
Rh12 Rh4 3.021706 1_545
Rh12 Y1 3.199789 1_555
Rh12 Y2 3.208666 1_545
Rh12 Y2 3.208666 1_445
Rh13 Rh9 2.921243 1_556
Rh13 Rh6 3.014545 1_455
Rh13 Rh6 3.014545 1_555
Rh13 Rh5 3.021706 1_555
Rh13 Y0 3.199789 1_555
Rh13 Y3 3.208666 1_555
Rh13 Y3 3.208666 1_455
Rh14 Rh8 2.871065 1_565
Rh14 Rh8 2.871065 1_665
Rh14 Rh5 3.014545 1_555
Rh14 Rh5 3.014545 1_655
Rh14 Rh6 3.021706 1_565
Rh14 Y3 3.199789 1_555
Rh14 Y0 3.208666 1_565
Rh14 Y0 3.208666 1_665
Rh15 Rh9 2.871065 1_555
Rh15 Rh9 2.871065 1_655
Rh15 Rh4 3.014545 1_555
Rh15 Rh4 3.014545 1_655
Rh15 Rh7 3.021706 1_555
Rh15 Y2 3.199789 1_555
Rh15 Y1 3.208666 1_555
Rh15 Y1 3.208666 1_655
