# generated using pymatgen
data_Li7Mn2(CoO4)3
_symmetry_space_group_name_H-M   'P 1'
_cell_length_a   3.02343200
_cell_length_b   5.05134416
_cell_length_c   14.36237296
_cell_angle_alpha   86.95497265
_cell_angle_beta   86.56400539
_cell_angle_gamma   88.30694940
_symmetry_Int_Tables_number   1
_chemical_formula_structural   Li7Mn2(CoO4)3
_chemical_formula_sum   'Li7 Mn2 Co3 O12'
_cell_volume   218.56792161
_cell_formula_units_Z   1
loop_
 _symmetry_equiv_pos_site_id
 _symmetry_equiv_pos_as_xyz
  1  'x, y, z'
loop_
 _atom_site_type_symbol
 _atom_site_label
 _atom_site_symmetry_multiplicity
 _atom_site_fract_x
 _atom_site_fract_y
 _atom_site_fract_z
 _atom_site_occupancy
  Li  Li0  1  0.00425100  0.33561800  0.16769400  1
  Li  Li1  1  0.50671900  0.17041800  0.33415500  1
  Li  Li2  1  0.99985800  0.99987300  0.50028700  1
  Li  Li3  1  0.49180300  0.82965900  0.66661100  1
  Li  Li4  1  0.99629400  0.66546200  0.83218800  1
  Li  Li5  1  0.50019500  0.49996300  0.99935200  1
  Li  Li6  1  0.49940500  0.49996800  0.50069700  1
  Mn  Mn0  1  0.99317700  0.00173100  0.99817400  1
  Mn  Mn1  1  0.50423500  0.82842200  0.16945900  1
  Co  Co0  1  0.01082300  0.66225100  0.34253200  1
  Co  Co1  1  0.99799900  0.33460600  0.65891600  1
  Co  Co2  1  0.49454500  0.17381600  0.82983800  1
  O  O0  1  0.52927400  0.14835800  0.08539900  1
  O  O1  1  0.02632200  0.96583400  0.25412300  1
  O  O2  1  0.52931300  0.82335200  0.41126000  1
  O  O3  1  0.00109800  0.63297200  0.59354300  1
  O  O4  1  0.53332000  0.47983100  0.74846600  1
  O  O5  1  0.98901300  0.31555900  0.91499700  1
  O  O6  1  0.47528200  0.51722600  0.25215400  1
  O  O7  1  0.99864400  0.36557600  0.40822400  1
  O  O8  1  0.47590100  0.17607500  0.58970100  1
  O  O9  1  0.00824900  0.03505700  0.74694600  1
  O  O10  1  0.46298700  0.85563600  0.91274000  1
  O  O11  1  0.97129300  0.68273400  0.08254500  1
loop_
_geom_bond_atom_site_label_1
_geom_bond_atom_site_label_2
_geom_bond_distance
_geom_bond_site_symmetry_2
Li0 O11 2.087200 1_455
Li0 O0 2.148645 1_555
Li0 O6 2.160970 1_455
Li0 O6 2.178000 1_555
Li0 O0 2.180949 1_455
Li0 O1 2.188753 1_545
Li1 O2 2.024917 1_545
Li1 O6 2.061414 1_555
Li1 O7 2.071052 1_455
Li1 O1 2.161252 1_645
Li1 O7 2.168705 1_555
Li1 O1 2.216713 1_545
Li2 O8 2.178338 1_565
Li2 O2 2.187213 1_655
Li2 O2 2.206374 1_555
Li2 O7 2.213935 1_565
Li2 O8 2.220717 1_665
Li2 O3 2.228294 1_655
Li3 O8 2.020036 1_565
Li3 O3 2.070297 1_655
Li3 O4 2.074701 1_555
Li3 O9 2.092968 1_565
Li3 O3 2.161948 1_555
Li3 O9 2.298846 1_665
Li4 O5 2.077213 1_555
Li4 O10 2.155477 1_655
Li4 O10 2.159655 1_555
Li4 O4 2.164161 1_555
Li4 O9 2.177503 1_665
Li4 O4 2.181103 1_655
Li5 O5 2.084138 1_555
Li5 O0 2.111891 1_556
Li5 O10 2.134323 1_555
Li5 O11 2.153622 1_456
Li5 O11 2.169714 1_556
Li5 O5 2.270143 1_455
Li6 O8 2.022304 1_555
Li6 O2 2.024467 1_555
Li6 O3 2.072188 1_555
Li6 O7 2.073177 1_555
Li6 O7 2.216886 1_455
Li6 O3 2.219958 1_655
Mn0 O5 1.933837 1_555
Mn0 O11 1.964305 1_546
Mn0 O10 1.973123 1_645
Mn0 O0 1.977824 1_556
Mn0 O10 2.240912 1_545
Mn0 O0 2.271136 1_656
Mn1 O6 1.920066 1_555
Mn1 O0 1.965729 1_565
Mn1 O1 1.966732 1_555
Mn1 O11 1.979592 1_555
Mn1 O1 2.199210 1_655
Mn1 O11 2.259404 1_455
Co0 O7 1.728074 1_455
Co0 O2 1.897121 1_455
Co0 O1 1.938134 1_555
Co0 O6 2.003813 1_555
Co0 O2 2.107184 1_555
Co0 O6 2.294851 1_455
Co1 O3 1.732796 1_655
Co1 O8 1.887132 1_655
Co1 O9 1.920336 1_655
Co1 O4 1.997219 1_555
Co1 O8 2.113907 1_555
Co1 O4 2.287314 1_655
Co2 O4 1.889816 1_555
Co2 O10 1.949907 1_545
Co2 O9 2.030664 1_655
Co2 O5 2.036911 1_455
Co2 O9 2.104694 1_555
Co2 O5 2.149196 1_555
