# generated using pymatgen
data_VH12SO11
_symmetry_space_group_name_H-M   'P 1'
_cell_length_a   6.22553800
_cell_length_b   7.56118701
_cell_length_c   10.25121940
_cell_angle_alpha   91.54323875
_cell_angle_beta   101.35962511
_cell_angle_gamma   95.94092073
_symmetry_Int_Tables_number   1
_chemical_formula_structural   VH12SO11
_chemical_formula_sum   'V2 H24 S2 O22'
_cell_volume   470.00179101
_cell_formula_units_Z   2
loop_
 _symmetry_equiv_pos_site_id
 _symmetry_equiv_pos_as_xyz
  1  'x, y, z'
loop_
 _atom_site_type_symbol
 _atom_site_label
 _atom_site_symmetry_multiplicity
 _atom_site_fract_x
 _atom_site_fract_y
 _atom_site_fract_z
 _atom_site_occupancy
  V  V0  1  0.92972900  0.73142100  0.71802000  1
  V  V1  1  0.07027100  0.26857900  0.28198000  1
  H  H0  1  0.01158400  0.04749000  0.84975500  1
  H  H1  1  0.98841600  0.95251000  0.15024500  1
  H  H2  1  0.74135000  0.00563800  0.80879000  1
  H  H3  1  0.25865000  0.99436200  0.19121000  1
  H  H4  1  0.29442000  0.74432000  0.91263800  1
  H  H5  1  0.70558000  0.25568000  0.08736200  1
  H  H6  1  0.34429600  0.87492100  0.79548300  1
  H  H7  1  0.65570400  0.12507900  0.20451700  1
  H  H8  1  0.51784900  0.55727000  0.68913200  1
  H  H9  1  0.48215100  0.44273000  0.31086800  1
  H  H10  1  0.50013100  0.71086000  0.57799900  1
  H  H11  1  0.49986900  0.28914000  0.42200100  1
  H  H12  1  0.82496200  0.69102000  0.97050200  1
  H  H13  1  0.17503800  0.30898000  0.02949800  1
  H  H14  1  0.80691200  0.49325400  0.90902100  1
  H  H15  1  0.19308800  0.50674600  0.09097900  1
  H  H16  1  0.86795800  0.38251800  0.61921600  1
  H  H17  1  0.13204200  0.61748200  0.38078400  1
  H  H18  1  0.12542900  0.43054500  0.69703200  1
  H  H19  1  0.87457100  0.56945500  0.30296800  1
  H  H20  1  0.60469700  0.14394400  0.61046400  1
  H  H21  1  0.39530300  0.85605600  0.38953600  1
  H  H22  1  0.77039100  0.12466000  0.50889400  1
  H  H23  1  0.22960900  0.87534000  0.49110600  1
  S  S0  1  0.56349800  0.76698400  0.17017700  1
  S  S1  1  0.43650200  0.23301600  0.82982300  1
  O  O0  1  0.96600400  0.83365100  0.58326600  1
  O  O1  1  0.03399600  0.16634900  0.41673400  1
  O  O2  1  0.88389900  0.95282200  0.82750700  1
  O  O3  1  0.11610100  0.04717800  0.17249300  1
  O  O4  1  0.25528000  0.76484600  0.81488700  1
  O  O5  1  0.74472000  0.23515400  0.18511300  1
  O  O6  1  0.59804000  0.66074100  0.65435100  1
  O  O7  1  0.40196000  0.33925900  0.34564900  1
  O  O8  1  0.87321400  0.61715200  0.90268400  1
  O  O9  1  0.12678600  0.38284800  0.09731600  1
  O  O10  1  0.97687900  0.47549000  0.67325300  1
  O  O11  1  0.02312100  0.52451000  0.32674700  1
  O  O12  1  0.67640100  0.20448900  0.54286200  1
  O  O13  1  0.32359900  0.79551100  0.45713800  1
  O  O14  1  0.62372100  0.62915400  0.26812200  1
  O  O15  1  0.37627900  0.37084600  0.73187800  1
  O  O16  1  0.35959700  0.69961800  0.07229900  1
  O  O17  1  0.64040300  0.30038200  0.92770100  1
  O  O18  1  0.74731900  0.81805800  0.10122300  1
  O  O19  1  0.25268100  0.18194200  0.89877700  1
  O  O20  1  0.51651500  0.92990600  0.24513600  1
  O  O21  1  0.48348500  0.07009400  0.75486400  1
loop_
_geom_bond_atom_site_label_1
_geom_bond_atom_site_label_2
_geom_bond_distance
_geom_bond_site_symmetry_2
H0 O2 0.999135 1_445
H1 O3 0.999135 1_665
H2 O2 0.997129 1_545
H3 O3 0.997129 1_565
H4 O4 1.003802 1_555
H4 O16 1.659611 1_556
H5 O5 1.003802 1_555
H5 O17 1.659611 1_554
H6 O4 0.998127 1_555
H7 O5 0.998127 1_555
H8 O6 0.996366 1_555
H8 O15 1.698225 1_555
H9 O7 0.996366 1_555
H9 O14 1.698225 1_555
H10 O6 1.001808 1_555
H11 O7 1.001808 1_555
H12 O8 0.990760 1_555
H13 O9 0.990760 1_555
H14 O8 0.992983 1_555
H14 O17 1.737322 1_555
H15 O9 0.992983 1_555
H15 O16 1.737322 1_555
H16 O10 0.996604 1_555
H17 O11 0.996604 1_555
H18 O10 1.005429 1_455
H18 O15 1.644702 1_555
H19 O11 1.005429 1_655
H19 O14 1.644702 1_555
H20 O12 0.992847 1_555
H21 O13 0.992847 1_555
H22 O12 0.984902 1_555
H23 O13 0.984902 1_555
O0 V0 1.643476 1_555
O1 V1 1.643476 1_555
O2 V0 2.065771 1_555
O3 V1 2.065771 1_555
O4 V0 2.060390 1_455
O5 V1 2.060390 1_655
O6 V0 2.048765 1_555
O7 V1 2.048765 1_555
O8 V0 2.177478 1_555
O9 V1 2.177478 1_555
O10 V0 2.040676 1_555
O11 V1 2.040676 1_555
O14 S0 1.491221 1_555
O15 S1 1.491221 1_555
O16 S0 1.488102 1_555
O17 S1 1.488102 1_555
O18 S0 1.483336 1_555
O19 S1 1.483336 1_555
O20 S0 1.518454 1_555
O21 S1 1.518454 1_555
