# generated using pymatgen
data_Fe2AsH19SO18
_symmetry_space_group_name_H-M   'P 1'
_cell_length_a   7.64534581
_cell_length_b   10.44312410
_cell_length_c   11.03765519
_cell_angle_alpha   114.97545052
_cell_angle_beta   98.62082841
_cell_angle_gamma   93.27152085
_symmetry_Int_Tables_number   1
_chemical_formula_structural   Fe2AsH19SO18
_chemical_formula_sum   'Fe4 As2 H38 S2 O36'
_cell_volume   782.67315680
_cell_formula_units_Z   2
loop_
 _symmetry_equiv_pos_site_id
 _symmetry_equiv_pos_as_xyz
  1  'x, y, z'
loop_
 _atom_site_type_symbol
 _atom_site_label
 _atom_site_symmetry_multiplicity
 _atom_site_fract_x
 _atom_site_fract_y
 _atom_site_fract_z
 _atom_site_occupancy
  Fe  Fe0  1  0.69290700  0.19932400  0.72320600  1
  Fe  Fe1  1  0.30709300  0.80067600  0.27679400  1
  Fe  Fe2  1  0.86572000  0.17868600  0.41997200  1
  Fe  Fe3  1  0.13428000  0.82131400  0.58002800  1
  As  As0  1  0.26881300  0.11766600  0.54489900  1
  As  As1  1  0.73118700  0.88233400  0.45510100  1
  H  H0  1  0.69441400  0.06152500  0.87723900  1
  H  H1  1  0.30558600  0.93847500  0.12276100  1
  H  H2  1  0.51789500  0.13731300  0.89978800  1
  H  H3  1  0.48210500  0.86268700  0.10021200  1
  H  H4  1  0.42371900  0.58532200  0.85033900  1
  H  H5  1  0.57628100  0.41467800  0.14966100  1
  H  H6  1  0.38388700  0.42213300  0.81545000  1
  H  H7  1  0.61611300  0.57786700  0.18455000  1
  H  H8  1  0.86318400  0.47959500  0.21186600  1
  H  H9  1  0.13681600  0.52040500  0.78813400  1
  H  H10  1  0.03604300  0.39943100  0.19162700  1
  H  H11  1  0.96395700  0.60056900  0.80837300  1
  H  H12  1  0.02256300  0.22723500  0.90039600  1
  H  H13  1  0.97743700  0.77276500  0.09960400  1
  H  H14  1  0.03809300  0.13269100  0.74321300  1
  H  H15  1  0.96190700  0.86730900  0.25678700  1
  H  H16  1  0.79952700  0.44577300  0.48000100  1
  H  H17  1  0.20047300  0.55422700  0.51999900  1
  H  H18  1  0.91988800  0.40376500  0.36096600  1
  H  H19  1  0.08011200  0.59623500  0.63903400  1
  H  H20  1  0.02372200  0.10984700  0.19345400  1
  H  H21  1  0.97627800  0.89015300  0.80654600  1
  H  H22  1  0.82088900  0.02719700  0.15474800  1
  H  H23  1  0.17911100  0.97280300  0.84525200  1
  H  H24  1  0.69190100  0.43084800  0.97038500  1
  H  H25  1  0.30809900  0.56915200  0.02961500  1
  H  H26  1  0.76035200  0.49817000  0.87710800  1
  H  H27  1  0.23964800  0.50183000  0.12289200  1
  H  H28  1  0.37588200  0.40876300  0.38432400  1
  H  H29  1  0.62411800  0.59123700  0.61567600  1
  H  H30  1  0.25470000  0.34498200  0.45828200  1
  H  H31  1  0.74530000  0.65501800  0.54171800  1
  H  H32  1  0.88515600  0.35642900  0.65890600  1
  H  H33  1  0.11484400  0.64357100  0.34109400  1
  H  H34  1  0.49741500  0.10106600  0.35388300  1
  H  H35  1  0.50258500  0.89893400  0.64611700  1
  H  H36  1  0.54858200  0.20246900  0.28235000  1
  H  H37  1  0.45141800  0.79753100  0.71765000  1
  S  S0  1  0.28729300  0.20456100  0.08615200  1
  S  S1  1  0.71270700  0.79543900  0.91384800  1
  O  O0  1  0.13260500  0.21957500  0.49589300  1
  O  O1  1  0.86739500  0.78042500  0.50410700  1
  O  O2  1  0.80466100  0.26400500  0.60614100  1
  O  O3  1  0.19533900  0.73599500  0.39385900  1
  O  O4  1  0.15340600  0.02419000  0.61099800  1
  O  O5  1  0.84659400  0.97581000  0.38900200  1
  O  O6  1  0.63908300  0.14462400  0.87647400  1
  O  O7  1  0.36091700  0.85537600  0.12352600  1
  O  O8  1  0.44209000  0.23080500  0.67131200  1
  O  O9  1  0.55791000  0.76919500  0.32868800  1
  O  O10  1  0.21033600  0.10553500  0.13565600  1
  O  O11  1  0.78966400  0.89446500  0.86434400  1
  O  O12  1  0.33162900  0.11925100  0.94991100  1
  O  O13  1  0.66837100  0.88074900  0.05008900  1
  O  O14  1  0.72312100  0.40744900  0.87916000  1
  O  O15  1  0.27687900  0.59255100  0.12084000  1
  O  O16  1  0.34895800  0.00746300  0.40314600  1
  O  O17  1  0.65104200  0.99253700  0.59685400  1
  O  O18  1  0.90634400  0.11115400  0.22331300  1
  O  O19  1  0.09365600  0.88884600  0.77668700  1
  O  O20  1  0.45095600  0.29441300  0.18634900  1
  O  O21  1  0.54904400  0.70558700  0.81365100  1
  O  O22  1  0.95812400  0.18574300  0.80454100  1
  O  O23  1  0.04187600  0.81425700  0.19545900  1
  O  O24  1  0.59609600  0.14460100  0.32798400  1
  O  O25  1  0.40390400  0.85539900  0.67201600  1
  O  O26  1  0.15521200  0.30085800  0.07097300  1
  O  O27  1  0.84478800  0.69914200  0.92902600  1
  O  O28  1  0.87358000  0.37197400  0.42576400  1
  O  O29  1  0.12642000  0.62802600  0.57423600  1
  O  O30  1  0.34621800  0.51565700  0.86616900  1
  O  O31  1  0.65378200  0.48434300  0.13383100  1
  O  O32  1  0.98095000  0.47269200  0.26064900  1
  O  O33  1  0.01905000  0.52730800  0.73935100  1
  O  O34  1  0.31525000  0.43300200  0.46144200  1
  O  O35  1  0.68475000  0.56699800  0.53855800  1
loop_
_geom_bond_atom_site_label_1
_geom_bond_atom_site_label_2
_geom_bond_distance
_geom_bond_site_symmetry_2
Fe0 O2 1.964172 1_555
Fe0 O17 1.988696 1_545
Fe0 O8 2.003743 1_555
Fe0 O6 2.086983 1_555
Fe0 O14 2.098697 1_555
Fe0 O22 2.128887 1_555
Fe1 O3 1.964172 1_555
Fe1 O16 1.988696 1_565
Fe1 O9 2.003743 1_555
Fe1 O7 2.086983 1_555
Fe1 O15 2.098697 1_555
Fe1 O23 2.128887 1_555
Fe2 O28 1.989521 1_555
Fe2 O5 1.991236 1_545
Fe2 O2 2.005797 1_555
Fe2 O0 2.033149 1_655
Fe2 O18 2.059113 1_555
Fe2 O24 2.095339 1_555
Fe3 O29 1.989521 1_555
Fe3 O4 1.991236 1_565
Fe3 O3 2.005797 1_555
Fe3 O1 2.033149 1_455
Fe3 O19 2.059113 1_555
Fe3 O25 2.095339 1_555
As0 O0 1.718542 1_555
As0 O4 1.720411 1_555
As0 O8 1.724213 1_555
As0 O16 1.730686 1_555
As1 O1 1.718542 1_555
As1 O5 1.720411 1_555
As1 O9 1.724213 1_555
As1 O17 1.730686 1_555
H0 O6 0.989514 1_555
H1 O7 0.989514 1_555
H2 O6 1.005232 1_555
H2 O12 1.631955 1_555
H3 O7 1.005232 1_555
H3 O13 1.631955 1_555
H4 O30 1.000039 1_555
H5 O31 1.000039 1_555
H6 O30 0.984358 1_555
H7 O31 0.984358 1_555
H8 O32 1.000313 1_555
H9 O33 1.000313 1_555
H10 O32 0.991931 1_455
H11 O33 0.991931 1_655
H12 O22 0.991008 1_455
H13 O23 0.991008 1_655
H14 O22 0.992470 1_455
H15 O23 0.992470 1_655
H16 O28 1.017194 1_555
H16 O35 1.547998 1_555
H17 O29 1.017194 1_555
H17 O34 1.547998 1_555
H18 O28 1.005046 1_555
H19 O29 1.005046 1_555
H20 O18 1.000194 1_455
H20 O10 1.643322 1_555
H21 O19 1.000194 1_655
H21 O11 1.643322 1_555
H22 O18 0.997185 1_555
H22 O13 1.712847 1_545
H23 O19 0.997185 1_555
H23 O12 1.712847 1_565
H24 O14 1.000740 1_555
H25 O15 1.000740 1_555
H26 O14 0.984071 1_555
H27 O15 0.984071 1_555
H28 O34 0.976336 1_555
H29 O35 0.976336 1_555
H30 O34 0.989935 1_555
H31 O35 0.989935 1_555
H32 O2 0.999792 1_555
H33 O3 0.999792 1_555
H34 O24 0.996429 1_555
H34 O16 1.745466 1_555
H35 O25 0.996429 1_555
H35 O17 1.745466 1_555
H36 O24 0.989000 1_555
H37 O25 0.989000 1_555
O10 S0 1.489391 1_555
O11 S1 1.489391 1_555
O12 S0 1.491945 1_556
O13 S1 1.491945 1_554
O20 S0 1.498011 1_555
O21 S1 1.498011 1_555
O26 S0 1.505508 1_555
O27 S1 1.505505 1_555
