# generated using pymatgen
data_Li7Mn2(CoO4)3
_symmetry_space_group_name_H-M   'P 1'
_cell_length_a   2.90889500
_cell_length_b   5.95685900
_cell_length_c   12.75956526
_cell_angle_alpha   77.20874222
_cell_angle_beta   90.00000000
_cell_angle_gamma   90.00000000
_symmetry_Int_Tables_number   1
_chemical_formula_structural   Li7Mn2(CoO4)3
_chemical_formula_sum   'Li7 Mn2 Co3 O12'
_cell_volume   215.60927048
_cell_formula_units_Z   1
loop_
 _symmetry_equiv_pos_site_id
 _symmetry_equiv_pos_as_xyz
  1  'x, y, z'
loop_
 _atom_site_type_symbol
 _atom_site_label
 _atom_site_symmetry_multiplicity
 _atom_site_fract_x
 _atom_site_fract_y
 _atom_site_fract_z
 _atom_site_occupancy
  Li  Li0  1  0.50000000  0.48570800  0.01503700  1
  Li  Li1  1  0.00000000  0.67305600  0.16780200  1
  Li  Li2  1  0.00000000  0.32478500  0.83682400  1
  Li  Li3  1  0.50000000  0.16616300  0.66791100  1
  Li  Li4  1  0.00000000  0.00413000  0.49616900  1
  Li  Li5  1  0.50000000  0.84911200  0.32088600  1
  Li  Li6  1  0.00000000  0.15990400  0.16878500  1
  Mn  Mn0  1  0.50000000  0.99929100  0.00729000  1
  Mn  Mn1  1  0.00000000  0.49919100  0.49879400  1
  Co  Co0  1  0.50000000  0.33173600  0.31563600  1
  Co  Co1  1  0.50000000  0.66764500  0.67220900  1
  Co  Co2  1  0.00000000  0.83580400  0.83157700  1
  O  O0  1  0.00000000  0.77816900  0.99685800  1
  O  O1  1  0.50000000  0.92206300  0.15407900  1
  O  O2  1  0.50000000  0.59179500  0.82684400  1
  O  O3  1  0.00000000  0.43396500  0.65707100  1
  O  O4  1  0.50000000  0.28290500  0.50002000  1
  O  O5  1  0.00000000  0.10203100  0.33731700  1
  O  O6  1  0.00000000  0.21907000  0.00008000  1
  O  O7  1  0.50000000  0.41930700  0.17362900  1
  O  O8  1  0.50000000  0.06642100  0.84100000  1
  O  O9  1  0.00000000  0.90423800  0.66481200  1
  O  O10  1  0.50000000  0.71952000  0.50381900  1
  O  O11  1  0.00000000  0.56399000  0.34554900  1
loop_
_geom_bond_atom_site_label_1
_geom_bond_atom_site_label_2
_geom_bond_distance
_geom_bond_site_symmetry_2
Li0 O7 1.974044 1_555
Li0 O6 2.192906 1_655
Li0 O6 2.192906 1_555
Li0 O0 2.241733 1_654
Li0 O0 2.241733 1_554
Li0 O2 2.343816 1_554
Li1 O1 2.057000 1_455
Li1 O1 2.057000 1_555
Li1 O7 2.087093 1_455
Li1 O7 2.087093 1_555
Li1 O0 2.131858 1_554
Li1 O11 2.216608 1_555
Li2 O6 2.038360 1_556
Li2 O8 2.109640 1_455
Li2 O8 2.109640 1_555
Li2 O2 2.138170 1_455
Li2 O2 2.138170 1_555
Li2 O3 2.241190 1_555
Li3 O4 2.100724 1_555
Li3 O9 2.139785 1_545
Li3 O9 2.139785 1_645
Li3 O3 2.140490 1_555
Li3 O3 2.140490 1_655
Li3 O8 2.156298 1_555
Li4 O5 1.981148 1_555
Li4 O9 2.101761 1_545
Li4 O4 2.216221 1_555
Li4 O4 2.216221 1_455
Li4 O10 2.219456 1_545
Li4 O10 2.219456 1_445
Li5 O1 2.075889 1_555
Li5 O5 2.137542 1_665
Li5 O5 2.137542 1_565
Li5 O11 2.205096 1_655
Li5 O11 2.205096 1_555
Li5 O10 2.290479 1_555
Li6 O1 2.067759 1_445
Li6 O1 2.067759 1_545
Li6 O5 2.101139 1_555
Li6 O6 2.102849 1_555
Li6 O7 2.132898 1_455
Li6 O7 2.132898 1_555
Mn0 O1 1.827046 1_555
Mn0 O6 1.945388 1_565
Mn0 O6 1.945388 1_665
Mn0 O0 1.986395 1_554
Mn0 O0 1.986395 1_654
Mn0 O8 2.070312 1_564
Mn1 O11 1.907391 1_555
Mn1 O4 1.940792 1_555
Mn1 O4 1.940792 1_455
Mn1 O10 1.969610 1_555
Mn1 O10 1.969610 1_455
Mn1 O3 1.970298 1_555
Co0 O7 1.771084 1_555
Co0 O5 1.973989 1_655
Co0 O5 1.973989 1_555
Co0 O11 2.099762 1_655
Co0 O11 2.099762 1_555
Co0 O4 2.305774 1_555
Co1 O2 1.924168 1_555
Co1 O9 2.012882 1_555
Co1 O9 2.012882 1_655
Co1 O3 2.051693 1_555
Co1 O3 2.051693 1_655
Co1 O10 2.101882 1_555
Co2 O8 2.022426 1_565
Co2 O8 2.022426 1_465
Co2 O0 2.060287 1_555
Co2 O2 2.066561 1_455
Co2 O2 2.066561 1_555
Co2 O9 2.076012 1_555
