# generated using pymatgen
data_Te2Mo(WSe2)3
_symmetry_space_group_name_H-M   'P 1'
_cell_length_a   3.37850821
_cell_length_b   3.37850821
_cell_length_c   38.53096000
_cell_angle_alpha   90.00000000
_cell_angle_beta   90.00000000
_cell_angle_gamma   120.00000416
_symmetry_Int_Tables_number   1
_chemical_formula_structural   Te2Mo(WSe2)3
_chemical_formula_sum   'Te2 Mo1 W3 Se6'
_cell_volume   380.88195791
_cell_formula_units_Z   1
loop_
 _symmetry_equiv_pos_site_id
 _symmetry_equiv_pos_as_xyz
  1  'x, y, z'
loop_
 _atom_site_type_symbol
 _atom_site_label
 _atom_site_symmetry_multiplicity
 _atom_site_fract_x
 _atom_site_fract_y
 _atom_site_fract_z
 _atom_site_occupancy
  Te  Te0  1  0.33333300  0.66666700  0.33059200  1
  Te  Te1  1  0.33333300  0.66666700  0.23302300  1
  Mo  Mo0  1  0.66666700  0.33333300  0.28179500  1
  W  W0  1  0.33333300  0.66666700  0.09389600  1
  W  W1  1  0.33333300  0.66666700  0.46968100  1
  W  W2  1  0.66666700  0.33333300  0.65752900  1
  Se  Se0  1  0.33333300  0.66666700  0.70067200  1
  Se  Se1  1  0.66666700  0.33333300  0.05077100  1
  Se  Se2  1  0.66666700  0.33333300  0.42654900  1
  Se  Se3  1  0.66666700  0.33333300  0.13705000  1
  Se  Se4  1  0.66666700  0.33333300  0.51280200  1
  Se  Se5  1  0.33333300  0.66666700  0.61438800  1
loop_
_geom_bond_atom_site_label_1
_geom_bond_atom_site_label_2
_geom_bond_distance
_geom_bond_site_symmetry_2
Mo0 Te1 2.708556 1_545
Mo0 Te1 2.708556 1_655
Mo0 Te1 2.708561 1_555
Mo0 Te0 2.709225 1_545
Mo0 Te0 2.709225 1_655
Mo0 Te0 2.709229 1_555
Se0 W2 2.562839 1_455
Se0 W2 2.562839 1_565
Se0 W2 2.562843 1_555
Se1 W0 2.562389 1_545
Se1 W0 2.562389 1_655
Se1 W0 2.562394 1_555
Se2 W1 2.562564 1_655
Se2 W1 2.562564 1_545
Se2 W1 2.562568 1_555
Se3 W0 2.563114 1_545
Se3 W0 2.563114 1_655
Se3 W0 2.563118 1_555
Se4 W1 2.562289 1_545
Se4 W1 2.562289 1_655
Se4 W1 2.562294 1_555
Se5 W2 2.562789 1_455
Se5 W2 2.562789 1_565
Se5 W2 2.562793 1_555
