# generated using pymatgen
data_Ca3(RuN2)2
_symmetry_space_group_name_H-M   'P 1'
_cell_length_a   5.98220700
_cell_length_b   10.24453000
_cell_length_c   8.61950900
_cell_angle_alpha   90.00000000
_cell_angle_beta   90.00000000
_cell_angle_gamma   90.00000000
_symmetry_Int_Tables_number   1
_chemical_formula_structural   Ca3(RuN2)2
_chemical_formula_sum   'Ca12 Ru8 N16'
_cell_volume   528.24573916
_cell_formula_units_Z   4
loop_
 _symmetry_equiv_pos_site_id
 _symmetry_equiv_pos_as_xyz
  1  'x, y, z'
loop_
 _atom_site_type_symbol
 _atom_site_label
 _atom_site_symmetry_multiplicity
 _atom_site_fract_x
 _atom_site_fract_y
 _atom_site_fract_z
 _atom_site_occupancy
  Ca  Ca0  1  0.62442100  0.15368300  0.42265200  1
  Ca  Ca1  1  0.87557900  0.84631700  0.42265200  1
  Ca  Ca2  1  0.62442100  0.34631700  0.07734800  1
  Ca  Ca3  1  0.87557900  0.65368300  0.07734800  1
  Ca  Ca4  1  0.37557900  0.84631700  0.57734800  1
  Ca  Ca5  1  0.12442100  0.15368300  0.57734800  1
  Ca  Ca6  1  0.37557900  0.65368300  0.92265200  1
  Ca  Ca7  1  0.12442100  0.34631700  0.92265200  1
  Ca  Ca8  1  0.75000000  0.50000000  0.40132400  1
  Ca  Ca9  1  0.75000000  0.00000000  0.09867600  1
  Ca  Ca10  1  0.25000000  0.50000000  0.59867600  1
  Ca  Ca11  1  0.25000000  0.00000000  0.90132400  1
  Ru  Ru0  1  0.75000000  0.50000000  0.74397200  1
  Ru  Ru1  1  0.75000000  0.00000000  0.75602800  1
  Ru  Ru2  1  0.25000000  0.50000000  0.25602800  1
  Ru  Ru3  1  0.25000000  0.00000000  0.24397200  1
  Ru  Ru4  1  0.69369500  0.25000000  0.75000000  1
  Ru  Ru5  1  0.80630500  0.75000000  0.75000000  1
  Ru  Ru6  1  0.30630500  0.75000000  0.25000000  1
  Ru  Ru7  1  0.19369500  0.25000000  0.25000000  1
  N  N0  1  0.91802600  0.35662900  0.64072100  1
  N  N1  1  0.58197400  0.64337100  0.64072100  1
  N  N2  1  0.91802600  0.14337100  0.85927900  1
  N  N3  1  0.58197400  0.85662900  0.85927900  1
  N  N4  1  0.08197400  0.64337100  0.35927900  1
  N  N5  1  0.41802600  0.35662900  0.35927900  1
  N  N6  1  0.08197400  0.85662900  0.14072100  1
  N  N7  1  0.41802600  0.14337100  0.14072100  1
  N  N8  1  0.47095800  0.40135800  0.81688500  1
  N  N9  1  0.02904200  0.59864200  0.81688500  1
  N  N10  1  0.47095800  0.09864200  0.68311500  1
  N  N11  1  0.02904200  0.90135800  0.68311500  1
  N  N12  1  0.52904200  0.59864200  0.18311500  1
  N  N13  1  0.97095800  0.40135800  0.18311500  1
  N  N14  1  0.52904200  0.90135800  0.31688500  1
  N  N15  1  0.97095800  0.09864200  0.31688500  1
loop_
_geom_bond_atom_site_label_1
_geom_bond_atom_site_label_2
_geom_bond_distance
_geom_bond_site_symmetry_2
Ca0 N15 2.333802 1_555
Ca0 N5 2.479004 1_555
Ca0 N10 2.490194 1_555
Ca0 N7 2.727830 1_555
Ca0 N14 2.799759 1_545
Ca1 N14 2.333802 1_555
Ca1 N4 2.479004 1_655
Ca1 N11 2.490194 1_655
Ca1 N6 2.727830 1_655
Ca1 N15 2.799759 1_565
Ca2 N13 2.333802 1_555
Ca2 N7 2.479004 1_555
Ca2 N8 2.490194 1_554
Ca2 N5 2.727830 1_555
Ca2 N12 2.799759 1_555
Ca3 N12 2.333802 1_555
Ca3 N6 2.479004 1_655
Ca3 N9 2.490194 1_654
Ca3 N4 2.727830 1_655
Ca3 N13 2.799759 1_555
Ca4 N11 2.333802 1_555
Ca4 N1 2.479004 1_555
Ca4 N14 2.490194 1_555
Ca4 N3 2.727830 1_555
Ca4 N10 2.799759 1_565
Ca5 N10 2.333802 1_555
Ca5 N0 2.479004 1_455
Ca5 N15 2.490194 1_455
Ca5 N2 2.727830 1_455
Ca5 N11 2.799759 1_545
Ca6 N9 2.333802 1_555
Ca6 N3 2.479004 1_555
Ca6 N12 2.490194 1_556
Ca6 N1 2.727830 1_555
Ca6 N8 2.799759 1_555
Ca7 N8 2.333802 1_555
Ca7 N2 2.479004 1_455
Ca7 N13 2.490194 1_456
Ca7 N0 2.727830 1_455
Ca7 N9 2.799759 1_555
Ca8 N4 2.496511 1_655
Ca8 N5 2.496511 1_555
Ca8 N12 2.511176 1_555
Ca8 N13 2.511176 1_555
Ca8 N0 2.724997 1_555
Ca8 N1 2.724997 1_555
Ca9 N6 2.496511 1_645
Ca9 N7 2.496511 1_555
Ca9 N14 2.511176 1_545
Ca9 N15 2.511176 1_555
Ca9 N3 2.724997 1_544
Ca9 N2 2.724997 1_554
Ca10 N1 2.496511 1_555
Ca10 N0 2.496511 1_455
Ca10 N8 2.511176 1_555
Ca10 N9 2.511176 1_555
Ca10 N4 2.724997 1_555
Ca10 N5 2.724997 1_555
Ca11 N3 2.496511 1_545
Ca11 N2 2.496511 1_455
Ca11 N11 2.511176 1_545
Ca11 N10 2.511176 1_555
Ca11 N6 2.724997 1_546
Ca11 N7 2.724997 1_556
N0 Ru4 1.970138 1_555
N0 Ru0 1.989897 1_555
N1 Ru5 1.970138 1_555
N1 Ru0 1.989897 1_555
N2 Ru4 1.970138 1_555
N2 Ru1 1.989897 1_555
N3 Ru5 1.970138 1_555
N3 Ru1 1.989897 1_565
N4 Ru6 1.970138 1_555
N4 Ru2 1.989897 1_555
N5 Ru7 1.970138 1_555
N5 Ru2 1.989897 1_555
N6 Ru6 1.970138 1_555
N6 Ru3 1.989897 1_565
N7 Ru7 1.970138 1_555
N7 Ru3 1.989897 1_555
N8 Ru0 2.050047 1_555
N8 Ru4 2.124183 1_555
N9 Ru0 2.050047 1_455
N9 Ru5 2.124183 1_455
N10 Ru1 2.050047 1_555
N10 Ru4 2.124183 1_555
N11 Ru1 2.050047 1_465
N11 Ru5 2.124183 1_455
N12 Ru2 2.050047 1_555
N12 Ru6 2.124183 1_555
N13 Ru2 2.050047 1_655
N13 Ru7 2.124183 1_655
N14 Ru3 2.050047 1_565
N14 Ru6 2.124183 1_555
N15 Ru3 2.050047 1_655
N15 Ru7 2.124183 1_655
