# generated using pymatgen
data_Ca8Al9Fe3Si12(HO13)4
_symmetry_space_group_name_H-M   'P 1'
_cell_length_a   5.69885600
_cell_length_b   10.34584000
_cell_length_c   16.30143957
_cell_angle_alpha   81.63744438
_cell_angle_beta   90.00000000
_cell_angle_gamma   90.00000000
_symmetry_Int_Tables_number   1
_chemical_formula_structural   Ca8Al9Fe3Si12(HO13)4
_chemical_formula_sum   'Ca8 Al9 Fe3 Si12 H4 O52'
_cell_volume   950.90488694
_cell_formula_units_Z   1
loop_
 _symmetry_equiv_pos_site_id
 _symmetry_equiv_pos_as_xyz
  1  'x, y, z'
loop_
 _atom_site_type_symbol
 _atom_site_label
 _atom_site_symmetry_multiplicity
 _atom_site_fract_x
 _atom_site_fract_y
 _atom_site_fract_z
 _atom_site_occupancy
  Ca  Ca0  1  0.00000000  0.51470400  0.90791800  1
  Ca  Ca1  1  0.00000000  0.01493400  0.40840900  1
  Ca  Ca2  1  0.50000000  0.48511100  0.09172200  1
  Ca  Ca3  1  0.50000000  0.98514800  0.59176000  1
  Ca  Ca4  1  0.00000000  0.45477600  0.69817500  1
  Ca  Ca5  1  0.00000000  0.95496400  0.19781100  1
  Ca  Ca6  1  0.50000000  0.54512200  0.30221800  1
  Ca  Ca7  1  0.50000000  0.04589400  0.80229300  1
  Al  Al0  1  0.75005500  0.25004200  0.24985300  1
  Al  Al1  1  0.74964000  0.74958300  0.75016800  1
  Al  Al2  1  0.25036000  0.74958300  0.75016800  1
  Al  Al3  1  0.24994500  0.25004200  0.24985300  1
  Al  Al4  1  0.75000800  0.49990400  0.50006000  1
  Al  Al5  1  0.74935700  0.00213000  0.99956000  1
  Al  Al6  1  0.25064300  0.00213000  0.99956000  1
  Al  Al7  1  0.24999200  0.49990400  0.50006000  1
  Al  Al8  1  0.50000000  0.25953400  0.96777000  1
  Fe  Fe0  1  0.50000000  0.75785500  0.46500500  1
  Fe  Fe1  1  0.00000000  0.74267400  0.03477000  1
  Fe  Fe2  1  0.00000000  0.24213200  0.53517600  1
  Si  Si0  1  0.00000000  0.25092700  0.06601400  1
  Si  Si1  1  0.00000000  0.75080900  0.56757500  1
  Si  Si2  1  0.50000000  0.74953300  0.93251600  1
  Si  Si3  1  0.50000000  0.24911400  0.43246600  1
  Si  Si4  1  0.50000000  0.47671500  0.79725700  1
  Si  Si5  1  0.50000000  0.98032600  0.29471800  1
  Si  Si6  1  0.00000000  0.51973000  0.20528700  1
  Si  Si7  1  0.00000000  0.01975200  0.70547100  1
  Si  Si8  1  0.00000000  0.19376700  0.85481400  1
  Si  Si9  1  0.00000000  0.69320700  0.35441600  1
  Si  Si10  1  0.50000000  0.80685200  0.14561300  1
  Si  Si11  1  0.50000000  0.30687400  0.64580300  1
  H  H0  1  0.50000000  0.18998000  0.13541000  1
  H  H1  1  0.50000000  0.68962000  0.63565000  1
  H  H2  1  0.00000000  0.81029500  0.86436000  1
  H  H3  1  0.00000000  0.31018300  0.36434400  1
  O  O0  1  0.75421500  0.13941800  0.90389400  1
  O  O1  1  0.75610700  0.63633000  0.40351200  1
  O  O2  1  0.25722600  0.86472300  0.09626800  1
  O  O3  1  0.25618700  0.36366500  0.59642800  1
  O  O4  1  0.74277400  0.86472300  0.09626800  1
  O  O5  1  0.74381300  0.36366500  0.59642800  1
  O  O6  1  0.24578500  0.13941800  0.90389400  1
  O  O7  1  0.24389300  0.63633000  0.40351200  1
  O  O8  1  0.50000000  0.25586800  0.17344100  1
  O  O9  1  0.50000000  0.75569700  0.67350100  1
  O  O10  1  0.00000000  0.74400100  0.82655400  1
  O  O11  1  0.00000000  0.24416200  0.32638500  1
  O  O12  1  0.00000000  0.23760200  0.16914900  1
  O  O13  1  0.00000000  0.73572800  0.67057500  1
  O  O14  1  0.50000000  0.76390600  0.82975800  1
  O  O15  1  0.50000000  0.26373900  0.32956100  1
  O  O16  1  0.50000000  0.40746300  0.89265200  1
  O  O17  1  0.50000000  0.91800100  0.39088500  1
  O  O18  1  0.00000000  0.58186400  0.10897000  1
  O  O19  1  0.00000000  0.08199800  0.60916500  1
  O  O20  1  0.50000000  0.36381200  0.73537900  1
  O  O21  1  0.50000000  0.86392000  0.23536700  1
  O  O22  1  0.00000000  0.63614300  0.26461200  1
  O  O23  1  0.00000000  0.13575600  0.76515800  1
  O  O24  1  0.00000000  0.34837200  0.83239300  1
  O  O25  1  0.00000000  0.84786900  0.33270400  1
  O  O26  1  0.50000000  0.65210900  0.16718400  1
  O  O27  1  0.50000000  0.15216700  0.66717600  1
  O  O28  1  0.50000000  0.09719300  0.03477900  1
  O  O29  1  0.50000000  0.58913600  0.53863000  1
  O  O30  1  0.00000000  0.91159500  0.96129400  1
  O  O31  1  0.00000000  0.41092800  0.46126000  1
  O  O32  1  0.76331300  0.32600600  0.02448700  1
  O  O33  1  0.76896300  0.83023100  0.52649800  1
  O  O34  1  0.26907200  0.66965300  0.97354300  1
  O  O35  1  0.26884400  0.16974400  0.47346400  1
  O  O36  1  0.73092800  0.66965300  0.97354300  1
  O  O37  1  0.73115600  0.16974400  0.47346400  1
  O  O38  1  0.23668700  0.32600600  0.02448700  1
  O  O39  1  0.23103700  0.83023100  0.52649800  1
  O  O40  1  0.73486200  0.56653300  0.77379300  1
  O  O41  1  0.73704100  0.06778400  0.27210200  1
  O  O42  1  0.23701600  0.43233700  0.22776600  1
  O  O43  1  0.23695000  0.93215400  0.72780100  1
  O  O44  1  0.76298400  0.43233700  0.22776600  1
  O  O45  1  0.76305000  0.93215400  0.72780100  1
  O  O46  1  0.26513800  0.56653300  0.77379300  1
  O  O47  1  0.26295900  0.06778400  0.27210200  1
  O  O48  1  0.00000000  0.09290900  0.05219000  1
  O  O49  1  0.00000000  0.59340200  0.55209600  1
  O  O50  1  0.50000000  0.90700200  0.94822900  1
  O  O51  1  0.50000000  0.40665100  0.44782000  1
loop_
_geom_bond_atom_site_label_1
_geom_bond_atom_site_label_2
_geom_bond_distance
_geom_bond_site_symmetry_2
Ca0 O24 2.256841 1_555
Ca0 O10 2.543944 1_555
Ca0 O34 2.562117 1_555
Ca0 O36 2.562117 1_455
Ca0 O40 2.647651 1_455
Ca0 O46 2.647651 1_555
Ca0 O38 2.857006 1_556
Ca0 O32 2.857006 1_456
Ca1 O25 2.265152 1_545
Ca1 O11 2.547503 1_555
Ca1 O35 2.555638 1_555
Ca1 O37 2.555638 1_455
Ca1 O47 2.669936 1_555
Ca1 O41 2.669936 1_455
Ca1 O33 2.832109 1_445
Ca1 O39 2.832109 1_545
Ca1 O17 3.047932 1_445
Ca1 O17 3.047932 1_545
Ca2 O26 2.261972 1_555
Ca2 O8 2.545704 1_555
Ca2 O32 2.585994 1_555
Ca2 O38 2.585994 1_555
Ca2 O42 2.666511 1_555
Ca2 O44 2.666511 1_555
Ca2 O36 2.831716 1_554
Ca2 O34 2.831716 1_554
Ca2 O18 3.046661 1_655
Ca2 O18 3.046661 1_555
Ca3 O27 2.261664 1_565
Ca3 O9 2.547684 1_555
Ca3 O33 2.558514 1_555
Ca3 O39 2.558514 1_555
Ca3 O45 2.666875 1_555
Ca3 O43 2.666875 1_555
Ca3 O35 2.833752 1_565
Ca3 O37 2.833752 1_565
Ca3 O19 3.047364 1_565
Ca3 O19 3.047364 1_665
Ca4 O24 2.301818 1_555
Ca4 O46 2.356690 1_555
Ca4 O40 2.356690 1_455
Ca4 O3 2.495165 1_555
Ca4 O5 2.495165 1_455
Ca4 O49 2.595016 1_555
Ca5 O25 2.313943 1_555
Ca5 O47 2.342201 1_565
Ca5 O41 2.342201 1_465
Ca5 O4 2.491991 1_455
Ca5 O2 2.491991 1_555
Ca5 O48 2.585813 1_565
Ca6 O26 2.315588 1_555
Ca6 O42 2.343632 1_555
Ca6 O44 2.343632 1_555
Ca6 O1 2.490065 1_555
Ca6 O7 2.490065 1_555
Ca6 O51 2.587835 1_555
Ca7 O27 2.314283 1_555
Ca7 O45 2.349934 1_545
Ca7 O43 2.349934 1_545
Ca7 O0 2.498866 1_555
Ca7 O6 2.498866 1_555
Ca7 O50 2.594221 1_545
Al0 O41 1.869131 1_555
Al0 O44 1.869364 1_555
Al0 O8 1.887877 1_555
Al0 O11 1.888651 1_655
Al0 O15 1.947477 1_555
Al0 O12 1.955892 1_655
Al1 O45 1.872489 1_555
Al1 O40 1.878767 1_555
Al1 O9 1.888632 1_555
Al1 O10 1.889075 1_655
Al1 O14 1.945553 1_555
Al1 O13 1.947758 1_655
Al2 O43 1.872489 1_555
Al2 O46 1.878767 1_555
Al2 O9 1.888632 1_555
Al2 O10 1.889075 1_555
Al2 O14 1.945553 1_555
Al2 O13 1.947758 1_555
Al3 O47 1.869131 1_555
Al3 O42 1.869364 1_555
Al3 O8 1.887877 1_555
Al3 O11 1.888651 1_555
Al3 O15 1.947477 1_555
Al3 O12 1.955892 1_555
Al4 O29 1.856437 1_555
Al4 O31 1.856466 1_655
Al4 O5 1.952367 1_555
Al4 O1 1.955580 1_555
Al4 O49 1.980808 1_655
Al4 O51 1.981142 1_555
Al5 O30 1.864582 1_645
Al5 O28 1.865616 1_556
Al5 O0 1.950875 1_555
Al5 O4 1.963603 1_546
Al5 O48 1.973013 1_656
Al5 O50 1.981847 1_545
Al6 O30 1.864582 1_545
Al6 O28 1.865616 1_556
Al6 O6 1.950875 1_555
Al6 O2 1.963603 1_546
Al6 O48 1.973013 1_556
Al6 O50 1.981847 1_545
Al7 O29 1.856437 1_555
Al7 O31 1.856466 1_555
Al7 O3 1.952367 1_555
Al7 O7 1.955580 1_555
Al7 O49 1.980808 1_555
Al7 O51 1.981142 1_555
Al8 O16 1.815663 1_555
Al8 O28 1.865601 1_556
Al8 O32 1.940223 1_556
Al8 O38 1.940223 1_556
Al8 O0 2.259152 1_555
Al8 O6 2.259152 1_555
Fe0 O17 1.903348 1_555
Fe0 O29 1.969264 1_555
Fe0 O39 2.033050 1_555
Fe0 O33 2.033050 1_555
Fe0 O7 2.254415 1_555
Fe0 O1 2.254415 1_555
Fe1 O18 1.909359 1_555
Fe1 O30 1.969766 1_554
Fe1 O34 2.034098 1_554
Fe1 O36 2.034098 1_454
Fe1 O4 2.261963 1_455
Fe1 O2 2.261963 1_555
Fe2 O19 1.902167 1_555
Fe2 O31 1.972182 1_555
Fe2 O35 2.034547 1_555
Fe2 O37 2.034547 1_455
Fe2 O3 2.252699 1_555
Fe2 O5 2.252699 1_455
H0 O8 0.985873 1_555
H1 O9 0.985268 1_555
H2 O10 0.986499 1_555
H3 O11 0.986095 1_555
O0 Si8 1.669542 1_655
O1 Si9 1.667832 1_655
O2 Si10 1.667213 1_555
O3 Si11 1.669156 1_555
O4 Si10 1.667213 1_555
O5 Si11 1.669156 1_555
O6 Si8 1.669542 1_555
O7 Si9 1.667832 1_555
O12 Si0 1.666789 1_555
O13 Si1 1.663534 1_555
O14 Si2 1.660009 1_555
O15 Si3 1.662248 1_555
O16 Si4 1.614779 1_555
O17 Si5 1.606022 1_555
O18 Si6 1.607756 1_555
O19 Si7 1.607891 1_555
O20 Si4 1.650635 1_555
O20 Si11 1.652102 1_555
O21 Si5 1.650870 1_555
O21 Si10 1.655470 1_555
O22 Si6 1.650636 1_555
O22 Si9 1.656212 1_555
O23 Si7 1.651285 1_555
O23 Si8 1.658734 1_555
O24 Si8 1.588080 1_555
O25 Si9 1.587730 1_555
O26 Si10 1.588374 1_555
O27 Si11 1.587772 1_555
O32 Si0 1.651679 1_655
O33 Si1 1.642276 1_655
O34 Si2 1.643601 1_555
O35 Si3 1.642151 1_555
O36 Si2 1.643601 1_555
O37 Si3 1.642151 1_555
O38 Si0 1.651679 1_555
O39 Si1 1.642276 1_555
O40 Si4 1.642512 1_555
O41 Si5 1.637812 1_545
O42 Si6 1.637023 1_555
O43 Si7 1.637471 1_565
O44 Si6 1.637023 1_655
O45 Si7 1.637471 1_665
O46 Si4 1.642512 1_555
O47 Si5 1.637812 1_545
O48 Si0 1.682442 1_555
O49 Si1 1.683815 1_555
O50 Si2 1.685561 1_555
O51 Si3 1.684555 1_555
