# generated using pymatgen
data_Na6UH24C5O27
_symmetry_space_group_name_H-M   'P 1'
_cell_length_a   9.66460337
_cell_length_b   9.86397091
_cell_length_c   13.92821771
_cell_angle_alpha   91.23651536
_cell_angle_beta   104.28259410
_cell_angle_gamma   93.31199361
_symmetry_Int_Tables_number   1
_chemical_formula_structural   Na6UH24C5O27
_chemical_formula_sum   'Na12 U2 H48 C10 O54'
_cell_volume   1283.72422026
_cell_formula_units_Z   2
loop_
 _symmetry_equiv_pos_site_id
 _symmetry_equiv_pos_as_xyz
  1  'x, y, z'
loop_
 _atom_site_type_symbol
 _atom_site_label
 _atom_site_symmetry_multiplicity
 _atom_site_fract_x
 _atom_site_fract_y
 _atom_site_fract_z
 _atom_site_occupancy
  Na  Na0  1  0.80492652  0.75445134  0.19553388  1
  Na  Na1  1  0.19507348  0.24554866  0.80446612  1
  Na  Na2  1  0.85443082  0.41016623  0.91026966  1
  Na  Na3  1  0.14556918  0.58983377  0.08973034  1
  Na  Na4  1  0.87265242  0.09544121  0.84519237  1
  Na  Na5  1  0.12734758  0.90455879  0.15480763  1
  Na  Na6  1  0.40444190  0.85893676  0.04170510  1
  Na  Na7  1  0.59555810  0.14106324  0.95829490  1
  Na  Na8  1  0.81387729  0.43679205  0.44007711  1
  Na  Na9  1  0.18612271  0.56320795  0.55992289  1
  Na  Na10  1  0.61004332  0.15292190  0.49238380  1
  Na  Na11  1  0.38995668  0.84707810  0.50761620  1
  U  U0  1  0.76242886  0.71289397  0.76856981  1
  U  U1  1  0.23757114  0.28710603  0.23143019  1
  H  H0  1  0.61422212  0.17986771  0.74830393  1
  H  H1  1  0.38577788  0.82013229  0.25169607  1
  H  H2  1  0.62640084  0.32633367  0.80292804  1
  H  H3  1  0.37359916  0.67366633  0.19707196  1
  H  H4  1  0.80470743  0.94452058  0.98778099  1
  H  H5  1  0.19529257  0.05547942  0.01221901  1
  H  H6  1  0.88766929  0.06572860  0.06237259  1
  H  H7  1  0.11233071  0.93427140  0.93762741  1
  H  H8  1  0.91763915  0.61873164  0.35667431  1
  H  H9  1  0.08236085  0.38126836  0.64332569  1
  H  H10  1  0.96132588  0.53078313  0.27758130  1
  H  H11  1  0.03867412  0.46921687  0.72241870  1
  H  H12  1  0.60904770  0.57515764  0.48007455  1
  H  H13  1  0.39095230  0.42484236  0.51992545  1
  H  H14  1  0.49888472  0.52234059  0.38291915  1
  H  H15  1  0.50111528  0.47765941  0.61708085  1
  H  H16  1  0.66104874  0.71362031  0.35529632  1
  H  H17  1  0.33895126  0.28637969  0.64470368  1
  H  H18  1  0.65217892  0.87026230  0.34256246  1
  H  H19  1  0.34782108  0.12973770  0.65743754  1
  H  H20  1  0.76490798  0.17863126  0.33277440  1
  H  H21  1  0.23509202  0.82136874  0.66722560  1
  H  H22  1  0.62802152  0.26421201  0.30352111  1
  H  H23  1  0.37197848  0.73578799  0.69647889  1
  H  H24  1  0.84241944  0.33567209  0.08751715  1
  H  H25  1  0.15758056  0.66432791  0.91248285  1
  H  H26  1  0.68782646  0.38778987  0.08090118  1
  H  H27  1  0.31217354  0.61221013  0.91909882  1
  H  H28  1  0.57599674  0.62639514  0.08041283  1
  H  H29  1  0.42400326  0.37360486  0.91958717  1
  H  H30  1  0.64480608  0.72883539  0.01328264  1
  H  H31  1  0.35519392  0.27116461  0.98671736  1
  H  H32  1  0.33434435  0.93982745  0.83848110  1
  H  H33  1  0.66565565  0.06017255  0.16151890  1
  H  H34  1  0.48146477  0.87833631  0.84807673  1
  H  H35  1  0.51853523  0.12166369  0.15192327  1
  H  H36  1  0.74707273  0.91374964  0.53547621  1
  H  H37  1  0.25292727  0.08625036  0.46452379  1
  H  H38  1  0.84745123  0.03560788  0.58416802  1
  H  H39  1  0.15254877  0.96439212  0.41583198  1
  H  H40  1  0.10150554  0.76451944  0.34256986  1
  H  H41  1  0.89849446  0.23548056  0.65743014  1
  H  H42  1  0.97782527  0.87127475  0.34032336  1
  H  H43  1  0.02217473  0.12872525  0.65967664  1
  H  H44  1  0.03956367  0.29373370  0.41663992  1
  H  H45  1  0.96043633  0.70626630  0.58336008  1
  H  H46  1  0.06850773  0.24703298  0.52333297  1
  H  H47  1  0.93149227  0.75296702  0.47666703  1
  C  C0  1  0.78006509  0.46152322  0.65396313  1
  C  C1  1  0.21993491  0.53847678  0.34603687  1
  C  C2  1  0.52570016  0.57522513  0.83089094  1
  C  C3  1  0.47429984  0.42477487  0.16910906  1
  C  C4  1  0.61702455  0.94393650  0.67552712  1
  C  C5  1  0.38297545  0.05606350  0.32447288  1
  C  C6  1  0.89050939  0.71623124  0.98426216  1
  C  C7  1  0.10949061  0.28376876  0.01573784  1
  C  C8  1  0.03107248  0.86001363  0.75129266  1
  C  C9  1  0.96892752  0.13998637  0.24870734  1
  O  O0  1  0.87072688  0.49439625  0.73871508  1
  O  O1  1  0.12927312  0.50560375  0.26128492  1
  O  O2  1  0.68078030  0.54858380  0.62409957  1
  O  O3  1  0.31921970  0.45141620  0.37590043  1
  O  O4  1  0.78807324  0.35492071  0.60218303  1
  O  O5  1  0.21192676  0.64507929  0.39781697  1
  O  O6  1  0.64088641  0.51191229  0.82850110  1
  O  O7  1  0.35911359  0.48808771  0.17149890  1
  O  O8  1  0.52010155  0.69394299  0.78771858  1
  O  O9  1  0.47989845  0.30605701  0.21228142  1
  O  O10  1  0.43082324  0.52909467  0.87131011  1
  O  O11  1  0.56917676  0.47090533  0.12868989  1
  O  O12  1  0.77510087  0.77903495  0.94295853  1
  O  O13  1  0.22489913  0.22096505  0.05704147  1
  O  O14  1  0.93657171  0.63738512  0.92407003  1
  O  O15  1  0.06342829  0.36261488  0.07592997  1
  O  O16  1  0.95133467  0.73244131  0.07645161  1
  O  O17  1  0.04866533  0.26755869  0.92354839  1
  O  O18  1  0.68294442  0.93948698  0.76962652  1
  O  O19  1  0.31705558  0.06051302  0.23037348  1
  O  O20  1  0.62237773  0.83296081  0.62246899  1
  O  O21  1  0.37762227  0.16703919  0.37753101  1
  O  O22  1  0.55430455  0.04805097  0.63859369  1
  O  O23  1  0.44569545  0.95194903  0.36140631  1
  O  O24  1  0.98030573  0.88633086  0.82825939  1
  O  O25  1  0.01969427  0.11366914  0.17174061  1
  O  O26  1  0.94826088  0.76943472  0.68699501  1
  O  O27  1  0.05173912  0.23056528  0.31300499  1
  O  O28  1  0.14626003  0.91472701  0.73874209  1
  O  O29  1  0.85373997  0.08527299  0.26125791  1
  O  O30  1  0.66240714  0.23437180  0.80921772  1
  O  O31  1  0.33759286  0.76562820  0.19078228  1
  O  O32  1  0.81863737  0.04490259  0.99740677  1
  O  O33  1  0.18136263  0.95509741  0.00259323  1
  O  O34  1  0.87552574  0.55814040  0.29930905  1
  O  O35  1  0.12447426  0.44185960  0.70069095  1
  O  O36  1  0.59767528  0.56354516  0.40794887  1
  O  O37  1  0.40232472  0.43645484  0.59205113  1
  O  O38  1  0.70987455  0.79475198  0.33415801  1
  O  O39  1  0.29012545  0.20524802  0.66584199  1
  O  O40  1  0.70277242  0.23697069  0.36112914  1
  O  O41  1  0.29722758  0.76302931  0.63887086  1
  O  O42  1  0.74884316  0.34412239  0.04229353  1
  O  O43  1  0.25115684  0.65587761  0.95770647  1
  O  O44  1  0.59976458  0.72402259  0.06950787  1
  O  O45  1  0.40023542  0.27597741  0.93049213  1
  O  O46  1  0.43278905  0.94324946  0.88056695  1
  O  O47  1  0.56721095  0.05675054  0.11943305  1
  O  O48  1  0.79649948  0.99609545  0.51869503  1
  O  O49  1  0.20350052  0.00390455  0.48130497  1
  O  O50  1  0.05192961  0.84424792  0.30838736  1
  O  O51  1  0.94807039  0.15575208  0.69161264  1
  O  O52  1  0.04231168  0.32846584  0.48628025  1
  O  O53  1  0.95768832  0.67153416  0.51371975  1
loop_
_geom_bond_atom_site_label_1
_geom_bond_atom_site_label_2
_geom_bond_distance
_geom_bond_site_symmetry_2
Na0 O44 2.300862 1_555
Na0 O38 2.369407 1_555
Na0 O16 2.445034 1_555
Na0 O34 2.468048 1_555
Na0 O50 2.607316 1_655
Na1 O45 2.300862 1_555
Na1 O39 2.369407 1_555
Na1 O17 2.445034 1_555
Na1 O35 2.468048 1_555
Na1 O51 2.607316 1_455
Na2 O14 2.321859 1_555
Na2 O17 2.383665 1_655
Na2 O6 2.385918 1_555
Na2 O42 2.397477 1_556
Na2 O30 2.581858 1_555
Na2 O0 2.584728 1_555
Na2 O15 2.735031 1_656
Na3 O15 2.321859 1_555
Na3 O16 2.383665 1_455
Na3 O7 2.385918 1_555
Na3 O43 2.397477 1_554
Na3 O31 2.581858 1_555
Na3 O1 2.584728 1_555
Na3 O14 2.735031 1_454
Na4 O18 2.342616 1_545
Na4 O32 2.361647 1_555
Na4 O17 2.374341 1_655
Na4 O24 2.395979 1_545
Na4 O30 2.471210 1_555
Na4 O51 2.497002 1_555
Na5 O19 2.342616 1_565
Na5 O33 2.361647 1_555
Na5 O16 2.374341 1_455
Na5 O25 2.395979 1_565
Na5 O31 2.471210 1_555
Na5 O50 2.497002 1_555
Na6 O44 2.331578 1_555
Na6 O33 2.350271 1_555
Na6 O46 2.482240 1_554
Na6 O47 2.483514 1_565
Na6 O31 2.500311 1_555
Na6 O43 2.505226 1_554
Na7 O45 2.331578 1_555
Na7 O32 2.350271 1_555
Na7 O47 2.482240 1_556
Na7 O46 2.483514 1_545
Na7 O30 2.500311 1_555
Na7 O42 2.505226 1_556
Na8 O40 2.307907 1_555
Na8 O36 2.448298 1_555
Na8 O52 2.455848 1_655
Na8 O4 2.479011 1_555
Na8 O34 2.495426 1_555
Na8 O53 2.677230 1_555
Na9 O41 2.307907 1_555
Na9 O37 2.448298 1_555
Na9 O53 2.455848 1_455
Na9 O5 2.479011 1_555
Na9 O35 2.495426 1_555
Na9 O52 2.677230 1_555
Na10 O40 2.370769 1_555
Na10 O48 2.407346 1_545
Na10 O21 2.428346 1_555
Na10 O22 2.464787 1_555
Na10 O4 2.728251 1_555
Na10 O23 2.798418 1_545
Na11 O41 2.370769 1_555
Na11 O49 2.407346 1_565
Na11 O20 2.428346 1_555
Na11 O23 2.464787 1_555
Na11 O5 2.728251 1_555
Na11 O22 2.798418 1_565
H0 O30 0.991042 1_555
H1 O31 0.991042 1_555
H2 O30 0.988169 1_555
H2 Na2 2.426154 1_555
H3 O31 0.988169 1_555
H3 Na3 2.426154 1_555
H4 O32 0.993221 1_565
H5 O33 0.993221 1_545
H6 O32 0.992146 1_554
H7 O33 0.992146 1_556
H8 O34 0.975750 1_555
H8 Na8 2.456145 1_555
H9 O35 0.975750 1_555
H9 Na9 2.456145 1_555
H10 O34 0.999083 1_555
H11 O35 0.999083 1_555
H12 O36 0.986654 1_555
H13 O37 0.986654 1_555
H14 O36 0.991530 1_555
H15 O37 0.991530 1_555
H16 O38 0.992415 1_555
H17 O39 0.992415 1_555
H18 O38 0.977667 1_555
H19 O39 0.977667 1_555
H20 O40 0.997437 1_555
H21 O41 0.997437 1_555
H22 O40 0.991792 1_555
H23 O41 0.991792 1_555
H24 O42 0.975451 1_555
H25 O43 0.975451 1_555
H26 O42 0.999127 1_555
H26 O11 1.700527 1_555
H27 O43 0.999127 1_555
H27 O10 1.700527 1_555
H28 O44 1.000580 1_555
H28 O11 1.692206 1_555
H29 O45 1.000580 1_555
H29 O10 1.692206 1_555
H30 O44 0.986123 1_555
H31 O45 0.986123 1_555
H32 O46 0.984998 1_555
H33 O47 0.984998 1_555
H34 O46 0.981537 1_555
H35 O47 0.981537 1_555
H36 O48 0.980321 1_555
H37 O49 0.980321 1_555
H38 O48 0.983315 1_545
H39 O49 0.983315 1_565
H40 O50 1.010876 1_555
H40 O5 1.702427 1_555
H41 O51 1.010876 1_555
H41 O4 1.702427 1_555
H42 O50 0.977744 1_655
H42 Na0 2.490291 1_555
H43 O51 0.977744 1_455
H43 Na1 2.490291 1_555
H44 O52 1.015287 1_555
H44 O27 1.593455 1_555
H45 O53 1.015287 1_555
H45 O26 1.593455 1_555
H46 O52 0.975996 1_555
H47 O53 0.975996 1_555
C0 O4 1.279079 1_555
C0 O0 1.306386 1_555
C0 O2 1.320953 1_555
C1 O5 1.279079 1_555
C1 O1 1.306386 1_555
C1 O3 1.320953 1_555
C2 O10 1.257905 1_555
C2 O6 1.314582 1_555
C2 O8 1.325698 1_555
C3 O11 1.257905 1_555
C3 O7 1.314582 1_555
C3 O9 1.325698 1_555
C4 O22 1.275785 1_565
C4 O18 1.311220 1_555
C4 O20 1.318174 1_555
C5 O23 1.275785 1_545
C5 O19 1.311220 1_555
C5 O21 1.318174 1_555
C6 O16 1.275823 1_556
C6 O14 1.304580 1_555
C6 O12 1.318109 1_555
C7 O17 1.275823 1_554
C7 O15 1.304580 1_555
C7 O13 1.318109 1_555
C8 O28 1.261666 1_555
C8 O24 1.311314 1_455
C8 O26 1.330427 1_455
C9 O29 1.261666 1_555
C9 O25 1.311314 1_655
C9 O27 1.330427 1_655
O0 U0 2.519968 1_555
O1 U1 2.519968 1_555
O2 U0 2.495301 1_555
O3 U1 2.495301 1_555
O6 U0 2.508580 1_555
O7 U1 2.508580 1_555
O8 U0 2.418841 1_555
O9 U1 2.418841 1_555
O12 U0 2.473037 1_555
O13 U1 2.473037 1_555
O14 U0 2.548351 1_555
O15 U1 2.548351 1_555
O18 U0 2.405946 1_555
O19 U1 2.405946 1_555
O20 U0 2.511146 1_555
O21 U1 2.511146 1_555
O24 U0 2.590460 1_555
O25 U1 2.590460 1_555
O26 U0 2.397087 1_555
O27 U1 2.397087 1_555
