# generated using pymatgen
data_Zn3Cr6(FeO6)4
_symmetry_space_group_name_H-M   'P 1'
_cell_length_a   6.79428300
_cell_length_b   8.24055968
_cell_length_c   9.96271725
_cell_angle_alpha   105.25665622
_cell_angle_beta   105.98168132
_cell_angle_gamma   100.76211305
_symmetry_Int_Tables_number   1
_chemical_formula_structural   Zn3Cr6(FeO6)4
_chemical_formula_sum   'Zn3 Cr6 Fe4 O24'
_cell_volume   496.73054087
_cell_formula_units_Z   1
loop_
 _symmetry_equiv_pos_site_id
 _symmetry_equiv_pos_as_xyz
  1  'x, y, z'
loop_
 _atom_site_type_symbol
 _atom_site_label
 _atom_site_symmetry_multiplicity
 _atom_site_fract_x
 _atom_site_fract_y
 _atom_site_fract_z
 _atom_site_occupancy
  Zn  Zn0  1  0.00000000  0.50000000  0.50000000  1
  Zn  Zn1  1  0.27338500  0.27765400  0.78788500  1
  Zn  Zn2  1  0.72661500  0.72234600  0.21211500  1
  Cr  Cr0  1  0.77659500  0.34300600  0.73251400  1
  Cr  Cr1  1  0.22340500  0.65699400  0.26748600  1
  Cr  Cr2  1  0.90134800  0.89406700  0.66178800  1
  Cr  Cr3  1  0.40635800  0.72257200  0.87268000  1
  Cr  Cr4  1  0.09865200  0.10593300  0.33821200  1
  Cr  Cr5  1  0.59364200  0.27742800  0.12732000  1
  Fe  Fe0  1  0.38261300  0.95579000  0.60286500  1
  Fe  Fe1  1  0.61738700  0.04421000  0.39713500  1
  Fe  Fe2  1  0.04447000  0.19893100  0.01664800  1
  Fe  Fe3  1  0.95553000  0.80106900  0.98335200  1
  O  O0  1  0.89048700  0.67779500  0.57799100  1
  O  O1  1  0.10951300  0.32220500  0.42200900  1
  O  O2  1  0.29777800  0.51106700  0.76483400  1
  O  O3  1  0.70222200  0.48893300  0.23516600  1
  O  O4  1  0.77514300  0.30060100  0.55610400  1
  O  O5  1  0.22485700  0.69939900  0.44389600  1
  O  O6  1  0.66161400  0.95551200  0.57015000  1
  O  O7  1  0.33838600  0.04448800  0.42985000  1
  O  O8  1  0.64159400  0.74446000  0.00397000  1
  O  O9  1  0.35840600  0.25554000  0.99603000  1
  O  O10  1  0.45781100  0.76903700  0.26530200  1
  O  O11  1  0.54218900  0.23096300  0.73469800  1
  O  O12  1  0.14982400  0.03191400  0.65513900  1
  O  O13  1  0.06566500  0.05278900  0.14710000  1
  O  O14  1  0.93433500  0.94721100  0.85290000  1
  O  O15  1  0.56289100  0.15489800  0.23365700  1
  O  O16  1  0.43710900  0.84510200  0.76634300  1
  O  O17  1  0.18643600  0.44958100  0.18800800  1
  O  O18  1  0.81356400  0.55041900  0.81199200  1
  O  O19  1  0.98058800  0.28556300  0.83121300  1
  O  O20  1  0.01941200  0.71443700  0.16878700  1
  O  O21  1  0.24924600  0.77948000  0.96317700  1
  O  O22  1  0.75075400  0.22052000  0.03682300  1
  O  O23  1  0.85017600  0.96808600  0.34486100  1
loop_
_geom_bond_atom_site_label_1
_geom_bond_atom_site_label_2
_geom_bond_distance
_geom_bond_site_symmetry_2
Cr0 O18 1.621515 1_555
Cr0 O19 1.688622 1_555
Cr0 O11 1.694073 1_555
Cr0 O4 1.696184 1_555
Cr1 O17 1.621515 1_555
Cr1 O20 1.688622 1_555
Cr1 O10 1.694073 1_555
Cr1 O5 1.696184 1_555
Cr2 O0 1.735677 1_555
Cr2 O14 1.776723 1_555
Cr2 O6 1.864236 1_555
Cr2 O12 1.878777 1_665
Cr3 O21 1.632995 1_555
Cr3 O16 1.670803 1_555
Cr3 O2 1.683507 1_555
Cr3 O8 1.707293 1_556
Cr4 O1 1.735677 1_555
Cr4 O13 1.776723 1_555
Cr4 O7 1.864236 1_555
Cr4 O23 1.878777 1_445
Cr5 O22 1.632995 1_555
Cr5 O15 1.670803 1_555
Cr5 O3 1.683507 1_555
Cr5 O9 1.707293 1_554
Fe0 O12 1.954094 1_565
Fe0 O6 2.010231 1_555
Fe0 O7 2.013840 1_565
Fe0 O16 2.048802 1_555
Fe0 O5 2.139984 1_555
Fe0 O11 2.184659 1_565
Fe1 O23 1.954094 1_545
Fe1 O7 2.010231 1_555
Fe1 O6 2.013840 1_545
Fe1 O15 2.048802 1_555
Fe1 O4 2.139984 1_555
Fe1 O10 2.184659 1_545
Fe2 O13 1.986353 1_555
Fe2 O22 2.095012 1_455
Fe2 O19 2.116444 1_454
Fe2 O14 2.119258 1_444
Fe2 O17 2.145829 1_555
Fe2 O9 2.174733 1_554
Fe3 O14 1.986353 1_555
Fe3 O21 2.095012 1_655
Fe3 O20 2.116444 1_656
Fe3 O13 2.119258 1_666
Fe3 O18 2.145829 1_555
Fe3 O8 2.174733 1_556
O0 Zn0 1.852114 1_655
O1 Zn0 1.852114 1_555
O2 Zn1 1.978449 1_555
O3 Zn2 1.978449 1_555
O4 Zn0 2.315700 1_655
O5 Zn0 2.315700 1_555
O8 Zn2 2.060498 1_555
O9 Zn1 2.060498 1_555
O10 Zn2 2.110056 1_555
O11 Zn1 2.110056 1_555
O12 Zn1 1.974547 1_555
O19 Zn1 2.157443 1_655
O20 Zn2 2.157443 1_455
O23 Zn2 1.974547 1_555
