# generated using pymatgen
data_Sr3CaCN4
_symmetry_space_group_name_H-M   'P 1'
_cell_length_a   3.77426900
_cell_length_b   12.08147400
_cell_length_c   14.53799100
_cell_angle_alpha   90.00000000
_cell_angle_beta   90.00000000
_cell_angle_gamma   90.00000000
_symmetry_Int_Tables_number   1
_chemical_formula_structural   Sr3CaCN4
_chemical_formula_sum   'Sr12 Ca4 C4 N16'
_cell_volume   662.91396695
_cell_formula_units_Z   4
loop_
 _symmetry_equiv_pos_site_id
 _symmetry_equiv_pos_as_xyz
  1  'x, y, z'
loop_
 _atom_site_type_symbol
 _atom_site_label
 _atom_site_symmetry_multiplicity
 _atom_site_fract_x
 _atom_site_fract_y
 _atom_site_fract_z
 _atom_site_occupancy
  Sr  Sr0  1  0.75000000  0.88540000  0.39128000  1
  Sr  Sr1  1  0.25000000  0.11460000  0.60872000  1
  Sr  Sr2  1  0.25000000  0.61460000  0.89128000  1
  Sr  Sr3  1  0.75000000  0.38540000  0.10872000  1
  Sr  Sr4  1  0.75000000  0.64799000  0.25728900  1
  Sr  Sr5  1  0.25000000  0.35201000  0.74271100  1
  Sr  Sr6  1  0.25000000  0.85201000  0.75728900  1
  Sr  Sr7  1  0.75000000  0.14799000  0.24271100  1
  Sr  Sr8  1  0.75000000  0.87790600  0.96383800  1
  Sr  Sr9  1  0.25000000  0.12209400  0.03616200  1
  Sr  Sr10  1  0.25000000  0.62209400  0.46383800  1
  Sr  Sr11  1  0.75000000  0.37790600  0.53616200  1
  Ca  Ca0  1  0.75000000  0.60679200  0.67520500  1
  Ca  Ca1  1  0.25000000  0.39320800  0.32479500  1
  Ca  Ca2  1  0.25000000  0.89320800  0.17520500  1
  Ca  Ca3  1  0.75000000  0.10679200  0.82479500  1
  C  C0  1  0.75000000  0.85089900  0.58950100  1
  C  C1  1  0.25000000  0.14910100  0.41049900  1
  C  C2  1  0.25000000  0.64910100  0.08950100  1
  C  C3  1  0.75000000  0.35089900  0.91049900  1
  N  N0  1  0.75000000  0.75960600  0.55029500  1
  N  N1  1  0.25000000  0.24039400  0.44970500  1
  N  N2  1  0.25000000  0.74039400  0.05029500  1
  N  N3  1  0.75000000  0.25960600  0.94970500  1
  N  N4  1  0.75000000  0.94337200  0.62744700  1
  N  N5  1  0.25000000  0.05662800  0.37255300  1
  N  N6  1  0.25000000  0.55662800  0.12744700  1
  N  N7  1  0.75000000  0.44337200  0.87255300  1
  N  N8  1  0.75000000  0.49882300  0.37928800  1
  N  N9  1  0.25000000  0.50117700  0.62071200  1
  N  N10  1  0.25000000  0.00117700  0.87928800  1
  N  N11  1  0.75000000  0.99882300  0.12071200  1
  N  N12  1  0.75000000  0.72314600  0.81624600  1
  N  N13  1  0.25000000  0.27685400  0.18375400  1
  N  N14  1  0.25000000  0.77685400  0.31624600  1
  N  N15  1  0.75000000  0.22314600  0.68375400  1
loop_
_geom_bond_atom_site_label_1
_geom_bond_atom_site_label_2
_geom_bond_distance
_geom_bond_site_symmetry_2
Ca0 N9 2.411851 1_655
Ca0 N9 2.411851 1_555
Ca0 N12 2.486047 1_555
Ca0 N0 2.589626 1_555
Ca1 N8 2.411851 1_455
Ca1 N8 2.411851 1_555
Ca1 N13 2.486047 1_555
Ca1 N1 2.589626 1_555
Ca2 N11 2.411851 1_455
Ca2 N11 2.411851 1_555
Ca2 N14 2.486047 1_555
Ca2 N2 2.589626 1_555
Ca3 N10 2.411851 1_555
Ca3 N10 2.411851 1_655
Ca3 N15 2.486047 1_555
Ca3 N3 2.589626 1_555
C0 N0 1.241524 1_555
C0 N4 1.245988 1_555
C0 Sr0 2.911724 1_555
C1 N1 1.241524 1_555
C1 N5 1.245988 1_555
C1 Sr1 2.911724 1_555
C2 N2 1.241524 1_555
C2 N6 1.245988 1_555
C2 Sr2 2.911724 1_554
C3 N3 1.241524 1_555
C3 N7 1.245988 1_555
C3 Sr3 2.911724 1_556
N0 Sr0 2.766577 1_555
N0 Sr10 2.810903 1_655
N0 Sr10 2.810903 1_555
N1 Sr1 2.766577 1_555
N1 Sr11 2.810903 1_455
N1 Sr11 2.810903 1_555
N2 Sr2 2.766577 1_554
N2 Sr8 2.810903 1_554
N2 Sr8 2.810903 1_454
N3 Sr3 2.766577 1_556
N3 Sr9 2.810903 1_556
N3 Sr9 2.810903 1_656
N4 Sr1 2.813337 1_565
N4 Sr1 2.813337 1_665
N4 Sr6 2.888393 1_655
N4 Sr6 2.888393 1_555
N5 Sr0 2.813337 1_445
N5 Sr0 2.813337 1_545
N5 Sr7 2.888393 1_455
N5 Sr7 2.888393 1_555
N6 Sr3 2.813337 1_455
N6 Sr3 2.813337 1_555
N6 Sr4 2.888393 1_455
N6 Sr4 2.888393 1_555
N7 Sr2 2.813337 1_555
N7 Sr2 2.813337 1_655
N7 Sr5 2.888393 1_655
N7 Sr5 2.888393 1_555
N8 Sr4 2.528537 1_555
N8 Sr10 2.700033 1_655
N8 Sr10 2.700033 1_555
N8 Sr11 2.708392 1_555
N9 Sr5 2.528537 1_555
N9 Sr11 2.700033 1_555
N9 Sr11 2.700033 1_455
N9 Sr10 2.708392 1_555
N10 Sr6 2.528537 1_545
N10 Sr8 2.700033 1_545
N10 Sr8 2.700033 1_445
N10 Sr9 2.708392 1_556
N11 Sr7 2.528537 1_565
N11 Sr9 2.700033 1_565
N11 Sr9 2.700033 1_665
N11 Sr8 2.708392 1_554
N12 Sr2 2.543811 1_555
N12 Sr2 2.543811 1_655
N12 Sr6 2.592250 1_655
N12 Sr6 2.592250 1_555
N12 Sr8 2.846028 1_555
N13 Sr3 2.543811 1_455
N13 Sr3 2.543811 1_555
N13 Sr7 2.592250 1_455
N13 Sr7 2.592250 1_555
N13 Sr9 2.846028 1_555
N14 Sr0 2.543811 1_455
N14 Sr0 2.543811 1_555
N14 Sr4 2.592250 1_455
N14 Sr4 2.592250 1_555
N14 Sr10 2.846028 1_555
N15 Sr1 2.543811 1_555
N15 Sr1 2.543811 1_655
N15 Sr5 2.592250 1_655
N15 Sr5 2.592250 1_555
N15 Sr11 2.846028 1_555
