# generated using pymatgen
data_BaMnNb4O12
_symmetry_space_group_name_H-M   'P 1'
_cell_length_a   5.60757338
_cell_length_b   5.60757338
_cell_length_c   7.99814955
_cell_angle_alpha   90.00000000
_cell_angle_beta   90.00000000
_cell_angle_gamma   91.45666768
_symmetry_Int_Tables_number   1
_chemical_formula_structural   BaMnNb4O12
_chemical_formula_sum   'Ba1 Mn1 Nb4 O12'
_cell_volume   251.41957039
_cell_formula_units_Z   1
loop_
 _symmetry_equiv_pos_site_id
 _symmetry_equiv_pos_as_xyz
  1  'x, y, z'
loop_
 _atom_site_type_symbol
 _atom_site_label
 _atom_site_symmetry_multiplicity
 _atom_site_fract_x
 _atom_site_fract_y
 _atom_site_fract_z
 _atom_site_occupancy
  Ba  Ba0  1  0.52385059  0.47614941  0.50000000  1
  Mn  Mn0  1  0.98077911  0.01922089  0.00000000  1
  Nb  Nb0  1  0.50940328  0.98225789  0.24364346  1
  Nb  Nb1  1  0.50940328  0.98225789  0.75635654  1
  Nb  Nb2  1  0.01774211  0.49059672  0.75635654  1
  Nb  Nb3  1  0.01774211  0.49059672  0.24364346  1
  O  O0  1  0.28656469  0.29743802  0.24048480  1
  O  O1  1  0.70256198  0.71343531  0.24048480  1
  O  O2  1  0.70256198  0.71343531  0.75951520  1
  O  O3  1  0.28656469  0.29743802  0.75951520  1
  O  O4  1  0.18753826  0.81246174  0.18843339  1
  O  O5  1  0.78101409  0.21898591  0.27911458  1
  O  O6  1  0.78101409  0.21898591  0.72088542  1
  O  O7  1  0.18753826  0.81246174  0.81156661  1
  O  O8  1  0.58060580  0.03041926  0.00000000  1
  O  O9  1  0.46217711  0.96904216  0.50000000  1
  O  O10  1  0.96958074  0.41939420  0.00000000  1
  O  O11  1  0.03095784  0.53782289  0.50000000  1
loop_
_geom_bond_atom_site_label_1
_geom_bond_atom_site_label_2
_geom_bond_distance
_geom_bond_site_symmetry_2
Ba0 O2 2.648634 1_555
Ba0 O3 2.648634 1_555
Ba0 O1 2.648634 1_555
Ba0 O0 2.648634 1_555
Ba0 O6 2.717712 1_555
Ba0 O5 2.717712 1_555
Ba0 O9 2.794195 1_555
Ba0 O11 2.794195 1_555
Ba0 O11 2.855853 1_655
Ba0 O9 2.855853 1_545
Mn0 O4 2.242375 1_645
Mn0 O7 2.242375 1_644
Mn0 O8 2.246475 1_555
Mn0 O10 2.246475 1_555
Nb0 O1 1.878630 1_555
Nb0 O8 2.006064 1_565
Nb0 O5 2.014854 1_565
Nb0 O4 2.066832 1_555
Nb0 O9 2.068496 1_555
Nb0 O0 2.190450 1_565
Nb1 O2 1.878630 1_555
Nb1 O8 2.006064 1_566
Nb1 O6 2.014854 1_565
Nb1 O7 2.066832 1_555
Nb1 O9 2.068496 1_555
Nb1 O3 2.190450 1_565
Nb2 O3 1.878630 1_555
Nb2 O10 2.006064 1_456
Nb2 O6 2.014854 1_455
Nb2 O7 2.066832 1_555
Nb2 O11 2.068496 1_555
Nb2 O2 2.190450 1_455
Nb3 O0 1.878630 1_555
Nb3 O10 2.006064 1_455
Nb3 O5 2.014854 1_455
Nb3 O4 2.066832 1_555
Nb3 O11 2.068496 1_555
Nb3 O1 2.190450 1_455
