# generated using pymatgen
data_Ca6Si2O13
_symmetry_space_group_name_H-M   'P 1'
_cell_length_a   10.18053841
_cell_length_b   10.18053841
_cell_length_c   7.58039900
_cell_angle_alpha   90.00000000
_cell_angle_beta   90.00000000
_cell_angle_gamma   120.00000263
_symmetry_Int_Tables_number   1
_chemical_formula_structural   Ca6Si2O13
_chemical_formula_sum   'Ca12 Si4 O26'
_cell_volume   680.39980268
_cell_formula_units_Z   2
loop_
 _symmetry_equiv_pos_site_id
 _symmetry_equiv_pos_as_xyz
  1  'x, y, z'
loop_
 _atom_site_type_symbol
 _atom_site_label
 _atom_site_symmetry_multiplicity
 _atom_site_fract_x
 _atom_site_fract_y
 _atom_site_fract_z
 _atom_site_occupancy
  Ca  Ca0  1  0.66606700  0.62094000  0.62168100  1
  Ca  Ca1  1  0.95487300  0.33393300  0.62168100  1
  Ca  Ca2  1  0.37906000  0.04512700  0.62168100  1
  Ca  Ca3  1  0.33393300  0.37906000  0.37831900  1
  Ca  Ca4  1  0.04512700  0.66606700  0.37831900  1
  Ca  Ca5  1  0.62094000  0.95487300  0.37831900  1
  Ca  Ca6  1  0.33468200  0.38206200  0.87008700  1
  Ca  Ca7  1  0.04738100  0.66531800  0.87008700  1
  Ca  Ca8  1  0.61793800  0.95261900  0.87008700  1
  Ca  Ca9  1  0.38206200  0.04738100  0.12991300  1
  Ca  Ca10  1  0.66531800  0.61793800  0.12991300  1
  Ca  Ca11  1  0.95261900  0.33468200  0.12991300  1
  Si  Si0  1  0.33333300  0.66666700  0.65556000  1
  Si  Si1  1  0.66666700  0.33333300  0.34444000  1
  Si  Si2  1  0.33333300  0.66666700  0.09446400  1
  Si  Si3  1  0.66666700  0.33333300  0.90553600  1
  O  O0  1  0.41215800  0.56534700  0.14727600  1
  O  O1  1  0.15318900  0.58784200  0.14727600  1
  O  O2  1  0.43465300  0.84681100  0.14727600  1
  O  O3  1  0.58648300  0.43305800  0.39661800  1
  O  O4  1  0.84657500  0.41351700  0.39661800  1
  O  O5  1  0.56694200  0.15342500  0.39661800  1
  O  O6  1  0.41351700  0.56694200  0.60338200  1
  O  O7  1  0.15342500  0.58648300  0.60338200  1
  O  O8  1  0.43305800  0.84657500  0.60338200  1
  O  O9  1  0.23571700  0.91741900  0.88074200  1
  O  O10  1  0.68170200  0.76428300  0.88074200  1
  O  O11  1  0.08258100  0.31829800  0.88074200  1
  O  O12  1  0.22861300  0.92801600  0.36925500  1
  O  O13  1  0.69940300  0.77138700  0.36925500  1
  O  O14  1  0.07198400  0.30059700  0.36925500  1
  O  O15  1  0.31829800  0.23571700  0.11925800  1
  O  O16  1  0.91741900  0.68170200  0.11925800  1
  O  O17  1  0.76428300  0.08258100  0.11925800  1
  O  O18  1  0.33333300  0.66666700  0.87482600  1
  O  O19  1  0.66666700  0.33333300  0.12517400  1
  O  O20  1  0.30059700  0.22861300  0.63074500  1
  O  O21  1  0.92801600  0.69940300  0.63074500  1
  O  O22  1  0.77138700  0.07198400  0.63074500  1
  O  O23  1  0.58784200  0.43465300  0.85272400  1
  O  O24  1  0.84681100  0.41215800  0.85272400  1
  O  O25  1  0.56534700  0.15318900  0.85272400  1
loop_
_geom_bond_atom_site_label_1
_geom_bond_atom_site_label_2
_geom_bond_distance
_geom_bond_site_symmetry_2
Ca0 O6 2.349163 1_555
Ca0 O13 2.367005 1_555
Ca0 O21 2.371562 1_555
Ca0 O3 2.382427 1_555
Ca0 O10 2.403974 1_555
Ca0 O23 2.405827 1_555
Ca1 O7 2.349163 1_655
Ca1 O14 2.367005 1_655
Ca1 O22 2.371562 1_555
Ca1 O4 2.382427 1_555
Ca1 O11 2.403974 1_655
Ca1 O24 2.405827 1_555
Ca2 O8 2.349163 1_545
Ca2 O12 2.367005 1_545
Ca2 O20 2.371562 1_555
Ca2 O5 2.382427 1_555
Ca2 O9 2.403974 1_545
Ca2 O25 2.405827 1_555
Ca3 O3 2.349163 1_555
Ca3 O20 2.367005 1_555
Ca3 O14 2.371562 1_555
Ca3 O6 2.382427 1_555
Ca3 O15 2.403974 1_555
Ca3 O0 2.405827 1_555
Ca4 O4 2.349163 1_455
Ca4 O21 2.367005 1_455
Ca4 O12 2.371562 1_555
Ca4 O7 2.382427 1_555
Ca4 O16 2.403974 1_455
Ca4 O1 2.405827 1_555
Ca5 O5 2.349163 1_565
Ca5 O22 2.367005 1_565
Ca5 O13 2.371562 1_555
Ca5 O8 2.382427 1_555
Ca5 O17 2.403974 1_565
Ca5 O2 2.405827 1_555
Ca6 O20 2.304449 1_555
Ca6 O11 2.312770 1_555
Ca6 O23 2.359360 1_555
Ca6 O15 2.359376 1_556
Ca6 O6 2.600677 1_555
Ca6 O0 2.654648 1_556
Ca6 O18 2.904545 1_555
Ca7 O21 2.304455 1_455
Ca7 O9 2.312767 1_555
Ca7 O24 2.359364 1_455
Ca7 O16 2.359382 1_456
Ca7 O7 2.600672 1_555
Ca7 O1 2.654642 1_556
Ca7 O18 2.904525 1_555
Ca8 O22 2.304451 1_565
Ca8 O10 2.312760 1_555
Ca8 O25 2.359370 1_565
Ca8 O17 2.359378 1_566
Ca8 O8 2.600677 1_555
Ca8 O2 2.654647 1_556
Ca8 O18 2.904535 1_555
Ca9 O12 2.304451 1_545
Ca9 O15 2.312760 1_555
Ca9 O2 2.359370 1_545
Ca9 O9 2.359378 1_544
Ca9 O5 2.600677 1_555
Ca9 O25 2.654647 1_554
Ca9 O19 2.904535 1_555
Ca10 O13 2.304449 1_555
Ca10 O16 2.312770 1_555
Ca10 O0 2.359360 1_555
Ca10 O10 2.359376 1_554
Ca10 O3 2.600677 1_555
Ca10 O23 2.654648 1_554
Ca10 O19 2.904545 1_555
Ca11 O14 2.304455 1_655
Ca11 O17 2.312767 1_555
Ca11 O1 2.359364 1_655
Ca11 O11 2.359382 1_654
Ca11 O4 2.600672 1_555
Ca11 O24 2.654642 1_554
Ca11 O19 2.904525 1_555
O0 Si2 1.641942 1_555
O1 Si2 1.641933 1_555
O2 Si2 1.641934 1_555
O3 Si1 1.637781 1_555
O4 Si1 1.637772 1_555
O5 Si1 1.637773 1_555
O6 Si0 1.637781 1_555
O7 Si0 1.637772 1_555
O8 Si0 1.637773 1_555
O18 Si0 1.662124 1_555
O18 Si2 1.664944 1_556
O19 Si1 1.662124 1_555
O19 Si3 1.664944 1_554
O23 Si3 1.641942 1_555
O24 Si3 1.641933 1_555
O25 Si3 1.641934 1_555
