# generated using pymatgen
data_Th2Au
_symmetry_space_group_name_H-M   'P 1'
_cell_length_a   5.99488501
_cell_length_b   6.08135570
_cell_length_c   6.08135422
_cell_angle_alpha   75.93980133
_cell_angle_beta   60.46924554
_cell_angle_gamma   60.46924821
_symmetry_Int_Tables_number   1
_chemical_formula_structural   Th2Au
_chemical_formula_sum   'Th4 Au2'
_cell_volume   167.84607182
_cell_formula_units_Z   2
loop_
 _symmetry_equiv_pos_site_id
 _symmetry_equiv_pos_as_xyz
  1  'x, y, z'
loop_
 _atom_site_type_symbol
 _atom_site_label
 _atom_site_symmetry_multiplicity
 _atom_site_fract_x
 _atom_site_fract_y
 _atom_site_fract_z
 _atom_site_occupancy
  Th  Th0  1  0.65762057  0.18475687  0.50000000  1
  Th  Th1  1  0.84237943  0.50000000  0.81524313  1
  Th  Th2  1  0.34237943  0.81524313  0.50000000  1
  Th  Th3  1  0.15762057  0.50000000  0.18475687  1
  Au  Au0  1  0.75000000  0.00000000  -0.00000000  1
  Au  Au1  1  0.25000000  0.00000000  -0.00000000  1
loop_
_geom_bond_atom_site_label_1
_geom_bond_atom_site_label_2
_geom_bond_distance
_geom_bond_site_symmetry_2
Au0 Au1 2.997443 1_555
Au0 Au1 2.997443 1_655
Au0 Th2 3.193966 1_545
Au0 Th0 3.193967 1_555
Au0 Th3 3.193967 1_645
Au0 Th1 3.193967 1_544
Au0 Th2 3.193972 1_644
Au0 Th0 3.193972 1_554
Au0 Th3 3.193972 1_555
Au0 Th1 3.193973 1_554
Au1 Th0 3.193966 1_554
Au1 Th2 3.193967 1_544
Au1 Th1 3.193967 1_454
Au1 Th3 3.193967 1_555
Au1 Th0 3.193972 1_455
Au1 Th2 3.193972 1_545
Au1 Th1 3.193972 1_544
Au1 Th3 3.193973 1_545
