# generated using pymatgen
data_Mo3Cl4O9
_symmetry_space_group_name_H-M   'P 1'
_cell_length_a   8.75361293
_cell_length_b   8.75361293
_cell_length_c   8.75361299
_cell_angle_alpha   94.48394534
_cell_angle_beta   94.48394534
_cell_angle_gamma   94.48393648
_symmetry_Int_Tables_number   1
_chemical_formula_structural   Mo3Cl4O9
_chemical_formula_sum   'Mo6 Cl8 O18'
_cell_volume   664.25052506
_cell_formula_units_Z   2
loop_
 _symmetry_equiv_pos_site_id
 _symmetry_equiv_pos_as_xyz
  1  'x, y, z'
loop_
 _atom_site_type_symbol
 _atom_site_label
 _atom_site_symmetry_multiplicity
 _atom_site_fract_x
 _atom_site_fract_y
 _atom_site_fract_z
 _atom_site_occupancy
  Mo  Mo0  1  0.41984400  0.41984400  0.12414100  1
  Mo  Mo1  1  0.12414100  0.41984400  0.41984400  1
  Mo  Mo2  1  0.41984400  0.12414100  0.41984400  1
  Mo  Mo3  1  0.58015600  0.58015600  0.87585900  1
  Mo  Mo4  1  0.87585900  0.58015600  0.58015600  1
  Mo  Mo5  1  0.58015600  0.87585900  0.58015600  1
  Cl  Cl0  1  0.70481800  0.70481800  0.39933600  1
  Cl  Cl1  1  0.39933600  0.70481800  0.70481800  1
  Cl  Cl2  1  0.70481800  0.39933600  0.70481800  1
  Cl  Cl3  1  0.29518200  0.29518200  0.60066400  1
  Cl  Cl4  1  0.60066400  0.29518200  0.29518200  1
  Cl  Cl5  1  0.29518200  0.60066400  0.29518200  1
  Cl  Cl6  1  0.77273900  0.77273900  0.77273900  1
  Cl  Cl7  1  0.22726100  0.22726100  0.22726100  1
  O  O0  1  0.40040100  0.40040100  0.91939000  1
  O  O1  1  0.91939000  0.40040100  0.40040100  1
  O  O2  1  0.40040100  0.91939000  0.40040100  1
  O  O3  1  0.59959900  0.59959900  0.08061000  1
  O  O4  1  0.08061000  0.59959900  0.59959900  1
  O  O5  1  0.59959900  0.08061000  0.59959900  1
  O  O6  1  0.67082700  0.08692000  0.98980900  1
  O  O7  1  0.98980900  0.67082700  0.08692000  1
  O  O8  1  0.08692000  0.98980900  0.67082700  1
  O  O9  1  0.08692000  0.67082700  0.98980900  1
  O  O10  1  0.98980900  0.08692000  0.67082700  1
  O  O11  1  0.67082700  0.98980900  0.08692000  1
  O  O12  1  0.32917300  0.91308000  0.01019100  1
  O  O13  1  0.01019100  0.32917300  0.91308000  1
  O  O14  1  0.91308000  0.01019100  0.32917300  1
  O  O15  1  0.91308000  0.32917300  0.01019100  1
  O  O16  1  0.01019100  0.91308000  0.32917300  1
  O  O17  1  0.32917300  0.01019100  0.91308000  1
loop_
_geom_bond_atom_site_label_1
_geom_bond_atom_site_label_2
_geom_bond_distance
_geom_bond_site_symmetry_2
Mo0 O0 1.780559 1_554
Mo0 O3 2.213010 1_555
Mo1 O1 1.780559 1_455
Mo1 O4 2.213010 1_555
Mo2 O2 1.780559 1_545
Mo2 O5 2.213010 1_555
Mo3 O3 1.780559 1_556
Mo3 O0 2.213010 1_555
Mo4 O4 1.780559 1_655
Mo4 O1 2.213010 1_555
Mo5 O5 1.780559 1_565
Mo5 O2 2.213010 1_555
Cl0 Mo4 2.468366 1_555
Cl0 Mo5 2.468366 1_555
Cl1 Mo3 2.468366 1_555
Cl1 Mo5 2.468367 1_555
Cl2 Mo3 2.468366 1_555
Cl2 Mo4 2.468367 1_555
Cl3 Mo1 2.468366 1_555
Cl3 Mo2 2.468366 1_555
Cl4 Mo0 2.468366 1_555
Cl4 Mo2 2.468367 1_555
Cl5 Mo0 2.468366 1_555
Cl5 Mo1 2.468367 1_555
Cl6 Mo5 2.555416 1_555
Cl6 Mo4 2.555416 1_555
Cl6 Mo3 2.555417 1_555
Cl7 Mo1 2.555416 1_555
Cl7 Mo2 2.555416 1_555
Cl7 Mo0 2.555417 1_555
O7 O9 1.248292 1_654
O10 O8 1.248292 1_645
O11 O6 1.248292 1_564
O12 O17 1.248292 1_564
O13 O15 1.248292 1_456
O14 O16 1.248292 1_645
