# generated using pymatgen
data_LiMn6O5F7
_symmetry_space_group_name_H-M   'P 1'
_cell_length_a   7.30852800
_cell_length_b   5.83923317
_cell_length_c   5.86291585
_cell_angle_alpha   76.84142730
_cell_angle_beta   73.25093666
_cell_angle_gamma   73.47258375
_symmetry_Int_Tables_number   1
_chemical_formula_structural   LiMn6O5F7
_chemical_formula_sum   'Li1 Mn6 O5 F7'
_cell_volume   226.78307916
_cell_formula_units_Z   1
loop_
 _symmetry_equiv_pos_site_id
 _symmetry_equiv_pos_as_xyz
  1  'x, y, z'
loop_
 _atom_site_type_symbol
 _atom_site_label
 _atom_site_symmetry_multiplicity
 _atom_site_fract_x
 _atom_site_fract_y
 _atom_site_fract_z
 _atom_site_occupancy
  Li  Li0  1  0.77471900  0.71645700  0.23163900  1
  Mn  Mn0  1  0.83692800  0.66622100  0.67886300  1
  Mn  Mn1  1  0.67323700  0.29996500  0.35443200  1
  Mn  Mn2  1  0.33428100  0.69422100  0.63504100  1
  Mn  Mn3  1  0.16282000  0.30551300  0.32561900  1
  Mn  Mn4  1  0.49472600  0.02097800  0.01979400  1
  Mn  Mn5  1  0.99658900  0.02289200  0.98278400  1
  O  O0  1  0.64050900  0.56802600  0.53508100  1
  O  O1  1  0.95878600  0.23205300  0.22447400  1
  O  O2  1  0.71031200  0.06499500  0.13043900  1
  O  O3  1  0.03378000  0.78911900  0.77349800  1
  O  O4  1  0.33195900  0.98063700  0.34546000  1
  F  F0  1  0.65345900  0.02403800  0.66995500  1
  F  F1  1  0.33589200  0.38689700  0.94883700  1
  F  F2  1  0.29584200  0.92836100  0.89838600  1
  F  F3  1  0.37298400  0.41279600  0.42064900  1
  F  F4  1  0.65880000  0.63192100  0.03033800  1
  F  F5  1  0.00663800  0.31454000  0.69496300  1
  F  F6  1  0.01477600  0.66953900  0.30808200  1
loop_
_geom_bond_atom_site_label_1
_geom_bond_atom_site_label_2
_geom_bond_distance
_geom_bond_site_symmetry_2
Li0 O0 1.911609 1_555
Li0 O2 1.944676 1_565
Mn0 O3 2.030138 1_655
Mn0 O0 2.118016 1_555
Mn1 O1 1.960449 1_555
Mn1 O0 2.006193 1_555
Mn1 O2 2.020968 1_555
Mn2 O3 2.067427 1_555
Mn2 O4 2.094643 1_555
Mn2 O0 2.097087 1_555
Mn3 O1 1.936156 1_455
Mn3 O4 1.946417 1_545
Mn4 O4 1.939529 1_545
Mn4 O2 1.965927 1_555
Mn5 O3 1.949902 1_645
Mn5 O1 1.986515 1_556
Mn5 O2 1.986891 1_556
F0 Mn4 2.043711 1_556
F0 Mn0 2.136096 1_545
F0 Mn1 2.158775 1_555
F1 Mn4 2.132719 1_556
F1 Mn3 2.226934 1_556
F1 Mn2 2.258876 1_555
F2 Mn4 2.032435 1_566
F2 Mn5 2.036340 1_465
F2 Mn2 2.196487 1_555
F3 Mn1 2.050143 1_555
F3 Mn3 2.064395 1_555
F3 Mn2 2.198062 1_555
F4 Li0 1.853044 1_555
F4 Mn0 2.096553 1_554
F4 Mn4 2.243137 1_565
F4 Mn1 2.387717 1_555
F5 Mn0 2.072307 1_455
F5 Mn5 2.108195 1_455
F5 Mn3 2.141943 1_555
F6 Li0 1.864910 1_455
F6 Mn3 2.087023 1_555
F6 Mn0 2.186806 1_455
F6 Mn5 2.471991 1_464
