# generated using pymatgen
data_CaBeSi
_symmetry_space_group_name_H-M   'P 1'
_cell_length_a   3.91458830
_cell_length_b   3.91458830
_cell_length_c   4.29982300
_cell_angle_alpha   90.00000000
_cell_angle_beta   90.00000000
_cell_angle_gamma   120.00000507
_symmetry_Int_Tables_number   1
_chemical_formula_structural   CaBeSi
_chemical_formula_sum   'Ca1 Be1 Si1'
_cell_volume   57.06283907
_cell_formula_units_Z   1
loop_
 _symmetry_equiv_pos_site_id
 _symmetry_equiv_pos_as_xyz
  1  'x, y, z'
loop_
 _atom_site_type_symbol
 _atom_site_label
 _atom_site_symmetry_multiplicity
 _atom_site_fract_x
 _atom_site_fract_y
 _atom_site_fract_z
 _atom_site_occupancy
  Ca  Ca0  1  0.33333300  0.66666700  0.00000000  1
  Be  Be0  1  0.66666700  0.33333300  0.50000000  1
  Si  Si0  1  0.00000000  0.00000000  0.50000000  1
loop_
_geom_bond_atom_site_label_1
_geom_bond_atom_site_label_2
_geom_bond_distance
_geom_bond_site_symmetry_2
Ca0 Si0 3.119312 1_564
Ca0 Si0 3.119312 1_565
Ca0 Si0 3.119315 1_554
Ca0 Si0 3.119315 1_664
Ca0 Si0 3.119315 1_665
Ca0 Si0 3.119315 1_555
Be0 Si0 2.260086 1_655
Be0 Si0 2.260090 1_555
Be0 Si0 2.260090 1_665
Be0 Ca0 3.119312 1_546
Be0 Ca0 3.119312 1_545
Be0 Ca0 3.119312 1_655
Be0 Ca0 3.119312 1_656
Be0 Ca0 3.119317 1_555
Be0 Ca0 3.119317 1_556
