# generated using pymatgen
data_Yb4MgCu
_symmetry_space_group_name_H-M   'P 1'
_cell_length_a   10.13370992
_cell_length_b   10.13370992
_cell_length_c   10.13370992
_cell_angle_alpha   60.00000000
_cell_angle_beta   60.00000000
_cell_angle_gamma   60.00000000
_symmetry_Int_Tables_number   1
_chemical_formula_structural   Yb4MgCu
_chemical_formula_sum   'Yb16 Mg4 Cu4'
_cell_volume   735.85188487
_cell_formula_units_Z   4
loop_
 _symmetry_equiv_pos_site_id
 _symmetry_equiv_pos_as_xyz
  1  'x, y, z'
loop_
 _atom_site_type_symbol
 _atom_site_label
 _atom_site_symmetry_multiplicity
 _atom_site_fract_x
 _atom_site_fract_y
 _atom_site_fract_z
 _atom_site_occupancy
  Yb  Yb0  1  0.34668500  0.34668500  0.34668500  1
  Yb  Yb1  1  0.34668500  0.34668500  0.95994500  1
  Yb  Yb2  1  0.34668500  0.95994500  0.34668500  1
  Yb  Yb3  1  0.95994500  0.34668500  0.34668500  1
  Yb  Yb4  1  0.80932200  0.19067800  0.19067800  1
  Yb  Yb5  1  0.19067800  0.80932200  0.80932200  1
  Yb  Yb6  1  0.19067800  0.80932200  0.19067800  1
  Yb  Yb7  1  0.80932200  0.19067800  0.80932200  1
  Yb  Yb8  1  0.19067800  0.19067800  0.80932200  1
  Yb  Yb9  1  0.80932200  0.80932200  0.19067800  1
  Yb  Yb10  1  0.94051000  0.55949000  0.55949000  1
  Yb  Yb11  1  0.55949000  0.94051000  0.94051000  1
  Yb  Yb12  1  0.55949000  0.94051000  0.55949000  1
  Yb  Yb13  1  0.94051000  0.55949000  0.94051000  1
  Yb  Yb14  1  0.55949000  0.55949000  0.94051000  1
  Yb  Yb15  1  0.94051000  0.94051000  0.55949000  1
  Mg  Mg0  1  0.57901500  0.57901500  0.57901500  1
  Mg  Mg1  1  0.57901500  0.57901500  0.26295400  1
  Mg  Mg2  1  0.57901500  0.26295400  0.57901500  1
  Mg  Mg3  1  0.26295400  0.57901500  0.57901500  1
  Cu  Cu0  1  0.14144400  0.14144400  0.14144400  1
  Cu  Cu1  1  0.14144400  0.14144400  0.57566700  1
  Cu  Cu2  1  0.14144400  0.57566700  0.14144400  1
  Cu  Cu3  1  0.57566700  0.14144400  0.14144400  1
loop_
_geom_bond_atom_site_label_1
_geom_bond_atom_site_label_2
_geom_bond_distance
_geom_bond_site_symmetry_2
Mg0 Mg3 3.202870 1_555
Mg0 Mg1 3.202870 1_555
Mg0 Mg2 3.202870 1_555
Mg0 Yb10 3.476703 1_555
Mg0 Yb14 3.476703 1_555
Mg0 Yb12 3.476703 1_555
Mg0 Yb2 3.654273 1_555
Mg0 Yb3 3.654273 1_555
Mg0 Yb1 3.654273 1_555
Mg0 Yb7 3.668572 1_555
Mg0 Yb5 3.668572 1_555
Mg0 Yb9 3.668572 1_555
Mg1 Mg3 3.202870 1_555
Mg1 Mg2 3.202870 1_555
Mg1 Yb14 3.476693 1_554
Mg1 Yb13 3.476699 1_554
Mg1 Yb11 3.476699 1_554
Mg1 Yb0 3.654269 1_555
Mg1 Yb2 3.654277 1_555
Mg1 Yb3 3.654277 1_555
Mg1 Yb6 3.668568 1_555
Mg1 Yb4 3.668568 1_555
Mg1 Yb9 3.668577 1_555
Mg2 Mg3 3.202870 1_555
Mg2 Yb12 3.476693 1_545
Mg2 Yb11 3.476699 1_545
Mg2 Yb15 3.476699 1_545
Mg2 Yb0 3.654269 1_555
Mg2 Yb1 3.654277 1_555
Mg2 Yb3 3.654277 1_555
Mg2 Yb4 3.668568 1_555
Mg2 Yb8 3.668568 1_555
Mg2 Yb7 3.668577 1_555
Mg3 Yb10 3.476693 1_455
Mg3 Yb13 3.476699 1_455
Mg3 Yb15 3.476699 1_455
Mg3 Yb0 3.654269 1_555
Mg3 Yb1 3.654277 1_555
Mg3 Yb2 3.654277 1_555
Mg3 Yb8 3.668568 1_555
Mg3 Yb6 3.668568 1_555
Mg3 Yb5 3.668577 1_555
Cu0 Yb1 2.951180 1_554
Cu0 Yb2 2.951180 1_545
Cu0 Yb3 2.951180 1_455
Cu0 Yb8 2.952261 1_554
Cu0 Yb6 2.952261 1_545
Cu0 Yb4 2.952261 1_455
Cu0 Yb11 3.623939 1_544
Cu0 Yb13 3.623939 1_454
Cu0 Yb15 3.623939 1_445
Cu1 Yb2 2.951172 1_545
Cu1 Yb3 2.951172 1_455
Cu1 Yb0 2.951179 1_555
Cu1 Yb7 2.952264 1_455
Cu1 Yb5 2.952264 1_545
Cu1 Yb8 2.952271 1_555
Cu1 Yb15 3.623933 1_445
Cu1 Yb10 3.623942 1_455
Cu1 Yb12 3.623942 1_545
Cu2 Yb1 2.951172 1_554
Cu2 Yb3 2.951172 1_455
Cu2 Yb0 2.951179 1_555
Cu2 Yb5 2.952264 1_554
Cu2 Yb9 2.952264 1_455
Cu2 Yb6 2.952271 1_555
Cu2 Yb13 3.623933 1_454
Cu2 Yb10 3.623942 1_455
Cu2 Yb14 3.623942 1_554
Cu3 Yb2 2.951172 1_545
Cu3 Yb1 2.951172 1_554
Cu3 Yb0 2.951179 1_555
Cu3 Yb9 2.952264 1_545
Cu3 Yb7 2.952264 1_554
Cu3 Yb4 2.952271 1_555
Cu3 Yb11 3.623933 1_544
Cu3 Yb14 3.623942 1_554
Cu3 Yb12 3.623942 1_545
