# generated using pymatgen
data_Ba3Sc3In(CuO4)3
_symmetry_space_group_name_H-M   'P 1'
_cell_length_a   8.52777600
_cell_length_b   9.56253918
_cell_length_c   9.56253918
_cell_angle_alpha   101.23201061
_cell_angle_beta   116.48061211
_cell_angle_gamma   63.51938789
_symmetry_Int_Tables_number   1
_chemical_formula_structural   Ba3Sc3In(CuO4)3
_chemical_formula_sum   'Ba6 Sc6 In2 Cu6 O24'
_cell_volume   624.74899108
_cell_formula_units_Z   2
loop_
 _symmetry_equiv_pos_site_id
 _symmetry_equiv_pos_as_xyz
  1  'x, y, z'
loop_
 _atom_site_type_symbol
 _atom_site_label
 _atom_site_symmetry_multiplicity
 _atom_site_fract_x
 _atom_site_fract_y
 _atom_site_fract_z
 _atom_site_occupancy
  Ba  Ba0  1  0.50188200  0.00000000  0.00000000  1
  Ba  Ba1  1  0.99811800  0.00000000  0.00000000  1
  Ba  Ba2  1  0.27768300  0.50122000  0.05716200  1
  Ba  Ba3  1  0.72174100  0.49878000  0.94283800  1
  Ba  Ba4  1  0.22231700  0.05716200  0.50122000  1
  Ba  Ba5  1  0.77825900  0.94283800  0.49878000  1
  Sc  Sc0  1  0.25000000  0.24034900  0.24034900  1
  Sc  Sc1  1  0.25000000  0.75965100  0.75965100  1
  Sc  Sc2  1  0.99333800  0.75666200  0.24333800  1
  Sc  Sc3  1  0.50666200  0.24333800  0.75666200  1
  Sc  Sc4  1  0.48963200  0.76036800  0.23963200  1
  Sc  Sc5  1  0.01036800  0.23963200  0.76036800  1
  In  In0  1  0.75000000  0.24197900  0.24197900  1
  In  In1  1  0.75000000  0.75802100  0.75802100  1
  Cu  Cu0  1  0.10765200  0.49686500  0.70870000  1
  Cu  Cu1  1  0.89581700  0.50313500  0.29130000  1
  Cu  Cu2  1  0.39234800  0.70870000  0.49686500  1
  Cu  Cu3  1  0.60418300  0.29130000  0.50313500  1
  Cu  Cu4  1  0.75000000  0.50000000  0.50000000  1
  Cu  Cu5  1  0.25000000  0.50000000  0.50000000  1
  O  O0  1  0.88092200  0.99225400  0.25745100  1
  O  O1  1  0.61572500  0.00774600  0.74254900  1
  O  O2  1  0.12338700  0.25412800  0.99994500  1
  O  O3  1  0.37757000  0.74587200  0.00005500  1
  O  O4  1  0.88427500  0.74254900  0.00774600  1
  O  O5  1  0.61907800  0.25745100  0.99225400  1
  O  O6  1  0.37661300  0.99994500  0.25412800  1
  O  O7  1  0.12243000  0.00005500  0.74587200  1
  O  O8  1  0.00786500  0.73245300  0.73920600  1
  O  O9  1  0.00111200  0.26754700  0.26079400  1
  O  O10  1  0.49213500  0.73920600  0.73245300  1
  O  O11  1  0.49888800  0.26079400  0.26754700  1
  O  O12  1  0.73882400  0.26165600  0.73649500  1
  O  O13  1  0.26398500  0.73834400  0.26350500  1
  O  O14  1  0.23601500  0.26350500  0.73834400  1
  O  O15  1  0.76117600  0.73649500  0.26165600  1
  O  O16  1  0.34747300  0.50019800  0.73036500  1
  O  O17  1  0.11730500  0.49980200  0.26963500  1
  O  O18  1  0.61063000  0.73019500  0.49818800  1
  O  O19  1  0.84263800  0.26980500  0.50181200  1
  O  O20  1  0.65736200  0.50181200  0.26980500  1
  O  O21  1  0.88937000  0.49818800  0.73019500  1
  O  O22  1  0.38269500  0.26963500  0.49980200  1
  O  O23  1  0.15252700  0.73036500  0.50019800  1
loop_
_geom_bond_atom_site_label_1
_geom_bond_atom_site_label_2
_geom_bond_distance
_geom_bond_site_symmetry_2
Ba0 O1 3.045567 1_554
Ba0 O0 3.045567 1_545
Ba0 O2 3.054120 1_554
Ba0 O3 3.054120 1_545
Ba0 O6 3.059855 1_545
Ba0 O7 3.059855 1_554
Ba0 O4 3.065368 1_545
Ba0 O5 3.065368 1_554
Ba0 O15 3.170568 1_545
Ba0 O14 3.170568 1_554
Ba0 O11 3.206466 1_555
Ba0 O10 3.206466 1_544
Ba1 O5 3.045567 1_554
Ba1 O4 3.045567 1_545
Ba1 O6 3.054120 1_645
Ba1 O7 3.054120 1_654
Ba1 O2 3.059855 1_654
Ba1 O3 3.059855 1_645
Ba1 O0 3.065368 1_545
Ba1 O1 3.065368 1_554
Ba1 O12 3.170568 1_554
Ba1 O13 3.170568 1_645
Ba1 O9 3.206466 1_655
Ba1 O8 3.206466 1_644
Ba2 O13 2.697215 1_555
Ba2 O11 2.727902 1_555
Ba2 O17 2.916198 1_555
Ba2 O20 2.959516 1_555
Ba2 Cu0 2.983057 1_554
Ba2 O4 2.985104 1_455
Ba2 O3 3.030962 1_555
Ba2 O2 3.039832 1_554
Ba2 O5 3.048062 1_554
Ba3 O12 2.697215 1_555
Ba3 O10 2.727902 1_555
Ba3 O16 2.916192 1_555
Ba3 O21 2.959522 1_555
Ba3 Cu1 2.983057 1_556
Ba3 O5 2.985104 1_555
Ba3 O2 3.030962 1_655
Ba3 O3 3.039832 1_556
Ba3 O4 3.048062 1_556
Ba4 O14 2.697215 1_555
Ba4 O9 2.727902 1_555
Ba4 O22 2.916198 1_555
Ba4 O19 2.959516 1_455
Ba4 Cu2 2.983057 1_545
Ba4 O1 2.985104 1_555
Ba4 O7 3.030962 1_555
Ba4 O6 3.039832 1_545
Ba4 O0 3.048062 1_445
Ba5 O15 2.697215 1_555
Ba5 O8 2.727902 1_655
Ba5 O23 2.916192 1_655
Ba5 O18 2.959522 1_555
Ba5 Cu3 2.983057 1_565
Ba5 O0 2.985104 1_555
Ba5 O6 3.030962 1_555
Ba5 O7 3.039832 1_665
Ba5 O1 3.048062 1_565
In0 O0 2.140948 1_545
In0 O5 2.140948 1_554
In0 O9 2.187245 1_655
In0 O11 2.187245 1_555
In0 O20 2.246749 1_555
In0 O19 2.246749 1_555
In1 O4 2.140948 1_556
In1 O1 2.140948 1_565
In1 O10 2.187245 1_555
In1 O8 2.187245 1_655
In1 O21 2.246750 1_555
In1 O18 2.246750 1_555
Cu0 O21 1.956181 1_455
Cu0 O16 1.975915 1_555
Cu0 O14 2.012355 1_555
Cu0 O8 2.034742 1_555
Cu1 O20 1.956189 1_555
Cu1 O17 1.975907 1_655
Cu1 O15 2.012355 1_555
Cu1 O9 2.034742 1_655
Cu2 O18 1.956181 1_555
Cu2 O23 1.975915 1_555
Cu2 O13 2.012355 1_555
Cu2 O10 2.034742 1_555
Cu3 O19 1.956189 1_555
Cu3 O22 1.975907 1_555
Cu3 O12 2.012355 1_555
Cu3 O11 2.034742 1_555
Cu4 O20 1.980338 1_555
Cu4 O19 1.980338 1_555
Cu4 O18 1.980339 1_555
Cu4 O21 1.980339 1_555
Cu5 O23 1.977481 1_555
Cu5 O16 1.977481 1_555
Cu5 O22 1.977481 1_555
Cu5 O17 1.977481 1_555
O0 Sc2 2.020773 1_555
O1 Sc3 2.020773 1_555
O2 Sc5 2.054987 1_555
O2 Sc0 2.060474 1_556
O3 Sc4 2.054987 1_555
O3 Sc1 2.060474 1_554
O4 Sc2 2.020773 1_555
O5 Sc3 2.020773 1_555
O6 Sc4 2.054987 1_555
O6 Sc0 2.060474 1_565
O7 Sc5 2.054987 1_555
O7 Sc1 2.060474 1_545
O8 Sc1 2.113923 1_555
O9 Sc0 2.113923 1_555
O10 Sc1 2.113923 1_555
O11 Sc0 2.113923 1_555
O12 Sc5 2.138027 1_655
O12 Sc3 2.156503 1_555
O13 Sc4 2.138027 1_555
O13 Sc2 2.156503 1_455
O14 Sc5 2.138027 1_555
O14 Sc3 2.156503 1_555
O15 Sc4 2.138027 1_555
O15 Sc2 2.156503 1_555
O16 Sc3 2.214001 1_555
O16 Sc1 2.241128 1_555
O17 Sc2 2.214001 1_455
O17 Sc0 2.241129 1_555
O18 Sc4 2.235678 1_555
O19 Sc5 2.235677 1_655
O20 Sc4 2.235677 1_555
O21 Sc5 2.235678 1_655
O22 Sc3 2.214001 1_555
O22 Sc0 2.241129 1_555
O23 Sc2 2.214001 1_455
O23 Sc1 2.241128 1_555
