# generated using pymatgen
data_AlAu3
_symmetry_space_group_name_H-M   'P 1'
_cell_length_a   5.79528669
_cell_length_b   5.79528669
_cell_length_c   4.60881080
_cell_angle_alpha   90.00000000
_cell_angle_beta   90.00000000
_cell_angle_gamma   119.99999924
_symmetry_Int_Tables_number   1
_chemical_formula_structural   AlAu3
_chemical_formula_sum   'Al2 Au6'
_cell_volume   134.05078632
_cell_formula_units_Z   2
loop_
 _symmetry_equiv_pos_site_id
 _symmetry_equiv_pos_as_xyz
  1  'x, y, z'
loop_
 _atom_site_type_symbol
 _atom_site_label
 _atom_site_symmetry_multiplicity
 _atom_site_fract_x
 _atom_site_fract_y
 _atom_site_fract_z
 _atom_site_occupancy
  Al  Al0  1  0.33333300  0.66666700  0.75000000  1
  Al  Al1  1  0.66666700  0.33333300  0.25000000  1
  Au  Au0  1  0.17068376  0.34136652  0.25000000  1
  Au  Au1  1  0.65863348  0.82931624  0.25000000  1
  Au  Au2  1  0.17068376  0.82931624  0.25000000  1
  Au  Au3  1  0.82931624  0.65863348  0.75000000  1
  Au  Au4  1  0.34136652  0.17068376  0.75000000  1
  Au  Au5  1  0.82931624  0.17068376  0.75000000  1
loop_
_geom_bond_atom_site_label_1
_geom_bond_atom_site_label_2
_geom_bond_distance
_geom_bond_site_symmetry_2
Al0 Au2 2.824139 1_555
Al0 Au2 2.824139 1_556
Al0 Au0 2.824145 1_556
Al0 Au0 2.824145 1_555
Al0 Au1 2.824145 1_555
Al0 Au1 2.824145 1_556
Al0 Au3 2.897924 1_555
Al0 Au4 2.897924 1_555
Al0 Au3 2.897924 1_455
Al0 Au4 2.897924 1_565
Al0 Au5 2.897924 1_565
Al0 Au5 2.897924 1_455
Al1 Au5 2.824139 1_554
Al1 Au5 2.824139 1_555
Al1 Au3 2.824145 1_555
Al1 Au3 2.824145 1_554
Al1 Au4 2.824145 1_555
Al1 Au4 2.824145 1_554
Al1 Au0 2.897924 1_555
Al1 Au1 2.897924 1_555
Al1 Au0 2.897924 1_655
Al1 Au1 2.897924 1_545
Al1 Au2 2.897924 1_545
Al1 Au2 2.897924 1_655
Au0 Au2 2.827809 1_555
Au0 Au1 2.827809 1_555
Au0 Au4 2.871510 1_555
Au0 Au4 2.871510 1_554
Au0 Au5 2.871516 1_455
Au0 Au5 2.871516 1_454
Au0 Au2 2.967478 1_545
Au0 Au1 2.967478 1_445
Au1 Au2 2.827809 1_555
Au1 Au3 2.871510 1_554
Au1 Au3 2.871510 1_555
Au1 Au5 2.871516 1_565
Au1 Au5 2.871516 1_564
Au1 Au2 2.967478 1_655
Au2 Au3 2.871516 1_455
Au2 Au3 2.871516 1_454
Au2 Au4 2.871516 1_564
Au2 Au4 2.871516 1_565
Au3 Au5 2.827809 1_555
Au3 Au4 2.827809 1_555
Au3 Au5 2.967478 1_565
Au3 Au4 2.967478 1_665
Au4 Au5 2.827809 1_555
Au4 Au5 2.967478 1_455
