# generated using pymatgen
data_Cs4Li(Pb2O3)2
_symmetry_space_group_name_H-M   'P 1'
_cell_length_a   8.14331492
_cell_length_b   8.10271065
_cell_length_c   8.14331492
_cell_angle_alpha   111.04899076
_cell_angle_beta   115.23650116
_cell_angle_gamma   102.55360518
_symmetry_Int_Tables_number   1
_chemical_formula_structural   Cs4Li(Pb2O3)2
_chemical_formula_sum   'Cs4 Li1 Pb4 O6'
_cell_volume   407.58835118
_cell_formula_units_Z   1
loop_
 _symmetry_equiv_pos_site_id
 _symmetry_equiv_pos_as_xyz
  1  'x, y, z'
loop_
 _atom_site_type_symbol
 _atom_site_label
 _atom_site_symmetry_multiplicity
 _atom_site_fract_x
 _atom_site_fract_y
 _atom_site_fract_z
 _atom_site_occupancy
  Cs  Cs0  1  0.97763900  0.98428900  0.99628100  1
  Cs  Cs1  1  0.55576000  0.05300700  0.50908800  1
  Cs  Cs2  1  0.51199200  0.51571100  0.99335000  1
  Cs  Cs3  1  0.95608100  0.44699300  0.50275200  1
  Li  Li0  1  0.22751200  0.75000000  0.47751200  1
  Pb  Pb0  1  0.52589600  0.53966300  0.50686400  1
  Pb  Pb1  1  0.97071500  0.97354100  0.50913900  1
  Pb  Pb2  1  0.46720000  0.96033700  0.98623300  1
  Pb  Pb3  1  0.03559800  0.52645900  0.99717300  1
  O  O0  1  0.74722700  0.51423700  0.76605800  1
  O  O1  1  0.75182100  0.98576300  0.23299000  1
  O  O2  1  0.43596900  0.75000000  0.68596900  1
  O  O3  1  0.01420500  0.25000000  0.76420500  1
  O  O4  1  0.74589600  0.74938200  0.50087100  1
  O  O5  1  0.25149000  0.75061800  0.99651400  1
loop_
_geom_bond_atom_site_label_1
_geom_bond_atom_site_label_2
_geom_bond_distance
_geom_bond_site_symmetry_2
Cs0 O4 3.144886 1_555
Cs0 O1 3.180085 1_556
Cs0 O0 3.210325 1_555
Cs0 O5 3.223729 1_655
Cs0 O3 3.379281 1_665
Cs1 O3 3.035640 1_655
Cs1 Li0 3.057228 1_545
Cs1 O0 3.137494 1_555
Cs1 O4 3.174951 1_545
Cs1 O1 3.234222 1_545
Cs1 O5 3.280365 1_544
Cs1 O2 3.428059 1_545
Cs2 O5 3.144879 1_555
Cs2 O0 3.180085 1_555
Cs2 O1 3.210325 1_556
Cs2 O4 3.223723 1_556
Cs2 O3 3.379281 1_555
Cs3 O3 3.035647 1_655
Cs3 Li0 3.057222 1_655
Cs3 O1 3.137493 1_545
Cs3 O5 3.174957 1_655
Cs3 O0 3.234229 1_555
Cs3 O4 3.280365 1_555
Cs3 O2 3.428057 1_655
Li0 O2 1.818252 1_555
Li0 Pb1 3.080719 1_455
Li0 Pb3 3.080725 1_554
O0 Pb0 2.230666 1_555
O0 Pb3 2.250060 1_655
O1 Pb2 2.230671 1_554
O1 Pb1 2.250063 1_555
O2 Pb0 2.288202 1_555
O2 Pb2 2.288206 1_555
O3 Pb3 2.267863 1_555
O3 Pb1 2.267866 1_445
O4 Pb0 2.215917 1_555
O4 Pb1 2.239808 1_555
O5 Pb2 2.215907 1_555
O5 Pb3 2.239808 1_555
