# generated using pymatgen
data_Ba4LaTi4CrO15
_symmetry_space_group_name_H-M   'P 1'
_cell_length_a   6.97031183
_cell_length_b   28.29731737
_cell_length_c   6.97031183
_cell_angle_alpha   90.00002427
_cell_angle_beta   70.33515018
_cell_angle_gamma   90.00004290
_symmetry_Int_Tables_number   1
_chemical_formula_structural   Ba4LaTi4CrO15
_chemical_formula_sum   'Ba16 La4 Ti16 Cr4 O60'
_cell_volume   1294.64805355
_cell_formula_units_Z   4
loop_
 _symmetry_equiv_pos_site_id
 _symmetry_equiv_pos_as_xyz
  1  'x, y, z'
loop_
 _atom_site_type_symbol
 _atom_site_label
 _atom_site_symmetry_multiplicity
 _atom_site_fract_x
 _atom_site_fract_y
 _atom_site_fract_z
 _atom_site_occupancy
  Ba  Ba0  1  0.24999500  0.49865200  0.25000900  1
  Ba  Ba1  1  0.50000000  0.99864200  0.50000400  1
  Ba  Ba2  1  0.75001300  0.49863900  0.74999200  1
  Ba  Ba3  1  0.00000300  0.99862700  0.00000200  1
  Ba  Ba4  1  0.25000200  0.30134600  0.25000100  1
  Ba  Ba5  1  0.49999400  0.80135800  0.50001000  1
  Ba  Ba6  1  0.75000200  0.30135900  0.75000100  1
  Ba  Ba7  1  0.00000600  0.80137200  0.99999800  1
  Ba  Ba8  1  0.25000700  0.09960200  0.24999900  1
  Ba  Ba9  1  0.50000200  0.59959800  0.50000100  1
  Ba  Ba10  1  0.74999900  0.09960200  0.75000600  1
  Ba  Ba11  1  0.99999700  0.59959900  0.00000400  1
  Ba  Ba12  1  0.50000300  0.20040400  0.50000000  1
  Ba  Ba13  1  0.74999700  0.70039800  0.75000900  1
  Ba  Ba14  1  0.99999800  0.20040300  0.00000500  1
  Ba  Ba15  1  0.25000400  0.70039700  0.25000000  1
  La  La0  1  0.50005700  0.39999700  0.49999700  1
  La  La1  1  0.74996400  0.90000800  0.75007100  1
  La  La2  1  0.99995800  0.39999700  0.99998200  1
  La  La3  1  0.25001200  0.90000200  0.24990500  1
  Ti  Ti0  1  0.75000300  0.49800000  0.25000600  1
  Ti  Ti1  1  0.99999300  0.99802400  0.49998900  1
  Ti  Ti2  1  0.24999900  0.49801100  0.75000200  1
  Ti  Ti3  1  0.49999500  0.99800100  0.00000000  1
  Ti  Ti4  1  0.74999900  0.30199500  0.24999800  1
  Ti  Ti5  1  0.99999200  0.80197400  0.49999600  1
  Ti  Ti6  1  0.25000600  0.30198300  0.75000700  1
  Ti  Ti7  1  0.49999500  0.80199500  0.99999100  1
  Ti  Ti8  1  0.74999600  0.09948600  0.24998800  1
  Ti  Ti9  1  0.99999400  0.59948800  0.50000000  1
  Ti  Ti10  1  0.25000700  0.09948600  0.75001000  1
  Ti  Ti11  1  0.50000700  0.59948500  0.00000400  1
  Ti  Ti12  1  0.50000800  0.20051400  0.00000300  1
  Ti  Ti13  1  0.74999400  0.70051400  0.24999000  1
  Ti  Ti14  1  0.99999700  0.20051400  0.50000000  1
  Ti  Ti15  1  0.25000500  0.70051200  0.75001000  1
  Cr  Cr0  1  0.49992100  0.39999600  0.99999400  1
  Cr  Cr1  1  0.75000600  0.89999700  0.25010400  1
  Cr  Cr2  1  0.00010200  0.39998900  0.49997600  1
  Cr  Cr3  1  0.24996600  0.90000100  0.74994100  1
  O  O0  1  0.25002300  0.39999800  0.24998200  1
  O  O1  1  0.49998100  0.90000500  0.49999800  1
  O  O2  1  0.75002400  0.39999800  0.74998300  1
  O  O3  1  0.99997900  0.90000500  0.99999600  1
  O  O4  1  0.62500800  0.15000400  0.12501100  1
  O  O5  1  0.87499500  0.65000200  0.37499700  1
  O  O6  1  0.12500800  0.15000400  0.62500900  1
  O  O7  1  0.37499300  0.65000100  0.87499300  1
  O  O8  1  0.37499200  0.15000500  0.87499400  1
  O  O9  1  0.62500800  0.65000100  0.12501000  1
  O  O10  1  0.87499400  0.15000400  0.37499500  1
  O  O11  1  0.12500800  0.65000100  0.62500800  1
  O  O12  1  0.25000200  0.20025700  0.25000100  1
  O  O13  1  0.50000100  0.70025300  0.50000300  1
  O  O14  1  0.74999800  0.20025600  0.75000500  1
  O  O15  1  0.00000100  0.70025200  0.00000300  1
  O  O16  1  0.50000200  0.09974900  0.50000200  1
  O  O17  1  0.75000100  0.59974600  0.75000200  1
  O  O18  1  0.99999900  0.09975000  0.00000300  1
  O  O19  1  0.25000000  0.59974500  0.25000200  1
  O  O20  1  0.50000100  0.30394700  0.50000500  1
  O  O21  1  0.75000600  0.80394100  0.75000100  1
  O  O22  1  0.00000200  0.30394600  0.99999600  1
  O  O23  1  0.24999400  0.80394200  0.25000600  1
  O  O24  1  0.50000200  0.49605500  0.50000500  1
  O  O25  1  0.75000600  0.99606000  0.75000000  1
  O  O26  1  0.00000300  0.49605500  0.99999600  1
  O  O27  1  0.24999500  0.99606100  0.25000500  1
  O  O28  1  0.63289800  0.35224500  0.13293200  1
  O  O29  1  0.88293600  0.85224700  0.38297700  1
  O  O30  1  0.13296500  0.35224000  0.63291700  1
  O  O31  1  0.38292900  0.85225300  0.88289700  1
  O  O32  1  0.86711200  0.44774700  0.36706400  1
  O  O33  1  0.11704100  0.94775600  0.61700600  1
  O  O34  1  0.36704700  0.44775300  0.86708200  1
  O  O35  1  0.61704900  0.94775000  0.11709500  1
  O  O36  1  0.63289800  0.44775100  0.13293200  1
  O  O37  1  0.88293400  0.94775200  0.38298100  1
  O  O38  1  0.13296200  0.44774900  0.63291300  1
  O  O39  1  0.38293600  0.94774900  0.88289800  1
  O  O40  1  0.86711000  0.35224200  0.36706300  1
  O  O41  1  0.11704600  0.85224800  0.61700600  1
  O  O42  1  0.36704900  0.35224300  0.86708200  1
  O  O43  1  0.61705000  0.85225000  0.11709800  1
  O  O44  1  0.87534300  0.25101700  0.37534300  1
  O  O45  1  0.12534900  0.75102200  0.62535100  1
  O  O46  1  0.37533700  0.25102000  0.87533900  1
  O  O47  1  0.62535900  0.75101600  0.12536100  1
  O  O48  1  0.37463900  0.04898600  0.87464100  1
  O  O49  1  0.62466000  0.54898600  0.12466300  1
  O  O50  1  0.87464900  0.04898000  0.37465100  1
  O  O51  1  0.12466700  0.54898300  0.62466800  1
  O  O52  1  0.62465800  0.25101700  0.12466100  1
  O  O53  1  0.87465200  0.75102200  0.37465500  1
  O  O54  1  0.12466500  0.25101900  0.62466500  1
  O  O55  1  0.37464400  0.75101700  0.87464500  1
  O  O56  1  0.62536500  0.04898600  0.12536400  1
  O  O57  1  0.87534000  0.54898600  0.37534200  1
  O  O58  1  0.12535200  0.04898100  0.62535500  1
  O  O59  1  0.37533600  0.54898300  0.87533600  1
loop_
_geom_bond_atom_site_label_1
_geom_bond_atom_site_label_2
_geom_bond_distance
_geom_bond_site_symmetry_2
Ba0 O0 2.791644 1_555
Ba0 O51 2.841836 1_555
Ba0 O57 2.841857 1_455
Ba0 O49 2.841912 1_555
Ba0 O59 2.841916 1_554
Ba0 O24 2.849979 1_555
Ba0 O26 2.849990 1_554
Ba0 O19 2.860661 1_555
Ba0 O32 2.897878 1_455
Ba0 O36 2.897934 1_555
Ba0 O38 2.897976 1_555
Ba0 O34 2.898048 1_554
Ba1 O1 2.791162 1_555
Ba1 O50 2.841878 1_565
Ba1 O58 2.841888 1_565
Ba1 O48 2.841895 1_565
Ba1 O56 2.841913 1_565
Ba1 O25 2.849962 1_555
Ba1 O27 2.849973 1_555
Ba1 O16 2.861057 1_565
Ba1 O39 2.897772 1_555
Ba1 O35 2.897847 1_555
Ba1 O37 2.897969 1_555
Ba1 O33 2.898059 1_555
Ba2 O2 2.791276 1_555
Ba2 O51 2.841992 1_655
Ba2 O57 2.842012 1_555
Ba2 O59 2.842124 1_555
Ba2 O49 2.842131 1_556
Ba2 O26 2.849918 1_655
Ba2 O24 2.849941 1_555
Ba2 O17 2.861057 1_555
Ba2 O32 2.897946 1_555
Ba2 O36 2.897957 1_556
Ba2 O38 2.898044 1_655
Ba2 O34 2.898082 1_555
Ba3 O3 2.790738 1_454
Ba3 O50 2.842091 1_465
Ba3 O58 2.842094 1_564
Ba3 O48 2.842102 1_564
Ba3 O56 2.842115 1_465
Ba3 O27 2.849911 1_555
Ba3 O25 2.849934 1_454
Ba3 O18 2.861510 1_465
Ba3 O39 2.897778 1_554
Ba3 O35 2.897886 1_455
Ba3 O37 2.898008 1_455
Ba3 O33 2.898055 1_554
Ba4 O0 2.791587 1_555
Ba4 O46 2.841782 1_554
Ba4 O52 2.841792 1_555
Ba4 O44 2.841807 1_455
Ba4 O54 2.841808 1_555
Ba4 O20 2.849981 1_555
Ba4 O22 2.849992 1_554
Ba4 O12 2.860548 1_555
Ba4 O40 2.897804 1_455
Ba4 O28 2.897866 1_555
Ba4 O30 2.897918 1_555
Ba4 O42 2.897976 1_554
Ba5 O1 2.791445 1_555
Ba5 O45 2.841827 1_555
Ba5 O55 2.841842 1_555
Ba5 O53 2.841902 1_555
Ba5 O47 2.841935 1_555
Ba5 O21 2.849968 1_555
Ba5 O23 2.849975 1_555
Ba5 O13 2.861000 1_555
Ba5 O31 2.897759 1_555
Ba5 O43 2.897863 1_555
Ba5 O29 2.897997 1_555
Ba5 O41 2.898055 1_555
Ba6 O2 2.791219 1_555
Ba6 O46 2.841983 1_555
Ba6 O44 2.841986 1_555
Ba6 O54 2.841987 1_655
Ba6 O52 2.841998 1_556
Ba6 O22 2.849926 1_655
Ba6 O20 2.849938 1_555
Ba6 O14 2.860944 1_555
Ba6 O40 2.897876 1_555
Ba6 O28 2.897878 1_556
Ba6 O42 2.897982 1_555
Ba6 O30 2.897996 1_655
Ba7 O3 2.791049 1_455
Ba7 O45 2.842037 1_555
Ba7 O55 2.842058 1_555
Ba7 O53 2.842094 1_456
Ba7 O47 2.842122 1_456
Ba7 O23 2.849919 1_556
Ba7 O21 2.849924 1_455
Ba7 O15 2.861425 1_556
Ba7 O31 2.897762 1_555
Ba7 O43 2.897912 1_456
Ba7 O29 2.898007 1_456
Ba7 O41 2.898102 1_555
Ba8 O4 2.844793 1_555
Ba8 O8 2.844831 1_554
Ba8 O6 2.844844 1_555
Ba8 O10 2.844862 1_455
Ba8 O12 2.848266 1_555
Ba8 O16 2.849005 1_555
Ba8 O18 2.849040 1_455
Ba8 O48 2.849871 1_554
Ba8 O56 2.849872 1_555
Ba8 O58 2.849931 1_555
Ba8 O50 2.849956 1_455
Ba8 O27 2.929933 1_545
Ba9 O9 2.844751 1_555
Ba9 O7 2.844756 1_555
Ba9 O11 2.844768 1_555
Ba9 O5 2.844775 1_555
Ba9 O13 2.848266 1_555
Ba9 O17 2.849017 1_555
Ba9 O19 2.849023 1_555
Ba9 O49 2.849700 1_555
Ba9 O57 2.849701 1_555
Ba9 O51 2.849725 1_555
Ba9 O59 2.849726 1_555
Ba9 O24 2.929989 1_555
Ba10 O4 2.844816 1_556
Ba10 O6 2.844838 1_655
Ba10 O8 2.844843 1_555
Ba10 O10 2.844850 1_555
Ba10 O14 2.848238 1_555
Ba10 O18 2.849000 1_556
Ba10 O16 2.849023 1_555
Ba10 O56 2.849872 1_556
Ba10 O48 2.849882 1_555
Ba10 O58 2.849915 1_655
Ba10 O50 2.849939 1_555
Ba10 O25 2.929961 1_545
Ba11 O9 2.844726 1_555
Ba11 O5 2.844762 1_555
Ba11 O7 2.844764 1_654
Ba11 O11 2.844765 1_654
Ba11 O15 2.848210 1_655
Ba11 O17 2.849005 1_554
Ba11 O19 2.849023 1_655
Ba11 O49 2.849708 1_555
Ba11 O57 2.849715 1_555
Ba11 O51 2.849745 1_654
Ba11 O59 2.849763 1_654
Ba11 O26 2.930017 1_654
Ba12 O4 2.844696 1_555
Ba12 O10 2.844709 1_555
Ba12 O8 2.844711 1_555
Ba12 O6 2.844730 1_555
Ba12 O16 2.848266 1_555
Ba12 O12 2.849017 1_555
Ba12 O14 2.849017 1_555
Ba12 O52 2.849721 1_555
Ba12 O44 2.849725 1_555
Ba12 O54 2.849744 1_555
Ba12 O46 2.849762 1_555
Ba12 O20 2.929989 1_555
Ba13 O9 2.844723 1_556
Ba13 O7 2.844739 1_555
Ba13 O5 2.844771 1_555
Ba13 O11 2.844780 1_655
Ba13 O17 2.848182 1_555
Ba13 O15 2.849005 1_656
Ba13 O13 2.849028 1_555
Ba13 O47 2.849866 1_556
Ba13 O55 2.849887 1_555
Ba13 O45 2.849950 1_655
Ba13 O53 2.849962 1_555
Ba13 O21 2.929989 1_555
Ba14 O4 2.844687 1_555
Ba14 O10 2.844688 1_555
Ba14 O8 2.844697 1_654
Ba14 O6 2.844722 1_654
Ba14 O18 2.848210 1_555
Ba14 O12 2.849017 1_655
Ba14 O14 2.849017 1_554
Ba14 O44 2.849729 1_555
Ba14 O52 2.849741 1_555
Ba14 O54 2.849769 1_654
Ba14 O46 2.849776 1_654
Ba14 O22 2.929989 1_654
Ba15 O9 2.844726 1_555
Ba15 O5 2.844739 1_455
Ba15 O7 2.844742 1_554
Ba15 O11 2.844748 1_555
Ba15 O19 2.848182 1_555
Ba15 O13 2.849017 1_555
Ba15 O15 2.849017 1_555
Ba15 O47 2.849896 1_555
Ba15 O55 2.849911 1_554
Ba15 O45 2.849959 1_555
Ba15 O53 2.849966 1_455
Ba15 O23 2.930046 1_555
La0 O20 2.717957 1_555
La0 O24 2.718184 1_555
La0 O32 2.763080 1_555
La0 O40 2.763140 1_555
La0 O28 2.763150 1_555
La0 O36 2.763178 1_555
La0 O42 2.763319 1_555
La0 O38 2.763333 1_555
La0 O34 2.763347 1_555
La0 O30 2.763385 1_555
La0 O2 2.848746 1_555
La0 O0 2.849293 1_555
La1 O25 2.718014 1_555
La1 O21 2.718438 1_555
La1 O39 2.762787 1_555
La1 O35 2.762792 1_556
La1 O31 2.763019 1_555
La1 O43 2.763030 1_556
La1 O33 2.763199 1_655
La1 O37 2.763203 1_555
La1 O41 2.763395 1_655
La1 O29 2.763461 1_555
La1 O3 2.848672 1_555
La1 O1 2.849333 1_555
La2 O22 2.717986 1_655
La2 O26 2.718184 1_655
La2 O28 2.763139 1_556
La2 O36 2.763168 1_556
La2 O38 2.763200 1_655
La2 O32 2.763220 1_556
La2 O30 2.763247 1_655
La2 O40 2.763284 1_556
La2 O42 2.763336 1_655
La2 O34 2.763351 1_655
La2 O2 2.848632 1_555
La2 O0 2.849384 1_656
La3 O27 2.718212 1_555
La3 O23 2.718240 1_555
La3 O39 2.762766 1_554
La3 O31 2.762798 1_554
La3 O35 2.762930 1_555
La3 O43 2.762992 1_555
La3 O37 2.763236 1_455
La3 O29 2.763292 1_455
La3 O41 2.763403 1_555
La3 O33 2.763403 1_555
La3 O3 2.848683 1_454
La3 O1 2.849367 1_555
Cr0 O0 2.006887 1_556
Cr0 O2 2.007802 1_555
Cr0 O42 2.029656 1_555
Cr0 O34 2.029741 1_555
Cr0 O28 2.030176 1_556
Cr0 O36 2.030250 1_556
Cr1 O1 2.007019 1_555
Cr1 O3 2.007670 1_554
Cr1 O29 2.029681 1_555
Cr1 O37 2.029783 1_555
Cr1 O43 2.030300 1_555
Cr1 O35 2.030431 1_555
Cr2 O0 2.007003 1_555
Cr2 O2 2.007686 1_455
Cr2 O30 2.029667 1_555
Cr2 O38 2.029843 1_555
Cr2 O40 2.030057 1_455
Cr2 O32 2.030253 1_455
Cr3 O1 2.007176 1_555
Cr3 O3 2.007513 1_455
Cr3 O41 2.029958 1_555
Cr3 O33 2.030018 1_555
Cr3 O31 2.030137 1_555
Cr3 O39 2.030170 1_555
O4 Ti8 2.017968 1_555
O4 Ti12 2.017980 1_555
O5 Ti13 2.018020 1_555
O5 Ti9 2.018036 1_555
O6 Ti14 2.018028 1_455
O6 Ti10 2.018108 1_555
O7 Ti15 2.017851 1_555
O7 Ti11 2.018169 1_556
O8 Ti10 2.018002 1_555
O8 Ti12 2.018027 1_556
O9 Ti13 2.017870 1_555
O9 Ti11 2.018095 1_555
O10 Ti14 2.017979 1_555
O10 Ti8 2.018127 1_555
O11 Ti15 2.017963 1_555
O11 Ti9 2.018095 1_455
O12 Ti12 2.007374 1_555
O12 Ti14 2.007374 1_455
O13 Ti15 2.007370 1_555
O13 Ti13 2.007382 1_555
O14 Ti12 2.007310 1_556
O14 Ti14 2.007374 1_555
O15 Ti13 2.007334 1_455
O15 Ti15 2.007346 1_554
O16 Ti10 2.007370 1_555
O16 Ti8 2.007390 1_555
O17 Ti9 2.007338 1_555
O17 Ti11 2.007342 1_556
O18 Ti8 2.007310 1_555
O18 Ti10 2.007362 1_654
O19 Ti9 2.007374 1_455
O19 Ti11 2.007378 1_555
O20 Ti6 2.008102 1_555
O20 Ti4 2.008124 1_555
O21 Ti5 2.008080 1_555
O21 Ti7 2.008104 1_555
O22 Ti6 2.008085 1_555
O22 Ti4 2.008124 1_456
O23 Ti5 2.008085 1_455
O23 Ti7 2.008165 1_554
O24 Ti0 2.008099 1_555
O24 Ti2 2.008107 1_555
O25 Ti1 2.008106 1_555
O25 Ti3 2.008140 1_556
O26 Ti2 2.008067 1_555
O26 Ti0 2.008139 1_456
O27 Ti1 2.008057 1_455
O27 Ti3 2.008115 1_555
O28 Ti4 1.949935 1_555
O29 Ti5 1.950051 1_555
O30 Ti6 1.949939 1_555
O31 Ti7 1.950073 1_555
O32 Ti0 1.949997 1_555
O33 Ti1 1.949909 1_455
O34 Ti2 1.949948 1_555
O35 Ti3 1.949885 1_555
O36 Ti0 1.949960 1_555
O37 Ti1 1.949998 1_555
O38 Ti2 1.950021 1_555
O39 Ti3 1.949952 1_556
O40 Ti4 1.949907 1_555
O41 Ti5 1.950027 1_455
O42 Ti6 1.949949 1_555
O43 Ti7 1.950017 1_554
O44 Ti14 2.015038 1_555
O44 Ti4 2.030110 1_555
O45 Ti15 2.015195 1_555
O45 Ti5 2.029680 1_455
O46 Ti12 2.015195 1_556
O46 Ti6 2.029704 1_555
O47 Ti13 2.014829 1_555
O47 Ti7 2.030311 1_554
O48 Ti10 2.014785 1_555
O48 Ti3 2.030355 1_546
O49 Ti11 2.014962 1_555
O49 Ti0 2.030259 1_555
O50 Ti8 2.015118 1_555
O50 Ti1 2.029640 1_545
O51 Ti9 2.015199 1_455
O51 Ti2 2.029897 1_555
O52 Ti12 2.015025 1_555
O52 Ti4 2.030065 1_555
O53 Ti13 2.015185 1_555
O53 Ti5 2.029554 1_555
O54 Ti14 2.015165 1_455
O54 Ti6 2.029803 1_555
O55 Ti15 2.014928 1_555
O55 Ti7 2.030141 1_555
O56 Ti8 2.014751 1_555
O56 Ti3 2.030430 1_545
O57 Ti9 2.015021 1_555
O57 Ti0 2.030205 1_555
O58 Ti10 2.015073 1_555
O58 Ti1 2.029831 1_445
O59 Ti11 2.015129 1_556
O59 Ti2 2.029916 1_555
