# generated using pymatgen
data_Mg30CdCuO32
_symmetry_space_group_name_H-M   'P 1'
_cell_length_a   8.54356000
_cell_length_b   8.54356000
_cell_length_c   8.61070500
_cell_angle_alpha   90.00000000
_cell_angle_beta   90.00000000
_cell_angle_gamma   90.00000000
_symmetry_Int_Tables_number   1
_chemical_formula_structural   Mg30CdCuO32
_chemical_formula_sum   'Mg30 Cd1 Cu1 O32'
_cell_volume   628.51617410
_cell_formula_units_Z   1
loop_
 _symmetry_equiv_pos_site_id
 _symmetry_equiv_pos_as_xyz
  1  'x, y, z'
loop_
 _atom_site_type_symbol
 _atom_site_label
 _atom_site_symmetry_multiplicity
 _atom_site_fract_x
 _atom_site_fract_y
 _atom_site_fract_z
 _atom_site_occupancy
  Mg  Mg0  1  0.00000000  0.50000000  0.00000000  1
  Mg  Mg1  1  0.50000000  0.00000000  0.00000000  1
  Mg  Mg2  1  0.00000000  0.00000000  0.50000000  1
  Mg  Mg3  1  0.00000000  0.50000000  0.50000000  1
  Mg  Mg4  1  0.50000000  0.00000000  0.50000000  1
  Mg  Mg5  1  0.50000000  0.50000000  0.50000000  1
  Mg  Mg6  1  0.24706100  0.24706100  0.00000000  1
  Mg  Mg7  1  0.24706100  0.75293900  0.00000000  1
  Mg  Mg8  1  0.75293900  0.24706100  0.00000000  1
  Mg  Mg9  1  0.75293900  0.75293900  0.00000000  1
  Mg  Mg10  1  0.24978000  0.24978000  0.50000000  1
  Mg  Mg11  1  0.24978000  0.75022000  0.50000000  1
  Mg  Mg12  1  0.75022000  0.24978000  0.50000000  1
  Mg  Mg13  1  0.75022000  0.75022000  0.50000000  1
  Mg  Mg14  1  0.00000000  0.24726400  0.25152000  1
  Mg  Mg15  1  0.00000000  0.75273600  0.25152000  1
  Mg  Mg16  1  0.50000000  0.24724000  0.25251000  1
  Mg  Mg17  1  0.50000000  0.75276000  0.25251000  1
  Mg  Mg18  1  0.00000000  0.24726400  0.74848000  1
  Mg  Mg19  1  0.00000000  0.75273600  0.74848000  1
  Mg  Mg20  1  0.50000000  0.24724000  0.74749000  1
  Mg  Mg21  1  0.50000000  0.75276000  0.74749000  1
  Mg  Mg22  1  0.24726400  0.00000000  0.25152000  1
  Mg  Mg23  1  0.24724000  0.50000000  0.25251000  1
  Mg  Mg24  1  0.75273600  0.00000000  0.25152000  1
  Mg  Mg25  1  0.75276000  0.50000000  0.25251000  1
  Mg  Mg26  1  0.24726400  0.00000000  0.74848000  1
  Mg  Mg27  1  0.24724000  0.50000000  0.74749000  1
  Mg  Mg28  1  0.75273600  0.00000000  0.74848000  1
  Mg  Mg29  1  0.75276000  0.50000000  0.74749000  1
  Cd  Cd0  1  0.50000000  0.50000000  0.00000000  1
  Cu  Cu0  1  0.00000000  0.00000000  0.00000000  1
  O  O0  1  0.00000000  0.00000000  0.26455600  1
  O  O1  1  0.00000000  0.50000000  0.25042200  1
  O  O2  1  0.50000000  0.00000000  0.25042200  1
  O  O3  1  0.50000000  0.50000000  0.26360900  1
  O  O4  1  0.00000000  0.00000000  0.73544400  1
  O  O5  1  0.00000000  0.50000000  0.74957800  1
  O  O6  1  0.50000000  0.00000000  0.74957800  1
  O  O7  1  0.50000000  0.50000000  0.73639100  1
  O  O8  1  0.24997800  0.24997800  0.24925100  1
  O  O9  1  0.24997800  0.75002200  0.24925100  1
  O  O10  1  0.75002200  0.24997800  0.24925100  1
  O  O11  1  0.75002200  0.75002200  0.24925100  1
  O  O12  1  0.24997800  0.24997800  0.75074900  1
  O  O13  1  0.24997800  0.75002200  0.75074900  1
  O  O14  1  0.75002200  0.24997800  0.75074900  1
  O  O15  1  0.75002200  0.75002200  0.75074900  1
  O  O16  1  0.00000000  0.24518500  0.00000000  1
  O  O17  1  0.00000000  0.75481500  0.00000000  1
  O  O18  1  0.50000000  0.23536900  0.00000000  1
  O  O19  1  0.50000000  0.76463100  0.00000000  1
  O  O20  1  0.00000000  0.25209900  0.50000000  1
  O  O21  1  0.00000000  0.74790100  0.50000000  1
  O  O22  1  0.50000000  0.24828400  0.50000000  1
  O  O23  1  0.50000000  0.75171600  0.50000000  1
  O  O24  1  0.24518500  0.00000000  0.00000000  1
  O  O25  1  0.23536900  0.50000000  0.00000000  1
  O  O26  1  0.75481500  0.00000000  0.00000000  1
  O  O27  1  0.76463100  0.50000000  0.00000000  1
  O  O28  1  0.25209900  0.00000000  0.50000000  1
  O  O29  1  0.24828400  0.50000000  0.50000000  1
  O  O30  1  0.74790100  0.00000000  0.50000000  1
  O  O31  1  0.75171600  0.50000000  0.50000000  1
loop_
_geom_bond_atom_site_label_1
_geom_bond_atom_site_label_2
_geom_bond_distance
_geom_bond_site_symmetry_2
Mg0 O25 2.010889 1_555
Mg0 O27 2.010889 1_455
Mg0 O1 2.156310 1_555
Mg0 O5 2.156310 1_554
Mg0 O16 2.177027 1_555
Mg0 O17 2.177027 1_555
Mg1 O18 2.010889 1_555
Mg1 O19 2.010889 1_545
Mg1 O2 2.156310 1_555
Mg1 O6 2.156310 1_554
Mg1 O24 2.177027 1_555
Mg1 O26 2.177027 1_555
Mg2 O0 2.027339 1_555
Mg2 O4 2.027339 1_555
Mg2 O20 2.153823 1_555
Mg2 O28 2.153823 1_555
Mg2 O30 2.153823 1_455
Mg2 O21 2.153823 1_545
Mg3 O21 2.117957 1_555
Mg3 O20 2.117957 1_555
Mg3 O29 2.121229 1_555
Mg3 O31 2.121229 1_455
Mg3 O5 2.149043 1_555
Mg3 O1 2.149043 1_555
Mg4 O30 2.117957 1_555
Mg4 O28 2.117957 1_555
Mg4 O22 2.121229 1_555
Mg4 O23 2.121229 1_545
Mg4 O6 2.149043 1_555
Mg4 O2 2.149043 1_555
Mg5 O7 2.035493 1_555
Mg5 O3 2.035493 1_555
Mg5 O31 2.150551 1_555
Mg5 O23 2.150551 1_555
Mg5 O22 2.150551 1_555
Mg5 O29 2.150551 1_555
Mg6 O24 2.110841 1_555
Mg6 O16 2.110841 1_555
Mg6 O12 2.146516 1_554
Mg6 O8 2.146516 1_555
Mg6 O25 2.163307 1_555
Mg6 O18 2.163307 1_555
Mg7 O17 2.110841 1_555
Mg7 O24 2.110841 1_565
Mg7 O9 2.146516 1_555
Mg7 O13 2.146516 1_554
Mg7 O25 2.163307 1_555
Mg7 O19 2.163307 1_555
Mg8 O26 2.110841 1_555
Mg8 O16 2.110841 1_655
Mg8 O10 2.146516 1_555
Mg8 O14 2.146516 1_554
Mg8 O18 2.163307 1_555
Mg8 O27 2.163307 1_555
Mg9 O26 2.110841 1_565
Mg9 O17 2.110841 1_655
Mg9 O15 2.146516 1_554
Mg9 O11 2.146516 1_555
Mg9 O27 2.163307 1_555
Mg9 O19 2.163307 1_555
Mg10 O28 2.134102 1_555
Mg10 O20 2.134102 1_555
Mg10 O22 2.137808 1_555
Mg10 O29 2.137808 1_555
Mg10 O12 2.159127 1_555
Mg10 O8 2.159127 1_555
Mg11 O28 2.134102 1_565
Mg11 O21 2.134102 1_555
Mg11 O23 2.137808 1_555
Mg11 O29 2.137808 1_555
Mg11 O9 2.159127 1_555
Mg11 O13 2.159127 1_555
Mg12 O20 2.134102 1_655
Mg12 O30 2.134102 1_555
Mg12 O31 2.137808 1_555
Mg12 O22 2.137808 1_555
Mg12 O14 2.159127 1_555
Mg12 O10 2.159127 1_555
Mg13 O30 2.134102 1_565
Mg13 O21 2.134102 1_655
Mg13 O31 2.137808 1_555
Mg13 O23 2.137808 1_555
Mg13 O15 2.159127 1_555
Mg13 O11 2.159127 1_555
Mg14 O0 2.115495 1_555
Mg14 O8 2.135917 1_555
Mg14 O10 2.135917 1_455
Mg14 O20 2.139987 1_555
Mg14 O1 2.159286 1_555
Mg14 O16 2.165837 1_555
Mg15 O0 2.115495 1_565
Mg15 O9 2.135917 1_555
Mg15 O11 2.135917 1_455
Mg15 O21 2.139987 1_555
Mg15 O1 2.159286 1_555
Mg15 O17 2.165837 1_555
Mg16 O2 2.112386 1_555
Mg16 O22 2.131082 1_555
Mg16 O10 2.136390 1_555
Mg16 O8 2.136390 1_555
Mg16 O3 2.161584 1_555
Mg16 O18 2.176653 1_555
Mg17 O2 2.112386 1_565
Mg17 O23 2.131082 1_555
Mg17 O11 2.136390 1_555
Mg17 O9 2.136390 1_555
Mg17 O3 2.161584 1_555
Mg17 O19 2.176653 1_555
Mg18 O4 2.115495 1_555
Mg18 O12 2.135917 1_555
Mg18 O14 2.135917 1_455
Mg18 O20 2.139987 1_555
Mg18 O5 2.159286 1_555
Mg18 O16 2.165837 1_556
Mg19 O4 2.115495 1_565
Mg19 O13 2.135917 1_555
Mg19 O15 2.135917 1_455
Mg19 O21 2.139987 1_555
Mg19 O5 2.159286 1_555
Mg19 O17 2.165837 1_556
Mg20 O6 2.112386 1_555
Mg20 O22 2.131082 1_555
Mg20 O14 2.136390 1_555
Mg20 O12 2.136390 1_555
Mg20 O7 2.161584 1_555
Mg20 O18 2.176653 1_556
Mg21 O6 2.112386 1_565
Mg21 O23 2.131082 1_555
Mg21 O15 2.136390 1_555
Mg21 O13 2.136390 1_555
Mg21 O7 2.161584 1_555
Mg21 O19 2.176653 1_556
Mg22 O0 2.115495 1_555
Mg22 O8 2.135917 1_555
Mg22 O9 2.135917 1_545
Mg22 O28 2.139987 1_555
Mg22 O2 2.159286 1_555
Mg22 O24 2.165837 1_555
Mg23 O1 2.112386 1_555
Mg23 O29 2.131082 1_555
Mg23 O9 2.136390 1_555
Mg23 O8 2.136390 1_555
Mg23 O3 2.161584 1_555
Mg23 O25 2.176653 1_555
Mg24 O0 2.115495 1_655
Mg24 O10 2.135917 1_555
Mg24 O11 2.135917 1_545
Mg24 O30 2.139987 1_555
Mg24 O2 2.159286 1_555
Mg24 O26 2.165837 1_555
Mg25 O1 2.112386 1_655
Mg25 O31 2.131082 1_555
Mg25 O11 2.136390 1_555
Mg25 O10 2.136390 1_555
Mg25 O3 2.161584 1_555
Mg25 O27 2.176653 1_555
Mg26 O4 2.115495 1_555
Mg26 O12 2.135917 1_555
Mg26 O13 2.135917 1_545
Mg26 O28 2.139987 1_555
Mg26 O6 2.159286 1_555
Mg26 O24 2.165837 1_556
Mg27 O5 2.112386 1_555
Mg27 O29 2.131082 1_555
Mg27 O13 2.136390 1_555
Mg27 O12 2.136390 1_555
Mg27 O7 2.161584 1_555
Mg27 O25 2.176653 1_556
Mg28 O4 2.115495 1_655
Mg28 O14 2.135917 1_555
Mg28 O15 2.135917 1_545
Mg28 O30 2.139987 1_555
Mg28 O6 2.159286 1_555
Mg28 O26 2.165837 1_556
Mg29 O5 2.112386 1_655
Mg29 O31 2.131082 1_555
Mg29 O15 2.136390 1_555
Mg29 O14 2.136390 1_555
Mg29 O7 2.161584 1_555
Mg29 O27 2.176653 1_556
Cd0 O27 2.260891 1_555
Cd0 O19 2.260891 1_555
Cd0 O18 2.260891 1_555
Cd0 O25 2.260891 1_555
Cd0 O3 2.269859 1_555
Cd0 O7 2.269859 1_554
Cu0 O24 2.094753 1_555
Cu0 O16 2.094753 1_555
Cu0 O26 2.094753 1_455
Cu0 O17 2.094753 1_545
Cu0 O0 2.278014 1_555
Cu0 O4 2.278014 1_554
