# generated using pymatgen
data_BaU(PS4)2
_symmetry_space_group_name_H-M   'P 1'
_cell_length_a   11.48008100
_cell_length_b   11.48008100
_cell_length_c   9.78097900
_cell_angle_alpha   90.00000000
_cell_angle_beta   90.00000000
_cell_angle_gamma   90.00000000
_symmetry_Int_Tables_number   1
_chemical_formula_structural   BaU(PS4)2
_chemical_formula_sum   'Ba4 U4 P8 S32'
_cell_volume   1289.05732514
_cell_formula_units_Z   4
loop_
 _symmetry_equiv_pos_site_id
 _symmetry_equiv_pos_as_xyz
  1  'x, y, z'
loop_
 _atom_site_type_symbol
 _atom_site_label
 _atom_site_symmetry_multiplicity
 _atom_site_fract_x
 _atom_site_fract_y
 _atom_site_fract_z
 _atom_site_occupancy
  Ba  Ba0  1  0.50000000  0.00000000  0.75000000  1
  Ba  Ba1  1  0.00000000  0.50000000  0.25000000  1
  Ba  Ba2  1  0.00000000  0.50000000  0.75000000  1
  Ba  Ba3  1  0.50000000  0.00000000  0.25000000  1
  U  U0  1  0.50000000  0.50000000  0.75000000  1
  U  U1  1  0.50000000  0.50000000  0.25000000  1
  U  U2  1  0.00000000  0.00000000  0.75000000  1
  U  U3  1  0.00000000  0.00000000  0.25000000  1
  P  P0  1  0.46330100  0.27024200  0.50000000  1
  P  P1  1  0.72975800  0.46330100  0.00000000  1
  P  P2  1  0.96330100  0.22975800  0.50000000  1
  P  P3  1  0.77024200  0.96330100  0.00000000  1
  P  P4  1  0.53669900  0.72975800  0.50000000  1
  P  P5  1  0.27024200  0.53669900  0.00000000  1
  P  P6  1  0.03669900  0.77024200  0.50000000  1
  P  P7  1  0.22975800  0.03669900  0.00000000  1
  S  S0  1  0.27865400  0.43337100  0.82696700  1
  S  S1  1  0.56662900  0.27865400  0.32696700  1
  S  S2  1  0.77865400  0.06662900  0.82696700  1
  S  S3  1  0.93337100  0.77865400  0.32696700  1
  S  S4  1  0.27865400  0.43337100  0.17303300  1
  S  S5  1  0.56662900  0.27865400  0.67303300  1
  S  S6  1  0.77865400  0.06662900  0.17303300  1
  S  S7  1  0.93337100  0.77865400  0.67303300  1
  S  S8  1  0.72134600  0.56662900  0.17303300  1
  S  S9  1  0.43337100  0.72134600  0.67303300  1
  S  S10  1  0.22134600  0.93337100  0.17303300  1
  S  S11  1  0.06662900  0.22134600  0.67303300  1
  S  S12  1  0.72134600  0.56662900  0.82696700  1
  S  S13  1  0.43337100  0.72134600  0.32696700  1
  S  S14  1  0.22134600  0.93337100  0.82696700  1
  S  S15  1  0.06662900  0.22134600  0.32696700  1
  S  S16  1  0.37001700  0.42464700  0.50000000  1
  S  S17  1  0.57535300  0.37001700  0.00000000  1
  S  S18  1  0.87001700  0.07535300  0.50000000  1
  S  S19  1  0.92464700  0.87001700  0.00000000  1
  S  S20  1  0.62998300  0.57535300  0.50000000  1
  S  S21  1  0.42464700  0.62998300  0.00000000  1
  S  S22  1  0.12998300  0.92464700  0.50000000  1
  S  S23  1  0.07535300  0.12998300  0.00000000  1
  S  S24  1  0.36504300  0.12507400  0.50000000  1
  S  S25  1  0.87492600  0.36504300  0.00000000  1
  S  S26  1  0.86504300  0.37492600  0.50000000  1
  S  S27  1  0.62507400  0.86504300  0.00000000  1
  S  S28  1  0.63495700  0.87492600  0.50000000  1
  S  S29  1  0.12507400  0.63495700  0.00000000  1
  S  S30  1  0.13495700  0.62507400  0.50000000  1
  S  S31  1  0.37492600  0.13495700  0.00000000  1
loop_
_geom_bond_atom_site_label_1
_geom_bond_atom_site_label_2
_geom_bond_distance
_geom_bond_site_symmetry_2
Ba0 S24 3.231300 1_555
Ba0 S31 3.231300 1_556
Ba0 S27 3.231300 1_546
Ba0 S28 3.231300 1_545
Ba0 S5 3.374199 1_555
Ba0 S2 3.374199 1_555
Ba0 S14 3.374199 1_545
Ba0 S9 3.374199 1_545
Ba1 S29 3.231300 1_555
Ba1 S30 3.231300 1_555
Ba1 S25 3.231300 1_455
Ba1 S26 3.231300 1_455
Ba1 S4 3.374199 1_555
Ba1 S3 3.374199 1_455
Ba1 S15 3.374199 1_555
Ba1 S8 3.374199 1_455
Ba2 S29 3.231300 1_556
Ba2 S30 3.231300 1_555
Ba2 S25 3.231300 1_456
Ba2 S26 3.231300 1_455
Ba2 S11 3.374199 1_555
Ba2 S7 3.374199 1_455
Ba2 S0 3.374199 1_555
Ba2 S12 3.374199 1_455
Ba3 S24 3.231300 1_555
Ba3 S31 3.231300 1_555
Ba3 S27 3.231300 1_545
Ba3 S28 3.231300 1_545
Ba3 S1 3.374199 1_555
Ba3 S6 3.374199 1_555
Ba3 S10 3.374199 1_545
Ba3 S13 3.374199 1_545
P0 S24 2.012402 1_555
P0 S5 2.068999 1_555
P0 S1 2.068999 1_555
P0 S16 2.070964 1_555
P1 S25 2.012402 1_555
P1 S12 2.068999 1_554
P1 S8 2.068999 1_555
P1 S17 2.070964 1_555
P2 S26 2.012402 1_555
P2 S15 2.068999 1_655
P2 S11 2.068999 1_655
P2 S18 2.070964 1_555
P3 S27 2.012402 1_555
P3 S2 2.068999 1_564
P3 S6 2.068999 1_565
P3 S19 2.070964 1_555
P4 S28 2.012402 1_555
P4 S9 2.068999 1_555
P4 S13 2.068999 1_555
P4 S20 2.070964 1_555
P5 S29 2.012402 1_555
P5 S4 2.068999 1_555
P5 S0 2.068999 1_554
P5 S21 2.070964 1_555
P6 S30 2.012402 1_555
P6 S7 2.068999 1_455
P6 S3 2.068999 1_455
P6 S22 2.070964 1_555
P7 S31 2.012402 1_555
P7 S14 2.068999 1_544
P7 S10 2.068999 1_545
P7 S23 2.070964 1_555
S0 U0 2.758414 1_555
S1 U1 2.758414 1_555
S2 U2 2.758414 1_655
S3 U3 2.758414 1_665
S4 U1 2.758414 1_555
S5 U0 2.758414 1_555
S6 U3 2.758414 1_655
S7 U2 2.758414 1_665
S8 U1 2.758414 1_555
S9 U0 2.758414 1_555
S10 U3 2.758414 1_565
S11 U2 2.758414 1_555
S12 U0 2.758414 1_555
S13 U1 2.758414 1_555
S14 U2 2.758414 1_565
S15 U3 2.758414 1_555
S16 U1 2.992366 1_555
S16 U0 2.992366 1_555
S17 U1 2.992366 1_555
S17 U0 2.992366 1_554
S18 U3 2.992366 1_655
S18 U2 2.992366 1_655
S19 U2 2.992366 1_664
S19 U3 2.992366 1_665
S20 U1 2.992366 1_555
S20 U0 2.992366 1_555
S21 U1 2.992366 1_555
S21 U0 2.992366 1_554
S22 U3 2.992366 1_565
S22 U2 2.992366 1_565
S23 U2 2.992366 1_554
S23 U3 2.992366 1_555
