# generated using pymatgen
data_Ba2YCr3O7
_symmetry_space_group_name_H-M   'P 1'
_cell_length_a   5.63360735
_cell_length_b   5.63361442
_cell_length_c   11.63182300
_cell_angle_alpha   89.99993525
_cell_angle_beta   90.00009919
_cell_angle_gamma   88.60433567
_symmetry_Int_Tables_number   1
_chemical_formula_structural   Ba2YCr3O7
_chemical_formula_sum   'Ba4 Y2 Cr6 O14'
_cell_volume   369.05629647
_cell_formula_units_Z   2
loop_
 _symmetry_equiv_pos_site_id
 _symmetry_equiv_pos_as_xyz
  1  'x, y, z'
loop_
 _atom_site_type_symbol
 _atom_site_label
 _atom_site_symmetry_multiplicity
 _atom_site_fract_x
 _atom_site_fract_y
 _atom_site_fract_z
 _atom_site_occupancy
  Ba  Ba0  1  0.50001900  0.99999000  0.81868200  1
  Ba  Ba1  1  0.00001700  0.49998600  0.81868200  1
  Ba  Ba2  1  0.50002000  0.99998700  0.18131100  1
  Ba  Ba3  1  0.00002300  0.49998600  0.18131100  1
  Y  Y0  1  0.49998700  0.00000400  0.50003200  1
  Y  Y1  1  0.99998800  0.50000500  0.50003200  1
  Cr  Cr0  1  0.99996100  0.00004800  0.99988800  1
  Cr  Cr1  1  0.49999100  0.50000300  0.64709300  1
  Cr  Cr2  1  0.49999200  0.49999600  0.35291200  1
  Cr  Cr3  1  0.49996000  0.50005100  0.99988600  1
  Cr  Cr4  1  0.99999300  0.00000500  0.64709200  1
  Cr  Cr5  1  0.99999200  0.99999700  0.35294500  1
  O  O0  1  0.25003700  0.24997400  0.99996300  1
  O  O1  1  0.75003800  0.74997000  0.99996200  1
  O  O2  1  0.74999500  0.24999200  0.62223900  1
  O  O3  1  0.24998400  0.75000600  0.62223900  1
  O  O4  1  0.74998400  0.25000900  0.37785500  1
  O  O5  1  0.24999700  0.74999400  0.37785400  1
  O  O6  1  0.74999000  0.75001100  0.62343200  1
  O  O7  1  0.24998600  0.25000100  0.62343200  1
  O  O8  1  0.74998500  0.74999600  0.37663700  1
  O  O9  1  0.24999300  0.25000500  0.37663700  1
  O  O10  1  0.50001600  0.49999900  0.82314700  1
  O  O11  1  0.00001500  0.99999800  0.82314800  1
  O  O12  1  0.50002100  0.49999500  0.17679300  1
  O  O13  1  0.00001500  0.99999500  0.17680200  1
loop_
_geom_bond_atom_site_label_1
_geom_bond_atom_site_label_2
_geom_bond_distance
_geom_bond_site_symmetry_2
Ba0 O10 2.817236 1_555
Ba0 O11 2.817261 1_655
Ba0 O11 2.817304 1_555
Ba0 O10 2.817336 1_565
Ba0 O0 2.883812 1_565
Ba0 O1 2.883994 1_555
Ba0 O6 3.004625 1_555
Ba0 O7 3.004861 1_565
Ba0 O2 3.047072 1_565
Ba0 O3 3.047180 1_555
Ba1 O11 2.817219 1_545
Ba1 O10 2.817278 1_555
Ba1 O10 2.817286 1_455
Ba1 O11 2.817354 1_555
Ba1 O1 2.883796 1_455
Ba1 O0 2.883984 1_555
Ba1 O7 3.004635 1_555
Ba1 O6 3.004881 1_455
Ba1 O3 3.047096 1_555
Ba1 O2 3.047172 1_455
Ba2 O12 2.817252 1_555
Ba2 O13 2.817265 1_655
Ba2 O13 2.817319 1_555
Ba2 O12 2.817343 1_565
Ba2 O0 2.884387 1_564
Ba2 O1 2.884576 1_554
Ba2 O8 3.005302 1_555
Ba2 O9 3.005538 1_565
Ba2 O4 3.047974 1_565
Ba2 O5 3.048046 1_555
Ba3 O13 2.817246 1_545
Ba3 O12 2.817284 1_555
Ba3 O12 2.817304 1_455
Ba3 O13 2.817345 1_555
Ba3 O1 2.884393 1_454
Ba3 O0 2.884543 1_554
Ba3 O9 3.005289 1_555
Ba3 O8 3.005545 1_455
Ba3 O5 3.047954 1_555
Ba3 O4 3.048055 1_455
Cr0 O1 2.015897 1_545
Cr0 O0 2.015901 1_655
Cr0 O11 2.055808 1_645
Cr0 O13 2.057832 1_646
Cr1 O3 1.988542 1_555
Cr1 O2 1.988563 1_555
Cr1 O7 2.034621 1_555
Cr1 O6 2.034621 1_555
Cr1 O10 2.047829 1_555
Cr2 O4 1.988572 1_555
Cr2 O5 1.988626 1_555
Cr2 O9 2.034654 1_555
Cr2 O8 2.034666 1_555
Cr2 O12 2.048585 1_555
Cr3 O1 2.015881 1_555
Cr3 O0 2.015893 1_555
Cr3 O10 2.055797 1_555
Cr3 O12 2.057751 1_556
Cr4 O2 1.988443 1_555
Cr4 O3 1.988464 1_645
Cr4 O7 2.034548 1_655
Cr4 O6 2.034580 1_545
Cr4 O11 2.047852 1_645
Cr5 O5 1.988627 1_655
Cr5 O4 1.988677 1_565
Cr5 O8 2.034674 1_555
Cr5 O9 2.034678 1_665
Cr5 O13 2.048864 1_655
O2 Y0 2.466656 1_555
O2 Y1 2.466690 1_555
O3 Y1 2.466659 1_455
O3 Y0 2.466673 1_565
O4 Y1 2.466468 1_555
O4 Y0 2.466475 1_555
O5 Y1 2.466469 1_455
O5 Y0 2.466475 1_565
O6 Y0 2.435318 1_565
O6 Y1 2.435348 1_555
O7 Y0 2.435329 1_555
O7 Y1 2.435337 1_455
O8 Y1 2.435277 1_555
O8 Y0 2.435320 1_565
O9 Y0 2.435281 1_555
O9 Y1 2.435317 1_455
