# generated using pymatgen
data_YMoO3
_symmetry_space_group_name_H-M   'P 1'
_cell_length_a   5.40189403
_cell_length_b   5.81564474
_cell_length_c   7.82605709
_cell_angle_alpha   90.00000000
_cell_angle_beta   90.00000000
_cell_angle_gamma   90.00000000
_symmetry_Int_Tables_number   1
_chemical_formula_structural   YMoO3
_chemical_formula_sum   'Y4 Mo4 O12'
_cell_volume   245.85946991
_cell_formula_units_Z   4
loop_
 _symmetry_equiv_pos_site_id
 _symmetry_equiv_pos_as_xyz
  1  'x, y, z'
loop_
 _atom_site_type_symbol
 _atom_site_label
 _atom_site_symmetry_multiplicity
 _atom_site_fract_x
 _atom_site_fract_y
 _atom_site_fract_z
 _atom_site_occupancy
  Y  Y0  1  0.52171140  0.42878843  0.25000000  1
  Y  Y1  1  0.02171140  0.07121157  0.75000000  1
  Y  Y2  1  0.97828860  0.92878843  0.25000000  1
  Y  Y3  1  0.47828860  0.57121157  0.75000000  1
  Mo  Mo0  1  0.50000000  0.00000000  0.00000000  1
  Mo  Mo1  1  -0.00000000  0.50000000  0.00000000  1
  Mo  Mo2  1  -0.00000000  0.50000000  0.50000000  1
  Mo  Mo3  1  0.50000000  0.00000000  0.50000000  1
  O  O0  1  0.18103518  0.81041324  0.93351802  1
  O  O1  1  0.68103518  0.68958676  0.06648198  1
  O  O2  1  0.31896482  0.31041324  0.56648198  1
  O  O3  1  0.81896482  0.18958676  0.43351802  1
  O  O4  1  0.81896482  0.18958676  0.06648198  1
  O  O5  1  0.31896482  0.31041324  0.93351802  1
  O  O6  1  0.68103518  0.68958676  0.43351802  1
  O  O7  1  0.18103518  0.81041324  0.56648198  1
  O  O8  1  0.63542729  0.93787108  0.75000000  1
  O  O9  1  0.13542729  0.56212892  0.25000000  1
  O  O10  1  0.86457271  0.43787108  0.75000000  1
  O  O11  1  0.36457271  0.06212892  0.25000000  1
loop_
_geom_bond_atom_site_label_1
_geom_bond_atom_site_label_2
_geom_bond_distance
_geom_bond_site_symmetry_2
Mo0 O0 2.110720 1_544
Mo0 O4 2.110720 1_555
Mo0 O5 2.118017 1_554
Mo0 O1 2.118017 1_545
Mo0 O11 2.119832 1_555
Mo0 O8 2.119832 1_544
Mo1 O1 2.110720 1_455
Mo1 O5 2.110720 1_554
Mo1 O0 2.118017 1_554
Mo1 O4 2.118017 1_455
Mo1 O10 2.119832 1_454
Mo1 O9 2.119832 1_555
Mo2 O6 2.110720 1_455
Mo2 O2 2.110720 1_555
Mo2 O7 2.118017 1_555
Mo2 O3 2.118017 1_455
Mo2 O10 2.119832 1_455
Mo2 O9 2.119832 1_555
Mo3 O7 2.110720 1_545
Mo3 O3 2.110720 1_555
Mo3 O6 2.118017 1_545
Mo3 O2 2.118017 1_555
Mo3 O11 2.119832 1_555
Mo3 O8 2.119832 1_545
O0 Y1 2.259173 1_565
O0 Y3 2.564430 1_555
O0 Y2 2.794280 1_456
O1 Y0 2.259173 1_555
O1 Y2 2.564430 1_555
O1 Y3 2.794280 1_554
O2 Y3 2.259173 1_555
O2 Y1 2.564430 1_555
O2 Y0 2.794280 1_555
O3 Y2 2.259173 1_545
O3 Y0 2.564430 1_555
O3 Y1 2.794280 1_655
O4 Y2 2.259173 1_545
O4 Y0 2.564430 1_555
O4 Y1 2.794280 1_654
O5 Y3 2.259173 1_555
O5 Y1 2.564430 1_555
O5 Y0 2.794280 1_556
O6 Y0 2.259173 1_555
O6 Y2 2.564430 1_555
O6 Y3 2.794280 1_555
O7 Y1 2.259173 1_565
O7 Y3 2.564430 1_555
O7 Y2 2.794280 1_455
O8 Y1 2.226098 1_665
O8 Y3 2.295105 1_555
O9 Y0 2.226098 1_555
O9 Y2 2.295105 1_455
O10 Y3 2.226098 1_555
O10 Y1 2.295105 1_655
O11 Y2 2.226098 1_445
O11 Y0 2.295105 1_555
