# generated using pymatgen
data_SmInNi
_symmetry_space_group_name_H-M   'P 1'
_cell_length_a   7.49800772
_cell_length_b   7.49800772
_cell_length_c   3.84257441
_cell_angle_alpha   90.00000000
_cell_angle_beta   90.00000000
_cell_angle_gamma   119.99999785
_symmetry_Int_Tables_number   1
_chemical_formula_structural   SmInNi
_chemical_formula_sum   'Sm3 In3 Ni3'
_cell_volume   187.08746627
_cell_formula_units_Z   3
loop_
 _symmetry_equiv_pos_site_id
 _symmetry_equiv_pos_as_xyz
  1  'x, y, z'
loop_
 _atom_site_type_symbol
 _atom_site_label
 _atom_site_symmetry_multiplicity
 _atom_site_fract_x
 _atom_site_fract_y
 _atom_site_fract_z
 _atom_site_occupancy
  Sm  Sm0  1  0.00000000  0.41447186  0.50000000  1
  Sm  Sm1  1  0.58552814  0.58552814  0.50000000  1
  Sm  Sm2  1  0.41447186  0.00000000  0.50000000  1
  In  In0  1  -0.00000000  0.75035280  0.00000000  1
  In  In1  1  0.24964720  0.24964720  -0.00000000  1
  In  In2  1  0.75035280  -0.00000000  0.00000000  1
  Ni  Ni0  1  0.33333300  0.66666700  0.00000000  1
  Ni  Ni1  1  0.66666700  0.33333300  0.00000000  1
  Ni  Ni2  1  -0.00000000  0.00000000  0.50000000  1
loop_
_geom_bond_atom_site_label_1
_geom_bond_atom_site_label_2
_geom_bond_distance
_geom_bond_site_symmetry_2
In0 Ni2 2.682385 1_565
In0 Ni2 2.682385 1_564
In0 Ni0 2.865077 1_555
In0 Ni1 2.865082 1_455
In0 Sm0 3.167629 1_555
In0 Sm0 3.167629 1_554
In0 Sm1 3.322029 1_455
In0 Sm1 3.322029 1_454
In0 Sm2 3.322029 1_565
In0 Sm2 3.322029 1_564
In1 Ni2 2.682386 1_555
In1 Ni2 2.682386 1_554
In1 Ni0 2.865085 1_555
In1 Ni1 2.865085 1_555
In1 Sm1 3.167629 1_554
In1 Sm1 3.167629 1_555
In1 Sm2 3.322029 1_555
In1 Sm2 3.322029 1_554
In1 Sm0 3.322029 1_554
In1 Sm0 3.322029 1_555
In2 Ni2 2.682385 1_655
In2 Ni2 2.682385 1_654
In2 Ni1 2.865077 1_555
In2 Ni0 2.865082 1_545
In2 Sm2 3.167629 1_555
In2 Sm2 3.167629 1_554
In2 Sm1 3.322029 1_544
In2 Sm1 3.322029 1_545
In2 Sm0 3.322029 1_655
In2 Sm0 3.322029 1_654
Ni0 Sm2 2.964388 1_564
Ni0 Sm2 2.964388 1_565
Ni0 Sm0 2.964389 1_554
Ni0 Sm0 2.964389 1_555
Ni0 Sm1 2.964393 1_554
Ni0 Sm1 2.964393 1_555
Ni1 Sm0 2.964388 1_654
Ni1 Sm0 2.964388 1_655
Ni1 Sm2 2.964389 1_555
Ni1 Sm2 2.964389 1_554
Ni1 Sm1 2.964393 1_554
Ni1 Sm1 2.964393 1_555
Ni2 Sm0 3.107713 1_555
Ni2 Sm2 3.107713 1_555
Ni2 Sm1 3.107713 1_445
