# generated using pymatgen
data_TbCuTe2
_symmetry_space_group_name_H-M   'P 1'
_cell_length_a   8.69909648
_cell_length_b   8.69894291
_cell_length_c   13.93904600
_cell_angle_alpha   90.00002558
_cell_angle_beta   90.00044993
_cell_angle_gamma   119.99956417
_symmetry_Int_Tables_number   1
_chemical_formula_structural   TbCuTe2
_chemical_formula_sum   'Tb8 Cu8 Te16'
_cell_volume   913.49509205
_cell_formula_units_Z   8
loop_
 _symmetry_equiv_pos_site_id
 _symmetry_equiv_pos_as_xyz
  1  'x, y, z'
loop_
 _atom_site_type_symbol
 _atom_site_label
 _atom_site_symmetry_multiplicity
 _atom_site_fract_x
 _atom_site_fract_y
 _atom_site_fract_z
 _atom_site_occupancy
  Tb  Tb0  1  0.99102200  0.49551000  0.23980800  1
  Tb  Tb1  1  0.50449400  0.49550800  0.23981100  1
  Tb  Tb2  1  0.50449200  0.00898400  0.23981200  1
  Tb  Tb3  1  0.00897800  0.50449000  0.76019200  1
  Tb  Tb4  1  0.49550600  0.50449200  0.76018900  1
  Tb  Tb5  1  0.49550800  0.99101600  0.76018800  1
  Tb  Tb6  1  0.99999700  0.99999800  0.25468300  1
  Tb  Tb7  1  0.00000300  0.00000200  0.74531700  1
  Cu  Cu0  1  0.33338100  0.66668900  0.92754900  1
  Cu  Cu1  1  0.66661900  0.33331100  0.07245100  1
  Cu  Cu2  1  0.16497600  0.32996100  0.57282700  1
  Cu  Cu3  1  0.67000400  0.83500000  0.57281800  1
  Cu  Cu4  1  0.16501800  0.83503800  0.57281500  1
  Cu  Cu5  1  0.83502400  0.67003900  0.42717300  1
  Cu  Cu6  1  0.32999600  0.16500000  0.42718200  1
  Cu  Cu7  1  0.83498200  0.16496200  0.42718500  1
  Te  Te0  1  0.83709600  0.67417100  0.11943900  1
  Te  Te1  1  0.32581000  0.16290600  0.11944100  1
  Te  Te2  1  0.83709200  0.16291700  0.11943800  1
  Te  Te3  1  0.16290400  0.32582900  0.88056100  1
  Te  Te4  1  0.67419000  0.83709400  0.88055900  1
  Te  Te5  1  0.16290800  0.83708300  0.88056200  1
  Te  Te6  1  0.17275000  0.82724100  0.38076200  1
  Te  Te7  1  0.17275100  0.34550800  0.38076300  1
  Te  Te8  1  0.65448800  0.82724100  0.38076000  1
  Te  Te9  1  0.82725000  0.17275900  0.61923800  1
  Te  Te10  1  0.82724900  0.65449200  0.61923700  1
  Te  Te11  1  0.34551200  0.17275900  0.61924000  1
  Te  Te12  1  0.33334100  0.66667000  0.12021700  1
  Te  Te13  1  0.66665900  0.33333000  0.87978300  1
  Te  Te14  1  0.66666600  0.33332900  0.38294500  1
  Te  Te15  1  0.33333400  0.66667100  0.61705500  1
loop_
_geom_bond_atom_site_label_1
_geom_bond_atom_site_label_2
_geom_bond_distance
_geom_bond_site_symmetry_2
Tb0 Te0 3.017364 1_555
Tb0 Te2 3.017403 1_555
Tb0 Te12 3.070788 1_655
Tb0 Te14 3.154683 1_555
Tb0 Te6 3.181955 1_655
Tb0 Te7 3.181970 1_655
Tb1 Te1 3.017467 1_555
Tb1 Te0 3.017531 1_555
Tb1 Te12 3.070733 1_555
Tb1 Te14 3.154577 1_555
Tb1 Te8 3.181926 1_555
Tb1 Te7 3.182068 1_555
Tb2 Te1 3.017492 1_555
Tb2 Te2 3.017536 1_555
Tb2 Te12 3.070728 1_545
Tb2 Te14 3.154528 1_555
Tb2 Te8 3.181958 1_545
Tb2 Te6 3.182045 1_545
Tb3 Te3 3.017364 1_555
Tb3 Te5 3.017403 1_555
Tb3 Te13 3.070788 1_455
Tb3 Te15 3.154683 1_555
Tb3 Te9 3.181955 1_455
Tb3 Te10 3.181970 1_455
Tb4 Te4 3.017467 1_555
Tb4 Te3 3.017531 1_555
Tb4 Te13 3.070733 1_555
Tb4 Te15 3.154577 1_555
Tb4 Te11 3.181926 1_555
Tb4 Te10 3.182068 1_555
Tb5 Te4 3.017492 1_555
Tb5 Te5 3.017536 1_555
Tb5 Te13 3.070728 1_565
Tb5 Te15 3.154528 1_555
Tb5 Te11 3.181958 1_565
Tb5 Te9 3.182045 1_565
Tb6 Te1 3.094957 1_665
Tb6 Te2 3.094998 1_565
Tb6 Te0 3.095002 1_555
Tb6 Te6 3.140649 1_655
Tb6 Te7 3.140651 1_665
Tb6 Te8 3.140680 1_555
Tb7 Te4 3.094957 1_445
Tb7 Te5 3.094998 1_545
Tb7 Te3 3.095002 1_555
Tb7 Te9 3.140649 1_455
Tb7 Te10 3.140651 1_445
Tb7 Te11 3.140680 1_555
Cu0 Te4 2.649779 1_555
Cu0 Te3 2.650091 1_555
Cu0 Te5 2.650145 1_555
Cu0 Te12 2.685608 1_556
Cu0 Tb4 3.378149 1_555
Cu0 Tb5 3.378183 1_555
Cu0 Tb3 3.378566 1_555
Cu1 Te1 2.649779 1_555
Cu1 Te0 2.650091 1_555
Cu1 Te2 2.650145 1_555
Cu1 Te13 2.685608 1_554
Cu1 Tb1 3.378149 1_555
Cu1 Tb2 3.378183 1_555
Cu1 Tb0 3.378566 1_555
Cu2 Te15 2.610456 1_555
Cu2 Te9 2.627238 1_455
Cu2 Te11 2.627290 1_555
Cu2 Te7 2.679750 1_555
Cu2 Tb7 3.458314 1_555
Cu3 Te15 2.610245 1_555
Cu3 Te10 2.627404 1_555
Cu3 Te9 2.627447 1_565
Cu3 Te8 2.679655 1_555
Cu3 Tb7 3.458625 1_665
Cu4 Te15 2.610304 1_555
Cu4 Te11 2.627190 1_565
Cu4 Te10 2.627590 1_455
Cu4 Te6 2.679591 1_555
Cu4 Tb7 3.458542 1_565
Cu5 Te14 2.610456 1_555
Cu5 Te6 2.627238 1_655
Cu5 Te8 2.627290 1_555
Cu5 Te10 2.679750 1_555
Cu5 Tb6 3.458314 1_555
Cu6 Te14 2.610245 1_555
Cu6 Te7 2.627404 1_555
Cu6 Te6 2.627447 1_545
Cu6 Te11 2.679655 1_555
Cu6 Tb6 3.458625 1_445
Cu7 Te14 2.610304 1_555
Cu7 Te8 2.627190 1_545
Cu7 Te7 2.627590 1_655
Cu7 Te9 2.679591 1_555
Cu7 Tb6 3.458542 1_545
