# generated using pymatgen
data_Zn3Co
_symmetry_space_group_name_H-M   'P 1'
_cell_length_a   5.23236779
_cell_length_b   5.23236779
_cell_length_c   4.20004689
_cell_angle_alpha   90.00000000
_cell_angle_beta   90.00000000
_cell_angle_gamma   120.00000797
_symmetry_Int_Tables_number   1
_chemical_formula_structural   Zn3Co
_chemical_formula_sum   'Zn6 Co2'
_cell_volume   99.58209595
_cell_formula_units_Z   2
loop_
 _symmetry_equiv_pos_site_id
 _symmetry_equiv_pos_as_xyz
  1  'x, y, z'
loop_
 _atom_site_type_symbol
 _atom_site_label
 _atom_site_symmetry_multiplicity
 _atom_site_fract_x
 _atom_site_fract_y
 _atom_site_fract_z
 _atom_site_occupancy
  Zn  Zn0  1  0.17093924  0.34187848  0.25000000  1
  Zn  Zn1  1  0.65812152  0.82906076  0.25000000  1
  Zn  Zn2  1  0.17093924  0.82906076  0.25000000  1
  Zn  Zn3  1  0.82906076  0.65812152  0.75000000  1
  Zn  Zn4  1  0.34187848  0.17093924  0.75000000  1
  Zn  Zn5  1  0.82906076  0.17093924  0.75000000  1
  Co  Co0  1  0.33333300  0.66666700  0.75000000  1
  Co  Co1  1  0.66666700  0.33333300  0.25000000  1
loop_
_geom_bond_atom_site_label_1
_geom_bond_atom_site_label_2
_geom_bond_distance
_geom_bond_site_symmetry_2
Zn0 Zn1 2.549117 1_555
Zn0 Zn2 2.549117 1_555
Zn0 Zn5 2.609606 1_455
Zn0 Zn5 2.609606 1_454
Zn0 Zn4 2.609606 1_555
Zn0 Zn4 2.609606 1_554
Zn0 Zn1 2.683251 1_445
Zn0 Zn2 2.683251 1_545
Zn1 Zn2 2.549117 1_555
Zn1 Zn5 2.609606 1_565
Zn1 Zn5 2.609606 1_564
Zn1 Zn3 2.609606 1_555
Zn1 Zn3 2.609606 1_554
Zn1 Zn2 2.683251 1_655
Zn2 Zn3 2.609606 1_455
Zn2 Zn3 2.609606 1_454
Zn2 Zn4 2.609606 1_565
Zn2 Zn4 2.609606 1_564
Zn3 Zn4 2.549117 1_555
Zn3 Zn5 2.549117 1_555
Zn3 Zn4 2.683251 1_665
Zn3 Zn5 2.683251 1_565
Zn4 Zn5 2.549117 1_555
Zn4 Zn5 2.683251 1_455
Co0 Zn2 2.564389 1_555
Co0 Zn2 2.564389 1_556
Co0 Zn0 2.564391 1_555
Co0 Zn1 2.564391 1_555
Co0 Zn1 2.564391 1_556
Co0 Zn0 2.564391 1_556
Co0 Zn3 2.616468 1_455
Co0 Zn4 2.616468 1_565
Co0 Zn5 2.616470 1_565
Co0 Zn5 2.616470 1_455
Co0 Zn3 2.616473 1_555
Co0 Zn4 2.616473 1_555
Co1 Zn5 2.564389 1_555
Co1 Zn5 2.564389 1_554
Co1 Zn3 2.564391 1_555
Co1 Zn4 2.564391 1_555
Co1 Zn3 2.564391 1_554
Co1 Zn4 2.564391 1_554
Co1 Zn0 2.616468 1_655
Co1 Zn1 2.616468 1_545
Co1 Zn2 2.616470 1_545
Co1 Zn2 2.616470 1_655
Co1 Zn0 2.616473 1_555
Co1 Zn1 2.616473 1_555
