# generated using pymatgen
data_Ba3Sr5Co3Cu5O24
_symmetry_space_group_name_H-M   'P 1'
_cell_length_a   7.85341700
_cell_length_b   7.89010258
_cell_length_c   7.89891900
_cell_angle_alpha   89.91097246
_cell_angle_beta   89.85737912
_cell_angle_gamma   89.97807684
_symmetry_Int_Tables_number   1
_chemical_formula_structural   Ba3Sr5Co3Cu5O24
_chemical_formula_sum   'Ba3 Sr5 Co3 Cu5 O24'
_cell_volume   489.44857316
_cell_formula_units_Z   1
loop_
 _symmetry_equiv_pos_site_id
 _symmetry_equiv_pos_as_xyz
  1  'x, y, z'
loop_
 _atom_site_type_symbol
 _atom_site_label
 _atom_site_symmetry_multiplicity
 _atom_site_fract_x
 _atom_site_fract_y
 _atom_site_fract_z
 _atom_site_occupancy
  Ba  Ba0  1  0.24847700  0.24885800  0.75123400  1
  Ba  Ba1  1  0.75190100  0.24896700  0.75142700  1
  Ba  Ba2  1  0.75182300  0.75076600  0.75162600  1
  Sr  Sr0  1  0.24686300  0.24843800  0.24809200  1
  Sr  Sr1  1  0.75269300  0.24845400  0.24828400  1
  Sr  Sr2  1  0.24703300  0.75168100  0.24827000  1
  Sr  Sr3  1  0.75328700  0.75161900  0.24838200  1
  Sr  Sr4  1  0.24760500  0.75131900  0.75203600  1
  Co  Co0  1  0.49881100  0.99992900  0.49572800  1
  Co  Co1  1  0.49893800  0.50223600  0.00164200  1
  Co  Co2  1  0.49886500  0.50125500  0.49636100  1
  Cu  Cu0  1  0.00037700  0.99963700  0.00096900  1
  Cu  Cu1  1  0.49937900  0.00009100  0.00015400  1
  Cu  Cu2  1  0.00002300  0.99940200  0.49877600  1
  Cu  Cu3  1  0.00012700  0.50037500  0.00154300  1
  Cu  Cu4  1  0.00035700  0.50048700  0.49886500  1
  O  O0  1  0.00099400  0.25004400  0.01356700  1
  O  O1  1  0.49879900  0.25875600  0.00912900  1
  O  O2  1  0.00060700  0.25078300  0.48606600  1
  O  O3  1  0.49881100  0.24796700  0.48936100  1
  O  O4  1  0.00592800  0.74991100  0.00852700  1
  O  O5  1  0.49563100  0.74222500  0.00721500  1
  O  O6  1  0.00617500  0.74897700  0.49133300  1
  O  O7  1  0.49662300  0.75228300  0.49336000  1
  O  O8  1  0.00103200  0.99866000  0.25065300  1
  O  O9  1  0.49752100  0.99840700  0.25040700  1
  O  O10  1  0.00654300  0.99333600  0.74910000  1
  O  O11  1  0.49559900  0.99429400  0.74696700  1
  O  O12  1  0.00114400  0.50119400  0.25177800  1
  O  O13  1  0.49848500  0.50151800  0.24676700  1
  O  O14  1  0.00672000  0.50671200  0.74901100  1
  O  O15  1  0.49572600  0.50442300  0.75416900  1
  O  O16  1  0.25125500  0.99373600  0.00824400  1
  O  O17  1  0.74845500  0.99906400  0.01380100  1
  O  O18  1  0.25709300  0.99575400  0.49207400  1
  O  O19  1  0.74178000  0.99860900  0.49074200  1
  O  O20  1  0.25072400  0.50437300  0.00715500  1
  O  O21  1  0.74873500  0.50030600  0.01254200  1
  O  O22  1  0.26270000  0.50461500  0.49453700  1
  O  O23  1  0.73635900  0.50053900  0.49010900  1
loop_
_geom_bond_atom_site_label_1
_geom_bond_atom_site_label_2
_geom_bond_distance
_geom_bond_site_symmetry_2
Ba0 O10 2.770948 1_545
Ba0 O14 2.782324 1_555
Ba0 O11 2.792628 1_545
Ba0 O15 2.800054 1_555
Ba0 O1 2.835681 1_556
Ba0 O0 2.837500 1_556
Ba0 O3 2.850202 1_555
Ba0 O16 2.856781 1_546
Ba0 O20 2.857281 1_556
Ba0 O22 2.860455 1_555
Ba0 O18 2.862711 1_545
Ba0 O2 2.863016 1_555
Ba1 O10 2.839812 1_645
Ba1 O1 2.842664 1_556
Ba1 O11 2.845019 1_545
Ba1 O15 2.847343 1_555
Ba1 O0 2.852126 1_656
Ba1 O14 2.853706 1_655
Ba1 O19 2.856907 1_545
Ba1 O17 2.858456 1_546
Ba1 O2 2.861503 1_655
Ba1 O21 2.863512 1_556
Ba1 O23 2.864229 1_555
Ba1 O3 2.873379 1_555
Ba2 O10 2.769065 1_655
Ba2 O14 2.777161 1_655
Ba2 O11 2.782021 1_555
Ba2 O15 2.797500 1_555
Ba2 O19 2.839874 1_555
Ba2 O5 2.847444 1_556
Ba2 O4 2.849624 1_656
Ba2 O17 2.853012 1_556
Ba2 O21 2.853146 1_556
Ba2 O23 2.862500 1_555
Ba2 O6 2.863081 1_655
Ba2 O7 2.863369 1_555
Co0 O18 1.898903 1_555
Co0 O19 1.908470 1_555
Co0 O9 1.937878 1_555
Co0 O7 1.954153 1_555
Co0 O3 1.957613 1_565
Co0 O11 1.985043 1_555
Co1 O5 1.894284 1_555
Co1 O1 1.921901 1_555
Co1 O13 1.936216 1_555
Co1 O20 1.949773 1_555
Co1 O15 1.955044 1_554
Co1 O21 1.963915 1_555
Co2 O22 1.854973 1_555
Co2 O23 1.865677 1_555
Co2 O13 1.971530 1_555
Co2 O7 1.980814 1_555
Co2 O3 1.999319 1_555
Co2 O15 2.036684 1_555
Cu0 O4 1.971644 1_555
Cu0 O16 1.971760 1_555
Cu0 O8 1.972256 1_555
Cu0 O0 1.978404 1_565
Cu0 O17 1.980798 1_455
Cu0 O10 1.990659 1_554
Cu1 O16 1.950171 1_545
Cu1 O17 1.959347 1_545
Cu1 O9 1.976770 1_545
Cu1 O11 2.000792 1_544
Cu1 O5 2.035489 1_545
Cu1 O1 2.042237 1_555
Cu2 O8 1.959918 1_555
Cu2 O6 1.977413 1_555
Cu2 O10 1.978583 1_555
Cu2 O2 1.985812 1_565
Cu2 O18 2.019635 1_555
Cu2 O19 2.029253 1_455
Cu3 O20 1.968918 1_555
Cu3 O4 1.970270 1_555
Cu3 O21 1.975981 1_455
Cu3 O12 1.976643 1_555
Cu3 O0 1.977282 1_555
Cu3 O14 1.995822 1_554
Cu4 O12 1.951714 1_555
Cu4 O6 1.961968 1_555
Cu4 O2 1.972939 1_555
Cu4 O14 1.977326 1_555
Cu4 O22 2.060757 1_555
Cu4 O23 2.074612 1_455
O0 Sr0 2.679185 1_555
O0 Sr1 2.687379 1_455
O1 Sr0 2.732255 1_555
O1 Sr1 2.751201 1_555
O2 Sr0 2.693679 1_555
O2 Sr1 2.708706 1_455
O3 Sr0 2.750593 1_555
O3 Sr1 2.753663 1_555
O4 Sr2 2.681347 1_555
O4 Sr3 2.740009 1_455
O4 Sr4 2.772720 1_554
O5 Sr2 2.724800 1_555
O5 Sr3 2.783626 1_555
O5 Sr4 2.807323 1_554
O6 Sr2 2.691918 1_555
O6 Sr3 2.765202 1_455
O6 Sr4 2.802772 1_555
O7 Sr2 2.758435 1_555
O7 Sr3 2.790717 1_555
O7 Sr4 2.824815 1_555
O8 Sr2 2.743578 1_555
O8 Sr3 2.754694 1_455
O8 Sr0 2.759388 1_565
O8 Sr1 2.772297 1_465
O9 Sr2 2.768198 1_555
O9 Sr0 2.786455 1_565
O9 Sr3 2.797024 1_555
O9 Sr1 2.812696 1_565
O10 Sr4 2.688540 1_555
O11 Sr4 2.733541 1_555
O12 Sr2 2.763749 1_555
O12 Sr3 2.773252 1_455
O12 Sr0 2.774670 1_555
O12 Sr1 2.790686 1_455
O13 Sr2 2.791543 1_555
O13 Sr0 2.809844 1_555
O13 Sr3 2.810989 1_555
O13 Sr1 2.823043 1_555
O14 Sr4 2.703207 1_555
O15 Sr4 2.754871 1_555
O16 Sr2 2.689178 1_555
O16 Sr0 2.764148 1_565
O16 Sr4 2.786972 1_554
O17 Sr3 2.689907 1_555
O17 Sr1 2.704661 1_565
O18 Sr2 2.726877 1_555
O18 Sr0 2.772019 1_565
O18 Sr4 2.815792 1_555
O19 Sr3 2.735206 1_555
O19 Sr1 2.747505 1_565
O20 Sr2 2.728899 1_555
O20 Sr0 2.772810 1_555
O20 Sr4 2.801048 1_554
O21 Sr1 2.721372 1_555
O21 Sr3 2.723105 1_555
O22 Sr2 2.754705 1_555
O22 Sr0 2.811413 1_555
O22 Sr4 2.819739 1_555
O23 Sr3 2.752298 1_555
O23 Sr1 2.762530 1_555
