# generated using pymatgen
data_Na4AsP(H15O11)2
_symmetry_space_group_name_H-M   'P 1'
_cell_length_a   11.03902200
_cell_length_b   9.38133800
_cell_length_c   13.39873438
_cell_angle_alpha   51.63875854
_cell_angle_beta   90.00000000
_cell_angle_gamma   90.00000000
_symmetry_Int_Tables_number   1
_chemical_formula_structural   Na4AsP(H15O11)2
_chemical_formula_sum   'Na8 As2 P2 H60 O44'
_cell_volume   1088.02298456
_cell_formula_units_Z   2
loop_
 _symmetry_equiv_pos_site_id
 _symmetry_equiv_pos_as_xyz
  1  'x, y, z'
loop_
 _atom_site_type_symbol
 _atom_site_label
 _atom_site_symmetry_multiplicity
 _atom_site_fract_x
 _atom_site_fract_y
 _atom_site_fract_z
 _atom_site_occupancy
  Na  Na0  1  0.85357800  0.83303800  0.52300300  1
  Na  Na1  1  0.14642200  0.83303800  0.02300300  1
  Na  Na2  1  0.64614500  0.16703300  0.47704100  1
  Na  Na3  1  0.35385500  0.16703300  0.97704100  1
  Na  Na4  1  0.14573500  0.84386200  0.52298200  1
  Na  Na5  1  0.85426500  0.84386200  0.02298200  1
  Na  Na6  1  0.35531800  0.15536700  0.47720100  1
  Na  Na7  1  0.64468200  0.15536700  0.97720100  1
  As  As0  1  0.01331800  0.28925300  0.10584200  1
  As  As1  1  0.98668200  0.28925300  0.60584200  1
  P  P0  1  0.48606300  0.70985800  0.89460400  1
  P  P1  1  0.51393700  0.70985800  0.39460400  1
  H  H0  1  0.99774100  0.67668300  0.91656300  1
  H  H1  1  0.00225900  0.67668300  0.41656300  1
  H  H2  1  0.50112300  0.32364500  0.08228400  1
  H  H3  1  0.49887700  0.32364500  0.58228400  1
  H  H4  1  0.99425200  0.10799400  0.49879200  1
  H  H5  1  0.00574800  0.10799400  0.99879200  1
  H  H6  1  0.50628000  0.88318400  0.50456400  1
  H  H7  1  0.49372000  0.88318400  0.00456400  1
  H  H8  1  0.35803700  0.99650700  0.35336400  1
  H  H9  1  0.64196300  0.99650700  0.85336400  1
  H  H10  1  0.14225200  0.99532700  0.64911900  1
  H  H11  1  0.85774800  0.99532700  0.14911900  1
  H  H12  1  0.65721600  0.56064900  0.60430900  1
  H  H13  1  0.34278400  0.56064900  0.10430900  1
  H  H14  1  0.84181000  0.44649900  0.39092400  1
  H  H15  1  0.15819000  0.44649900  0.89092400  1
  H  H16  1  0.19475600  0.40818700  0.12977700  1
  H  H17  1  0.80524400  0.40818700  0.62977700  1
  H  H18  1  0.31731000  0.59321300  0.87329700  1
  H  H19  1  0.68269000  0.59321300  0.37329700  1
  H  H20  1  0.74039400  0.51127400  0.72104000  1
  H  H21  1  0.25960600  0.51127400  0.22104000  1
  H  H22  1  0.75669100  0.49026200  0.27815400  1
  H  H23  1  0.24330900  0.49026200  0.77815400  1
  H  H24  1  0.84044000  0.96826200  0.66838400  1
  H  H25  1  0.15956000  0.96826200  0.16838400  1
  H  H26  1  0.66020800  0.02644800  0.33239600  1
  H  H27  1  0.33979200  0.02644800  0.83239600  1
  H  H28  1  0.97417000  0.17728500  0.35532600  1
  H  H29  1  0.02583000  0.17728500  0.85532600  1
  H  H30  1  0.52214200  0.82491200  0.64541400  1
  H  H31  1  0.47785800  0.82491200  0.14541400  1
  H  H32  1  0.00038900  0.89155700  0.81622700  1
  H  H33  1  0.99961100  0.89155700  0.31622700  1
  H  H34  1  0.49983400  0.10722000  0.18462000  1
  H  H35  1  0.50016600  0.10722000  0.68462000  1
  H  H36  1  0.98350100  0.52227900  0.18776500  1
  H  H37  1  0.01649900  0.52227900  0.68776500  1
  H  H38  1  0.51358300  0.47949300  0.81199700  1
  H  H39  1  0.48641700  0.47949300  0.31199700  1
  H  H40  1  0.24416500  0.12857400  0.28317600  1
  H  H41  1  0.75583500  0.12857400  0.78317600  1
  H  H42  1  0.25969700  0.87120900  0.71799300  1
  H  H43  1  0.74030300  0.87120900  0.21799300  1
  H  H44  1  0.71919800  0.84842400  0.71937800  1
  H  H45  1  0.28080200  0.84842400  0.21937800  1
  H  H46  1  0.77858300  0.15290500  0.28213300  1
  H  H47  1  0.22141700  0.15290500  0.78213300  1
  H  H48  1  0.33298800  0.56167900  0.58574000  1
  H  H49  1  0.66701200  0.56167900  0.08574000  1
  H  H50  1  0.16883300  0.44682000  0.40711800  1
  H  H51  1  0.83116700  0.44682000  0.90711800  1
  H  H52  1  0.19722200  0.48031400  0.62621700  1
  H  H53  1  0.80277800  0.48031400  0.12621700  1
  H  H54  1  0.30646000  0.52127800  0.37611700  1
  H  H55  1  0.69354000  0.52127800  0.87611700  1
  H  H56  1  0.00728900  0.57654400  0.27485000  1
  H  H57  1  0.99271100  0.57654400  0.77485000  1
  H  H58  1  0.49262100  0.42715100  0.72300000  1
  H  H59  1  0.50737900  0.42715100  0.22300000  1
  O  O0  1  0.92371500  0.32384300  0.19363300  1
  O  O1  1  0.07628500  0.32384300  0.69363300  1
  O  O2  1  0.56651600  0.67635200  0.81652900  1
  O  O3  1  0.43348400  0.67635200  0.31652900  1
  O  O4  1  0.25441100  0.56909700  0.61778000  1
  O  O5  1  0.74558900  0.56909700  0.11778000  1
  O  O6  1  0.24987000  0.43495600  0.38095800  1
  O  O7  1  0.75013000  0.43495600  0.88095800  1
  O  O8  1  0.74147300  0.55558600  0.63113300  1
  O  O9  1  0.25852700  0.55558600  0.13113300  1
  O  O10  1  0.75715800  0.44530300  0.36805800  1
  O  O11  1  0.24284200  0.44530300  0.86805800  1
  O  O12  1  0.99853600  0.78851300  0.90884300  1
  O  O13  1  0.00146400  0.78851300  0.40884300  1
  O  O14  1  0.50229700  0.21022900  0.09226800  1
  O  O15  1  0.49770300  0.21022900  0.59226800  1
  O  O16  1  0.00054100  0.07616100  0.14829400  1
  O  O17  1  0.99945900  0.07616100  0.64829400  1
  O  O18  1  0.50018200  0.90225800  0.85586100  1
  O  O19  1  0.49981800  0.90225800  0.35586100  1
  O  O20  1  0.00044700  0.62808700  0.18475300  1
  O  O21  1  0.99955300  0.62808700  0.68475300  1
  O  O22  1  0.50086800  0.37464000  0.81312500  1
  O  O23  1  0.49913200  0.37464000  0.31312500  1
  O  O24  1  0.28613900  0.04681000  0.36596200  1
  O  O25  1  0.71386100  0.04681000  0.86596200  1
  O  O26  1  0.21731200  0.95130900  0.63553800  1
  O  O27  1  0.78268800  0.95130900  0.13553800  1
  O  O28  1  0.99372100  0.45635100  0.94546700  1
  O  O29  1  0.00627900  0.45635100  0.44546700  1
  O  O30  1  0.50059500  0.55891800  0.04009200  1
  O  O31  1  0.49940500  0.55891800  0.54009200  1
  O  O32  1  0.99548100  0.07173800  0.44379300  1
  O  O33  1  0.00451900  0.07173800  0.94379300  1
  O  O34  1  0.50638900  0.92723000  0.55479800  1
  O  O35  1  0.49361100  0.92723000  0.05479800  1
  O  O36  1  0.16724200  0.29330700  0.14226100  1
  O  O37  1  0.83275800  0.29330700  0.64226100  1
  O  O38  1  0.34627500  0.70710500  0.85902800  1
  O  O39  1  0.65372500  0.70710500  0.35902800  1
  O  O40  1  0.77139000  0.92842700  0.64466700  1
  O  O41  1  0.22861000  0.92842700  0.14466700  1
  O  O42  1  0.72649400  0.06959400  0.35644700  1
  O  O43  1  0.27350600  0.06959400  0.85644700  1
loop_
_geom_bond_atom_site_label_1
_geom_bond_atom_site_label_2
_geom_bond_distance
_geom_bond_site_symmetry_2
Na0 O32 2.375888 1_565
Na0 O8 2.392633 1_555
Na0 O42 2.392907 1_565
Na0 O21 2.412103 1_555
Na0 O13 2.443831 1_655
Na0 O40 2.468199 1_555
Na1 O33 2.375888 1_564
Na1 O9 2.392633 1_555
Na1 O43 2.392907 1_564
Na1 O20 2.412103 1_555
Na1 O12 2.443831 1_454
Na1 O41 2.468199 1_555
Na2 O34 2.370103 1_545
Na2 O10 2.391113 1_555
Na2 O40 2.392964 1_545
Na2 O23 2.437456 1_555
Na2 O15 2.451446 1_555
Na2 O42 2.463023 1_555
Na3 O35 2.370103 1_546
Na3 O11 2.391113 1_555
Na3 O41 2.392964 1_546
Na3 O22 2.437456 1_555
Na3 O14 2.451446 1_556
Na3 O43 2.463023 1_555
Na4 O24 2.341272 1_565
Na4 O32 2.373101 1_465
Na4 O4 2.373397 1_555
Na4 O26 2.408662 1_555
Na4 O21 2.440032 1_455
Na4 O13 2.475985 1_555
Na5 O25 2.341272 1_564
Na5 O33 2.373101 1_664
Na5 O5 2.373397 1_555
Na5 O27 2.408662 1_555
Na5 O20 2.440032 1_655
Na5 O12 2.475985 1_554
Na6 O26 2.333537 1_545
Na6 O34 2.383424 1_545
Na6 O6 2.387324 1_555
Na6 O24 2.392885 1_555
Na6 O23 2.443706 1_555
Na6 O15 2.469281 1_555
Na7 O27 2.333537 1_546
Na7 O35 2.383424 1_546
Na7 O7 2.387324 1_555
Na7 O25 2.392885 1_555
Na7 O22 2.443706 1_555
Na7 O14 2.469281 1_556
As0 O16 1.711254 1_555
As0 O28 1.714793 1_454
As0 O0 1.714969 1_455
As0 O36 1.774761 1_555
As1 O17 1.711254 1_555
As1 O29 1.714793 1_655
As1 O1 1.714969 1_655
As1 O37 1.774761 1_555
H0 O12 0.988292 1_555
H1 O13 0.988292 1_555
H2 O14 0.986649 1_555
H3 O15 0.986649 1_555
H4 O32 0.984902 1_555
H5 O33 0.984902 1_555
H6 O34 0.984369 1_555
H7 O35 0.984369 1_555
H8 O24 0.989948 1_565
H9 O25 0.989948 1_565
H10 O26 0.991700 1_555
H11 O27 0.991700 1_555
H12 O8 0.987600 1_555
H13 O9 0.987600 1_555
H14 O10 0.985648 1_555
H15 O11 0.985648 1_555
H16 O36 1.028576 1_555
H16 O9 1.561801 1_555
H17 O37 1.028576 1_555
H17 O8 1.561801 1_555
H18 O38 1.013332 1_555
H19 O39 1.013332 1_555
H20 O8 1.001264 1_555
H21 O9 1.001264 1_555
H22 O10 0.999173 1_555
H23 O11 0.999173 1_555
H24 O40 0.984408 1_555
H25 O41 0.984408 1_555
H26 O42 0.982354 1_555
H27 O43 0.982354 1_555
H28 O32 0.991966 1_555
H29 O33 0.991966 1_555
H30 O34 0.989533 1_555
H31 O35 0.989533 1_555
H32 O12 0.992898 1_455
H33 O13 0.992898 1_655
H34 O14 0.990714 1_555
H35 O15 0.990714 1_555
H36 O20 0.986000 1_655
H37 O21 0.986000 1_455
H38 O22 0.984412 1_555
H39 O23 0.984412 1_555
H40 O24 0.988617 1_555
H41 O25 0.988617 1_555
H42 O26 0.986760 1_555
H43 O27 0.986760 1_555
H44 O40 0.982224 1_555
H45 O41 0.982224 1_555
H46 O42 0.983352 1_555
H47 O43 0.983352 1_555
H48 O4 0.989255 1_555
H49 O5 0.989255 1_555
H50 O6 0.991929 1_555
H51 O7 0.991929 1_555
H52 O4 0.994078 1_555
H53 O5 0.994078 1_555
H54 O6 0.992501 1_555
H55 O7 0.992501 1_555
H56 O20 0.986040 1_555
H57 O21 0.986040 1_555
H58 O22 0.985288 1_555
H59 O23 0.985288 1_555
O2 P0 1.545979 1_555
O3 P1 1.545979 1_555
O18 P0 1.545534 1_555
O19 P1 1.545534 1_555
O30 P0 1.550683 1_554
O31 P1 1.550683 1_555
O38 P0 1.619998 1_555
O39 P1 1.619998 1_555
