# generated using pymatgen
data_HoMg2Cu9
_symmetry_space_group_name_H-M   'P 1'
_cell_length_a   4.94355731
_cell_length_b   4.94355729
_cell_length_c   16.05267299
_cell_angle_alpha   90.00000852
_cell_angle_beta   89.99999614
_cell_angle_gamma   119.99276558
_symmetry_Int_Tables_number   1
_chemical_formula_structural   HoMg2Cu9
_chemical_formula_sum   'Ho2 Mg4 Cu18'
_cell_volume   339.77294167
_cell_formula_units_Z   2
loop_
 _symmetry_equiv_pos_site_id
 _symmetry_equiv_pos_as_xyz
  1  'x, y, z'
loop_
 _atom_site_type_symbol
 _atom_site_label
 _atom_site_symmetry_multiplicity
 _atom_site_fract_x
 _atom_site_fract_y
 _atom_site_fract_z
 _atom_site_occupancy
  Ho  Ho0  1  0.66666802  0.33333232  0.25010454  1
  Ho  Ho1  1  0.33333218  0.66666775  0.74989690  1
  Mg  Mg0  1  0.66666728  0.33333266  0.46774208  1
  Mg  Mg1  1  0.33333279  0.66666727  0.96765254  1
  Mg  Mg2  1  0.66666730  0.33333286  0.03227304  1
  Mg  Mg3  1  0.33333273  0.66666736  0.53233346  1
  Cu  Cu0  1  0.33333158  0.66667054  0.25018892  1
  Cu  Cu1  1  0.66667026  0.33333056  0.74980870  1
  Cu  Cu2  1  0.16781701  0.83218150  0.37656961  1
  Cu  Cu3  1  0.16782648  0.33564045  0.37656839  1
  Cu  Cu4  1  -0.00000430  1.00000310  0.74981292  1
  Cu  Cu5  1  1.00000280  0.99999642  0.25018468  1
  Cu  Cu6  1  0.99999934  0.99999934  0.99993057  1
  Cu  Cu7  1  0.99999911  0.99999963  0.50007214  1
  Cu  Cu8  1  0.16783547  0.33565449  0.12358285  1
  Cu  Cu9  1  0.83216514  0.16783678  0.62350773  1
  Cu  Cu10  1  0.33567565  0.16784480  0.62350918  1
  Cu  Cu11  1  0.66434585  0.83216546  0.12358248  1
  Cu  Cu12  1  0.16782524  0.83217540  0.12358158  1
  Cu  Cu13  1  0.83214480  0.66430318  0.87633967  1
  Cu  Cu14  1  0.83215355  0.16784575  0.87634086  1
  Cu  Cu15  1  0.83215586  0.66432525  0.62350902  1
  Cu  Cu16  1  0.33569631  0.16785472  0.87633998  1
  Cu  Cu17  1  0.66435956  0.83217339  0.37656816  1
loop_
_geom_bond_atom_site_label_1
_geom_bond_atom_site_label_2
_geom_bond_distance
_geom_bond_site_symmetry_2
Cu0 Cu2 2.474698 1_555
Cu0 Cu17 2.474774 1_555
Cu0 Cu3 2.474782 1_555
Cu0 Cu12 2.477647 1_555
Cu0 Cu8 2.477731 1_555
Cu0 Cu11 2.477731 1_555
Cu0 Cu5 2.854009 1_455
Cu0 Ho0 2.854095 1_555
Cu0 Ho0 2.854352 1_565
Cu0 Ho0 2.854359 1_455
Cu0 Cu5 2.854392 1_555
Cu0 Cu5 2.854404 1_445
Cu1 Cu9 2.473559 1_555
Cu1 Cu10 2.473643 1_555
Cu1 Cu15 2.473646 1_555
Cu1 Cu14 2.476552 1_555
Cu1 Cu13 2.476635 1_555
Cu1 Cu16 2.476643 1_555
Cu1 Cu4 2.854001 1_645
Cu1 Ho1 2.854097 1_555
Cu1 Ho1 2.854352 1_655
Cu1 Ho1 2.854356 1_545
Cu1 Cu4 2.854397 1_655
Cu1 Cu4 2.854406 1_545
Cu2 Cu7 2.448496 1_455
Cu2 Cu3 2.454703 1_555
Cu2 Cu5 2.486093 1_455
Cu2 Cu3 2.488855 1_565
Cu2 Mg0 2.872824 1_455
Cu2 Mg0 2.872830 1_565
Cu2 Mg3 2.874108 1_555
Cu2 Ho0 3.198815 1_455
Cu2 Ho0 3.198822 1_565
Cu3 Cu7 2.448617 1_445
Cu3 Cu5 2.486204 1_445
Cu3 Mg0 2.872581 1_555
Cu3 Mg0 2.872628 1_455
Cu3 Mg3 2.874195 1_555
Cu3 Ho0 3.198579 1_555
Cu3 Ho0 3.198615 1_455
Cu4 Cu9 2.485135 1_465
Cu4 Ho1 2.854083 1_555
Cu4 Ho1 2.854359 1_455
Cu4 Ho1 2.854364 1_565
Cu5 Cu8 2.489097 1_665
Cu5 Ho0 2.854078 1_565
Cu5 Ho0 2.854361 1_555
Cu5 Ho0 2.854366 1_665
Cu6 Cu8 2.450583 1_666
Cu6 Mg1 2.900708 1_655
Cu6 Mg2 2.900893 1_566
Cu6 Mg1 2.901020 1_555
Cu6 Mg1 2.901026 1_665
Cu6 Mg2 2.901204 1_556
Cu6 Mg2 2.901211 1_666
Cu7 Cu9 2.447715 1_565
Cu7 Mg3 2.900662 1_655
Cu7 Mg0 2.900855 1_565
Cu7 Mg3 2.900971 1_555
Cu7 Mg3 2.900977 1_665
Cu7 Mg0 2.901171 1_555
Cu7 Mg0 2.901176 1_665
Cu8 Mg2 2.873686 1_555
Cu8 Mg2 2.873751 1_455
Cu8 Mg1 2.876474 1_554
Cu8 Ho0 3.199162 1_555
Cu8 Ho0 3.199212 1_455
Cu9 Mg3 2.872839 1_655
Cu9 Mg3 2.872846 1_545
Cu9 Mg0 2.874057 1_555
Cu9 Ho1 3.198042 1_655
Cu9 Ho1 3.198050 1_545
Cu10 Cu7 2.447839 1_445
Cu10 Cu9 2.454444 1_555
Cu10 Cu15 2.454647 1_555
Cu10 Cu4 2.485246 1_545
Cu10 Cu9 2.489113 1_455
Cu10 Cu15 2.489451 1_445
Cu10 Mg3 2.872596 1_555
Cu10 Mg3 2.872648 1_545
Cu10 Mg0 2.874149 1_555
Cu10 Ho1 3.197801 1_555
Cu10 Ho1 3.197844 1_545
Cu11 Cu6 2.450574 1_554
Cu11 Cu12 2.454603 1_555
Cu11 Cu8 2.454797 1_555
Cu11 Cu12 2.488955 1_655
Cu11 Cu5 2.489099 1_555
Cu11 Cu8 2.489300 1_665
Cu11 Mg2 2.873686 1_555
Cu11 Mg2 2.873745 1_565
Cu11 Mg1 2.876469 1_554
Cu11 Ho0 3.199168 1_555
Cu11 Ho0 3.199213 1_565
Cu12 Cu6 2.450462 1_454
Cu12 Cu8 2.454605 1_555
Cu12 Cu8 2.488952 1_565
Cu12 Cu5 2.488987 1_455
Cu12 Mg2 2.873940 1_565
Cu12 Mg2 2.873942 1_455
Cu12 Mg1 2.876385 1_554
Cu12 Ho0 3.199408 1_565
Cu12 Ho0 3.199409 1_455
Cu13 Cu6 2.449888 1_555
Cu13 Cu14 2.454287 1_555
Cu13 Cu16 2.454490 1_555
Cu13 Cu4 2.488217 1_655
Cu13 Cu14 2.489270 1_565
Cu13 Cu16 2.489608 1_665
Cu13 Mg1 2.873718 1_555
Cu13 Mg1 2.873771 1_655
Cu13 Mg2 2.876427 1_556
Cu13 Ho1 3.198363 1_555
Cu13 Ho1 3.198403 1_655
Cu14 Cu6 2.449771 1_545
Cu14 Cu16 2.454287 1_555
Cu14 Cu4 2.488104 1_645
Cu14 Cu16 2.489270 1_655
Cu14 Mg1 2.873966 1_545
Cu14 Mg1 2.873969 1_655
Cu14 Mg2 2.876340 1_556
Cu14 Ho1 3.198603 1_545
Cu14 Ho1 3.198605 1_655
Cu15 Cu7 2.447832 1_555
Cu15 Cu9 2.454442 1_555
Cu15 Cu4 2.485243 1_655
Cu15 Cu9 2.489115 1_565
Cu15 Mg3 2.872595 1_555
Cu15 Mg3 2.872646 1_655
Cu15 Mg0 2.874149 1_555
Cu15 Ho1 3.197803 1_555
Cu15 Ho1 3.197844 1_655
Cu16 Cu6 2.449886 1_445
Cu16 Cu4 2.488222 1_545
Cu16 Mg1 2.873717 1_555
Cu16 Mg1 2.873767 1_545
Cu16 Mg2 2.876424 1_556
Cu16 Ho1 3.198367 1_555
Cu16 Ho1 3.198406 1_545
Cu17 Cu7 2.448616 1_555
Cu17 Cu2 2.454707 1_555
Cu17 Cu3 2.454908 1_555
Cu17 Cu5 2.486199 1_555
Cu17 Cu2 2.488851 1_655
Cu17 Cu3 2.489190 1_665
Cu17 Mg0 2.872583 1_555
Cu17 Mg0 2.872631 1_565
Cu17 Mg3 2.874198 1_555
Cu17 Ho0 3.198576 1_555
Cu17 Ho0 3.198614 1_565
