# generated using pymatgen
data_YbV4O8
_symmetry_space_group_name_H-M   'P 1'
_cell_length_a   5.88486945
_cell_length_b   9.18727327
_cell_length_c   10.73398500
_cell_angle_alpha   90.00000000
_cell_angle_beta   90.00000000
_cell_angle_gamma   90.48270924
_symmetry_Int_Tables_number   1
_chemical_formula_structural   YbV4O8
_chemical_formula_sum   'Yb4 V16 O32'
_cell_volume   580.32200496
_cell_formula_units_Z   4
loop_
 _symmetry_equiv_pos_site_id
 _symmetry_equiv_pos_as_xyz
  1  'x, y, z'
loop_
 _atom_site_type_symbol
 _atom_site_label
 _atom_site_symmetry_multiplicity
 _atom_site_fract_x
 _atom_site_fract_y
 _atom_site_fract_z
 _atom_site_occupancy
  Yb  Yb0  1  0.63114100  0.25674800  0.84619300  1
  Yb  Yb1  1  0.86885900  0.24325200  0.34619300  1
  Yb  Yb2  1  0.36885800  0.74325100  0.15380700  1
  Yb  Yb3  1  0.13114200  0.75674900  0.65380700  1
  V  V0  1  0.12591900  0.92106200  0.39238300  1
  V  V1  1  0.37408200  0.57893800  0.89238300  1
  V  V2  1  0.87408000  0.07893900  0.60761700  1
  V  V3  1  0.62591900  0.42106100  0.10761700  1
  V  V4  1  0.13508700  0.95173100  0.88904700  1
  V  V5  1  0.36491400  0.54826900  0.38904700  1
  V  V6  1  0.86491300  0.04826900  0.11095300  1
  V  V7  1  0.63508700  0.45173100  0.61095300  1
  V  V8  1  0.61886700  0.90869000  0.40238700  1
  V  V9  1  0.88113400  0.59131000  0.90238700  1
  V  V10  1  0.12474000  0.42576000  0.61955500  1
  V  V11  1  0.11886700  0.40869000  0.09761200  1
  V  V12  1  0.62474000  0.92575900  0.88044500  1
  V  V13  1  0.87525900  0.57424100  0.38044500  1
  V  V14  1  0.37525900  0.07424100  0.11955600  1
  V  V15  1  0.38113400  0.09131000  0.59761200  1
  O  O0  1  0.12269100  0.92233600  0.07239300  1
  O  O1  1  0.37730900  0.57766400  0.57239200  1
  O  O2  1  0.87730800  0.07766400  0.92760800  1
  O  O3  1  0.62269100  0.42233600  0.42760800  1
  O  O4  1  0.14897200  0.01384800  0.71095400  1
  O  O5  1  0.35102800  0.48615200  0.21095500  1
  O  O6  1  0.85102900  0.98615200  0.28904500  1
  O  O7  1  0.64897100  0.51384700  0.78904600  1
  O  O8  1  0.11689900  0.61345300  0.02076100  1
  O  O9  1  0.38310000  0.88654700  0.52076200  1
  O  O10  1  0.88310000  0.38654700  0.97923800  1
  O  O11  1  0.61689900  0.11345300  0.47923800  1
  O  O12  1  0.13806500  0.70733500  0.34948100  1
  O  O13  1  0.36193600  0.79266500  0.84948000  1
  O  O14  1  0.86193600  0.29266500  0.65052000  1
  O  O15  1  0.63806500  0.20733500  0.15051900  1
  O  O16  1  0.62629900  0.92020200  0.07094200  1
  O  O17  1  0.87370000  0.57979700  0.57094200  1
  O  O18  1  0.37370000  0.07979700  0.92905800  1
  O  O19  1  0.12629900  0.42020200  0.42905700  1
  O  O20  1  0.10014400  0.20292600  0.15372600  1
  O  O21  1  0.39985700  0.29707400  0.65372500  1
  O  O22  1  0.89985700  0.79707500  0.84627500  1
  O  O23  1  0.60014300  0.70292500  0.34627500  1
  O  O24  1  0.12425900  0.11817300  0.48009400  1
  O  O25  1  0.37574000  0.38182700  0.98009500  1
  O  O26  1  0.62082000  0.03751200  0.72286900  1
  O  O27  1  0.62425900  0.61817400  0.01990500  1
  O  O28  1  0.12082000  0.53751200  0.77713100  1
  O  O29  1  0.37918100  0.96248800  0.27713000  1
  O  O30  1  0.87918100  0.46248800  0.22287000  1
  O  O31  1  0.87574000  0.88182600  0.51990500  1
loop_
_geom_bond_atom_site_label_1
_geom_bond_atom_site_label_2
_geom_bond_distance
_geom_bond_site_symmetry_2
O0 V6 1.959784 1_465
O0 V4 1.987732 1_554
O0 V14 2.092412 1_565
O0 Yb2 2.368437 1_555
O1 V7 1.959786 1_555
O1 V5 1.987721 1_555
O1 V10 2.092411 1_555
O1 Yb3 2.368441 1_555
O2 V4 1.959790 1_645
O2 V6 1.987721 1_556
O2 V12 2.092412 1_545
O2 Yb0 2.368435 1_555
O3 V5 1.959781 1_555
O3 V7 1.987721 1_555
O3 V13 2.092412 1_555
O3 Yb1 2.368438 1_555
O4 V15 1.958787 1_555
O4 V4 1.996489 1_545
O4 V2 2.054567 1_455
O4 Yb3 2.441790 1_545
O5 V11 1.958790 1_555
O5 V5 1.996479 1_555
O5 V3 2.054568 1_555
O5 Yb2 2.441793 1_555
O6 V8 1.958787 1_555
O6 V6 1.996479 1_565
O6 V0 2.054560 1_655
O6 Yb1 2.441802 1_565
O7 V9 1.958788 1_555
O7 V7 1.996487 1_555
O7 V1 2.054553 1_555
O7 Yb0 2.441790 1_555
O8 V9 1.891064 1_454
O8 V11 2.054253 1_555
O8 V1 2.073208 1_554
O8 Yb2 2.372822 1_555
O9 V8 1.891080 1_555
O9 V15 2.054248 1_565
O9 V0 2.073206 1_555
O9 Yb3 2.372812 1_555
O10 V11 1.891073 1_656
O10 V9 2.054253 1_555
O10 V3 2.073205 1_556
O10 Yb0 2.372820 1_555
O11 V15 1.891064 1_555
O11 V8 2.054253 1_545
O11 V2 2.073205 1_555
O11 Yb1 2.372824 1_555
O12 V13 1.991401 1_455
O12 V0 2.018698 1_555
O12 V5 2.032497 1_555
O12 Yb2 2.521412 1_555
O13 V12 1.991394 1_555
O13 V1 2.018701 1_555
O13 V4 2.032500 1_555
O13 Yb3 2.521406 1_555
O14 V10 1.991400 1_655
O14 V2 2.018691 1_555
O14 V7 2.032500 1_555
O14 Yb0 2.521411 1_555
O15 V14 1.991399 1_555
O15 V3 2.018690 1_555
O15 V6 2.032493 1_555
O15 Yb1 2.521417 1_555
O16 V6 1.874241 1_565
O16 V12 2.045452 1_554
O16 V14 2.119632 1_565
O16 Yb2 2.384910 1_555
O17 V7 1.874231 1_555
O17 V13 2.045451 1_555
O17 V10 2.119617 1_655
O17 Yb3 2.384920 1_655
O18 V4 1.874231 1_545
O18 V14 2.045462 1_556
O18 V12 2.119623 1_545
O18 Yb0 2.384910 1_555
O19 V5 1.874243 1_555
O19 V10 2.045463 1_555
O19 V13 2.119626 1_455
O19 Yb1 2.384896 1_455
O20 V11 1.986222 1_555
O20 V6 2.028014 1_455
O20 V14 2.045908 1_555
O20 Yb1 2.503278 1_455
O21 V15 1.986219 1_555
O21 V7 2.028007 1_555
O21 V10 2.045923 1_555
O21 Yb0 2.503284 1_555
O22 V9 1.986224 1_555
O22 V4 2.028001 1_655
O22 V12 2.045912 1_555
O22 Yb3 2.503287 1_655
O23 V8 1.986225 1_555
O23 V5 2.027997 1_555
O23 V13 2.045908 1_555
O23 Yb2 2.503287 1_555
O24 V15 1.985845 1_555
O24 V2 2.040162 1_455
O24 V0 2.041127 1_545
O24 Yb1 2.382103 1_455
O25 V11 1.985829 1_556
O25 V3 2.040155 1_556
O25 V1 2.041132 1_555
O25 Yb0 2.382113 1_555
O26 V2 1.971559 1_555
O26 V12 1.978876 1_545
O26 V15 2.013282 1_555
O26 Yb0 2.410578 1_555
O27 V9 1.985846 1_554
O27 V1 2.040150 1_554
O27 V3 2.041148 1_555
O27 Yb2 2.382104 1_555
O28 V1 1.971567 1_555
O28 V10 1.978872 1_555
O28 V9 2.013275 1_455
O28 Yb3 2.410586 1_555
O29 V0 1.971573 1_555
O29 V14 1.978858 1_565
O29 V8 2.013282 1_555
O29 Yb2 2.410580 1_555
O30 V3 1.971575 1_555
O30 V13 1.978867 1_555
O30 V11 2.013289 1_655
O30 Yb1 2.410573 1_555
O31 V8 1.985837 1_555
O31 V0 2.040158 1_655
O31 V2 2.041148 1_565
O31 Yb3 2.382108 1_655
