# generated using pymatgen
data_DyGa3
_symmetry_space_group_name_H-M   'P 1'
_cell_length_a   9.81342977
_cell_length_b   9.81342977
_cell_length_c   9.81342883
_cell_angle_alpha   36.71051749
_cell_angle_beta   36.71051749
_cell_angle_gamma   36.71051849
_symmetry_Int_Tables_number   1
_chemical_formula_structural   DyGa3
_chemical_formula_sum   'Dy4 Ga12'
_cell_volume   302.42975452
_cell_formula_units_Z   4
loop_
 _symmetry_equiv_pos_site_id
 _symmetry_equiv_pos_as_xyz
  1  'x, y, z'
loop_
 _atom_site_type_symbol
 _atom_site_label
 _atom_site_symmetry_multiplicity
 _atom_site_fract_x
 _atom_site_fract_y
 _atom_site_fract_z
 _atom_site_occupancy
  Dy  Dy0  1  0.86854066  0.86854066  0.86854066  1
  Dy  Dy1  1  0.13145934  0.13145934  0.13145934  1
  Dy  Dy2  1  0.71233942  0.71233942  0.71233942  1
  Dy  Dy3  1  0.28766058  0.28766058  0.28766058  1
  Ga  Ga0  1  0.40195540  0.82589272  0.40195540  1
  Ga  Ga1  1  0.40195540  0.40195540  0.82589272  1
  Ga  Ga2  1  0.82589272  0.40195540  0.40195540  1
  Ga  Ga3  1  0.59804460  0.17410728  0.59804460  1
  Ga  Ga4  1  0.59804460  0.59804460  0.17410728  1
  Ga  Ga5  1  0.17410728  0.59804460  0.59804460  1
  Ga  Ga6  1  0.20338954  0.71827211  0.20338954  1
  Ga  Ga7  1  0.20338954  0.20338954  0.71827211  1
  Ga  Ga8  1  0.71827211  0.20338954  0.20338954  1
  Ga  Ga9  1  0.79661046  0.28172789  0.79661046  1
  Ga  Ga10  1  0.79661046  0.79661046  0.28172789  1
  Ga  Ga11  1  0.28172789  0.79661046  0.79661046  1
loop_
_geom_bond_atom_site_label_1
_geom_bond_atom_site_label_2
_geom_bond_distance
_geom_bond_site_symmetry_2
Dy0 Ga3 2.976149 1_565
Dy0 Ga5 2.976149 1_655
Dy0 Ga4 2.976149 1_556
Dy0 Ga10 3.009749 1_556
Dy0 Ga9 3.009750 1_565
Dy0 Ga11 3.009750 1_655
Dy0 Ga2 3.110090 1_556
Dy0 Ga0 3.110090 1_556
Dy0 Ga2 3.110090 1_565
Dy0 Ga0 3.110090 1_655
Dy0 Ga1 3.110090 1_565
Dy0 Ga1 3.110090 1_655
Dy1 Ga0 2.976149 1_545
Dy1 Ga2 2.976149 1_455
Dy1 Ga1 2.976149 1_554
Dy1 Ga7 3.009749 1_554
Dy1 Ga8 3.009750 1_455
Dy1 Ga6 3.009750 1_545
Dy1 Ga3 3.110090 1_554
Dy1 Ga5 3.110090 1_554
Dy1 Ga5 3.110090 1_545
Dy1 Ga3 3.110090 1_455
Dy1 Ga4 3.110090 1_545
Dy1 Ga4 3.110090 1_455
Dy2 Ga4 2.961327 1_556
Dy2 Ga5 2.961327 1_655
Dy2 Ga3 2.961327 1_565
Dy2 Ga10 3.019158 1_555
Dy2 Ga9 3.019158 1_555
Dy2 Ga11 3.019158 1_555
Dy2 Ga8 3.092719 1_565
Dy2 Ga6 3.092719 1_655
Dy2 Ga8 3.092719 1_556
Dy2 Ga6 3.092719 1_556
Dy2 Ga7 3.092719 1_655
Dy2 Ga7 3.092719 1_565
Dy3 Ga1 2.961327 1_554
Dy3 Ga0 2.961327 1_545
Dy3 Ga2 2.961327 1_455
Dy3 Ga7 3.019158 1_555
Dy3 Ga8 3.019158 1_555
Dy3 Ga6 3.019158 1_555
Dy3 Ga9 3.092719 1_455
Dy3 Ga11 3.092719 1_545
Dy3 Ga11 3.092719 1_554
Dy3 Ga9 3.092719 1_554
Dy3 Ga10 3.092719 1_545
Dy3 Ga10 3.092719 1_455
Ga0 Ga1 2.620210 1_555
Ga0 Ga2 2.620210 1_555
Ga0 Ga11 2.811938 1_555
Ga0 Ga10 2.811938 1_555
Ga0 Ga4 2.814385 1_555
Ga0 Ga5 2.814385 1_555
Ga1 Ga2 2.620210 1_555
Ga1 Ga9 2.811938 1_555
Ga1 Ga11 2.811938 1_555
Ga1 Ga5 2.814385 1_555
Ga1 Ga3 2.814385 1_555
Ga2 Ga9 2.811938 1_555
Ga2 Ga4 2.814385 1_555
Ga2 Ga3 2.814385 1_555
Ga3 Ga4 2.620210 1_555
Ga3 Ga5 2.620210 1_555
Ga3 Ga8 2.811938 1_555
Ga3 Ga7 2.811938 1_555
Ga4 Ga5 2.620210 1_555
Ga4 Ga6 2.811938 1_555
Ga4 Ga8 2.811938 1_555
Ga5 Ga6 2.811938 1_555
Ga5 Ga7 2.811938 1_555
Ga6 Ga7 2.998343 1_564
Ga6 Ga8 2.998343 1_465
Ga7 Ga9 2.867767 1_455
Ga7 Ga8 2.998343 1_456
Ga8 Ga9 2.867766 1_554
Ga10 Ga2 2.811938 1_555
Ga10 Ga6 2.867767 1_655
Ga10 Ga8 2.867767 1_565
Ga10 Ga11 2.998343 1_654
Ga10 Ga9 2.998343 1_564
Ga11 Ga6 2.867766 1_556
Ga11 Ga7 2.867767 1_565
Ga11 Ga9 2.998343 1_465
