# generated using pymatgen
data_K2PH4S3O2
_symmetry_space_group_name_H-M   'P 1'
_cell_length_a   11.43624400
_cell_length_b   8.09371500
_cell_length_c   11.72663038
_cell_angle_alpha   50.65023113
_cell_angle_beta   90.00000000
_cell_angle_gamma   90.00000000
_symmetry_Int_Tables_number   1
_chemical_formula_structural   K2PH4S3O2
_chemical_formula_sum   'K8 P4 H16 S12 O8'
_cell_volume   839.35717465
_cell_formula_units_Z   4
loop_
 _symmetry_equiv_pos_site_id
 _symmetry_equiv_pos_as_xyz
  1  'x, y, z'
loop_
 _atom_site_type_symbol
 _atom_site_label
 _atom_site_symmetry_multiplicity
 _atom_site_fract_x
 _atom_site_fract_y
 _atom_site_fract_z
 _atom_site_occupancy
  K  K0  1  0.27412900  0.98775300  0.40701000  1
  K  K1  1  0.22587100  0.98775300  0.90701000  1
  K  K2  1  0.72587100  0.01224700  0.59299000  1
  K  K3  1  0.77412900  0.01224700  0.09299000  1
  K  K4  1  0.34236600  0.48025600  0.96798100  1
  K  K5  1  0.15763400  0.48025600  0.46798100  1
  K  K6  1  0.65763400  0.51974400  0.03201900  1
  K  K7  1  0.84236600  0.51974400  0.53201900  1
  P  P0  1  0.03320200  0.35421700  0.11460300  1
  P  P1  1  0.46679800  0.35421700  0.61460300  1
  P  P2  1  0.96679800  0.64578300  0.88539700  1
  P  P3  1  0.53320200  0.64578300  0.38539700  1
  H  H0  1  0.51283800  0.15019800  0.28918400  1
  H  H1  1  0.98716200  0.15019800  0.78918400  1
  H  H2  1  0.48716200  0.84980200  0.71081600  1
  H  H3  1  0.01283800  0.84980200  0.21081600  1
  H  H4  1  0.53057800  0.65818400  0.71986600  1
  H  H5  1  0.96942200  0.65818400  0.21986600  1
  H  H6  1  0.46942200  0.34181600  0.28013400  1
  H  H7  1  0.03057800  0.34181600  0.78013400  1
  H  H8  1  0.05011500  0.76424600  0.57565400  1
  H  H9  1  0.44988500  0.76424600  0.07565400  1
  H  H10  1  0.94988500  0.23575400  0.42434600  1
  H  H11  1  0.55011500  0.23575400  0.92434600  1
  H  H12  1  0.00114400  0.89360400  0.41401800  1
  H  H13  1  0.49885600  0.89360400  0.91401800  1
  H  H14  1  0.99885600  0.10639600  0.58598200  1
  H  H15  1  0.50114400  0.10639600  0.08598200  1
  S  S0  1  0.85710100  0.52771000  0.81645200  1
  S  S1  1  0.64289900  0.52771000  0.31645200  1
  S  S2  1  0.14289900  0.47229000  0.18354800  1
  S  S3  1  0.35710100  0.47229000  0.68354800  1
  S  S4  1  0.11880600  0.16056500  0.08704200  1
  S  S5  1  0.38119400  0.16056500  0.58704200  1
  S  S6  1  0.88119400  0.83943500  0.91295800  1
  S  S7  1  0.61880600  0.83943500  0.41295800  1
  S  S8  1  0.88877700  0.20633300  0.24563200  1
  S  S9  1  0.61122300  0.20633300  0.74563200  1
  S  S10  1  0.11122300  0.79366700  0.75436800  1
  S  S11  1  0.38877700  0.79366700  0.25436800  1
  O  O0  1  0.45753000  0.27250100  0.23646800  1
  O  O1  1  0.04247000  0.27250100  0.73646800  1
  O  O2  1  0.54247000  0.72749900  0.76353200  1
  O  O3  1  0.95753000  0.72749900  0.26353200  1
  O  O4  1  0.05166700  0.77115900  0.48849700  1
  O  O5  1  0.44833300  0.77115900  0.98849700  1
  O  O6  1  0.94833300  0.22884100  0.51150300  1
  O  O7  1  0.55166700  0.22884100  0.01150300  1
loop_
_geom_bond_atom_site_label_1
_geom_bond_atom_site_label_2
_geom_bond_distance
_geom_bond_site_symmetry_2
K0 O0 2.804534 1_565
K0 O4 2.886973 1_555
K0 S11 3.310055 1_555
K0 S2 3.386297 1_565
K0 S5 3.414254 1_565
K0 S3 3.415507 1_555
K0 S4 3.540492 1_565
K1 O1 2.804534 1_565
K1 O5 2.886973 1_555
K1 S10 3.310055 1_555
K1 S3 3.386297 1_565
K1 S4 3.414254 1_566
K1 S2 3.415507 1_556
K1 S5 3.540492 1_565
K2 O2 2.804534 1_545
K2 O6 2.886973 1_555
K2 S9 3.310055 1_555
K2 S0 3.386297 1_545
K2 S7 3.414254 1_545
K2 S1 3.415507 1_555
K2 S6 3.540492 1_545
K3 O3 2.804534 1_545
K3 O7 2.886973 1_555
K3 S8 3.310055 1_555
K3 S1 3.386297 1_545
K3 S6 3.414254 1_544
K3 S0 3.415507 1_554
K3 S7 3.540492 1_545
K4 O0 2.785905 1_556
K4 O5 2.790774 1_555
K4 S4 3.255749 1_556
K4 S2 3.375098 1_556
K4 S3 3.380891 1_555
K4 S10 3.411632 1_555
K5 O1 2.785905 1_555
K5 O4 2.790774 1_555
K5 S5 3.255749 1_555
K5 S3 3.375098 1_555
K5 S2 3.380891 1_555
K5 S11 3.411632 1_555
K6 O2 2.785905 1_554
K6 O7 2.790774 1_555
K6 S6 3.255749 1_554
K6 S0 3.375098 1_554
K6 S1 3.380891 1_555
K6 S8 3.411632 1_555
K7 O3 2.785905 1_555
K7 O6 2.790774 1_555
K7 S7 3.255749 1_555
K7 S1 3.375098 1_555
K7 S0 3.380891 1_555
K7 S9 3.411632 1_555
P0 S2 2.029910 1_555
P0 S4 2.040070 1_555
P0 S8 2.046805 1_455
P1 S3 2.029910 1_555
P1 S5 2.040070 1_555
P1 S9 2.046805 1_555
P2 S0 2.029910 1_555
P2 S6 2.040070 1_555
P2 S10 2.046805 1_655
P3 S1 2.029910 1_555
P3 S7 2.040070 1_555
P3 S11 2.046805 1_555
H0 O0 0.993029 1_555
H0 K0 2.964221 1_545
H1 O1 0.993029 1_655
H1 K1 2.964221 1_645
H2 O2 0.993029 1_555
H2 K2 2.964221 1_565
H3 O3 0.993029 1_455
H3 K3 2.964221 1_465
H4 O2 0.979656 1_555
H5 O3 0.979656 1_555
H6 O0 0.979656 1_555
H7 O1 0.979656 1_555
H8 O4 0.987689 1_555
H8 K0 3.034803 1_555
H9 O5 0.987689 1_554
H9 K1 3.034803 1_554
H10 O6 0.987689 1_555
H10 K2 3.034803 1_555
H11 O7 0.987689 1_556
H11 K3 3.034803 1_556
H12 O4 0.990547 1_555
H13 O5 0.990547 1_555
H14 O6 0.990547 1_555
H15 O7 0.990547 1_555
