# generated using pymatgen
data_Ca2AlBiO5
_symmetry_space_group_name_H-M   'P 1'
_cell_length_a   5.65762800
_cell_length_b   6.04238151
_cell_length_c   8.75327762
_cell_angle_alpha   110.16126367
_cell_angle_beta   107.41824674
_cell_angle_gamma   90.04053691
_symmetry_Int_Tables_number   1
_chemical_formula_structural   Ca2AlBiO5
_chemical_formula_sum   'Ca4 Al2 Bi2 O10'
_cell_volume   266.21092270
_cell_formula_units_Z   2
loop_
 _symmetry_equiv_pos_site_id
 _symmetry_equiv_pos_as_xyz
  1  'x, y, z'
loop_
 _atom_site_type_symbol
 _atom_site_label
 _atom_site_symmetry_multiplicity
 _atom_site_fract_x
 _atom_site_fract_y
 _atom_site_fract_z
 _atom_site_occupancy
  Ca  Ca0  1  0.83575200  0.38784000  0.76054900  1
  Ca  Ca1  1  0.58671700  0.17802300  0.28936800  1
  Ca  Ca2  1  0.08069600  0.61735300  0.28915500  1
  Ca  Ca3  1  0.36317100  0.86674000  0.76172700  1
  Al  Al0  1  0.71998700  0.82533000  0.51420700  1
  Al  Al1  1  0.21917500  0.19201000  0.51533800  1
  Bi  Bi0  1  0.47730600  0.48854300  0.99217800  1
  Bi  Bi1  1  0.99174000  0.99734800  0.99113700  1
  O  O0  1  0.41144100  0.93830900  0.49604300  1
  O  O1  1  0.90756700  0.05905500  0.49029000  1
  O  O2  1  0.36489600  0.44911000  0.70188800  1
  O  O3  1  0.70623000  0.56690300  0.33480700  1
  O  O4  1  0.84304100  0.74637200  0.70006400  1
  O  O5  1  0.20613400  0.27372600  0.33589400  1
  O  O6  1  0.88694100  0.64248900  0.03398100  1
  O  O7  1  0.65962100  0.17628200  0.88540500  1
  O  O8  1  0.14949900  0.18905000  0.85854000  1
  O  O9  1  0.39645200  0.89173800  0.03528700  1
loop_
_geom_bond_atom_site_label_1
_geom_bond_atom_site_label_2
_geom_bond_distance
_geom_bond_site_symmetry_2
Ca0 O8 2.265185 1_655
Ca0 O6 2.285978 1_556
Ca0 O7 2.331252 1_555
Ca0 O4 2.403920 1_555
Ca0 O2 2.609740 1_555
Ca0 O1 2.654260 1_555
Ca1 O9 2.238194 1_545
Ca1 O3 2.308521 1_555
Ca1 O5 2.345406 1_555
Ca1 O1 2.422189 1_555
Ca2 O6 2.232024 1_455
Ca2 O3 2.308882 1_455
Ca2 O5 2.322923 1_555
Ca2 O0 2.467228 1_555
Ca2 O1 2.996557 1_465
Ca3 O7 2.235179 1_565
Ca3 O9 2.296264 1_556
Ca3 O8 2.334813 1_565
Ca3 O2 2.394653 1_555
Ca3 O0 2.596797 1_555
Ca3 O4 2.873196 1_455
Ca3 O4 2.966587 1_555
Al0 O3 1.773894 1_555
Al0 O4 1.793430 1_555
Al0 O0 1.857122 1_555
Al0 O1 1.870631 1_565
Al1 O5 1.783731 1_555
Al1 O2 1.789706 1_555
Al1 O1 1.856520 1_455
Al1 O0 1.869654 1_545
Bi0 O7 2.204943 1_555
Bi0 O8 2.306506 1_555
Bi0 O2 2.352194 1_555
Bi0 O6 2.371682 1_556
Bi0 O9 2.399627 1_556
Bi0 O3 2.755202 1_556
Bi1 O8 2.242989 1_665
Bi1 O7 2.282037 1_565
Bi1 O9 2.332732 1_656
Bi1 O4 2.355956 1_555
Bi1 O6 2.403204 1_556
Bi1 O5 2.774654 1_666
