# generated using pymatgen
data_Mg2Al16Fe6Si20O73
_symmetry_space_group_name_H-M   'P 1'
_cell_length_a   10.02469165
_cell_length_b   13.66761104
_cell_length_c   13.67282771
_cell_angle_alpha   87.21379042
_cell_angle_beta   110.93454578
_cell_angle_gamma   110.92174355
_symmetry_Int_Tables_number   1
_chemical_formula_structural   Mg2Al16Fe6Si20O73
_chemical_formula_sum   'Mg2 Al16 Fe6 Si20 O73'
_cell_volume   1627.63029182
_cell_formula_units_Z   1
loop_
 _symmetry_equiv_pos_site_id
 _symmetry_equiv_pos_as_xyz
  1  'x, y, z'
loop_
 _atom_site_type_symbol
 _atom_site_label
 _atom_site_symmetry_multiplicity
 _atom_site_fract_x
 _atom_site_fract_y
 _atom_site_fract_z
 _atom_site_occupancy
  Mg  Mg0  1  0.32528801  0.20632714  0.45646972  1
  Mg  Mg1  1  0.67481297  0.29377225  0.04369943  1
  Al  Al0  1  0.50028673  0.62463312  0.87521032  1
  Al  Al1  1  0.49990834  0.12486433  0.37509238  1
  Al  Al2  1  0.49969695  0.37480159  0.62457233  1
  Al  Al3  1  0.49976248  0.87499941  0.12454028  1
  Al  Al4  1  0.50047806  0.37531559  0.12485342  1
  Al  Al5  1  0.50016663  0.87507208  0.62504906  1
  Al  Al6  1  0.50012339  0.12554471  0.87533043  1
  Al  Al7  1  0.50041099  0.62470873  0.37504253  1
  Al  Al8  1  0.09872669  0.92836844  0.42783258  1
  Al  Al9  1  0.09865258  0.42772765  0.92794080  1
  Al  Al10  1  0.90127104  0.57177669  0.07213024  1
  Al  Al11  1  0.90142010  0.07223286  0.57219864  1
  Al  Al12  1  0.90122948  0.62857792  0.62853260  1
  Al  Al13  1  0.90106032  0.12905510  0.12852629  1
  Al  Al14  1  0.09873671  0.37100337  0.37146796  1
  Al  Al15  1  0.09887599  0.87143041  0.87147448  1
  Fe  Fe0  1  0.67627503  0.04367657  0.29406535  1
  Fe  Fe1  1  0.67542643  0.54331811  0.79372448  1
  Fe  Fe2  1  0.32414921  0.70582916  0.95560134  1
  Fe  Fe3  1  0.32330623  0.45591892  0.20577865  1
  Fe  Fe4  1  0.32590956  0.95640549  0.70623701  1
  Fe  Fe5  1  0.67371969  0.79350286  0.54344652  1
  Si  Si0  1  0.38105062  0.38458643  0.88530714  1
  Si  Si1  1  0.38046558  0.88482415  0.38487340  1
  Si  Si2  1  0.61871963  0.11531024  0.61471006  1
  Si  Si3  1  0.61978268  0.61518984  0.11508289  1
  Si  Si4  1  0.61893613  0.44421516  0.44476831  1
  Si  Si5  1  0.61925809  0.94460814  0.94444423  1
  Si  Si6  1  0.38130366  0.05588965  0.05535283  1
  Si  Si7  1  0.38044648  0.55533430  0.55540762  1
  Si  Si8  1  0.00105619  0.12521567  0.37532835  1
  Si  Si9  1  0.99988165  0.62494981  0.87506640  1
  Si  Si10  1  0.00004528  0.87502507  0.62510652  1
  Si  Si11  1  0.99891512  0.37479311  0.12473292  1
  Si  Si12  1  0.72972514  0.29948088  0.80020452  1
  Si  Si13  1  0.72983598  0.79959684  0.29971981  1
  Si  Si14  1  0.27044225  0.20046408  0.69997023  1
  Si  Si15  1  0.26991974  0.70022630  0.20024752  1
  Si  Si16  1  0.27089271  0.18480864  0.18551098  1
  Si  Si17  1  0.27015280  0.68489776  0.68474537  1
  Si  Si18  1  0.72934784  0.81517784  0.81510783  1
  Si  Si19  1  0.72975524  0.31544559  0.31468968  1
  O  O0  1  0.12398664  0.24756146  0.39889114  1
  O  O1  1  0.12090751  0.74757909  0.89851867  1
  O  O2  1  0.87823018  0.60182331  0.75244708  1
  O  O3  1  0.87917111  0.10197231  0.25270607  1
  O  O4  1  0.87910167  0.58823023  0.93723325  1
  O  O5  1  0.87936878  0.08815599  0.43711750  1
  O  O6  1  0.12402939  0.06432924  0.41308812  1
  O  O7  1  0.12152190  0.56316204  0.91246065  1
  O  O8  1  0.87601306  0.25239021  0.10109808  1
  O  O9  1  0.87844266  0.75258022  0.60118473  1
  O  O10  1  0.12125306  0.89867133  0.74749824  1
  O  O11  1  0.12060890  0.39814503  0.24732575  1
  O  O12  1  0.12196557  0.91216847  0.56353172  1
  O  O13  1  0.12067766  0.41197584  0.06299583  1
  O  O14  1  0.87595731  0.43564983  0.08689210  1
  O  O15  1  0.87811878  0.93653863  0.58775992  1
  O  O16  1  0.32645239  0.29301281  0.79275816  1
  O  O17  1  0.32652462  0.79271387  0.29310148  1
  O  O18  1  0.67344128  0.20705776  0.70711180  1
  O  O19  1  0.67365799  0.70729650  0.20696673  1
  O  O20  1  0.67353550  0.37961244  0.37967059  1
  O  O21  1  0.67325571  0.87976007  0.87961306  1
  O  O22  1  0.32691007  0.12063334  0.12049585  1
  O  O23  1  0.32630965  0.62020304  0.62029675  1
  O  O24  1  0.24103317  0.90274255  0.40311008  1
  O  O25  1  0.24147193  0.40280092  0.90308448  1
  O  O26  1  0.75922285  0.59708160  0.09721588  1
  O  O27  1  0.75838285  0.09717121  0.59684783  1
  O  O28  1  0.75872053  0.53198978  0.53252784  1
  O  O29  1  0.75844069  0.03256291  0.03228646  1
  O  O30  1  0.24181488  0.96805488  0.96744292  1
  O  O31  1  0.24097395  0.46774802  0.46750538  1
  O  O32  1  0.65339232  0.68936318  0.83129151  1
  O  O33  1  0.65318355  0.18911179  0.33087040  1
  O  O34  1  0.34685642  0.16964443  0.31186799  1
  O  O35  1  0.34740531  0.66936187  0.81104788  1
  O  O36  1  0.34665729  0.25371259  0.61149079  1
  O  O37  1  0.34682011  0.75432691  0.11263681  1
  O  O38  1  0.65238725  0.38711031  0.74555879  1
  O  O39  1  0.65263266  0.88759368  0.24570195  1
  O  O40  1  0.34701872  0.81051416  0.66842500  1
  O  O41  1  0.34703664  0.31120803  0.16930894  1
  O  O42  1  0.65316687  0.33030342  0.18818804  1
  O  O43  1  0.65291608  0.83153131  0.68962228  1
  O  O44  1  0.65346500  0.24636674  0.88857747  1
  O  O45  1  0.65271155  0.74487284  0.38670130  1
  O  O46  1  0.34725848  0.11319826  0.75520587  1
  O  O47  1  0.34693574  0.61214439  0.25418534  1
  O  O48  1  0.48845557  0.49885964  0.64029722  1
  O  O49  1  0.48815878  0.99882266  0.14031543  1
  O  O50  1  0.50879793  0.35782642  0.49972789  1
  O  O51  1  0.51149450  0.85935512  0.00072137  1
  O  O52  1  0.50871112  0.14639364  0.50451930  1
  O  O53  1  0.51179256  0.64634174  0.00472474  1
  O  O54  1  0.48883878  0.49490100  0.85362505  1
  O  O55  1  0.48825986  0.99510079  0.35364236  1
  O  O56  1  0.51067093  0.00104407  0.85893170  1
  O  O57  1  0.51189009  0.50103151  0.35970222  1
  O  O58  1  0.49144272  0.14207670  0.00036876  1
  O  O59  1  0.48910636  0.64109716  0.49916493  1
  O  O60  1  0.49122972  0.35344070  0.99542858  1
  O  O61  1  0.48906259  0.85353197  0.49538694  1
  O  O62  1  0.51100269  0.00463807  0.64622239  1
  O  O63  1  0.51201866  0.50483428  0.14639823  1
  O  O64  1  0.08815338  0.14759352  0.64759086  1
  O  O65  1  0.08803990  0.64732623  0.14772564  1
  O  O66  1  0.91182286  0.35245019  0.85225215  1
  O  O67  1  0.91201755  0.85258116  0.35256107  1
  O  O68  1  0.91195733  0.35350401  0.35359767  1
  O  O69  1  0.91157746  0.85306754  0.85290938  1
  O  O70  1  0.08850875  0.14715624  0.14707988  1
  O  O71  1  0.08802199  0.64640432  0.64647418  1
  O  O72  1  0.99999529  0.99998047  0.99997411  1
loop_
_geom_bond_atom_site_label_1
_geom_bond_atom_site_label_2
_geom_bond_distance
_geom_bond_site_symmetry_2
Mg0 O50 2.154679 1_555
Mg0 O0 2.154873 1_555
Mg0 O52 2.154948 1_555
Mg0 O6 2.156205 1_555
Mg0 O36 2.160518 1_555
Mg0 O34 2.164802 1_555
Mg1 O60 2.153882 1_554
Mg1 O14 2.154703 1_555
Mg1 O8 2.155085 1_555
Mg1 O58 2.155916 1_555
Mg1 O44 2.162005 1_554
Mg1 O42 2.163069 1_555
Al0 O53 1.765744 1_556
Al0 O54 1.767937 1_555
Al0 O32 1.770936 1_555
Al0 O35 1.774370 1_555
Al1 O55 1.767298 1_545
Al1 O33 1.773776 1_555
Al1 O52 1.773825 1_555
Al1 O34 1.774080 1_555
Al2 O48 1.767237 1_555
Al2 O50 1.772239 1_555
Al2 O38 1.772412 1_555
Al2 O36 1.773142 1_555
Al3 O49 1.765836 1_555
Al3 O51 1.766658 1_555
Al3 O37 1.771781 1_555
Al3 O39 1.774163 1_555
Al4 O63 1.764621 1_555
Al4 O60 1.773099 1_554
Al4 O42 1.773365 1_555
Al4 O41 1.776809 1_555
Al5 O43 1.764098 1_555
Al5 O40 1.766246 1_555
Al5 O62 1.766785 1_565
Al5 O61 1.768719 1_555
Al6 O46 1.765809 1_555
Al6 O58 1.771825 1_556
Al6 O56 1.771868 1_555
Al6 O44 1.771987 1_555
Al7 O57 1.762167 1_555
Al7 O45 1.764789 1_555
Al7 O59 1.770790 1_555
Al7 O47 1.774635 1_555
Al8 O67 1.725651 1_455
Al8 O24 1.727718 1_555
Al8 O6 1.794881 1_565
Al8 O12 1.798275 1_555
Al9 O66 1.726140 1_455
Al9 O25 1.728791 1_555
Al9 O13 1.791345 1_556
Al9 O7 1.793685 1_555
Al10 O26 1.725485 1_555
Al10 O65 1.726320 1_655
Al10 O4 1.790058 1_554
Al10 O14 1.797110 1_555
Al11 O64 1.724802 1_655
Al11 O27 1.729568 1_555
Al11 O5 1.791911 1_555
Al11 O15 1.796438 1_545
Al12 O71 1.725588 1_655
Al12 O28 1.728644 1_555
Al12 O2 1.793348 1_555
Al12 O9 1.793947 1_555
Al13 O70 1.729179 1_655
Al13 O29 1.729908 1_555
Al13 O3 1.793077 1_555
Al13 O8 1.794101 1_555
Al14 O68 1.726767 1_455
Al14 O31 1.729184 1_555
Al14 O11 1.792601 1_555
Al14 O0 1.796338 1_555
Al15 O69 1.726818 1_455
Al15 O30 1.729868 1_555
Al15 O1 1.788494 1_555
Al15 O10 1.792498 1_555
Fe0 O39 2.169880 1_545
Fe0 O3 2.170804 1_555
Fe0 O5 2.174006 1_555
Fe0 O33 2.183368 1_555
Fe0 O55 2.192638 1_545
Fe0 O49 2.195001 1_545
Fe1 O2 2.169385 1_555
Fe1 O38 2.172798 1_555
Fe1 O4 2.180561 1_555
Fe1 O54 2.182986 1_555
Fe1 O48 2.187186 1_555
Fe1 O32 2.189208 1_555
Fe2 O7 2.168651 1_555
Fe2 O35 2.171907 1_555
Fe2 O1 2.176367 1_555
Fe2 O37 2.187054 1_556
Fe2 O53 2.187904 1_556
Fe2 O51 2.189562 1_556
Fe3 O13 2.169562 1_555
Fe3 O11 2.170366 1_555
Fe3 O47 2.171980 1_555
Fe3 O41 2.175734 1_555
Fe3 O63 2.196937 1_555
Fe3 O57 2.198603 1_555
Fe4 O62 2.170865 1_565
Fe4 O56 2.171415 1_565
Fe4 O12 2.175725 1_555
Fe4 O40 2.183529 1_555
Fe4 O10 2.185795 1_555
Fe4 O46 2.189979 1_565
Fe5 O61 2.166714 1_555
Fe5 O59 2.167787 1_555
Fe5 O15 2.180511 1_555
Fe5 O9 2.183351 1_555
Fe5 O43 2.187339 1_555
Fe5 O45 2.189793 1_555
O0 Si8 1.647899 1_555
O1 Si9 1.644964 1_455
O2 Si9 1.647155 1_555
O3 Si8 1.647872 1_655
O4 Si9 1.643274 1_555
O5 Si8 1.646809 1_655
O6 Si8 1.647683 1_555
O7 Si9 1.646048 1_455
O8 Si11 1.648379 1_555
O9 Si10 1.644690 1_655
O10 Si10 1.643270 1_555
O11 Si11 1.646941 1_455
O12 Si10 1.646498 1_555
O13 Si11 1.646911 1_455
O14 Si11 1.647274 1_555
O15 Si10 1.645515 1_655
O16 Si0 1.623918 1_555
O16 Si14 1.632347 1_555
O17 Si1 1.623053 1_555
O17 Si15 1.631151 1_555
O18 Si2 1.623887 1_555
O18 Si12 1.633475 1_555
O19 Si3 1.624222 1_555
O19 Si13 1.629324 1_555
O20 Si4 1.625155 1_555
O20 Si19 1.631787 1_555
O21 Si5 1.620568 1_555
O21 Si18 1.630261 1_555
O22 Si6 1.625417 1_555
O22 Si16 1.630707 1_555
O23 Si7 1.622324 1_555
O23 Si17 1.631264 1_555
O24 Si1 1.604798 1_555
O25 Si0 1.605183 1_555
O26 Si3 1.603710 1_555
O27 Si2 1.606072 1_555
O28 Si4 1.606368 1_555
O29 Si5 1.606038 1_544
O30 Si6 1.606728 1_566
O31 Si7 1.605021 1_555
O32 Si18 1.653484 1_555
O33 Si19 1.660489 1_555
O34 Si16 1.656929 1_555
O35 Si17 1.659265 1_555
O36 Si14 1.659737 1_555
O37 Si15 1.656098 1_555
O38 Si12 1.660117 1_555
O39 Si13 1.661603 1_555
O40 Si17 1.652880 1_555
O41 Si16 1.660751 1_555
O42 Si19 1.658489 1_555
O43 Si18 1.651182 1_555
O44 Si12 1.658285 1_555
O45 Si13 1.652022 1_555
O46 Si14 1.654907 1_555
O47 Si15 1.661286 1_555
O48 Si7 1.651378 1_555
O49 Si6 1.650658 1_565
O50 Si4 1.659346 1_555
O51 Si5 1.650661 1_554
O52 Si2 1.658801 1_555
O53 Si3 1.652110 1_555
O54 Si0 1.654071 1_555
O55 Si1 1.650979 1_555
O56 Si5 1.658141 1_545
O57 Si4 1.650085 1_555
O58 Si6 1.658327 1_555
O59 Si7 1.658598 1_555
O60 Si0 1.659300 1_555
O61 Si1 1.656951 1_555
O62 Si2 1.655985 1_555
O63 Si3 1.652087 1_555
O64 Si14 1.595757 1_555
O65 Si15 1.592534 1_555
O66 Si12 1.593995 1_555
O67 Si13 1.595379 1_555
O68 Si19 1.594914 1_555
O69 Si18 1.596298 1_555
O70 Si16 1.597360 1_555
O71 Si17 1.594421 1_555
