# generated using pymatgen
data_HoAl3(BO3)4
_symmetry_space_group_name_H-M   'P 1'
_cell_length_a   5.92174408
_cell_length_b   5.92174408
_cell_length_c   5.92174342
_cell_angle_alpha   104.27560788
_cell_angle_beta   104.27560788
_cell_angle_gamma   104.27560431
_symmetry_Int_Tables_number   1
_chemical_formula_structural   HoAl3(BO3)4
_chemical_formula_sum   'Ho1 Al3 B4 O12'
_cell_volume   184.28974811
_cell_formula_units_Z   1
loop_
 _symmetry_equiv_pos_site_id
 _symmetry_equiv_pos_as_xyz
  1  'x, y, z'
loop_
 _atom_site_type_symbol
 _atom_site_label
 _atom_site_symmetry_multiplicity
 _atom_site_fract_x
 _atom_site_fract_y
 _atom_site_fract_z
 _atom_site_occupancy
  Ho  Ho0  1  0.50000000  0.50000000  0.50000000  1
  Al  Al0  1  0.05528800  0.94471200  0.50000000  1
  Al  Al1  1  0.94471200  0.50000000  0.05528800  1
  Al  Al2  1  0.50000000  0.05528800  0.94471200  1
  B  B0  1  0.44350700  0.55649300  0.00000000  1
  B  B1  1  0.55649300  0.00000000  0.44350700  1
  B  B2  1  0.00000000  0.44350700  0.55649300  1
  B  B3  1  0.00000000  0.00000000  0.00000000  1
  O  O0  1  0.28007400  0.52825700  0.12895300  1
  O  O1  1  0.52825700  0.12895300  0.28007400  1
  O  O2  1  0.71992600  0.87104700  0.47174300  1
  O  O3  1  0.12895300  0.28007400  0.52825700  1
  O  O4  1  0.47174300  0.71992600  0.87104700  1
  O  O5  1  0.87104700  0.47174300  0.71992600  1
  O  O6  1  0.85128500  0.14871500  0.00000000  1
  O  O7  1  0.14871500  0.00000000  0.85128500  1
  O  O8  1  0.00000000  0.85128500  0.14871500  1
  O  O9  1  0.59184900  0.40815100  0.00000000  1
  O  O10  1  0.40815100  0.00000000  0.59184900  1
  O  O11  1  0.00000000  0.59184900  0.40815100  1
loop_
_geom_bond_atom_site_label_1
_geom_bond_atom_site_label_2
_geom_bond_distance
_geom_bond_site_symmetry_2
Ho0 O0 2.330137 1_555
Ho0 O4 2.330137 1_555
Ho0 O1 2.330137 1_555
Ho0 O5 2.330137 1_555
Ho0 O2 2.330137 1_555
Ho0 O3 2.330137 1_555
Al0 O3 1.880180 1_565
Al0 O2 1.880180 1_455
Al0 O8 1.935922 1_555
Al0 O7 1.935922 1_565
Al0 O10 1.945144 1_565
Al0 O11 1.945144 1_555
Al1 O5 1.880180 1_554
Al1 O0 1.880180 1_655
Al1 O8 1.935922 1_655
Al1 O6 1.935922 1_555
Al1 O11 1.945144 1_655
Al1 O9 1.945144 1_555
Al2 O1 1.880180 1_556
Al2 O4 1.880180 1_545
Al2 O7 1.935922 1_555
Al2 O6 1.935922 1_556
Al2 O10 1.945144 1_555
Al2 O9 1.945144 1_556
B0 O4 1.376727 1_554
B0 O0 1.376727 1_555
B0 O9 1.387043 1_555
B1 O1 1.376727 1_555
B1 O2 1.376727 1_545
B1 O10 1.387043 1_555
B2 O5 1.376727 1_455
B2 O3 1.376727 1_555
B2 O11 1.387043 1_555
B3 O7 1.390531 1_554
B3 O8 1.390531 1_545
B3 O6 1.390531 1_455
