# generated using pymatgen
data_Eu8In3
_symmetry_space_group_name_H-M   'P 1'
_cell_length_a   9.92717600
_cell_length_b   9.98012229
_cell_length_c   10.07493638
_cell_angle_alpha   99.12743143
_cell_angle_beta   101.19418685
_cell_angle_gamma   119.47931430
_symmetry_Int_Tables_number   1
_chemical_formula_structural   Eu8In3
_chemical_formula_sum   'Eu16 In6'
_cell_volume   813.77778626
_cell_formula_units_Z   2
loop_
 _symmetry_equiv_pos_site_id
 _symmetry_equiv_pos_as_xyz
  1  'x, y, z'
loop_
 _atom_site_type_symbol
 _atom_site_label
 _atom_site_symmetry_multiplicity
 _atom_site_fract_x
 _atom_site_fract_y
 _atom_site_fract_z
 _atom_site_occupancy
  Eu  Eu0  1  0.95907400  0.06061900  0.67008300  1
  Eu  Eu1  1  0.04092600  0.93938100  0.32991700  1
  Eu  Eu2  1  0.92268200  0.77095900  0.89272700  1
  Eu  Eu3  1  0.07731800  0.22904100  0.10727300  1
  Eu  Eu4  1  0.53487200  0.70114300  0.64784200  1
  Eu  Eu5  1  0.46512800  0.29885700  0.35215800  1
  Eu  Eu6  1  0.70257900  0.49994900  0.11352000  1
  Eu  Eu7  1  0.29742100  0.50005100  0.88648000  1
  Eu  Eu8  1  0.87879300  0.39927400  0.64530400  1
  Eu  Eu9  1  0.12120700  0.60072600  0.35469600  1
  Eu  Eu10  1  0.66748200  0.12066000  0.88681600  1
  Eu  Eu11  1  0.33251800  0.87934000  0.11318400  1
  Eu  Eu12  1  0.53678200  0.70585200  0.29347300  1
  Eu  Eu13  1  0.46321800  0.29414800  0.70652700  1
  Eu  Eu14  1  0.76987300  0.15500700  0.29567300  1
  Eu  Eu15  1  0.23012700  0.84499300  0.70432700  1
  In  In0  1  0.82813300  0.66308600  0.49945200  1
  In  In1  1  0.17186700  0.33691400  0.50054800  1
  In  In2  1  0.67428400  0.83770500  0.02564600  1
  In  In3  1  0.32571600  0.16229500  0.97435400  1
  In  In4  1  0.00000000  0.50000000  0.00000000  1
  In  In5  1  0.50000000  0.00000000  0.50000000  1
loop_
_geom_bond_atom_site_label_1
_geom_bond_atom_site_label_2
_geom_bond_distance
_geom_bond_site_symmetry_2
Eu0 In1 3.485051 1_655
Eu0 In0 3.504026 1_545
Eu0 In3 3.836727 1_655
Eu0 Eu2 3.855273 1_545
Eu0 Eu7 3.859226 1_655
Eu0 Eu8 3.868097 1_555
Eu0 Eu4 3.894083 1_545
Eu0 Eu10 4.153608 1_555
Eu0 Eu3 4.160042 1_656
Eu0 Eu15 4.191015 1_645
Eu0 Eu13 4.260149 1_655
Eu0 Eu14 4.331529 1_555
Eu0 Eu12 4.411388 1_545
Eu1 In0 3.485051 1_455
Eu1 In1 3.504026 1_565
Eu1 In2 3.836727 1_455
Eu1 Eu3 3.855273 1_565
Eu1 Eu6 3.859226 1_455
Eu1 Eu9 3.868097 1_555
Eu1 Eu5 3.894083 1_565
Eu1 Eu11 4.153608 1_555
Eu1 Eu2 4.160042 1_454
Eu1 Eu14 4.191015 1_465
Eu1 Eu12 4.260149 1_455
Eu1 Eu15 4.331529 1_555
Eu1 Eu13 4.411388 1_565
Eu2 In2 3.306583 1_556
Eu2 In4 3.423144 1_656
Eu2 In0 3.734618 1_555
Eu2 In3 3.776461 1_665
Eu2 Eu4 3.810579 1_555
Eu2 Eu6 3.875237 1_556
Eu2 Eu8 3.901000 1_555
Eu2 Eu3 4.074133 1_666
Eu3 In3 3.306583 1_554
Eu3 In4 3.423144 1_555
Eu3 In1 3.734618 1_555
Eu3 In2 3.776461 1_445
Eu3 Eu5 3.810579 1_555
Eu3 Eu7 3.875237 1_554
Eu3 Eu9 3.901000 1_555
Eu4 In1 3.423662 1_555
Eu4 In2 3.565603 1_556
Eu4 In0 3.667802 1_555
Eu4 In5 3.668791 1_565
Eu4 Eu7 3.799988 1_555
Eu4 Eu9 4.109991 1_555
Eu4 Eu5 4.259307 1_555
Eu5 In0 3.423662 1_555
Eu5 In3 3.565603 1_554
Eu5 In1 3.667802 1_555
Eu5 In5 3.668791 1_555
Eu5 Eu6 3.799988 1_555
Eu5 Eu8 4.109991 1_555
Eu6 In4 3.366817 1_655
Eu6 In3 3.372568 1_554
Eu6 In0 3.665425 1_555
Eu6 In2 3.742652 1_555
Eu6 Eu9 3.921280 1_655
Eu6 Eu7 4.223976 1_554
Eu7 In4 3.366817 1_556
Eu7 In2 3.372568 1_556
Eu7 In1 3.665425 1_555
Eu7 In3 3.742652 1_555
Eu7 Eu8 3.921280 1_455
Eu8 In4 3.350946 1_656
Eu8 In0 3.404109 1_555
Eu8 In5 3.664159 1_555
Eu8 In1 3.757724 1_655
Eu8 Eu9 4.271654 1_655
Eu9 In4 3.350946 1_555
Eu9 In1 3.404109 1_555
Eu9 In5 3.664159 1_565
Eu9 In0 3.757724 1_455
Eu10 In2 3.367435 1_546
Eu10 In4 3.376167 1_656
Eu10 Eu15 3.652293 1_545
Eu10 In5 3.664280 1_555
Eu10 Eu13 3.664998 1_555
Eu10 Eu3 3.748857 1_656
Eu10 In3 3.859329 1_555
Eu10 Eu4 3.899467 1_545
Eu10 Eu6 3.913697 1_556
Eu10 Eu14 3.962572 1_556
Eu10 Eu8 4.054651 1_555
Eu10 Eu11 4.343271 1_546
Eu11 In3 3.367435 1_564
Eu11 In4 3.376167 1_555
Eu11 Eu14 3.652293 1_565
Eu11 In5 3.664280 1_565
Eu11 Eu12 3.664998 1_555
Eu11 Eu2 3.748857 1_454
Eu11 In2 3.859329 1_555
Eu11 Eu5 3.899467 1_565
Eu11 Eu7 3.913697 1_554
Eu11 Eu15 3.962572 1_554
Eu11 Eu9 4.054651 1_555
Eu12 In2 3.415353 1_555
Eu12 In0 3.466931 1_555
Eu12 In5 3.534522 1_565
Eu12 Eu4 3.581600 1_555
Eu12 Eu6 3.677528 1_555
Eu12 Eu14 3.897236 1_565
Eu12 Eu7 3.926813 1_554
Eu12 Eu9 3.928634 1_555
Eu12 Eu5 3.928840 1_555
Eu12 Eu3 4.410359 1_555
Eu13 In3 3.415353 1_555
Eu13 In1 3.466931 1_555
Eu13 In5 3.534522 1_555
Eu13 Eu5 3.581600 1_555
Eu13 Eu7 3.677528 1_555
Eu13 Eu15 3.897236 1_545
Eu13 Eu6 3.926813 1_556
Eu13 Eu8 3.928634 1_555
Eu13 Eu4 3.928840 1_555
Eu13 Eu2 4.410359 1_555
Eu14 In2 3.411239 1_545
Eu14 In1 3.458925 1_655
Eu14 Eu8 3.566875 1_555
Eu14 In5 3.589009 1_555
Eu14 Eu3 3.733447 1_655
Eu14 Eu9 3.923181 1_655
Eu14 Eu5 4.027529 1_555
Eu14 Eu6 4.411036 1_555
Eu15 In3 3.411239 1_565
Eu15 In0 3.458925 1_455
Eu15 Eu9 3.566875 1_555
Eu15 In5 3.589009 1_565
Eu15 Eu2 3.733447 1_455
Eu15 Eu8 3.923181 1_455
Eu15 Eu4 4.027529 1_555
Eu15 Eu7 4.411036 1_555
