# generated using pymatgen
data_NaLaF4
_symmetry_space_group_name_H-M   'P 1'
_cell_length_a   6.12775347
_cell_length_b   7.19139693
_cell_length_c   7.20894698
_cell_angle_alpha   63.98821836
_cell_angle_beta   64.90849824
_cell_angle_gamma   64.97894288
_symmetry_Int_Tables_number   1
_chemical_formula_structural   NaLaF4
_chemical_formula_sum   'Na3 La3 F12'
_cell_volume   247.35375596
_cell_formula_units_Z   3
loop_
 _symmetry_equiv_pos_site_id
 _symmetry_equiv_pos_as_xyz
  1  'x, y, z'
loop_
 _atom_site_type_symbol
 _atom_site_label
 _atom_site_symmetry_multiplicity
 _atom_site_fract_x
 _atom_site_fract_y
 _atom_site_fract_z
 _atom_site_occupancy
  Na  Na0  1  0.66692345  0.48824176  0.15947592  1
  Na  Na1  1  0.66262903  0.01365395  0.67445775  1
  Na  Na2  1  0.32994909  0.44415044  0.89281178  1
  La  La0  1  0.00447564  0.00572611  0.98957254  1
  La  La1  1  0.99624280  0.50547921  0.49894889  1
  La  La2  1  0.33685686  0.93046277  0.39816322  1
  F  F0  1  0.58618368  0.71963085  0.65686559  1
  F  F1  1  0.59429622  0.17927944  0.19113096  1
  F  F2  1  0.37721418  0.01301793  0.01868736  1
  F  F3  1  0.37250658  0.54771388  0.49120954  1
  F  F4  1  0.02912051  0.28505560  0.30939650  1
  F  F5  1  0.04102433  0.82705837  0.75916024  1
  F  F6  1  0.26143505  0.62924041  0.12152530  1
  F  F7  1  0.28019489  0.13765086  0.61739732  1
  F  F8  1  0.74816487  0.25175755  0.74169177  1
  F  F9  1  0.75728395  0.73800197  0.22257009  1
  F  F10  1  0.98535404  0.38903697  0.87888128  1
  F  F11  1  0.97014383  0.89484093  0.37805095  1
loop_
_geom_bond_atom_site_label_1
_geom_bond_atom_site_label_2
_geom_bond_distance
_geom_bond_site_symmetry_2
F0 La1 2.412433 1_555
F0 Na1 2.414498 1_565
F0 La2 2.467408 1_555
F0 Na2 2.587234 1_555
F1 Na0 2.343595 1_555
F1 La0 2.413731 1_654
F1 La2 2.442609 1_545
F1 Na2 2.762000 1_554
F2 Na1 2.352173 1_554
F2 La0 2.404422 1_554
F2 La2 2.454210 1_545
F2 Na2 2.741473 1_554
F3 Na0 2.396241 1_555
F3 La1 2.424830 1_455
F3 La2 2.463767 1_555
F3 Na2 2.576275 1_555
F4 La1 2.411805 1_455
F4 La2 2.447978 1_545
F4 Na0 2.476913 1_455
F4 Na2 2.793043 1_554
F5 Na1 2.323810 1_465
F5 La0 2.402724 1_565
F5 La2 2.460378 1_555
F5 Na2 2.577036 1_555
F6 Na0 2.340706 1_555
F6 Na2 2.351932 1_554
F6 La0 2.473803 1_564
F6 La1 2.487015 1_455
F7 Na1 2.276915 1_555
F7 La2 2.449653 1_545
F7 La1 2.477777 1_455
F7 La0 2.496349 1_555
F8 Na1 2.268083 1_555
F8 Na2 2.371394 1_555
F8 La1 2.447834 1_555
F8 La0 2.459074 1_655
F9 Na0 2.347546 1_555
F9 La2 2.430994 1_555
F9 La0 2.509006 1_664
F9 La1 2.528015 1_555
F10 Na0 2.269079 1_556
F10 Na2 2.355570 1_655
F10 La1 2.467367 1_555
F10 La0 2.475027 1_655
F11 Na1 2.381422 1_565
F11 La2 2.435584 1_655
F11 La0 2.491287 1_664
F11 La1 2.494876 1_555
