# generated using pymatgen
data_La2US5
_symmetry_space_group_name_H-M   'P 1'
_cell_length_a   7.59177767
_cell_length_b   8.29045345
_cell_length_c   11.97946333
_cell_angle_alpha   90.00000000
_cell_angle_beta   90.00000000
_cell_angle_gamma   90.00000000
_symmetry_Int_Tables_number   1
_chemical_formula_structural   La2US5
_chemical_formula_sum   'La8 U4 S20'
_cell_volume   753.97878930
_cell_formula_units_Z   4
loop_
 _symmetry_equiv_pos_site_id
 _symmetry_equiv_pos_as_xyz
  1  'x, y, z'
loop_
 _atom_site_type_symbol
 _atom_site_label
 _atom_site_symmetry_multiplicity
 _atom_site_fract_x
 _atom_site_fract_y
 _atom_site_fract_z
 _atom_site_occupancy
  La  La0  1  0.52985455  0.50162420  0.32487377  1
  La  La1  1  0.97014545  0.99837580  0.82487377  1
  La  La2  1  0.47014545  0.00162420  0.67512623  1
  La  La3  1  0.02985455  0.49837580  0.17512623  1
  La  La4  1  0.47014545  0.49837580  0.67512623  1
  La  La5  1  0.02985455  0.00162420  0.17512623  1
  La  La6  1  0.52985455  0.99837580  0.32487377  1
  La  La7  1  0.97014545  0.50162420  0.82487377  1
  U  U0  1  0.06859534  0.75000000  0.49076155  1
  U  U1  1  0.43140466  0.75000000  0.99076155  1
  U  U2  1  0.93140466  0.25000000  0.50923845  1
  U  U3  1  0.56859534  0.25000000  0.00923845  1
  S  S0  1  0.83613223  0.96155724  0.59193551  1
  S  S1  1  0.66386777  0.53844276  0.09193551  1
  S  S2  1  0.16386777  0.46155724  0.40806449  1
  S  S3  1  0.33613223  0.03844276  0.90806449  1
  S  S4  1  0.16386777  0.03844276  0.40806449  1
  S  S5  1  0.33613223  0.46155724  0.90806449  1
  S  S6  1  0.83613223  0.53844276  0.59193551  1
  S  S7  1  0.66386777  0.96155724  0.09193551  1
  S  S8  1  0.83710728  0.75000000  0.31220155  1
  S  S9  1  0.66289272  0.75000000  0.81220155  1
  S  S10  1  0.16289272  0.25000000  0.68779845  1
  S  S11  1  0.33710728  0.25000000  0.18779845  1
  S  S12  1  0.45296255  0.75000000  0.49847230  1
  S  S13  1  0.04703745  0.75000000  0.99847230  1
  S  S14  1  0.54703745  0.25000000  0.50152770  1
  S  S15  1  0.95296255  0.25000000  0.00152770  1
  S  S16  1  0.18932912  0.75000000  0.71279386  1
  S  S17  1  0.31067088  0.75000000  0.21279386  1
  S  S18  1  0.81067088  0.25000000  0.28720614  1
  S  S19  1  0.68932912  0.25000000  0.78720614  1
loop_
_geom_bond_atom_site_label_1
_geom_bond_atom_site_label_2
_geom_bond_distance
_geom_bond_site_symmetry_2
La0 S17 2.968450 1_555
La0 S2 2.970441 1_555
La0 S14 2.974412 1_555
La0 S12 2.984235 1_555
La0 S1 2.985804 1_555
La0 S18 3.016673 1_555
La0 S11 3.031404 1_555
La0 S8 3.115146 1_555
La1 S16 2.968450 1_655
La1 S3 2.970441 1_665
La1 S15 2.974412 1_566
La1 S13 2.984235 1_655
La1 S0 2.985804 1_555
La1 S19 3.016673 1_565
La1 S10 3.031404 1_665
La1 S9 3.115146 1_555
La2 S19 2.968450 1_555
La2 S0 2.970441 1_545
La2 S12 2.974412 1_545
La2 S14 2.984235 1_555
La2 S3 2.985804 1_555
La2 S16 3.016673 1_545
La2 S9 3.031404 1_545
La2 S10 3.115146 1_555
La3 S18 2.968450 1_455
La3 S1 2.970441 1_455
La3 S13 2.974412 1_554
La3 S15 2.984235 1_455
La3 S2 2.985804 1_555
La3 S17 3.016673 1_555
La3 S8 3.031404 1_455
La3 S11 3.115146 1_555
La4 S19 2.968450 1_555
La4 S6 2.970441 1_555
La4 S12 2.974412 1_555
La4 S14 2.984235 1_555
La4 S5 2.985804 1_555
La4 S16 3.016673 1_555
La4 S9 3.031404 1_555
La4 S10 3.115146 1_555
La5 S18 2.968450 1_455
La5 S7 2.970441 1_445
La5 S13 2.974412 1_544
La5 S15 2.984235 1_455
La5 S4 2.985804 1_555
La5 S17 3.016673 1_545
La5 S8 3.031404 1_445
La5 S11 3.115146 1_555
La6 S17 2.968450 1_555
La6 S4 2.970441 1_565
La6 S14 2.974412 1_565
La6 S12 2.984235 1_555
La6 S7 2.985804 1_555
La6 S18 3.016673 1_565
La6 S11 3.031404 1_565
La6 S8 3.115146 1_555
La7 S16 2.968450 1_655
La7 S5 2.970441 1_655
La7 S15 2.974412 1_556
La7 S13 2.984235 1_655
La7 S6 2.985804 1_555
La7 S19 3.016673 1_555
La7 S10 3.031404 1_655
La7 S9 3.115146 1_555
S0 U2 2.687561 1_565
S0 U0 2.767616 1_655
S1 U3 2.687561 1_555
S1 U1 2.767616 1_554
S2 U0 2.687561 1_555
S2 U2 2.767616 1_455
S3 U1 2.687561 1_545
S3 U3 2.767616 1_556
S4 U0 2.687561 1_545
S4 U2 2.767616 1_455
S5 U1 2.687561 1_555
S5 U3 2.767616 1_556
S6 U2 2.687561 1_555
S6 U0 2.767616 1_655
S7 U3 2.687561 1_565
S7 U1 2.767616 1_554
S8 U0 2.768397 1_655
S9 U1 2.768397 1_555
S10 U2 2.768397 1_455
S11 U3 2.768397 1_555
S12 U0 2.919492 1_555
S13 U1 2.919492 1_555
S14 U2 2.919492 1_555
S15 U3 2.919492 1_555
S16 U0 2.813327 1_555
S17 U1 2.813327 1_554
S18 U2 2.813327 1_555
S19 U3 2.813327 1_556
