# generated using pymatgen
data_CsFeCuF6
_symmetry_space_group_name_H-M   'P 1'
_cell_length_a   7.46943585
_cell_length_b   7.46943585
_cell_length_c   7.46943585
_cell_angle_alpha   121.38682019
_cell_angle_beta   119.42524267
_cell_angle_gamma   89.30665777
_symmetry_Int_Tables_number   1
_chemical_formula_structural   CsFeCuF6
_chemical_formula_sum   'Cs2 Fe2 Cu2 F12'
_cell_volume   292.73784249
_cell_formula_units_Z   2
loop_
 _symmetry_equiv_pos_site_id
 _symmetry_equiv_pos_as_xyz
  1  'x, y, z'
loop_
 _atom_site_type_symbol
 _atom_site_label
 _atom_site_symmetry_multiplicity
 _atom_site_fract_x
 _atom_site_fract_y
 _atom_site_fract_z
 _atom_site_occupancy
  Cs  Cs0  1  0.37252000  0.62252000  0.75000000  1
  Cs  Cs1  1  0.62748000  0.37748000  0.25000000  1
  Fe  Fe0  1  0.00000000  0.00000000  0.00000000  1
  Fe  Fe1  1  0.50000000  0.00000000  0.50000000  1
  Cu  Cu0  1  0.00000000  0.00000000  0.50000000  1
  Cu  Cu1  1  0.00000000  0.50000000  0.00000000  1
  F  F0  1  0.31523600  0.06523600  0.25000000  1
  F  F1  1  0.93220400  0.68220400  0.25000000  1
  F  F2  1  0.32842800  0.68698500  0.25771400  1
  F  F3  1  0.92927100  0.07071300  0.24228600  1
  F  F4  1  0.32842800  0.07071300  0.64144200  1
  F  F5  1  0.92927100  0.68698500  0.85855800  1
  F  F6  1  0.68476400  0.93476400  0.75000000  1
  F  F7  1  0.06779600  0.31779600  0.75000000  1
  F  F8  1  0.67157200  0.31301500  0.74228600  1
  F  F9  1  0.07072900  0.92928700  0.75771400  1
  F  F10  1  0.67157200  0.92928700  0.35855800  1
  F  F11  1  0.07072900  0.31301500  0.14144200  1
loop_
_geom_bond_atom_site_label_1
_geom_bond_atom_site_label_2
_geom_bond_distance
_geom_bond_site_symmetry_2
Cs0 F8 3.193782 1_555
Cs0 F10 3.193787 1_556
Cs0 F9 3.193787 1_555
Cs0 F11 3.193787 1_555
Cs0 F7 3.238332 1_555
Cs0 F6 3.318248 1_555
Cs1 F2 3.193782 1_555
Cs1 F4 3.193787 1_554
Cs1 F5 3.193787 1_555
Cs1 F3 3.193787 1_555
Cs1 F1 3.238332 1_555
Cs1 F0 3.318248 1_555
Cu0 F7 1.964933 1_555
Cu0 F1 1.964933 1_445
Cu0 F9 2.077664 1_545
Cu0 F3 2.077664 1_455
Cu0 F4 2.077671 1_555
Cu0 F10 2.077671 1_445
Cu1 F7 1.964933 1_554
Cu1 F1 1.964933 1_455
Cu1 F11 2.077664 1_555
Cu1 F5 2.077664 1_454
Cu1 F2 2.077670 1_555
Cu1 F8 2.077670 1_454
F0 Fe0 2.007091 1_555
F0 Fe1 2.007091 1_555
F2 Fe1 1.941714 1_565
F3 Fe0 1.941715 1_655
F4 Fe1 1.941708 1_555
F5 Fe0 1.941715 1_666
F6 Fe1 2.007091 1_565
F6 Fe0 2.007091 1_666
F8 Fe1 1.941714 1_555
F9 Fe0 1.941715 1_566
F10 Fe1 1.941708 1_565
F11 Fe0 1.941715 1_555
