# generated using pymatgen
data_MgCd
_symmetry_space_group_name_H-M   'P 1'
_cell_length_a   6.49861826
_cell_length_b   6.49861826
_cell_length_c   19.56768000
_cell_angle_alpha   90.00000000
_cell_angle_beta   90.00000000
_cell_angle_gamma   119.99998228
_symmetry_Int_Tables_number   1
_chemical_formula_structural   MgCd
_chemical_formula_sum   'Mg16 Cd16'
_cell_volume   715.66882542
_cell_formula_units_Z   16
loop_
 _symmetry_equiv_pos_site_id
 _symmetry_equiv_pos_as_xyz
  1  'x, y, z'
loop_
 _atom_site_type_symbol
 _atom_site_label
 _atom_site_symmetry_multiplicity
 _atom_site_fract_x
 _atom_site_fract_y
 _atom_site_fract_z
 _atom_site_occupancy
  Mg  Mg0_0  1  0.16666650  0.33333350  0.31448700  1
  Mg  Mg0_1  1  0.16666650  0.33333350  0.81448700  1
  Mg  Mg0_2  1  0.16666650  0.83333350  0.31448700  1
  Mg  Mg0_3  1  0.16666650  0.83333350  0.81448700  1
  Mg  Mg0_4  1  0.66666650  0.33333350  0.31448700  1
  Mg  Mg0_5  1  0.66666650  0.33333350  0.81448700  1
  Mg  Mg0_6  1  0.66666650  0.83333350  0.31448700  1
  Mg  Mg0_7  1  0.66666650  0.83333350  0.81448700  1
  Mg  Mg1_0  1  0.33333350  0.16666650  0.18551300  1
  Mg  Mg1_1  1  0.33333350  0.16666650  0.68551300  1
  Mg  Mg1_2  1  0.33333350  0.66666650  0.18551300  1
  Mg  Mg1_3  1  0.33333350  0.66666650  0.68551300  1
  Mg  Mg1_4  1  0.83333350  0.16666650  0.18551300  1
  Mg  Mg1_5  1  0.83333350  0.16666650  0.68551300  1
  Mg  Mg1_6  1  0.83333350  0.66666650  0.18551300  1
  Mg  Mg1_7  1  0.83333350  0.66666650  0.68551300  1
  Cd  Cd0_0  1  0.33333350  0.16666650  0.43703250  1
  Cd  Cd0_1  1  0.33333350  0.16666650  0.93703250  1
  Cd  Cd0_2  1  0.33333350  0.66666650  0.43703250  1
  Cd  Cd0_3  1  0.33333350  0.66666650  0.93703250  1
  Cd  Cd0_4  1  0.83333350  0.16666650  0.43703250  1
  Cd  Cd0_5  1  0.83333350  0.16666650  0.93703250  1
  Cd  Cd0_6  1  0.83333350  0.66666650  0.43703250  1
  Cd  Cd0_7  1  0.83333350  0.66666650  0.93703250  1
  Cd  Cd1_0  1  0.16666650  0.33333350  0.06296750  1
  Cd  Cd1_1  1  0.16666650  0.33333350  0.56296750  1
  Cd  Cd1_2  1  0.16666650  0.83333350  0.06296750  1
  Cd  Cd1_3  1  0.16666650  0.83333350  0.56296750  1
  Cd  Cd1_4  1  0.66666650  0.33333350  0.06296750  1
  Cd  Cd1_5  1  0.66666650  0.33333350  0.56296750  1
  Cd  Cd1_6  1  0.66666650  0.83333350  0.06296750  1
  Cd  Cd1_7  1  0.66666650  0.83333350  0.56296750  1
loop_
_geom_bond_atom_site_label_1
_geom_bond_atom_site_label_2
_geom_bond_distance
_geom_bond_site_symmetry_2
Mg0_0 Mg1_2 3.144599 1_555
Mg0_0 Mg1_4 3.144599 1_455
Mg0_0 Mg1_0 3.144602 1_555
Mg0_0 Mg0_4 3.249309 1_555
Mg0_0 Mg0_2 3.249309 1_545
Mg0_0 Mg0_4 3.249309 1_455
Mg0_0 Mg0_2 3.249309 1_555
Mg0_0 Mg0_6 3.249310 1_445
Mg0_0 Mg0_6 3.249310 1_555
Mg0_1 Mg1_3 3.144599 1_555
Mg0_1 Mg1_5 3.144599 1_455
Mg0_1 Mg1_1 3.144602 1_555
Mg0_1 Mg0_5 3.249309 1_555
Mg0_1 Mg0_3 3.249309 1_545
Mg0_1 Mg0_3 3.249309 1_555
Mg0_1 Mg0_5 3.249309 1_455
Mg0_1 Mg0_7 3.249310 1_445
Mg0_1 Mg0_7 3.249310 1_555
Mg0_2 Mg1_0 3.144599 1_565
Mg0_2 Mg1_6 3.144599 1_455
Mg0_2 Mg1_2 3.144602 1_555
Mg0_2 Mg0_6 3.249309 1_455
Mg0_2 Mg0_6 3.249309 1_555
Mg0_2 Mg0_4 3.249310 1_565
Mg0_2 Mg0_4 3.249310 1_455
Mg0_3 Mg1_7 3.144599 1_455
Mg0_3 Mg1_1 3.144599 1_565
Mg0_3 Mg1_3 3.144602 1_555
Mg0_3 Mg0_7 3.249309 1_455
Mg0_3 Mg0_7 3.249309 1_555
Mg0_3 Mg0_5 3.249310 1_565
Mg0_3 Mg0_5 3.249310 1_455
Mg0_4 Mg1_0 3.144599 1_555
Mg0_4 Mg1_6 3.144599 1_555
Mg0_4 Mg1_4 3.144602 1_555
Mg0_4 Mg0_6 3.249309 1_555
Mg0_4 Mg0_6 3.249309 1_545
Mg0_5 Mg1_1 3.144599 1_555
Mg0_5 Mg1_7 3.144599 1_555
Mg0_5 Mg1_5 3.144602 1_555
Mg0_5 Mg0_7 3.249309 1_545
Mg0_5 Mg0_7 3.249309 1_555
Mg0_6 Mg1_4 3.144599 1_565
Mg0_6 Mg1_2 3.144599 1_555
Mg0_6 Mg1_6 3.144602 1_555
Mg0_7 Mg1_5 3.144599 1_565
Mg0_7 Mg1_3 3.144599 1_555
Mg0_7 Mg1_7 3.144602 1_555
Mg1_0 Mg1_2 3.249309 1_545
Mg1_0 Mg1_2 3.249309 1_555
Mg1_0 Mg1_4 3.249309 1_455
Mg1_0 Mg1_4 3.249309 1_555
Mg1_0 Mg1_6 3.249310 1_555
Mg1_0 Mg1_6 3.249310 1_445
Mg1_1 Mg1_5 3.249309 1_455
Mg1_1 Mg1_3 3.249309 1_555
Mg1_1 Mg1_3 3.249309 1_545
Mg1_1 Mg1_5 3.249309 1_555
Mg1_1 Mg1_7 3.249310 1_555
Mg1_1 Mg1_7 3.249310 1_445
Mg1_2 Mg1_6 3.249309 1_455
Mg1_2 Mg1_6 3.249309 1_555
Mg1_2 Mg1_4 3.249310 1_565
Mg1_2 Mg1_4 3.249310 1_455
Mg1_3 Mg1_7 3.249309 1_555
Mg1_3 Mg1_7 3.249309 1_455
Mg1_3 Mg1_5 3.249310 1_565
Mg1_3 Mg1_5 3.249310 1_455
Mg1_4 Mg1_6 3.249309 1_555
Mg1_4 Mg1_6 3.249309 1_545
Mg1_5 Mg1_7 3.249309 1_545
Mg1_5 Mg1_7 3.249309 1_555
Cd0_0 Mg0_2 3.044570 1_545
Cd0_0 Mg0_4 3.044570 1_555
Cd0_0 Mg0_0 3.044573 1_555
Cd0_0 Cd1_3 3.097077 1_545
Cd0_0 Cd1_5 3.097077 1_555
Cd0_0 Cd1_1 3.097080 1_555
Cd0_0 Cd0_2 3.249309 1_555
Cd0_0 Cd0_4 3.249309 1_455
Cd0_0 Cd0_2 3.249309 1_545
Cd0_0 Cd0_4 3.249309 1_555
Cd0_0 Cd0_6 3.249310 1_445
Cd0_0 Cd0_6 3.249310 1_555
Cd0_1 Mg0_3 3.044570 1_545
Cd0_1 Mg0_5 3.044570 1_555
Cd0_1 Mg0_1 3.044573 1_555
Cd0_1 Cd1_2 3.097077 1_546
Cd0_1 Cd1_4 3.097077 1_556
Cd0_1 Cd1_0 3.097080 1_556
Cd0_1 Cd0_3 3.249309 1_555
Cd0_1 Cd0_3 3.249309 1_545
Cd0_1 Cd0_5 3.249309 1_455
Cd0_1 Cd0_5 3.249309 1_555
Cd0_1 Cd0_7 3.249310 1_555
Cd0_1 Cd0_7 3.249310 1_445
Cd0_2 Mg0_0 3.044570 1_555
Cd0_2 Mg0_6 3.044570 1_555
Cd0_2 Mg0_2 3.044573 1_555
Cd0_2 Cd1_1 3.097077 1_555
Cd0_2 Cd1_7 3.097077 1_555
Cd0_2 Cd1_3 3.097080 1_555
Cd0_2 Cd0_6 3.249309 1_555
Cd0_2 Cd0_6 3.249309 1_455
Cd0_2 Cd0_4 3.249310 1_565
Cd0_2 Cd0_4 3.249310 1_455
Cd0_3 Mg0_1 3.044570 1_555
Cd0_3 Mg0_7 3.044570 1_555
Cd0_3 Mg0_3 3.044573 1_555
Cd0_3 Cd1_0 3.097077 1_556
Cd0_3 Cd1_6 3.097077 1_556
Cd0_3 Cd1_2 3.097080 1_556
Cd0_3 Cd0_7 3.249309 1_455
Cd0_3 Cd0_7 3.249309 1_555
Cd0_3 Cd0_5 3.249310 1_565
Cd0_3 Cd0_5 3.249310 1_455
Cd0_4 Mg0_6 3.044570 1_545
Cd0_4 Mg0_0 3.044570 1_655
Cd0_4 Mg0_4 3.044573 1_555
Cd0_4 Cd1_7 3.097077 1_545
Cd0_4 Cd1_1 3.097077 1_655
Cd0_4 Cd1_5 3.097080 1_555
Cd0_4 Cd0_6 3.249309 1_545
Cd0_4 Cd0_6 3.249309 1_555
Cd0_5 Mg0_1 3.044570 1_655
Cd0_5 Mg0_7 3.044570 1_545
Cd0_5 Mg0_5 3.044573 1_555
Cd0_5 Cd1_0 3.097077 1_656
Cd0_5 Cd1_6 3.097077 1_546
Cd0_5 Cd1_4 3.097080 1_556
Cd0_5 Cd0_7 3.249309 1_555
Cd0_5 Cd0_7 3.249309 1_545
Cd0_6 Mg0_4 3.044570 1_555
Cd0_6 Mg0_2 3.044570 1_655
Cd0_6 Mg0_6 3.044573 1_555
Cd0_6 Cd1_5 3.097077 1_555
Cd0_6 Cd1_3 3.097077 1_655
Cd0_6 Cd1_7 3.097080 1_555
Cd0_7 Mg0_3 3.044570 1_655
Cd0_7 Mg0_5 3.044570 1_555
Cd0_7 Mg0_7 3.044573 1_555
Cd0_7 Cd1_2 3.097077 1_656
Cd0_7 Cd1_4 3.097077 1_556
Cd0_7 Cd1_6 3.097080 1_556
Cd1_0 Mg1_2 3.044570 1_555
Cd1_0 Mg1_4 3.044570 1_455
Cd1_0 Mg1_0 3.044573 1_555
Cd1_0 Cd1_4 3.249309 1_555
Cd1_0 Cd1_4 3.249309 1_455
Cd1_0 Cd1_2 3.249309 1_555
Cd1_0 Cd1_2 3.249309 1_545
Cd1_0 Cd1_6 3.249310 1_445
Cd1_0 Cd1_6 3.249310 1_555
Cd1_1 Mg1_3 3.044570 1_555
Cd1_1 Mg1_5 3.044570 1_455
Cd1_1 Mg1_1 3.044573 1_555
Cd1_1 Cd1_5 3.249309 1_555
Cd1_1 Cd1_5 3.249309 1_455
Cd1_1 Cd1_3 3.249309 1_545
Cd1_1 Cd1_3 3.249309 1_555
Cd1_1 Cd1_7 3.249310 1_445
Cd1_1 Cd1_7 3.249310 1_555
Cd1_2 Mg1_6 3.044570 1_455
Cd1_2 Mg1_0 3.044570 1_565
Cd1_2 Mg1_2 3.044573 1_555
Cd1_2 Cd1_6 3.249309 1_455
Cd1_2 Cd1_6 3.249309 1_555
Cd1_2 Cd1_4 3.249310 1_565
Cd1_2 Cd1_4 3.249310 1_455
Cd1_3 Mg1_7 3.044570 1_455
Cd1_3 Mg1_1 3.044570 1_565
Cd1_3 Mg1_3 3.044573 1_555
Cd1_3 Cd1_7 3.249309 1_455
Cd1_3 Cd1_7 3.249309 1_555
Cd1_3 Cd1_5 3.249310 1_565
Cd1_3 Cd1_5 3.249310 1_455
Cd1_4 Mg1_6 3.044570 1_555
Cd1_4 Mg1_0 3.044570 1_555
Cd1_4 Mg1_4 3.044573 1_555
Cd1_4 Cd1_6 3.249309 1_545
Cd1_4 Cd1_6 3.249309 1_555
Cd1_5 Mg1_1 3.044570 1_555
Cd1_5 Mg1_7 3.044570 1_555
Cd1_5 Mg1_5 3.044573 1_555
Cd1_5 Cd1_7 3.249309 1_555
Cd1_5 Cd1_7 3.249309 1_545
Cd1_6 Mg1_4 3.044570 1_565
Cd1_6 Mg1_2 3.044570 1_555
Cd1_6 Mg1_6 3.044573 1_555
Cd1_7 Mg1_5 3.044570 1_565
Cd1_7 Mg1_3 3.044570 1_555
Cd1_7 Mg1_7 3.044573 1_555
