# generated using pymatgen
data_MnCo9O10
_symmetry_space_group_name_H-M   'P 1'
_cell_length_a   8.10841386
_cell_length_b   8.10841386
_cell_length_c   8.63907364
_cell_angle_alpha   74.53307521
_cell_angle_beta   74.53307521
_cell_angle_gamma   21.70297492
_symmetry_Int_Tables_number   1
_chemical_formula_structural   MnCo9O10
_chemical_formula_sum   'Mn1 Co9 O10'
_cell_volume   202.14741990
_cell_formula_units_Z   1
loop_
 _symmetry_equiv_pos_site_id
 _symmetry_equiv_pos_as_xyz
  1  'x, y, z'
loop_
 _atom_site_type_symbol
 _atom_site_label
 _atom_site_symmetry_multiplicity
 _atom_site_fract_x
 _atom_site_fract_y
 _atom_site_fract_z
 _atom_site_occupancy
  Mn  Mn0  1  0.00000000  0.00000000  0.00000000  1
  Co  Co0  1  0.20158900  0.20158900  0.89859100  1
  Co  Co1  1  0.39960900  0.39960900  0.79792400  1
  Co  Co2  1  0.20000200  0.20000200  0.40064700  1
  Co  Co3  1  0.39811400  0.39811400  0.30300200  1
  Co  Co4  1  0.60188600  0.60188600  0.69699800  1
  Co  Co5  1  0.79999800  0.79999800  0.59935300  1
  Co  Co6  1  0.60039100  0.60039100  0.20207600  1
  Co  Co7  1  0.79841100  0.79841100  0.10140900  1
  Co  Co8  1  0.00000000  0.00000000  0.50000000  1
  O  O0  1  0.20098400  0.20098400  0.65024000  1
  O  O1  1  0.39878300  0.39878300  0.54925900  1
  O  O2  1  0.19822800  0.19822800  0.15028700  1
  O  O3  1  0.39602600  0.39602600  0.05325700  1
  O  O4  1  0.60397400  0.60397400  0.94674300  1
  O  O5  1  0.80177200  0.80177200  0.84971300  1
  O  O6  1  0.60121700  0.60121700  0.45074100  1
  O  O7  1  0.79901600  0.79901600  0.34976000  1
  O  O8  1  0.99981800  0.99981800  0.74408100  1
  O  O9  1  0.00018200  0.00018200  0.25591900  1
loop_
_geom_bond_atom_site_label_1
_geom_bond_atom_site_label_2
_geom_bond_distance
_geom_bond_site_symmetry_2
Mn0 O3 2.206909 1_455
Mn0 O3 2.206909 1_545
Mn0 O4 2.206909 1_454
Mn0 O4 2.206909 1_544
Mn0 O9 2.211692 1_555
Mn0 O8 2.211692 1_444
Co0 O4 2.137564 1_455
Co0 O4 2.137564 1_545
Co0 O0 2.148159 1_555
Co0 O2 2.160499 1_556
Co0 O5 2.165320 1_545
Co0 O5 2.165320 1_455
Co1 O5 2.140076 1_455
Co1 O5 2.140076 1_545
Co1 O1 2.151845 1_555
Co1 O8 2.165807 1_455
Co1 O8 2.165807 1_545
Co1 O3 2.191034 1_556
Co2 O6 2.150154 1_545
Co2 O6 2.150154 1_455
Co2 O7 2.152651 1_545
Co2 O7 2.152651 1_455
Co2 O0 2.160552 1_555
Co2 O2 2.170721 1_555
Co3 O1 2.130350 1_555
Co3 O7 2.153669 1_455
Co3 O7 2.153669 1_545
Co3 O3 2.166832 1_555
Co3 O9 2.186153 1_655
Co3 O9 2.186153 1_565
Co4 O6 2.130350 1_555
Co4 O0 2.153669 1_655
Co4 O0 2.153669 1_565
Co4 O4 2.166832 1_555
Co4 O8 2.186153 1_455
Co4 O8 2.186153 1_545
Co5 O1 2.150154 1_565
Co5 O1 2.150154 1_655
Co5 O0 2.152651 1_565
Co5 O0 2.152651 1_655
Co5 O7 2.160552 1_555
Co5 O5 2.170721 1_555
Co6 O2 2.140076 1_565
Co6 O2 2.140076 1_655
Co6 O6 2.151845 1_555
Co6 O9 2.165807 1_655
Co6 O9 2.165807 1_565
Co6 O4 2.191034 1_554
Co7 O3 2.137564 1_655
Co7 O3 2.137564 1_565
Co7 O7 2.148159 1_555
Co7 O5 2.160499 1_554
Co7 O2 2.165320 1_655
Co7 O2 2.165320 1_565
Co8 O8 2.107848 1_445
Co8 O9 2.107848 1_555
Co8 O6 2.176595 1_545
Co8 O6 2.176595 1_455
Co8 O1 2.176595 1_545
Co8 O1 2.176595 1_455
