# generated using pymatgen
data_BaMg15
_symmetry_space_group_name_H-M   'P 1'
_cell_length_a   6.66601806
_cell_length_b   6.66601806
_cell_length_c   10.48203500
_cell_angle_alpha   90.00000000
_cell_angle_beta   90.00000000
_cell_angle_gamma   120.00000060
_symmetry_Int_Tables_number   1
_chemical_formula_structural   BaMg15
_chemical_formula_sum   'Ba1 Mg15'
_cell_volume   403.37521187
_cell_formula_units_Z   1
loop_
 _symmetry_equiv_pos_site_id
 _symmetry_equiv_pos_as_xyz
  1  'x, y, z'
loop_
 _atom_site_type_symbol
 _atom_site_label
 _atom_site_symmetry_multiplicity
 _atom_site_fract_x
 _atom_site_fract_y
 _atom_site_fract_z
 _atom_site_occupancy
  Ba  Ba0  1  0.00000000  0.00000000  0.50000000  1
  Mg  Mg0  1  0.00000000  0.00000000  0.00000000  1
  Mg  Mg1  1  0.01483000  0.50741500  0.50000000  1
  Mg  Mg2  1  0.99526600  0.49763300  0.00000000  1
  Mg  Mg3  1  0.49258500  0.50741500  0.50000000  1
  Mg  Mg4  1  0.50236700  0.49763300  0.00000000  1
  Mg  Mg5  1  0.49258500  0.98517000  0.50000000  1
  Mg  Mg6  1  0.50236700  0.00473400  0.00000000  1
  Mg  Mg7  1  0.17153300  0.34306700  0.23619600  1
  Mg  Mg8  1  0.17153300  0.34306700  0.76380400  1
  Mg  Mg9  1  0.17153300  0.82846700  0.23619600  1
  Mg  Mg10  1  0.17153300  0.82846700  0.76380400  1
  Mg  Mg11  1  0.65693300  0.82846700  0.23619600  1
  Mg  Mg12  1  0.65693300  0.82846700  0.76380400  1
  Mg  Mg13  1  0.66666700  0.33333300  0.25562100  1
  Mg  Mg14  1  0.66666700  0.33333300  0.74437900  1
loop_
_geom_bond_atom_site_label_1
_geom_bond_atom_site_label_2
_geom_bond_distance
_geom_bond_site_symmetry_2
Ba0 Mg3 3.334108 1_555
Ba0 Mg3 3.334108 1_445
Ba0 Mg1 3.334108 1_555
Ba0 Mg5 3.334108 1_445
Ba0 Mg5 3.334108 1_545
Ba0 Mg1 3.334108 1_545
Ba0 Mg9 3.401283 1_545
Ba0 Mg10 3.401283 1_545
Ba0 Mg7 3.401286 1_555
Ba0 Mg11 3.401286 1_445
Ba0 Mg8 3.401286 1_555
Ba0 Mg12 3.401286 1_445
Mg0 Mg10 3.170495 1_544
Mg0 Mg9 3.170495 1_545
Mg0 Mg12 3.170499 1_444
Mg0 Mg7 3.170499 1_555
Mg0 Mg8 3.170499 1_554
Mg0 Mg11 3.170499 1_445
Mg0 Mg4 3.333121 1_445
Mg0 Mg4 3.333121 1_555
Mg0 Mg2 3.333121 1_445
Mg0 Mg6 3.333121 1_555
Mg0 Mg6 3.333121 1_455
Mg0 Mg2 3.333121 1_455
Mg1 Mg5 3.184723 1_555
Mg1 Mg3 3.184723 1_555
Mg1 Mg13 3.256000 1_455
Mg1 Mg14 3.256000 1_455
Mg1 Mg8 3.328982 1_555
Mg1 Mg7 3.328982 1_555
Mg1 Mg10 3.328985 1_555
Mg1 Mg9 3.328985 1_555
Mg1 Mg5 3.481295 1_445
Mg1 Mg3 3.481295 1_455
Mg2 Mg8 3.127704 1_654
Mg2 Mg7 3.127704 1_655
Mg2 Mg9 3.127707 1_655
Mg2 Mg6 3.285674 1_555
Mg2 Mg4 3.285674 1_555
Mg2 Mg6 3.380344 1_665
Mg2 Mg4 3.380344 1_655
Mg3 Mg5 3.184723 1_555
Mg3 Mg7 3.328985 1_555
Mg3 Mg8 3.328985 1_555
Mg3 Mg5 3.481295 1_545
Mg4 Mg7 3.127707 1_555
Mg4 Mg8 3.127707 1_554
Mg4 Mg6 3.285674 1_555
Mg4 Mg6 3.380344 1_565
Mg5 Mg9 3.328985 1_555
Mg6 Mg9 3.127707 1_545
Mg7 Mg9 3.235685 1_555
Mg7 Mg9 3.430333 1_545
Mg10 Mg2 3.127707 1_456
Mg10 Mg6 3.127707 1_566
Mg10 Mg8 3.235685 1_555
Mg10 Mg12 3.235685 1_555
Mg10 Mg5 3.328985 1_555
Mg10 Mg14 3.339695 1_455
Mg10 Mg14 3.339695 1_565
Mg10 Mg12 3.430333 1_455
Mg10 Mg8 3.430333 1_565
Mg11 Mg6 3.127704 1_565
Mg11 Mg4 3.127707 1_555
Mg11 Mg7 3.235685 1_555
Mg11 Mg9 3.235685 1_555
Mg11 Mg5 3.328982 1_555
Mg11 Mg3 3.328985 1_555
Mg11 Mg13 3.339689 1_565
Mg11 Mg13 3.339702 1_555
Mg11 Mg7 3.430333 1_665
Mg11 Mg9 3.430333 1_655
Mg12 Mg6 3.127704 1_566
Mg12 Mg4 3.127707 1_556
Mg12 Mg8 3.235685 1_555
Mg12 Mg5 3.328982 1_555
Mg12 Mg3 3.328985 1_555
Mg12 Mg14 3.339689 1_565
Mg12 Mg14 3.339702 1_555
Mg12 Mg8 3.430333 1_665
Mg13 Mg5 3.256000 1_545
Mg13 Mg3 3.256004 1_555
Mg13 Mg2 3.282968 1_555
Mg13 Mg6 3.282968 1_555
Mg13 Mg4 3.282971 1_555
Mg13 Mg7 3.339689 1_655
Mg13 Mg9 3.339695 1_655
Mg13 Mg9 3.339695 1_545
Mg13 Mg7 3.339702 1_555
Mg14 Mg5 3.256000 1_545
Mg14 Mg3 3.256004 1_555
Mg14 Mg6 3.282968 1_556
Mg14 Mg2 3.282968 1_556
Mg14 Mg4 3.282971 1_556
Mg14 Mg8 3.339689 1_655
Mg14 Mg8 3.339702 1_555
