# generated using pymatgen
data_Ca2LaGeS4Cl3
_symmetry_space_group_name_H-M   'P 1'
_cell_length_a   9.85541747
_cell_length_b   9.85541747
_cell_length_c   6.39583200
_cell_angle_alpha   90.00000000
_cell_angle_beta   90.00000000
_cell_angle_gamma   121.46999091
_symmetry_Int_Tables_number   1
_chemical_formula_structural   Ca2LaGeS4Cl3
_chemical_formula_sum   'Ca4 La2 Ge2 S8 Cl6'
_cell_volume   529.84909125
_cell_formula_units_Z   2
loop_
 _symmetry_equiv_pos_site_id
 _symmetry_equiv_pos_as_xyz
  1  'x, y, z'
loop_
 _atom_site_type_symbol
 _atom_site_label
 _atom_site_symmetry_multiplicity
 _atom_site_fract_x
 _atom_site_fract_y
 _atom_site_fract_z
 _atom_site_occupancy
  Ca  Ca0  1  0.62554500  0.80620700  0.42733400  1
  Ca  Ca1  1  0.19379300  0.37445500  0.42733400  1
  Ca  Ca2  1  0.37445500  0.19379300  0.92733400  1
  Ca  Ca3  1  0.80620700  0.62554500  0.92733400  1
  La  La0  1  0.18803000  0.81197000  0.42745900  1
  La  La1  1  0.81197000  0.18803000  0.92745900  1
  Ge  Ge0  1  0.66390400  0.33609600  0.50250600  1
  Ge  Ge1  1  0.33609600  0.66390400  0.00250600  1
  S  S0  1  0.66613800  0.33386200  0.14938200  1
  S  S1  1  0.33386200  0.66613800  0.64938200  1
  S  S2  1  0.09042100  0.54045800  0.14283800  1
  S  S3  1  0.45954200  0.90957900  0.14283800  1
  S  S4  1  0.45427700  0.54572300  0.14385500  1
  S  S5  1  0.90957900  0.45954200  0.64283800  1
  S  S6  1  0.54045800  0.09042100  0.64283800  1
  S  S7  1  0.54572300  0.45427700  0.64385500  1
  Cl  Cl0  1  0.24499000  0.12257400  0.32586300  1
  Cl  Cl1  1  0.87742600  0.75501000  0.32586300  1
  Cl  Cl2  1  0.87815900  0.12184100  0.33521700  1
  Cl  Cl3  1  0.75501000  0.87742600  0.82586300  1
  Cl  Cl4  1  0.12257400  0.24499000  0.82586300  1
  Cl  Cl5  1  0.12184100  0.87815900  0.83521700  1
loop_
_geom_bond_atom_site_label_1
_geom_bond_atom_site_label_2
_geom_bond_distance
_geom_bond_site_symmetry_2
Ca0 Cl3 2.771751 1_555
Ca0 S1 2.835997 1_555
Ca0 Cl2 2.852327 1_565
Ca0 Cl1 2.854090 1_555
Ca0 S4 2.863992 1_555
Ca0 S3 2.960684 1_555
Ca1 Cl4 2.771751 1_555
Ca1 S1 2.835997 1_555
Ca1 Cl2 2.852327 1_455
Ca1 Cl0 2.854090 1_555
Ca1 S4 2.863992 1_555
Ca1 S2 2.960684 1_555
Ca2 Cl0 2.771751 1_556
Ca2 S0 2.835997 1_556
Ca2 Cl5 2.852327 1_545
Ca2 Cl4 2.854090 1_555
Ca2 S7 2.863992 1_555
Ca2 S6 2.960684 1_555
Ca3 Cl1 2.771751 1_556
Ca3 S0 2.835997 1_556
Ca3 Cl5 2.852327 1_655
Ca3 Cl3 2.854090 1_555
Ca3 S7 2.863992 1_555
Ca3 S5 2.960684 1_555
La0 S1 2.881438 1_555
La0 S3 2.951578 1_555
La0 S2 2.951578 1_555
La0 S6 3.397120 1_565
La0 S5 3.397120 1_455
La1 S0 2.881438 1_556
La1 S6 2.951578 1_555
La1 S5 2.951578 1_555
La1 S3 3.397120 1_546
La1 S2 3.397120 1_656
Ge0 S7 2.224155 1_555
Ge0 S5 2.252213 1_555
Ge0 S6 2.252213 1_555
Ge0 S0 2.258848 1_555
Ge1 S4 2.224155 1_555
Ge1 S2 2.252213 1_555
Ge1 S3 2.252213 1_555
Ge1 S1 2.258848 1_554
Cl0 La0 2.883347 1_545
Cl1 La0 2.883347 1_655
Cl2 La1 2.845478 1_554
Cl3 La1 2.883347 1_565
Cl4 La1 2.883347 1_455
Cl5 La0 2.845478 1_555
