# generated using pymatgen
data_Ca(NiS2)4
_symmetry_space_group_name_H-M   'P 1'
_cell_length_a   6.91767067
_cell_length_b   6.91767067
_cell_length_c   6.91767050
_cell_angle_alpha   60.52250952
_cell_angle_beta   60.52250952
_cell_angle_gamma   60.52250517
_symmetry_Int_Tables_number   1
_chemical_formula_structural   Ca(NiS2)4
_chemical_formula_sum   'Ca1 Ni4 S8'
_cell_volume   236.84393693
_cell_formula_units_Z   1
loop_
 _symmetry_equiv_pos_site_id
 _symmetry_equiv_pos_as_xyz
  1  'x, y, z'
loop_
 _atom_site_type_symbol
 _atom_site_label
 _atom_site_symmetry_multiplicity
 _atom_site_fract_x
 _atom_site_fract_y
 _atom_site_fract_z
 _atom_site_occupancy
  Ca  Ca0  1  0.00000000  0.00000000  0.00000000  1
  Ni  Ni0  1  0.50000000  0.50000000  0.50000000  1
  Ni  Ni1  1  0.50000000  0.50000000  0.00000000  1
  Ni  Ni2  1  0.50000000  0.00000000  0.50000000  1
  Ni  Ni3  1  0.00000000  0.50000000  0.50000000  1
  S  S0  1  0.72925800  0.29967500  0.72925800  1
  S  S1  1  0.72925800  0.72925800  0.29967500  1
  S  S2  1  0.29967500  0.72925800  0.72925800  1
  S  S3  1  0.73475100  0.73475100  0.73475100  1
  S  S4  1  0.26524900  0.26524900  0.26524900  1
  S  S5  1  0.27074200  0.27074200  0.70032500  1
  S  S6  1  0.70032500  0.27074200  0.27074200  1
  S  S7  1  0.27074200  0.70032500  0.27074200  1
loop_
_geom_bond_atom_site_label_1
_geom_bond_atom_site_label_2
_geom_bond_distance
_geom_bond_site_symmetry_2
Ca0 S7 2.668899 1_545
Ca0 S6 2.668899 1_455
Ca0 S0 2.668899 1_454
Ca0 S2 2.668899 1_544
Ca0 S1 2.668899 1_445
Ca0 S5 2.668899 1_554
Ni0 S0 2.258361 1_555
Ni0 S2 2.258361 1_555
Ni0 S7 2.258361 1_555
Ni0 S6 2.258361 1_555
Ni0 S1 2.258361 1_555
Ni0 S5 2.258361 1_555
Ni1 S3 2.317633 1_554
Ni1 S4 2.317633 1_555
Ni1 S7 2.326256 1_555
Ni1 S6 2.326256 1_555
Ni1 S2 2.326256 1_554
Ni1 S0 2.326256 1_554
Ni2 S3 2.317633 1_545
Ni2 S4 2.317633 1_555
Ni2 S5 2.326256 1_555
Ni2 S1 2.326256 1_545
Ni2 S6 2.326256 1_555
Ni2 S2 2.326256 1_545
Ni3 S3 2.317633 1_455
Ni3 S4 2.317633 1_555
Ni3 S5 2.326256 1_555
Ni3 S1 2.326256 1_455
Ni3 S7 2.326256 1_555
Ni3 S0 2.326256 1_455
