# generated using pymatgen
data_VCu3Te3Se
_symmetry_space_group_name_H-M   'P 1'
_cell_length_a   5.82392239
_cell_length_b   5.82392239
_cell_length_c   5.82392239
_cell_angle_alpha   89.01463527
_cell_angle_beta   89.01463527
_cell_angle_gamma   89.01462405
_symmetry_Int_Tables_number   1
_chemical_formula_structural   VCu3Te3Se
_chemical_formula_sum   'V1 Cu3 Te3 Se1'
_cell_volume   197.44957554
_cell_formula_units_Z   1
loop_
 _symmetry_equiv_pos_site_id
 _symmetry_equiv_pos_as_xyz
  1  'x, y, z'
loop_
 _atom_site_type_symbol
 _atom_site_label
 _atom_site_symmetry_multiplicity
 _atom_site_fract_x
 _atom_site_fract_y
 _atom_site_fract_z
 _atom_site_occupancy
  V  V0  1  0.00311279  0.00311279  0.00311279  1
  Cu  Cu0  1  0.00516263  0.49583181  0.00516263  1
  Cu  Cu1  1  0.00516263  0.00516263  0.49583181  1
  Cu  Cu2  1  0.49583181  0.00516263  0.00516263  1
  Te  Te0  1  0.26083584  0.74894218  0.74894218  1
  Te  Te1  1  0.74894218  0.74894218  0.26083584  1
  Te  Te2  1  0.74894218  0.26083584  0.74894218  1
  Se  Se0  1  0.23201095  0.23201095  0.23201095  1
loop_
_geom_bond_atom_site_label_1
_geom_bond_atom_site_label_2
_geom_bond_distance
_geom_bond_site_symmetry_2
Cu0 Se0 2.402500 1_555
Cu0 Te1 2.557390 1_455
Cu0 Te0 2.557390 1_554
Cu0 Te2 2.558026 1_454
Cu0 V0 2.870018 1_555
Cu0 V0 2.954004 1_565
Cu1 Se0 2.402500 1_555
Cu1 Te0 2.557390 1_545
Cu1 Te2 2.557390 1_455
Cu1 Te1 2.558026 1_445
Cu1 V0 2.870018 1_555
Cu1 V0 2.954004 1_556
Cu2 Se0 2.402500 1_555
Cu2 Te1 2.557390 1_545
Cu2 Te2 2.557390 1_554
Cu2 Te0 2.558026 1_544
Cu2 V0 2.870018 1_555
Cu2 V0 2.954004 1_655
Te0 V0 2.560821 1_566
Te1 V0 2.560821 1_665
Te2 V0 2.560821 1_656
Se0 V0 2.348343 1_555
