# generated using pymatgen
data_V2O5
_symmetry_space_group_name_H-M   'P 1'
_cell_length_a   12.80139077
_cell_length_b   11.49389284
_cell_length_c   12.66560361
_cell_angle_alpha   83.82587718
_cell_angle_beta   92.53152599
_cell_angle_gamma   91.03474770
_symmetry_Int_Tables_number   1
_chemical_formula_structural   V2O5
_chemical_formula_sum   'V30 O75'
_cell_volume   1850.80538666
_cell_formula_units_Z   15
loop_
 _symmetry_equiv_pos_site_id
 _symmetry_equiv_pos_as_xyz
  1  'x, y, z'
loop_
 _atom_site_type_symbol
 _atom_site_label
 _atom_site_symmetry_multiplicity
 _atom_site_fract_x
 _atom_site_fract_y
 _atom_site_fract_z
 _atom_site_occupancy
  V  V0  1  0.13778035  0.45466853  0.94307551  1
  V  V1  1  0.90583136  0.86622855  0.18743420  1
  V  V2  1  0.34619714  0.09990478  0.66030536  1
  V  V3  1  0.58199308  0.40277151  0.74778227  1
  V  V4  1  0.66532754  0.50234067  0.48685364  1
  V  V5  1  0.52931185  0.11808777  0.77995925  1
  V  V6  1  0.49080881  0.93802084  0.97758311  1
  V  V7  1  0.88215181  0.33294830  0.54363321  1
  V  V8  1  0.95330117  0.03658662  0.95130609  1
  V  V9  1  0.44619255  0.74451619  0.86838989  1
  V  V10  1  0.32667714  0.24046650  0.47526238  1
  V  V11  1  0.44771752  0.75480128  0.60356274  1
  V  V12  1  0.63647104  0.73763558  0.70220730  1
  V  V13  1  0.80610207  0.83632327  0.86518769  1
  V  V14  1  0.07558066  0.31170597  0.35798476  1
  V  V15  1  0.08558310  0.90348745  0.34590261  1
  V  V16  1  0.95626234  0.90520948  0.56497168  1
  V  V17  1  0.70252636  0.01961813  0.25387330  1
  V  V18  1  0.90871521  0.45820779  0.09018341  1
  V  V19  1  0.42731831  0.47409782  0.31663998  1
  V  V20  1  0.13183453  0.92667633  0.77347903  1
  V  V21  1  0.50780978  0.19297607  0.10427403  1
  V  V22  1  0.76510748  0.77938183  0.40645176  1
  V  V23  1  0.91660563  0.15505834  0.19798603  1
  V  V24  1  0.02212328  0.27213717  0.77214118  1
  V  V25  1  0.47895038  0.71137252  0.15337747  1
  V  V26  1  0.24520718  0.66311911  0.42902238  1
  V  V27  1  0.03494626  0.60792318  0.28562346  1
  V  V28  1  0.32963162  0.32059022  0.12631353  1
  V  V29  1  0.68487983  0.57752107  0.94513261  1
  O  O0  1  0.80117584  0.50112442  0.99980481  1
  O  O1  1  0.32940080  0.43818144  0.22812259  1
  O  O2  1  0.94814958  0.12382029  0.06923622  1
  O  O3  1  0.36135677  0.75109245  0.49732868  1
  O  O4  1  0.02302425  0.97366462  0.45807824  1
  O  O5  1  0.19886527  0.89108742  0.08746783  1
  O  O6  1  0.01934735  0.43328006  0.01784523  1
  O  O7  1  0.57127139  0.83325036  0.59219824  1
  O  O8  1  0.60915646  0.24569436  0.76374131  1
  O  O9  1  0.18168437  0.63293242  0.30953166  1
  O  O10  1  0.32777922  0.25960967  0.61198240  1
  O  O11  1  0.16138451  0.79898880  0.42630244  1
  O  O12  1  0.88489923  0.00037039  0.61116901  1
  O  O13  1  0.79319644  0.44652337  0.48748569  1
  O  O14  1  0.24092491  0.01146261  0.70740960  1
  O  O15  1  0.57829186  0.68730184  0.83539023  1
  O  O16  1  0.86401790  0.79981352  0.50442642  1
  O  O17  1  0.05612415  0.86649521  0.67077061  1
  O  O18  1  0.21133772  0.99645959  0.05846089  1
  O  O19  1  0.72692398  0.65192555  0.67186816  1
  O  O20  1  0.58868785  0.44921251  0.39523159  1
  O  O21  1  0.39058382  0.24160437  0.02608319  1
  O  O22  1  0.57952427  0.01047111  0.88339169  1
  O  O23  1  0.17023632  0.99206824  0.29028034  1
  O  O24  1  0.97128737  0.58900034  0.39432783  1
  O  O25  1  0.71288298  0.85505363  0.75682312  1
  O  O26  1  0.07750935  0.43707815  0.27787295  1
  O  O27  1  0.60572577  0.24444013  0.03524830  1
  O  O28  1  0.90895847  0.77847021  0.82412233  1
  O  O29  1  0.74601705  0.72718873  0.95327091  1
  O  O30  1  0.95883211  0.18396601  0.87441666  1
  O  O31  1  0.58657362  0.08168676  0.21309662  1
  O  O32  1  0.93740751  0.57257164  0.16430999  1
  O  O33  1  0.81921991  0.76044972  0.28985156  1
  O  O34  1  0.05487306  0.98572826  0.87720006  1
  O  O35  1  0.79244226  0.13587353  0.26950508  1
  O  O36  1  0.52794701  0.78771465  0.01137034  1
  O  O37  1  0.60214471  0.55741860  0.03798887  1
  O  O38  1  0.08795760  0.18286079  0.70987306  1
  O  O39  1  0.95435895  0.98814698  0.25559679  1
  O  O40  1  0.37820171  0.63409474  0.91254536  1
  O  O41  1  0.35251653  0.71715743  0.13041967  1
  O  O42  1  0.49527063  0.06038312  0.66203627  1
  O  O43  1  0.67996542  0.65920824  0.44752703  1
  O  O44  1  0.40456078  0.15197471  0.80137502  1
  O  O45  1  0.38722591  0.89373451  0.89835013  1
  O  O46  1  0.34833636  0.09136496  0.50597749  1
  O  O47  1  0.11162512  0.37062696  0.82983893  1
  O  O48  1  0.51301751  0.81399770  0.22980471  1
  O  O49  1  0.50612454  0.56733710  0.23229881  1
  O  O50  1  0.92552053  0.34564706  0.67878525  1
  O  O51  1  0.02429776  0.78796829  0.25643916  1
  O  O52  1  0.47013199  0.29037904  0.19482713  1
  O  O53  1  0.24909334  0.41363729  0.02471250  1
  O  O54  1  0.20167332  0.27207265  0.41459988  1
  O  O55  1  0.25028832  0.22572037  0.18392026  1
  O  O56  1  0.94656228  0.90180460  0.05509714  1
  O  O57  1  0.88267455  0.32559677  0.16094642  1
  O  O58  1  0.45901914  0.41447308  0.76413598  1
  O  O59  1  0.51050546  0.62957916  0.64713165  1
  O  O60  1  0.69973675  0.91321258  0.37508533  1
  O  O61  1  0.83535955  0.99120069  0.89406315  1
  O  O62  1  -0.00483630  0.33191201  0.46428614  1
  O  O63  1  0.02378708  0.19990341  0.29053432  1
  O  O64  1  0.81843075  0.21237058  0.53776319  1
  O  O65  1  0.19740165  0.57633954  0.52430307  1
  O  O66  1  0.36837397  0.56272277  0.39394279  1
  O  O67  1  0.75818023  0.94582172  0.16102794  1
  O  O68  1  0.14581616  0.59096788  0.90074705  1
  O  O69  1  0.65632760  0.47460536  0.84336898  1
  O  O70  1  0.42130332  0.32104830  0.40904615  1
  O  O71  1  0.40192479  0.78788945  0.72962578  1
  O  O72  1  0.61627146  0.44581020  0.61019459  1
  O  O73  1  0.18818371  0.81630841  0.83701233  1
  O  O74  1  0.45866971  0.02995273  0.06423502  1
loop_
_geom_bond_atom_site_label_1
_geom_bond_atom_site_label_2
_geom_bond_distance
_geom_bond_site_symmetry_2
O0 V18 1.792400 1_556
O0 V29 1.814465 1_555
O1 V19 1.719092 1_555
O1 V28 1.965931 1_555
O2 V23 1.772141 1_555
O2 V8 1.890477 1_554
O3 V11 1.706951 1_555
O3 V26 2.000485 1_555
O4 V16 1.741050 1_455
O4 V15 1.918569 1_555
O6 V18 1.764376 1_455
O6 V0 1.821847 1_554
O7 V11 1.809998 1_555
O7 V12 1.856556 1_555
O8 V5 1.771362 1_555
O8 V3 1.832842 1_555
O9 V26 1.751038 1_555
O9 V27 1.910989 1_555
O10 V10 1.768299 1_555
O10 V2 1.887047 1_555
O11 V15 1.764345 1_555
O11 V26 1.907124 1_555
O12 V16 1.610662 1_545
O13 V4 1.768267 1_555
O13 V7 1.813579 1_555
O14 V2 1.759688 1_555
O14 V20 1.865168 1_545
O15 V12 1.902716 1_555
O15 V9 1.904873 1_555
O15 V29 2.214342 1_555
O16 V22 1.763912 1_555
O16 V16 1.875672 1_555
O17 V20 1.779895 1_555
O17 V16 1.835433 1_455
O18 O5 1.236853 1_555
O19 V12 1.618914 1_555
O20 V4 1.646904 1_555
O20 V19 2.262398 1_555
O21 V21 1.823479 1_555
O21 V28 1.845424 1_555
O22 V5 1.806972 1_555
O22 V6 1.810604 1_545
O23 V15 1.606418 1_555
O24 V27 1.623361 1_655
O25 V13 1.776286 1_555
O25 V12 1.830326 1_555
O26 V14 1.671256 1_555
O26 V27 2.060914 1_555
O27 V21 1.626090 1_555
O28 V13 1.616452 1_555
O29 V13 1.774728 1_555
O29 V29 1.888081 1_555
O30 V24 1.772619 1_655
O30 V8 1.862746 1_555
O31 V17 1.694188 1_555
O31 V21 2.024145 1_555
O32 V18 1.720987 1_555
O32 V27 2.007867 1_655
O33 V22 1.695027 1_555
O33 V1 2.032070 1_555
O34 V8 1.779505 1_465
O34 V20 1.867455 1_555
O35 V17 1.769417 1_555
O35 V23 1.862019 1_555
O36 V6 1.801786 1_554
O36 V25 2.034367 1_555
O36 V9 2.151404 1_554
O37 V29 1.612775 1_554
O38 V24 1.627644 1_555
O39 V1 1.810065 1_555
O39 V23 2.036595 1_565
O39 V15 2.174142 1_655
O40 V9 1.591084 1_555
O41 V25 1.633022 1_555
O42 V5 1.733692 1_555
O42 V2 1.968272 1_555
O43 V22 1.790991 1_555
O43 V4 1.826734 1_555
O44 V5 1.690888 1_555
O44 V2 2.050549 1_555
O45 V6 1.729862 1_555
O45 V9 1.966576 1_555
O46 V10 1.740520 1_555
O46 V2 1.969050 1_555
O47 V24 1.784770 1_555
O47 V0 1.829221 1_555
O48 V25 1.645694 1_555
O49 V19 1.765577 1_555
O49 V25 1.869514 1_555
O50 V7 1.796271 1_555
O50 V24 1.826184 1_655
O51 V1 1.906814 1_455
O51 V15 1.967196 1_555
O51 V27 2.068552 1_555
O52 V21 1.773689 1_555
O52 V28 1.982026 1_555
O53 V0 1.763880 1_554
O53 V28 1.867962 1_555
O54 V10 1.770694 1_555
O54 V14 1.783610 1_555
O55 V28 1.614733 1_555
O56 V1 1.780607 1_555
O56 V8 1.924219 1_564
O57 V18 1.718090 1_555
O57 V23 2.016407 1_555
O58 V3 1.606754 1_555
O59 V11 1.689343 1_555
O59 V12 2.155008 1_555
O60 V22 1.763510 1_555
O60 V17 1.858317 1_565
O61 V8 1.741704 1_565
O61 V13 1.883297 1_555
O62 V14 1.767697 1_555
O62 V7 1.798534 1_455
O63 V14 1.725142 1_555
O63 V23 1.866712 1_455
O64 V7 1.602385 1_555
O65 V26 1.615552 1_555
O66 V19 1.695045 1_555
O66 V26 2.062251 1_555
O67 V17 1.708878 1_565
O67 V1 2.112393 1_555
O68 V0 1.603328 1_555
O69 V3 1.771379 1_555
O69 V29 1.861405 1_555
O70 V10 1.706080 1_555
O70 V19 2.007606 1_555
O71 V11 1.805261 1_555
O71 V9 1.841830 1_555
O72 V4 1.763680 1_555
O72 V3 1.829839 1_555
O73 V20 1.593519 1_555
O74 V6 1.671925 1_544
O74 V21 2.073054 1_555
