# generated using pymatgen
data_CrN2
_symmetry_space_group_name_H-M   'P 1'
_cell_length_a   9.18446900
_cell_length_b   9.18446900
_cell_length_c   10.17816100
_cell_angle_alpha   90.00000000
_cell_angle_beta   90.00000000
_cell_angle_gamma   90.00000000
_symmetry_Int_Tables_number   1
_chemical_formula_structural   CrN2
_chemical_formula_sum   'Cr12 N24'
_cell_volume   858.57338499
_cell_formula_units_Z   12
loop_
 _symmetry_equiv_pos_site_id
 _symmetry_equiv_pos_as_xyz
  1  'x, y, z'
loop_
 _atom_site_type_symbol
 _atom_site_label
 _atom_site_symmetry_multiplicity
 _atom_site_fract_x
 _atom_site_fract_y
 _atom_site_fract_z
 _atom_site_occupancy
  Cr  Cr0  1  0.86132400  0.13867600  0.75000000  1
  Cr  Cr1  1  0.13867600  0.86132400  0.25000000  1
  Cr  Cr2  1  0.63867600  0.63867600  0.50000000  1
  Cr  Cr3  1  0.36132400  0.36132400  0.00000000  1
  Cr  Cr4  1  0.87604600  0.41874000  0.56801400  1
  Cr  Cr5  1  0.12395400  0.58126000  0.06801400  1
  Cr  Cr6  1  0.91874000  0.62395400  0.31801400  1
  Cr  Cr7  1  0.08126000  0.37604600  0.81801400  1
  Cr  Cr8  1  0.58126000  0.12395400  0.93198600  1
  Cr  Cr9  1  0.41874000  0.87604600  0.43198600  1
  Cr  Cr10  1  0.62395400  0.91874000  0.68198600  1
  Cr  Cr11  1  0.37604600  0.08126000  0.18198600  1
  N  N0  1  0.96864200  0.49401600  0.42761800  1
  N  N1  1  0.03135800  0.50598400  0.92761800  1
  N  N2  1  0.99401600  0.53135800  0.17761800  1
  N  N3  1  0.00598400  0.46864200  0.67761800  1
  N  N4  1  0.50598400  0.03135800  0.07238200  1
  N  N5  1  0.49401600  0.96864200  0.57238200  1
  N  N6  1  0.53135800  0.99401600  0.82238200  1
  N  N7  1  0.46864200  0.00598400  0.32238200  1
  N  N8  1  0.68549500  0.47481800  0.56682800  1
  N  N9  1  0.31450500  0.52518200  0.06682800  1
  N  N10  1  0.97481800  0.81450500  0.31682800  1
  N  N11  1  0.02518200  0.18549500  0.81682800  1
  N  N12  1  0.52518200  0.31450500  0.93317200  1
  N  N13  1  0.47481800  0.68549500  0.43317200  1
  N  N14  1  0.81450500  0.97481800  0.68317200  1
  N  N15  1  0.18549500  0.02518200  0.18317200  1
  N  N16  1  0.84531700  0.23988100  0.59984200  1
  N  N17  1  0.15468300  0.76011900  0.09984200  1
  N  N18  1  0.73988100  0.65468300  0.34984200  1
  N  N19  1  0.26011900  0.34531700  0.84984200  1
  N  N20  1  0.76011900  0.15468300  0.90015800  1
  N  N21  1  0.23988100  0.84531700  0.40015800  1
  N  N22  1  0.65468300  0.73988100  0.65015800  1
  N  N23  1  0.34531700  0.26011900  0.15015800  1
loop_
_geom_bond_atom_site_label_1
_geom_bond_atom_site_label_2
_geom_bond_distance
_geom_bond_site_symmetry_2
Cr0 N11 1.706584 1_655
Cr0 N14 1.706584 1_545
Cr0 N16 1.794829 1_555
Cr0 N20 1.794829 1_555
Cr1 N15 1.706584 1_565
Cr1 N10 1.706584 1_455
Cr1 N21 1.794829 1_555
Cr1 N17 1.794829 1_555
Cr2 N13 1.706584 1_555
Cr2 N8 1.706584 1_555
Cr2 N18 1.794829 1_555
Cr2 N22 1.794829 1_555
Cr3 N12 1.706584 1_554
Cr3 N9 1.706584 1_555
Cr3 N23 1.794829 1_555
Cr3 N19 1.794829 1_554
Cr4 N3 1.696697 1_655
Cr4 N16 1.697982 1_555
Cr4 N0 1.800892 1_555
Cr4 N8 1.824364 1_555
Cr5 N2 1.696697 1_455
Cr5 N17 1.697982 1_555
Cr5 N1 1.800892 1_554
Cr5 N9 1.824364 1_555
Cr6 N0 1.696697 1_555
Cr6 N18 1.697982 1_555
Cr6 N2 1.800892 1_555
Cr6 N10 1.824364 1_555
Cr7 N1 1.696697 1_555
Cr7 N19 1.697982 1_555
Cr7 N3 1.800892 1_555
Cr7 N11 1.824364 1_555
Cr8 N6 1.696697 1_545
Cr8 N20 1.697982 1_555
Cr8 N4 1.800892 1_556
Cr8 N12 1.824364 1_555
Cr9 N7 1.696697 1_565
Cr9 N21 1.697982 1_555
Cr9 N5 1.800892 1_555
Cr9 N13 1.824364 1_555
Cr10 N5 1.696697 1_555
Cr10 N22 1.697982 1_555
Cr10 N6 1.800892 1_555
Cr10 N14 1.824364 1_555
Cr11 N4 1.696697 1_555
Cr11 N23 1.697982 1_555
Cr11 N7 1.800892 1_555
Cr11 N15 1.824364 1_555
