# generated using pymatgen
data_Lu2Mn(GeO3)4
_symmetry_space_group_name_H-M   'P 1'
_cell_length_a   4.98190500
_cell_length_b   9.93267212
_cell_length_c   9.93267212
_cell_angle_alpha   90.28220271
_cell_angle_beta   90.00000000
_cell_angle_gamma   90.00000000
_symmetry_Int_Tables_number   1
_chemical_formula_structural   Lu2Mn(GeO3)4
_chemical_formula_sum   'Lu4 Mn2 Ge8 O24'
_cell_volume   491.49869939
_cell_formula_units_Z   2
loop_
 _symmetry_equiv_pos_site_id
 _symmetry_equiv_pos_as_xyz
  1  'x, y, z'
loop_
 _atom_site_type_symbol
 _atom_site_label
 _atom_site_symmetry_multiplicity
 _atom_site_fract_x
 _atom_site_fract_y
 _atom_site_fract_z
 _atom_site_occupancy
  Lu  Lu0  1  0.50000000  0.00000000  0.50000000  1
  Lu  Lu1  1  0.50000000  0.50000000  0.00000000  1
  Lu  Lu2  1  0.50000000  0.75000000  0.75000000  1
  Lu  Lu3  1  0.50000000  0.25000000  0.25000000  1
  Mn  Mn0  1  0.50000000  0.50000000  0.50000000  1
  Mn  Mn1  1  0.50000000  0.00000000  0.00000000  1
  Ge  Ge0  1  0.99606400  0.74758500  0.48076100  1
  Ge  Ge1  1  0.00393600  0.25241500  0.51923900  1
  Ge  Ge2  1  0.00393600  0.24758500  0.98076100  1
  Ge  Ge3  1  0.99606400  0.75241500  0.01923900  1
  Ge  Ge4  1  0.00393600  0.48076100  0.74758500  1
  Ge  Ge5  1  0.99606400  0.51923900  0.25241500  1
  Ge  Ge6  1  0.99606400  0.98076100  0.24758500  1
  Ge  Ge7  1  0.00393600  0.01923900  0.75241500  1
  O  O0  1  0.83315300  0.36922500  0.63077500  1
  O  O1  1  0.82579900  0.87512400  0.37512400  1
  O  O2  1  0.82579900  0.62487600  0.12487600  1
  O  O3  1  0.83315300  0.13077500  0.86922500  1
  O  O4  1  0.16684700  0.63077500  0.36922500  1
  O  O5  1  0.17420100  0.12487600  0.62487600  1
  O  O6  1  0.17420100  0.37512400  0.87512400  1
  O  O7  1  0.16684700  0.86922500  0.13077500  1
  O  O8  1  0.26157400  0.56770800  0.66833900  1
  O  O9  1  0.25758200  0.06401700  0.33175600  1
  O  O10  1  0.25758200  0.43598300  0.16824400  1
  O  O11  1  0.26157400  0.93229200  0.83166100  1
  O  O12  1  0.73842600  0.43229200  0.33166100  1
  O  O13  1  0.74241800  0.93598300  0.66824400  1
  O  O14  1  0.74241800  0.56401700  0.83175600  1
  O  O15  1  0.73842600  0.06770800  0.16833900  1
  O  O16  1  0.73842600  0.66833900  0.56770800  1
  O  O17  1  0.74241800  0.33175600  0.06401700  1
  O  O18  1  0.74241800  0.16824400  0.43598300  1
  O  O19  1  0.73842600  0.83166100  0.93229200  1
  O  O20  1  0.26157400  0.33166100  0.43229200  1
  O  O21  1  0.25758200  0.66824400  0.93598300  1
  O  O22  1  0.25758200  0.83175600  0.56401700  1
  O  O23  1  0.26157400  0.16833900  0.06770800  1
loop_
_geom_bond_atom_site_label_1
_geom_bond_atom_site_label_2
_geom_bond_distance
_geom_bond_site_symmetry_2
Lu0 O22 2.160081 1_545
Lu0 O13 2.160081 1_545
Lu0 O9 2.160081 1_555
Lu0 O18 2.160081 1_555
Lu0 O1 2.386681 1_545
Lu0 O5 2.386681 1_555
Lu1 O14 2.160081 1_554
Lu1 O21 2.160081 1_554
Lu1 O17 2.160081 1_555
Lu1 O10 2.160081 1_555
Lu1 O2 2.386681 1_555
Lu1 O6 2.386681 1_554
Lu2 O19 2.309282 1_555
Lu2 O16 2.309282 1_555
Lu2 O8 2.309282 1_555
Lu2 O11 2.309282 1_555
Lu2 O14 2.354847 1_555
Lu2 O21 2.354847 1_555
Lu2 O22 2.354847 1_555
Lu2 O13 2.354847 1_555
Lu3 O23 2.309282 1_555
Lu3 O20 2.309282 1_555
Lu3 O15 2.309282 1_555
Lu3 O12 2.309282 1_555
Lu3 O18 2.354847 1_555
Lu3 O10 2.354847 1_555
Lu3 O17 2.354847 1_555
Lu3 O9 2.354847 1_555
Mn0 O16 2.155896 1_555
Mn0 O20 2.155896 1_555
Mn0 O8 2.155896 1_555
Mn0 O12 2.155896 1_555
Mn0 O4 2.479085 1_555
Mn0 O0 2.479085 1_555
Mn1 O15 2.155896 1_555
Mn1 O23 2.155896 1_555
Mn1 O19 2.155896 1_544
Mn1 O11 2.155896 1_544
Mn1 O3 2.479085 1_554
Mn1 O7 2.479085 1_545
Ge0 O16 1.737682 1_555
Ge0 O22 1.753126 1_655
Ge0 O4 1.812380 1_655
Ge0 O1 1.854277 1_555
Ge1 O20 1.737682 1_555
Ge1 O18 1.753126 1_455
Ge1 O0 1.812380 1_455
Ge1 O5 1.854277 1_555
Ge2 O23 1.737682 1_556
Ge2 O17 1.753126 1_456
Ge2 O3 1.812380 1_455
Ge2 O6 1.854277 1_555
Ge3 O19 1.737682 1_554
Ge3 O21 1.753126 1_654
Ge3 O7 1.812380 1_655
Ge3 O2 1.854277 1_555
Ge4 O8 1.737682 1_555
Ge4 O14 1.753126 1_455
Ge4 O0 1.812380 1_455
Ge4 O6 1.854277 1_555
Ge5 O12 1.737682 1_555
Ge5 O10 1.753126 1_655
Ge5 O4 1.812380 1_655
Ge5 O2 1.854277 1_555
Ge6 O15 1.737682 1_565
Ge6 O9 1.753126 1_665
Ge6 O7 1.812380 1_655
Ge6 O1 1.854277 1_555
Ge7 O11 1.737682 1_545
Ge7 O13 1.753126 1_445
Ge7 O3 1.812380 1_455
Ge7 O5 1.854277 1_555
