# generated using pymatgen
data_MgMo2O5
_symmetry_space_group_name_H-M   'P 1'
_cell_length_a   5.57621572
_cell_length_b   5.57621572
_cell_length_c   11.79985500
_cell_angle_alpha   90.00000000
_cell_angle_beta   90.00000000
_cell_angle_gamma   138.83564932
_symmetry_Int_Tables_number   1
_chemical_formula_structural   MgMo2O5
_chemical_formula_sum   'Mg2 Mo4 O10'
_cell_volume   241.50585074
_cell_formula_units_Z   2
loop_
 _symmetry_equiv_pos_site_id
 _symmetry_equiv_pos_as_xyz
  1  'x, y, z'
loop_
 _atom_site_type_symbol
 _atom_site_label
 _atom_site_symmetry_multiplicity
 _atom_site_fract_x
 _atom_site_fract_y
 _atom_site_fract_z
 _atom_site_occupancy
  Mg  Mg0  1  0.10894200  0.89105800  0.75000000  1
  Mg  Mg1  1  0.89105800  0.10894200  0.25000000  1
  Mo  Mo0  1  0.80118700  0.19881300  0.59779500  1
  Mo  Mo1  1  0.19881300  0.80118700  0.40220500  1
  Mo  Mo2  1  0.19881300  0.80118700  0.09779500  1
  Mo  Mo3  1  0.80118700  0.19881300  0.90220500  1
  O  O0  1  0.29963000  0.70037000  0.25000000  1
  O  O1  1  0.70037000  0.29963000  0.75000000  1
  O  O2  1  0.76519100  0.23480900  0.07961700  1
  O  O3  1  0.23480900  0.76519100  0.92038300  1
  O  O4  1  0.23480900  0.76519100  0.57961700  1
  O  O5  1  0.76519100  0.23480900  0.42038300  1
  O  O6  1  0.97068300  0.02931700  0.63401100  1
  O  O7  1  0.02931700  0.97068300  0.36598900  1
  O  O8  1  0.97068300  0.02931700  0.86598900  1
  O  O9  1  0.02931700  0.97068300  0.13401100  1
loop_
_geom_bond_atom_site_label_1
_geom_bond_atom_site_label_2
_geom_bond_distance
_geom_bond_site_symmetry_2
Mg0 O8 1.989198 1_465
Mg0 O6 1.989198 1_465
Mg0 O1 2.180377 1_455
Mg0 O1 2.180377 1_565
Mg0 O3 2.401875 1_555
Mg0 O4 2.401875 1_555
Mg1 O9 1.989198 1_645
Mg1 O7 1.989198 1_645
Mg1 O0 2.180377 1_545
Mg1 O0 2.180377 1_655
Mg1 O5 2.401875 1_555
Mg1 O2 2.401875 1_555
Mo0 O6 1.820501 1_555
Mo0 O1 2.081716 1_555
Mo0 O4 2.090251 1_655
Mo0 O4 2.090251 1_545
Mo0 O5 2.126902 1_555
Mo1 O7 1.820501 1_555
Mo1 O0 2.081716 1_555
Mo1 O5 2.090251 1_565
Mo1 O5 2.090251 1_455
Mo1 O4 2.126902 1_555
Mo2 O9 1.820501 1_555
Mo2 O0 2.081716 1_555
Mo2 O2 2.090251 1_565
Mo2 O2 2.090251 1_455
Mo2 O3 2.126902 1_554
Mo3 O8 1.820501 1_555
Mo3 O1 2.081716 1_555
Mo3 O3 2.090251 1_655
Mo3 O3 2.090251 1_545
Mo3 O2 2.126902 1_556
