# generated using pymatgen
data_Er3GaNiS7
_symmetry_space_group_name_H-M   'P 1'
_cell_length_a   9.47937426
_cell_length_b   9.47937426
_cell_length_c   6.16296600
_cell_angle_alpha   90.00000000
_cell_angle_beta   90.00000000
_cell_angle_gamma   120.00000184
_symmetry_Int_Tables_number   1
_chemical_formula_structural   Er3GaNiS7
_chemical_formula_sum   'Er6 Ga2 Ni2 S14'
_cell_volume   479.60062036
_cell_formula_units_Z   2
loop_
 _symmetry_equiv_pos_site_id
 _symmetry_equiv_pos_as_xyz
  1  'x, y, z'
loop_
 _atom_site_type_symbol
 _atom_site_label
 _atom_site_symmetry_multiplicity
 _atom_site_fract_x
 _atom_site_fract_y
 _atom_site_fract_z
 _atom_site_occupancy
  Er  Er0  1  0.84326600  0.62468500  0.67777300  1
  Er  Er1  1  0.78141900  0.15673400  0.67777300  1
  Er  Er2  1  0.37531500  0.21858100  0.67777300  1
  Er  Er3  1  0.15673400  0.37531500  0.17777300  1
  Er  Er4  1  0.21858100  0.84326600  0.17777300  1
  Er  Er5  1  0.62468500  0.78141900  0.17777300  1
  Ga  Ga0  1  0.33333300  0.66666700  0.60604600  1
  Ga  Ga1  1  0.66666700  0.33333300  0.10604600  1
  Ni  Ni0  1  0.00000000  0.00000000  0.00634900  1
  Ni  Ni1  1  0.00000000  0.00000000  0.50634900  1
  S  S0  1  0.56522800  0.48006700  0.94519100  1
  S  S1  1  0.91483900  0.43477200  0.94519100  1
  S  S2  1  0.51993300  0.08516100  0.94519100  1
  S  S3  1  0.43477200  0.51993300  0.44519100  1
  S  S4  1  0.08516100  0.56522800  0.44519100  1
  S  S5  1  0.48006700  0.91483900  0.44519100  1
  S  S6  1  0.33333300  0.66666700  0.97352800  1
  S  S7  1  0.66666700  0.33333300  0.47352800  1
  S  S8  1  0.13081000  0.89775700  0.77089100  1
  S  S9  1  0.76694700  0.86919000  0.77089100  1
  S  S10  1  0.10224300  0.23305300  0.77089100  1
  S  S11  1  0.86919000  0.10224300  0.27089100  1
  S  S12  1  0.23305300  0.13081000  0.27089100  1
  S  S13  1  0.89775700  0.76694700  0.27089100  1
loop_
_geom_bond_atom_site_label_1
_geom_bond_atom_site_label_2
_geom_bond_distance
_geom_bond_site_symmetry_2
Er0 S7 2.718674 1_555
Er0 S8 2.721006 1_655
Er0 S1 2.763847 1_555
Er0 S13 2.770720 1_555
Er0 S9 2.810963 1_555
Er0 S0 2.815831 1_555
Er0 S4 2.987067 1_655
Er1 S7 2.718667 1_555
Er1 S9 2.721006 1_545
Er1 S2 2.763847 1_555
Er1 S11 2.770720 1_555
Er1 S10 2.810963 1_655
Er1 S1 2.815831 1_555
Er1 S5 2.987067 1_545
Er2 S7 2.718675 1_555
Er2 S10 2.721006 1_555
Er2 S0 2.763847 1_555
Er2 S12 2.770720 1_555
Er2 S8 2.810962 1_545
Er2 S2 2.815831 1_555
Er2 S3 2.987067 1_555
Er3 S6 2.718674 1_554
Er3 S11 2.721006 1_455
Er3 S4 2.763847 1_555
Er3 S10 2.770720 1_554
Er3 S12 2.810963 1_555
Er3 S3 2.815831 1_555
Er3 S1 2.987067 1_454
Er4 S6 2.718667 1_554
Er4 S12 2.721006 1_565
Er4 S5 2.763847 1_555
Er4 S8 2.770720 1_554
Er4 S13 2.810963 1_455
Er4 S4 2.815831 1_555
Er4 S2 2.987067 1_564
Er5 S6 2.718675 1_554
Er5 S13 2.721006 1_555
Er5 S3 2.763847 1_555
Er5 S9 2.770720 1_554
Er5 S11 2.810962 1_565
Er5 S5 2.815831 1_555
Er5 S0 2.987067 1_554
Ga0 S6 2.264779 1_555
Ga0 S4 2.275873 1_555
Ga0 S5 2.275873 1_555
Ga0 S3 2.275880 1_555
Ga1 S7 2.264779 1_555
Ga1 S1 2.275873 1_554
Ga1 S2 2.275873 1_554
Ga1 S0 2.275880 1_554
Ni0 S9 2.405097 1_444
Ni0 S10 2.405097 1_554
Ni0 S8 2.405097 1_544
Ni0 S12 2.517306 1_555
Ni0 S13 2.517306 1_445
Ni0 S11 2.517306 1_455
Ni1 S12 2.405097 1_555
Ni1 S13 2.405097 1_445
Ni1 S11 2.405097 1_455
Ni1 S9 2.517306 1_445
Ni1 S10 2.517306 1_555
Ni1 S8 2.517306 1_545
