# generated using pymatgen
data_Nb5V3S20
_symmetry_space_group_name_H-M   'P 1'
_cell_length_a   9.68489912
_cell_length_b   9.68489912
_cell_length_c   10.40374794
_cell_angle_alpha   64.06390586
_cell_angle_beta   64.06390586
_cell_angle_gamma   40.97018113
_symmetry_Int_Tables_number   1
_chemical_formula_structural   Nb5V3S20
_chemical_formula_sum   'Nb5 V3 S20'
_cell_volume   565.80809863
_cell_formula_units_Z   1
loop_
 _symmetry_equiv_pos_site_id
 _symmetry_equiv_pos_as_xyz
  1  'x, y, z'
loop_
 _atom_site_type_symbol
 _atom_site_label
 _atom_site_symmetry_multiplicity
 _atom_site_fract_x
 _atom_site_fract_y
 _atom_site_fract_z
 _atom_site_occupancy
  Nb  Nb0  1  0.33512742  0.83420952  0.86559381  1
  Nb  Nb1  1  0.83420952  0.33512742  0.86559381  1
  Nb  Nb2  1  0.16349256  0.16349256  0.13821143  1
  Nb  Nb3  1  0.66425347  0.66425347  0.13873536  1
  Nb  Nb4  1  0.80189719  0.80189719  0.58720520  1
  V  V0  1  0.29141347  0.29141347  0.60789891  1
  V  V1  1  0.68493038  0.22831360  0.39612554  1
  V  V2  1  0.22831360  0.68493038  0.39612554  1
  S  S0  1  0.96693846  0.96693846  0.97908272  1
  S  S1  1  0.46690381  0.46690381  0.97992796  1
  S  S2  1  0.53133463  0.03177398  0.02383054  1
  S  S3  1  0.03177398  0.53133463  0.02383054  1
  S  S4  1  0.12748663  0.62021074  0.65132530  1
  S  S5  1  0.62021074  0.12748663  0.65132530  1
  S  S6  1  0.38022940  0.38022940  0.34219728  1
  S  S7  1  0.88227174  0.88227174  0.33853117  1
  S  S8  1  0.02392774  0.02392774  0.75823069  1
  S  S9  1  0.52372683  0.52372683  0.75889279  1
  S  S10  1  0.47414699  0.97536526  0.24495404  1
  S  S11  1  0.97536526  0.47414699  0.24495404  1
  S  S12  1  0.31383203  0.81100050  0.13406183  1
  S  S13  1  0.81100050  0.31383203  0.13406183  1
  S  S14  1  0.18648322  0.18648322  0.86888269  1
  S  S15  1  0.68624261  0.68624261  0.87013193  1
  S  S16  1  0.44673758  0.95154337  0.59571812  1
  S  S17  1  0.95154337  0.44673758  0.59571812  1
  S  S18  1  0.04503379  0.04503379  0.39862354  1
  S  S19  1  0.55117408  0.55117408  0.41022897  1
loop_
_geom_bond_atom_site_label_1
_geom_bond_atom_site_label_2
_geom_bond_distance
_geom_bond_site_symmetry_2
Nb0 S15 2.518282 1_555
Nb0 S14 2.521043 1_565
Nb0 S9 2.542184 1_555
Nb0 S1 2.543404 1_555
Nb0 S0 2.546508 1_455
Nb0 S8 2.548410 1_565
Nb0 S16 2.598504 1_555
Nb0 S12 2.628927 1_556
Nb1 S15 2.518282 1_555
Nb1 S14 2.521043 1_655
Nb1 S9 2.542184 1_555
Nb1 S1 2.543404 1_555
Nb1 S0 2.546508 1_545
Nb1 S8 2.548410 1_655
Nb1 S17 2.598504 1_555
Nb1 S13 2.628927 1_556
Nb2 S13 2.518729 1_455
Nb2 S12 2.518729 1_545
Nb2 S10 2.545521 1_545
Nb2 S11 2.545521 1_455
Nb2 S3 2.547873 1_555
Nb2 S2 2.547873 1_555
Nb2 S18 2.553891 1_555
Nb2 S14 2.633226 1_554
Nb3 S13 2.517982 1_555
Nb3 S12 2.517982 1_555
Nb3 S10 2.538736 1_555
Nb3 S11 2.538736 1_555
Nb3 S3 2.541712 1_655
Nb3 S2 2.541712 1_565
Nb3 S19 2.603136 1_555
Nb3 S15 2.631953 1_554
Nb4 S7 2.301515 1_555
Nb4 S4 2.432873 1_655
Nb4 S5 2.432873 1_565
Nb4 S16 2.501493 1_555
Nb4 S17 2.501493 1_555
Nb4 S15 2.701854 1_555
S0 S8 2.032246 1_665
S1 S9 2.034009 1_555
S4 V2 2.365657 1_555
S4 V0 2.421051 1_555
S5 V1 2.365657 1_555
S5 V0 2.421051 1_555
S6 V2 2.314639 1_555
S6 V1 2.314639 1_555
S6 V0 2.465479 1_555
S7 V2 2.515121 1_655
S7 V1 2.515121 1_565
S10 S2 2.034842 1_565
S11 S3 2.034842 1_655
S12 V2 2.500030 1_555
S13 V1 2.500030 1_555
S14 V0 2.483962 1_555
S16 V0 2.415455 1_565
S17 V0 2.415455 1_655
S18 V2 2.450528 1_545
S18 V1 2.450528 1_455
S19 V1 2.365418 1_555
S19 V2 2.365418 1_555
