# generated using pymatgen
data_CaO
_symmetry_space_group_name_H-M   'P 1'
_cell_length_a   11.45770671
_cell_length_b   12.55290998
_cell_length_c   11.68367069
_cell_angle_alpha   84.80702766
_cell_angle_beta   82.59485791
_cell_angle_gamma   92.61410986
_symmetry_Int_Tables_number   1
_chemical_formula_structural   CaO
_chemical_formula_sum   'Ca50 O50'
_cell_volume   1656.78536730
_cell_formula_units_Z   50
loop_
 _symmetry_equiv_pos_site_id
 _symmetry_equiv_pos_as_xyz
  1  'x, y, z'
loop_
 _atom_site_type_symbol
 _atom_site_label
 _atom_site_symmetry_multiplicity
 _atom_site_fract_x
 _atom_site_fract_y
 _atom_site_fract_z
 _atom_site_occupancy
  Ca  Ca0  1  0.55130402  0.02935745  0.26703626  1
  Ca  Ca1  1  0.22596994  0.95707127  0.70355455  1
  Ca  Ca2  1  0.29426707  0.06098664  0.93221893  1
  Ca  Ca3  1  0.18817142  0.46800035  0.83733859  1
  Ca  Ca4  1  0.50773818  0.83082012  0.08275162  1
  Ca  Ca5  1  0.59871980  0.87304129  0.48824174  1
  Ca  Ca6  1  0.22559218  0.17556675  0.41058825  1
  Ca  Ca7  1  0.29751919  0.92117025  0.44572025  1
  Ca  Ca8  1  0.47946606  0.52122130  0.79800034  1
  Ca  Ca9  1  0.90910422  0.78949177  0.00150046  1
  Ca  Ca10  1  0.44740688  0.56503454  0.06762829  1
  Ca  Ca11  1  0.41049228  0.70492439  0.31301373  1
  Ca  Ca12  1  0.31898719  0.39570954  0.54865946  1
  Ca  Ca13  1  0.68597878  0.38556225  0.52994472  1
  Ca  Ca14  1  0.49241052  0.11280656  0.53053351  1
  Ca  Ca15  1  0.99207788  0.57743900  0.98379293  1
  Ca  Ca16  1  0.12120164  0.69677120  0.47251486  1
  Ca  Ca17  1  0.74000990  0.18151020  0.71562075  1
  Ca  Ca18  1  0.50257590  0.91048761  0.76277074  1
  Ca  Ca19  1  0.99680559  0.93924028  0.52849405  1
  Ca  Ca20  1  0.95566705  0.34194619  0.09065061  1
  Ca  Ca21  1  0.36020383  0.73667702  0.64582056  1
  Ca  Ca22  1  0.48344738  0.40335392  0.32912740  1
  Ca  Ca23  1  0.02417290  0.74429959  0.74202709  1
  Ca  Ca24  1  0.27265110  0.36243561  0.08188490  1
  Ca  Ca25  1  0.70319824  0.54010314  0.10500966  1
  Ca  Ca26  1  0.71029349  0.76598799  0.22780854  1
  Ca  Ca27  1  0.79668528  0.08182030  0.08518950  1
  Ca  Ca28  1  0.76339507  0.48944744  0.81577561  1
  Ca  Ca29  1  0.98765450  0.41309263  0.57256355  1
  Ca  Ca30  1  0.57363904  0.07056641  0.94694080  1
  Ca  Ca31  1  0.06167424  0.37625389  0.32946019  1
  Ca  Ca32  1  0.45558349  0.26508852  0.76982732  1
  Ca  Ca33  1  0.24285431  0.87150963  0.13103118  1
  Ca  Ca34  1  0.64928545  0.72107382  0.84420793  1
  Ca  Ca35  1  0.14977683  0.62731129  0.19862470  1
  Ca  Ca36  1  0.83810900  0.11179737  0.42041191  1
  Ca  Ca37  1  0.05154833  0.16415827  0.65271311  1
  Ca  Ca38  1  0.98061749  0.86509230  0.23400285  1
  Ca  Ca39  1  0.79703941  0.94779808  0.77494718  1
  Ca  Ca40  1  0.70732034  0.28472765  0.24050631  1
  Ca  Ca41  1  0.87505364  0.27522656  0.89020406  1
  Ca  Ca42  1  0.57997891  0.59357924  0.46540117  1
  Ca  Ca43  1  0.37650645  0.15067953  0.15827583  1
  Ca  Ca44  1  0.03007602  0.03454702  0.92909482  1
  Ca  Ca45  1  0.28221086  0.71789927  0.92105054  1
  Ca  Ca46  1  0.78165117  0.70374335  0.58234010  1
  Ca  Ca47  1  0.57711920  0.32663528  0.00404818  1
  Ca  Ca48  1  0.04706203  0.12302350  0.19165266  1
  Ca  Ca49  1  0.85706760  0.55583334  0.33299367  1
  O  O0  1  0.38707354  0.09059872  0.35539623  1
  O  O1  1  0.07885240  0.76178476  0.09291795  1
  O  O2  1  0.16006394  0.03998698  0.53882667  1
  O  O3  1  0.84892423  0.65804457  0.86499893  1
  O  O4  1  0.32386126  0.50338017  0.95206508  1
  O  O5  1  0.76197311  0.37110705  0.06295610  1
  O  O6  1  0.97160652  0.99892504  0.34700427  1
  O  O7  1  0.45851667  0.70060598  0.79979065  1
  O  O8  1  0.97192305  0.89555449  0.82723098  1
  O  O9  1  0.98939348  0.42418354  0.90226367  1
  O  O10  1  0.64062961  0.32586941  0.80385881  1
  O  O11  1  0.44855684  0.38652283  0.15046834  1
  O  O12  1  0.19141045  0.23644480  0.23207885  1
  O  O13  1  0.31421091  0.89783514  0.86041733  1
  O  O14  1  0.14217900  0.31196439  0.50878089  1
  O  O15  1  0.47481759  0.73068917  0.48729715  1
  O  O16  1  0.77548770  0.10014204  0.88753811  1
  O  O17  1  0.54693469  0.85778327  0.27158624  1
  O  O18  1  0.53903240  0.10116502  0.74659251  1
  O  O19  1  0.68463342  0.83612983  0.66466306  1
  O  O20  1  0.64992697  0.06295523  0.41736446  1
  O  O21  1  0.42431584  0.93494007  0.58876019  1
  O  O22  1  0.39923320  0.22220920  0.96716207  1
  O  O23  1  0.91008494  0.28713280  0.70187491  1
  O  O24  1  0.57127716  0.66002666  0.16489451  1
  O  O25  1  0.17046642  0.10570289  0.79213667  1
  O  O26  1  0.87530385  0.06644883  0.61182246  1
  O  O27  1  0.62281645  0.88488172  0.91480811  1
  O  O28  1  0.34686602  0.41760040  0.72261660  1
  O  O29  1  0.67034152  0.45425429  0.33580315  1
  O  O30  1  0.22138712  0.79929322  0.32394593  1
  O  O31  1  0.14032257  0.01111619  0.07944336  1
  O  O32  1  0.14108886  0.63844538  0.83519328  1
  O  O33  1  0.87191539  0.37952503  0.44629566  1
  O  O34  1  0.09149561  0.46086447  0.14281477  1
  O  O35  1  0.68164947  0.53723987  0.63203632  1
  O  O36  1  0.96626256  0.17721603  0.02044117  1
  O  O37  1  0.60752699  0.53557376  0.93359320  1
  O  O38  1  0.33797881  0.71104161  0.10831766  1
  O  O39  1  0.96303019  0.75709567  0.56377028  1
  O  O40  1  0.39300274  0.53033445  0.41275790  1
  O  O41  1  0.05551070  0.55584727  0.38246340  1
  O  O42  1  0.48971889  0.29951288  0.51566875  1
  O  O43  1  0.61332897  0.16017041  0.12248169  1
  O  O44  1  0.19538146  0.80361093  0.60228170  1
  O  O45  1  0.84042126  0.90807534  0.12586137  1
  O  O46  1  0.75065275  0.70048219  0.39994777  1
  O  O47  1  0.88018968  0.22108957  0.25110986  1
  O  O48  1  0.41545444  0.99139424  0.08370000  1
  O  O49  1  0.85313302  0.63804631  0.14572202  1
loop_
_geom_bond_atom_site_label_1
_geom_bond_atom_site_label_2
_geom_bond_distance
_geom_bond_site_symmetry_2
Ca0 O17 2.147731 1_545
Ca0 O0 2.229901 1_555
Ca0 O43 2.266293 1_555
Ca0 O20 2.267567 1_555
Ca0 O48 2.866141 1_545
Ca1 O13 2.287696 1_555
Ca1 O25 2.290143 1_565
Ca1 O2 2.332690 1_565
Ca1 O44 2.385733 1_555
Ca1 O21 2.525878 1_555
Ca2 O13 2.292309 1_545
Ca2 O31 2.320378 1_556
Ca2 O25 2.347467 1_555
Ca2 O22 2.400630 1_555
Ca2 O48 2.507546 1_546
Ca3 O32 2.229016 1_555
Ca3 O4 2.234507 1_555
Ca3 O28 2.265659 1_555
Ca3 O9 2.330236 1_455
Ca4 O27 2.249380 1_554
Ca4 O48 2.318729 1_555
Ca4 O17 2.358103 1_555
Ca4 O38 2.373888 1_555
Ca4 O24 2.449006 1_555
Ca5 O15 2.232672 1_555
Ca5 O21 2.382852 1_555
Ca5 O19 2.413331 1_555
Ca5 O20 2.470450 1_565
Ca5 O17 2.694611 1_555
Ca5 O46 3.012013 1_555
Ca6 O2 2.199318 1_555
Ca6 O0 2.230177 1_555
Ca6 O12 2.244244 1_555
Ca6 O14 2.320214 1_555
Ca7 O21 2.364055 1_555
Ca7 O44 2.386480 1_555
Ca7 O30 2.391238 1_555
Ca7 O0 2.409445 1_565
Ca7 O2 2.440216 1_565
Ca8 O28 2.268913 1_555
Ca8 O7 2.277101 1_555
Ca8 O37 2.306921 1_555
Ca8 O4 2.352085 1_555
Ca8 O35 2.809965 1_555
Ca9 O45 2.269351 1_555
Ca9 O8 2.341047 1_554
Ca9 O1 2.361029 1_655
Ca9 O49 2.427980 1_555
Ca9 O3 2.529358 1_554
Ca10 O4 2.237791 1_554
Ca10 O24 2.287872 1_555
Ca10 O38 2.317523 1_555
Ca10 O37 2.319726 1_554
Ca10 O11 2.360445 1_555
Ca11 O15 2.297504 1_555
Ca11 O40 2.374622 1_555
Ca11 O17 2.392346 1_555
Ca11 O24 2.481089 1_555
Ca11 O30 2.510860 1_555
Ca11 O38 2.626922 1_555
Ca12 O28 2.137493 1_555
Ca12 O40 2.265546 1_555
Ca12 O42 2.353467 1_555
Ca12 O14 2.358781 1_555
Ca13 O33 2.234050 1_555
Ca13 O35 2.335577 1_555
Ca13 O29 2.384439 1_555
Ca13 O42 2.481717 1_555
Ca14 O20 2.243834 1_555
Ca14 O42 2.336315 1_555
Ca14 O21 2.342220 1_545
Ca14 O0 2.535876 1_555
Ca14 O18 2.639516 1_555
Ca15 O9 2.223334 1_555
Ca15 O32 2.322010 1_655
Ca15 O3 2.474772 1_555
Ca15 O49 2.507446 1_556
Ca15 O34 2.663902 1_656
Ca15 O1 2.935984 1_656
Ca16 O39 2.183536 1_455
Ca16 O30 2.221317 1_555
Ca16 O41 2.285271 1_555
Ca16 O44 2.327243 1_555
Ca17 O16 2.262751 1_555
Ca17 O23 2.286076 1_555
Ca17 O10 2.422196 1_555
Ca17 O18 2.440913 1_555
Ca17 O26 2.448801 1_555
Ca18 O13 2.299132 1_555
Ca18 O21 2.326744 1_555
Ca18 O27 2.392617 1_555
Ca18 O18 2.397054 1_565
Ca18 O19 2.508254 1_555
Ca18 O7 2.645616 1_555
Ca19 O2 2.232269 1_665
Ca19 O6 2.242995 1_555
Ca19 O39 2.292389 1_555
Ca19 O26 2.360215 1_565
Ca20 O34 2.284537 1_655
Ca20 O36 2.295190 1_555
Ca20 O9 2.322216 1_554
Ca20 O5 2.324156 1_555
Ca20 O47 2.347706 1_555
Ca21 O15 2.137247 1_555
Ca21 O44 2.201388 1_555
Ca21 O7 2.265276 1_555
Ca21 O21 2.566072 1_555
Ca22 O40 2.177384 1_555
Ca22 O11 2.202020 1_555
Ca22 O29 2.219709 1_555
Ca22 O42 2.447264 1_555
Ca23 O32 2.240858 1_555
Ca23 O39 2.275960 1_455
Ca23 O8 2.290555 1_455
Ca23 O44 2.426805 1_555
Ca23 O3 2.458641 1_455
Ca24 O4 2.228292 1_554
Ca24 O11 2.280402 1_555
Ca24 O12 2.321509 1_555
Ca24 O34 2.520697 1_555
Ca24 O22 2.675344 1_554
Ca25 O49 2.193835 1_555
Ca25 O24 2.272890 1_555
Ca25 O5 2.330006 1_555
Ca25 O37 2.407646 1_554
Ca25 O29 2.783801 1_555
Ca26 O46 2.215861 1_555
Ca26 O24 2.265419 1_555
Ca26 O17 2.269225 1_555
Ca26 O45 2.395428 1_555
Ca26 O49 2.508322 1_555
Ca27 O36 2.241940 1_555
Ca27 O45 2.281924 1_545
Ca27 O16 2.344835 1_554
Ca27 O43 2.366600 1_555
Ca28 O37 2.241530 1_555
Ca28 O3 2.438564 1_555
Ca28 O10 2.460301 1_555
Ca28 O35 2.486386 1_555
Ca29 O23 2.160057 1_555
Ca29 O33 2.162958 1_555
Ca29 O14 2.310342 1_655
Ca29 O41 2.730591 1_655
Ca30 O16 2.330128 1_555
Ca30 O48 2.372232 1_546
Ca30 O18 2.423737 1_555
Ca30 O27 2.472879 1_545
Ca30 O43 2.507939 1_556
Ca30 O22 2.824750 1_555
Ca31 O34 2.314271 1_555
Ca31 O41 2.393087 1_555
Ca31 O33 2.417746 1_455
Ca31 O14 2.480248 1_555
Ca31 O12 2.597630 1_555
Ca32 O10 2.315201 1_555
Ca32 O22 2.319975 1_555
Ca32 O18 2.331472 1_555
Ca32 O28 2.392610 1_555
Ca32 O42 2.934380 1_555
Ca33 O31 2.234648 1_565
Ca33 O30 2.330123 1_555
Ca33 O38 2.353374 1_555
Ca33 O1 2.391030 1_555
Ca33 O48 2.403627 1_555
Ca34 O27 2.302184 1_555
Ca34 O7 2.319102 1_555
Ca34 O19 2.414481 1_555
Ca34 O37 2.463972 1_555
Ca34 O3 2.488120 1_555
Ca35 O1 2.245351 1_555
Ca35 O34 2.338431 1_555
Ca35 O41 2.355770 1_555
Ca35 O38 2.423619 1_555
Ca35 O30 2.863245 1_555
Ca36 O20 2.220190 1_555
Ca36 O6 2.272058 1_545
Ca36 O47 2.286920 1_555
Ca36 O26 2.354656 1_555
Ca37 O23 2.342819 1_455
Ca37 O25 2.344237 1_555
Ca37 O2 2.423174 1_555
Ca37 O26 2.437063 1_455
Ca37 O14 2.481550 1_555
Ca38 O45 2.224103 1_555
Ca38 O6 2.226733 1_555
Ca38 O1 2.389061 1_655
Ca38 O31 2.865730 1_665
Ca39 O8 2.276222 1_555
Ca39 O26 2.361922 1_565
Ca39 O16 2.421426 1_565
Ca39 O19 2.423634 1_555
Ca39 O27 2.461816 1_555
Ca40 O47 2.183182 1_555
Ca40 O5 2.251042 1_555
Ca40 O43 2.474976 1_555
Ca40 O29 2.517415 1_555
Ca41 O23 2.175416 1_555
Ca41 O9 2.259266 1_555
Ca41 O36 2.260421 1_556
Ca41 O16 2.434265 1_555
Ca41 O5 2.666280 1_556
Ca42 O15 2.160775 1_555
Ca42 O46 2.323597 1_555
Ca42 O40 2.423020 1_555
Ca42 O35 2.461333 1_555
Ca42 O29 2.581454 1_555
Ca43 O48 2.291911 1_545
Ca43 O22 2.307767 1_554
Ca43 O0 2.377701 1_555
Ca43 O12 2.511024 1_555
Ca43 O43 2.687163 1_555
Ca43 O11 3.027089 1_555
Ca44 O25 2.211910 1_555
Ca44 O36 2.268324 1_456
Ca44 O31 2.297862 1_556
Ca44 O8 2.319234 1_445
Ca45 O32 2.251135 1_555
Ca45 O13 2.303464 1_555
Ca45 O7 2.343700 1_555
Ca45 O38 2.352487 1_556
Ca45 O4 2.756009 1_555
Ca45 O1 2.979262 1_556
Ca46 O39 2.131897 1_555
Ca46 O46 2.208755 1_555
Ca46 O19 2.259365 1_555
Ca46 O35 2.325699 1_555
Ca47 O11 2.312097 1_555
Ca47 O10 2.359294 1_554
Ca47 O5 2.368277 1_555
Ca47 O22 2.478539 1_554
Ca47 O43 2.481332 1_555
Ca47 O37 2.670187 1_554
Ca48 O31 2.223313 1_555
Ca48 O12 2.256966 1_555
Ca48 O6 2.330126 1_445
Ca48 O36 2.368507 1_455
Ca48 O47 2.383432 1_455
Ca49 O49 2.339963 1_555
Ca49 O46 2.368286 1_555
Ca49 O41 2.417133 1_655
Ca49 O29 2.435102 1_555
Ca49 O33 2.498312 1_555
