# generated using pymatgen
data_U2NiAs2(HO)24
_symmetry_space_group_name_H-M   'P 1'
_cell_length_a   7.16599688
_cell_length_b   7.21504807
_cell_length_c   11.30425707
_cell_angle_alpha   82.30597955
_cell_angle_beta   84.69680711
_cell_angle_gamma   89.71970573
_symmetry_Int_Tables_number   1
_chemical_formula_structural   U2NiAs2(HO)24
_chemical_formula_sum   'U2 Ni1 As2 H24 O24'
_cell_volume   576.70648474
_cell_formula_units_Z   1
loop_
 _symmetry_equiv_pos_site_id
 _symmetry_equiv_pos_as_xyz
  1  'x, y, z'
loop_
 _atom_site_type_symbol
 _atom_site_label
 _atom_site_symmetry_multiplicity
 _atom_site_fract_x
 _atom_site_fract_y
 _atom_site_fract_z
 _atom_site_occupancy
  U  U0  1  0.22822400  0.72268800  0.58163700  1
  U  U1  1  0.77177600  0.27731200  0.41836300  1
  Ni  Ni0  1  0.00000000  0.00000000  0.00000000  1
  As  As0  1  0.74032200  0.75669300  0.49902600  1
  As  As1  1  0.25967800  0.24330700  0.50097400  1
  H  H0  1  0.71799000  0.81947700  0.92673000  1
  H  H1  1  0.28201000  0.18052300  0.07327000  1
  H  H2  1  0.34835900  0.91169100  0.90146900  1
  H  H3  1  0.65164100  0.08830900  0.09853100  1
  H  H4  1  0.82847800  0.05059600  0.80422000  1
  H  H5  1  0.17152200  0.94940400  0.19578000  1
  H  H6  1  0.90109600  0.24632200  0.82047800  1
  H  H7  1  0.09890400  0.75367800  0.17952200  1
  H  H8  1  0.56446100  0.90964500  0.72948200  1
  H  H9  1  0.43553900  0.09035500  0.27051800  1
  H  H10  1  0.82800300  0.54112100  0.73054800  1
  H  H11  1  0.17199700  0.45887900  0.26945200  1
  H  H12  1  0.62565000  0.65028300  0.25722100  1
  H  H13  1  0.37435000  0.34971700  0.74277900  1
  H  H14  1  0.73083300  0.72427800  0.05874100  1
  H  H15  1  0.26916700  0.27572200  0.94125900  1
  H  H16  1  0.46980800  0.90662900  0.20562100  1
  H  H17  1  0.53019200  0.09337100  0.79437900  1
  H  H18  1  0.19770100  0.78030100  0.87069700  1
  H  H19  1  0.80229900  0.21969900  0.12930300  1
  H  H20  1  0.54822100  0.38141800  0.81663700  1
  H  H21  1  0.45177900  0.61858200  0.18336300  1
  H  H22  1  0.82303700  0.53611300  0.87048400  1
  H  H23  1  0.17696300  0.46388700  0.12951600  1
  O  O0  1  0.91051800  0.68315300  0.59254600  1
  O  O1  1  0.08948200  0.31684700  0.40745400  1
  O  O2  1  0.57696200  0.96094000  0.80507400  1
  O  O3  1  0.42303800  0.03906000  0.19492600  1
  O  O4  1  0.43284500  0.30487100  0.81760800  1
  O  O5  1  0.56715500  0.69512900  0.18239200  1
  O  O6  1  0.19542700  0.68303200  0.74640000  1
  O  O7  1  0.80457400  0.31696800  0.25360000  1
  O  O8  1  0.79684600  0.96722100  0.41581600  1
  O  O9  1  0.20315400  0.03277900  0.58418400  1
  O  O10  1  0.78714400  0.46422700  0.80833200  1
  O  O11  1  0.21285600  0.53577300  0.19166800  1
  O  O12  1  0.74152100  0.25256500  0.58119500  1
  O  O13  1  0.25847900  0.74743500  0.41880500  1
  O  O14  1  0.54059300  0.77250200  0.59442500  1
  O  O15  1  0.45940700  0.22749800  0.40557500  1
  O  O16  1  0.06137700  0.88770300  0.17105700  1
  O  O17  1  0.93862300  0.11229700  0.82894300  1
  O  O18  1  0.80977400  0.76605400  0.98167400  1
  O  O19  1  0.19022600  0.23394600  0.01832600  1
  O  O20  1  0.71713100  0.59511000  0.40219300  1
  O  O21  1  0.28286900  0.40489000  0.59780700  1
  O  O22  1  0.22773600  0.85257600  0.93588000  1
  O  O23  1  0.77226400  0.14742400  0.06412000  1
loop_
_geom_bond_atom_site_label_1
_geom_bond_atom_site_label_2
_geom_bond_distance
_geom_bond_site_symmetry_2
Ni0 O22 2.071437 1_544
Ni0 O23 2.071437 1_455
Ni0 O16 2.079236 1_545
Ni0 O17 2.079236 1_454
Ni0 O19 2.217786 1_555
Ni0 O18 2.217786 1_444
As0 O8 1.705616 1_555
As0 O20 1.721107 1_555
As0 O0 1.722916 1_555
As0 O14 1.723516 1_555
As1 O9 1.705616 1_555
As1 O21 1.721107 1_555
As1 O1 1.722916 1_555
As1 O15 1.723516 1_555
H0 O18 0.987861 1_555
H1 O19 0.987861 1_555
H2 O22 0.988645 1_555
H3 O23 0.988645 1_555
H4 O17 0.988336 1_555
H5 O16 0.988336 1_555
H6 O17 0.996992 1_555
H7 O16 0.996992 1_555
H8 O2 0.987087 1_555
H9 O3 0.987087 1_555
H10 O10 0.995014 1_555
H11 O11 0.995014 1_555
H12 O5 0.993406 1_555
H13 O4 0.993406 1_555
H14 O18 1.005026 1_554
H15 O19 1.005026 1_556
H16 O3 1.006649 1_565
H17 O2 1.006649 1_545
H18 O22 0.997243 1_555
H18 O6 1.653916 1_555
H19 O23 0.997243 1_555
H19 O7 1.653917 1_555
H20 O4 0.994929 1_555
H21 O5 0.994929 1_555
H22 O10 0.980343 1_555
H23 O11 0.980343 1_555
O0 U0 2.285800 1_655
O1 U1 2.285800 1_455
O6 U0 1.839332 1_555
O7 U1 1.839332 1_555
O8 U1 2.247459 1_565
O9 U0 2.247459 1_545
O12 U1 1.818144 1_555
O13 U0 1.818144 1_555
O14 U0 2.289599 1_555
O15 U1 2.289599 1_555
O20 U1 2.310084 1_555
O21 U0 2.310084 1_555
