# generated using pymatgen
data_Na2Be3Si3O8
_symmetry_space_group_name_H-M   'P 1'
_cell_length_a   8.23335355
_cell_length_b   8.23335355
_cell_length_c   9.70773863
_cell_angle_alpha   56.63354681
_cell_angle_beta   56.63354681
_cell_angle_gamma   70.59576869
_symmetry_Int_Tables_number   1
_chemical_formula_structural   Na2Be3Si3O8
_chemical_formula_sum   'Na4 Be6 Si6 O16'
_cell_volume   458.59180444
_cell_formula_units_Z   2
loop_
 _symmetry_equiv_pos_site_id
 _symmetry_equiv_pos_as_xyz
  1  'x, y, z'
loop_
 _atom_site_type_symbol
 _atom_site_label
 _atom_site_symmetry_multiplicity
 _atom_site_fract_x
 _atom_site_fract_y
 _atom_site_fract_z
 _atom_site_occupancy
  Na  Na0  1  0.75470300  0.43596700  0.07143600  1
  Na  Na1  1  0.56403300  0.24529700  0.92856400  1
  Na  Na2  1  0.59521100  0.77889800  0.74209400  1
  Na  Na3  1  0.22110200  0.40478900  0.25790600  1
  Be  Be0  1  0.67840100  0.13285000  0.42636900  1
  Be  Be1  1  0.86715000  0.32159900  0.57363100  1
  Be  Be2  1  0.64622000  0.18291400  0.62938200  1
  Be  Be3  1  0.81708600  0.35378000  0.37061800  1
  Be  Be4  1  0.84678800  0.90141000  0.29376800  1
  Be  Be5  1  0.09859000  0.15321200  0.70623200  1
  Si  Si0  1  0.04183800  0.61109400  0.53009900  1
  Si  Si1  1  0.38890600  0.95816200  0.46990100  1
  Si  Si2  1  0.15845200  0.59214900  0.80127100  1
  Si  Si3  1  0.40785100  0.84154800  0.19872900  1
  Si  Si4  1  0.17309600  0.15089900  0.97434800  1
  Si  Si5  1  0.84910100  0.82690400  0.02565200  1
  O  O0  1  0.95648800  0.10753100  0.14946500  1
  O  O1  1  0.89246900  0.04351200  0.85053500  1
  O  O2  1  0.21084500  0.14548400  0.79709200  1
  O  O3  1  0.85451600  0.78915500  0.20290800  1
  O  O4  1  0.60821100  0.00183100  0.40538500  1
  O  O5  1  0.99816900  0.39178900  0.59461500  1
  O  O6  1  0.34385700  0.00452700  0.03780100  1
  O  O7  1  0.99547300  0.65614300  0.96219900  1
  O  O8  1  0.88259700  0.76813600  0.47767700  1
  O  O9  1  0.23186400  0.11740300  0.52232300  1
  O  O10  1  0.23533300  0.36987300  0.90651100  1
  O  O11  1  0.63012700  0.76466700  0.09348900  1
  O  O12  1  0.03897900  0.59584400  0.70868000  1
  O  O13  1  0.40415600  0.96102100  0.29132000  1
  O  O14  1  0.34271400  0.73432200  0.64800700  1
  O  O15  1  0.26567800  0.65728600  0.35199300  1
loop_
_geom_bond_atom_site_label_1
_geom_bond_atom_site_label_2
_geom_bond_distance
_geom_bond_site_symmetry_2
Na0 O7 2.510240 1_554
Na0 O0 2.606197 1_555
Na0 O11 2.640698 1_555
Na0 O12 2.737494 1_654
Na1 O6 2.510240 1_556
Na1 O1 2.606197 1_555
Na1 O10 2.640698 1_555
Na1 O13 2.737494 1_546
Na2 O8 2.371795 1_555
Na3 O9 2.371795 1_555
Be0 O4 1.524645 1_555
Be0 Be2 2.090638 1_555
Be0 Be3 2.126706 1_555
Be1 O5 1.524645 1_555
Be1 Be3 2.090638 1_555
Be1 Be2 2.126706 1_555
Be2 Be3 1.951652 1_555
Be2 Na1 2.899184 1_555
Be2 Na2 2.976202 1_545
Be3 Na0 2.899184 1_555
Be3 Na3 2.976202 1_655
Be4 O3 1.559545 1_555
Be4 O0 1.633978 1_565
Be4 O8 1.639371 1_555
Be4 O4 1.811413 1_565
Be5 O2 1.559545 1_555
Be5 O1 1.633978 1_455
Be5 O9 1.639371 1_555
Be5 O5 1.811413 1_455
O0 Si4 1.618188 1_654
O1 Si5 1.618188 1_546
O2 Si4 1.595769 1_555
O3 Si5 1.595769 1_555
O4 Si1 1.649700 1_545
O5 Si0 1.649700 1_655
O6 Si3 1.627435 1_545
O6 Si4 1.678890 1_554
O7 Si2 1.627435 1_655
O7 Si5 1.678890 1_556
O8 Si0 1.591686 1_655
O9 Si1 1.591686 1_545
O10 Si2 1.636646 1_555
O10 Si4 1.698040 1_555
O11 Si3 1.636646 1_555
O11 Si5 1.698040 1_555
O12 Si2 1.642880 1_555
O12 Si0 1.655111 1_555
O13 Si3 1.642880 1_555
O13 Si1 1.655111 1_555
O14 Si2 1.633041 1_555
O14 Si1 1.663706 1_555
O15 Si3 1.633041 1_555
O15 Si0 1.663706 1_555
