# generated using pymatgen
data_CaEuMnCoO6
_symmetry_space_group_name_H-M   'P 1'
_cell_length_a   9.56377167
_cell_length_b   9.56377167
_cell_length_c   8.88529823
_cell_angle_alpha   90.00000000
_cell_angle_beta   90.00000000
_cell_angle_gamma   90.00000000
_symmetry_Int_Tables_number   1
_chemical_formula_structural   CaEuMnCoO6
_chemical_formula_sum   'Ca4 Eu4 Mn4 Co4 O24'
_cell_volume   812.70027604
_cell_formula_units_Z   4
loop_
 _symmetry_equiv_pos_site_id
 _symmetry_equiv_pos_as_xyz
  1  'x, y, z'
loop_
 _atom_site_type_symbol
 _atom_site_label
 _atom_site_symmetry_multiplicity
 _atom_site_fract_x
 _atom_site_fract_y
 _atom_site_fract_z
 _atom_site_occupancy
  Ca  Ca0  1  0.50000000  0.50000000  0.00000000  1
  Ca  Ca1  1  0.00000000  0.00000000  0.50000000  1
  Ca  Ca2  1  0.50000000  0.00000000  0.00000000  1
  Ca  Ca3  1  0.00000000  0.50000000  0.00000000  1
  Eu  Eu0  1  0.00000000  -0.00000000  0.00000000  1
  Eu  Eu1  1  0.00000000  0.50000000  0.50000000  1
  Eu  Eu2  1  0.50000000  -0.00000000  0.50000000  1
  Eu  Eu3  1  0.50000000  0.50000000  0.50000000  1
  Mn  Mn0  1  0.25172900  0.74827100  0.25144479  1
  Mn  Mn1  1  0.25172900  0.25172900  0.74855521  1
  Mn  Mn2  1  0.74827100  0.74827100  0.74855521  1
  Mn  Mn3  1  0.74827100  0.25172900  0.25144479  1
  Co  Co0  1  0.74847740  0.25152260  0.74993407  1
  Co  Co1  1  0.74847740  0.74847740  0.25006593  1
  Co  Co2  1  0.25152260  0.25152260  0.25006593  1
  Co  Co3  1  0.25152260  0.74847740  0.74993407  1
  O  O0  1  0.24735974  0.75264026  0.00031588  1
  O  O1  1  0.24735974  0.24735974  0.99968412  1
  O  O2  1  0.75264026  0.75264026  0.99968412  1
  O  O3  1  0.75264026  0.24735974  0.00031588  1
  O  O4  1  0.25103054  0.50076896  0.25318556  1
  O  O5  1  0.74896946  0.49923104  0.25318556  1
  O  O6  1  0.25103054  0.49923104  0.74681444  1
  O  O7  1  0.74896946  0.50076896  0.74681444  1
  O  O8  1  0.49923104  0.74896946  0.25318556  1
  O  O9  1  0.50076896  0.74896946  0.74681444  1
  O  O10  1  0.50076896  0.25103054  0.25318556  1
  O  O11  1  0.49923104  0.25103054  0.74681444  1
  O  O12  1  0.25219180  0.74780820  0.49970077  1
  O  O13  1  0.25219180  0.25219180  0.50029923  1
  O  O14  1  0.74780820  0.74780820  0.50029923  1
  O  O15  1  0.74780820  0.25219180  0.49970077  1
  O  O16  1  0.24900934  0.99887940  0.24936428  1
  O  O17  1  0.75099066  0.00112060  0.24936428  1
  O  O18  1  0.24900934  0.00112060  0.75063572  1
  O  O19  1  0.75099066  0.99887940  0.75063572  1
  O  O20  1  0.00112060  0.75099066  0.24936428  1
  O  O21  1  0.99887940  0.75099066  0.75063572  1
  O  O22  1  0.99887940  0.24900934  0.24936428  1
  O  O23  1  0.00112060  0.24900934  0.75063572  1
loop_
_geom_bond_atom_site_label_1
_geom_bond_atom_site_label_2
_geom_bond_distance
_geom_bond_site_symmetry_2
Eu0 O16 3.252803 1_545
Eu0 O21 3.252803 1_444
Eu0 O18 3.252803 1_554
Eu0 O20 3.252803 1_545
Eu0 O22 3.252803 1_455
Eu0 O19 3.252803 1_444
Eu0 O17 3.252803 1_455
Eu0 O23 3.252803 1_554
Eu0 O2 3.345595 1_444
Eu0 O0 3.345595 1_545
Eu0 O3 3.345595 1_455
Eu0 O1 3.345595 1_554
Eu1 O5 3.251650 1_455
Eu1 O6 3.251650 1_555
Eu1 O7 3.251650 1_455
Eu1 O4 3.251650 1_555
Eu1 O23 3.274374 1_555
Eu1 O21 3.274374 1_455
Eu1 O22 3.274374 1_455
Eu1 O20 3.274374 1_555
Eu1 O12 3.381435 1_555
Eu1 O14 3.381435 1_455
Eu1 O13 3.381435 1_555
Eu1 O15 3.381435 1_455
Eu2 O10 3.251650 1_555
Eu2 O9 3.251650 1_545
Eu2 O8 3.251650 1_545
Eu2 O11 3.251650 1_555
Eu2 O17 3.274374 1_555
Eu2 O16 3.274374 1_545
Eu2 O18 3.274374 1_555
Eu2 O19 3.274374 1_545
Eu2 O15 3.381435 1_555
Eu2 O14 3.381435 1_545
Eu2 O13 3.381435 1_555
Eu2 O12 3.381435 1_545
Eu3 O8 3.237123 1_555
Eu3 O7 3.237123 1_555
Eu3 O5 3.237123 1_555
Eu3 O9 3.237123 1_555
Eu3 O10 3.237123 1_555
Eu3 O4 3.237123 1_555
Eu3 O11 3.237123 1_555
Eu3 O6 3.237123 1_555
Eu3 O14 3.351660 1_555
Eu3 O15 3.351660 1_555
Eu3 O12 3.351660 1_555
Eu3 O13 3.351660 1_555
Mn0 O12 2.205837 1_555
Mn0 O0 2.232138 1_555
Mn0 O4 2.367113 1_555
Mn0 O8 2.367113 1_555
Mn0 O16 2.396974 1_555
Mn0 O20 2.396974 1_555
Mn1 O13 2.205837 1_555
Mn1 O1 2.232138 1_555
Mn1 O11 2.367113 1_555
Mn1 O6 2.367113 1_555
Mn1 O23 2.396974 1_555
Mn1 O18 2.396974 1_555
Mn2 O14 2.205837 1_555
Mn2 O2 2.232138 1_555
Mn2 O7 2.367113 1_555
Mn2 O9 2.367113 1_555
Mn2 O19 2.396974 1_555
Mn2 O21 2.396974 1_555
Mn3 O15 2.205837 1_555
Mn3 O3 2.232138 1_555
Mn3 O10 2.367113 1_555
Mn3 O5 2.367113 1_555
Mn3 O17 2.396974 1_555
Mn3 O22 2.396974 1_555
Co0 O15 2.223416 1_555
Co0 O3 2.225429 1_556
Co0 O11 2.383901 1_555
Co0 O7 2.383901 1_555
Co0 O23 2.416349 1_655
Co0 O19 2.416349 1_545
Co1 O14 2.223416 1_555
Co1 O2 2.225429 1_554
Co1 O8 2.383901 1_555
Co1 O5 2.383901 1_555
Co1 O17 2.416349 1_565
Co1 O20 2.416349 1_655
Co2 O13 2.223416 1_555
Co2 O1 2.225429 1_554
Co2 O4 2.383901 1_555
Co2 O10 2.383901 1_555
Co2 O22 2.416349 1_455
Co2 O16 2.416349 1_545
Co3 O12 2.223416 1_555
Co3 O0 2.225429 1_556
Co3 O6 2.383901 1_555
Co3 O9 2.383901 1_555
Co3 O18 2.416349 1_565
Co3 O21 2.416349 1_455
