# generated using pymatgen
data_Nb4V2Si5
_symmetry_space_group_name_H-M   'P 1'
_cell_length_a   5.00060273
_cell_length_b   7.87574099
_cell_length_c   9.44378448
_cell_angle_alpha   114.64406852
_cell_angle_beta   105.35245850
_cell_angle_gamma   90.00001718
_symmetry_Int_Tables_number   1
_chemical_formula_structural   Nb4V2Si5
_chemical_formula_sum   'Nb8 V4 Si10'
_cell_volume   323.39245969
_cell_formula_units_Z   2
loop_
 _symmetry_equiv_pos_site_id
 _symmetry_equiv_pos_as_xyz
  1  'x, y, z'
loop_
 _atom_site_type_symbol
 _atom_site_label
 _atom_site_symmetry_multiplicity
 _atom_site_fract_x
 _atom_site_fract_y
 _atom_site_fract_z
 _atom_site_occupancy
  Nb  Nb0  1  0.64391331  0.02923877  0.28797468  1
  Nb  Nb1  1  0.35609210  0.97076768  0.71203576  1
  Nb  Nb2  1  0.85594266  0.74126708  0.71203576  1
  Nb  Nb3  1  0.14406237  0.25873691  0.28797468  1
  Nb  Nb4  1  0.93576870  0.19076066  0.87178015  1
  Nb  Nb5  1  0.06421535  0.80920705  0.12818980  1
  Nb  Nb6  1  0.56397445  0.31898175  0.12818980  1
  Nb  Nb7  1  0.43601144  0.68102049  0.87178015  1
  V  V0  1  0.55878675  0.30878675  0.61757250  1
  V  V1  1  0.94122512  0.69122512  0.38245123  1
  V  V2  1  0.44122561  0.69122561  0.38245222  1
  V  V3  1  0.05878702  0.30878702  0.61757304  1
  Si  Si0  1  0.78254366  0.98784947  0.56514716  1
  Si  Si1  1  0.21745935  0.01214728  0.43486069  1
  Si  Si2  1  0.71740235  0.42271442  0.43486069  1
  Si  Si3  1  0.28260250  0.57729668  0.56514716  1
  Si  Si4  1  0.56722585  0.65015262  0.13440421  1
  Si  Si5  1  0.43276940  0.34984860  0.86558838  1
  Si  Si6  1  0.93281897  0.51574078  0.86558838  1
  Si  Si7  1  0.06717836  0.48425059  0.13440421  1
  Si  Si8  1  0.24995853  0.99995853  0.99991706  1
  Si  Si9  1  0.75003615  0.00003615  0.00007230  1
loop_
_geom_bond_atom_site_label_1
_geom_bond_atom_site_label_2
_geom_bond_distance
_geom_bond_site_symmetry_2
Nb0 Si0 2.681263 1_545
Nb0 Si4 2.694179 1_545
Nb0 Si2 2.794219 1_555
Nb0 Si9 2.823009 1_555
Nb0 Si8 2.823750 1_544
Nb0 Si1 2.865676 1_555
Nb0 Si1 2.866576 1_655
Nb1 Si1 2.681246 1_565
Nb1 Si5 2.694136 1_565
Nb1 Si3 2.794186 1_555
Nb1 Si8 2.822868 1_555
Nb1 Si9 2.823607 1_566
Nb1 Si0 2.865664 1_555
Nb1 Si0 2.866573 1_455
Nb2 Si2 2.681238 1_555
Nb2 Si6 2.694122 1_555
Nb2 Si0 2.794185 1_555
Nb2 Si8 2.822873 1_655
Nb2 Si9 2.823608 1_566
Nb2 Si3 2.865664 1_555
Nb2 Si3 2.866573 1_655
Nb3 Si3 2.681255 1_555
Nb3 Si7 2.694165 1_555
Nb3 Si1 2.794218 1_555
Nb3 Si9 2.823015 1_455
Nb3 Si8 2.823750 1_544
Nb3 Si2 2.865677 1_555
Nb3 Si2 2.866576 1_455
Nb4 Si7 2.506380 1_656
Nb4 Si0 2.547996 1_545
Nb4 Si6 2.584342 1_555
Nb4 Si9 2.588505 1_556
Nb4 Si8 2.588573 1_645
Nb4 Si5 2.807707 1_555
Nb4 Si5 2.808567 1_655
Nb5 Si6 2.506170 1_454
Nb5 Si1 2.548316 1_565
Nb5 Si7 2.584248 1_555
Nb5 Si8 2.588548 1_554
Nb5 Si9 2.588612 1_465
Nb5 Si4 2.807631 1_555
Nb5 Si4 2.808491 1_455
Nb6 Si5 2.506178 1_554
Nb6 Si2 2.548313 1_555
Nb6 Si4 2.584248 1_555
Nb6 Si8 2.588542 1_544
Nb6 Si9 2.588606 1_555
Nb6 Si7 2.807631 1_555
Nb6 Si7 2.808491 1_655
Nb7 Si4 2.506388 1_556
Nb7 Si3 2.547993 1_555
Nb7 Si5 2.584342 1_555
Nb7 Si9 2.588499 1_566
Nb7 Si8 2.588567 1_555
Nb7 Si6 2.807707 1_555
Nb7 Si6 2.808567 1_455
V0 V3 2.500301 1_555
V0 V3 2.500301 1_655
V1 V2 2.500301 1_655
V1 V2 2.500301 1_555
Si0 V2 2.535108 1_555
Si0 V1 2.535258 1_555
Si0 V0 2.671267 1_565
Si0 V3 2.671409 1_665
Si1 V0 2.535228 1_555
Si1 V3 2.535372 1_555
Si1 V2 2.671198 1_545
Si1 V1 2.671336 1_445
Si2 V0 2.535228 1_555
Si2 V3 2.535372 1_655
Si2 V2 2.671189 1_555
Si2 V1 2.671318 1_555
Si3 V2 2.535108 1_555
Si3 V1 2.535258 1_455
Si3 V0 2.671258 1_555
Si3 V3 2.671391 1_555
Si4 V1 2.477491 1_555
Si4 V2 2.477620 1_555
Si4 Si5 2.565049 1_554
Si4 Si7 2.820909 1_655
Si4 Si7 2.821329 1_555
Si5 V3 2.477265 1_555
Si5 V0 2.477396 1_555
Si5 Si6 2.820864 1_455
Si5 Si6 2.821303 1_555
Si6 V3 2.477267 1_655
Si6 V0 2.477393 1_555
Si6 Si7 2.565056 1_656
Si7 V1 2.477494 1_455
Si7 V2 2.477618 1_555
Si8 Si9 2.500302 1_466
Si8 Si9 2.500302 1_566
