# generated using pymatgen
data_Ti4(NbAl3)3
_symmetry_space_group_name_H-M   'P 1'
_cell_length_a   5.67771100
_cell_length_b   5.67771100
_cell_length_c   8.16628000
_cell_angle_alpha   90.00000000
_cell_angle_beta   90.00000000
_cell_angle_gamma   90.00000000
_symmetry_Int_Tables_number   1
_chemical_formula_structural   Ti4(NbAl3)3
_chemical_formula_sum   'Ti4 Nb3 Al9'
_cell_volume   263.25148655
_cell_formula_units_Z   1
loop_
 _symmetry_equiv_pos_site_id
 _symmetry_equiv_pos_as_xyz
  1  'x, y, z'
loop_
 _atom_site_type_symbol
 _atom_site_label
 _atom_site_symmetry_multiplicity
 _atom_site_fract_x
 _atom_site_fract_y
 _atom_site_fract_z
 _atom_site_occupancy
  Ti  Ti0  1  0.50000000  0.50000000  0.00000000  1
  Ti  Ti1  1  0.00000000  0.00000000  0.00000000  1
  Ti  Ti2  1  0.00000000  0.50000000  0.50000000  1
  Ti  Ti3  1  0.50000000  0.00000000  0.50000000  1
  Nb  Nb0  1  0.00000000  0.00000000  0.50000000  1
  Nb  Nb1  1  0.00000000  0.50000000  0.00000000  1
  Nb  Nb2  1  0.50000000  0.00000000  0.00000000  1
  Al  Al0  1  0.50000000  0.50000000  0.50000000  1
  Al  Al1  1  0.24940600  0.24940600  0.24995200  1
  Al  Al2  1  0.75059400  0.75059400  0.75004800  1
  Al  Al3  1  0.75059400  0.75059400  0.24995200  1
  Al  Al4  1  0.75059400  0.24940600  0.24995200  1
  Al  Al5  1  0.75059400  0.24940600  0.75004800  1
  Al  Al6  1  0.24940600  0.24940600  0.75004800  1
  Al  Al7  1  0.24940600  0.75059400  0.75004800  1
  Al  Al8  1  0.24940600  0.75059400  0.24995200  1
loop_
_geom_bond_atom_site_label_1
_geom_bond_atom_site_label_2
_geom_bond_distance
_geom_bond_site_symmetry_2
Nb0 Ti2 2.838856 1_555
Nb0 Ti2 2.838856 1_545
Nb0 Ti3 2.838856 1_455
Nb0 Ti3 2.838856 1_555
Nb1 Ti0 2.838856 1_455
Nb1 Ti1 2.838856 1_565
Nb1 Ti0 2.838856 1_555
Nb1 Ti1 2.838856 1_555
Nb2 Ti1 2.838856 1_655
Nb2 Ti0 2.838856 1_555
Nb2 Ti0 2.838856 1_545
Nb2 Ti1 2.838856 1_555
Al0 Ti2 2.838856 1_555
Al0 Ti3 2.838856 1_565
Al0 Ti2 2.838856 1_655
Al0 Ti3 2.838856 1_555
Al0 Al7 2.866763 1_555
Al0 Al5 2.866763 1_555
Al0 Al2 2.866763 1_555
Al0 Al6 2.866763 1_555
Al0 Al3 2.866763 1_555
Al0 Al4 2.866763 1_555
Al0 Al8 2.866763 1_555
Al0 Al1 2.866763 1_555
Al1 Al4 2.832110 1_455
Al1 Al8 2.832110 1_545
Al1 Al4 2.845601 1_555
Al1 Al8 2.845601 1_555
Al1 Ti1 2.859516 1_555
Al1 Nb0 2.860076 1_555
Al1 Nb2 2.862862 1_555
Al1 Nb1 2.862862 1_555
Al1 Ti3 2.863421 1_555
Al1 Ti2 2.863421 1_555
Al1 Ti0 2.866205 1_555
Al2 Al5 2.832110 1_565
Al2 Al7 2.832110 1_655
Al2 Al7 2.845601 1_555
Al2 Al5 2.845601 1_555
Al2 Ti1 2.859516 1_666
Al2 Nb0 2.860076 1_665
Al2 Nb1 2.862862 1_656
Al2 Nb2 2.862862 1_566
Al2 Ti3 2.863421 1_565
Al2 Ti2 2.863421 1_655
Al2 Ti0 2.866205 1_556
Al3 Al8 2.832110 1_655
Al3 Al4 2.832110 1_565
Al3 Al4 2.845601 1_555
Al3 Al8 2.845601 1_555
Al3 Ti1 2.859516 1_665
Al3 Nb0 2.860076 1_665
Al3 Nb1 2.862862 1_655
Al3 Nb2 2.862862 1_565
Al3 Ti2 2.863421 1_655
Al3 Ti3 2.863421 1_565
Al3 Ti0 2.866205 1_555
Al4 Ti1 2.859516 1_655
Al4 Nb0 2.860076 1_655
Al4 Nb2 2.862862 1_555
Al4 Nb1 2.862862 1_655
Al4 Ti2 2.863421 1_655
Al4 Ti3 2.863421 1_555
Al4 Ti0 2.866205 1_555
Al5 Al6 2.832110 1_655
Al5 Al6 2.845601 1_555
Al5 Ti1 2.859516 1_656
Al5 Nb0 2.860076 1_655
Al5 Nb1 2.862862 1_656
Al5 Nb2 2.862862 1_556
Al5 Ti3 2.863421 1_555
Al5 Ti2 2.863421 1_655
Al5 Ti0 2.866205 1_556
Al6 Al7 2.832110 1_545
Al6 Al7 2.845601 1_555
Al6 Ti1 2.859516 1_556
Al6 Nb0 2.860076 1_555
Al6 Nb1 2.862862 1_556
Al6 Nb2 2.862862 1_556
Al6 Ti2 2.863421 1_555
Al6 Ti3 2.863421 1_555
Al6 Ti0 2.866205 1_556
Al7 Ti1 2.859516 1_566
Al7 Nb0 2.860076 1_565
Al7 Nb1 2.862862 1_556
Al7 Nb2 2.862862 1_566
Al7 Ti3 2.863421 1_565
Al7 Ti2 2.863421 1_555
Al7 Ti0 2.866205 1_556
Al8 Ti1 2.859516 1_565
Al8 Nb0 2.860076 1_565
Al8 Nb2 2.862862 1_565
Al8 Nb1 2.862862 1_555
Al8 Ti2 2.863421 1_555
Al8 Ti3 2.863421 1_565
Al8 Ti0 2.866205 1_555
