# generated using pymatgen
data_BiSb8Pb6AuS20
_symmetry_space_group_name_H-M   'P 1'
_cell_length_a   4.16588779
_cell_length_b   20.08064015
_cell_length_c   22.23059288
_cell_angle_alpha   90.00000000
_cell_angle_beta   84.62366187
_cell_angle_gamma   90.00000000
_symmetry_Int_Tables_number   1
_chemical_formula_structural   BiSb8Pb6AuS20
_chemical_formula_sum   'Bi2 Sb16 Pb12 Au2 S40'
_cell_volume   1851.49003674
_cell_formula_units_Z   2
loop_
 _symmetry_equiv_pos_site_id
 _symmetry_equiv_pos_as_xyz
  1  'x, y, z'
loop_
 _atom_site_type_symbol
 _atom_site_label
 _atom_site_symmetry_multiplicity
 _atom_site_fract_x
 _atom_site_fract_y
 _atom_site_fract_z
 _atom_site_occupancy
  Bi  Bi0  1  0.54092762  0.44679131  0.91814475  1
  Bi  Bi1  1  0.45907238  0.94679131  0.08185525  1
  Sb  Sb0  1  0.88459993  0.44292948  0.23080013  1
  Sb  Sb1  1  0.11540007  0.94292948  0.76919987  1
  Sb  Sb2  1  0.62155919  0.12002130  0.75688162  1
  Sb  Sb3  1  0.37844081  0.62002130  0.24311838  1
  Sb  Sb4  1  0.96824799  0.36741039  0.06350402  1
  Sb  Sb5  1  0.03175201  0.86741039  0.93649598  1
  Sb  Sb6  1  0.54034560  0.05349435  0.91930880  1
  Sb  Sb7  1  0.45965440  0.55349435  0.08069120  1
  Sb  Sb8  1  0.96944615  0.13052765  0.06110770  1
  Sb  Sb9  1  0.03055385  0.63052765  0.93889230  1
  Sb  Sb10  1  0.73719924  0.24930665  0.52560152  1
  Sb  Sb11  1  0.26280076  0.74930665  0.47439848  1
  Sb  Sb12  1  0.88265518  0.05524049  0.23468964  1
  Sb  Sb13  1  0.11734482  0.55524049  0.76531036  1
  Sb  Sb14  1  0.72703473  0.43824113  0.54593055  1
  Sb  Sb15  1  0.27296527  0.93824113  0.45406945  1
  Pb  Pb0  1  0.62939367  0.37329101  0.74121265  1
  Pb  Pb1  1  0.37060633  0.87329101  0.25878735  1
  Pb  Pb2  1  0.05690756  0.24587353  0.88618489  1
  Pb  Pb3  1  0.94309244  0.74587353  0.11381511  1
  Pb  Pb4  1  0.39799682  0.25869480  0.20400636  1
  Pb  Pb5  1  0.60200318  0.75869480  0.79599364  1
  Pb  Pb6  1  0.30774542  0.35725848  0.38450915  1
  Pb  Pb7  1  0.69225458  0.85725848  0.61549085  1
  Pb  Pb8  1  0.30687876  0.14205566  0.38624248  1
  Pb  Pb9  1  0.69312124  0.64205566  0.61375752  1
  Pb  Pb10  1  0.71554468  0.06089357  0.56891065  1
  Pb  Pb11  1  0.28445532  0.56089357  0.43108935  1
  Au  Au0  1  0.16677793  0.24821404  0.66644414  1
  Au  Au1  1  0.83322207  0.74821404  0.33355586  1
  S  S0  1  0.94535955  0.25100104  0.10928091  1
  S  S1  1  0.05464045  0.75100104  0.89071909  1
  S  S2  1  0.24422286  0.34129110  0.51155429  1
  S  S3  1  0.75577714  0.84129110  0.48844571  1
  S  S4  1  0.51331101  0.16140248  0.97337798  1
  S  S5  1  0.48668899  0.66140248  0.02662202  1
  S  S6  1  0.86125869  0.33253728  0.27748262  1
  S  S7  1  0.13874131  0.83253728  0.72251738  1
  S  S8  1  0.24106382  0.16132196  0.51787236  1
  S  S9  1  0.75893618  0.66132196  0.48212764  1
  S  S10  1  0.42894223  0.39700076  0.14211553  1
  S  S11  1  0.57105777  0.89700076  0.85788447  1
  S  S12  1  0.43491560  0.09508142  0.13016879  1
  S  S13  1  0.56508440  0.59508142  0.86983121  1
  S  S14  1  0.85917345  0.16430778  0.28165311  1
  S  S15  1  0.14082655  0.66430778  0.71834689  1
  S  S16  1  0.35347964  0.48283685  0.29304073  1
  S  S17  1  0.64652036  0.98283685  0.70695927  1
  S  S18  1  0.16994253  0.36279602  0.66011494  1
  S  S19  1  0.83005747  0.86279602  0.33988506  1
  S  S20  1  0.07517789  0.08973765  0.84964422  1
  S  S21  1  0.92482211  0.58973765  0.15035578  1
  S  S22  1  0.15768302  0.13415017  0.68463397  1
  S  S23  1  0.84231698  0.63415017  0.31536603  1
  S  S24  1  0.35419630  0.01499619  0.29160740  1
  S  S25  1  0.64580370  0.51499619  0.70839260  1
  S  S26  1  0.99916058  0.50508324  0.00167884  1
  S  S27  1  0.00083942  0.00508324  0.99832116  1
  S  S28  1  0.78311451  0.45834964  0.43377098  1
  S  S29  1  0.21688549  0.95834964  0.56622902  1
  S  S30  1  0.50700924  0.33693769  0.98598153  1
  S  S31  1  0.49299076  0.83693769  0.01401847  1
  S  S32  1  0.07322608  0.39725907  0.85354785  1
  S  S33  1  0.92677392  0.89725907  0.14645215  1
  S  S34  1  0.79320948  0.24580823  0.41358103  1
  S  S35  1  0.20679052  0.74580823  0.58641897  1
  S  S36  1  0.77724967  0.02072043  0.44550067  1
  S  S37  1  0.22275033  0.52072043  0.55449933  1
  S  S38  1  0.59997870  0.23843717  0.80004260  1
  S  S39  1  0.40002130  0.73843717  0.19995740  1
loop_
_geom_bond_atom_site_label_1
_geom_bond_atom_site_label_2
_geom_bond_distance
_geom_bond_site_symmetry_2
Bi0 S30 2.668405 1_555
Bi0 S32 2.715149 1_555
Bi0 S32 2.715149 1_655
Bi0 S26 3.021099 1_556
Bi0 S26 3.021099 1_456
Bi0 S13 3.163936 1_555
Bi1 S31 2.668405 1_555
Bi1 S33 2.715149 1_555
Bi1 S33 2.715149 1_455
Bi1 S27 3.021099 1_564
Bi1 S27 3.021099 1_664
Bi1 S12 3.163936 1_565
Pb0 S18 2.757681 1_555
Pb0 S18 2.757681 1_655
Pb0 S25 2.936784 1_555
Pb0 S38 3.004728 1_555
Pb1 S19 2.757681 1_555
Pb1 S19 2.757681 1_455
Pb1 S24 2.936784 1_565
Pb1 S39 3.004728 1_555
Pb2 S38 2.827713 1_455
Pb2 S38 2.827713 1_555
Pb2 S32 3.124563 1_555
Pb3 S39 2.827713 1_655
Pb3 S39 2.827713 1_555
Pb3 S33 3.124563 1_555
Pb4 S0 2.959392 1_455
Pb4 S0 2.959392 1_555
Pb4 S6 3.030182 1_555
Pb4 S6 3.030182 1_455
Pb4 S10 3.096714 1_555
Pb5 S1 2.959392 1_655
Pb5 S1 2.959392 1_555
Pb5 S7 3.030182 1_555
Pb5 S7 3.030182 1_655
Pb5 S11 3.096714 1_555
Pb6 S2 2.830086 1_555
Pb6 S28 3.106157 1_555
Pb6 S28 3.106157 1_455
Pb6 S34 3.124305 1_555
Pb6 S34 3.124305 1_455
Pb6 S6 3.193162 1_455
Pb6 S6 3.193162 1_555
Pb6 S16 3.233782 1_555
Pb7 S3 2.830086 1_555
Pb7 S29 3.106157 1_555
Pb7 S29 3.106157 1_655
Pb7 S35 3.124305 1_555
Pb7 S35 3.124305 1_655
Pb7 S7 3.193162 1_655
Pb7 S7 3.193162 1_555
Pb7 S17 3.233782 1_555
Pb8 S8 2.938913 1_555
Pb8 S34 3.007558 1_555
Pb8 S34 3.007558 1_455
Pb8 S14 3.145929 1_455
Pb8 S14 3.145930 1_555
Pb9 S9 2.938913 1_555
Pb9 S35 3.007558 1_555
Pb9 S35 3.007558 1_655
Pb9 S15 3.145929 1_655
Pb9 S15 3.145930 1_555
Pb10 S36 2.848044 1_555
Pb10 S29 2.929551 1_645
Pb10 S29 2.929551 1_545
Pb10 S8 3.111533 1_555
Pb10 S8 3.111533 1_655
Pb11 S37 2.848044 1_555
Pb11 S28 2.929551 1_455
Pb11 S28 2.929551 1_555
Pb11 S9 3.111533 1_555
Pb11 S9 3.111533 1_455
Au0 S18 2.305140 1_555
Au0 S22 2.325588 1_555
Au1 S19 2.305140 1_555
Au1 S23 2.325588 1_555
S0 Sb4 2.547699 1_555
S0 Sb8 2.643718 1_555
S1 Sb5 2.547699 1_555
S1 Sb9 2.643718 1_555
S2 Sb10 2.801271 1_555
S2 Sb10 2.801271 1_455
S2 Sb14 2.950871 1_555
S2 Sb14 2.950871 1_455
S3 Sb11 2.801271 1_555
S3 Sb11 2.801271 1_655
S3 Sb15 2.950871 1_555
S3 Sb15 2.950871 1_655
S4 Sb6 2.475358 1_555
S4 Sb8 2.914318 1_556
S4 Sb8 2.914319 1_456
S5 Sb7 2.475358 1_555
S5 Sb9 2.914318 1_554
S5 Sb9 2.914319 1_654
S6 Sb0 2.445709 1_555
S7 Sb1 2.445709 1_555
S8 Sb10 2.736688 1_555
S8 Sb10 2.736688 1_455
S9 Sb11 2.736688 1_555
S9 Sb11 2.736688 1_655
S10 Sb4 2.778299 1_455
S10 Sb4 2.778299 1_555
S10 Sb0 3.006989 1_555
S10 Sb0 3.006989 1_455
S11 Sb5 2.778299 1_655
S11 Sb5 2.778299 1_555
S11 Sb1 3.006989 1_555
S11 Sb1 3.006989 1_655
S12 Sb8 2.679860 1_455
S12 Sb8 2.679860 1_555
S13 Sb9 2.679860 1_655
S13 Sb9 2.679860 1_555
S14 Sb12 2.424281 1_555
S15 Sb13 2.424281 1_555
S16 Sb0 2.622691 1_555
S16 Sb0 2.622691 1_455
S16 Sb3 2.968081 1_555
S17 Sb1 2.622691 1_555
S17 Sb1 2.622691 1_655
S17 Sb2 2.968081 1_565
S20 Sb6 2.691784 1_555
S20 Sb6 2.691784 1_455
S20 Sb2 2.987250 1_455
S20 Sb2 2.987250 1_555
S21 Sb7 2.691784 1_555
S21 Sb7 2.691784 1_655
S21 Sb3 2.987250 1_655
S21 Sb3 2.987250 1_555
S22 Sb2 2.641228 1_555
S22 Sb2 2.641228 1_455
S23 Sb3 2.641228 1_555
S23 Sb3 2.641228 1_655
S24 Sb12 2.564897 1_455
S24 Sb12 2.564898 1_555
S25 Sb13 2.564897 1_655
S25 Sb13 2.564898 1_555
S26 Sb9 2.876888 1_654
S26 Sb7 2.888228 1_655
S26 Sb7 2.888228 1_555
S26 Sb4 3.084673 1_555
S27 Sb8 2.876888 1_456
S27 Sb6 2.888228 1_455
S27 Sb6 2.888228 1_555
S27 Sb5 3.084673 1_545
S28 Sb14 2.515031 1_555
S29 Sb15 2.515031 1_555
S30 Sb4 2.767133 1_556
S30 Sb4 2.767133 1_456
S31 Sb5 2.767133 1_554
S31 Sb5 2.767133 1_654
S34 Sb10 2.480322 1_555
S35 Sb11 2.480322 1_555
S36 Sb15 2.667910 1_645
S36 Sb15 2.667910 1_545
S37 Sb14 2.667910 1_455
S37 Sb14 2.667910 1_555
S38 Sb2 2.562576 1_555
S39 Sb3 2.562576 1_555
