# generated using pymatgen
data_Te2Mo3WSe6
_symmetry_space_group_name_H-M   'P 1'
_cell_length_a   3.38100146
_cell_length_b   3.38100146
_cell_length_c   38.42963700
_cell_angle_alpha   90.00000000
_cell_angle_beta   90.00000000
_cell_angle_gamma   119.99998946
_symmetry_Int_Tables_number   1
_chemical_formula_structural   Te2Mo3WSe6
_chemical_formula_sum   'Te2 Mo3 W1 Se6'
_cell_volume   380.44131745
_cell_formula_units_Z   1
loop_
 _symmetry_equiv_pos_site_id
 _symmetry_equiv_pos_as_xyz
  1  'x, y, z'
loop_
 _atom_site_type_symbol
 _atom_site_label
 _atom_site_symmetry_multiplicity
 _atom_site_fract_x
 _atom_site_fract_y
 _atom_site_fract_z
 _atom_site_occupancy
  Te  Te0  1  0.33333300  0.66666700  0.70641300  1
  Te  Te1  1  0.33333300  0.66666700  0.60865500  1
  Mo  Mo0  1  0.33333300  0.66666700  0.09390900  1
  Mo  Mo1  1  0.33333300  0.66666700  0.46966700  1
  Mo  Mo2  1  0.66666700  0.33333300  0.65755700  1
  W  W0  1  0.66666700  0.33333300  0.28180100  1
  Se  Se0  1  0.33333300  0.66666700  0.32501600  1
  Se  Se1  1  0.66666700  0.33333300  0.05086000  1
  Se  Se2  1  0.66666700  0.33333300  0.42659100  1
  Se  Se3  1  0.66666700  0.33333300  0.13698500  1
  Se  Se4  1  0.66666700  0.33333300  0.51271600  1
  Se  Se5  1  0.33333300  0.66666700  0.23857800  1
loop_
_geom_bond_atom_site_label_1
_geom_bond_atom_site_label_2
_geom_bond_distance
_geom_bond_site_symmetry_2
Mo0 Se1 2.558766 1_455
Mo0 Se1 2.558766 1_565
Mo0 Se1 2.558770 1_555
Mo0 Se3 2.559437 1_455
Mo0 Se3 2.559437 1_565
Mo0 Se3 2.559441 1_555
Mo1 Se4 2.558766 1_565
Mo1 Se4 2.558766 1_455
Mo1 Se4 2.558770 1_555
Mo1 Se2 2.559437 1_455
Mo1 Se2 2.559437 1_565
Mo1 Se2 2.559441 1_555
Mo2 Te0 2.708405 1_545
Mo2 Te0 2.708405 1_655
Mo2 Te0 2.708409 1_555
Mo2 Te1 2.709631 1_545
Mo2 Te1 2.709631 1_655
Mo2 Te1 2.709635 1_555
Se0 W0 2.562895 1_455
Se0 W0 2.562895 1_565
Se0 W0 2.562899 1_555
Se5 W0 2.563094 1_455
Se5 W0 2.563094 1_565
Se5 W0 2.563098 1_555
