# generated using pymatgen
data_HfNi2Au
_symmetry_space_group_name_H-M   'P 1'
_cell_length_a   9.75054844
_cell_length_b   9.75054844
_cell_length_c   9.75054844
_cell_angle_alpha   123.64154998
_cell_angle_beta   118.74925597
_cell_angle_gamma   87.99579697
_symmetry_Int_Tables_number   1
_chemical_formula_structural   HfNi2Au
_chemical_formula_sum   'Hf1 Ni2 Au1'
_cell_volume   641.69609889
_cell_formula_units_Z   1
loop_
 _symmetry_equiv_pos_site_id
 _symmetry_equiv_pos_as_xyz
  1  'x, y, z'
loop_
 _atom_site_type_symbol
 _atom_site_label
 _atom_site_symmetry_multiplicity
 _atom_site_fract_x
 _atom_site_fract_y
 _atom_site_fract_z
 _atom_site_occupancy
  Hf  Hf0  1  0.00000000  0.00000000  0.00000000  1
  Ni  Ni0  1  0.00000000  0.23279700  0.23279700  1
  Ni  Ni1  1  0.00000000  0.76720300  0.76720300  1
  Au  Au0  1  0.00000000  0.50000000  0.50000000  1
loop_
_geom_bond_atom_site_label_1
_geom_bond_atom_site_label_2
_geom_bond_distance
_geom_bond_site_symmetry_2
Hf0 Ni0 2.143834 1_555
Hf0 Ni1 2.143834 1_544
Au0 Ni1 2.460679 1_555
Au0 Ni0 2.460679 1_555
