# generated using pymatgen
data_Ga40Mo8C
_symmetry_space_group_name_H-M   'P 1'
_cell_length_a   9.55691730
_cell_length_b   9.55691730
_cell_length_c   9.55691725
_cell_angle_alpha   94.10402885
_cell_angle_beta   94.10402885
_cell_angle_gamma   94.10402928
_symmetry_Int_Tables_number   1
_chemical_formula_structural   Ga40Mo8C
_chemical_formula_sum   'Ga40 Mo8 C1'
_cell_volume   865.82317931
_cell_formula_units_Z   1
loop_
 _symmetry_equiv_pos_site_id
 _symmetry_equiv_pos_as_xyz
  1  'x, y, z'
loop_
 _atom_site_type_symbol
 _atom_site_label
 _atom_site_symmetry_multiplicity
 _atom_site_fract_x
 _atom_site_fract_y
 _atom_site_fract_z
 _atom_site_occupancy
  Ga  Ga0  1  0.50000000  0.50000000  0.50000000  1
  Ga  Ga1  1  0.00000000  0.50000000  0.50000000  1
  Ga  Ga2  1  0.50000000  0.00000000  0.50000000  1
  Ga  Ga3  1  0.50000000  0.50000000  0.00000000  1
  Ga  Ga4  1  0.26397900  0.63392600  0.61007200  1
  Ga  Ga5  1  0.61007200  0.26397900  0.63392600  1
  Ga  Ga6  1  0.63392600  0.61007200  0.26397900  1
  Ga  Ga7  1  0.73602100  0.36607400  0.38992800  1
  Ga  Ga8  1  0.38992800  0.73602100  0.36607400  1
  Ga  Ga9  1  0.36607400  0.38992800  0.73602100  1
  Ga  Ga10  1  0.67324800  0.77939500  0.53133200  1
  Ga  Ga11  1  0.53133200  0.67324800  0.77939500  1
  Ga  Ga12  1  0.77939500  0.53133200  0.67324800  1
  Ga  Ga13  1  0.32675200  0.22060500  0.46866800  1
  Ga  Ga14  1  0.46866800  0.32675200  0.22060500  1
  Ga  Ga15  1  0.22060500  0.46866800  0.32675200  1
  Ga  Ga16  1  0.77698600  0.07496300  0.45088900  1
  Ga  Ga17  1  0.45088900  0.77698600  0.07496300  1
  Ga  Ga18  1  0.07496300  0.45088900  0.77698600  1
  Ga  Ga19  1  0.22301400  0.92503700  0.54911100  1
  Ga  Ga20  1  0.54911100  0.22301400  0.92503700  1
  Ga  Ga21  1  0.92503700  0.54911100  0.22301400  1
  Ga  Ga22  1  0.96770600  0.78500200  0.60006700  1
  Ga  Ga23  1  0.60006700  0.96770600  0.78500200  1
  Ga  Ga24  1  0.78500200  0.60006700  0.96770600  1
  Ga  Ga25  1  0.03229400  0.21499800  0.39993300  1
  Ga  Ga26  1  0.39993300  0.03229400  0.21499800  1
  Ga  Ga27  1  0.21499800  0.39993300  0.03229400  1
  Ga  Ga28  1  0.04967700  0.77406800  0.89011300  1
  Ga  Ga29  1  0.89011300  0.04967700  0.77406800  1
  Ga  Ga30  1  0.77406800  0.89011300  0.04967700  1
  Ga  Ga31  1  0.95032300  0.22593200  0.10988700  1
  Ga  Ga32  1  0.10988700  0.95032300  0.22593200  1
  Ga  Ga33  1  0.22593200  0.10988700  0.95032300  1
  Ga  Ga34  1  0.12621100  0.17695700  0.68128200  1
  Ga  Ga35  1  0.68128200  0.12621100  0.17695700  1
  Ga  Ga36  1  0.17695700  0.68128200  0.12621100  1
  Ga  Ga37  1  0.87378900  0.82304300  0.31871800  1
  Ga  Ga38  1  0.31871800  0.87378900  0.82304300  1
  Ga  Ga39  1  0.82304300  0.31871800  0.87378900  1
  Mo  Mo0  1  0.78933800  0.78933800  0.78933800  1
  Mo  Mo1  1  0.21066200  0.21066200  0.21066200  1
  Mo  Mo2  1  0.28435700  0.61509400  0.89156200  1
  Mo  Mo3  1  0.89156200  0.28435700  0.61509400  1
  Mo  Mo4  1  0.61509400  0.89156200  0.28435700  1
  Mo  Mo5  1  0.71564300  0.38490600  0.10843800  1
  Mo  Mo6  1  0.10843800  0.71564300  0.38490600  1
  Mo  Mo7  1  0.38490600  0.10843800  0.71564300  1
  C  C0  1  0.00000000  0.00000000  0.00000000  1
loop_
_geom_bond_atom_site_label_1
_geom_bond_atom_site_label_2
_geom_bond_distance
_geom_bond_site_symmetry_2
Ga0 Ga6 2.897037 1_555
Ga0 Ga9 2.897037 1_555
Ga0 Ga5 2.897037 1_555
Ga0 Ga8 2.897037 1_555
Ga0 Ga4 2.897037 1_555
Ga0 Ga7 2.897037 1_555
Ga0 Ga11 3.023670 1_555
Ga0 Ga14 3.023670 1_555
Ga0 Ga10 3.023670 1_555
Ga0 Ga13 3.023670 1_555
Ga0 Ga12 3.023670 1_555
Ga0 Ga15 3.023670 1_555
Ga1 Mo6 2.590950 1_555
Ga1 Mo3 2.590950 1_455
Ga2 Mo4 2.590950 1_545
Ga2 Mo7 2.590950 1_555
Ga3 Mo5 2.590950 1_555
Ga3 Mo2 2.590950 1_554
Ga4 Mo2 2.703090 1_555
Ga4 Mo6 2.720121 1_555
Ga5 Mo3 2.703090 1_555
Ga5 Mo7 2.720121 1_555
Ga6 Mo4 2.703090 1_555
Ga6 Mo5 2.720121 1_555
Ga7 Mo5 2.703090 1_555
Ga7 Mo3 2.720121 1_555
Ga8 Mo6 2.703090 1_555
Ga8 Mo4 2.720121 1_555
Ga9 Mo7 2.703090 1_555
Ga9 Mo2 2.720121 1_555
Ga10 Mo0 2.622904 1_555
Ga10 Mo4 2.699775 1_555
Ga11 Mo0 2.622904 1_555
Ga11 Mo2 2.699775 1_555
Ga12 Mo0 2.622904 1_555
Ga12 Mo3 2.699775 1_555
Ga13 Mo1 2.622904 1_555
Ga13 Mo7 2.699775 1_555
Ga14 Mo1 2.622904 1_555
Ga14 Mo5 2.699775 1_555
Ga15 Mo1 2.622904 1_555
Ga15 Mo6 2.699775 1_555
Ga16 Mo3 2.580161 1_555
Ga16 Mo4 2.618968 1_545
Ga17 Mo4 2.580161 1_555
Ga17 Mo2 2.618968 1_554
Ga18 Mo2 2.580161 1_555
Ga18 Mo3 2.618968 1_455
Ga19 Mo6 2.580161 1_555
Ga19 Mo7 2.618968 1_565
Ga20 Mo7 2.580161 1_555
Ga20 Mo5 2.618968 1_556
Ga21 Mo5 2.580161 1_555
Ga21 Mo6 2.618968 1_655
Ga22 Mo0 2.572976 1_555
Ga22 Mo6 2.608630 1_655
Ga23 Mo0 2.572976 1_555
Ga23 Mo7 2.608630 1_565
Ga24 Mo0 2.572976 1_555
Ga24 Mo5 2.608630 1_556
Ga25 Mo1 2.572976 1_555
Ga25 Mo3 2.608630 1_455
Ga26 Mo1 2.572976 1_555
Ga26 Mo4 2.608630 1_545
Ga27 Mo1 2.572976 1_555
Ga27 Mo2 2.608630 1_554
Ga28 Mo0 2.620743 1_455
Ga28 Mo2 2.797320 1_555
Ga29 Mo0 2.620743 1_545
Ga29 Mo3 2.797320 1_555
Ga30 Mo0 2.620743 1_554
Ga30 Mo4 2.797320 1_555
Ga31 Mo1 2.620743 1_655
Ga31 Mo5 2.797320 1_555
Ga32 Mo1 2.620743 1_565
Ga32 Mo6 2.797320 1_555
Ga33 Mo1 2.620743 1_556
Ga33 Mo7 2.797320 1_555
Ga34 Mo3 2.588803 1_455
Ga34 Mo7 2.606787 1_555
Ga35 Mo4 2.588803 1_545
Ga35 Mo5 2.606787 1_555
Ga36 Mo2 2.588803 1_554
Ga36 Mo6 2.606787 1_555
Ga37 Mo6 2.588803 1_655
Ga37 Mo4 2.606787 1_555
Ga38 Mo7 2.588803 1_565
Ga38 Mo2 2.606787 1_555
Ga39 Mo5 2.588803 1_556
Ga39 Mo3 2.606787 1_555
C0 Ga29 2.425697 1_454
C0 Ga32 2.425697 1_545
C0 Ga33 2.425697 1_554
C0 Ga30 2.425697 1_445
C0 Ga31 2.425697 1_455
C0 Ga28 2.425697 1_544
