# generated using pymatgen
data_Li6MnV3(PO4)6
_symmetry_space_group_name_H-M   'P 1'
_cell_length_a   9.80101100
_cell_length_b   9.82606867
_cell_length_c   9.83955068
_cell_angle_alpha   84.83970886
_cell_angle_beta   86.70767088
_cell_angle_gamma   87.17307027
_symmetry_Int_Tables_number   1
_chemical_formula_structural   Li6MnV3(PO4)6
_chemical_formula_sum   'Li12 Mn2 V6 P12 O48'
_cell_volume   941.27415945
_cell_formula_units_Z   2
loop_
 _symmetry_equiv_pos_site_id
 _symmetry_equiv_pos_as_xyz
  1  'x, y, z'
loop_
 _atom_site_type_symbol
 _atom_site_label
 _atom_site_symmetry_multiplicity
 _atom_site_fract_x
 _atom_site_fract_y
 _atom_site_fract_z
 _atom_site_occupancy
  Li  Li0  1  0.23885000  0.51131600  0.98412300  1
  Li  Li1  1  0.38687600  0.26042200  0.00547900  1
  Li  Li2  1  0.46264600  0.56803300  0.78528400  1
  Li  Li3  1  0.17444900  0.73347600  0.77087100  1
  Li  Li4  1  0.61150100  0.98677400  0.74647900  1
  Li  Li5  1  0.81647600  0.74593500  0.62727300  1
  Li  Li6  1  0.75635900  0.01336400  0.49389800  1
  Li  Li7  1  0.53671900  0.21799400  0.43735200  1
  Li  Li8  1  0.97531300  0.91973000  0.30258700  1
  Li  Li9  1  0.82399600  0.23083500  0.26661200  1
  Li  Li10  1  0.18347400  0.37786200  0.24753900  1
  Li  Li11  1  0.02168900  0.69174000  0.08134600  1
  Mn  Mn0  1  0.99978000  0.24435900  0.75367800  1
  Mn  Mn1  1  0.72206800  0.74205300  0.02860300  1
  V  V0  1  0.78236100  0.25458000  0.97055600  1
  V  V1  1  0.21726300  0.02824500  0.74682100  1
  V  V2  1  0.00205100  0.46180200  0.53451900  1
  V  V3  1  0.50137000  0.53235500  0.46842000  1
  V  V4  1  0.28119900  0.96723800  0.24995300  1
  V  V5  1  0.50343200  0.75064000  0.25145200  1
  P  P0  1  0.40220500  0.82238100  0.95061400  1
  P  P1  1  0.90139300  0.94677000  0.82660100  1
  P  P2  1  0.92779300  0.55288500  0.84058800  1
  P  P3  1  0.30211900  0.34017800  0.68294200  1
  P  P4  1  0.69890200  0.31624100  0.65938000  1
  P  P5  1  0.42720800  0.83704800  0.55604800  1
  P  P6  1  0.07259600  0.15229000  0.44564500  1
  P  P7  1  0.80491600  0.67890400  0.35185400  1
  P  P8  1  0.19887100  0.65007000  0.31852900  1
  P  P9  1  0.57431500  0.44630600  0.16116100  1
  P  P10  1  0.59406400  0.05446500  0.18307500  1
  P  P11  1  0.09599400  0.17445200  0.05174900  1
  O  O0  1  0.86348800  0.87533000  0.96908300  1
  O  O1  1  0.55768200  0.82694700  0.91535000  1
  O  O2  1  0.78983100  0.62069900  0.88316900  1
  O  O3  1  0.33444200  0.95821600  0.89079700  1
  O  O4  1  0.33887000  0.69578700  0.90212800  1
  O  O5  1  0.92013500  0.39522900  0.87865400  1
  O  O6  1  0.05316500  0.60508400  0.90535600  1
  O  O7  1  0.12163000  0.16371000  0.89039700  1
  O  O8  1  0.87609900  0.10753700  0.83825200  1
  O  O9  1  0.66719500  0.31033800  0.81586000  1
  O  O10  1  0.05525200  0.90907200  0.79442000  1
  O  O11  1  0.34729600  0.40453600  0.80847900  1
  O  O12  1  0.81032200  0.91340800  0.71403400  1
  O  O13  1  0.94442000  0.58666800  0.68083500  1
  O  O14  1  0.33280400  0.18356700  0.68901000  1
  O  O15  1  0.14043400  0.37150400  0.67389000  1
  O  O16  1  0.28883000  0.87709900  0.62804600  1
  O  O17  1  0.55011600  0.91085000  0.59327900  1
  O  O18  1  0.86169100  0.32309500  0.62687600  1
  O  O19  1  0.63580200  0.45380000  0.60005200  1
  O  O20  1  0.44620700  0.67712800  0.59279800  1
  O  O21  1  0.65280100  0.19041900  0.59611000  1
  O  O22  1  0.08073500  0.11709200  0.60282500  1
  O  O23  1  0.36773100  0.39862800  0.54545600  1
  O  O24  1  0.84552100  0.80140900  0.42544200  1
  O  O25  1  0.13867100  0.59167600  0.45631500  1
  O  O26  1  0.86285200  0.54004000  0.41110900  1
  O  O27  1  0.41456600  0.86815200  0.39465200  1
  O  O28  1  0.64254100  0.67040300  0.37887900  1
  O  O29  1  0.94327700  0.09424600  0.39459800  1
  O  O30  1  0.06896100  0.31187100  0.40997000  1
  O  O31  1  0.20721000  0.09366900  0.37948400  1
  O  O32  1  0.36056900  0.62281400  0.32741900  1
  O  O33  1  0.15838600  0.80630200  0.29694100  1
  O  O34  1  0.55577400  0.41125700  0.32051600  1
  O  O35  1  0.65404600  0.11049900  0.30709300  1
  O  O36  1  0.84553900  0.69846500  0.19690800  1
  O  O37  1  0.62743800  0.89596700  0.18750600  1
  O  O38  1  0.15752800  0.57777200  0.19558000  1
  O  O39  1  0.43605000  0.08611200  0.17727000  1
  O  O40  1  0.58562700  0.61035000  0.12933300  1
  O  O41  1  0.37244700  0.82523000  0.11192300  1
  O  O42  1  0.71350500  0.37879300  0.11858800  1
  O  O43  1  0.94231600  0.20812300  0.09055300  1
  O  O44  1  0.45171400  0.40874300  0.08861000  1
  O  O45  1  0.13208100  0.03262000  0.12229000  1
  O  O46  1  0.18858400  0.28734400  0.08420600  1
  O  O47  1  0.65956600  0.11445900  0.04583400  1
loop_
_geom_bond_atom_site_label_1
_geom_bond_atom_site_label_2
_geom_bond_distance
_geom_bond_site_symmetry_2
Li0 O6 2.151696 1_555
Li0 O4 2.172296 1_555
Li0 O11 2.285316 1_555
Li0 O38 2.322356 1_556
Li0 O46 2.391070 1_556
Li0 O44 2.505588 1_556
Li1 O44 1.887449 1_555
Li1 O46 2.064054 1_555
Li1 O11 2.334851 1_554
Li1 O39 2.348302 1_555
Li2 O11 1.998683 1_555
Li2 O4 2.078102 1_555
Li2 O20 2.101197 1_555
Li3 O10 2.058535 1_555
Li3 O6 2.103003 1_555
Li3 O4 2.120425 1_555
Li3 O16 2.200381 1_555
Li4 O17 1.881909 1_555
Li4 O12 2.061605 1_555
Li4 O1 2.239912 1_555
Li4 O21 2.415700 1_565
Li5 O12 1.917663 1_555
Li5 O13 2.008313 1_555
Li5 O24 2.019334 1_555
Li6 O29 2.177336 1_555
Li6 O21 2.256482 1_555
Li6 O35 2.257605 1_555
Li6 O24 2.357999 1_545
Li6 O12 2.373557 1_545
Li6 O17 2.419406 1_545
Li7 O21 1.976258 1_555
Li7 O35 2.008770 1_555
Li7 O34 2.140178 1_555
Li8 O29 2.013035 1_565
Li8 O24 2.036580 1_555
Li8 O33 2.065733 1_655
Li8 O45 2.497902 1_665
Li9 O43 2.051556 1_555
Li9 O35 2.089171 1_555
Li9 O29 2.112877 1_555
Li9 O42 2.247824 1_555
Li10 O46 1.902615 1_555
Li10 O30 1.978343 1_555
Li10 O38 1.992397 1_555
Li11 O6 1.999206 1_554
Li11 O36 2.013632 1_455
Li11 O38 2.021978 1_555
Li11 O0 2.537911 1_454
Mn0 O7 1.939937 1_655
Mn0 O8 1.952700 1_555
Mn0 O18 1.975856 1_555
Mn0 O15 1.986637 1_655
Mn0 O5 2.103029 1_555
Mn0 O22 2.120699 1_655
Mn1 O0 1.981669 1_554
Mn1 O2 2.007594 1_554
Mn1 O40 2.057451 1_555
Mn1 O1 2.107102 1_554
Mn1 O36 2.107567 1_555
Mn1 O37 2.390093 1_555
O0 P1 1.544391 1_555
O1 P0 1.545213 1_555
O2 P2 1.531074 1_555
O3 P0 1.544390 1_555
O3 V1 1.932092 1_565
O4 P0 1.541819 1_555
O5 P2 1.565126 1_555
O5 V0 2.090479 1_555
O6 P2 1.545965 1_455
O7 P11 1.605165 1_556
O7 V1 2.170075 1_555
O8 P1 1.600237 1_545
O8 V0 2.167122 1_555
O9 P4 1.549628 1_555
O9 V0 1.969130 1_555
O10 P1 1.556476 1_455
O10 V1 2.027626 1_565
O11 P3 1.533855 1_555
O12 P1 1.529283 1_555
O13 P2 1.577866 1_555
O13 V2 2.013233 1_655
O14 P3 1.549845 1_555
O14 V1 1.968646 1_555
O15 P3 1.605318 1_555
O15 V2 2.093666 1_555
O16 P5 1.543791 1_555
O16 V1 2.044234 1_565
O17 P5 1.515207 1_555
O18 P4 1.612621 1_555
O18 V2 2.096298 1_655
O19 P4 1.538610 1_555
O19 V3 1.981211 1_555
O20 P5 1.584721 1_555
O20 V3 1.993741 1_555
O21 P4 1.531702 1_555
O22 P6 1.559847 1_555
O22 V1 2.107182 1_555
O23 P3 1.539547 1_555
O23 V3 1.973149 1_555
O24 P7 1.539089 1_555
O25 P8 1.522168 1_555
O25 V2 1.971598 1_555
O26 P7 1.530585 1_555
O26 V2 1.961052 1_655
O27 P5 1.600708 1_555
O27 V5 2.032177 1_555
O27 V4 2.126626 1_555
O28 P7 1.603395 1_555
O28 V5 1.991245 1_555
O28 V3 2.088247 1_555
O29 P6 1.542719 1_655
O30 P6 1.574863 1_555
O30 V2 2.059005 1_555
O31 P6 1.546001 1_555
O31 V4 1.945108 1_545
O32 P8 1.600258 1_555
O32 V5 1.995312 1_555
O32 V3 2.120465 1_555
O33 P8 1.565305 1_555
O33 V4 2.038547 1_555
O34 P9 1.576865 1_555
O34 V3 1.994476 1_555
O35 P10 1.540466 1_555
O36 P7 1.550800 1_555
O37 P10 1.572769 1_565
O37 V5 1.958047 1_555
O38 P8 1.540028 1_555
O39 P10 1.567765 1_555
O39 V4 2.019694 1_545
O40 P9 1.622174 1_555
O40 V5 2.017501 1_555
O41 P0 1.599717 1_554
O41 V5 1.999693 1_555
O41 V4 2.160967 1_555
O42 P9 1.540030 1_555
O42 V0 2.047523 1_554
O43 P11 1.559294 1_655
O43 V0 2.026151 1_554
O44 P9 1.509764 1_555
O45 P11 1.534501 1_555
O45 V4 2.024779 1_545
O46 P11 1.533729 1_555
O47 P10 1.542002 1_555
O47 V0 1.941746 1_554
