# generated using pymatgen
data_K4Np3H8Cl7O10
_symmetry_space_group_name_H-M   'P 1'
_cell_length_a   8.96565300
_cell_length_b   12.33681642
_cell_length_c   12.48248578
_cell_angle_alpha   66.06334674
_cell_angle_beta   69.93581484
_cell_angle_gamma   74.39264865
_symmetry_Int_Tables_number   1
_chemical_formula_structural   K4Np3H8Cl7O10
_chemical_formula_sum   'K8 Np6 H16 Cl14 O20'
_cell_volume   1171.69081219
_cell_formula_units_Z   2
loop_
 _symmetry_equiv_pos_site_id
 _symmetry_equiv_pos_as_xyz
  1  'x, y, z'
loop_
 _atom_site_type_symbol
 _atom_site_label
 _atom_site_symmetry_multiplicity
 _atom_site_fract_x
 _atom_site_fract_y
 _atom_site_fract_z
 _atom_site_occupancy
  K  K0  1  0.95106700  0.21549400  0.87108100  1
  K  K1  1  0.04893300  0.78450600  0.12891900  1
  K  K2  1  0.45168900  0.71703900  0.86034300  1
  K  K3  1  0.54831100  0.28296100  0.13965700  1
  K  K4  1  0.35991400  0.39689700  0.82544500  1
  K  K5  1  0.64008600  0.60310300  0.17455500  1
  K  K6  1  0.89158700  0.93818000  0.74109500  1
  K  K7  1  0.10841300  0.06182000  0.25890500  1
  Np  Np0  1  0.59634100  0.92846300  0.16990700  1
  Np  Np1  1  0.40365900  0.07153700  0.83009300  1
  Np  Np2  1  0.73020300  0.75378100  0.50627000  1
  Np  Np3  1  0.26979700  0.24621900  0.49373000  1
  Np  Np4  1  0.90200600  0.56911400  0.82828300  1
  Np  Np5  1  0.09799400  0.43088600  0.17171700  1
  H  H0  1  0.33178300  0.75068200  0.32344200  1
  H  H1  1  0.66821700  0.24931800  0.67655800  1
  H  H2  1  0.18390900  0.71398900  0.65008600  1
  H  H3  1  0.81609100  0.28601100  0.34991400  1
  H  H4  1  0.51864100  0.92358200  0.64473400  1
  H  H5  1  0.48135900  0.07641800  0.35526600  1
  H  H6  1  0.84269600  0.48596600  0.51673200  1
  H  H7  1  0.15730400  0.51403400  0.48326800  1
  H  H8  1  0.39239200  0.90620000  0.59100500  1
  H  H9  1  0.60760800  0.09380000  0.40899500  1
  H  H10  1  0.04841600  0.75581700  0.58370400  1
  H  H11  1  0.95158400  0.24418300  0.41629600  1
  H  H12  1  0.86240800  0.55938500  0.37676400  1
  H  H13  1  0.13759200  0.44061500  0.62323600  1
  H  H14  1  0.45189200  0.71441400  0.40257800  1
  H  H15  1  0.54810800  0.28558600  0.59742200  1
  Cl  Cl0  1  0.12645700  0.60289800  0.92668900  1
  Cl  Cl1  1  0.87354300  0.39710200  0.07331100  1
  Cl  Cl2  1  0.63531200  0.10015400  0.92527900  1
  Cl  Cl3  1  0.36468800  0.89984600  0.07472100  1
  Cl  Cl4  1  0.84076900  0.05099400  0.13975300  1
  Cl  Cl5  1  0.15923100  0.94900600  0.86024700  1
  Cl  Cl6  1  0.66344900  0.44158900  0.86542700  1
  Cl  Cl7  1  0.33655100  0.55841100  0.13457300  1
  Cl  Cl8  1  0.80691100  0.96921500  0.48509400  1
  Cl  Cl9  1  0.19308900  0.03078500  0.51490600  1
  Cl  Cl10  1  0.44593800  0.64436400  0.59430100  1
  Cl  Cl11  1  0.55406200  0.35563600  0.40569900  1
  Cl  Cl12  1  0.07143800  0.73923300  0.39680000  1
  Cl  Cl13  1  0.92856200  0.26076700  0.60320000  1
  O  O0  1  0.75440900  0.67545500  0.89564300  1
  O  O1  1  0.24559100  0.32454500  0.10435700  1
  O  O2  1  0.74542300  0.81868700  0.10874200  1
  O  O3  1  0.25457700  0.18131300  0.89125800  1
  O  O4  1  0.05435500  0.46069000  0.76269600  1
  O  O5  1  0.94564500  0.53931000  0.23730400  1
  O  O6  1  0.44610000  0.03792700  0.23319000  1
  O  O7  1  0.55390000  0.96207300  0.76681000  1
  O  O8  1  0.78405400  0.67652600  0.65414300  1
  O  O9  1  0.21594600  0.32347400  0.34585700  1
  O  O10  1  0.44605900  0.74628900  0.31683900  1
  O  O11  1  0.55394100  0.25371100  0.68316100  1
  O  O12  1  0.06551300  0.73479900  0.66430000  1
  O  O13  1  0.93448700  0.26520100  0.33570000  1
  O  O14  1  0.68048800  0.82778700  0.35716000  1
  O  O15  1  0.31951200  0.17221300  0.64284000  1
  O  O16  1  0.49281700  0.86804800  0.61684700  1
  O  O17  1  0.50718300  0.13195200  0.38315300  1
  O  O18  1  0.81836000  0.56644500  0.45921600  1
  O  O19  1  0.18164000  0.43355500  0.54078400  1
loop_
_geom_bond_atom_site_label_1
_geom_bond_atom_site_label_2
_geom_bond_distance
_geom_bond_site_symmetry_2
K0 O3 2.722613 1_655
K0 O4 3.027373 1_655
K1 O2 2.722613 1_455
K1 O5 3.027373 1_455
K2 O0 2.776961 1_555
K2 O16 2.801906 1_555
K2 O7 3.038689 1_555
K2 O8 3.276305 1_555
K3 O1 2.776961 1_555
K3 O17 2.801906 1_555
K3 O6 3.038689 1_555
K3 O9 3.276305 1_555
K4 O3 2.772480 1_555
K4 O11 2.841355 1_555
K4 O4 2.924024 1_555
K4 O1 3.080648 1_556
K5 O2 2.772480 1_555
K5 O10 2.841355 1_555
K5 O5 2.924024 1_555
K5 O0 3.080648 1_554
K6 O7 2.878533 1_555
K6 O12 2.909761 1_655
K6 O0 3.344063 1_555
K7 O6 2.878533 1_555
K7 O13 2.909761 1_455
K7 O1 3.344063 1_555
Np0 O2 1.835308 1_555
Np0 O6 1.849006 1_565
Np0 O14 2.434170 1_555
Np0 O10 2.611378 1_555
Np1 O3 1.835308 1_555
Np1 O7 1.849006 1_545
Np1 O15 2.434170 1_555
Np1 O11 2.611378 1_555
Np2 O14 1.862224 1_555
Np2 O8 1.866784 1_555
Np2 O18 2.472057 1_555
Np2 O16 2.524075 1_555
Np3 O15 1.862224 1_555
Np3 O9 1.866784 1_555
Np3 O19 2.472057 1_555
Np3 O17 2.524075 1_555
Np4 O0 1.837585 1_555
Np4 O4 1.861011 1_655
Np4 O8 2.466811 1_555
Np4 O12 2.583655 1_655
Np5 O1 1.837585 1_555
Np5 O5 1.861011 1_455
Np5 O9 2.466811 1_555
Np5 O13 2.583655 1_455
H0 O10 0.987550 1_555
H1 O11 0.987550 1_555
H2 O12 0.992605 1_555
H3 O13 0.992605 1_555
H4 O16 0.989107 1_555
H4 K2 2.871609 1_555
H5 O17 0.989107 1_555
H5 K3 2.871609 1_555
H6 O18 0.980465 1_555
H7 O19 0.980465 1_555
H8 O16 0.992125 1_555
H9 O17 0.992125 1_555
H10 O12 0.987721 1_555
H11 O13 0.987721 1_555
H12 O18 0.999078 1_555
H13 O19 0.999078 1_555
H14 O10 0.994288 1_555
H15 O11 0.994288 1_555
Cl0 Np4 2.880089 1_455
Cl0 Np5 2.900385 1_556
Cl0 K4 3.219593 1_555
Cl0 K2 3.282900 1_555
Cl1 Np5 2.880089 1_655
Cl1 Np4 2.900385 1_554
Cl1 K5 3.219593 1_555
Cl1 K3 3.282900 1_555
Cl2 Np1 2.877167 1_555
Cl2 Np0 2.889742 1_546
Cl2 K0 3.250996 1_555
Cl2 K6 3.491536 1_545
Cl3 Np0 2.877167 1_555
Cl3 Np1 2.889742 1_564
Cl3 K1 3.250996 1_555
Cl3 K7 3.491536 1_565
Cl4 Np0 2.825609 1_545
Cl4 K0 3.102453 1_554
Cl4 K7 3.281844 1_655
Cl4 K3 3.320625 1_555
Cl4 K1 3.346026 1_645
Cl5 Np1 2.825609 1_565
Cl5 K1 3.102453 1_556
Cl5 K6 3.281844 1_455
Cl5 K2 3.320625 1_555
Cl5 K0 3.346026 1_465
Cl6 Np4 2.793371 1_555
Cl6 K3 3.136785 1_556
Cl6 K4 3.149857 1_555
Cl6 K0 3.244931 1_555
Cl6 K2 3.404748 1_555
Cl7 Np5 2.793371 1_555
Cl7 K2 3.136785 1_554
Cl7 K5 3.149857 1_555
Cl7 K1 3.244931 1_555
Cl7 K3 3.404748 1_555
Cl8 Np2 2.809863 1_555
Cl8 K7 3.223578 1_665
Cl8 K6 3.383742 1_555
Cl9 Np3 2.809863 1_555
Cl9 K6 3.223578 1_445
Cl9 K7 3.383742 1_555
Cl10 Np2 2.872459 1_555
Cl10 K4 3.291271 1_555
Cl11 Np3 2.872459 1_555
Cl11 K5 3.291271 1_555
Cl12 Np2 2.880002 1_455
Cl12 K1 3.228099 1_555
Cl12 K7 3.697359 1_565
Cl13 Np3 2.880002 1_655
Cl13 K0 3.228099 1_555
Cl13 K6 3.697359 1_545
