# generated using pymatgen
data_UCu4Ag
_symmetry_space_group_name_H-M   'P 1'
_cell_length_a   5.06013674
_cell_length_b   5.06013674
_cell_length_c   5.06013674
_cell_angle_alpha   60.00000000
_cell_angle_beta   60.00000000
_cell_angle_gamma   60.00000000
_symmetry_Int_Tables_number   1
_chemical_formula_structural   UCu4Ag
_chemical_formula_sum   'U1 Cu4 Ag1'
_cell_volume   91.61609149
_cell_formula_units_Z   1
loop_
 _symmetry_equiv_pos_site_id
 _symmetry_equiv_pos_as_xyz
  1  'x, y, z'
loop_
 _atom_site_type_symbol
 _atom_site_label
 _atom_site_symmetry_multiplicity
 _atom_site_fract_x
 _atom_site_fract_y
 _atom_site_fract_z
 _atom_site_occupancy
  U  U0  1  0.00000000  0.00000000  0.00000000  1
  Cu  Cu0  1  0.62388400  0.62388400  0.12834800  1
  Cu  Cu1  1  0.62388400  0.12834800  0.62388400  1
  Cu  Cu2  1  0.12834800  0.62388400  0.62388400  1
  Cu  Cu3  1  0.62388400  0.62388400  0.62388400  1
  Ag  Ag0  1  0.25000000  0.25000000  0.25000000  1
loop_
_geom_bond_atom_site_label_1
_geom_bond_atom_site_label_2
_geom_bond_distance
_geom_bond_site_symmetry_2
Cu0 Cu1 2.507480 1_555
Cu0 Cu2 2.507480 1_555
Cu0 Cu3 2.507480 1_555
Cu0 Cu1 2.552657 1_564
Cu0 Cu2 2.552657 1_654
Cu0 Cu3 2.552657 1_554
Cu0 U0 2.969207 1_655
Cu0 U0 2.969207 1_565
Cu0 U0 2.969207 1_665
Cu1 Cu2 2.507480 1_555
Cu1 Cu3 2.507480 1_555
Cu1 Cu2 2.552657 1_645
Cu1 Cu3 2.552657 1_545
Cu1 U0 2.969207 1_655
Cu1 U0 2.969207 1_556
Cu1 U0 2.969207 1_656
Cu2 Cu3 2.507480 1_555
Cu2 Cu3 2.552657 1_455
Cu2 U0 2.969207 1_556
Cu2 U0 2.969207 1_566
Cu2 U0 2.969207 1_565
Cu3 U0 2.969207 1_566
Cu3 U0 2.969207 1_656
Cu3 U0 2.969207 1_665
Ag0 Cu0 2.964391 1_545
Ag0 Cu2 2.964391 1_545
Ag0 Cu0 2.964391 1_555
Ag0 Cu3 2.964391 1_545
Ag0 Cu2 2.964391 1_554
Ag0 Cu1 2.964391 1_555
Ag0 Cu1 2.964391 1_554
Ag0 Cu3 2.964391 1_455
Ag0 Cu3 2.964391 1_554
Ag0 Cu2 2.964391 1_555
Ag0 Cu1 2.964391 1_455
Ag0 Cu0 2.964391 1_455
Ag0 U0 3.098688 1_556
Ag0 U0 3.098688 1_655
Ag0 U0 3.098688 1_565
Ag0 U0 3.098688 1_555
