# generated using pymatgen
data_Ca5VN5
_symmetry_space_group_name_H-M   'P 1'
_cell_length_a   6.02291634
_cell_length_b   6.77578923
_cell_length_c   16.59949223
_cell_angle_alpha   90.00000000
_cell_angle_beta   90.00000000
_cell_angle_gamma   90.00000000
_symmetry_Int_Tables_number   1
_chemical_formula_structural   Ca5VN5
_chemical_formula_sum   'Ca20 V4 N20'
_cell_volume   677.42547162
_cell_formula_units_Z   4
loop_
 _symmetry_equiv_pos_site_id
 _symmetry_equiv_pos_as_xyz
  1  'x, y, z'
loop_
 _atom_site_type_symbol
 _atom_site_label
 _atom_site_symmetry_multiplicity
 _atom_site_fract_x
 _atom_site_fract_y
 _atom_site_fract_z
 _atom_site_occupancy
  Ca  Ca0  1  0.71044430  0.99192747  0.92548015  1
  Ca  Ca1  1  0.28955570  0.49192747  0.07451985  1
  Ca  Ca2  1  0.71044430  0.00807253  0.57451985  1
  Ca  Ca3  1  0.28955570  0.50807253  0.42548015  1
  Ca  Ca4  1  0.28955570  0.00807253  0.07451985  1
  Ca  Ca5  1  0.71044430  0.50807253  0.92548015  1
  Ca  Ca6  1  0.28955570  0.99192747  0.42548015  1
  Ca  Ca7  1  0.71044430  0.49192747  0.57451985  1
  Ca  Ca8  1  0.81095356  0.25000000  0.08179723  1
  Ca  Ca9  1  0.18904644  0.75000000  0.91820277  1
  Ca  Ca10  1  0.81095356  0.75000000  0.41820277  1
  Ca  Ca11  1  0.18904644  0.25000000  0.58179723  1
  Ca  Ca12  1  0.48678637  0.25000000  0.23674970  1
  Ca  Ca13  1  0.51321363  0.75000000  0.76325030  1
  Ca  Ca14  1  0.48678637  0.75000000  0.26325030  1
  Ca  Ca15  1  0.51321363  0.25000000  0.73674970  1
  Ca  Ca16  1  0.95301488  0.50000000  0.25000000  1
  Ca  Ca17  1  0.04698512  0.00000000  0.75000000  1
  Ca  Ca18  1  0.04698512  0.50000000  0.75000000  1
  Ca  Ca19  1  0.95301488  0.00000000  0.25000000  1
  V  V0  1  0.71162807  0.25000000  0.40664997  1
  V  V1  1  0.28837193  0.75000000  0.59335003  1
  V  V2  1  0.71162807  0.75000000  0.09335003  1
  V  V3  1  0.28837193  0.25000000  0.90664997  1
  N  N0  1  0.63926348  0.46891726  0.34530875  1
  N  N1  1  0.36073652  0.96891726  0.65469125  1
  N  N2  1  0.63926348  0.53108274  0.15469125  1
  N  N3  1  0.36073652  0.03108274  0.84530875  1
  N  N4  1  0.36073652  0.53108274  0.65469125  1
  N  N5  1  0.63926348  0.03108274  0.34530875  1
  N  N6  1  0.36073652  0.46891726  0.84530875  1
  N  N7  1  0.63926348  0.96891726  0.15469125  1
  N  N8  1  0.99173789  0.25000000  0.44765256  1
  N  N9  1  0.00826211  0.75000000  0.55234744  1
  N  N10  1  0.99173789  0.75000000  0.05234744  1
  N  N11  1  0.00826211  0.25000000  0.94765256  1
  N  N12  1  0.51721563  0.25000000  0.48949976  1
  N  N13  1  0.48278437  0.75000000  0.51050024  1
  N  N14  1  0.51721563  0.75000000  0.01050024  1
  N  N15  1  0.48278437  0.25000000  0.98949976  1
  N  N16  1  0.86540696  0.25000000  0.67464606  1
  N  N17  1  0.13459304  0.75000000  0.32535394  1
  N  N18  1  0.86540696  0.75000000  0.82535394  1
  N  N19  1  0.13459304  0.25000000  0.17464606  1
loop_
_geom_bond_atom_site_label_1
_geom_bond_atom_site_label_2
_geom_bond_distance
_geom_bond_site_symmetry_2
Ca0 N14 2.456280 1_556
Ca0 N15 2.463169 1_565
Ca0 N3 2.505546 1_565
Ca0 N18 2.514086 1_555
Ca0 N11 2.531935 1_665
Ca1 N15 2.456280 1_554
Ca1 N14 2.463169 1_555
Ca1 N2 2.505546 1_555
Ca1 N19 2.514086 1_555
Ca1 N10 2.531935 1_455
Ca2 N12 2.456280 1_555
Ca2 N13 2.463169 1_545
Ca2 N1 2.505546 1_545
Ca2 N16 2.514086 1_555
Ca2 N9 2.531935 1_645
Ca3 N13 2.456280 1_555
Ca3 N12 2.463169 1_555
Ca3 N0 2.505546 1_555
Ca3 N17 2.514086 1_555
Ca3 N8 2.531935 1_455
Ca4 N15 2.456280 1_554
Ca4 N14 2.463169 1_545
Ca4 N7 2.505546 1_545
Ca4 N19 2.514086 1_555
Ca4 N10 2.531935 1_445
Ca5 N14 2.456280 1_556
Ca5 N15 2.463169 1_555
Ca5 N6 2.505546 1_555
Ca5 N18 2.514086 1_555
Ca5 N11 2.531935 1_655
Ca6 N13 2.456280 1_555
Ca6 N12 2.463169 1_565
Ca6 N5 2.505546 1_565
Ca6 N17 2.514086 1_555
Ca6 N8 2.531935 1_465
Ca7 N12 2.456280 1_555
Ca7 N13 2.463169 1_555
Ca7 N4 2.505546 1_555
Ca7 N16 2.514086 1_555
Ca7 N9 2.531935 1_655
Ca8 N2 2.482088 1_555
Ca8 N7 2.482088 1_545
Ca8 N19 2.484959 1_655
Ca8 N15 2.500799 1_554
Ca8 N11 2.523999 1_654
Ca9 N6 2.482088 1_555
Ca9 N3 2.482088 1_565
Ca9 N18 2.484959 1_455
Ca9 N14 2.500799 1_556
Ca9 N10 2.523999 1_456
Ca10 N5 2.482088 1_565
Ca10 N0 2.482088 1_555
Ca10 N17 2.484959 1_655
Ca10 N13 2.500799 1_555
Ca10 N9 2.523999 1_655
Ca11 N1 2.482088 1_545
Ca11 N4 2.482088 1_555
Ca11 N16 2.484959 1_455
Ca11 N12 2.500799 1_555
Ca11 N8 2.523999 1_455
Ca12 N19 2.358464 1_555
Ca12 N5 2.508179 1_555
Ca12 N0 2.508179 1_555
Ca12 N7 2.515176 1_545
Ca12 N2 2.515176 1_555
Ca13 N18 2.358464 1_555
Ca13 N1 2.508179 1_555
Ca13 N4 2.508179 1_555
Ca13 N3 2.515176 1_565
Ca13 N6 2.515176 1_555
Ca14 N17 2.358464 1_555
Ca14 N2 2.508179 1_555
Ca14 N7 2.508179 1_555
Ca14 N5 2.515176 1_565
Ca14 N0 2.515176 1_555
Ca15 N16 2.358464 1_555
Ca15 N6 2.508179 1_555
Ca15 N3 2.508179 1_555
Ca15 N1 2.515176 1_545
Ca15 N4 2.515176 1_555
Ca16 N17 2.372778 1_655
Ca16 N19 2.372778 1_655
Ca16 N2 2.473517 1_555
Ca16 N0 2.473517 1_555
Ca17 N16 2.372778 1_455
Ca17 N18 2.372778 1_445
Ca17 N1 2.473517 1_545
Ca17 N3 2.473517 1_555
Ca18 N16 2.372778 1_455
Ca18 N18 2.372778 1_455
Ca18 N4 2.473517 1_555
Ca18 N6 2.473517 1_555
Ca19 N19 2.372778 1_655
Ca19 N17 2.372778 1_645
Ca19 N5 2.473517 1_555
Ca19 N7 2.473517 1_545
N0 V0 1.851229 1_555
N1 V1 1.851229 1_555
N2 V2 1.851229 1_555
N3 V3 1.851229 1_555
N4 V1 1.851229 1_555
N5 V0 1.851229 1_555
N6 V3 1.851229 1_555
N7 V2 1.851229 1_555
N8 V0 1.819197 1_555
N9 V1 1.819197 1_555
N10 V2 1.819197 1_555
N11 V3 1.819197 1_555
N12 V0 1.806220 1_555
N13 V1 1.806220 1_555
N14 V2 1.806220 1_555
N15 V3 1.806220 1_555
