# generated using pymatgen
data_PrMnIn
_symmetry_space_group_name_H-M   'P 1'
_cell_length_a   9.67961656
_cell_length_b   9.67961656
_cell_length_c   7.56055600
_cell_angle_alpha   90.00000000
_cell_angle_beta   90.00000000
_cell_angle_gamma   120.00000382
_symmetry_Int_Tables_number   1
_chemical_formula_structural   PrMnIn
_chemical_formula_sum   'Pr8 Mn8 In8'
_cell_volume   613.48035065
_cell_formula_units_Z   8
loop_
 _symmetry_equiv_pos_site_id
 _symmetry_equiv_pos_as_xyz
  1  'x, y, z'
loop_
 _atom_site_type_symbol
 _atom_site_label
 _atom_site_symmetry_multiplicity
 _atom_site_fract_x
 _atom_site_fract_y
 _atom_site_fract_z
 _atom_site_occupancy
  Pr  Pr0_0  1  0.16666650  0.33333350  0.00000000  1
  Pr  Pr0_1  1  0.16666650  0.33333350  0.50000000  1
  Pr  Pr0_2  1  0.16666650  0.83333350  0.00000000  1
  Pr  Pr0_3  1  0.16666650  0.83333350  0.50000000  1
  Pr  Pr0_4  1  0.66666650  0.33333350  0.00000000  1
  Pr  Pr0_5  1  0.66666650  0.33333350  0.50000000  1
  Pr  Pr0_6  1  0.66666650  0.83333350  0.00000000  1
  Pr  Pr0_7  1  0.66666650  0.83333350  0.50000000  1
  Mn  Mn0_0  1  0.33333350  0.16666650  0.25000000  1
  Mn  Mn0_1  1  0.33333350  0.16666650  0.75000000  1
  Mn  Mn0_2  1  0.33333350  0.66666650  0.25000000  1
  Mn  Mn0_3  1  0.33333350  0.66666650  0.75000000  1
  Mn  Mn0_4  1  0.83333350  0.16666650  0.25000000  1
  Mn  Mn0_5  1  0.83333350  0.16666650  0.75000000  1
  Mn  Mn0_6  1  0.83333350  0.66666650  0.25000000  1
  Mn  Mn0_7  1  0.83333350  0.66666650  0.75000000  1
  In  In0_0  1  0.00000000  0.00000000  0.25000000  1
  In  In0_1  1  0.00000000  0.00000000  0.75000000  1
  In  In0_2  1  0.00000000  0.50000000  0.25000000  1
  In  In0_3  1  0.00000000  0.50000000  0.75000000  1
  In  In0_4  1  0.50000000  0.00000000  0.25000000  1
  In  In0_5  1  0.50000000  0.00000000  0.75000000  1
  In  In0_6  1  0.50000000  0.50000000  0.25000000  1
  In  In0_7  1  0.50000000  0.50000000  0.75000000  1
loop_
_geom_bond_atom_site_label_1
_geom_bond_atom_site_label_2
_geom_bond_distance
_geom_bond_site_symmetry_2
Pr0_0 Pr0_1 3.780278 1_555
Pr0_0 Pr0_1 3.780278 1_554
Pr0_2 Pr0_3 3.780278 1_555
Pr0_2 Pr0_3 3.780278 1_554
Pr0_4 Pr0_5 3.780278 1_554
Pr0_4 Pr0_5 3.780278 1_555
Pr0_6 Pr0_7 3.780278 1_554
Pr0_6 Pr0_7 3.780278 1_555
Mn0_0 Pr0_5 3.373503 1_555
Mn0_0 Pr0_4 3.373503 1_555
Mn0_0 Pr0_2 3.373503 1_545
Mn0_0 Pr0_3 3.373503 1_545
Mn0_0 Pr0_1 3.373510 1_555
Mn0_0 Pr0_0 3.373510 1_555
Mn0_1 Pr0_5 3.373503 1_555
Mn0_1 Pr0_4 3.373503 1_556
Mn0_1 Pr0_2 3.373503 1_546
Mn0_1 Pr0_3 3.373503 1_545
Mn0_1 Pr0_1 3.373510 1_555
Mn0_1 Pr0_0 3.373510 1_556
Mn0_2 Pr0_0 3.373503 1_555
Mn0_2 Pr0_6 3.373503 1_555
Mn0_2 Pr0_7 3.373503 1_555
Mn0_2 Pr0_1 3.373503 1_555
Mn0_2 Pr0_3 3.373510 1_555
Mn0_2 Pr0_2 3.373510 1_555
Mn0_3 Pr0_6 3.373503 1_556
Mn0_3 Pr0_0 3.373503 1_556
Mn0_3 Pr0_7 3.373503 1_555
Mn0_3 Pr0_1 3.373503 1_555
Mn0_3 Pr0_2 3.373510 1_556
Mn0_3 Pr0_3 3.373510 1_555
Mn0_4 Pr0_7 3.373503 1_545
Mn0_4 Pr0_6 3.373503 1_545
Mn0_4 Pr0_0 3.373503 1_655
Mn0_4 Pr0_1 3.373503 1_655
Mn0_4 Pr0_5 3.373510 1_555
Mn0_4 Pr0_4 3.373510 1_555
Mn0_5 Pr0_7 3.373503 1_545
Mn0_5 Pr0_6 3.373503 1_546
Mn0_5 Pr0_0 3.373503 1_656
Mn0_5 Pr0_1 3.373503 1_655
Mn0_5 Pr0_4 3.373510 1_556
Mn0_5 Pr0_5 3.373510 1_555
Mn0_6 Pr0_3 3.373503 1_655
Mn0_6 Pr0_5 3.373503 1_555
Mn0_6 Pr0_4 3.373503 1_555
Mn0_6 Pr0_2 3.373503 1_655
Mn0_6 Pr0_6 3.373510 1_555
Mn0_6 Pr0_7 3.373510 1_555
Mn0_7 Pr0_2 3.373503 1_656
Mn0_7 Pr0_3 3.373503 1_655
Mn0_7 Pr0_5 3.373503 1_555
Mn0_7 Pr0_4 3.373503 1_556
Mn0_7 Pr0_7 3.373510 1_555
Mn0_7 Pr0_6 3.373510 1_556
In0_0 Mn0_4 2.794262 1_455
In0_0 Mn0_0 2.794266 1_555
In0_0 Mn0_6 2.794266 1_445
In0_0 Pr0_2 3.373503 1_545
In0_0 Pr0_3 3.373503 1_545
In0_0 Pr0_0 3.373507 1_555
In0_0 Pr0_1 3.373507 1_555
In0_0 Pr0_7 3.373507 1_445
In0_0 Pr0_6 3.373507 1_445
In0_1 Mn0_5 2.794262 1_455
In0_1 Mn0_1 2.794266 1_555
In0_1 Mn0_7 2.794266 1_445
In0_1 Pr0_2 3.373503 1_546
In0_1 Pr0_3 3.373503 1_545
In0_1 Pr0_0 3.373507 1_556
In0_1 Pr0_1 3.373507 1_555
In0_1 Pr0_6 3.373507 1_446
In0_1 Pr0_7 3.373507 1_445
In0_2 Mn0_6 2.794262 1_455
In0_2 Mn0_2 2.794266 1_555
In0_2 Mn0_4 2.794266 1_455
In0_2 Pr0_0 3.373503 1_555
In0_2 Pr0_1 3.373503 1_555
In0_2 Pr0_3 3.373507 1_555
In0_2 Pr0_2 3.373507 1_555
In0_2 Pr0_5 3.373507 1_455
In0_2 Pr0_4 3.373507 1_455
In0_3 Mn0_7 2.794262 1_455
In0_3 Mn0_3 2.794266 1_555
In0_3 Mn0_5 2.794266 1_455
In0_3 Pr0_0 3.373503 1_556
In0_3 Pr0_1 3.373503 1_555
In0_3 Pr0_2 3.373507 1_556
In0_3 Pr0_3 3.373507 1_555
In0_3 Pr0_5 3.373507 1_455
In0_3 Pr0_4 3.373507 1_456
In0_4 Mn0_0 2.794262 1_555
In0_4 Mn0_4 2.794266 1_555
In0_4 Mn0_2 2.794266 1_545
In0_4 Pr0_7 3.373503 1_545
In0_4 Pr0_6 3.373503 1_545
In0_4 Pr0_3 3.373507 1_545
In0_4 Pr0_2 3.373507 1_545
In0_4 Pr0_5 3.373507 1_555
In0_4 Pr0_4 3.373507 1_555
In0_5 Mn0_1 2.794262 1_555
In0_5 Mn0_5 2.794266 1_555
In0_5 Mn0_3 2.794266 1_545
In0_5 Pr0_7 3.373503 1_545
In0_5 Pr0_6 3.373503 1_546
In0_5 Pr0_3 3.373507 1_545
In0_5 Pr0_2 3.373507 1_546
In0_5 Pr0_5 3.373507 1_555
In0_5 Pr0_4 3.373507 1_556
In0_6 Mn0_2 2.794262 1_555
In0_6 Mn0_0 2.794266 1_555
In0_6 Mn0_6 2.794266 1_555
In0_6 Pr0_4 3.373503 1_555
In0_6 Pr0_5 3.373503 1_555
In0_6 Pr0_0 3.373507 1_555
In0_6 Pr0_1 3.373507 1_555
In0_6 Pr0_6 3.373507 1_555
In0_6 Pr0_7 3.373507 1_555
In0_7 Mn0_3 2.794262 1_555
In0_7 Mn0_1 2.794266 1_555
In0_7 Mn0_7 2.794266 1_555
In0_7 Pr0_4 3.373503 1_556
In0_7 Pr0_5 3.373503 1_555
In0_7 Pr0_0 3.373507 1_556
In0_7 Pr0_1 3.373507 1_555
In0_7 Pr0_7 3.373507 1_555
In0_7 Pr0_6 3.373507 1_556
