# generated using pymatgen
data_Ce(Sn2Pd)2
_symmetry_space_group_name_H-M   'P 1'
_cell_length_a   8.92934051
_cell_length_b   8.92934051
_cell_length_c   6.11874400
_cell_angle_alpha   90.00000000
_cell_angle_beta   90.00000000
_cell_angle_gamma   138.17058863
_symmetry_Int_Tables_number   1
_chemical_formula_structural   Ce(Sn2Pd)2
_chemical_formula_sum   'Ce2 Sn8 Pd4'
_cell_volume   325.36555425
_cell_formula_units_Z   2
loop_
 _symmetry_equiv_pos_site_id
 _symmetry_equiv_pos_as_xyz
  1  'x, y, z'
loop_
 _atom_site_type_symbol
 _atom_site_label
 _atom_site_symmetry_multiplicity
 _atom_site_fract_x
 _atom_site_fract_y
 _atom_site_fract_z
 _atom_site_occupancy
  Ce  Ce0  1  0.22759300  0.22759300  0.75000000  1
  Ce  Ce1  1  0.77240700  0.77240700  0.25000000  1
  Sn  Sn0  1  0.55080700  0.14909900  0.75000000  1
  Sn  Sn1  1  0.85090100  0.44919300  0.25000000  1
  Sn  Sn2  1  0.44919300  0.85090100  0.25000000  1
  Sn  Sn3  1  0.14909900  0.55080700  0.75000000  1
  Sn  Sn4  1  0.63146800  0.80339300  0.75000000  1
  Sn  Sn5  1  0.19660700  0.36853200  0.25000000  1
  Sn  Sn6  1  0.36853200  0.19660700  0.25000000  1
  Sn  Sn7  1  0.80339300  0.63146800  0.75000000  1
  Pd  Pd0  1  0.16955000  0.83045000  0.00000000  1
  Pd  Pd1  1  0.16955000  0.83045000  0.50000000  1
  Pd  Pd2  1  0.83045000  0.16955000  0.00000000  1
  Pd  Pd3  1  0.83045000  0.16955000  0.50000000  1
loop_
_geom_bond_atom_site_label_1
_geom_bond_atom_site_label_2
_geom_bond_distance
_geom_bond_site_symmetry_2
Ce0 Sn5 3.396915 1_556
Ce0 Sn6 3.396915 1_556
Ce0 Sn5 3.396915 1_555
Ce0 Sn6 3.396915 1_555
Ce0 Sn4 3.436313 1_555
Ce0 Sn7 3.436313 1_555
Ce0 Sn3 3.440256 1_555
Ce0 Sn0 3.440256 1_555
Ce0 Pd0 3.527779 1_546
Ce0 Pd1 3.527779 1_545
Ce0 Pd2 3.527779 1_456
Ce0 Pd3 3.527779 1_455
Ce0 Sn4 3.554477 1_445
Ce0 Sn7 3.554477 1_445
Ce1 Sn7 3.396915 1_554
Ce1 Sn4 3.396915 1_554
Ce1 Sn4 3.396915 1_555
Ce1 Sn7 3.396915 1_555
Ce1 Sn6 3.436313 1_555
Ce1 Sn5 3.436313 1_555
Ce1 Sn1 3.440256 1_555
Ce1 Sn2 3.440256 1_555
Ce1 Pd1 3.527779 1_655
Ce1 Pd2 3.527779 1_565
Ce1 Pd3 3.527779 1_565
Ce1 Pd0 3.527779 1_655
Ce1 Sn6 3.554477 1_665
Ce1 Sn5 3.554477 1_665
Sn0 Sn7 3.026847 1_555
Sn1 Sn6 3.026847 1_555
Sn2 Sn5 3.026847 1_555
Sn3 Sn4 3.026847 1_555
Sn4 Sn7 2.868057 1_555
Sn5 Sn6 2.868057 1_555
Pd0 Sn6 2.743983 1_565
Pd0 Sn7 2.743983 1_454
Pd0 Sn0 2.755000 1_564
Pd0 Sn1 2.755000 1_455
Pd0 Sn2 2.815827 1_555
Pd0 Sn3 2.815827 1_554
Pd1 Sn6 2.743983 1_565
Pd1 Sn7 2.743983 1_455
Pd1 Sn0 2.755000 1_565
Pd1 Sn1 2.755000 1_455
Pd1 Sn2 2.815827 1_555
Pd1 Sn3 2.815827 1_555
Pd2 Sn5 2.743983 1_655
Pd2 Sn4 2.743983 1_544
Pd2 Sn3 2.755000 1_654
Pd2 Sn2 2.755000 1_545
Pd2 Sn1 2.815827 1_555
Pd2 Sn0 2.815827 1_554
Pd3 Sn5 2.743983 1_655
Pd3 Sn4 2.743983 1_545
Pd3 Sn3 2.755000 1_655
Pd3 Sn2 2.755000 1_545
Pd3 Sn1 2.815827 1_555
Pd3 Sn0 2.815827 1_555
