# generated using pymatgen
data_P3Pb5O13
_symmetry_space_group_name_H-M   'P 1'
_cell_length_a   9.89700770
_cell_length_b   9.89700770
_cell_length_c   7.32663400
_cell_angle_alpha   90.00000000
_cell_angle_beta   90.00000000
_cell_angle_gamma   119.99999798
_symmetry_Int_Tables_number   1
_chemical_formula_structural   P3Pb5O13
_chemical_formula_sum   'P6 Pb10 O26'
_cell_volume   621.50260548
_cell_formula_units_Z   2
loop_
 _symmetry_equiv_pos_site_id
 _symmetry_equiv_pos_as_xyz
  1  'x, y, z'
loop_
 _atom_site_type_symbol
 _atom_site_label
 _atom_site_symmetry_multiplicity
 _atom_site_fract_x
 _atom_site_fract_y
 _atom_site_fract_z
 _atom_site_occupancy
  P  P0  1  0.40419900  0.38492200  0.75000000  1
  P  P1  1  0.61507800  0.01927700  0.75000000  1
  P  P2  1  0.98072300  0.59580100  0.75000000  1
  P  P3  1  0.59580100  0.61507800  0.25000000  1
  P  P4  1  0.38492200  0.98072300  0.25000000  1
  P  P5  1  0.01927700  0.40419900  0.25000000  1
  Pb  Pb0  1  0.33333300  0.66666700  0.99889100  1
  Pb  Pb1  1  0.66666700  0.33333300  0.49889100  1
  Pb  Pb2  1  0.66666700  0.33333300  0.00110900  1
  Pb  Pb3  1  0.33333300  0.66666700  0.50110900  1
  Pb  Pb4  1  0.23167500  0.01501800  0.75000000  1
  Pb  Pb5  1  0.98498200  0.21665700  0.75000000  1
  Pb  Pb6  1  0.78334300  0.76832500  0.75000000  1
  Pb  Pb7  1  0.76832500  0.98498200  0.25000000  1
  Pb  Pb8  1  0.01501800  0.78334300  0.25000000  1
  Pb  Pb9  1  0.21665700  0.23167500  0.25000000  1
  O  O0  1  0.32635400  0.48732800  0.75000000  1
  O  O1  1  0.51267200  0.83902600  0.75000000  1
  O  O2  1  0.16097400  0.67364600  0.75000000  1
  O  O3  1  0.67364600  0.51267200  0.25000000  1
  O  O4  1  0.48732800  0.16097400  0.25000000  1
  O  O5  1  0.83902600  0.32635400  0.25000000  1
  O  O6  1  0.58598300  0.48764300  0.75000000  1
  O  O7  1  0.51235700  0.09834000  0.75000000  1
  O  O8  1  0.90166000  0.41401700  0.75000000  1
  O  O9  1  0.41401700  0.51235700  0.25000000  1
  O  O10  1  0.48764300  0.90166000  0.25000000  1
  O  O11  1  0.09834000  0.58598300  0.25000000  1
  O  O12  1  0.35315700  0.27558700  0.57982600  1
  O  O13  1  0.72441300  0.07757000  0.57982600  1
  O  O14  1  0.92243000  0.64684300  0.57982600  1
  O  O15  1  0.64684300  0.72441300  0.07982600  1
  O  O16  1  0.27558700  0.92243000  0.07982600  1
  O  O17  1  0.07757000  0.35315700  0.07982600  1
  O  O18  1  0.64684300  0.72441300  0.42017400  1
  O  O19  1  0.27558700  0.92243000  0.42017400  1
  O  O20  1  0.07757000  0.35315700  0.42017400  1
  O  O21  1  0.35315700  0.27558700  0.92017400  1
  O  O22  1  0.72441300  0.07757000  0.92017400  1
  O  O23  1  0.92243000  0.64684300  0.92017400  1
  O  O24  1  0.00000000  0.00000000  0.50000000  1
  O  O25  1  0.00000000  0.00000000  0.00000000  1
loop_
_geom_bond_atom_site_label_1
_geom_bond_atom_site_label_2
_geom_bond_distance
_geom_bond_site_symmetry_2
O0 P0 1.549716 1_555
O0 Pb3 2.521465 1_555
O0 Pb0 2.521465 1_555
O1 P1 1.549716 1_565
O1 Pb3 2.521462 1_555
O1 Pb0 2.521462 1_555
O2 P2 1.549716 1_455
O2 Pb0 2.521459 1_555
O2 Pb3 2.521459 1_555
O3 P3 1.549716 1_555
O3 Pb1 2.521465 1_555
O3 Pb2 2.521465 1_555
O4 P4 1.549716 1_545
O4 Pb1 2.521462 1_555
O4 Pb2 2.521462 1_555
O5 P5 1.549716 1_655
O5 Pb2 2.521459 1_555
O5 Pb1 2.521459 1_555
O6 P0 1.562474 1_555
O6 Pb6 2.471042 1_555
O6 Pb2 2.752151 1_556
O6 Pb1 2.752151 1_555
O7 P1 1.562474 1_555
O7 Pb4 2.471042 1_555
O7 Pb2 2.752146 1_556
O7 Pb1 2.752146 1_555
O8 P2 1.562474 1_555
O8 Pb5 2.471042 1_555
O8 Pb1 2.752145 1_555
O8 Pb2 2.752145 1_556
O9 P3 1.562474 1_555
O9 Pb9 2.471042 1_555
O9 Pb3 2.752151 1_555
O9 Pb0 2.752151 1_554
O10 P4 1.562474 1_555
O10 Pb7 2.471042 1_555
O10 Pb0 2.752146 1_554
O10 Pb3 2.752146 1_555
O11 P5 1.562474 1_555
O11 Pb8 2.471042 1_555
O11 Pb0 2.752145 1_554
O11 Pb3 2.752145 1_555
O12 P0 1.560126 1_555
O12 Pb4 2.559291 1_555
O12 Pb9 2.695616 1_555
O13 P1 1.560126 1_555
O13 Pb5 2.559291 1_555
O13 Pb7 2.695616 1_545
O14 P2 1.560126 1_555
O14 Pb6 2.559291 1_555
O14 Pb8 2.695616 1_655
O15 P3 1.560126 1_555
O15 Pb7 2.559291 1_555
O15 Pb6 2.695616 1_554
O16 P4 1.560126 1_555
O16 Pb8 2.559291 1_555
O16 Pb4 2.695616 1_564
O17 P5 1.560126 1_555
O17 Pb9 2.559291 1_555
O17 Pb5 2.695616 1_454
O18 P3 1.560126 1_555
O18 Pb7 2.559291 1_555
O18 Pb6 2.695616 1_555
O19 P4 1.560126 1_555
O19 Pb8 2.559291 1_555
O19 Pb4 2.695616 1_565
O20 P5 1.560126 1_555
O20 Pb9 2.559291 1_555
O20 Pb5 2.695616 1_455
O21 P0 1.560126 1_555
O21 Pb4 2.559291 1_555
O21 Pb9 2.695616 1_556
O22 P1 1.560126 1_555
O22 Pb5 2.559291 1_555
O22 Pb7 2.695616 1_546
O23 P2 1.560126 1_555
O23 Pb6 2.559291 1_555
O23 Pb8 2.695616 1_656
O24 Pb5 2.879862 1_455
O24 Pb8 2.879862 1_545
O24 Pb7 2.879862 1_445
O24 Pb4 2.879862 1_555
O24 Pb6 2.879862 1_445
O24 Pb9 2.879862 1_555
O25 Pb8 2.879862 1_545
O25 Pb5 2.879862 1_454
O25 Pb7 2.879862 1_445
O25 Pb4 2.879862 1_554
O25 Pb6 2.879862 1_444
O25 Pb9 2.879862 1_555
