# generated using pymatgen
data_Li9Mn2Co5O16
_symmetry_space_group_name_H-M   'P 1'
_cell_length_a   5.89891900
_cell_length_b   6.44597053
_cell_length_c   8.11065988
_cell_angle_alpha   88.83264796
_cell_angle_beta   89.38212698
_cell_angle_gamma   65.89653457
_symmetry_Int_Tables_number   1
_chemical_formula_structural   Li9Mn2Co5O16
_chemical_formula_sum   'Li9 Mn2 Co5 O16'
_cell_volume   281.45265613
_cell_formula_units_Z   1
loop_
 _symmetry_equiv_pos_site_id
 _symmetry_equiv_pos_as_xyz
  1  'x, y, z'
loop_
 _atom_site_type_symbol
 _atom_site_label
 _atom_site_symmetry_multiplicity
 _atom_site_fract_x
 _atom_site_fract_y
 _atom_site_fract_z
 _atom_site_occupancy
  Li  Li0  1  0.75245000  0.50133300  0.99933200  1
  Li  Li1  1  0.13357300  0.24777300  0.24491800  1
  Li  Li2  1  0.37906000  0.75525200  0.75729400  1
  Li  Li3  1  0.99495100  0.00020400  0.49967500  1
  Li  Li4  1  0.61984700  0.24361000  0.24354400  1
  Li  Li5  1  0.24787500  0.49784100  0.00095300  1
  Li  Li6  1  0.86804700  0.75285400  0.75450600  1
  Li  Li7  1  0.50556700  0.00013100  0.49950200  1
  Li  Li8  1  0.49966700  0.00017800  0.00017500  1
  Mn  Mn0  1  0.00021500  0.00023600  0.00070100  1
  Mn  Mn1  1  0.74985800  0.49995100  0.49896900  1
  Co  Co0  1  0.37711700  0.75289100  0.24776200  1
  Co  Co1  1  0.13833100  0.24186900  0.75422600  1
  Co  Co2  1  0.86187700  0.75809700  0.24717400  1
  Co  Co3  1  0.25069700  0.49991800  0.50061400  1
  Co  Co4  1  0.62610800  0.24536000  0.75119500  1
  O  O0  1  0.11581100  0.24321200  0.98805900  1
  O  O1  1  0.49077100  0.98318700  0.25234800  1
  O  O2  1  0.74347800  0.48788100  0.73726500  1
  O  O3  1  0.40208100  0.72009100  0.49193700  1
  O  O4  1  0.98453400  0.99490100  0.23882700  1
  O  O5  1  0.65589600  0.23031400  0.98634900  1
  O  O6  1  0.24108700  0.48908900  0.73404600  1
  O  O7  1  0.87010300  0.73859600  0.48884300  1
  O  O8  1  0.34195200  0.76973600  0.01297600  1
  O  O9  1  0.76090900  0.50712200  0.26178100  1
  O  O10  1  0.01700400  0.00397600  0.76190000  1
  O  O11  1  0.63115000  0.26223800  0.50953200  1
  O  O12  1  0.25713100  0.51518400  0.26647300  1
  O  O13  1  0.88377800  0.75753800  0.01348300  1
  O  O14  1  0.50171900  0.02045800  0.74596400  1
  O  O15  1  0.09735600  0.27898100  0.50967700  1
loop_
_geom_bond_atom_site_label_1
_geom_bond_atom_site_label_2
_geom_bond_distance
_geom_bond_site_symmetry_2
Li0 O5 2.051566 1_555
Li0 O13 2.096511 1_556
Li0 O0 2.111904 1_655
Li0 O2 2.131175 1_555
Li0 O9 2.131201 1_556
Li0 O8 2.334389 1_556
Li1 O0 2.088465 1_554
Li1 O1 2.101323 1_545
Li1 O12 2.138738 1_555
Li1 O4 2.146390 1_445
Li1 O9 2.155742 1_455
Li1 O15 2.160998 1_555
Li2 O10 2.082596 1_565
Li2 O8 2.082901 1_556
Li2 O14 2.111126 1_565
Li2 O2 2.143746 1_555
Li2 O3 2.165709 1_555
Li2 O6 2.190557 1_555
Li3 O7 2.101325 1_545
Li3 O4 2.118580 1_545
Li3 O15 2.119972 1_655
Li3 O11 2.122726 1_555
Li3 O10 2.133431 1_655
Li3 O3 2.343391 1_645
Li4 O4 2.093645 1_545
Li4 O5 2.094488 1_554
Li4 O1 2.107300 1_545
Li4 O12 2.149997 1_555
Li4 O11 2.166372 1_555
Li4 O9 2.183308 1_555
Li5 O8 2.047371 1_555
Li5 O0 2.089239 1_554
Li5 O13 2.119239 1_455
Li5 O12 2.161147 1_555
Li5 O6 2.167902 1_554
Li5 O5 2.322283 1_554
Li6 O13 2.104897 1_556
Li6 O2 2.124588 1_555
Li6 O10 2.136067 1_665
Li6 O14 2.145641 1_565
Li6 O7 2.158224 1_555
Li6 O6 2.169883 1_655
Li7 O14 2.005200 1_555
Li7 O1 2.014541 1_545
Li7 O11 2.106921 1_555
Li7 O7 2.124762 1_545
Li7 O3 2.130792 1_545
Li7 O15 2.345781 1_555
Li8 O5 2.042090 1_554
Li8 O1 2.047245 1_545
Li8 O8 2.050167 1_545
Li8 O14 2.063518 1_554
Li8 O0 2.166167 1_554
Li8 O13 2.166976 1_545
Mn0 O4 1.932854 1_445
Mn0 O10 1.938459 1_554
Mn0 O0 1.947505 1_554
Mn0 O13 1.949214 1_445
Mn0 O8 1.957853 1_545
Mn0 O5 1.968803 1_454
Mn1 O9 1.924406 1_555
Mn1 O11 1.927523 1_555
Mn1 O2 1.933298 1_555
Mn1 O7 1.939341 1_555
Mn1 O3 1.961390 1_555
Mn1 O15 1.962734 1_655
Co0 O1 1.862856 1_555
Co0 O8 1.913834 1_555
Co0 O12 1.935406 1_555
Co0 O3 1.988027 1_555
Co0 O9 2.171857 1_555
Co0 O4 2.202300 1_455
Co1 O0 1.899706 1_555
Co1 O6 1.926102 1_555
Co1 O10 1.938844 1_555
Co1 O15 1.998379 1_555
Co1 O14 2.034311 1_555
Co1 O2 2.222615 1_455
Co2 O13 1.898372 1_555
Co2 O4 1.937756 1_555
Co2 O9 1.940013 1_555
Co2 O7 1.961417 1_555
Co2 O1 2.074954 1_555
Co2 O12 2.220024 1_655
Co3 O6 1.894243 1_555
Co3 O12 1.900355 1_555
Co3 O3 1.961210 1_555
Co3 O15 1.974410 1_555
Co3 O11 2.140051 1_555
Co3 O7 2.143362 1_455
Co4 O14 1.874535 1_555
Co4 O5 1.914072 1_555
Co4 O2 1.952210 1_555
Co4 O11 1.961428 1_555
Co4 O6 2.174736 1_555
Co4 O10 2.194066 1_655
