# generated using pymatgen
data_Zr2V3Fe
_symmetry_space_group_name_H-M   'P 1'
_cell_length_a   5.05390224
_cell_length_b   5.05389825
_cell_length_c   5.05389627
_cell_angle_alpha   62.79777759
_cell_angle_beta   62.79779823
_cell_angle_gamma   62.79780787
_symmetry_Int_Tables_number   1
_chemical_formula_structural   Zr2V3Fe
_chemical_formula_sum   'Zr2 V3 Fe1'
_cell_volume   96.95600681
_cell_formula_units_Z   1
loop_
 _symmetry_equiv_pos_site_id
 _symmetry_equiv_pos_as_xyz
  1  'x, y, z'
loop_
 _atom_site_type_symbol
 _atom_site_label
 _atom_site_symmetry_multiplicity
 _atom_site_fract_x
 _atom_site_fract_y
 _atom_site_fract_z
 _atom_site_occupancy
  Zr  Zr0  1  0.62587264  0.62587064  0.62586964  1
  Zr  Zr1  1  0.37412736  0.37412936  0.37413036  1
  V  V0  1  -0.00000000  0.50000000  0.00000000  1
  V  V1  1  0.50000000  0.00000000  0.00000000  1
  V  V2  1  -0.00000000  0.00000000  0.50000000  1
  Fe  Fe0  1  -0.00000000  0.00000000  0.00000000  1
loop_
_geom_bond_atom_site_label_1
_geom_bond_atom_site_label_2
_geom_bond_distance
_geom_bond_site_symmetry_2
Zr0 Zr1 3.048904 1_555
Zr0 Zr1 3.196924 1_655
Zr0 Zr1 3.196938 1_565
Zr0 Zr1 3.196945 1_556
V0 V2 2.633045 1_555
V0 V2 2.633045 1_564
V0 V1 2.633048 1_465
V0 V1 2.633048 1_555
V0 Zr1 2.936708 1_555
V0 Zr0 2.936708 1_454
V0 Zr1 3.042506 1_554
V0 Zr0 3.042506 1_455
V0 Zr0 3.042522 1_554
V0 Zr1 3.042522 1_455
V1 V2 2.633047 1_654
V1 V2 2.633047 1_555
V1 Zr0 2.936712 1_544
V1 Zr1 2.936712 1_555
V1 Zr1 3.042510 1_554
V1 Zr0 3.042510 1_545
V1 Zr1 3.042515 1_545
V1 Zr0 3.042515 1_554
V2 Zr0 2.936706 1_445
V2 Zr1 2.936706 1_555
V2 Zr1 3.042509 1_545
V2 Zr0 3.042509 1_455
V2 Zr0 3.042520 1_545
V2 Zr1 3.042520 1_455
Fe0 V2 2.526948 1_555
Fe0 V2 2.526948 1_554
Fe0 V0 2.526949 1_555
Fe0 V0 2.526949 1_545
Fe0 V1 2.526951 1_455
Fe0 V1 2.526951 1_555
Fe0 Zr0 3.080259 1_445
Fe0 Zr1 3.080259 1_554
Fe0 Zr1 3.080264 1_545
Fe0 Zr0 3.080264 1_454
Fe0 Zr1 3.080274 1_455
Fe0 Zr0 3.080274 1_544
