# generated using pymatgen
data_BaNd2Mn2O7
_symmetry_space_group_name_H-M   'P 1'
_cell_length_a   3.97005787
_cell_length_b   3.97005701
_cell_length_c   10.66546900
_cell_angle_alpha   100.72628842
_cell_angle_beta   100.72628000
_cell_angle_gamma   90.00000351
_symmetry_Int_Tables_number   1
_chemical_formula_structural   BaNd2Mn2O7
_chemical_formula_sum   'Ba1 Nd2 Mn2 O7'
_cell_volume   162.17474063
_cell_formula_units_Z   1
loop_
 _symmetry_equiv_pos_site_id
 _symmetry_equiv_pos_as_xyz
  1  'x, y, z'
loop_
 _atom_site_type_symbol
 _atom_site_label
 _atom_site_symmetry_multiplicity
 _atom_site_fract_x
 _atom_site_fract_y
 _atom_site_fract_z
 _atom_site_occupancy
  Ba  Ba0  1  0.50000100  0.50000000  0.00000000  1
  Nd  Nd0  1  0.31794500  0.31794300  0.63588700  1
  Nd  Nd1  1  0.68205500  0.68205600  0.36411300  1
  Mn  Mn0  1  0.89961900  0.89962100  0.79923900  1
  Mn  Mn1  1  0.10038100  0.10038100  0.20076100  1
  O  O0  1  0.39117800  0.89117900  0.78235600  1
  O  O1  1  0.89117900  0.39117700  0.78235600  1
  O  O2  1  0.60882000  0.10882300  0.21764300  1
  O  O3  1  0.10882200  0.60882100  0.21764300  1
  O  O4  1  0.79336200  0.79336200  0.58672600  1
  O  O5  1  0.00000000  0.00000000  0.00000000  1
  O  O6  1  0.20663800  0.20663700  0.41327400  1
loop_
_geom_bond_atom_site_label_1
_geom_bond_atom_site_label_2
_geom_bond_distance
_geom_bond_site_symmetry_2
Ba0 O5 2.807252 1_665
Ba0 O5 2.807252 1_655
Ba0 O5 2.807257 1_555
Ba0 O5 2.807257 1_565
Ba0 O2 2.992539 1_555
Ba0 O3 2.992542 1_655
Ba0 O3 2.992544 1_555
Ba0 O2 2.992546 1_565
Ba0 O0 2.992548 1_544
Ba0 O1 2.992551 1_554
Ba0 O1 2.992551 1_454
Ba0 O0 2.992553 1_554
Nd0 O6 2.290552 1_555
Nd0 O0 2.492307 1_545
Nd0 O1 2.492311 1_555
Nd0 O1 2.492314 1_455
Nd0 O0 2.492316 1_555
Nd0 O4 2.852455 1_555
Nd0 O4 2.852458 1_545
Nd0 O4 2.852469 1_455
Nd0 O4 2.852472 1_445
Nd1 O4 2.290552 1_555
Nd1 O2 2.492312 1_555
Nd1 O3 2.492312 1_555
Nd1 O2 2.492325 1_565
Nd1 O3 2.492325 1_655
Nd1 O6 2.852455 1_555
Nd1 O6 2.852458 1_565
Nd1 O6 2.852469 1_655
Nd1 O6 2.852472 1_665
Mn0 O1 1.992605 1_565
Mn0 O0 1.992614 1_555
Mn0 O0 1.992618 1_655
Mn0 O1 1.992625 1_555
Mn0 O5 2.065708 1_666
Mn0 O4 2.186629 1_555
Mn1 O2 1.992607 1_555
Mn1 O3 1.992610 1_555
Mn1 O3 1.992618 1_545
Mn1 O2 1.992623 1_455
Mn1 O5 2.065708 1_555
Mn1 O6 2.186629 1_555
