# generated using pymatgen
data_La7SmMn8O20
_symmetry_space_group_name_H-M   'P 1'
_cell_length_a   11.51886337
_cell_length_b   11.86838769
_cell_length_c   17.74980997
_cell_angle_alpha   109.49523216
_cell_angle_beta   109.00482976
_cell_angle_gamma   89.99482481
_symmetry_Int_Tables_number   1
_chemical_formula_structural   La7SmMn8O20
_chemical_formula_sum   'La28 Sm4 Mn32 O80'
_cell_volume   2146.66635119
_cell_formula_units_Z   4
loop_
 _symmetry_equiv_pos_site_id
 _symmetry_equiv_pos_as_xyz
  1  'x, y, z'
loop_
 _atom_site_type_symbol
 _atom_site_label
 _atom_site_symmetry_multiplicity
 _atom_site_fract_x
 _atom_site_fract_y
 _atom_site_fract_z
 _atom_site_occupancy
  La  La0  1  0.29563500  0.06436600  0.11267300  1
  La  La1  1  0.29751700  0.06399500  0.61091200  1
  La  La2  1  0.29747300  0.56470900  0.61145700  1
  La  La3  1  0.79727100  0.06481700  0.61147700  1
  La  La4  1  0.79796200  0.56477700  0.11111700  1
  La  La5  1  0.79751300  0.56448400  0.61176400  1
  La  La6  1  0.18563200  0.43397600  0.38782400  1
  La  La7  1  0.18580100  0.43592800  0.88957300  1
  La  La8  1  0.18434800  0.93494700  0.38664200  1
  La  La9  1  0.18649800  0.93666300  0.88868100  1
  La  La10  1  0.68554700  0.43552000  0.38810400  1
  La  La11  1  0.68531800  0.93501300  0.38805500  1
  La  La12  1  0.68503600  0.93619100  0.88865300  1
  La  La13  1  0.04607600  0.29699200  0.11163800  1
  La  La14  1  0.04717400  0.29752300  0.61160900  1
  La  La15  1  0.04707000  0.79664000  0.61119500  1
  La  La16  1  0.54719400  0.29591800  0.11128100  1
  La  La17  1  0.54777600  0.29839500  0.61340000  1
  La  La18  1  0.54533700  0.79761000  0.11240000  1
  La  La19  1  0.54752200  0.79604400  0.61106900  1
  La  La20  1  0.43580800  0.20313000  0.38835200  1
  La  La21  1  0.43843700  0.20421300  0.88864600  1
  La  La22  1  0.43404600  0.70217700  0.38643800  1
  La  La23  1  0.43550200  0.70206600  0.88884100  1
  La  La24  1  0.93394600  0.20160500  0.38646000  1
  La  La25  1  0.93374100  0.20353500  0.88874800  1
  La  La26  1  0.93506800  0.70298300  0.38746400  1
  La  La27  1  0.93567300  0.70197100  0.88918500  1
  Sm  Sm0  1  0.29272000  0.56611400  0.11069400  1
  Sm  Sm1  1  0.79519600  0.06510600  0.11039400  1
  Sm  Sm2  1  0.68430300  0.43479300  0.89028400  1
  Sm  Sm3  1  0.04672800  0.79624900  0.11173800  1
  Mn  Mn0  1  0.00093400  0.99904800  0.00150800  1
  Mn  Mn1  1  0.00101700  0.00014000  0.49954300  1
  Mn  Mn2  1  0.00058300  0.50086800  0.00067600  1
  Mn  Mn3  1  0.00097900  0.49962100  0.49950800  1
  Mn  Mn4  1  0.50160100  0.00007900  0.00087200  1
  Mn  Mn5  1  0.50063000  0.99979700  0.49948700  1
  Mn  Mn6  1  0.50125200  0.50144700  0.00141100  1
  Mn  Mn7  1  0.50096000  0.49979500  0.49974000  1
  Mn  Mn8  1  0.25181100  0.25177400  0.00141200  1
  Mn  Mn9  1  0.25047200  0.24935500  0.49930000  1
  Mn  Mn10  1  0.25016600  0.75069100  0.00103700  1
  Mn  Mn11  1  0.25092500  0.74974800  0.49947300  1
  Mn  Mn12  1  0.75094800  0.24972500  0.00065500  1
  Mn  Mn13  1  0.75087800  0.25004000  0.50007900  1
  Mn  Mn14  1  0.75242700  0.75089400  0.00119600  1
  Mn  Mn15  1  0.75060500  0.74977300  0.49942800  1
  Mn  Mn16  1  0.10256800  0.09723800  0.24707800  1
  Mn  Mn17  1  0.10804500  0.10091800  0.75084200  1
  Mn  Mn18  1  0.10792900  0.60015100  0.24845600  1
  Mn  Mn19  1  0.10738900  0.59938900  0.75055300  1
  Mn  Mn20  1  0.60820500  0.09888300  0.24900600  1
  Mn  Mn21  1  0.60778500  0.10103300  0.75045600  1
  Mn  Mn22  1  0.60363700  0.59900900  0.24751500  1
  Mn  Mn23  1  0.60849700  0.59946800  0.75247500  1
  Mn  Mn24  1  0.35607900  0.40106600  0.24794300  1
  Mn  Mn25  1  0.35908400  0.40055400  0.75074800  1
  Mn  Mn26  1  0.35393900  0.89777500  0.24805700  1
  Mn  Mn27  1  0.35762200  0.90076600  0.75044200  1
  Mn  Mn28  1  0.85648300  0.39907200  0.24895300  1
  Mn  Mn29  1  0.85584800  0.40034300  0.75196800  1
  Mn  Mn30  1  0.85700400  0.89957200  0.24673900  1
  Mn  Mn31  1  0.85790800  0.90067600  0.75091500  1
  O  O0  1  0.10877100  0.11608800  0.47217400  1
  O  O1  1  0.10857800  0.11750400  0.97352600  1
  O  O2  1  0.10884200  0.61678300  0.47280800  1
  O  O3  1  0.10962200  0.61786500  0.97570900  1
  O  O4  1  0.60900800  0.11605100  0.47231700  1
  O  O5  1  0.60922600  0.11632900  0.97343600  1
  O  O6  1  0.60918400  0.61715800  0.47379800  1
  O  O7  1  0.61023900  0.61491500  0.97177600  1
  O  O8  1  0.13829900  0.38677300  0.02978600  1
  O  O9  1  0.13652200  0.38354500  0.52684400  1
  O  O10  1  0.13393200  0.88129200  0.03168400  1
  O  O11  1  0.13577100  0.88315700  0.52535100  1
  O  O12  1  0.63354200  0.38154100  0.02455200  1
  O  O13  1  0.63575300  0.38312400  0.52651000  1
  O  O14  1  0.63907600  0.88602400  0.02930500  1
  O  O15  1  0.63652200  0.88394400  0.52643800  1
  O  O16  1  0.35869800  0.10595200  0.47272300  1
  O  O17  1  0.36060000  0.10840000  0.97407400  1
  O  O18  1  0.35938100  0.60660400  0.47333500  1
  O  O19  1  0.35923300  0.60741400  0.97379400  1
  O  O20  1  0.85963600  0.10725900  0.47376500  1
  O  O21  1  0.85842300  0.10504000  0.97503400  1
  O  O22  1  0.85938900  0.60677800  0.47313600  1
  O  O23  1  0.85480500  0.60207800  0.96979400  1
  O  O24  1  0.38471600  0.40032500  0.03112700  1
  O  O25  1  0.38548700  0.39164100  0.52484500  1
  O  O26  1  0.38437100  0.89430300  0.02670200  1
  O  O27  1  0.38682300  0.89285800  0.52696100  1
  O  O28  1  0.88427100  0.39293200  0.02515200  1
  O  O29  1  0.88607400  0.39320400  0.52654100  1
  O  O30  1  0.88855200  0.89723100  0.03387800  1
  O  O31  1  0.88557100  0.89219000  0.52491200  1
  O  O32  1  0.11042800  0.12553200  0.14221600  1
  O  O33  1  0.10594100  0.12260800  0.64133500  1
  O  O34  1  0.11248600  0.62581300  0.14159800  1
  O  O35  1  0.10588900  0.62258800  0.64165000  1
  O  O36  1  0.61485200  0.12288900  0.14228000  1
  O  O37  1  0.60581600  0.12321800  0.64117900  1
  O  O38  1  0.61325600  0.62446200  0.14178100  1
  O  O39  1  0.60652100  0.62111400  0.64270300  1
  O  O40  1  0.46378300  0.37806000  0.35734300  1
  O  O41  1  0.47233100  0.37796700  0.85810500  1
  O  O42  1  0.46168700  0.87721900  0.35799300  1
  O  O43  1  0.46450800  0.87723400  0.85935600  1
  O  O44  1  0.96413200  0.37683500  0.35830800  1
  O  O45  1  0.96911500  0.37670400  0.85906300  1
  O  O46  1  0.96404500  0.87764500  0.35671900  1
  O  O47  1  0.96590400  0.87774600  0.86008900  1
  O  O48  1  0.35992000  0.26676600  0.14212100  1
  O  O49  1  0.35708400  0.26894700  0.64143800  1
  O  O50  1  0.36008700  0.76544600  0.14177200  1
  O  O51  1  0.35602000  0.76914900  0.64157700  1
  O  O52  1  0.85570100  0.26640900  0.14063800  1
  O  O53  1  0.85413500  0.26993200  0.64217600  1
  O  O54  1  0.86753600  0.76625400  0.14233800  1
  O  O55  1  0.85639800  0.76921300  0.64177300  1
  O  O56  1  0.21178500  0.22800900  0.35669700  1
  O  O57  1  0.21873300  0.23224800  0.85915500  1
  O  O58  1  0.21499500  0.73148100  0.35814300  1
  O  O59  1  0.21397300  0.73174300  0.85938800  1
  O  O60  1  0.71446700  0.23117000  0.35816200  1
  O  O61  1  0.71532400  0.23342500  0.85928100  1
  O  O62  1  0.71160800  0.72986500  0.35727900  1
  O  O63  1  0.71661900  0.73370200  0.85980900  1
  O  O64  1  0.42546400  0.06518100  0.25009100  1
  O  O65  1  0.42480600  0.06782600  0.75018600  1
  O  O66  1  0.41751000  0.56825300  0.24427300  1
  O  O67  1  0.42403700  0.56805700  0.75000500  1
  O  O68  1  0.91730700  0.06814400  0.24457000  1
  O  O69  1  0.92467000  0.06806100  0.75055300  1
  O  O70  1  0.92584400  0.56620500  0.24963400  1
  O  O71  1  0.92393900  0.56650000  0.75057400  1
  O  O72  1  0.17405600  0.43277400  0.24992300  1
  O  O73  1  0.17587800  0.43267700  0.75041500  1
  O  O74  1  0.16789200  0.92780900  0.24456800  1
  O  O75  1  0.17438800  0.93293800  0.75023800  1
  O  O76  1  0.67345000  0.43319700  0.24954200  1
  O  O77  1  0.67375300  0.43221500  0.75614000  1
  O  O78  1  0.67544900  0.93198600  0.25004400  1
  O  O79  1  0.67448400  0.93332600  0.74975400  1
loop_
_geom_bond_atom_site_label_1
_geom_bond_atom_site_label_2
_geom_bond_distance
_geom_bond_site_symmetry_2
La0 O48 2.345654 1_555
La0 O64 2.407178 1_555
La0 O32 2.414021 1_555
La0 O26 2.531188 1_545
La0 O10 2.535545 1_545
La0 O1 2.951927 1_554
La0 O17 2.990392 1_554
La1 O49 2.357893 1_555
La1 O65 2.413996 1_555
La1 O33 2.484012 1_555
La1 O11 2.523169 1_545
La1 O27 2.526258 1_545
La1 O16 2.949935 1_555
La1 O0 2.949973 1_555
La2 O51 2.351078 1_555
La2 O67 2.402999 1_555
La2 O35 2.480618 1_555
La2 O9 2.519472 1_555
La2 O25 2.552919 1_555
La2 O2 2.948196 1_555
La2 O18 2.952737 1_555
La3 O53 2.352580 1_555
La3 O69 2.413721 1_555
La3 O37 2.476888 1_555
La3 O15 2.516512 1_545
La3 O31 2.551334 1_545
La3 O4 2.947415 1_555
La3 O20 2.951311 1_555
La4 O54 2.343900 1_555
La4 O38 2.412740 1_555
La4 O70 2.414232 1_555
La4 O28 2.527212 1_555
La4 O12 2.559763 1_555
La4 O7 2.940385 1_554
La4 O23 2.954327 1_554
La5 O55 2.355605 1_555
La5 O71 2.411569 1_555
La5 O39 2.476611 1_555
La5 O13 2.526875 1_555
La5 O29 2.532478 1_555
La5 O6 2.942011 1_555
La5 O22 2.963329 1_555
La6 O56 2.361861 1_555
La6 O72 2.402794 1_555
La6 O44 2.477248 1_455
La6 O2 2.539551 1_555
La6 O18 2.540401 1_555
La6 O25 2.938722 1_555
La6 O9 2.943158 1_555
La7 O57 2.353952 1_555
La7 O73 2.422417 1_555
La7 O45 2.425517 1_455
La7 O19 2.528424 1_555
La7 O3 2.537721 1_555
La7 O8 2.947829 1_556
La7 O24 2.949644 1_556
La8 O58 2.347905 1_555
La8 O74 2.438974 1_555
La8 O46 2.462848 1_455
La8 O0 2.523207 1_565
La8 O16 2.533649 1_565
La8 O11 2.942796 1_555
La8 O27 2.989857 1_555
La9 O59 2.355520 1_555
La9 O75 2.400865 1_555
La9 O47 2.475222 1_455
La9 O1 2.530364 1_565
La9 O17 2.536264 1_565
La9 O26 2.938486 1_556
La10 O60 2.351673 1_555
La10 O76 2.408444 1_555
La10 O40 2.476266 1_555
La10 O22 2.530585 1_555
La10 O6 2.533187 1_555
La10 O13 2.947615 1_555
La10 O29 2.958451 1_555
La11 O62 2.353320 1_555
La11 O78 2.403119 1_555
La11 O42 2.500332 1_555
La11 O4 2.517372 1_565
La11 O20 2.541804 1_565
La11 O15 2.934194 1_555
La11 O31 2.941843 1_555
La12 O63 2.338770 1_555
La12 O79 2.417262 1_555
La12 O43 2.471827 1_555
La12 O5 2.511205 1_565
La12 O21 2.512192 1_565
La12 O14 2.953053 1_556
La13 O32 2.336659 1_555
La13 O72 2.408018 1_555
La13 O52 2.462835 1_455
La13 O8 2.532466 1_555
La13 O28 2.535691 1_455
La13 O21 2.939713 1_454
La13 O1 2.954577 1_554
La14 O33 2.354665 1_555
La14 O73 2.413457 1_555
La14 O53 2.500082 1_455
La14 O29 2.516387 1_455
La14 O9 2.529669 1_555
La14 O20 2.936477 1_455
La14 O0 2.975221 1_555
La15 O35 2.350528 1_555
La15 O75 2.415970 1_555
La15 O55 2.473625 1_455
La15 O31 2.528923 1_455
La15 O11 2.545277 1_555
La15 O22 2.936193 1_455
La15 O2 2.955476 1_555
La16 O36 2.366834 1_555
La16 O76 2.408192 1_555
La16 O48 2.443037 1_555
La16 O12 2.536407 1_555
La16 O24 2.550375 1_555
La16 O17 2.911677 1_554
La16 O5 2.949167 1_554
La17 O37 2.341344 1_555
La17 O77 2.442836 1_555
La17 O49 2.454156 1_555
La17 O25 2.537112 1_555
La17 O13 2.543641 1_555
La17 O16 2.974464 1_555
La17 O4 2.997466 1_555
La18 O38 2.357181 1_555
La18 O78 2.402838 1_555
La18 O50 2.414221 1_555
La18 O26 2.529125 1_555
La18 O14 2.552025 1_555
La18 O19 2.933070 1_554
La18 O7 3.015514 1_554
La19 O39 2.369975 1_555
La19 O79 2.414914 1_555
La19 O51 2.480833 1_555
La19 O27 2.514001 1_555
La19 O15 2.538713 1_555
La19 O18 2.934266 1_555
La19 O6 2.936465 1_555
La20 O40 2.365476 1_555
La20 O64 2.417675 1_555
La20 O56 2.495616 1_555
La20 O4 2.522046 1_555
La20 O16 2.526107 1_555
La20 O25 2.916793 1_555
La20 O13 2.950842 1_555
La21 O41 2.362842 1_555
La21 O65 2.403805 1_555
La21 O57 2.458184 1_555
La21 O5 2.518387 1_555
La21 O17 2.536291 1_555
La21 O12 2.894926 1_556
La21 O24 3.047348 1_556
La22 O42 2.340314 1_555
La22 O66 2.437246 1_555
La22 O58 2.455790 1_555
La22 O18 2.537172 1_555
La22 O6 2.549319 1_555
La22 O27 2.958811 1_555
La22 O15 2.986077 1_555
La23 O43 2.355385 1_555
La23 O67 2.406639 1_555
La23 O59 2.482488 1_555
La23 O19 2.510205 1_555
La23 O7 2.524735 1_555
La23 O26 2.958412 1_556
La23 O14 3.006912 1_556
La24 O44 2.345774 1_555
La24 O68 2.431388 1_555
La24 O60 2.461174 1_555
La24 O20 2.531826 1_555
La24 O0 2.536727 1_655
La24 O29 2.962465 1_555
La24 O9 2.989877 1_655
La25 O45 2.351687 1_555
La25 O69 2.411159 1_555
La25 O61 2.448648 1_555
La25 O1 2.532629 1_655
La25 O21 2.554496 1_555
La25 O28 2.916374 1_556
La25 O8 3.012286 1_656
La26 O46 2.362242 1_555
La26 O70 2.410734 1_555
La26 O62 2.496016 1_555
La26 O22 2.529523 1_555
La26 O2 2.531256 1_655
La26 O31 2.927247 1_555
La26 O11 2.954657 1_655
La27 O47 2.361450 1_555
La27 O71 2.408255 1_555
La27 O63 2.460591 1_555
La27 O23 2.514141 1_555
La27 O3 2.527549 1_655
Mn0 O21 2.095179 1_464
Mn0 O30 2.101010 1_455
Mn0 O10 2.133519 1_555
Mn0 O1 2.151304 1_564
Mn0 O47 2.337677 1_454
Mn0 O32 2.351223 1_565
Mn1 O20 2.092936 1_455
Mn1 O31 2.094750 1_445
Mn1 O11 2.123176 1_545
Mn1 O0 2.123558 1_555
Mn1 O33 2.342036 1_555
Mn1 O46 2.357684 1_445
Mn2 O28 2.091806 1_455
Mn2 O23 2.098256 1_454
Mn2 O3 2.115564 1_554
Mn2 O8 2.133038 1_555
Mn2 O34 2.354117 1_555
Mn2 O45 2.357015 1_454
Mn3 O29 2.096588 1_455
Mn3 O22 2.096736 1_455
Mn3 O9 2.126815 1_555
Mn3 O2 2.127328 1_555
Mn3 O44 2.335534 1_455
Mn3 O35 2.347909 1_555
Mn4 O26 2.096990 1_545
Mn4 O17 2.102750 1_554
Mn4 O5 2.125934 1_554
Mn4 O14 2.128333 1_545
Mn4 O43 2.339766 1_544
Mn4 O36 2.356299 1_555
Mn5 O16 2.092643 1_565
Mn5 O27 2.096895 1_555
Mn5 O15 2.126172 1_555
Mn5 O4 2.128688 1_565
Mn5 O42 2.335150 1_555
Mn5 O37 2.344292 1_565
Mn6 O19 2.094514 1_554
Mn6 O24 2.098681 1_555
Mn6 O12 2.120865 1_555
Mn6 O7 2.137638 1_554
Mn6 O38 2.341508 1_555
Mn6 O41 2.385152 1_554
Mn7 O25 2.093696 1_555
Mn7 O18 2.093937 1_555
Mn7 O6 2.123335 1_555
Mn7 O13 2.124191 1_555
Mn7 O40 2.348821 1_555
Mn7 O39 2.354350 1_555
Mn8 O8 2.102453 1_555
Mn8 O1 2.109193 1_554
Mn8 O17 2.132093 1_554
Mn8 O24 2.141073 1_555
Mn8 O48 2.344778 1_555
Mn8 O57 2.357440 1_554
Mn9 O0 2.092367 1_555
Mn9 O9 2.096707 1_555
Mn9 O25 2.122772 1_555
Mn9 O16 2.126046 1_555
Mn9 O56 2.346698 1_555
Mn9 O49 2.349023 1_555
Mn10 O3 2.088424 1_554
Mn10 O10 2.098163 1_555
Mn10 O26 2.127437 1_555
Mn10 O19 2.133126 1_554
Mn10 O59 2.342166 1_554
Mn10 O50 2.349897 1_555
Mn11 O11 2.094861 1_555
Mn11 O2 2.095318 1_555
Mn11 O18 2.124433 1_555
Mn11 O27 2.126799 1_555
Mn11 O58 2.339249 1_555
Mn11 O51 2.346125 1_555
Mn12 O5 2.093122 1_554
Mn12 O12 2.094434 1_555
Mn12 O28 2.123343 1_555
Mn12 O21 2.129131 1_554
Mn12 O52 2.321160 1_555
Mn12 O61 2.346925 1_554
Mn13 O13 2.093725 1_555
Mn13 O4 2.096468 1_555
Mn13 O20 2.124055 1_555
Mn13 O29 2.127027 1_555
Mn13 O53 2.341082 1_555
Mn13 O60 2.346658 1_555
Mn14 O14 2.101341 1_555
Mn14 O7 2.107292 1_554
Mn14 O30 2.132412 1_555
Mn14 O23 2.142779 1_554
Mn14 O63 2.343903 1_554
Mn14 O54 2.366288 1_555
Mn15 O6 2.092310 1_555
Mn15 O15 2.095908 1_555
Mn15 O31 2.123839 1_555
Mn15 O22 2.126037 1_555
Mn15 O62 2.342579 1_555
Mn15 O55 2.351086 1_555
Mn16 O32 2.027872 1_555
Mn16 O56 2.041529 1_555
Mn16 O74 2.138564 1_545
Mn16 O68 2.145496 1_455
Mn17 O33 2.036719 1_555
Mn17 O57 2.038384 1_555
Mn17 O75 2.132968 1_545
Mn17 O69 2.146053 1_455
Mn18 O34 2.035544 1_555
Mn18 O58 2.037645 1_555
Mn18 O72 2.132692 1_555
Mn18 O70 2.143882 1_455
Mn19 O59 2.033939 1_555
Mn19 O35 2.036200 1_555
Mn19 O73 2.129555 1_555
Mn19 O71 2.149062 1_455
Mn20 O36 2.032333 1_555
Mn20 O60 2.035323 1_555
Mn20 O78 2.130412 1_545
Mn20 O64 2.150105 1_555
Mn21 O37 2.035753 1_555
Mn21 O61 2.037322 1_555
Mn21 O79 2.131098 1_545
Mn21 O65 2.142452 1_555
Mn22 O38 2.034602 1_555
Mn22 O62 2.038923 1_555
Mn22 O76 2.132796 1_555
Mn22 O66 2.153819 1_555
Mn23 O63 2.036660 1_555
Mn23 O39 2.041598 1_555
Mn23 O77 2.136267 1_555
Mn23 O67 2.141053 1_555
Mn24 O48 2.031367 1_555
Mn24 O40 2.041864 1_555
Mn24 O66 2.135116 1_555
Mn24 O72 2.139631 1_555
Mn25 O41 2.031410 1_555
Mn25 O49 2.037861 1_555
Mn25 O67 2.129849 1_555
Mn25 O73 2.142916 1_555
Mn26 O50 2.034704 1_555
Mn26 O42 2.036667 1_555
Mn26 O64 2.135572 1_565
Mn26 O74 2.156784 1_555
Mn27 O51 2.033824 1_555
Mn27 O43 2.035008 1_555
Mn27 O65 2.130429 1_565
Mn27 O75 2.143931 1_555
Mn28 O52 2.035602 1_555
Mn28 O44 2.036938 1_555
Mn28 O70 2.133341 1_555
Mn28 O76 2.149554 1_555
Mn29 O45 2.033482 1_555
Mn29 O53 2.038499 1_555
Mn29 O71 2.133101 1_555
Mn29 O77 2.151863 1_555
Mn30 O54 2.035092 1_555
Mn30 O46 2.042098 1_555
Mn30 O68 2.134426 1_565
Mn30 O78 2.142358 1_555
Mn31 O55 2.036721 1_555
Mn31 O47 2.039267 1_555
Mn31 O69 2.133071 1_565
Mn31 O79 2.142775 1_555
O3 Sm0 2.873483 1_556
O3 Sm3 2.926420 1_556
O5 Sm1 2.909060 1_556
O7 Sm2 2.475801 1_555
O8 Sm0 2.460397 1_555
O10 Sm3 2.435954 1_555
O12 Sm2 2.886887 1_554
O14 Sm1 2.469018 1_565
O19 Sm0 2.956263 1_556
O21 Sm1 2.902995 1_556
O23 Sm2 2.473073 1_555
O24 Sm0 2.471582 1_555
O28 Sm2 2.912988 1_554
O30 Sm1 2.472918 1_565
O30 Sm3 2.476121 1_655
O34 Sm3 2.323835 1_555
O34 Sm0 2.365395 1_555
O36 Sm1 2.369065 1_555
O41 Sm2 2.361727 1_555
O50 Sm0 2.313812 1_555
O52 Sm1 2.320021 1_555
O54 Sm3 2.354050 1_655
O61 Sm2 2.322132 1_555
O66 Sm0 2.329942 1_555
O68 Sm1 2.326519 1_555
O74 Sm3 2.311879 1_555
O77 Sm2 2.334081 1_555
