# generated using pymatgen
data_DyFe6(Sn2Ge)2
_symmetry_space_group_name_H-M   'P 1'
_cell_length_a   5.28785632
_cell_length_b   5.28785632
_cell_length_c   8.68160300
_cell_angle_alpha   90.00000000
_cell_angle_beta   90.00000000
_cell_angle_gamma   120.00000404
_symmetry_Int_Tables_number   1
_chemical_formula_structural   DyFe6(Sn2Ge)2
_chemical_formula_sum   'Dy1 Fe6 Sn4 Ge2'
_cell_volume   210.22764672
_cell_formula_units_Z   1
loop_
 _symmetry_equiv_pos_site_id
 _symmetry_equiv_pos_as_xyz
  1  'x, y, z'
loop_
 _atom_site_type_symbol
 _atom_site_label
 _atom_site_symmetry_multiplicity
 _atom_site_fract_x
 _atom_site_fract_y
 _atom_site_fract_z
 _atom_site_occupancy
  Dy  Dy0  1  0.00000000  0.00000000  0.00000000  1
  Fe  Fe0  1  0.50000000  0.50000000  0.76756900  1
  Fe  Fe1  1  0.50000000  0.50000000  0.23243100  1
  Fe  Fe2  1  0.00000000  0.50000000  0.76756900  1
  Fe  Fe3  1  0.00000000  0.50000000  0.23243100  1
  Fe  Fe4  1  0.50000000  0.00000000  0.76756900  1
  Fe  Fe5  1  0.50000000  0.00000000  0.23243100  1
  Sn  Sn0  1  0.66666700  0.33333300  0.50000000  1
  Sn  Sn1  1  0.33333300  0.66666700  0.50000000  1
  Sn  Sn2  1  0.00000000  0.00000000  0.66285500  1
  Sn  Sn3  1  0.00000000  0.00000000  0.33714500  1
  Ge  Ge0  1  0.66666700  0.33333300  0.00000000  1
  Ge  Ge1  1  0.33333300  0.66666700  0.00000000  1
loop_
_geom_bond_atom_site_label_1
_geom_bond_atom_site_label_2
_geom_bond_distance
_geom_bond_site_symmetry_2
Dy0 Sn3 2.926959 1_555
Dy0 Sn2 2.926959 1_554
Dy0 Ge0 3.052942 1_455
Dy0 Ge1 3.052942 1_545
Dy0 Ge0 3.052947 1_555
Dy0 Ge0 3.052947 1_445
Dy0 Ge1 3.052947 1_555
Dy0 Ge1 3.052947 1_445
Dy0 Fe1 3.325984 1_445
Dy0 Fe1 3.325984 1_555
Dy0 Fe0 3.325984 1_444
Dy0 Fe0 3.325984 1_554
Dy0 Fe3 3.325984 1_555
Dy0 Fe5 3.325984 1_555
Dy0 Fe5 3.325984 1_455
Dy0 Fe3 3.325984 1_545
Dy0 Fe4 3.325984 1_454
Dy0 Fe4 3.325984 1_554
Dy0 Fe2 3.325984 1_554
Dy0 Fe2 3.325984 1_544
Fe0 Ge0 2.530206 1_556
Fe0 Ge1 2.530206 1_556
Fe0 Fe2 2.643928 1_655
Fe0 Fe4 2.643928 1_555
Fe0 Fe4 2.643928 1_565
Fe0 Fe2 2.643928 1_555
Fe0 Sn0 2.779590 1_555
Fe0 Sn1 2.779590 1_555
Fe0 Sn2 2.795853 1_665
Fe0 Sn2 2.795853 1_555
Fe1 Ge1 2.530206 1_555
Fe1 Ge0 2.530206 1_555
Fe1 Fe3 2.643928 1_655
Fe1 Fe5 2.643928 1_555
Fe1 Fe3 2.643928 1_555
Fe1 Fe5 2.643928 1_565
Fe1 Sn0 2.779590 1_555
Fe1 Sn1 2.779590 1_555
Fe1 Sn3 2.795853 1_665
Fe1 Sn3 2.795853 1_555
Fe2 Ge0 2.530203 1_456
Fe2 Ge1 2.530203 1_556
Fe2 Fe4 2.643928 1_455
Fe2 Fe4 2.643928 1_565
Fe2 Sn0 2.779588 1_455
Fe2 Sn1 2.779588 1_555
Fe2 Sn2 2.795853 1_565
Fe2 Sn2 2.795853 1_555
Fe3 Ge1 2.530203 1_555
Fe3 Ge0 2.530203 1_455
Fe3 Fe5 2.643928 1_565
Fe3 Fe5 2.643928 1_455
Fe3 Sn1 2.779588 1_555
Fe3 Sn0 2.779588 1_455
Fe3 Sn3 2.795853 1_555
Fe3 Sn3 2.795853 1_565
Fe4 Ge0 2.530203 1_556
Fe4 Ge1 2.530203 1_546
Fe4 Sn1 2.779588 1_545
Fe4 Sn0 2.779588 1_555
Fe4 Sn2 2.795853 1_655
Fe4 Sn2 2.795853 1_555
Fe5 Ge1 2.530203 1_545
Fe5 Ge0 2.530203 1_555
Fe5 Sn0 2.779588 1_555
Fe5 Sn1 2.779588 1_545
Fe5 Sn3 2.795853 1_555
Fe5 Sn3 2.795853 1_655
Sn2 Sn3 2.827685 1_555
