# generated using pymatgen
data_PH10C2NO4
_symmetry_space_group_name_H-M   'P 1'
_cell_length_a   6.96517055
_cell_length_b   10.33029530
_cell_length_c   9.76674500
_cell_angle_alpha   90.00000000
_cell_angle_beta   90.00000000
_cell_angle_gamma   86.44378681
_symmetry_Int_Tables_number   1
_chemical_formula_structural   PH10C2NO4
_chemical_formula_sum   'P4 H40 C8 N4 O16'
_cell_volume   701.38627986
_cell_formula_units_Z   4
loop_
 _symmetry_equiv_pos_site_id
 _symmetry_equiv_pos_as_xyz
  1  'x, y, z'
loop_
 _atom_site_type_symbol
 _atom_site_label
 _atom_site_symmetry_multiplicity
 _atom_site_fract_x
 _atom_site_fract_y
 _atom_site_fract_z
 _atom_site_occupancy
  P  P0  1  0.74282500  0.65558100  0.76152600  1
  P  P1  1  0.24282500  0.15558100  0.23847400  1
  P  P2  1  0.75482400  0.80745800  0.28713600  1
  P  P3  1  0.25482400  0.30745800  0.71286400  1
  H  H0  1  0.75624500  0.77807500  0.57734100  1
  H  H1  1  0.25624500  0.27807500  0.42265900  1
  H  H2  1  0.50117600  0.98260900  0.28183700  1
  H  H3  1  0.00117600  0.48260900  0.71816300  1
  H  H4  1  0.74812300  0.69578700  0.09089600  1
  H  H5  1  0.24812300  0.19578700  0.90910400  1
  H  H6  1  0.51716100  0.49613200  0.73549500  1
  H  H7  1  0.01716100  0.99613200  0.26450500  1
  H  H8  1  0.23705400  0.70449900  0.13001300  1
  H  H9  1  0.73705400  0.20449900  0.86998700  1
  H  H10  1  0.45445600  0.71079900  0.05921500  1
  H  H11  1  0.95445600  0.21079900  0.94078500  1
  H  H12  1  0.32298700  0.83158400  0.39190600  1
  H  H13  1  0.82298700  0.33158400  0.60809400  1
  H  H14  1  0.08572500  0.80983100  0.43299600  1
  H  H15  1  0.58572500  0.30983100  0.56700400  1
  H  H16  1  0.34695200  0.87952100  0.90853100  1
  H  H17  1  0.84695200  0.37952100  0.09146900  1
  H  H18  1  0.10452200  0.86605000  0.96957900  1
  H  H19  1  0.60452200  0.36605000  0.03042100  1
  H  H20  1  0.28381000  0.92436200  0.08084500  1
  H  H21  1  0.78381000  0.42436200  0.91915500  1
  H  H22  1  0.34767300  0.64332000  0.84530900  1
  H  H23  1  0.84767300  0.14332000  0.15469100  1
  H  H24  1  0.29268000  0.52767600  0.97137200  1
  H  H25  1  0.79268000  0.02767600  0.02862800  1
  H  H26  1  0.10761800  0.64125300  0.90707900  1
  H  H27  1  0.60761800  0.14125300  0.09292100  1
  H  H28  1  0.40157400  0.86440500  0.62656300  1
  H  H29  1  0.90157400  0.36440500  0.37343700  1
  H  H30  1  0.22311700  0.98262100  0.56408900  1
  H  H31  1  0.72311700  0.48262100  0.43591100  1
  H  H32  1  0.15216700  0.85021900  0.66889200  1
  H  H33  1  0.65216700  0.35021900  0.33110800  1
  H  H34  1  0.17705300  0.62567500  0.56826500  1
  H  H35  1  0.67705300  0.12567500  0.43173500  1
  H  H36  1  0.42352100  0.64315900  0.52278700  1
  H  H37  1  0.92352100  0.14315900  0.47721300  1
  H  H38  1  0.25060900  0.60572300  0.39399200  1
  H  H39  1  0.75060900  0.10572300  0.60600800  1
  C  C0  1  0.25715700  0.85846000  0.99669000  1
  C  C1  1  0.75715700  0.35846000  0.00331000  1
  C  C2  1  0.25284000  0.88036800  0.59076900  1
  C  C3  1  0.75284000  0.38036800  0.40923100  1
  C  C4  1  0.27421500  0.65859400  0.48923900  1
  C  C5  1  0.77421500  0.15859400  0.51076100  1
  C  C6  1  0.25901900  0.62638700  0.93482900  1
  C  C7  1  0.75901900  0.12638700  0.06517100  1
  N  N0  1  0.30825600  0.72243800  0.04052000  1
  N  N1  1  0.80825600  0.22243800  0.95948000  1
  N  N2  1  0.22875300  0.79967500  0.46602000  1
  N  N3  1  0.72875300  0.29967500  0.53398000  1
  O  O0  1  0.71607700  0.78799100  0.67805900  1
  O  O1  1  0.21607700  0.28799100  0.32194100  1
  O  O2  1  0.54309600  0.87134400  0.29968600  1
  O  O3  1  0.04309600  0.37134400  0.70031400  1
  O  O4  1  0.69241300  0.68166700  0.90975200  1
  O  O5  1  0.19241300  0.18166700  0.09024800  1
  O  O6  1  0.94934200  0.59849300  0.73396400  1
  O  O7  1  0.44934200  0.09849300  0.26603600  1
  O  O8  1  0.72999600  0.68109300  0.19088900  1
  O  O9  1  0.22999600  0.18109300  0.80911100  1
  O  O10  1  0.60250900  0.56187100  0.68798100  1
  O  O11  1  0.10250900  0.06187100  0.31201900  1
  O  O12  1  0.89270100  0.89313900  0.21428700  1
  O  O13  1  0.39270100  0.39313900  0.78571300  1
  O  O14  1  0.82865400  0.75734400  0.42574700  1
  O  O15  1  0.32865400  0.25734400  0.57425300  1
loop_
_geom_bond_atom_site_label_1
_geom_bond_atom_site_label_2
_geom_bond_distance
_geom_bond_site_symmetry_2
H0 O0 1.026086 1_555
H0 O14 1.574465 1_555
H1 O1 1.026086 1_555
H1 O15 1.574465 1_555
H2 O2 1.181156 1_555
H2 O7 1.238398 1_565
H3 O3 1.181156 1_555
H3 O6 1.238398 1_455
H4 O8 0.997557 1_555
H5 O9 0.997557 1_555
H6 O10 1.039230 1_555
H6 O13 1.496146 1_555
H7 O11 1.039230 1_565
H7 O12 1.496146 1_455
H8 N0 1.027456 1_555
H9 N1 1.027456 1_555
H10 N0 1.034194 1_555
H11 N1 1.034194 1_555
H12 N2 1.044156 1_555
H13 N3 1.044156 1_555
H14 N2 1.046190 1_555
H15 N3 1.046190 1_555
C0 H20 1.090489 1_556
C0 H18 1.093692 1_555
C0 H16 1.093963 1_555
C0 N0 1.490745 1_556
C1 H21 1.090489 1_554
C1 H19 1.093692 1_555
C1 H17 1.093963 1_555
C1 N1 1.490745 1_554
C2 H32 1.094514 1_555
C2 H30 1.095175 1_555
C2 H28 1.096094 1_555
C2 N2 1.491588 1_555
C3 H33 1.094514 1_555
C3 H31 1.095175 1_555
C3 H29 1.096094 1_555
C3 N3 1.491588 1_555
C4 H36 1.092561 1_555
C4 H34 1.094486 1_555
C4 H38 1.096289 1_555
C4 N2 1.489457 1_555
C5 H37 1.092561 1_555
C5 H35 1.094486 1_555
C5 H39 1.096289 1_555
C5 N3 1.489457 1_555
C6 H26 1.090409 1_555
C6 H22 1.090745 1_555
C6 H24 1.092020 1_555
C6 N0 1.486577 1_556
C7 H27 1.090409 1_555
C7 H23 1.090745 1_555
C7 H25 1.092020 1_555
C7 N1 1.486577 1_554
O0 P0 1.593305 1_555
O1 P1 1.593305 1_555
O2 P2 1.582605 1_555
O3 P3 1.582605 1_555
O4 P0 1.509955 1_555
O5 P1 1.509955 1_555
O6 P0 1.544049 1_555
O7 P1 1.544049 1_555
O8 P2 1.626525 1_555
O9 P3 1.626525 1_555
O10 P0 1.589215 1_555
O11 P1 1.589215 1_555
O12 P2 1.522282 1_555
O13 P3 1.522282 1_555
O14 P2 1.527133 1_555
O15 P3 1.527133 1_555
