# generated using pymatgen
data_Sr6Ca2Mn5(FeO8)3
_symmetry_space_group_name_H-M   'P 1'
_cell_length_a   7.75153000
_cell_length_b   7.75680500
_cell_length_c   7.80028400
_cell_angle_alpha   89.99916998
_cell_angle_beta   90.00000000
_cell_angle_gamma   90.00000000
_symmetry_Int_Tables_number   1
_chemical_formula_structural   Sr6Ca2Mn5(FeO8)3
_chemical_formula_sum   'Sr6 Ca2 Mn5 Fe3 O24'
_cell_volume   469.00850806
_cell_formula_units_Z   1
loop_
 _symmetry_equiv_pos_site_id
 _symmetry_equiv_pos_as_xyz
  1  'x, y, z'
loop_
 _atom_site_type_symbol
 _atom_site_label
 _atom_site_symmetry_multiplicity
 _atom_site_fract_x
 _atom_site_fract_y
 _atom_site_fract_z
 _atom_site_occupancy
  Sr  Sr0  1  0.25062200  0.74951900  0.25100600  1
  Sr  Sr1  1  0.25052300  0.25049800  0.25096400  1
  Sr  Sr2  1  0.74947600  0.25058800  0.25108900  1
  Sr  Sr3  1  0.25052300  0.74950200  0.74903600  1
  Sr  Sr4  1  0.25062200  0.25048100  0.74899400  1
  Sr  Sr5  1  0.74947600  0.74941200  0.74891100  1
  Ca  Ca0  1  0.74918600  0.74922900  0.25141500  1
  Ca  Ca1  1  0.74918600  0.25077100  0.74858500  1
  Mn  Mn0  1  0.50138100  0.50000000  0.00000000  1
  Mn  Mn1  1  0.99876900  0.00000000  0.50000000  1
  Mn  Mn2  1  0.99843900  0.50000000  0.50000000  1
  Mn  Mn3  1  0.50143900  0.00000000  0.50000000  1
  Mn  Mn4  1  0.50127100  0.50000000  0.50000000  1
  Fe  Fe0  1  0.99853800  0.00000000  0.00000000  1
  Fe  Fe1  1  0.99847400  0.50000000  0.00000000  1
  Fe  Fe2  1  0.50132600  0.00000000  0.00000000  1
  O  O0  1  0.99643700  0.99776000  0.25273500  1
  O  O1  1  0.99661900  0.50217800  0.25452100  1
  O  O2  1  0.50340100  0.99781700  0.25450700  1
  O  O3  1  0.50372700  0.50276800  0.25075700  1
  O  O4  1  0.99643700  0.00224000  0.74726500  1
  O  O5  1  0.99661900  0.49782200  0.74547900  1
  O  O6  1  0.50340100  0.00218300  0.74549300  1
  O  O7  1  0.50372700  0.49723200  0.74924300  1
  O  O8  1  0.24810300  0.00000000  0.00000000  1
  O  O9  1  0.25281600  0.50000000  0.00000000  1
  O  O10  1  0.75174900  0.00000000  0.00000000  1
  O  O11  1  0.74702100  0.50000000  0.00000000  1
  O  O12  1  0.24969400  0.00000000  0.50000000  1
  O  O13  1  0.25047400  0.50000000  0.50000000  1
  O  O14  1  0.75035800  0.00000000  0.50000000  1
  O  O15  1  0.74963100  0.50000000  0.50000000  1
  O  O16  1  0.99673600  0.75185700  0.00200900  1
  O  O17  1  0.99673600  0.24814300  0.99799100  1
  O  O18  1  0.50339200  0.74712300  0.00210100  1
  O  O19  1  0.50339200  0.25287700  0.99789900  1
  O  O20  1  0.99648400  0.75033600  0.49732100  1
  O  O21  1  0.99648400  0.24966400  0.50267900  1
  O  O22  1  0.50365300  0.74957400  0.49712600  1
  O  O23  1  0.50365300  0.25042600  0.50287400  1
loop_
_geom_bond_atom_site_label_1
_geom_bond_atom_site_label_2
_geom_bond_distance
_geom_bond_site_symmetry_2
Ca0 O3 2.697224 1_555
Ca0 O22 2.701075 1_555
Ca0 O2 2.710821 1_555
Ca0 O1 2.711375 1_555
Ca0 O20 2.711821 1_555
Ca0 O0 2.718418 1_555
Ca0 O18 2.722553 1_555
Ca0 O16 2.732633 1_555
Ca0 O15 2.738083 1_555
Ca0 O14 2.746593 1_565
Ca0 O11 2.753848 1_555
Ca0 O10 2.762239 1_565
Ca1 O7 2.697224 1_555
Ca1 O23 2.701075 1_555
Ca1 O6 2.710821 1_555
Ca1 O5 2.711375 1_555
Ca1 O21 2.711821 1_555
Ca1 O4 2.718418 1_555
Ca1 O19 2.722553 1_555
Ca1 O17 2.732633 1_555
Ca1 O15 2.738083 1_555
Ca1 O14 2.746593 1_555
Ca1 O11 2.753848 1_556
Ca1 O10 2.762239 1_556
Mn0 O11 1.904086 1_555
Mn0 O18 1.917019 1_555
Mn0 O19 1.917019 1_554
Mn0 O9 1.926759 1_555
Mn0 O7 1.956178 1_554
Mn0 O3 1.956178 1_555
Mn1 O14 1.925565 1_555
Mn1 O4 1.928900 1_555
Mn1 O0 1.928900 1_545
Mn1 O21 1.936789 1_555
Mn1 O20 1.936789 1_545
Mn1 O12 1.945053 1_655
Mn2 O1 1.914932 1_555
Mn2 O5 1.914932 1_555
Mn2 O15 1.928643 1_555
Mn2 O20 1.941979 1_555
Mn2 O21 1.941979 1_555
Mn2 O13 1.953657 1_655
Mn3 O6 1.915051 1_555
Mn3 O2 1.915051 1_545
Mn3 O14 1.929503 1_555
Mn3 O23 1.942711 1_555
Mn3 O22 1.942711 1_545
Mn3 O12 1.951409 1_555
Mn4 O15 1.925170 1_555
Mn4 O22 1.936114 1_555
Mn4 O23 1.936114 1_555
Mn4 O13 1.944060 1_555
Mn4 O3 1.944378 1_555
Mn4 O7 1.944378 1_555
Fe0 O10 1.912992 1_555
Fe0 O17 1.924911 1_554
Fe0 O16 1.924911 1_545
Fe0 O8 1.934511 1_655
Fe0 O0 1.971548 1_545
Fe0 O4 1.971548 1_554
Fe1 O11 1.949145 1_555
Fe1 O16 1.953715 1_555
Fe1 O17 1.953715 1_554
Fe1 O9 1.971540 1_655
Fe1 O5 1.985460 1_554
Fe1 O1 1.985460 1_555
Fe2 O10 1.941161 1_555
Fe2 O19 1.961651 1_554
Fe2 O18 1.961651 1_545
Fe2 O8 1.962866 1_555
Fe2 O2 1.985364 1_545
Fe2 O6 1.985364 1_554
O0 Sr2 2.740596 1_565
O0 Sr0 2.755018 1_655
O0 Sr1 2.778968 1_665
O1 Sr2 2.734822 1_555
O1 Sr0 2.749236 1_655
O1 Sr1 2.772287 1_655
O2 Sr2 2.735586 1_565
O2 Sr0 2.747647 1_555
O2 Sr1 2.772129 1_565
O3 Sr2 2.730410 1_555
O3 Sr0 2.740921 1_555
O3 Sr1 2.771528 1_555
O4 Sr5 2.740596 1_545
O4 Sr4 2.755018 1_655
O4 Sr3 2.778968 1_645
O5 Sr5 2.734822 1_555
O5 Sr4 2.749236 1_655
O5 Sr3 2.772287 1_655
O6 Sr5 2.735586 1_545
O6 Sr4 2.747647 1_555
O6 Sr3 2.772129 1_545
O7 Sr5 2.730410 1_555
O7 Sr4 2.740921 1_555
O7 Sr3 2.771528 1_555
O8 Sr3 2.758282 1_544
O8 Sr1 2.758282 1_555
O8 Sr4 2.758387 1_554
O8 Sr0 2.758387 1_545
O9 Sr3 2.752799 1_554
O9 Sr1 2.752799 1_555
O9 Sr4 2.753160 1_554
O9 Sr0 2.753160 1_555
O10 Sr2 2.759459 1_555
O10 Sr5 2.759459 1_544
O11 Sr5 2.753010 1_554
O11 Sr2 2.753010 1_555
O12 Sr0 2.747250 1_545
O12 Sr4 2.747250 1_555
O12 Sr1 2.747533 1_555
O12 Sr3 2.747533 1_545
O13 Sr4 2.741928 1_555
O13 Sr0 2.741928 1_555
O13 Sr1 2.742107 1_555
O13 Sr3 2.742107 1_555
O14 Sr2 2.747338 1_555
O14 Sr5 2.747338 1_545
O15 Sr5 2.740924 1_555
O15 Sr2 2.740924 1_555
O16 Sr5 2.751634 1_554
O16 Sr0 2.765085 1_655
O16 Sr3 2.786417 1_654
O17 Sr2 2.751634 1_556
O17 Sr4 2.765085 1_655
O17 Sr1 2.786417 1_656
O18 Sr5 2.745800 1_554
O18 Sr0 2.758433 1_555
O18 Sr3 2.781907 1_554
O19 Sr2 2.745800 1_556
O19 Sr4 2.758433 1_555
O19 Sr1 2.781907 1_556
O20 Sr5 2.741786 1_555
O20 Sr0 2.751776 1_655
O20 Sr3 2.780806 1_655
O21 Sr2 2.741786 1_555
O21 Sr4 2.751776 1_655
O21 Sr1 2.780806 1_655
O22 Sr5 2.736462 1_555
O22 Sr0 2.744568 1_555
O22 Sr3 2.776890 1_555
O23 Sr2 2.736462 1_555
O23 Sr4 2.744568 1_555
O23 Sr1 2.776890 1_555
