# generated using pymatgen
data_Zn17Co3
_symmetry_space_group_name_H-M   'P 1'
_cell_length_a   11.25161215
_cell_length_b   11.25161215
_cell_length_c   7.68920900
_cell_angle_alpha   90.00000000
_cell_angle_beta   90.00000000
_cell_angle_gamma   120.00000089
_symmetry_Int_Tables_number   1
_chemical_formula_structural   Zn17Co3
_chemical_formula_sum   'Zn51 Co9'
_cell_volume   843.02761342
_cell_formula_units_Z   3
loop_
 _symmetry_equiv_pos_site_id
 _symmetry_equiv_pos_as_xyz
  1  'x, y, z'
loop_
 _atom_site_type_symbol
 _atom_site_label
 _atom_site_symmetry_multiplicity
 _atom_site_fract_x
 _atom_site_fract_y
 _atom_site_fract_z
 _atom_site_occupancy
  Zn  Zn0  1  0.93117500  0.68938600  0.83304300  1
  Zn  Zn1  1  0.75821100  0.06882500  0.16637600  1
  Zn  Zn2  1  0.06882500  0.31061400  0.83304300  1
  Zn  Zn3  1  0.31061400  0.24178900  0.49971000  1
  Zn  Zn4  1  0.24178900  0.93117500  0.16637600  1
  Zn  Zn5  1  0.68938600  0.75821100  0.49971000  1
  Zn  Zn6  1  0.68587100  0.57295600  0.99312100  1
  Zn  Zn7  1  0.88708500  0.31412900  0.32645400  1
  Zn  Zn8  1  0.31412900  0.42704400  0.99312100  1
  Zn  Zn9  1  0.42704400  0.11291500  0.65978700  1
  Zn  Zn10  1  0.11291500  0.68587100  0.32645400  1
  Zn  Zn11  1  0.57295600  0.88708500  0.65978700  1
  Zn  Zn12  1  0.51818200  0.62670800  0.79192900  1
  Zn  Zn13  1  0.10852600  0.48181800  0.12526200  1
  Zn  Zn14  1  0.48181800  0.37329200  0.79192900  1
  Zn  Zn15  1  0.37329200  0.89147400  0.45859600  1
  Zn  Zn16  1  0.89147400  0.51818200  0.12526200  1
  Zn  Zn17  1  0.62670800  0.10852600  0.45859600  1
  Zn  Zn18  1  0.93243300  0.77988600  0.51106600  1
  Zn  Zn19  1  0.84745300  0.06756700  0.84440000  1
  Zn  Zn20  1  0.06756700  0.22011400  0.51106600  1
  Zn  Zn21  1  0.22011400  0.15254700  0.17773300  1
  Zn  Zn22  1  0.15254700  0.93243300  0.84440000  1
  Zn  Zn23  1  0.77988600  0.84745300  0.17773300  1
  Zn  Zn24  1  0.57599600  0.84344700  0.98962000  1
  Zn  Zn25  1  0.26745100  0.42400400  0.32295300  1
  Zn  Zn26  1  0.42400400  0.15655300  0.98962000  1
  Zn  Zn27  1  0.15655300  0.73254900  0.65628700  1
  Zn  Zn28  1  0.73254900  0.57599600  0.32295300  1
  Zn  Zn29  1  0.84344700  0.26745100  0.65628700  1
  Zn  Zn30  1  0.78937700  0.81392800  0.82118300  1
  Zn  Zn31  1  0.02455100  0.21062300  0.15451600  1
  Zn  Zn32  1  0.21062300  0.18607200  0.82118300  1
  Zn  Zn33  1  0.18607200  0.97544900  0.48785000  1
  Zn  Zn34  1  0.97544900  0.78937700  0.15451600  1
  Zn  Zn35  1  0.81392800  0.02455100  0.48785000  1
  Zn  Zn36  1  0.37007300  0.88883000  0.85762400  1
  Zn  Zn37  1  0.51875600  0.62992700  0.19095700  1
  Zn  Zn38  1  0.62992700  0.11117000  0.85762400  1
  Zn  Zn39  1  0.11117000  0.48124400  0.52429100  1
  Zn  Zn40  1  0.48124400  0.37007300  0.19095700  1
  Zn  Zn41  1  0.88883000  0.51875600  0.52429100  1
  Zn  Zn42  1  0.72269200  0.38405500  0.83300700  1
  Zn  Zn43  1  0.66136300  0.27730800  0.16634000  1
  Zn  Zn44  1  0.27730800  0.61594500  0.83300700  1
  Zn  Zn45  1  0.61594500  0.33863700  0.49967300  1
  Zn  Zn46  1  0.33863700  0.72269200  0.16634000  1
  Zn  Zn47  1  0.38405500  0.66136300  0.49967300  1
  Zn  Zn48  1  0.50000000  0.50000000  0.49475700  1
  Zn  Zn49  1  0.00000000  0.50000000  0.82809100  1
  Zn  Zn50  1  0.50000000  0.00000000  0.16142400  1
  Co  Co0  1  0.71476200  0.57482000  0.66219900  1
  Co  Co1  1  0.86005800  0.28523800  0.99553200  1
  Co  Co2  1  0.28523800  0.42518000  0.66219900  1
  Co  Co3  1  0.42518000  0.13994200  0.32886500  1
  Co  Co4  1  0.13994200  0.71476200  0.99553200  1
  Co  Co5  1  0.57482000  0.86005800  0.32886500  1
  Co  Co6  1  0.00000000  0.00000000  0.00000000  1
  Co  Co7  1  0.00000000  0.00000000  0.33333400  1
  Co  Co8  1  0.00000000  0.00000000  0.66666700  1
loop_
_geom_bond_atom_site_label_1
_geom_bond_atom_site_label_2
_geom_bond_distance
_geom_bond_site_symmetry_2
Zn0 Zn30 2.598681 1_555
Zn0 Zn49 2.606148 1_655
Zn0 Zn22 2.622708 1_655
Zn0 Zn34 2.657747 1_556
Zn0 Zn18 2.674321 1_555
Zn0 Zn27 2.698539 1_655
Zn0 Zn16 2.845782 1_556
Zn1 Zn31 2.598681 1_655
Zn1 Zn50 2.606148 1_555
Zn1 Zn23 2.622708 1_545
Zn1 Zn35 2.657754 1_555
Zn1 Zn19 2.674314 1_554
Zn1 Zn24 2.698539 1_544
Zn1 Zn17 2.845788 1_555
Zn2 Zn32 2.598681 1_555
Zn2 Zn49 2.606148 1_555
Zn2 Zn31 2.657747 1_556
Zn2 Zn20 2.674321 1_555
Zn2 Zn29 2.698539 1_455
Zn3 Zn33 2.598681 1_545
Zn3 Zn48 2.606148 1_555
Zn3 Zn32 2.657747 1_555
Zn4 Zn50 2.606148 1_565
Zn10 Zn27 2.586721 1_555
Zn10 Zn34 2.701448 1_455
Zn10 Zn16 2.731306 1_455
Zn10 Zn13 2.748375 1_555
Zn10 Zn15 2.861746 1_555
Zn11 Zn24 2.586721 1_555
Zn11 Zn35 2.701444 1_565
Zn11 Zn17 2.731301 1_565
Zn11 Zn15 2.748370 1_555
Zn11 Zn12 2.861746 1_555
Zn12 Zn48 2.646513 1_555
Zn12 Zn24 2.663558 1_555
Zn12 Zn14 2.670375 1_555
Zn12 Zn44 2.670490 1_555
Zn12 Zn30 2.714989 1_555
Zn12 Zn6 2.731306 1_555
Zn12 Zn8 2.748375 1_555
Zn12 Zn47 2.840422 1_555
Zn12 Zn5 2.845782 1_555
Zn12 Zn37 3.068392 1_556
Zn13 Zn49 2.646506 1_554
Zn13 Zn25 2.663558 1_555
Zn13 Zn16 2.670375 1_455
Zn13 Zn46 2.670490 1_555
Zn13 Zn31 2.714989 1_555
Zn13 Zn7 2.731306 1_455
Zn13 Zn44 2.840416 1_554
Zn13 Zn2 2.845782 1_554
Zn13 Zn8 2.861743 1_554
Zn13 Zn39 3.068400 1_555
Zn14 Zn48 2.646513 1_555
Zn14 Zn26 2.663558 1_555
Zn14 Zn42 2.670490 1_555
Zn14 Zn32 2.714989 1_555
Zn14 Zn8 2.731306 1_555
Zn14 Zn6 2.748375 1_555
Zn14 Zn45 2.840422 1_555
Zn14 Zn3 2.845782 1_555
Zn14 Zn9 2.861746 1_555
Zn14 Zn40 3.068392 1_556
Zn15 Zn50 2.646513 1_565
Zn15 Zn27 2.663558 1_555
Zn15 Zn17 2.670375 1_565
Zn15 Zn47 2.670489 1_555
Zn15 Zn33 2.714989 1_555
Zn15 Zn9 2.731301 1_565
Zn15 Zn46 2.840422 1_555
Zn15 Zn4 2.845788 1_555
Zn15 Zn36 3.068392 1_555
Zn16 Zn49 2.646506 1_654
Zn16 Zn28 2.663558 1_555
Zn16 Zn43 2.670490 1_555
Zn16 Zn34 2.714989 1_555
Zn16 Zn7 2.748375 1_555
Zn16 Zn42 2.840416 1_554
Zn16 Zn6 2.861743 1_554
Zn16 Zn41 3.068400 1_555
Zn17 Zn50 2.646513 1_555
Zn17 Zn29 2.663558 1_555
Zn17 Zn45 2.670489 1_555
Zn17 Zn35 2.714989 1_555
Zn17 Zn9 2.748370 1_555
Zn17 Zn43 2.840422 1_555
Zn17 Zn7 2.861746 1_555
Zn17 Zn38 3.068392 1_555
Zn18 Zn33 2.595855 1_655
Zn18 Zn5 2.622708 1_555
Zn18 Zn28 2.693264 1_555
Zn18 Zn41 2.728040 1_555
Zn18 Zn34 2.776738 1_555
Zn18 Zn27 3.038534 1_655
Zn19 Zn30 2.595856 1_545
Zn19 Zn2 2.622708 1_655
Zn19 Zn29 2.693264 1_555
Zn19 Zn38 2.728028 1_555
Zn19 Zn35 2.776738 1_555
Zn19 Zn24 3.038531 1_545
Zn20 Zn35 2.595855 1_455
Zn20 Zn3 2.622708 1_555
Zn20 Zn25 2.693264 1_555
Zn20 Zn39 2.728040 1_555
Zn20 Zn31 2.776738 1_555
Zn20 Zn29 3.038534 1_455
Zn21 Zn31 2.595856 1_555
Zn21 Zn4 2.622708 1_545
Zn21 Zn3 2.674321 1_555
Zn21 Zn26 2.693264 1_554
Zn21 Zn40 2.728035 1_555
Zn21 Zn32 2.776738 1_554
Zn21 Zn25 3.038531 1_555
Zn22 Zn32 2.595856 1_565
Zn22 Zn4 2.674314 1_556
Zn22 Zn27 2.693264 1_555
Zn22 Zn36 2.728028 1_555
Zn22 Zn33 2.776738 1_555
Zn22 Zn26 3.038531 1_565
Zn23 Zn34 2.595856 1_555
Zn23 Zn5 2.674321 1_555
Zn23 Zn24 2.693264 1_554
Zn23 Zn37 2.728035 1_555
Zn23 Zn30 2.776738 1_554
Zn23 Zn28 3.038531 1_555
Zn24 Zn37 2.652534 1_556
Zn24 Zn50 2.661819 1_566
Zn24 Zn46 2.682601 1_556
Zn24 Zn36 2.800412 1_555
Zn24 Zn30 2.889527 1_555
Zn24 Zn38 2.940148 1_565
Zn25 Zn8 2.586713 1_554
Zn25 Zn39 2.652547 1_555
Zn25 Zn48 2.661819 1_555
Zn25 Zn47 2.682601 1_555
Zn25 Zn3 2.698543 1_555
Zn25 Zn37 2.800405 1_555
Zn25 Zn31 2.889527 1_555
Zn25 Zn40 2.940158 1_555
Zn26 Zn9 2.586721 1_555
Zn26 Zn40 2.652534 1_556
Zn26 Zn50 2.661819 1_556
Zn26 Zn43 2.682601 1_556
Zn26 Zn4 2.698539 1_546
Zn26 Zn38 2.800412 1_555
Zn26 Zn32 2.889527 1_555
Zn26 Zn36 2.940148 1_545
Zn27 Zn36 2.652536 1_555
Zn27 Zn49 2.661819 1_555
Zn27 Zn44 2.682601 1_555
Zn27 Zn39 2.800401 1_555
Zn27 Zn33 2.889527 1_555
Zn27 Zn41 2.940152 1_455
Zn28 Zn6 2.586713 1_554
Zn28 Zn41 2.652547 1_555
Zn28 Zn48 2.661819 1_555
Zn28 Zn45 2.682601 1_555
Zn28 Zn5 2.698543 1_555
Zn28 Zn40 2.800405 1_555
Zn28 Zn34 2.889527 1_555
Zn28 Zn37 2.940158 1_555
Zn29 Zn7 2.586721 1_555
Zn29 Zn38 2.652536 1_555
Zn29 Zn49 2.661819 1_655
Zn29 Zn42 2.682601 1_555
Zn29 Zn41 2.800401 1_555
Zn29 Zn35 2.889527 1_555
Zn29 Zn39 2.940152 1_655
Zn30 Zn5 2.657747 1_555
Zn30 Zn6 2.701448 1_555
Zn31 Zn7 2.701448 1_455
Zn32 Zn8 2.701448 1_555
Zn33 Zn4 2.657754 1_555
Zn33 Zn9 2.701444 1_565
Zn34 Zn4 2.598681 1_655
Zn35 Zn5 2.598681 1_545
Zn36 Zn50 2.707387 1_566
Zn37 Zn48 2.707389 1_555
Zn38 Zn50 2.707387 1_556
Zn39 Zn49 2.707383 1_555
Zn40 Zn48 2.707389 1_555
Zn41 Zn49 2.707383 1_655
Zn42 Zn49 2.714456 1_655
Zn43 Zn50 2.714456 1_555
Zn44 Zn49 2.714456 1_555
Zn45 Zn48 2.714457 1_555
Zn46 Zn50 2.714456 1_565
Zn47 Zn48 2.714457 1_555
Zn48 Zn5 2.606148 1_555
Co0 Zn48 2.484186 1_555
Co0 Zn0 2.485500 1_555
Co0 Zn5 2.547452 1_555
Co0 Zn42 2.555686 1_555
Co0 Zn6 2.563965 1_555
Co0 Zn41 2.567830 1_555
Co0 Zn28 2.615727 1_555
Co0 Zn45 2.627786 1_555
Co0 Zn18 2.649822 1_555
Co0 Zn14 2.657657 1_555
Co0 Zn30 2.679285 1_555
Co0 Zn12 2.742165 1_555
Co1 Zn49 2.484182 1_655
Co1 Zn1 2.485500 1_556
Co1 Zn2 2.547452 1_655
Co1 Zn43 2.555686 1_556
Co1 Zn7 2.563965 1_556
Co1 Zn38 2.567823 1_555
Co1 Zn29 2.615719 1_555
Co1 Zn42 2.627783 1_555
Co1 Zn19 2.649818 1_555
Co1 Zn16 2.657657 1_556
Co1 Zn31 2.679285 1_656
Co1 Zn13 2.742165 1_656
Co2 Zn48 2.484186 1_555
Co2 Zn2 2.485500 1_555
Co2 Zn3 2.547452 1_555
Co2 Zn44 2.555686 1_555
Co2 Zn8 2.563965 1_555
Co2 Zn39 2.567830 1_555
Co2 Zn25 2.615727 1_555
Co2 Zn47 2.627786 1_555
Co2 Zn20 2.649822 1_555
Co2 Zn12 2.657657 1_555
Co2 Zn32 2.679285 1_555
Co2 Zn14 2.742165 1_555
Co3 Zn50 2.484182 1_555
Co3 Zn3 2.485504 1_555
Co3 Zn4 2.547452 1_545
Co3 Zn45 2.555686 1_555
Co3 Zn9 2.563965 1_555
Co3 Zn40 2.567820 1_555
Co3 Zn26 2.615719 1_554
Co3 Zn43 2.627783 1_555
Co3 Zn21 2.649818 1_555
Co3 Zn17 2.657660 1_555
Co3 Zn33 2.679289 1_545
Co3 Zn15 2.742168 1_545
Co4 Zn49 2.484182 1_555
Co4 Zn4 2.485500 1_556
Co4 Zn0 2.547452 1_455
Co4 Zn46 2.555686 1_556
Co4 Zn10 2.563965 1_556
Co4 Zn36 2.567823 1_555
Co4 Zn27 2.615719 1_555
Co4 Zn44 2.627783 1_555
Co4 Zn22 2.649818 1_555
Co4 Zn13 2.657657 1_556
Co4 Zn34 2.679285 1_456
Co4 Zn16 2.742165 1_456
Co5 Zn50 2.484182 1_565
Co5 Zn5 2.485504 1_555
Co5 Zn1 2.547452 1_565
Co5 Zn47 2.555686 1_555
Co5 Zn11 2.563965 1_555
Co5 Zn37 2.567820 1_555
Co5 Zn24 2.615719 1_554
Co5 Zn46 2.627783 1_555
Co5 Zn23 2.649818 1_555
Co5 Zn15 2.657660 1_555
Co5 Zn35 2.679289 1_565
Co5 Zn17 2.742168 1_565
Co6 Zn22 2.502066 1_544
Co6 Zn19 2.502066 1_454
Co6 Zn34 2.539575 1_445
Co6 Zn31 2.539575 1_555
Co6 Co8 2.563067 1_554
Co6 Co7 2.563075 1_555
Co6 Zn23 2.587765 1_445
Co6 Zn21 2.587765 1_555
Co6 Zn30 2.632179 1_444
Co6 Zn32 2.632179 1_554
Co7 Zn23 2.502069 1_445
Co7 Zn21 2.502069 1_555
Co7 Zn33 2.539575 1_545
Co7 Zn35 2.539575 1_455
Co7 Co8 2.563067 1_555
Co7 Zn20 2.587761 1_555
Co7 Zn18 2.587761 1_445
Co7 Zn34 2.632183 1_445
Co7 Zn31 2.632183 1_555
Co8 Zn20 2.502069 1_555
Co8 Zn18 2.502069 1_445
Co8 Zn32 2.539575 1_555
Co8 Zn30 2.539575 1_445
Co8 Zn19 2.587765 1_455
Co8 Zn22 2.587765 1_545
Co8 Zn35 2.632179 1_455
Co8 Zn33 2.632179 1_545
