# generated using pymatgen
data_Sr2VMoO6
_symmetry_space_group_name_H-M   'P 1'
_cell_length_a   4.04173500
_cell_length_b   4.04173500
_cell_length_c   7.83901200
_cell_angle_alpha   90.00000000
_cell_angle_beta   90.00000000
_cell_angle_gamma   90.00000000
_symmetry_Int_Tables_number   1
_chemical_formula_structural   Sr2VMoO6
_chemical_formula_sum   'Sr2 V1 Mo1 O6'
_cell_volume   128.05513540
_cell_formula_units_Z   1
loop_
 _symmetry_equiv_pos_site_id
 _symmetry_equiv_pos_as_xyz
  1  'x, y, z'
loop_
 _atom_site_type_symbol
 _atom_site_label
 _atom_site_symmetry_multiplicity
 _atom_site_fract_x
 _atom_site_fract_y
 _atom_site_fract_z
 _atom_site_occupancy
  Sr  Sr0  1  0.50000000  0.50000000  0.23464000  1
  Sr  Sr1  1  0.50000000  0.50000000  0.76536000  1
  V  V0  1  0.00000000  0.00000000  0.00000000  1
  Mo  Mo0  1  0.00000000  0.00000000  0.50000000  1
  O  O0  1  0.00000000  0.00000000  0.24148100  1
  O  O1  1  0.00000000  0.00000000  0.75851900  1
  O  O2  1  0.00000000  0.50000000  0.00000000  1
  O  O3  1  0.00000000  0.50000000  0.50000000  1
  O  O4  1  0.50000000  0.00000000  0.00000000  1
  O  O5  1  0.50000000  0.00000000  0.50000000  1
loop_
_geom_bond_atom_site_label_1
_geom_bond_atom_site_label_2
_geom_bond_distance
_geom_bond_site_symmetry_2
Mo0 O5 2.020868 1_555
Mo0 O3 2.020868 1_555
Mo0 O3 2.020868 1_545
Mo0 O5 2.020868 1_455
Mo0 O1 2.026534 1_555
Mo0 O0 2.026534 1_555
O0 V0 1.892972 1_555
O0 Sr0 2.858441 1_545
O0 Sr0 2.858441 1_455
O0 Sr0 2.858441 1_555
O0 Sr0 2.858441 1_445
O1 V0 1.892972 1_556
O1 Sr1 2.858441 1_555
O1 Sr1 2.858441 1_455
O1 Sr1 2.858441 1_445
O1 Sr1 2.858441 1_545
O2 V0 2.020868 1_555
O2 V0 2.020868 1_565
O2 Sr1 2.732599 1_554
O2 Sr1 2.732599 1_454
O2 Sr0 2.732599 1_455
O2 Sr0 2.732599 1_555
O3 Sr0 2.900168 1_455
O3 Sr0 2.900168 1_555
O3 Sr1 2.900168 1_455
O3 Sr1 2.900168 1_555
O4 V0 2.020868 1_555
O4 V0 2.020868 1_655
O4 Sr1 2.732599 1_554
O4 Sr1 2.732599 1_544
O4 Sr0 2.732599 1_555
O4 Sr0 2.732599 1_545
O5 Sr0 2.900168 1_545
O5 Sr0 2.900168 1_555
O5 Sr1 2.900168 1_545
O5 Sr1 2.900168 1_555
