# generated using pymatgen
data_Li9Mn2Co5O16
_symmetry_space_group_name_H-M   'P 1'
_cell_length_a   7.76837079
_cell_length_b   7.76837079
_cell_length_c   13.11723546
_cell_angle_alpha   87.00015503
_cell_angle_beta   87.00015503
_cell_angle_gamma   21.47142991
_symmetry_Int_Tables_number   1
_chemical_formula_structural   Li9Mn2Co5O16
_chemical_formula_sum   'Li9 Mn2 Co5 O16'
_cell_volume   289.34135072
_cell_formula_units_Z   1
loop_
 _symmetry_equiv_pos_site_id
 _symmetry_equiv_pos_as_xyz
  1  'x, y, z'
loop_
 _atom_site_type_symbol
 _atom_site_label
 _atom_site_symmetry_multiplicity
 _atom_site_fract_x
 _atom_site_fract_y
 _atom_site_fract_z
 _atom_site_occupancy
  Li  Li0  1  0.43296100  0.43296100  0.20202800  1
  Li  Li1  1  0.31128600  0.31128600  0.55296700  1
  Li  Li2  1  0.19138500  0.19138500  0.93386900  1
  Li  Li3  1  0.06137600  0.06137600  0.31810700  1
  Li  Li4  1  0.93711100  0.93711100  0.68181200  1
  Li  Li5  1  0.81388700  0.81388700  0.06947300  1
  Li  Li6  1  0.68919500  0.68919500  0.44149400  1
  Li  Li7  1  0.56076700  0.56076700  0.80293500  1
  Li  Li8  1  0.87756600  0.87756600  0.37906300  1
  Mn  Mn0  1  0.99772100  0.99772100  0.99988100  1
  Mn  Mn1  1  0.62820600  0.62820600  0.12934100  1
  Co  Co0  1  0.74757300  0.74757300  0.74586600  1
  Co  Co1  1  0.49463400  0.49463400  0.48942300  1
  Co  Co2  1  0.37366400  0.37366400  0.86710900  1
  Co  Co3  1  0.26025100  0.26025100  0.26882300  1
  Co  Co4  1  0.12185600  0.12185600  0.62245500  1
  O  O0  1  0.41279200  0.41279200  0.02608800  1
  O  O1  1  0.27675200  0.27675200  0.40168300  1
  O  O2  1  0.15965500  0.15965500  0.77661100  1
  O  O3  1  0.04492300  0.04492300  0.15927500  1
  O  O4  1  0.91553200  0.91553200  0.53030800  1
  O  O5  1  0.78663000  0.78663000  0.89900100  1
  O  O6  1  0.66471100  0.66471100  0.26602000  1
  O  O7  1  0.53690200  0.53690200  0.64917600  1
  O  O8  1  0.47300200  0.47300200  0.35518300  1
  O  O9  1  0.33562400  0.33562400  0.72106500  1
  O  O10  1  0.20834800  0.20834800  0.09233600  1
  O  O11  1  0.08590100  0.08590100  0.47516300  1
  O  O12  1  0.96162300  0.96162300  0.84196900  1
  O  O13  1  0.83950300  0.83950300  0.21985600  1
  O  O14  1  0.71223400  0.71223400  0.59799700  1
  O  O15  1  0.58643000  0.58643000  0.98362300  1
loop_
_geom_bond_atom_site_label_1
_geom_bond_atom_site_label_2
_geom_bond_distance
_geom_bond_site_symmetry_2
Li0 O13 2.036772 1_545
Li0 O13 2.036772 1_455
Li0 O8 2.130812 1_555
Li0 O3 2.286349 1_565
Li0 O3 2.286349 1_655
Li0 O0 2.344491 1_555
Li1 O1 2.080213 1_555
Li1 O14 2.152667 1_455
Li1 O14 2.152667 1_545
Li1 O4 2.159682 1_455
Li1 O4 2.159682 1_545
Li1 O9 2.255490 1_555
Li2 O5 2.084758 1_455
Li2 O5 2.084758 1_545
Li2 O10 2.108357 1_556
Li2 O2 2.143860 1_555
Li2 O15 2.230555 1_455
Li2 O15 2.230555 1_545
Li3 O8 2.020029 1_455
Li3 O8 2.020029 1_545
Li3 O3 2.111760 1_555
Li3 O11 2.113408 1_555
Li3 O6 2.221308 1_545
Li3 O6 2.221308 1_455
Li4 O4 2.031664 1_555
Li4 O7 2.127971 1_565
Li4 O7 2.127971 1_655
Li4 O12 2.153410 1_555
Li4 O9 2.161978 1_565
Li4 O9 2.161978 1_655
Li5 O13 2.031319 1_555
Li5 O0 2.146108 1_565
Li5 O0 2.146108 1_655
Li5 O10 2.174384 1_655
Li5 O10 2.174384 1_565
Li5 O5 2.296186 1_554
Li6 O1 2.019590 1_655
Li6 O1 2.019590 1_565
Li6 O14 2.101176 1_555
Li6 O11 2.168202 1_655
Li6 O11 2.168202 1_565
Li6 O6 2.351448 1_555
Li7 O7 2.068536 1_555
Li7 O2 2.106268 1_655
Li7 O2 2.106268 1_565
Li7 O12 2.136372 1_455
Li7 O12 2.136372 1_545
Li7 O15 2.422782 1_555
Li8 O8 2.065396 1_565
Li8 O8 2.065396 1_655
Li8 O4 2.096254 1_555
Li8 O1 2.121716 1_565
Li8 O1 2.121716 1_655
Li8 O13 2.197290 1_555
Mn0 O0 1.960986 1_566
Mn0 O0 1.960986 1_656
Mn0 O15 1.985554 1_565
Mn0 O15 1.985554 1_655
Mn0 O12 2.171588 1_555
Mn0 O3 2.247472 1_666
Mn1 O6 1.905587 1_555
Mn1 O10 1.939845 1_655
Mn1 O10 1.939845 1_565
Mn1 O3 1.952243 1_655
Mn1 O3 1.952243 1_565
Mn1 O15 2.046957 1_554
Co0 O9 1.989940 1_655
Co0 O9 1.989940 1_565
Co0 O2 2.000035 1_655
Co0 O2 2.000035 1_565
Co0 O14 2.040745 1_555
Co0 O5 2.125544 1_555
Co1 O8 1.808756 1_555
Co1 O4 1.941825 1_455
Co1 O4 1.941825 1_545
Co1 O11 2.010525 1_565
Co1 O11 2.010525 1_655
Co1 O7 2.225203 1_555
Co2 O12 1.989576 1_545
Co2 O12 1.989576 1_455
Co2 O5 1.993719 1_455
Co2 O5 1.993719 1_545
Co2 O9 2.031149 1_555
Co2 O0 2.199587 1_556
Co3 O1 1.774094 1_555
Co3 O13 1.971642 1_545
Co3 O13 1.971642 1_455
Co3 O6 2.056222 1_545
Co3 O6 2.056222 1_455
Co3 O10 2.486452 1_555
Co4 O7 1.962191 1_545
Co4 O7 1.962191 1_455
Co4 O14 2.013239 1_545
Co4 O14 2.013239 1_455
Co4 O11 2.036435 1_555
Co4 O2 2.132160 1_555
