# generated using pymatgen
data_Na2TiNiO4
_symmetry_space_group_name_H-M   'P 1'
_cell_length_a   3.04211389
_cell_length_b   5.66080066
_cell_length_c   10.29417433
_cell_angle_alpha   103.33453073
_cell_angle_beta   90.00097684
_cell_angle_gamma   90.00154666
_symmetry_Int_Tables_number   1
_chemical_formula_structural   Na2TiNiO4
_chemical_formula_sum   'Na4 Ti2 Ni2 O8'
_cell_volume   172.49462476
_cell_formula_units_Z   2
loop_
 _symmetry_equiv_pos_site_id
 _symmetry_equiv_pos_as_xyz
  1  'x, y, z'
loop_
 _atom_site_type_symbol
 _atom_site_label
 _atom_site_symmetry_multiplicity
 _atom_site_fract_x
 _atom_site_fract_y
 _atom_site_fract_z
 _atom_site_occupancy
  Na  Na0  1  0.00000000  0.99999700  0.99999200  1
  Na  Na1  1  0.00000000  0.50000300  0.50000800  1
  Na  Na2  1  0.50000000  0.25000000  0.25000000  1
  Na  Na3  1  0.50000000  0.75000000  0.75000000  1
  Ti  Ti0  1  0.50000000  0.49999900  0.99999500  1
  Ti  Ti1  1  0.50000000  0.00000100  0.50000500  1
  Ni  Ni0  1  0.00000000  0.25000000  0.75000000  1
  Ni  Ni1  1  0.00000000  0.75000000  0.25000000  1
  O  O0  1  0.50000600  0.82122500  0.12328200  1
  O  O1  1  0.50000600  0.32120700  0.62328400  1
  O  O2  1  0.49999400  0.67877500  0.37671800  1
  O  O3  1  0.49999400  0.17879300  0.87671600  1
  O  O4  1  0.99999800  0.09505500  0.39122700  1
  O  O5  1  0.99999900  0.59505800  0.89121900  1
  O  O6  1  0.00000200  0.40494500  0.10877300  1
  O  O7  1  0.00000100  0.90494200  0.60878100  1
loop_
_geom_bond_atom_site_label_1
_geom_bond_atom_site_label_2
_geom_bond_distance
_geom_bond_site_symmetry_2
Na0 O5 2.307460 1_455
Na0 O6 2.307526 1_566
Na0 O3 2.353898 1_565
Na0 O0 2.353914 1_456
Na0 O3 2.353929 1_465
Na0 O0 2.353945 1_556
Na1 O7 2.307460 1_555
Na1 O4 2.307526 1_455
Na1 O1 2.353898 1_455
Na1 O2 2.353914 1_555
Na1 O1 2.353929 1_555
Na1 O2 2.353945 1_455
Na2 O4 2.405139 1_555
Na2 O6 2.405139 1_555
Na2 O6 2.405148 1_655
Na2 O4 2.405148 1_455
Na2 O2 2.476384 1_555
Na2 O0 2.476384 1_545
Na3 O7 2.405076 1_555
Na3 O5 2.405076 1_555
Na3 O7 2.405081 1_655
Na3 O5 2.405081 1_455
Na3 O3 2.476466 1_565
Na3 O1 2.476466 1_555
Ni0 O3 2.102403 1_555
Ni0 O1 2.102403 1_455
Ni0 O3 2.102446 1_455
Ni0 O1 2.102446 1_555
Ni0 O5 2.149167 1_455
Ni0 O7 2.149167 1_545
Ni1 O2 2.102451 1_555
Ni1 O0 2.102451 1_455
Ni1 O2 2.102494 1_455
Ni1 O0 2.102494 1_555
Ni1 O4 2.149192 1_465
Ni1 O6 2.149192 1_555
O0 Ti0 1.962843 1_554
O1 Ti1 1.962720 1_555
O2 Ti1 1.962843 1_565
O3 Ti0 1.962720 1_555
O4 Ti1 2.033465 1_555
O4 Ti1 2.033467 1_655
O5 Ti0 2.033464 1_655
O5 Ti0 2.033466 1_555
O6 Ti0 2.033465 1_554
O6 Ti0 2.033467 1_454
O7 Ti1 2.033464 1_465
O7 Ti1 2.033466 1_565
