# generated using pymatgen
data_Fe3(BrO2)8
_symmetry_space_group_name_H-M   'P 1'
_cell_length_a   6.71271000
_cell_length_b   7.61764580
_cell_length_c   9.75085395
_cell_angle_alpha   88.60139375
_cell_angle_beta   108.98239806
_cell_angle_gamma   107.11798979
_symmetry_Int_Tables_number   1
_chemical_formula_structural   Fe3(BrO2)8
_chemical_formula_sum   'Fe3 Br8 O16'
_cell_volume   449.20233321
_cell_formula_units_Z   1
loop_
 _symmetry_equiv_pos_site_id
 _symmetry_equiv_pos_as_xyz
  1  'x, y, z'
loop_
 _atom_site_type_symbol
 _atom_site_label
 _atom_site_symmetry_multiplicity
 _atom_site_fract_x
 _atom_site_fract_y
 _atom_site_fract_z
 _atom_site_occupancy
  Fe  Fe0  1  0.50000000  0.00000000  0.50000000  1
  Fe  Fe1  1  0.50000000  0.50000000  0.00000000  1
  Fe  Fe2  1  0.00000000  0.00000000  0.00000000  1
  Br  Br0  1  0.08789400  0.70591700  0.59919300  1
  Br  Br1  1  0.36015300  0.32417000  0.28038200  1
  Br  Br2  1  0.91210600  0.29408300  0.40080700  1
  Br  Br3  1  0.63984700  0.67583000  0.71961800  1
  Br  Br4  1  0.94504200  0.33240000  0.83553200  1
  Br  Br5  1  0.58347700  0.87951000  0.17672500  1
  Br  Br6  1  0.05495800  0.66760000  0.16446800  1
  Br  Br7  1  0.41652300  0.12049000  0.82327500  1
  O  O0  1  0.45266400  0.62846600  0.81847300  1
  O  O1  1  0.10524100  0.16275000  0.18153700  1
  O  O2  1  0.54733600  0.37153400  0.18152700  1
  O  O3  1  0.89475900  0.83725000  0.81846300  1
  O  O4  1  0.73212700  0.91471300  0.03485800  1
  O  O5  1  0.80485200  0.52657800  0.02277700  1
  O  O6  1  0.26787300  0.08528700  0.96514200  1
  O  O7  1  0.19514800  0.47342200  0.97722300  1
  O  O8  1  0.60578200  0.14993500  0.67957700  1
  O  O9  1  0.95744000  0.64044500  0.30502900  1
  O  O10  1  0.39421800  0.85006500  0.32042300  1
  O  O11  1  0.04256000  0.35955500  0.69497100  1
  O  O12  1  0.19020900  0.33912200  0.47240800  1
  O  O13  1  0.20956200  0.91290600  0.53669700  1
  O  O14  1  0.80979100  0.66087800  0.52759200  1
  O  O15  1  0.79043800  0.08709400  0.46330300  1
loop_
_geom_bond_atom_site_label_1
_geom_bond_atom_site_label_2
_geom_bond_distance
_geom_bond_site_symmetry_2
Fe0 O8 1.919933 1_555
Fe0 O10 1.919933 1_545
Fe0 O13 2.012476 1_545
Fe0 O15 2.012476 1_555
Fe1 O5 1.934069 1_555
Fe1 O7 1.934069 1_554
Fe1 O0 1.980983 1_554
Fe1 O2 1.980983 1_555
Fe2 O6 1.862818 1_554
Fe2 O4 1.862818 1_445
Fe2 O3 1.986835 1_444
Fe2 O1 1.986835 1_555
Br0 O14 1.696151 1_455
Br0 O13 1.744527 1_555
Br1 O1 1.765019 1_555
Br1 O2 1.772627 1_555
Br2 O12 1.696151 1_655
Br2 O15 1.744527 1_555
Br3 O3 1.765019 1_555
Br3 O0 1.772627 1_555
Br4 O11 1.685214 1_655
Br4 O7 1.839365 1_655
Br4 O8 2.327576 1_555
Br4 Fe2 3.014351 1_656
Br5 O4 1.924461 1_555
Br5 O10 2.145367 1_555
Br6 O9 1.685214 1_455
Br6 O5 1.839365 1_455
Br6 O10 2.327576 1_555
Br6 Fe2 3.014351 1_565
Br7 O6 1.924461 1_555
Br7 O8 2.145367 1_555
