# generated using pymatgen
data_Sc6Ga16Rh7
_symmetry_space_group_name_H-M   'P 1'
_cell_length_a   8.82681536
_cell_length_b   8.82681536
_cell_length_c   8.82681536
_cell_angle_alpha   60.00000000
_cell_angle_beta   60.00000000
_cell_angle_gamma   60.00000000
_symmetry_Int_Tables_number   1
_chemical_formula_structural   Sc6Ga16Rh7
_chemical_formula_sum   'Sc6 Ga16 Rh7'
_cell_volume   486.29200438
_cell_formula_units_Z   1
loop_
 _symmetry_equiv_pos_site_id
 _symmetry_equiv_pos_as_xyz
  1  'x, y, z'
loop_
 _atom_site_type_symbol
 _atom_site_label
 _atom_site_symmetry_multiplicity
 _atom_site_fract_x
 _atom_site_fract_y
 _atom_site_fract_z
 _atom_site_occupancy
  Sc  Sc0  1  0.70875000  0.70875000  0.29125000  1
  Sc  Sc1  1  0.29125000  0.70875000  0.29125000  1
  Sc  Sc2  1  0.70875000  0.29125000  0.29125000  1
  Sc  Sc3  1  0.29125000  0.29125000  0.70875000  1
  Sc  Sc4  1  0.70875000  0.29125000  0.70875000  1
  Sc  Sc5  1  0.29125000  0.70875000  0.70875000  1
  Ga  Ga0  1  0.87858900  0.87858900  0.36423400  1
  Ga  Ga1  1  0.87858900  0.36423400  0.87858900  1
  Ga  Ga2  1  0.36423400  0.87858900  0.87858900  1
  Ga  Ga3  1  0.87858900  0.87858900  0.87858900  1
  Ga  Ga4  1  0.12141100  0.12141100  0.63576600  1
  Ga  Ga5  1  0.12141100  0.63576600  0.12141100  1
  Ga  Ga6  1  0.63576600  0.12141100  0.12141100  1
  Ga  Ga7  1  0.12141100  0.12141100  0.12141100  1
  Ga  Ga8  1  0.66025900  0.66025900  0.01922200  1
  Ga  Ga9  1  0.66025900  0.01922200  0.66025900  1
  Ga  Ga10  1  0.01922200  0.66025900  0.66025900  1
  Ga  Ga11  1  0.66025900  0.66025900  0.66025900  1
  Ga  Ga12  1  0.33974100  0.33974100  0.98077800  1
  Ga  Ga13  1  0.33974100  0.98077800  0.33974100  1
  Ga  Ga14  1  0.98077800  0.33974100  0.33974100  1
  Ga  Ga15  1  0.33974100  0.33974100  0.33974100  1
  Rh  Rh0  1  0.00000000  0.00000000  0.00000000  1
  Rh  Rh1  1  0.00000000  0.00000000  0.50000000  1
  Rh  Rh2  1  0.50000000  0.00000000  0.50000000  1
  Rh  Rh3  1  0.00000000  0.50000000  0.50000000  1
  Rh  Rh4  1  0.50000000  0.50000000  0.00000000  1
  Rh  Rh5  1  0.00000000  0.50000000  0.00000000  1
  Rh  Rh6  1  0.50000000  0.00000000  0.00000000  1
loop_
_geom_bond_atom_site_label_1
_geom_bond_atom_site_label_2
_geom_bond_distance
_geom_bond_site_symmetry_2
Ga0 Rh0 2.625058 1_665
Ga0 Rh1 2.729489 1_665
Ga0 Rh3 2.729496 1_655
Ga0 Rh2 2.729496 1_565
Ga0 Sc1 3.014755 1_655
Ga0 Sc2 3.014755 1_565
Ga0 Sc0 3.014762 1_555
Ga1 Rh0 2.625058 1_656
Ga1 Rh5 2.729489 1_656
Ga1 Rh3 2.729496 1_655
Ga1 Rh4 2.729496 1_556
Ga1 Sc3 3.014755 1_655
Ga1 Sc2 3.014755 1_556
Ga1 Sc4 3.014762 1_555
Ga2 Rh0 2.625058 1_566
Ga2 Rh6 2.729489 1_566
Ga2 Rh2 2.729496 1_565
Ga2 Rh4 2.729496 1_556
Ga2 Sc3 3.014755 1_565
Ga2 Sc1 3.014755 1_556
Ga2 Sc5 3.014762 1_555
Ga3 Rh0 2.625051 1_666
Ga3 Rh6 2.729496 1_566
Ga3 Rh5 2.729496 1_656
Ga3 Rh1 2.729496 1_665
Ga3 Sc4 3.014756 1_565
Ga3 Sc5 3.014756 1_655
Ga3 Sc0 3.014756 1_556
Ga4 Rh0 2.625058 1_556
Ga4 Rh1 2.729489 1_555
Ga4 Rh2 2.729496 1_555
Ga4 Rh3 2.729496 1_555
Ga4 Sc5 3.014755 1_545
Ga4 Sc4 3.014755 1_455
Ga4 Sc3 3.014762 1_555
Ga5 Rh0 2.625058 1_565
Ga5 Rh5 2.729489 1_555
Ga5 Rh3 2.729496 1_555
Ga5 Rh4 2.729496 1_555
Ga5 Sc0 3.014755 1_455
Ga5 Sc5 3.014755 1_554
Ga5 Sc1 3.014762 1_555
Ga6 Rh0 2.625058 1_655
Ga6 Rh6 2.729489 1_555
Ga6 Rh2 2.729496 1_555
Ga6 Rh4 2.729496 1_555
Ga6 Sc4 3.014755 1_554
Ga6 Sc0 3.014755 1_545
Ga6 Sc2 3.014762 1_555
Ga7 Rh0 2.625051 1_555
Ga7 Rh6 2.729496 1_555
Ga7 Rh5 2.729496 1_555
Ga7 Rh1 2.729496 1_555
Ga7 Sc1 3.014756 1_545
Ga7 Sc2 3.014756 1_455
Ga7 Sc3 3.014756 1_554
Ga8 Rh4 2.551840 1_555
Ga8 Rh6 2.551848 1_565
Ga8 Rh5 2.551848 1_655
Ga8 Sc2 2.893187 1_555
Ga8 Sc1 2.893187 1_555
Ga8 Sc0 2.893192 1_555
Ga9 Rh2 2.551840 1_555
Ga9 Rh6 2.551848 1_556
Ga9 Rh1 2.551848 1_655
Ga9 Sc2 2.893187 1_555
Ga9 Sc3 2.893187 1_555
Ga9 Sc4 2.893192 1_555
Ga10 Rh3 2.551840 1_555
Ga10 Rh1 2.551848 1_565
Ga10 Rh5 2.551848 1_556
Ga10 Sc1 2.893187 1_555
Ga10 Sc3 2.893187 1_555
Ga10 Sc5 2.893192 1_555
Ga11 Rh2 2.551846 1_565
Ga11 Rh4 2.551846 1_556
Ga11 Rh3 2.551846 1_655
Ga11 Sc5 2.893184 1_555
Ga11 Sc0 2.893184 1_555
Ga11 Sc4 2.893184 1_555
Ga12 Rh4 2.551840 1_556
Ga12 Rh5 2.551848 1_556
Ga12 Rh6 2.551848 1_556
Ga12 Sc4 2.893187 1_555
Ga12 Sc5 2.893187 1_555
Ga12 Sc3 2.893192 1_555
Ga13 Rh2 2.551840 1_565
Ga13 Rh6 2.551848 1_565
Ga13 Rh1 2.551848 1_565
Ga13 Sc5 2.893187 1_555
Ga13 Sc0 2.893187 1_555
Ga13 Sc1 2.893192 1_555
Ga14 Rh3 2.551840 1_655
Ga14 Rh1 2.551848 1_655
Ga14 Rh5 2.551848 1_655
Ga14 Sc0 2.893187 1_555
Ga14 Sc4 2.893187 1_555
Ga14 Sc2 2.893192 1_555
Ga15 Rh3 2.551846 1_555
Ga15 Rh2 2.551846 1_555
Ga15 Rh4 2.551846 1_555
Ga15 Sc3 2.893184 1_555
Ga15 Sc1 2.893184 1_555
Ga15 Sc2 2.893184 1_555
Rh1 Sc1 3.162946 1_545
Rh1 Sc2 3.162946 1_455
Rh1 Sc5 3.162946 1_545
Rh1 Sc4 3.162946 1_455
Rh2 Sc0 3.162946 1_545
Rh2 Sc3 3.162946 1_555
Rh2 Sc2 3.162946 1_555
Rh2 Sc5 3.162946 1_545
Rh3 Sc3 3.162946 1_555
Rh3 Sc0 3.162946 1_455
Rh3 Sc4 3.162946 1_455
Rh3 Sc1 3.162946 1_555
Rh4 Sc5 3.162946 1_554
Rh4 Sc2 3.162946 1_555
Rh4 Sc4 3.162946 1_554
Rh4 Sc1 3.162946 1_555
Rh5 Sc5 3.162946 1_554
Rh5 Sc0 3.162946 1_455
Rh5 Sc2 3.162946 1_455
Rh5 Sc3 3.162946 1_554
Rh6 Sc0 3.162946 1_545
Rh6 Sc1 3.162946 1_545
Rh6 Sc3 3.162946 1_554
Rh6 Sc4 3.162946 1_554
