# generated using pymatgen
data_Zr6CoBi2
_symmetry_space_group_name_H-M   'P 1'
_cell_length_a   7.32961558
_cell_length_b   15.82028330
_cell_length_c   15.82068584
_cell_angle_alpha   120.00323311
_cell_angle_beta   90.00000000
_cell_angle_gamma   90.00000000
_symmetry_Int_Tables_number   1
_chemical_formula_structural   Zr6CoBi2
_chemical_formula_sum   'Zr48 Co8 Bi16'
_cell_volume   1588.68297773
_cell_formula_units_Z   8
loop_
 _symmetry_equiv_pos_site_id
 _symmetry_equiv_pos_as_xyz
  1  'x, y, z'
loop_
 _atom_site_type_symbol
 _atom_site_label
 _atom_site_symmetry_multiplicity
 _atom_site_fract_x
 _atom_site_fract_y
 _atom_site_fract_z
 _atom_site_occupancy
  Zr  Zr0_0  1  0.25000000  0.38257612  0.38257097  1
  Zr  Zr0_1  1  0.25000000  0.38257612  0.88257096  1
  Zr  Zr0_2  1  0.25000000  0.88257612  0.38257097  1
  Zr  Zr0_3  1  0.25000000  0.88257612  0.88257096  1
  Zr  Zr0_4  1  0.75000000  0.38257612  0.38257097  1
  Zr  Zr0_5  1  0.75000000  0.38257612  0.88257096  1
  Zr  Zr0_6  1  0.75000000  0.88257612  0.38257097  1
  Zr  Zr0_7  1  0.75000000  0.88257612  0.88257096  1
  Zr  Zr1_0  1  0.25000000  0.00002070  0.11744346  1
  Zr  Zr1_1  1  0.25000000  0.00002070  0.61744347  1
  Zr  Zr1_2  1  0.25000000  0.50002070  0.11744347  1
  Zr  Zr1_3  1  0.25000000  0.50002070  0.61744346  1
  Zr  Zr1_4  1  0.75000000  0.00002070  0.11744346  1
  Zr  Zr1_5  1  0.75000000  0.00002070  0.61744347  1
  Zr  Zr1_6  1  0.75000000  0.50002070  0.11744347  1
  Zr  Zr1_7  1  0.75000000  0.50002070  0.61744346  1
  Zr  Zr2_0  1  0.25000000  0.11742933  0.00001755  1
  Zr  Zr2_1  1  0.25000000  0.11742934  0.50001754  1
  Zr  Zr2_2  1  0.25000000  0.61742933  0.00001755  1
  Zr  Zr2_3  1  0.25000000  0.61742933  0.50001754  1
  Zr  Zr2_4  1  0.75000000  0.11742933  0.00001755  1
  Zr  Zr2_5  1  0.75000000  0.11742934  0.50001754  1
  Zr  Zr2_6  1  0.75000000  0.61742933  0.00001755  1
  Zr  Zr2_7  1  0.75000000  0.61742933  0.50001754  1
  Zr  Zr3_0  1  0.00000000  0.19737049  0.19737264  1
  Zr  Zr3_1  1  0.00000000  0.19737049  0.69737264  1
  Zr  Zr3_2  1  0.00000000  0.69737049  0.19737264  1
  Zr  Zr3_3  1  0.00000000  0.69737049  0.69737264  1
  Zr  Zr3_4  1  0.50000000  0.19737049  0.19737264  1
  Zr  Zr3_5  1  0.50000000  0.19737049  0.69737264  1
  Zr  Zr3_6  1  0.50000000  0.69737049  0.19737264  1
  Zr  Zr3_7  1  0.50000000  0.69737049  0.69737264  1
  Zr  Zr4_0  1  0.00000000  0.00000118  0.30261049  1
  Zr  Zr4_1  1  0.00000000  0.00000119  0.80261049  1
  Zr  Zr4_2  1  0.00000000  0.50000119  0.30261049  1
  Zr  Zr4_3  1  0.00000000  0.50000118  0.80261049  1
  Zr  Zr4_4  1  0.50000000  0.00000118  0.30261049  1
  Zr  Zr4_5  1  0.50000000  0.00000119  0.80261049  1
  Zr  Zr4_6  1  0.50000000  0.50000119  0.30261049  1
  Zr  Zr4_7  1  0.50000000  0.50000118  0.80261049  1
  Zr  Zr5_0  1  0.00000000  0.30261547  0.00000365  1
  Zr  Zr5_1  1  0.00000000  0.30261547  0.50000365  1
  Zr  Zr5_2  1  0.00000000  0.80261547  0.00000365  1
  Zr  Zr5_3  1  0.00000000  0.80261547  0.50000365  1
  Zr  Zr5_4  1  0.50000000  0.30261547  0.00000365  1
  Zr  Zr5_5  1  0.50000000  0.30261547  0.50000365  1
  Zr  Zr5_6  1  0.50000000  0.80261547  0.00000365  1
  Zr  Zr5_7  1  0.50000000  0.80261547  0.50000365  1
  Co  Co0_0  1  0.00000000  0.49999297  0.49999200  1
  Co  Co0_1  1  0.00000000  0.49999297  0.99999200  1
  Co  Co0_2  1  0.00000000  0.99999297  0.49999200  1
  Co  Co0_3  1  0.00000000  0.99999297  0.99999200  1
  Co  Co0_4  1  0.50000000  0.49999297  0.49999200  1
  Co  Co0_5  1  0.50000000  0.49999297  0.99999200  1
  Co  Co0_6  1  0.50000000  0.99999297  0.49999200  1
  Co  Co0_7  1  0.50000000  0.99999297  0.99999200  1
  Bi  Bi0_0  1  0.25000000  0.33332196  0.16667119  1
  Bi  Bi0_1  1  0.25000000  0.33332197  0.66667120  1
  Bi  Bi0_2  1  0.25000000  0.83332196  0.16667120  1
  Bi  Bi0_3  1  0.25000000  0.83332196  0.66667120  1
  Bi  Bi0_4  1  0.75000000  0.33332196  0.16667119  1
  Bi  Bi0_5  1  0.75000000  0.33332197  0.66667120  1
  Bi  Bi0_6  1  0.75000000  0.83332196  0.16667120  1
  Bi  Bi0_7  1  0.75000000  0.83332196  0.66667120  1
  Bi  Bi1_0  1  0.25000000  0.16667176  0.33331856  1
  Bi  Bi1_1  1  0.25000000  0.16667176  0.83331856  1
  Bi  Bi1_2  1  0.25000000  0.66667176  0.33331856  1
  Bi  Bi1_3  1  0.25000000  0.66667176  0.83331856  1
  Bi  Bi1_4  1  0.75000000  0.16667176  0.33331856  1
  Bi  Bi1_5  1  0.75000000  0.16667176  0.83331856  1
  Bi  Bi1_6  1  0.75000000  0.66667176  0.33331856  1
  Bi  Bi1_7  1  0.75000000  0.66667176  0.83331856  1
loop_
_geom_bond_atom_site_label_1
_geom_bond_atom_site_label_2
_geom_bond_distance
_geom_bond_site_symmetry_2
Zr0_0 Zr4_2 3.280140 1_555
Zr0_0 Zr4_6 3.280140 1_555
Zr0_0 Zr5_1 3.280248 1_555
Zr0_0 Zr5_5 3.280248 1_555
Zr0_0 Zr3_4 3.455673 1_555
Zr0_0 Zr3_0 3.455673 1_555
Zr0_1 Zr4_3 3.280140 1_555
Zr0_1 Zr4_7 3.280140 1_555
Zr0_1 Zr5_4 3.280248 1_556
Zr0_1 Zr5_0 3.280248 1_556
Zr0_1 Zr3_1 3.455673 1_555
Zr0_1 Zr3_5 3.455673 1_555
Zr0_2 Zr4_0 3.280140 1_565
Zr0_2 Zr4_4 3.280140 1_565
Zr0_2 Zr5_3 3.280248 1_555
Zr0_2 Zr5_7 3.280248 1_555
Zr0_2 Zr3_2 3.455673 1_555
Zr0_2 Zr3_6 3.455673 1_555
Zr0_3 Zr4_1 3.280140 1_565
Zr0_3 Zr4_5 3.280140 1_565
Zr0_3 Zr5_2 3.280248 1_556
Zr0_3 Zr5_6 3.280248 1_556
Zr0_3 Zr3_3 3.455673 1_555
Zr0_3 Zr3_7 3.455673 1_555
Zr0_4 Zr4_6 3.280140 1_555
Zr0_4 Zr4_2 3.280140 1_655
Zr0_4 Zr5_5 3.280248 1_555
Zr0_4 Zr5_1 3.280248 1_655
Zr0_4 Zr3_4 3.455673 1_555
Zr0_4 Zr3_0 3.455673 1_655
Zr0_5 Zr4_7 3.280140 1_555
Zr0_5 Zr4_3 3.280140 1_655
Zr0_5 Zr5_4 3.280248 1_556
Zr0_5 Zr5_0 3.280248 1_656
Zr0_5 Zr3_5 3.455673 1_555
Zr0_5 Zr3_1 3.455673 1_655
Zr0_6 Zr4_4 3.280140 1_565
Zr0_6 Zr4_0 3.280140 1_665
Zr0_6 Zr5_7 3.280248 1_555
Zr0_6 Zr5_3 3.280248 1_655
Zr0_6 Zr3_6 3.455673 1_555
Zr0_6 Zr3_2 3.455673 1_655
Zr0_7 Zr4_5 3.280140 1_565
Zr0_7 Zr4_1 3.280140 1_665
Zr0_7 Zr5_6 3.280248 1_556
Zr0_7 Zr5_2 3.280248 1_656
Zr0_7 Zr3_7 3.455673 1_555
Zr0_7 Zr3_3 3.455673 1_655
Zr1_0 Zr3_4 3.279637 1_555
Zr1_0 Zr3_0 3.279637 1_555
Zr1_0 Zr5_2 3.280231 1_545
Zr1_0 Zr5_6 3.280231 1_545
Zr1_0 Zr4_0 3.455488 1_555
Zr1_0 Zr4_4 3.455488 1_555
Zr1_1 Zr3_1 3.279637 1_555
Zr1_1 Zr3_5 3.279637 1_555
Zr1_1 Zr5_3 3.280231 1_545
Zr1_1 Zr5_7 3.280231 1_545
Zr1_1 Zr4_1 3.455488 1_555
Zr1_1 Zr4_5 3.455488 1_555
Zr1_2 Zr3_6 3.279637 1_555
Zr1_2 Zr3_2 3.279637 1_555
Zr1_2 Zr5_0 3.280231 1_555
Zr1_2 Zr5_4 3.280231 1_555
Zr1_2 Zr4_2 3.455488 1_555
Zr1_2 Zr4_6 3.455488 1_555
Zr1_3 Zr3_7 3.279637 1_555
Zr1_3 Zr3_3 3.279637 1_555
Zr1_3 Zr5_1 3.280231 1_555
Zr1_3 Zr5_5 3.280231 1_555
Zr1_3 Zr4_7 3.455488 1_555
Zr1_3 Zr4_3 3.455488 1_555
Zr1_4 Zr3_4 3.279637 1_555
Zr1_4 Zr3_0 3.279637 1_655
Zr1_4 Zr5_6 3.280231 1_545
Zr1_4 Zr5_2 3.280231 1_645
Zr1_4 Zr4_4 3.455488 1_555
Zr1_4 Zr4_0 3.455488 1_655
Zr1_5 Zr3_5 3.279637 1_555
Zr1_5 Zr3_1 3.279637 1_655
Zr1_5 Zr5_7 3.280231 1_545
Zr1_5 Zr5_3 3.280231 1_645
Zr1_5 Zr4_5 3.455488 1_555
Zr1_5 Zr4_1 3.455488 1_655
Zr1_6 Zr3_6 3.279637 1_555
Zr1_6 Zr3_2 3.279637 1_655
Zr1_6 Zr5_4 3.280231 1_555
Zr1_6 Zr5_0 3.280231 1_655
Zr1_6 Zr4_6 3.455488 1_555
Zr1_6 Zr4_2 3.455488 1_655
Zr1_7 Zr3_7 3.279637 1_555
Zr1_7 Zr3_3 3.279637 1_655
Zr1_7 Zr5_5 3.280231 1_555
Zr1_7 Zr5_1 3.280231 1_655
Zr1_7 Zr4_7 3.455488 1_555
Zr1_7 Zr4_3 3.455488 1_655
Zr2_0 Zr3_0 3.279747 1_555
Zr2_0 Zr3_4 3.279747 1_555
Zr2_0 Zr4_1 3.280282 1_554
Zr2_0 Zr4_5 3.280282 1_554
Zr2_0 Zr5_4 3.455644 1_555
Zr2_0 Zr5_0 3.455644 1_555
Zr2_1 Zr3_1 3.279747 1_555
Zr2_1 Zr3_5 3.279747 1_555
Zr2_1 Zr4_0 3.280282 1_555
Zr2_1 Zr4_4 3.280282 1_555
Zr2_1 Zr5_1 3.455644 1_555
Zr2_1 Zr5_5 3.455644 1_555
Zr2_2 Zr3_2 3.279747 1_555
Zr2_2 Zr3_6 3.279747 1_555
Zr2_2 Zr4_7 3.280282 1_554
Zr2_2 Zr4_3 3.280282 1_554
Zr2_2 Zr5_2 3.455644 1_555
Zr2_2 Zr5_6 3.455644 1_555
Zr2_3 Zr3_3 3.279747 1_555
Zr2_3 Zr3_7 3.279747 1_555
Zr2_3 Zr4_6 3.280282 1_555
Zr2_3 Zr4_2 3.280282 1_555
Zr2_3 Zr5_3 3.455644 1_555
Zr2_3 Zr5_7 3.455644 1_555
Zr2_4 Zr3_4 3.279747 1_555
Zr2_4 Zr3_0 3.279747 1_655
Zr2_4 Zr4_5 3.280282 1_554
Zr2_4 Zr4_1 3.280282 1_654
Zr2_4 Zr5_4 3.455644 1_555
Zr2_4 Zr5_0 3.455644 1_655
Zr2_5 Zr3_5 3.279747 1_555
Zr2_5 Zr3_1 3.279747 1_655
Zr2_5 Zr4_4 3.280282 1_555
Zr2_5 Zr4_0 3.280282 1_655
Zr2_5 Zr5_5 3.455644 1_555
Zr2_5 Zr5_1 3.455644 1_655
Zr2_6 Zr3_6 3.279747 1_555
Zr2_6 Zr3_2 3.279747 1_655
Zr2_6 Zr4_7 3.280282 1_554
Zr2_6 Zr4_3 3.280282 1_654
Zr2_6 Zr5_6 3.455644 1_555
Zr2_6 Zr5_2 3.455644 1_655
Zr2_7 Zr3_7 3.279747 1_555
Zr2_7 Zr3_3 3.279747 1_655
Zr2_7 Zr4_6 3.280282 1_555
Zr2_7 Zr4_2 3.280282 1_655
Zr2_7 Zr5_7 3.455644 1_555
Zr2_7 Zr5_3 3.455644 1_655
Zr3_0 Zr3_4 3.664808 1_455
Zr3_0 Zr3_4 3.664808 1_555
Zr3_1 Zr3_5 3.664808 1_455
Zr3_1 Zr3_5 3.664808 1_555
Zr3_2 Zr3_6 3.664808 1_455
Zr3_2 Zr3_6 3.664808 1_555
Zr3_3 Zr3_7 3.664808 1_555
Zr3_3 Zr3_7 3.664808 1_455
Zr4_0 Zr4_4 3.664808 1_555
Zr4_0 Zr4_4 3.664808 1_455
Zr4_1 Zr4_5 3.664808 1_455
Zr4_1 Zr4_5 3.664808 1_555
Zr4_2 Zr4_6 3.664808 1_555
Zr4_2 Zr4_6 3.664808 1_455
Zr4_3 Zr4_7 3.664808 1_555
Zr4_3 Zr4_7 3.664808 1_455
Zr5_0 Zr5_4 3.664808 1_455
Zr5_0 Zr5_4 3.664808 1_555
Zr5_1 Zr5_5 3.664808 1_455
Zr5_1 Zr5_5 3.664808 1_555
Zr5_2 Zr5_6 3.664808 1_555
Zr5_2 Zr5_6 3.664808 1_455
Zr5_3 Zr5_7 3.664808 1_455
Zr5_3 Zr5_7 3.664808 1_555
Co0_0 Zr0_0 2.609240 1_555
Co0_0 Zr0_4 2.609240 1_455
Co0_0 Zr2_3 2.609341 1_555
Co0_0 Zr2_7 2.609341 1_455
Co0_0 Zr1_3 2.609532 1_555
Co0_0 Zr1_7 2.609532 1_455
Co0_0 Zr3_3 3.122480 1_555
Co0_0 Zr5_1 3.122660 1_555
Co0_0 Zr4_2 3.122776 1_555
Co0_1 Zr0_1 2.609240 1_555
Co0_1 Zr0_5 2.609240 1_455
Co0_1 Zr2_2 2.609341 1_556
Co0_1 Zr2_6 2.609341 1_456
Co0_1 Zr1_2 2.609532 1_556
Co0_1 Zr1_6 2.609532 1_456
Co0_1 Zr3_2 3.122480 1_556
Co0_1 Zr5_0 3.122660 1_556
Co0_1 Zr4_3 3.122776 1_555
Co0_2 Zr0_2 2.609240 1_555
Co0_2 Zr0_6 2.609240 1_455
Co0_2 Zr2_1 2.609341 1_565
Co0_2 Zr2_5 2.609341 1_465
Co0_2 Zr1_1 2.609532 1_565
Co0_2 Zr1_5 2.609532 1_465
Co0_2 Zr3_1 3.122480 1_565
Co0_2 Zr5_3 3.122660 1_555
Co0_2 Zr4_0 3.122776 1_565
Co0_3 Zr0_3 2.609240 1_555
Co0_3 Zr0_7 2.609240 1_455
Co0_3 Zr2_0 2.609341 1_566
Co0_3 Zr2_4 2.609341 1_466
Co0_3 Zr1_0 2.609532 1_566
Co0_3 Zr1_4 2.609532 1_466
Co0_3 Zr3_0 3.122480 1_566
Co0_3 Zr5_2 3.122660 1_556
Co0_3 Zr4_1 3.122776 1_565
Co0_4 Zr0_4 2.609240 1_555
Co0_4 Zr0_0 2.609240 1_555
Co0_4 Zr2_7 2.609341 1_555
Co0_4 Zr2_3 2.609341 1_555
Co0_4 Zr1_7 2.609532 1_555
Co0_4 Zr1_3 2.609532 1_555
Co0_4 Zr3_7 3.122480 1_555
Co0_4 Zr5_5 3.122660 1_555
Co0_4 Zr4_6 3.122776 1_555
Co0_5 Zr0_5 2.609240 1_555
Co0_5 Zr0_1 2.609240 1_555
Co0_5 Zr2_6 2.609341 1_556
Co0_5 Zr2_2 2.609341 1_556
Co0_5 Zr1_6 2.609532 1_556
Co0_5 Zr1_2 2.609532 1_556
Co0_5 Zr3_6 3.122480 1_556
Co0_5 Zr5_4 3.122660 1_556
Co0_5 Zr4_7 3.122776 1_555
Co0_6 Zr0_6 2.609240 1_555
Co0_6 Zr0_2 2.609240 1_555
Co0_6 Zr2_5 2.609341 1_565
Co0_6 Zr2_1 2.609341 1_565
Co0_6 Zr1_5 2.609532 1_565
Co0_6 Zr1_1 2.609532 1_565
Co0_6 Zr3_5 3.122480 1_565
Co0_6 Zr5_7 3.122660 1_555
Co0_6 Zr4_4 3.122776 1_565
Co0_7 Zr0_7 2.609240 1_555
Co0_7 Zr0_3 2.609240 1_555
Co0_7 Zr2_4 2.609341 1_566
Co0_7 Zr2_0 2.609341 1_566
Co0_7 Zr1_4 2.609532 1_566
Co0_7 Zr1_0 2.609532 1_566
Co0_7 Zr3_4 3.122480 1_566
Co0_7 Zr5_6 3.122660 1_556
Co0_7 Zr4_5 3.122776 1_565
Bi0_0 Zr3_0 3.043732 1_555
Bi0_0 Zr3_4 3.043732 1_555
Bi0_0 Zr4_2 3.043794 1_555
Bi0_0 Zr4_6 3.043794 1_555
Bi0_0 Zr5_0 3.043902 1_555
Bi0_0 Zr5_4 3.043902 1_555
Bi0_0 Zr2_0 3.100160 1_555
Bi0_0 Zr0_0 3.100363 1_555
Bi0_0 Zr1_2 3.100904 1_555
Bi0_1 Zr3_1 3.043732 1_555
Bi0_1 Zr3_5 3.043732 1_555
Bi0_1 Zr4_3 3.043794 1_555
Bi0_1 Zr4_7 3.043794 1_555
Bi0_1 Zr5_1 3.043902 1_555
Bi0_1 Zr5_5 3.043902 1_555
Bi0_1 Zr2_1 3.100160 1_555
Bi0_1 Zr0_1 3.100363 1_555
Bi0_1 Zr1_3 3.100904 1_555
Bi0_2 Zr3_2 3.043732 1_555
Bi0_2 Zr3_6 3.043732 1_555
Bi0_2 Zr4_4 3.043794 1_565
Bi0_2 Zr4_0 3.043794 1_565
Bi0_2 Zr5_6 3.043902 1_555
Bi0_2 Zr5_2 3.043902 1_555
Bi0_2 Zr2_2 3.100160 1_555
Bi0_2 Zr0_2 3.100363 1_555
Bi0_2 Zr1_0 3.100904 1_565
Bi0_3 Zr3_3 3.043732 1_555
Bi0_3 Zr3_7 3.043732 1_555
Bi0_3 Zr4_5 3.043794 1_565
Bi0_3 Zr4_1 3.043794 1_565
Bi0_3 Zr5_3 3.043902 1_555
Bi0_3 Zr5_7 3.043902 1_555
Bi0_3 Zr2_3 3.100160 1_555
Bi0_3 Zr0_3 3.100363 1_555
Bi0_3 Zr1_1 3.100904 1_565
Bi0_4 Zr3_4 3.043732 1_555
Bi0_4 Zr3_0 3.043732 1_655
Bi0_4 Zr4_6 3.043794 1_555
Bi0_4 Zr4_2 3.043794 1_655
Bi0_4 Zr5_4 3.043902 1_555
Bi0_4 Zr5_0 3.043902 1_655
Bi0_4 Zr2_4 3.100160 1_555
Bi0_4 Zr0_4 3.100363 1_555
Bi0_4 Zr1_6 3.100904 1_555
Bi0_5 Zr3_5 3.043732 1_555
Bi0_5 Zr3_1 3.043732 1_655
Bi0_5 Zr4_7 3.043794 1_555
Bi0_5 Zr4_3 3.043794 1_655
Bi0_5 Zr5_5 3.043902 1_555
Bi0_5 Zr5_1 3.043902 1_655
Bi0_5 Zr2_5 3.100160 1_555
Bi0_5 Zr0_5 3.100363 1_555
Bi0_5 Zr1_7 3.100904 1_555
Bi0_6 Zr3_6 3.043732 1_555
Bi0_6 Zr3_2 3.043732 1_655
Bi0_6 Zr4_4 3.043794 1_565
Bi0_6 Zr4_0 3.043794 1_665
Bi0_6 Zr5_6 3.043902 1_555
Bi0_6 Zr5_2 3.043902 1_655
Bi0_6 Zr2_6 3.100160 1_555
Bi0_6 Zr0_6 3.100363 1_555
Bi0_6 Zr1_4 3.100904 1_565
Bi0_7 Zr3_7 3.043732 1_555
Bi0_7 Zr3_3 3.043732 1_655
Bi0_7 Zr4_5 3.043794 1_565
Bi0_7 Zr4_1 3.043794 1_665
Bi0_7 Zr5_7 3.043902 1_555
Bi0_7 Zr5_3 3.043902 1_655
Bi0_7 Zr2_7 3.100160 1_555
Bi0_7 Zr0_7 3.100363 1_555
Bi0_7 Zr1_5 3.100904 1_565
Bi1_0 Zr3_4 3.043678 1_555
Bi1_0 Zr3_0 3.043678 1_555
Bi1_0 Zr4_0 3.043876 1_555
Bi1_0 Zr4_4 3.043876 1_555
Bi1_0 Zr5_1 3.043880 1_555
Bi1_0 Zr5_5 3.043880 1_555
Bi1_0 Zr1_0 3.099999 1_555
Bi1_0 Zr0_0 3.100352 1_555
Bi1_0 Zr2_1 3.101117 1_555
Bi1_1 Zr3_1 3.043678 1_555
Bi1_1 Zr3_5 3.043678 1_555
Bi1_1 Zr4_5 3.043876 1_555
Bi1_1 Zr4_1 3.043876 1_555
Bi1_1 Zr5_0 3.043880 1_556
Bi1_1 Zr5_4 3.043880 1_556
Bi1_1 Zr1_1 3.099999 1_555
Bi1_1 Zr0_1 3.100352 1_555
Bi1_1 Zr2_0 3.101117 1_556
Bi1_2 Zr3_2 3.043678 1_555
Bi1_2 Zr3_6 3.043678 1_555
Bi1_2 Zr4_2 3.043876 1_555
Bi1_2 Zr4_6 3.043876 1_555
Bi1_2 Zr5_3 3.043880 1_555
Bi1_2 Zr5_7 3.043880 1_555
Bi1_2 Zr1_2 3.099999 1_555
Bi1_2 Zr0_2 3.100352 1_555
Bi1_2 Zr2_3 3.101117 1_555
Bi1_3 Zr3_7 3.043678 1_555
Bi1_3 Zr3_3 3.043678 1_555
Bi1_3 Zr4_7 3.043876 1_555
Bi1_3 Zr4_3 3.043876 1_555
Bi1_3 Zr5_6 3.043880 1_556
Bi1_3 Zr5_2 3.043880 1_556
Bi1_3 Zr1_3 3.099999 1_555
Bi1_3 Zr0_3 3.100352 1_555
Bi1_3 Zr2_2 3.101117 1_556
Bi1_4 Zr3_4 3.043678 1_555
Bi1_4 Zr3_0 3.043678 1_655
Bi1_4 Zr4_4 3.043876 1_555
Bi1_4 Zr4_0 3.043876 1_655
Bi1_4 Zr5_5 3.043880 1_555
Bi1_4 Zr5_1 3.043880 1_655
Bi1_4 Zr1_4 3.099999 1_555
Bi1_4 Zr0_4 3.100352 1_555
Bi1_4 Zr2_5 3.101117 1_555
Bi1_5 Zr3_5 3.043678 1_555
Bi1_5 Zr3_1 3.043678 1_655
Bi1_5 Zr4_5 3.043876 1_555
Bi1_5 Zr4_1 3.043876 1_655
Bi1_5 Zr5_4 3.043880 1_556
Bi1_5 Zr5_0 3.043880 1_656
Bi1_5 Zr1_5 3.099999 1_555
Bi1_5 Zr0_5 3.100352 1_555
Bi1_5 Zr2_4 3.101117 1_556
Bi1_6 Zr3_6 3.043678 1_555
Bi1_6 Zr3_2 3.043678 1_655
Bi1_6 Zr4_6 3.043876 1_555
Bi1_6 Zr4_2 3.043876 1_655
Bi1_6 Zr5_7 3.043880 1_555
Bi1_6 Zr5_3 3.043880 1_655
Bi1_6 Zr1_6 3.099999 1_555
Bi1_6 Zr0_6 3.100352 1_555
Bi1_6 Zr2_7 3.101117 1_555
Bi1_7 Zr3_7 3.043678 1_555
Bi1_7 Zr3_3 3.043678 1_655
Bi1_7 Zr4_7 3.043876 1_555
Bi1_7 Zr4_3 3.043876 1_655
Bi1_7 Zr5_6 3.043880 1_556
Bi1_7 Zr5_2 3.043880 1_656
Bi1_7 Zr1_7 3.099999 1_555
Bi1_7 Zr0_7 3.100352 1_555
Bi1_7 Zr2_6 3.101117 1_556
