# generated using pymatgen
data_Mg4SnN4
_symmetry_space_group_name_H-M   'P 1'
_cell_length_a   5.58912023
_cell_length_b   5.63278456
_cell_length_c   8.47409726
_cell_angle_alpha   70.13920880
_cell_angle_beta   82.90909643
_cell_angle_gamma   68.41674662
_symmetry_Int_Tables_number   1
_chemical_formula_structural   Mg4SnN4
_chemical_formula_sum   'Mg8 Sn2 N8'
_cell_volume   233.32248316
_cell_formula_units_Z   2
loop_
 _symmetry_equiv_pos_site_id
 _symmetry_equiv_pos_as_xyz
  1  'x, y, z'
loop_
 _atom_site_type_symbol
 _atom_site_label
 _atom_site_symmetry_multiplicity
 _atom_site_fract_x
 _atom_site_fract_y
 _atom_site_fract_z
 _atom_site_occupancy
  Mg  Mg0  1  0.72352200  0.61468800  0.21775900  1
  Mg  Mg1  1  0.27647700  0.38531200  0.78224100  1
  Mg  Mg2  1  0.75213900  0.24496100  0.99892400  1
  Mg  Mg3  1  0.24786100  0.75503900  0.00107600  1
  Mg  Mg4  1  0.73619300  0.48674900  0.57333400  1
  Mg  Mg5  1  0.26380700  0.51325100  0.42666600  1
  Mg  Mg6  1  0.25976000  0.92912600  0.58022300  1
  Mg  Mg7  1  0.74024000  0.07087400  0.41977700  1
  Sn  Sn0  1  0.72934400  0.83363000  0.78371200  1
  Sn  Sn1  1  0.27065600  0.16637000  0.21628800  1
  N  N0  1  0.99627000  0.69712100  0.60218400  1
  N  N1  1  0.00373000  0.30287900  0.39781600  1
  N  N2  1  0.84642200  0.84142700  0.99963100  1
  N  N3  1  0.15357800  0.15857300  0.00036900  1
  N  N4  1  0.49569600  0.60566700  0.80401600  1
  N  N5  1  0.50430400  0.39433300  0.19598400  1
  N  N6  1  0.49002000  0.80169700  0.38462600  1
  N  N7  1  0.50998000  0.19830300  0.61537400  1
loop_
_geom_bond_atom_site_label_1
_geom_bond_atom_site_label_2
_geom_bond_distance
_geom_bond_site_symmetry_2
Mg0 N2 2.060972 1_554
Mg0 N6 2.087446 1_555
Mg0 N5 2.099081 1_555
Mg0 N1 2.147328 1_655
Mg1 N3 2.060969 1_556
Mg1 N7 2.087448 1_555
Mg1 N4 2.099086 1_555
Mg1 N0 2.147325 1_455
Mg2 N3 2.114375 1_656
Mg2 N2 2.134162 1_545
Mg2 N5 2.222923 1_556
Mg2 N4 2.252168 1_555
Mg3 N2 2.114375 1_454
Mg3 N3 2.134162 1_565
Mg3 N4 2.222923 1_554
Mg3 N5 2.252168 1_555
Mg4 N6 2.101744 1_555
Mg4 N1 2.208858 1_655
Mg4 N0 2.264670 1_555
Mg4 N7 2.317776 1_555
Mg4 N4 2.378103 1_555
Mg5 N7 2.101744 1_555
Mg5 N0 2.208858 1_455
Mg5 N1 2.264670 1_555
Mg5 N6 2.317776 1_555
Mg5 N5 2.378103 1_555
Mg6 N6 2.126245 1_555
Mg6 N1 2.233326 1_565
Mg6 N0 2.257036 1_455
Mg6 N4 2.270913 1_555
Mg6 N7 2.512611 1_565
Mg7 N7 2.126245 1_555
Mg7 N0 2.233326 1_545
Mg7 N1 2.257036 1_655
Mg7 N5 2.270913 1_555
Mg7 N6 2.512611 1_545
N0 Sn0 2.139258 1_555
N1 Sn1 2.139258 1_555
N2 Sn0 2.036991 1_555
N3 Sn1 2.036991 1_555
N4 Sn0 2.100439 1_555
N5 Sn1 2.100439 1_555
N6 Sn1 2.084589 1_565
N7 Sn0 2.084589 1_545
