# generated using pymatgen
data_Mg15Cr
_symmetry_space_group_name_H-M   'P 1'
_cell_length_a   6.35024569
_cell_length_b   6.35024569
_cell_length_c   10.21471000
_cell_angle_alpha   90.00000000
_cell_angle_beta   90.00000000
_cell_angle_gamma   119.99999679
_symmetry_Int_Tables_number   1
_chemical_formula_structural   Mg15Cr
_chemical_formula_sum   'Mg15 Cr1'
_cell_volume   356.72844778
_cell_formula_units_Z   1
loop_
 _symmetry_equiv_pos_site_id
 _symmetry_equiv_pos_as_xyz
  1  'x, y, z'
loop_
 _atom_site_type_symbol
 _atom_site_label
 _atom_site_symmetry_multiplicity
 _atom_site_fract_x
 _atom_site_fract_y
 _atom_site_fract_z
 _atom_site_occupancy
  Mg  Mg0  1  0.00000000  0.00000000  0.00000000  1
  Mg  Mg1  1  0.00040800  0.50020400  0.50000000  1
  Mg  Mg2  1  0.00020500  0.50010200  0.00000000  1
  Mg  Mg3  1  0.49979600  0.50020400  0.50000000  1
  Mg  Mg4  1  0.49989800  0.50010200  0.00000000  1
  Mg  Mg5  1  0.49979600  0.99959200  0.50000000  1
  Mg  Mg6  1  0.49989800  0.99979500  0.00000000  1
  Mg  Mg7  1  0.16482500  0.32965000  0.25263000  1
  Mg  Mg8  1  0.16482500  0.32965000  0.74737000  1
  Mg  Mg9  1  0.16482500  0.83517500  0.25263000  1
  Mg  Mg10  1  0.16482500  0.83517500  0.74737000  1
  Mg  Mg11  1  0.67035000  0.83517500  0.25263000  1
  Mg  Mg12  1  0.67035000  0.83517500  0.74737000  1
  Mg  Mg13  1  0.66666700  0.33333300  0.24901700  1
  Mg  Mg14  1  0.66666700  0.33333300  0.75098300  1
  Cr  Cr0  1  0.00000000  0.00000000  0.50000000  1
loop_
_geom_bond_atom_site_label_1
_geom_bond_atom_site_label_2
_geom_bond_distance
_geom_bond_site_symmetry_2
Mg0 Mg10 3.153698 1_544
Mg0 Mg9 3.153698 1_545
Mg0 Mg8 3.153698 1_554
Mg0 Mg12 3.153698 1_444
Mg0 Mg7 3.153698 1_555
Mg0 Mg11 3.153698 1_445
Mg0 Mg2 3.175120 1_555
Mg0 Mg6 3.175120 1_445
Mg0 Mg4 3.175123 1_555
Mg0 Mg4 3.175123 1_445
Mg0 Mg6 3.175126 1_545
Mg0 Mg2 3.175126 1_545
Mg1 Mg7 3.127096 1_555
Mg1 Mg8 3.127096 1_555
Mg1 Mg9 3.127096 1_555
Mg1 Mg10 3.127096 1_555
Mg1 Mg14 3.152990 1_455
Mg1 Mg13 3.152990 1_455
Mg1 Mg3 3.171236 1_555
Mg1 Mg5 3.171237 1_555
Mg1 Mg3 3.179009 1_455
Mg1 Mg5 3.179009 1_445
Mg2 Mg8 3.170987 1_554
Mg2 Mg7 3.170987 1_555
Mg2 Mg9 3.170990 1_555
Mg2 Mg4 3.173173 1_555
Mg2 Mg6 3.173173 1_555
Mg2 Mg4 3.177072 1_455
Mg2 Mg6 3.177073 1_445
Mg3 Mg7 3.127096 1_555
Mg3 Mg8 3.127096 1_555
Mg3 Mg5 3.171236 1_555
Mg3 Mg5 3.179009 1_545
Mg4 Mg8 3.170990 1_554
Mg4 Mg7 3.170990 1_555
Mg4 Mg6 3.173173 1_555
Mg4 Mg6 3.177072 1_545
Mg5 Mg9 3.127096 1_555
Mg6 Mg9 3.170990 1_555
Mg7 Mg9 3.140038 1_545
Mg7 Mg9 3.210208 1_555
Mg10 Mg5 3.127096 1_555
Mg10 Mg8 3.140038 1_565
Mg10 Mg12 3.140038 1_455
Mg10 Mg6 3.170990 1_556
Mg10 Mg2 3.170990 1_556
Mg10 Mg14 3.175402 1_455
Mg10 Mg14 3.175402 1_565
Mg10 Mg12 3.210208 1_555
Mg10 Mg8 3.210208 1_555
Mg11 Mg5 3.127096 1_555
Mg11 Mg3 3.127096 1_555
Mg11 Mg9 3.140038 1_655
Mg11 Mg7 3.140038 1_665
Mg11 Mg6 3.170987 1_555
Mg11 Mg4 3.170990 1_555
Mg11 Mg13 3.175399 1_565
Mg11 Mg13 3.175405 1_555
Mg11 Mg9 3.210208 1_555
Mg11 Mg7 3.210208 1_555
Mg12 Mg5 3.127096 1_555
Mg12 Mg3 3.127096 1_555
Mg12 Mg8 3.140038 1_665
Mg12 Mg6 3.170987 1_556
Mg12 Mg4 3.170990 1_556
Mg12 Mg14 3.175399 1_565
Mg12 Mg14 3.175405 1_555
Mg12 Mg8 3.210208 1_555
Mg13 Mg4 3.136030 1_555
Mg13 Mg2 3.136030 1_655
Mg13 Mg6 3.136030 1_545
Mg13 Mg5 3.152990 1_545
Mg13 Mg3 3.152993 1_555
Mg13 Mg7 3.175399 1_655
Mg13 Mg9 3.175402 1_655
Mg13 Mg9 3.175402 1_545
Mg13 Mg7 3.175405 1_555
Mg14 Mg4 3.136030 1_556
Mg14 Mg6 3.136030 1_546
Mg14 Mg2 3.136030 1_656
Mg14 Mg5 3.152990 1_545
Mg14 Mg3 3.152993 1_555
Mg14 Mg8 3.175399 1_655
Mg14 Mg8 3.175405 1_555
Cr0 Mg9 3.109887 1_545
Cr0 Mg10 3.109887 1_545
Cr0 Mg7 3.109887 1_555
Cr0 Mg11 3.109887 1_445
Cr0 Mg12 3.109887 1_445
Cr0 Mg8 3.109887 1_555
Cr0 Mg5 3.175124 1_545
Cr0 Mg1 3.175124 1_545
Cr0 Mg1 3.175124 1_555
Cr0 Mg5 3.175124 1_445
Cr0 Mg3 3.175124 1_555
Cr0 Mg3 3.175124 1_445
