# generated using pymatgen
data_PrAl3
_symmetry_space_group_name_H-M   'P 1'
_cell_length_a   6.56690761
_cell_length_b   6.56690883
_cell_length_c   4.60481932
_cell_angle_alpha   90.00000000
_cell_angle_beta   90.00000000
_cell_angle_gamma   120.00001334
_symmetry_Int_Tables_number   1
_chemical_formula_structural   PrAl3
_chemical_formula_sum   'Pr2 Al6'
_cell_volume   171.97489822
_cell_formula_units_Z   2
loop_
 _symmetry_equiv_pos_site_id
 _symmetry_equiv_pos_as_xyz
  1  'x, y, z'
loop_
 _atom_site_type_symbol
 _atom_site_label
 _atom_site_symmetry_multiplicity
 _atom_site_fract_x
 _atom_site_fract_y
 _atom_site_fract_z
 _atom_site_occupancy
  Pr  Pr0  1  0.66666700  0.33333300  0.75000000  1
  Pr  Pr1  1  0.33333300  0.66666700  0.25000000  1
  Al  Al0  1  0.13805721  0.27611743  0.75000000  1
  Al  Al1  1  0.86194279  0.13805721  0.25000000  1
  Al  Al2  1  0.86194279  0.72388257  0.25000000  1
  Al  Al3  1  0.13805721  0.86194279  0.75000000  1
  Al  Al4  1  0.72388257  0.86194279  0.75000000  1
  Al  Al5  1  0.27611743  0.13805721  0.25000000  1
loop_
_geom_bond_atom_site_label_1
_geom_bond_atom_site_label_2
_geom_bond_distance
_geom_bond_site_symmetry_2
Al0 Al4 2.719846 1_445
Al0 Al3 2.719847 1_545
Al0 Al1 2.786917 1_456
Al0 Al1 2.786917 1_455
Al0 Al5 2.786937 1_556
Al0 Al5 2.786937 1_555
Al0 Pr1 3.199120 1_555
Al0 Pr1 3.199120 1_556
Al0 Pr0 3.299525 1_455
Al0 Pr0 3.299551 1_555
Al1 Al5 2.719847 1_655
Al1 Al2 2.719847 1_545
Al1 Al4 2.786918 1_544
Al1 Al4 2.786918 1_545
Al1 Pr0 3.199128 1_555
Al1 Pr0 3.199128 1_554
Al1 Pr1 3.299539 1_545
Al1 Pr1 3.299540 1_655
Al2 Al5 2.719846 1_665
Al2 Al3 2.786917 1_654
Al2 Al3 2.786917 1_655
Al2 Al4 2.786937 1_555
Al2 Al4 2.786937 1_554
Al2 Pr0 3.199120 1_554
Al2 Pr0 3.199120 1_555
Al2 Pr1 3.299525 1_655
Al2 Pr1 3.299551 1_555
Al3 Al4 2.719847 1_455
Al3 Al5 2.786918 1_565
Al3 Al5 2.786918 1_566
Al3 Pr1 3.199128 1_556
Al3 Pr1 3.199128 1_555
Al3 Pr0 3.299539 1_565
Al3 Pr0 3.299540 1_455
Al4 Pr1 3.199119 1_555
Al4 Pr1 3.199119 1_556
Al4 Pr0 3.299525 1_565
Al4 Pr0 3.299551 1_555
Al5 Pr0 3.199119 1_554
Al5 Pr0 3.199119 1_555
Al5 Pr1 3.299525 1_545
Al5 Pr1 3.299551 1_555
