# generated using pymatgen
data_Rb7NbAs4
_symmetry_space_group_name_H-M   'P 1'
_cell_length_a   8.66887134
_cell_length_b   9.54321319
_cell_length_c   10.67818720
_cell_angle_alpha   90.00000000
_cell_angle_beta   90.00000000
_cell_angle_gamma   90.00000000
_symmetry_Int_Tables_number   1
_chemical_formula_structural   Rb7NbAs4
_chemical_formula_sum   'Rb14 Nb2 As8'
_cell_volume   883.39454559
_cell_formula_units_Z   2
loop_
 _symmetry_equiv_pos_site_id
 _symmetry_equiv_pos_as_xyz
  1  'x, y, z'
loop_
 _atom_site_type_symbol
 _atom_site_label
 _atom_site_symmetry_multiplicity
 _atom_site_fract_x
 _atom_site_fract_y
 _atom_site_fract_z
 _atom_site_occupancy
  Rb  Rb0  1  0.87519977  0.03563633  -0.00000000  1
  Rb  Rb1  1  0.70643613  0.83447283  0.71409425  1
  Rb  Rb2  1  0.39413618  0.89717234  -0.00000000  1
  Rb  Rb3  1  0.37519977  0.96436367  0.50000000  1
  Rb  Rb4  1  0.87484194  0.46951379  0.29016873  1
  Rb  Rb5  1  0.89413618  0.10282766  0.50000000  1
  Rb  Rb6  1  0.66376082  0.34028742  -0.00000000  1
  Rb  Rb7  1  0.16376082  0.65971258  0.50000000  1
  Rb  Rb8  1  0.20643613  0.16552717  0.21409425  1
  Rb  Rb9  1  0.37484194  0.53048621  0.20983127  1
  Rb  Rb10  1  0.37484194  0.53048621  0.79016873  1
  Rb  Rb11  1  0.87484194  0.46951379  0.70983127  1
  Rb  Rb12  1  0.70643613  0.83447283  0.28590575  1
  Rb  Rb13  1  0.20643613  0.16552717  0.78590575  1
  Nb  Nb0  1  0.99885796  0.67442645  -0.00000000  1
  Nb  Nb1  1  0.49885796  0.32557355  0.50000000  1
  As  As0  1  0.71060517  0.68437310  -0.00000000  1
  As  As1  1  0.21060517  0.31562690  0.50000000  1
  As  As2  1  0.07379443  0.41900952  -0.00000000  1
  As  As3  1  0.57379443  0.58099048  0.50000000  1
  As  As4  1  0.09109627  0.80259676  0.19587226  1
  As  As5  1  0.59109627  0.19740324  0.30412774  1
  As  As6  1  0.59109627  0.19740324  0.69587226  1
  As  As7  1  0.09109627  0.80259676  0.80412774  1
loop_
_geom_bond_atom_site_label_1
_geom_bond_atom_site_label_2
_geom_bond_distance
_geom_bond_site_symmetry_2
As0 Nb0 2.500629 1_555
As0 Rb6 3.308698 1_555
As0 Rb1 3.372493 1_554
As0 Rb12 3.372493 1_555
As0 Rb2 3.413284 1_555
As0 Rb0 3.643214 1_565
As1 Nb1 2.500629 1_555
As1 Rb7 3.308698 1_555
As1 Rb8 3.372493 1_555
As1 Rb13 3.372493 1_555
As1 Rb5 3.413284 1_455
As1 Rb3 3.643214 1_545
As2 Nb0 2.522577 1_455
As2 Rb13 3.521410 1_554
As2 Rb8 3.521410 1_555
As2 Rb4 3.578746 1_455
As2 Rb11 3.578746 1_454
As2 Rb9 3.600401 1_555
As2 Rb10 3.600401 1_554
As2 Rb6 3.633052 1_455
As3 Nb1 2.522577 1_555
As3 Rb12 3.521410 1_555
As3 Rb1 3.521410 1_555
As3 Rb9 3.578746 1_555
As3 Rb10 3.578746 1_555
As3 Rb11 3.600401 1_555
As3 Rb4 3.600401 1_555
As3 Rb7 3.633052 1_555
As4 Nb0 2.551490 1_455
As4 Rb2 3.477130 1_555
As4 Rb12 3.483701 1_455
As4 Rb7 3.578073 1_555
As4 Rb9 3.579948 1_555
As4 Rb0 3.580973 1_465
As4 Rb8 3.610205 1_565
As4 Rb4 3.825222 1_455
As5 Nb1 2.551490 1_555
As5 Rb5 3.477130 1_555
As5 Rb8 3.483701 1_555
As5 Rb6 3.578073 1_555
As5 Rb4 3.579948 1_555
As5 Rb3 3.580973 1_545
As5 Rb12 3.610205 1_545
As5 Rb9 3.825222 1_555
As6 Nb1 2.551490 1_555
As6 Rb5 3.477130 1_555
As6 Rb13 3.483701 1_555
As6 Rb6 3.578073 1_556
As6 Rb11 3.579948 1_555
As6 Rb3 3.580973 1_545
As6 Rb1 3.610205 1_545
As6 Rb10 3.825222 1_555
As7 Nb0 2.551490 1_456
As7 Rb2 3.477130 1_556
As7 Rb1 3.483701 1_455
As7 Rb7 3.578073 1_555
As7 Rb10 3.579948 1_555
As7 Rb0 3.580973 1_466
As7 Rb13 3.610205 1_565
As7 Rb11 3.825222 1_455
