# generated using pymatgen
data_Pb2SeS
_symmetry_space_group_name_H-M   'P 1'
_cell_length_a   7.44122708
_cell_length_b   7.44122708
_cell_length_c   7.44122758
_cell_angle_alpha   33.56131138
_cell_angle_beta   33.56131138
_cell_angle_gamma   33.56130626
_symmetry_Int_Tables_number   1
_chemical_formula_structural   Pb2SeS
_chemical_formula_sum   'Pb2 Se1 S1'
_cell_volume   112.16596144
_cell_formula_units_Z   1
loop_
 _symmetry_equiv_pos_site_id
 _symmetry_equiv_pos_as_xyz
  1  'x, y, z'
loop_
 _atom_site_type_symbol
 _atom_site_label
 _atom_site_symmetry_multiplicity
 _atom_site_fract_x
 _atom_site_fract_y
 _atom_site_fract_z
 _atom_site_occupancy
  Pb  Pb0  1  0.24689065  0.24689065  0.24689065  1
  Pb  Pb1  1  0.75310935  0.75310935  0.75310935  1
  Se  Se0  1  -0.00000000  -0.00000000  0.00000000  1
  S  S0  1  0.50000000  0.50000000  0.50000000  1
loop_
_geom_bond_atom_site_label_1
_geom_bond_atom_site_label_2
_geom_bond_distance
_geom_bond_site_symmetry_2
Pb0 S0 3.000784 1_545
Pb0 S0 3.000784 1_455
Pb0 S0 3.000785 1_554
Pb0 Se0 3.076331 1_565
Pb0 Se0 3.076331 1_655
Pb0 Se0 3.076332 1_556
Pb1 S0 3.000784 1_565
Pb1 S0 3.000784 1_655
Pb1 S0 3.000785 1_556
Pb1 Se0 3.076331 1_566
Pb1 Se0 3.076331 1_656
Pb1 Se0 3.076332 1_665
