# generated using pymatgen
data_Zr14As9
_symmetry_space_group_name_H-M   'P 1'
_cell_length_a   3.80874700
_cell_length_b   17.26461900
_cell_length_c   28.48027300
_cell_angle_alpha   90.00000000
_cell_angle_beta   90.00000000
_cell_angle_gamma   90.00000000
_symmetry_Int_Tables_number   1
_chemical_formula_structural   Zr14As9
_chemical_formula_sum   'Zr56 As36'
_cell_volume   1872.76494616
_cell_formula_units_Z   4
loop_
 _symmetry_equiv_pos_site_id
 _symmetry_equiv_pos_as_xyz
  1  'x, y, z'
loop_
 _atom_site_type_symbol
 _atom_site_label
 _atom_site_symmetry_multiplicity
 _atom_site_fract_x
 _atom_site_fract_y
 _atom_site_fract_z
 _atom_site_occupancy
  Zr  Zr0  1  0.00000000  0.50000000  0.00000000  1
  Zr  Zr1  1  0.50000000  0.00000000  0.50000000  1
  Zr  Zr2  1  0.50000000  0.50000000  0.50000000  1
  Zr  Zr3  1  0.00000000  0.00000000  0.00000000  1
  Zr  Zr4  1  0.50000000  0.55019600  0.92097200  1
  Zr  Zr5  1  0.50000000  0.44980400  0.07902800  1
  Zr  Zr6  1  0.00000000  0.05019600  0.57902800  1
  Zr  Zr7  1  0.00000000  0.94980400  0.42097200  1
  Zr  Zr8  1  0.50000000  0.59926300  0.39585300  1
  Zr  Zr9  1  0.50000000  0.40073700  0.60414700  1
  Zr  Zr10  1  0.00000000  0.09926300  0.10414700  1
  Zr  Zr11  1  0.00000000  0.90073700  0.89585300  1
  Zr  Zr12  1  0.50000000  0.61784100  0.74416700  1
  Zr  Zr13  1  0.50000000  0.38215900  0.25583300  1
  Zr  Zr14  1  0.00000000  0.11784100  0.75583300  1
  Zr  Zr15  1  0.00000000  0.88215900  0.24416700  1
  Zr  Zr16  1  0.50000000  0.63413500  0.03063200  1
  Zr  Zr17  1  0.50000000  0.36586500  0.96936800  1
  Zr  Zr18  1  0.00000000  0.13413500  0.46936800  1
  Zr  Zr19  1  0.00000000  0.86586500  0.53063200  1
  Zr  Zr20  1  0.50000000  0.63823200  0.14734000  1
  Zr  Zr21  1  0.50000000  0.36176800  0.85266000  1
  Zr  Zr22  1  0.00000000  0.13823200  0.35266000  1
  Zr  Zr23  1  0.00000000  0.86176800  0.64734000  1
  Zr  Zr24  1  0.50000000  0.69934500  0.50884900  1
  Zr  Zr25  1  0.50000000  0.30065500  0.49115100  1
  Zr  Zr26  1  0.00000000  0.19934500  0.99115100  1
  Zr  Zr27  1  0.00000000  0.80065500  0.00884900  1
  Zr  Zr28  1  0.50000000  0.70250000  0.64245100  1
  Zr  Zr29  1  0.50000000  0.29750000  0.35754900  1
  Zr  Zr30  1  0.00000000  0.20250000  0.85754900  1
  Zr  Zr31  1  0.00000000  0.79750000  0.14245100  1
  Zr  Zr32  1  0.50000000  0.74711400  0.91664700  1
  Zr  Zr33  1  0.50000000  0.25288600  0.08335300  1
  Zr  Zr34  1  0.00000000  0.24711400  0.58335300  1
  Zr  Zr35  1  0.00000000  0.75288600  0.41664700  1
  Zr  Zr36  1  0.50000000  0.76764500  0.31194700  1
  Zr  Zr37  1  0.50000000  0.23235500  0.68805300  1
  Zr  Zr38  1  0.00000000  0.26764500  0.18805300  1
  Zr  Zr39  1  0.00000000  0.73235500  0.81194700  1
  Zr  Zr40  1  0.50000000  0.83359800  0.73738200  1
  Zr  Zr41  1  0.50000000  0.16640200  0.26261800  1
  Zr  Zr42  1  0.00000000  0.33359800  0.76261800  1
  Zr  Zr43  1  0.00000000  0.66640200  0.23738200  1
  Zr  Zr44  1  0.50000000  0.93146600  0.07434400  1
  Zr  Zr45  1  0.50000000  0.06853400  0.92565600  1
  Zr  Zr46  1  0.00000000  0.43146600  0.42565600  1
  Zr  Zr47  1  0.00000000  0.56853400  0.57434400  1
  Zr  Zr48  1  0.50000000  0.98046100  0.32266600  1
  Zr  Zr49  1  0.50000000  0.01953900  0.67733400  1
  Zr  Zr50  1  0.00000000  0.48046100  0.17733400  1
  Zr  Zr51  1  0.00000000  0.51953900  0.82266600  1
  Zr  Zr52  1  0.50000000  0.98695800  0.80298600  1
  Zr  Zr53  1  0.50000000  0.01304200  0.19701400  1
  Zr  Zr54  1  0.00000000  0.48695800  0.69701400  1
  Zr  Zr55  1  0.00000000  0.51304200  0.30298600  1
  As  As0  1  0.50000000  0.63282400  0.84283400  1
  As  As1  1  0.50000000  0.36717600  0.15716600  1
  As  As2  1  0.00000000  0.13282400  0.65716600  1
  As  As3  1  0.00000000  0.86717600  0.34283400  1
  As  As4  1  0.50000000  0.84157600  0.83456600  1
  As  As5  1  0.50000000  0.15842400  0.16543400  1
  As  As6  1  0.00000000  0.34157600  0.66543400  1
  As  As7  1  0.00000000  0.65842400  0.33456600  1
  As  As8  1  0.50000000  0.54907800  0.64303700  1
  As  As9  1  0.50000000  0.45092200  0.35696300  1
  As  As10  1  0.00000000  0.04907800  0.85696300  1
  As  As11  1  0.00000000  0.95092200  0.14303700  1
  As  As12  1  0.50000000  0.76751800  0.07779200  1
  As  As13  1  0.50000000  0.23248200  0.92220800  1
  As  As14  1  0.00000000  0.26751800  0.42220800  1
  As  As15  1  0.00000000  0.73248200  0.57779200  1
  As  As16  1  0.50000000  0.77453100  0.21383600  1
  As  As17  1  0.50000000  0.22546900  0.78616400  1
  As  As18  1  0.00000000  0.27453100  0.28616400  1
  As  As19  1  0.00000000  0.72546900  0.71383600  1
  As  As20  1  0.50000000  0.54811000  0.23349000  1
  As  As21  1  0.50000000  0.45189000  0.76651000  1
  As  As22  1  0.00000000  0.04811000  0.26651000  1
  As  As23  1  0.00000000  0.95189000  0.73349000  1
  As  As24  1  0.50000000  0.93590700  0.59222100  1
  As  As25  1  0.50000000  0.06409300  0.40777900  1
  As  As26  1  0.00000000  0.43590700  0.90777900  1
  As  As27  1  0.00000000  0.56409300  0.09222100  1
  As  As28  1  0.50000000  0.84437200  0.46148200  1
  As  As29  1  0.50000000  0.15562800  0.53851800  1
  As  As30  1  0.00000000  0.34437200  0.03851800  1
  As  As31  1  0.00000000  0.65562800  0.96148200  1
  As  As32  1  0.50000000  0.89588800  0.96739700  1
  As  As33  1  0.50000000  0.10411200  0.03260300  1
  As  As34  1  0.00000000  0.39588800  0.53260300  1
  As  As35  1  0.00000000  0.60411200  0.46739700  1
loop_
_geom_bond_atom_site_label_1
_geom_bond_atom_site_label_2
_geom_bond_distance
_geom_bond_site_symmetry_2
As0 Zr4 2.643367 1_555
As0 Zr39 2.711685 1_555
As0 Zr39 2.711685 1_655
As0 Zr51 2.789588 1_655
As0 Zr51 2.789588 1_555
As0 Zr12 2.821944 1_555
As0 Zr32 2.883178 1_555
As1 Zr5 2.643367 1_555
As1 Zr38 2.711685 1_555
As1 Zr38 2.711685 1_655
As1 Zr50 2.789588 1_555
As1 Zr50 2.789588 1_655
As1 Zr13 2.821944 1_555
As1 Zr33 2.883178 1_555
As2 Zr6 2.643367 1_555
As2 Zr37 2.711685 1_555
As2 Zr37 2.711685 1_455
As2 Zr49 2.789588 1_455
As2 Zr49 2.789588 1_555
As2 Zr14 2.821944 1_555
As2 Zr34 2.883178 1_555
As3 Zr7 2.643367 1_555
As3 Zr36 2.711685 1_455
As3 Zr36 2.711685 1_555
As3 Zr48 2.789588 1_555
As3 Zr48 2.789588 1_455
As3 Zr15 2.821944 1_555
As3 Zr35 2.883178 1_555
As4 Zr52 2.666244 1_555
As4 Zr39 2.756326 1_655
As4 Zr39 2.756326 1_555
As4 Zr40 2.771252 1_555
As4 Zr11 2.777867 1_655
As4 Zr11 2.777867 1_555
As4 Zr32 2.850345 1_555
As5 Zr53 2.666244 1_555
As5 Zr38 2.756326 1_555
As5 Zr38 2.756326 1_655
As5 Zr41 2.771252 1_555
As5 Zr10 2.777867 1_555
As5 Zr10 2.777867 1_655
As5 Zr33 2.850345 1_555
As6 Zr54 2.666244 1_555
As6 Zr37 2.756326 1_455
As6 Zr37 2.756326 1_555
As6 Zr42 2.771252 1_555
As6 Zr9 2.777867 1_455
As6 Zr9 2.777867 1_555
As6 Zr34 2.850345 1_555
As7 Zr55 2.666244 1_555
As7 Zr36 2.756326 1_455
As7 Zr36 2.756326 1_555
As7 Zr43 2.771252 1_555
As7 Zr8 2.777867 1_555
As7 Zr8 2.777867 1_455
As7 Zr35 2.850345 1_555
As8 Zr28 2.648825 1_555
As8 Zr54 2.672092 1_655
As8 Zr54 2.672092 1_555
As8 Zr47 2.750809 1_655
As8 Zr47 2.750809 1_555
As8 Zr9 2.790296 1_555
As8 Zr12 3.115281 1_555
As9 Zr29 2.648825 1_555
As9 Zr55 2.672092 1_655
As9 Zr55 2.672092 1_555
As9 Zr46 2.750809 1_555
As9 Zr46 2.750809 1_655
As9 Zr8 2.790296 1_555
As9 Zr13 3.115281 1_555
As10 Zr30 2.648825 1_555
As10 Zr52 2.672092 1_545
As10 Zr52 2.672092 1_445
As10 Zr45 2.750809 1_455
As10 Zr45 2.750809 1_555
As10 Zr11 2.790296 1_545
As10 Zr14 3.115281 1_555
As11 Zr31 2.648825 1_555
As11 Zr53 2.672092 1_465
As11 Zr53 2.672092 1_565
As11 Zr44 2.750809 1_455
As11 Zr44 2.750809 1_555
As11 Zr10 2.790296 1_565
As11 Zr15 3.115281 1_555
As12 Zr16 2.665880 1_555
As12 Zr31 2.699208 1_555
As12 Zr31 2.699208 1_655
As12 Zr27 2.794517 1_555
As12 Zr27 2.794517 1_655
As12 Zr44 2.832203 1_555
As12 Zr20 2.984210 1_555
As13 Zr17 2.665880 1_555
As13 Zr30 2.699208 1_655
As13 Zr30 2.699208 1_555
As13 Zr26 2.794517 1_555
As13 Zr26 2.794517 1_655
As13 Zr45 2.832203 1_555
As13 Zr21 2.984210 1_555
As14 Zr18 2.665880 1_555
As14 Zr29 2.699208 1_555
As14 Zr29 2.699208 1_455
As14 Zr25 2.794517 1_555
As14 Zr25 2.794517 1_455
As14 Zr46 2.832203 1_555
As14 Zr22 2.984210 1_555
As15 Zr19 2.665880 1_555
As15 Zr28 2.699208 1_555
As15 Zr28 2.699208 1_455
As15 Zr24 2.794517 1_455
As15 Zr24 2.794517 1_555
As15 Zr47 2.832203 1_555
As15 Zr23 2.984210 1_555
As16 Zr43 2.749782 1_655
As16 Zr43 2.749782 1_555
As16 Zr36 2.796756 1_555
As16 Zr15 2.797426 1_655
As16 Zr15 2.797426 1_555
As16 Zr31 2.813759 1_555
As16 Zr31 2.813759 1_655
As16 Zr20 3.020577 1_555
As17 Zr42 2.749782 1_655
As17 Zr42 2.749782 1_555
As17 Zr37 2.796756 1_555
As17 Zr14 2.797426 1_555
As17 Zr14 2.797426 1_655
As17 Zr30 2.813759 1_555
As17 Zr30 2.813759 1_655
As17 Zr21 3.020577 1_555
As18 Zr41 2.749782 1_555
As18 Zr41 2.749782 1_455
As18 Zr38 2.796756 1_555
As18 Zr13 2.797426 1_555
As18 Zr13 2.797426 1_455
As18 Zr29 2.813759 1_455
As18 Zr29 2.813759 1_555
As18 Zr22 3.020577 1_555
As19 Zr40 2.749782 1_555
As19 Zr40 2.749782 1_455
As19 Zr39 2.796756 1_555
As19 Zr12 2.797426 1_455
As19 Zr12 2.797426 1_555
As19 Zr28 2.813759 1_455
As19 Zr28 2.813759 1_555
As19 Zr23 3.020577 1_555
As20 Zr50 2.747470 1_655
As20 Zr50 2.747470 1_555
As20 Zr43 2.794598 1_555
As20 Zr43 2.794598 1_655
As20 Zr55 2.812593 1_655
As20 Zr55 2.812593 1_555
As20 Zr20 2.905327 1_555
As20 Zr13 2.934895 1_555
As21 Zr51 2.747470 1_555
As21 Zr51 2.747470 1_655
As21 Zr42 2.794598 1_555
As21 Zr42 2.794598 1_655
As21 Zr54 2.812593 1_655
As21 Zr54 2.812593 1_555
As21 Zr21 2.905327 1_555
As21 Zr12 2.934895 1_555
As22 Zr48 2.747470 1_545
As22 Zr48 2.747470 1_445
As22 Zr41 2.794598 1_555
As22 Zr41 2.794598 1_455
As22 Zr53 2.812593 1_555
As22 Zr53 2.812593 1_455
As22 Zr22 2.905327 1_555
As22 Zr15 2.934895 1_545
As23 Zr49 2.747470 1_465
As23 Zr49 2.747470 1_565
As23 Zr40 2.794598 1_555
As23 Zr40 2.794598 1_455
As23 Zr52 2.812593 1_455
As23 Zr52 2.812593 1_555
As23 Zr23 2.905327 1_555
As23 Zr14 2.934895 1_565
As24 Zr6 2.767881 1_565
As24 Zr6 2.767881 1_665
As24 Zr23 2.780158 1_655
As24 Zr23 2.780158 1_555
As24 Zr49 2.821480 1_565
As24 Zr1 2.850057 1_565
As24 Zr19 2.857567 1_555
As24 Zr19 2.857567 1_655
As25 Zr7 2.767881 1_545
As25 Zr7 2.767881 1_645
As25 Zr22 2.780158 1_655
As25 Zr22 2.780158 1_555
As25 Zr48 2.821480 1_545
As25 Zr1 2.850057 1_555
As25 Zr18 2.857567 1_555
As25 Zr18 2.857567 1_655
As26 Zr4 2.767881 1_455
As26 Zr4 2.767881 1_555
As26 Zr21 2.780158 1_455
As26 Zr21 2.780158 1_555
As26 Zr51 2.821480 1_555
As26 Zr0 2.850057 1_556
As26 Zr17 2.857567 1_555
As26 Zr17 2.857567 1_455
As27 Zr5 2.767881 1_555
As27 Zr5 2.767881 1_455
As27 Zr20 2.780158 1_455
As27 Zr20 2.780158 1_555
As27 Zr50 2.821480 1_555
As27 Zr0 2.850057 1_555
As27 Zr16 2.857567 1_455
As27 Zr16 2.857567 1_555
As28 Zr19 2.764581 1_555
As28 Zr19 2.764581 1_655
As28 Zr35 2.784219 1_655
As28 Zr35 2.784219 1_555
As28 Zr24 2.844128 1_555
As28 Zr7 2.875940 1_555
As28 Zr7 2.875940 1_655
As28 Zr1 2.902175 1_565
As29 Zr18 2.764581 1_555
As29 Zr18 2.764581 1_655
As29 Zr34 2.784219 1_555
As29 Zr34 2.784219 1_655
As29 Zr25 2.844128 1_555
As29 Zr6 2.875940 1_655
As29 Zr6 2.875940 1_555
As29 Zr1 2.902175 1_555
As30 Zr17 2.764581 1_454
As30 Zr17 2.764581 1_554
As30 Zr33 2.784219 1_555
As30 Zr33 2.784219 1_455
As30 Zr26 2.844128 1_554
As30 Zr5 2.875940 1_455
As30 Zr5 2.875940 1_555
As30 Zr0 2.902175 1_555
As31 Zr16 2.764581 1_456
As31 Zr16 2.764581 1_556
As31 Zr32 2.784219 1_455
As31 Zr32 2.784219 1_555
As31 Zr27 2.844128 1_556
As31 Zr4 2.875940 1_555
As31 Zr4 2.875940 1_455
As31 Zr0 2.902175 1_556
As32 Zr3 2.778429 1_566
As32 Zr3 2.778429 1_666
As32 Zr27 2.779143 1_556
As32 Zr27 2.779143 1_656
As32 Zr11 2.790238 1_555
As32 Zr11 2.790238 1_655
As32 Zr32 2.947276 1_555
As32 Zr44 3.107197 1_556
As32 Zr45 3.208989 1_565
As33 Zr3 2.778429 1_555
As33 Zr3 2.778429 1_655
As33 Zr26 2.779143 1_654
As33 Zr26 2.779143 1_554
As33 Zr10 2.790238 1_555
As33 Zr10 2.790238 1_655
As33 Zr33 2.947276 1_555
As33 Zr45 3.107197 1_554
As33 Zr44 3.208989 1_545
As34 Zr2 2.778429 1_455
As34 Zr2 2.778429 1_555
As34 Zr25 2.779143 1_455
As34 Zr25 2.779143 1_555
As34 Zr9 2.790238 1_455
As34 Zr9 2.790238 1_555
As34 Zr34 2.947276 1_555
As34 Zr46 3.107197 1_555
As34 Zr47 3.208989 1_555
As35 Zr2 2.778429 1_555
As35 Zr2 2.778429 1_455
As35 Zr24 2.779143 1_555
As35 Zr24 2.779143 1_455
As35 Zr8 2.790238 1_455
As35 Zr8 2.790238 1_555
As35 Zr35 2.947276 1_555
As35 Zr47 3.107197 1_555
As35 Zr46 3.208989 1_555
