# generated using pymatgen
data_Dy(Ni2As)2
_symmetry_space_group_name_H-M   'P 1'
_cell_length_a   3.73709454
_cell_length_b   7.19543462
_cell_length_c   7.19543462
_cell_angle_alpha   90.00000000
_cell_angle_beta   90.00000000
_cell_angle_gamma   90.00000000
_symmetry_Int_Tables_number   1
_chemical_formula_structural   Dy(Ni2As)2
_chemical_formula_sum   'Dy2 Ni8 As4'
_cell_volume   193.48537675
_cell_formula_units_Z   2
loop_
 _symmetry_equiv_pos_site_id
 _symmetry_equiv_pos_as_xyz
  1  'x, y, z'
loop_
 _atom_site_type_symbol
 _atom_site_label
 _atom_site_symmetry_multiplicity
 _atom_site_fract_x
 _atom_site_fract_y
 _atom_site_fract_z
 _atom_site_occupancy
  Dy  Dy0  1  -0.00000000  0.50000000  0.50000000  1
  Dy  Dy1  1  0.50000000  -0.00000000  0.00000000  1
  Ni  Ni0  1  0.50000000  0.41203639  0.84626064  1
  Ni  Ni1  1  0.00000000  0.65373936  0.91203639  1
  Ni  Ni2  1  -0.00000000  0.08796361  0.34626064  1
  Ni  Ni3  1  0.50000000  0.15373936  0.58796361  1
  Ni  Ni4  1  0.50000000  0.84626064  0.41203639  1
  Ni  Ni5  1  0.00000000  0.34626064  0.08796361  1
  Ni  Ni6  1  0.50000000  0.58796361  0.15373936  1
  Ni  Ni7  1  -0.00000000  0.91203639  0.65373936  1
  As  As0  1  0.50000000  0.71846548  0.71846548  1
  As  As1  1  0.50000000  0.28153452  0.28153452  1
  As  As2  1  -0.00000000  0.21846548  0.78153452  1
  As  As3  1  -0.00000000  0.78153452  0.21846548  1
loop_
_geom_bond_atom_site_label_1
_geom_bond_atom_site_label_2
_geom_bond_distance
_geom_bond_site_symmetry_2
As0 Ni7 2.376624 1_555
As0 Ni7 2.376624 1_655
As0 Ni1 2.376624 1_655
As0 Ni1 2.376624 1_555
As0 Ni4 2.388954 1_555
As0 Ni0 2.388954 1_555
As0 Dy1 2.864862 1_566
As0 Dy0 2.904057 1_655
As0 Dy0 2.904057 1_555
As1 Ni5 2.376624 1_655
As1 Ni2 2.376624 1_655
As1 Ni5 2.376624 1_555
As1 Ni2 2.376624 1_555
As1 Ni3 2.388954 1_555
As1 Ni6 2.388954 1_555
As1 Dy1 2.864862 1_555
As1 Dy0 2.904057 1_655
As1 Dy0 2.904057 1_555
As2 Ni0 2.376624 1_455
As2 Ni0 2.376624 1_555
As2 Ni3 2.376624 1_455
As2 Ni3 2.376624 1_555
As2 Ni7 2.388954 1_545
As2 Ni5 2.388954 1_556
As2 Dy0 2.864862 1_555
As2 Dy1 2.904057 1_556
As2 Dy1 2.904057 1_456
As3 Ni4 2.376624 1_455
As3 Ni4 2.376624 1_555
As3 Ni6 2.376624 1_455
As3 Ni6 2.376624 1_555
As3 Ni1 2.388954 1_554
As3 Ni2 2.388954 1_565
As3 Dy0 2.864862 1_555
As3 Dy1 2.904057 1_565
As3 Dy1 2.904057 1_465
