# generated using pymatgen
data_BaSrNdFeO6
_symmetry_space_group_name_H-M   'P 1'
_cell_length_a   5.92369863
_cell_length_b   5.92369863
_cell_length_c   5.92369863
_cell_angle_alpha   60.00000000
_cell_angle_beta   60.00000000
_cell_angle_gamma   60.00000000
_symmetry_Int_Tables_number   1
_chemical_formula_structural   BaSrNdFeO6
_chemical_formula_sum   'Ba1 Sr1 Nd1 Fe1 O6'
_cell_volume   146.98190386
_cell_formula_units_Z   1
loop_
 _symmetry_equiv_pos_site_id
 _symmetry_equiv_pos_as_xyz
  1  'x, y, z'
loop_
 _atom_site_type_symbol
 _atom_site_label
 _atom_site_symmetry_multiplicity
 _atom_site_fract_x
 _atom_site_fract_y
 _atom_site_fract_z
 _atom_site_occupancy
  Ba  Ba0  1  0.75000000  0.75000000  0.75000000  1
  Sr  Sr0  1  0.25000000  0.25000000  0.25000000  1
  Nd  Nd0  1  0.50000000  0.50000000  0.50000000  1
  Fe  Fe0  1  0.00000000  0.00000000  0.00000000  1
  O  O0  1  0.77323513  0.22676487  0.22676487  1
  O  O1  1  0.22676487  0.77323513  0.77323513  1
  O  O2  1  0.77323513  0.22676487  0.77323513  1
  O  O3  1  0.22676487  0.77323513  0.22676487  1
  O  O4  1  0.77323513  0.77323513  0.22676487  1
  O  O5  1  0.22676487  0.22676487  0.77323513  1
loop_
_geom_bond_atom_site_label_1
_geom_bond_atom_site_label_2
_geom_bond_distance
_geom_bond_site_symmetry_2
Ba0 O5 2.968238 1_565
Ba0 O1 2.968238 1_655
Ba0 O5 2.968238 1_655
Ba0 O0 2.968238 1_556
Ba0 O2 2.968238 1_555
Ba0 O2 2.968238 1_565
Ba0 O3 2.968238 1_556
Ba0 O4 2.968238 1_555
Ba0 O1 2.968238 1_555
Ba0 O4 2.968238 1_556
Ba0 O0 2.968238 1_565
Ba0 O3 2.968238 1_655
Nd0 O5 2.288993 1_555
Nd0 O3 2.288993 1_555
Nd0 O0 2.288993 1_555
Nd0 O2 2.288993 1_555
Nd0 O4 2.288993 1_555
Nd0 O1 2.288993 1_555
Fe0 O4 1.899694 1_445
Fe0 O3 1.899694 1_545
Fe0 O5 1.899694 1_554
Fe0 O2 1.899694 1_454
Fe0 O1 1.899694 1_544
Fe0 O0 1.899694 1_455
O0 Sr0 2.968238 1_655
O0 Sr0 2.968238 1_555
O1 Sr0 2.968238 1_556
O1 Sr0 2.968238 1_565
O2 Sr0 2.968238 1_556
O2 Sr0 2.968238 1_655
O3 Sr0 2.968238 1_565
O3 Sr0 2.968238 1_555
O4 Sr0 2.968238 1_655
O4 Sr0 2.968238 1_565
O5 Sr0 2.968238 1_556
O5 Sr0 2.968238 1_555
