# generated using pymatgen
data_La3Mg
_symmetry_space_group_name_H-M   'P 1'
_cell_length_a   5.13909675
_cell_length_b   5.13909461
_cell_length_c   5.13909461
_cell_angle_alpha   90.00000000
_cell_angle_beta   90.00000000
_cell_angle_gamma   90.00000000
_symmetry_Int_Tables_number   1
_chemical_formula_structural   La3Mg
_chemical_formula_sum   'La3 Mg1'
_cell_volume   135.72505303
_cell_formula_units_Z   1
loop_
 _symmetry_equiv_pos_site_id
 _symmetry_equiv_pos_as_xyz
  1  'x, y, z'
loop_
 _atom_site_type_symbol
 _atom_site_label
 _atom_site_symmetry_multiplicity
 _atom_site_fract_x
 _atom_site_fract_y
 _atom_site_fract_z
 _atom_site_occupancy
  La  La0  1  0.50000000  0.50000000  0.00000000  1
  La  La1  1  0.50000000  -0.00000000  0.50000000  1
  La  La2  1  0.00000000  0.50000000  0.50000000  1
  Mg  Mg0  1  -0.00000000  0.00000000  -0.00000000  1
loop_
_geom_bond_atom_site_label_1
_geom_bond_atom_site_label_2
_geom_bond_distance
_geom_bond_site_symmetry_2
La0 La1 3.633889 1_565
La0 La1 3.633889 1_555
La0 La1 3.633889 1_564
La0 La1 3.633889 1_554
La0 La2 3.633889 1_554
La0 La2 3.633889 1_655
La0 La2 3.633889 1_654
La0 Mg0 3.633889 1_565
La0 Mg0 3.633889 1_665
La0 La2 3.633889 1_555
La0 Mg0 3.633889 1_555
La0 Mg0 3.633889 1_655
La1 La2 3.633889 1_655
La1 Mg0 3.633889 1_656
La1 La2 3.633889 1_645
La1 Mg0 3.633889 1_556
La1 La2 3.633889 1_555
La1 La2 3.633889 1_545
La1 Mg0 3.633889 1_555
La1 Mg0 3.633889 1_655
La2 Mg0 3.633889 1_556
La2 Mg0 3.633889 1_555
La2 Mg0 3.633889 1_566
La2 Mg0 3.633889 1_565
