# generated using pymatgen
data_CaEu(GeO3)4
_symmetry_space_group_name_H-M   'P 1'
_cell_length_a   5.29813522
_cell_length_b   5.29813522
_cell_length_c   7.51015130
_cell_angle_alpha   90.00000000
_cell_angle_beta   90.00000000
_cell_angle_gamma   90.00000000
_symmetry_Int_Tables_number   1
_chemical_formula_structural   CaEu(GeO3)4
_chemical_formula_sum   'Ca1 Eu1 Ge4 O12'
_cell_volume   210.81172547
_cell_formula_units_Z   1
loop_
 _symmetry_equiv_pos_site_id
 _symmetry_equiv_pos_as_xyz
  1  'x, y, z'
loop_
 _atom_site_type_symbol
 _atom_site_label
 _atom_site_symmetry_multiplicity
 _atom_site_fract_x
 _atom_site_fract_y
 _atom_site_fract_z
 _atom_site_occupancy
  Ca  Ca0  1  0.50000000  0.50000000  -0.00000000  1
  Eu  Eu0  1  -0.00000000  -0.00000000  0.50000000  1
  Ge  Ge0  1  -0.00000000  0.50000000  0.75413399  1
  Ge  Ge1  1  -0.00000000  0.50000000  0.24586601  1
  Ge  Ge2  1  0.50000000  0.00000000  0.75413399  1
  Ge  Ge3  1  0.50000000  -0.00000000  0.24586601  1
  O  O0  1  0.24758919  0.24758919  0.74603455  1
  O  O1  1  0.24758919  0.24758919  0.25396545  1
  O  O2  1  0.75241081  0.75241081  0.25396545  1
  O  O3  1  0.75241081  0.75241081  0.74603455  1
  O  O4  1  0.75241081  0.24758919  0.74603455  1
  O  O5  1  0.75241081  0.24758919  0.25396545  1
  O  O6  1  0.24758919  0.75241081  0.25396545  1
  O  O7  1  0.24758919  0.75241081  0.74603455  1
  O  O8  1  -0.00000000  0.50000000  0.50000000  1
  O  O9  1  -0.00000000  0.50000000  -0.00000000  1
  O  O10  1  0.50000000  -0.00000000  0.50000000  1
  O  O11  1  0.50000000  0.00000000  -0.00000000  1
loop_
_geom_bond_atom_site_label_1
_geom_bond_atom_site_label_2
_geom_bond_distance
_geom_bond_site_symmetry_2
Ca0 O11 2.649068 1_555
Ca0 O11 2.649068 1_565
Ca0 O9 2.649068 1_555
Ca0 O9 2.649068 1_655
Ca0 O6 2.686009 1_555
Ca0 O1 2.686009 1_555
Ca0 O5 2.686009 1_555
Ca0 O2 2.686009 1_555
Ca0 O0 2.686009 1_554
Ca0 O4 2.686009 1_554
Ca0 O3 2.686009 1_554
Ca0 O7 2.686009 1_554
Eu0 O0 2.618327 1_555
Eu0 O7 2.618327 1_545
Eu0 O4 2.618327 1_455
Eu0 O2 2.618327 1_445
Eu0 O1 2.618327 1_555
Eu0 O3 2.618327 1_445
Eu0 O6 2.618327 1_545
Eu0 O5 2.618327 1_455
Eu0 O8 2.649068 1_555
Eu0 O8 2.649068 1_545
Eu0 O10 2.649068 1_555
Eu0 O10 2.649068 1_455
Ge0 O9 1.846491 1_556
Ge0 O3 1.874248 1_455
Ge0 O4 1.874248 1_455
Ge0 O7 1.874248 1_555
Ge0 O0 1.874248 1_555
Ge0 O8 1.908585 1_555
Ge1 O9 1.846491 1_555
Ge1 O2 1.874248 1_455
Ge1 O6 1.874248 1_555
Ge1 O1 1.874248 1_555
Ge1 O5 1.874248 1_455
Ge1 O8 1.908585 1_555
Ge2 O11 1.846491 1_556
Ge2 O7 1.874248 1_545
Ge2 O0 1.874248 1_555
Ge2 O4 1.874248 1_555
Ge2 O3 1.874248 1_545
Ge2 O10 1.908585 1_555
Ge3 O11 1.846491 1_555
Ge3 O2 1.874248 1_545
Ge3 O1 1.874248 1_555
Ge3 O6 1.874248 1_545
Ge3 O5 1.874248 1_555
Ge3 O10 1.908585 1_555
