# generated using pymatgen
data_CsYbO3
_symmetry_space_group_name_H-M   'P 1'
_cell_length_a   4.60127600
_cell_length_b   4.60127600
_cell_length_c   4.60127600
_cell_angle_alpha   90.00000000
_cell_angle_beta   90.00000000
_cell_angle_gamma   90.00000000
_symmetry_Int_Tables_number   1
_chemical_formula_structural   CsYbO3
_chemical_formula_sum   'Cs1 Yb1 O3'
_cell_volume   97.41702295
_cell_formula_units_Z   1
loop_
 _symmetry_equiv_pos_site_id
 _symmetry_equiv_pos_as_xyz
  1  'x, y, z'
loop_
 _atom_site_type_symbol
 _atom_site_label
 _atom_site_symmetry_multiplicity
 _atom_site_fract_x
 _atom_site_fract_y
 _atom_site_fract_z
 _atom_site_occupancy
  Cs  Cs0  1  0.00000000  0.00000000  0.00000000  1
  Yb  Yb0  1  0.50000000  0.50000000  0.50000000  1
  O  O0  1  0.50000000  0.50000000  0.00000000  1
  O  O1  1  0.50000000  0.00000000  0.50000000  1
  O  O2  1  0.00000000  0.50000000  0.50000000  1
loop_
_geom_bond_atom_site_label_1
_geom_bond_atom_site_label_2
_geom_bond_distance
_geom_bond_site_symmetry_2
Cs0 O2 3.253593 1_545
Cs0 O1 3.253593 1_455
Cs0 O1 3.253593 1_454
Cs0 O1 3.253593 1_555
Cs0 O1 3.253593 1_554
Cs0 O0 3.253593 1_545
Cs0 O0 3.253593 1_555
Cs0 O0 3.253593 1_445
Cs0 O2 3.253593 1_555
Cs0 O2 3.253593 1_554
Cs0 O0 3.253593 1_455
Cs0 O2 3.253593 1_544
O0 Yb0 2.300638 1_554
O0 Yb0 2.300638 1_555
O1 Yb0 2.300638 1_545
O1 Yb0 2.300638 1_555
O2 Yb0 2.300638 1_455
O2 Yb0 2.300638 1_555
