# generated using pymatgen
data_ZnH20PtC4(NO3)4
_symmetry_space_group_name_H-M   'P 1'
_cell_length_a   7.23514100
_cell_length_b   7.54032200
_cell_length_c   9.17723961
_cell_angle_alpha   114.25613325
_cell_angle_beta   113.21543148
_cell_angle_gamma   90.00000000
_symmetry_Int_Tables_number   1
_chemical_formula_structural   ZnH20PtC4(NO3)4
_chemical_formula_sum   'Zn1 H20 Pt1 C4 N4 O12'
_cell_volume   411.59715326
_cell_formula_units_Z   1
loop_
 _symmetry_equiv_pos_site_id
 _symmetry_equiv_pos_as_xyz
  1  'x, y, z'
loop_
 _atom_site_type_symbol
 _atom_site_label
 _atom_site_symmetry_multiplicity
 _atom_site_fract_x
 _atom_site_fract_y
 _atom_site_fract_z
 _atom_site_occupancy
  Zn  Zn0  1  0.00000000  0.50000000  0.00000000  1
  H  H0  1  0.47202100  0.81697500  0.18508800  1
  H  H1  1  0.71306700  0.36811300  0.18508800  1
  H  H2  1  0.28693300  0.18302500  0.81491200  1
  H  H3  1  0.52797900  0.63188700  0.81491200  1
  H  H4  1  0.65516800  0.01786200  0.31592500  1
  H  H5  1  0.66075700  0.29806400  0.31592500  1
  H  H6  1  0.33924300  0.98213800  0.68407500  1
  H  H7  1  0.34483200  0.70193600  0.68407500  1
  H  H8  1  0.69911100  0.81157200  0.18345200  1
  H  H9  1  0.48434200  0.37188000  0.18345200  1
  H  H10  1  0.51565800  0.18842800  0.81654800  1
  H  H11  1  0.30088900  0.62812000  0.81654800  1
  H  H12  1  0.94533500  0.80154500  0.89149700  1
  H  H13  1  0.94616200  0.08995200  0.89149700  1
  H  H14  1  0.05383800  0.19845500  0.10850300  1
  H  H15  1  0.05466500  0.91004800  0.10850300  1
  H  H16  1  0.92139000  0.81076000  0.62328000  1
  H  H17  1  0.70189100  0.81252000  0.62328000  1
  H  H18  1  0.29810900  0.18924000  0.37672000  1
  H  H19  1  0.07861000  0.18748000  0.37672000  1
  Pt  Pt0  1  0.50000000  0.00000000  0.00000000  1
  C  C0  1  0.92634100  0.31705800  0.63562800  1
  C  C1  1  0.70928700  0.31857000  0.63562800  1
  C  C2  1  0.29071300  0.68294200  0.36437200  1
  C  C3  1  0.07365900  0.68143000  0.36437200  1
  N  N0  1  0.59130200  0.89910200  0.19129000  1
  N  N1  1  0.59998700  0.29218800  0.19129000  1
  N  N2  1  0.40001300  0.10089800  0.80871000  1
  N  N3  1  0.40869800  0.70781200  0.80871000  1
  O  O0  1  0.08321600  0.39218400  0.78644000  1
  O  O1  1  0.70322400  0.39425600  0.78644000  1
  O  O2  1  0.29677600  0.60781600  0.21356000  1
  O  O3  1  0.91678400  0.60574400  0.21356000  1
  O  O4  1  0.92824100  0.24127800  0.48606700  1
  O  O5  1  0.55782600  0.24478900  0.48606700  1
  O  O6  1  0.44217400  0.75872200  0.51393300  1
  O  O7  1  0.07175900  0.75521100  0.51393300  1
  O  O8  1  0.00000000  0.78075900  0.00000000  1
  O  O9  1  0.00000000  0.21924100  0.00000000  1
  O  O10  1  0.85152300  0.85152300  0.70304700  1
  O  O11  1  0.14847700  0.14847700  0.29695300  1
loop_
_geom_bond_atom_site_label_1
_geom_bond_atom_site_label_2
_geom_bond_distance
_geom_bond_site_symmetry_2
H0 N0 1.031425 1_555
H1 N1 1.031431 1_555
H2 N2 1.031431 1_555
H3 N3 1.031425 1_555
H4 N0 1.032210 1_545
H5 N1 1.032207 1_555
H6 N2 1.032210 1_565
H7 N3 1.032207 1_555
H8 N0 1.026853 1_555
H9 N1 1.026842 1_555
H10 N2 1.026842 1_555
H11 N3 1.026853 1_555
H12 O8 0.995123 1_656
H13 O9 0.995123 1_656
H14 O9 0.995123 1_555
H15 O8 0.995123 1_555
H16 O10 0.996368 1_555
H16 O7 1.697480 1_655
H17 O10 0.996357 1_555
H17 O6 1.697486 1_555
H18 O11 0.996357 1_555
H18 O5 1.697486 1_555
H19 O11 0.996368 1_555
H19 O4 1.697480 1_455
C0 O4 1.257412 1_555
C0 O0 1.281431 1_655
C1 O5 1.257412 1_555
C1 O1 1.281431 1_555
C2 O6 1.257412 1_555
C2 O2 1.281431 1_555
C3 O7 1.257412 1_555
C3 O3 1.281431 1_455
N0 Pt0 2.068850 1_565
N1 Pt0 2.068850 1_555
N2 Pt0 2.068850 1_556
N3 Pt0 2.068850 1_566
O0 Zn0 2.117960 1_556
O1 Zn0 2.117960 1_656
O2 Zn0 2.117960 1_555
O3 Zn0 2.117960 1_655
O8 Zn0 2.117013 1_555
O9 Zn0 2.117013 1_555
