# generated using pymatgen
data_BeH4SO4
_symmetry_space_group_name_H-M   'P 1'
_cell_length_a   6.51842680
_cell_length_b   6.51842680
_cell_length_c   6.51842680
_cell_angle_alpha   124.01789886
_cell_angle_beta   102.72513087
_cell_angle_gamma   102.72513087
_symmetry_Int_Tables_number   1
_chemical_formula_structural   BeH4SO4
_chemical_formula_sum   'Be2 H8 S2 O8'
_cell_volume   202.71320478
_cell_formula_units_Z   2
loop_
 _symmetry_equiv_pos_site_id
 _symmetry_equiv_pos_as_xyz
  1  'x, y, z'
loop_
 _atom_site_type_symbol
 _atom_site_label
 _atom_site_symmetry_multiplicity
 _atom_site_fract_x
 _atom_site_fract_y
 _atom_site_fract_z
 _atom_site_occupancy
  Be  Be0  1  0.50000000  0.00000000  0.50000000  1
  Be  Be1  1  0.50000000  0.50000000  0.00000000  1
  H  H0  1  0.25842500  0.80995700  0.30995700  1
  H  H1  1  0.74157500  0.19004300  0.69004300  1
  H  H2  1  0.74157500  0.05153200  0.55153200  1
  H  H3  1  0.50000000  0.55153200  0.80995700  1
  H  H4  1  0.50000000  0.69004300  0.94846800  1
  H  H5  1  0.25842500  0.94846800  0.44846800  1
  H  H6  1  0.50000000  0.44846800  0.19004300  1
  H  H7  1  0.50000000  0.30995700  0.05153200  1
  S  S0  1  0.00000000  0.00000000  0.00000000  1
  S  S1  1  0.00000000  0.50000000  0.50000000  1
  O  O0  1  0.74197400  0.91067900  0.83129500  1
  O  O1  1  0.25802600  0.08932100  0.16870500  1
  O  O2  1  0.07938400  0.16870500  0.91067900  1
  O  O3  1  0.92061600  0.58932100  0.33129500  1
  O  O4  1  0.92061600  0.83129500  0.08932100  1
  O  O5  1  0.07938400  0.41067900  0.66870500  1
  O  O6  1  0.74197400  0.33129500  0.41067900  1
  O  O7  1  0.25802600  0.66870500  0.58932100  1
loop_
_geom_bond_atom_site_label_1
_geom_bond_atom_site_label_2
_geom_bond_distance
_geom_bond_site_symmetry_2
Be0 H2 1.453619 1_555
Be0 H1 1.453619 1_555
Be0 H5 1.453619 1_545
Be0 H0 1.453619 1_545
Be1 H7 1.453619 1_555
Be1 H6 1.453619 1_555
Be1 H4 1.453619 1_554
Be1 H3 1.453619 1_554
H0 H5 0.847498 1_555
H1 H2 0.847498 1_555
H3 H4 0.847498 1_555
H6 H7 0.847498 1_555
O0 S0 1.553874 1_666
O1 S0 1.553874 1_555
O2 S0 1.553874 1_556
O3 S1 1.553874 1_655
O4 S0 1.553874 1_665
O5 S1 1.553874 1_555
O6 S1 1.553874 1_655
O7 S1 1.553874 1_555
