# generated using pymatgen
data_RbMg6Ga
_symmetry_space_group_name_H-M   'P 1'
_cell_length_a   6.74479806
_cell_length_b   6.74479806
_cell_length_c   5.26118200
_cell_angle_alpha   90.00000000
_cell_angle_beta   90.00000000
_cell_angle_gamma   117.80642839
_symmetry_Int_Tables_number   1
_chemical_formula_structural   RbMg6Ga
_chemical_formula_sum   'Rb1 Mg6 Ga1'
_cell_volume   211.70598146
_cell_formula_units_Z   1
loop_
 _symmetry_equiv_pos_site_id
 _symmetry_equiv_pos_as_xyz
  1  'x, y, z'
loop_
 _atom_site_type_symbol
 _atom_site_label
 _atom_site_symmetry_multiplicity
 _atom_site_fract_x
 _atom_site_fract_y
 _atom_site_fract_z
 _atom_site_occupancy
  Rb  Rb0  1  0.83505200  0.16494800  0.50000000  1
  Mg  Mg0  1  0.33686800  0.17597800  0.50000000  1
  Mg  Mg1  1  0.82402200  0.66313200  0.50000000  1
  Mg  Mg2  1  0.19044100  0.35717300  0.00000000  1
  Mg  Mg3  1  0.64282700  0.80955900  0.00000000  1
  Mg  Mg4  1  0.65240900  0.34759100  0.00000000  1
  Mg  Mg5  1  0.16526200  0.83473800  0.00000000  1
  Ga  Ga0  1  0.35312300  0.64687700  0.50000000  1
loop_
_geom_bond_atom_site_label_1
_geom_bond_atom_site_label_2
_geom_bond_distance
_geom_bond_site_symmetry_2
Mg0 Mg5 3.327404 1_545
Mg0 Mg5 3.327404 1_546
Mg0 Rb0 3.350590 1_455
Mg0 Rb0 3.395492 1_555
Mg1 Mg5 3.327404 1_656
Mg1 Mg5 3.327404 1_655
Mg1 Rb0 3.350590 1_565
Mg1 Rb0 3.395492 1_555
Mg2 Mg5 3.303718 1_555
Mg2 Rb0 3.383375 1_454
Mg2 Rb0 3.383375 1_455
Mg2 Mg5 3.447771 1_545
Mg3 Mg5 3.303718 1_555
Mg3 Rb0 3.383375 1_565
Mg3 Rb0 3.383375 1_564
Mg3 Mg5 3.447771 1_655
Mg4 Rb0 3.372084 1_554
Mg4 Rb0 3.372084 1_555
Mg4 Mg5 3.486751 1_655
Mg4 Mg5 3.486751 1_545
Ga0 Mg1 3.126479 1_555
Ga0 Mg0 3.126479 1_555
Ga0 Mg3 3.153055 1_555
Ga0 Mg2 3.153055 1_556
Ga0 Mg3 3.153055 1_556
Ga0 Mg2 3.153055 1_555
Ga0 Mg5 3.410118 1_555
Ga0 Mg5 3.410118 1_556
Ga0 Rb0 3.489837 1_455
Ga0 Rb0 3.489837 1_565
