# generated using pymatgen
data_Nd2Be2GeO7
_symmetry_space_group_name_H-M   'P 1'
_cell_length_a   7.63068300
_cell_length_b   7.63068300
_cell_length_c   4.92897100
_cell_angle_alpha   90.00000000
_cell_angle_beta   90.00000000
_cell_angle_gamma   90.00000000
_symmetry_Int_Tables_number   1
_chemical_formula_structural   Nd2Be2GeO7
_chemical_formula_sum   'Nd4 Be4 Ge2 O14'
_cell_volume   287.00078670
_cell_formula_units_Z   2
loop_
 _symmetry_equiv_pos_site_id
 _symmetry_equiv_pos_as_xyz
  1  'x, y, z'
loop_
 _atom_site_type_symbol
 _atom_site_label
 _atom_site_symmetry_multiplicity
 _atom_site_fract_x
 _atom_site_fract_y
 _atom_site_fract_z
 _atom_site_occupancy
  Nd  Nd0  1  0.15953300  0.34046700  0.50543800  1
  Nd  Nd1  1  0.84046700  0.65953300  0.50543800  1
  Nd  Nd2  1  0.65953300  0.15953300  0.49456200  1
  Nd  Nd3  1  0.34046700  0.84046700  0.49456200  1
  Be  Be0  1  0.63263100  0.86736900  0.95775300  1
  Be  Be1  1  0.36736900  0.13263100  0.95775300  1
  Be  Be2  1  0.13263100  0.63263100  0.04224700  1
  Be  Be3  1  0.86736900  0.36736900  0.04224700  1
  Ge  Ge0  1  0.00000000  0.00000000  0.00000000  1
  Ge  Ge1  1  0.50000000  0.50000000  0.00000000  1
  O  O0  1  0.00000000  0.50000000  0.17574600  1
  O  O1  1  0.50000000  0.00000000  0.82425400  1
  O  O2  1  0.64134000  0.85866000  0.27906100  1
  O  O3  1  0.35866000  0.14134000  0.27906100  1
  O  O4  1  0.14134000  0.64134000  0.72093900  1
  O  O5  1  0.85866000  0.35866000  0.72093900  1
  O  O6  1  0.07695900  0.82637600  0.20539700  1
  O  O7  1  0.92304100  0.17362400  0.20539700  1
  O  O8  1  0.17362400  0.07695900  0.79460300  1
  O  O9  1  0.42304100  0.32637600  0.79460300  1
  O  O10  1  0.82637600  0.92304100  0.79460300  1
  O  O11  1  0.57695900  0.67362400  0.79460300  1
  O  O12  1  0.32637600  0.57695900  0.20539700  1
  O  O13  1  0.67362400  0.42304100  0.20539700  1
loop_
_geom_bond_atom_site_label_1
_geom_bond_atom_site_label_2
_geom_bond_distance
_geom_bond_site_symmetry_2
Nd0 O0 2.367409 1_555
Nd0 O3 2.421287 1_555
Nd0 O8 2.467002 1_555
Nd0 O9 2.467002 1_555
Nd0 O5 2.533484 1_455
Nd0 O4 2.533484 1_555
Nd0 O7 2.657920 1_455
Nd0 O12 2.657920 1_555
Nd1 O0 2.367409 1_655
Nd1 O2 2.421287 1_555
Nd1 O11 2.467002 1_555
Nd1 O10 2.467002 1_555
Nd1 O5 2.533484 1_555
Nd1 O4 2.533484 1_655
Nd1 O13 2.657920 1_555
Nd1 O6 2.657920 1_655
Nd2 O1 2.367409 1_555
Nd2 O5 2.421287 1_555
Nd2 O7 2.467002 1_555
Nd2 O13 2.467002 1_555
Nd2 O2 2.533484 1_545
Nd2 O3 2.533484 1_555
Nd2 O10 2.657920 1_545
Nd2 O9 2.657920 1_555
Nd3 O1 2.367409 1_565
Nd3 O4 2.421287 1_555
Nd3 O6 2.467002 1_555
Nd3 O12 2.467002 1_555
Nd3 O3 2.533484 1_565
Nd3 O2 2.533484 1_555
Nd3 O8 2.657920 1_565
Nd3 O11 2.657920 1_555
Be0 O1 1.575288 1_565
Be0 O2 1.586504 1_556
Be0 O11 1.735751 1_555
Be0 O10 1.735751 1_555
Be1 O1 1.575288 1_555
Be1 O3 1.586504 1_556
Be1 O8 1.735751 1_555
Be1 O9 1.735751 1_555
Be2 O0 1.575288 1_555
Be2 O4 1.586504 1_554
Be2 O12 1.735751 1_555
Be2 O6 1.735751 1_555
Be3 O0 1.575288 1_655
Be3 O5 1.586504 1_554
Be3 O13 1.735751 1_555
Be3 O7 1.735751 1_555
Ge0 O7 1.767792 1_455
Ge0 O6 1.767792 1_545
Ge0 O10 1.767792 1_444
Ge0 O8 1.767792 1_554
Ge1 O13 1.767792 1_555
Ge1 O12 1.767792 1_555
Ge1 O9 1.767792 1_554
Ge1 O11 1.767792 1_554
