# generated using pymatgen
data_Fe2Cu3(CN)12
_symmetry_space_group_name_H-M   'P 1'
_cell_length_a   7.48102004
_cell_length_b   10.58586200
_cell_length_c   7.48102004
_cell_angle_alpha   90.00000000
_cell_angle_beta   90.00000000
_cell_angle_gamma   90.00000000
_symmetry_Int_Tables_number   1
_chemical_formula_structural   Fe2Cu3(CN)12
_chemical_formula_sum   'Fe2 Cu3 C12 N12'
_cell_volume   592.44476227
_cell_formula_units_Z   1
loop_
 _symmetry_equiv_pos_site_id
 _symmetry_equiv_pos_as_xyz
  1  'x, y, z'
loop_
 _atom_site_type_symbol
 _atom_site_label
 _atom_site_symmetry_multiplicity
 _atom_site_fract_x
 _atom_site_fract_y
 _atom_site_fract_z
 _atom_site_occupancy
  Fe  Fe0  1  0.00000000  0.99731400  0.00000000  1
  Fe  Fe1  1  0.50000000  0.50268600  0.50000000  1
  Cu  Cu0  1  0.00000000  0.50099100  0.00000000  1
  Cu  Cu1  1  0.50000000  0.99900900  0.50000000  1
  Cu  Cu2  1  0.50000000  0.25000000  0.00000000  1
  C  C0  1  0.19381200  0.49963700  0.80803300  1
  C  C1  1  0.69196700  0.00036300  0.30618800  1
  C  C2  1  0.00000000  0.30666100  0.00000000  1
  C  C3  1  0.50000000  0.80692700  0.50000000  1
  C  C4  1  0.19381200  0.49963700  0.19196700  1
  C  C5  1  0.69196700  0.00036300  0.69381200  1
  C  C6  1  0.00000000  0.69307300  0.00000000  1
  C  C7  1  0.50000000  0.19333900  0.50000000  1
  C  C8  1  0.80618800  0.49963700  0.80803300  1
  C  C9  1  0.30803300  0.00036300  0.30618800  1
  C  C10  1  0.80618800  0.49963700  0.19196700  1
  C  C11  1  0.30803300  0.00036300  0.69381200  1
  N  N0  1  0.30544900  0.49762100  0.69829500  1
  N  N1  1  0.80170500  0.00237900  0.19455100  1
  N  N2  1  0.00000000  0.19589800  0.00000000  1
  N  N3  1  0.50000000  0.69642100  0.50000000  1
  N  N4  1  0.30544900  0.49762100  0.30170500  1
  N  N5  1  0.80170500  0.00237900  0.80544900  1
  N  N6  1  0.00000000  0.80357900  0.00000000  1
  N  N7  1  0.50000000  0.30410200  0.50000000  1
  N  N8  1  0.69455100  0.49762100  0.69829500  1
  N  N9  1  0.19829500  0.00237900  0.19455100  1
  N  N10  1  0.69455100  0.49762100  0.30170500  1
  N  N11  1  0.19829500  0.00237900  0.80544900  1
loop_
_geom_bond_atom_site_label_1
_geom_bond_atom_site_label_2
_geom_bond_distance
_geom_bond_site_symmetry_2
Fe0 N6 2.050852 1_555
Fe0 N5 2.078894 1_464
Fe0 N1 2.078894 1_465
Fe0 N11 2.078894 1_564
Fe0 N9 2.078894 1_565
Fe0 N2 2.102183 1_565
Fe1 N3 2.050852 1_555
Fe1 N10 2.078894 1_555
Fe1 N8 2.078894 1_555
Fe1 N4 2.078894 1_555
Fe1 N0 2.078894 1_555
Fe1 N7 2.102183 1_555
C0 N0 1.171285 1_555
C0 Cu0 2.040798 1_556
C1 N1 1.171285 1_555
C1 Cu1 2.040798 1_545
C2 N2 1.172522 1_555
C2 Cu0 2.057151 1_555
C3 N3 1.169801 1_555
C3 Cu1 2.033354 1_555
C4 N4 1.171285 1_555
C4 Cu0 2.040798 1_555
C5 N5 1.171285 1_555
C5 Cu1 2.040798 1_545
C6 N6 1.169801 1_555
C6 Cu0 2.033354 1_555
C7 N7 1.172522 1_555
C7 Cu1 2.057151 1_545
C8 N8 1.171285 1_555
C8 Cu0 2.040798 1_656
C9 N9 1.171285 1_555
C9 Cu1 2.040798 1_545
C10 N10 1.171285 1_555
C10 Cu0 2.040798 1_655
C11 N11 1.171285 1_555
C11 Cu1 2.040798 1_545
