# generated using pymatgen
data_Li2NbCo3O8
_symmetry_space_group_name_H-M   'P 1'
_cell_length_a   6.05189774
_cell_length_b   6.05189774
_cell_length_c   6.05189778
_cell_angle_alpha   59.56466542
_cell_angle_beta   59.56466542
_cell_angle_gamma   59.56466334
_symmetry_Int_Tables_number   1
_chemical_formula_structural   Li2NbCo3O8
_chemical_formula_sum   'Li2 Nb1 Co3 O8'
_cell_volume   155.18159544
_cell_formula_units_Z   1
loop_
 _symmetry_equiv_pos_site_id
 _symmetry_equiv_pos_as_xyz
  1  'x, y, z'
loop_
 _atom_site_type_symbol
 _atom_site_label
 _atom_site_symmetry_multiplicity
 _atom_site_fract_x
 _atom_site_fract_y
 _atom_site_fract_z
 _atom_site_occupancy
  Li  Li0  1  0.87525200  0.87525200  0.87525200  1
  Li  Li1  1  0.12474800  0.12474800  0.12474800  1
  Nb  Nb0  1  0.50000000  0.50000000  0.50000000  1
  Co  Co0  1  0.50000000  0.50000000  0.00000000  1
  Co  Co1  1  0.50000000  0.00000000  0.50000000  1
  Co  Co2  1  0.00000000  0.50000000  0.50000000  1
  O  O0  1  0.73734000  0.28012100  0.73734000  1
  O  O1  1  0.73734000  0.73734000  0.28012100  1
  O  O2  1  0.26696400  0.26696400  0.26696400  1
  O  O3  1  0.28012100  0.73734000  0.73734000  1
  O  O4  1  0.71987900  0.26266000  0.26266000  1
  O  O5  1  0.73303600  0.73303600  0.73303600  1
  O  O6  1  0.26266000  0.26266000  0.71987900  1
  O  O7  1  0.26266000  0.71987900  0.26266000  1
loop_
_geom_bond_atom_site_label_1
_geom_bond_atom_site_label_2
_geom_bond_distance
_geom_bond_site_symmetry_2
Li0 O0 1.989674 1_565
Li0 O3 1.989674 1_655
Li0 O1 1.989674 1_556
Li0 O5 2.115128 1_555
Li1 O7 1.989674 1_545
Li1 O4 1.989674 1_455
Li1 O6 1.989674 1_554
Li1 O2 2.115128 1_555
Nb0 O7 2.028375 1_555
Nb0 O0 2.028375 1_555
Nb0 O4 2.028375 1_555
Nb0 O3 2.028375 1_555
Nb0 O6 2.028375 1_555
Nb0 O1 2.028375 1_555
Co0 O2 1.996594 1_555
Co0 O5 1.996594 1_554
Co0 O7 2.062529 1_555
Co0 O4 2.062529 1_555
Co0 O3 2.062529 1_554
Co0 O0 2.062529 1_554
Co1 O5 1.996594 1_545
Co1 O2 1.996594 1_555
Co1 O6 2.062529 1_555
Co1 O1 2.062529 1_545
Co1 O3 2.062529 1_545
Co1 O4 2.062529 1_555
Co2 O5 1.996594 1_455
Co2 O2 1.996594 1_555
Co2 O6 2.062529 1_555
Co2 O1 2.062529 1_455
Co2 O0 2.062529 1_455
Co2 O7 2.062529 1_555
