# generated using pymatgen
data_Mg2Ti9O13
_symmetry_space_group_name_H-M   'P 1'
_cell_length_a   5.15086127
_cell_length_b   5.15086127
_cell_length_c   16.56438530
_cell_angle_alpha   81.06098511
_cell_angle_beta   81.06098511
_cell_angle_gamma   33.28917417
_symmetry_Int_Tables_number   1
_chemical_formula_structural   Mg2Ti9O13
_chemical_formula_sum   'Mg2 Ti9 O13'
_cell_volume   238.01956419
_cell_formula_units_Z   1
loop_
 _symmetry_equiv_pos_site_id
 _symmetry_equiv_pos_as_xyz
  1  'x, y, z'
loop_
 _atom_site_type_symbol
 _atom_site_label
 _atom_site_symmetry_multiplicity
 _atom_site_fract_x
 _atom_site_fract_y
 _atom_site_fract_z
 _atom_site_occupancy
  Mg  Mg0  1  0.78350400  0.78350400  0.22679400  1
  Mg  Mg1  1  0.21649600  0.21649600  0.77320600  1
  Ti  Ti0  1  0.50000000  0.50000000  0.50000000  1
  Ti  Ti1  1  0.34498100  0.34498100  0.03616200  1
  Ti  Ti2  1  0.65501900  0.65501900  0.96383800  1
  Ti  Ti3  1  0.23611400  0.23611400  0.42512700  1
  Ti  Ti4  1  0.76388600  0.76388600  0.57487300  1
  Ti  Ti5  1  0.06687300  0.06687300  0.11727600  1
  Ti  Ti6  1  0.93312700  0.93312700  0.88272400  1
  Ti  Ti7  1  0.00911500  0.00911500  0.33545400  1
  Ti  Ti8  1  0.99088500  0.99088500  0.66454600  1
  O  O0  1  0.00000000  0.00000000  0.00000000  1
  O  O1  1  0.12903400  0.12903400  0.22968600  1
  O  O2  1  0.87096600  0.87096600  0.77031400  1
  O  O3  1  0.71394400  0.71394400  0.08819200  1
  O  O4  1  0.28605600  0.28605600  0.91180800  1
  O  O5  1  0.41689500  0.41689500  0.14827700  1
  O  O6  1  0.58310500  0.58310500  0.85172300  1
  O  O7  1  0.37113700  0.37113700  0.31136700  1
  O  O8  1  0.62886300  0.62886300  0.68863300  1
  O  O9  1  0.62716400  0.62716400  0.37674200  1
  O  O10  1  0.37283600  0.37283600  0.62325800  1
  O  O11  1  0.87723800  0.87723800  0.45055700  1
  O  O12  1  0.12276200  0.12276200  0.54944300  1
loop_
_geom_bond_atom_site_label_1
_geom_bond_atom_site_label_2
_geom_bond_distance
_geom_bond_site_symmetry_2
Mg0 O1 2.116567 1_655
Mg0 O1 2.116567 1_565
Mg0 O5 2.246387 1_655
Mg0 O5 2.246387 1_565
Mg0 O7 2.297918 1_655
Mg0 O7 2.297918 1_565
Mg0 O3 2.500719 1_555
Mg0 O9 2.703183 1_555
Mg1 O2 2.116567 1_545
Mg1 O2 2.116567 1_455
Mg1 O6 2.246387 1_455
Mg1 O6 2.246387 1_545
Mg1 O8 2.297918 1_455
Mg1 O8 2.297918 1_545
Mg1 O4 2.500719 1_555
Mg1 O10 2.703183 1_555
O0 Ti2 2.139938 1_544
O0 Ti1 2.139938 1_455
O0 Ti2 2.139938 1_454
O0 Ti1 2.139938 1_545
O0 Ti5 2.150642 1_555
O0 Ti6 2.150642 1_444
O1 Ti7 1.948786 1_555
O1 Ti5 2.052809 1_555
O2 Ti8 1.948786 1_555
O2 Ti6 2.052809 1_555
O3 Ti1 2.056872 1_655
O3 Ti1 2.056872 1_565
O3 Ti5 2.071030 1_565
O3 Ti5 2.071030 1_655
O3 Ti2 2.229305 1_554
O4 Ti2 2.056872 1_455
O4 Ti2 2.056872 1_545
O4 Ti6 2.071030 1_545
O4 Ti6 2.071030 1_455
O4 Ti1 2.229305 1_556
O5 Ti1 2.092905 1_555
O5 Ti5 2.094077 1_655
O5 Ti5 2.094077 1_565
O6 Ti2 2.092905 1_555
O6 Ti6 2.094077 1_455
O6 Ti6 2.094077 1_545
O7 Ti7 2.089696 1_565
O7 Ti7 2.089696 1_655
O7 Ti3 2.124227 1_555
O8 Ti8 2.089696 1_545
O8 Ti8 2.089696 1_455
O8 Ti4 2.124227 1_555
O9 Ti3 2.062770 1_565
O9 Ti3 2.062770 1_655
O9 Ti7 2.064106 1_655
O9 Ti7 2.064106 1_565
O9 Ti0 2.216449 1_555
O10 Ti4 2.062770 1_545
O10 Ti4 2.062770 1_455
O10 Ti8 2.064106 1_545
O10 Ti8 2.064106 1_455
O10 Ti0 2.216449 1_555
O11 Ti3 2.117708 1_565
O11 Ti3 2.117708 1_655
O11 Ti7 2.127078 1_665
O11 Ti0 2.153491 1_655
O11 Ti0 2.153491 1_565
O11 Ti4 2.178259 1_555
O12 Ti4 2.117708 1_545
O12 Ti4 2.117708 1_455
O12 Ti8 2.127078 1_445
O12 Ti0 2.153491 1_455
O12 Ti0 2.153491 1_545
O12 Ti3 2.178259 1_555
