# generated using pymatgen
data_NaCuH28CS6(N2O7)2
_symmetry_space_group_name_H-M   'P 1'
_cell_length_a   15.64413500
_cell_length_b   6.71879800
_cell_length_c   12.55530874
_cell_angle_alpha   61.12415006
_cell_angle_beta   90.00000000
_cell_angle_gamma   90.00000000
_symmetry_Int_Tables_number   1
_chemical_formula_structural   NaCuH28CS6(N2O7)2
_chemical_formula_sum   'Na2 Cu2 H56 C2 S12 N8 O28'
_cell_volume   1155.60680493
_cell_formula_units_Z   2
loop_
 _symmetry_equiv_pos_site_id
 _symmetry_equiv_pos_as_xyz
  1  'x, y, z'
loop_
 _atom_site_type_symbol
 _atom_site_label
 _atom_site_symmetry_multiplicity
 _atom_site_fract_x
 _atom_site_fract_y
 _atom_site_fract_z
 _atom_site_occupancy
  Na  Na0  1  0.87869500  0.19855700  0.04447900  1
  Na  Na1  1  0.12130500  0.19855700  0.54447900  1
  Cu  Cu0  1  0.69442200  0.49852200  0.50022600  1
  Cu  Cu1  1  0.30557800  0.49852200  0.00022600  1
  H  H0  1  0.91079500  0.60614300  0.79882100  1
  H  H1  1  0.08920500  0.60614300  0.29882100  1
  H  H2  1  0.95594500  0.63394500  0.91464100  1
  H  H3  1  0.04405500  0.63394500  0.41464100  1
  H  H4  1  0.91713100  0.86583900  0.78828700  1
  H  H5  1  0.08286900  0.86583900  0.28828700  1
  H  H6  1  0.00695600  0.73137000  0.77785700  1
  H  H7  1  0.99304400  0.73137000  0.27785700  1
  H  H8  1  0.72940700  0.04390600  0.29546300  1
  H  H9  1  0.27059300  0.04390600  0.79546300  1
  H  H10  1  0.72818600  0.29380500  0.29733300  1
  H  H11  1  0.27181400  0.29380500  0.79733300  1
  H  H12  1  0.73225100  0.04602000  0.43067100  1
  H  H13  1  0.26774900  0.04602000  0.93067100  1
  H  H14  1  0.64028100  0.12259300  0.34588000  1
  H  H15  1  0.35971900  0.12259300  0.84588000  1
  H  H16  1  0.60579000  0.86266000  0.02962800  1
  H  H17  1  0.39421000  0.86266000  0.52962800  1
  H  H18  1  0.69129800  0.98250300  0.06239400  1
  H  H19  1  0.30870200  0.98250300  0.56239400  1
  H  H20  1  0.65671600  0.09142200  0.91669300  1
  H  H21  1  0.34328400  0.09142200  0.41669300  1
  H  H22  1  0.59680000  0.11920900  0.02105500  1
  H  H23  1  0.40320000  0.11920900  0.52105500  1
  H  H24  1  0.65649000  0.87267800  0.64354000  1
  H  H25  1  0.34351000  0.87267800  0.14354000  1
  H  H26  1  0.56259100  0.00075000  0.64530500  1
  H  H27  1  0.43740900  0.00075000  0.14530500  1
  H  H28  1  0.56014500  0.76100900  0.63345100  1
  H  H29  1  0.43985500  0.76100900  0.13345100  1
  H  H30  1  0.59076300  0.74764500  0.76616600  1
  H  H31  1  0.40923700  0.74764500  0.26616600  1
  H  H32  1  0.06692700  0.28998400  0.97366000  1
  H  H33  1  0.93307300  0.28998400  0.47366000  1
  H  H34  1  0.98504600  0.99492500  0.90268300  1
  H  H35  1  0.01495400  0.99492500  0.40268300  1
  H  H36  1  0.08476500  0.92321100  0.98203100  1
  H  H37  1  0.91523500  0.92321100  0.48203100  1
  H  H38  1  0.07698800  0.16601400  0.83338800  1
  H  H39  1  0.92301200  0.16601400  0.33338800  1
  H  H40  1  0.93614900  0.56186600  0.12488400  1
  H  H41  1  0.06385100  0.56186600  0.62488400  1
  H  H42  1  0.02022800  0.44488100  0.11786700  1
  H  H43  1  0.97977200  0.44488100  0.61786700  1
  H  H44  1  0.72560700  0.52390900  0.95079100  1
  H  H45  1  0.27439300  0.52390900  0.45079100  1
  H  H46  1  0.77854600  0.54864200  0.04724300  1
  H  H47  1  0.22145400  0.54864200  0.54724300  1
  H  H48  1  0.79382600  0.76883000  0.62702500  1
  H  H49  1  0.20617400  0.76883000  0.12702500  1
  H  H50  1  0.79185700  0.00403100  0.62835000  1
  H  H51  1  0.20814300  0.00403100  0.12835000  1
  H  H52  1  0.46460500  0.31671800  0.84435000  1
  H  H53  1  0.53539500  0.31671800  0.34435000  1
  H  H54  1  0.48517700  0.19744800  0.76643000  1
  H  H55  1  0.51482300  0.19744800  0.26643000  1
  C  C0  1  0.04337900  0.06421800  0.92018200  1
  C  C1  1  0.95662100  0.06421800  0.42018200  1
  S  S0  1  0.57780200  0.60355900  0.38937700  1
  S  S1  1  0.42219800  0.60355900  0.88937700  1
  S  S2  1  0.69103200  0.32065600  0.70132400  1
  S  S3  1  0.30896800  0.32065600  0.20132400  1
  S  S4  1  0.82337400  0.56746800  0.41785100  1
  S  S5  1  0.17662600  0.56746800  0.91785100  1
  S  S6  1  0.47598400  0.50556800  0.50879300  1
  S  S7  1  0.52401600  0.50556800  0.00879300  1
  S  S8  1  0.81717500  0.26576200  0.75566500  1
  S  S9  1  0.18282500  0.26576200  0.25566500  1
  S  S10  1  0.81249700  0.72265500  0.23248000  1
  S  S11  1  0.18750300  0.72265500  0.73248000  1
  N  N0  1  0.94801100  0.70965200  0.82084300  1
  N  N1  1  0.05198900  0.70965200  0.32084300  1
  N  N2  1  0.70776100  0.12538200  0.34265900  1
  N  N3  1  0.29223900  0.12538200  0.84265900  1
  N  N4  1  0.63812500  0.01333400  0.00712800  1
  N  N5  1  0.36187500  0.01333400  0.50712800  1
  N  N6  1  0.59237500  0.84635500  0.67170800  1
  N  N7  1  0.40762500  0.84635500  0.17170800  1
  O  O0  1  0.47725700  0.62860700  0.58029600  1
  O  O1  1  0.52274300  0.62860700  0.08029600  1
  O  O2  1  0.39824200  0.56534800  0.43067300  1
  O  O3  1  0.60175800  0.56534800  0.93067300  1
  O  O4  1  0.47986400  0.25466900  0.59217400  1
  O  O5  1  0.52013600  0.25466900  0.09217400  1
  O  O6  1  0.86104800  0.49171000  0.70716600  1
  O  O7  1  0.13895200  0.49171000  0.20716600  1
  O  O8  1  0.85887500  0.13297900  0.70264400  1
  O  O9  1  0.14112500  0.13297900  0.20264400  1
  O  O10  1  0.81755200  0.13995900  0.88949800  1
  O  O11  1  0.18244800  0.13995900  0.38949800  1
  O  O12  1  0.76343100  0.57995700  0.19359700  1
  O  O13  1  0.23656900  0.57995700  0.69359700  1
  O  O14  1  0.90155500  0.76151800  0.18211400  1
  O  O15  1  0.09844500  0.76151800  0.68211400  1
  O  O16  1  0.76972500  0.94850600  0.18773400  1
  O  O17  1  0.23027500  0.94850600  0.68773400  1
  O  O18  1  0.01685900  0.20265200  0.97224000  1
  O  O19  1  0.98314100  0.20265200  0.47224000  1
  O  O20  1  0.96066800  0.46977400  0.09020700  1
  O  O21  1  0.03933200  0.46977400  0.59020700  1
  O  O22  1  0.78415200  0.51009000  0.98127600  1
  O  O23  1  0.21584800  0.51009000  0.48127600  1
  O  O24  1  0.76361400  0.91588600  0.59370200  1
  O  O25  1  0.23638600  0.91588600  0.09370200  1
  O  O26  1  0.46972900  0.16588500  0.84909600  1
  O  O27  1  0.53027100  0.16588500  0.34909600  1
loop_
_geom_bond_atom_site_label_1
_geom_bond_atom_site_label_2
_geom_bond_distance
_geom_bond_site_symmetry_2
Na0 O18 2.339053 1_654
Na0 O22 2.365215 1_554
Na0 O10 2.365615 1_554
Na0 O16 2.458700 1_545
Na0 O20 2.511021 1_555
Na0 O14 2.614490 1_545
Na1 O19 2.339053 1_455
Na1 O23 2.365215 1_555
Na1 O11 2.365615 1_555
Na1 O17 2.458700 1_545
Na1 O21 2.511021 1_555
Na1 O15 2.614490 1_545
Cu0 S0 2.194283 1_555
Cu0 S4 2.211604 1_555
Cu0 S2 2.211697 1_555
Cu1 S1 2.194283 1_554
Cu1 S5 2.211604 1_554
Cu1 S3 2.211697 1_555
H0 N0 1.041535 1_555
H1 N1 1.041535 1_555
H2 N0 1.040419 1_555
H3 N1 1.040419 1_555
H4 N0 1.042780 1_555
H5 N1 1.042780 1_555
H6 N0 1.042525 1_455
H7 N1 1.042525 1_655
H8 N2 1.038636 1_555
H9 N3 1.038636 1_555
H10 N2 1.041397 1_555
H11 N3 1.041397 1_555
H12 N2 1.040716 1_555
H13 N3 1.040716 1_555
H14 N2 1.056260 1_555
H15 N3 1.056260 1_555
H16 N4 1.041311 1_565
H17 N5 1.041311 1_565
H18 N4 1.038039 1_565
H19 N5 1.038039 1_565
H20 N4 1.036203 1_556
H21 N5 1.036203 1_555
H22 N4 1.036671 1_555
H23 N5 1.036671 1_555
H24 N6 1.049762 1_555
H25 N7 1.049762 1_555
H26 N6 1.034872 1_545
H27 N7 1.034872 1_545
H28 N6 1.039123 1_555
H29 N7 1.039123 1_555
H30 N6 1.042739 1_555
H31 N7 1.042739 1_555
H32 O18 0.983986 1_555
H33 O19 0.983986 1_555
H40 O20 0.989809 1_555
H41 O21 0.989809 1_555
H42 O20 0.980134 1_455
H43 O21 0.980134 1_655
H44 O22 0.979613 1_555
H45 O23 0.979613 1_555
H46 O22 0.983850 1_554
H47 O23 0.983850 1_555
H48 O24 0.987625 1_555
H49 O25 0.987625 1_555
H50 O24 0.991977 1_545
H51 O25 0.991977 1_545
H52 O26 0.989275 1_555
H53 O27 0.989275 1_555
H54 O26 0.983883 1_555
H55 O27 0.983883 1_555
C0 H34 1.093890 1_445
C0 H36 1.099641 1_545
C0 H38 1.100858 1_555
C0 O18 1.432334 1_555
C1 H35 1.093890 1_645
C1 H37 1.099641 1_545
C1 H39 1.100858 1_555
C1 O19 1.432334 1_555
S0 S6 2.065232 1_555
S1 S7 2.065232 1_556
S2 S8 2.062228 1_555
S3 S9 2.062228 1_555
S10 S4 2.046726 1_555
S11 S5 2.046726 1_555
O0 S6 1.485432 1_555
O1 S7 1.485432 1_555
O2 S6 1.490639 1_555
O3 S7 1.490639 1_556
O4 S6 1.495626 1_555
O5 S7 1.495626 1_555
O6 S8 1.501226 1_555
O7 S9 1.501226 1_555
O8 S8 1.496075 1_555
O9 S9 1.496075 1_555
O10 S8 1.471798 1_555
O11 S9 1.471798 1_555
O12 S10 1.482838 1_555
O13 S11 1.482838 1_555
O14 S10 1.499897 1_555
O15 S11 1.499897 1_555
O16 S10 1.497542 1_555
O17 S11 1.497542 1_555
