# generated using pymatgen
data_NaGa2P2O9
_symmetry_space_group_name_H-M   'P 1'
_cell_length_a   9.12281100
_cell_length_b   9.06720000
_cell_length_c   9.93316872
_cell_angle_alpha   59.10007327
_cell_angle_beta   90.00000000
_cell_angle_gamma   90.00000000
_symmetry_Int_Tables_number   1
_chemical_formula_structural   NaGa2P2O9
_chemical_formula_sum   'Na4 Ga8 P8 O36'
_cell_volume   705.03415593
_cell_formula_units_Z   4
loop_
 _symmetry_equiv_pos_site_id
 _symmetry_equiv_pos_as_xyz
  1  'x, y, z'
loop_
 _atom_site_type_symbol
 _atom_site_label
 _atom_site_symmetry_multiplicity
 _atom_site_fract_x
 _atom_site_fract_y
 _atom_site_fract_z
 _atom_site_occupancy
  Na  Na0  1  0.62054600  0.70731400  0.02105900  1
  Na  Na1  1  0.87945400  0.70731400  0.52105900  1
  Na  Na2  1  0.37945400  0.29268600  0.97894100  1
  Na  Na3  1  0.12054600  0.29268600  0.47894100  1
  Ga  Ga0  1  0.91330700  0.97258600  0.87931800  1
  Ga  Ga1  1  0.58669300  0.97258600  0.37931800  1
  Ga  Ga2  1  0.08669300  0.02741400  0.12068200  1
  Ga  Ga3  1  0.41330700  0.02741400  0.62068200  1
  Ga  Ga4  1  0.73286200  0.33773300  0.43013700  1
  Ga  Ga5  1  0.76713800  0.33773300  0.93013700  1
  Ga  Ga6  1  0.26713800  0.66226700  0.56986300  1
  Ga  Ga7  1  0.23286200  0.66226700  0.06986300  1
  P  P0  1  0.88745600  0.16890900  0.26926100  1
  P  P1  1  0.61254400  0.16890900  0.76926100  1
  P  P2  1  0.11254400  0.83109100  0.73073900  1
  P  P3  1  0.38745600  0.83109100  0.23073900  1
  P  P4  1  0.45267900  0.33720400  0.26672000  1
  P  P5  1  0.04732100  0.33720400  0.76672000  1
  P  P6  1  0.54732100  0.66279600  0.73328000  1
  P  P7  1  0.95267900  0.66279600  0.23328000  1
  O  O0  1  0.11007000  0.90817100  0.98935300  1
  O  O1  1  0.38993000  0.90817100  0.48935300  1
  O  O2  1  0.88993000  0.09182900  0.01064700  1
  O  O3  1  0.61007000  0.09182900  0.51064700  1
  O  O4  1  0.86412900  0.74769400  0.07759300  1
  O  O5  1  0.63587100  0.74769400  0.57759300  1
  O  O6  1  0.13587100  0.25230600  0.92240700  1
  O  O7  1  0.36412900  0.25230600  0.42240700  1
  O  O8  1  0.99073800  0.20333900  0.72613800  1
  O  O9  1  0.50926200  0.20333900  0.22613800  1
  O  O10  1  0.00926200  0.79666100  0.27386200  1
  O  O11  1  0.49073800  0.79666100  0.77386200  1
  O  O12  1  0.70884200  0.00588700  0.82813100  1
  O  O13  1  0.79115800  0.00588700  0.32813100  1
  O  O14  1  0.29115800  0.99411300  0.17186900  1
  O  O15  1  0.20884200  0.99411300  0.67186900  1
  O  O16  1  0.95457100  0.87368900  0.75161000  1
  O  O17  1  0.54542900  0.87368900  0.25161000  1
  O  O18  1  0.04542900  0.12631100  0.24839000  1
  O  O19  1  0.45457100  0.12631100  0.74839000  1
  O  O20  1  0.89027500  0.22702200  0.39276100  1
  O  O21  1  0.60972500  0.22702200  0.89276100  1
  O  O22  1  0.10972500  0.77297800  0.60723900  1
  O  O23  1  0.39027500  0.77297800  0.10723900  1
  O  O24  1  0.85375000  0.53888800  0.37246900  1
  O  O25  1  0.64625000  0.53888800  0.87246900  1
  O  O26  1  0.14625000  0.46111200  0.62753100  1
  O  O27  1  0.35375000  0.46111200  0.12753100  1
  O  O28  1  0.67797000  0.32213800  0.61646600  1
  O  O29  1  0.82203000  0.32213800  0.11646600  1
  O  O30  1  0.32203000  0.67786200  0.38353400  1
  O  O31  1  0.17797000  0.67786200  0.88353400  1
  O  O32  1  0.58554900  0.44167100  0.27621300  1
  O  O33  1  0.91445100  0.44167100  0.77621300  1
  O  O34  1  0.41445100  0.55832900  0.72378700  1
  O  O35  1  0.08554900  0.55832900  0.22378700  1
loop_
_geom_bond_atom_site_label_1
_geom_bond_atom_site_label_2
_geom_bond_distance
_geom_bond_site_symmetry_2
Na0 O4 2.366132 1_555
Na0 O23 2.454341 1_555
Na0 O11 2.458619 1_554
Na0 O32 2.461122 1_555
Na0 O12 2.514329 1_564
Na0 O25 2.623116 1_554
Na1 O5 2.366132 1_555
Na1 O22 2.454341 1_655
Na1 O10 2.458619 1_655
Na1 O33 2.461122 1_555
Na1 O13 2.514329 1_565
Na1 O24 2.623116 1_555
Na2 O6 2.366132 1_555
Na2 O21 2.454341 1_555
Na2 O9 2.458619 1_556
Na2 O34 2.461122 1_555
Na2 O14 2.514329 1_546
Na2 O27 2.623116 1_556
Na3 O7 2.366132 1_555
Na3 O20 2.454341 1_455
Na3 O8 2.458619 1_455
Na3 O35 2.461122 1_555
Na3 O15 2.514329 1_545
Na3 O26 2.623116 1_555
Ga0 O12 1.916074 1_565
Ga0 O16 1.929600 1_555
Ga0 O8 1.980413 1_565
Ga0 O0 2.025399 1_655
Ga0 O4 2.028166 1_556
Ga0 O2 2.089226 1_566
Ga1 O13 1.916074 1_565
Ga1 O17 1.929600 1_555
Ga1 O9 1.980413 1_565
Ga1 O1 2.025399 1_555
Ga1 O5 2.028166 1_555
Ga1 O3 2.089226 1_565
Ga2 O14 1.916074 1_545
Ga2 O18 1.929600 1_555
Ga2 O10 1.980413 1_545
Ga2 O2 2.025399 1_455
Ga2 O6 2.028166 1_554
Ga2 O0 2.089226 1_544
Ga3 O15 1.916074 1_545
Ga3 O19 1.929600 1_555
Ga3 O11 1.980413 1_545
Ga3 O3 2.025399 1_555
Ga3 O7 2.028166 1_555
Ga3 O1 2.089226 1_545
Ga4 O28 1.851368 1_555
Ga4 O32 1.884677 1_555
Ga4 O20 1.894873 1_555
Ga4 O24 1.948836 1_555
Ga4 O3 2.243750 1_555
Ga5 O29 1.851368 1_556
Ga5 O33 1.884677 1_555
Ga5 O21 1.894873 1_555
Ga5 O25 1.948836 1_555
Ga5 O2 2.243750 1_556
Ga6 O30 1.851368 1_555
Ga6 O34 1.884677 1_555
Ga6 O22 1.894873 1_555
Ga6 O26 1.948836 1_555
Ga6 O1 2.243750 1_555
Ga7 O31 1.851368 1_554
Ga7 O35 1.884677 1_555
Ga7 O23 1.894873 1_555
Ga7 O27 1.948836 1_555
Ga7 O0 2.243750 1_554
O4 P7 1.553712 1_555
O5 P6 1.553712 1_555
O6 P5 1.553712 1_555
O7 P4 1.553712 1_555
O8 P5 1.550726 1_655
O9 P4 1.550726 1_555
O10 P7 1.550726 1_455
O11 P6 1.550726 1_555
O12 P1 1.552702 1_555
O13 P0 1.552702 1_555
O14 P3 1.552702 1_555
O15 P2 1.552702 1_555
O16 P2 1.533409 1_655
O17 P3 1.533409 1_555
O18 P0 1.533409 1_455
O19 P1 1.533409 1_555
O20 P0 1.564327 1_555
O21 P1 1.564327 1_555
O22 P2 1.564327 1_555
O23 P3 1.564327 1_555
O24 P7 1.546908 1_555
O25 P6 1.546908 1_555
O26 P5 1.546908 1_555
O27 P4 1.546908 1_555
O28 P1 1.557020 1_555
O29 P0 1.557020 1_555
O30 P3 1.557020 1_555
O31 P2 1.557020 1_555
O32 P4 1.570721 1_555
O33 P5 1.570721 1_655
O34 P6 1.570721 1_555
O35 P7 1.570721 1_455
