# generated using pymatgen
data_Ga5Ag13
_symmetry_space_group_name_H-M   'P 1'
_cell_length_a   5.77764617
_cell_length_b   15.51436324
_cell_length_c   26.73162349
_cell_angle_alpha   90.00352152
_cell_angle_beta   89.93986727
_cell_angle_gamma   90.06785623
_symmetry_Int_Tables_number   1
_chemical_formula_structural   Ga5Ag13
_chemical_formula_sum   'Ga40 Ag104'
_cell_volume   2396.12620176
_cell_formula_units_Z   8
loop_
 _symmetry_equiv_pos_site_id
 _symmetry_equiv_pos_as_xyz
  1  'x, y, z'
loop_
 _atom_site_type_symbol
 _atom_site_label
 _atom_site_symmetry_multiplicity
 _atom_site_fract_x
 _atom_site_fract_y
 _atom_site_fract_z
 _atom_site_occupancy
  Ga  Ga0_0  1  0.12418078  0.00031211  0.33343369  1
  Ga  Ga0_1  1  0.12418078  0.00031211  0.83343369  1
  Ga  Ga0_2  1  0.12418078  0.50031211  0.33343369  1
  Ga  Ga0_3  1  0.12418078  0.50031211  0.83343369  1
  Ga  Ga0_4  1  0.62418078  0.00031211  0.33343369  1
  Ga  Ga0_5  1  0.62418078  0.00031211  0.83343369  1
  Ga  Ga0_6  1  0.62418078  0.50031211  0.33343369  1
  Ga  Ga0_7  1  0.62418078  0.50031211  0.83343369  1
  Ga  Ga1_0  1  0.37524301  0.49956234  0.16596827  1
  Ga  Ga1_1  1  0.37524301  0.49956234  0.66596827  1
  Ga  Ga1_2  1  0.37524301  0.99956234  0.16596826  1
  Ga  Ga1_3  1  0.37524301  0.99956234  0.66596826  1
  Ga  Ga1_4  1  0.87524301  0.49956234  0.16596826  1
  Ga  Ga1_5  1  0.87524301  0.49956234  0.66596826  1
  Ga  Ga1_6  1  0.87524301  0.99956234  0.16596827  1
  Ga  Ga1_7  1  0.87524301  0.99956234  0.66596826  1
  Ga  Ga2_0  1  0.37661158  0.25006374  0.41751902  1
  Ga  Ga2_1  1  0.37661158  0.25006374  0.91751902  1
  Ga  Ga2_2  1  0.37661158  0.75006374  0.41751902  1
  Ga  Ga2_3  1  0.37661158  0.75006374  0.91751902  1
  Ga  Ga2_4  1  0.87661158  0.25006374  0.41751902  1
  Ga  Ga2_5  1  0.87661158  0.25006374  0.91751902  1
  Ga  Ga2_6  1  0.87661158  0.75006374  0.41751902  1
  Ga  Ga2_7  1  0.87661158  0.75006374  0.91751902  1
  Ga  Ga3_0  1  0.00289144  0.00026809  0.00056771  1
  Ga  Ga3_1  1  0.00289144  0.00026809  0.50056771  1
  Ga  Ga3_2  1  0.00289144  0.50026809  0.00056770  1
  Ga  Ga3_3  1  0.00289144  0.50026809  0.50056770  1
  Ga  Ga3_4  1  0.50289144  0.00026809  0.00056771  1
  Ga  Ga3_5  1  0.50289144  0.00026809  0.50056771  1
  Ga  Ga3_6  1  0.50289144  0.50026809  0.00056770  1
  Ga  Ga3_7  1  0.50289144  0.50026809  0.50056770  1
  Ga  Ga4_0  1  0.00262693  0.24948582  0.24921804  1
  Ga  Ga4_1  1  0.00262693  0.24948582  0.74921804  1
  Ga  Ga4_2  1  0.00262693  0.74948582  0.24921804  1
  Ga  Ga4_3  1  0.00262693  0.74948582  0.74921804  1
  Ga  Ga4_4  1  0.50262693  0.24948582  0.24921804  1
  Ga  Ga4_5  1  0.50262693  0.24948582  0.74921804  1
  Ga  Ga4_6  1  0.50262693  0.74948582  0.24921804  1
  Ga  Ga4_7  1  0.50262693  0.74948582  0.74921804  1
  Ag  Ag0_0  1  0.37256114  0.33553627  0.00565200  1
  Ag  Ag0_1  1  0.37256114  0.33553627  0.50565200  1
  Ag  Ag0_2  1  0.37256114  0.83553627  0.00565201  1
  Ag  Ag0_3  1  0.37256114  0.83553627  0.50565200  1
  Ag  Ag0_4  1  0.87256114  0.33553627  0.00565200  1
  Ag  Ag0_5  1  0.87256114  0.33553627  0.50565201  1
  Ag  Ag0_6  1  0.87256114  0.83553627  0.00565201  1
  Ag  Ag0_7  1  0.87256114  0.83553627  0.50565200  1
  Ag  Ag1_0  1  0.37430602  0.08235469  0.25818819  1
  Ag  Ag1_1  1  0.37430602  0.08235469  0.75818820  1
  Ag  Ag1_2  1  0.37430602  0.58235469  0.25818820  1
  Ag  Ag1_3  1  0.37430602  0.58235469  0.75818820  1
  Ag  Ag1_4  1  0.87430602  0.08235469  0.25818820  1
  Ag  Ag1_5  1  0.87430602  0.08235469  0.75818819  1
  Ag  Ag1_6  1  0.87430602  0.58235469  0.25818820  1
  Ag  Ag1_7  1  0.87430602  0.58235470  0.75818820  1
  Ag  Ag2_0  1  0.37175143  0.32436094  0.16472381  1
  Ag  Ag2_1  1  0.37175143  0.32436095  0.66472381  1
  Ag  Ag2_2  1  0.37175143  0.82436094  0.16472381  1
  Ag  Ag2_3  1  0.37175143  0.82436094  0.66472381  1
  Ag  Ag2_4  1  0.87175143  0.32436094  0.16472381  1
  Ag  Ag2_5  1  0.87175143  0.32436094  0.66472381  1
  Ag  Ag2_6  1  0.87175143  0.82436094  0.16472382  1
  Ag  Ag2_7  1  0.87175143  0.82436094  0.66472381  1
  Ag  Ag3_0  1  0.37354255  0.07152536  0.41221621  1
  Ag  Ag3_1  1  0.37354255  0.07152536  0.91221621  1
  Ag  Ag3_2  1  0.37354255  0.57152536  0.41221621  1
  Ag  Ag3_3  1  0.37354255  0.57152536  0.91221621  1
  Ag  Ag3_4  1  0.87354255  0.07152537  0.41221621  1
  Ag  Ag3_5  1  0.87354255  0.07152536  0.91221621  1
  Ag  Ag3_6  1  0.87354255  0.57152536  0.41221621  1
  Ag  Ag3_7  1  0.87354255  0.57152536  0.91221621  1
  Ag  Ag4_0  1  0.37182361  0.09248425  0.07948687  1
  Ag  Ag4_1  1  0.37182361  0.09248425  0.57948687  1
  Ag  Ag4_2  1  0.37182361  0.59248425  0.07948687  1
  Ag  Ag4_3  1  0.37182361  0.59248425  0.57948687  1
  Ag  Ag4_4  1  0.87182361  0.09248425  0.07948687  1
  Ag  Ag4_5  1  0.87182361  0.09248426  0.57948687  1
  Ag  Ag4_6  1  0.87182361  0.59248425  0.07948687  1
  Ag  Ag4_7  1  0.87182361  0.59248425  0.57948687  1
  Ag  Ag5_0  1  0.37282979  0.34443562  0.32976728  1
  Ag  Ag5_1  1  0.37282979  0.34443562  0.82976728  1
  Ag  Ag5_2  1  0.37282979  0.84443562  0.32976728  1
  Ag  Ag5_3  1  0.37282979  0.84443562  0.82976729  1
  Ag  Ag5_4  1  0.87282979  0.34443562  0.32976729  1
  Ag  Ag5_5  1  0.87282979  0.34443562  0.82976728  1
  Ag  Ag5_6  1  0.87282979  0.84443562  0.32976728  1
  Ag  Ag5_7  1  0.87282979  0.84443562  0.82976728  1
  Ag  Ag6_0  1  0.12522385  0.41810076  0.24343970  1
  Ag  Ag6_1  1  0.12522384  0.41810076  0.74343971  1
  Ag  Ag6_2  1  0.12522385  0.91810076  0.24343971  1
  Ag  Ag6_3  1  0.12522385  0.91810076  0.74343971  1
  Ag  Ag6_4  1  0.62522384  0.41810076  0.24343971  1
  Ag  Ag6_5  1  0.62522384  0.41810076  0.74343971  1
  Ag  Ag6_6  1  0.62522384  0.91810076  0.24343971  1
  Ag  Ag6_7  1  0.62522384  0.91810076  0.74343971  1
  Ag  Ag7_0  1  0.12718143  0.16606997  0.49095653  1
  Ag  Ag7_1  1  0.12718143  0.16606997  0.99095653  1
  Ag  Ag7_2  1  0.12718143  0.66606997  0.49095653  1
  Ag  Ag7_3  1  0.12718143  0.66606997  0.99095653  1
  Ag  Ag7_4  1  0.62718143  0.16606997  0.49095653  1
  Ag  Ag7_5  1  0.62718143  0.16606997  0.99095653  1
  Ag  Ag7_6  1  0.62718143  0.66606997  0.49095653  1
  Ag  Ag7_7  1  0.62718143  0.66606997  0.99095653  1
  Ag  Ag8_0  1  0.12684887  0.42872184  0.08759103  1
  Ag  Ag8_1  1  0.12684887  0.42872184  0.58759103  1
  Ag  Ag8_2  1  0.12684887  0.92872184  0.08759104  1
  Ag  Ag8_3  1  0.12684887  0.92872184  0.58759104  1
  Ag  Ag8_4  1  0.62684887  0.42872184  0.08759103  1
  Ag  Ag8_5  1  0.62684887  0.42872184  0.58759103  1
  Ag  Ag8_6  1  0.62684887  0.92872184  0.08759104  1
  Ag  Ag8_7  1  0.62684887  0.92872184  0.58759103  1
  Ag  Ag9_0  1  0.12574929  0.17808079  0.33749514  1
  Ag  Ag9_1  1  0.12574929  0.17808079  0.83749513  1
  Ag  Ag9_2  1  0.12574929  0.67808079  0.33749513  1
  Ag  Ag9_3  1  0.12574929  0.67808079  0.83749513  1
  Ag  Ag9_4  1  0.62574929  0.17808079  0.33749514  1
  Ag  Ag9_5  1  0.62574929  0.17808079  0.83749514  1
  Ag  Ag9_6  1  0.62574929  0.67808079  0.33749514  1
  Ag  Ag9_7  1  0.62574929  0.67808079  0.83749513  1
  Ag  Ag10_0  1  0.12769340  0.15297861  0.17126720  1
  Ag  Ag10_1  1  0.12769340  0.15297862  0.67126720  1
  Ag  Ag10_2  1  0.12769340  0.65297861  0.17126720  1
  Ag  Ag10_3  1  0.12769340  0.65297861  0.67126721  1
  Ag  Ag10_4  1  0.62769340  0.15297861  0.17126720  1
  Ag  Ag10_5  1  0.62769340  0.15297862  0.67126721  1
  Ag  Ag10_6  1  0.62769340  0.65297861  0.17126720  1
  Ag  Ag10_7  1  0.62769340  0.65297861  0.67126720  1
  Ag  Ag11_0  1  0.12598211  0.40564582  0.41922796  1
  Ag  Ag11_1  1  0.12598211  0.40564582  0.91922796  1
  Ag  Ag11_2  1  0.12598211  0.90564582  0.41922796  1
  Ag  Ag11_3  1  0.12598211  0.90564582  0.91922796  1
  Ag  Ag11_4  1  0.62598211  0.40564582  0.41922796  1
  Ag  Ag11_5  1  0.62598211  0.40564582  0.91922796  1
  Ag  Ag11_6  1  0.62598211  0.90564582  0.41922796  1
  Ag  Ag11_7  1  0.62598211  0.90564582  0.91922796  1
  Ag  Ag12_0  1  0.12295274  0.25001295  0.08328083  1
  Ag  Ag12_1  1  0.12295274  0.25001295  0.58328083  1
  Ag  Ag12_2  1  0.12295274  0.75001295  0.08328083  1
  Ag  Ag12_3  1  0.12295274  0.75001295  0.58328083  1
  Ag  Ag12_4  1  0.62295274  0.25001295  0.08328083  1
  Ag  Ag12_5  1  0.62295274  0.25001295  0.58328083  1
  Ag  Ag12_6  1  0.62295274  0.75001295  0.08328083  1
  Ag  Ag12_7  1  0.62295274  0.75001295  0.58328083  1
loop_
_geom_bond_atom_site_label_1
_geom_bond_atom_site_label_2
_geom_bond_distance
_geom_bond_site_symmetry_2
Ga0_0 Ga0_4 2.888823 1_555
Ga0_0 Ga0_4 2.888823 1_455
Ga0_1 Ga0_5 2.888823 1_555
Ga0_1 Ga0_5 2.888823 1_455
Ga0_2 Ga0_6 2.888823 1_455
Ga0_2 Ga0_6 2.888823 1_555
Ga0_3 Ga0_7 2.888823 1_555
Ga0_3 Ga0_7 2.888823 1_455
Ga1_0 Ga1_4 2.888823 1_555
Ga1_0 Ga1_4 2.888823 1_455
Ga1_1 Ga1_5 2.888823 1_455
Ga1_1 Ga1_5 2.888823 1_555
Ga1_2 Ga1_6 2.888823 1_555
Ga1_2 Ga1_6 2.888823 1_455
Ga1_3 Ga1_7 2.888823 1_555
Ga1_3 Ga1_7 2.888823 1_455
Ga2_0 Ga2_4 2.888823 1_555
Ga2_0 Ga2_4 2.888823 1_455
Ga2_1 Ga2_5 2.888823 1_555
Ga2_1 Ga2_5 2.888823 1_455
Ga2_2 Ga2_6 2.888823 1_455
Ga2_2 Ga2_6 2.888823 1_555
Ga2_3 Ga2_7 2.888823 1_555
Ga2_3 Ga2_7 2.888823 1_455
Ga3_0 Ga3_4 2.888823 1_555
Ga3_0 Ga3_4 2.888823 1_455
Ga3_1 Ga3_5 2.888823 1_555
Ga3_1 Ga3_5 2.888823 1_455
Ga3_2 Ga3_6 2.888823 1_555
Ga3_2 Ga3_6 2.888823 1_455
Ga3_3 Ga3_7 2.888823 1_555
Ga3_3 Ga3_7 2.888823 1_455
Ga4_0 Ga4_4 2.888823 1_555
Ga4_0 Ga4_4 2.888823 1_455
Ga4_1 Ga4_5 2.888823 1_555
Ga4_1 Ga4_5 2.888823 1_455
Ga4_2 Ga4_6 2.888823 1_555
Ga4_2 Ga4_6 2.888823 1_455
Ga4_3 Ga4_7 2.888823 1_555
Ga4_3 Ga4_7 2.888823 1_455
Ag0_0 Ga3_6 2.666909 1_555
Ag0_0 Ga2_1 2.703512 1_554
Ag0_0 Ag12_0 2.852376 1_555
Ag0_0 Ag12_4 2.858458 1_555
Ag0_0 Ag0_4 2.888823 1_455
Ag0_0 Ag0_4 2.888823 1_555
Ag0_0 Ag11_1 2.925899 1_554
Ag0_0 Ag11_5 2.941705 1_554
Ag0_0 Ag8_0 2.983471 1_555
Ag0_0 Ag8_4 3.007926 1_555
Ag0_0 Ag7_1 3.011469 1_554
Ag0_0 Ag7_5 3.039537 1_554
Ag0_1 Ga3_7 2.666909 1_555
Ag0_1 Ga2_0 2.703512 1_555
Ag0_1 Ag12_1 2.852376 1_555
Ag0_1 Ag12_5 2.858458 1_555
Ag0_1 Ag0_5 2.888823 1_555
Ag0_1 Ag0_5 2.888823 1_455
Ag0_1 Ag11_0 2.925899 1_555
Ag0_1 Ag11_4 2.941705 1_555
Ag0_1 Ag8_1 2.983471 1_555
Ag0_1 Ag8_5 3.007926 1_555
Ag0_1 Ag7_0 3.011469 1_555
Ag0_1 Ag7_4 3.039537 1_555
Ag0_2 Ga3_4 2.666909 1_565
Ag0_2 Ga2_3 2.703512 1_554
Ag0_2 Ag12_2 2.852376 1_555
Ag0_2 Ag12_6 2.858458 1_555
Ag0_2 Ag0_6 2.888823 1_555
Ag0_2 Ag0_6 2.888823 1_455
Ag0_2 Ag11_3 2.925899 1_554
Ag0_2 Ag11_7 2.941705 1_554
Ag0_2 Ag8_2 2.983471 1_555
Ag0_2 Ag8_6 3.007926 1_555
Ag0_2 Ag7_3 3.011469 1_554
Ag0_2 Ag7_7 3.039537 1_554
Ag0_3 Ga3_5 2.666909 1_565
Ag0_3 Ga2_2 2.703512 1_555
Ag0_3 Ag12_3 2.852376 1_555
Ag0_3 Ag12_7 2.858458 1_555
Ag0_3 Ag0_7 2.888823 1_555
Ag0_3 Ag0_7 2.888823 1_455
Ag0_3 Ag11_2 2.925899 1_555
Ag0_3 Ag11_6 2.941705 1_555
Ag0_3 Ag8_3 2.983471 1_555
Ag0_3 Ag8_7 3.007926 1_555
Ag0_3 Ag7_2 3.011469 1_555
Ag0_3 Ag7_6 3.039537 1_555
Ag0_4 Ga3_2 2.666909 1_655
Ag0_4 Ga2_5 2.703512 1_554
Ag0_4 Ag12_4 2.852376 1_555
Ag0_4 Ag12_0 2.858458 1_655
Ag0_4 Ag11_5 2.925899 1_554
Ag0_4 Ag11_1 2.941705 1_654
Ag0_4 Ag8_4 2.983471 1_555
Ag0_4 Ag8_0 3.007926 1_655
Ag0_4 Ag7_5 3.011469 1_554
Ag0_4 Ag7_1 3.039537 1_654
Ag0_5 Ga3_3 2.666909 1_655
Ag0_5 Ga2_4 2.703512 1_555
Ag0_5 Ag12_5 2.852376 1_555
Ag0_5 Ag12_1 2.858458 1_655
Ag0_5 Ag11_4 2.925899 1_555
Ag0_5 Ag11_0 2.941705 1_655
Ag0_5 Ag8_5 2.983471 1_555
Ag0_5 Ag8_1 3.007926 1_655
Ag0_5 Ag7_4 3.011469 1_555
Ag0_5 Ag7_0 3.039537 1_655
Ag0_6 Ga3_0 2.666909 1_665
Ag0_6 Ga2_7 2.703512 1_554
Ag0_6 Ag12_6 2.852376 1_555
Ag0_6 Ag12_2 2.858458 1_655
Ag0_6 Ag11_7 2.925899 1_554
Ag0_6 Ag11_3 2.941705 1_654
Ag0_6 Ag8_6 2.983471 1_555
Ag0_6 Ag8_2 3.007926 1_655
Ag0_6 Ag7_7 3.011469 1_554
Ag0_6 Ag7_3 3.039537 1_654
Ag0_7 Ga3_1 2.666909 1_665
Ag0_7 Ga2_6 2.703512 1_555
Ag0_7 Ag12_7 2.852376 1_555
Ag0_7 Ag12_3 2.858458 1_655
Ag0_7 Ag11_6 2.925899 1_555
Ag0_7 Ag11_2 2.941705 1_655
Ag0_7 Ag8_7 2.983471 1_555
Ag0_7 Ag8_3 3.007926 1_655
Ag0_7 Ag7_6 3.011469 1_555
Ag0_7 Ag7_2 3.039537 1_655
Ag1_0 Ga4_4 2.706587 1_555
Ag1_0 Ga1_2 2.779685 1_545
Ag1_0 Ga0_0 2.782851 1_555
Ag1_0 Ga0_4 2.785854 1_555
Ag1_0 Ag1_4 2.888823 1_555
Ag1_0 Ag1_4 2.888823 1_455
Ag1_0 Ag6_2 2.951721 1_545
Ag1_0 Ag6_6 2.959449 1_545
Ag1_0 Ag9_0 2.959832 1_555
Ag1_0 Ag9_4 2.968413 1_555
Ag1_1 Ga4_5 2.706587 1_555
Ag1_1 Ga1_3 2.779685 1_545
Ag1_1 Ga0_1 2.782851 1_555
Ag1_1 Ga0_5 2.785854 1_555
Ag1_1 Ag1_5 2.888823 1_555
Ag1_1 Ag1_5 2.888823 1_455
Ag1_1 Ag6_3 2.951721 1_545
Ag1_1 Ag6_7 2.959449 1_545
Ag1_1 Ag9_1 2.959832 1_555
Ag1_1 Ag9_5 2.968413 1_555
Ag1_2 Ga4_6 2.706587 1_555
Ag1_2 Ga1_0 2.779685 1_555
Ag1_2 Ga0_2 2.782851 1_555
Ag1_2 Ga0_6 2.785854 1_555
Ag1_2 Ag1_6 2.888823 1_555
Ag1_2 Ag1_6 2.888823 1_455
Ag1_2 Ag6_0 2.951721 1_555
Ag1_2 Ag6_4 2.959449 1_555
Ag1_2 Ag9_2 2.959832 1_555
Ag1_2 Ag9_6 2.968413 1_555
Ag1_3 Ga4_7 2.706587 1_555
Ag1_3 Ga1_1 2.779685 1_555
Ag1_3 Ga0_3 2.782851 1_555
Ag1_3 Ga0_7 2.785854 1_555
Ag1_3 Ag1_7 2.888823 1_455
Ag1_3 Ag1_7 2.888823 1_555
Ag1_3 Ag6_1 2.951721 1_555
Ag1_3 Ag6_5 2.959449 1_555
Ag1_3 Ag9_3 2.959832 1_555
Ag1_3 Ag9_7 2.968413 1_555
Ag1_4 Ga4_0 2.706587 1_655
Ag1_4 Ga1_6 2.779685 1_545
Ag1_4 Ga0_4 2.782851 1_555
Ag1_4 Ga0_0 2.785854 1_655
Ag1_4 Ag6_6 2.951721 1_545
Ag1_4 Ag6_2 2.959449 1_645
Ag1_4 Ag9_4 2.959832 1_555
Ag1_4 Ag9_0 2.968413 1_655
Ag1_5 Ga4_1 2.706587 1_655
Ag1_5 Ga1_7 2.779685 1_545
Ag1_5 Ga0_5 2.782851 1_555
Ag1_5 Ga0_1 2.785854 1_655
Ag1_5 Ag6_7 2.951721 1_545
Ag1_5 Ag6_3 2.959449 1_645
Ag1_5 Ag9_5 2.959832 1_555
Ag1_5 Ag9_1 2.968413 1_655
Ag1_6 Ga4_2 2.706587 1_655
Ag1_6 Ga1_4 2.779685 1_555
Ag1_6 Ga0_6 2.782851 1_555
Ag1_6 Ga0_2 2.785854 1_655
Ag1_6 Ag6_4 2.951721 1_555
Ag1_6 Ag6_0 2.959449 1_655
Ag1_6 Ag9_6 2.959832 1_555
Ag1_6 Ag9_2 2.968413 1_655
Ag1_7 Ga4_3 2.706587 1_655
Ag1_7 Ga1_5 2.779685 1_555
Ag1_7 Ga0_7 2.782851 1_555
Ag1_7 Ga0_3 2.785854 1_655
Ag1_7 Ag6_5 2.951721 1_555
Ag1_7 Ag6_1 2.959449 1_655
Ag1_7 Ag9_7 2.959832 1_555
Ag1_7 Ag9_3 2.968413 1_655
Ag2_0 Ga4_4 2.651177 1_555
Ag2_0 Ga1_0 2.718391 1_555
Ag2_0 Ag2_4 2.888823 1_555
Ag2_0 Ag2_4 2.888823 1_455
Ag2_0 Ag6_0 2.927407 1_555
Ag2_0 Ag6_4 2.947615 1_555
Ag2_0 Ag8_0 2.981091 1_555
Ag2_0 Ag8_4 3.005575 1_555
Ag2_1 Ga4_5 2.651177 1_555
Ag2_1 Ga1_1 2.718391 1_555
Ag2_1 Ag2_5 2.888823 1_455
Ag2_1 Ag2_5 2.888823 1_555
Ag2_1 Ag6_1 2.927407 1_555
Ag2_1 Ag6_5 2.947615 1_555
Ag2_1 Ag8_1 2.981091 1_555
Ag2_1 Ag8_5 3.005575 1_555
Ag2_2 Ga4_6 2.651177 1_555
Ag2_2 Ga1_2 2.718391 1_555
Ag2_2 Ag2_6 2.888823 1_555
Ag2_2 Ag2_6 2.888823 1_455
Ag2_2 Ag6_2 2.927407 1_555
Ag2_2 Ag6_6 2.947615 1_555
Ag2_2 Ag8_2 2.981091 1_555
Ag2_2 Ag8_6 3.005575 1_555
Ag2_3 Ga4_7 2.651177 1_555
Ag2_3 Ga1_3 2.718391 1_555
Ag2_3 Ag2_7 2.888823 1_555
Ag2_3 Ag2_7 2.888823 1_455
Ag2_3 Ag6_3 2.927407 1_555
Ag2_3 Ag6_7 2.947615 1_555
Ag2_3 Ag8_3 2.981091 1_555
Ag2_3 Ag8_7 3.005575 1_555
Ag2_4 Ga4_0 2.651177 1_655
Ag2_4 Ga1_4 2.718391 1_555
Ag2_4 Ag6_4 2.927407 1_555
Ag2_4 Ag6_0 2.947615 1_655
Ag2_4 Ag8_4 2.981091 1_555
Ag2_4 Ag8_0 3.005575 1_655
Ag2_5 Ga4_1 2.651177 1_655
Ag2_5 Ga1_5 2.718391 1_555
Ag2_5 Ag6_5 2.927407 1_555
Ag2_5 Ag6_1 2.947615 1_655
Ag2_5 Ag8_5 2.981091 1_555
Ag2_5 Ag8_1 3.005575 1_655
Ag2_6 Ga4_2 2.651177 1_655
Ag2_6 Ga1_6 2.718391 1_555
Ag2_6 Ag6_6 2.927407 1_555
Ag2_6 Ag6_2 2.947615 1_655
Ag2_6 Ag8_6 2.981091 1_555
Ag2_6 Ag8_2 3.005575 1_655
Ag2_7 Ga4_3 2.651177 1_655
Ag2_7 Ga1_7 2.718391 1_555
Ag2_7 Ag6_7 2.927407 1_555
Ag2_7 Ag6_3 2.947615 1_655
Ag2_7 Ag8_7 2.981091 1_555
Ag2_7 Ag8_3 3.005575 1_655
Ag3_0 Ga3_5 2.713788 1_555
Ag3_0 Ga2_0 2.773562 1_555
Ag3_0 Ga0_0 2.780974 1_555
Ag3_0 Ga0_4 2.783866 1_555
Ag3_0 Ag3_4 2.888823 1_555
Ag3_0 Ag3_4 2.888823 1_455
Ag3_0 Ag7_0 2.933638 1_555
Ag3_0 Ag7_4 2.954730 1_555
Ag3_0 Ag9_0 2.963817 1_555
Ag3_0 Ag9_4 2.972280 1_555
Ag3_1 Ga3_4 2.713788 1_556
Ag3_1 Ga2_1 2.773562 1_555
Ag3_1 Ga0_1 2.780974 1_555
Ag3_1 Ga0_5 2.783866 1_555
Ag3_1 Ag3_5 2.888823 1_555
Ag3_1 Ag3_5 2.888823 1_455
Ag3_1 Ag7_1 2.933638 1_555
Ag3_1 Ag7_5 2.954730 1_555
Ag3_1 Ag9_1 2.963817 1_555
Ag3_1 Ag9_5 2.972280 1_555
Ag3_2 Ga3_7 2.713788 1_555
Ag3_2 Ga2_2 2.773562 1_555
Ag3_2 Ga0_2 2.780974 1_555
Ag3_2 Ga0_6 2.783866 1_555
Ag3_2 Ag3_6 2.888823 1_555
Ag3_2 Ag3_6 2.888823 1_455
Ag3_2 Ag7_2 2.933638 1_555
Ag3_2 Ag7_6 2.954730 1_555
Ag3_2 Ag9_2 2.963817 1_555
Ag3_2 Ag9_6 2.972280 1_555
Ag3_3 Ga3_6 2.713788 1_556
Ag3_3 Ga2_3 2.773562 1_555
Ag3_3 Ga0_3 2.780974 1_555
Ag3_3 Ga0_7 2.783866 1_555
Ag3_3 Ag3_7 2.888823 1_555
Ag3_3 Ag3_7 2.888823 1_455
Ag3_3 Ag7_3 2.933638 1_555
Ag3_3 Ag7_7 2.954730 1_555
Ag3_3 Ag9_3 2.963817 1_555
Ag3_3 Ag9_7 2.972280 1_555
Ag3_4 Ga3_1 2.713788 1_655
Ag3_4 Ga2_4 2.773562 1_555
Ag3_4 Ga0_4 2.780974 1_555
Ag3_4 Ga0_0 2.783866 1_655
Ag3_4 Ag7_4 2.933638 1_555
Ag3_4 Ag7_0 2.954730 1_655
Ag3_4 Ag9_4 2.963817 1_555
Ag3_4 Ag9_0 2.972280 1_655
Ag3_5 Ga3_0 2.713788 1_656
Ag3_5 Ga2_5 2.773562 1_555
Ag3_5 Ga0_5 2.780974 1_555
Ag3_5 Ga0_1 2.783866 1_655
Ag3_5 Ag7_5 2.933638 1_555
Ag3_5 Ag7_1 2.954730 1_655
Ag3_5 Ag9_5 2.963817 1_555
Ag3_5 Ag9_1 2.972280 1_655
Ag3_6 Ga3_3 2.713788 1_655
Ag3_6 Ga2_6 2.773562 1_555
Ag3_6 Ga0_6 2.780974 1_555
Ag3_6 Ga0_2 2.783866 1_655
Ag3_6 Ag7_6 2.933638 1_555
Ag3_6 Ag7_2 2.954730 1_655
Ag3_6 Ag9_6 2.963817 1_555
Ag3_6 Ag9_2 2.972280 1_655
Ag3_7 Ga3_2 2.713788 1_656
Ag3_7 Ga2_7 2.773562 1_555
Ag3_7 Ga0_7 2.780974 1_555
Ag3_7 Ga0_3 2.783866 1_655
Ag3_7 Ag7_7 2.933638 1_555
Ag3_7 Ag7_3 2.954730 1_655
Ag3_7 Ag9_7 2.963817 1_555
Ag3_7 Ag9_3 2.972280 1_655
Ag4_0 Ga3_4 2.658889 1_555
Ag4_0 Ga1_2 2.724630 1_545
Ag4_0 Ag4_4 2.888823 1_555
Ag4_0 Ag4_4 2.888823 1_455
Ag4_0 Ag8_2 2.914813 1_545
Ag4_0 Ag8_6 2.946622 1_545
Ag4_0 Ag7_1 2.985460 1_554
Ag4_0 Ag7_5 3.011587 1_554
Ag4_1 Ga3_5 2.658889 1_555
Ag4_1 Ga1_3 2.724630 1_545
Ag4_1 Ag4_5 2.888823 1_555
Ag4_1 Ag4_5 2.888823 1_455
Ag4_1 Ag8_3 2.914813 1_545
Ag4_1 Ag8_7 2.946622 1_545
Ag4_1 Ag7_0 2.985460 1_555
Ag4_1 Ag7_4 3.011587 1_555
Ag4_2 Ga3_6 2.658889 1_555
Ag4_2 Ga1_0 2.724630 1_555
Ag4_2 Ag4_6 2.888823 1_555
Ag4_2 Ag4_6 2.888823 1_455
Ag4_2 Ag8_0 2.914813 1_555
Ag4_2 Ag8_4 2.946622 1_555
Ag4_2 Ag7_3 2.985460 1_554
Ag4_2 Ag7_7 3.011587 1_554
Ag4_3 Ga3_7 2.658889 1_555
Ag4_3 Ga1_1 2.724630 1_555
Ag4_3 Ag4_7 2.888823 1_455
Ag4_3 Ag4_7 2.888823 1_555
Ag4_3 Ag8_1 2.914813 1_555
Ag4_3 Ag8_5 2.946622 1_555
Ag4_3 Ag7_2 2.985460 1_555
Ag4_3 Ag7_6 3.011587 1_555
Ag4_4 Ga3_0 2.658889 1_655
Ag4_4 Ga1_6 2.724630 1_545
Ag4_4 Ag8_6 2.914813 1_545
Ag4_4 Ag8_2 2.946622 1_645
Ag4_4 Ag7_5 2.985460 1_554
Ag4_4 Ag7_1 3.011587 1_654
Ag4_5 Ga3_1 2.658889 1_655
Ag4_5 Ga1_7 2.724630 1_545
Ag4_5 Ag8_7 2.914813 1_545
Ag4_5 Ag8_3 2.946622 1_645
Ag4_5 Ag7_4 2.985460 1_555
Ag4_5 Ag7_0 3.011587 1_655
Ag4_6 Ga3_2 2.658889 1_655
Ag4_6 Ga1_4 2.724630 1_555
Ag4_6 Ag8_4 2.914813 1_555
Ag4_6 Ag8_0 2.946622 1_655
Ag4_6 Ag7_7 2.985460 1_554
Ag4_6 Ag7_3 3.011587 1_654
Ag4_7 Ga3_3 2.658889 1_655
Ag4_7 Ga1_5 2.724630 1_555
Ag4_7 Ag8_5 2.914813 1_555
Ag4_7 Ag8_1 2.946622 1_655
Ag4_7 Ag7_6 2.985460 1_555
Ag4_7 Ag7_2 3.011587 1_655
Ag5_0 Ga4_4 2.714318 1_555
Ag5_0 Ga2_0 2.765367 1_555
Ag5_0 Ga0_2 2.815962 1_555
Ag5_0 Ga0_6 2.821132 1_555
Ag5_0 Ag5_4 2.888823 1_555
Ag5_0 Ag5_4 2.888823 1_455
Ag5_0 Ag6_0 2.947745 1_555
Ag5_0 Ag9_0 2.955041 1_555
Ag5_0 Ag6_4 2.957584 1_555
Ag5_0 Ag9_4 2.974665 1_555
Ag5_1 Ga4_5 2.714318 1_555
Ag5_1 Ga2_1 2.765367 1_555
Ag5_1 Ga0_3 2.815962 1_555
Ag5_1 Ga0_7 2.821132 1_555
Ag5_1 Ag5_5 2.888823 1_555
Ag5_1 Ag5_5 2.888823 1_455
Ag5_1 Ag6_1 2.947745 1_555
Ag5_1 Ag9_1 2.955041 1_555
Ag5_1 Ag6_5 2.957584 1_555
Ag5_1 Ag9_5 2.974665 1_555
Ag5_2 Ga4_6 2.714318 1_555
Ag5_2 Ga2_2 2.765367 1_555
Ag5_2 Ga0_0 2.815962 1_565
Ag5_2 Ga0_4 2.821132 1_565
Ag5_2 Ag5_6 2.888823 1_555
Ag5_2 Ag5_6 2.888823 1_455
Ag5_2 Ag6_2 2.947745 1_555
Ag5_2 Ag9_2 2.955041 1_555
Ag5_2 Ag6_6 2.957584 1_555
Ag5_2 Ag9_6 2.974665 1_555
Ag5_3 Ga4_7 2.714318 1_555
Ag5_3 Ga2_3 2.765367 1_555
Ag5_3 Ga0_1 2.815962 1_565
Ag5_3 Ga0_5 2.821132 1_565
Ag5_3 Ag5_7 2.888823 1_555
Ag5_3 Ag5_7 2.888823 1_455
Ag5_3 Ag6_3 2.947745 1_555
Ag5_3 Ag9_3 2.955041 1_555
Ag5_3 Ag6_7 2.957584 1_555
Ag5_3 Ag9_7 2.974665 1_555
Ag5_4 Ga4_0 2.714318 1_655
Ag5_4 Ga2_4 2.765367 1_555
Ag5_4 Ga0_6 2.815962 1_555
Ag5_4 Ga0_2 2.821132 1_655
Ag5_4 Ag6_4 2.947745 1_555
Ag5_4 Ag9_4 2.955041 1_555
Ag5_4 Ag6_0 2.957584 1_655
Ag5_4 Ag9_0 2.974665 1_655
Ag5_5 Ga4_1 2.714318 1_655
Ag5_5 Ga2_5 2.765367 1_555
Ag5_5 Ga0_7 2.815962 1_555
Ag5_5 Ga0_3 2.821132 1_655
Ag5_5 Ag6_5 2.947745 1_555
Ag5_5 Ag9_5 2.955041 1_555
Ag5_5 Ag6_1 2.957584 1_655
Ag5_5 Ag9_1 2.974665 1_655
Ag5_6 Ga4_2 2.714318 1_655
Ag5_6 Ga2_6 2.765367 1_555
Ag5_6 Ga0_4 2.815962 1_565
Ag5_6 Ga0_0 2.821132 1_665
Ag5_6 Ag6_6 2.947745 1_555
Ag5_6 Ag9_6 2.955041 1_555
Ag5_6 Ag6_2 2.957584 1_655
Ag5_6 Ag9_2 2.974665 1_655
Ag5_7 Ga4_3 2.714318 1_655
Ag5_7 Ga2_7 2.765367 1_555
Ag5_7 Ga0_5 2.815962 1_565
Ag5_7 Ga0_1 2.821132 1_665
Ag5_7 Ag6_7 2.947745 1_555
Ag5_7 Ag9_7 2.955041 1_555
Ag5_7 Ag6_3 2.957584 1_655
Ag5_7 Ag9_3 2.974665 1_655
Ag6_0 Ga4_0 2.713710 1_555
Ag6_0 Ga0_2 2.722822 1_555
Ag6_0 Ga1_0 2.821772 1_555
Ag6_0 Ga1_4 2.825414 1_455
Ag6_0 Ag6_4 2.888823 1_555
Ag6_0 Ag6_4 2.888823 1_455
Ag6_1 Ga4_1 2.713710 1_555
Ag6_1 Ga0_3 2.722822 1_555
Ag6_1 Ga1_1 2.821772 1_555
Ag6_1 Ga1_5 2.825414 1_455
Ag6_1 Ag6_5 2.888823 1_555
Ag6_1 Ag6_5 2.888823 1_455
Ag6_2 Ga4_2 2.713710 1_555
Ag6_2 Ga0_0 2.722822 1_565
Ag6_2 Ga1_2 2.821772 1_555
Ag6_2 Ga1_6 2.825414 1_455
Ag6_2 Ag6_6 2.888823 1_555
Ag6_2 Ag6_6 2.888823 1_455
Ag6_3 Ga4_3 2.713710 1_555
Ag6_3 Ga0_1 2.722822 1_565
Ag6_3 Ga1_3 2.821772 1_555
Ag6_3 Ga1_7 2.825414 1_455
Ag6_3 Ag6_7 2.888823 1_555
Ag6_3 Ag6_7 2.888823 1_455
Ag6_4 Ga4_4 2.713710 1_555
Ag6_4 Ga0_6 2.722822 1_555
Ag6_4 Ga1_4 2.821772 1_555
Ag6_4 Ga1_0 2.825414 1_555
Ag6_5 Ga4_5 2.713710 1_555
Ag6_5 Ga0_7 2.722822 1_555
Ag6_5 Ga1_5 2.821772 1_555
Ag6_5 Ga1_1 2.825414 1_555
Ag6_6 Ga4_6 2.713710 1_555
Ag6_6 Ga0_4 2.722822 1_565
Ag6_6 Ga1_6 2.821772 1_555
Ag6_6 Ga1_2 2.825414 1_555
Ag6_7 Ga4_7 2.713710 1_555
Ag6_7 Ga0_5 2.722822 1_565
Ag6_7 Ga1_7 2.821772 1_555
Ag6_7 Ga1_3 2.825414 1_555
Ag7_0 Ga3_1 2.682123 1_555
Ag7_0 Ga2_0 2.760186 1_555
Ag7_0 Ga2_4 2.767394 1_455
Ag7_0 Ag7_4 2.888823 1_555
Ag7_0 Ag7_4 2.888823 1_455
Ag7_1 Ga3_0 2.682123 1_556
Ag7_1 Ga2_1 2.760186 1_555
Ag7_1 Ga2_5 2.767394 1_455
Ag7_1 Ag7_5 2.888823 1_555
Ag7_1 Ag7_5 2.888823 1_455
Ag7_2 Ga3_3 2.682123 1_555
Ag7_2 Ga2_2 2.760186 1_555
Ag7_2 Ga2_6 2.767394 1_455
Ag7_2 Ag7_6 2.888823 1_555
Ag7_2 Ag7_6 2.888823 1_455
Ag7_3 Ga3_2 2.682123 1_556
Ag7_3 Ga2_3 2.760186 1_555
Ag7_3 Ga2_7 2.767394 1_455
Ag7_3 Ag7_7 2.888823 1_555
Ag7_3 Ag7_7 2.888823 1_455
Ag7_4 Ga3_5 2.682123 1_555
Ag7_4 Ga2_4 2.760186 1_555
Ag7_4 Ga2_0 2.767394 1_555
Ag7_5 Ga3_4 2.682123 1_556
Ag7_5 Ga2_5 2.760186 1_555
Ag7_5 Ga2_1 2.767394 1_555
Ag7_6 Ga3_7 2.682123 1_555
Ag7_6 Ga2_6 2.760186 1_555
Ag7_6 Ga2_2 2.767394 1_555
Ag7_7 Ga3_6 2.682123 1_556
Ag7_7 Ga2_7 2.760186 1_555
Ag7_7 Ga2_3 2.767394 1_555
Ag8_0 Ga3_2 2.676239 1_555
Ag8_0 Ga1_0 2.767572 1_555
Ag8_0 Ga1_4 2.776307 1_455
Ag8_0 Ag8_4 2.888823 1_555
Ag8_0 Ag8_4 2.888823 1_455
Ag8_1 Ga3_3 2.676239 1_555
Ag8_1 Ga1_1 2.767572 1_555
Ag8_1 Ga1_5 2.776307 1_455
Ag8_1 Ag8_5 2.888823 1_455
Ag8_1 Ag8_5 2.888823 1_555
Ag8_2 Ga3_0 2.676239 1_565
Ag8_2 Ga1_2 2.767572 1_555
Ag8_2 Ga1_6 2.776307 1_455
Ag8_2 Ag8_6 2.888823 1_555
Ag8_2 Ag8_6 2.888823 1_455
Ag8_3 Ga3_1 2.676239 1_565
Ag8_3 Ga1_3 2.767572 1_555
Ag8_3 Ga1_7 2.776307 1_455
Ag8_3 Ag8_7 2.888823 1_555
Ag8_3 Ag8_7 2.888823 1_455
Ag8_4 Ga3_6 2.676239 1_555
Ag8_4 Ga1_4 2.767572 1_555
Ag8_4 Ga1_0 2.776307 1_555
Ag8_5 Ga3_7 2.676239 1_555
Ag8_5 Ga1_5 2.767572 1_555
Ag8_5 Ga1_1 2.776307 1_555
Ag8_6 Ga3_4 2.676239 1_565
Ag8_6 Ga1_6 2.767572 1_555
Ag8_6 Ga1_2 2.776307 1_555
Ag8_7 Ga3_5 2.676239 1_565
Ag8_7 Ga1_7 2.767572 1_555
Ag8_7 Ga1_3 2.776307 1_555
Ag9_0 Ga4_0 2.703253 1_555
Ag9_0 Ga0_0 2.760102 1_555
Ag9_0 Ga2_4 2.809310 1_455
Ag9_0 Ga2_0 2.815375 1_555
Ag9_0 Ag9_4 2.888823 1_555
Ag9_0 Ag9_4 2.888823 1_455
Ag9_1 Ga4_1 2.703253 1_555
Ag9_1 Ga0_1 2.760102 1_555
Ag9_1 Ga2_5 2.809310 1_455
Ag9_1 Ga2_1 2.815375 1_555
Ag9_1 Ag9_5 2.888823 1_555
Ag9_1 Ag9_5 2.888823 1_455
Ag9_2 Ga4_2 2.703253 1_555
Ag9_2 Ga0_2 2.760102 1_555
Ag9_2 Ga2_6 2.809310 1_455
Ag9_2 Ga2_2 2.815375 1_555
Ag9_2 Ag9_6 2.888823 1_555
Ag9_2 Ag9_6 2.888823 1_455
Ag9_3 Ga4_3 2.703253 1_555
Ag9_3 Ga0_3 2.760102 1_555
Ag9_3 Ga2_7 2.809310 1_455
Ag9_3 Ga2_3 2.815375 1_555
Ag9_3 Ag9_7 2.888823 1_555
Ag9_3 Ag9_7 2.888823 1_455
Ag9_4 Ga4_4 2.703253 1_555
Ag9_4 Ga0_4 2.760102 1_555
Ag9_4 Ga2_0 2.809310 1_555
Ag9_4 Ga2_4 2.815375 1_555
Ag9_5 Ga4_5 2.703253 1_555
Ag9_5 Ga0_5 2.760102 1_555
Ag9_5 Ga2_1 2.809310 1_555
Ag9_5 Ga2_5 2.815375 1_555
Ag9_6 Ga4_6 2.703253 1_555
Ag9_6 Ga0_6 2.760102 1_555
Ag9_6 Ga2_2 2.809310 1_555
Ag9_6 Ga2_6 2.815375 1_555
Ag9_7 Ga4_7 2.703253 1_555
Ag9_7 Ga0_7 2.760102 1_555
Ag9_7 Ga2_3 2.809310 1_555
Ag9_7 Ga2_7 2.815375 1_555
Ag10_0 Ga4_0 2.665507 1_555
Ag10_0 Ga1_2 2.781803 1_545
Ag10_0 Ag12_0 2.792797 1_555
Ag10_0 Ga1_6 2.793707 1_445
Ag10_0 Ag10_4 2.888823 1_555
Ag10_0 Ag10_4 2.888823 1_455
Ag10_0 Ag1_0 2.939471 1_555
Ag10_0 Ag1_4 2.954992 1_455
Ag10_0 Ag4_0 2.980820 1_555
Ag10_0 Ag2_0 3.013182 1_555
Ag10_0 Ag4_4 3.014910 1_455
Ag10_0 Ag2_4 3.049077 1_455
Ag10_1 Ga4_1 2.665507 1_555
Ag10_1 Ga1_3 2.781803 1_545
Ag10_1 Ag12_1 2.792797 1_555
Ag10_1 Ga1_7 2.793707 1_445
Ag10_1 Ag10_5 2.888823 1_455
Ag10_1 Ag10_5 2.888823 1_555
Ag10_1 Ag1_1 2.939471 1_555
Ag10_1 Ag1_5 2.954992 1_455
Ag10_1 Ag4_1 2.980820 1_555
Ag10_1 Ag2_1 3.013182 1_555
Ag10_1 Ag4_5 3.014910 1_455
Ag10_1 Ag2_5 3.049077 1_455
Ag10_2 Ga4_2 2.665507 1_555
Ag10_2 Ga1_0 2.781803 1_555
Ag10_2 Ag12_2 2.792797 1_555
Ag10_2 Ga1_4 2.793707 1_455
Ag10_2 Ag10_6 2.888823 1_555
Ag10_2 Ag10_6 2.888823 1_455
Ag10_2 Ag1_2 2.939471 1_555
Ag10_2 Ag1_6 2.954992 1_455
Ag10_2 Ag4_2 2.980820 1_555
Ag10_2 Ag2_2 3.013182 1_555
Ag10_2 Ag4_6 3.014910 1_455
Ag10_2 Ag2_6 3.049077 1_455
Ag10_3 Ga4_3 2.665507 1_555
Ag10_3 Ga1_1 2.781803 1_555
Ag10_3 Ag12_3 2.792797 1_555
Ag10_3 Ga1_5 2.793707 1_455
Ag10_3 Ag10_7 2.888823 1_555
Ag10_3 Ag10_7 2.888823 1_455
Ag10_3 Ag1_3 2.939471 1_555
Ag10_3 Ag1_7 2.954992 1_455
Ag10_3 Ag4_3 2.980820 1_555
Ag10_3 Ag2_3 3.013182 1_555
Ag10_3 Ag4_7 3.014910 1_455
Ag10_3 Ag2_7 3.049077 1_455
Ag10_4 Ga4_4 2.665507 1_555
Ag10_4 Ga1_6 2.781803 1_545
Ag10_4 Ag12_4 2.792797 1_555
Ag10_4 Ga1_2 2.793707 1_545
Ag10_4 Ag1_4 2.939471 1_555
Ag10_4 Ag1_0 2.954992 1_555
Ag10_4 Ag4_4 2.980820 1_555
Ag10_4 Ag2_4 3.013182 1_555
Ag10_4 Ag4_0 3.014910 1_555
Ag10_4 Ag2_0 3.049077 1_555
Ag10_5 Ga4_5 2.665507 1_555
Ag10_5 Ga1_7 2.781803 1_545
Ag10_5 Ag12_5 2.792797 1_555
Ag10_5 Ga1_3 2.793707 1_545
Ag10_5 Ag1_5 2.939471 1_555
Ag10_5 Ag1_1 2.954992 1_555
Ag10_5 Ag4_5 2.980820 1_555
Ag10_5 Ag2_5 3.013182 1_555
Ag10_5 Ag4_1 3.014910 1_555
Ag10_5 Ag2_1 3.049077 1_555
Ag10_6 Ga4_6 2.665507 1_555
Ag10_6 Ga1_4 2.781803 1_555
Ag10_6 Ag12_6 2.792797 1_555
Ag10_6 Ga1_0 2.793707 1_555
Ag10_6 Ag1_6 2.939471 1_555
Ag10_6 Ag1_2 2.954992 1_555
Ag10_6 Ag4_6 2.980820 1_555
Ag10_6 Ag2_6 3.013182 1_555
Ag10_6 Ag4_2 3.014910 1_555
Ag10_6 Ag2_2 3.049077 1_555
Ag10_7 Ga4_7 2.665507 1_555
Ag10_7 Ga1_5 2.781803 1_555
Ag10_7 Ag12_7 2.792797 1_555
Ag10_7 Ga1_1 2.793707 1_555
Ag10_7 Ag1_7 2.939471 1_555
Ag10_7 Ag1_3 2.954992 1_555
Ag10_7 Ag4_7 2.980820 1_555
Ag10_7 Ag2_7 3.013182 1_555
Ag10_7 Ag4_3 3.014910 1_555
Ag10_7 Ag2_3 3.049077 1_555
Ag11_0 Ga3_3 2.717979 1_555
Ag11_0 Ga0_2 2.723495 1_555
Ag11_0 Ga2_4 2.809987 1_455
Ag11_0 Ga2_0 2.816608 1_555
Ag11_0 Ag11_4 2.888823 1_555
Ag11_0 Ag11_4 2.888823 1_455
Ag11_0 Ag5_0 2.941183 1_555
Ag11_0 Ag3_2 2.948677 1_555
Ag11_0 Ag5_4 2.960369 1_455
Ag11_0 Ag3_6 2.965616 1_455
Ag11_1 Ga3_2 2.717979 1_556
Ag11_1 Ga0_3 2.723495 1_555
Ag11_1 Ga2_5 2.809987 1_455
Ag11_1 Ga2_1 2.816608 1_555
Ag11_1 Ag11_5 2.888823 1_555
Ag11_1 Ag11_5 2.888823 1_455
Ag11_1 Ag5_1 2.941183 1_555
Ag11_1 Ag3_3 2.948677 1_555
Ag11_1 Ag5_5 2.960369 1_455
Ag11_1 Ag3_7 2.965616 1_455
Ag11_2 Ga3_1 2.717979 1_565
Ag11_2 Ga0_0 2.723495 1_565
Ag11_2 Ga2_6 2.809987 1_455
Ag11_2 Ga2_2 2.816608 1_555
Ag11_2 Ag11_6 2.888823 1_555
Ag11_2 Ag11_6 2.888823 1_455
Ag11_2 Ag5_2 2.941183 1_555
Ag11_2 Ag3_0 2.948677 1_565
Ag11_2 Ag5_6 2.960369 1_455
Ag11_2 Ag3_4 2.965616 1_465
Ag11_3 Ga3_0 2.717979 1_566
Ag11_3 Ga0_1 2.723495 1_565
Ag11_3 Ga2_7 2.809987 1_455
Ag11_3 Ga2_3 2.816608 1_555
Ag11_3 Ag11_7 2.888823 1_555
Ag11_3 Ag11_7 2.888823 1_455
Ag11_3 Ag5_3 2.941183 1_555
Ag11_3 Ag3_1 2.948677 1_565
Ag11_3 Ag5_7 2.960369 1_455
Ag11_3 Ag3_5 2.965616 1_465
Ag11_4 Ga3_7 2.717979 1_555
Ag11_4 Ga0_6 2.723495 1_555
Ag11_4 Ga2_0 2.809987 1_555
Ag11_4 Ga2_4 2.816608 1_555
Ag11_4 Ag5_4 2.941183 1_555
Ag11_4 Ag3_6 2.948677 1_555
Ag11_4 Ag5_0 2.960369 1_555
Ag11_4 Ag3_2 2.965616 1_555
Ag11_5 Ga3_6 2.717979 1_556
Ag11_5 Ga0_7 2.723495 1_555
Ag11_5 Ga2_1 2.809987 1_555
Ag11_5 Ga2_5 2.816608 1_555
Ag11_5 Ag5_5 2.941183 1_555
Ag11_5 Ag3_7 2.948677 1_555
Ag11_5 Ag5_1 2.960369 1_555
Ag11_5 Ag3_3 2.965616 1_555
Ag11_6 Ga3_5 2.717979 1_565
Ag11_6 Ga0_4 2.723495 1_565
Ag11_6 Ga2_2 2.809987 1_555
Ag11_6 Ga2_6 2.816608 1_555
Ag11_6 Ag5_6 2.941183 1_555
Ag11_6 Ag3_4 2.948677 1_565
Ag11_6 Ag5_2 2.960369 1_555
Ag11_6 Ag3_0 2.965616 1_565
Ag11_7 Ga3_4 2.717979 1_566
Ag11_7 Ga0_5 2.723495 1_565
Ag11_7 Ga2_3 2.809987 1_555
Ag11_7 Ga2_7 2.816608 1_555
Ag11_7 Ag5_7 2.941183 1_555
Ag11_7 Ag3_5 2.948677 1_565
Ag11_7 Ag5_3 2.960369 1_555
Ag11_7 Ag3_1 2.965616 1_565
Ag12_0 Ag8_0 2.775006 1_555
Ag12_0 Ag7_1 2.790539 1_554
Ag12_0 Ag4_0 2.838789 1_555
Ag12_0 Ag4_4 2.842588 1_455
Ag12_0 Ag2_0 2.852877 1_555
Ag12_0 Ag2_4 2.858968 1_455
Ag12_0 Ag12_4 2.888823 1_555
Ag12_0 Ag12_4 2.888823 1_455
Ag12_1 Ag8_1 2.775006 1_555
Ag12_1 Ag7_0 2.790539 1_555
Ag12_1 Ag4_1 2.838789 1_555
Ag12_1 Ag4_5 2.842588 1_455
Ag12_1 Ag2_1 2.852877 1_555
Ag12_1 Ag2_5 2.858968 1_455
Ag12_1 Ag12_5 2.888823 1_555
Ag12_1 Ag12_5 2.888823 1_455
Ag12_2 Ag8_2 2.775006 1_555
Ag12_2 Ag7_3 2.790539 1_554
Ag12_2 Ag4_2 2.838789 1_555
Ag12_2 Ag4_6 2.842588 1_455
Ag12_2 Ag2_2 2.852877 1_555
Ag12_2 Ag2_6 2.858968 1_455
Ag12_2 Ag12_6 2.888823 1_555
Ag12_2 Ag12_6 2.888823 1_455
Ag12_3 Ag8_3 2.775006 1_555
Ag12_3 Ag7_2 2.790539 1_555
Ag12_3 Ag4_3 2.838789 1_555
Ag12_3 Ag4_7 2.842588 1_455
Ag12_3 Ag2_3 2.852877 1_555
Ag12_3 Ag2_7 2.858968 1_455
Ag12_3 Ag12_7 2.888823 1_555
Ag12_3 Ag12_7 2.888823 1_455
Ag12_4 Ag8_4 2.775006 1_555
Ag12_4 Ag7_5 2.790539 1_554
Ag12_4 Ag4_4 2.838789 1_555
Ag12_4 Ag4_0 2.842588 1_555
Ag12_4 Ag2_4 2.852877 1_555
Ag12_4 Ag2_0 2.858968 1_555
Ag12_5 Ag8_5 2.775006 1_555
Ag12_5 Ag7_4 2.790539 1_555
Ag12_5 Ag4_5 2.838789 1_555
Ag12_5 Ag4_1 2.842588 1_555
Ag12_5 Ag2_5 2.852877 1_555
Ag12_5 Ag2_1 2.858968 1_555
Ag12_6 Ag8_6 2.775006 1_555
Ag12_6 Ag7_7 2.790539 1_554
Ag12_6 Ag4_6 2.838789 1_555
Ag12_6 Ag4_2 2.842588 1_555
Ag12_6 Ag2_6 2.852877 1_555
Ag12_6 Ag2_2 2.858968 1_555
Ag12_7 Ag8_7 2.775006 1_555
Ag12_7 Ag7_6 2.790539 1_555
Ag12_7 Ag4_7 2.838789 1_555
Ag12_7 Ag4_3 2.842588 1_555
Ag12_7 Ag2_7 2.852877 1_555
Ag12_7 Ag2_3 2.858968 1_555
