# generated using pymatgen
data_CoSb(PO4)2
_symmetry_space_group_name_H-M   'P 1'
_cell_length_a   6.06799128
_cell_length_b   10.14731932
_cell_length_c   11.26799299
_cell_angle_alpha   115.39214304
_cell_angle_beta   89.99272046
_cell_angle_gamma   90.02709963
_symmetry_Int_Tables_number   1
_chemical_formula_structural   CoSb(PO4)2
_chemical_formula_sum   'Co4 Sb4 P8 O32'
_cell_volume   626.78709418
_cell_formula_units_Z   4
loop_
 _symmetry_equiv_pos_site_id
 _symmetry_equiv_pos_as_xyz
  1  'x, y, z'
loop_
 _atom_site_type_symbol
 _atom_site_label
 _atom_site_symmetry_multiplicity
 _atom_site_fract_x
 _atom_site_fract_y
 _atom_site_fract_z
 _atom_site_occupancy
  Co  Co0  1  0.74991300  0.83773800  0.23951000  1
  Co  Co1  1  0.25010200  0.16229200  0.76053300  1
  Co  Co2  1  0.75011200  0.31736000  0.20472800  1
  Co  Co3  1  0.24937600  0.68278000  0.79540000  1
  Sb  Sb0  1  0.24987600  0.61166200  0.27527500  1
  Sb  Sb1  1  0.25023200  0.11879600  0.28181300  1
  Sb  Sb2  1  0.75044200  0.38833100  0.72470200  1
  Sb  Sb3  1  0.74964000  0.88121300  0.71815700  1
  P  P0  1  0.24997800  0.25262900  0.08752100  1
  P  P1  1  0.24987900  0.73823300  0.09712100  1
  P  P2  1  0.74970300  0.74743300  0.91249200  1
  P  P3  1  0.75018100  0.26176600  0.90285600  1
  P  P4  1  0.74986700  0.64183200  0.40153700  1
  P  P5  1  0.75011900  0.14698700  0.40527200  1
  P  P6  1  0.25045000  0.35811300  0.59845800  1
  P  P7  1  0.24974400  0.85296000  0.59474400  1
  O  O0  1  0.75015300  0.36382500  0.04687400  1
  O  O1  1  0.75007900  0.82876400  0.05997000  1
  O  O2  1  0.24957600  0.63611700  0.95311700  1
  O  O3  1  0.24982300  0.17122700  0.94005000  1
  O  O4  1  0.24983000  0.42120900  0.12030000  1
  O  O5  1  0.25014900  0.89822800  0.12357200  1
  O  O6  1  0.74999600  0.57883300  0.87963000  1
  O  O7  1  0.75008500  0.10174100  0.87633700  1
  O  O8  1  0.74959400  0.27334500  0.36818900  1
  O  O9  1  0.74999600  0.78410900  0.38929000  1
  O  O10  1  0.24996900  0.72663200  0.63182700  1
  O  O11  1  0.25033100  0.21585600  0.61071300  1
  O  O12  1  0.24958200  0.34173000  0.45815300  1
  O  O13  1  0.24991300  0.79630300  0.43915500  1
  O  O14  1  0.74997700  0.65815600  0.54179800  1
  O  O15  1  0.75092900  0.20365100  0.56085400  1
  O  O16  1  0.04959300  0.21553200  0.15514500  1
  O  O17  1  0.05527500  0.70182500  0.17759200  1
  O  O18  1  0.45055700  0.21566200  0.15497200  1
  O  O19  1  0.44453700  0.70168000  0.17743100  1
  O  O20  1  0.54911500  0.78444200  0.84510000  1
  O  O21  1  0.55564900  0.29825100  0.82245500  1
  O  O22  1  0.95007700  0.78459100  0.84488400  1
  O  O23  1  0.94491800  0.29831700  0.82254700  1
  O  O24  1  0.95675500  0.54079600  0.32464400  1
  O  O25  1  0.94951100  0.03966800  0.34988700  1
  O  O26  1  0.54280400  0.54086800  0.32471100  1
  O  O27  1  0.55072500  0.03948900  0.35044200  1
  O  O28  1  0.04388700  0.45932900  0.67569300  1
  O  O29  1  0.05020200  0.96020100  0.64980200  1
  O  O30  1  0.45783700  0.45890800  0.67487900  1
  O  O31  1  0.44896500  0.96059000  0.64986500  1
loop_
_geom_bond_atom_site_label_1
_geom_bond_atom_site_label_2
_geom_bond_distance
_geom_bond_site_symmetry_2
Co0 O9 1.982982 1_555
Co0 O1 1.985712 1_555
Co0 O19 2.235792 1_555
Co0 O17 2.235859 1_655
Co0 O27 2.240936 1_565
Co0 O25 2.241603 1_565
Co1 O11 1.982997 1_555
Co1 O3 1.985608 1_555
Co1 O23 2.235565 1_455
Co1 O21 2.236082 1_555
Co1 O31 2.239045 1_545
Co1 O29 2.244348 1_545
Co2 O0 2.026158 1_555
Co2 O18 2.045871 1_555
Co2 O16 2.046613 1_655
Co2 O8 2.073046 1_555
Co2 O24 2.430834 1_555
Co2 O26 2.434472 1_555
Co3 O2 2.025874 1_555
Co3 O22 2.045502 1_455
Co3 O20 2.046685 1_555
Co3 O10 2.073299 1_555
Co3 O28 2.426971 1_555
Co3 O30 2.441603 1_555
O0 P3 1.504877 1_554
O1 P2 1.505469 1_554
O2 P1 1.504885 1_556
O3 P0 1.505453 1_556
O4 P0 1.587711 1_555
O4 Sb0 1.972310 1_555
O5 P1 1.519756 1_555
O5 Sb1 2.183145 1_565
O6 P2 1.587696 1_555
O6 Sb2 1.972365 1_555
O7 P3 1.519855 1_555
O7 Sb3 2.182613 1_545
O8 P5 1.509345 1_555
O9 P4 1.508067 1_555
O10 P7 1.509047 1_555
O11 P6 1.507910 1_555
O12 P6 1.517130 1_555
O12 Sb1 2.282691 1_555
O13 P7 1.593654 1_555
O13 Sb0 1.988250 1_555
O14 P4 1.516829 1_555
O14 Sb3 2.283555 1_555
O15 P5 1.593578 1_555
O15 Sb2 1.988279 1_555
O16 P0 1.564019 1_555
O16 Sb1 2.384558 1_555
O17 P1 1.624718 1_555
O17 Sb0 2.075566 1_555
O18 P0 1.563620 1_555
O18 Sb1 2.385321 1_555
O19 P1 1.624877 1_555
O19 Sb0 2.075444 1_555
O20 P2 1.563462 1_555
O20 Sb3 2.386187 1_555
O21 P3 1.624670 1_555
O21 Sb2 2.075582 1_555
O22 P2 1.564139 1_555
O22 Sb3 2.383674 1_555
O23 P3 1.624786 1_555
O23 Sb2 2.075437 1_555
O24 P4 1.617701 1_555
O24 Sb0 2.081295 1_655
O25 P5 1.567632 1_555
O25 Sb1 2.255958 1_655
O26 P4 1.617449 1_555
O26 Sb0 2.080974 1_555
O27 P5 1.567309 1_555
O27 Sb1 2.259613 1_555
O28 P6 1.617930 1_555
O28 Sb2 2.081910 1_455
O29 P7 1.567555 1_555
O29 Sb3 2.256027 1_455
O30 P6 1.617087 1_555
O30 Sb2 2.080104 1_555
O31 P7 1.567522 1_555
O31 Sb3 2.258985 1_555
