# generated using pymatgen
data_MgV2S5
_symmetry_space_group_name_H-M   'P 1'
_cell_length_a   3.92110100
_cell_length_b   5.98238800
_cell_length_c   14.38171000
_cell_angle_alpha   90.00000000
_cell_angle_beta   90.00000000
_cell_angle_gamma   90.00000000
_symmetry_Int_Tables_number   1
_chemical_formula_structural   MgV2S5
_chemical_formula_sum   'Mg2 V4 S10'
_cell_volume   337.35964645
_cell_formula_units_Z   2
loop_
 _symmetry_equiv_pos_site_id
 _symmetry_equiv_pos_as_xyz
  1  'x, y, z'
loop_
 _atom_site_type_symbol
 _atom_site_label
 _atom_site_symmetry_multiplicity
 _atom_site_fract_x
 _atom_site_fract_y
 _atom_site_fract_z
 _atom_site_occupancy
  Mg  Mg0  1  0.50000000  0.63447500  0.00000000  1
  Mg  Mg1  1  0.00000000  0.36552500  0.50000000  1
  V  V0  1  0.00000000  0.08258000  0.84766200  1
  V  V1  1  0.50000000  0.91742000  0.65233800  1
  V  V2  1  0.50000000  0.91742000  0.34766200  1
  V  V3  1  0.00000000  0.08258000  0.15233800  1
  S  S0  1  0.50000000  0.07366300  0.50000000  1
  S  S1  1  0.00000000  0.92633700  0.00000000  1
  S  S2  1  0.50000000  0.88056800  0.81959900  1
  S  S3  1  0.00000000  0.11943200  0.68040100  1
  S  S4  1  0.50000000  0.88056800  0.18040100  1
  S  S5  1  0.00000000  0.11943200  0.31959900  1
  S  S6  1  0.00000000  0.42346300  0.10956500  1
  S  S7  1  0.50000000  0.57653700  0.39043500  1
  S  S8  1  0.50000000  0.57653700  0.60956500  1
  S  S9  1  0.00000000  0.42346300  0.89043500  1
loop_
_geom_bond_atom_site_label_1
_geom_bond_atom_site_label_2
_geom_bond_distance
_geom_bond_site_symmetry_2
Mg0 S1 2.625335 1_655
Mg0 S1 2.625335 1_555
Mg0 S6 2.814291 1_555
Mg0 S6 2.814291 1_655
Mg0 S9 2.814291 1_654
Mg0 S9 2.814291 1_554
Mg0 S4 2.983076 1_555
Mg0 S2 2.983076 1_554
Mg1 S0 2.625335 1_555
Mg1 S0 2.625335 1_455
Mg1 S8 2.814291 1_455
Mg1 S8 2.814291 1_555
Mg1 S7 2.814291 1_555
Mg1 S7 2.814291 1_455
Mg1 S3 2.983076 1_555
Mg1 S5 2.983076 1_555
S0 V1 2.381939 1_545
S0 V2 2.381939 1_545
S1 V3 2.381939 1_565
S1 V0 2.381939 1_564
S2 V0 2.338194 1_665
S2 V0 2.338194 1_565
S2 V1 2.415581 1_555
S3 V1 2.338194 1_445
S3 V1 2.338194 1_545
S3 V0 2.415581 1_555
S4 V3 2.338194 1_665
S4 V3 2.338194 1_565
S4 V2 2.415581 1_555
S5 V2 2.338194 1_545
S5 V2 2.338194 1_445
S5 V3 2.415581 1_555
S6 V3 2.130054 1_555
S7 V2 2.130054 1_555
S8 V1 2.130054 1_555
S9 V0 2.130054 1_555
