# generated using pymatgen
data_Nd4V5(Si2O11)2
_symmetry_space_group_name_H-M   'P 1'
_cell_length_a   7.33046243
_cell_length_b   7.33046243
_cell_length_c   11.15346992
_cell_angle_alpha   80.41186121
_cell_angle_beta   80.41186121
_cell_angle_gamma   45.76089619
_symmetry_Int_Tables_number   1
_chemical_formula_structural   Nd4V5(Si2O11)2
_chemical_formula_sum   'Nd4 V5 Si4 O22'
_cell_volume   422.31189515
_cell_formula_units_Z   1
loop_
 _symmetry_equiv_pos_site_id
 _symmetry_equiv_pos_as_xyz
  1  'x, y, z'
loop_
 _atom_site_type_symbol
 _atom_site_label
 _atom_site_symmetry_multiplicity
 _atom_site_fract_x
 _atom_site_fract_y
 _atom_site_fract_z
 _atom_site_occupancy
  Nd  Nd0  1  0.07324700  0.07324700  0.75093900  1
  Nd  Nd1  1  0.92675300  0.92675300  0.24906100  1
  Nd  Nd2  1  0.35641100  0.35641100  0.75574900  1
  Nd  Nd3  1  0.64358900  0.64358900  0.24425100  1
  V  V0  1  0.50000000  0.50000000  0.00000000  1
  V  V1  1  0.00000000  0.50000000  0.50000000  1
  V  V2  1  0.50000000  0.00000000  0.50000000  1
  V  V3  1  0.00000000  0.00000000  0.50000000  1
  V  V4  1  0.50000000  0.50000000  0.50000000  1
  Si  Si0  1  0.13877000  0.13877000  0.04157400  1
  Si  Si1  1  0.86123000  0.86123000  0.95842600  1
  Si  Si2  1  0.29695000  0.29695000  0.22840900  1
  Si  Si3  1  0.70305000  0.70305000  0.77159100  1
  O  O0  1  0.22539000  0.22539000  0.12626700  1
  O  O1  1  0.77461000  0.77461000  0.87373300  1
  O  O2  1  0.16510600  0.69351200  0.91131300  1
  O  O3  1  0.30648800  0.83489400  0.08868700  1
  O  O4  1  0.83489400  0.30648800  0.08868700  1
  O  O5  1  0.69351200  0.16510600  0.91131300  1
  O  O6  1  0.18504300  0.18504300  0.89856700  1
  O  O7  1  0.81495700  0.81495700  0.10143300  1
  O  O8  1  0.41376700  0.41376700  0.16465700  1
  O  O9  1  0.58623300  0.58623300  0.83534300  1
  O  O10  1  0.96613200  0.48931700  0.68933500  1
  O  O11  1  0.51068300  0.03386800  0.31066500  1
  O  O12  1  0.03386800  0.51068300  0.31066500  1
  O  O13  1  0.65017200  0.65017200  0.48520100  1
  O  O14  1  0.34982800  0.34982800  0.51479900  1
  O  O15  1  0.85786100  0.85786100  0.47262000  1
  O  O16  1  0.14213900  0.14213900  0.52738000  1
  O  O17  1  0.73560100  0.21739600  0.63110600  1
  O  O18  1  0.78260400  0.26439900  0.36889400  1
  O  O19  1  0.26439900  0.78260400  0.36889400  1
  O  O20  1  0.21739600  0.73560100  0.63110600  1
  O  O21  1  0.48931700  0.96613200  0.68933500  1
loop_
_geom_bond_atom_site_label_1
_geom_bond_atom_site_label_2
_geom_bond_distance
_geom_bond_site_symmetry_2
Nd0 O6 2.427041 1_555
Nd0 O17 2.451805 1_455
Nd0 O20 2.451805 1_545
Nd0 O16 2.498858 1_555
Nd0 O21 2.555602 1_545
Nd0 O10 2.555602 1_455
Nd0 O5 2.743855 1_455
Nd0 O2 2.743855 1_545
Nd0 O9 3.016634 1_545
Nd0 O9 3.016634 1_455
Nd1 O7 2.427041 1_555
Nd1 O18 2.451805 1_565
Nd1 O19 2.451805 1_655
Nd1 O15 2.498858 1_555
Nd1 O12 2.555602 1_655
Nd1 O11 2.555602 1_565
Nd1 O3 2.743855 1_655
Nd1 O4 2.743855 1_565
Nd1 O8 3.016634 1_655
Nd1 O8 3.016634 1_565
Nd2 O20 2.435123 1_555
Nd2 O17 2.435123 1_555
Nd2 O10 2.501843 1_455
Nd2 O21 2.501843 1_545
Nd2 O6 2.561672 1_555
Nd2 O5 2.620296 1_555
Nd2 O2 2.620296 1_555
Nd2 O14 2.704918 1_555
Nd3 O18 2.435123 1_555
Nd3 O19 2.435123 1_555
Nd3 O11 2.501843 1_565
Nd3 O12 2.501843 1_655
Nd3 O7 2.561672 1_555
Nd3 O4 2.620296 1_555
Nd3 O3 2.620296 1_555
Nd3 O13 2.704918 1_555
O0 Si2 1.621825 1_555
O0 Si0 1.631212 1_555
O1 Si3 1.621825 1_555
O1 Si1 1.631212 1_555
O2 Si1 1.659415 1_455
O2 V0 2.121287 1_556
O3 Si0 1.659415 1_565
O3 V0 2.121287 1_555
O4 Si0 1.659415 1_655
O4 V0 2.121287 1_555
O5 Si1 1.659415 1_545
O5 V0 2.121287 1_556
O6 Si0 1.604460 1_556
O7 Si1 1.604460 1_554
O8 Si2 1.609242 1_555
O8 V0 1.988964 1_555
O9 Si3 1.609242 1_555
O9 V0 1.988964 1_556
O10 Si3 1.639843 1_555
O10 V1 2.079570 1_655
O11 Si2 1.639843 1_555
O11 V2 2.079570 1_555
O12 Si2 1.639843 1_555
O12 V1 2.079570 1_555
O13 V2 1.989167 1_565
O13 V1 1.989167 1_655
O13 V4 2.005171 1_555
O14 V1 1.989167 1_555
O14 V2 1.989167 1_555
O14 V4 2.005171 1_555
O15 V3 1.997841 1_665
O15 V1 2.021347 1_655
O15 V2 2.021347 1_565
O16 V3 1.997841 1_555
O16 V2 2.021347 1_555
O16 V1 2.021347 1_555
O17 V3 1.989186 1_655
O17 V4 2.062191 1_555
O18 V3 1.989186 1_655
O18 V4 2.062191 1_555
O19 V3 1.989186 1_565
O19 V4 2.062191 1_555
O20 V3 1.989186 1_565
O20 V4 2.062191 1_555
O21 Si3 1.639843 1_555
O21 V2 2.079570 1_565
