# generated using pymatgen
data_CdAsP
_symmetry_space_group_name_H-M   'P 1'
_cell_length_a   6.11109072
_cell_length_b   6.11109072
_cell_length_c   6.11109072
_cell_angle_alpha   135.35761838
_cell_angle_beta   99.89789732
_cell_angle_gamma   96.69595283
_symmetry_Int_Tables_number   1
_chemical_formula_structural   CdAsP
_chemical_formula_sum   'Cd2 As2 P2'
_cell_volume   148.27264183
_cell_formula_units_Z   2
loop_
 _symmetry_equiv_pos_site_id
 _symmetry_equiv_pos_as_xyz
  1  'x, y, z'
loop_
 _atom_site_type_symbol
 _atom_site_label
 _atom_site_symmetry_multiplicity
 _atom_site_fract_x
 _atom_site_fract_y
 _atom_site_fract_z
 _atom_site_occupancy
  Cd  Cd0  1  0.25000000  0.38941000  0.13941000  1
  Cd  Cd1  1  0.75000000  0.11059000  0.36059000  1
  As  As0  1  0.93565300  0.75000000  0.68565300  1
  As  As1  1  0.56434700  0.25000000  0.81434700  1
  P  P0  1  0.57370300  0.82370300  0.75000000  1
  P  P1  1  0.92629700  0.67629700  0.25000000  1
loop_
_geom_bond_atom_site_label_1
_geom_bond_atom_site_label_2
_geom_bond_distance
_geom_bond_site_symmetry_2
Cd0 P1 2.650648 1_455
Cd0 P0 2.650648 1_555
Cd1 P0 2.650648 1_544
Cd1 P1 2.650648 1_545
As0 P0 2.351458 1_555
As0 P1 2.351458 1_555
As0 Cd1 2.765408 1_555
As0 Cd0 2.765408 1_666
As1 P1 2.351458 1_556
As1 P0 2.351458 1_545
As1 Cd1 2.765408 1_555
As1 Cd0 2.765408 1_556
