# generated using pymatgen
data_CeCdPd
_symmetry_space_group_name_H-M   'P 1'
_cell_length_a   7.73249124
_cell_length_b   7.73262060
_cell_length_c   4.05351348
_cell_angle_alpha   90.00000000
_cell_angle_beta   90.00000000
_cell_angle_gamma   120.00055038
_symmetry_Int_Tables_number   1
_chemical_formula_structural   CeCdPd
_chemical_formula_sum   'Ce3 Cd3 Pd3'
_cell_volume   209.89688002
_cell_formula_units_Z   3
loop_
 _symmetry_equiv_pos_site_id
 _symmetry_equiv_pos_as_xyz
  1  'x, y, z'
loop_
 _atom_site_type_symbol
 _atom_site_label
 _atom_site_symmetry_multiplicity
 _atom_site_fract_x
 _atom_site_fract_y
 _atom_site_fract_z
 _atom_site_occupancy
  Ce  Ce0  1  0.40872005  0.00001674  0.50000000  1
  Ce  Ce1  1  -0.00000000  0.40869747  0.50000000  1
  Ce  Ce2  1  0.59127995  0.59129669  0.50000000  1
  Cd  Cd0  1  0.75079565  -0.00001691  -0.00000000  1
  Cd  Cd1  1  0.00000000  0.75081581  0.00000000  1
  Cd  Cd2  1  0.24920435  0.24918744  -0.00000000  1
  Pd  Pd0  1  0.33332761  0.66665481  -0.00000000  1
  Pd  Pd1  1  0.66667239  0.33332620  -0.00000000  1
  Pd  Pd2  1  -0.00000000  0.00002073  0.50000000  1
loop_
_geom_bond_atom_site_label_1
_geom_bond_atom_site_label_2
_geom_bond_distance
_geom_bond_site_symmetry_2
Ce0 Pd1 3.096462 1_556
Ce0 Pd1 3.096462 1_555
Ce0 Pd0 3.096719 1_546
Ce0 Pd0 3.096719 1_545
Ce0 Pd2 3.160440 1_555
Ce1 Pd1 3.096526 1_456
Ce1 Pd1 3.096526 1_455
Ce1 Pd0 3.096528 1_555
Ce1 Pd0 3.096528 1_556
Ce1 Pd2 3.160142 1_555
Ce2 Pd0 3.096466 1_555
Ce2 Pd0 3.096466 1_556
Ce2 Pd1 3.096724 1_555
Ce2 Pd1 3.096724 1_556
Ce2 Pd2 3.160440 1_665
Cd0 Pd2 2.796497 1_654
Cd0 Pd2 2.796497 1_655
Cd0 Pd0 2.956932 1_545
Cd0 Pd1 2.957017 1_555
Cd0 Ce0 3.332412 1_554
Cd0 Ce0 3.332412 1_555
Cd0 Cd1 3.337400 1_645
Cd0 Cd2 3.337592 1_655
Cd0 Ce2 3.423167 1_544
Cd0 Ce2 3.423167 1_545
Cd0 Ce1 3.423322 1_655
Cd0 Ce1 3.423322 1_654
Cd1 Pd2 2.796623 1_564
Cd1 Pd2 2.796623 1_565
Cd1 Pd0 2.957056 1_555
Cd1 Pd1 2.957061 1_455
Cd1 Ce1 3.332606 1_555
Cd1 Ce1 3.332606 1_554
Cd1 Cd2 3.337400 1_565
Cd1 Ce2 3.423317 1_454
Cd1 Ce2 3.423317 1_455
Cd1 Ce0 3.423317 1_565
Cd1 Ce0 3.423317 1_564
Cd2 Pd2 2.796497 1_554
Cd2 Pd2 2.796497 1_555
Cd2 Pd1 2.956935 1_555
Cd2 Pd0 2.957025 1_555
Cd2 Ce2 3.332412 1_554
Cd2 Ce2 3.332412 1_555
Cd2 Ce0 3.423167 1_555
Cd2 Ce0 3.423167 1_554
Cd2 Ce1 3.423322 1_555
Cd2 Ce1 3.423322 1_554
