# generated using pymatgen
data_YH9C5(NO4)2
_symmetry_space_group_name_H-M   'P 1'
_cell_length_a   6.75639029
_cell_length_b   6.75639029
_cell_length_c   6.66366071
_cell_angle_alpha   74.83561505
_cell_angle_beta   74.83561505
_cell_angle_gamma   65.76169292
_symmetry_Int_Tables_number   1
_chemical_formula_structural   YH9C5(NO4)2
_chemical_formula_sum   'Y1 H9 C5 N2 O8'
_cell_volume   263.57332658
_cell_formula_units_Z   1
loop_
 _symmetry_equiv_pos_site_id
 _symmetry_equiv_pos_as_xyz
  1  'x, y, z'
loop_
 _atom_site_type_symbol
 _atom_site_label
 _atom_site_symmetry_multiplicity
 _atom_site_fract_x
 _atom_site_fract_y
 _atom_site_fract_z
 _atom_site_occupancy
  Y  Y0  1  0.05249800  0.94750200  0.00000000  1
  H  H0  1  0.85762300  0.58416100  0.42035100  1
  H  H1  1  0.41583900  0.14237700  0.57964900  1
  H  H2  1  0.57342600  0.68269000  0.53596800  1
  H  H3  1  0.31731000  0.42657400  0.46403200  1
  H  H4  1  0.58415000  0.79149500  0.12515100  1
  H  H5  1  0.20850500  0.41585000  0.87484900  1
  H  H6  1  0.61025700  0.41249900  0.81779500  1
  H  H7  1  0.58750100  0.38974300  0.18220500  1
  H  H8  1  0.96853900  0.03146100  0.50000000  1
  C  C0  1  0.57920700  0.89410600  0.96531800  1
  C  C1  1  0.10589400  0.42079300  0.03468200  1
  C  C2  1  0.76307500  0.41224800  0.70652500  1
  C  C3  1  0.58775200  0.23692500  0.29347500  1
  C  C4  1  0.11867900  0.88132100  0.50000000  1
  N  N0  1  0.73100300  0.57353000  0.54185900  1
  N  N1  1  0.42647000  0.26899700  0.45814100  1
  O  O0  1  0.19555400  0.79636600  0.33316400  1
  O  O1  1  0.20363400  0.80444600  0.66683600  1
  O  O2  1  0.41160800  0.93722900  0.88348200  1
  O  O3  1  0.06277100  0.58839200  0.11651800  1
  O  O4  1  0.94826600  0.26933100  0.73785500  1
  O  O5  1  0.73066900  0.05173400  0.26214500  1
  O  O6  1  0.73587600  0.95950600  0.87681800  1
  O  O7  1  0.04049400  0.26412400  0.12318200  1
loop_
_geom_bond_atom_site_label_1
_geom_bond_atom_site_label_2
_geom_bond_distance
_geom_bond_site_symmetry_2
H0 N0 1.024818 1_555
H1 N1 1.024818 1_555
H2 N0 1.020285 1_555
H3 N1 1.020285 1_555
C0 H4 1.108792 1_556
C0 O6 1.258809 1_555
C0 O2 1.278114 1_555
C1 H5 1.108792 1_554
C1 O7 1.258809 1_555
C1 O3 1.278114 1_555
C2 H6 1.102053 1_555
C2 O4 1.257272 1_555
C2 N0 1.320360 1_555
C3 H7 1.102053 1_555
C3 O5 1.257272 1_555
C3 N1 1.320360 1_555
C4 H8 1.101428 1_465
C4 O1 1.273644 1_555
C4 O0 1.273644 1_555
O0 Y0 2.456003 1_555
O1 Y0 2.456003 1_556
O2 Y0 2.323547 1_556
O3 Y0 2.323547 1_555
O4 Y0 2.382131 1_646
O5 Y0 2.382131 1_645
O6 Y0 2.449088 1_656
O7 Y0 2.449088 1_545
