# generated using pymatgen
data_NaMn3V4O12
_symmetry_space_group_name_H-M   'P 1'
_cell_length_a   6.49868806
_cell_length_b   6.49815901
_cell_length_c   6.47999184
_cell_angle_alpha   70.59501386
_cell_angle_beta   70.59047377
_cell_angle_gamma   109.52949589
_symmetry_Int_Tables_number   1
_chemical_formula_structural   NaMn3V4O12
_chemical_formula_sum   'Na1 Mn3 V4 O12'
_cell_volume   210.83410564
_cell_formula_units_Z   1
loop_
 _symmetry_equiv_pos_site_id
 _symmetry_equiv_pos_as_xyz
  1  'x, y, z'
loop_
 _atom_site_type_symbol
 _atom_site_label
 _atom_site_symmetry_multiplicity
 _atom_site_fract_x
 _atom_site_fract_y
 _atom_site_fract_z
 _atom_site_occupancy
  Na  Na0  1  0.00007000  0.00000100  0.00005400  1
  Mn  Mn0  1  0.50001700  0.00097000  0.49888700  1
  Mn  Mn1  1  0.50041200  0.50032800  0.00005500  1
  Mn  Mn2  1  0.99855600  0.49857900  0.50018400  1
  V  V0  1  0.00024000  0.50011700  0.99981700  1
  V  V1  1  0.49978500  0.50002600  0.50020900  1
  V  V2  1  0.49986800  0.99984700  0.00011900  1
  V  V3  1  0.99993000  0.99981400  0.50007400  1
  O  O0  1  0.10641200  0.81151300  0.69448400  1
  O  O1  1  0.49790700  0.18977400  0.71041200  1
  O  O2  1  0.50244600  0.81025300  0.28937700  1
  O  O3  1  0.89365700  0.18859800  0.30564600  1
  O  O4  1  0.70516000  0.89352700  0.80077400  1
  O  O5  1  0.69202400  0.50204900  0.20833500  1
  O  O6  1  0.30822500  0.49782600  0.79199200  1
  O  O7  1  0.29526500  0.10685500  0.19920300  1
  O  O8  1  0.18821900  0.29485800  0.50628800  1
  O  O9  1  0.81045700  0.30769200  0.90029600  1
  O  O10  1  0.18951200  0.69218200  0.09999000  1
  O  O11  1  0.81183800  0.70519400  0.49380200  1
loop_
_geom_bond_atom_site_label_1
_geom_bond_atom_site_label_2
_geom_bond_distance
_geom_bond_site_symmetry_2
Na0 O11 2.676219 1_445
Na0 O8 2.676464 1_554
Na0 O0 2.677040 1_544
Na0 O3 2.677790 1_455
Na0 O4 2.677938 1_444
Na0 O7 2.679159 1_555
Na0 O10 2.692888 1_545
Na0 O9 2.692914 1_454
Na0 O2 2.694753 1_445
Na0 O6 2.696125 1_554
Na0 O1 2.696154 1_554
Na0 O5 2.696443 1_445
Mn0 O0 2.089966 1_545
Mn0 O3 2.090410 1_555
Mn0 O2 2.120406 1_545
Mn0 O1 2.121409 1_555
Mn1 O4 2.087806 1_554
Mn1 O7 2.089301 1_555
Mn1 O5 2.118962 1_555
Mn1 O6 2.120877 1_554
Mn2 O8 2.088485 1_655
Mn2 O11 2.088639 1_555
Mn2 O10 2.120641 1_655
Mn2 O9 2.120815 1_555
O0 V3 1.919461 1_455
O0 V0 1.996039 1_555
O1 V2 1.880016 1_546
O1 V1 2.016872 1_555
O2 V2 1.879272 1_555
O2 V1 2.015333 1_555
O3 V3 1.920149 1_545
O3 V0 1.997368 1_654
O4 V3 1.919300 1_555
O4 V2 1.997427 1_556
O5 V1 1.881531 1_555
O5 V0 2.016725 1_654
O6 V1 1.878997 1_555
O6 V0 2.015340 1_555
O7 V3 1.920390 1_445
O7 V2 1.997478 1_545
O8 V3 1.921006 1_445
O8 V1 1.996494 1_555
O9 V0 1.879875 1_655
O9 V2 2.016682 1_546
O10 V0 1.880054 1_554
O10 V2 2.015080 1_555
O11 V3 1.918639 1_555
O11 V1 1.997832 1_555
