# generated using pymatgen
data_Yb4Si2S3O7
_symmetry_space_group_name_H-M   'P 1'
_cell_length_a   11.04273569
_cell_length_b   11.04273569
_cell_length_c   11.04273569
_cell_angle_alpha   116.28679881
_cell_angle_beta   116.28679881
_cell_angle_gamma   96.56156485
_symmetry_Int_Tables_number   1
_chemical_formula_structural   Yb4Si2S3O7
_chemical_formula_sum   'Yb16 Si8 S12 O28'
_cell_volume   998.51882877
_cell_formula_units_Z   4
loop_
 _symmetry_equiv_pos_site_id
 _symmetry_equiv_pos_as_xyz
  1  'x, y, z'
loop_
 _atom_site_type_symbol
 _atom_site_label
 _atom_site_symmetry_multiplicity
 _atom_site_fract_x
 _atom_site_fract_y
 _atom_site_fract_z
 _atom_site_occupancy
  Yb  Yb0  1  0.56024600  0.81386400  0.25361800  1
  Yb  Yb1  1  0.56024600  0.30662800  0.74638200  1
  Yb  Yb2  1  0.18613600  0.43975400  0.74638200  1
  Yb  Yb3  1  0.05662800  0.81024600  0.24638200  1
  Yb  Yb4  1  0.56386400  0.81024600  0.75361800  1
  Yb  Yb5  1  0.18975400  0.94337200  0.75361800  1
  Yb  Yb6  1  0.18975400  0.43613600  0.24638200  1
  Yb  Yb7  1  0.69337200  0.43975400  0.25361800  1
  Yb  Yb8  1  0.83320200  0.83320200  0.66640300  1
  Yb  Yb9  1  0.58320200  0.41679800  0.50000000  1
  Yb  Yb10  1  0.91679800  0.08320200  0.50000000  1
  Yb  Yb11  1  0.16679800  0.16679800  0.33359700  1
  Yb  Yb12  1  0.91679800  0.41679800  0.83359700  1
  Yb  Yb13  1  0.16679800  0.83320200  0.00000000  1
  Yb  Yb14  1  0.83320200  0.16679800  0.00000000  1
  Yb  Yb15  1  0.58320200  0.08320200  0.16640300  1
  Si  Si0  1  0.78642200  0.91521800  0.12879500  1
  Si  Si1  1  0.78642200  0.65762700  0.87120500  1
  Si  Si2  1  0.08478200  0.21357800  0.87120500  1
  Si  Si3  1  0.40762700  0.03642200  0.37120500  1
  Si  Si4  1  0.66521800  0.03642200  0.62879500  1
  Si  Si5  1  0.96357800  0.59237300  0.62879500  1
  Si  Si6  1  0.96357800  0.33478200  0.37120500  1
  Si  Si7  1  0.34237300  0.21357800  0.12879500  1
  S  S0  1  0.00000000  0.00000000  0.00000000  1
  S  S1  1  0.75000000  0.25000000  0.50000000  1
  S  S2  1  0.25000000  0.75000000  0.50000000  1
  S  S3  1  0.50000000  0.50000000  0.00000000  1
  S  S4  1  0.87500000  0.71151500  0.33651500  1
  S  S5  1  0.46151500  0.62500000  0.33651500  1
  S  S6  1  0.28848500  0.12500000  0.66348500  1
  S  S7  1  0.37500000  0.53848500  0.66348500  1
  S  S8  1  0.87500000  0.53848500  0.16348500  1
  S  S9  1  0.28848500  0.62500000  0.16348500  1
  S  S10  1  0.46151500  0.12500000  0.83651500  1
  S  S11  1  0.37500000  0.71151500  0.83651500  1
  O  O0  1  0.73713700  0.73713700  0.00000000  1
  O  O1  1  0.48713700  0.98713700  0.50000000  1
  O  O2  1  0.01286300  0.51286300  0.50000000  1
  O  O3  1  0.26286300  0.26286300  0.00000000  1
  O  O4  1  0.78667200  0.26807400  0.23533800  1
  O  O5  1  0.03273500  0.55133300  0.76466200  1
  O  O6  1  0.73192600  0.21332800  0.76466200  1
  O  O7  1  0.30133300  0.03667200  0.01859800  1
  O  O8  1  0.01807400  0.28273500  0.98140200  1
  O  O9  1  0.96332800  0.69866700  0.98140200  1
  O  O10  1  0.71726500  0.98192600  0.01859800  1
  O  O11  1  0.44866700  0.96726500  0.23533800  1
  O  O12  1  0.96332800  0.98192600  0.26466200  1
  O  O13  1  0.71726500  0.69866700  0.73533800  1
  O  O14  1  0.01807400  0.03667200  0.73533800  1
  O  O15  1  0.44866700  0.21332800  0.48140200  1
  O  O16  1  0.73192600  0.96726500  0.51859800  1
  O  O17  1  0.78667200  0.55133300  0.51859800  1
  O  O18  1  0.03273500  0.26807400  0.48140200  1
  O  O19  1  0.30133300  0.28273500  0.26466200  1
  O  O20  1  0.70799000  0.93667600  0.22868600  1
  O  O21  1  0.70799000  0.47930400  0.77131400  1
  O  O22  1  0.06332400  0.29201000  0.77131400  1
  O  O23  1  0.22930400  0.95799000  0.27131400  1
  O  O24  1  0.68667600  0.95799000  0.72868600  1
  O  O25  1  0.04201000  0.77069600  0.72868600  1
  O  O26  1  0.04201000  0.31332400  0.27131400  1
  O  O27  1  0.52069600  0.29201000  0.22868600  1
loop_
_geom_bond_atom_site_label_1
_geom_bond_atom_site_label_2
_geom_bond_distance
_geom_bond_site_symmetry_2
S0 Yb13 2.749653 1_545
S0 Yb14 2.749653 1_455
S0 Yb11 2.749661 1_555
S0 Yb8 2.749661 1_444
S1 Yb9 2.749653 1_555
S1 Yb10 2.749653 1_555
S1 Yb15 2.749661 1_555
S1 Yb12 2.749661 1_555
S2 Yb4 3.086082 1_555
S2 Yb6 3.086082 1_555
S2 Yb5 3.086082 1_555
S2 Yb3 3.086082 1_555
S3 Yb1 3.086082 1_554
S3 Yb0 3.086082 1_555
S3 Yb2 3.086082 1_554
S3 Yb7 3.086082 1_555
S4 S8 2.016942 1_555
S4 Yb3 2.903720 1_655
S4 Yb7 2.903720 1_555
S5 S9 2.016942 1_555
S5 Yb6 2.903720 1_555
S5 Yb0 2.903720 1_555
S6 Yb1 2.903720 1_555
S6 Yb5 2.903720 1_545
S7 Yb2 2.903720 1_555
S7 Yb4 2.903720 1_555
S8 Yb3 2.903720 1_655
S8 Yb7 2.903720 1_555
S9 Yb6 2.903720 1_555
S9 Yb0 2.903720 1_555
S10 S6 2.016942 1_555
S10 Yb5 2.903720 1_545
S10 Yb1 2.903720 1_555
S11 S7 2.016942 1_555
S11 Yb4 2.903720 1_555
S11 Yb2 2.903720 1_555
O0 Si1 1.666926 1_554
O0 Si0 1.666934 1_555
O1 Si3 1.666926 1_565
O1 Si4 1.666934 1_565
O2 Si5 1.666926 1_455
O2 Si6 1.666934 1_455
O3 Si7 1.666926 1_555
O3 Si2 1.666934 1_554
O4 Si6 1.645021 1_555
O4 Yb7 2.233384 1_555
O4 Yb15 2.419888 1_555
O4 Yb14 2.647293 1_555
O5 Si5 1.645028 1_455
O5 Yb2 2.233387 1_555
O5 Yb12 2.419888 1_455
O5 Yb13 2.647300 1_556
O6 Si4 1.645021 1_555
O6 Yb1 2.233384 1_555
O6 Yb12 2.419888 1_555
O6 Yb14 2.647293 1_556
O7 Si7 1.645018 1_555
O7 Yb5 2.233385 1_544
O7 Yb13 2.419888 1_545
O7 Yb15 2.647302 1_555
O8 Si2 1.645009 1_555
O8 Yb6 2.233385 1_556
O8 Yb14 2.419888 1_456
O8 Yb12 2.647295 1_455
O9 Si1 1.645018 1_555
O9 Yb3 2.233385 1_656
O9 Yb13 2.419888 1_656
O9 Yb12 2.647302 1_555
O10 Si0 1.645009 1_555
O10 Yb4 2.233385 1_554
O10 Yb14 2.419888 1_565
O10 Yb15 2.647295 1_565
O11 Si3 1.645028 1_565
O11 Yb0 2.233387 1_555
O11 Yb15 2.419888 1_565
O11 Yb13 2.647300 1_555
O12 Si0 1.645021 1_555
O12 Yb3 2.233384 1_655
O12 Yb11 2.419888 1_665
O12 Yb10 2.647293 1_565
O13 Si1 1.645028 1_555
O13 Yb4 2.233387 1_555
O13 Yb8 2.419888 1_555
O13 Yb9 2.647300 1_555
O14 Si2 1.645021 1_555
O14 Yb5 2.233384 1_545
O14 Yb8 2.419888 1_445
O14 Yb10 2.647293 1_455
O15 Si3 1.645018 1_555
O15 Yb1 2.233385 1_555
O15 Yb9 2.419888 1_555
O15 Yb11 2.647302 1_555
O16 Si4 1.645009 1_565
O16 Yb0 2.233385 1_555
O16 Yb10 2.419888 1_565
O16 Yb8 2.647295 1_555
O17 Si5 1.645018 1_555
O17 Yb7 2.233385 1_555
O17 Yb9 2.419888 1_555
O17 Yb8 2.647302 1_555
O18 Si6 1.645009 1_455
O18 Yb2 2.233385 1_555
O18 Yb10 2.419888 1_455
O18 Yb11 2.647295 1_555
O19 Si7 1.645028 1_555
O19 Yb6 2.233387 1_555
O19 Yb11 2.419888 1_555
O19 Yb9 2.647300 1_555
O20 Si0 1.638488 1_555
O20 Yb0 2.190823 1_555
O20 Yb10 2.376086 1_565
O20 Yb15 2.376090 1_565
O21 Si1 1.638487 1_555
O21 Yb1 2.190823 1_555
O21 Yb12 2.376086 1_555
O21 Yb9 2.376086 1_555
O22 Si2 1.638488 1_555
O22 Yb2 2.190823 1_555
O22 Yb10 2.376086 1_455
O22 Yb12 2.376090 1_455
O23 Si3 1.638487 1_565
O23 Yb3 2.190823 1_555
O23 Yb11 2.376086 1_565
O23 Yb13 2.376086 1_555
O24 Si4 1.638488 1_565
O24 Yb4 2.190823 1_555
O24 Yb14 2.376086 1_566
O24 Yb8 2.376090 1_555
O25 Si5 1.638487 1_455
O25 Yb5 2.190823 1_555
O25 Yb8 2.376086 1_455
O25 Yb13 2.376086 1_556
O26 Si6 1.638488 1_455
O26 Yb6 2.190823 1_555
O26 Yb14 2.376086 1_455
O26 Yb11 2.376090 1_555
O27 Si7 1.638487 1_555
O27 Yb7 2.190823 1_555
O27 Yb15 2.376086 1_555
O27 Yb9 2.376086 1_555
