# generated using pymatgen
data_Ba(GaO2)2
_symmetry_space_group_name_H-M   'P 1'
_cell_length_a   6.73484384
_cell_length_b   6.74858430
_cell_length_c   8.33373543
_cell_angle_alpha   82.52698910
_cell_angle_beta   97.05631168
_cell_angle_gamma   48.27708388
_symmetry_Int_Tables_number   1
_chemical_formula_structural   Ba(GaO2)2
_chemical_formula_sum   'Ba2 Ga4 O8'
_cell_volume   268.84897819
_cell_formula_units_Z   2
loop_
 _symmetry_equiv_pos_site_id
 _symmetry_equiv_pos_as_xyz
  1  'x, y, z'
loop_
 _atom_site_type_symbol
 _atom_site_label
 _atom_site_symmetry_multiplicity
 _atom_site_fract_x
 _atom_site_fract_y
 _atom_site_fract_z
 _atom_site_occupancy
  Ba  Ba0  1  0.97719000  0.98498300  0.75031500  1
  Ba  Ba1  1  0.03395500  0.03648300  0.25054800  1
  Ga  Ga0  1  0.28532400  0.25597400  0.55705600  1
  Ga  Ga1  1  0.69636000  0.83436900  0.37382000  1
  Ga  Ga2  1  0.83578800  0.69613900  0.12642300  1
  Ga  Ga3  1  0.25736400  0.28446300  0.94286800  1
  O  O0  1  0.09489300  0.15544500  0.96608800  1
  O  O1  1  0.15470200  0.09505200  0.53385400  1
  O  O2  1  0.34408200  0.34193100  0.74965400  1
  O  O3  1  0.59505000  0.07547500  0.13300600  1
  O  O4  1  0.64676500  0.64623100  0.25026800  1
  O  O5  1  0.07624800  0.59413700  0.36641100  1
  O  O6  1  0.64385000  0.00758400  0.52809700  1
  O  O7  1  0.00942800  0.64273300  0.97159100  1
loop_
_geom_bond_atom_site_label_1
_geom_bond_atom_site_label_2
_geom_bond_distance
_geom_bond_site_symmetry_2
Ba0 O0 2.566504 1_665
Ba0 O1 2.568759 1_665
Ba0 O7 2.628430 1_655
Ba0 O6 2.634787 1_565
Ba0 O2 3.209776 1_565
Ba0 O2 3.267254 1_655
Ba1 O1 2.567238 1_555
Ba1 O0 2.572027 1_554
Ba1 O3 2.820048 1_455
Ba1 O5 2.824145 1_545
Ba1 O4 3.073415 1_455
Ba1 O4 3.083131 1_545
Ga0 O1 1.809741 1_555
Ga0 O2 1.860379 1_555
Ga0 O6 1.886632 1_555
Ga0 O5 1.986199 1_555
Ga1 O6 1.759816 1_565
Ga1 O4 1.898377 1_555
Ga1 O5 1.929201 1_655
Ga1 O3 2.115911 1_565
Ga2 O7 1.758727 1_654
Ga2 O4 1.897997 1_555
Ga2 O3 1.928459 1_565
Ga2 O5 2.111578 1_655
Ga3 O0 1.808087 1_555
Ga3 O2 1.858583 1_555
Ga3 O7 1.888457 1_555
Ga3 O3 1.983959 1_556
