# generated using pymatgen
data_V6O13
_symmetry_space_group_name_H-M   'P 1'
_cell_length_a   3.75287100
_cell_length_b   10.25285200
_cell_length_c   12.22396817
_cell_angle_alpha   79.18337606
_cell_angle_beta   90.00000000
_cell_angle_gamma   90.00000000
_symmetry_Int_Tables_number   1
_chemical_formula_structural   V6O13
_chemical_formula_sum   'V12 O26'
_cell_volume   461.99256503
_cell_formula_units_Z   2
loop_
 _symmetry_equiv_pos_site_id
 _symmetry_equiv_pos_as_xyz
  1  'x, y, z'
loop_
 _atom_site_type_symbol
 _atom_site_label
 _atom_site_symmetry_multiplicity
 _atom_site_fract_x
 _atom_site_fract_y
 _atom_site_fract_z
 _atom_site_occupancy
  V  V0  1  0.25134600  0.36034800  0.08201000  1
  V  V1  1  0.74865400  0.36034800  0.58201000  1
  V  V2  1  0.24767600  0.63160100  0.90928500  1
  V  V3  1  0.75232400  0.63160100  0.40928500  1
  V  V4  1  0.24801400  0.36336000  0.78045200  1
  V  V5  1  0.75198600  0.36336000  0.28045200  1
  V  V6  1  0.25174100  0.62930700  0.21048500  1
  V  V7  1  0.74825900  0.62930700  0.71048500  1
  V  V8  1  0.29341200  0.99277100  0.15157200  1
  V  V9  1  0.70658800  0.99277100  0.65157200  1
  V  V10  1  0.23194800  0.00021100  0.85526100  1
  V  V11  1  0.76805200  0.00021100  0.35526100  1
  O  O0  1  0.25832500  0.99592400  0.31374900  1
  O  O1  1  0.74167500  0.99592400  0.81374900  1
  O  O2  1  0.24863000  0.38130400  0.61455800  1
  O  O3  1  0.75137000  0.38130400  0.11455800  1
  O  O4  1  0.25174900  0.40897400  0.24043300  1
  O  O5  1  0.74825100  0.40897400  0.74043300  1
  O  O6  1  0.25005400  0.99556600  0.99658700  1
  O  O7  1  0.74994600  0.99556600  0.49658700  1
  O  O8  1  0.25448400  0.19339800  0.11067100  1
  O  O9  1  0.74551600  0.19339800  0.61067100  1
  O  O10  1  0.24176200  0.19547500  0.81873800  1
  O  O11  1  0.75823800  0.19547500  0.31873800  1
  O  O12  1  0.24935800  0.40441700  0.93564200  1
  O  O13  1  0.75064200  0.40441700  0.43564200  1
  O  O14  1  0.23955300  0.99580000  0.67541500  1
  O  O15  1  0.76044700  0.99580000  0.17541500  1
  O  O16  1  0.25230200  0.60935600  0.37650900  1
  O  O17  1  0.74769800  0.60935600  0.87650900  1
  O  O18  1  0.24820700  0.58415400  0.75016500  1
  O  O19  1  0.75179300  0.58415400  0.25016500  1
  O  O20  1  0.24318900  0.79755400  0.88227700  1
  O  O21  1  0.75681100  0.79755400  0.38227700  1
  O  O22  1  0.25659700  0.79814300  0.17392900  1
  O  O23  1  0.74340300  0.79814300  0.67392900  1
  O  O24  1  0.25012600  0.58708500  0.05581900  1
  O  O25  1  0.74987400  0.58708500  0.55581900  1
loop_
_geom_bond_atom_site_label_1
_geom_bond_atom_site_label_2
_geom_bond_distance
_geom_bond_site_symmetry_2
O0 V11 1.911321 1_465
O0 V11 1.981701 1_565
O0 V8 1.993121 1_555
O1 V10 1.911321 1_665
O1 V10 1.981701 1_565
O1 V9 1.993121 1_555
O2 V1 1.938355 1_455
O2 V1 1.938529 1_555
O2 V4 2.001532 1_555
O3 V0 1.938355 1_655
O3 V0 1.938529 1_555
O3 V5 2.001532 1_555
O4 V5 1.972265 1_455
O4 V5 1.973957 1_555
O4 V0 2.088347 1_555
O4 V6 2.219659 1_555
O5 V4 1.972265 1_655
O5 V4 1.973957 1_555
O5 V1 2.088347 1_555
O5 V7 2.219659 1_555
O6 V10 1.720606 1_565
O6 V8 1.896357 1_556
O7 V11 1.720606 1_565
O7 V9 1.896357 1_555
O8 V0 1.681595 1_555
O8 V8 2.028929 1_545
O9 V1 1.681595 1_555
O9 V9 2.028929 1_545
O10 V4 1.697084 1_555
O10 V10 1.968060 1_555
O11 V5 1.697084 1_555
O11 V11 1.968060 1_555
O12 V0 1.761253 1_556
O12 V4 2.018837 1_555
O12 V2 2.290793 1_555
O13 V1 1.761253 1_555
O13 V5 2.018837 1_555
O13 V3 2.290793 1_555
O14 V9 1.778017 1_555
O14 V9 2.022351 1_455
O14 V10 2.207551 1_565
O15 V8 1.778017 1_555
O15 V8 2.022351 1_655
O15 V11 2.207551 1_565
O16 V3 1.941015 1_455
O16 V3 1.941174 1_555
O16 V6 2.001197 1_555
O17 V2 1.941015 1_655
O17 V2 1.941174 1_555
O17 V7 2.001197 1_555
O18 V7 1.971189 1_455
O18 V7 1.971561 1_555
O18 V2 2.091681 1_555
O18 V4 2.224218 1_555
O19 V6 1.971189 1_655
O19 V6 1.971561 1_555
O19 V3 2.091681 1_555
O19 V5 2.224218 1_555
O20 V2 1.671381 1_555
O20 V10 2.042204 1_565
O21 V3 1.671381 1_555
O21 V11 2.042204 1_565
O22 V6 1.704763 1_555
O22 V8 1.967505 1_555
O23 V7 1.704763 1_555
O23 V9 1.967505 1_555
O24 V2 1.763531 1_554
O24 V6 2.017205 1_555
O24 V0 2.286352 1_555
O25 V3 1.763531 1_555
O25 V7 2.017205 1_555
O25 V1 2.286352 1_555
