# generated using pymatgen
data_Na3Gd(PO4)2
_symmetry_space_group_name_H-M   'P 1'
_cell_length_a   14.18895101
_cell_length_b   14.18895101
_cell_length_c   14.06430581
_cell_angle_alpha   88.71721160
_cell_angle_beta   88.71721160
_cell_angle_gamma   21.82305389
_symmetry_Int_Tables_number   1
_chemical_formula_structural   Na3Gd(PO4)2
_chemical_formula_sum   'Na18 Gd6 P12 O48'
_cell_volume   1052.31776681
_cell_formula_units_Z   6
loop_
 _symmetry_equiv_pos_site_id
 _symmetry_equiv_pos_as_xyz
  1  'x, y, z'
loop_
 _atom_site_type_symbol
 _atom_site_label
 _atom_site_symmetry_multiplicity
 _atom_site_fract_x
 _atom_site_fract_y
 _atom_site_fract_z
 _atom_site_occupancy
  Na  Na0  1  0.39067700  0.37231400  0.13683700  1
  Na  Na1  1  0.62768600  0.60932300  0.36316300  1
  Na  Na2  1  0.60932300  0.62768600  0.86316300  1
  Na  Na3  1  0.37231400  0.39067700  0.63683700  1
  Na  Na4  1  0.98394800  0.90707300  0.41994400  1
  Na  Na5  1  0.09292700  0.01605200  0.08005600  1
  Na  Na6  1  0.01605200  0.09292700  0.58005600  1
  Na  Na7  1  0.90707300  0.98394800  0.91994400  1
  Na  Na8  1  0.50000000  0.50000000  0.00000000  1
  Na  Na9  1  0.50000000  0.50000000  0.50000000  1
  Na  Na10  1  0.27450600  0.28304600  0.32295100  1
  Na  Na11  1  0.71695400  0.72549400  0.17704900  1
  Na  Na12  1  0.72549400  0.71695400  0.67704900  1
  Na  Na13  1  0.28304600  0.27450600  0.82295100  1
  Na  Na14  1  0.84618700  0.85081400  0.26613100  1
  Na  Na15  1  0.14918600  0.15381300  0.23386900  1
  Na  Na16  1  0.15381300  0.14918600  0.73386900  1
  Na  Na17  1  0.85081400  0.84618700  0.76613100  1
  Gd  Gd0  1  0.59607200  0.40392800  0.25000000  1
  Gd  Gd1  1  0.40392800  0.59607200  0.75000000  1
  Gd  Gd2  1  0.80943300  0.83473700  0.01483700  1
  Gd  Gd3  1  0.16526300  0.19056700  0.48516300  1
  Gd  Gd4  1  0.19056700  0.16526300  0.98516300  1
  Gd  Gd5  1  0.83473700  0.80943300  0.51483700  1
  P  P0  1  0.97772300  0.90631700  0.15213900  1
  P  P1  1  0.09368300  0.02227700  0.34786100  1
  P  P2  1  0.02227700  0.09368300  0.84786100  1
  P  P3  1  0.90631700  0.97772300  0.65213900  1
  P  P4  1  0.40125800  0.37540900  0.38996100  1
  P  P5  1  0.62459100  0.59874200  0.11003900  1
  P  P6  1  0.59874200  0.62459100  0.61003900  1
  P  P7  1  0.37540900  0.40125800  0.88996100  1
  P  P8  1  0.73268800  0.72536300  0.89619400  1
  P  P9  1  0.27463700  0.26731200  0.60380600  1
  P  P10  1  0.26731200  0.27463700  0.10380600  1
  P  P11  1  0.72536300  0.73268800  0.39619400  1
  O  O0  1  0.43628500  0.45158500  0.37552300  1
  O  O1  1  0.54841600  0.56371500  0.12447700  1
  O  O2  1  0.56371500  0.54841600  0.62447700  1
  O  O3  1  0.45158500  0.43628500  0.87552300  1
  O  O4  1  0.77994000  0.78556700  0.86358700  1
  O  O5  1  0.21443300  0.22006000  0.63641300  1
  O  O6  1  0.22006000  0.21443300  0.13641300  1
  O  O7  1  0.78556700  0.77994000  0.36358700  1
  O  O8  1  0.92124700  0.85687100  0.11973800  1
  O  O9  1  0.14312900  0.07875300  0.38026200  1
  O  O10  1  0.07875300  0.14312900  0.88026200  1
  O  O11  1  0.85687100  0.92124700  0.61973800  1
  O  O12  1  0.47774500  0.92663400  0.85471400  1
  O  O13  1  0.07336600  0.52225500  0.64528600  1
  O  O14  1  0.52225500  0.07336600  0.14528600  1
  O  O15  1  0.92663400  0.47774500  0.35471400  1
  O  O16  1  0.27160400  0.64794900  0.14960300  1
  O  O17  1  0.35205100  0.72839600  0.35039700  1
  O  O18  1  0.72839600  0.35205100  0.85039700  1
  O  O19  1  0.64794900  0.27160400  0.64960300  1
  O  O20  1  0.84090500  0.10877300  0.08931800  1
  O  O21  1  0.89122700  0.15909500  0.41068200  1
  O  O22  1  0.15909500  0.89122700  0.91068200  1
  O  O23  1  0.10877300  0.84090500  0.58931800  1
  O  O24  1  0.94877000  0.46091200  0.85981600  1
  O  O25  1  0.53908800  0.05123000  0.64018400  1
  O  O26  1  0.05123000  0.53908800  0.14018400  1
  O  O27  1  0.46091200  0.94877000  0.35981600  1
  O  O28  1  0.31225400  0.41132500  0.29846100  1
  O  O29  1  0.58867500  0.68774600  0.20153900  1
  O  O30  1  0.68774600  0.58867500  0.70153900  1
  O  O31  1  0.41132500  0.31225400  0.79846100  1
  O  O32  1  0.65700900  0.09308200  0.42320000  1
  O  O33  1  0.90691800  0.34299100  0.07680000  1
  O  O34  1  0.34299100  0.90691800  0.57680000  1
  O  O35  1  0.09308200  0.65700900  0.92320000  1
  O  O36  1  0.86926300  0.01708500  0.25464500  1
  O  O37  1  0.98291500  0.13073700  0.24535500  1
  O  O38  1  0.13073700  0.98291500  0.74535500  1
  O  O39  1  0.01708500  0.86926300  0.75464500  1
  O  O40  1  0.20080700  0.54821300  0.47145200  1
  O  O41  1  0.45178700  0.79919300  0.02854800  1
  O  O42  1  0.79919300  0.45178700  0.52854800  1
  O  O43  1  0.54821300  0.20080700  0.97145200  1
  O  O44  1  0.72213300  0.73324600  0.00648100  1
  O  O45  1  0.26675400  0.27786700  0.49351900  1
  O  O46  1  0.27786700  0.26675400  0.99351900  1
  O  O47  1  0.73324600  0.72213300  0.50648100  1
loop_
_geom_bond_atom_site_label_1
_geom_bond_atom_site_label_2
_geom_bond_distance
_geom_bond_site_symmetry_2
Na0 O28 2.347595 1_555
Na0 O16 2.435569 1_555
Na0 O43 2.499994 1_554
Na0 O8 2.581713 1_455
Na0 O14 2.603117 1_555
Na0 O26 2.762848 1_555
Na0 O8 2.827184 1_545
Na1 O29 2.347595 1_555
Na1 O17 2.435569 1_555
Na1 O42 2.499994 1_555
Na1 O9 2.581713 1_565
Na1 O15 2.603117 1_555
Na1 O27 2.762848 1_555
Na1 O9 2.827184 1_655
Na2 O30 2.347595 1_555
Na2 O18 2.435569 1_555
Na2 O41 2.499994 1_556
Na2 O10 2.581713 1_655
Na2 O12 2.603117 1_555
Na2 O24 2.762848 1_555
Na2 O10 2.827184 1_565
Na3 O31 2.347595 1_555
Na3 O19 2.435569 1_555
Na3 O40 2.499994 1_555
Na3 O11 2.581713 1_545
Na3 O13 2.603117 1_555
Na3 O25 2.762848 1_555
Na3 O11 2.827184 1_455
Na4 O32 2.398208 1_565
Na4 O36 2.404190 1_565
Na4 O21 2.405638 1_565
Na4 O0 2.517696 1_655
Na4 O23 2.587339 1_655
Na4 O40 2.600892 1_655
Na5 O33 2.398208 1_455
Na5 O37 2.404190 1_455
Na5 O20 2.405638 1_455
Na5 O1 2.517699 1_545
Na5 O22 2.587339 1_544
Na5 O41 2.600892 1_545
Na6 O34 2.398208 1_545
Na6 O38 2.404190 1_545
Na6 O23 2.405638 1_545
Na6 O2 2.517699 1_455
Na6 O21 2.587339 1_455
Na6 O42 2.600892 1_455
Na7 O35 2.398208 1_655
Na7 O39 2.404190 1_655
Na7 O22 2.405638 1_655
Na7 O3 2.517696 1_565
Na7 O20 2.587339 1_566
Na7 O43 2.600892 1_565
Na8 O3 2.373161 1_554
Na8 O1 2.373170 1_555
Na8 O20 2.428207 1_555
Na8 O22 2.428207 1_554
Na8 O16 2.568566 1_555
Na8 O18 2.568566 1_554
Na9 O0 2.373161 1_555
Na9 O2 2.373170 1_555
Na9 O21 2.428207 1_555
Na9 O23 2.428207 1_555
Na9 O19 2.568566 1_555
Na9 O17 2.568566 1_555
Na10 O28 2.343530 1_555
Na10 O45 2.401587 1_555
Na10 O27 2.533820 1_545
Na10 O15 2.614192 1_455
Na10 O7 2.711595 1_455
Na10 O7 2.785955 1_545
Na10 O14 2.823828 1_555
Na10 O26 2.901668 1_555
Na11 O29 2.343530 1_555
Na11 O44 2.401587 1_555
Na11 O26 2.533820 1_655
Na11 O14 2.614192 1_565
Na11 O6 2.711595 1_565
Na11 O6 2.785955 1_655
Na11 O15 2.823828 1_555
Na11 O27 2.901668 1_555
Na12 O30 2.343530 1_555
Na12 O47 2.401587 1_555
Na12 O25 2.533820 1_565
Na12 O13 2.614192 1_655
Na12 O5 2.711595 1_655
Na12 O5 2.785955 1_565
Na12 O12 2.823828 1_555
Na12 O24 2.901668 1_555
Na13 O31 2.343530 1_555
Na13 O46 2.401587 1_555
Na13 O24 2.533820 1_455
Na13 O12 2.614192 1_545
Na13 O4 2.711595 1_545
Na13 O4 2.785955 1_455
Na13 O13 2.823828 1_555
Na13 O25 2.901668 1_555
Na14 O7 2.263024 1_555
Na14 O8 2.333374 1_555
Na14 O28 2.503431 1_655
Na14 O32 2.616186 1_565
Na14 O36 2.667200 1_565
Na14 O14 2.673494 1_565
Na14 O26 2.719095 1_655
Na15 O6 2.263024 1_555
Na15 O9 2.333374 1_555
Na15 O29 2.503431 1_545
Na15 O33 2.616186 1_455
Na15 O37 2.667200 1_455
Na15 O15 2.673494 1_455
Na15 O27 2.719095 1_545
Na16 O5 2.263024 1_555
Na16 O10 2.333374 1_555
Na16 O30 2.503431 1_455
Na16 O34 2.616186 1_545
Na16 O38 2.667200 1_545
Na16 O12 2.673494 1_545
Na16 O24 2.719095 1_455
Na17 O4 2.263024 1_555
Na17 O11 2.333374 1_555
Na17 O31 2.503431 1_565
Na17 O35 2.616186 1_655
Na17 O39 2.667200 1_655
Na17 O13 2.673494 1_655
Na17 O25 2.719095 1_565
Gd0 O37 2.376879 1_555
Gd0 O36 2.376879 1_555
Gd0 O17 2.377724 1_555
Gd0 O16 2.377724 1_555
Gd0 O0 2.396225 1_555
Gd0 O1 2.396233 1_555
Gd0 O21 2.788250 1_555
Gd0 O20 2.788250 1_555
Gd1 O38 2.376879 1_555
Gd1 O39 2.376879 1_555
Gd1 O18 2.377724 1_555
Gd1 O19 2.377724 1_555
Gd1 O3 2.396225 1_555
Gd1 O2 2.396233 1_555
Gd1 O22 2.788250 1_555
Gd1 O23 2.788250 1_555
Gd2 O35 2.299504 1_654
Gd2 O43 2.303100 1_564
Gd2 O26 2.386257 1_655
Gd2 O14 2.400295 1_565
Gd2 O4 2.415643 1_554
Gd2 O8 2.417236 1_555
Gd2 O44 2.635891 1_555
Gd3 O34 2.299504 1_545
Gd3 O42 2.303100 1_455
Gd3 O27 2.386257 1_545
Gd3 O15 2.400295 1_455
Gd3 O5 2.415643 1_555
Gd3 O9 2.417236 1_555
Gd3 O45 2.635891 1_555
Gd4 O33 2.299504 1_456
Gd4 O41 2.303100 1_546
Gd4 O24 2.386257 1_455
Gd4 O12 2.400295 1_545
Gd4 O6 2.415643 1_556
Gd4 O10 2.417236 1_555
Gd4 O46 2.635891 1_555
Gd5 O32 2.299504 1_565
Gd5 O40 2.303100 1_655
Gd5 O25 2.386257 1_565
Gd5 O13 2.400295 1_655
Gd5 O7 2.415643 1_555
Gd5 O11 2.417236 1_555
Gd5 O47 2.635891 1_555
O0 P4 1.561896 1_555
O1 P5 1.561882 1_555
O2 P6 1.561882 1_555
O3 P7 1.561896 1_555
O4 P8 1.556145 1_555
O5 P9 1.556145 1_555
O6 P10 1.556145 1_555
O7 P11 1.556145 1_555
O8 P0 1.554516 1_555
O9 P1 1.554516 1_555
O10 P2 1.554516 1_555
O11 P3 1.554516 1_555
O12 P8 1.555907 1_555
O13 P9 1.555907 1_555
O14 P10 1.555907 1_555
O15 P11 1.555907 1_555
O16 P0 1.563765 1_455
O17 P1 1.563765 1_565
O18 P2 1.563765 1_655
O19 P3 1.563765 1_545
O20 P0 1.552566 1_545
O21 P1 1.552566 1_655
O22 P2 1.552566 1_565
O23 P3 1.552566 1_455
O24 P8 1.548354 1_555
O25 P9 1.548354 1_555
O26 P10 1.548354 1_555
O27 P11 1.548354 1_555
O28 P4 1.535943 1_555
O29 P5 1.535943 1_555
O30 P6 1.535943 1_555
O31 P7 1.535943 1_555
O32 P4 1.560887 1_555
O33 P5 1.560887 1_555
O34 P6 1.560887 1_555
O35 P7 1.560887 1_555
O36 P0 1.558295 1_545
O37 P1 1.558295 1_655
O38 P2 1.558295 1_565
O39 P3 1.558295 1_455
O40 P4 1.564242 1_555
O41 P5 1.564242 1_555
O42 P6 1.564242 1_555
O43 P7 1.564242 1_555
O44 P8 1.551499 1_554
O45 P9 1.551499 1_555
O46 P10 1.551499 1_556
O47 P11 1.551499 1_555
