# generated using pymatgen
data_MgPb2
_symmetry_space_group_name_H-M   'P 1'
_cell_length_a   7.05952170
_cell_length_b   7.05951756
_cell_length_c   31.38068660
_cell_angle_alpha   90.00000000
_cell_angle_beta   90.00000000
_cell_angle_gamma   120.00002920
_symmetry_Int_Tables_number   1
_chemical_formula_structural   MgPb2
_chemical_formula_sum   'Mg16 Pb32'
_cell_volume   1354.38846429
_cell_formula_units_Z   16
loop_
 _symmetry_equiv_pos_site_id
 _symmetry_equiv_pos_as_xyz
  1  'x, y, z'
loop_
 _atom_site_type_symbol
 _atom_site_label
 _atom_site_symmetry_multiplicity
 _atom_site_fract_x
 _atom_site_fract_y
 _atom_site_fract_z
 _atom_site_occupancy
  Mg  Mg0_0  1  0.33333400  0.16666750  0.08333300  1
  Mg  Mg0_1  1  0.33333400  0.16666750  0.58333300  1
  Mg  Mg0_2  1  0.33333400  0.66666750  0.08333300  1
  Mg  Mg0_3  1  0.33333400  0.66666750  0.58333300  1
  Mg  Mg0_4  1  0.83333400  0.16666750  0.08333300  1
  Mg  Mg0_5  1  0.83333400  0.16666750  0.58333300  1
  Mg  Mg0_6  1  0.83333400  0.66666750  0.08333300  1
  Mg  Mg0_7  1  0.83333400  0.66666750  0.58333300  1
  Mg  Mg1_0  1  0.00000000  0.00000000  0.33333350  1
  Mg  Mg1_1  1  0.00000000  0.00000000  0.83333350  1
  Mg  Mg1_2  1  0.00000000  0.50000000  0.33333350  1
  Mg  Mg1_3  1  0.00000000  0.50000000  0.83333350  1
  Mg  Mg1_4  1  0.50000000  0.00000000  0.33333350  1
  Mg  Mg1_5  1  0.50000000  0.00000000  0.83333350  1
  Mg  Mg1_6  1  0.50000000  0.50000000  0.33333350  1
  Mg  Mg1_7  1  0.50000000  0.50000000  0.83333350  1
  Pb  Pb0_0  1  0.00000000  0.00000000  0.00489392  1
  Pb  Pb0_1  1  0.00000000  0.00000000  0.50489392  1
  Pb  Pb0_2  1  0.00000000  0.50000000  0.00489392  1
  Pb  Pb0_3  1  0.00000000  0.50000000  0.50489392  1
  Pb  Pb0_4  1  0.50000000  0.00000000  0.00489392  1
  Pb  Pb0_5  1  0.50000000  0.00000000  0.50489392  1
  Pb  Pb0_6  1  0.50000000  0.50000000  0.00489392  1
  Pb  Pb0_7  1  0.50000000  0.50000000  0.50489392  1
  Pb  Pb1_0  1  0.00000000  0.00000000  0.16177258  1
  Pb  Pb1_1  1  0.00000000  0.00000000  0.66177258  1
  Pb  Pb1_2  1  0.00000000  0.50000000  0.16177258  1
  Pb  Pb1_3  1  0.00000000  0.50000000  0.66177258  1
  Pb  Pb1_4  1  0.50000000  0.00000000  0.16177258  1
  Pb  Pb1_5  1  0.50000000  0.00000000  0.66177258  1
  Pb  Pb1_6  1  0.50000000  0.50000000  0.16177258  1
  Pb  Pb1_7  1  0.50000000  0.50000000  0.66177258  1
  Pb  Pb2_0  1  0.33333400  0.16666750  0.25489392  1
  Pb  Pb2_1  1  0.33333400  0.16666750  0.75489392  1
  Pb  Pb2_2  1  0.33333400  0.66666750  0.25489392  1
  Pb  Pb2_3  1  0.33333400  0.66666750  0.75489392  1
  Pb  Pb2_4  1  0.83333400  0.16666750  0.25489392  1
  Pb  Pb2_5  1  0.83333400  0.16666750  0.75489392  1
  Pb  Pb2_6  1  0.83333400  0.66666750  0.25489392  1
  Pb  Pb2_7  1  0.83333400  0.66666750  0.75489392  1
  Pb  Pb3_0  1  0.33333400  0.16666750  0.41177258  1
  Pb  Pb3_1  1  0.33333400  0.16666750  0.91177258  1
  Pb  Pb3_2  1  0.33333400  0.66666750  0.41177258  1
  Pb  Pb3_3  1  0.33333400  0.66666750  0.91177258  1
  Pb  Pb3_4  1  0.83333400  0.16666750  0.41177258  1
  Pb  Pb3_5  1  0.83333400  0.16666750  0.91177258  1
  Pb  Pb3_6  1  0.83333400  0.66666750  0.41177258  1
  Pb  Pb3_7  1  0.83333400  0.66666750  0.91177258  1
loop_
_geom_bond_atom_site_label_1
_geom_bond_atom_site_label_2
_geom_bond_distance
_geom_bond_site_symmetry_2
Mg0_0 Pb0_6 3.195604 1_555
Mg0_0 Pb0_4 3.195609 1_555
Mg0_0 Pb0_0 3.195611 1_555
Mg0_0 Pb1_6 3.195617 1_555
Mg0_0 Pb1_4 3.195621 1_555
Mg0_0 Pb1_0 3.195623 1_555
Mg0_1 Pb0_7 3.195604 1_555
Mg0_1 Pb0_5 3.195609 1_555
Mg0_1 Pb0_1 3.195611 1_555
Mg0_1 Pb1_7 3.195617 1_555
Mg0_1 Pb1_5 3.195621 1_555
Mg0_1 Pb1_1 3.195623 1_555
Mg0_2 Pb0_4 3.195604 1_565
Mg0_2 Pb0_6 3.195609 1_555
Mg0_2 Pb0_2 3.195611 1_555
Mg0_2 Pb1_4 3.195617 1_565
Mg0_2 Pb1_6 3.195621 1_555
Mg0_2 Pb1_2 3.195623 1_555
Mg0_3 Pb0_5 3.195604 1_565
Mg0_3 Pb0_7 3.195609 1_555
Mg0_3 Pb0_3 3.195611 1_555
Mg0_3 Pb1_5 3.195617 1_565
Mg0_3 Pb1_7 3.195621 1_555
Mg0_3 Pb1_3 3.195623 1_555
Mg0_4 Pb0_2 3.195604 1_655
Mg0_4 Pb0_0 3.195609 1_655
Mg0_4 Pb0_4 3.195611 1_555
Mg0_4 Pb1_2 3.195617 1_655
Mg0_4 Pb1_0 3.195621 1_655
Mg0_4 Pb1_4 3.195623 1_555
Mg0_5 Pb0_3 3.195604 1_655
Mg0_5 Pb0_1 3.195609 1_655
Mg0_5 Pb0_5 3.195611 1_555
Mg0_5 Pb1_3 3.195617 1_655
Mg0_5 Pb1_1 3.195621 1_655
Mg0_5 Pb1_5 3.195623 1_555
Mg0_6 Pb0_0 3.195604 1_665
Mg0_6 Pb0_2 3.195609 1_655
Mg0_6 Pb0_6 3.195611 1_555
Mg0_6 Pb1_0 3.195617 1_665
Mg0_6 Pb1_2 3.195621 1_655
Mg0_6 Pb1_6 3.195623 1_555
Mg0_7 Pb0_1 3.195604 1_665
Mg0_7 Pb0_3 3.195609 1_655
Mg0_7 Pb0_7 3.195611 1_555
Mg0_7 Pb1_1 3.195617 1_665
Mg0_7 Pb1_3 3.195621 1_655
Mg0_7 Pb1_7 3.195623 1_555
Mg1_0 Pb3_6 3.195604 1_445
Mg1_0 Pb3_4 3.195609 1_455
Mg1_0 Pb3_0 3.195611 1_555
Mg1_0 Pb2_6 3.195617 1_445
Mg1_0 Pb2_4 3.195621 1_455
Mg1_0 Pb2_0 3.195623 1_555
Mg1_1 Pb3_7 3.195604 1_445
Mg1_1 Pb3_5 3.195609 1_455
Mg1_1 Pb3_1 3.195611 1_555
Mg1_1 Pb2_7 3.195617 1_445
Mg1_1 Pb2_5 3.195621 1_455
Mg1_1 Pb2_1 3.195623 1_555
Mg1_2 Pb3_4 3.195604 1_455
Mg1_2 Pb3_6 3.195609 1_455
Mg1_2 Pb3_2 3.195611 1_555
Mg1_2 Pb2_4 3.195617 1_455
Mg1_2 Pb2_6 3.195621 1_455
Mg1_2 Pb2_2 3.195623 1_555
Mg1_3 Pb3_5 3.195604 1_455
Mg1_3 Pb3_7 3.195609 1_455
Mg1_3 Pb3_3 3.195611 1_555
Mg1_3 Pb2_5 3.195617 1_455
Mg1_3 Pb2_7 3.195621 1_455
Mg1_3 Pb2_3 3.195623 1_555
Mg1_4 Pb3_2 3.195604 1_545
Mg1_4 Pb3_0 3.195609 1_555
Mg1_4 Pb3_4 3.195611 1_555
Mg1_4 Pb2_2 3.195617 1_545
Mg1_4 Pb2_0 3.195621 1_555
Mg1_4 Pb2_4 3.195623 1_555
Mg1_5 Pb3_3 3.195604 1_545
Mg1_5 Pb3_1 3.195609 1_555
Mg1_5 Pb3_5 3.195611 1_555
Mg1_5 Pb2_3 3.195617 1_545
Mg1_5 Pb2_1 3.195621 1_555
Mg1_5 Pb2_5 3.195623 1_555
Mg1_6 Pb3_0 3.195604 1_555
Mg1_6 Pb3_2 3.195609 1_555
Mg1_6 Pb3_6 3.195611 1_555
Mg1_6 Pb2_0 3.195617 1_555
Mg1_6 Pb2_2 3.195621 1_555
Mg1_6 Pb2_6 3.195623 1_555
Mg1_7 Pb3_1 3.195604 1_555
Mg1_7 Pb3_3 3.195609 1_555
Mg1_7 Pb3_7 3.195611 1_555
Mg1_7 Pb2_1 3.195617 1_555
Mg1_7 Pb2_3 3.195621 1_555
Mg1_7 Pb2_7 3.195623 1_555
Pb0_0 Pb0_6 3.529758 1_445
Pb0_0 Pb0_6 3.529758 1_555
Pb0_0 Pb0_2 3.529759 1_545
Pb0_0 Pb0_2 3.529759 1_555
Pb0_0 Pb0_4 3.529761 1_555
Pb0_0 Pb0_4 3.529761 1_455
Pb0_0 Pb3_7 3.562634 1_444
Pb0_0 Pb3_5 3.562639 1_454
Pb0_0 Pb3_1 3.562640 1_554
Pb0_1 Pb0_7 3.529758 1_555
Pb0_1 Pb0_7 3.529758 1_445
Pb0_1 Pb0_3 3.529759 1_545
Pb0_1 Pb0_3 3.529759 1_555
Pb0_1 Pb0_5 3.529761 1_555
Pb0_1 Pb0_5 3.529761 1_455
Pb0_1 Pb3_6 3.562634 1_445
Pb0_1 Pb3_4 3.562639 1_455
Pb0_1 Pb3_0 3.562640 1_555
Pb0_2 Pb0_4 3.529758 1_455
Pb0_2 Pb0_4 3.529758 1_565
Pb0_2 Pb0_6 3.529761 1_555
Pb0_2 Pb0_6 3.529761 1_455
Pb0_2 Pb3_5 3.562634 1_454
Pb0_2 Pb3_7 3.562639 1_454
Pb0_2 Pb3_3 3.562640 1_554
Pb0_3 Pb0_5 3.529758 1_565
Pb0_3 Pb0_5 3.529758 1_455
Pb0_3 Pb0_7 3.529761 1_555
Pb0_3 Pb0_7 3.529761 1_455
Pb0_3 Pb3_4 3.562634 1_455
Pb0_3 Pb3_6 3.562639 1_455
Pb0_3 Pb3_2 3.562640 1_555
Pb0_4 Pb0_6 3.529759 1_555
Pb0_4 Pb0_6 3.529759 1_545
Pb0_4 Pb3_3 3.562634 1_544
Pb0_4 Pb3_1 3.562639 1_554
Pb0_4 Pb3_5 3.562640 1_554
Pb0_5 Pb0_7 3.529759 1_555
Pb0_5 Pb0_7 3.529759 1_545
Pb0_5 Pb3_2 3.562634 1_545
Pb0_5 Pb3_0 3.562639 1_555
Pb0_5 Pb3_4 3.562640 1_555
Pb0_6 Pb3_1 3.562634 1_554
Pb0_6 Pb3_3 3.562639 1_554
Pb0_6 Pb3_7 3.562640 1_554
Pb0_7 Pb3_0 3.562634 1_555
Pb0_7 Pb3_2 3.562639 1_555
Pb0_7 Pb3_6 3.562640 1_555
Pb1_0 Pb1_6 3.529758 1_445
Pb1_0 Pb1_6 3.529758 1_555
Pb1_0 Pb1_2 3.529759 1_545
Pb1_0 Pb1_2 3.529759 1_555
Pb1_0 Pb1_4 3.529761 1_555
Pb1_0 Pb1_4 3.529761 1_455
Pb1_0 Pb2_6 3.562634 1_445
Pb1_0 Pb2_4 3.562639 1_455
Pb1_0 Pb2_0 3.562640 1_555
Pb1_1 Pb1_7 3.529758 1_555
Pb1_1 Pb1_7 3.529758 1_445
Pb1_1 Pb1_3 3.529759 1_555
Pb1_1 Pb1_3 3.529759 1_545
Pb1_1 Pb1_5 3.529761 1_555
Pb1_1 Pb1_5 3.529761 1_455
Pb1_1 Pb2_7 3.562634 1_445
Pb1_1 Pb2_5 3.562639 1_455
Pb1_1 Pb2_1 3.562640 1_555
Pb1_2 Pb1_4 3.529758 1_455
Pb1_2 Pb1_4 3.529758 1_565
Pb1_2 Pb1_6 3.529761 1_555
Pb1_2 Pb1_6 3.529761 1_455
Pb1_2 Pb2_4 3.562634 1_455
Pb1_2 Pb2_6 3.562639 1_455
Pb1_2 Pb2_2 3.562640 1_555
Pb1_3 Pb1_5 3.529758 1_565
Pb1_3 Pb1_5 3.529758 1_455
Pb1_3 Pb1_7 3.529761 1_555
Pb1_3 Pb1_7 3.529761 1_455
Pb1_3 Pb2_5 3.562634 1_455
Pb1_3 Pb2_7 3.562639 1_455
Pb1_3 Pb2_3 3.562640 1_555
Pb1_4 Pb1_6 3.529759 1_555
Pb1_4 Pb1_6 3.529759 1_545
Pb1_4 Pb2_2 3.562634 1_545
Pb1_4 Pb2_0 3.562639 1_555
Pb1_4 Pb2_4 3.562640 1_555
Pb1_5 Pb1_7 3.529759 1_555
Pb1_5 Pb1_7 3.529759 1_545
Pb1_5 Pb2_3 3.562634 1_545
Pb1_5 Pb2_1 3.562639 1_555
Pb1_5 Pb2_5 3.562640 1_555
Pb1_6 Pb2_0 3.562634 1_555
Pb1_6 Pb2_2 3.562639 1_555
Pb1_6 Pb2_6 3.562640 1_555
Pb1_7 Pb2_1 3.562634 1_555
Pb1_7 Pb2_3 3.562639 1_555
Pb1_7 Pb2_7 3.562640 1_555
Pb2_0 Pb2_6 3.529758 1_555
Pb2_0 Pb2_6 3.529758 1_445
Pb2_0 Pb2_2 3.529759 1_545
Pb2_0 Pb2_2 3.529759 1_555
Pb2_0 Pb2_4 3.529761 1_455
Pb2_0 Pb2_4 3.529761 1_555
Pb2_1 Pb2_7 3.529758 1_555
Pb2_1 Pb2_7 3.529758 1_445
Pb2_1 Pb2_3 3.529759 1_545
Pb2_1 Pb2_3 3.529759 1_555
Pb2_1 Pb2_5 3.529761 1_455
Pb2_1 Pb2_5 3.529761 1_555
Pb2_2 Pb2_4 3.529758 1_565
Pb2_2 Pb2_4 3.529758 1_455
Pb2_2 Pb2_6 3.529761 1_555
Pb2_2 Pb2_6 3.529761 1_455
Pb2_3 Pb2_5 3.529758 1_455
Pb2_3 Pb2_5 3.529758 1_565
Pb2_3 Pb2_7 3.529761 1_555
Pb2_3 Pb2_7 3.529761 1_455
Pb2_4 Pb2_6 3.529759 1_545
Pb2_4 Pb2_6 3.529759 1_555
Pb2_5 Pb2_7 3.529759 1_555
Pb2_5 Pb2_7 3.529759 1_545
Pb3_0 Pb3_6 3.529758 1_445
Pb3_0 Pb3_6 3.529758 1_555
Pb3_0 Pb3_2 3.529759 1_545
Pb3_0 Pb3_2 3.529759 1_555
Pb3_0 Pb3_4 3.529761 1_555
Pb3_0 Pb3_4 3.529761 1_455
Pb3_1 Pb3_7 3.529758 1_555
Pb3_1 Pb3_7 3.529758 1_445
Pb3_1 Pb3_3 3.529759 1_555
Pb3_1 Pb3_3 3.529759 1_545
Pb3_1 Pb3_5 3.529761 1_455
Pb3_1 Pb3_5 3.529761 1_555
Pb3_2 Pb3_4 3.529758 1_455
Pb3_2 Pb3_4 3.529758 1_565
Pb3_2 Pb3_6 3.529761 1_555
Pb3_2 Pb3_6 3.529761 1_455
Pb3_3 Pb3_5 3.529758 1_565
Pb3_3 Pb3_5 3.529758 1_455
Pb3_3 Pb3_7 3.529761 1_555
Pb3_3 Pb3_7 3.529761 1_455
Pb3_4 Pb3_6 3.529759 1_545
Pb3_4 Pb3_6 3.529759 1_555
Pb3_5 Pb3_7 3.529759 1_545
Pb3_5 Pb3_7 3.529759 1_555
