# generated using pymatgen
data_Mg14SiBi
_symmetry_space_group_name_H-M   'P 1'
_cell_length_a   6.37298342
_cell_length_b   6.37298290
_cell_length_c   10.21872406
_cell_angle_alpha   90.00000000
_cell_angle_beta   90.00000000
_cell_angle_gamma   120.00000270
_symmetry_Int_Tables_number   1
_chemical_formula_structural   Mg14SiBi
_chemical_formula_sum   'Mg14 Si1 Bi1'
_cell_volume   359.42876748
_cell_formula_units_Z   1
loop_
 _symmetry_equiv_pos_site_id
 _symmetry_equiv_pos_as_xyz
  1  'x, y, z'
loop_
 _atom_site_type_symbol
 _atom_site_label
 _atom_site_symmetry_multiplicity
 _atom_site_fract_x
 _atom_site_fract_y
 _atom_site_fract_z
 _atom_site_occupancy
  Mg  Mg0  1  0.16355474  0.83177687  0.12500000  1
  Mg  Mg1  1  0.16636924  0.83318412  0.62500000  1
  Mg  Mg2  1  0.66822313  0.33644526  0.12500000  1
  Mg  Mg3  1  0.66681588  0.33363076  0.62500000  1
  Mg  Mg4  1  0.66822313  0.83177687  0.12500000  1
  Mg  Mg5  1  0.66681588  0.83318412  0.62500000  1
  Mg  Mg6  1  0.33549319  0.16450681  0.36569778  1
  Mg  Mg7  1  0.33549319  0.16450681  0.88430222  1
  Mg  Mg8  1  0.33549319  0.67098737  0.36569778  1
  Mg  Mg9  1  0.33549319  0.67098737  0.88430222  1
  Mg  Mg10  1  0.82901263  0.16450681  0.36569778  1
  Mg  Mg11  1  0.82901263  0.16450681  0.88430222  1
  Mg  Mg12  1  0.83333300  0.66666700  0.37752725  1
  Mg  Mg13  1  0.83333300  0.66666700  0.87247275  1
  Si  Si0  1  0.16666700  0.33333300  0.12500000  1
  Bi  Bi0  1  0.16666700  0.33333300  0.62500000  1
loop_
_geom_bond_atom_site_label_1
_geom_bond_atom_site_label_2
_geom_bond_distance
_geom_bond_site_symmetry_2
Mg0 Mg8 3.069741 1_555
Mg0 Mg9 3.069741 1_554
Mg0 Mg6 3.069747 1_565
Mg0 Mg7 3.069747 1_564
Mg0 Mg2 3.156740 1_455
Mg0 Mg4 3.156740 1_455
Mg0 Mg12 3.159224 1_455
Mg0 Mg13 3.159224 1_454
Mg0 Si0 3.186538 1_565
Mg0 Si0 3.186538 1_555
Mg0 Mg2 3.216243 1_565
Mg0 Mg4 3.216243 1_555
Mg1 Mg12 3.126285 1_455
Mg1 Mg13 3.126285 1_455
Mg1 Mg3 3.183645 1_455
Mg1 Mg5 3.183645 1_455
Mg1 Mg3 3.189338 1_565
Mg1 Mg5 3.189338 1_555
Mg1 Mg9 3.219538 1_555
Mg1 Mg8 3.219538 1_555
Mg1 Mg7 3.219544 1_565
Mg1 Mg6 3.219544 1_565
Mg2 Mg7 3.069747 1_554
Mg2 Mg6 3.069747 1_555
Mg2 Mg4 3.156740 1_555
Mg2 Si0 3.186538 1_555
Mg2 Si0 3.186538 1_655
Mg2 Mg4 3.216243 1_545
Mg3 Mg5 3.183645 1_555
Mg3 Mg5 3.189338 1_545
Mg3 Mg6 3.219544 1_555
Mg3 Mg7 3.219544 1_555
Mg4 Mg8 3.069747 1_555
Mg4 Mg9 3.069747 1_554
Mg4 Si0 3.186538 1_665
Mg4 Si0 3.186538 1_555
Mg5 Mg9 3.219544 1_555
Mg5 Mg8 3.219544 1_555
Mg6 Si0 3.085872 1_555
Mg6 Mg8 3.145191 1_545
Mg6 Mg8 3.227792 1_555
Mg7 Si0 3.085872 1_556
Mg7 Mg9 3.145191 1_545
Mg7 Mg9 3.227792 1_555
Mg8 Si0 3.085878 1_555
Mg9 Si0 3.085878 1_556
Mg10 Mg2 3.069741 1_555
Mg10 Mg4 3.069747 1_545
Mg10 Si0 3.085878 1_655
Mg10 Mg8 3.145191 1_545
Mg10 Mg6 3.145191 1_555
Mg10 Mg12 3.188873 1_545
Mg10 Mg12 3.188873 1_555
Mg10 Mg3 3.219538 1_555
Mg10 Mg5 3.219544 1_545
Mg10 Mg8 3.227792 1_655
Mg10 Mg6 3.227792 1_655
Mg11 Mg2 3.069741 1_556
Mg11 Mg4 3.069747 1_546
Mg11 Si0 3.085878 1_656
Mg11 Mg9 3.145191 1_545
Mg11 Mg7 3.145191 1_555
Mg11 Mg13 3.188873 1_545
Mg11 Mg13 3.188873 1_555
Mg11 Mg3 3.219538 1_555
Mg11 Mg5 3.219544 1_545
Mg11 Mg9 3.227792 1_655
Mg11 Mg7 3.227792 1_655
Mg12 Mg5 3.126278 1_555
Mg12 Mg3 3.126285 1_555
Mg12 Mg4 3.159217 1_555
Mg12 Mg2 3.159224 1_555
Mg12 Mg6 3.188873 1_555
Mg12 Mg6 3.188873 1_665
Mg12 Mg8 3.188873 1_555
Mg12 Mg8 3.188873 1_655
Mg13 Mg5 3.126278 1_555
Mg13 Mg3 3.126285 1_555
Mg13 Mg4 3.159217 1_556
Mg13 Mg2 3.159224 1_556
Mg13 Mg7 3.188873 1_555
Mg13 Mg7 3.188873 1_665
Mg13 Mg9 3.188873 1_555
Mg13 Mg9 3.188873 1_655
Bi0 Mg1 3.186492 1_545
Bi0 Mg5 3.186492 1_445
Bi0 Mg1 3.186492 1_555
Bi0 Mg5 3.186492 1_555
Bi0 Mg3 3.186492 1_555
Bi0 Mg3 3.186492 1_455
Bi0 Mg6 3.239439 1_555
Bi0 Mg7 3.239439 1_555
Bi0 Mg8 3.239445 1_555
Bi0 Mg9 3.239445 1_555
Bi0 Mg10 3.239445 1_455
Bi0 Mg11 3.239445 1_455
