# generated using pymatgen
data_Yb3GdSb3
_symmetry_space_group_name_H-M   'P 1'
_cell_length_a   9.51604000
_cell_length_b   9.51604000
_cell_length_c   9.51604000
_cell_angle_alpha   90.00000000
_cell_angle_beta   90.00000000
_cell_angle_gamma   90.00000000
_symmetry_Int_Tables_number   1
_chemical_formula_structural   Yb3GdSb3
_chemical_formula_sum   'Yb12 Gd4 Sb12'
_cell_volume   861.72516665
_cell_formula_units_Z   4
loop_
 _symmetry_equiv_pos_site_id
 _symmetry_equiv_pos_as_xyz
  1  'x, y, z'
loop_
 _atom_site_type_symbol
 _atom_site_label
 _atom_site_symmetry_multiplicity
 _atom_site_fract_x
 _atom_site_fract_y
 _atom_site_fract_z
 _atom_site_occupancy
  Yb  Yb0  1  0.57401100  0.42598900  0.92598900  1
  Yb  Yb1  1  0.17630000  0.32370000  0.67630000  1
  Yb  Yb2  1  0.92553100  0.42553100  0.07446900  1
  Yb  Yb3  1  0.07401100  0.07401100  0.07401100  1
  Yb  Yb4  1  0.42553100  0.07446900  0.92553100  1
  Yb  Yb5  1  0.07446900  0.92553100  0.42553100  1
  Yb  Yb6  1  0.67630000  0.17630000  0.32370000  1
  Yb  Yb7  1  0.42598900  0.92598900  0.57401100  1
  Yb  Yb8  1  0.57446900  0.57446900  0.57446900  1
  Yb  Yb9  1  0.92598900  0.57401100  0.42598900  1
  Yb  Yb10  1  0.32370000  0.67630000  0.17630000  1
  Yb  Yb11  1  0.82370000  0.82370000  0.82370000  1
  Gd  Gd0  1  0.82307900  0.17692100  0.67692100  1
  Gd  Gd1  1  0.32307900  0.32307900  0.32307900  1
  Gd  Gd2  1  0.67692100  0.82307900  0.17692100  1
  Gd  Gd3  1  0.17692100  0.67692100  0.82307900  1
  Sb  Sb0  1  0.87580300  0.49894700  0.74969400  1
  Sb  Sb1  1  0.25030600  0.37580300  0.00105300  1
  Sb  Sb2  1  0.00105300  0.25030600  0.37580300  1
  Sb  Sb3  1  0.75030600  0.12419700  0.99894700  1
  Sb  Sb4  1  0.37580300  0.00105300  0.25030600  1
  Sb  Sb5  1  0.12419700  0.99894700  0.75030600  1
  Sb  Sb6  1  0.50105300  0.24969400  0.62419700  1
  Sb  Sb7  1  0.74969400  0.87580300  0.49894700  1
  Sb  Sb8  1  0.49894700  0.74969400  0.87580300  1
  Sb  Sb9  1  0.24969400  0.62419700  0.50105300  1
  Sb  Sb10  1  0.62419700  0.50105300  0.24969400  1
  Sb  Sb11  1  0.99894700  0.75030600  0.12419700  1
loop_
_geom_bond_atom_site_label_1
_geom_bond_atom_site_label_2
_geom_bond_distance
_geom_bond_site_symmetry_2
Gd0 Sb0 3.181497 1_555
Gd0 Sb6 3.181497 1_555
Gd0 Sb3 3.181497 1_555
Gd0 Sb2 3.400998 1_655
Gd0 Sb7 3.400998 1_545
Gd0 Sb5 3.400998 1_645
Gd1 Sb4 3.181497 1_555
Gd1 Sb1 3.181497 1_555
Gd1 Sb2 3.181497 1_555
Gd1 Sb9 3.400998 1_555
Gd1 Sb6 3.400998 1_555
Gd1 Sb10 3.400998 1_555
Gd2 Sb7 3.181497 1_555
Gd2 Sb11 3.181497 1_555
Gd2 Sb10 3.181497 1_555
Gd2 Sb4 3.400998 1_565
Gd2 Sb8 3.400998 1_554
Gd2 Sb3 3.400998 1_564
Gd3 Sb8 3.181497 1_555
Gd3 Sb5 3.181497 1_555
Gd3 Sb9 3.181497 1_555
Gd3 Sb1 3.400998 1_556
Gd3 Sb0 3.400998 1_455
Gd3 Sb11 3.400998 1_456
Sb0 Yb9 3.197986 1_555
Sb0 Yb2 3.203693 1_556
Sb0 Yb11 3.208135 1_555
Sb0 Yb1 3.383172 1_655
Sb0 Yb8 3.394033 1_555
Sb0 Yb0 3.397656 1_555
Sb1 Yb0 3.197986 1_554
Sb1 Yb2 3.203693 1_455
Sb1 Yb1 3.208135 1_554
Sb1 Yb10 3.383172 1_555
Sb1 Yb4 3.394033 1_554
Sb1 Yb3 3.397656 1_555
Sb2 Yb9 3.197986 1_455
Sb2 Yb5 3.203693 1_545
Sb2 Yb6 3.208135 1_455
Sb2 Yb1 3.383172 1_555
Sb2 Yb2 3.394033 1_455
Sb2 Yb3 3.397656 1_555
Sb3 Yb3 3.197986 1_656
Sb3 Yb4 3.203693 1_555
Sb3 Yb6 3.208135 1_556
Sb3 Yb11 3.383172 1_545
Sb3 Yb2 3.394033 1_556
Sb3 Yb0 3.397656 1_555
Sb4 Yb7 3.197986 1_545
Sb4 Yb4 3.203693 1_554
Sb4 Yb10 3.208135 1_545
Sb4 Yb6 3.383172 1_555
Sb4 Yb5 3.394033 1_545
Sb4 Yb3 3.397656 1_555
Sb5 Yb3 3.197986 1_566
Sb5 Yb5 3.203693 1_555
Sb5 Yb1 3.208135 1_565
Sb5 Yb11 3.383172 1_455
Sb5 Yb4 3.394033 1_565
Sb5 Yb7 3.397656 1_555
Sb6 Yb7 3.197986 1_545
Sb6 Yb8 3.203693 1_555
Sb6 Yb1 3.208135 1_555
Sb6 Yb6 3.383172 1_555
Sb6 Yb4 3.394033 1_555
Sb6 Yb0 3.397656 1_555
Sb7 Yb7 3.197986 1_555
Sb7 Yb5 3.203693 1_655
Sb7 Yb11 3.208135 1_555
Sb7 Yb6 3.383172 1_565
Sb7 Yb8 3.394033 1_555
Sb7 Yb9 3.397656 1_555
Sb8 Yb0 3.197986 1_555
Sb8 Yb4 3.203693 1_565
Sb8 Yb11 3.208135 1_555
Sb8 Yb10 3.383172 1_556
Sb8 Yb8 3.394033 1_555
Sb8 Yb7 3.397656 1_555
Sb9 Yb9 3.197986 1_455
Sb9 Yb8 3.203693 1_555
Sb9 Yb10 3.208135 1_555
Sb9 Yb1 3.383172 1_555
Sb9 Yb5 3.394033 1_555
Sb9 Yb7 3.397656 1_555
Sb10 Yb0 3.197986 1_554
Sb10 Yb8 3.203693 1_555
Sb10 Yb6 3.208135 1_555
Sb10 Yb10 3.383172 1_555
Sb10 Yb2 3.394033 1_555
Sb10 Yb9 3.397656 1_555
Sb11 Yb3 3.197986 1_665
Sb11 Yb2 3.203693 1_555
Sb11 Yb10 3.208135 1_655
Sb11 Yb11 3.383172 1_554
Sb11 Yb5 3.394033 1_655
Sb11 Yb9 3.397656 1_555
