# generated using pymatgen
data_MgAl
_symmetry_space_group_name_H-M   'P 1'
_cell_length_a   4.98853249
_cell_length_b   4.98853249
_cell_length_c   5.50104400
_cell_angle_alpha   90.00000000
_cell_angle_beta   90.00000000
_cell_angle_gamma   120.00000644
_symmetry_Int_Tables_number   1
_chemical_formula_structural   MgAl
_chemical_formula_sum   'Mg2 Al2'
_cell_volume   118.55539766
_cell_formula_units_Z   2
loop_
 _symmetry_equiv_pos_site_id
 _symmetry_equiv_pos_as_xyz
  1  'x, y, z'
loop_
 _atom_site_type_symbol
 _atom_site_label
 _atom_site_symmetry_multiplicity
 _atom_site_fract_x
 _atom_site_fract_y
 _atom_site_fract_z
 _atom_site_occupancy
  Mg  Mg0  1  0.33333300  0.66666700  0.25000000  1
  Mg  Mg1  1  0.66666700  0.33333300  0.75000000  1
  Al  Al0  1  0.33333300  0.66666700  0.75000000  1
  Al  Al1  1  0.66666700  0.33333300  0.25000000  1
loop_
_geom_bond_atom_site_label_1
_geom_bond_atom_site_label_2
_geom_bond_distance
_geom_bond_site_symmetry_2
Al0 Mg0 2.750522 1_556
Al0 Mg0 2.750522 1_555
Al0 Mg1 2.880128 1_455
Al0 Mg1 2.880128 1_565
Al0 Mg1 2.880136 1_555
Al1 Mg1 2.750522 1_555
Al1 Mg1 2.750522 1_554
Al1 Mg0 2.880128 1_545
Al1 Mg0 2.880128 1_655
Al1 Mg0 2.880136 1_555
