# generated using pymatgen
data_Li(BH)6
_symmetry_space_group_name_H-M   'P 1'
_cell_length_a   9.63968100
_cell_length_b   9.63968100
_cell_length_c   9.63968100
_cell_angle_alpha   90.00000000
_cell_angle_beta   90.00000000
_cell_angle_gamma   90.00000000
_symmetry_Int_Tables_number   1
_chemical_formula_structural   Li(BH)6
_chemical_formula_sum   'Li8 B48 H48'
_cell_volume   895.75241332
_cell_formula_units_Z   8
loop_
 _symmetry_equiv_pos_site_id
 _symmetry_equiv_pos_as_xyz
  1  'x, y, z'
loop_
 _atom_site_type_symbol
 _atom_site_label
 _atom_site_symmetry_multiplicity
 _atom_site_fract_x
 _atom_site_fract_y
 _atom_site_fract_z
 _atom_site_occupancy
  Li  Li0  1  0.85901500  0.14098500  0.64098500  1
  Li  Li1  1  0.14098500  0.64098500  0.85901500  1
  Li  Li2  1  0.64098500  0.85901500  0.14098500  1
  Li  Li3  1  0.35901500  0.35901500  0.35901500  1
  Li  Li4  1  0.14098500  0.85901500  0.35901500  1
  Li  Li5  1  0.85901500  0.35901500  0.14098500  1
  Li  Li6  1  0.35901500  0.14098500  0.85901500  1
  Li  Li7  1  0.64098500  0.64098500  0.64098500  1
  B  B0  1  0.37895000  0.40973900  0.91164600  1
  B  B1  1  0.62105000  0.90973900  0.58835400  1
  B  B2  1  0.12105000  0.59026100  0.41164600  1
  B  B3  1  0.87895000  0.09026100  0.08835400  1
  B  B4  1  0.91164600  0.37895000  0.40973900  1
  B  B5  1  0.58835400  0.62105000  0.90973900  1
  B  B6  1  0.41164600  0.12105000  0.59026100  1
  B  B7  1  0.08835400  0.87895000  0.09026100  1
  B  B8  1  0.40973900  0.91164600  0.37895000  1
  B  B9  1  0.90973900  0.58835400  0.62105000  1
  B  B10  1  0.59026100  0.41164600  0.12105000  1
  B  B11  1  0.09026100  0.08835400  0.87895000  1
  B  B12  1  0.62105000  0.59026100  0.08835400  1
  B  B13  1  0.37895000  0.09026100  0.41164600  1
  B  B14  1  0.87895000  0.40973900  0.58835400  1
  B  B15  1  0.12105000  0.90973900  0.91164600  1
  B  B16  1  0.08835400  0.62105000  0.59026100  1
  B  B17  1  0.41164600  0.37895000  0.09026100  1
  B  B18  1  0.58835400  0.87895000  0.40973900  1
  B  B19  1  0.91164600  0.12105000  0.90973900  1
  B  B20  1  0.59026100  0.08835400  0.62105000  1
  B  B21  1  0.09026100  0.41164600  0.37895000  1
  B  B22  1  0.40973900  0.58835400  0.87895000  1
  B  B23  1  0.90973900  0.91164600  0.12105000  1
  B  B24  1  0.66751600  0.46361500  0.96252200  1
  B  B25  1  0.33248400  0.96361500  0.53747800  1
  B  B26  1  0.83248400  0.53638500  0.46252200  1
  B  B27  1  0.16751600  0.03638500  0.03747800  1
  B  B28  1  0.96252200  0.66751600  0.46361500  1
  B  B29  1  0.53747800  0.33248400  0.96361500  1
  B  B30  1  0.46252200  0.83248400  0.53638500  1
  B  B31  1  0.03747800  0.16751600  0.03638500  1
  B  B32  1  0.46361500  0.96252200  0.66751600  1
  B  B33  1  0.96361500  0.53747800  0.33248400  1
  B  B34  1  0.53638500  0.46252200  0.83248400  1
  B  B35  1  0.03638500  0.03747800  0.16751600  1
  B  B36  1  0.33248400  0.53638500  0.03747800  1
  B  B37  1  0.66751600  0.03638500  0.46252200  1
  B  B38  1  0.16751600  0.46361500  0.53747800  1
  B  B39  1  0.83248400  0.96361500  0.96252200  1
  B  B40  1  0.03747800  0.33248400  0.53638500  1
  B  B41  1  0.46252200  0.66751600  0.03638500  1
  B  B42  1  0.53747800  0.16751600  0.46361500  1
  B  B43  1  0.96252200  0.83248400  0.96361500  1
  B  B44  1  0.53638500  0.03747800  0.33248400  1
  B  B45  1  0.03638500  0.46252200  0.66751600  1
  B  B46  1  0.46361500  0.53747800  0.16751600  1
  B  B47  1  0.96361500  0.96252200  0.83248400  1
  H  H0  1  0.29216200  0.34683600  0.84750900  1
  H  H1  1  0.70783800  0.84683600  0.65249100  1
  H  H2  1  0.20783800  0.65316400  0.34750900  1
  H  H3  1  0.79216200  0.15316400  0.15249100  1
  H  H4  1  0.84750900  0.29216200  0.34683600  1
  H  H5  1  0.65249100  0.70783800  0.84683600  1
  H  H6  1  0.34750900  0.20783800  0.65316400  1
  H  H7  1  0.15249100  0.79216200  0.15316400  1
  H  H8  1  0.34683600  0.84750900  0.29216200  1
  H  H9  1  0.84683600  0.65249100  0.70783800  1
  H  H10  1  0.65316400  0.34750900  0.20783800  1
  H  H11  1  0.15316400  0.15249100  0.79216200  1
  H  H12  1  0.70783800  0.65316400  0.15249100  1
  H  H13  1  0.29216200  0.15316400  0.34750900  1
  H  H14  1  0.79216200  0.34683600  0.65249100  1
  H  H15  1  0.20783800  0.84683600  0.84750900  1
  H  H16  1  0.15249100  0.70783800  0.65316400  1
  H  H17  1  0.34750900  0.29216200  0.15316400  1
  H  H18  1  0.65249100  0.79216200  0.34683600  1
  H  H19  1  0.84750900  0.20783800  0.84683600  1
  H  H20  1  0.65316400  0.15249100  0.70783800  1
  H  H21  1  0.15316400  0.34750900  0.29216200  1
  H  H22  1  0.34683600  0.65249100  0.79216200  1
  H  H23  1  0.84683600  0.84750900  0.20783800  1
  H  H24  1  0.78723300  0.43925700  0.93508600  1
  H  H25  1  0.21276700  0.93925700  0.56491400  1
  H  H26  1  0.71276700  0.56074300  0.43508600  1
  H  H27  1  0.28723300  0.06074300  0.06491400  1
  H  H28  1  0.93508600  0.78723300  0.43925700  1
  H  H29  1  0.56491400  0.21276700  0.93925700  1
  H  H30  1  0.43508600  0.71276700  0.56074300  1
  H  H31  1  0.06491400  0.28723300  0.06074300  1
  H  H32  1  0.43925700  0.93508600  0.78723300  1
  H  H33  1  0.93925700  0.56491400  0.21276700  1
  H  H34  1  0.56074300  0.43508600  0.71276700  1
  H  H35  1  0.06074300  0.06491400  0.28723300  1
  H  H36  1  0.21276700  0.56074300  0.06491400  1
  H  H37  1  0.78723300  0.06074300  0.43508600  1
  H  H38  1  0.28723300  0.43925700  0.56491400  1
  H  H39  1  0.71276700  0.93925700  0.93508600  1
  H  H40  1  0.06491400  0.21276700  0.56074300  1
  H  H41  1  0.43508600  0.78723300  0.06074300  1
  H  H42  1  0.56491400  0.28723300  0.43925700  1
  H  H43  1  0.93508600  0.71276700  0.93925700  1
  H  H44  1  0.56074300  0.06491400  0.21276700  1
  H  H45  1  0.06074300  0.43508600  0.78723300  1
  H  H46  1  0.43925700  0.56491400  0.28723300  1
  H  H47  1  0.93925700  0.93508600  0.71276700  1
loop_
_geom_bond_atom_site_label_1
_geom_bond_atom_site_label_2
_geom_bond_distance
_geom_bond_site_symmetry_2
B0 H0 1.204092 1_555
B1 H1 1.204092 1_555
B2 H2 1.204092 1_555
B3 H3 1.204092 1_555
B4 H4 1.204092 1_555
B5 H5 1.204092 1_555
B6 H6 1.204092 1_555
B7 H7 1.204092 1_555
B8 H8 1.204092 1_555
B9 H9 1.204092 1_555
B10 H10 1.204092 1_555
B11 H11 1.204092 1_555
B12 H12 1.204092 1_555
B13 H13 1.204092 1_555
B14 H14 1.204092 1_555
B15 H15 1.204092 1_555
B16 H16 1.204092 1_555
B17 H17 1.204092 1_555
B18 H18 1.204092 1_555
B19 H19 1.204092 1_555
B20 H20 1.204092 1_555
B21 H21 1.204092 1_555
B22 H22 1.204092 1_555
B23 H23 1.204092 1_555
B24 H24 1.207010 1_555
B25 H25 1.207010 1_555
B26 H26 1.207010 1_555
B27 H27 1.207010 1_555
B28 H28 1.207010 1_555
B29 H29 1.207010 1_555
B30 H30 1.207010 1_555
B31 H31 1.207010 1_555
B32 H32 1.207010 1_555
B33 H33 1.207010 1_555
B34 H34 1.207010 1_555
B35 H35 1.207010 1_555
B36 H36 1.207010 1_555
B37 H37 1.207010 1_555
B38 H38 1.207010 1_555
B39 H39 1.207010 1_555
B40 H40 1.207010 1_555
B41 H41 1.207010 1_555
B42 H42 1.207010 1_555
B43 H43 1.207010 1_555
B44 H44 1.207010 1_555
B45 H45 1.207010 1_555
B46 H46 1.207010 1_555
B47 H47 1.207010 1_555
H0 Li6 2.089307 1_555
H1 Li7 2.089307 1_555
H2 Li4 2.089307 1_555
H3 Li5 2.089307 1_555
H4 Li5 2.089307 1_555
H5 Li7 2.089307 1_555
H6 Li6 2.089307 1_555
H7 Li4 2.089307 1_555
H8 Li4 2.089307 1_555
H9 Li7 2.089307 1_555
H10 Li5 2.089307 1_555
H11 Li6 2.089307 1_555
H12 Li2 2.089307 1_555
H13 Li3 2.089307 1_555
H14 Li0 2.089307 1_555
H15 Li1 2.089307 1_555
H16 Li1 2.089307 1_555
H17 Li3 2.089307 1_555
H18 Li2 2.089307 1_555
H19 Li0 2.089307 1_555
H20 Li0 2.089307 1_555
H21 Li3 2.089307 1_555
H22 Li1 2.089307 1_555
H23 Li2 2.089307 1_555
H24 Li5 2.239766 1_556
H25 Li4 2.239766 1_555
H26 Li7 2.239766 1_555
H27 Li6 2.239766 1_554
H28 Li4 2.239766 1_655
H29 Li6 2.239766 1_555
H30 Li7 2.239766 1_555
H31 Li5 2.239766 1_455
H32 Li6 2.239766 1_565
H33 Li5 2.239766 1_555
H34 Li7 2.239766 1_555
H35 Li4 2.239766 1_545
H36 Li1 2.239766 1_554
H37 Li0 2.239766 1_555
H38 Li3 2.239766 1_555
H39 Li2 2.239766 1_556
H40 Li0 2.239766 1_455
H41 Li2 2.239766 1_555
H42 Li3 2.239766 1_555
H43 Li1 2.239766 1_655
H44 Li2 2.239766 1_545
H45 Li1 2.239766 1_555
H46 Li3 2.239766 1_555
H47 Li0 2.239766 1_565
