# generated using pymatgen
data_LuIn
_symmetry_space_group_name_H-M   'P 1'
_cell_length_a   6.88310582
_cell_length_b   6.88310582
_cell_length_c   8.32497820
_cell_angle_alpha   90.00000000
_cell_angle_beta   90.00000000
_cell_angle_gamma   90.00000000
_symmetry_Int_Tables_number   1
_chemical_formula_structural   LuIn
_chemical_formula_sum   'Lu8 In8'
_cell_volume   394.41370537
_cell_formula_units_Z   8
loop_
 _symmetry_equiv_pos_site_id
 _symmetry_equiv_pos_as_xyz
  1  'x, y, z'
loop_
 _atom_site_type_symbol
 _atom_site_label
 _atom_site_symmetry_multiplicity
 _atom_site_fract_x
 _atom_site_fract_y
 _atom_site_fract_z
 _atom_site_occupancy
  Lu  Lu0_0  1  0.00000000  0.00000000  0.00000000  1
  Lu  Lu0_1  1  0.00000000  0.00000000  0.50000000  1
  Lu  Lu0_2  1  0.00000000  0.50000000  0.00000000  1
  Lu  Lu0_3  1  0.00000000  0.50000000  0.50000000  1
  Lu  Lu0_4  1  0.50000000  0.00000000  0.00000000  1
  Lu  Lu0_5  1  0.50000000  0.00000000  0.50000000  1
  Lu  Lu0_6  1  0.50000000  0.50000000  0.00000000  1
  Lu  Lu0_7  1  0.50000000  0.50000000  0.50000000  1
  In  In0_0  1  0.25000000  0.25000000  0.25000000  1
  In  In0_1  1  0.25000000  0.25000000  0.75000000  1
  In  In0_2  1  0.25000000  0.75000000  0.25000000  1
  In  In0_3  1  0.25000000  0.75000000  0.75000000  1
  In  In0_4  1  0.75000000  0.25000000  0.25000000  1
  In  In0_5  1  0.75000000  0.25000000  0.75000000  1
  In  In0_6  1  0.75000000  0.75000000  0.25000000  1
  In  In0_7  1  0.75000000  0.75000000  0.75000000  1
loop_
_geom_bond_atom_site_label_1
_geom_bond_atom_site_label_2
_geom_bond_distance
_geom_bond_site_symmetry_2
Lu0_0 Lu0_2 3.441553 1_555
Lu0_0 Lu0_2 3.441553 1_545
Lu0_0 Lu0_4 3.441553 1_455
Lu0_0 Lu0_4 3.441553 1_555
Lu0_1 Lu0_5 3.441553 1_455
Lu0_1 Lu0_5 3.441553 1_555
Lu0_1 Lu0_3 3.441553 1_545
Lu0_1 Lu0_3 3.441553 1_555
Lu0_2 Lu0_6 3.441553 1_455
Lu0_2 Lu0_6 3.441553 1_555
Lu0_3 Lu0_7 3.441553 1_455
Lu0_3 Lu0_7 3.441553 1_555
Lu0_4 Lu0_6 3.441553 1_555
Lu0_4 Lu0_6 3.441553 1_545
Lu0_5 Lu0_7 3.441553 1_545
Lu0_5 Lu0_7 3.441553 1_555
In0_0 Lu0_5 3.202143 1_555
In0_0 Lu0_2 3.202143 1_555
In0_0 Lu0_6 3.202143 1_555
In0_0 Lu0_3 3.202143 1_555
In0_0 Lu0_0 3.202143 1_555
In0_0 Lu0_4 3.202143 1_555
In0_0 Lu0_7 3.202143 1_555
In0_0 Lu0_1 3.202143 1_555
In0_0 In0_2 3.441553 1_545
In0_0 In0_2 3.441553 1_555
In0_0 In0_4 3.441553 1_555
In0_0 In0_4 3.441553 1_455
In0_1 Lu0_5 3.202143 1_555
In0_1 Lu0_0 3.202143 1_556
In0_1 Lu0_6 3.202143 1_556
In0_1 Lu0_3 3.202143 1_555
In0_1 Lu0_7 3.202143 1_555
In0_1 Lu0_4 3.202143 1_556
In0_1 Lu0_1 3.202143 1_555
In0_1 Lu0_2 3.202143 1_556
In0_1 In0_5 3.441553 1_555
In0_1 In0_3 3.441553 1_545
In0_1 In0_3 3.441553 1_555
In0_1 In0_5 3.441553 1_455
In0_2 Lu0_4 3.202143 1_565
In0_2 Lu0_2 3.202143 1_555
In0_2 Lu0_5 3.202143 1_565
In0_2 Lu0_6 3.202143 1_555
In0_2 Lu0_3 3.202143 1_555
In0_2 Lu0_7 3.202143 1_555
In0_2 Lu0_1 3.202143 1_565
In0_2 Lu0_0 3.202143 1_565
In0_2 In0_6 3.441553 1_555
In0_2 In0_6 3.441553 1_455
In0_3 Lu0_6 3.202143 1_556
In0_3 Lu0_5 3.202143 1_565
In0_3 Lu0_3 3.202143 1_555
In0_3 Lu0_7 3.202143 1_555
In0_3 Lu0_0 3.202143 1_566
In0_3 Lu0_1 3.202143 1_565
In0_3 Lu0_4 3.202143 1_566
In0_3 Lu0_2 3.202143 1_556
In0_3 In0_7 3.441553 1_455
In0_3 In0_7 3.441553 1_555
In0_4 Lu0_1 3.202143 1_655
In0_4 Lu0_5 3.202143 1_555
In0_4 Lu0_2 3.202143 1_655
In0_4 Lu0_6 3.202143 1_555
In0_4 Lu0_7 3.202143 1_555
In0_4 Lu0_0 3.202143 1_655
In0_4 Lu0_4 3.202143 1_555
In0_4 Lu0_3 3.202143 1_655
In0_4 In0_6 3.441553 1_555
In0_4 In0_6 3.441553 1_545
In0_5 Lu0_1 3.202143 1_655
In0_5 Lu0_5 3.202143 1_555
In0_5 Lu0_6 3.202143 1_556
In0_5 Lu0_0 3.202143 1_656
In0_5 Lu0_2 3.202143 1_656
In0_5 Lu0_7 3.202143 1_555
In0_5 Lu0_4 3.202143 1_556
In0_5 Lu0_3 3.202143 1_655
In0_5 In0_7 3.441553 1_555
In0_5 In0_7 3.441553 1_545
In0_6 Lu0_4 3.202143 1_565
In0_6 Lu0_2 3.202143 1_655
In0_6 Lu0_5 3.202143 1_565
In0_6 Lu0_6 3.202143 1_555
In0_6 Lu0_1 3.202143 1_665
In0_6 Lu0_7 3.202143 1_555
In0_6 Lu0_3 3.202143 1_655
In0_6 Lu0_0 3.202143 1_665
In0_7 Lu0_0 3.202143 1_666
In0_7 Lu0_6 3.202143 1_556
In0_7 Lu0_2 3.202143 1_656
In0_7 Lu0_5 3.202143 1_565
In0_7 Lu0_1 3.202143 1_665
In0_7 Lu0_7 3.202143 1_555
In0_7 Lu0_4 3.202143 1_566
In0_7 Lu0_3 3.202143 1_655
