# generated using pymatgen
data_RbLiAgO2
_symmetry_space_group_name_H-M   'P 1'
_cell_length_a   3.56171000
_cell_length_b   3.53770200
_cell_length_c   6.32321800
_cell_angle_alpha   90.00000000
_cell_angle_beta   90.00000000
_cell_angle_gamma   90.00000000
_symmetry_Int_Tables_number   1
_chemical_formula_structural   RbLiAgO2
_chemical_formula_sum   'Rb1 Li1 Ag1 O2'
_cell_volume   79.67424516
_cell_formula_units_Z   1
loop_
 _symmetry_equiv_pos_site_id
 _symmetry_equiv_pos_as_xyz
  1  'x, y, z'
loop_
 _atom_site_type_symbol
 _atom_site_label
 _atom_site_symmetry_multiplicity
 _atom_site_fract_x
 _atom_site_fract_y
 _atom_site_fract_z
 _atom_site_occupancy
  Rb  Rb0  1  0.50000000  0.50000000  0.50000000  1
  Li  Li0  1  0.00000000  0.50000000  0.00000000  1
  Ag  Ag0  1  0.50000000  0.00000000  0.00000000  1
  O  O0  1  0.00000000  0.00000000  0.20514300  1
  O  O1  1  0.00000000  0.00000000  0.79485700  1
loop_
_geom_bond_atom_site_label_1
_geom_bond_atom_site_label_2
_geom_bond_distance
_geom_bond_site_symmetry_2
Li0 O1 2.193506 1_554
Li0 O1 2.193506 1_564
Li0 O0 2.193506 1_555
Li0 O0 2.193506 1_565
Ag0 O1 2.203197 1_554
Ag0 O0 2.203197 1_655
Ag0 O1 2.203197 1_654
Ag0 O0 2.203197 1_555
Ag0 Li0 2.510036 1_555
Ag0 Li0 2.510036 1_545
Ag0 Li0 2.510036 1_655
Ag0 Li0 2.510036 1_645
O0 Rb0 3.126729 1_545
O0 Rb0 3.126729 1_445
O0 Rb0 3.126729 1_455
O0 Rb0 3.126729 1_555
O1 Rb0 3.126729 1_545
O1 Rb0 3.126729 1_445
O1 Rb0 3.126729 1_455
O1 Rb0 3.126729 1_555
