# generated using pymatgen
data_Sr3CuN3
_symmetry_space_group_name_H-M   'P 1'
_cell_length_a   7.57556703
_cell_length_b   7.57432869
_cell_length_c   5.38621900
_cell_angle_alpha   90.00000000
_cell_angle_beta   90.00000000
_cell_angle_gamma   119.99572023
_symmetry_Int_Tables_number   1
_chemical_formula_structural   Sr3CuN3
_chemical_formula_sum   'Sr6 Cu2 N6'
_cell_volume   267.66566141
_cell_formula_units_Z   2
loop_
 _symmetry_equiv_pos_site_id
 _symmetry_equiv_pos_as_xyz
  1  'x, y, z'
loop_
 _atom_site_type_symbol
 _atom_site_label
 _atom_site_symmetry_multiplicity
 _atom_site_fract_x
 _atom_site_fract_y
 _atom_site_fract_z
 _atom_site_occupancy
  Sr  Sr0  1  0.92404700  0.63884600  0.25000000  1
  Sr  Sr1  1  0.71419600  0.07588600  0.25000000  1
  Sr  Sr2  1  0.36052200  0.28502200  0.25000000  1
  Sr  Sr3  1  0.07595300  0.36115400  0.75000000  1
  Sr  Sr4  1  0.28580400  0.92411400  0.75000000  1
  Sr  Sr5  1  0.63947800  0.71497800  0.75000000  1
  Cu  Cu0  1  0.66626300  0.33334300  0.75000000  1
  Cu  Cu1  1  0.33373700  0.66665700  0.25000000  1
  N  N0  1  0.90151200  0.59525700  0.75000000  1
  N  N1  1  0.69378400  0.09843800  0.75000000  1
  N  N2  1  0.40404500  0.30578500  0.75000000  1
  N  N3  1  0.09848800  0.40474300  0.25000000  1
  N  N4  1  0.30621600  0.90156200  0.25000000  1
  N  N5  1  0.59595500  0.69421500  0.25000000  1
loop_
_geom_bond_atom_site_label_1
_geom_bond_atom_site_label_2
_geom_bond_distance
_geom_bond_site_symmetry_2
Cu0 N2 1.890759 1_555
Cu0 N0 1.891188 1_555
Cu0 N1 1.892113 1_555
Cu1 N5 1.890759 1_555
Cu1 N3 1.891188 1_555
Cu1 N4 1.892113 1_555
N0 Sr5 2.561752 1_555
N0 Sr3 2.689499 1_655
N0 Sr0 2.708252 1_556
N0 Sr0 2.708252 1_555
N0 Sr4 2.725644 1_655
N1 Sr3 2.565398 1_655
N1 Sr4 2.686142 1_545
N1 Sr1 2.707829 1_555
N1 Sr1 2.707829 1_556
N1 Sr5 2.722197 1_545
N2 Sr4 2.563298 1_545
N2 Sr5 2.694427 1_555
N2 Sr2 2.708216 1_556
N2 Sr2 2.708216 1_555
N2 Sr3 2.719511 1_555
N3 Sr2 2.561752 1_555
N3 Sr0 2.689499 1_455
N3 Sr3 2.708252 1_554
N3 Sr3 2.708252 1_555
N3 Sr1 2.725644 1_455
N4 Sr0 2.565398 1_455
N4 Sr1 2.686142 1_565
N4 Sr4 2.707829 1_555
N4 Sr4 2.707829 1_554
N4 Sr2 2.722197 1_565
N5 Sr1 2.563298 1_565
N5 Sr2 2.694427 1_555
N5 Sr5 2.708216 1_555
N5 Sr5 2.708216 1_554
N5 Sr0 2.719511 1_555
