# generated using pymatgen
data_Sm2ZnTe2(SO7)2
_symmetry_space_group_name_H-M   'P 1'
_cell_length_a   5.37158700
_cell_length_b   8.02539239
_cell_length_c   8.27299672
_cell_angle_alpha   116.02315189
_cell_angle_beta   106.76934229
_cell_angle_gamma   85.82149872
_symmetry_Int_Tables_number   1
_chemical_formula_structural   Sm2ZnTe2(SO7)2
_chemical_formula_sum   'Sm2 Zn1 Te2 S2 O14'
_cell_volume   306.25639174
_cell_formula_units_Z   1
loop_
 _symmetry_equiv_pos_site_id
 _symmetry_equiv_pos_as_xyz
  1  'x, y, z'
loop_
 _atom_site_type_symbol
 _atom_site_label
 _atom_site_symmetry_multiplicity
 _atom_site_fract_x
 _atom_site_fract_y
 _atom_site_fract_z
 _atom_site_occupancy
  Sm  Sm0  1  0.08751100  0.25230500  0.98558400  1
  Sm  Sm1  1  0.91248900  0.74769500  0.01441600  1
  Zn  Zn0  1  0.00000000  0.00000000  0.50000000  1
  Te  Te0  1  0.51911600  0.26680400  0.65826000  1
  Te  Te1  1  0.48088400  0.73319600  0.34174000  1
  S  S0  1  0.76960200  0.24740900  0.25327600  1
  S  S1  1  0.23039800  0.75259100  0.74672400  1
  O  O0  1  0.90288600  0.40579900  0.25797700  1
  O  O1  1  0.09711400  0.59420100  0.74202300  1
  O  O2  1  0.87535800  0.22778100  0.42969700  1
  O  O3  1  0.12464200  0.77221900  0.57030300  1
  O  O4  1  0.48571800  0.27204400  0.22138200  1
  O  O5  1  0.51428200  0.72795600  0.77861800  1
  O  O6  1  0.82186300  0.07885700  0.09044900  1
  O  O7  1  0.17813700  0.92114300  0.90955100  1
  O  O8  1  0.74903500  0.43373200  0.89141900  1
  O  O9  1  0.25096500  0.56626800  0.10858100  1
  O  O10  1  0.28027800  0.19159700  0.74740600  1
  O  O11  1  0.71972200  0.80840300  0.25259400  1
  O  O12  1  0.75059700  0.07386700  0.66264900  1
  O  O13  1  0.24940300  0.92613300  0.33735100  1
loop_
_geom_bond_atom_site_label_1
_geom_bond_atom_site_label_2
_geom_bond_distance
_geom_bond_site_symmetry_2
O0 S0 1.484274 1_555
O0 Sm0 2.501002 1_654
O1 S1 1.484274 1_555
O1 Sm1 2.501002 1_456
O2 S0 1.479193 1_555
O2 Zn0 2.158267 1_655
O3 S1 1.479193 1_555
O3 Zn0 2.158267 1_565
O4 S0 1.484491 1_555
O4 Sm0 2.403394 1_554
O5 S1 1.484491 1_555
O5 Sm1 2.403394 1_556
O6 S0 1.512335 1_555
O6 Sm1 2.493449 1_545
O6 Sm0 2.605746 1_654
O7 S1 1.512335 1_555
O7 Sm0 2.493449 1_565
O7 Sm1 2.605746 1_456
O8 Te0 1.907803 1_555
O8 Sm1 2.390019 1_556
O8 Sm0 2.413456 1_655
O9 Te1 1.907803 1_555
O9 Sm0 2.390019 1_554
O9 Sm1 2.413456 1_455
O10 Te0 1.898302 1_555
O10 Zn0 2.148939 1_555
O10 Sm0 2.335308 1_555
O11 Te1 1.898302 1_555
O11 Zn0 2.148939 1_665
O11 Sm1 2.335308 1_555
O12 Te0 1.920325 1_555
O12 Zn0 2.044837 1_655
O12 Sm0 2.587316 1_655
O13 Te1 1.920325 1_555
O13 Zn0 2.044837 1_565
O13 Sm1 2.587316 1_455
