# generated using pymatgen
data_Na5Er4Si4O16F
_symmetry_space_group_name_H-M   'P 1'
_cell_length_a   8.63703095
_cell_length_b   8.63703095
_cell_length_c   8.63703095
_cell_angle_alpha   95.64678040
_cell_angle_beta   95.64678040
_cell_angle_gamma   143.43765232
_symmetry_Int_Tables_number   1
_chemical_formula_structural   Na5Er4Si4O16F
_chemical_formula_sum   'Na5 Er4 Si4 O16 F1'
_cell_volume   364.44081853
_cell_formula_units_Z   1
loop_
 _symmetry_equiv_pos_site_id
 _symmetry_equiv_pos_as_xyz
  1  'x, y, z'
loop_
 _atom_site_type_symbol
 _atom_site_label
 _atom_site_symmetry_multiplicity
 _atom_site_fract_x
 _atom_site_fract_y
 _atom_site_fract_z
 _atom_site_occupancy
  Na  Na0  1  0.11226600  0.59687400  0.69461600  1
  Na  Na1  1  0.90225800  0.41765000  0.30538400  1
  Na  Na2  1  0.40312600  0.09774200  0.51539200  1
  Na  Na3  1  0.58235000  0.88773400  0.48460800  1
  Na  Na4  1  0.00000000  0.00000000  0.00000000  1
  Er  Er0  1  0.70565300  0.63876200  0.29757500  1
  Er  Er1  1  0.34118700  0.40807800  0.70242500  1
  Er  Er2  1  0.36123800  0.65881300  0.06689100  1
  Er  Er3  1  0.59192200  0.29434700  0.93310900  1
  Si  Si0  1  0.88538800  0.74285600  0.64978000  1
  Si  Si1  1  0.09307600  0.23560800  0.35022000  1
  Si  Si2  1  0.25714400  0.90692400  0.14253200  1
  Si  Si3  1  0.76439200  0.11461200  0.85746800  1
  O  O0  1  0.90277300  0.62512800  0.50235000  1
  O  O1  1  0.12277800  0.40042300  0.49765000  1
  O  O2  1  0.37487200  0.87722200  0.27764500  1
  O  O3  1  0.59957700  0.09722700  0.72235500  1
  O  O4  1  0.18839400  0.05058000  0.76425200  1
  O  O5  1  0.28632800  0.42414200  0.23574800  1
  O  O6  1  0.94942000  0.71367200  0.13781400  1
  O  O7  1  0.57585800  0.81160600  0.86218600  1
  O  O8  1  0.70943300  0.53823700  0.76286200  1
  O  O9  1  0.77537500  0.94657000  0.23713800  1
  O  O10  1  0.46176300  0.22462500  0.17119600  1
  O  O11  1  0.05343000  0.29056700  0.82880400  1
  O  O12  1  0.69590800  0.73011800  0.56022300  1
  O  O13  1  0.16989400  0.13568500  0.43977700  1
  O  O14  1  0.26988200  0.83010600  0.96579100  1
  O  O15  1  0.86431500  0.30409200  0.03420900  1
  F  F0  1  0.50000000  0.50000000  0.00000000  1
loop_
_geom_bond_atom_site_label_1
_geom_bond_atom_site_label_2
_geom_bond_distance
_geom_bond_site_symmetry_2
Na0 O14 2.331433 1_555
Na0 O1 2.343316 1_555
Na0 O0 2.507758 1_455
Na0 O3 2.612815 1_565
Na0 O11 2.675859 1_555
Na0 O7 2.822905 1_555
Na0 O3 2.829033 1_455
Na1 O15 2.331431 1_555
Na1 O0 2.343316 1_555
Na1 O1 2.507758 1_655
Na1 O2 2.612815 1_655
Na1 O10 2.675854 1_555
Na1 O6 2.822905 1_555
Na1 O2 2.829033 1_545
Na2 O13 2.331431 1_555
Na2 O3 2.343316 1_555
Na2 O2 2.507758 1_545
Na2 O0 2.612815 1_445
Na2 O8 2.675854 1_555
Na2 O4 2.822905 1_555
Na2 O0 2.829033 1_555
Na3 O12 2.331423 1_555
Na3 O2 2.343316 1_555
Na3 O3 2.507758 1_565
Na3 O1 2.612815 1_555
Na3 O9 2.675856 1_555
Na3 O5 2.822905 1_555
Na3 O1 2.829033 1_665
Na4 O4 2.582559 1_554
Na4 O5 2.582559 1_555
Na4 O6 2.582559 1_445
Na4 O7 2.582559 1_444
Na4 O11 2.775184 1_554
Na4 O9 2.775186 1_445
Na4 O10 2.775188 1_555
Na4 O8 2.775188 1_444
Er0 O10 2.257947 1_555
Er0 O6 2.305333 1_555
Er0 O9 2.337978 1_555
Er0 O5 2.340526 1_555
Er0 O12 2.359614 1_555
Er0 O0 2.410617 1_555
Er0 F0 2.504559 1_555
Er0 O13 2.520895 1_665
Er1 O11 2.257940 1_555
Er1 O7 2.305333 1_555
Er1 O8 2.337987 1_555
Er1 O4 2.340526 1_555
Er1 O13 2.359612 1_555
Er1 O1 2.410617 1_555
Er1 F0 2.504559 1_556
Er1 O12 2.520897 1_555
Er2 O9 2.257949 1_555
Er2 O5 2.305333 1_555
Er2 O11 2.337987 1_554
Er2 O7 2.340526 1_554
Er2 O14 2.359618 1_554
Er2 O2 2.410617 1_555
Er2 F0 2.504559 1_555
Er2 O15 2.520895 1_455
Er3 O8 2.257947 1_555
Er3 O4 2.305333 1_555
Er3 O10 2.337987 1_556
Er3 O6 2.340526 1_556
Er3 O15 2.359612 1_556
Er3 O3 2.410617 1_555
Er3 F0 2.504559 1_556
Er3 O14 2.520894 1_545
O0 Si0 1.644994 1_555
O1 Si1 1.644994 1_555
O2 Si2 1.644994 1_555
O3 Si3 1.644994 1_555
O4 Si0 1.640276 1_445
O5 Si1 1.640276 1_555
O6 Si2 1.640276 1_655
O7 Si3 1.640276 1_565
O8 Si0 1.644412 1_555
O9 Si1 1.644413 1_665
O10 Si2 1.644412 1_545
O11 Si3 1.644419 1_455
O12 Si0 1.653360 1_555
O13 Si1 1.653353 1_555
O14 Si2 1.653349 1_556
O15 Si3 1.653353 1_554
F0 Na4 2.709268 1_665
F0 Na4 2.709268 1_555
