# generated using pymatgen
data_Yb(PPd)2
_symmetry_space_group_name_H-M   'P 1'
_cell_length_a   5.67155810
_cell_length_b   5.67155810
_cell_length_c   5.67155810
_cell_angle_alpha   138.13600476
_cell_angle_beta   138.13600476
_cell_angle_gamma   60.69476475
_symmetry_Int_Tables_number   1
_chemical_formula_structural   Yb(PPd)2
_chemical_formula_sum   'Yb1 P2 Pd2'
_cell_volume   80.37756615
_cell_formula_units_Z   1
loop_
 _symmetry_equiv_pos_site_id
 _symmetry_equiv_pos_as_xyz
  1  'x, y, z'
loop_
 _atom_site_type_symbol
 _atom_site_label
 _atom_site_symmetry_multiplicity
 _atom_site_fract_x
 _atom_site_fract_y
 _atom_site_fract_z
 _atom_site_occupancy
  Yb  Yb0  1  0.00000000  0.00000000  0.00000000  1
  P  P0  1  0.39013418  0.39013418  0.00000000  1
  P  P1  1  0.60986582  0.60986582  0.00000000  1
  Pd  Pd0  1  0.75000000  0.25000000  0.50000000  1
  Pd  Pd1  1  0.25000000  0.75000000  0.50000000  1
loop_
_geom_bond_atom_site_label_1
_geom_bond_atom_site_label_2
_geom_bond_distance
_geom_bond_site_symmetry_2
P0 P1 2.150922 1_555
P0 Pd1 2.446890 1_555
P0 Pd1 2.446890 1_544
P0 Pd0 2.446890 1_555
P0 Pd0 2.446890 1_454
P0 Yb0 3.060677 1_554
P0 Yb0 3.060677 1_666
P0 Yb0 3.060677 1_655
P0 Yb0 3.060677 1_565
P1 Pd1 2.446890 1_554
P1 Pd1 2.446890 1_655
P1 Pd0 2.446890 1_554
P1 Pd0 2.446890 1_565
P1 Yb0 3.060677 1_554
P1 Yb0 3.060677 1_666
P1 Yb0 3.060677 1_655
P1 Yb0 3.060677 1_565
Pd0 Pd1 2.865506 1_645
Pd0 Pd1 2.865506 1_555
Pd0 Pd1 2.865506 1_656
Pd0 Pd1 2.865506 1_544
Pd0 Yb0 3.177172 1_555
Pd0 Yb0 3.177172 1_655
Pd0 Yb0 3.177172 1_666
Pd0 Yb0 3.177172 1_656
Pd1 Yb0 3.177172 1_555
Pd1 Yb0 3.177172 1_566
Pd1 Yb0 3.177172 1_666
Pd1 Yb0 3.177172 1_565
