# generated using pymatgen
data_Na2ZrSi3O10
_symmetry_space_group_name_H-M   'P 1'
_cell_length_a   7.35261800
_cell_length_b   10.04087500
_cell_length_c   13.53160500
_cell_angle_alpha   90.00000000
_cell_angle_beta   90.00000000
_cell_angle_gamma   90.00000000
_symmetry_Int_Tables_number   1
_chemical_formula_structural   Na2ZrSi3O10
_chemical_formula_sum   'Na8 Zr4 Si12 O40'
_cell_volume   998.99398995
_cell_formula_units_Z   4
loop_
 _symmetry_equiv_pos_site_id
 _symmetry_equiv_pos_as_xyz
  1  'x, y, z'
loop_
 _atom_site_type_symbol
 _atom_site_label
 _atom_site_symmetry_multiplicity
 _atom_site_fract_x
 _atom_site_fract_y
 _atom_site_fract_z
 _atom_site_occupancy
  Na  Na0  1  0.48996900  0.75494800  0.09683600  1
  Na  Na1  1  0.98996900  0.74505200  0.90316400  1
  Na  Na2  1  0.51003100  0.25494800  0.40316400  1
  Na  Na3  1  0.01003100  0.24505200  0.59683600  1
  Na  Na4  1  0.72884300  0.58103300  0.67026300  1
  Na  Na5  1  0.22884300  0.91896700  0.32973700  1
  Na  Na6  1  0.27115700  0.08103300  0.82973700  1
  Na  Na7  1  0.77115700  0.41896700  0.17026300  1
  Zr  Zr0  1  0.25813900  0.53741500  0.70152700  1
  Zr  Zr1  1  0.75813900  0.96258500  0.29847300  1
  Zr  Zr2  1  0.74186100  0.03741500  0.79847300  1
  Zr  Zr3  1  0.24186100  0.46258500  0.20152700  1
  Si  Si0  1  0.42918000  0.85465900  0.66302700  1
  Si  Si1  1  0.92918000  0.64534100  0.33697300  1
  Si  Si2  1  0.57082000  0.35465900  0.83697300  1
  Si  Si3  1  0.07082000  0.14534100  0.16302700  1
  Si  Si4  1  0.73806900  0.98229300  0.55752500  1
  Si  Si5  1  0.23806900  0.51770700  0.44247500  1
  Si  Si6  1  0.26193100  0.48229300  0.94247500  1
  Si  Si7  1  0.76193100  0.01770700  0.05752500  1
  Si  Si8  1  0.97997500  0.32786500  0.83380000  1
  Si  Si9  1  0.47997500  0.17213500  0.16620000  1
  Si  Si10  1  0.02002500  0.82786500  0.66620000  1
  Si  Si11  1  0.52002500  0.67213500  0.33380000  1
  O  O0  1  0.22827500  0.59054100  0.85436500  1
  O  O1  1  0.72827500  0.90945900  0.14563500  1
  O  O2  1  0.77172500  0.09054100  0.64563500  1
  O  O3  1  0.27172500  0.40945900  0.35436500  1
  O  O4  1  0.44158900  0.69299700  0.66914100  1
  O  O5  1  0.94158900  0.80700300  0.33085900  1
  O  O6  1  0.55841100  0.19299700  0.83085900  1
  O  O7  1  0.05841100  0.30700300  0.16914100  1
  O  O8  1  0.25594900  0.45385300  0.55378700  1
  O  O9  1  0.75594900  0.04614700  0.44621300  1
  O  O10  1  0.74405100  0.95385300  0.94621300  1
  O  O11  1  0.24405100  0.54614700  0.05378700  1
  O  O12  1  0.06747900  0.38409200  0.73086000  1
  O  O13  1  0.56747900  0.11590800  0.26914000  1
  O  O14  1  0.93252100  0.88409200  0.76914000  1
  O  O15  1  0.43252100  0.61590800  0.23086000  1
  O  O16  1  0.49063500  0.42754600  0.73805000  1
  O  O17  1  0.99063500  0.07245400  0.26195000  1
  O  O18  1  0.50936500  0.92754600  0.76195000  1
  O  O19  1  0.00936500  0.57245400  0.23805000  1
  O  O20  1  0.03913800  0.66662400  0.67281100  1
  O  O21  1  0.53913800  0.83337600  0.32718900  1
  O  O22  1  0.96086200  0.16662400  0.82718900  1
  O  O23  1  0.46086200  0.33337600  0.17281100  1
  O  O24  1  0.21639400  0.90294900  0.64955600  1
  O  O25  1  0.71639400  0.59705100  0.35044400  1
  O  O26  1  0.78360600  0.40294900  0.85044400  1
  O  O27  1  0.28360600  0.09705100  0.14955600  1
  O  O28  1  0.89006700  0.86279100  0.57054000  1
  O  O29  1  0.39006700  0.63720900  0.42946000  1
  O  O30  1  0.10993300  0.36279100  0.92946000  1
  O  O31  1  0.60993300  0.13720900  0.07054000  1
  O  O32  1  0.53681700  0.91259200  0.56496600  1
  O  O33  1  0.03681700  0.58740800  0.43503400  1
  O  O34  1  0.46318300  0.41259200  0.93503400  1
  O  O35  1  0.96318300  0.08740800  0.06496600  1
  O  O36  1  0.32224600  0.23735900  0.54795600  1
  O  O37  1  0.82224600  0.26264100  0.45204400  1
  O  O38  1  0.67775400  0.73735900  0.95204400  1
  O  O39  1  0.17775400  0.76264100  0.04795600  1
loop_
_geom_bond_atom_site_label_1
_geom_bond_atom_site_label_2
_geom_bond_distance
_geom_bond_site_symmetry_2
Na0 O15 2.327330 1_555
Na0 O39 2.390234 1_555
Na0 O38 2.403391 1_554
Na0 O1 2.431680 1_555
Na0 O11 2.829171 1_555
Na1 O14 2.327330 1_555
Na1 O38 2.390234 1_555
Na1 O39 2.403391 1_656
Na1 O0 2.431680 1_655
Na1 O10 2.829171 1_555
Na2 O13 2.327330 1_555
Na2 O37 2.390234 1_555
Na2 O36 2.403391 1_555
Na2 O3 2.431680 1_555
Na2 O9 2.829171 1_555
Na3 O12 2.327330 1_555
Na3 O36 2.390234 1_555
Na3 O37 2.403391 1_455
Na3 O2 2.431680 1_455
Na3 O8 2.829171 1_555
Na4 O4 2.392682 1_555
Na4 O20 2.438222 1_655
Na4 O16 2.506808 1_555
Na5 O5 2.392682 1_455
Na5 O21 2.438222 1_555
Na5 O17 2.506808 1_465
Na6 O6 2.392682 1_555
Na6 O22 2.438222 1_455
Na6 O18 2.506808 1_545
Na7 O7 2.392682 1_655
Na7 O23 2.438222 1_555
Na7 O19 2.506808 1_655
O0 Si6 1.632209 1_555
O0 Zr0 2.147087 1_555
O1 Si7 1.632209 1_565
O1 Zr1 2.147087 1_555
O2 Si4 1.632209 1_545
O2 Zr2 2.147087 1_555
O3 Si5 1.632209 1_555
O3 Zr3 2.147087 1_555
O4 Si0 1.627894 1_555
O4 Zr0 2.109933 1_555
O5 Si1 1.627894 1_555
O5 Zr1 2.109933 1_555
O6 Si2 1.627894 1_555
O6 Zr2 2.109933 1_555
O7 Si3 1.627894 1_555
O7 Zr3 2.109933 1_555
O8 Si5 1.642280 1_555
O8 Zr0 2.168151 1_555
O9 Si4 1.642280 1_545
O9 Zr1 2.168151 1_545
O10 Si7 1.642280 1_566
O10 Zr2 2.168151 1_565
O11 Si6 1.642280 1_554
O11 Zr3 2.168151 1_555
O12 Si8 1.634922 1_455
O12 Zr0 2.119619 1_555
O13 Si9 1.634922 1_555
O13 Zr1 2.119619 1_545
O14 Si10 1.634922 1_655
O14 Zr2 2.119619 1_565
O15 Si11 1.634922 1_555
O15 Zr3 2.119619 1_555
O16 Si2 1.635546 1_555
O16 Zr0 2.093679 1_555
O17 Si3 1.635546 1_655
O17 Zr1 2.093679 1_545
O18 Si0 1.635546 1_555
O18 Zr2 2.093679 1_565
O19 Si1 1.635546 1_455
O19 Zr3 2.093679 1_555
O20 Si10 1.627549 1_555
O20 Zr0 2.104045 1_555
O21 Si11 1.627549 1_555
O21 Zr1 2.104045 1_555
O22 Si8 1.627549 1_555
O22 Zr2 2.104045 1_555
O23 Si9 1.627549 1_555
O23 Zr3 2.104045 1_555
O24 Si10 1.644304 1_555
O24 Si0 1.648059 1_555
O25 Si11 1.644304 1_555
O25 Si1 1.648059 1_555
O26 Si8 1.644304 1_555
O26 Si2 1.648059 1_555
O27 Si9 1.644304 1_555
O27 Si3 1.648059 1_555
O28 Si10 1.646688 1_655
O28 Si4 1.649175 1_555
O29 Si11 1.646688 1_555
O29 Si5 1.649175 1_555
O30 Si8 1.646688 1_455
O30 Si6 1.649175 1_555
O31 Si9 1.646688 1_555
O31 Si7 1.649175 1_555
O32 Si4 1.639981 1_555
O32 Si0 1.650888 1_555
O33 Si5 1.639981 1_555
O33 Si1 1.650888 1_455
O34 Si6 1.639981 1_555
O34 Si2 1.650888 1_555
O35 Si7 1.639981 1_555
O35 Si3 1.650888 1_655
