# generated using pymatgen
data_GdPPd
_symmetry_space_group_name_H-M   'P 1'
_cell_length_a   4.16767122
_cell_length_b   4.16767122
_cell_length_c   7.66628787
_cell_angle_alpha   90.00000000
_cell_angle_beta   90.00000000
_cell_angle_gamma   119.99999900
_symmetry_Int_Tables_number   1
_chemical_formula_structural   GdPPd
_chemical_formula_sum   'Gd2 P2 Pd2'
_cell_volume   115.31947600
_cell_formula_units_Z   2
loop_
 _symmetry_equiv_pos_site_id
 _symmetry_equiv_pos_as_xyz
  1  'x, y, z'
loop_
 _atom_site_type_symbol
 _atom_site_label
 _atom_site_symmetry_multiplicity
 _atom_site_fract_x
 _atom_site_fract_y
 _atom_site_fract_z
 _atom_site_occupancy
  Gd  Gd0  1  0.00000000  -0.00000000  0.50000000  1
  Gd  Gd1  1  0.00000000  -0.00000000  -0.00000000  1
  P  P0  1  0.33333300  0.66666700  0.74999010  1
  P  P1  1  0.66666700  0.33333300  0.25000990  1
  Pd  Pd0  1  0.33333300  0.66666700  0.25007227  1
  Pd  Pd1  1  0.66666700  0.33333300  0.74992773  1
loop_
_geom_bond_atom_site_label_1
_geom_bond_atom_site_label_2
_geom_bond_distance
_geom_bond_site_symmetry_2
Gd0 Pd0 3.075864 1_545
Gd0 Pd1 3.075864 1_455
Gd0 Pd1 3.075867 1_555
Gd0 Pd1 3.075867 1_445
Gd0 Pd0 3.075867 1_555
Gd0 Pd0 3.075867 1_445
Gd0 P1 3.076162 1_455
Gd0 P0 3.076162 1_545
Gd0 P0 3.076165 1_555
Gd0 P1 3.076165 1_555
Gd0 P0 3.076165 1_445
Gd0 P1 3.076165 1_445
Gd1 P1 3.076257 1_455
Gd1 P0 3.076257 1_544
Gd1 P0 3.076260 1_444
Gd1 P1 3.076260 1_445
Gd1 P1 3.076260 1_555
Gd1 P0 3.076260 1_554
Gd1 Pd1 3.076555 1_454
Gd1 Pd0 3.076555 1_545
Gd1 Pd1 3.076557 1_554
Gd1 Pd0 3.076557 1_555
Gd1 Pd0 3.076557 1_445
Gd1 Pd1 3.076557 1_444
P0 Pd1 2.406204 1_455
P0 Pd1 2.406204 1_565
P0 Pd1 2.406211 1_555
P1 Pd0 2.406204 1_545
P1 Pd0 2.406204 1_655
P1 Pd0 2.406211 1_555
