# generated using pymatgen
data_Mg4Si3
_symmetry_space_group_name_H-M   'P 1'
_cell_length_a   5.60322300
_cell_length_b   7.53951434
_cell_length_c   7.63134062
_cell_angle_alpha   116.57931522
_cell_angle_beta   89.93265361
_cell_angle_gamma   111.26005571
_symmetry_Int_Tables_number   1
_chemical_formula_structural   Mg4Si3
_chemical_formula_sum   'Mg8 Si6'
_cell_volume   263.63196669
_cell_formula_units_Z   2
loop_
 _symmetry_equiv_pos_site_id
 _symmetry_equiv_pos_as_xyz
  1  'x, y, z'
loop_
 _atom_site_type_symbol
 _atom_site_label
 _atom_site_symmetry_multiplicity
 _atom_site_fract_x
 _atom_site_fract_y
 _atom_site_fract_z
 _atom_site_occupancy
  Mg  Mg0  1  0.81571700  0.49389700  0.68341900  1
  Mg  Mg1  1  0.50436900  0.00523000  0.95155900  1
  Mg  Mg2  1  0.11778500  0.06742100  0.55486500  1
  Mg  Mg3  1  0.62570000  0.04679800  0.58752100  1
  Mg  Mg4  1  0.42202100  0.53374700  0.28473300  1
  Mg  Mg5  1  0.49115800  0.28237900  0.11904800  1
  Mg  Mg6  1  0.90441600  0.69097500  0.96994300  1
  Mg  Mg7  1  0.14771500  0.84028900  0.32337500  1
  Si  Si0  1  0.68291400  0.89634100  0.35254100  1
  Si  Si1  1  0.28846600  0.43171400  0.67766000  1
  Si  Si2  1  0.02831200  0.11045600  0.90422800  1
  Si  Si3  1  0.96703800  0.23294300  0.12543900  1
  Si  Si4  1  0.92610300  0.43829700  0.37731300  1
  Si  Si5  1  0.32811300  0.67957400  0.83824100  1
loop_
_geom_bond_atom_site_label_1
_geom_bond_atom_site_label_2
_geom_bond_distance
_geom_bond_site_symmetry_2
Mg0 Mg6 1.948202 1_555
Mg0 Si4 2.307275 1_555
Mg0 Si5 2.685484 1_655
Mg0 Si1 2.815504 1_555
Mg0 Si1 2.849633 1_655
Mg0 Mg3 2.867694 1_555
Mg1 Mg5 1.930647 1_556
Mg1 Si5 2.023630 1_545
Mg1 Si3 2.484098 1_556
Mg2 Mg7 1.892581 1_545
Mg2 Si1 2.265060 1_555
Mg2 Si0 2.435664 1_445
Mg2 Si2 2.608727 1_555
Mg3 Si0 1.745634 1_545
Mg3 Mg7 2.800117 1_545
Mg4 Mg5 1.930659 1_555
Mg4 Si0 2.390817 1_555
Mg4 Si3 2.543169 1_455
Mg4 Si4 2.781836 1_455
Mg4 Mg7 3.123464 1_555
Mg5 Si2 2.600790 1_554
Mg5 Si4 2.658220 1_555
Mg5 Si3 2.826303 1_455
Mg5 Si3 2.826418 1_555
Mg6 Mg7 2.564958 1_656
Mg6 Si5 2.592068 1_655
Mg7 Si0 2.779135 1_455
Mg7 Si0 2.866967 1_555
Mg7 Si4 3.046824 1_455
Si1 Si5 1.641205 1_555
Si2 Si3 1.629111 1_456
Si3 Si4 1.933321 1_555
