# generated using pymatgen
data_Pr3Gd3Mn23
_symmetry_space_group_name_H-M   'P 1'
_cell_length_a   8.61482850
_cell_length_b   8.61482850
_cell_length_c   8.61482786
_cell_angle_alpha   60.80931123
_cell_angle_beta   60.80931123
_cell_angle_gamma   60.80931363
_symmetry_Int_Tables_number   1
_chemical_formula_structural   Pr3Gd3Mn23
_chemical_formula_sum   'Pr3 Gd3 Mn23'
_cell_volume   460.34199193
_cell_formula_units_Z   1
loop_
 _symmetry_equiv_pos_site_id
 _symmetry_equiv_pos_as_xyz
  1  'x, y, z'
loop_
 _atom_site_type_symbol
 _atom_site_label
 _atom_site_symmetry_multiplicity
 _atom_site_fract_x
 _atom_site_fract_y
 _atom_site_fract_z
 _atom_site_occupancy
  Pr  Pr0  1  0.70304200  0.29982400  0.70304200  1
  Pr  Pr1  1  0.29982400  0.70304200  0.70304200  1
  Pr  Pr2  1  0.70304200  0.70304200  0.29982400  1
  Gd  Gd0  1  0.29223300  0.70803500  0.29223300  1
  Gd  Gd1  1  0.70803500  0.29223300  0.29223300  1
  Gd  Gd2  1  0.29223300  0.29223300  0.70803500  1
  Mn  Mn0  1  0.12075600  0.12075600  0.12075600  1
  Mn  Mn1  1  0.12258100  0.12258100  0.63233000  1
  Mn  Mn2  1  0.63233000  0.12258100  0.12258100  1
  Mn  Mn3  1  0.12258100  0.63233000  0.12258100  1
  Mn  Mn4  1  0.87976900  0.87976900  0.87976900  1
  Mn  Mn5  1  0.87955200  0.87955200  0.36214700  1
  Mn  Mn6  1  0.36214700  0.87955200  0.87955200  1
  Mn  Mn7  1  0.87955200  0.36214700  0.87955200  1
  Mn  Mn8  1  0.00170100  0.00170100  0.00170100  1
  Mn  Mn9  1  0.32100600  0.32100600  0.32100600  1
  Mn  Mn10  1  0.31945600  0.31945600  0.03213300  1
  Mn  Mn11  1  0.03213300  0.31945600  0.31945600  1
  Mn  Mn12  1  0.31945600  0.03213300  0.31945600  1
  Mn  Mn13  1  0.68556000  0.68556000  0.68556000  1
  Mn  Mn14  1  0.67575400  0.67575400  0.97092400  1
  Mn  Mn15  1  0.97092400  0.67575400  0.67575400  1
  Mn  Mn16  1  0.67575400  0.97092400  0.67575400  1
  Mn  Mn17  1  0.99938200  0.49724100  0.99938200  1
  Mn  Mn18  1  0.49724100  0.99938200  0.99938200  1
  Mn  Mn19  1  0.99938200  0.99938200  0.49724100  1
  Mn  Mn20  1  0.49817900  0.00821700  0.49817900  1
  Mn  Mn21  1  0.00821700  0.49817900  0.49817900  1
  Mn  Mn22  1  0.49817900  0.49817900  0.00821700  1
loop_
_geom_bond_atom_site_label_1
_geom_bond_atom_site_label_2
_geom_bond_distance
_geom_bond_site_symmetry_2
Pr0 Pr2 3.516059 1_555
Pr0 Pr1 3.516059 1_555
Pr1 Pr2 3.516059 1_555
Gd0 Mn3 2.939483 1_555
Gd0 Mn6 2.973326 1_554
Gd0 Mn5 2.973327 1_455
Gd0 Mn0 2.981304 1_565
Gd0 Mn12 3.039179 1_565
Gd0 Mn22 3.058498 1_555
Gd0 Mn21 3.058498 1_555
Gd0 Mn18 3.095912 1_554
Gd0 Mn19 3.095912 1_455
Gd0 Mn15 3.096659 1_455
Gd0 Mn14 3.096659 1_554
Gd0 Mn9 3.112445 1_555
Gd0 Pr1 3.550424 1_555
Gd0 Pr2 3.550425 1_555
Gd0 Gd2 3.625792 1_555
Gd0 Gd1 3.625792 1_555
Gd1 Mn2 2.939483 1_555
Gd1 Mn7 2.973326 1_554
Gd1 Mn5 2.973327 1_545
Gd1 Mn0 2.981304 1_655
Gd1 Mn11 3.039179 1_655
Gd1 Mn22 3.058498 1_555
Gd1 Mn20 3.058498 1_555
Gd1 Mn17 3.095912 1_554
Gd1 Mn19 3.095912 1_545
Gd1 Mn16 3.096659 1_545
Gd1 Mn14 3.096659 1_554
Gd1 Mn9 3.112445 1_555
Gd1 Pr0 3.550424 1_555
Gd1 Pr2 3.550425 1_555
Gd1 Gd2 3.625792 1_555
Gd2 Mn1 2.939483 1_555
Gd2 Mn6 2.973327 1_545
Gd2 Mn7 2.973327 1_455
Gd2 Mn0 2.981304 1_556
Gd2 Mn10 3.039179 1_556
Gd2 Mn21 3.058498 1_555
Gd2 Mn20 3.058498 1_555
Gd2 Mn18 3.095912 1_545
Gd2 Mn17 3.095912 1_455
Gd2 Mn16 3.096660 1_545
Gd2 Mn15 3.096660 1_455
Gd2 Mn9 3.112444 1_555
Gd2 Pr1 3.550425 1_555
Gd2 Pr0 3.550425 1_555
Mn0 Mn8 2.496815 1_555
Mn0 Mn12 2.598419 1_555
Mn0 Mn11 2.598419 1_555
Mn0 Mn10 2.598419 1_555
Mn0 Mn19 2.675150 1_445
Mn0 Mn17 2.675151 1_454
Mn0 Mn18 2.675151 1_544
Mn0 Mn5 2.956658 1_445
Mn0 Mn7 2.956658 1_454
Mn0 Mn6 2.956658 1_544
Mn1 Mn8 2.624433 1_556
Mn1 Mn9 2.635052 1_555
Mn1 Mn12 2.655002 1_555
Mn1 Mn11 2.655002 1_555
Mn1 Mn19 2.667513 1_445
Mn1 Mn21 2.670122 1_555
Mn1 Mn20 2.670122 1_555
Mn1 Mn4 2.977295 1_445
Mn1 Mn7 2.983608 1_455
Mn1 Mn6 2.983608 1_545
Mn1 Pr1 3.023573 1_545
Mn1 Pr0 3.023573 1_455
Mn2 Mn8 2.624433 1_655
Mn2 Mn9 2.635052 1_555
Mn2 Mn20 2.670121 1_555
Mn2 Mn22 2.670122 1_555
Mn2 Mn4 2.977295 1_544
Mn2 Mn7 2.983608 1_554
Mn2 Mn5 2.983608 1_545
Mn2 Pr0 3.023573 1_554
Mn2 Pr2 3.023573 1_545
Mn3 Mn8 2.624433 1_565
Mn3 Mn9 2.635052 1_555
Mn3 Mn4 2.977295 1_454
Mn3 Mn6 2.983608 1_554
Mn3 Mn5 2.983608 1_455
Mn3 Pr1 3.023573 1_554
Mn3 Pr2 3.023573 1_455
Mn4 Mn8 2.557151 1_666
Mn4 Pr2 3.040354 1_556
Mn4 Pr0 3.040354 1_565
Mn4 Pr1 3.040354 1_655
Mn5 Mn8 2.561702 1_665
Mn5 Pr2 2.959880 1_555
Mn6 Mn8 2.561702 1_566
Mn6 Pr1 2.959880 1_555
Mn7 Mn8 2.561702 1_656
Mn7 Pr0 2.959880 1_555
Mn10 Mn18 2.499289 1_544
Mn10 Mn17 2.499289 1_454
Mn10 Mn9 2.501688 1_555
Mn10 Mn12 2.505455 1_555
Mn10 Mn11 2.505455 1_555
Mn10 Mn22 2.545013 1_555
Mn10 Mn3 2.655002 1_555
Mn10 Mn2 2.655002 1_555
Mn10 Pr1 3.125736 1_554
Mn10 Pr0 3.125736 1_554
Mn11 Mn17 2.499289 1_454
Mn11 Mn19 2.499289 1_445
Mn11 Mn9 2.501688 1_555
Mn11 Mn12 2.505455 1_555
Mn11 Mn21 2.545013 1_555
Mn11 Mn3 2.655002 1_555
Mn11 Pr0 3.125736 1_455
Mn11 Pr2 3.125736 1_455
Mn12 Mn18 2.499289 1_544
Mn12 Mn19 2.499289 1_445
Mn12 Mn9 2.501688 1_555
Mn12 Mn20 2.545013 1_555
Mn12 Mn2 2.655002 1_555
Mn12 Pr1 3.125736 1_545
Mn12 Pr2 3.125736 1_545
Mn13 Mn14 2.378997 1_555
Mn13 Mn15 2.378998 1_555
Mn13 Mn16 2.378998 1_555
Mn13 Mn22 2.593488 1_556
Mn13 Mn21 2.593488 1_655
Mn13 Mn20 2.593488 1_565
Mn13 Mn5 2.643692 1_555
Mn13 Mn6 2.643693 1_555
Mn13 Mn7 2.643693 1_555
Mn13 Pr2 3.183363 1_555
Mn13 Pr1 3.183363 1_555
Mn13 Pr0 3.183363 1_555
Mn14 Mn22 2.471353 1_556
Mn14 Mn18 2.512923 1_555
Mn14 Mn17 2.512923 1_555
Mn14 Mn16 2.573881 1_555
Mn14 Mn15 2.573881 1_555
Mn14 Mn7 2.664703 1_555
Mn14 Mn6 2.664703 1_555
Mn14 Mn4 2.667439 1_555
Mn14 Pr2 3.080930 1_556
Mn15 Mn21 2.471353 1_655
Mn15 Mn17 2.512923 1_555
Mn15 Mn19 2.512923 1_555
Mn15 Mn16 2.573881 1_555
Mn15 Mn5 2.664703 1_555
Mn15 Mn7 2.664703 1_555
Mn15 Mn4 2.667439 1_555
Mn15 Pr1 3.080930 1_655
Mn16 Mn20 2.471353 1_565
Mn16 Mn18 2.512923 1_555
Mn16 Mn19 2.512923 1_555
Mn16 Mn5 2.664703 1_555
Mn16 Mn6 2.664703 1_555
Mn16 Mn4 2.667439 1_555
Mn16 Pr0 3.080930 1_565
Mn17 Mn7 2.620900 1_555
Mn17 Mn3 2.667513 1_656
Mn17 Mn4 2.719276 1_555
Mn17 Pr2 3.158417 1_556
Mn17 Pr1 3.158417 1_655
Mn18 Mn6 2.620900 1_555
Mn18 Mn2 2.667513 1_566
Mn18 Mn4 2.719276 1_555
Mn18 Pr2 3.158417 1_556
Mn18 Pr0 3.158417 1_565
Mn19 Mn5 2.620900 1_555
Mn19 Mn4 2.719275 1_555
Mn19 Pr0 3.158417 1_565
Mn19 Pr1 3.158417 1_655
Mn20 Mn9 2.483758 1_555
Mn20 Mn6 2.712082 1_545
Mn20 Mn5 2.712082 1_545
Mn20 Pr1 3.140228 1_545
Mn20 Pr2 3.140228 1_545
Mn21 Mn9 2.483758 1_555
Mn21 Mn3 2.670121 1_555
Mn21 Mn7 2.712082 1_455
Mn21 Mn5 2.712082 1_455
Mn21 Pr0 3.140228 1_455
Mn21 Pr2 3.140228 1_455
Mn22 Mn9 2.483758 1_555
Mn22 Mn3 2.670122 1_555
Mn22 Mn7 2.712082 1_554
Mn22 Mn6 2.712082 1_554
Mn22 Pr0 3.140228 1_554
Mn22 Pr1 3.140228 1_554
