# generated using pymatgen
data_HfMg6Si
_symmetry_space_group_name_H-M   'P 1'
_cell_length_a   4.82173200
_cell_length_b   6.40203300
_cell_length_c   10.83136900
_cell_angle_alpha   90.00000000
_cell_angle_beta   90.00000000
_cell_angle_gamma   90.00000000
_symmetry_Int_Tables_number   1
_chemical_formula_structural   HfMg6Si
_chemical_formula_sum   'Hf2 Mg12 Si2'
_cell_volume   334.35230984
_cell_formula_units_Z   2
loop_
 _symmetry_equiv_pos_site_id
 _symmetry_equiv_pos_as_xyz
  1  'x, y, z'
loop_
 _atom_site_type_symbol
 _atom_site_label
 _atom_site_symmetry_multiplicity
 _atom_site_fract_x
 _atom_site_fract_y
 _atom_site_fract_z
 _atom_site_occupancy
  Hf  Hf0  1  0.50000000  0.50000000  0.17780000  1
  Hf  Hf1  1  0.50000000  0.00000000  0.67780000  1
  Mg  Mg0  1  0.00000000  0.24677400  0.08422700  1
  Mg  Mg1  1  0.00000000  0.75322600  0.08422700  1
  Mg  Mg2  1  0.00000000  0.50000000  0.83230900  1
  Mg  Mg3  1  0.50000000  0.24934800  0.91845200  1
  Mg  Mg4  1  0.50000000  0.75065200  0.91845200  1
  Mg  Mg5  1  0.50000000  0.50000000  0.66747100  1
  Mg  Mg6  1  0.00000000  0.74677400  0.58422700  1
  Mg  Mg7  1  0.00000000  0.25322600  0.58422700  1
  Mg  Mg8  1  0.00000000  0.00000000  0.33230900  1
  Mg  Mg9  1  0.50000000  0.74934800  0.41845200  1
  Mg  Mg10  1  0.50000000  0.25065200  0.41845200  1
  Mg  Mg11  1  0.50000000  0.00000000  0.16747100  1
  Si  Si0  1  0.00000000  0.50000000  0.31706300  1
  Si  Si1  1  0.00000000  0.00000000  0.81706300  1
loop_
_geom_bond_atom_site_label_1
_geom_bond_atom_site_label_2
_geom_bond_distance
_geom_bond_site_symmetry_2
Hf0 Si0 2.843866 1_555
Hf0 Si0 2.843866 1_655
Hf0 Mg10 3.056566 1_555
Hf0 Mg9 3.056566 1_555
Hf0 Mg11 3.202971 1_555
Hf0 Mg11 3.202971 1_565
Hf0 Mg4 3.235122 1_554
Hf0 Mg3 3.235122 1_554
Hf1 Si1 2.843866 1_655
Hf1 Si1 2.843866 1_555
Hf1 Mg3 3.056566 1_555
Hf1 Mg4 3.056566 1_545
Hf1 Mg5 3.202971 1_545
Hf1 Mg5 3.202971 1_555
Hf1 Mg9 3.235122 1_545
Hf1 Mg10 3.235122 1_555
Mg0 Si0 2.998051 1_555
Mg0 Mg3 3.006097 1_554
Mg0 Mg3 3.006097 1_454
Mg0 Mg11 3.020130 1_455
Mg0 Mg11 3.020130 1_555
Mg0 Mg8 3.117094 1_555
Mg0 Mg2 3.173880 1_554
Mg0 Si1 3.296929 1_554
Mg1 Si0 2.998051 1_555
Mg1 Mg4 3.006097 1_454
Mg1 Mg4 3.006097 1_554
Mg1 Mg11 3.020130 1_565
Mg1 Mg11 3.020130 1_465
Mg1 Mg8 3.117094 1_565
Mg1 Mg2 3.173880 1_554
Mg1 Si1 3.296929 1_564
Mg2 Mg5 3.000001 1_455
Mg2 Mg5 3.000001 1_555
Mg2 Mg3 3.042673 1_455
Mg2 Mg4 3.042673 1_455
Mg2 Mg3 3.042673 1_555
Mg2 Mg4 3.042673 1_555
Mg2 Mg6 3.117094 1_555
Mg2 Mg7 3.117094 1_555
Mg2 Si1 3.205273 1_565
Mg2 Si1 3.205273 1_555
Mg3 Si1 3.092986 1_655
Mg3 Si1 3.092986 1_555
Mg3 Mg5 3.156750 1_555
Mg3 Mg4 3.192668 1_545
Mg3 Mg4 3.209365 1_555
Mg4 Si1 3.092986 1_565
Mg4 Si1 3.092986 1_665
Mg4 Mg5 3.156750 1_555
Mg5 Mg6 3.020130 1_555
Mg5 Mg6 3.020130 1_655
Mg5 Mg7 3.020130 1_655
Mg5 Mg7 3.020130 1_555
Mg5 Mg9 3.134208 1_555
Mg6 Si1 2.998051 1_565
Mg6 Mg9 3.006097 1_455
Mg6 Mg9 3.006097 1_555
Mg6 Mg8 3.173880 1_565
Mg6 Si0 3.296929 1_555
Mg7 Si1 2.998051 1_555
Mg7 Mg8 3.173880 1_555
Mg7 Si0 3.296929 1_555
Mg8 Mg9 3.042673 1_445
Mg8 Mg9 3.042673 1_545
Mg8 Si0 3.205273 1_545
Mg8 Si0 3.205273 1_555
Mg9 Si0 3.092986 1_555
Mg9 Si0 3.092986 1_655
Mg10 Mg7 3.006097 1_555
Mg10 Mg7 3.006097 1_655
Mg10 Mg8 3.042673 1_655
Mg10 Mg8 3.042673 1_555
Mg10 Si0 3.092986 1_555
Mg10 Si0 3.092986 1_655
Mg10 Mg5 3.134208 1_555
Mg10 Mg11 3.156750 1_555
Mg10 Mg9 3.192668 1_555
Mg10 Mg9 3.209365 1_545
Mg11 Mg8 3.000001 1_555
Mg11 Mg8 3.000001 1_655
Mg11 Mg4 3.134208 1_544
Mg11 Mg3 3.134208 1_554
Mg11 Mg9 3.156750 1_545
