# generated using pymatgen
data_Zr2SiNi3
_symmetry_space_group_name_H-M   'P 1'
_cell_length_a   5.01819445
_cell_length_b   5.01819445
_cell_length_c   7.82895700
_cell_angle_alpha   90.00000000
_cell_angle_beta   90.00000000
_cell_angle_gamma   120.00000588
_symmetry_Int_Tables_number   1
_chemical_formula_structural   Zr2SiNi3
_chemical_formula_sum   'Zr4 Si2 Ni6'
_cell_volume   170.73772272
_cell_formula_units_Z   2
loop_
 _symmetry_equiv_pos_site_id
 _symmetry_equiv_pos_as_xyz
  1  'x, y, z'
loop_
 _atom_site_type_symbol
 _atom_site_label
 _atom_site_symmetry_multiplicity
 _atom_site_fract_x
 _atom_site_fract_y
 _atom_site_fract_z
 _atom_site_occupancy
  Zr  Zr0  1  0.33333300  0.66666700  0.44557600  1
  Zr  Zr1  1  0.66666700  0.33333300  0.55442400  1
  Zr  Zr2  1  0.66666700  0.33333300  0.94557600  1
  Zr  Zr3  1  0.33333300  0.66666700  0.05442400  1
  Si  Si0  1  0.00000000  0.00000000  0.50000000  1
  Si  Si1  1  0.00000000  0.00000000  0.00000000  1
  Ni  Ni0  1  0.83272800  0.16727200  0.25000000  1
  Ni  Ni1  1  0.83272800  0.66545600  0.25000000  1
  Ni  Ni2  1  0.33454400  0.16727200  0.25000000  1
  Ni  Ni3  1  0.16727200  0.83272800  0.75000000  1
  Ni  Ni4  1  0.16727200  0.33454400  0.75000000  1
  Ni  Ni5  1  0.66545600  0.83272800  0.75000000  1
loop_
_geom_bond_atom_site_label_1
_geom_bond_atom_site_label_2
_geom_bond_distance
_geom_bond_site_symmetry_2
Si0 Zr1 2.928416 1_455
Si0 Zr0 2.928416 1_545
Si0 Zr1 2.928420 1_555
Si0 Zr1 2.928420 1_445
Si0 Zr0 2.928420 1_555
Si0 Zr0 2.928420 1_445
Si1 Zr3 2.928416 1_545
Si1 Zr2 2.928416 1_454
Si1 Zr3 2.928420 1_445
Si1 Zr2 2.928420 1_554
Si1 Zr2 2.928420 1_444
Si1 Zr3 2.928420 1_555
Ni0 Si1 2.438151 1_655
Ni0 Si0 2.438151 1_655
Ni0 Ni2 2.499984 1_555
Ni0 Ni1 2.499984 1_555
Ni0 Ni2 2.518210 1_655
Ni0 Ni1 2.518210 1_545
Ni0 Zr2 2.786310 1_554
Ni0 Zr1 2.786310 1_555
Ni0 Zr0 2.939394 1_545
Ni0 Zr3 2.939394 1_545
Ni0 Zr0 2.939394 1_655
Ni0 Zr3 2.939394 1_655
Ni1 Si0 2.438151 1_665
Ni1 Si1 2.438151 1_665
Ni1 Ni2 2.499984 1_555
Ni1 Ni2 2.518210 1_665
Ni1 Zr2 2.786312 1_554
Ni1 Zr1 2.786312 1_555
Ni1 Zr0 2.939392 1_655
Ni1 Zr3 2.939392 1_655
Ni1 Zr0 2.939396 1_555
Ni1 Zr3 2.939396 1_555
Ni2 Si0 2.438151 1_555
Ni2 Si1 2.438151 1_555
Ni2 Zr2 2.786312 1_554
Ni2 Zr1 2.786312 1_555
Ni2 Zr0 2.939392 1_545
Ni2 Zr3 2.939392 1_545
Ni2 Zr0 2.939396 1_555
Ni2 Zr3 2.939396 1_555
Ni3 Si1 2.438151 1_566
Ni3 Si0 2.438151 1_565
Ni3 Ni5 2.499984 1_555
Ni3 Ni4 2.499984 1_555
Ni3 Ni4 2.518210 1_565
Ni3 Ni5 2.518210 1_455
Ni3 Zr3 2.786310 1_556
Ni3 Zr0 2.786310 1_555
Ni3 Zr1 2.939394 1_455
Ni3 Zr2 2.939394 1_455
Ni3 Zr1 2.939394 1_565
Ni3 Zr2 2.939394 1_565
Ni4 Si1 2.438151 1_556
Ni4 Si0 2.438151 1_555
Ni4 Ni5 2.499984 1_555
Ni4 Ni5 2.518210 1_445
Ni4 Zr3 2.786312 1_556
Ni4 Zr0 2.786312 1_555
Ni4 Zr2 2.939392 1_455
Ni4 Zr1 2.939392 1_455
Ni4 Zr1 2.939396 1_555
Ni4 Zr2 2.939396 1_555
Ni5 Si0 2.438151 1_665
Ni5 Si1 2.438151 1_666
Ni5 Zr3 2.786312 1_556
Ni5 Zr0 2.786312 1_555
Ni5 Zr1 2.939392 1_565
Ni5 Zr2 2.939392 1_565
Ni5 Zr2 2.939396 1_555
Ni5 Zr1 2.939396 1_555
