# generated using pymatgen
data_Cs2LiMnO4
_symmetry_space_group_name_H-M   'P 1'
_cell_length_a   6.08039000
_cell_length_b   12.39209800
_cell_length_c   8.31034300
_cell_angle_alpha   90.00000000
_cell_angle_beta   90.00000000
_cell_angle_gamma   90.00000000
_symmetry_Int_Tables_number   1
_chemical_formula_structural   Cs2LiMnO4
_chemical_formula_sum   'Cs8 Li4 Mn4 O16'
_cell_volume   626.17427922
_cell_formula_units_Z   4
loop_
 _symmetry_equiv_pos_site_id
 _symmetry_equiv_pos_as_xyz
  1  'x, y, z'
loop_
 _atom_site_type_symbol
 _atom_site_label
 _atom_site_symmetry_multiplicity
 _atom_site_fract_x
 _atom_site_fract_y
 _atom_site_fract_z
 _atom_site_occupancy
  Cs  Cs0  1  0.50000000  0.10647200  0.54509800  1
  Cs  Cs1  1  0.00000000  0.60647200  0.54509800  1
  Cs  Cs2  1  0.00000000  0.39352800  0.04509800  1
  Cs  Cs3  1  0.50000000  0.89352800  0.04509800  1
  Cs  Cs4  1  0.50000000  0.42640900  0.41063200  1
  Cs  Cs5  1  0.00000000  0.92640900  0.41063200  1
  Cs  Cs6  1  0.00000000  0.07359100  0.91063200  1
  Cs  Cs7  1  0.50000000  0.57359100  0.91063200  1
  Li  Li0  1  0.50000000  0.29209300  0.82696600  1
  Li  Li1  1  0.00000000  0.79209300  0.82696600  1
  Li  Li2  1  0.00000000  0.20790700  0.32696600  1
  Li  Li3  1  0.50000000  0.70790700  0.32696600  1
  Mn  Mn0  1  0.50000000  0.80143700  0.60785800  1
  Mn  Mn1  1  0.00000000  0.69856300  0.10785800  1
  Mn  Mn2  1  0.00000000  0.30143700  0.60785800  1
  Mn  Mn3  1  0.50000000  0.19856300  0.10785800  1
  O  O0  1  0.50000000  0.13941000  0.91912100  1
  O  O1  1  0.00000000  0.63941000  0.91912100  1
  O  O2  1  0.00000000  0.36059000  0.41912100  1
  O  O3  1  0.50000000  0.86059000  0.41912100  1
  O  O4  1  0.00000000  0.16477800  0.56098300  1
  O  O5  1  0.50000000  0.66477800  0.56098300  1
  O  O6  1  0.50000000  0.33522200  0.06098300  1
  O  O7  1  0.00000000  0.83522200  0.06098300  1
  O  O8  1  0.26589600  0.16350800  0.21072100  1
  O  O9  1  0.76589600  0.66350800  0.21072100  1
  O  O10  1  0.23410400  0.33649200  0.71072100  1
  O  O11  1  0.73410400  0.83649200  0.71072100  1
  O  O12  1  0.73410400  0.16350800  0.21072100  1
  O  O13  1  0.23410400  0.66350800  0.21072100  1
  O  O14  1  0.76589600  0.33649200  0.71072100  1
  O  O15  1  0.26589600  0.83649200  0.71072100  1
loop_
_geom_bond_atom_site_label_1
_geom_bond_atom_site_label_2
_geom_bond_distance
_geom_bond_site_symmetry_2
Cs0 O4 3.127662 1_555
Cs0 O4 3.127662 1_655
Cs0 O0 3.134945 1_555
Cs0 O12 3.201158 1_555
Cs0 O8 3.201158 1_555
Cs0 O3 3.221831 1_545
Cs1 O5 3.127662 1_455
Cs1 O5 3.127662 1_555
Cs1 O1 3.134945 1_555
Cs1 O9 3.201158 1_455
Cs1 O13 3.201158 1_555
Cs1 O2 3.221831 1_555
Cs2 O6 3.127662 1_555
Cs2 O6 3.127662 1_455
Cs2 O2 3.134945 1_555
Cs2 O14 3.201158 1_454
Cs2 O10 3.201158 1_554
Cs2 O1 3.221831 1_554
Cs3 O7 3.127662 1_655
Cs3 O7 3.127662 1_555
Cs3 O3 3.134945 1_555
Cs3 O15 3.201158 1_554
Cs3 O11 3.201158 1_554
Cs3 O0 3.221831 1_564
Cs4 O6 3.117693 1_555
Cs4 O2 3.148495 1_655
Cs4 O2 3.148495 1_555
Cs4 O10 3.174069 1_555
Cs4 O14 3.174069 1_555
Cs4 O5 3.207281 1_555
Cs5 O7 3.117693 1_555
Cs5 O3 3.148495 1_455
Cs5 O3 3.148495 1_555
Cs5 O15 3.174069 1_555
Cs5 O11 3.174069 1_455
Cs5 O4 3.207281 1_565
Cs6 O4 3.117693 1_555
Cs6 O0 3.148495 1_455
Cs6 O0 3.148495 1_555
Cs6 O8 3.174069 1_556
Cs6 O12 3.174069 1_456
Cs6 O7 3.207281 1_546
Cs7 O5 3.117693 1_555
Cs7 O1 3.148495 1_655
Cs7 O1 3.148495 1_555
Cs7 O9 3.174069 1_556
Cs7 O13 3.174069 1_556
Cs7 O6 3.207281 1_556
Li0 O14 1.962098 1_555
Li0 O10 1.962098 1_555
Li0 O6 2.016865 1_556
Li0 O0 2.041179 1_555
Li1 O15 1.962098 1_555
Li1 O11 1.962098 1_455
Li1 O7 2.016865 1_556
Li1 O1 2.041179 1_555
Li2 O12 1.962098 1_455
Li2 O8 1.962098 1_555
Li2 O4 2.016865 1_555
Li2 O2 2.041179 1_555
Li3 O9 1.962098 1_555
Li3 O13 1.962098 1_555
Li3 O5 2.016865 1_555
Li3 O3 2.041179 1_555
Mn0 O15 1.716283 1_555
Mn0 O11 1.716283 1_555
Mn0 O3 1.731308 1_555
Mn0 O5 1.737717 1_555
Mn1 O13 1.716283 1_555
Mn1 O9 1.716283 1_455
Mn1 O1 1.731308 1_554
Mn1 O7 1.737717 1_555
Mn2 O14 1.716283 1_455
Mn2 O10 1.716283 1_555
Mn2 O2 1.731308 1_555
Mn2 O4 1.737717 1_555
Mn3 O8 1.716283 1_555
Mn3 O12 1.716283 1_555
Mn3 O0 1.731308 1_554
Mn3 O6 1.737717 1_555
