# generated using pymatgen
data_MgCuP4(RuO7)2
_symmetry_space_group_name_H-M   'P 1'
_cell_length_a   5.03424071
_cell_length_b   6.71374492
_cell_length_c   8.42004994
_cell_angle_alpha   92.63040512
_cell_angle_beta   90.22167616
_cell_angle_gamma   107.85747518
_symmetry_Int_Tables_number   1
_chemical_formula_structural   MgCuP4(RuO7)2
_chemical_formula_sum   'Mg1 Cu1 P4 Ru2 O14'
_cell_volume   270.54167239
_cell_formula_units_Z   1
loop_
 _symmetry_equiv_pos_site_id
 _symmetry_equiv_pos_as_xyz
  1  'x, y, z'
loop_
 _atom_site_type_symbol
 _atom_site_label
 _atom_site_symmetry_multiplicity
 _atom_site_fract_x
 _atom_site_fract_y
 _atom_site_fract_z
 _atom_site_occupancy
  Mg  Mg0  1  0.42774000  0.09360300  0.61634900  1
  Cu  Cu0  1  0.95117900  0.04362800  0.41991900  1
  P  P0  1  0.41692500  0.76874500  0.80755800  1
  P  P1  1  0.60291400  0.23127700  0.20449000  1
  P  P2  1  0.02729800  0.64612200  0.27188100  1
  P  P3  1  0.98542000  0.34447300  0.73659200  1
  Ru  Ru0  1  0.51040500  0.51343200  0.50061100  1
  Ru  Ru1  1  0.01096200  0.99553000  0.00798900  1
  O  O0  1  0.15470600  0.81286700  0.15541700  1
  O  O1  1  0.87714200  0.17596200  0.85242800  1
  O  O2  1  0.49862400  0.79428900  0.62826000  1
  O  O3  1  0.50952900  0.22611700  0.38340900  1
  O  O4  1  0.19023700  0.54344600  0.82787900  1
  O  O5  1  0.79540100  0.46331500  0.17263800  1
  O  O6  1  0.25638000  0.93396000  0.82369600  1
  O  O7  1  0.78627000  0.08218000  0.19338600  1
  O  O8  1  0.23364100  0.54776900  0.33656200  1
  O  O9  1  0.72898900  0.38811500  0.66716800  1
  O  O10  1  0.64499100  0.77176100  0.92477500  1
  O  O11  1  0.37065800  0.20992300  0.08400500  1
  O  O12  1  0.15998500  0.27518300  0.59937800  1
  O  O13  1  0.86060500  0.73089500  0.40279800  1
loop_
_geom_bond_atom_site_label_1
_geom_bond_atom_site_label_2
_geom_bond_distance
_geom_bond_site_symmetry_2
Mg0 O12 2.084667 1_555
Mg0 O9 2.114455 1_555
Mg0 O6 2.134800 1_545
Mg0 O2 2.152574 1_545
Mg0 O3 2.179392 1_555
Cu0 O13 2.005396 1_545
Cu0 O7 2.135253 1_555
Cu0 O12 2.138903 1_655
O0 P2 1.513782 1_555
O0 Ru1 2.060485 1_555
O1 P3 1.501845 1_555
O1 Ru1 2.067909 1_646
O2 P0 1.569417 1_555
O2 Ru0 2.144130 1_555
O3 P1 1.578626 1_555
O3 Ru0 2.124805 1_555
O4 P3 1.579032 1_455
O4 P0 1.608159 1_555
O5 P1 1.597606 1_555
O5 P2 1.608431 1_655
O6 P0 1.561688 1_555
O6 Ru1 2.091516 1_556
O7 P1 1.556128 1_555
O7 Ru1 2.094924 1_645
O8 P2 1.503662 1_555
O8 Ru0 2.028235 1_555
O9 P3 1.528374 1_555
O9 Ru0 2.133002 1_555
O10 P0 1.505951 1_555
O10 Ru1 2.082827 1_656
O11 P1 1.513775 1_555
O11 Ru1 2.017033 1_545
O12 P3 1.591472 1_455
O12 Ru0 2.182898 1_555
O13 P2 1.576627 1_655
O13 Ru0 2.112110 1_555
