# generated using pymatgen
data_Ca2ZrTi(GeO5)2
_symmetry_space_group_name_H-M   'P 1'
_cell_length_a   5.68196500
_cell_length_b   5.73483244
_cell_length_c   7.40735812
_cell_angle_alpha   104.13088005
_cell_angle_beta   104.07023320
_cell_angle_gamma   105.88880990
_symmetry_Int_Tables_number   1
_chemical_formula_structural   Ca2ZrTi(GeO5)2
_chemical_formula_sum   'Ca2 Zr1 Ti1 Ge2 O10'
_cell_volume   212.32913959
_cell_formula_units_Z   1
loop_
 _symmetry_equiv_pos_site_id
 _symmetry_equiv_pos_as_xyz
  1  'x, y, z'
loop_
 _atom_site_type_symbol
 _atom_site_label
 _atom_site_symmetry_multiplicity
 _atom_site_fract_x
 _atom_site_fract_y
 _atom_site_fract_z
 _atom_site_occupancy
  Ca  Ca0  1  0.18265100  0.83302700  0.75845800  1
  Ca  Ca1  1  0.81734900  0.16697300  0.24154200  1
  Zr  Zr0  1  0.50000000  0.50000000  0.50000000  1
  Ti  Ti0  1  0.50000000  0.50000000  0.00000000  1
  Ge  Ge0  1  0.16803600  0.81334000  0.24509700  1
  Ge  Ge1  1  0.83196400  0.18666000  0.75490300  1
  O  O0  1  0.23015100  0.12199200  0.40875400  1
  O  O1  1  0.14085000  0.24661400  0.92291200  1
  O  O2  1  0.76984900  0.87800800  0.59124600  1
  O  O3  1  0.85915000  0.75338600  0.07708800  1
  O  O4  1  0.61147400  0.19149700  0.88977400  1
  O  O5  1  0.17342100  0.60654900  0.38830600  1
  O  O6  1  0.38852600  0.80850300  0.11022600  1
  O  O7  1  0.82657900  0.39345100  0.61169400  1
  O  O8  1  0.57569000  0.42723500  0.23795300  1
  O  O9  1  0.42431000  0.57276500  0.76204700  1
loop_
_geom_bond_atom_site_label_1
_geom_bond_atom_site_label_2
_geom_bond_distance
_geom_bond_site_symmetry_2
Ca0 O9 2.288583 1_555
Ca0 O2 2.485338 1_455
Ca0 O1 2.490860 1_565
Ca0 O4 2.497548 1_565
Ca0 O7 2.535721 1_455
Ca0 O6 2.639065 1_556
Ca0 O5 2.713184 1_555
Ca1 O8 2.288583 1_555
Ca1 O0 2.485338 1_655
Ca1 O3 2.490860 1_545
Ca1 O6 2.497548 1_545
Ca1 O5 2.535721 1_655
Ca1 O4 2.639065 1_554
Ca1 O7 2.713184 1_555
Ge0 O0 1.769029 1_565
Ge0 O3 1.773686 1_455
Ge0 O5 1.775096 1_555
Ge0 O6 1.783943 1_555
Ge1 O2 1.769029 1_545
Ge1 O1 1.773686 1_655
Ge1 O7 1.775096 1_555
Ge1 O4 1.783943 1_555
O0 Zr0 2.113743 1_555
O1 Ti0 2.001652 1_556
O2 Zr0 2.113743 1_555
O3 Ti0 2.001652 1_555
O4 Ti0 2.087497 1_556
O5 Zr0 2.149974 1_555
O6 Ti0 2.087497 1_555
O7 Zr0 2.149974 1_555
O8 Ti0 1.885389 1_555
O8 Zr0 2.058039 1_555
O9 Ti0 1.885389 1_556
O9 Zr0 2.058039 1_555
