# generated using pymatgen
data_HoAl4Ni
_symmetry_space_group_name_H-M   'P 1'
_cell_length_a   4.03765012
_cell_length_b   6.54878190
_cell_length_c   7.89995532
_cell_angle_alpha   90.00000000
_cell_angle_beta   104.80610707
_cell_angle_gamma   90.00000000
_symmetry_Int_Tables_number   1
_chemical_formula_structural   HoAl4Ni
_chemical_formula_sum   'Ho2 Al8 Ni2'
_cell_volume   201.95227948
_cell_formula_units_Z   2
loop_
 _symmetry_equiv_pos_site_id
 _symmetry_equiv_pos_as_xyz
  1  'x, y, z'
loop_
 _atom_site_type_symbol
 _atom_site_label
 _atom_site_symmetry_multiplicity
 _atom_site_fract_x
 _atom_site_fract_y
 _atom_site_fract_z
 _atom_site_occupancy
  Ho  Ho0  1  0.11815673  0.75000000  0.23631346  1
  Ho  Ho1  1  0.88184327  0.25000000  0.76368654  1
  Al  Al0  1  0.50000000  0.00000000  -0.00000000  1
  Al  Al1  1  0.50000000  0.50000000  -0.00000000  1
  Al  Al2  1  0.07642337  0.25000000  0.15284674  1
  Al  Al3  1  0.92357663  0.75000000  0.84715326  1
  Al  Al4  1  0.68887666  0.05301138  0.37775633  1
  Al  Al5  1  0.31112334  0.94698862  0.62224367  1
  Al  Al6  1  0.31112334  0.55301138  0.62224367  1
  Al  Al7  1  0.68887666  0.44698862  0.37775633  1
  Ni  Ni0  1  0.77363519  0.75000000  0.54726939  1
  Ni  Ni1  1  0.22636481  0.25000000  0.45273061  1
loop_
_geom_bond_atom_site_label_1
_geom_bond_atom_site_label_2
_geom_bond_distance
_geom_bond_site_symmetry_2
Ho0 Ni0 3.117072 1_455
Ho0 Ni0 3.117074 1_555
Ho1 Ni1 3.117072 1_655
Ho1 Ni1 3.117074 1_555
Al0 Al3 2.849362 1_544
Al0 Al2 2.849362 1_555
Al0 Al3 2.849362 1_444
Al0 Al2 2.849362 1_655
Al0 Al5 2.905980 1_544
Al0 Al4 2.905980 1_555
Al0 Ho1 3.164435 1_554
Al0 Ho0 3.164435 1_545
Al0 Ho1 3.164435 1_454
Al0 Ho0 3.164435 1_645
Al1 Al3 2.849362 1_554
Al1 Al2 2.849362 1_555
Al1 Al3 2.849362 1_454
Al1 Al2 2.849362 1_655
Al1 Al6 2.905980 1_554
Al1 Al7 2.905980 1_555
Al1 Ho1 3.164435 1_554
Al1 Ho0 3.164435 1_555
Al1 Ho1 3.164435 1_454
Al1 Ho0 3.164435 1_655
Al2 Ni1 2.290407 1_555
Al2 Ho1 2.972268 1_454
Al2 Ho0 3.335870 1_545
Al2 Ho0 3.335870 1_555
Al3 Ni0 2.290407 1_555
Al3 Ho0 2.972268 1_656
Al3 Ho1 3.335870 1_565
Al3 Ho1 3.335870 1_555
Al4 Ni0 2.369360 1_545
Al4 Ni1 2.463277 1_555
Al4 Ni1 2.463283 1_655
Al4 Ho0 3.029905 1_545
Al4 Ho0 3.029913 1_645
Al4 Ho1 3.217535 1_555
Al5 Ni1 2.369360 1_565
Al5 Ni0 2.463277 1_555
Al5 Ni0 2.463283 1_455
Al5 Ho1 3.029905 1_565
Al5 Ho1 3.029913 1_465
Al5 Ho0 3.217535 1_555
Al6 Ni1 2.369360 1_555
Al6 Ni0 2.463277 1_555
Al6 Ni0 2.463283 1_455
Al6 Ho1 3.029905 1_555
Al6 Ho1 3.029913 1_455
Al6 Ho0 3.217535 1_555
Al7 Ni0 2.369360 1_555
Al7 Ni1 2.463277 1_555
Al7 Ni1 2.463283 1_655
Al7 Ho0 3.029905 1_555
Al7 Ho0 3.029913 1_655
Al7 Ho1 3.217535 1_555
