# generated using pymatgen
data_Li2V3O6
_symmetry_space_group_name_H-M   'P 1'
_cell_length_a   5.11377146
_cell_length_b   6.74127858
_cell_length_c   6.74133573
_cell_angle_alpha   96.22472488
_cell_angle_beta   82.76301158
_cell_angle_gamma   97.23647502
_symmetry_Int_Tables_number   1
_chemical_formula_structural   Li2V3O6
_chemical_formula_sum   'Li4 V6 O12'
_cell_volume   227.69494199
_cell_formula_units_Z   2
loop_
 _symmetry_equiv_pos_site_id
 _symmetry_equiv_pos_as_xyz
  1  'x, y, z'
loop_
 _atom_site_type_symbol
 _atom_site_label
 _atom_site_symmetry_multiplicity
 _atom_site_fract_x
 _atom_site_fract_y
 _atom_site_fract_z
 _atom_site_occupancy
  Li  Li0  1  0.98940000  0.66620800  0.66974600  1
  Li  Li1  1  0.51060700  0.16975400  0.16621200  1
  Li  Li2  1  0.98886300  0.32968300  0.33446300  1
  Li  Li3  1  0.51114400  0.83446200  0.82968600  1
  V  V0  1  0.74999800  0.25051600  0.75054200  1
  V  V1  1  0.25000700  0.75080000  0.25079000  1
  V  V2  1  0.74999500  0.91548800  0.41547600  1
  V  V3  1  0.75001200  0.58309600  0.08308900  1
  V  V4  1  0.25000000  0.08883400  0.58882100  1
  V  V5  1  0.24999000  0.41195100  0.91194400  1
  O  O0  1  0.38483800  0.13879500  0.86177300  1
  O  O1  1  0.88538500  0.64146100  0.35737400  1
  O  O2  1  0.61462800  0.85737900  0.14145900  1
  O  O3  1  0.11513200  0.36176300  0.63880600  1
  O  O4  1  0.86985900  0.31446500  0.03662300  1
  O  O5  1  0.39484000  0.81489300  0.52663000  1
  O  O6  1  0.39654100  0.47414400  0.18535300  1
  O  O7  1  0.86700700  0.96366000  0.68406000  1
  O  O8  1  0.63013200  0.53660700  0.81447500  1
  O  O9  1  0.10517400  0.02662300  0.31489000  1
  O  O10  1  0.10345900  0.68536500  0.97413600  1
  O  O11  1  0.63298900  0.18405200  0.46365300  1
loop_
_geom_bond_atom_site_label_1
_geom_bond_atom_site_label_2
_geom_bond_distance
_geom_bond_site_symmetry_2
Li0 O8 2.102248 1_555
Li0 O7 2.163541 1_555
Li0 O10 2.189217 1_655
Li0 O3 2.207910 1_655
Li0 O1 2.220099 1_555
Li0 O5 2.327306 1_655
Li1 O4 2.102109 1_555
Li1 O11 2.163479 1_555
Li1 O6 2.189217 1_555
Li1 O0 2.207964 1_554
Li1 O2 2.220104 1_545
Li1 O9 2.327296 1_555
Li2 O11 2.090496 1_555
Li2 O4 2.158644 1_555
Li2 O9 2.184716 1_655
Li2 O3 2.208048 1_655
Li2 O1 2.215979 1_555
Li2 O6 2.340493 1_655
Li3 O7 2.090459 1_555
Li3 O8 2.158691 1_555
Li3 O5 2.184700 1_555
Li3 O0 2.208034 1_565
Li3 O2 2.215976 1_556
Li3 O10 2.340464 1_555
O0 V0 2.007946 1_555
O0 V4 2.025210 1_555
O0 V5 2.026531 1_555
O1 V1 1.991817 1_655
O1 V2 2.035249 1_555
O1 V3 2.036941 1_555
O2 V1 1.991787 1_555
O2 V2 2.035160 1_555
O2 V3 2.036934 1_555
O3 V0 2.007897 1_455
O3 V4 2.025115 1_555
O3 V5 2.026464 1_555
O4 V3 1.965038 1_555
O4 V5 2.074461 1_654
O4 V0 2.081317 1_554
O5 V2 1.943428 1_555
O5 V4 2.057470 1_565
O5 V1 2.070080 1_555
O6 V3 1.934789 1_555
O6 V5 2.058124 1_554
O6 V1 2.079610 1_555
O7 V2 1.959167 1_555
O7 V0 2.081918 1_565
O7 V4 2.084336 1_665
O8 V3 1.965022 1_556
O8 V5 2.074432 1_555
O8 V0 2.081361 1_555
O9 V2 1.943476 1_445
O9 V4 2.057406 1_555
O9 V1 2.069956 1_545
O10 V3 1.934697 1_456
O10 V5 2.058087 1_555
O10 V1 2.079650 1_556
O11 V2 1.959008 1_545
O11 V0 2.082139 1_555
O11 V4 2.084272 1_555
