# generated using pymatgen
data_Tb5(SiSb)2
_symmetry_space_group_name_H-M   'P 1'
_cell_length_a   8.53737632
_cell_length_b   8.53737632
_cell_length_c   7.90295765
_cell_angle_alpha   90.00000000
_cell_angle_beta   90.00000000
_cell_angle_gamma   125.06187941
_symmetry_Int_Tables_number   1
_chemical_formula_structural   Tb5(SiSb)2
_chemical_formula_sum   'Tb10 Si4 Sb4'
_cell_volume   471.49188528
_cell_formula_units_Z   2
loop_
 _symmetry_equiv_pos_site_id
 _symmetry_equiv_pos_as_xyz
  1  'x, y, z'
loop_
 _atom_site_type_symbol
 _atom_site_label
 _atom_site_symmetry_multiplicity
 _atom_site_fract_x
 _atom_site_fract_y
 _atom_site_fract_z
 _atom_site_occupancy
  Tb  Tb0  1  0.04070567  0.29328855  0.33342380  1
  Tb  Tb1  1  0.95929433  0.70671145  0.66657620  1
  Tb  Tb2  1  0.45929433  0.20671145  0.83342380  1
  Tb  Tb3  1  0.79328855  0.54070567  0.16657620  1
  Tb  Tb4  1  0.54070567  0.79328855  0.16657620  1
  Tb  Tb5  1  0.20671145  0.45929433  0.83342380  1
  Tb  Tb6  1  0.70671145  0.95929433  0.66657620  1
  Tb  Tb7  1  0.29328855  0.04070567  0.33342380  1
  Tb  Tb8  1  0.00000000  0.00000000  -0.00000000  1
  Tb  Tb9  1  0.50000000  0.50000000  0.50000000  1
  Si  Si0  1  0.36963192  0.36963192  0.12935012  1
  Si  Si1  1  0.63036808  0.63036808  0.87064988  1
  Si  Si2  1  0.13036808  0.13036808  0.62935012  1
  Si  Si3  1  0.86963192  0.86963192  0.37064988  1
  Sb  Sb0  1  0.79478493  0.20521507  -0.00000000  1
  Sb  Sb1  1  0.20521507  0.79478493  -0.00000000  1
  Sb  Sb2  1  0.70521507  0.29478493  0.50000000  1
  Sb  Sb3  1  0.29478493  0.70521507  0.50000000  1
loop_
_geom_bond_atom_site_label_1
_geom_bond_atom_site_label_2
_geom_bond_distance
_geom_bond_site_symmetry_2
Si0 Tb7 2.967968 1_555
Si0 Tb0 2.967968 1_555
Si0 Tb5 3.035353 1_554
Si0 Tb2 3.035353 1_554
Si0 Tb4 3.038500 1_555
Si0 Tb3 3.038500 1_555
Si0 Tb8 3.085504 1_555
Si0 Tb9 3.103978 1_555
Si1 Tb6 2.967968 1_555
Si1 Tb1 2.967968 1_555
Si1 Tb3 3.035353 1_556
Si1 Tb4 3.035353 1_556
Si1 Tb2 3.038500 1_555
Si1 Tb5 3.038500 1_555
Si1 Tb8 3.085504 1_666
Si1 Tb9 3.103978 1_555
Si2 Tb5 2.967968 1_555
Si2 Tb2 2.967968 1_555
Si2 Tb0 3.035353 1_555
Si2 Tb7 3.035353 1_555
Si2 Tb1 3.038500 1_445
Si2 Tb6 3.038500 1_445
Si2 Tb9 3.085504 1_555
Si2 Tb8 3.103978 1_556
Si3 Tb4 2.967968 1_555
Si3 Tb3 2.967968 1_555
Si3 Tb1 3.035353 1_555
Si3 Tb6 3.035353 1_555
Si3 Tb0 3.038500 1_665
Si3 Tb7 3.038500 1_665
Si3 Tb9 3.085504 1_555
Si3 Tb8 3.103978 1_665
Sb0 Tb8 3.108956 1_655
Sb0 Tb3 3.158944 1_555
Sb0 Tb2 3.158944 1_554
Sb0 Tb4 3.168831 1_545
Sb0 Tb5 3.168831 1_654
Sb0 Tb0 3.178522 1_655
Sb0 Tb6 3.178522 1_544
Sb1 Tb8 3.108956 1_565
Sb1 Tb4 3.158944 1_555
Sb1 Tb5 3.158944 1_554
Sb1 Tb3 3.168831 1_455
Sb1 Tb2 3.168831 1_564
Sb1 Tb7 3.178522 1_565
Sb1 Tb1 3.178522 1_454
Sb2 Tb9 3.108956 1_555
Sb2 Tb0 3.158944 1_655
Sb2 Tb6 3.158944 1_545
Sb2 Tb1 3.168831 1_555
Sb2 Tb7 3.168831 1_555
Sb2 Tb2 3.178522 1_555
Sb2 Tb3 3.178522 1_555
Sb3 Tb9 3.108956 1_555
Sb3 Tb7 3.158944 1_565
Sb3 Tb1 3.158944 1_455
Sb3 Tb6 3.168831 1_555
Sb3 Tb0 3.168831 1_555
Sb3 Tb5 3.178522 1_555
Sb3 Tb4 3.178522 1_555
