# generated using pymatgen
data_Mg6CuW
_symmetry_space_group_name_H-M   'P 1'
_cell_length_a   4.79288600
_cell_length_b   5.97316000
_cell_length_c   10.55459100
_cell_angle_alpha   90.00000000
_cell_angle_beta   90.00000000
_cell_angle_gamma   90.00000000
_symmetry_Int_Tables_number   1
_chemical_formula_structural   Mg6CuW
_chemical_formula_sum   'Mg12 Cu2 W2'
_cell_volume   302.16395486
_cell_formula_units_Z   2
loop_
 _symmetry_equiv_pos_site_id
 _symmetry_equiv_pos_as_xyz
  1  'x, y, z'
loop_
 _atom_site_type_symbol
 _atom_site_label
 _atom_site_symmetry_multiplicity
 _atom_site_fract_x
 _atom_site_fract_y
 _atom_site_fract_z
 _atom_site_occupancy
  Mg  Mg0  1  0.50000000  0.75187200  0.92151200  1
  Mg  Mg1  1  0.50000000  0.24812800  0.92151200  1
  Mg  Mg2  1  0.00000000  0.24258700  0.58690600  1
  Mg  Mg3  1  0.00000000  0.75741300  0.58690600  1
  Mg  Mg4  1  0.00000000  0.50000000  0.82156500  1
  Mg  Mg5  1  0.00000000  0.00000000  0.82325000  1
  Mg  Mg6  1  0.50000000  0.25187200  0.42151200  1
  Mg  Mg7  1  0.50000000  0.74812800  0.42151200  1
  Mg  Mg8  1  0.00000000  0.74258700  0.08690600  1
  Mg  Mg9  1  0.00000000  0.25741300  0.08690600  1
  Mg  Mg10  1  0.00000000  0.00000000  0.32156500  1
  Mg  Mg11  1  0.00000000  0.50000000  0.32325000  1
  Cu  Cu0  1  0.50000000  0.50000000  0.66610500  1
  Cu  Cu1  1  0.50000000  0.00000000  0.16610500  1
  W  W0  1  0.50000000  0.00000000  0.67224200  1
  W  W1  1  0.50000000  0.50000000  0.17224200  1
loop_
_geom_bond_atom_site_label_1
_geom_bond_atom_site_label_2
_geom_bond_distance
_geom_bond_site_symmetry_2
Mg0 Mg1 2.964216 1_565
Mg0 Mg8 2.965361 1_656
Mg0 Mg8 2.965361 1_556
Mg0 Mg5 3.002531 1_565
Mg0 Mg5 3.002531 1_665
Mg0 Mg1 3.008944 1_555
Mg0 W0 3.019686 1_565
Mg0 Mg4 3.019799 1_555
Mg0 Mg4 3.019799 1_655
Mg0 W1 3.044112 1_556
Mg1 Mg9 2.965361 1_656
Mg1 Mg9 2.965361 1_556
Mg1 Mg5 3.002531 1_655
Mg1 Mg5 3.002531 1_555
Mg1 W0 3.019686 1_555
Mg1 Mg4 3.019799 1_555
Mg1 Mg4 3.019799 1_655
Mg1 W1 3.044112 1_556
Mg2 Mg5 2.884828 1_555
Mg2 Mg3 2.898022 1_545
Mg2 Mg4 2.915186 1_555
Mg2 W0 2.941736 1_555
Mg2 W0 2.941736 1_455
Mg2 Mg6 2.965361 1_455
Mg2 Mg6 2.965361 1_555
Mg2 Mg3 3.075138 1_555
Mg3 Mg5 2.884828 1_565
Mg3 Mg4 2.915186 1_555
Mg3 W0 2.941736 1_565
Mg3 W0 2.941736 1_465
Mg3 Mg7 2.965361 1_455
Mg3 Mg7 2.965361 1_555
Mg4 Mg5 2.986633 1_565
Mg4 Mg5 2.986633 1_555
Mg4 Mg9 3.153221 1_556
Mg4 Mg8 3.153221 1_556
Mg5 W0 2.878059 1_455
Mg5 W0 2.878059 1_555
Mg5 Mg9 3.179307 1_556
Mg5 Mg8 3.179307 1_546
Mg6 Mg7 2.964216 1_555
Mg6 Mg7 3.008944 1_545
Mg6 W1 3.019686 1_555
Mg6 W0 3.044112 1_555
Mg7 W1 3.019686 1_555
Mg7 W0 3.044112 1_565
Mg8 Mg9 2.898022 1_555
Mg8 W1 2.941736 1_455
Mg8 W1 2.941736 1_555
Mg8 Mg9 3.075138 1_565
Mg9 W1 2.941736 1_455
Mg9 W1 2.941736 1_555
Mg10 Mg8 2.915186 1_545
Mg10 Mg9 2.915186 1_555
Mg10 Mg11 2.986633 1_545
Mg10 Mg11 2.986633 1_555
Mg10 Mg7 3.019799 1_545
Mg10 Mg7 3.019799 1_445
Mg10 Mg6 3.019799 1_455
Mg10 Mg6 3.019799 1_555
Mg10 Mg2 3.153221 1_555
Mg10 Mg3 3.153221 1_545
Mg11 W1 2.878059 1_455
Mg11 W1 2.878059 1_555
Mg11 Mg8 2.884828 1_555
Mg11 Mg9 2.884828 1_555
Mg11 Mg7 3.002531 1_555
Mg11 Mg6 3.002531 1_455
Mg11 Mg6 3.002531 1_555
Mg11 Mg7 3.002531 1_455
Mg11 Mg2 3.179307 1_555
Mg11 Mg3 3.179307 1_555
Cu0 Mg4 2.904345 1_655
Cu0 Mg4 2.904345 1_555
Cu0 Mg3 2.967458 1_555
Cu0 Mg2 2.967458 1_655
Cu0 Mg3 2.967458 1_655
Cu0 Mg2 2.967458 1_555
Cu0 Mg7 2.976776 1_555
Cu0 Mg6 2.976776 1_555
Cu0 W0 2.987282 1_555
Cu0 W0 2.987282 1_565
Cu0 Mg1 3.087122 1_555
Cu0 Mg0 3.087122 1_555
Cu1 Mg10 2.904345 1_555
Cu1 Mg10 2.904345 1_655
Cu1 Mg8 2.967458 1_545
Cu1 Mg9 2.967458 1_555
Cu1 Mg9 2.967458 1_655
Cu1 Mg8 2.967458 1_645
Cu1 Mg1 2.976776 1_554
Cu1 Mg0 2.976776 1_544
Cu1 W1 2.987282 1_555
Cu1 W1 2.987282 1_545
Cu1 Mg6 3.087122 1_555
Cu1 Mg7 3.087122 1_545
