# generated using pymatgen
data_Sr(Ni2B)6
_symmetry_space_group_name_H-M   'P 1'
_cell_length_a   6.01792187
_cell_length_b   6.01792194
_cell_length_c   6.01792229
_cell_angle_alpha   104.47105090
_cell_angle_beta   104.47105645
_cell_angle_gamma   104.47106706
_symmetry_Int_Tables_number   1
_chemical_formula_structural   Sr(Ni2B)6
_chemical_formula_sum   'Sr1 Ni12 B6'
_cell_volume   192.65997734
_cell_formula_units_Z   1
loop_
 _symmetry_equiv_pos_site_id
 _symmetry_equiv_pos_as_xyz
  1  'x, y, z'
loop_
 _atom_site_type_symbol
 _atom_site_label
 _atom_site_symmetry_multiplicity
 _atom_site_fract_x
 _atom_site_fract_y
 _atom_site_fract_z
 _atom_site_occupancy
  Sr  Sr0  1  0.00000000  0.00000000  0.00000000  1
  Ni  Ni0  1  0.50000000  0.13177168  0.86822832  1
  Ni  Ni1  1  0.46151843  0.18807326  0.46151843  1
  Ni  Ni2  1  0.86822832  0.50000000  0.13177168  1
  Ni  Ni3  1  0.18807326  0.46151843  0.46151843  1
  Ni  Ni4  1  0.81192674  0.53848157  0.53848157  1
  Ni  Ni5  1  0.53848157  0.81192674  0.53848157  1
  Ni  Ni6  1  0.53848157  0.53848157  0.81192674  1
  Ni  Ni7  1  0.13177168  0.50000000  0.86822832  1
  Ni  Ni8  1  0.50000000  0.86822832  0.13177168  1
  Ni  Ni9  1  0.86822832  0.13177168  0.50000000  1
  Ni  Ni10  1  0.46151843  0.46151843  0.18807326  1
  Ni  Ni11  1  0.13177168  0.86822832  0.50000000  1
  B  B0  1  0.76738120  0.76738120  0.34261312  1
  B  B1  1  0.65738688  0.23261880  0.23261880  1
  B  B2  1  0.23261880  0.23261880  0.65738688  1
  B  B3  1  0.23261880  0.65738688  0.23261880  1
  B  B4  1  0.76738120  0.34261312  0.76738120  1
  B  B5  1  0.34261312  0.76738120  0.76738120  1
loop_
_geom_bond_atom_site_label_1
_geom_bond_atom_site_label_2
_geom_bond_distance
_geom_bond_site_symmetry_2
Ni0 Sr0 3.259724 1_556
Ni0 Sr0 3.259724 1_656
Ni1 Sr0 3.116305 1_555
Ni2 Sr0 3.259723 1_665
Ni2 Sr0 3.259724 1_655
Ni3 Sr0 3.116305 1_555
Ni4 Sr0 3.116305 1_666
Ni5 Sr0 3.116305 1_666
Ni6 Sr0 3.116304 1_666
Ni7 Sr0 3.259723 1_556
Ni7 Sr0 3.259724 1_566
Ni8 Sr0 3.259724 1_665
Ni8 Sr0 3.259724 1_565
Ni9 Sr0 3.259724 1_656
Ni9 Sr0 3.259724 1_655
Ni10 Sr0 3.116304 1_555
Ni11 Sr0 3.259724 1_565
Ni11 Sr0 3.259724 1_566
B0 Ni11 2.020805 1_655
B0 Ni9 2.020805 1_565
B0 Ni4 2.048627 1_555
B0 Ni5 2.048627 1_555
B0 Ni10 2.058302 1_555
B0 Ni8 2.102357 1_555
B0 Ni2 2.102357 1_555
B0 Sr0 3.174283 1_665
B1 Ni8 2.020805 1_545
B1 Ni0 2.020805 1_554
B1 Ni1 2.048627 1_555
B1 Ni10 2.048627 1_555
B1 Ni4 2.058302 1_555
B1 Ni2 2.102356 1_555
B1 Ni9 2.102357 1_555
B1 Sr0 3.174283 1_655
B2 Ni9 2.020805 1_455
B2 Ni11 2.020805 1_545
B2 Ni3 2.048627 1_555
B2 Ni1 2.048627 1_555
B2 Ni6 2.058302 1_555
B2 Ni0 2.102357 1_555
B2 Ni7 2.102357 1_555
B2 Sr0 3.174283 1_556
B3 Ni2 2.020805 1_455
B3 Ni7 2.020805 1_554
B3 Ni3 2.048627 1_555
B3 Ni10 2.048627 1_555
B3 Ni5 2.058302 1_555
B3 Ni8 2.102356 1_555
B3 Ni11 2.102357 1_555
B3 Sr0 3.174283 1_565
B4 Ni7 2.020805 1_655
B4 Ni2 2.020805 1_556
B4 Ni4 2.048627 1_555
B4 Ni6 2.048627 1_555
B4 Ni1 2.058302 1_555
B4 Ni0 2.102356 1_555
B4 Ni9 2.102357 1_555
B4 Sr0 3.174283 1_656
B5 Ni0 2.020805 1_565
B5 Ni8 2.020805 1_556
B5 Ni5 2.048627 1_555
B5 Ni6 2.048627 1_555
B5 Ni3 2.058302 1_555
B5 Ni7 2.102356 1_555
B5 Ni11 2.102357 1_555
B5 Sr0 3.174283 1_566
