# generated using pymatgen
data_Hf9PW4
_symmetry_space_group_name_H-M   'P 1'
_cell_length_a   8.66119100
_cell_length_b   8.66591783
_cell_length_c   8.66591783
_cell_angle_alpha   120.07403901
_cell_angle_beta   90.00000000
_cell_angle_gamma   90.00000000
_symmetry_Int_Tables_number   1
_chemical_formula_structural   Hf9PW4
_chemical_formula_sum   'Hf18 P2 W8'
_cell_volume   562.87619900
_cell_formula_units_Z   2
loop_
 _symmetry_equiv_pos_site_id
 _symmetry_equiv_pos_as_xyz
  1  'x, y, z'
loop_
 _atom_site_type_symbol
 _atom_site_label
 _atom_site_symmetry_multiplicity
 _atom_site_fract_x
 _atom_site_fract_y
 _atom_site_fract_z
 _atom_site_occupancy
  Hf  Hf0  1  0.54859500  0.80312900  0.60619400  1
  Hf  Hf1  1  0.54866800  0.80293900  0.19706100  1
  Hf  Hf2  1  0.54859500  0.39380600  0.19687100  1
  Hf  Hf3  1  0.45140500  0.19687100  0.39380600  1
  Hf  Hf4  1  0.45133200  0.19706100  0.80293900  1
  Hf  Hf5  1  0.45140500  0.60619400  0.80312900  1
  Hf  Hf6  1  0.04859500  0.19687100  0.39380600  1
  Hf  Hf7  1  0.04866800  0.19706100  0.80293900  1
  Hf  Hf8  1  0.04859500  0.60619400  0.80312900  1
  Hf  Hf9  1  0.95140500  0.80312900  0.60619400  1
  Hf  Hf10  1  0.95133200  0.80293900  0.19706100  1
  Hf  Hf11  1  0.95140500  0.39380600  0.19687100  1
  Hf  Hf12  1  0.75000000  0.46067700  0.92150600  1
  Hf  Hf13  1  0.75000000  0.46080600  0.53919400  1
  Hf  Hf14  1  0.75000000  0.07849400  0.53932300  1
  Hf  Hf15  1  0.25000000  0.53932300  0.07849400  1
  Hf  Hf16  1  0.25000000  0.53919400  0.46080600  1
  Hf  Hf17  1  0.25000000  0.92150600  0.46067700  1
  P  P0  1  0.75000000  0.66666600  0.33333400  1
  P  P1  1  0.25000000  0.33333400  0.66666600  1
  W  W0  1  0.75000000  0.11044200  0.22109100  1
  W  W1  1  0.75000000  0.11063900  0.88936100  1
  W  W2  1  0.75000000  0.77890900  0.88955800  1
  W  W3  1  0.25000000  0.88955800  0.77890900  1
  W  W4  1  0.25000000  0.88936100  0.11063900  1
  W  W5  1  0.25000000  0.22109100  0.11044200  1
  W  W6  1  0.50000000  0.00000000  0.00000000  1
  W  W7  1  0.00000000  0.00000000  0.00000000  1
loop_
_geom_bond_atom_site_label_1
_geom_bond_atom_site_label_2
_geom_bond_distance
_geom_bond_site_symmetry_2
Hf0 P0 2.688891 1_555
Hf0 W3 2.892408 1_555
Hf0 W6 2.983113 1_566
Hf0 W1 3.100343 1_565
Hf0 W2 3.103801 1_555
Hf1 P0 2.688431 1_555
Hf1 W4 2.894057 1_555
Hf1 W6 2.988825 1_565
Hf1 W2 3.103077 1_554
Hf1 W0 3.103077 1_565
Hf2 P0 2.688891 1_555
Hf2 W5 2.892408 1_555
Hf2 W6 2.983113 1_555
Hf2 W1 3.100343 1_554
Hf2 W0 3.103801 1_555
Hf3 P1 2.688891 1_555
Hf3 W0 2.892408 1_555
Hf3 W6 2.983113 1_555
Hf3 W4 3.100343 1_545
Hf3 W5 3.103801 1_555
Hf4 P1 2.688431 1_555
Hf4 W1 2.894057 1_555
Hf4 W6 2.988825 1_556
Hf4 W3 3.103077 1_545
Hf4 W5 3.103077 1_556
Hf5 P1 2.688891 1_555
Hf5 W2 2.892408 1_555
Hf5 W6 2.983113 1_566
Hf5 W4 3.100343 1_556
Hf5 W3 3.103801 1_555
Hf6 P1 2.688891 1_555
Hf6 W0 2.892408 1_455
Hf6 W7 2.983113 1_555
Hf6 W4 3.100343 1_545
Hf6 W5 3.103801 1_555
Hf7 P1 2.688431 1_555
Hf7 W1 2.894057 1_455
Hf7 W7 2.988825 1_556
Hf7 W3 3.103077 1_545
Hf7 W5 3.103077 1_556
Hf8 P1 2.688891 1_555
Hf8 W2 2.892408 1_455
Hf8 W7 2.983113 1_566
Hf8 W4 3.100343 1_556
Hf8 W3 3.103801 1_555
Hf9 P0 2.688891 1_555
Hf9 W3 2.892408 1_655
Hf9 W7 2.983113 1_666
Hf9 W1 3.100343 1_565
Hf9 W2 3.103801 1_555
Hf10 P0 2.688431 1_555
Hf10 W4 2.894057 1_655
Hf10 W7 2.988825 1_665
Hf10 W2 3.103077 1_554
Hf10 W0 3.103077 1_565
Hf11 P0 2.688891 1_555
Hf11 W5 2.892408 1_655
Hf11 W7 2.983113 1_655
Hf11 W1 3.100343 1_554
Hf11 W0 3.103801 1_555
Hf12 W1 2.903829 1_555
Hf12 W2 2.906403 1_555
Hf12 P0 3.088423 1_556
Hf13 W2 2.903319 1_555
Hf13 W0 2.903319 1_555
Hf13 P0 3.091071 1_555
Hf14 W1 2.903829 1_555
Hf14 W0 2.906403 1_555
Hf14 P0 3.088423 1_545
Hf15 W4 2.903829 1_555
Hf15 W5 2.906403 1_555
Hf15 P1 3.088423 1_554
Hf16 W3 2.903319 1_555
Hf16 W5 2.903319 1_555
Hf16 P1 3.091071 1_555
Hf17 W4 2.903829 1_555
Hf17 W3 2.906403 1_555
Hf17 P1 3.088423 1_565
W0 W7 2.727193 1_655
W0 W6 2.727193 1_555
W0 W2 2.869822 1_544
W0 W1 2.875601 1_554
W1 W6 2.729175 1_556
W1 W7 2.729175 1_656
W1 W2 2.875601 1_545
W2 W6 2.727193 1_566
W2 W7 2.727193 1_666
W3 W7 2.727193 1_566
W3 W6 2.727193 1_566
W3 W5 2.869822 1_566
W3 W4 2.875601 1_556
W4 W6 2.729175 1_565
W4 W7 2.729175 1_565
W4 W5 2.875601 1_565
W5 W6 2.727193 1_555
W5 W7 2.727193 1_555
