# generated using pymatgen
data_Li4Cr3Co3(SnO8)2
_symmetry_space_group_name_H-M   'P 1'
_cell_length_a   5.90686269
_cell_length_b   5.90686269
_cell_length_c   9.70931597
_cell_angle_alpha   89.31753480
_cell_angle_beta   89.31753480
_cell_angle_gamma   60.49448204
_symmetry_Int_Tables_number   1
_chemical_formula_structural   Li4Cr3Co3(SnO8)2
_chemical_formula_sum   'Li4 Cr3 Co3 Sn2 O16'
_cell_volume   294.80456799
_cell_formula_units_Z   1
loop_
 _symmetry_equiv_pos_site_id
 _symmetry_equiv_pos_as_xyz
  1  'x, y, z'
loop_
 _atom_site_type_symbol
 _atom_site_label
 _atom_site_symmetry_multiplicity
 _atom_site_fract_x
 _atom_site_fract_y
 _atom_site_fract_z
 _atom_site_occupancy
  Li  Li0  1  0.67034400  0.67034400  0.89524600  1
  Li  Li1  1  0.99773000  0.99773000  0.99409500  1
  Li  Li2  1  0.99803300  0.99803300  0.49408800  1
  Li  Li3  1  0.33694000  0.33694000  0.39541700  1
  Cr  Cr0  1  0.83041500  0.34014700  0.21466400  1
  Cr  Cr1  1  0.34014700  0.83041500  0.21466400  1
  Cr  Cr2  1  0.17148400  0.17148400  0.71415800  1
  Co  Co0  1  0.83137200  0.83137200  0.21498300  1
  Co  Co1  1  0.66198700  0.16950400  0.71521200  1
  Co  Co2  1  0.16950400  0.66198700  0.71521200  1
  Sn  Sn0  1  0.66714500  0.66714500  0.49107800  1
  Sn  Sn1  1  0.33271700  0.33271700  0.99247000  1
  O  O0  1  0.84204200  0.32065700  0.59908800  1
  O  O1  1  0.51857200  0.51857200  0.34012300  1
  O  O2  1  0.67518700  0.67518700  0.11052700  1
  O  O3  1  0.99354700  0.99354700  0.30789100  1
  O  O4  1  0.99999900  0.99999900  0.80678800  1
  O  O5  1  0.32065700  0.84204200  0.59908800  1
  O  O6  1  0.96668900  0.52882400  0.33287000  1
  O  O7  1  0.52882400  0.96668900  0.33287000  1
  O  O8  1  0.15832200  0.15832200  0.09857300  1
  O  O9  1  0.83849400  0.83849400  0.60458900  1
  O  O10  1  0.48369200  0.03715000  0.83817200  1
  O  O11  1  0.03715000  0.48369200  0.83817200  1
  O  O12  1  0.33755700  0.33755700  0.60817700  1
  O  O13  1  0.67906500  0.15612900  0.10279400  1
  O  O14  1  0.48521000  0.48521000  0.83851600  1
  O  O15  1  0.15612900  0.67906500  0.10279400  1
loop_
_geom_bond_atom_site_label_1
_geom_bond_atom_site_label_2
_geom_bond_distance
_geom_bond_site_symmetry_2
Li0 O10 1.962155 1_565
Li0 O11 1.962155 1_655
Li0 O14 1.975297 1_555
Li0 O2 2.091497 1_556
Li1 O4 1.818451 1_555
Li1 O8 1.939300 1_666
Li1 O13 1.942626 1_566
Li1 O15 1.942626 1_656
Li2 O3 1.809056 1_555
Li2 O9 1.937479 1_555
Li2 O5 1.953023 1_655
Li2 O0 1.953023 1_565
Li3 O1 1.922685 1_555
Li3 O7 2.002518 1_545
Li3 O6 2.002518 1_455
Li3 O12 2.065850 1_555
Cr0 O2 1.991642 1_555
Cr0 O3 1.993181 1_545
Cr0 O1 2.013075 1_555
Cr0 O8 2.025670 1_655
Cr0 O6 2.035532 1_555
Cr0 O13 2.041809 1_555
Cr1 O2 1.991642 1_555
Cr1 O3 1.993181 1_455
Cr1 O1 2.013075 1_555
Cr1 O8 2.025670 1_565
Cr1 O7 2.035532 1_555
Cr1 O15 2.041809 1_555
Cr2 O4 1.956585 1_445
Cr2 O12 1.970595 1_555
Cr2 O11 2.017216 1_555
Cr2 O10 2.017216 1_555
Cr2 O0 2.037355 1_455
Cr2 O5 2.037355 1_545
Co0 O3 1.895820 1_555
Co0 O2 1.900997 1_555
Co0 O6 1.925822 1_555
Co0 O7 1.925822 1_555
Co0 O13 1.987307 1_565
Co0 O15 1.987307 1_655
Co1 O4 1.957396 1_545
Co1 O12 1.971526 1_555
Co1 O10 1.975979 1_555
Co1 O9 2.019641 1_545
Co1 O0 2.020484 1_555
Co1 O14 2.026465 1_555
Co2 O4 1.957396 1_455
Co2 O12 1.971526 1_555
Co2 O11 1.975979 1_555
Co2 O9 2.019641 1_455
Co2 O5 2.020484 1_555
Co2 O14 2.026465 1_555
O0 Sn0 2.061029 1_555
O1 Sn0 2.123317 1_555
O5 Sn0 2.061029 1_555
O6 Sn0 2.167708 1_555
O7 Sn0 2.167708 1_555
O8 Sn1 2.044092 1_554
O9 Sn0 2.079832 1_555
O10 Sn1 2.141171 1_555
O11 Sn1 2.141171 1_555
O13 Sn1 2.084333 1_554
O14 Sn1 2.142933 1_555
O15 Sn1 2.084333 1_554
