# generated using pymatgen
data_WO2
_symmetry_space_group_name_H-M   'P 1'
_cell_length_a   11.74684427
_cell_length_b   11.47010319
_cell_length_c   11.65482744
_cell_angle_alpha   83.52072191
_cell_angle_beta   91.02258692
_cell_angle_gamma   96.34566674
_symmetry_Int_Tables_number   1
_chemical_formula_structural   WO2
_chemical_formula_sum   'W34 O68'
_cell_volume   1550.72957791
_cell_formula_units_Z   34
loop_
 _symmetry_equiv_pos_site_id
 _symmetry_equiv_pos_as_xyz
  1  'x, y, z'
loop_
 _atom_site_type_symbol
 _atom_site_label
 _atom_site_symmetry_multiplicity
 _atom_site_fract_x
 _atom_site_fract_y
 _atom_site_fract_z
 _atom_site_occupancy
  W  W0  1  0.88775186  0.76758588  0.83441253  1
  W  W1  1  0.72000674  0.00100032  0.07084570  1
  W  W2  1  0.12210684  0.74567760  0.33123603  1
  W  W3  1  0.56245589  0.75320999  0.94102870  1
  W  W4  1  0.42372326  0.28696003  0.42095519  1
  W  W5  1  0.98003295  0.94944022  0.61321256  1
  W  W6  1  0.90401376  0.22121041  0.06048577  1
  W  W7  1  0.91735142  0.26618120  0.57511334  1
  W  W8  1  0.66557278  0.66063093  0.71689209  1
  W  W9  1  0.11541957  0.17536005  0.82438645  1
  W  W10  1  0.77689678  0.50524532  0.98244928  1
  W  W11  1  0.97665347  0.92921074  0.08268325  1
  W  W12  1  0.79760780  0.94984901  0.35107077  1
  W  W13  1  0.19951964  0.28568344  0.55907652  1
  W  W14  1  0.56308768  0.36423226  0.16335872  1
  W  W15  1  0.60054151  0.54313208  0.41887220  1
  W  W16  1  0.85866799  0.42306633  0.30367318  1
  W  W17  1  0.84041193  0.06286189  0.81176984  1
  W  W18  1  0.67216208  0.27418873  0.59484260  1
  W  W19  1  0.81170378  0.70885279  0.43294334  1
  W  W20  1  0.10593072  0.67796795  0.95507551  1
  W  W21  1  0.31167474  0.94220106  0.95148615  1
  W  W22  1  0.48864065  0.04862321  0.24782985  1
  W  W23  1  0.55255751  0.93780118  0.55355518  1
  W  W24  1  0.50096514  0.49505879  0.90052514  1
  W  W25  1  0.29644050  0.55774563  0.52401459  1
  W  W26  1  0.27383680  0.03069032  0.45981684  1
  W  W27  1  0.59779131  0.77186150  0.25342440  1
  W  W28  1  0.02127506  0.18960392  0.34716991  1
  W  W29  1  0.23658724  0.81189504  0.66902486  1
  W  W30  1  0.56034491  0.17276022  0.91379386  1
  W  W31  1  0.32168744  0.63866167  0.12426750  1
  W  W32  1  0.41264293  0.15135078  0.67294987  1
  W  W33  1  0.17540011  0.36178870  0.08100303  1
  O  O0  1  0.00794405  0.05200748  0.75093315  1
  O  O1  1  0.93583431  0.17858306  0.88440804  1
  O  O2  1  0.16330381  0.15822087  0.43172609  1
  O  O3  1  0.60272484  0.81814158  0.65654416  1
  O  O4  1  0.23917070  0.44151216  0.63954301  1
  O  O5  1  0.82915690  0.91464153  0.73775809  1
  O  O6  1  0.29076578  0.39659288  0.43543506  1
  O  O7  1  0.69192532  0.07654308  0.89286358  1
  O  O8  1  0.80154130  0.36697384  0.64594135  1
  O  O9  1  0.51950729  0.42689610  0.30381722  1
  O  O10  1  0.99749882  0.49438844  0.31058410  1
  O  O11  1  0.19330098  0.65951369  0.23766566  1
  O  O12  1  0.83758892  0.66789817  0.72143344  1
  O  O13  1  0.54723871  0.30476518  0.98799499  1
  O  O14  1  0.20353999  0.87737514  0.37842942  1
  O  O15  1  0.13626600  0.51774460  0.99702312  1
  O  O16  1  0.66329066  0.49811832  0.82795558  1
  O  O17  1  0.94265609  0.11496984  0.50900209  1
  O  O18  1  0.37763308  0.98143829  0.16150243  1
  O  O19  1  0.18262861  0.03429378  0.92069012  1
  O  O20  1  0.77894990  0.54132661  0.38045457  1
  O  O21  1  0.15247132  0.28271822  0.93102589  1
  O  O22  1  0.78553162  0.29896127  0.44621753  1
  O  O23  1  0.16373582  0.64045189  0.46151976  1
  O  O24  1  0.20872804  0.74366374  0.82428958  1
  O  O25  1  0.57291149  0.20180060  0.23560473  1
  O  O26  1  0.92780080  0.61218052  0.93370164  1
  O  O27  1  0.38778024  0.40058467  0.85153490  1
  O  O28  1  0.55219851  0.13290702  0.55757029  1
  O  O29  1  0.43672735  0.61496383  0.99501791  1
  O  O30  1  0.47905661  0.94723530  0.38591883  1
  O  O31  1  0.63352802  0.82702846  0.08155461  1
  O  O32  1  0.24400359  0.17924623  0.71459448  1
  O  O33  1  0.00586371  0.81600608  0.96329890  1
  O  O34  1  0.88718554  0.86626436  0.49320673  1
  O  O35  1  0.44426272  0.58144109  0.47400178  1
  O  O36  1  0.30409699  0.46080899  0.13706619  1
  O  O37  1  0.56729523  0.07622824  0.06470200  1
  O  O38  1  0.24081067  0.77674659  0.03245210  1
  O  O39  1  0.72882358  0.69881195  0.90412443  1
  O  O40  1  0.15127885  0.94595426  0.58612825  1
  O  O41  1  0.31995530  0.69747180  0.61073417  1
  O  O42  1  0.64885360  0.97730143  0.24021531  1
  O  O43  1  0.95701233  0.04282230  0.31267348  1
  O  O44  1  0.06558939  0.84137344  0.19518439  1
  O  O45  1  0.84445845  0.94362971  0.95967034  1
  O  O46  1  0.78584075  0.14888118  0.66838610  1
  O  O47  1  0.81702132  0.49376094  0.14752092  1
  O  O48  1  0.81025206  0.35613858  0.97125437  1
  O  O49  1  0.02234224  0.08424731  0.08367765  1
  O  O50  1  0.90054026  0.27091881  0.24132738  1
  O  O51  1  0.05903779  0.27308196  0.68029591  1
  O  O52  1  0.04775807  0.32270565  0.45970429  1
  O  O53  1  0.69706188  0.97959506  0.47230695  1
  O  O54  1  0.44209420  0.86864746  0.93736683  1
  O  O55  1  0.41634934  0.09499983  0.86221407  1
  O  O56  1  0.56190739  0.37504290  0.52571385  1
  O  O57  1  0.01793241  0.81025898  0.72576039  1
  O  O58  1  0.83816601  0.90957660  0.17743232  1
  O  O59  1  0.43614689  0.69528275  0.23010783  1
  O  O60  1  0.61723154  0.50521754  0.04302457  1
  O  O61  1  0.12346731  0.26276052  0.21348047  1
  O  O62  1  0.37981764  0.13515551  0.32720570  1
  O  O63  1  0.51297152  0.64641777  0.79685528  1
  O  O64  1  0.96511471  0.70801989  0.37247693  1
  O  O65  1  0.37623024  0.93714031  0.60217441  1
  O  O66  1  0.68396930  0.65015922  0.54512885  1
  O  O67  1  0.57045451  0.23852449  0.74428069  1
loop_
_geom_bond_atom_site_label_1
_geom_bond_atom_site_label_2
_geom_bond_distance
_geom_bond_site_symmetry_2
O0 W9 2.041705 1_555
O0 W5 2.095245 1_445
O0 W17 2.124865 1_455
O1 W17 1.904157 1_555
O1 W6 2.210058 1_556
O1 W9 2.239803 1_655
O2 W28 1.969339 1_555
O2 W26 2.056552 1_555
O2 W13 2.202534 1_555
O3 W23 1.858377 1_555
O3 W8 2.072024 1_555
O4 W25 1.863310 1_555
O4 W13 2.114200 1_555
O5 W17 1.982199 1_565
O5 W0 2.094752 1_555
O5 W5 2.283010 1_555
O6 W13 2.045420 1_555
O6 W4 2.130857 1_555
O6 W25 2.210873 1_555
O7 W17 2.028085 1_555
O7 W30 2.029242 1_555
O7 W1 2.189897 1_556
O8 W18 1.884222 1_555
O8 W7 2.114671 1_555
O9 W14 1.958398 1_555
O9 W15 2.135217 1_555
O9 W4 2.206166 1_555
O10 W16 1.746593 1_555
O11 W2 1.823173 1_555
O11 W31 2.073793 1_555
O12 W0 1.884582 1_555
O12 W8 2.013134 1_555
O13 W30 1.848219 1_555
O13 W14 2.224892 1_556
O13 W24 2.416436 1_555
O14 W2 1.829963 1_555
O14 W26 2.168322 1_565
O15 W20 1.918123 1_555
O15 W33 2.034651 1_556
O16 W24 2.094897 1_555
O16 W8 2.143952 1_555
O16 W10 2.225555 1_555
O17 W7 2.028294 1_555
O17 W28 2.160143 1_655
O17 W5 2.217558 1_545
O18 W22 1.792363 1_565
O18 W21 2.626398 1_554
O19 W21 1.947178 1_545
O19 W9 2.083756 1_555
O20 W16 2.025424 1_555
O20 W19 2.075587 1_555
O20 W15 2.153647 1_555
O21 W9 1.859608 1_555
O21 W33 2.058503 1_556
O22 W7 2.171196 1_555
O22 W18 2.177700 1_555
O22 W16 2.184337 1_555
O23 W2 1.921420 1_555
O23 W25 1.997731 1_555
O24 W29 1.907638 1_555
O24 W20 1.988659 1_555
O25 W22 1.910816 1_555
O25 W14 1.970656 1_555
O26 W10 2.089870 1_555
O26 W0 2.106703 1_555
O26 W20 2.164406 1_655
O27 W24 1.749875 1_555
O28 W18 2.105428 1_555
O28 W32 2.181749 1_555
O28 W23 2.244117 1_545
O28 W4 2.793539 1_555
O29 W24 2.067531 1_555
O29 W3 2.093308 1_555
O29 W31 2.101309 1_556
O30 W22 1.873602 1_565
O30 W23 2.118285 1_555
O31 W3 2.050423 1_554
O31 W27 2.067443 1_555
O31 W1 2.128303 1_565
O32 W9 1.990500 1_555
O32 W32 2.114643 1_555
O32 W13 2.157918 1_555
O33 W11 2.064714 1_456
O33 W20 2.085060 1_555
O33 W0 2.105577 1_455
O34 W5 2.018077 1_555
O34 W19 2.109386 1_555
O34 W12 2.138450 1_555
O35 W25 1.823436 1_555
O35 W15 2.064013 1_555
O36 W33 1.937802 1_555
O36 W31 2.016369 1_555
O37 W30 1.975193 1_554
O37 W1 2.071548 1_555
O37 W22 2.315699 1_555
O38 W20 2.095256 1_554
O38 W21 2.111783 1_554
O38 W31 2.114259 1_555
O39 W0 2.086069 1_555
O39 W3 2.180298 1_555
O39 W8 2.364644 1_555
O39 W10 2.425483 1_555
O40 W5 2.047209 1_455
O40 W29 2.067092 1_555
O40 W26 2.151257 1_565
O41 W29 1.911074 1_555
O41 W25 1.980942 1_555
O42 W1 2.134627 1_565
O42 W22 2.140491 1_565
O42 W12 2.184268 1_555
O42 W27 2.354818 1_555
O43 W28 1.851215 1_655
O43 W12 2.079556 1_545
O44 W11 1.926481 1_455
O44 W2 1.972460 1_555
O45 W17 2.079264 1_565
O45 W11 2.101914 1_556
O45 W1 2.172978 1_566
O46 W17 1.976484 1_555
O46 W7 2.156123 1_555
O46 W18 2.165425 1_555
O47 W10 1.965959 1_554
O47 W16 1.982888 1_555
O48 W10 1.815458 1_555
O48 W6 2.159283 1_556
O49 W11 1.801093 1_445
O49 W6 2.201490 1_455
O50 W16 2.074646 1_555
O50 W28 2.091258 1_655
O50 W6 2.246882 1_555
O51 W7 2.049178 1_455
O51 W9 2.053003 1_555
O51 W13 2.173590 1_555
O52 W7 2.057515 1_455
O52 W28 2.116632 1_555
O52 W13 2.163889 1_555
O53 W12 1.940460 1_555
O53 W23 1.944978 1_555
O54 W21 1.847153 1_555
O54 W3 2.037881 1_555
O55 W30 1.941462 1_555
O55 W21 2.196329 1_545
O55 W32 2.228547 1_555
O56 W18 1.936060 1_555
O56 W15 2.181432 1_555
O56 W4 2.234156 1_555
O57 W0 1.986305 1_455
O57 W5 2.032499 1_455
O58 W11 1.960515 1_555
O58 W1 2.129688 1_565
O58 W12 2.197697 1_555
O59 W31 1.918279 1_555
O59 W27 2.029195 1_555
O60 W10 2.015749 1_554
O60 W14 2.068610 1_555
O60 W24 2.136516 1_554
O61 W33 1.879075 1_555
O61 W28 2.030256 1_555
O62 W22 2.001245 1_555
O62 W26 2.166876 1_555
O62 W4 2.168506 1_555
O63 W24 1.993079 1_555
O63 W8 2.017230 1_555
O63 W3 2.221270 1_555
O64 W2 1.904530 1_655
O64 W19 1.948058 1_555
O65 W29 2.152600 1_555
O65 W23 2.156117 1_555
O65 W26 2.272263 1_565
O65 W32 2.666984 1_565
O66 W19 2.015513 1_555
O66 W8 2.035696 1_555
O66 W15 2.173256 1_555
O67 W30 2.034336 1_555
O67 W18 2.105617 1_555
O67 W32 2.202342 1_555
