# generated using pymatgen
data_Mg6BSb
_symmetry_space_group_name_H-M   'P 1'
_cell_length_a   6.56987724
_cell_length_b   6.56987724
_cell_length_c   3.88766700
_cell_angle_alpha   90.00000000
_cell_angle_beta   90.00000000
_cell_angle_gamma   97.62943442
_symmetry_Int_Tables_number   1
_chemical_formula_structural   Mg6BSb
_chemical_formula_sum   'Mg6 B1 Sb1'
_cell_volume   166.31899118
_cell_formula_units_Z   1
loop_
 _symmetry_equiv_pos_site_id
 _symmetry_equiv_pos_as_xyz
  1  'x, y, z'
loop_
 _atom_site_type_symbol
 _atom_site_label
 _atom_site_symmetry_multiplicity
 _atom_site_fract_x
 _atom_site_fract_y
 _atom_site_fract_z
 _atom_site_occupancy
  Mg  Mg0  1  0.40445100  0.11085000  0.50000000  1
  Mg  Mg1  1  0.88915000  0.59554900  0.50000000  1
  Mg  Mg2  1  0.05571800  0.28971400  0.00000000  1
  Mg  Mg3  1  0.71028600  0.94428200  0.00000000  1
  Mg  Mg4  1  0.62248800  0.37751200  0.00000000  1
  Mg  Mg5  1  0.15447100  0.84552900  0.00000000  1
  B  B0  1  0.77959200  0.22040800  0.50000000  1
  Sb  Sb0  1  0.38385000  0.61615000  0.50000000  1
loop_
_geom_bond_atom_site_label_1
_geom_bond_atom_site_label_2
_geom_bond_distance
_geom_bond_site_symmetry_2
Mg0 Sb0 3.234932 1_545
Mg0 Sb0 3.340423 1_555
Mg1 Sb0 3.234932 1_655
Mg1 Sb0 3.340423 1_555
Mg2 Sb0 3.434785 1_555
Mg2 Sb0 3.434785 1_554
Mg3 Sb0 3.434785 1_554
Mg3 Sb0 3.434785 1_555
Mg4 Sb0 3.057338 1_555
Mg4 Sb0 3.057338 1_554
Mg5 Sb0 2.987234 1_554
Mg5 Sb0 2.987234 1_555
B0 Mg0 2.474154 1_555
B0 Mg1 2.474154 1_555
B0 Mg4 2.488384 1_555
B0 Mg4 2.488384 1_556
B0 Mg2 2.656594 1_656
B0 Mg2 2.656594 1_655
B0 Mg3 2.656594 1_546
B0 Mg3 2.656594 1_545
