# generated using pymatgen
data_As2PbO8
_symmetry_space_group_name_H-M   'P 1'
_cell_length_a   5.70654760
_cell_length_b   9.10038899
_cell_length_c   8.68191901
_cell_angle_alpha   120.58686022
_cell_angle_beta   113.16302762
_cell_angle_gamma   90.11076785
_symmetry_Int_Tables_number   1
_chemical_formula_structural   As2PbO8
_chemical_formula_sum   'As4 Pb2 O16'
_cell_volume   345.01748833
_cell_formula_units_Z   2
loop_
 _symmetry_equiv_pos_site_id
 _symmetry_equiv_pos_as_xyz
  1  'x, y, z'
loop_
 _atom_site_type_symbol
 _atom_site_label
 _atom_site_symmetry_multiplicity
 _atom_site_fract_x
 _atom_site_fract_y
 _atom_site_fract_z
 _atom_site_occupancy
  As  As0  1  0.57841200  0.80146700  0.22209800  1
  As  As1  1  0.42158800  0.19853300  0.77790200  1
  As  As2  1  0.14278800  0.27630300  0.28890000  1
  As  As3  1  0.85721200  0.72369700  0.71110000  1
  Pb  Pb0  1  0.19122600  0.72592300  0.41985800  1
  Pb  Pb1  1  0.80877400  0.27407700  0.58014200  1
  O  O0  1  0.01543500  0.19588000  0.38476400  1
  O  O1  1  0.98456400  0.80412000  0.61523600  1
  O  O2  1  0.47076700  0.29979800  0.35760200  1
  O  O3  1  0.52923300  0.70020200  0.64239800  1
  O  O4  1  0.02203300  0.43851000  0.26630800  1
  O  O5  1  0.97796700  0.56149000  0.73369200  1
  O  O6  1  0.57014400  0.17229600  0.97368800  1
  O  O7  1  0.42985600  0.82770400  0.02631200  1
  O  O8  1  0.17687400  0.30251000  0.81388000  1
  O  O9  1  0.82312600  0.69749000  0.18612000  1
  O  O10  1  0.00139800  0.07731100  0.00431800  1
  O  O11  1  0.99860200  0.92268900  0.99568200  1
  O  O12  1  0.29601000  0.00277100  0.54436800  1
  O  O13  1  0.70399000  0.99722900  0.45563200  1
  O  O14  1  0.36425500  0.66170700  0.21762400  1
  O  O15  1  0.63574500  0.33829300  0.78237600  1
loop_
_geom_bond_atom_site_label_1
_geom_bond_atom_site_label_2
_geom_bond_distance
_geom_bond_site_symmetry_2
As0 O7 1.716154 1_555
As0 O13 1.724602 1_555
As0 O9 1.729315 1_555
As0 O14 1.737542 1_555
As1 O6 1.716154 1_555
As1 O12 1.724602 1_555
As1 O8 1.729315 1_555
As1 O15 1.737542 1_555
As2 O0 1.688252 1_555
As2 O4 1.698408 1_555
As2 O2 1.701442 1_555
As2 O10 1.976746 1_555
As3 O1 1.688249 1_555
As3 O5 1.698408 1_555
As3 O3 1.701442 1_555
As3 O11 1.976746 1_555
O0 Pb1 2.263409 1_455
O1 Pb0 2.263414 1_655
O2 Pb1 2.244635 1_555
O3 Pb0 2.244635 1_555
O4 Pb0 2.231532 1_555
O5 Pb1 2.231532 1_555
O8 Pb1 2.169678 1_455
O9 Pb0 2.169678 1_655
O10 O11 1.370207 1_444
O12 Pb0 2.141872 1_545
O13 Pb1 2.141872 1_565
O14 Pb0 2.172812 1_555
O15 Pb1 2.172812 1_555
