# generated using pymatgen
data_CoH32C8S4(NO5)2
_symmetry_space_group_name_H-M   'P 1'
_cell_length_a   10.71477300
_cell_length_b   10.22095300
_cell_length_c   11.91130792
_cell_angle_alpha   55.47521995
_cell_angle_beta   90.00000000
_cell_angle_gamma   90.00000000
_symmetry_Int_Tables_number   1
_chemical_formula_structural   CoH32C8S4(NO5)2
_chemical_formula_sum   'Co2 H64 C16 S8 N4 O20'
_cell_volume   1074.72754825
_cell_formula_units_Z   2
loop_
 _symmetry_equiv_pos_site_id
 _symmetry_equiv_pos_as_xyz
  1  'x, y, z'
loop_
 _atom_site_type_symbol
 _atom_site_label
 _atom_site_symmetry_multiplicity
 _atom_site_fract_x
 _atom_site_fract_y
 _atom_site_fract_z
 _atom_site_occupancy
  Co  Co0  1  0.50000000  0.00000000  0.50000000  1
  Co  Co1  1  0.00000000  0.00000000  0.00000000  1
  H  H0  1  0.66268900  0.08514100  0.29481100  1
  H  H1  1  0.83731100  0.08514100  0.79481100  1
  H  H2  1  0.33731100  0.91485900  0.70518900  1
  H  H3  1  0.16268900  0.91485900  0.20518900  1
  H  H4  1  0.53277700  0.17869600  0.23938500  1
  H  H5  1  0.96722300  0.17869600  0.73938500  1
  H  H6  1  0.46722300  0.82130400  0.76061500  1
  H  H7  1  0.03277700  0.82130400  0.26061500  1
  H  H8  1  0.53668600  0.81491400  0.41186000  1
  H  H9  1  0.96331400  0.81491400  0.91186000  1
  H  H10  1  0.46331400  0.18508600  0.58814000  1
  H  H11  1  0.03668600  0.18508600  0.08814000  1
  H  H12  1  0.39862900  0.89014400  0.36853200  1
  H  H13  1  0.10137100  0.89014400  0.86853200  1
  H  H14  1  0.60137100  0.10985600  0.63146800  1
  H  H15  1  0.89862900  0.10985600  0.13146800  1
  H  H16  1  0.49812100  0.58345100  0.73327900  1
  H  H17  1  0.00187900  0.58345100  0.23327900  1
  H  H18  1  0.50187900  0.41654900  0.26672100  1
  H  H19  1  0.99812100  0.41654900  0.76672100  1
  H  H20  1  0.40796000  0.43601700  0.73041500  1
  H  H21  1  0.09204000  0.43601700  0.23041500  1
  H  H22  1  0.59204000  0.56398300  0.26958500  1
  H  H23  1  0.90796000  0.56398300  0.76958500  1
  H  H24  1  0.42823000  0.41836000  0.88832100  1
  H  H25  1  0.07177000  0.41836000  0.38832100  1
  H  H26  1  0.57177000  0.58164000  0.11167900  1
  H  H27  1  0.92823000  0.58164000  0.61167900  1
  H  H28  1  0.63785400  0.11785500  0.91813900  1
  H  H29  1  0.86214600  0.11785500  0.41813900  1
  H  H30  1  0.36214600  0.88214500  0.08186100  1
  H  H31  1  0.13785400  0.88214500  0.58186100  1
  H  H32  1  0.50260800  0.15494400  0.98636600  1
  H  H33  1  0.99739200  0.15494400  0.48636600  1
  H  H34  1  0.49739200  0.84505600  0.01363400  1
  H  H35  1  0.00260800  0.84505600  0.51363400  1
  H  H36  1  0.49072000  0.17379400  0.82771600  1
  H  H37  1  0.00928000  0.17379400  0.32771600  1
  H  H38  1  0.50928000  0.82620600  0.17228400  1
  H  H39  1  0.99072000  0.82620600  0.67228400  1
  H  H40  1  0.58277200  0.40353900  0.62286500  1
  H  H41  1  0.91722800  0.40353900  0.12286500  1
  H  H42  1  0.41722800  0.59646100  0.37713500  1
  H  H43  1  0.08277200  0.59646100  0.87713500  1
  H  H44  1  0.67522400  0.54094500  0.63569300  1
  H  H45  1  0.82477600  0.54094500  0.13569300  1
  H  H46  1  0.32477600  0.45905500  0.36430700  1
  H  H47  1  0.17522400  0.45905500  0.86430700  1
  H  H48  1  0.73144400  0.34123100  0.70819200  1
  H  H49  1  0.76855600  0.34123100  0.20819200  1
  H  H50  1  0.26855600  0.65876900  0.29180800  1
  H  H51  1  0.23144400  0.65876900  0.79180800  1
  H  H52  1  0.75584600  0.30886200  0.92910400  1
  H  H53  1  0.74415400  0.30886200  0.42910400  1
  H  H54  1  0.24415400  0.69113800  0.07089600  1
  H  H55  1  0.25584600  0.69113800  0.57089600  1
  H  H56  1  0.69770200  0.50965600  0.84859500  1
  H  H57  1  0.80229800  0.50965600  0.34859500  1
  H  H58  1  0.30229800  0.49034400  0.15140500  1
  H  H59  1  0.19770200  0.49034400  0.65140500  1
  H  H60  1  0.62344800  0.34776300  0.99905500  1
  H  H61  1  0.87655200  0.34776300  0.49905500  1
  H  H62  1  0.37655200  0.65223700  0.00094500  1
  H  H63  1  0.12344800  0.65223700  0.50094500  1
  C  C0  1  0.47106800  0.45802300  0.79030700  1
  C  C1  1  0.02893200  0.45802300  0.29030700  1
  C  C2  1  0.52893200  0.54197700  0.20969300  1
  C  C3  1  0.97106800  0.54197700  0.70969300  1
  C  C4  1  0.55238400  0.18829800  0.89330000  1
  C  C5  1  0.94761600  0.18829800  0.39330000  1
  C  C6  1  0.44761600  0.81170200  0.10670000  1
  C  C7  1  0.05238400  0.81170200  0.60670000  1
  C  C8  1  0.64916700  0.41584200  0.68629900  1
  C  C9  1  0.85083300  0.41584200  0.18629900  1
  C  C10  1  0.35083300  0.58415800  0.31370100  1
  C  C11  1  0.14916700  0.58415800  0.81370100  1
  C  C12  1  0.67319000  0.38341500  0.90547200  1
  C  C13  1  0.82681000  0.38341500  0.40547200  1
  C  C14  1  0.32681000  0.61658500  0.09452800  1
  C  C15  1  0.17319000  0.61658500  0.59452800  1
  S  S0  1  0.70059500  0.85052100  0.61164500  1
  S  S1  1  0.79940500  0.85052100  0.11164500  1
  S  S2  1  0.29940500  0.14947900  0.38835500  1
  S  S3  1  0.20059500  0.14947900  0.88835500  1
  S  S4  1  0.71270100  0.84216300  0.78632500  1
  S  S5  1  0.78729900  0.84216300  0.28632500  1
  S  S6  1  0.28729900  0.15783700  0.21367500  1
  S  S7  1  0.21270100  0.15783700  0.71367500  1
  N  N0  1  0.58657400  0.36076600  0.81886000  1
  N  N1  1  0.91342600  0.36076600  0.31886000  1
  N  N2  1  0.41342600  0.63923400  0.18114000  1
  N  N3  1  0.08657400  0.63923400  0.68114000  1
  O  O0  1  0.82823700  0.75568700  0.85890800  1
  O  O1  1  0.67176300  0.75568700  0.35890800  1
  O  O2  1  0.17176300  0.24431300  0.14109200  1
  O  O3  1  0.32823700  0.24431300  0.64109200  1
  O  O4  1  0.59827600  0.14346800  0.31056300  1
  O  O5  1  0.90172400  0.14346800  0.81056300  1
  O  O6  1  0.40172400  0.85653200  0.68943700  1
  O  O7  1  0.09827600  0.85653200  0.18943700  1
  O  O8  1  0.46086500  0.83937100  0.44449600  1
  O  O9  1  0.03913500  0.83937100  0.94449600  1
  O  O10  1  0.53913500  0.16062900  0.55550400  1
  O  O11  1  0.96086500  0.16062900  0.05550400  1
  O  O12  1  0.71771800  0.01007800  0.74822100  1
  O  O13  1  0.78228200  0.01007800  0.24822100  1
  O  O14  1  0.28228200  0.98992200  0.25177900  1
  O  O15  1  0.21771800  0.98992200  0.75177900  1
  O  O16  1  0.59904100  0.76143400  0.86869600  1
  O  O17  1  0.90095900  0.76143400  0.36869600  1
  O  O18  1  0.40095900  0.23856600  0.13130400  1
  O  O19  1  0.09904100  0.23856600  0.63130400  1
loop_
_geom_bond_atom_site_label_1
_geom_bond_atom_site_label_2
_geom_bond_distance
_geom_bond_site_symmetry_2
Co0 O10 2.130427 1_555
Co0 O8 2.130427 1_545
Co0 O6 2.144764 1_545
Co0 O4 2.144764 1_555
Co0 S0 2.533629 1_545
Co0 S2 2.533629 1_555
Co1 O11 2.130427 1_455
Co1 O9 2.130427 1_544
Co1 O7 2.144764 1_545
Co1 O5 2.144764 1_454
Co1 S1 2.533629 1_445
Co1 S3 2.533629 1_554
H0 O4 0.996862 1_555
H0 O13 1.738165 1_555
H1 O5 0.996862 1_555
H1 O12 1.738165 1_555
H2 O6 0.996862 1_555
H2 O15 1.738165 1_555
H3 O7 0.996862 1_555
H3 O14 1.738165 1_555
H4 O4 0.997472 1_555
H5 O5 0.997472 1_555
H6 O6 0.997472 1_555
H7 O7 0.997472 1_555
H8 O8 0.991844 1_555
H9 O9 0.991844 1_655
H10 O10 0.991844 1_555
H11 O11 0.991844 1_455
H12 O8 1.000224 1_555
H12 O14 1.708948 1_555
H13 O9 1.000224 1_555
H13 O15 1.708948 1_555
H14 O10 1.000224 1_555
H14 O12 1.708948 1_555
H15 O11 1.000224 1_555
H15 O13 1.708948 1_555
C0 H20 1.094820 1_555
C0 H24 1.096148 1_555
C0 H16 1.096285 1_555
C0 N0 1.500768 1_555
C1 H21 1.094820 1_555
C1 H25 1.096148 1_555
C1 H17 1.096285 1_555
C1 N1 1.500768 1_455
C2 H22 1.094820 1_555
C2 H26 1.096148 1_555
C2 H18 1.096285 1_555
C2 N2 1.500768 1_555
C3 H23 1.094820 1_555
C3 H27 1.096148 1_555
C3 H19 1.096285 1_555
C3 N3 1.500768 1_655
C4 H36 1.095469 1_555
C4 H32 1.095971 1_555
C4 H28 1.096876 1_555
C4 N0 1.502030 1_555
C5 H37 1.095469 1_655
C5 H33 1.095971 1_555
C5 H29 1.096876 1_555
C5 N1 1.502030 1_555
C6 H38 1.095469 1_555
C6 H34 1.095971 1_555
C6 H30 1.096876 1_555
C6 N2 1.502030 1_555
C7 H39 1.095469 1_455
C7 H35 1.095971 1_555
C7 H31 1.096876 1_555
C7 N3 1.502030 1_555
C8 H40 1.095681 1_555
C8 H48 1.096047 1_555
C8 H44 1.096641 1_555
C8 N0 1.500771 1_555
C9 H41 1.095681 1_555
C9 H49 1.096047 1_555
C9 H45 1.096641 1_555
C9 N1 1.500771 1_555
C10 H42 1.095681 1_555
C10 H50 1.096047 1_555
C10 H46 1.096641 1_555
C10 N2 1.500771 1_555
C11 H43 1.095681 1_555
C11 H51 1.096047 1_555
C11 H47 1.096641 1_555
C11 N3 1.500771 1_555
C12 H60 1.094973 1_555
C12 H52 1.095950 1_555
C12 H56 1.096342 1_555
C12 N0 1.499982 1_555
C13 H61 1.094973 1_555
C13 H53 1.095950 1_555
C13 H57 1.096342 1_555
C13 N1 1.499982 1_555
C14 H62 1.094973 1_555
C14 H54 1.095950 1_555
C14 H58 1.096342 1_555
C14 N2 1.499982 1_555
C15 H63 1.094973 1_555
C15 H55 1.095950 1_555
C15 H59 1.096342 1_555
C15 N3 1.499982 1_555
S0 S4 2.037602 1_555
S1 S5 2.037602 1_555
S2 S6 2.037602 1_555
S3 S7 2.037602 1_555
O0 S4 1.481551 1_555
O1 S5 1.481551 1_555
O2 S6 1.481551 1_555
O3 S7 1.481551 1_555
O12 S4 1.507131 1_545
O13 S5 1.507131 1_545
O14 S6 1.507131 1_565
O15 S7 1.507131 1_565
O16 S4 1.486254 1_555
O17 S5 1.486254 1_555
O18 S6 1.486254 1_555
O19 S7 1.486254 1_555
