# generated using pymatgen
data_CeSi2Ru
_symmetry_space_group_name_H-M   'P 1'
_cell_length_a   4.10668427
_cell_length_b   4.46771344
_cell_length_c   8.27177992
_cell_angle_alpha   102.89070141
_cell_angle_beta   90.00000000
_cell_angle_gamma   90.00000000
_symmetry_Int_Tables_number   1
_chemical_formula_structural   CeSi2Ru
_chemical_formula_sum   'Ce2 Si4 Ru2'
_cell_volume   147.94148145
_cell_formula_units_Z   2
loop_
 _symmetry_equiv_pos_site_id
 _symmetry_equiv_pos_as_xyz
  1  'x, y, z'
loop_
 _atom_site_type_symbol
 _atom_site_label
 _atom_site_symmetry_multiplicity
 _atom_site_fract_x
 _atom_site_fract_y
 _atom_site_fract_z
 _atom_site_occupancy
  Ce  Ce0  1  0.75000000  0.59637435  0.20125467  1
  Ce  Ce1  1  0.25000000  0.40362160  0.79873194  1
  Si  Si0  1  0.75000000  0.96066899  0.90892089  1
  Si  Si1  1  0.25000000  0.03932991  0.09104689  1
  Si  Si2  1  0.75000000  0.33200916  0.50563572  1
  Si  Si3  1  0.25000000  0.66801879  0.49439959  1
  Ru  Ru0  1  0.75000000  0.88441823  0.61232385  1
  Ru  Ru1  1  0.25000000  0.11556098  0.38768644  1
loop_
_geom_bond_atom_site_label_1
_geom_bond_atom_site_label_2
_geom_bond_distance
_geom_bond_site_symmetry_2
Ce0 Si2 3.010156 1_555
Ce0 Si1 3.125483 1_665
Ce0 Si1 3.125483 1_565
Ce0 Si3 3.138816 1_655
Ce0 Si3 3.138816 1_555
Ce0 Si1 3.198230 1_555
Ce0 Si1 3.198230 1_655
Ce0 Si0 3.201920 1_554
Ce0 Ru1 3.221609 1_565
Ce0 Ru1 3.221609 1_665
Ce0 Si0 3.293849 1_544
Ce1 Si3 3.009867 1_555
Ce1 Si0 3.125406 1_445
Ce1 Si0 3.125406 1_545
Ce1 Si2 3.138524 1_555
Ce1 Si2 3.138524 1_455
Ce1 Si0 3.198223 1_555
Ce1 Si0 3.198223 1_455
Ce1 Si1 3.201776 1_556
Ce1 Ru0 3.221592 1_445
Ce1 Ru0 3.221592 1_545
Ce1 Si1 3.293774 1_566
Si0 Si1 2.524491 1_666
Si0 Si1 2.524491 1_566
Si2 Si3 2.557478 1_555
Si2 Si3 2.557478 1_655
Ru0 Si2 2.359034 1_565
Ru0 Si3 2.383620 1_655
Ru0 Si3 2.383620 1_555
Ru0 Si0 2.400467 1_555
Ru0 Si2 2.428593 1_555
Ru1 Si3 2.358947 1_545
Ru1 Si2 2.383754 1_555
Ru1 Si2 2.383754 1_455
Ru1 Si1 2.400822 1_555
Ru1 Si3 2.428825 1_555
