# generated using pymatgen
data_TcH2NO2
_symmetry_space_group_name_H-M   'P 1'
_cell_length_a   7.69434074
_cell_length_b   7.69434074
_cell_length_c   7.69434074
_cell_angle_alpha   133.24739980
_cell_angle_beta   133.24739980
_cell_angle_gamma   68.26588782
_symmetry_Int_Tables_number   1
_chemical_formula_structural   TcH2NO2
_chemical_formula_sum   'Tc4 H8 N4 O8'
_cell_volume   237.43286833
_cell_formula_units_Z   4
loop_
 _symmetry_equiv_pos_site_id
 _symmetry_equiv_pos_as_xyz
  1  'x, y, z'
loop_
 _atom_site_type_symbol
 _atom_site_label
 _atom_site_symmetry_multiplicity
 _atom_site_fract_x
 _atom_site_fract_y
 _atom_site_fract_z
 _atom_site_occupancy
  Tc  Tc0  1  0.37500000  0.12500000  0.25000000  1
  Tc  Tc1  1  0.87500000  0.12500000  0.75000000  1
  Tc  Tc2  1  0.87500000  0.12500000  0.25000000  1
  Tc  Tc3  1  0.87500000  0.62500000  0.75000000  1
  H  H0  1  0.81353600  0.54872500  0.27269800  1
  H  H1  1  0.27602700  0.54083800  0.72730200  1
  H  H2  1  0.29872500  0.52602700  0.23519000  1
  H  H3  1  0.93646400  0.70127500  0.22730200  1
  H  H4  1  0.29083800  0.06353600  0.76481000  1
  H  H5  1  0.47397300  0.70916200  0.77269800  1
  H  H6  1  0.45127500  0.72397300  0.26481000  1
  H  H7  1  0.45916200  0.18646400  0.73519000  1
  N  N0  1  0.87500000  0.62500000  0.25000000  1
  N  N1  1  0.37500000  0.62500000  0.75000000  1
  N  N2  1  0.37500000  0.62500000  0.25000000  1
  N  N3  1  0.37500000  0.12500000  0.75000000  1
  O  O0  1  0.16920900  0.34897400  0.19662200  1
  O  O1  1  0.15235100  0.97258700  0.80337800  1
  O  O2  1  0.09897400  0.40235100  0.67976500  1
  O  O3  1  0.58079100  0.90102600  0.30337800  1
  O  O4  1  0.72258700  0.41920900  0.32023500  1
  O  O5  1  0.59764900  0.27741300  0.69662200  1
  O  O6  1  0.65102600  0.84764900  0.82023500  1
  O  O7  1  0.02741300  0.83079100  0.17976500  1
loop_
_geom_bond_atom_site_label_1
_geom_bond_atom_site_label_2
_geom_bond_distance
_geom_bond_site_symmetry_2
H0 N0 1.028485 1_555
H0 O4 1.727217 1_555
H1 N1 1.028485 1_555
H1 O2 1.727222 1_555
H2 N2 1.028491 1_555
H2 O0 1.727211 1_555
H3 N0 1.028485 1_555
H3 O7 1.727217 1_655
H4 N3 1.028478 1_555
H4 O1 1.727230 1_545
H5 N1 1.028485 1_555
H5 O6 1.727222 1_555
H6 N2 1.028491 1_555
H6 O3 1.727211 1_555
H7 N3 1.028478 1_555
H7 O5 1.727230 1_555
O0 Tc0 1.924476 1_555
O0 Tc1 2.004450 1_454
O1 Tc1 1.924470 1_465
O1 Tc0 2.004450 1_566
O2 Tc2 1.924474 1_455
O2 Tc3 2.004453 1_455
O3 Tc0 1.924476 1_565
O3 Tc1 2.004450 1_565
O4 Tc3 1.924476 1_555
O4 Tc2 2.004450 1_555
O5 Tc1 1.924470 1_555
O5 Tc0 2.004450 1_555
O6 Tc2 1.924474 1_566
O6 Tc3 2.004453 1_555
O7 Tc3 1.924476 1_454
O7 Tc2 2.004450 1_465
