# generated using pymatgen
data_Nd3Zn22
_symmetry_space_group_name_H-M   'P 1'
_cell_length_a   8.78616636
_cell_length_b   8.78575507
_cell_length_c   12.21660246
_cell_angle_alpha   111.06398310
_cell_angle_beta   111.06557396
_cell_angle_gamma   89.96085280
_symmetry_Int_Tables_number   1
_chemical_formula_structural   Nd3Zn22
_chemical_formula_sum   'Nd6 Zn44'
_cell_volume   812.22081132
_cell_formula_units_Z   2
loop_
 _symmetry_equiv_pos_site_id
 _symmetry_equiv_pos_as_xyz
  1  'x, y, z'
loop_
 _atom_site_type_symbol
 _atom_site_label
 _atom_site_symmetry_multiplicity
 _atom_site_fract_x
 _atom_site_fract_y
 _atom_site_fract_z
 _atom_site_occupancy
  Nd  Nd0  1  0.49633264  0.74642235  0.99256467  1
  Nd  Nd1  1  0.74641259  0.49632245  0.49255505  1
  Nd  Nd2  1  0.50367209  0.25358066  0.00744130  1
  Nd  Nd3  1  0.25358253  0.50367296  0.50743790  1
  Nd  Nd4  1  0.12458661  0.87542507  0.25001126  1
  Nd  Nd5  1  0.87541215  0.12457546  0.74998868  1
  Zn  Zn0  1  0.42127311  0.19601989  0.37763125  1
  Zn  Zn1  1  0.42088890  0.68219273  0.37713503  1
  Zn  Zn2  1  0.19604211  0.42125540  0.87766586  1
  Zn  Zn3  1  0.19616171  0.95588489  0.87746973  1
  Zn  Zn4  1  0.95585178  0.19612869  0.37740085  1
  Zn  Zn5  1  0.95617808  0.68255872  0.37730356  1
  Zn  Zn6  1  0.68221125  0.42090876  0.87719299  1
  Zn  Zn7  1  0.68255952  0.95621452  0.87734878  1
  Zn  Zn8  1  0.57873190  0.80398973  0.62237949  1
  Zn  Zn9  1  0.57912304  0.31780887  0.62287839  1
  Zn  Zn10  1  0.80395596  0.57873761  0.12232284  1
  Zn  Zn11  1  0.80383684  0.04412098  0.12252435  1
  Zn  Zn12  1  0.04414626  0.80387597  0.62260560  1
  Zn  Zn13  1  0.04383363  0.31744130  0.62270328  1
  Zn  Zn14  1  0.31778453  0.57908741  0.12279854  1
  Zn  Zn15  1  0.31743046  0.04377931  0.12264592  1
  Zn  Zn16  1  0.14833651  0.62243574  0.74627021  1
  Zn  Zn17  1  0.62240566  0.14823997  0.24617841  1
  Zn  Zn18  1  0.62264375  0.59770902  0.24587993  1
  Zn  Zn19  1  0.59770925  0.62269754  0.74597433  1
  Zn  Zn20  1  0.85166738  0.37755870  0.25371966  1
  Zn  Zn21  1  0.37759460  0.85175367  0.75382569  1
  Zn  Zn22  1  0.37736174  0.40230362  0.75412792  1
  Zn  Zn23  1  0.40227672  0.37729857  0.25401853  1
  Zn  Zn24  1  0.48626256  0.88361462  0.26689546  1
  Zn  Zn25  1  0.88364706  0.48631345  0.76697967  1
  Zn  Zn26  1  0.88410156  0.77932392  0.76706967  1
  Zn  Zn27  1  0.77930467  0.88409171  0.26698037  1
  Zn  Zn28  1  0.51373345  0.11638973  0.73311486  1
  Zn  Zn29  1  0.11634961  0.51369099  0.23301199  1
  Zn  Zn30  1  0.11588995  0.22066727  0.23292157  1
  Zn  Zn31  1  0.22070507  0.11591293  0.73302874  1
  Zn  Zn32  1  0.83507999  0.73609142  0.97246869  1
  Zn  Zn33  1  0.73605234  0.83503545  0.47241278  1
  Zn  Zn34  1  0.73623889  0.13726729  0.47259739  1
  Zn  Zn35  1  0.13729211  0.73624984  0.97264681  1
  Zn  Zn36  1  0.16492979  0.26390934  0.02752333  1
  Zn  Zn37  1  0.26394950  0.16495924  0.52759668  1
  Zn  Zn38  1  0.26376736  0.86275219  0.52741773  1
  Zn  Zn39  1  0.86268433  0.26373771  0.02733183  1
  Zn  Zn40  1  0.50000245  0.00000073  0.49999531  1
  Zn  Zn41  1  0.00000186  0.49999302  0.00000375  1
  Zn  Zn42  1  0.00000225  0.00000236  0.00000370  1
  Zn  Zn43  1  -0.00000111  -0.00000575  0.49999762  1
loop_
_geom_bond_atom_site_label_1
_geom_bond_atom_site_label_2
_geom_bond_distance
_geom_bond_site_symmetry_2
Nd0 Zn32 3.071759 1_555
Nd0 Zn35 3.074342 1_555
Nd0 Zn27 3.159233 1_556
Nd0 Zn24 3.162560 1_556
Nd0 Zn21 3.194164 1_555
Nd0 Zn22 3.194249 1_555
Nd0 Zn10 3.252973 1_556
Nd0 Zn11 3.256115 1_566
Nd0 Zn16 3.259393 1_555
Nd0 Zn19 3.259422 1_555
Nd0 Zn15 3.259927 1_566
Nd0 Zn14 3.260744 1_556
Nd0 Zn3 3.392180 1_555
Nd0 Zn2 3.399773 1_555
Nd0 Zn7 3.402989 1_555
Nd0 Zn6 3.403467 1_555
Nd0 Zn18 3.598771 1_556
Nd0 Zn17 3.600710 1_566
Nd1 Zn33 3.071549 1_555
Nd1 Zn34 3.074183 1_555
Nd1 Zn26 3.160101 1_555
Nd1 Zn25 3.163372 1_555
Nd1 Zn20 3.194881 1_555
Nd1 Zn23 3.194937 1_555
Nd1 Zn8 3.253501 1_555
Nd1 Zn12 3.256478 1_655
Nd1 Zn17 3.260281 1_555
Nd1 Zn18 3.260338 1_555
Nd1 Zn13 3.260438 1_655
Nd1 Zn9 3.261188 1_555
Nd1 Zn4 3.392433 1_555
Nd1 Zn0 3.399634 1_555
Nd1 Zn5 3.403233 1_555
Nd1 Zn1 3.403646 1_555
Nd1 Zn19 3.599924 1_555
Nd1 Zn16 3.601886 1_655
Nd2 Zn36 3.071644 1_555
Nd2 Zn39 3.074194 1_555
Nd2 Zn31 3.159191 1_554
Nd2 Zn28 3.162479 1_554
Nd2 Zn17 3.194194 1_555
Nd2 Zn18 3.194312 1_555
Nd2 Zn2 3.253030 1_554
Nd2 Zn3 3.256121 1_544
Nd2 Zn20 3.259296 1_555
Nd2 Zn23 3.259378 1_555
Nd2 Zn7 3.259943 1_544
Nd2 Zn6 3.260800 1_554
Nd2 Zn11 3.392080 1_555
Nd2 Zn10 3.399711 1_555
Nd2 Zn15 3.403019 1_555
Nd2 Zn14 3.403424 1_555
Nd2 Zn22 3.598808 1_554
Nd2 Zn21 3.600774 1_544
Nd3 Zn37 3.071640 1_555
Nd3 Zn38 3.074313 1_555
Nd3 Zn30 3.160129 1_555
Nd3 Zn29 3.163420 1_555
Nd3 Zn16 3.194800 1_555
Nd3 Zn19 3.194886 1_555
Nd3 Zn0 3.253397 1_555
Nd3 Zn4 3.256425 1_455
Nd3 Zn5 3.260310 1_455
Nd3 Zn21 3.260335 1_555
Nd3 Zn22 3.260411 1_555
Nd3 Zn1 3.261111 1_555
Nd3 Zn12 3.392521 1_555
Nd3 Zn8 3.399736 1_555
Nd3 Zn13 3.403239 1_555
Nd3 Zn9 3.403785 1_555
Nd3 Zn23 3.599871 1_555
Nd3 Zn20 3.601849 1_455
Nd4 Zn29 3.108667 1_555
Nd4 Zn24 3.108735 1_555
Nd4 Zn27 3.113290 1_455
Nd4 Zn30 3.113396 1_565
Nd4 Zn35 3.206662 1_554
Nd4 Zn38 3.206983 1_555
Nd4 Zn32 3.207146 1_454
Nd4 Zn37 3.207567 1_565
Nd4 Zn5 3.321236 1_455
Nd4 Zn15 3.321547 1_565
Nd4 Zn1 3.324791 1_555
Nd4 Zn14 3.325209 1_555
Nd4 Zn4 3.325620 1_465
Nd4 Zn11 3.326065 1_465
Nd4 Zn0 3.330352 1_565
Nd4 Zn10 3.330484 1_455
Nd4 Zn43 3.423721 1_565
Nd4 Zn42 3.423810 1_565
Nd4 Zn40 3.430047 1_565
Nd4 Zn41 3.430214 1_555
Nd5 Zn25 3.108733 1_555
Nd5 Zn28 3.108799 1_555
Nd5 Zn31 3.113341 1_655
Nd5 Zn26 3.113434 1_545
Nd5 Zn39 3.206500 1_556
Nd5 Zn34 3.206879 1_555
Nd5 Zn36 3.207125 1_656
Nd5 Zn33 3.207514 1_545
Nd5 Zn13 3.321234 1_655
Nd5 Zn7 3.321583 1_545
Nd5 Zn9 3.324665 1_555
Nd5 Zn6 3.325165 1_555
Nd5 Zn12 3.325566 1_645
Nd5 Zn3 3.326012 1_645
Nd5 Zn8 3.330279 1_545
Nd5 Zn2 3.330456 1_655
Nd5 Zn43 3.423767 1_655
Nd5 Zn42 3.423868 1_656
Nd5 Zn40 3.430062 1_555
Nd5 Zn41 3.430172 1_656
Zn0 Zn23 2.528289 1_555
Zn0 Zn9 2.599123 1_555
Zn0 Zn40 2.604728 1_555
Zn0 Zn30 2.689976 1_555
Zn0 Zn15 2.699740 1_555
Zn0 Zn34 2.718665 1_555
Zn0 Zn17 2.726282 1_555
Zn0 Zn37 2.742625 1_555
Zn0 Zn24 2.752043 1_545
Zn1 Zn23 2.528280 1_555
Zn1 Zn8 2.599088 1_555
Zn1 Zn40 2.602387 1_565
Zn1 Zn29 2.682587 1_555
Zn1 Zn14 2.692574 1_555
Zn1 Zn33 2.718523 1_555
Zn1 Zn18 2.729547 1_555
Zn1 Zn38 2.741977 1_555
Zn1 Zn24 2.746984 1_555
Zn2 Zn22 2.528012 1_555
Zn2 Zn41 2.604768 1_556
Zn2 Zn31 2.689413 1_555
Zn2 Zn35 2.718831 1_555
Zn2 Zn36 2.741697 1_556
Zn2 Zn25 2.752128 1_455
Zn3 Zn42 2.607334 1_566
Zn3 Zn31 2.682217 1_565
Zn3 Zn35 2.718383 1_555
Zn3 Zn36 2.748452 1_566
Zn4 Zn43 2.607608 1_655
Zn6 Zn9 2.692345 1_555
Zn7 Zn8 2.699572 1_555
Zn10 Zn18 2.528119 1_555
Zn10 Zn6 2.597938 1_554
Zn10 Zn41 2.604650 1_655
Zn10 Zn27 2.689540 1_555
Zn10 Zn5 2.699689 1_555
Zn10 Zn39 2.718823 1_555
Zn10 Zn20 2.726037 1_555
Zn10 Zn32 2.741746 1_554
Zn10 Zn29 2.752087 1_655
Zn11 Zn17 2.528972 1_555
Zn11 Zn7 2.597529 1_544
Zn11 Zn42 2.607256 1_655
Zn11 Zn27 2.682355 1_545
Zn11 Zn4 2.699338 1_555
Zn11 Zn39 2.718318 1_555
Zn11 Zn20 2.733101 1_555
Zn11 Zn32 2.748527 1_544
Zn11 Zn30 2.754253 1_655
Zn12 Zn16 2.529125 1_555
Zn12 Zn5 2.598858 1_455
Zn12 Zn43 2.607589 1_565
Zn12 Zn26 2.682667 1_455
Zn12 Zn3 2.699218 1_555
Zn12 Zn38 2.718481 1_555
Zn12 Zn21 2.733284 1_555
Zn12 Zn33 2.749323 1_455
Zn12 Zn31 2.754095 1_565
Zn13 Zn16 2.530107 1_555
Zn13 Zn4 2.598848 1_455
Zn13 Zn43 2.599078 1_555
Zn13 Zn25 2.681314 1_455
Zn13 Zn2 2.699495 1_555
Zn13 Zn37 2.716223 1_555
Zn13 Zn22 2.735210 1_555
Zn13 Zn34 2.743906 1_455
Zn13 Zn31 2.751807 1_555
Zn14 Zn18 2.527994 1_555
Zn14 Zn2 2.597969 1_554
Zn14 Zn41 2.602188 1_555
Zn14 Zn24 2.682355 1_555
Zn14 Zn36 2.718599 1_555
Zn14 Zn23 2.729391 1_555
Zn14 Zn35 2.740943 1_554
Zn14 Zn29 2.746973 1_555
Zn15 Zn17 2.529945 1_555
Zn15 Zn3 2.597549 1_544
Zn15 Zn42 2.598936 1_555
Zn15 Zn24 2.680766 1_545
Zn15 Zn36 2.716392 1_555
Zn15 Zn23 2.734986 1_555
Zn15 Zn35 2.743184 1_544
Zn15 Zn30 2.751718 1_555
Zn16 Zn35 2.619647 1_555
Zn16 Zn2 2.726040 1_555
Zn16 Zn3 2.733198 1_555
Zn16 Zn26 2.742686 1_455
Zn16 Zn25 2.747176 1_455
Zn16 Zn22 2.790719 1_555
Zn16 Zn21 2.804154 1_555
Zn17 Zn34 2.619836 1_555
Zn17 Zn4 2.733266 1_555
Zn17 Zn27 2.741993 1_545
Zn17 Zn24 2.746746 1_545
Zn17 Zn23 2.790903 1_555
Zn17 Zn20 2.804266 1_555
Zn18 Zn33 2.621436 1_555
Zn18 Zn5 2.735249 1_555
Zn18 Zn24 2.750429 1_555
Zn18 Zn27 2.752310 1_555
Zn18 Zn20 2.790817 1_555
Zn18 Zn23 2.791150 1_555
Zn19 Zn9 2.528225 1_555
Zn19 Zn8 2.528240 1_555
Zn19 Zn32 2.621311 1_555
Zn19 Zn6 2.729384 1_555
Zn19 Zn7 2.734973 1_555
Zn19 Zn25 2.750768 1_555
Zn19 Zn26 2.752339 1_555
Zn19 Zn21 2.790802 1_555
Zn19 Zn22 2.791024 1_555
Zn20 Zn4 2.529182 1_555
Zn20 Zn5 2.530177 1_555
Zn20 Zn39 2.619674 1_555
Zn20 Zn30 2.742600 1_655
Zn20 Zn29 2.747150 1_655
Zn21 Zn3 2.528915 1_555
Zn21 Zn7 2.529859 1_555
Zn21 Zn38 2.619804 1_555
Zn21 Zn8 2.726264 1_555
Zn21 Zn31 2.742026 1_565
Zn21 Zn28 2.746769 1_565
Zn22 Zn6 2.527905 1_555
Zn22 Zn37 2.621489 1_555
Zn22 Zn9 2.729553 1_555
Zn22 Zn28 2.750456 1_555
Zn22 Zn31 2.752360 1_555
Zn23 Zn36 2.621230 1_555
Zn23 Zn29 2.750718 1_555
Zn23 Zn30 2.752308 1_555
Zn24 Zn27 2.574350 1_555
Zn24 Zn40 2.613314 1_565
Zn24 Zn33 2.847876 1_555
Zn24 Zn34 2.849334 1_565
Zn25 Zn26 2.573928 1_555
Zn25 Zn41 2.612611 1_656
Zn25 Zn9 2.682466 1_555
Zn25 Zn6 2.747006 1_555
Zn25 Zn32 2.847574 1_555
Zn25 Zn35 2.849007 1_655
Zn26 Zn42 2.616766 1_666
Zn26 Zn8 2.689858 1_555
Zn26 Zn7 2.751759 1_555
Zn26 Zn3 2.754351 1_655
Zn26 Zn35 2.839913 1_655
Zn26 Zn32 2.844034 1_555
Zn27 Zn43 2.617513 1_665
Zn27 Zn5 2.751833 1_555
Zn27 Zn4 2.754057 1_565
Zn27 Zn34 2.840155 1_565
Zn27 Zn33 2.844655 1_555
Zn28 Zn31 2.574224 1_555
Zn28 Zn40 2.613566 1_555
Zn28 Zn7 2.680696 1_545
Zn28 Zn6 2.682277 1_555
Zn28 Zn9 2.746988 1_555
Zn28 Zn8 2.752035 1_545
Zn28 Zn37 2.847820 1_555
Zn28 Zn38 2.849212 1_545
Zn29 Zn30 2.574043 1_555
Zn29 Zn41 2.612375 1_555
Zn29 Zn5 2.681321 1_455
Zn29 Zn36 2.847640 1_555
Zn29 Zn39 2.849209 1_455
Zn30 Zn42 2.616590 1_555
Zn30 Zn4 2.682748 1_455
Zn30 Zn39 2.840061 1_455
Zn30 Zn36 2.844138 1_555
Zn31 Zn43 2.617665 1_555
Zn31 Zn38 2.840033 1_545
Zn31 Zn37 2.844578 1_555
Zn32 Zn41 2.581208 1_656
Zn32 Zn42 2.585065 1_666
Zn32 Zn35 2.654506 1_655
Zn32 Zn7 2.716381 1_555
Zn32 Zn6 2.718675 1_555
Zn33 Zn40 2.581228 1_565
Zn33 Zn43 2.585312 1_665
Zn33 Zn34 2.654526 1_565
Zn33 Zn5 2.716298 1_555
Zn33 Zn8 2.742574 1_555
Zn34 Zn43 2.581830 1_655
Zn34 Zn40 2.582171 1_555
Zn34 Zn4 2.718454 1_555
Zn34 Zn9 2.741874 1_555
Zn35 Zn42 2.581812 1_566
Zn35 Zn41 2.582081 1_556
Zn36 Zn41 2.581085 1_555
Zn36 Zn42 2.585134 1_555
Zn36 Zn39 2.654740 1_455
Zn37 Zn40 2.581270 1_555
Zn37 Zn43 2.585301 1_555
Zn37 Zn38 2.654333 1_545
Zn37 Zn9 2.718615 1_555
Zn37 Zn4 2.749390 1_455
Zn38 Zn43 2.581747 1_565
Zn38 Zn40 2.582255 1_565
Zn38 Zn8 2.718678 1_555
Zn38 Zn5 2.743939 1_455
Zn39 Zn42 2.581819 1_655
Zn39 Zn41 2.581986 1_655
Zn39 Zn6 2.740841 1_554
Zn39 Zn7 2.743082 1_544
Zn40 Zn9 2.602418 1_555
Zn40 Zn8 2.604842 1_545
Zn41 Zn6 2.602261 1_454
Zn42 Zn7 2.599062 1_444
Zn43 Zn5 2.598978 1_445
