# generated using pymatgen
data_CsCd13
_symmetry_space_group_name_H-M   'P 1'
_cell_length_a   9.87143184
_cell_length_b   9.87143252
_cell_length_c   9.87143245
_cell_angle_alpha   60.00000020
_cell_angle_beta   59.99999793
_cell_angle_gamma   60.00000087
_symmetry_Int_Tables_number   1
_chemical_formula_structural   CsCd13
_chemical_formula_sum   'Cs2 Cd26'
_cell_volume   680.18258663
_cell_formula_units_Z   2
loop_
 _symmetry_equiv_pos_site_id
 _symmetry_equiv_pos_as_xyz
  1  'x, y, z'
loop_
 _atom_site_type_symbol
 _atom_site_label
 _atom_site_symmetry_multiplicity
 _atom_site_fract_x
 _atom_site_fract_y
 _atom_site_fract_z
 _atom_site_occupancy
  Cs  Cs0  1  0.75000000  0.75000000  0.75000000  1
  Cs  Cs1  1  0.25000000  0.25000000  0.25000000  1
  Cd  Cd0  1  0.50000000  0.50000000  0.50000000  1
  Cd  Cd1  1  0.00000000  -0.00000000  0.00000000  1
  Cd  Cd2  1  0.19946591  0.80053409  0.44121493  1
  Cd  Cd3  1  0.69946591  0.05878507  0.94121493  1
  Cd  Cd4  1  0.94121493  0.30053409  0.69946591  1
  Cd  Cd5  1  0.69946591  0.94121493  0.30053409  1
  Cd  Cd6  1  0.05878507  0.30053409  0.94121493  1
  Cd  Cd7  1  0.05878507  0.94121493  0.69946591  1
  Cd  Cd8  1  0.94121493  0.05878507  0.30053409  1
  Cd  Cd9  1  0.44121493  0.19946591  0.80053409  1
  Cd  Cd10  1  0.80053409  0.44121493  0.19946591  1
  Cd  Cd11  1  0.55878507  0.19946591  0.44121493  1
  Cd  Cd12  1  0.80053409  0.55878507  0.44121493  1
  Cd  Cd13  1  0.55878507  0.80053409  0.19946591  1
  Cd  Cd14  1  0.44121493  0.80053409  0.55878507  1
  Cd  Cd15  1  0.19946591  0.44121493  0.55878507  1
  Cd  Cd16  1  0.19946591  0.55878507  0.80053409  1
  Cd  Cd17  1  0.94121493  0.69946591  0.05878507  1
  Cd  Cd18  1  0.30053409  0.94121493  0.05878507  1
  Cd  Cd19  1  0.30053409  0.69946591  0.94121493  1
  Cd  Cd20  1  0.69946591  0.30053409  0.05878507  1
  Cd  Cd21  1  0.05878507  0.69946591  0.30053409  1
  Cd  Cd22  1  0.30053409  0.05878507  0.69946591  1
  Cd  Cd23  1  0.44121493  0.55878507  0.19946591  1
  Cd  Cd24  1  0.55878507  0.44121493  0.80053409  1
  Cd  Cd25  1  0.80053409  0.19946591  0.55878507  1
loop_
_geom_bond_atom_site_label_1
_geom_bond_atom_site_label_2
_geom_bond_distance
_geom_bond_site_symmetry_2
Cd0 Cd12 3.022922 1_555
Cd0 Cd15 3.022922 1_555
Cd0 Cd16 3.022922 1_555
Cd0 Cd10 3.022922 1_555
Cd0 Cd2 3.022922 1_555
Cd0 Cd25 3.022922 1_555
Cd0 Cd9 3.022922 1_555
Cd0 Cd13 3.022922 1_555
Cd0 Cd24 3.022922 1_555
Cd0 Cd23 3.022922 1_555
Cd0 Cd11 3.022923 1_555
Cd0 Cd14 3.022923 1_555
Cd1 Cd5 3.022922 1_445
Cd1 Cd22 3.022922 1_554
Cd1 Cd3 3.022922 1_454
Cd1 Cd18 3.022922 1_545
Cd1 Cd20 3.022922 1_455
Cd1 Cd19 3.022922 1_544
Cd1 Cd17 3.022922 1_445
Cd1 Cd6 3.022922 1_554
Cd1 Cd8 3.022922 1_455
Cd1 Cd7 3.022922 1_544
Cd1 Cd4 3.022923 1_454
Cd1 Cd21 3.022923 1_545
Cd2 Cd8 2.903018 1_465
Cd2 Cd7 2.903018 1_555
Cd2 Cd21 3.090638 1_555
Cd2 Cd23 3.374892 1_555
Cd2 Cs0 4.049000 1_455
Cd2 Cs1 4.049000 1_565
Cd3 Cd9 2.903018 1_555
Cd3 Cd7 3.132338 1_645
Cd3 Cd5 3.132338 1_546
Cd3 Cd4 3.374892 1_555
Cd3 Cs1 4.049000 1_556
Cd3 Cs0 4.049000 1_545
Cd4 Cd6 3.132338 1_655
Cd4 Cd7 3.132338 1_645
Cd4 Cs1 4.049000 1_655
Cd4 Cs0 4.049000 1_555
Cd5 Cd8 3.132338 1_565
Cd5 Cs1 4.049000 1_565
Cd5 Cs0 4.049000 1_555
Cd6 Cd9 3.090638 1_555
Cd6 Cd8 3.132338 1_456
Cd6 Cs1 4.049000 1_556
Cd6 Cs0 4.049000 1_455
Cd7 Cs0 4.049000 1_455
Cd7 Cs1 4.049000 1_565
Cd8 Cs1 4.049000 1_655
Cd8 Cs0 4.049000 1_545
Cd9 Cs1 4.049000 1_556
Cd9 Cs0 4.049000 1_545
Cd10 Cd6 2.903018 1_654
Cd10 Cd17 2.903018 1_555
Cd10 Cd20 3.090638 1_555
Cd10 Cd8 3.090638 1_555
Cd10 Cd23 3.132338 1_555
Cd10 Cd12 3.132338 1_555
Cd10 Cd25 3.132338 1_555
Cd10 Cd13 3.132338 1_555
Cd10 Cd11 3.374892 1_555
Cd10 Cs1 4.049000 1_655
Cd10 Cs0 4.049000 1_554
Cd11 Cd22 2.903018 1_555
Cd11 Cd5 2.903018 1_545
Cd11 Cd8 3.090638 1_555
Cd11 Cd20 3.090638 1_555
Cd11 Cd15 3.132338 1_555
Cd11 Cd25 3.132338 1_555
Cd11 Cd9 3.132338 1_555
Cd11 Cd23 3.132338 1_555
Cd11 Cs1 4.049000 1_555
Cd11 Cs0 4.049000 1_545
Cd12 Cd21 2.903018 1_655
Cd12 Cd4 2.903018 1_555
Cd12 Cd17 3.090638 1_555
Cd12 Cd5 3.090638 1_555
Cd12 Cd24 3.132338 1_555
Cd12 Cd14 3.132338 1_555
Cd12 Cd25 3.132338 1_555
Cd12 Cd13 3.374892 1_555
Cd12 Cs1 4.049000 1_655
Cd12 Cs0 4.049000 1_555
Cd13 Cd18 2.903018 1_555
Cd13 Cd3 2.903018 1_564
Cd13 Cd17 3.090638 1_555
Cd13 Cd5 3.090638 1_555
Cd13 Cd2 3.132338 1_555
Cd13 Cd23 3.132338 1_555
Cd13 Cd14 3.132338 1_555
Cd13 Cs0 4.049000 1_554
Cd13 Cs1 4.049000 1_565
Cd14 Cd5 2.903018 1_555
Cd14 Cd22 2.903018 1_565
Cd14 Cd7 3.090638 1_555
Cd14 Cd19 3.090638 1_555
Cd14 Cd2 3.132338 1_555
Cd14 Cd24 3.132338 1_555
Cd14 Cd16 3.374892 1_555
Cd14 Cs0 4.049000 1_555
Cd14 Cs1 4.049000 1_565
Cd15 Cd4 2.903018 1_455
Cd15 Cd21 2.903018 1_555
Cd15 Cd6 3.090638 1_555
Cd15 Cd22 3.090638 1_555
Cd15 Cd23 3.132338 1_555
Cd15 Cd16 3.132338 1_555
Cd15 Cd2 3.132338 1_555
Cd15 Cd9 3.374892 1_555
Cd15 Cs0 4.049000 1_455
Cd15 Cs1 4.049000 1_555
Cd16 Cd17 2.903018 1_456
Cd16 Cd6 2.903018 1_555
Cd16 Cd19 3.090638 1_555
Cd16 Cd7 3.090638 1_555
Cd16 Cd24 3.132338 1_555
Cd16 Cd2 3.132338 1_555
Cd16 Cd9 3.132338 1_555
Cd16 Cs0 4.049000 1_455
Cd16 Cs1 4.049000 1_556
Cd17 Cd19 3.132338 1_654
Cd17 Cd7 3.132338 1_654
Cd17 Cd21 3.132338 1_655
Cd17 Cd3 3.132338 1_564
Cd17 Cd5 3.374892 1_555
Cd17 Cs0 4.049000 1_554
Cd17 Cs1 4.049000 1_655
Cd18 Cd9 2.903018 1_564
Cd18 Cd2 3.090638 1_555
Cd18 Cd23 3.090638 1_555
Cd18 Cd8 3.132338 1_465
Cd18 Cd22 3.132338 1_564
Cd18 Cd19 3.132338 1_554
Cd18 Cd6 3.132338 1_564
Cd18 Cd21 3.374892 1_555
Cd18 Cs0 4.049000 1_554
Cd18 Cs1 4.049000 1_565
Cd19 Cd24 2.903018 1_555
Cd19 Cd23 2.903018 1_556
Cd19 Cd21 3.132338 1_556
Cd19 Cd22 3.132338 1_565
Cd19 Cd7 3.374892 1_555
Cd19 Cs0 4.049000 1_555
Cd19 Cs1 4.049000 1_556
Cd20 Cd23 2.903018 1_555
Cd20 Cd24 2.903018 1_554
Cd20 Cd6 3.132338 1_654
Cd20 Cd4 3.132338 1_554
Cd20 Cd3 3.132338 1_554
Cd20 Cd5 3.132338 1_545
Cd20 Cd8 3.374892 1_555
Cd20 Cs1 4.049000 1_555
Cd20 Cs0 4.049000 1_554
Cd21 Cd23 3.090638 1_555
Cd21 Cd5 3.132338 1_455
Cd21 Cd8 3.132338 1_465
Cd21 Cs0 4.049000 1_455
Cd21 Cs1 4.049000 1_555
Cd22 Cd9 3.090638 1_555
Cd22 Cd7 3.132338 1_545
Cd22 Cd4 3.132338 1_455
Cd22 Cd6 3.374892 1_555
Cd22 Cs0 4.049000 1_545
Cd22 Cs1 4.049000 1_555
Cd23 Cs0 4.049000 1_554
Cd23 Cs1 4.049000 1_555
Cd24 Cd4 3.090638 1_555
Cd24 Cd3 3.090638 1_555
Cd24 Cd9 3.132338 1_555
Cd24 Cd25 3.374892 1_555
Cd24 Cs1 4.049000 1_556
Cd24 Cs0 4.049000 1_555
Cd25 Cd7 2.903018 1_645
Cd25 Cd8 2.903018 1_555
Cd25 Cd4 3.090638 1_555
Cd25 Cd3 3.090638 1_555
Cd25 Cd9 3.132338 1_555
Cd25 Cs1 4.049000 1_655
Cd25 Cs0 4.049000 1_545
