# generated using pymatgen
data_Ba6Pr2Ga4O15
_symmetry_space_group_name_H-M   'P 1'
_cell_length_a   6.12313900
_cell_length_b   8.18290181
_cell_length_c   18.90739103
_cell_angle_alpha   91.02542003
_cell_angle_beta   90.00000000
_cell_angle_gamma   90.00000000
_symmetry_Int_Tables_number   1
_chemical_formula_structural   Ba6Pr2Ga4O15
_chemical_formula_sum   'Ba12 Pr4 Ga8 O30'
_cell_volume   947.20396681
_cell_formula_units_Z   2
loop_
 _symmetry_equiv_pos_site_id
 _symmetry_equiv_pos_as_xyz
  1  'x, y, z'
loop_
 _atom_site_type_symbol
 _atom_site_label
 _atom_site_symmetry_multiplicity
 _atom_site_fract_x
 _atom_site_fract_y
 _atom_site_fract_z
 _atom_site_occupancy
  Ba  Ba0  1  0.75597500  0.50008900  0.41999400  1
  Ba  Ba1  1  0.24402500  0.49991100  0.58000600  1
  Ba  Ba2  1  0.75597500  0.49991100  0.08000600  1
  Ba  Ba3  1  0.24402500  0.50008900  0.91999400  1
  Ba  Ba4  1  0.73961200  0.96532600  0.40748700  1
  Ba  Ba5  1  0.26038800  0.03467400  0.59251300  1
  Ba  Ba6  1  0.73961200  0.03467400  0.09251300  1
  Ba  Ba7  1  0.26038800  0.96532600  0.90748700  1
  Ba  Ba8  1  0.72691200  0.00000000  0.75000000  1
  Ba  Ba9  1  0.27308800  0.00000000  0.25000000  1
  Ba  Ba10  1  0.66332200  0.50000000  0.75000000  1
  Ba  Ba11  1  0.33667800  0.50000000  0.25000000  1
  Pr  Pr0  1  0.74660500  0.75421000  0.59030000  1
  Pr  Pr1  1  0.25339500  0.24579000  0.40970000  1
  Pr  Pr2  1  0.74660500  0.24579000  0.90970000  1
  Pr  Pr3  1  0.25339500  0.75421000  0.09030000  1
  Ga  Ga0  1  0.75293800  0.75365300  0.93865100  1
  Ga  Ga1  1  0.24706200  0.24634700  0.06134900  1
  Ga  Ga2  1  0.75293800  0.24634700  0.56134900  1
  Ga  Ga3  1  0.24706200  0.75365300  0.43865100  1
  Ga  Ga4  1  0.77842600  0.77160400  0.23656000  1
  Ga  Ga5  1  0.22157400  0.22839600  0.76344000  1
  Ga  Ga6  1  0.77842600  0.22839600  0.26344000  1
  Ga  Ga7  1  0.22157400  0.77160400  0.73656000  1
  O  O0  1  0.21021900  0.00000000  0.75000000  1
  O  O1  1  0.78978100  0.00000000  0.25000000  1
  O  O2  1  0.49665700  0.76595700  0.49673900  1
  O  O3  1  0.50334300  0.23404300  0.50326100  1
  O  O4  1  0.49665700  0.23404300  0.00326100  1
  O  O5  1  0.50334300  0.76595700  0.99673900  1
  O  O6  1  0.76251400  0.94851400  0.88796000  1
  O  O7  1  0.23748600  0.05148600  0.11204000  1
  O  O8  1  0.76251400  0.05148600  0.61204000  1
  O  O9  1  0.23748600  0.94851400  0.38796000  1
  O  O10  1  0.00237800  0.76300700  0.49963900  1
  O  O11  1  0.99762200  0.23699300  0.50036100  1
  O  O12  1  0.00237800  0.23699300  0.00036100  1
  O  O13  1  0.99762200  0.76300700  0.99963900  1
  O  O14  1  0.32472700  0.69418500  0.82037300  1
  O  O15  1  0.67527300  0.30581500  0.17962700  1
  O  O16  1  0.32472700  0.30581500  0.67962700  1
  O  O17  1  0.67527300  0.69418500  0.32037300  1
  O  O18  1  0.43475700  0.74434000  0.66527100  1
  O  O19  1  0.56524300  0.25566000  0.33472900  1
  O  O20  1  0.43475700  0.25566000  0.83472900  1
  O  O21  1  0.56524300  0.74434000  0.16527100  1
  O  O22  1  0.94983800  0.72550700  0.69812300  1
  O  O23  1  0.05016200  0.27449300  0.30187700  1
  O  O24  1  0.94983800  0.27449300  0.80187700  1
  O  O25  1  0.05016200  0.72550700  0.19812300  1
  O  O26  1  0.75890400  0.53750900  0.90457300  1
  O  O27  1  0.24109600  0.46249100  0.09542700  1
  O  O28  1  0.75890400  0.46249100  0.59542700  1
  O  O29  1  0.24109600  0.53750900  0.40457300  1
loop_
_geom_bond_atom_site_label_1
_geom_bond_atom_site_label_2
_geom_bond_distance
_geom_bond_site_symmetry_2
Ba0 O17 2.534108 1_555
Ba0 O19 2.801441 1_555
Ba0 O29 3.000937 1_655
Ba0 O10 3.009440 1_655
Ba0 O2 3.040871 1_555
Ba0 O11 3.041434 1_555
Ba0 O3 3.119879 1_555
Ba0 O29 3.181404 1_555
Ba0 O28 3.336744 1_555
Ba0 O23 3.390085 1_655
Ba1 O16 2.534108 1_555
Ba1 O18 2.801441 1_555
Ba1 O28 3.000937 1_455
Ba1 O11 3.009440 1_455
Ba1 O3 3.040871 1_555
Ba1 O10 3.041434 1_555
Ba1 O2 3.119879 1_555
Ba1 O28 3.181404 1_555
Ba1 O29 3.336744 1_555
Ba1 O22 3.390085 1_455
Ba2 O15 2.534108 1_555
Ba2 O21 2.801441 1_555
Ba2 O27 3.000937 1_655
Ba2 O12 3.009440 1_655
Ba2 O4 3.040871 1_555
Ba2 O13 3.041434 1_554
Ba2 O5 3.119879 1_554
Ba2 O27 3.181404 1_555
Ba2 O26 3.336744 1_554
Ba2 O25 3.390085 1_655
Ba3 O14 2.534108 1_555
Ba3 O20 2.801441 1_555
Ba3 O26 3.000937 1_455
Ba3 O13 3.009440 1_455
Ba3 O5 3.040871 1_555
Ba3 O12 3.041434 1_556
Ba3 O4 3.119879 1_556
Ba3 O26 3.181404 1_555
Ba3 O27 3.336744 1_556
Ba3 O24 3.390085 1_455
Ba4 O17 2.767680 1_555
Ba4 O2 2.796585 1_555
Ba4 O10 2.910092 1_655
Ba4 O19 2.965415 1_565
Ba4 O1 3.011913 1_565
Ba4 O9 3.073611 1_655
Ba4 O9 3.099437 1_555
Ba4 O3 3.172486 1_565
Ba4 O11 3.222039 1_565
Ba5 O16 2.767680 1_555
Ba5 O3 2.796585 1_555
Ba5 O11 2.910092 1_455
Ba5 O18 2.965415 1_545
Ba5 O0 3.011913 1_555
Ba5 O8 3.073611 1_455
Ba5 O8 3.099437 1_555
Ba5 O2 3.172486 1_545
Ba5 O10 3.222039 1_545
Ba6 O15 2.767680 1_555
Ba6 O4 2.796585 1_555
Ba6 O12 2.910092 1_655
Ba6 O21 2.965415 1_545
Ba6 O1 3.011913 1_555
Ba6 O7 3.073611 1_655
Ba6 O7 3.099437 1_555
Ba6 O5 3.172486 1_544
Ba6 O13 3.222039 1_544
Ba7 O14 2.767680 1_555
Ba7 O5 2.796585 1_555
Ba7 O13 2.910092 1_455
Ba7 O20 2.965415 1_565
Ba7 O0 3.011913 1_565
Ba7 O6 3.073611 1_455
Ba7 O6 3.099437 1_555
Ba7 O4 3.172486 1_566
Ba7 O12 3.222039 1_566
Ba8 O8 2.658653 1_555
Ba8 O6 2.658653 1_545
Ba8 O24 2.791354 1_555
Ba8 O22 2.791354 1_545
Ba8 O0 2.959356 1_655
Ba8 O0 3.163783 1_555
Ba8 O20 3.165956 1_555
Ba8 O18 3.165956 1_545
Ba9 O7 2.658653 1_555
Ba9 O9 2.658653 1_545
Ba9 O23 2.791354 1_555
Ba9 O25 2.791354 1_545
Ba9 O1 2.959356 1_455
Ba9 O1 3.163783 1_555
Ba9 O19 3.165956 1_555
Ba9 O21 3.165956 1_545
Ba10 O22 2.740410 1_555
Ba10 O24 2.740410 1_555
Ba10 O16 2.918575 1_555
Ba10 O14 2.918575 1_555
Ba10 O18 2.938946 1_555
Ba10 O20 2.938946 1_555
Ba10 O26 2.990997 1_555
Ba10 O28 2.990997 1_555
Ba11 O25 2.740410 1_555
Ba11 O23 2.740410 1_555
Ba11 O17 2.918575 1_555
Ba11 O15 2.918575 1_555
Ba11 O19 2.938946 1_555
Ba11 O21 2.938946 1_555
Ba11 O27 2.990997 1_555
Ba11 O29 2.990997 1_555
Ga0 O26 1.871884 1_555
Ga0 O6 1.875968 1_555
Ga0 O5 1.883651 1_555
Ga0 O13 1.891322 1_555
Ga1 O27 1.871884 1_555
Ga1 O7 1.875968 1_555
Ga1 O4 1.883651 1_555
Ga1 O12 1.891322 1_555
Ga2 O28 1.871884 1_555
Ga2 O8 1.875968 1_555
Ga2 O3 1.883651 1_555
Ga2 O11 1.891322 1_555
Ga3 O29 1.871884 1_555
Ga3 O9 1.875968 1_555
Ga3 O2 1.883651 1_555
Ga3 O10 1.891322 1_555
Ga4 O17 1.829601 1_555
Ga4 O25 1.851788 1_655
Ga4 O1 1.882911 1_565
Ga4 O21 1.886730 1_555
Ga5 O16 1.829601 1_555
Ga5 O24 1.851788 1_455
Ga5 O0 1.882911 1_555
Ga5 O20 1.886730 1_555
Ga6 O15 1.829601 1_555
Ga6 O23 1.851788 1_655
Ga6 O1 1.882911 1_555
Ga6 O19 1.886730 1_555
Ga7 O14 1.829601 1_555
Ga7 O22 1.851788 1_455
Ga7 O0 1.882911 1_565
Ga7 O18 1.886730 1_555
O2 Pr0 2.342433 1_555
O3 Pr1 2.342433 1_555
O4 Pr2 2.342433 1_554
O5 Pr3 2.342433 1_556
O6 Pr2 2.461728 1_565
O7 Pr3 2.461728 1_545
O8 Pr0 2.461728 1_545
O9 Pr1 2.461728 1_565
O10 Pr0 2.323947 1_455
O11 Pr1 2.323947 1_655
O12 Pr2 2.323947 1_454
O13 Pr3 2.323947 1_656
O18 Pr0 2.380355 1_555
O19 Pr1 2.380355 1_555
O20 Pr2 2.380355 1_555
O21 Pr3 2.380355 1_555
O22 Pr0 2.403538 1_555
O23 Pr1 2.403538 1_555
O24 Pr2 2.403538 1_555
O25 Pr3 2.403538 1_555
O26 Pr2 2.391994 1_555
O27 Pr3 2.391994 1_555
O28 Pr0 2.391994 1_555
O29 Pr1 2.391994 1_555
