# generated using pymatgen
data_Ag2SeO2
_symmetry_space_group_name_H-M   'P 1'
_cell_length_a   7.26509852
_cell_length_b   7.26509852
_cell_length_c   11.50677213
_cell_angle_alpha   108.18981466
_cell_angle_beta   108.18981466
_cell_angle_gamma   90.63922171
_symmetry_Int_Tables_number   1
_chemical_formula_structural   Ag2SeO2
_chemical_formula_sum   'Ag8 Se4 O8'
_cell_volume   544.17905400
_cell_formula_units_Z   4
loop_
 _symmetry_equiv_pos_site_id
 _symmetry_equiv_pos_as_xyz
  1  'x, y, z'
loop_
 _atom_site_type_symbol
 _atom_site_label
 _atom_site_symmetry_multiplicity
 _atom_site_fract_x
 _atom_site_fract_y
 _atom_site_fract_z
 _atom_site_occupancy
  Ag  Ag0  1  0.38364700  0.18694600  0.75210500  1
  Ag  Ag1  1  0.36845800  0.56515900  0.75210500  1
  Ag  Ag2  1  0.81305400  0.61635300  0.24789500  1
  Ag  Ag3  1  0.86635300  0.56305400  0.74789500  1
  Ag  Ag4  1  0.43484100  0.63154200  0.24789500  1
  Ag  Ag5  1  0.88154200  0.18484100  0.74789500  1
  Ag  Ag6  1  0.43694600  0.13364700  0.25210500  1
  Ag  Ag7  1  0.81515900  0.11845800  0.25210500  1
  Se  Se0  1  0.62500000  0.87500000  0.75000000  1
  Se  Se1  1  0.12500000  0.87500000  0.75000000  1
  Se  Se2  1  0.12500000  0.37500000  0.25000000  1
  Se  Se3  1  0.12500000  0.87500000  0.25000000  1
  O  O0  1  0.66109800  0.66400000  0.83408700  1
  O  O1  1  0.17298900  0.17008700  0.83408700  1
  O  O2  1  0.33600000  0.33890200  0.16591300  1
  O  O3  1  0.58890200  0.08600000  0.66591300  1
  O  O4  1  0.82991300  0.82701100  0.16591300  1
  O  O5  1  0.07701100  0.57991300  0.66591300  1
  O  O6  1  0.91400000  0.41109800  0.33408700  1
  O  O7  1  0.42008700  0.92298900  0.33408700  1
loop_
_geom_bond_atom_site_label_1
_geom_bond_atom_site_label_2
_geom_bond_distance
_geom_bond_site_symmetry_2
Ag0 O1 2.053417 1_555
Ag0 O3 2.058839 1_555
Ag1 O0 2.053417 1_555
Ag1 O5 2.058839 1_555
Ag2 O4 2.053417 1_555
Ag2 O6 2.058839 1_555
Ag3 O5 2.053417 1_655
Ag3 O0 2.058839 1_555
Ag4 O2 2.053417 1_555
Ag4 O7 2.058839 1_555
Ag5 O3 2.053417 1_555
Ag5 O1 2.058839 1_655
Ag6 O7 2.053417 1_545
Ag6 O2 2.058839 1_555
Ag7 O6 2.053417 1_555
Ag7 O4 2.058839 1_545
O0 Se0 2.032592 1_555
O1 Se1 2.032592 1_545
O2 Se2 2.032592 1_555
O3 Se0 2.032592 1_545
O4 Se3 2.032592 1_655
O5 Se1 2.032592 1_555
O6 Se2 2.032592 1_655
O7 Se3 2.032592 1_555
