# generated using pymatgen
data_TbTiFe11C
_symmetry_space_group_name_H-M   'P 1'
_cell_length_a   4.87244800
_cell_length_b   6.50260048
_cell_length_c   6.50260048
_cell_angle_alpha   97.80824513
_cell_angle_beta   112.00291739
_cell_angle_gamma   67.99708261
_symmetry_Int_Tables_number   1
_chemical_formula_structural   TbTiFe11C
_chemical_formula_sum   'Tb1 Ti1 Fe11 C1'
_cell_volume   177.10435341
_cell_formula_units_Z   1
loop_
 _symmetry_equiv_pos_site_id
 _symmetry_equiv_pos_as_xyz
  1  'x, y, z'
loop_
 _atom_site_type_symbol
 _atom_site_label
 _atom_site_symmetry_multiplicity
 _atom_site_fract_x
 _atom_site_fract_y
 _atom_site_fract_z
 _atom_site_occupancy
  Tb  Tb0  1  0.00686300  0.99313700  0.00686300  1
  Ti  Ti0  1  0.63415300  0.36584700  0.63415300  1
  Fe  Fe0  1  0.72430800  0.77569200  0.22430800  1
  Fe  Fe1  1  0.27759400  0.22240600  0.77759400  1
  Fe  Fe2  1  0.49781700  0.78162500  0.77725800  1
  Fe  Fe3  1  0.49781700  0.22274200  0.21837500  1
  Fe  Fe4  1  0.50017700  0.99754500  0.49907500  1
  Fe  Fe5  1  0.00135200  0.99754500  0.49907500  1
  Fe  Fe6  1  0.50017700  0.50092500  0.00245500  1
  Fe  Fe7  1  0.00135200  0.50092500  0.00245500  1
  Fe  Fe8  1  0.35699800  0.64300200  0.35699800  1
  Fe  Fe9  1  0.99988600  0.35886800  0.35864100  1
  Fe  Fe10  1  0.99988600  0.64135900  0.64113200  1
  C  C0  1  0.50161900  0.99838100  0.00161900  1
loop_
_geom_bond_atom_site_label_1
_geom_bond_atom_site_label_2
_geom_bond_distance
_geom_bond_site_symmetry_2
Tb0 Ti0 3.169483 1_464
Fe0 Fe5 2.459116 1_655
Fe0 Fe7 2.459116 1_655
Fe0 Fe4 2.459118 1_555
Fe0 Fe6 2.459118 1_555
Fe0 Fe9 2.636261 1_555
Fe0 Fe10 2.636261 1_555
Fe1 Fe6 2.481580 1_556
Fe1 Fe4 2.481580 1_545
Fe1 Fe5 2.481582 1_545
Fe1 Fe7 2.481582 1_556
Fe1 Fe10 2.652368 1_455
Fe1 Fe9 2.652368 1_455
Fe1 Ti0 2.724539 1_555
Fe1 Ti0 2.724539 1_455
Fe2 Fe4 2.441601 1_555
Fe2 Fe5 2.441606 1_555
Fe2 Fe7 2.484762 1_656
Fe2 Fe6 2.484767 1_556
Fe2 Ti0 2.655316 1_555
Fe3 Fe6 2.441601 1_555
Fe3 Fe7 2.441606 1_555
Fe3 Fe5 2.484762 1_645
Fe3 Fe4 2.484767 1_545
Fe3 Ti0 2.655316 1_555
Fe3 Fe9 2.707607 1_555
Fe3 Fe9 2.707616 1_455
Fe4 Fe5 2.430499 1_555
Fe4 Fe5 2.441949 1_655
Fe4 Fe8 2.607452 1_555
Fe4 Fe9 2.630554 1_465
Fe4 Ti0 2.665244 1_565
Fe4 Tb0 3.206967 1_555
Fe4 Tb0 3.295919 1_656
Fe5 Fe8 2.607454 1_555
Fe5 Fe9 2.630554 1_465
Fe5 Ti0 2.665242 1_465
Fe5 Tb0 3.206969 1_555
Fe5 Tb0 3.295917 1_556
Fe6 Fe7 2.430499 1_555
Fe6 Fe7 2.441949 1_655
Fe6 Fe8 2.607452 1_555
Fe6 Fe9 2.610844 1_555
Fe6 Ti0 2.665244 1_554
Fe6 Tb0 3.206967 1_555
Fe6 Tb0 3.295919 1_645
Fe7 Fe8 2.607454 1_555
Fe7 Fe9 2.610844 1_455
Fe7 Ti0 2.665242 1_454
Fe7 Tb0 3.206969 1_555
Fe7 Tb0 3.295917 1_545
Fe8 Ti0 2.356895 1_555
Fe8 Fe9 2.978187 1_555
Fe8 Fe9 2.978191 1_455
Fe9 Ti0 2.949032 1_555
Fe9 Ti0 2.949036 1_655
Fe9 Tb0 3.067420 1_645
Fe10 Fe9 2.414900 1_555
Fe10 Fe5 2.610844 1_655
Fe10 Fe4 2.610844 1_555
Fe10 Fe6 2.630554 1_656
Fe10 Fe7 2.630554 1_656
Fe10 Fe2 2.707607 1_555
Fe10 Fe2 2.707616 1_655
Fe10 Ti0 2.949032 1_555
Fe10 Ti0 2.949036 1_655
Fe10 Fe8 2.978187 1_555
Fe10 Fe8 2.978191 1_655
Fe10 Tb0 3.067420 1_656
C0 Fe2 1.885742 1_554
C0 Fe3 1.885742 1_565
C0 Fe0 1.893722 1_555
C0 Fe1 1.905083 1_564
C0 Tb0 2.436632 1_555
C0 Tb0 2.436632 1_655
