# generated using pymatgen
data_CeInRh
_symmetry_space_group_name_H-M   'P 1'
_cell_length_a   7.58342519
_cell_length_b   7.58377127
_cell_length_c   4.02968430
_cell_angle_alpha   90.00000000
_cell_angle_beta   90.00000000
_cell_angle_gamma   120.00307057
_symmetry_Int_Tables_number   1
_chemical_formula_structural   CeInRh
_chemical_formula_sum   'Ce3 In3 Rh3'
_cell_volume   200.69606133
_cell_formula_units_Z   3
loop_
 _symmetry_equiv_pos_site_id
 _symmetry_equiv_pos_as_xyz
  1  'x, y, z'
loop_
 _atom_site_type_symbol
 _atom_site_label
 _atom_site_symmetry_multiplicity
 _atom_site_fract_x
 _atom_site_fract_y
 _atom_site_fract_z
 _atom_site_occupancy
  Ce  Ce0  1  0.41200300  -0.00042880  0.50000000  1
  Ce  Ce1  1  0.00044351  0.41245919  0.50000000  1
  Ce  Ce2  1  0.58755339  0.58799984  0.50000000  1
  In  In0  1  0.75127004  0.00027547  -0.00000000  1
  In  In1  1  -0.00033222  0.75106866  0.00000000  1
  In  In2  1  0.24907447  0.24865796  0.00000000  1
  Rh  Rh0  1  0.33340514  0.66674885  0.00000000  1
  Rh  Rh1  1  0.66658898  0.33329336  -0.00000000  1
  Rh  Rh2  1  0.99999268  0.99992547  0.50000000  1
loop_
_geom_bond_atom_site_label_1
_geom_bond_atom_site_label_2
_geom_bond_distance
_geom_bond_site_symmetry_2
Ce0 Rh0 3.046490 1_545
Ce0 Rh0 3.046490 1_546
Ce0 Rh1 3.050510 1_555
Ce0 Rh1 3.050510 1_556
Ce0 Rh2 3.125794 1_445
Ce0 In0 3.265763 1_555
Ce0 In0 3.265763 1_556
Ce0 In2 3.389510 1_556
Ce0 In2 3.389510 1_555
Ce0 In1 3.390480 1_545
Ce0 In1 3.390480 1_546
Ce1 Rh0 3.047022 1_556
Ce1 Rh0 3.047022 1_555
Ce1 Rh1 3.051181 1_456
Ce1 Rh1 3.051181 1_455
Ce1 Rh2 3.126853 1_445
Ce1 In1 3.266348 1_555
Ce1 In1 3.266348 1_556
Ce1 In0 3.390310 1_455
Ce1 In0 3.390310 1_456
Ce1 In2 3.391187 1_556
Ce1 In2 3.391187 1_555
Ce2 Rh0 3.046625 1_555
Ce2 Rh0 3.046625 1_556
Ce2 Rh1 3.050884 1_555
Ce2 Rh1 3.050884 1_556
Ce2 Rh2 3.125683 1_555
Ce2 In2 3.265690 1_556
Ce2 In2 3.265690 1_555
Ce2 In1 3.389809 1_655
Ce2 In1 3.389809 1_656
Ce2 In0 3.390355 1_565
Ce2 In0 3.390355 1_566
In0 Rh2 2.760840 1_544
In0 Rh2 2.760840 1_545
In0 Rh1 2.900461 1_555
In0 Rh0 2.902311 1_545
In0 In1 3.268114 1_645
In0 In2 3.269201 1_655
In1 Rh2 2.759845 1_454
In1 Rh2 2.759845 1_455
In1 Rh1 2.900819 1_455
In1 Rh0 2.903924 1_555
In1 In2 3.267938 1_565
In2 Rh2 2.760859 1_444
In2 Rh2 2.760859 1_445
In2 Rh1 2.899019 1_555
In2 Rh0 2.904213 1_555
