# generated using pymatgen
data_MnFe2(PO9)2
_symmetry_space_group_name_H-M   'P 1'
_cell_length_a   5.41223800
_cell_length_b   7.07624101
_cell_length_c   9.96138467
_cell_angle_alpha   96.42181475
_cell_angle_beta   101.37253650
_cell_angle_gamma   109.56573431
_symmetry_Int_Tables_number   1
_chemical_formula_structural   MnFe2(PO9)2
_chemical_formula_sum   'Mn1 Fe2 P2 O18'
_cell_volume   345.82150923
_cell_formula_units_Z   1
loop_
 _symmetry_equiv_pos_site_id
 _symmetry_equiv_pos_as_xyz
  1  'x, y, z'
loop_
 _atom_site_type_symbol
 _atom_site_label
 _atom_site_symmetry_multiplicity
 _atom_site_fract_x
 _atom_site_fract_y
 _atom_site_fract_z
 _atom_site_occupancy
  Mn  Mn0  1  0.50000000  0.50000000  0.50000000  1
  Fe  Fe0  1  0.00000000  0.00000000  0.00000000  1
  Fe  Fe1  1  0.00000000  0.50000000  0.00000000  1
  P  P0  1  0.49469500  0.41231100  0.17660100  1
  P  P1  1  0.50530500  0.58768900  0.82339900  1
  O  O0  1  0.58747600  0.41603700  0.33808300  1
  O  O1  1  0.41252400  0.58396300  0.66191700  1
  O  O2  1  0.74910000  0.51270400  0.12901200  1
  O  O3  1  0.25090000  0.48729600  0.87098800  1
  O  O4  1  0.35014700  0.18258100  0.10350100  1
  O  O5  1  0.64985300  0.81741900  0.89649900  1
  O  O6  1  0.29634300  0.52806900  0.16147600  1
  O  O7  1  0.70365700  0.47193100  0.83852400  1
  O  O8  1  0.86572100  0.95851200  0.21910600  1
  O  O9  1  0.13427900  0.04148800  0.78089400  1
  O  O10  1  0.19377000  0.23856700  0.46676700  1
  O  O11  1  0.80623000  0.76143300  0.53323300  1
  O  O12  1  0.11363700  0.37219000  0.40696800  1
  O  O13  1  0.88636300  0.62781000  0.59303200  1
  O  O14  1  0.65017400  0.95847600  0.24163800  1
  O  O15  1  0.34982600  0.04152400  0.75836200  1
  O  O16  1  0.11822900  0.79081500  0.01702500  1
  O  O17  1  0.88177100  0.20918500  0.98297500  1
loop_
_geom_bond_atom_site_label_1
_geom_bond_atom_site_label_2
_geom_bond_distance
_geom_bond_site_symmetry_2
Mn0 O0 1.858452 1_555
Mn0 O1 1.858452 1_555
Mn0 O13 1.957298 1_555
Mn0 O12 1.957298 1_555
Mn0 O10 1.967717 1_555
Mn0 O11 1.967717 1_555
Fe0 O16 1.810274 1_545
Fe0 O17 1.810274 1_454
Fe0 O5 1.901349 1_444
Fe0 O4 1.901349 1_555
Fe0 O8 2.450324 1_445
Fe0 O9 2.450324 1_554
Fe1 O17 1.915787 1_454
Fe1 O16 1.915787 1_555
Fe1 O7 1.974070 1_454
Fe1 O6 1.974070 1_555
Fe1 O2 2.061017 1_455
Fe1 O3 2.061017 1_554
O0 P0 1.582240 1_555
O1 P1 1.582240 1_555
O2 P0 1.517518 1_555
O3 P1 1.517518 1_555
O4 P0 1.563225 1_555
O5 P1 1.563225 1_555
O6 P0 1.548849 1_555
O7 P1 1.548849 1_555
O10 O12 1.317485 1_555
O11 O13 1.317485 1_555
O14 O8 1.230606 1_555
O15 O9 1.230606 1_555
