# generated using pymatgen
data_Cu2AsO5
_symmetry_space_group_name_H-M   'P 1'
_cell_length_a   5.77080102
_cell_length_b   8.02924797
_cell_length_c   8.55440400
_cell_angle_alpha   90.00000000
_cell_angle_beta   90.00000000
_cell_angle_gamma   90.50869548
_symmetry_Int_Tables_number   1
_chemical_formula_structural   Cu2AsO5
_chemical_formula_sum   'Cu8 As4 O20'
_cell_volume   396.35433327
_cell_formula_units_Z   4
loop_
 _symmetry_equiv_pos_site_id
 _symmetry_equiv_pos_as_xyz
  1  'x, y, z'
loop_
 _atom_site_type_symbol
 _atom_site_label
 _atom_site_symmetry_multiplicity
 _atom_site_fract_x
 _atom_site_fract_y
 _atom_site_fract_z
 _atom_site_occupancy
  Cu  Cu0  1  0.53095399  0.85342270  0.60882847  1
  Cu  Cu1  1  0.46904601  0.14657730  0.39117153  1
  Cu  Cu2  1  0.03095399  0.35342270  0.89117153  1
  Cu  Cu3  1  0.96904601  0.64657730  0.10882847  1
  Cu  Cu4  1  0.74810869  0.49972127  0.50139537  1
  Cu  Cu5  1  0.25189131  0.50027873  0.49860463  1
  Cu  Cu6  1  0.24810869  0.99972127  0.99860463  1
  Cu  Cu7  1  0.75189131  0.00027873  0.00139537  1
  As  As0  1  0.48528867  0.75912542  0.25280624  1
  As  As1  1  0.51471133  0.24087458  0.74719376  1
  As  As2  1  0.98528867  0.25912542  0.24719376  1
  As  As3  1  0.01471133  0.74087458  0.75280624  1
  O  O0  1  0.43403164  0.90644437  0.39571523  1
  O  O1  1  0.56596836  0.09355563  0.60428477  1
  O  O2  1  0.93403164  0.40644437  0.10428477  1
  O  O3  1  0.06596836  0.59355563  0.89571523  1
  O  O4  1  0.49445405  0.86191387  0.07513671  1
  O  O5  1  0.50554595  0.13808613  0.92486329  1
  O  O6  1  0.99445405  0.36191387  0.42486329  1
  O  O7  1  0.00554595  0.63808613  0.57513671  1
  O  O8  1  0.50388822  0.63113348  0.56737032  1
  O  O9  1  0.49611178  0.36886652  0.43262968  1
  O  O10  1  0.00388822  0.13113348  0.93262968  1
  O  O11  1  0.99611178  0.86886652  0.06737032  1
  O  O12  1  0.74852823  0.66942562  0.27808877  1
  O  O13  1  0.25147177  0.33057438  0.72191123  1
  O  O14  1  0.24852823  0.16942562  0.22191123  1
  O  O15  1  0.75147177  0.83057438  0.77808877  1
  O  O16  1  0.26302076  0.62395593  0.25512738  1
  O  O17  1  0.73697924  0.37604407  0.74487262  1
  O  O18  1  0.76302076  0.12395593  0.24487262  1
  O  O19  1  0.23697924  0.87604407  0.75512738  1
loop_
_geom_bond_atom_site_label_1
_geom_bond_atom_site_label_2
_geom_bond_distance
_geom_bond_site_symmetry_2
Cu0 O8 1.825045 1_555
Cu0 O1 1.937251 1_565
Cu0 O15 1.937446 1_555
Cu0 O0 1.954954 1_555
Cu0 O19 2.117244 1_555
Cu1 O9 1.825045 1_555
Cu1 O0 1.937251 1_545
Cu1 O14 1.937446 1_555
Cu1 O1 1.954954 1_555
Cu1 O18 2.117244 1_555
Cu2 O10 1.825045 1_555
Cu2 O3 1.937251 1_555
Cu2 O13 1.937446 1_555
Cu2 O2 1.954954 1_456
Cu2 O17 2.117244 1_455
Cu3 O11 1.825045 1_555
Cu3 O2 1.937251 1_555
Cu3 O12 1.937446 1_555
Cu3 O3 1.954954 1_654
Cu3 O16 2.117244 1_655
Cu4 O8 1.855939 1_555
Cu4 O9 1.880843 1_555
Cu4 O6 1.924017 1_555
Cu4 O7 1.951904 1_655
Cu4 O17 2.308068 1_555
Cu4 O12 2.346422 1_555
Cu5 O9 1.855939 1_555
Cu5 O8 1.880843 1_555
Cu5 O7 1.924017 1_555
Cu5 O6 1.951904 1_455
Cu5 O16 2.308068 1_555
Cu5 O13 2.346422 1_555
Cu6 O10 1.855939 1_565
Cu6 O11 1.880843 1_456
Cu6 O4 1.924017 1_556
Cu6 O5 1.951904 1_565
Cu6 O19 2.308068 1_555
Cu6 O14 2.346422 1_566
Cu7 O11 1.855939 1_545
Cu7 O10 1.880843 1_654
Cu7 O5 1.924017 1_554
Cu7 O4 1.951904 1_545
Cu7 O18 2.308068 1_555
Cu7 O15 2.346422 1_544
As0 O16 1.672961 1_555
As0 O12 1.700764 1_555
As0 O0 1.728402 1_555
As0 O4 1.730067 1_555
As1 O17 1.672961 1_555
As1 O13 1.700764 1_555
As1 O1 1.728402 1_555
As1 O5 1.730067 1_555
As2 O18 1.672961 1_555
As2 O14 1.700764 1_655
As2 O2 1.728402 1_555
As2 O6 1.730067 1_555
As3 O19 1.672961 1_555
As3 O15 1.700764 1_455
As3 O3 1.728402 1_555
As3 O7 1.730067 1_555
