# generated using pymatgen
data_Cd2GaCuSe4
_symmetry_space_group_name_H-M   'P 1'
_cell_length_a   7.26280552
_cell_length_b   7.26280552
_cell_length_c   7.26280552
_cell_angle_alpha   131.86796604
_cell_angle_beta   131.86796604
_cell_angle_gamma   70.43764027
_symmetry_Int_Tables_number   1
_chemical_formula_structural   Cd2GaCuSe4
_chemical_formula_sum   'Cd2 Ga1 Cu1 Se4'
_cell_volume   208.18172268
_cell_formula_units_Z   1
loop_
 _symmetry_equiv_pos_site_id
 _symmetry_equiv_pos_as_xyz
  1  'x, y, z'
loop_
 _atom_site_type_symbol
 _atom_site_label
 _atom_site_symmetry_multiplicity
 _atom_site_fract_x
 _atom_site_fract_y
 _atom_site_fract_z
 _atom_site_occupancy
  Cd  Cd0  1  0.75000000  0.25000000  0.50000000  1
  Cd  Cd1  1  0.25000000  0.75000000  0.50000000  1
  Ga  Ga0  1  0.50000000  0.50000000  0.00000000  1
  Cu  Cu0  1  0.00000000  0.00000000  0.00000000  1
  Se  Se0  1  0.63917500  0.63917500  0.49917000  1
  Se  Se1  1  0.36082500  0.85999400  0.00000000  1
  Se  Se2  1  0.14000600  0.14000600  0.50083000  1
  Se  Se3  1  0.85999400  0.36082500  0.00000000  1
loop_
_geom_bond_atom_site_label_1
_geom_bond_atom_site_label_2
_geom_bond_distance
_geom_bond_site_symmetry_2
Cd0 Se0 2.670161 1_555
Cd0 Se3 2.670165 1_556
Cd0 Se1 2.670165 1_545
Cd0 Se2 2.670168 1_655
Cd1 Se0 2.670161 1_555
Cd1 Se1 2.670165 1_556
Cd1 Se3 2.670165 1_455
Cd1 Se2 2.670168 1_565
Ga0 Se3 2.467363 1_555
Ga0 Se1 2.467363 1_555
Ga0 Se2 2.467363 1_554
Ga0 Se0 2.467370 1_555
Cu0 Se2 2.473258 1_555
Cu0 Se0 2.473264 1_444
Cu0 Se3 2.473265 1_455
Cu0 Se1 2.473265 1_545
