# generated using pymatgen
data_H4SO5
_symmetry_space_group_name_H-M   'P 1'
_cell_length_a   6.96891490
_cell_length_b   6.91202702
_cell_length_c   7.86117847
_cell_angle_alpha   90.00000000
_cell_angle_beta   90.00000000
_cell_angle_gamma   90.00000000
_symmetry_Int_Tables_number   1
_chemical_formula_structural   H4SO5
_chemical_formula_sum   'H16 S4 O20'
_cell_volume   378.66768489
_cell_formula_units_Z   4
loop_
 _symmetry_equiv_pos_site_id
 _symmetry_equiv_pos_as_xyz
  1  'x, y, z'
loop_
 _atom_site_type_symbol
 _atom_site_label
 _atom_site_symmetry_multiplicity
 _atom_site_fract_x
 _atom_site_fract_y
 _atom_site_fract_z
 _atom_site_occupancy
  H  H0  1  0.14918753  0.10102621  0.59610005  1
  H  H1  1  0.35081247  0.89897379  0.09610005  1
  H  H2  1  0.64918753  0.39897379  0.40389995  1
  H  H3  1  0.85081247  0.60102621  0.90389995  1
  H  H4  1  0.26342567  0.59069617  0.29892862  1
  H  H5  1  0.23657433  0.40930383  0.79892862  1
  H  H6  1  0.76342567  0.90930383  0.70107138  1
  H  H7  1  0.73657433  0.09069617  0.20107138  1
  H  H8  1  0.13180141  0.44561146  0.41898114  1
  H  H9  1  0.36819859  0.55438854  0.91898114  1
  H  H10  1  0.63180141  0.05438854  0.58101886  1
  H  H11  1  0.86819859  0.94561146  0.08101886  1
  H  H12  1  0.21322809  0.36663192  0.23030933  1
  H  H13  1  0.28677191  0.63336808  0.73030933  1
  H  H14  1  0.71322809  0.13336808  0.76969067  1
  H  H15  1  0.78677191  0.86663192  0.26969067  1
  S  S0  1  0.32610755  0.91843541  0.45014856  1
  S  S1  1  0.17389245  0.08156459  0.95014856  1
  S  S2  1  0.82610755  0.58156459  0.54985144  1
  S  S3  1  0.67389245  0.41843541  0.04985144  1
  O  O0  1  0.28846769  0.82171885  0.28771613  1
  O  O1  1  0.21153231  0.17828115  0.78771613  1
  O  O2  1  0.78846769  0.67828115  0.71228387  1
  O  O3  1  0.71153231  0.32171885  0.21228387  1
  O  O4  1  0.49049268  0.04829298  0.43775844  1
  O  O5  1  0.00950732  0.95170702  0.93775844  1
  O  O6  1  0.99049268  0.45170702  0.56224156  1
  O  O7  1  0.50950732  0.54829298  0.06224156  1
  O  O8  1  0.34392506  0.78403360  0.58963431  1
  O  O9  1  0.15607494  0.21596640  0.08963431  1
  O  O10  1  0.84392506  0.71596640  0.41036569  1
  O  O11  1  0.65607494  0.28403360  0.91036569  1
  O  O12  1  0.14436170  0.04495631  0.47875757  1
  O  O13  1  0.35563830  0.95504369  0.97875757  1
  O  O14  1  0.64436170  0.45504369  0.52124243  1
  O  O15  1  0.85563830  0.54495631  0.02124243  1
  O  O16  1  0.23935296  0.45194029  0.33037849  1
  O  O17  1  0.26064704  0.54805971  0.83037849  1
  O  O18  1  0.73935296  0.04805971  0.66962151  1
  O  O19  1  0.76064704  0.95194029  0.16962151  1
loop_
_geom_bond_atom_site_label_1
_geom_bond_atom_site_label_2
_geom_bond_distance
_geom_bond_site_symmetry_2
H0 O12 1.001122 1_555
H0 O1 1.656181 1_555
H1 O13 1.001122 1_554
H1 O0 1.656181 1_555
H2 O14 1.001122 1_555
H2 O3 1.656181 1_555
H3 O15 1.001122 1_556
H3 O2 1.656181 1_555
H4 O16 1.004545 1_555
H4 O0 1.608759 1_555
H5 O17 1.004545 1_555
H5 O1 1.608759 1_555
H6 O18 1.004545 1_565
H6 O2 1.608759 1_555
H7 O19 1.004545 1_545
H7 O3 1.608759 1_555
H8 O16 1.024125 1_555
H8 O6 1.496617 1_455
H9 O17 1.024125 1_555
H9 O7 1.496617 1_556
H10 O18 1.024125 1_555
H10 O4 1.496617 1_555
H11 O19 1.024125 1_555
H11 O5 1.496617 1_654
H12 O16 0.999837 1_555
H12 O9 1.570386 1_555
H13 O17 0.999837 1_555
H13 O8 1.570386 1_555
H14 O18 0.999837 1_555
H14 O11 1.570386 1_555
H15 O19 0.999837 1_555
H15 O10 1.570386 1_555
O0 S0 1.464994 1_555
O1 S1 1.464994 1_555
O2 S2 1.464994 1_555
O3 S3 1.464994 1_555
O4 S0 1.458596 1_545
O5 S1 1.458596 1_565
O6 S2 1.458596 1_555
O7 S3 1.458596 1_555
O8 S0 1.442498 1_555
O9 S1 1.442498 1_554
O10 S2 1.442498 1_555
O11 S3 1.442498 1_556
O12 S0 1.555494 1_545
O13 S1 1.555494 1_565
O14 S2 1.555494 1_555
O15 S3 1.555494 1_555
