# generated using pymatgen
data_Na3MnS2(O4F)2
_symmetry_space_group_name_H-M   'P 1'
_cell_length_a   6.78824600
_cell_length_b   9.19340400
_cell_length_c   13.91790100
_cell_angle_alpha   90.00000000
_cell_angle_beta   90.00000000
_cell_angle_gamma   90.00000000
_symmetry_Int_Tables_number   1
_chemical_formula_structural   Na3MnS2(O4F)2
_chemical_formula_sum   'Na12 Mn4 S8 O32 F8'
_cell_volume   868.57567150
_cell_formula_units_Z   4
loop_
 _symmetry_equiv_pos_site_id
 _symmetry_equiv_pos_as_xyz
  1  'x, y, z'
loop_
 _atom_site_type_symbol
 _atom_site_label
 _atom_site_symmetry_multiplicity
 _atom_site_fract_x
 _atom_site_fract_y
 _atom_site_fract_z
 _atom_site_occupancy
  Na  Na0  1  0.53120500  0.66369600  0.90603300  1
  Na  Na1  1  0.03120500  0.83630400  0.59396700  1
  Na  Na2  1  0.46879500  0.16369600  0.59396700  1
  Na  Na3  1  0.96879500  0.33630400  0.90603300  1
  Na  Na4  1  0.46879500  0.33630400  0.09396700  1
  Na  Na5  1  0.96879500  0.16369600  0.40603300  1
  Na  Na6  1  0.53120500  0.83630400  0.40603300  1
  Na  Na7  1  0.03120500  0.66369600  0.09396700  1
  Na  Na8  1  0.75000000  0.00000000  0.06109500  1
  Na  Na9  1  0.25000000  0.50000000  0.43890500  1
  Na  Na10  1  0.25000000  0.00000000  0.93890500  1
  Na  Na11  1  0.75000000  0.50000000  0.56109500  1
  Mn  Mn0  1  0.75000000  0.00000000  0.80691800  1
  Mn  Mn1  1  0.25000000  0.50000000  0.69308200  1
  Mn  Mn2  1  0.25000000  0.00000000  0.19308200  1
  Mn  Mn3  1  0.75000000  0.50000000  0.30691800  1
  S  S0  1  0.01867700  0.69099900  0.85427400  1
  S  S1  1  0.51867700  0.80900100  0.64572600  1
  S  S2  1  0.98132300  0.19099900  0.64572600  1
  S  S3  1  0.48132300  0.30900100  0.85427400  1
  S  S4  1  0.98132300  0.30900100  0.14572600  1
  S  S5  1  0.48132300  0.19099900  0.35427400  1
  S  S6  1  0.01867700  0.80900100  0.35427400  1
  S  S7  1  0.51867700  0.69099900  0.14572600  1
  O  O0  1  0.43710500  0.44570700  0.79499800  1
  O  O1  1  0.93710500  0.05429300  0.70500200  1
  O  O2  1  0.56289500  0.94570700  0.70500200  1
  O  O3  1  0.06289500  0.55429300  0.79499800  1
  O  O4  1  0.56289500  0.55429300  0.20500200  1
  O  O5  1  0.06289500  0.94570700  0.29499800  1
  O  O6  1  0.43710500  0.05429300  0.29499800  1
  O  O7  1  0.93710500  0.44570700  0.20500200  1
  O  O8  1  0.20016500  0.75308500  0.89435100  1
  O  O9  1  0.70016500  0.74691500  0.60564900  1
  O  O10  1  0.79983500  0.25308500  0.60564900  1
  O  O11  1  0.29983500  0.24691500  0.89435100  1
  O  O12  1  0.79983500  0.24691500  0.10564900  1
  O  O13  1  0.29983500  0.25308500  0.39435100  1
  O  O14  1  0.20016500  0.74691500  0.39435100  1
  O  O15  1  0.70016500  0.75308500  0.10564900  1
  O  O16  1  0.88480200  0.63812600  0.93060000  1
  O  O17  1  0.38480200  0.86187400  0.56940000  1
  O  O18  1  0.11519800  0.13812600  0.56940000  1
  O  O19  1  0.61519800  0.36187400  0.93060000  1
  O  O20  1  0.11519800  0.36187400  0.06940000  1
  O  O21  1  0.61519800  0.13812600  0.43060000  1
  O  O22  1  0.88480200  0.86187400  0.43060000  1
  O  O23  1  0.38480200  0.63812600  0.06940000  1
  O  O24  1  0.41923400  0.70384500  0.71042100  1
  O  O25  1  0.91923400  0.79615500  0.78957900  1
  O  O26  1  0.58076600  0.20384500  0.78957900  1
  O  O27  1  0.08076600  0.29615500  0.71042100  1
  O  O28  1  0.58076600  0.29615500  0.28957900  1
  O  O29  1  0.08076600  0.20384500  0.21042100  1
  O  O30  1  0.41923400  0.79615500  0.21042100  1
  O  O31  1  0.91923400  0.70384500  0.28957900  1
  F  F0  1  0.58372600  0.92447300  0.90638400  1
  F  F1  1  0.08372600  0.57552700  0.59361600  1
  F  F2  1  0.41627400  0.42447300  0.59361600  1
  F  F3  1  0.91627400  0.07552700  0.90638400  1
  F  F4  1  0.41627400  0.07552700  0.09361600  1
  F  F5  1  0.91627400  0.42447300  0.40638400  1
  F  F6  1  0.58372600  0.57552700  0.40638400  1
  F  F7  1  0.08372600  0.92447300  0.09361600  1
loop_
_geom_bond_atom_site_label_1
_geom_bond_atom_site_label_2
_geom_bond_distance
_geom_bond_site_symmetry_2
Na0 O8 2.398248 1_555
Na0 O16 2.435904 1_555
Na0 O23 2.492542 1_556
Na0 O0 2.610072 1_555
Na0 O24 2.850618 1_555
Na0 O19 2.853306 1_555
Na1 O9 2.398248 1_455
Na1 O17 2.435904 1_555
Na1 O22 2.492542 1_455
Na1 O1 2.610072 1_465
Na1 O25 2.850618 1_455
Na1 O18 2.853306 1_565
Na2 O10 2.398248 1_555
Na2 O18 2.435904 1_555
Na2 O21 2.492542 1_555
Na2 O2 2.610072 1_545
Na2 O26 2.850618 1_555
Na2 O17 2.853306 1_545
Na3 O11 2.398248 1_655
Na3 O19 2.435904 1_555
Na3 O20 2.492542 1_656
Na3 O3 2.610072 1_655
Na3 O27 2.850618 1_655
Na3 O16 2.853306 1_555
Na4 O12 2.398248 1_555
Na4 O20 2.435904 1_555
Na4 O19 2.492542 1_554
Na4 O4 2.610072 1_555
Na4 O28 2.850618 1_555
Na4 O23 2.853306 1_555
Na5 O13 2.398248 1_655
Na5 O21 2.435904 1_555
Na5 O18 2.492542 1_655
Na5 O5 2.610072 1_645
Na5 O29 2.850618 1_655
Na5 O22 2.853306 1_545
Na6 O14 2.398248 1_555
Na6 O22 2.435904 1_555
Na6 O17 2.492542 1_555
Na6 O6 2.610072 1_565
Na6 O30 2.850618 1_555
Na6 O21 2.853306 1_565
Na7 O15 2.398248 1_455
Na7 O23 2.435904 1_555
Na7 O16 2.492542 1_454
Na7 O7 2.610072 1_455
Na7 O31 2.850618 1_455
Na7 O20 2.853306 1_555
Na8 O15 2.377355 1_545
Na8 O12 2.377355 1_555
Na9 O13 2.377355 1_555
Na9 O14 2.377355 1_555
Na10 O11 2.377355 1_555
Na10 O8 2.377355 1_545
Na11 O9 2.377355 1_555
Na11 O10 2.377355 1_555
Mn0 O2 1.968337 1_545
Mn0 O1 1.968337 1_555
Mn0 O26 2.211327 1_555
Mn0 O25 2.211327 1_545
Mn1 O3 1.968337 1_555
Mn1 O0 1.968337 1_555
Mn1 O27 2.211327 1_555
Mn1 O24 2.211327 1_555
Mn2 O5 1.968337 1_545
Mn2 O6 1.968337 1_555
Mn2 O29 2.211327 1_555
Mn2 O30 2.211327 1_545
Mn3 O7 1.968337 1_555
Mn3 O4 1.968337 1_555
Mn3 O28 2.211327 1_555
Mn3 O31 2.211327 1_555
O0 S3 1.533052 1_555
O1 S2 1.533052 1_555
O2 S1 1.533052 1_555
O3 S0 1.533052 1_555
O4 S7 1.533052 1_555
O5 S6 1.533052 1_555
O6 S5 1.533052 1_555
O7 S4 1.533052 1_555
O8 S0 1.467892 1_555
O9 S1 1.467892 1_555
O10 S2 1.467892 1_555
O11 S3 1.467892 1_555
O12 S4 1.467892 1_555
O13 S5 1.467892 1_555
O14 S6 1.467892 1_555
O15 S7 1.467892 1_555
O16 S0 1.480077 1_655
O17 S1 1.480077 1_555
O18 S2 1.480077 1_455
O19 S3 1.480077 1_555
O20 S4 1.480077 1_455
O21 S5 1.480077 1_555
O22 S6 1.480077 1_655
O23 S7 1.480077 1_555
O24 S1 1.483586 1_555
O25 S0 1.483586 1_655
O26 S3 1.483586 1_555
O27 S2 1.483586 1_455
O28 S5 1.483586 1_555
O29 S4 1.483586 1_455
O30 S7 1.483586 1_555
O31 S6 1.483586 1_655
F0 Mn0 1.916391 1_565
F0 Na10 2.412279 1_565
F0 Na0 2.423798 1_555
F0 Na8 2.528359 1_566
F1 Mn1 1.916391 1_555
F1 Na11 2.412279 1_455
F1 Na1 2.423798 1_555
F1 Na9 2.528359 1_555
F2 Mn1 1.916391 1_555
F2 Na11 2.412279 1_555
F2 Na2 2.423798 1_555
F2 Na9 2.528359 1_555
F3 Mn0 1.916391 1_555
F3 Na10 2.412279 1_655
F3 Na3 2.423798 1_555
F3 Na8 2.528359 1_556
F4 Mn2 1.916391 1_555
F4 Na8 2.412279 1_555
F4 Na4 2.423798 1_555
F4 Na10 2.528359 1_554
F5 Mn3 1.916391 1_555
F5 Na9 2.412279 1_655
F5 Na5 2.423798 1_555
F5 Na11 2.528359 1_555
F6 Mn3 1.916391 1_555
F6 Na9 2.412279 1_555
F6 Na6 2.423798 1_555
F6 Na11 2.528359 1_555
F7 Mn2 1.916391 1_565
F7 Na8 2.412279 1_465
F7 Na7 2.423798 1_555
F7 Na10 2.528359 1_564
