# generated using pymatgen
data_Cs3SnTe3
_symmetry_space_group_name_H-M   'P 1'
_cell_length_a   11.50755624
_cell_length_b   11.50755624
_cell_length_c   10.45525994
_cell_angle_alpha   84.81198958
_cell_angle_beta   84.81198958
_cell_angle_gamma   78.94927603
_symmetry_Int_Tables_number   1
_chemical_formula_structural   Cs3SnTe3
_chemical_formula_sum   'Cs12 Sn4 Te12'
_cell_volume   1349.49793853
_cell_formula_units_Z   4
loop_
 _symmetry_equiv_pos_site_id
 _symmetry_equiv_pos_as_xyz
  1  'x, y, z'
loop_
 _atom_site_type_symbol
 _atom_site_label
 _atom_site_symmetry_multiplicity
 _atom_site_fract_x
 _atom_site_fract_y
 _atom_site_fract_z
 _atom_site_occupancy
  Cs  Cs0  1  0.60509039  0.39490961  0.25000000  1
  Cs  Cs1  1  0.39490961  0.60509039  0.75000000  1
  Cs  Cs2  1  0.91320893  0.08679107  0.25000000  1
  Cs  Cs3  1  0.08679107  0.91320893  0.75000000  1
  Cs  Cs4  1  0.78545897  0.40109734  0.86589265  1
  Cs  Cs5  1  0.59890266  0.21454103  0.63410735  1
  Cs  Cs6  1  0.21454103  0.59890266  0.13410735  1
  Cs  Cs7  1  0.40109734  0.78545897  0.36589265  1
  Cs  Cs8  1  0.75656937  0.80807204  0.68734593  1
  Cs  Cs9  1  0.19192796  0.24343063  0.81265407  1
  Cs  Cs10  1  0.24343063  0.19192796  0.31265407  1
  Cs  Cs11  1  0.80807204  0.75656937  0.18734593  1
  Sn  Sn0  1  0.91798400  0.43445719  0.45464446  1
  Sn  Sn1  1  0.56554281  0.08201600  0.04535554  1
  Sn  Sn2  1  0.08201600  0.56554281  0.54535554  1
  Sn  Sn3  1  0.43445719  0.91798400  0.95464446  1
  Te  Te0  1  0.04732822  0.57944479  0.81030163  1
  Te  Te1  1  0.42055521  0.95267178  0.68969837  1
  Te  Te2  1  0.95267178  0.42055521  0.18969837  1
  Te  Te3  1  0.57944479  0.04732822  0.31030163  1
  Te  Te4  1  0.04942689  0.79052176  0.42452707  1
  Te  Te5  1  0.20947824  0.95057311  0.07547293  1
  Te  Te6  1  0.95057311  0.20947824  0.57547293  1
  Te  Te7  1  0.79052176  0.04942689  0.92452707  1
  Te  Te8  1  0.68809990  0.54888438  0.52248777  1
  Te  Te9  1  0.45111562  0.31190010  0.97751223  1
  Te  Te10  1  0.31190010  0.45111562  0.47751223  1
  Te  Te11  1  0.54888438  0.68809990  0.02248777  1
loop_
_geom_bond_atom_site_label_1
_geom_bond_atom_site_label_2
_geom_bond_distance
_geom_bond_site_symmetry_2
Cs0 Te9 3.771252 1_554
Cs0 Te8 3.771252 1_555
Cs0 Te11 3.930656 1_555
Cs0 Te10 3.930656 1_555
Cs0 Te3 4.055355 1_555
Cs0 Te2 4.055355 1_555
Cs1 Te10 3.771252 1_555
Cs1 Te11 3.771252 1_556
Cs1 Te8 3.930656 1_555
Cs1 Te9 3.930656 1_555
Cs1 Te0 4.055355 1_555
Cs1 Te1 4.055355 1_555
Cs2 Te5 3.841070 1_645
Cs2 Te4 3.841070 1_645
Cs2 Te6 3.888968 1_555
Cs2 Te7 3.888968 1_554
Cs2 Te2 3.941380 1_555
Cs2 Te3 3.941380 1_555
Cs3 Te6 3.841070 1_465
Cs3 Te7 3.841070 1_465
Cs3 Te4 3.888968 1_555
Cs3 Te5 3.888968 1_556
Cs3 Te1 3.941380 1_555
Cs3 Te0 3.941380 1_555
Cs4 Te0 3.933118 1_655
Cs4 Te8 3.991383 1_555
Cs4 Te7 4.027873 1_555
Cs4 Te6 4.031585 1_555
Cs4 Te2 4.085894 1_556
Cs4 Te9 4.207596 1_555
Cs4 Te11 4.210082 1_556
Cs5 Te1 3.933118 1_545
Cs5 Te9 3.991383 1_555
Cs5 Te6 4.027873 1_555
Cs5 Te7 4.031585 1_555
Cs5 Te3 4.085894 1_555
Cs5 Te8 4.207596 1_555
Cs5 Te10 4.210082 1_555
Cs6 Te2 3.933118 1_455
Cs6 Te10 3.991383 1_555
Cs6 Te5 4.027873 1_555
Cs6 Te4 4.031585 1_555
Cs6 Te0 4.085894 1_554
Cs6 Te11 4.207596 1_555
Cs6 Te9 4.210082 1_554
Cs7 Te3 3.933118 1_565
Cs7 Te11 3.991383 1_555
Cs7 Te4 4.027873 1_555
Cs7 Te5 4.031585 1_555
Cs7 Te1 4.085894 1_555
Cs7 Te10 4.207596 1_555
Cs7 Te8 4.210082 1_555
Cs8 Te8 3.816278 1_555
Cs8 Te1 3.904418 1_555
Cs8 Te7 3.981555 1_565
Cs8 Te0 4.069548 1_655
Cs8 Te4 4.136849 1_655
Cs8 Te11 4.332595 1_556
Cs9 Te9 3.816278 1_555
Cs9 Te0 3.904418 1_555
Cs9 Te6 3.981555 1_455
Cs9 Te1 4.069548 1_545
Cs9 Te5 4.136849 1_546
Cs9 Te10 4.332595 1_555
Cs10 Te10 3.816278 1_555
Cs10 Te3 3.904418 1_555
Cs10 Te5 3.981555 1_545
Cs10 Te2 4.069548 1_455
Cs10 Te6 4.136849 1_455
Cs10 Te9 4.332595 1_554
Cs11 Te11 3.816278 1_555
Cs11 Te2 3.904418 1_555
Cs11 Te4 3.981555 1_655
Cs11 Te3 4.069548 1_565
Cs11 Te7 4.136849 1_564
Cs11 Te8 4.332595 1_555
Sn0 Te6 2.749771 1_555
Sn0 Te2 2.777403 1_555
Sn0 Te8 2.780176 1_555
Sn0 Sn2 2.900362 1_655
Sn1 Te7 2.749771 1_554
Sn1 Te3 2.777403 1_555
Sn1 Te9 2.780176 1_554
Sn1 Sn3 2.900362 1_544
Sn2 Te4 2.749771 1_555
Sn2 Te0 2.777403 1_555
Sn2 Te10 2.780176 1_555
Sn3 Te5 2.749771 1_556
Sn3 Te1 2.777403 1_555
Sn3 Te11 2.780176 1_556
