# generated using pymatgen
data_Pu2W2C3
_symmetry_space_group_name_H-M   'P 1'
_cell_length_a   6.21271261
_cell_length_b   6.21271261
_cell_length_c   5.69786510
_cell_angle_alpha   67.49926142
_cell_angle_beta   67.49926142
_cell_angle_gamma   30.65489598
_symmetry_Int_Tables_number   1
_chemical_formula_structural   Pu2W2C3
_chemical_formula_sum   'Pu2 W2 C3'
_cell_volume   102.92632641
_cell_formula_units_Z   1
loop_
 _symmetry_equiv_pos_site_id
 _symmetry_equiv_pos_as_xyz
  1  'x, y, z'
loop_
 _atom_site_type_symbol
 _atom_site_label
 _atom_site_symmetry_multiplicity
 _atom_site_fract_x
 _atom_site_fract_y
 _atom_site_fract_z
 _atom_site_occupancy
  Pu  Pu0  1  0.60564300  0.60564300  0.19091900  1
  Pu  Pu1  1  0.39435700  0.39435700  0.80908100  1
  W  W0  1  0.84370300  0.84370300  0.32678800  1
  W  W1  1  0.15629700  0.15629700  0.67321200  1
  C  C0  1  0.74925800  0.74925800  0.74403900  1
  C  C1  1  0.25074200  0.25074200  0.25596100  1
  C  C2  1  0.00000000  0.00000000  0.00000000  1
loop_
_geom_bond_atom_site_label_1
_geom_bond_atom_site_label_2
_geom_bond_distance
_geom_bond_site_symmetry_2
C0 W1 2.111298 1_655
C0 W1 2.111298 1_565
C0 W0 2.190371 1_555
C0 Pu0 2.442860 1_556
C0 Pu1 2.523704 1_655
C0 Pu1 2.523704 1_565
C1 W0 2.111298 1_455
C1 W0 2.111298 1_545
C1 W1 2.190371 1_555
C1 Pu1 2.442860 1_554
C1 Pu0 2.523704 1_455
C1 Pu0 2.523704 1_545
C2 W0 2.051182 1_445
C2 W1 2.051182 1_554
C2 Pu0 2.564359 1_455
C2 Pu0 2.564359 1_545
C2 Pu1 2.564359 1_544
C2 Pu1 2.564359 1_454
