# generated using pymatgen
data_YbCuS2
_symmetry_space_group_name_H-M   'P 1'
_cell_length_a   3.88382164
_cell_length_b   6.19212772
_cell_length_c   13.15281495
_cell_angle_alpha   90.00000000
_cell_angle_beta   90.00000000
_cell_angle_gamma   90.00000000
_symmetry_Int_Tables_number   1
_chemical_formula_structural   YbCuS2
_chemical_formula_sum   'Yb4 Cu4 S8'
_cell_volume   316.31362003
_cell_formula_units_Z   4
loop_
 _symmetry_equiv_pos_site_id
 _symmetry_equiv_pos_as_xyz
  1  'x, y, z'
loop_
 _atom_site_type_symbol
 _atom_site_label
 _atom_site_symmetry_multiplicity
 _atom_site_fract_x
 _atom_site_fract_y
 _atom_site_fract_z
 _atom_site_occupancy
  Yb  Yb0  1  0.25000000  0.00055095  0.63413834  1
  Yb  Yb1  1  0.75000000  0.50055095  0.86586166  1
  Yb  Yb2  1  0.75000000  0.99944905  0.36586166  1
  Yb  Yb3  1  0.25000000  0.49944905  0.13413834  1
  Cu  Cu0  1  0.25000000  0.11767811  0.95322308  1
  Cu  Cu1  1  0.25000000  0.38232189  0.45322308  1
  Cu  Cu2  1  0.75000000  0.88232189  0.04677692  1
  Cu  Cu3  1  0.75000000  0.61767811  0.54677692  1
  S  S0  1  0.25000000  0.75839110  0.46042728  1
  S  S1  1  0.75000000  0.24160890  0.53957272  1
  S  S2  1  0.75000000  0.73620814  0.20614833  1
  S  S3  1  0.25000000  0.74160890  0.96042728  1
  S  S4  1  0.25000000  0.23620814  0.29385167  1
  S  S5  1  0.75000000  0.25839110  0.03957272  1
  S  S6  1  0.75000000  0.76379186  0.70614833  1
  S  S7  1  0.25000000  0.26379186  0.79385167  1
loop_
_geom_bond_atom_site_label_1
_geom_bond_atom_site_label_2
_geom_bond_distance
_geom_bond_site_symmetry_2
Cu0 S7 2.283104 1_555
Cu0 S3 2.330596 1_545
Cu0 S5 2.412491 1_556
Cu0 S5 2.412491 1_456
Cu1 S4 2.283104 1_555
Cu1 S0 2.330596 1_555
Cu1 S1 2.412491 1_455
Cu1 S1 2.412491 1_555
Cu2 S2 2.283104 1_555
Cu2 S5 2.330596 1_565
Cu2 S3 2.412491 1_554
Cu2 S3 2.412491 1_654
Cu3 S6 2.283104 1_555
Cu3 S1 2.330596 1_555
Cu3 S0 2.412491 1_655
Cu3 S0 2.412491 1_555
S0 Yb0 2.732895 1_565
S0 Yb2 2.747017 1_555
S0 Yb2 2.747017 1_455
S1 Yb2 2.732895 1_545
S1 Yb0 2.747017 1_555
S1 Yb0 2.747017 1_655
S2 Yb3 2.611008 1_555
S2 Yb3 2.611008 1_655
S2 Yb2 2.658914 1_555
S3 Yb3 2.732895 1_556
S3 Yb1 2.747017 1_455
S3 Yb1 2.747017 1_555
S4 Yb2 2.611008 1_445
S4 Yb2 2.611008 1_545
S4 Yb3 2.658914 1_555
S5 Yb1 2.732895 1_554
S5 Yb3 2.747017 1_555
S5 Yb3 2.747017 1_655
S6 Yb0 2.611008 1_565
S6 Yb0 2.611008 1_665
S6 Yb1 2.658914 1_555
S7 Yb1 2.611008 1_455
S7 Yb1 2.611008 1_555
S7 Yb0 2.658914 1_555
