# generated using pymatgen
data_NaLiMg6
_symmetry_space_group_name_H-M   'P 1'
_cell_length_a   5.28284900
_cell_length_b   6.39003000
_cell_length_c   11.17766400
_cell_angle_alpha   90.00000000
_cell_angle_beta   90.00000000
_cell_angle_gamma   90.00000000
_symmetry_Int_Tables_number   1
_chemical_formula_structural   NaLiMg6
_chemical_formula_sum   'Na2 Li2 Mg12'
_cell_volume   377.33070333
_cell_formula_units_Z   2
loop_
 _symmetry_equiv_pos_site_id
 _symmetry_equiv_pos_as_xyz
  1  'x, y, z'
loop_
 _atom_site_type_symbol
 _atom_site_label
 _atom_site_symmetry_multiplicity
 _atom_site_fract_x
 _atom_site_fract_y
 _atom_site_fract_z
 _atom_site_occupancy
  Na  Na0  1  0.50000000  0.50000000  0.16673300  1
  Na  Na1  1  0.50000000  0.00000000  0.66673300  1
  Li  Li0  1  0.50000000  0.00000000  0.16665100  1
  Li  Li1  1  0.50000000  0.50000000  0.66665100  1
  Mg  Mg0  1  0.50000000  0.25015300  0.41674700  1
  Mg  Mg1  1  0.50000000  0.74984700  0.41674700  1
  Mg  Mg2  1  0.00000000  0.75264700  0.08298100  1
  Mg  Mg3  1  0.00000000  0.24735300  0.08298100  1
  Mg  Mg4  1  0.00000000  0.00000000  0.33267400  1
  Mg  Mg5  1  0.00000000  0.50000000  0.33448200  1
  Mg  Mg6  1  0.50000000  0.75015300  0.91674700  1
  Mg  Mg7  1  0.50000000  0.24984700  0.91674700  1
  Mg  Mg8  1  0.00000000  0.25264700  0.58298100  1
  Mg  Mg9  1  0.00000000  0.74735300  0.58298100  1
  Mg  Mg10  1  0.00000000  0.50000000  0.83267400  1
  Mg  Mg11  1  0.00000000  0.00000000  0.83448200  1
loop_
_geom_bond_atom_site_label_1
_geom_bond_atom_site_label_2
_geom_bond_distance
_geom_bond_site_symmetry_2
Li0 Na0 3.195015 1_555
Li0 Na0 3.195015 1_545
Li0 Mg3 3.217151 1_555
Li0 Mg3 3.217151 1_655
Li0 Mg2 3.217151 1_645
Li0 Mg2 3.217151 1_545
Li0 Mg7 3.217401 1_554
Li0 Mg6 3.217401 1_544
Li0 Mg1 3.220235 1_545
Li0 Mg0 3.220235 1_555
Li0 Mg4 3.228146 1_555
Li0 Mg4 3.228146 1_655
Li1 Na1 3.195015 1_565
Li1 Na1 3.195015 1_555
Li1 Mg8 3.217151 1_655
Li1 Mg8 3.217151 1_555
Li1 Mg9 3.217151 1_655
Li1 Mg9 3.217151 1_555
Li1 Mg0 3.217401 1_555
Li1 Mg1 3.217401 1_555
Li1 Mg6 3.220235 1_555
Li1 Mg7 3.220235 1_555
Li1 Mg10 3.228146 1_655
Li1 Mg10 3.228146 1_555
Mg0 Mg1 3.193060 1_555
Mg0 Mg1 3.196970 1_545
Mg0 Na0 3.218469 1_555
Mg0 Na1 3.219168 1_555
Mg0 Mg5 3.220492 1_655
Mg0 Mg5 3.220492 1_555
Mg0 Mg4 3.227288 1_655
Mg0 Mg4 3.227288 1_555
Mg0 Mg8 3.229542 1_655
Mg0 Mg8 3.229542 1_555
Mg1 Na0 3.218469 1_555
Mg1 Na1 3.219168 1_565
Mg1 Mg5 3.220492 1_555
Mg1 Mg5 3.220492 1_655
Mg1 Mg4 3.227288 1_665
Mg1 Mg4 3.227288 1_565
Mg1 Mg9 3.229542 1_555
Mg1 Mg9 3.229542 1_655
Mg2 Mg3 3.161186 1_565
Mg2 Mg4 3.207471 1_565
Mg2 Mg3 3.228844 1_555
Mg2 Mg6 3.229542 1_454
Mg2 Mg6 3.229542 1_554
Mg2 Na0 3.234171 1_555
Mg2 Na0 3.234171 1_455
Mg2 Mg5 3.241785 1_555
Mg3 Mg4 3.207471 1_555
Mg3 Mg7 3.229542 1_554
Mg3 Mg7 3.229542 1_454
Mg3 Na0 3.234171 1_555
Mg3 Na0 3.234171 1_455
Mg3 Mg5 3.241785 1_555
Mg4 Mg5 3.195079 1_555
Mg4 Mg5 3.195079 1_545
Mg4 Mg9 3.230218 1_545
Mg4 Mg8 3.230218 1_555
Mg5 Mg8 3.195864 1_555
Mg5 Mg9 3.195864 1_555
Mg5 Na0 3.239275 1_555
Mg5 Na0 3.239275 1_455
Mg6 Mg7 3.193060 1_565
Mg6 Mg7 3.196970 1_555
Mg6 Na1 3.218469 1_565
Mg6 Na0 3.219168 1_556
Mg7 Na1 3.218469 1_555
Mg7 Na0 3.219168 1_556
Mg8 Mg9 3.161186 1_555
Mg8 Mg9 3.228844 1_545
Mg8 Na1 3.234171 1_455
Mg8 Na1 3.234171 1_555
Mg9 Na1 3.234171 1_465
Mg9 Na1 3.234171 1_565
Mg10 Mg11 3.195079 1_565
Mg10 Mg11 3.195079 1_555
Mg10 Mg8 3.207471 1_555
Mg10 Mg9 3.207471 1_555
Mg10 Mg7 3.227288 1_555
Mg10 Mg6 3.227288 1_555
Mg10 Mg6 3.227288 1_455
Mg10 Mg7 3.227288 1_455
Mg10 Mg2 3.230218 1_556
Mg10 Mg3 3.230218 1_556
Mg11 Mg2 3.195864 1_546
Mg11 Mg3 3.195864 1_556
Mg11 Mg7 3.220492 1_455
Mg11 Mg7 3.220492 1_555
Mg11 Mg6 3.220492 1_445
Mg11 Mg6 3.220492 1_545
Mg11 Na1 3.239275 1_455
Mg11 Na1 3.239275 1_555
Mg11 Mg8 3.241785 1_555
Mg11 Mg9 3.241785 1_545
