# generated using pymatgen
data_KLu3F10
_symmetry_space_group_name_H-M   'P 1'
_cell_length_a   7.92647496
_cell_length_b   7.92647193
_cell_length_c   7.92647843
_cell_angle_alpha   60.00188288
_cell_angle_beta   60.00038881
_cell_angle_gamma   60.00187515
_symmetry_Int_Tables_number   1
_chemical_formula_structural   KLu3F10
_chemical_formula_sum   'K2 Lu6 F20'
_cell_volume   352.15909745
_cell_formula_units_Z   2
loop_
 _symmetry_equiv_pos_site_id
 _symmetry_equiv_pos_as_xyz
  1  'x, y, z'
loop_
 _atom_site_type_symbol
 _atom_site_label
 _atom_site_symmetry_multiplicity
 _atom_site_fract_x
 _atom_site_fract_y
 _atom_site_fract_z
 _atom_site_occupancy
  K  K0  1  0.25002049  0.24998187  0.25002195  1
  K  K1  1  0.74998403  0.75001268  0.74997760  1
  Lu  Lu0  1  0.75959818  0.24049736  0.24036590  1
  Lu  Lu1  1  0.24039979  0.75950566  0.75963821  1
  Lu  Lu2  1  0.24042862  0.75952256  0.24043618  1
  Lu  Lu3  1  0.75956785  0.24047896  0.75956087  1
  Lu  Lu4  1  0.24036439  0.24050506  0.75958757  1
  Lu  Lu5  1  0.75963628  0.75949729  0.24041589  1
  F  F0  1  0.83095944  0.49996455  0.49996702  1
  F  F1  1  0.16903738  0.50003621  0.50002821  1
  F  F2  1  0.50009000  0.83071480  0.16909786  1
  F  F3  1  0.49991078  0.16928247  0.83090032  1
  F  F4  1  0.50006749  0.83073075  0.50007742  1
  F  F5  1  0.16903338  0.50000254  0.83096348  1
  F  F6  1  0.49994186  0.16926839  0.49993582  1
  F  F7  1  0.83097627  0.49999123  0.16904487  1
  F  F8  1  0.49997012  0.49997444  0.83093739  1
  F  F9  1  0.50002357  0.50002712  0.16905545  1
  F  F10  1  0.16908267  0.83071574  0.50009749  1
  F  F11  1  0.83091258  0.16928420  0.49990370  1
  F  F12  1  0.11192477  0.11200405  0.11193414  1
  F  F13  1  0.88807480  0.88799815  0.88806140  1
  F  F14  1  0.11190513  0.11199008  0.66417337  1
  F  F15  1  0.11198759  0.66400110  0.11200024  1
  F  F16  1  0.88809407  0.88801194  0.33582406  1
  F  F17  1  0.88801133  0.33599933  0.88799876  1
  F  F18  1  0.66419193  0.11198331  0.11190251  1
  F  F19  1  0.33580625  0.88801915  0.88809433  1
loop_
_geom_bond_atom_site_label_1
_geom_bond_atom_site_label_2
_geom_bond_distance
_geom_bond_site_symmetry_2
F0 Lu3 2.133575 1_555
F0 Lu5 2.133606 1_555
F0 K0 3.106140 1_655
F0 K1 3.106596 1_555
F1 Lu2 2.133573 1_555
F1 Lu4 2.133650 1_555
F1 K1 3.106108 1_455
F1 K0 3.106583 1_555
F2 Lu2 2.133743 1_555
F2 Lu5 2.133836 1_555
F2 K1 3.105959 1_554
F2 K0 3.107732 1_565
F3 Lu3 2.133728 1_555
F3 Lu4 2.133797 1_555
F3 K0 3.105960 1_556
F3 K1 3.107745 1_545
F4 Lu1 2.133989 1_555
F4 Lu5 2.133999 1_555
F4 K1 3.105877 1_555
F4 K0 3.107451 1_565
F5 Lu4 2.133414 1_555
F5 Lu1 2.133426 1_555
F5 K1 3.106491 1_455
F5 K0 3.106558 1_556
F6 Lu0 2.133967 1_555
F6 Lu4 2.133982 1_555
F6 K0 3.106018 1_555
F6 K1 3.107405 1_545
F7 Lu0 2.133424 1_555
F7 Lu5 2.133431 1_555
F7 K0 3.106427 1_655
F7 K1 3.106635 1_554
F8 Lu3 2.133602 1_555
F8 Lu1 2.133645 1_555
F8 K0 3.106270 1_556
F8 K1 3.106604 1_555
F9 Lu2 2.133603 1_555
F9 Lu0 2.133685 1_555
F9 K1 3.106259 1_554
F9 K0 3.106556 1_555
F10 Lu2 2.133727 1_555
F10 Lu1 2.133810 1_555
F10 K1 3.105815 1_455
F10 K0 3.107771 1_565
F11 Lu3 2.133706 1_555
F11 Lu0 2.133766 1_555
F11 K0 3.105860 1_655
F11 K1 3.107777 1_545
F12 Lu0 2.285280 1_455
F12 Lu4 2.285411 1_554
F12 Lu2 2.286308 1_545
F12 K0 2.680399 1_555
F13 Lu1 2.285266 1_655
F13 Lu5 2.285459 1_556
F13 Lu3 2.286304 1_565
F13 K1 2.680391 1_555
F14 Lu3 2.285359 1_455
F14 Lu4 2.285629 1_555
F14 Lu1 2.286324 1_545
F14 K0 2.680398 1_555
F15 Lu5 2.285395 1_455
F15 Lu1 2.285463 1_554
F15 Lu2 2.285649 1_555
F15 K0 2.679580 1_555
F16 Lu2 2.285340 1_655
F16 Lu5 2.285580 1_555
F16 Lu0 2.286333 1_565
F16 K1 2.680411 1_555
F17 Lu4 2.285407 1_655
F17 Lu0 2.285498 1_556
F17 Lu3 2.285672 1_555
F17 K1 2.679542 1_555
F18 Lu3 2.285394 1_554
F18 Lu0 2.285601 1_555
F18 Lu5 2.286343 1_545
F18 K0 2.680526 1_555
F19 Lu2 2.285394 1_556
F19 Lu1 2.285551 1_555
F19 Lu4 2.286344 1_565
F19 K1 2.680567 1_555
