# generated using pymatgen
data_Eu2GeS4
_symmetry_space_group_name_H-M   'P 1'
_cell_length_a   6.79498213
_cell_length_b   6.65200070
_cell_length_c   8.03225588
_cell_angle_alpha   72.03378261
_cell_angle_beta   90.00009835
_cell_angle_gamma   89.99994230
_symmetry_Int_Tables_number   1
_chemical_formula_structural   Eu2GeS4
_chemical_formula_sum   'Eu4 Ge2 S8'
_cell_volume   345.35646003
_cell_formula_units_Z   2
loop_
 _symmetry_equiv_pos_site_id
 _symmetry_equiv_pos_as_xyz
  1  'x, y, z'
loop_
 _atom_site_type_symbol
 _atom_site_label
 _atom_site_symmetry_multiplicity
 _atom_site_fract_x
 _atom_site_fract_y
 _atom_site_fract_z
 _atom_site_occupancy
  Eu  Eu0  1  0.73682371  0.28379725  0.05232621  1
  Eu  Eu1  1  0.23682257  0.71620585  0.94767126  1
  Eu  Eu2  1  0.72695983  0.23975086  0.56504267  1
  Eu  Eu3  1  0.22695987  0.76024475  0.43495746  1
  Ge  Ge0  1  0.76791232  0.73460126  0.19644578  1
  Ge  Ge1  1  0.26791182  0.26539721  0.80355578  1
  S  S0  1  0.81343198  0.91529906  0.91781551  1
  S  S1  1  0.31343113  0.08470493  0.08218719  1
  S  S2  1  0.80088748  0.92950481  0.37437417  1
  S  S3  1  0.30088595  0.07049554  0.62562276  1
  S  S4  1  0.50226471  0.53077659  0.25102618  1
  S  S5  1  0.00226372  0.46922248  0.74897404  1
  S  S6  1  0.50232223  0.51083109  0.73597106  1
  S  S7  1  0.00232269  0.48916732  0.26402894  1
loop_
_geom_bond_atom_site_label_1
_geom_bond_atom_site_label_2
_geom_bond_distance
_geom_bond_site_symmetry_2
Eu0 S2 2.945205 1_545
Eu0 S5 2.976164 1_654
Eu0 S6 2.984841 1_554
Eu0 S0 3.013427 1_544
Eu0 S4 3.066638 1_555
Eu0 S7 3.073362 1_655
Eu0 S1 3.145207 1_555
Eu1 S3 2.945199 1_565
Eu1 S4 2.976186 1_556
Eu1 S7 2.984863 1_556
Eu1 S1 3.013459 1_566
Eu1 S5 3.066640 1_555
Eu1 S6 3.073371 1_555
Eu1 S0 3.145196 1_455
Eu2 S2 2.967619 1_545
Eu2 S6 2.998969 1_555
Eu2 S0 3.042961 1_545
Eu2 S5 3.066494 1_655
Eu2 S4 3.070558 1_555
Eu2 S3 3.090050 1_555
Eu2 S7 3.102385 1_655
Eu3 S3 2.967625 1_565
Eu3 S7 2.998954 1_555
Eu3 S1 3.042972 1_565
Eu3 S4 3.066484 1_555
Eu3 S5 3.070559 1_555
Eu3 S2 3.090048 1_455
Eu3 S6 3.102370 1_555
Ge0 S0 2.211265 1_554
Ge0 S2 2.217367 1_555
Ge0 S4 2.218580 1_555
Ge0 S7 2.224961 1_655
Ge1 S1 2.211262 1_556
Ge1 S3 2.217387 1_555
Ge1 S5 2.218581 1_555
Ge1 S6 2.224965 1_555
