# generated using pymatgen
data_KY(PO3)4
_symmetry_space_group_name_H-M   'P 1'
_cell_length_a   8.44700800
_cell_length_b   7.34971400
_cell_length_c   7.96232552
_cell_angle_alpha   88.50798569
_cell_angle_beta   90.00000000
_cell_angle_gamma   90.00000000
_symmetry_Int_Tables_number   1
_chemical_formula_structural   KY(PO3)4
_chemical_formula_sum   'K2 Y2 P8 O24'
_cell_volume   494.15820085
_cell_formula_units_Z   2
loop_
 _symmetry_equiv_pos_site_id
 _symmetry_equiv_pos_as_xyz
  1  'x, y, z'
loop_
 _atom_site_type_symbol
 _atom_site_label
 _atom_site_symmetry_multiplicity
 _atom_site_fract_x
 _atom_site_fract_y
 _atom_site_fract_z
 _atom_site_occupancy
  K  K0  1  0.05245100  0.73285500  0.71701000  1
  K  K1  1  0.55245100  0.26714500  0.28299000  1
  Y  Y0  1  0.74121300  0.76178100  0.24203800  1
  Y  Y1  1  0.24121300  0.23821900  0.75796200  1
  P  P0  1  0.99255600  0.38683000  0.39796300  1
  P  P1  1  0.49255600  0.61317000  0.60203700  1
  P  P2  1  0.08918500  0.00489500  0.38182800  1
  P  P3  1  0.58918500  0.99510500  0.61817200  1
  P  P4  1  0.32237800  0.90249200  0.09873800  1
  P  P5  1  0.82237800  0.09750800  0.90126200  1
  P  P6  1  0.11537100  0.56564700  0.09210100  1
  P  P7  1  0.61537100  0.43435300  0.90789900  1
  O  O0  1  0.05178100  0.39171000  0.57502800  1
  O  O1  1  0.55178100  0.60829000  0.42497200  1
  O  O2  1  0.83836800  0.47641400  0.35359600  1
  O  O3  1  0.33836800  0.52358600  0.64640400  1
  O  O4  1  0.97954800  0.17927600  0.33927200  1
  O  O5  1  0.47954800  0.82072400  0.66072800  1
  O  O6  1  0.18531300  0.03512400  0.53743000  1
  O  O7  1  0.68531300  0.96487600  0.46257000  1
  O  O8  1  0.98471800  0.83958100  0.38316400  1
  O  O9  1  0.48471800  0.16041900  0.61683600  1
  O  O10  1  0.20272900  0.00984000  0.22048900  1
  O  O11  1  0.70272900  0.99016000  0.77951100  1
  O  O12  1  0.46857400  0.32143300  0.92841700  1
  O  O13  1  0.96857400  0.67856700  0.07158300  1
  O  O14  1  0.64511700  0.56924300  0.04271800  1
  O  O15  1  0.14511700  0.43075700  0.95728200  1
  O  O16  1  0.77017800  0.30784800  0.89342800  1
  O  O17  1  0.27017800  0.69215200  0.10657200  1
  O  O18  1  0.63077500  0.53492700  0.72567100  1
  O  O19  1  0.13077500  0.46507300  0.27432900  1
  O  O20  1  0.79133000  0.01915400  0.07426000  1
  O  O21  1  0.29133000  0.98084600  0.92574000  1
  O  O22  1  0.98524600  0.09046700  0.82820700  1
  O  O23  1  0.48524600  0.90953300  0.17179300  1
loop_
_geom_bond_atom_site_label_1
_geom_bond_atom_site_label_2
_geom_bond_distance
_geom_bond_site_symmetry_2
K0 O0 2.777109 1_555
K0 O8 2.810700 1_455
K0 O6 2.841498 1_565
K0 O22 2.852290 1_465
K0 O3 2.925688 1_555
K0 O13 2.927991 1_456
K0 O15 2.996902 1_555
K0 O21 3.211476 1_555
K1 O1 2.777109 1_555
K1 O9 2.810700 1_555
K1 O7 2.841498 1_545
K1 O23 2.852290 1_545
K1 O2 2.925688 1_555
K1 O12 2.927991 1_554
K1 O14 2.996902 1_555
K1 O20 3.211476 1_555
O0 P0 1.497287 1_455
O0 Y1 2.422628 1_555
O1 P1 1.497287 1_555
O1 Y0 2.422628 1_555
O2 P0 1.497502 1_555
O2 Y0 2.400923 1_555
O3 P1 1.497502 1_555
O3 Y1 2.400923 1_555
O4 P2 1.610124 1_655
O4 P0 1.610782 1_555
O5 P3 1.610124 1_555
O5 P1 1.610782 1_555
O6 P2 1.502676 1_555
O6 Y1 2.381372 1_555
O7 P3 1.502676 1_555
O7 Y0 2.381372 1_555
O8 P2 1.501459 1_665
O8 Y0 2.419483 1_555
O9 P3 1.501459 1_545
O9 Y1 2.419483 1_555
O10 P2 1.602829 1_555
O10 P4 1.619740 1_545
O11 P3 1.602829 1_555
O11 P5 1.619740 1_565
O12 P7 1.498667 1_555
O12 Y1 2.438795 1_555
O13 P6 1.498667 1_655
O13 Y0 2.438795 1_555
O14 P7 1.501259 1_554
O14 Y0 2.301539 1_555
O15 P6 1.501259 1_556
O15 Y1 2.301539 1_555
O16 P5 1.607239 1_555
O16 P7 1.610373 1_555
O17 P4 1.607239 1_555
O17 P6 1.610373 1_555
O18 P7 1.616404 1_555
O18 P1 1.622785 1_555
O19 P6 1.616404 1_555
O19 P0 1.622785 1_455
O20 P5 1.502173 1_554
O20 Y0 2.326043 1_545
O21 P4 1.502173 1_556
O21 Y1 2.326043 1_565
O22 P5 1.495088 1_555
O22 Y1 2.476968 1_655
O23 P4 1.495088 1_555
O23 Y0 2.476968 1_555
