# generated using pymatgen
data_K2CaMg5Si8(HO12)2
_symmetry_space_group_name_H-M   'P 1'
_cell_length_a   5.33945400
_cell_length_b   10.30823622
_cell_length_c   10.51258369
_cell_angle_alpha   115.14549775
_cell_angle_beta   97.36160954
_cell_angle_gamma   104.87035477
_symmetry_Int_Tables_number   1
_chemical_formula_structural   K2CaMg5Si8(HO12)2
_chemical_formula_sum   'K2 Ca1 Mg5 Si8 H2 O24'
_cell_volume   487.28342144
_cell_formula_units_Z   1
loop_
 _symmetry_equiv_pos_site_id
 _symmetry_equiv_pos_as_xyz
  1  'x, y, z'
loop_
 _atom_site_type_symbol
 _atom_site_label
 _atom_site_symmetry_multiplicity
 _atom_site_fract_x
 _atom_site_fract_y
 _atom_site_fract_z
 _atom_site_occupancy
  K  K0  1  0.48714300  0.50992200  0.00274400  1
  K  K1  1  0.21483900  0.71496600  0.43021400  1
  Ca  Ca0  1  0.77759400  0.27766500  0.55605200  1
  Mg  Mg0  1  0.41076300  0.91096900  0.82120500  1
  Mg  Mg1  1  0.58840500  0.08871100  0.17666000  1
  Mg  Mg2  1  0.81816500  0.81815700  0.63625400  1
  Mg  Mg3  1  0.17873700  0.17883600  0.35744000  1
  Mg  Mg4  1  0.99955700  0.99951300  0.99821300  1
  Si  Si0  1  0.30046700  0.11302200  0.65916500  1
  Si  Si1  1  0.63722200  0.44944200  0.34216200  1
  Si  Si2  1  0.70512300  0.89312900  0.34242400  1
  Si  Si3  1  0.35861500  0.54635700  0.65884000  1
  Si  Si4  1  0.88068400  0.18544100  0.82941300  1
  Si  Si5  1  0.04632600  0.35204600  0.16787600  1
  Si  Si6  1  0.12129800  0.81594000  0.16780500  1
  Si  Si7  1  0.94853000  0.64413500  0.82942700  1
  H  H0  1  0.44608100  0.20058600  0.00098600  1
  H  H1  1  0.55435600  0.80116500  0.00094000  1
  O  O0  1  0.02099900  0.32546300  0.99909400  1
  O  O1  1  0.97870700  0.67321700  0.99912500  1
  O  O2  1  0.80125800  0.02220000  0.82639000  1
  O  O3  1  0.97478500  0.19331300  0.17423000  1
  O  O4  1  0.19965500  0.98094500  0.17412200  1
  O  O5  1  0.02537600  0.80438300  0.82652300  1
  O  O6  1  0.10357900  0.21293300  0.73850000  1
  O  O7  1  0.36265000  0.46103800  0.25398100  1
  O  O8  1  0.89093000  0.79321200  0.25382500  1
  O  O9  1  0.63469200  0.52607000  0.73873900  1
  O  O10  1  0.22044300  0.95621500  0.66914900  1
  O  O11  1  0.56192100  0.28660600  0.34599600  1
  O  O12  1  0.78373700  0.05955200  0.34599600  1
  O  O13  1  0.44837800  0.71321800  0.66912700  1
  O  O14  1  0.62158300  0.22285300  0.76888900  1
  O  O15  1  0.83558500  0.44110200  0.22614100  1
  O  O16  1  0.39066200  0.78494800  0.22576400  1
  O  O17  1  0.14816100  0.54658300  0.76945900  1
  O  O18  1  0.38892700  0.10380100  0.00187600  1
  O  O19  1  0.61378000  0.89884600  0.00193900  1
  O  O20  1  0.32440000  0.12310900  0.51201000  1
  O  O21  1  0.78068000  0.59991600  0.49460900  1
  O  O22  1  0.71314700  0.89451800  0.49450600  1
  O  O23  1  0.18706000  0.38895600  0.51218700  1
loop_
_geom_bond_atom_site_label_1
_geom_bond_atom_site_label_2
_geom_bond_distance
_geom_bond_site_symmetry_2
K0 O0 2.701167 1_554
K0 O1 2.745217 1_554
K0 O8 2.983738 1_555
K0 O7 3.013383 1_555
K0 O16 3.034799 1_555
K0 O9 3.039196 1_554
K0 O6 3.062696 1_554
K0 O17 3.071553 1_554
K0 O15 3.233211 1_555
K0 O14 3.267396 1_554
K1 O22 2.628732 1_555
K1 O21 2.629076 1_455
K1 O13 2.666603 1_555
K1 O10 2.669944 1_555
K1 O15 2.734655 1_455
K1 O16 2.740138 1_555
K1 O7 2.867161 1_555
K1 O8 2.871477 1_455
Ca0 O20 2.390686 1_555
Ca0 O23 2.393604 1_655
Ca0 O12 2.401988 1_555
Ca0 O11 2.405553 1_555
Ca0 O14 2.707366 1_555
Ca0 O17 2.719290 1_655
Ca0 O6 2.825219 1_655
Ca0 O9 2.833095 1_555
Mg0 O10 2.065431 1_555
Mg0 O13 2.067476 1_555
Mg0 O2 2.087033 1_565
Mg0 O5 2.089475 1_555
Mg0 O18 2.130593 1_566
Mg0 O19 2.131694 1_556
Mg1 O3 2.077175 1_555
Mg1 O4 2.078568 1_545
Mg1 O18 2.088351 1_555
Mg1 O19 2.089839 1_545
Mg1 O11 2.115845 1_555
Mg1 O12 2.118239 1_555
Mg2 O22 2.040535 1_555
Mg2 O21 2.040601 1_555
Mg2 O10 2.140333 1_655
Mg2 O13 2.141113 1_555
Mg2 O2 2.235675 1_565
Mg2 O5 2.236071 1_655
Mg3 O20 2.067370 1_555
Mg3 O23 2.068197 1_555
Mg3 O11 2.108256 1_555
Mg3 O12 2.110173 1_455
Mg3 O3 2.169765 1_455
Mg3 O4 2.172282 1_545
Mg4 O18 2.068007 1_666
Mg4 O19 2.068673 1_556
Mg4 O2 2.105820 1_565
Mg4 O5 2.107935 1_655
Mg4 O3 2.118783 1_566
Mg4 O4 2.120695 1_656
H0 O18 0.970042 1_555
H1 O19 0.969973 1_555
H1 K0 2.939301 1_555
O0 Si4 1.655589 1_455
O0 Si5 1.657689 1_556
O1 Si7 1.656928 1_555
O1 Si6 1.658498 1_656
O2 Si4 1.611599 1_555
O3 Si5 1.614414 1_655
O4 Si6 1.613748 1_555
O5 Si7 1.611260 1_455
O6 Si4 1.660936 1_455
O6 Si0 1.706428 1_555
O7 Si5 1.644481 1_555
O7 Si1 1.690806 1_555
O8 Si6 1.644023 1_655
O8 Si2 1.690751 1_555
O9 Si7 1.660099 1_555
O9 Si3 1.706580 1_555
O10 Si0 1.614783 1_565
O11 Si1 1.641971 1_555
O12 Si2 1.640808 1_545
O13 Si3 1.614145 1_555
O14 Si4 1.650550 1_555
O14 Si0 1.714386 1_555
O15 Si5 1.647133 1_655
O15 Si1 1.704547 1_555
O16 Si6 1.648812 1_555
O16 Si2 1.707585 1_555
O17 Si7 1.651798 1_455
O17 Si3 1.717253 1_555
O20 Si0 1.612708 1_555
O21 Si1 1.588743 1_555
O22 Si2 1.587702 1_555
O23 Si3 1.611815 1_555
