# generated using pymatgen
data_Er4Cu5P7
_symmetry_space_group_name_H-M   'P 1'
_cell_length_a   10.25137239
_cell_length_b   10.25137239
_cell_length_c   10.25137239
_cell_angle_alpha   150.27426614
_cell_angle_beta   150.27426614
_cell_angle_gamma   42.53895880
_symmetry_Int_Tables_number   1
_chemical_formula_structural   Er4Cu5P7
_chemical_formula_sum   'Er4 Cu5 P7'
_cell_volume   264.21939118
_cell_formula_units_Z   1
loop_
 _symmetry_equiv_pos_site_id
 _symmetry_equiv_pos_as_xyz
  1  'x, y, z'
loop_
 _atom_site_type_symbol
 _atom_site_label
 _atom_site_symmetry_multiplicity
 _atom_site_fract_x
 _atom_site_fract_y
 _atom_site_fract_z
 _atom_site_occupancy
  Er  Er0  1  0.62474900  0.14459300  0.00000000  1
  Er  Er1  1  0.14459300  0.62474900  0.00000000  1
  Er  Er2  1  0.37525100  0.37525100  0.51984400  1
  Er  Er3  1  0.85540700  0.85540700  0.48015600  1
  Cu  Cu0  1  0.74967400  0.74967400  0.00000000  1
  Cu  Cu1  1  0.25032600  0.25032600  0.00000000  1
  Cu  Cu2  1  0.25000000  0.75000000  0.50000000  1
  Cu  Cu3  1  0.75000000  0.25000000  0.50000000  1
  Cu  Cu4  1  0.00000000  0.00000000  0.00000000  1
  P  P0  1  0.41546200  0.92480700  0.00000000  1
  P  P1  1  0.92480700  0.41546200  0.00000000  1
  P  P2  1  0.58453800  0.58453800  0.50934600  1
  P  P3  1  0.07519300  0.07519300  0.49065400  1
  P  P4  1  0.50000000  0.50000000  0.00000000  1
  P  P5  1  0.50000000  0.00000000  0.50000000  1
  P  P6  1  0.00000000  0.50000000  0.50000000  1
loop_
_geom_bond_atom_site_label_1
_geom_bond_atom_site_label_2
_geom_bond_distance
_geom_bond_site_symmetry_2
Er0 P3 2.805784 1_554
Er0 P2 2.805791 1_555
Er0 P4 2.836137 1_555
Er0 P3 2.857057 1_655
Er0 P2 2.857064 1_544
Er0 P6 2.884111 1_655
Er0 P5 2.884111 1_554
Er1 P3 2.805784 1_554
Er1 P2 2.805791 1_555
Er1 P4 2.836137 1_555
Er1 P3 2.857057 1_565
Er1 P2 2.857064 1_454
Er1 P6 2.884111 1_554
Er1 P5 2.884111 1_565
Er2 P1 2.805785 1_556
Er2 P0 2.805785 1_556
Er2 P4 2.836137 1_556
Er2 P1 2.857063 1_455
Er2 P0 2.857063 1_545
Er2 P5 2.884111 1_555
Er2 P6 2.884111 1_555
Er3 P0 2.805785 1_555
Er3 P1 2.805785 1_555
Er3 P4 2.836137 1_555
Er3 P1 2.857063 1_566
Er3 P0 2.857063 1_656
Er3 P6 2.884111 1_655
Er3 P5 2.884111 1_565
Cu0 P2 2.382578 1_554
Cu0 P3 2.382590 1_665
Cu0 P1 2.428408 1_555
Cu0 P0 2.428408 1_555
Cu1 P1 2.382587 1_455
Cu1 P0 2.382587 1_545
Cu1 P2 2.428405 1_555
Cu1 P3 2.428417 1_554
Cu2 P2 2.405593 1_555
Cu2 P1 2.405599 1_455
Cu2 P0 2.405599 1_556
Cu2 P3 2.405605 1_565
Cu3 P2 2.405593 1_555
Cu3 P1 2.405599 1_556
Cu3 P0 2.405599 1_545
Cu3 P3 2.405605 1_655
Cu4 P5 2.629543 1_454
Cu4 P5 2.629543 1_555
Cu4 P6 2.629543 1_544
Cu4 P6 2.629543 1_555
Cu4 Er3 2.931300 1_444
Cu4 Er0 2.931300 1_455
Cu4 Er2 2.931300 1_555
Cu4 Er1 2.931300 1_545
P4 P6 2.629543 1_655
P4 P5 2.629543 1_554
P4 P6 2.629543 1_554
P4 P5 2.629543 1_565
