# generated using pymatgen
data_YNp3
_symmetry_space_group_name_H-M   'P 1'
_cell_length_a   5.63436369
_cell_length_b   5.63436369
_cell_length_c   5.63436369
_cell_angle_alpha   131.81711759
_cell_angle_beta   131.81711759
_cell_angle_gamma   70.51802357
_symmetry_Int_Tables_number   1
_chemical_formula_structural   YNp3
_chemical_formula_sum   'Y1 Np3'
_cell_volume   97.34446296
_cell_formula_units_Z   1
loop_
 _symmetry_equiv_pos_site_id
 _symmetry_equiv_pos_as_xyz
  1  'x, y, z'
loop_
 _atom_site_type_symbol
 _atom_site_label
 _atom_site_symmetry_multiplicity
 _atom_site_fract_x
 _atom_site_fract_y
 _atom_site_fract_z
 _atom_site_occupancy
  Y  Y0  1  0.00000000  0.00000000  0.00000000  1
  Np  Np0  1  0.75000000  0.25000000  0.50000000  1
  Np  Np1  1  0.25000000  0.75000000  0.50000000  1
  Np  Np2  1  0.50000000  0.50000000  0.00000000  1
loop_
_geom_bond_atom_site_label_1
_geom_bond_atom_site_label_2
_geom_bond_distance
_geom_bond_site_symmetry_2
Np0 Np1 3.252570 1_555
Np0 Np1 3.252570 1_645
Np0 Np1 3.252570 1_656
Np0 Np1 3.252570 1_544
Np0 Np2 3.252893 1_545
Np0 Y0 3.252893 1_555
Np0 Y0 3.252893 1_656
Np0 Np2 3.252893 1_556
Np0 Np2 3.252893 1_656
Np0 Y0 3.252893 1_655
Np0 Y0 3.252893 1_666
Np0 Np2 3.252893 1_555
Np1 Y0 3.252893 1_566
Np1 Np2 3.252893 1_455
Np1 Y0 3.252893 1_555
Np1 Y0 3.252893 1_565
Np1 Np2 3.252893 1_556
Np1 Y0 3.252893 1_666
Np1 Np2 3.252893 1_566
Np1 Np2 3.252893 1_555
Np2 Y0 3.252570 1_655
Np2 Y0 3.252570 1_666
Np2 Y0 3.252570 1_554
Np2 Y0 3.252570 1_565
