# generated using pymatgen
data_CsCa2Ta3O10
_symmetry_space_group_name_H-M   'P 1'
_cell_length_a   3.95063400
_cell_length_b   3.95063400
_cell_length_c   15.51355200
_cell_angle_alpha   90.00000000
_cell_angle_beta   90.00000000
_cell_angle_gamma   90.00000000
_symmetry_Int_Tables_number   1
_chemical_formula_structural   CsCa2Ta3O10
_chemical_formula_sum   'Cs1 Ca2 Ta3 O10'
_cell_volume   242.12790249
_cell_formula_units_Z   1
loop_
 _symmetry_equiv_pos_site_id
 _symmetry_equiv_pos_as_xyz
  1  'x, y, z'
loop_
 _atom_site_type_symbol
 _atom_site_label
 _atom_site_symmetry_multiplicity
 _atom_site_fract_x
 _atom_site_fract_y
 _atom_site_fract_z
 _atom_site_occupancy
  Cs  Cs0  1  0.50000000  0.50000000  0.50000000  1
  Ca  Ca0  1  0.50000000  0.50000000  0.85189300  1
  Ca  Ca1  1  0.50000000  0.50000000  0.14810700  1
  Ta  Ta0  1  0.00000000  0.00000000  0.00000000  1
  Ta  Ta1  1  0.00000000  0.00000000  0.27543800  1
  Ta  Ta2  1  0.00000000  0.00000000  0.72456200  1
  O  O0  1  0.00000000  0.00000000  0.60863500  1
  O  O1  1  0.00000000  0.00000000  0.39136500  1
  O  O2  1  0.50000000  0.00000000  0.75124800  1
  O  O3  1  0.00000000  0.50000000  0.75124800  1
  O  O4  1  0.50000000  0.00000000  0.24875200  1
  O  O5  1  0.00000000  0.50000000  0.24875200  1
  O  O6  1  0.00000000  0.50000000  0.00000000  1
  O  O7  1  0.50000000  0.00000000  0.00000000  1
  O  O8  1  0.00000000  0.00000000  0.12695800  1
  O  O9  1  0.00000000  0.00000000  0.87304200  1
loop_
_geom_bond_atom_site_label_1
_geom_bond_atom_site_label_2
_geom_bond_distance
_geom_bond_site_symmetry_2
Cs0 O1 3.262521 1_665
Cs0 O1 3.262521 1_655
Cs0 O1 3.262521 1_555
Cs0 O1 3.262521 1_565
Cs0 O0 3.262521 1_555
Cs0 O0 3.262521 1_565
Cs0 O0 3.262521 1_665
Cs0 O0 3.262521 1_655
Ca0 O2 2.517881 1_555
Ca0 O3 2.517881 1_555
Ca0 O3 2.517881 1_655
Ca0 O2 2.517881 1_565
Ca0 O9 2.812721 1_565
Ca0 O9 2.812721 1_555
Ca0 O9 2.812721 1_655
Ca0 O9 2.812721 1_665
Ca0 O6 3.030040 1_556
Ca0 O7 3.030040 1_556
Ca0 O6 3.030040 1_656
Ca0 O7 3.030040 1_566
Ca1 O5 2.517881 1_655
Ca1 O4 2.517881 1_565
Ca1 O4 2.517881 1_555
Ca1 O5 2.517881 1_555
Ca1 O8 2.812721 1_555
Ca1 O8 2.812721 1_665
Ca1 O8 2.812721 1_565
Ca1 O8 2.812721 1_655
Ca1 O7 3.030040 1_565
Ca1 O7 3.030040 1_555
Ca1 O6 3.030040 1_555
Ca1 O6 3.030040 1_655
O0 Ta2 1.798440 1_555
O1 Ta1 1.798440 1_555
O2 Ta2 2.018234 1_555
O2 Ta2 2.018234 1_655
O3 Ta2 2.018234 1_565
O3 Ta2 2.018234 1_555
O4 Ta1 2.018234 1_555
O4 Ta1 2.018234 1_655
O5 Ta1 2.018234 1_565
O5 Ta1 2.018234 1_555
O6 Ta0 1.975317 1_555
O6 Ta0 1.975317 1_565
O7 Ta0 1.975317 1_655
O7 Ta0 1.975317 1_555
O8 Ta0 1.969570 1_555
O8 Ta1 2.303452 1_555
O9 Ta0 1.969570 1_556
O9 Ta2 2.303452 1_555
