# generated using pymatgen
data_Tb11In9Pd4
_symmetry_space_group_name_H-M   'P 1'
_cell_length_a   26.40717303
_cell_length_b   26.40717303
_cell_length_c   7.35945796
_cell_angle_alpha   90.00000000
_cell_angle_beta   90.00000000
_cell_angle_gamma   112.81728409
_symmetry_Int_Tables_number   1
_chemical_formula_structural   Tb11In9Pd4
_chemical_formula_sum   'Tb88 In72 Pd32'
_cell_volume   4730.43426245
_cell_formula_units_Z   8
loop_
 _symmetry_equiv_pos_site_id
 _symmetry_equiv_pos_as_xyz
  1  'x, y, z'
loop_
 _atom_site_type_symbol
 _atom_site_label
 _atom_site_symmetry_multiplicity
 _atom_site_fract_x
 _atom_site_fract_y
 _atom_site_fract_z
 _atom_site_occupancy
  Tb  Tb0_0  1  0.20686478  0.03599969  0.00000000  1
  Tb  Tb0_1  1  0.20686478  0.03599969  0.50000000  1
  Tb  Tb0_2  1  0.20686479  0.53599969  0.00000000  1
  Tb  Tb0_3  1  0.20686479  0.53599969  0.50000000  1
  Tb  Tb0_4  1  0.70686479  0.03599969  0.00000000  1
  Tb  Tb0_5  1  0.70686479  0.03599969  0.50000000  1
  Tb  Tb0_6  1  0.70686478  0.53599969  0.00000000  1
  Tb  Tb0_7  1  0.70686478  0.53599969  0.50000000  1
  Tb  Tb1_0  1  0.29313522  0.46400030  0.00000000  1
  Tb  Tb1_1  1  0.29313522  0.46400030  0.50000000  1
  Tb  Tb1_2  1  0.29313522  0.96400030  0.00000000  1
  Tb  Tb1_3  1  0.29313522  0.96400030  0.50000000  1
  Tb  Tb1_4  1  0.79313522  0.46400030  0.00000000  1
  Tb  Tb1_5  1  0.79313522  0.46400030  0.50000000  1
  Tb  Tb1_6  1  0.79313522  0.96400030  0.00000000  1
  Tb  Tb1_7  1  0.79313522  0.96400030  0.50000000  1
  Tb  Tb2_0  1  0.03599969  0.20686478  0.00000000  1
  Tb  Tb2_1  1  0.03599969  0.20686478  0.50000000  1
  Tb  Tb2_2  1  0.03599970  0.70686478  0.00000000  1
  Tb  Tb2_3  1  0.03599970  0.70686478  0.50000000  1
  Tb  Tb2_4  1  0.53599969  0.20686478  0.00000000  1
  Tb  Tb2_5  1  0.53599969  0.20686478  0.50000000  1
  Tb  Tb2_6  1  0.53599969  0.70686478  0.00000000  1
  Tb  Tb2_7  1  0.53599969  0.70686478  0.50000000  1
  Tb  Tb3_0  1  0.46400031  0.29313521  0.00000000  1
  Tb  Tb3_1  1  0.46400031  0.29313521  0.50000000  1
  Tb  Tb3_2  1  0.46400031  0.79313521  0.00000000  1
  Tb  Tb3_3  1  0.46400031  0.79313521  0.50000000  1
  Tb  Tb3_4  1  0.96400031  0.29313521  0.00000000  1
  Tb  Tb3_5  1  0.96400031  0.29313521  0.50000000  1
  Tb  Tb3_6  1  0.96400031  0.79313521  0.00000000  1
  Tb  Tb3_7  1  0.96400031  0.79313521  0.50000000  1
  Tb  Tb4_0  1  0.08012736  0.41987264  0.00000000  1
  Tb  Tb4_1  1  0.08012736  0.41987264  0.50000000  1
  Tb  Tb4_2  1  0.08012736  0.91987264  0.00000000  1
  Tb  Tb4_3  1  0.08012736  0.91987264  0.50000000  1
  Tb  Tb4_4  1  0.58012736  0.41987264  0.00000000  1
  Tb  Tb4_5  1  0.58012736  0.41987264  0.50000000  1
  Tb  Tb4_6  1  0.58012736  0.91987264  0.00000000  1
  Tb  Tb4_7  1  0.58012736  0.91987264  0.50000000  1
  Tb  Tb5_0  1  0.41987264  0.08012736  0.00000000  1
  Tb  Tb5_1  1  0.41987264  0.08012736  0.50000000  1
  Tb  Tb5_2  1  0.41987264  0.58012736  0.00000000  1
  Tb  Tb5_3  1  0.41987264  0.58012736  0.50000000  1
  Tb  Tb5_4  1  0.91987264  0.08012736  0.00000000  1
  Tb  Tb5_5  1  0.91987264  0.08012736  0.50000000  1
  Tb  Tb5_6  1  0.91987264  0.58012736  0.00000000  1
  Tb  Tb5_7  1  0.91987264  0.58012736  0.50000000  1
  Tb  Tb6_0  1  0.18624346  0.31375654  0.00000000  1
  Tb  Tb6_1  1  0.18624346  0.31375654  0.50000000  1
  Tb  Tb6_2  1  0.18624346  0.81375654  0.00000000  1
  Tb  Tb6_3  1  0.18624346  0.81375654  0.50000000  1
  Tb  Tb6_4  1  0.68624345  0.31375654  0.00000000  1
  Tb  Tb6_5  1  0.68624345  0.31375654  0.50000000  1
  Tb  Tb6_6  1  0.68624346  0.81375654  0.00000000  1
  Tb  Tb6_7  1  0.68624346  0.81375654  0.50000000  1
  Tb  Tb7_0  1  0.31375654  0.18624345  0.00000000  1
  Tb  Tb7_1  1  0.31375654  0.18624345  0.50000000  1
  Tb  Tb7_2  1  0.31375654  0.68624345  0.00000000  1
  Tb  Tb7_3  1  0.31375654  0.68624345  0.50000000  1
  Tb  Tb7_4  1  0.81375654  0.18624345  0.00000000  1
  Tb  Tb7_5  1  0.81375654  0.18624345  0.50000000  1
  Tb  Tb7_6  1  0.81375655  0.68624345  0.00000000  1
  Tb  Tb7_7  1  0.81375655  0.68624345  0.50000000  1
  Tb  Tb8_0  1  0.15425975  0.15425974  0.00000000  1
  Tb  Tb8_1  1  0.15425975  0.15425974  0.50000000  1
  Tb  Tb8_2  1  0.15425975  0.65425974  0.00000000  1
  Tb  Tb8_3  1  0.15425975  0.65425974  0.50000000  1
  Tb  Tb8_4  1  0.65425974  0.15425974  0.00000000  1
  Tb  Tb8_5  1  0.65425974  0.15425974  0.50000000  1
  Tb  Tb8_6  1  0.65425974  0.65425974  0.00000000  1
  Tb  Tb8_7  1  0.65425974  0.65425974  0.50000000  1
  Tb  Tb9_0  1  0.34574026  0.34574025  0.00000000  1
  Tb  Tb9_1  1  0.34574026  0.34574025  0.50000000  1
  Tb  Tb9_2  1  0.34574026  0.84574025  0.00000000  1
  Tb  Tb9_3  1  0.34574026  0.84574025  0.50000000  1
  Tb  Tb9_4  1  0.84574026  0.34574025  0.00000000  1
  Tb  Tb9_5  1  0.84574026  0.34574025  0.50000000  1
  Tb  Tb9_6  1  0.84574026  0.84574025  0.00000000  1
  Tb  Tb9_7  1  0.84574026  0.84574025  0.50000000  1
  Tb  Tb10_0  1  0.00000000  0.00000000  0.00000000  1
  Tb  Tb10_1  1  0.00000000  0.00000000  0.50000000  1
  Tb  Tb10_2  1  0.00000000  0.50000000  0.00000000  1
  Tb  Tb10_3  1  0.00000000  0.50000000  0.50000000  1
  Tb  Tb10_4  1  0.50000000  0.00000000  0.00000000  1
  Tb  Tb10_5  1  0.50000000  0.00000000  0.50000000  1
  Tb  Tb10_6  1  0.50000000  0.50000000  0.00000000  1
  Tb  Tb10_7  1  0.50000000  0.50000000  0.50000000  1
  In  In0_0  1  0.18350009  0.42094735  0.25000000  1
  In  In0_1  1  0.18350009  0.42094735  0.75000000  1
  In  In0_2  1  0.18350009  0.92094736  0.25000000  1
  In  In0_3  1  0.18350009  0.92094736  0.75000000  1
  In  In0_4  1  0.68350009  0.42094735  0.25000000  1
  In  In0_5  1  0.68350009  0.42094735  0.75000000  1
  In  In0_6  1  0.68350009  0.92094735  0.25000000  1
  In  In0_7  1  0.68350009  0.92094735  0.75000000  1
  In  In1_0  1  0.31649991  0.07905264  0.25000000  1
  In  In1_1  1  0.31649991  0.07905264  0.75000000  1
  In  In1_2  1  0.31649991  0.57905264  0.25000000  1
  In  In1_3  1  0.31649991  0.57905264  0.75000000  1
  In  In1_4  1  0.81649991  0.07905264  0.25000000  1
  In  In1_5  1  0.81649991  0.07905264  0.75000000  1
  In  In1_6  1  0.81649991  0.57905264  0.25000000  1
  In  In1_7  1  0.81649991  0.57905264  0.75000000  1
  In  In2_0  1  0.42094736  0.18350009  0.25000000  1
  In  In2_1  1  0.42094736  0.18350009  0.75000000  1
  In  In2_2  1  0.42094736  0.68350009  0.25000000  1
  In  In2_3  1  0.42094736  0.68350009  0.75000000  1
  In  In2_4  1  0.92094736  0.18350009  0.25000000  1
  In  In2_5  1  0.92094736  0.18350009  0.75000000  1
  In  In2_6  1  0.92094736  0.68350009  0.25000000  1
  In  In2_7  1  0.92094736  0.68350009  0.75000000  1
  In  In3_0  1  0.07905265  0.31649991  0.25000000  1
  In  In3_1  1  0.07905265  0.31649991  0.75000000  1
  In  In3_2  1  0.07905265  0.81649991  0.25000000  1
  In  In3_3  1  0.07905265  0.81649991  0.75000000  1
  In  In3_4  1  0.57905264  0.31649991  0.25000000  1
  In  In3_5  1  0.57905264  0.31649991  0.75000000  1
  In  In3_6  1  0.57905265  0.81649991  0.25000000  1
  In  In3_7  1  0.57905265  0.81649991  0.75000000  1
  In  In4_0  1  0.10822515  0.03692500  0.25000000  1
  In  In4_1  1  0.10822515  0.03692500  0.75000000  1
  In  In4_2  1  0.10822515  0.53692500  0.25000000  1
  In  In4_3  1  0.10822515  0.53692500  0.75000000  1
  In  In4_4  1  0.60822515  0.03692500  0.25000000  1
  In  In4_5  1  0.60822515  0.03692500  0.75000000  1
  In  In4_6  1  0.60822515  0.53692499  0.25000000  1
  In  In4_7  1  0.60822515  0.53692499  0.75000000  1
  In  In5_0  1  0.39177485  0.46307500  0.25000000  1
  In  In5_1  1  0.39177485  0.46307500  0.75000000  1
  In  In5_2  1  0.39177485  0.96307500  0.25000000  1
  In  In5_3  1  0.39177485  0.96307500  0.75000000  1
  In  In5_4  1  0.89177485  0.46307500  0.25000000  1
  In  In5_5  1  0.89177485  0.46307500  0.75000000  1
  In  In5_6  1  0.89177485  0.96307500  0.25000000  1
  In  In5_7  1  0.89177485  0.96307500  0.75000000  1
  In  In6_0  1  0.03692500  0.10822515  0.25000000  1
  In  In6_1  1  0.03692500  0.10822515  0.75000000  1
  In  In6_2  1  0.03692500  0.60822515  0.25000000  1
  In  In6_3  1  0.03692500  0.60822515  0.75000000  1
  In  In6_4  1  0.53692500  0.10822515  0.25000000  1
  In  In6_5  1  0.53692500  0.10822515  0.75000000  1
  In  In6_6  1  0.53692500  0.60822515  0.25000000  1
  In  In6_7  1  0.53692500  0.60822515  0.75000000  1
  In  In7_0  1  0.46307501  0.39177485  0.25000000  1
  In  In7_1  1  0.46307501  0.39177485  0.75000000  1
  In  In7_2  1  0.46307501  0.89177485  0.25000000  1
  In  In7_3  1  0.46307501  0.89177485  0.75000000  1
  In  In7_4  1  0.96307500  0.39177485  0.25000000  1
  In  In7_5  1  0.96307500  0.39177485  0.75000000  1
  In  In7_6  1  0.96307501  0.89177485  0.25000000  1
  In  In7_7  1  0.96307501  0.89177485  0.75000000  1
  In  In8_0  1  0.25000000  0.25000000  0.25000000  1
  In  In8_1  1  0.25000000  0.25000000  0.75000000  1
  In  In8_2  1  0.25000000  0.75000000  0.25000000  1
  In  In8_3  1  0.25000000  0.75000000  0.75000000  1
  In  In8_4  1  0.75000000  0.25000000  0.25000000  1
  In  In8_5  1  0.75000000  0.25000000  0.75000000  1
  In  In8_6  1  0.75000000  0.75000000  0.25000000  1
  In  In8_7  1  0.75000000  0.75000000  0.75000000  1
  Pd  Pd0_0  1  0.22433772  0.12288933  0.25000000  1
  Pd  Pd0_1  1  0.22433772  0.12288933  0.75000000  1
  Pd  Pd0_2  1  0.22433772  0.62288933  0.25000000  1
  Pd  Pd0_3  1  0.22433772  0.62288933  0.75000000  1
  Pd  Pd0_4  1  0.72433771  0.12288933  0.25000000  1
  Pd  Pd0_5  1  0.72433771  0.12288933  0.75000000  1
  Pd  Pd0_6  1  0.72433771  0.62288933  0.25000000  1
  Pd  Pd0_7  1  0.72433771  0.62288933  0.75000000  1
  Pd  Pd1_0  1  0.27566229  0.37711067  0.25000000  1
  Pd  Pd1_1  1  0.27566229  0.37711067  0.75000000  1
  Pd  Pd1_2  1  0.27566229  0.87711066  0.25000000  1
  Pd  Pd1_3  1  0.27566229  0.87711066  0.75000000  1
  Pd  Pd1_4  1  0.77566229  0.37711066  0.25000000  1
  Pd  Pd1_5  1  0.77566229  0.37711066  0.75000000  1
  Pd  Pd1_6  1  0.77566229  0.87711067  0.25000000  1
  Pd  Pd1_7  1  0.77566229  0.87711067  0.75000000  1
  Pd  Pd2_0  1  0.12288934  0.22433771  0.25000000  1
  Pd  Pd2_1  1  0.12288934  0.22433771  0.75000000  1
  Pd  Pd2_2  1  0.12288934  0.72433771  0.25000000  1
  Pd  Pd2_3  1  0.12288934  0.72433771  0.75000000  1
  Pd  Pd2_4  1  0.62288933  0.22433771  0.25000000  1
  Pd  Pd2_5  1  0.62288933  0.22433771  0.75000000  1
  Pd  Pd2_6  1  0.62288934  0.72433771  0.25000000  1
  Pd  Pd2_7  1  0.62288934  0.72433771  0.75000000  1
  Pd  Pd3_0  1  0.37711067  0.27566229  0.25000000  1
  Pd  Pd3_1  1  0.37711067  0.27566229  0.75000000  1
  Pd  Pd3_2  1  0.37711067  0.77566228  0.25000000  1
  Pd  Pd3_3  1  0.37711067  0.77566228  0.75000000  1
  Pd  Pd3_4  1  0.87711067  0.27566228  0.25000000  1
  Pd  Pd3_5  1  0.87711067  0.27566228  0.75000000  1
  Pd  Pd3_6  1  0.87711067  0.77566229  0.25000000  1
  Pd  Pd3_7  1  0.87711067  0.77566229  0.75000000  1
loop_
_geom_bond_atom_site_label_1
_geom_bond_atom_site_label_2
_geom_bond_distance
_geom_bond_site_symmetry_2
Tb0_0 Tb4_2 3.555964 1_545
Tb0_1 Tb4_3 3.555964 1_545
Tb0_2 Tb4_0 3.555964 1_555
Tb0_3 Tb4_1 3.555964 1_555
Tb0_4 Tb4_6 3.555964 1_545
Tb0_5 Tb4_7 3.555964 1_545
Tb0_6 Tb4_4 3.555964 1_555
Tb0_7 Tb4_5 3.555964 1_555
Tb1_0 Tb5_2 3.555964 1_555
Tb1_1 Tb5_3 3.555964 1_555
Tb1_2 Tb5_0 3.555964 1_565
Tb1_3 Tb5_1 3.555964 1_565
Tb1_4 Tb5_6 3.555964 1_555
Tb1_5 Tb5_7 3.555964 1_555
Tb1_6 Tb5_4 3.555964 1_565
Tb1_7 Tb5_5 3.555964 1_565
Tb2_0 Tb5_4 3.555964 1_455
Tb2_1 Tb5_5 3.555964 1_455
Tb2_2 Tb5_6 3.555964 1_455
Tb2_3 Tb5_7 3.555964 1_455
Tb2_4 Tb5_0 3.555964 1_555
Tb2_5 Tb5_1 3.555964 1_555
Tb2_6 Tb5_2 3.555964 1_555
Tb2_7 Tb5_3 3.555964 1_555
Tb3_0 Tb4_4 3.555964 1_555
Tb3_1 Tb4_5 3.555964 1_555
Tb3_2 Tb4_6 3.555964 1_555
Tb3_3 Tb4_7 3.555964 1_555
Tb3_4 Tb4_0 3.555964 1_655
Tb3_5 Tb4_1 3.555964 1_655
Tb3_6 Tb4_2 3.555964 1_655
Tb3_7 Tb4_3 3.555964 1_655
Tb4_0 Tb4_1 3.679729 1_555
Tb4_0 Tb4_1 3.679729 1_554
Tb4_2 Tb4_3 3.679729 1_554
Tb4_2 Tb4_3 3.679729 1_555
Tb4_4 Tb4_5 3.679729 1_555
Tb4_4 Tb4_5 3.679729 1_554
Tb4_6 Tb4_7 3.679729 1_554
Tb4_6 Tb4_7 3.679729 1_555
Tb5_0 Tb5_1 3.679729 1_554
Tb5_0 Tb5_1 3.679729 1_555
Tb5_2 Tb5_3 3.679729 1_555
Tb5_2 Tb5_3 3.679729 1_554
Tb5_4 Tb5_5 3.679729 1_555
Tb5_4 Tb5_5 3.679729 1_554
Tb5_6 Tb5_7 3.679729 1_554
Tb5_6 Tb5_7 3.679729 1_555
Tb10_0 Tb5_4 3.525171 1_455
Tb10_0 Tb4_2 3.525171 1_545
Tb10_0 Tb10_1 3.679729 1_555
Tb10_0 Tb10_1 3.679729 1_554
Tb10_1 Tb5_5 3.525171 1_455
Tb10_1 Tb4_3 3.525171 1_545
Tb10_2 Tb5_6 3.525171 1_455
Tb10_2 Tb4_0 3.525171 1_555
Tb10_2 Tb10_3 3.679729 1_555
Tb10_2 Tb10_3 3.679729 1_554
Tb10_3 Tb5_7 3.525171 1_455
Tb10_3 Tb4_1 3.525171 1_555
Tb10_4 Tb5_0 3.525171 1_555
Tb10_4 Tb4_6 3.525171 1_545
Tb10_4 Tb10_5 3.679729 1_554
Tb10_4 Tb10_5 3.679729 1_555
Tb10_5 Tb5_1 3.525171 1_555
Tb10_5 Tb4_7 3.525171 1_545
Tb10_6 Tb5_2 3.525171 1_555
Tb10_6 Tb4_4 3.525171 1_555
Tb10_6 Tb10_7 3.679729 1_554
Tb10_6 Tb10_7 3.679729 1_555
Tb10_7 Tb5_3 3.525171 1_555
Tb10_7 Tb4_5 3.525171 1_555
In0_0 In3_0 3.051994 1_555
In0_0 Pd1_0 3.073795 1_555
In0_0 Tb1_0 3.241406 1_555
In0_0 Tb1_1 3.241406 1_555
In0_0 Tb4_0 3.282915 1_555
In0_0 Tb4_1 3.282915 1_555
In0_0 Tb0_2 3.397440 1_555
In0_0 Tb0_3 3.397440 1_555
In0_0 Tb6_1 3.400254 1_555
In0_0 Tb6_0 3.400254 1_555
In0_1 In3_1 3.051994 1_555
In0_1 Pd1_1 3.073795 1_555
In0_1 Tb1_0 3.241406 1_556
In0_1 Tb1_1 3.241406 1_555
In0_1 Tb4_0 3.282915 1_556
In0_1 Tb4_1 3.282915 1_555
In0_1 Tb0_2 3.397440 1_556
In0_1 Tb0_3 3.397440 1_555
In0_1 Tb6_1 3.400254 1_555
In0_1 Tb6_0 3.400254 1_556
In0_2 In3_2 3.051994 1_555
In0_2 Pd1_2 3.073795 1_555
In0_2 Tb1_2 3.241406 1_555
In0_2 Tb1_3 3.241406 1_555
In0_2 Tb4_2 3.282915 1_555
In0_2 Tb4_3 3.282915 1_555
In0_2 Tb0_0 3.397440 1_565
In0_2 Tb0_1 3.397440 1_565
In0_2 Tb6_2 3.400254 1_555
In0_2 Tb6_3 3.400254 1_555
In0_3 In3_3 3.051994 1_555
In0_3 Pd1_3 3.073795 1_555
In0_3 Tb1_3 3.241406 1_555
In0_3 Tb1_2 3.241406 1_556
In0_3 Tb4_2 3.282915 1_556
In0_3 Tb4_3 3.282915 1_555
In0_3 Tb0_0 3.397440 1_566
In0_3 Tb0_1 3.397440 1_565
In0_3 Tb6_2 3.400254 1_556
In0_3 Tb6_3 3.400254 1_555
In0_4 In3_4 3.051994 1_555
In0_4 Pd1_4 3.073795 1_555
In0_4 Tb1_4 3.241406 1_555
In0_4 Tb1_5 3.241406 1_555
In0_4 Tb4_4 3.282915 1_555
In0_4 Tb4_5 3.282915 1_555
In0_4 Tb0_7 3.397440 1_555
In0_4 Tb0_6 3.397440 1_555
In0_4 Tb6_4 3.400254 1_555
In0_4 Tb6_5 3.400254 1_555
In0_5 In3_5 3.051994 1_555
In0_5 Pd1_5 3.073795 1_555
In0_5 Tb1_4 3.241406 1_556
In0_5 Tb1_5 3.241406 1_555
In0_5 Tb4_4 3.282915 1_556
In0_5 Tb4_5 3.282915 1_555
In0_5 Tb0_7 3.397440 1_555
In0_5 Tb0_6 3.397440 1_556
In0_5 Tb6_4 3.400254 1_556
In0_5 Tb6_5 3.400254 1_555
In0_6 In3_6 3.051994 1_555
In0_6 Pd1_6 3.073795 1_555
In0_6 Tb1_7 3.241406 1_555
In0_6 Tb1_6 3.241406 1_555
In0_6 Tb4_6 3.282915 1_555
In0_6 Tb4_7 3.282915 1_555
In0_6 Tb0_5 3.397440 1_565
In0_6 Tb0_4 3.397440 1_565
In0_6 Tb6_7 3.400254 1_555
In0_6 Tb6_6 3.400254 1_555
In0_7 In3_7 3.051994 1_555
In0_7 Pd1_7 3.073795 1_555
In0_7 Tb1_6 3.241406 1_556
In0_7 Tb1_7 3.241406 1_555
In0_7 Tb4_7 3.282915 1_555
In0_7 Tb4_6 3.282915 1_556
In0_7 Tb0_4 3.397440 1_566
In0_7 Tb0_5 3.397440 1_565
In0_7 Tb6_6 3.400254 1_556
In0_7 Tb6_7 3.400254 1_555
In1_0 In2_0 3.051994 1_555
In1_0 Pd0_0 3.073795 1_555
In1_0 Tb0_1 3.241406 1_555
In1_0 Tb0_0 3.241406 1_555
In1_0 Tb5_0 3.282915 1_555
In1_0 Tb5_1 3.282915 1_555
In1_0 Tb1_3 3.397440 1_545
In1_0 Tb1_2 3.397440 1_545
In1_0 Tb7_1 3.400254 1_555
In1_0 Tb7_0 3.400254 1_555
In1_1 In2_1 3.051994 1_555
In1_1 Pd0_1 3.073795 1_555
In1_1 Tb0_1 3.241406 1_555
In1_1 Tb0_0 3.241406 1_556
In1_1 Tb5_0 3.282915 1_556
In1_1 Tb5_1 3.282915 1_555
In1_1 Tb1_3 3.397440 1_545
In1_1 Tb1_2 3.397440 1_546
In1_1 Tb7_1 3.400254 1_555
In1_1 Tb7_0 3.400254 1_556
In1_2 In2_2 3.051994 1_555
In1_2 Pd0_2 3.073795 1_555
In1_2 Tb0_2 3.241406 1_555
In1_2 Tb0_3 3.241406 1_555
In1_2 Tb5_3 3.282915 1_555
In1_2 Tb5_2 3.282915 1_555
In1_2 Tb1_0 3.397440 1_555
In1_2 Tb1_1 3.397440 1_555
In1_2 Tb7_3 3.400254 1_555
In1_2 Tb7_2 3.400254 1_555
In1_3 In2_3 3.051994 1_555
In1_3 Pd0_3 3.073795 1_555
In1_3 Tb0_2 3.241406 1_556
In1_3 Tb0_3 3.241406 1_555
In1_3 Tb5_3 3.282915 1_555
In1_3 Tb5_2 3.282915 1_556
In1_3 Tb1_1 3.397440 1_555
In1_3 Tb1_0 3.397440 1_556
In1_3 Tb7_2 3.400254 1_556
In1_3 Tb7_3 3.400254 1_555
In1_4 In2_4 3.051994 1_555
In1_4 Pd0_4 3.073795 1_555
In1_4 Tb0_5 3.241406 1_555
In1_4 Tb0_4 3.241406 1_555
In1_4 Tb5_5 3.282915 1_555
In1_4 Tb5_4 3.282915 1_555
In1_4 Tb1_7 3.397440 1_545
In1_4 Tb1_6 3.397440 1_545
In1_4 Tb7_4 3.400254 1_555
In1_4 Tb7_5 3.400254 1_555
In1_5 In2_5 3.051994 1_555
In1_5 Pd0_5 3.073795 1_555
In1_5 Tb0_4 3.241406 1_556
In1_5 Tb0_5 3.241406 1_555
In1_5 Tb5_5 3.282915 1_555
In1_5 Tb5_4 3.282915 1_556
In1_5 Tb1_6 3.397440 1_546
In1_5 Tb1_7 3.397440 1_545
In1_5 Tb7_4 3.400254 1_556
In1_5 Tb7_5 3.400254 1_555
In1_6 In2_6 3.051994 1_555
In1_6 Pd0_6 3.073795 1_555
In1_6 Tb0_7 3.241406 1_555
In1_6 Tb0_6 3.241406 1_555
In1_6 Tb5_7 3.282915 1_555
In1_6 Tb5_6 3.282915 1_555
In1_6 Tb1_5 3.397440 1_555
In1_6 Tb1_4 3.397440 1_555
In1_6 Tb7_6 3.400254 1_555
In1_6 Tb7_7 3.400254 1_555
In1_7 In2_7 3.051994 1_555
In1_7 Pd0_7 3.073795 1_555
In1_7 Tb0_7 3.241406 1_555
In1_7 Tb0_6 3.241406 1_556
In1_7 Tb5_7 3.282915 1_555
In1_7 Tb5_6 3.282915 1_556
In1_7 Tb1_5 3.397440 1_555
In1_7 Tb1_4 3.397440 1_556
In1_7 Tb7_6 3.400254 1_556
In1_7 Tb7_7 3.400254 1_555
In2_0 Pd3_0 3.073795 1_555
In2_0 Tb3_0 3.241406 1_555
In2_0 Tb3_1 3.241406 1_555
In2_0 Tb5_0 3.282915 1_555
In2_0 Tb5_1 3.282915 1_555
In2_0 Tb2_5 3.397440 1_555
In2_0 Tb2_4 3.397440 1_555
In2_0 Tb7_1 3.400254 1_555
In2_0 Tb7_0 3.400254 1_555
In2_1 Pd3_1 3.073795 1_555
In2_1 Tb3_0 3.241406 1_556
In2_1 Tb3_1 3.241406 1_555
In2_1 Tb5_0 3.282915 1_556
In2_1 Tb5_1 3.282915 1_555
In2_1 Tb2_5 3.397440 1_555
In2_1 Tb2_4 3.397440 1_556
In2_1 Tb7_0 3.400254 1_556
In2_1 Tb7_1 3.400254 1_555
In2_2 Pd3_2 3.073795 1_555
In2_2 Tb3_3 3.241406 1_555
In2_2 Tb3_2 3.241406 1_555
In2_2 Tb5_2 3.282915 1_555
In2_2 Tb5_3 3.282915 1_555
In2_2 Tb2_6 3.397440 1_555
In2_2 Tb2_7 3.397440 1_555
In2_2 Tb7_2 3.400254 1_555
In2_2 Tb7_3 3.400254 1_555
In2_3 Pd3_3 3.073795 1_555
In2_3 Tb3_2 3.241406 1_556
In2_3 Tb3_3 3.241406 1_555
In2_3 Tb5_2 3.282915 1_556
In2_3 Tb5_3 3.282915 1_555
In2_3 Tb2_6 3.397440 1_556
In2_3 Tb2_7 3.397440 1_555
In2_3 Tb7_2 3.400254 1_556
In2_3 Tb7_3 3.400254 1_555
In2_4 Pd3_4 3.073795 1_555
In2_4 Tb3_4 3.241406 1_555
In2_4 Tb3_5 3.241406 1_555
In2_4 Tb5_4 3.282915 1_555
In2_4 Tb5_5 3.282915 1_555
In2_4 Tb2_0 3.397440 1_655
In2_4 Tb2_1 3.397440 1_655
In2_4 Tb7_5 3.400254 1_555
In2_4 Tb7_4 3.400254 1_555
In2_5 Pd3_5 3.073795 1_555
In2_5 Tb3_4 3.241406 1_556
In2_5 Tb3_5 3.241406 1_555
In2_5 Tb5_5 3.282915 1_555
In2_5 Tb5_4 3.282915 1_556
In2_5 Tb2_1 3.397440 1_655
In2_5 Tb2_0 3.397440 1_656
In2_5 Tb7_5 3.400254 1_555
In2_5 Tb7_4 3.400254 1_556
In2_6 Pd3_6 3.073795 1_555
In2_6 Tb3_7 3.241406 1_555
In2_6 Tb3_6 3.241406 1_555
In2_6 Tb5_6 3.282915 1_555
In2_6 Tb5_7 3.282915 1_555
In2_6 Tb2_2 3.397440 1_655
In2_6 Tb2_3 3.397440 1_655
In2_6 Tb7_6 3.400254 1_555
In2_6 Tb7_7 3.400254 1_555
In2_7 Pd3_7 3.073795 1_555
In2_7 Tb3_7 3.241406 1_555
In2_7 Tb3_6 3.241406 1_556
In2_7 Tb5_6 3.282915 1_556
In2_7 Tb5_7 3.282915 1_555
In2_7 Tb2_2 3.397440 1_656
In2_7 Tb2_3 3.397440 1_655
In2_7 Tb7_6 3.400254 1_556
In2_7 Tb7_7 3.400254 1_555
In3_0 Pd2_0 3.073795 1_555
In3_0 Tb2_0 3.241406 1_555
In3_0 Tb2_1 3.241406 1_555
In3_0 Tb4_0 3.282915 1_555
In3_0 Tb4_1 3.282915 1_555
In3_0 Tb3_5 3.397440 1_455
In3_0 Tb3_4 3.397440 1_455
In3_0 Tb6_1 3.400254 1_555
In3_0 Tb6_0 3.400254 1_555
In3_1 Pd2_1 3.073795 1_555
In3_1 Tb2_0 3.241406 1_556
In3_1 Tb2_1 3.241406 1_555
In3_1 Tb4_0 3.282915 1_556
In3_1 Tb4_1 3.282915 1_555
In3_1 Tb3_4 3.397440 1_456
In3_1 Tb3_5 3.397440 1_455
In3_1 Tb6_1 3.400254 1_555
In3_1 Tb6_0 3.400254 1_556
In3_2 Pd2_2 3.073795 1_555
In3_2 Tb2_2 3.241406 1_555
In3_2 Tb2_3 3.241406 1_555
In3_2 Tb4_3 3.282915 1_555
In3_2 Tb4_2 3.282915 1_555
In3_2 Tb3_7 3.397440 1_455
In3_2 Tb3_6 3.397440 1_455
In3_2 Tb6_3 3.400254 1_555
In3_2 Tb6_2 3.400254 1_555
In3_3 Pd2_3 3.073795 1_555
In3_3 Tb2_2 3.241406 1_556
In3_3 Tb2_3 3.241406 1_555
In3_3 Tb4_3 3.282915 1_555
In3_3 Tb4_2 3.282915 1_556
In3_3 Tb3_7 3.397440 1_455
In3_3 Tb3_6 3.397440 1_456
In3_3 Tb6_2 3.400254 1_556
In3_3 Tb6_3 3.400254 1_555
In3_4 Pd2_4 3.073795 1_555
In3_4 Tb2_5 3.241406 1_555
In3_4 Tb2_4 3.241406 1_555
In3_4 Tb4_5 3.282915 1_555
In3_4 Tb4_4 3.282915 1_555
In3_4 Tb3_0 3.397440 1_555
In3_4 Tb3_1 3.397440 1_555
In3_4 Tb6_4 3.400254 1_555
In3_4 Tb6_5 3.400254 1_555
In3_5 Pd2_5 3.073795 1_555
In3_5 Tb2_5 3.241406 1_555
In3_5 Tb2_4 3.241406 1_556
In3_5 Tb4_5 3.282915 1_555
In3_5 Tb4_4 3.282915 1_556
In3_5 Tb3_0 3.397440 1_556
In3_5 Tb3_1 3.397440 1_555
In3_5 Tb6_4 3.400254 1_556
In3_5 Tb6_5 3.400254 1_555
In3_6 Pd2_6 3.073795 1_555
In3_6 Tb2_6 3.241406 1_555
In3_6 Tb2_7 3.241406 1_555
In3_6 Tb4_7 3.282915 1_555
In3_6 Tb4_6 3.282915 1_555
In3_6 Tb3_3 3.397440 1_555
In3_6 Tb3_2 3.397440 1_555
In3_6 Tb6_7 3.400254 1_555
In3_6 Tb6_6 3.400254 1_555
In3_7 Pd2_7 3.073795 1_555
In3_7 Tb2_6 3.241406 1_556
In3_7 Tb2_7 3.241406 1_555
In3_7 Tb4_7 3.282915 1_555
In3_7 Tb4_6 3.282915 1_556
In3_7 Tb3_3 3.397440 1_555
In3_7 Tb3_2 3.397440 1_556
In3_7 Tb6_7 3.400254 1_555
In3_7 Tb6_6 3.400254 1_556
In4_0 Pd0_0 3.025949 1_555
In4_0 In6_0 3.136822 1_555
In4_0 Tb0_0 3.196876 1_555
In4_0 Tb0_1 3.196876 1_555
In4_0 Tb10_1 3.215938 1_555
In4_0 Tb10_0 3.215938 1_555
In4_0 Tb8_0 3.397367 1_555
In4_0 Tb8_1 3.397367 1_555
In4_0 Tb4_2 3.422171 1_545
In4_0 Tb4_3 3.422171 1_545
In4_1 Pd0_1 3.025949 1_555
In4_1 In6_1 3.136822 1_555
In4_1 Tb0_0 3.196876 1_556
In4_1 Tb0_1 3.196876 1_555
In4_1 Tb10_1 3.215938 1_555
In4_1 Tb10_0 3.215938 1_556
In4_1 Tb8_0 3.397367 1_556
In4_1 Tb8_1 3.397367 1_555
In4_1 Tb4_2 3.422171 1_546
In4_1 Tb4_3 3.422171 1_545
In4_2 Pd0_2 3.025949 1_555
In4_2 In6_2 3.136822 1_555
In4_2 Tb0_3 3.196876 1_555
In4_2 Tb0_2 3.196876 1_555
In4_2 Tb10_3 3.215938 1_555
In4_2 Tb10_2 3.215938 1_555
In4_2 Tb8_2 3.397367 1_555
In4_2 Tb8_3 3.397367 1_555
In4_2 Tb4_0 3.422171 1_555
In4_2 Tb4_1 3.422171 1_555
In4_3 Pd0_3 3.025949 1_555
In4_3 In6_3 3.136822 1_555
In4_3 Tb0_3 3.196876 1_555
In4_3 Tb0_2 3.196876 1_556
In4_3 Tb10_3 3.215938 1_555
In4_3 Tb10_2 3.215938 1_556
In4_3 Tb8_2 3.397367 1_556
In4_3 Tb8_3 3.397367 1_555
In4_3 Tb4_0 3.422171 1_556
In4_3 Tb4_1 3.422171 1_555
In4_4 Pd0_4 3.025949 1_555
In4_4 In6_4 3.136822 1_555
In4_4 Tb0_4 3.196876 1_555
In4_4 Tb0_5 3.196876 1_555
In4_4 Tb10_4 3.215938 1_555
In4_4 Tb10_5 3.215938 1_555
In4_4 Tb8_5 3.397367 1_555
In4_4 Tb8_4 3.397367 1_555
In4_4 Tb4_7 3.422171 1_545
In4_4 Tb4_6 3.422171 1_545
In4_5 Pd0_5 3.025949 1_555
In4_5 In6_5 3.136822 1_555
In4_5 Tb0_4 3.196876 1_556
In4_5 Tb0_5 3.196876 1_555
In4_5 Tb10_4 3.215938 1_556
In4_5 Tb10_5 3.215938 1_555
In4_5 Tb8_5 3.397367 1_555
In4_5 Tb8_4 3.397367 1_556
In4_5 Tb4_7 3.422171 1_545
In4_5 Tb4_6 3.422171 1_546
In4_6 Pd0_6 3.025949 1_555
In4_6 In6_6 3.136822 1_555
In4_6 Tb0_6 3.196876 1_555
In4_6 Tb0_7 3.196876 1_555
In4_6 Tb10_6 3.215938 1_555
In4_6 Tb10_7 3.215938 1_555
In4_6 Tb8_6 3.397367 1_555
In4_6 Tb8_7 3.397367 1_555
In4_6 Tb4_4 3.422171 1_555
In4_6 Tb4_5 3.422171 1_555
In4_7 Pd0_7 3.025949 1_555
In4_7 In6_7 3.136822 1_555
In4_7 Tb0_7 3.196876 1_555
In4_7 Tb0_6 3.196876 1_556
In4_7 Tb10_7 3.215938 1_555
In4_7 Tb10_6 3.215938 1_556
In4_7 Tb8_6 3.397367 1_556
In4_7 Tb8_7 3.397367 1_555
In4_7 Tb4_4 3.422171 1_556
In4_7 Tb4_5 3.422171 1_555
In5_0 Pd1_0 3.025949 1_555
In5_0 In7_0 3.136822 1_555
In5_0 Tb1_1 3.196876 1_555
In5_0 Tb1_0 3.196876 1_555
In5_0 Tb10_6 3.215938 1_555
In5_0 Tb10_7 3.215938 1_555
In5_0 Tb9_1 3.397367 1_555
In5_0 Tb9_0 3.397367 1_555
In5_0 Tb5_3 3.422171 1_555
In5_0 Tb5_2 3.422171 1_555
In5_1 Pd1_1 3.025949 1_555
In5_1 In7_1 3.136822 1_555
In5_1 Tb1_1 3.196876 1_555
In5_1 Tb1_0 3.196876 1_556
In5_1 Tb10_6 3.215938 1_556
In5_1 Tb10_7 3.215938 1_555
In5_1 Tb9_1 3.397367 1_555
In5_1 Tb9_0 3.397367 1_556
In5_1 Tb5_3 3.422171 1_555
In5_1 Tb5_2 3.422171 1_556
In5_2 Pd1_2 3.025949 1_555
In5_2 In7_2 3.136822 1_555
In5_2 Tb1_2 3.196876 1_555
In5_2 Tb1_3 3.196876 1_555
In5_2 Tb10_5 3.215938 1_565
In5_2 Tb10_4 3.215938 1_565
In5_2 Tb9_3 3.397367 1_555
In5_2 Tb9_2 3.397367 1_555
In5_2 Tb5_1 3.422171 1_565
In5_2 Tb5_0 3.422171 1_565
In5_3 Pd1_3 3.025949 1_555
In5_3 In7_3 3.136822 1_555
In5_3 Tb1_2 3.196876 1_556
In5_3 Tb1_3 3.196876 1_555
In5_3 Tb10_5 3.215938 1_565
In5_3 Tb10_4 3.215938 1_566
In5_3 Tb9_2 3.397367 1_556
In5_3 Tb9_3 3.397367 1_555
In5_3 Tb5_0 3.422171 1_566
In5_3 Tb5_1 3.422171 1_565
In5_4 Pd1_4 3.025949 1_555
In5_4 In7_4 3.136822 1_555
In5_4 Tb1_4 3.196876 1_555
In5_4 Tb1_5 3.196876 1_555
In5_4 Tb10_2 3.215938 1_655
In5_4 Tb10_3 3.215938 1_655
In5_4 Tb9_4 3.397367 1_555
In5_4 Tb9_5 3.397367 1_555
In5_4 Tb5_6 3.422171 1_555
In5_4 Tb5_7 3.422171 1_555
In5_5 Pd1_5 3.025949 1_555
In5_5 In7_5 3.136822 1_555
In5_5 Tb1_5 3.196876 1_555
In5_5 Tb1_4 3.196876 1_556
In5_5 Tb10_2 3.215938 1_656
In5_5 Tb10_3 3.215938 1_655
In5_5 Tb9_4 3.397367 1_556
In5_5 Tb9_5 3.397367 1_555
In5_5 Tb5_6 3.422171 1_556
In5_5 Tb5_7 3.422171 1_555
In5_6 Pd1_6 3.025949 1_555
In5_6 In7_6 3.136822 1_555
In5_6 Tb1_6 3.196876 1_555
In5_6 Tb1_7 3.196876 1_555
In5_6 Tb10_1 3.215938 1_665
In5_6 Tb10_0 3.215938 1_665
In5_6 Tb9_7 3.397367 1_555
In5_6 Tb9_6 3.397367 1_555
In5_6 Tb5_5 3.422171 1_565
In5_6 Tb5_4 3.422171 1_565
In5_7 Pd1_7 3.025949 1_555
In5_7 In7_7 3.136822 1_555
In5_7 Tb1_7 3.196876 1_555
In5_7 Tb1_6 3.196876 1_556
In5_7 Tb10_0 3.215938 1_666
In5_7 Tb10_1 3.215938 1_665
In5_7 Tb9_7 3.397367 1_555
In5_7 Tb9_6 3.397367 1_556
In5_7 Tb5_4 3.422171 1_566
In5_7 Tb5_5 3.422171 1_565
In6_0 Pd2_0 3.025949 1_555
In6_0 Tb2_1 3.196876 1_555
In6_0 Tb2_0 3.196876 1_555
In6_0 Tb10_1 3.215938 1_555
In6_0 Tb10_0 3.215938 1_555
In6_0 Tb8_0 3.397367 1_555
In6_0 Tb8_1 3.397367 1_555
In6_0 Tb5_4 3.422171 1_455
In6_0 Tb5_5 3.422171 1_455
In6_1 Pd2_1 3.025949 1_555
In6_1 Tb2_0 3.196876 1_556
In6_1 Tb2_1 3.196876 1_555
In6_1 Tb10_1 3.215938 1_555
In6_1 Tb10_0 3.215938 1_556
In6_1 Tb8_0 3.397367 1_556
In6_1 Tb8_1 3.397367 1_555
In6_1 Tb5_4 3.422171 1_456
In6_1 Tb5_5 3.422171 1_455
In6_2 Pd2_2 3.025949 1_555
In6_2 Tb2_3 3.196876 1_555
In6_2 Tb2_2 3.196876 1_555
In6_2 Tb10_2 3.215938 1_555
In6_2 Tb10_3 3.215938 1_555
In6_2 Tb8_2 3.397367 1_555
In6_2 Tb8_3 3.397367 1_555
In6_2 Tb5_7 3.422171 1_455
In6_2 Tb5_6 3.422171 1_455
In6_3 Pd2_3 3.025949 1_555
In6_3 Tb2_3 3.196876 1_555
In6_3 Tb2_2 3.196876 1_556
In6_3 Tb10_2 3.215938 1_556
In6_3 Tb10_3 3.215938 1_555
In6_3 Tb8_2 3.397367 1_556
In6_3 Tb8_3 3.397367 1_555
In6_3 Tb5_7 3.422171 1_455
In6_3 Tb5_6 3.422171 1_456
In6_4 Pd2_4 3.025949 1_555
In6_4 Tb2_5 3.196876 1_555
In6_4 Tb2_4 3.196876 1_555
In6_4 Tb10_4 3.215938 1_555
In6_4 Tb10_5 3.215938 1_555
In6_4 Tb8_5 3.397367 1_555
In6_4 Tb8_4 3.397367 1_555
In6_4 Tb5_0 3.422171 1_555
In6_4 Tb5_1 3.422171 1_555
In6_5 Pd2_5 3.025949 1_555
In6_5 Tb2_5 3.196876 1_555
In6_5 Tb2_4 3.196876 1_556
In6_5 Tb10_4 3.215938 1_556
In6_5 Tb10_5 3.215938 1_555
In6_5 Tb8_4 3.397367 1_556
In6_5 Tb8_5 3.397367 1_555
In6_5 Tb5_0 3.422171 1_556
In6_5 Tb5_1 3.422171 1_555
In6_6 Pd2_6 3.025949 1_555
In6_6 Tb2_7 3.196876 1_555
In6_6 Tb2_6 3.196876 1_555
In6_6 Tb10_7 3.215938 1_555
In6_6 Tb10_6 3.215938 1_555
In6_6 Tb8_6 3.397367 1_555
In6_6 Tb8_7 3.397367 1_555
In6_6 Tb5_2 3.422171 1_555
In6_6 Tb5_3 3.422171 1_555
In6_7 Pd2_7 3.025949 1_555
In6_7 Tb2_6 3.196876 1_556
In6_7 Tb2_7 3.196876 1_555
In6_7 Tb10_6 3.215938 1_556
In6_7 Tb10_7 3.215938 1_555
In6_7 Tb8_6 3.397367 1_556
In6_7 Tb8_7 3.397367 1_555
In6_7 Tb5_2 3.422171 1_556
In6_7 Tb5_3 3.422171 1_555
In7_0 Pd3_0 3.025949 1_555
In7_0 Tb3_1 3.196876 1_555
In7_0 Tb3_0 3.196876 1_555
In7_0 Tb10_6 3.215938 1_555
In7_0 Tb10_7 3.215938 1_555
In7_0 Tb9_1 3.397367 1_555
In7_0 Tb9_0 3.397367 1_555
In7_0 Tb4_5 3.422171 1_555
In7_0 Tb4_4 3.422171 1_555
In7_1 Pd3_1 3.025949 1_555
In7_1 Tb3_1 3.196876 1_555
In7_1 Tb3_0 3.196876 1_556
In7_1 Tb10_7 3.215938 1_555
In7_1 Tb10_6 3.215938 1_556
In7_1 Tb9_1 3.397367 1_555
In7_1 Tb9_0 3.397367 1_556
In7_1 Tb4_5 3.422171 1_555
In7_1 Tb4_4 3.422171 1_556
In7_2 Pd3_2 3.025949 1_555
In7_2 Tb3_2 3.196876 1_555
In7_2 Tb3_3 3.196876 1_555
In7_2 Tb10_5 3.215938 1_565
In7_2 Tb10_4 3.215938 1_565
In7_2 Tb9_3 3.397367 1_555
In7_2 Tb9_2 3.397367 1_555
In7_2 Tb4_6 3.422171 1_555
In7_2 Tb4_7 3.422171 1_555
In7_3 Pd3_3 3.025949 1_555
In7_3 Tb3_2 3.196876 1_556
In7_3 Tb3_3 3.196876 1_555
In7_3 Tb10_5 3.215938 1_565
In7_3 Tb10_4 3.215938 1_566
In7_3 Tb9_2 3.397367 1_556
In7_3 Tb9_3 3.397367 1_555
In7_3 Tb4_6 3.422171 1_556
In7_3 Tb4_7 3.422171 1_555
In7_4 Pd3_4 3.025949 1_555
In7_4 Tb3_4 3.196876 1_555
In7_4 Tb3_5 3.196876 1_555
In7_4 Tb10_2 3.215938 1_655
In7_4 Tb10_3 3.215938 1_655
In7_4 Tb9_4 3.397367 1_555
In7_4 Tb9_5 3.397367 1_555
In7_4 Tb4_1 3.422171 1_655
In7_4 Tb4_0 3.422171 1_655
In7_5 Pd3_5 3.025949 1_555
In7_5 Tb3_4 3.196876 1_556
In7_5 Tb3_5 3.196876 1_555
In7_5 Tb10_2 3.215938 1_656
In7_5 Tb10_3 3.215938 1_655
In7_5 Tb9_4 3.397367 1_556
In7_5 Tb9_5 3.397367 1_555
In7_5 Tb4_1 3.422171 1_655
In7_5 Tb4_0 3.422171 1_656
In7_6 Pd3_6 3.025949 1_555
In7_6 Tb3_7 3.196876 1_555
In7_6 Tb3_6 3.196876 1_555
In7_6 Tb10_1 3.215938 1_665
In7_6 Tb10_0 3.215938 1_665
In7_6 Tb9_6 3.397367 1_555
In7_6 Tb9_7 3.397367 1_555
In7_6 Tb4_2 3.422171 1_655
In7_6 Tb4_3 3.422171 1_655
In7_7 Pd3_7 3.025949 1_555
In7_7 Tb3_7 3.196876 1_555
In7_7 Tb3_6 3.196876 1_556
In7_7 Tb10_0 3.215938 1_666
In7_7 Tb10_1 3.215938 1_665
In7_7 Tb9_6 3.397367 1_556
In7_7 Tb9_7 3.397367 1_555
In7_7 Tb4_3 3.422171 1_655
In7_7 Tb4_2 3.422171 1_656
In8_0 Pd2_0 3.156264 1_555
In8_0 Pd0_0 3.156264 1_555
In8_0 Pd1_0 3.156264 1_555
In8_0 Pd3_0 3.156264 1_555
In8_0 Tb8_1 3.348355 1_555
In8_0 Tb8_0 3.348355 1_555
In8_0 Tb9_0 3.348355 1_555
In8_0 Tb9_1 3.348355 1_555
In8_0 Tb7_1 3.354521 1_555
In8_0 Tb7_0 3.354521 1_555
In8_0 Tb6_1 3.354521 1_555
In8_0 Tb6_0 3.354521 1_555
In8_1 Pd2_1 3.156264 1_555
In8_1 Pd0_1 3.156264 1_555
In8_1 Pd1_1 3.156264 1_555
In8_1 Pd3_1 3.156264 1_555
In8_1 Tb8_1 3.348355 1_555
In8_1 Tb8_0 3.348355 1_556
In8_1 Tb9_0 3.348355 1_556
In8_1 Tb9_1 3.348355 1_555
In8_1 Tb7_0 3.354521 1_556
In8_1 Tb7_1 3.354521 1_555
In8_1 Tb6_1 3.354521 1_555
In8_1 Tb6_0 3.354521 1_556
In8_2 Pd2_2 3.156264 1_555
In8_2 Pd1_2 3.156264 1_555
In8_2 Pd0_2 3.156264 1_555
In8_2 Pd3_2 3.156264 1_555
In8_2 Tb8_2 3.348355 1_555
In8_2 Tb8_3 3.348355 1_555
In8_2 Tb9_2 3.348355 1_555
In8_2 Tb9_3 3.348355 1_555
In8_2 Tb7_2 3.354521 1_555
In8_2 Tb7_3 3.354521 1_555
In8_2 Tb6_3 3.354521 1_555
In8_2 Tb6_2 3.354521 1_555
In8_3 Pd2_3 3.156264 1_555
In8_3 Pd1_3 3.156264 1_555
In8_3 Pd0_3 3.156264 1_555
In8_3 Pd3_3 3.156264 1_555
In8_3 Tb8_2 3.348355 1_556
In8_3 Tb8_3 3.348355 1_555
In8_3 Tb9_2 3.348355 1_556
In8_3 Tb9_3 3.348355 1_555
In8_3 Tb7_2 3.354521 1_556
In8_3 Tb7_3 3.354521 1_555
In8_3 Tb6_2 3.354521 1_556
In8_3 Tb6_3 3.354521 1_555
In8_4 Pd1_4 3.156264 1_555
In8_4 Pd2_4 3.156264 1_555
In8_4 Pd0_4 3.156264 1_555
In8_4 Pd3_4 3.156264 1_555
In8_4 Tb9_4 3.348355 1_555
In8_4 Tb9_5 3.348355 1_555
In8_4 Tb8_4 3.348355 1_555
In8_4 Tb8_5 3.348355 1_555
In8_4 Tb7_4 3.354521 1_555
In8_4 Tb7_5 3.354521 1_555
In8_4 Tb6_4 3.354521 1_555
In8_4 Tb6_5 3.354521 1_555
In8_5 Pd1_5 3.156264 1_555
In8_5 Pd0_5 3.156264 1_555
In8_5 Pd2_5 3.156264 1_555
In8_5 Pd3_5 3.156264 1_555
In8_5 Tb9_4 3.348355 1_556
In8_5 Tb9_5 3.348355 1_555
In8_5 Tb8_4 3.348355 1_556
In8_5 Tb8_5 3.348355 1_555
In8_5 Tb7_4 3.354521 1_556
In8_5 Tb7_5 3.354521 1_555
In8_5 Tb6_4 3.354521 1_556
In8_5 Tb6_5 3.354521 1_555
In8_6 Pd3_6 3.156264 1_555
In8_6 Pd0_6 3.156264 1_555
In8_6 Pd2_6 3.156264 1_555
In8_6 Pd1_6 3.156264 1_555
In8_6 Tb9_6 3.348355 1_555
In8_6 Tb9_7 3.348355 1_555
In8_6 Tb8_7 3.348355 1_555
In8_6 Tb8_6 3.348355 1_555
In8_6 Tb7_7 3.354521 1_555
In8_6 Tb6_7 3.354521 1_555
In8_6 Tb7_6 3.354521 1_555
In8_6 Tb6_6 3.354521 1_555
In8_7 Pd3_7 3.156264 1_555
In8_7 Pd0_7 3.156264 1_555
In8_7 Pd2_7 3.156264 1_555
In8_7 Pd1_7 3.156264 1_555
In8_7 Tb9_6 3.348355 1_556
In8_7 Tb9_7 3.348355 1_555
In8_7 Tb8_6 3.348355 1_556
In8_7 Tb8_7 3.348355 1_555
In8_7 Tb7_7 3.354521 1_555
In8_7 Tb6_6 3.354521 1_556
In8_7 Tb6_7 3.354521 1_555
In8_7 Tb7_6 3.354521 1_556
Pd0_0 Tb0_0 2.835781 1_555
Pd0_0 Tb0_1 2.835781 1_555
Pd0_0 Tb8_0 2.947018 1_555
Pd0_0 Tb8_1 2.947018 1_555
Pd0_0 Tb7_1 2.948872 1_555
Pd0_0 Tb7_0 2.948872 1_555
Pd0_1 Tb0_0 2.835781 1_556
Pd0_1 Tb0_1 2.835781 1_555
Pd0_1 Tb8_0 2.947018 1_556
Pd0_1 Tb8_1 2.947018 1_555
Pd0_1 Tb7_0 2.948872 1_556
Pd0_1 Tb7_1 2.948872 1_555
Pd0_2 Tb0_3 2.835781 1_555
Pd0_2 Tb0_2 2.835781 1_555
Pd0_2 Tb8_2 2.947018 1_555
Pd0_2 Tb8_3 2.947018 1_555
Pd0_2 Tb7_3 2.948872 1_555
Pd0_2 Tb7_2 2.948872 1_555
Pd0_3 Tb0_2 2.835781 1_556
Pd0_3 Tb0_3 2.835781 1_555
Pd0_3 Tb8_2 2.947018 1_556
Pd0_3 Tb8_3 2.947018 1_555
Pd0_3 Tb7_3 2.948872 1_555
Pd0_3 Tb7_2 2.948872 1_556
Pd0_4 Tb0_4 2.835781 1_555
Pd0_4 Tb0_5 2.835781 1_555
Pd0_4 Tb8_4 2.947018 1_555
Pd0_4 Tb8_5 2.947018 1_555
Pd0_4 Tb7_4 2.948872 1_555
Pd0_4 Tb7_5 2.948872 1_555
Pd0_5 Tb0_4 2.835781 1_556
Pd0_5 Tb0_5 2.835781 1_555
Pd0_5 Tb8_4 2.947018 1_556
Pd0_5 Tb8_5 2.947018 1_555
Pd0_5 Tb7_4 2.948872 1_556
Pd0_5 Tb7_5 2.948872 1_555
Pd0_6 Tb0_6 2.835781 1_555
Pd0_6 Tb0_7 2.835781 1_555
Pd0_6 Tb8_6 2.947018 1_555
Pd0_6 Tb8_7 2.947018 1_555
Pd0_6 Tb7_7 2.948872 1_555
Pd0_6 Tb7_6 2.948872 1_555
Pd0_7 Tb0_7 2.835781 1_555
Pd0_7 Tb0_6 2.835781 1_556
Pd0_7 Tb8_6 2.947018 1_556
Pd0_7 Tb8_7 2.947018 1_555
Pd0_7 Tb7_7 2.948872 1_555
Pd0_7 Tb7_6 2.948872 1_556
Pd1_0 Tb1_1 2.835781 1_555
Pd1_0 Tb1_0 2.835781 1_555
Pd1_0 Tb9_0 2.947018 1_555
Pd1_0 Tb9_1 2.947018 1_555
Pd1_0 Tb6_1 2.948872 1_555
Pd1_0 Tb6_0 2.948872 1_555
Pd1_1 Tb1_1 2.835781 1_555
Pd1_1 Tb1_0 2.835781 1_556
Pd1_1 Tb9_0 2.947018 1_556
Pd1_1 Tb9_1 2.947018 1_555
Pd1_1 Tb6_0 2.948872 1_556
Pd1_1 Tb6_1 2.948872 1_555
Pd1_2 Tb1_3 2.835781 1_555
Pd1_2 Tb1_2 2.835781 1_555
Pd1_2 Tb9_2 2.947018 1_555
Pd1_2 Tb9_3 2.947018 1_555
Pd1_2 Tb6_2 2.948872 1_555
Pd1_2 Tb6_3 2.948872 1_555
Pd1_3 Tb1_3 2.835781 1_555
Pd1_3 Tb1_2 2.835781 1_556
Pd1_3 Tb9_2 2.947018 1_556
Pd1_3 Tb9_3 2.947018 1_555
Pd1_3 Tb6_2 2.948872 1_556
Pd1_3 Tb6_3 2.948872 1_555
Pd1_4 Tb1_4 2.835781 1_555
Pd1_4 Tb1_5 2.835781 1_555
Pd1_4 Tb9_5 2.947018 1_555
Pd1_4 Tb9_4 2.947018 1_555
Pd1_4 Tb6_4 2.948872 1_555
Pd1_4 Tb6_5 2.948872 1_555
Pd1_5 Tb1_4 2.835781 1_556
Pd1_5 Tb1_5 2.835781 1_555
Pd1_5 Tb9_4 2.947018 1_556
Pd1_5 Tb9_5 2.947018 1_555
Pd1_5 Tb6_4 2.948872 1_556
Pd1_5 Tb6_5 2.948872 1_555
Pd1_6 Tb1_6 2.835781 1_555
Pd1_6 Tb1_7 2.835781 1_555
Pd1_6 Tb9_7 2.947018 1_555
Pd1_6 Tb9_6 2.947018 1_555
Pd1_6 Tb6_6 2.948872 1_555
Pd1_6 Tb6_7 2.948872 1_555
Pd1_7 Tb1_6 2.835781 1_556
Pd1_7 Tb1_7 2.835781 1_555
Pd1_7 Tb9_7 2.947018 1_555
Pd1_7 Tb9_6 2.947018 1_556
Pd1_7 Tb6_6 2.948872 1_556
Pd1_7 Tb6_7 2.948872 1_555
Pd2_0 Tb2_1 2.835781 1_555
Pd2_0 Tb2_0 2.835781 1_555
Pd2_0 Tb8_0 2.947018 1_555
Pd2_0 Tb8_1 2.947018 1_555
Pd2_0 Tb6_1 2.948872 1_555
Pd2_0 Tb6_0 2.948872 1_555
Pd2_1 Tb2_1 2.835781 1_555
Pd2_1 Tb2_0 2.835781 1_556
Pd2_1 Tb8_0 2.947018 1_556
Pd2_1 Tb8_1 2.947018 1_555
Pd2_1 Tb6_1 2.948872 1_555
Pd2_1 Tb6_0 2.948872 1_556
Pd2_2 Tb2_2 2.835781 1_555
Pd2_2 Tb2_3 2.835781 1_555
Pd2_2 Tb8_2 2.947018 1_555
Pd2_2 Tb8_3 2.947018 1_555
Pd2_2 Tb6_3 2.948872 1_555
Pd2_2 Tb6_2 2.948872 1_555
Pd2_3 Tb2_2 2.835781 1_556
Pd2_3 Tb2_3 2.835781 1_555
Pd2_3 Tb8_3 2.947018 1_555
Pd2_3 Tb8_2 2.947018 1_556
Pd2_3 Tb6_3 2.948872 1_555
Pd2_3 Tb6_2 2.948872 1_556
Pd2_4 Tb2_5 2.835781 1_555
Pd2_4 Tb2_4 2.835781 1_555
Pd2_4 Tb8_5 2.947018 1_555
Pd2_4 Tb8_4 2.947018 1_555
Pd2_4 Tb6_4 2.948872 1_555
Pd2_4 Tb6_5 2.948872 1_555
Pd2_5 Tb2_5 2.835781 1_555
Pd2_5 Tb2_4 2.835781 1_556
Pd2_5 Tb8_4 2.947018 1_556
Pd2_5 Tb8_5 2.947018 1_555
Pd2_5 Tb6_4 2.948872 1_556
Pd2_5 Tb6_5 2.948872 1_555
Pd2_6 Tb2_6 2.835781 1_555
Pd2_6 Tb2_7 2.835781 1_555
Pd2_6 Tb8_6 2.947018 1_555
Pd2_6 Tb8_7 2.947018 1_555
Pd2_6 Tb6_6 2.948872 1_555
Pd2_6 Tb6_7 2.948872 1_555
Pd2_7 Tb2_6 2.835781 1_556
Pd2_7 Tb2_7 2.835781 1_555
Pd2_7 Tb8_6 2.947018 1_556
Pd2_7 Tb8_7 2.947018 1_555
Pd2_7 Tb6_6 2.948872 1_556
Pd2_7 Tb6_7 2.948872 1_555
Pd3_0 Tb3_1 2.835781 1_555
Pd3_0 Tb3_0 2.835781 1_555
Pd3_0 Tb9_1 2.947018 1_555
Pd3_0 Tb9_0 2.947018 1_555
Pd3_0 Tb7_1 2.948872 1_555
Pd3_0 Tb7_0 2.948872 1_555
Pd3_1 Tb3_1 2.835781 1_555
Pd3_1 Tb3_0 2.835781 1_556
Pd3_1 Tb9_0 2.947018 1_556
Pd3_1 Tb9_1 2.947018 1_555
Pd3_1 Tb7_0 2.948872 1_556
Pd3_1 Tb7_1 2.948872 1_555
Pd3_2 Tb3_2 2.835781 1_555
Pd3_2 Tb3_3 2.835781 1_555
Pd3_2 Tb9_2 2.947018 1_555
Pd3_2 Tb9_3 2.947018 1_555
Pd3_2 Tb7_3 2.948872 1_555
Pd3_2 Tb7_2 2.948872 1_555
Pd3_3 Tb3_2 2.835781 1_556
Pd3_3 Tb3_3 2.835781 1_555
Pd3_3 Tb9_2 2.947018 1_556
Pd3_3 Tb9_3 2.947018 1_555
Pd3_3 Tb7_3 2.948872 1_555
Pd3_3 Tb7_2 2.948872 1_556
Pd3_4 Tb3_4 2.835781 1_555
Pd3_4 Tb3_5 2.835781 1_555
Pd3_4 Tb9_5 2.947018 1_555
Pd3_4 Tb9_4 2.947018 1_555
Pd3_4 Tb7_4 2.948872 1_555
Pd3_4 Tb7_5 2.948872 1_555
Pd3_5 Tb3_4 2.835781 1_556
Pd3_5 Tb3_5 2.835781 1_555
Pd3_5 Tb9_5 2.947018 1_555
Pd3_5 Tb9_4 2.947018 1_556
Pd3_5 Tb7_4 2.948872 1_556
Pd3_5 Tb7_5 2.948872 1_555
Pd3_6 Tb3_7 2.835781 1_555
Pd3_6 Tb3_6 2.835781 1_555
Pd3_6 Tb9_6 2.947018 1_555
Pd3_6 Tb9_7 2.947018 1_555
Pd3_6 Tb7_7 2.948872 1_555
Pd3_6 Tb7_6 2.948872 1_555
Pd3_7 Tb3_6 2.835781 1_556
Pd3_7 Tb3_7 2.835781 1_555
Pd3_7 Tb9_6 2.947018 1_556
Pd3_7 Tb9_7 2.947018 1_555
Pd3_7 Tb7_7 2.948872 1_555
Pd3_7 Tb7_6 2.948872 1_556
