# generated using pymatgen
data_La2MgSnO6
_symmetry_space_group_name_H-M   'P 1'
_cell_length_a   5.69683400
_cell_length_b   5.69683400
_cell_length_c   5.69683471
_cell_angle_alpha   60.66001526
_cell_angle_beta   60.66001526
_cell_angle_gamma   60.66002072
_symmetry_Int_Tables_number   1
_chemical_formula_structural   La2MgSnO6
_chemical_formula_sum   'La2 Mg1 Sn1 O6'
_cell_volume   132.68116554
_cell_formula_units_Z   1
loop_
 _symmetry_equiv_pos_site_id
 _symmetry_equiv_pos_as_xyz
  1  'x, y, z'
loop_
 _atom_site_type_symbol
 _atom_site_label
 _atom_site_symmetry_multiplicity
 _atom_site_fract_x
 _atom_site_fract_y
 _atom_site_fract_z
 _atom_site_occupancy
  La  La0  1  0.75113200  0.75113200  0.75113200  1
  La  La1  1  0.24886800  0.24886800  0.24886800  1
  Mg  Mg0  1  0.50000000  0.50000000  0.50000000  1
  Sn  Sn0  1  0.00000000  0.00000000  0.00000000  1
  O  O0  1  0.75317300  0.33684900  0.16141700  1
  O  O1  1  0.16141700  0.75317300  0.33684900  1
  O  O2  1  0.33684900  0.16141700  0.75317300  1
  O  O3  1  0.24682700  0.66315100  0.83858300  1
  O  O4  1  0.66315100  0.83858300  0.24682700  1
  O  O5  1  0.83858300  0.24682700  0.66315100  1
loop_
_geom_bond_atom_site_label_1
_geom_bond_atom_site_label_2
_geom_bond_distance
_geom_bond_site_symmetry_2
La0 O0 2.372161 1_556
La0 O1 2.372161 1_655
La0 O2 2.372161 1_565
La0 O5 2.867180 1_565
La0 O3 2.867180 1_655
La0 O4 2.867180 1_556
La0 O3 2.918391 1_555
La0 O5 2.918391 1_555
La0 O4 2.918391 1_555
La1 O3 2.372161 1_554
La1 O5 2.372161 1_455
La1 O4 2.372161 1_545
La1 O1 2.867180 1_545
La1 O0 2.867180 1_455
La1 O2 2.867180 1_554
La1 O0 2.918391 1_555
La1 O1 2.918391 1_555
La1 O2 2.918391 1_555
Mg0 O4 2.093189 1_555
Mg0 O2 2.093189 1_555
Mg0 O5 2.093189 1_555
Mg0 O1 2.093189 1_555
Mg0 O3 2.093189 1_555
Mg0 O0 2.093189 1_555
O0 Sn0 2.079207 1_655
O1 Sn0 2.079207 1_565
O2 Sn0 2.079207 1_556
O3 Sn0 2.079207 1_566
O4 Sn0 2.079207 1_665
O5 Sn0 2.079207 1_656
