# generated using pymatgen
data_HfMg6WO8
_symmetry_space_group_name_H-M   'P 1'
_cell_length_a   8.84612938
_cell_length_b   4.40422986
_cell_length_c   4.40422986
_cell_angle_alpha   90.00000000
_cell_angle_beta   90.00000000
_cell_angle_gamma   90.00000000
_symmetry_Int_Tables_number   1
_chemical_formula_structural   HfMg6WO8
_chemical_formula_sum   'Hf1 Mg6 W1 O8'
_cell_volume   171.59050049
_cell_formula_units_Z   1
loop_
 _symmetry_equiv_pos_site_id
 _symmetry_equiv_pos_as_xyz
  1  'x, y, z'
loop_
 _atom_site_type_symbol
 _atom_site_label
 _atom_site_symmetry_multiplicity
 _atom_site_fract_x
 _atom_site_fract_y
 _atom_site_fract_z
 _atom_site_occupancy
  Hf  Hf0  1  0.00000000  0.50000000  0.50000000  1
  Mg  Mg0  1  0.50000000  0.00000000  0.00000000  1
  Mg  Mg1  1  0.50000000  0.50000000  0.50000000  1
  Mg  Mg2  1  0.26213505  0.00000000  0.50000000  1
  Mg  Mg3  1  0.73786495  0.00000000  0.50000000  1
  Mg  Mg4  1  0.26213505  0.50000000  0.00000000  1
  Mg  Mg5  1  0.73786495  0.50000000  0.00000000  1
  W  W0  1  0.00000000  0.00000000  0.00000000  1
  O  O0  1  0.26138080  0.00000000  0.00000000  1
  O  O1  1  0.73861920  0.00000000  0.00000000  1
  O  O2  1  0.25960186  0.50000000  0.50000000  1
  O  O3  1  0.74039814  0.50000000  0.50000000  1
  O  O4  1  0.00000000  0.00000000  0.50000000  1
  O  O5  1  0.50000000  0.00000000  0.50000000  1
  O  O6  1  0.00000000  0.50000000  0.00000000  1
  O  O7  1  0.50000000  0.50000000  0.00000000  1
loop_
_geom_bond_atom_site_label_1
_geom_bond_atom_site_label_2
_geom_bond_distance
_geom_bond_site_symmetry_2
Hf0 O4 2.202115 1_555
Hf0 O4 2.202115 1_565
Hf0 O6 2.202115 1_556
Hf0 O6 2.202115 1_555
Hf0 O3 2.296472 1_455
Hf0 O2 2.296472 1_555
Mg0 O0 2.110856 1_555
Mg0 O1 2.110856 1_555
Mg0 O5 2.202115 1_554
Mg0 O5 2.202115 1_555
Mg0 O7 2.202115 1_545
Mg0 O7 2.202115 1_555
Mg1 O2 2.126593 1_555
Mg1 O3 2.126593 1_555
Mg1 O7 2.202115 1_556
Mg1 O5 2.202115 1_555
Mg1 O5 2.202115 1_565
Mg1 O7 2.202115 1_555
Mg2 O5 2.104184 1_555
Mg2 O0 2.202125 1_555
Mg2 O0 2.202125 1_556
Mg2 O2 2.202229 1_555
Mg2 O2 2.202229 1_545
Mg2 O4 2.318881 1_555
Mg3 O5 2.104184 1_555
Mg3 O1 2.202125 1_555
Mg3 O1 2.202125 1_556
Mg3 O3 2.202229 1_545
Mg3 O3 2.202229 1_555
Mg3 O4 2.318881 1_655
Mg4 O7 2.104184 1_555
Mg4 O0 2.202125 1_555
Mg4 O0 2.202125 1_565
Mg4 O2 2.202229 1_554
Mg4 O2 2.202229 1_555
Mg4 O6 2.318881 1_555
Mg5 O7 2.104184 1_555
Mg5 O1 2.202125 1_555
Mg5 O1 2.202125 1_565
Mg5 O3 2.202229 1_554
Mg5 O3 2.202229 1_555
Mg5 O6 2.318881 1_655
O0 W0 2.312208 1_555
O1 W0 2.312208 1_655
O4 W0 2.202115 1_556
O4 W0 2.202115 1_555
O6 W0 2.202115 1_565
O6 W0 2.202115 1_555
