# generated using pymatgen
data_TbSBr
_symmetry_space_group_name_H-M   'P 1'
_cell_length_a   6.88842459
_cell_length_b   6.81140051
_cell_length_c   6.79978315
_cell_angle_alpha   80.40441764
_cell_angle_beta   90.00000000
_cell_angle_gamma   90.00000000
_symmetry_Int_Tables_number   1
_chemical_formula_structural   TbSBr
_chemical_formula_sum   'Tb4 S4 Br4'
_cell_volume   314.58080537
_cell_formula_units_Z   4
loop_
 _symmetry_equiv_pos_site_id
 _symmetry_equiv_pos_as_xyz
  1  'x, y, z'
loop_
 _atom_site_type_symbol
 _atom_site_label
 _atom_site_symmetry_multiplicity
 _atom_site_fract_x
 _atom_site_fract_y
 _atom_site_fract_z
 _atom_site_occupancy
  Tb  Tb0  1  0.96360024  0.79153878  0.32111280  1
  Tb  Tb1  1  0.03639976  0.20846122  0.67888720  1
  Tb  Tb2  1  0.46360024  0.70846122  0.67888720  1
  Tb  Tb3  1  0.53639976  0.29153878  0.32111280  1
  S  S0  1  0.73953936  0.99205457  0.55533692  1
  S  S1  1  0.26046064  0.00794543  0.44466308  1
  S  S2  1  0.23953936  0.50794543  0.44466308  1
  S  S3  1  0.76046064  0.49205457  0.55533692  1
  Br  Br0  1  0.62384995  0.70515248  0.08011838  1
  Br  Br1  1  0.37615005  0.29484752  0.91988162  1
  Br  Br2  1  0.12384995  0.79484752  0.91988162  1
  Br  Br3  1  0.87615005  0.20515248  0.08011838  1
loop_
_geom_bond_atom_site_label_1
_geom_bond_atom_site_label_2
_geom_bond_distance
_geom_bond_site_symmetry_2
S0 Tb1 2.733685 1_665
S0 Tb2 2.740273 1_555
S0 Tb0 2.740322 1_555
S0 Tb3 2.751866 1_565
S1 Tb0 2.733685 1_445
S1 Tb3 2.740273 1_555
S1 Tb1 2.740322 1_555
S1 Tb2 2.751866 1_545
S2 Tb3 2.733685 1_555
S2 Tb0 2.740273 1_455
S2 Tb2 2.740322 1_555
S2 Tb1 2.751866 1_555
S3 Tb2 2.733685 1_555
S3 Tb1 2.740273 1_655
S3 Tb3 2.740322 1_555
S3 Tb0 2.751866 1_555
Br0 Tb2 2.939740 1_554
Br0 Tb0 2.971577 1_555
Br0 Tb3 3.073470 1_555
Br1 Tb3 2.939740 1_556
Br1 Tb1 2.971577 1_555
Br1 Tb2 3.073470 1_555
Br2 Tb0 2.939740 1_456
Br2 Tb2 2.971577 1_555
Br2 Tb1 3.073470 1_565
Br3 Tb1 2.939740 1_654
Br3 Tb3 2.971577 1_555
Br3 Tb0 3.073470 1_545
