# generated using pymatgen
data_CrAg(SO4)2
_symmetry_space_group_name_H-M   'P 1'
_cell_length_a   4.81605849
_cell_length_b   4.81605849
_cell_length_c   7.37938611
_cell_angle_alpha   88.22677401
_cell_angle_beta   88.22677401
_cell_angle_gamma   65.91174818
_symmetry_Int_Tables_number   1
_chemical_formula_structural   CrAg(SO4)2
_chemical_formula_sum   'Cr1 Ag1 S2 O8'
_cell_volume   156.14926400
_cell_formula_units_Z   1
loop_
 _symmetry_equiv_pos_site_id
 _symmetry_equiv_pos_as_xyz
  1  'x, y, z'
loop_
 _atom_site_type_symbol
 _atom_site_label
 _atom_site_symmetry_multiplicity
 _atom_site_fract_x
 _atom_site_fract_y
 _atom_site_fract_z
 _atom_site_occupancy
  Cr  Cr0  1  0.00000000  0.00000000  0.00000000  1
  Ag  Ag0  1  0.00000000  0.00000000  0.50000000  1
  S  S0  1  0.36355400  0.36355400  0.78659800  1
  S  S1  1  0.63644600  0.63644600  0.21340200  1
  O  O0  1  0.29032000  0.29032000  0.60963000  1
  O  O1  1  0.70968000  0.70968000  0.39037000  1
  O  O2  1  0.70600700  0.24028900  0.80280500  1
  O  O3  1  0.29399300  0.75971100  0.19719500  1
  O  O4  1  0.75971100  0.29399300  0.19719500  1
  O  O5  1  0.24028900  0.70600700  0.80280500  1
  O  O6  1  0.24335200  0.24335200  0.94433200  1
  O  O7  1  0.75664800  0.75664800  0.05566800  1
loop_
_geom_bond_atom_site_label_1
_geom_bond_atom_site_label_2
_geom_bond_distance
_geom_bond_site_symmetry_2
Cr0 O6 1.994380 1_554
Cr0 O7 1.994380 1_445
Cr0 O4 2.036487 1_455
Cr0 O3 2.036487 1_545
Cr0 O2 2.036487 1_454
Cr0 O5 2.036487 1_544
Ag0 O1 2.510023 1_445
Ag0 O0 2.510023 1_555
Ag0 O2 2.638889 1_455
Ag0 O5 2.638889 1_545
Ag0 O4 2.638889 1_455
Ag0 O3 2.638889 1_545
O0 S0 1.453534 1_555
O1 S1 1.453534 1_555
O2 S0 1.515065 1_555
O3 S1 1.515065 1_555
O4 S1 1.515065 1_555
O5 S0 1.515065 1_555
O6 S0 1.488373 1_555
O7 S1 1.488373 1_555
