# generated using pymatgen
data_VGaOs2
_symmetry_space_group_name_H-M   'P 1'
_cell_length_a   10.37322229
_cell_length_b   10.37322229
_cell_length_c   10.37322229
_cell_angle_alpha   128.03766019
_cell_angle_beta   117.27165694
_cell_angle_gamma   85.73387115
_symmetry_Int_Tables_number   1
_chemical_formula_structural   VGaOs2
_chemical_formula_sum   'V1 Ga1 Os2'
_cell_volume   746.13359598
_cell_formula_units_Z   1
loop_
 _symmetry_equiv_pos_site_id
 _symmetry_equiv_pos_as_xyz
  1  'x, y, z'
loop_
 _atom_site_type_symbol
 _atom_site_label
 _atom_site_symmetry_multiplicity
 _atom_site_fract_x
 _atom_site_fract_y
 _atom_site_fract_z
 _atom_site_occupancy
  V  V0  1  0.00000000  0.00000000  0.00000000  1
  Ga  Ga0  1  0.00000000  0.50000000  0.50000000  1
  Os  Os0  1  0.00000000  0.22833900  0.22833900  1
  Os  Os1  1  0.00000000  0.77166100  0.77166100  1
loop_
_geom_bond_atom_site_label_1
_geom_bond_atom_site_label_2
_geom_bond_distance
_geom_bond_site_symmetry_2
Ga0 Os1 2.468995 1_555
Ga0 Os0 2.468995 1_555
Os0 V0 2.075262 1_555
Os1 V0 2.075262 1_566
