# generated using pymatgen
data_KLaCO4
_symmetry_space_group_name_H-M   'P 1'
_cell_length_a   3.68609700
_cell_length_b   4.76061900
_cell_length_c   12.19638400
_cell_angle_alpha   90.00000000
_cell_angle_beta   90.00000000
_cell_angle_gamma   90.00000000
_symmetry_Int_Tables_number   1
_chemical_formula_structural   KLaCO4
_chemical_formula_sum   'K2 La2 C2 O8'
_cell_volume   214.02340771
_cell_formula_units_Z   2
loop_
 _symmetry_equiv_pos_site_id
 _symmetry_equiv_pos_as_xyz
  1  'x, y, z'
loop_
 _atom_site_type_symbol
 _atom_site_label
 _atom_site_symmetry_multiplicity
 _atom_site_fract_x
 _atom_site_fract_y
 _atom_site_fract_z
 _atom_site_occupancy
  K  K0  1  0.00000000  0.00000000  0.60579300  1
  K  K1  1  0.50000000  0.50000000  0.39420700  1
  La  La0  1  0.00000000  0.00000000  0.90216200  1
  La  La1  1  0.50000000  0.50000000  0.09783800  1
  C  C0  1  0.00000000  0.00000000  0.28497700  1
  C  C1  1  0.50000000  0.50000000  0.71502300  1
  O  O0  1  0.00000000  0.00000000  0.39203400  1
  O  O1  1  0.50000000  0.50000000  0.60796600  1
  O  O2  1  0.50000000  0.00000000  0.01423900  1
  O  O3  1  0.00000000  0.50000000  0.98576100  1
  O  O4  1  0.00000000  0.76290800  0.23252800  1
  O  O5  1  0.00000000  0.23709200  0.23252800  1
  O  O6  1  0.50000000  0.73709200  0.76747200  1
  O  O7  1  0.50000000  0.26290800  0.76747200  1
loop_
_geom_bond_atom_site_label_1
_geom_bond_atom_site_label_2
_geom_bond_distance
_geom_bond_site_symmetry_2
K0 O0 2.607087 1_555
K0 O7 2.975185 1_455
K0 O7 2.975185 1_555
K0 O6 2.975185 1_445
K0 O6 2.975185 1_545
K0 O1 3.010549 1_545
K0 O1 3.010549 1_555
K0 O1 3.010549 1_455
K0 O1 3.010549 1_445
K1 O1 2.607087 1_555
K1 O4 2.975185 1_555
K1 O5 2.975185 1_555
K1 O5 2.975185 1_655
K1 O4 2.975185 1_655
K1 O0 3.010549 1_655
K1 O0 3.010549 1_555
K1 O0 3.010549 1_565
K1 O0 3.010549 1_665
La0 O2 2.294632 1_556
La0 O2 2.294632 1_456
La0 O3 2.589492 1_545
La0 O3 2.589492 1_555
La0 O7 2.768015 1_555
La0 O7 2.768015 1_455
La0 O6 2.768015 1_545
La0 O6 2.768015 1_445
La1 O3 2.294632 1_554
La1 O3 2.294632 1_654
La1 O2 2.589492 1_565
La1 O2 2.589492 1_555
La1 O5 2.768015 1_655
La1 O4 2.768015 1_655
La1 O4 2.768015 1_555
La1 O5 2.768015 1_555
C0 O4 1.297372 1_545
C0 O5 1.297372 1_555
C0 O0 1.305708 1_555
C1 O6 1.297372 1_555
C1 O7 1.297372 1_555
C1 O1 1.305708 1_555
