# generated using pymatgen
data_Na5Nd4Ge4O16F
_symmetry_space_group_name_H-M   'P 1'
_cell_length_a   9.08038747
_cell_length_b   9.08038747
_cell_length_c   9.08038747
_cell_angle_alpha   95.73386286
_cell_angle_beta   95.73386286
_cell_angle_gamma   143.14770943
_symmetry_Int_Tables_number   1
_chemical_formula_structural   Na5Nd4Ge4O16F
_chemical_formula_sum   'Na5 Nd4 Ge4 O16 F1'
_cell_volume   426.01989617
_cell_formula_units_Z   1
loop_
 _symmetry_equiv_pos_site_id
 _symmetry_equiv_pos_as_xyz
  1  'x, y, z'
loop_
 _atom_site_type_symbol
 _atom_site_label
 _atom_site_symmetry_multiplicity
 _atom_site_fract_x
 _atom_site_fract_y
 _atom_site_fract_z
 _atom_site_occupancy
  Na  Na0  1  0.00000000  0.00000000  0.00000000  1
  Na  Na1  1  0.87730600  0.39437100  0.30755300  1
  Na  Na2  1  0.08681800  0.56975300  0.69244700  1
  Na  Na3  1  0.43024700  0.12269400  0.51706500  1
  Na  Na4  1  0.60562900  0.91318200  0.48293500  1
  Nd  Nd0  1  0.29354200  0.36022100  0.70262100  1
  Nd  Nd1  1  0.65760100  0.59092200  0.29737900  1
  Nd  Nd2  1  0.40907800  0.70645800  0.06667900  1
  Nd  Nd3  1  0.63977900  0.34239900  0.93332100  1
  Ge  Ge0  1  0.74247900  0.09298800  0.85621100  1
  Ge  Ge1  1  0.23677700  0.88626800  0.14378900  1
  Ge  Ge2  1  0.11373200  0.25752100  0.35050800  1
  Ge  Ge3  1  0.90701200  0.76322300  0.64949200  1
  O  O0  1  0.05471000  0.28001900  0.86983900  1
  O  O1  1  0.41018000  0.18487100  0.13016100  1
  O  O2  1  0.81512900  0.94529000  0.22530900  1
  O  O3  1  0.71998100  0.58982000  0.77469100  1
  O  O4  1  0.63708400  0.13633900  0.71691400  1
  O  O5  1  0.41942600  0.92017000  0.28308600  1
  O  O6  1  0.07983000  0.36291600  0.49925600  1
  O  O7  1  0.86366100  0.58057400  0.50074400  1
  O  O8  1  0.52059900  0.76363700  0.82458900  1
  O  O9  1  0.93904800  0.69600900  0.17541100  1
  O  O10  1  0.30399100  0.47940100  0.24303800  1
  O  O11  1  0.23636300  0.06095200  0.75696200  1
  O  O12  1  0.71940800  0.16373800  0.03649300  1
  O  O13  1  0.12724500  0.68291500  0.96350700  1
  O  O14  1  0.31708500  0.28059200  0.44433000  1
  O  O15  1  0.83626200  0.87275500  0.55567000  1
  F  F0  1  0.50000000  0.50000000  0.00000000  1
loop_
_geom_bond_atom_site_label_1
_geom_bond_atom_site_label_2
_geom_bond_distance
_geom_bond_site_symmetry_2
Na0 O2 2.608680 1_445
Na0 O0 2.608680 1_554
Na0 O3 2.608680 1_444
Na0 O1 2.608680 1_555
Na1 O7 2.395320 1_555
Na1 O12 2.441146 1_555
Na1 O6 2.606523 1_655
Na1 O5 2.617279 1_545
Na1 O9 2.754950 1_555
Na2 O6 2.395326 1_555
Na2 O13 2.441146 1_555
Na2 O7 2.606516 1_455
Na2 O4 2.617281 1_455
Na2 O8 2.754958 1_555
Na3 O4 2.395332 1_555
Na3 O14 2.441146 1_555
Na3 O5 2.606523 1_545
Na3 O7 2.617281 1_555
Na3 O11 2.754958 1_555
Na4 O5 2.395326 1_555
Na4 O15 2.441146 1_555
Na4 O4 2.606517 1_565
Na4 O6 2.617279 1_665
Na4 O10 2.754960 1_555
Nd0 O8 2.354237 1_555
Nd0 O0 2.427030 1_555
Nd0 O11 2.441077 1_555
Nd0 O3 2.463791 1_555
Nd0 O14 2.465369 1_555
Nd0 O6 2.558420 1_555
Nd0 O15 2.629338 1_445
Nd1 O9 2.354238 1_555
Nd1 O1 2.427033 1_555
Nd1 O10 2.441071 1_555
Nd1 O2 2.463787 1_555
Nd1 O15 2.465368 1_555
Nd1 O7 2.558426 1_555
Nd1 O14 2.629343 1_555
Nd2 O10 2.354242 1_555
Nd2 O2 2.427037 1_555
Nd2 O8 2.441080 1_554
Nd2 O0 2.463791 1_554
Nd2 O13 2.465361 1_554
Nd2 O5 2.558414 1_555
Nd2 O12 2.629336 1_565
Nd3 O11 2.354240 1_555
Nd3 O3 2.427037 1_555
Nd3 O9 2.441077 1_556
Nd3 O1 2.463791 1_556
Nd3 O12 2.465361 1_556
Nd3 O4 2.558420 1_555
Nd3 O13 2.629336 1_655
Ge0 O0 1.766327 1_655
Ge0 O4 1.769539 1_555
Ge0 O8 1.776384 1_545
Ge0 O12 1.791718 1_556
Ge1 O1 1.766327 1_565
Ge1 O5 1.769546 1_555
Ge1 O9 1.776382 1_455
Ge1 O13 1.791718 1_554
Ge2 O2 1.766324 1_445
Ge2 O6 1.769552 1_555
Ge2 O10 1.776379 1_555
Ge2 O14 1.791721 1_555
Ge3 O3 1.766319 1_555
Ge3 O7 1.769557 1_555
Ge3 O11 1.776382 1_665
Ge3 O15 1.791722 1_555
F0 Nd1 2.629229 1_555
F0 Nd0 2.629229 1_554
F0 Nd2 2.629237 1_555
F0 Nd3 2.629237 1_554
F0 Na0 2.870147 1_555
F0 Na0 2.870147 1_665
