# generated using pymatgen
data_BaTb4DyO12
_symmetry_space_group_name_H-M   'P 1'
_cell_length_a   6.16344940
_cell_length_b   6.16344940
_cell_length_c   8.75972246
_cell_angle_alpha   90.00000000
_cell_angle_beta   90.00000000
_cell_angle_gamma   86.71924034
_symmetry_Int_Tables_number   1
_chemical_formula_structural   BaTb4DyO12
_chemical_formula_sum   'Ba1 Tb4 Dy1 O12'
_cell_volume   332.21991522
_cell_formula_units_Z   1
loop_
 _symmetry_equiv_pos_site_id
 _symmetry_equiv_pos_as_xyz
  1  'x, y, z'
loop_
 _atom_site_type_symbol
 _atom_site_label
 _atom_site_symmetry_multiplicity
 _atom_site_fract_x
 _atom_site_fract_y
 _atom_site_fract_z
 _atom_site_occupancy
  Ba  Ba0  1  0.42643554  0.57356446  0.00000000  1
  Tb  Tb0  1  0.52964819  0.01710192  0.26497385  1
  Tb  Tb1  1  0.52964819  0.01710192  0.73502615  1
  Tb  Tb2  1  0.98289808  0.47035181  0.73502615  1
  Tb  Tb3  1  0.98289808  0.47035181  0.26497385  1
  Dy  Dy0  1  0.06619138  0.93380862  0.50000000  1
  O  O0  1  0.30400318  0.29624425  0.20803030  1
  O  O1  1  0.70375575  0.69599682  0.20803030  1
  O  O2  1  0.70375575  0.69599682  0.79196970  1
  O  O3  1  0.30400318  0.29624425  0.79196970  1
  O  O4  1  0.21541235  0.78458765  0.26087850  1
  O  O5  1  0.85350902  0.14649098  0.34077800  1
  O  O6  1  0.85350902  0.14649098  0.65922200  1
  O  O7  1  0.21541235  0.78458765  0.73912150  1
  O  O8  1  0.50054807  0.06631491  0.00000000  1
  O  O9  1  0.40364297  0.02015619  0.50000000  1
  O  O10  1  0.93368509  0.49945193  0.00000000  1
  O  O11  1  0.97984381  0.59635703  0.50000000  1
loop_
_geom_bond_atom_site_label_1
_geom_bond_atom_site_label_2
_geom_bond_distance
_geom_bond_site_symmetry_2
Ba0 O2 2.638053 1_554
Ba0 O1 2.638053 1_555
Ba0 O3 2.638053 1_554
Ba0 O0 2.638053 1_555
Ba0 O7 2.900328 1_554
Ba0 O4 2.900328 1_555
Ba0 O8 3.096945 1_565
Ba0 O10 3.096945 1_455
Ba0 O10 3.133627 1_555
Ba0 O8 3.133627 1_555
Dy0 O11 2.176183 1_455
Dy0 O9 2.176183 1_565
Dy0 O6 2.277129 1_465
Dy0 O5 2.277129 1_465
Dy0 O7 2.445904 1_555
Dy0 O4 2.445904 1_555
O0 Tb0 2.206622 1_555
O0 Tb3 2.252593 1_455
O1 Tb3 2.206622 1_555
O1 Tb0 2.252593 1_565
O2 Tb2 2.206622 1_555
O2 Tb1 2.252593 1_565
O3 Tb1 2.206622 1_555
O3 Tb2 2.252593 1_455
O4 Tb0 2.474636 1_565
O4 Tb3 2.474636 1_455
O5 Tb3 2.289873 1_555
O5 Tb0 2.289873 1_555
O6 Tb2 2.289873 1_555
O6 Tb1 2.289873 1_555
O7 Tb1 2.474636 1_565
O7 Tb2 2.474636 1_455
O8 Tb1 2.346367 1_554
O8 Tb0 2.346367 1_555
O9 Tb0 2.200077 1_555
O9 Tb1 2.200077 1_555
O10 Tb2 2.346367 1_554
O10 Tb3 2.346367 1_555
O11 Tb3 2.200077 1_555
O11 Tb2 2.200077 1_555
