# generated using pymatgen
data_Li4Co2OF7
_symmetry_space_group_name_H-M   'P 1'
_cell_length_a   6.04340196
_cell_length_b   6.01243110
_cell_length_c   10.24560328
_cell_angle_alpha   89.22114637
_cell_angle_beta   107.14399317
_cell_angle_gamma   120.17267912
_symmetry_Int_Tables_number   1
_chemical_formula_structural   Li4Co2OF7
_chemical_formula_sum   'Li8 Co4 O2 F14'
_cell_volume   303.43330339
_cell_formula_units_Z   2
loop_
 _symmetry_equiv_pos_site_id
 _symmetry_equiv_pos_as_xyz
  1  'x, y, z'
loop_
 _atom_site_type_symbol
 _atom_site_label
 _atom_site_symmetry_multiplicity
 _atom_site_fract_x
 _atom_site_fract_y
 _atom_site_fract_z
 _atom_site_occupancy
  Li  Li0  1  0.99283200  0.48982600  0.49006400  1
  Li  Li1  1  0.98700700  0.98986900  0.99007900  1
  Li  Li2  1  0.75767200  0.38501300  0.13380300  1
  Li  Li3  1  0.76113700  0.88496100  0.63378500  1
  Li  Li4  1  0.37132400  0.68471400  0.06246200  1
  Li  Li5  1  0.37584300  0.18468900  0.56247600  1
  Li  Li6  1  0.37551400  0.44070900  0.31670700  1
  Li  Li7  1  0.38190900  0.94069900  0.81670500  1
  Co  Co0  1  0.39537600  0.95045500  0.30175500  1
  Co  Co1  1  0.85689300  0.45044500  0.80178000  1
  Co  Co2  1  0.37906100  0.44008500  0.80748600  1
  Co  Co3  1  0.86855400  0.94010700  0.30747400  1
  O  O0  1  0.63604900  0.54407000  0.70408200  1
  O  O1  1  0.61222600  0.04408300  0.20407600  1
  F  F0  1  0.62670600  0.30479500  0.93333700  1
  F  F1  1  0.61134800  0.80483200  0.43331300  1
  F  F2  1  0.12531700  0.56622600  0.69418000  1
  F  F3  1  0.13530500  0.06627900  0.19418400  1
  F  F4  1  0.11133500  0.33131300  0.92118800  1
  F  F5  1  0.14112200  0.83136400  0.42115800  1
  F  F6  1  0.12722100  0.79061100  0.93255900  1
  F  F7  1  0.12716400  0.28859100  0.43374600  1
  F  F8  1  0.59497700  0.78866200  0.93365500  1
  F  F9  1  0.59580200  0.29066900  0.43248900  1
  F  F10  1  0.14930500  0.58075800  0.19806500  1
  F  F11  1  0.15452900  0.07768700  0.69569200  1
  F  F12  1  0.61883700  0.57772600  0.19563800  1
  F  F13  1  0.62964100  0.08076200  0.69806100  1
loop_
_geom_bond_atom_site_label_1
_geom_bond_atom_site_label_2
_geom_bond_distance
_geom_bond_site_symmetry_2
Li2 O1 2.003641 1_555
Li3 O0 2.003592 1_555
Li4 O1 2.138011 1_565
Li5 O0 2.138048 1_555
Co0 O1 1.747059 1_565
Co0 F9 2.018123 1_565
Co0 F10 2.022598 1_555
Co0 F3 2.056222 1_565
Co0 F5 2.085365 1_555
Co0 F1 2.089600 1_555
Co1 O0 1.747111 1_555
Co1 F6 2.018054 1_655
Co1 F13 2.022640 1_555
Co1 F2 2.056639 1_655
Co1 F4 2.085314 1_655
Co1 F0 2.089887 1_555
Co2 O0 1.975176 1_555
Co2 F11 2.019975 1_555
Co2 F8 2.023925 1_555
Co2 F2 2.090463 1_555
Co2 F4 2.104635 1_555
Co2 F0 2.149802 1_555
Co3 O1 1.975030 1_565
Co3 F12 2.020079 1_555
Co3 F7 2.023939 1_665
Co3 F3 2.090808 1_665
Co3 F5 2.104351 1_655
Co3 F1 2.149909 1_555
F0 Li2 1.939683 1_556
F0 Li7 2.045038 1_545
F1 Li3 1.939755 1_555
F1 Li6 2.045056 1_555
F2 Li0 1.973531 1_455
F2 Li7 2.114087 1_555
F3 Li1 1.973482 1_444
F3 Li6 2.113913 1_555
F4 Li1 1.999979 1_445
F4 Li4 2.113167 1_556
F5 Li0 2.000503 1_455
F5 Li5 2.113065 1_565
F6 Li1 1.958232 1_455
F6 Li4 2.028947 1_556
F6 Li7 2.060132 1_555
F7 Li0 1.933490 1_455
F7 Li5 2.034987 1_555
F7 Li6 2.044118 1_555
F8 Li1 1.934230 1_555
F8 Li4 2.034490 1_556
F8 Li7 2.042843 1_555
F9 Li0 1.958478 1_555
F9 Li5 2.028777 1_555
F9 Li6 2.059227 1_555
F10 Li2 1.929422 1_455
F10 Li6 2.050636 1_555
F10 Li4 2.086526 1_555
F11 Li3 1.938795 1_445
F11 Li7 2.051677 1_545
F11 Li5 2.062296 1_555
F12 Li2 1.938672 1_555
F12 Li6 2.051715 1_555
F12 Li4 2.062310 1_555
F13 Li3 1.929020 1_545
F13 Li7 2.050848 1_545
F13 Li5 2.087198 1_555
