# generated using pymatgen
data_SrLaTl2
_symmetry_space_group_name_H-M   'P 1'
_cell_length_a   13.43687600
_cell_length_b   13.43687600
_cell_length_c   13.43687600
_cell_angle_alpha   122.02975454
_cell_angle_beta   119.22605137
_cell_angle_gamma   88.93331400
_symmetry_Int_Tables_number   1
_chemical_formula_structural   SrLaTl2
_chemical_formula_sum   'Sr1 La1 Tl2'
_cell_volume   1697.55590361
_cell_formula_units_Z   1
loop_
 _symmetry_equiv_pos_site_id
 _symmetry_equiv_pos_as_xyz
  1  'x, y, z'
loop_
 _atom_site_type_symbol
 _atom_site_label
 _atom_site_symmetry_multiplicity
 _atom_site_fract_x
 _atom_site_fract_y
 _atom_site_fract_z
 _atom_site_occupancy
  Sr  Sr0  1  0.00000000  0.00000000  0.00000000  1
  La  La0  1  0.00000000  0.50000000  0.50000000  1
  Tl  Tl0  1  0.00000000  0.25827900  0.25827900  1
  Tl  Tl1  1  0.00000000  0.74172100  0.74172100  1
loop_
_geom_bond_atom_site_label_1
_geom_bond_atom_site_label_2
_geom_bond_distance
_geom_bond_site_symmetry_2
Sr0 Tl0 3.363451 1_555
Sr0 Tl1 3.363451 1_544
La0 Tl1 3.147824 1_555
La0 Tl0 3.147824 1_555
