# generated using pymatgen
data_Li7NbN4
_symmetry_space_group_name_H-M   'P 1'
_cell_length_a   9.76322162
_cell_length_b   9.76322162
_cell_length_c   9.76322162
_cell_angle_alpha   90.00000000
_cell_angle_beta   90.00000000
_cell_angle_gamma   90.00000000
_symmetry_Int_Tables_number   1
_chemical_formula_structural   Li7NbN4
_chemical_formula_sum   'Li56 Nb8 N32'
_cell_volume   930.63513129
_cell_formula_units_Z   8
loop_
 _symmetry_equiv_pos_site_id
 _symmetry_equiv_pos_as_xyz
  1  'x, y, z'
loop_
 _atom_site_type_symbol
 _atom_site_label
 _atom_site_symmetry_multiplicity
 _atom_site_fract_x
 _atom_site_fract_y
 _atom_site_fract_z
 _atom_site_occupancy
  Li  Li0  1  0.13117256  0.36882744  0.63117256  1
  Li  Li1  1  0.36882744  0.63117256  0.13117256  1
  Li  Li2  1  0.63117256  0.13117256  0.36882744  1
  Li  Li3  1  0.86882744  0.86882744  0.86882744  1
  Li  Li4  1  0.86882744  0.63117256  0.36882744  1
  Li  Li5  1  0.63117256  0.36882744  0.86882744  1
  Li  Li6  1  0.36882744  0.86882744  0.63117256  1
  Li  Li7  1  0.13117256  0.13117256  0.13117256  1
  Li  Li8  1  0.62031991  0.90003531  0.63187019  1
  Li  Li9  1  0.12031991  0.59996469  0.36812981  1
  Li  Li10  1  0.37968009  0.40003531  0.86812981  1
  Li  Li11  1  0.59996469  0.36812981  0.12031991  1
  Li  Li12  1  0.86812981  0.37968009  0.40003531  1
  Li  Li13  1  0.36812981  0.12031991  0.59996469  1
  Li  Li14  1  0.90003531  0.63187019  0.62031991  1
  Li  Li15  1  0.63187019  0.62031991  0.90003531  1
  Li  Li16  1  0.40003531  0.86812981  0.37968009  1
  Li  Li17  1  0.09996469  0.13187019  0.87968009  1
  Li  Li18  1  0.13187019  0.87968009  0.09996469  1
  Li  Li19  1  0.87968009  0.09996469  0.13187019  1
  Li  Li20  1  0.37968009  0.09996469  0.36812981  1
  Li  Li21  1  0.87968009  0.40003531  0.63187019  1
  Li  Li22  1  0.62031991  0.59996469  0.13187019  1
  Li  Li23  1  0.63986098  0.11647184  0.86862554  1
  Li  Li24  1  0.40003531  0.63187019  0.87968009  1
  Li  Li25  1  0.63187019  0.87968009  0.40003531  1
  Li  Li26  1  0.09996469  0.36812981  0.37968009  1
  Li  Li27  1  0.36812981  0.37968009  0.09996469  1
  Li  Li28  1  0.59996469  0.13187019  0.62031991  1
  Li  Li29  1  0.90003531  0.86812981  0.12031991  1
  Li  Li30  1  0.86812981  0.12031991  0.90003531  1
  Li  Li31  1  0.12031991  0.90003531  0.86812981  1
  Li  Li32  1  0.13137446  0.13986098  0.38352816  1
  Li  Li33  1  0.63137446  0.36013902  0.61647184  1
  Li  Li34  1  0.86862554  0.63986098  0.11647184  1
  Li  Li35  1  0.36013902  0.61647184  0.63137446  1
  Li  Li36  1  0.11647184  0.86862554  0.63986098  1
  Li  Li37  1  0.61647184  0.63137446  0.36013902  1
  Li  Li38  1  0.13986098  0.38352816  0.13137446  1
  Li  Li39  1  0.38352816  0.13137446  0.13986098  1
  Li  Li40  1  0.63137446  0.13986098  0.11647184  1
  Li  Li41  1  0.11647184  0.63137446  0.13986098  1
  Li  Li42  1  0.13986098  0.11647184  0.63137446  1
  Li  Li43  1  0.36013902  0.88352816  0.13137446  1
  Li  Li44  1  0.61647184  0.86862554  0.86013902  1
  Li  Li45  1  0.86013902  0.61647184  0.86862554  1
  Li  Li46  1  0.38352816  0.36862554  0.63986098  1
  Li  Li47  1  0.88352816  0.13137446  0.36013902  1
  Li  Li48  1  0.63986098  0.38352816  0.36862554  1
  Li  Li49  1  0.13137446  0.36013902  0.88352816  1
  Li  Li50  1  0.36862554  0.63986098  0.38352816  1
  Li  Li51  1  0.86862554  0.86013902  0.61647184  1
  Li  Li52  1  0.36862554  0.86013902  0.88352816  1
  Li  Li53  1  0.88352816  0.36862554  0.86013902  1
  Li  Li54  1  0.86013902  0.88352816  0.36862554  1
  Li  Li55  1  0.13187019  0.62031991  0.59996469  1
  Nb  Nb0  1  0.37254286  0.12745714  0.87254286  1
  Nb  Nb1  1  0.12745714  0.87254286  0.37254286  1
  Nb  Nb2  1  0.87254286  0.37254286  0.12745714  1
  Nb  Nb3  1  0.62745714  0.62745714  0.62745714  1
  Nb  Nb4  1  0.62745714  0.87254286  0.12745714  1
  Nb  Nb5  1  0.87254286  0.12745714  0.62745714  1
  Nb  Nb6  1  0.12745714  0.62745714  0.87254286  1
  Nb  Nb7  1  0.37254286  0.37254286  0.37254286  1
  N  N0  1  0.25669455  0.24330545  0.75669455  1
  N  N1  1  0.24330545  0.75669455  0.25669455  1
  N  N2  1  0.75669455  0.25669455  0.24330545  1
  N  N3  1  0.74330545  0.74330545  0.74330545  1
  N  N4  1  0.74330545  0.75669455  0.24330545  1
  N  N5  1  0.75669455  0.24330545  0.74330545  1
  N  N6  1  0.24330545  0.74330545  0.75669455  1
  N  N7  1  0.25669455  0.25669455  0.25669455  1
  N  N8  1  0.75469507  0.01278774  0.50899127  1
  N  N9  1  0.25469507  0.48721226  0.49100873  1
  N  N10  1  0.24530493  0.51278774  0.99100873  1
  N  N11  1  0.48721226  0.49100873  0.25469507  1
  N  N12  1  0.99100873  0.24530493  0.51278774  1
  N  N13  1  0.49100873  0.25469507  0.48721226  1
  N  N14  1  0.01278774  0.50899127  0.75469507  1
  N  N15  1  0.50899127  0.75469507  0.01278774  1
  N  N16  1  0.51278774  0.99100873  0.24530493  1
  N  N17  1  0.98721226  0.00899127  0.74530493  1
  N  N18  1  0.00899127  0.74530493  0.98721226  1
  N  N19  1  0.74530493  0.98721226  0.00899127  1
  N  N20  1  0.24530493  0.98721226  0.49100873  1
  N  N21  1  0.74530493  0.51278774  0.50899127  1
  N  N22  1  0.75469507  0.48721226  0.00899127  1
  N  N23  1  0.51278774  0.50899127  0.74530493  1
  N  N24  1  0.00899127  0.75469507  0.48721226  1
  N  N25  1  0.50899127  0.74530493  0.51278774  1
  N  N26  1  0.98721226  0.49100873  0.24530493  1
  N  N27  1  0.49100873  0.24530493  0.98721226  1
  N  N28  1  0.48721226  0.00899127  0.75469507  1
  N  N29  1  0.01278774  0.99100873  0.25469507  1
  N  N30  1  0.99100873  0.25469507  0.01278774  1
  N  N31  1  0.25469507  0.01278774  0.99100873  1
loop_
_geom_bond_atom_site_label_1
_geom_bond_atom_site_label_2
_geom_bond_distance
_geom_bond_site_symmetry_2
Li0 N0 2.122627 1_555
Li0 N12 2.159387 1_455
Li0 N9 2.159387 1_555
Li0 N14 2.159387 1_555
Li1 N1 2.122627 1_555
Li1 N10 2.159387 1_554
Li1 N11 2.159387 1_555
Li1 N15 2.159387 1_555
Li2 N2 2.122627 1_555
Li2 N16 2.159387 1_545
Li2 N13 2.159387 1_555
Li2 N8 2.159387 1_555
Li3 N3 2.122627 1_555
Li3 N19 2.159387 1_556
Li3 N17 2.159387 1_565
Li3 N18 2.159387 1_655
Li4 N4 2.122627 1_555
Li4 N21 2.159387 1_555
Li4 N26 2.159387 1_555
Li4 N24 2.159387 1_655
Li5 N5 2.122627 1_555
Li5 N23 2.159387 1_555
Li5 N27 2.159387 1_555
Li5 N22 2.159387 1_556
Li6 N6 2.122627 1_555
Li6 N25 2.159387 1_555
Li6 N20 2.159387 1_555
Li6 N28 2.159387 1_565
Li7 N7 2.122627 1_555
Li7 N31 2.159387 1_554
Li7 N29 2.159387 1_545
Li7 N30 2.159387 1_455
Li8 N28 2.063600 1_565
Li8 N8 2.090995 1_565
Li8 N25 2.194363 1_555
Li8 N3 2.228657 1_555
Li9 N26 2.063600 1_455
Li9 N9 2.090995 1_555
Li9 N24 2.194363 1_555
Li9 N1 2.228657 1_555
Li10 N23 2.063600 1_555
Li10 N10 2.090995 1_555
Li10 N27 2.194363 1_555
Li10 N0 2.228657 1_555
Li11 N27 2.063600 1_554
Li11 N11 2.090995 1_555
Li11 N22 2.194363 1_555
Li11 N2 2.228657 1_555
Li12 N21 2.063600 1_555
Li12 N12 2.090995 1_555
Li12 N26 2.194363 1_555
Li12 N2 2.228657 1_555
Li13 N20 2.063600 1_545
Li13 N13 2.090995 1_555
Li13 N28 2.194363 1_555
Li13 N0 2.228657 1_555
Li14 N24 2.063600 1_655
Li14 N14 2.090995 1_655
Li14 N21 2.194363 1_555
Li14 N3 2.228657 1_555
Li15 N22 2.063600 1_556
Li15 N15 2.090995 1_556
Li15 N23 2.194363 1_555
Li15 N3 2.228657 1_555
Li16 N25 2.063600 1_555
Li16 N16 2.090995 1_555
Li16 N20 2.194363 1_555
Li16 N1 2.228657 1_555
Li17 N30 2.063600 1_456
Li17 N17 2.090995 1_455
Li17 N31 2.194363 1_555
Li17 N0 2.228657 1_555
Li18 N31 2.063600 1_564
Li18 N18 2.090995 1_554
Li18 N29 2.194363 1_555
Li18 N1 2.228657 1_555
Li19 N29 2.063600 1_645
Li19 N19 2.090995 1_545
Li19 N30 2.194363 1_555
Li19 N2 2.228657 1_555
Li20 N16 2.063600 1_545
Li20 N20 2.090995 1_545
Li20 N13 2.194363 1_555
Li20 N7 2.228657 1_555
Li21 N14 2.063600 1_655
Li21 N21 2.090995 1_555
Li21 N12 2.194363 1_555
Li21 N5 2.228657 1_555
Li22 N11 2.063600 1_555
Li22 N22 2.090995 1_555
Li22 N15 2.194363 1_555
Li22 N4 2.228657 1_555
Li23 N5 2.081238 1_555
Li23 N19 2.128494 1_546
Li23 N28 2.135310 1_555
Li23 N27 2.243795 1_555
Li24 N15 2.063600 1_556
Li24 N23 2.090995 1_555
Li24 N10 2.194363 1_555
Li24 N6 2.228657 1_555
Li25 N8 2.063600 1_565
Li25 N25 2.090995 1_555
Li25 N16 2.194363 1_555
Li25 N4 2.228657 1_555
Li26 N12 2.063600 1_455
Li26 N26 2.090995 1_455
Li26 N9 2.194363 1_555
Li26 N7 2.228657 1_555
Li27 N10 2.063600 1_554
Li27 N27 2.090995 1_554
Li27 N11 2.194363 1_555
Li27 N7 2.228657 1_555
Li28 N13 2.063600 1_555
Li28 N28 2.090995 1_555
Li28 N8 2.194363 1_555
Li28 N5 2.228657 1_555
Li29 N18 2.063600 1_654
Li29 N29 2.090995 1_655
Li29 N19 2.194363 1_555
Li29 N4 2.228657 1_555
Li30 N19 2.063600 1_546
Li30 N30 2.090995 1_556
Li30 N17 2.194363 1_555
Li30 N5 2.228657 1_555
Li31 N17 2.063600 1_465
Li31 N31 2.090995 1_565
Li31 N18 2.194363 1_555
Li31 N6 2.228657 1_555
Li32 N7 2.081238 1_555
Li32 N12 2.128494 1_455
Li32 N20 2.135310 1_545
Li32 N29 2.243795 1_545
Li33 N5 2.081238 1_555
Li33 N13 2.128494 1_555
Li33 N21 2.135310 1_555
Li33 N23 2.243795 1_555
Li34 N4 2.081238 1_555
Li34 N18 2.128494 1_654
Li34 N22 2.135310 1_555
Li34 N26 2.243795 1_555
Li35 N6 2.081238 1_555
Li35 N9 2.128494 1_555
Li35 N23 2.135310 1_555
Li35 N25 2.243795 1_555
Li36 N6 2.081238 1_555
Li36 N17 2.128494 1_465
Li36 N24 2.135310 1_555
Li36 N20 2.243795 1_555
Li37 N4 2.081238 1_555
Li37 N11 2.128494 1_555
Li37 N25 2.135310 1_555
Li37 N21 2.243795 1_555
Li38 N7 2.081238 1_555
Li38 N10 2.128494 1_554
Li38 N26 2.135310 1_455
Li38 N30 2.243795 1_455
Li39 N7 2.081238 1_555
Li39 N16 2.128494 1_545
Li39 N27 2.135310 1_554
Li39 N31 2.243795 1_554
Li40 N2 2.081238 1_555
Li40 N27 2.128494 1_554
Li40 N19 2.135310 1_545
Li40 N16 2.243795 1_545
Li41 N1 2.081238 1_555
Li41 N26 2.128494 1_455
Li41 N18 2.135310 1_554
Li41 N10 2.243795 1_554
Li42 N0 2.081238 1_555
Li42 N20 2.128494 1_545
Li42 N17 2.135310 1_455
Li42 N12 2.243795 1_455
Li43 N1 2.081238 1_555
Li43 N31 2.128494 1_564
Li43 N16 2.135310 1_555
Li43 N15 2.243795 1_555
Li44 N3 2.081238 1_555
Li44 N28 2.128494 1_565
Li44 N15 2.135310 1_556
Li44 N19 2.243795 1_556
Li45 N3 2.081238 1_555
Li45 N22 2.128494 1_556
Li45 N14 2.135310 1_655
Li45 N18 2.243795 1_655
Li46 N0 2.081238 1_555
Li46 N23 2.128494 1_555
Li46 N13 2.135310 1_555
Li46 N9 2.243795 1_555
Li47 N2 2.081238 1_555
Li47 N29 2.128494 1_645
Li47 N12 2.135310 1_555
Li47 N8 2.243795 1_555
Li48 N2 2.081238 1_555
Li48 N21 2.128494 1_555
Li48 N11 2.135310 1_555
Li48 N13 2.243795 1_555
Li49 N0 2.081238 1_555
Li49 N30 2.128494 1_456
Li49 N10 2.135310 1_555
Li49 N14 2.243795 1_555
Li50 N1 2.081238 1_555
Li50 N25 2.128494 1_555
Li50 N9 2.135310 1_555
Li50 N11 2.243795 1_555
Li51 N3 2.081238 1_555
Li51 N24 2.128494 1_655
Li51 N8 2.135310 1_565
Li51 N17 2.243795 1_565
Li52 N6 2.081238 1_555
Li52 N15 2.128494 1_556
Li52 N31 2.135310 1_565
Li52 N28 2.243795 1_565
Li53 N5 2.081238 1_555
Li53 N14 2.128494 1_655
Li53 N30 2.135310 1_556
Li53 N22 2.243795 1_556
Li54 N4 2.081238 1_555
Li54 N8 2.128494 1_565
Li54 N29 2.135310 1_655
Li54 N24 2.243795 1_655
Li55 N9 2.063600 1_555
Li55 N24 2.090995 1_555
Li55 N14 2.194363 1_555
Li55 N6 2.228657 1_555
N0 Nb0 1.959041 1_555
N1 Nb1 1.959041 1_555
N2 Nb2 1.959041 1_555
N3 Nb3 1.959041 1_555
N4 Nb4 1.959041 1_555
N5 Nb5 1.959041 1_555
N6 Nb6 1.959041 1_555
N7 Nb7 1.959041 1_555
N8 Nb5 1.978621 1_555
N9 Nb7 1.978621 1_555
N10 Nb6 1.978621 1_555
N11 Nb7 1.978621 1_555
N12 Nb5 1.978621 1_555
N13 Nb7 1.978621 1_555
N14 Nb6 1.978621 1_555
N15 Nb4 1.978621 1_555
N16 Nb4 1.978621 1_555
N17 Nb5 1.978621 1_555
N18 Nb6 1.978621 1_555
N19 Nb4 1.978621 1_555
N20 Nb1 1.978621 1_555
N21 Nb3 1.978621 1_555
N22 Nb2 1.978621 1_555
N23 Nb3 1.978621 1_555
N24 Nb1 1.978621 1_555
N25 Nb3 1.978621 1_555
N26 Nb2 1.978621 1_555
N27 Nb0 1.978621 1_555
N28 Nb0 1.978621 1_555
N29 Nb1 1.978621 1_555
N30 Nb2 1.978621 1_555
N31 Nb0 1.978621 1_555
