# generated using pymatgen
data_Te6MoI3
_symmetry_space_group_name_H-M   'P 1'
_cell_length_a   16.78284700
_cell_length_b   12.07292600
_cell_length_c   17.46714036
_cell_angle_alpha   64.96238784
_cell_angle_beta   90.00000000
_cell_angle_gamma   90.00000000
_symmetry_Int_Tables_number   1
_chemical_formula_structural   Te6MoI3
_chemical_formula_sum   'Te48 Mo8 I24'
_cell_volume   3206.58413543
_cell_formula_units_Z   8
loop_
 _symmetry_equiv_pos_site_id
 _symmetry_equiv_pos_as_xyz
  1  'x, y, z'
loop_
 _atom_site_type_symbol
 _atom_site_label
 _atom_site_symmetry_multiplicity
 _atom_site_fract_x
 _atom_site_fract_y
 _atom_site_fract_z
 _atom_site_occupancy
  Te  Te0  1  0.84169900  0.13818900  0.39003100  1
  Te  Te1  1  0.65830100  0.13818900  0.89003100  1
  Te  Te2  1  0.15830100  0.86181100  0.60996900  1
  Te  Te3  1  0.34169900  0.86181100  0.10996900  1
  Te  Te4  1  0.74839100  0.17731000  0.24624900  1
  Te  Te5  1  0.75160900  0.17731000  0.74624900  1
  Te  Te6  1  0.25160900  0.82269000  0.75375100  1
  Te  Te7  1  0.24839100  0.82269000  0.25375100  1
  Te  Te8  1  0.91106000  0.35004100  0.11043400  1
  Te  Te9  1  0.58894000  0.35004100  0.61043400  1
  Te  Te10  1  0.08894000  0.64995900  0.88956600  1
  Te  Te11  1  0.41106000  0.64995900  0.38956600  1
  Te  Te12  1  0.00417800  0.31187100  0.25417700  1
  Te  Te13  1  0.49582200  0.31187100  0.75417700  1
  Te  Te14  1  0.99582200  0.68812900  0.74582300  1
  Te  Te15  1  0.50417800  0.68812900  0.24582300  1
  Te  Te16  1  0.86556000  0.87403700  0.32149300  1
  Te  Te17  1  0.63444000  0.87403700  0.82149300  1
  Te  Te18  1  0.13444000  0.12596300  0.67850700  1
  Te  Te19  1  0.36556000  0.12596300  0.17850700  1
  Te  Te20  1  0.88707300  0.00966200  0.14109400  1
  Te  Te21  1  0.61292700  0.00966200  0.64109400  1
  Te  Te22  1  0.11292700  0.99033800  0.85890600  1
  Te  Te23  1  0.38707300  0.99033800  0.35890600  1
  Te  Te24  1  0.04222700  0.06156300  0.17484700  1
  Te  Te25  1  0.45777300  0.06156300  0.67484700  1
  Te  Te26  1  0.95777300  0.93843700  0.82515300  1
  Te  Te27  1  0.54222700  0.93843700  0.32515300  1
  Te  Te28  1  0.01715400  0.94555500  0.35287900  1
  Te  Te29  1  0.48284600  0.94555500  0.85287900  1
  Te  Te30  1  0.98284600  0.05444500  0.64712100  1
  Te  Te31  1  0.51715400  0.05444500  0.14712100  1
  Te  Te32  1  0.71075700  0.42800600  0.32612900  1
  Te  Te33  1  0.78924300  0.42800600  0.82612900  1
  Te  Te34  1  0.28924300  0.57199400  0.67387100  1
  Te  Te35  1  0.21075700  0.57199400  0.17387100  1
  Te  Te36  1  0.73384200  0.53974100  0.14660200  1
  Te  Te37  1  0.76615800  0.53974100  0.64660200  1
  Te  Te38  1  0.26615800  0.46025900  0.85339800  1
  Te  Te39  1  0.23384200  0.46025900  0.35339800  1
  Te  Te40  1  0.88439800  0.61615800  0.17437400  1
  Te  Te41  1  0.61560200  0.61615800  0.67437400  1
  Te  Te42  1  0.11560200  0.38384200  0.82562600  1
  Te  Te43  1  0.38439800  0.38384200  0.32562600  1
  Te  Te44  1  0.86611300  0.48711300  0.35273200  1
  Te  Te45  1  0.63388700  0.48711300  0.85273200  1
  Te  Te46  1  0.13388700  0.51288700  0.64726800  1
  Te  Te47  1  0.36611300  0.51288700  0.14726800  1
  Mo  Mo0  1  0.90907000  0.12913700  0.24915200  1
  Mo  Mo1  1  0.59093000  0.12913700  0.74915200  1
  Mo  Mo2  1  0.09093000  0.87086300  0.75084800  1
  Mo  Mo3  1  0.40907000  0.87086300  0.25084800  1
  Mo  Mo4  1  0.84342300  0.36008300  0.25056600  1
  Mo  Mo5  1  0.65657700  0.36008300  0.75056600  1
  Mo  Mo6  1  0.15657700  0.63991700  0.74943400  1
  Mo  Mo7  1  0.34342300  0.63991700  0.24943400  1
  I  I0  1  0.70408600  0.86775100  0.21526900  1
  I  I1  1  0.79591400  0.86775100  0.71526900  1
  I  I2  1  0.29591400  0.13224900  0.78473100  1
  I  I3  1  0.20408600  0.13224900  0.28473100  1
  I  I4  1  0.93794700  0.17809100  0.96314000  1
  I  I5  1  0.56205300  0.17809100  0.46314000  1
  I  I6  1  0.06205300  0.82190900  0.03686000  1
  I  I7  1  0.43794700  0.82190900  0.53686000  1
  I  I8  1  0.95291500  0.79790700  0.54486500  1
  I  I9  1  0.54708500  0.79790700  0.04486500  1
  I  I10  1  0.04708500  0.20209300  0.45513500  1
  I  I11  1  0.45291500  0.20209300  0.95513500  1
  I  I12  1  0.78903800  0.28698100  0.54560000  1
  I  I13  1  0.71096200  0.28698100  0.04560000  1
  I  I14  1  0.21096200  0.71301900  0.45440000  1
  I  I15  1  0.28903800  0.71301900  0.95440000  1
  I  I16  1  0.55392500  0.37522700  0.20808600  1
  I  I17  1  0.94607500  0.37522700  0.70808600  1
  I  I18  1  0.44607500  0.62477300  0.79191400  1
  I  I19  1  0.05392500  0.62477300  0.29191400  1
  I  I20  1  0.82333000  0.67388400  0.97389200  1
  I  I21  1  0.67667000  0.67388400  0.47389200  1
  I  I22  1  0.17667000  0.32611600  0.02610800  1
  I  I23  1  0.32333000  0.32611600  0.52610800  1
loop_
_geom_bond_atom_site_label_1
_geom_bond_atom_site_label_2
_geom_bond_distance
_geom_bond_site_symmetry_2
Te0 Te4 2.824672 1_555
Te1 Te5 2.824672 1_555
Te2 Te6 2.824672 1_555
Te3 Te7 2.824672 1_555
Te10 Te14 2.824771 1_455
Te11 Te15 2.824771 1_555
Te12 Te8 2.824771 1_455
Te13 Te9 2.824771 1_555
Te16 Te28 2.814173 1_655
Te16 Te20 2.893684 1_565
Te17 Te29 2.814173 1_555
Te17 Te21 2.893684 1_565
Te18 Te30 2.814173 1_455
Te18 Te22 2.893684 1_545
Te19 Te31 2.814173 1_555
Te19 Te23 2.893684 1_545
Te20 Te24 2.798809 1_655
Te21 Te25 2.798809 1_555
Te22 Te26 2.798809 1_455
Te23 Te27 2.798809 1_555
Te24 Te28 2.849993 1_545
Te25 Te29 2.849993 1_545
Te26 Te30 2.849993 1_565
Te27 Te31 2.849993 1_565
Te32 Te44 2.793548 1_555
Te32 Te36 2.867528 1_555
Te33 Te45 2.793548 1_555
Te33 Te37 2.867528 1_555
Te34 Te46 2.793548 1_555
Te34 Te38 2.867528 1_555
Te35 Te47 2.793548 1_555
Te35 Te39 2.867528 1_555
Te36 Te40 2.801747 1_555
Te37 Te41 2.801747 1_555
Te38 Te42 2.801747 1_555
Te39 Te43 2.801747 1_555
Te40 Te44 2.849363 1_555
Te41 Te45 2.849363 1_555
Te42 Te46 2.849363 1_555
Te43 Te47 2.849363 1_555
Mo0 Te8 2.741366 1_555
Mo0 Te0 2.751963 1_555
Mo0 Te12 2.754348 1_655
Mo0 Te4 2.754593 1_555
Mo0 Te20 2.843196 1_555
Mo0 Te28 2.843670 1_645
Mo0 Te24 2.870618 1_655
Mo0 Te16 2.884634 1_545
Mo1 Te9 2.741366 1_555
Mo1 Te1 2.751963 1_555
Mo1 Te13 2.754348 1_555
Mo1 Te5 2.754593 1_555
Mo1 Te21 2.843196 1_555
Mo1 Te29 2.843670 1_545
Mo1 Te25 2.870618 1_555
Mo1 Te17 2.884634 1_545
Mo2 Te10 2.741366 1_555
Mo2 Te2 2.751963 1_555
Mo2 Te14 2.754348 1_455
Mo2 Te6 2.754593 1_555
Mo2 Te22 2.843196 1_555
Mo2 Te30 2.843670 1_465
Mo2 Te26 2.870618 1_455
Mo2 Te18 2.884634 1_565
Mo3 Te11 2.741366 1_555
Mo3 Te3 2.751963 1_555
Mo3 Te15 2.754348 1_555
Mo3 Te7 2.754593 1_555
Mo3 Te23 2.843196 1_555
Mo3 Te31 2.843670 1_565
Mo3 Te27 2.870618 1_555
Mo3 Te19 2.884634 1_565
Mo4 Te8 2.746941 1_555
Mo4 Te4 2.749429 1_555
Mo4 Te0 2.754633 1_555
Mo4 Te12 2.755087 1_655
Mo4 Te44 2.828099 1_555
Mo4 Te36 2.837350 1_555
Mo4 Te32 2.878885 1_555
Mo4 Te40 2.884327 1_555
Mo5 Te9 2.746941 1_555
Mo5 Te5 2.749429 1_555
Mo5 Te1 2.754633 1_555
Mo5 Te13 2.755087 1_555
Mo5 Te45 2.828099 1_555
Mo5 Te37 2.837350 1_555
Mo5 Te33 2.878885 1_555
Mo5 Te41 2.884327 1_555
Mo6 Te10 2.746941 1_555
Mo6 Te6 2.749429 1_555
Mo6 Te2 2.754633 1_555
Mo6 Te14 2.755087 1_455
Mo6 Te46 2.828099 1_555
Mo6 Te38 2.837350 1_555
Mo6 Te34 2.878885 1_555
Mo6 Te42 2.884327 1_555
Mo7 Te11 2.746941 1_555
Mo7 Te7 2.749429 1_555
Mo7 Te3 2.754633 1_555
Mo7 Te15 2.755087 1_555
Mo7 Te47 2.828099 1_555
Mo7 Te39 2.837350 1_555
Mo7 Te35 2.878885 1_555
Mo7 Te43 2.884327 1_555
I0 Te16 3.303275 1_555
I0 Te20 3.488038 1_565
I1 Te17 3.303275 1_555
I1 Te21 3.488038 1_565
I2 Te18 3.303275 1_555
I2 Te22 3.488038 1_545
I3 Te19 3.303275 1_555
I3 Te23 3.488038 1_545
I4 Te20 3.029146 1_556
I5 Te21 3.029146 1_555
I6 Te22 3.029146 1_554
I7 Te23 3.029146 1_555
I8 Te28 3.244340 1_655
I8 Te14 3.264751 1_555
I9 Te29 3.244340 1_554
I9 Te15 3.264751 1_555
I10 Te30 3.244340 1_455
I10 Te12 3.264751 1_555
I11 Te31 3.244340 1_556
I11 Te13 3.264751 1_555
I12 Te5 3.240871 1_555
I12 Te44 3.459860 1_555
I13 Te4 3.240871 1_555
I13 Te45 3.459860 1_554
I14 Te7 3.240871 1_555
I14 Te46 3.459860 1_555
I15 Te6 3.240871 1_555
I15 Te47 3.459860 1_556
I16 Te47 3.511619 1_555
I16 Te36 3.522819 1_555
I16 Te43 3.535758 1_555
I16 Te32 3.563324 1_555
I17 Te46 3.511619 1_655
I17 Te37 3.522819 1_555
I17 Te42 3.535758 1_655
I17 Te33 3.563324 1_555
I18 Te45 3.511619 1_555
I18 Te38 3.522819 1_555
I18 Te41 3.535758 1_555
I18 Te34 3.563324 1_555
I19 Te44 3.511619 1_455
I19 Te39 3.522819 1_555
I19 Te40 3.535758 1_455
I19 Te35 3.563324 1_555
I20 Te36 3.137488 1_556
I20 Te40 3.425395 1_556
I21 Te37 3.137488 1_555
I21 Te41 3.425395 1_555
I22 Te38 3.137488 1_554
I22 Te42 3.425395 1_554
I23 Te39 3.137488 1_555
I23 Te43 3.425395 1_555
