# generated using pymatgen
data_Ti2P3H7NO13
_symmetry_space_group_name_H-M   'P 1'
_cell_length_a   10.02908300
_cell_length_b   10.02908300
_cell_length_c   10.02908300
_cell_angle_alpha   90.00000000
_cell_angle_beta   90.00000000
_cell_angle_gamma   90.00000000
_symmetry_Int_Tables_number   1
_chemical_formula_structural   Ti2P3H7NO13
_chemical_formula_sum   'Ti8 P12 H28 N4 O52'
_cell_volume   1008.75029923
_cell_formula_units_Z   4
loop_
 _symmetry_equiv_pos_site_id
 _symmetry_equiv_pos_as_xyz
  1  'x, y, z'
loop_
 _atom_site_type_symbol
 _atom_site_label
 _atom_site_symmetry_multiplicity
 _atom_site_fract_x
 _atom_site_fract_y
 _atom_site_fract_z
 _atom_site_occupancy
  Ti  Ti0  1  0.41057200  0.91057200  0.58942800  1
  Ti  Ti1  1  0.91057200  0.58942800  0.41057200  1
  Ti  Ti2  1  0.58942800  0.41057200  0.91057200  1
  Ti  Ti3  1  0.08942800  0.08942800  0.08942800  1
  Ti  Ti4  1  0.14177500  0.64177500  0.85822500  1
  Ti  Ti5  1  0.64177500  0.85822500  0.14177500  1
  Ti  Ti6  1  0.85822500  0.14177500  0.64177500  1
  Ti  Ti7  1  0.35822500  0.35822500  0.35822500  1
  P  P0  1  0.12351900  0.95958100  0.77126500  1
  P  P1  1  0.22873500  0.62351900  0.54041900  1
  P  P2  1  0.45958100  0.72873500  0.87648100  1
  P  P3  1  0.62351900  0.54041900  0.22873500  1
  P  P4  1  0.72873500  0.87648100  0.45958100  1
  P  P5  1  0.95958100  0.77126500  0.12351900  1
  P  P6  1  0.87648100  0.45958100  0.72873500  1
  P  P7  1  0.77126500  0.12351900  0.95958100  1
  P  P8  1  0.54041900  0.22873500  0.62351900  1
  P  P9  1  0.37648100  0.04041900  0.27126500  1
  P  P10  1  0.27126500  0.37648100  0.04041900  1
  P  P11  1  0.04041900  0.27126500  0.37648100  1
  H  H0  1  0.32634000  0.04156800  0.92582900  1
  H  H1  1  0.07417100  0.82634000  0.45843200  1
  H  H2  1  0.54156800  0.57417100  0.67366000  1
  H  H3  1  0.82634000  0.45843200  0.07417100  1
  H  H4  1  0.57417100  0.67366000  0.54156800  1
  H  H5  1  0.04156800  0.92582900  0.32634000  1
  H  H6  1  0.67366000  0.54156800  0.57417100  1
  H  H7  1  0.92582900  0.32634000  0.04156800  1
  H  H8  1  0.45843200  0.07417100  0.82634000  1
  H  H9  1  0.17366000  0.95843200  0.42582900  1
  H  H10  1  0.42582900  0.17366000  0.95843200  1
  H  H11  1  0.95843200  0.42582900  0.17366000  1
  H  H12  1  0.48306200  0.01693800  0.98306200  1
  H  H13  1  0.01693800  0.98306200  0.48306200  1
  H  H14  1  0.51693800  0.51693800  0.51693800  1
  H  H15  1  0.98306200  0.48306200  0.01693800  1
  H  H16  1  0.90627900  0.80220900  0.78053800  1
  H  H17  1  0.21946200  0.40627900  0.69779100  1
  H  H18  1  0.30220900  0.71946200  0.09372100  1
  H  H19  1  0.40627900  0.69779100  0.21946200  1
  H  H20  1  0.71946200  0.09372100  0.30220900  1
  H  H21  1  0.80220900  0.78053800  0.90627900  1
  H  H22  1  0.09372100  0.30220900  0.71946200  1
  H  H23  1  0.78053800  0.90627900  0.80220900  1
  H  H24  1  0.69779100  0.21946200  0.40627900  1
  H  H25  1  0.59372100  0.19779100  0.28053800  1
  H  H26  1  0.28053800  0.59372100  0.19779100  1
  H  H27  1  0.19779100  0.28053800  0.59372100  1
  N  N0  1  0.42413800  0.07586200  0.92413800  1
  N  N1  1  0.07586200  0.92413800  0.42413800  1
  N  N2  1  0.57586200  0.57586200  0.57586200  1
  N  N3  1  0.92413800  0.42413800  0.07586200  1
  O  O0  1  0.25366600  0.97135300  0.69090700  1
  O  O1  1  0.30909300  0.75366600  0.52864700  1
  O  O2  1  0.47135300  0.80909300  0.74633400  1
  O  O3  1  0.75366600  0.52864700  0.30909300  1
  O  O4  1  0.80909300  0.74633400  0.47135300  1
  O  O5  1  0.97135300  0.69090700  0.25366600  1
  O  O6  1  0.74633400  0.47135300  0.80909300  1
  O  O7  1  0.69090700  0.25366600  0.97135300  1
  O  O8  1  0.52864700  0.30909300  0.75366600  1
  O  O9  1  0.24633400  0.02864700  0.19090700  1
  O  O10  1  0.19090700  0.24633400  0.02864700  1
  O  O11  1  0.02864700  0.19090700  0.24633400  1
  O  O12  1  0.07057200  0.81256300  0.76806800  1
  O  O13  1  0.23193200  0.57057200  0.68743700  1
  O  O14  1  0.31256300  0.73193200  0.92942800  1
  O  O15  1  0.57057200  0.68743700  0.23193200  1
  O  O16  1  0.73193200  0.92942800  0.31256300  1
  O  O17  1  0.81256300  0.76806800  0.07057200  1
  O  O18  1  0.92942800  0.31256300  0.73193200  1
  O  O19  1  0.76806800  0.07057200  0.81256300  1
  O  O20  1  0.68743700  0.23193200  0.57057200  1
  O  O21  1  0.42942800  0.18743700  0.26806800  1
  O  O22  1  0.26806800  0.42942800  0.18743700  1
  O  O23  1  0.18743700  0.26806800  0.42942800  1
  O  O24  1  0.14862600  0.00314500  0.91703500  1
  O  O25  1  0.08296500  0.64862600  0.49685500  1
  O  O26  1  0.50314500  0.58296500  0.85137400  1
  O  O27  1  0.64862600  0.49685500  0.08296500  1
  O  O28  1  0.58296500  0.85137400  0.50314500  1
  O  O29  1  0.00314500  0.91703500  0.14862600  1
  O  O30  1  0.85137400  0.50314500  0.58296500  1
  O  O31  1  0.91703500  0.14862600  0.00314500  1
  O  O32  1  0.49685500  0.08296500  0.64862600  1
  O  O33  1  0.35137400  0.99685500  0.41703500  1
  O  O34  1  0.41703500  0.35137400  0.99685500  1
  O  O35  1  0.99685500  0.41703500  0.35137400  1
  O  O36  1  0.01876100  0.04879300  0.70365700  1
  O  O37  1  0.29634300  0.51876100  0.45120700  1
  O  O38  1  0.54879300  0.79634300  0.98123900  1
  O  O39  1  0.51876100  0.45120700  0.29634300  1
  O  O40  1  0.79634300  0.98123900  0.54879300  1
  O  O41  1  0.04879300  0.70365700  0.01876100  1
  O  O42  1  0.98123900  0.54879300  0.79634300  1
  O  O43  1  0.70365700  0.01876100  0.04879300  1
  O  O44  1  0.45120700  0.29634300  0.51876100  1
  O  O45  1  0.48123900  0.95120700  0.20365700  1
  O  O46  1  0.20365700  0.48123900  0.95120700  1
  O  O47  1  0.95120700  0.20365700  0.48123900  1
  O  O48  1  0.80755700  0.80755700  0.80755700  1
  O  O49  1  0.19244300  0.30755700  0.69244300  1
  O  O50  1  0.30755700  0.69244300  0.19244300  1
  O  O51  1  0.69244300  0.19244300  0.30755700  1
loop_
_geom_bond_atom_site_label_1
_geom_bond_atom_site_label_2
_geom_bond_distance
_geom_bond_site_symmetry_2
H0 N0 1.039518 1_555
H1 N1 1.039518 1_555
H2 N2 1.039518 1_555
H3 N3 1.039518 1_555
H4 N2 1.039518 1_555
H5 N1 1.039518 1_555
H6 N2 1.039518 1_555
H7 N3 1.039518 1_555
H8 N0 1.039518 1_555
H9 N1 1.039518 1_555
H10 N0 1.039518 1_555
H11 N3 1.039518 1_555
H12 N0 1.023562 1_555
H13 N1 1.023562 1_555
H14 N2 1.023562 1_555
H15 N3 1.023562 1_555
H16 O48 1.027903 1_555
H16 O12 1.655707 1_655
H17 O49 1.027903 1_555
H17 O13 1.655707 1_555
H18 O50 1.027903 1_555
H18 O14 1.655707 1_554
H19 O50 1.027903 1_555
H19 O15 1.655707 1_555
H20 O51 1.027903 1_555
H20 O16 1.655707 1_545
H21 O48 1.027903 1_555
H21 O17 1.655707 1_556
H22 O49 1.027903 1_555
H22 O18 1.655707 1_455
H23 O48 1.027903 1_555
H23 O19 1.655707 1_565
H24 O51 1.027903 1_555
H24 O20 1.655707 1_555
H25 O51 1.027903 1_555
H25 O21 1.655707 1_555
H26 O50 1.027903 1_555
H26 O22 1.655707 1_555
H27 O49 1.027903 1_555
H27 O23 1.655707 1_555
O0 P0 1.538549 1_555
O0 Ti0 1.970704 1_555
O1 P1 1.538549 1_555
O1 Ti0 1.970704 1_555
O2 P2 1.538549 1_555
O2 Ti0 1.970704 1_555
O3 P3 1.538549 1_555
O3 Ti1 1.970704 1_555
O4 P4 1.538549 1_555
O4 Ti1 1.970704 1_555
O5 P5 1.538549 1_555
O5 Ti1 1.970704 1_555
O6 P6 1.538549 1_555
O6 Ti2 1.970704 1_555
O7 P7 1.538549 1_555
O7 Ti2 1.970704 1_555
O8 P8 1.538549 1_555
O8 Ti2 1.970704 1_555
O9 P9 1.538549 1_555
O9 Ti3 1.970704 1_555
O10 P10 1.538549 1_555
O10 Ti3 1.970704 1_555
O11 P11 1.538549 1_555
O11 Ti3 1.970704 1_555
O12 P0 1.567488 1_555
O12 Ti4 2.064303 1_555
O13 P1 1.567488 1_555
O13 Ti4 2.064303 1_555
O14 P2 1.567488 1_555
O14 Ti4 2.064303 1_555
O15 P3 1.567488 1_555
O15 Ti5 2.064303 1_555
O16 P4 1.567488 1_555
O16 Ti5 2.064303 1_555
O17 P5 1.567488 1_555
O17 Ti5 2.064303 1_555
O18 P6 1.567488 1_555
O18 Ti6 2.064303 1_555
O19 P7 1.567488 1_555
O19 Ti6 2.064303 1_555
O20 P8 1.567488 1_555
O20 Ti6 2.064303 1_555
O21 P9 1.567488 1_555
O21 Ti7 2.064303 1_555
O22 P10 1.567488 1_555
O22 Ti7 2.064303 1_555
O23 P11 1.567488 1_555
O23 Ti7 2.064303 1_555
O24 P0 1.546466 1_545
O24 Ti3 2.022508 1_556
O25 P1 1.546466 1_555
O25 Ti1 2.022508 1_455
O26 P2 1.546466 1_555
O26 Ti2 2.022508 1_555
O27 P3 1.546466 1_555
O27 Ti2 2.022508 1_554
O28 P4 1.546466 1_555
O28 Ti0 2.022508 1_555
O29 P5 1.546466 1_455
O29 Ti3 2.022508 1_565
O30 P6 1.546466 1_555
O30 Ti1 2.022508 1_555
O31 P7 1.546466 1_554
O31 Ti3 2.022508 1_655
O32 P8 1.546466 1_555
O32 Ti0 2.022508 1_545
O33 P9 1.546466 1_565
O33 Ti0 2.022508 1_555
O34 P10 1.546466 1_556
O34 Ti2 2.022508 1_555
O35 P11 1.546466 1_655
O35 Ti1 2.022508 1_555
O36 P0 1.537556 1_545
O36 Ti6 1.961368 1_455
O37 P1 1.537556 1_555
O37 Ti7 1.961368 1_555
O38 P2 1.537556 1_555
O38 Ti5 1.961368 1_556
O39 P3 1.537556 1_555
O39 Ti7 1.961368 1_555
O40 P4 1.537556 1_555
O40 Ti6 1.961368 1_565
O41 P5 1.537556 1_455
O41 Ti4 1.961368 1_554
O42 P6 1.537556 1_555
O42 Ti4 1.961368 1_655
O43 P7 1.537556 1_554
O43 Ti5 1.961368 1_545
O44 P8 1.537556 1_555
O44 Ti7 1.961368 1_555
O45 P9 1.537556 1_565
O45 Ti5 1.961368 1_555
O46 P10 1.537556 1_556
O46 Ti4 1.961368 1_555
O47 P11 1.537556 1_655
O47 Ti6 1.961368 1_555
