# generated using pymatgen
data_VFe2BO5
_symmetry_space_group_name_H-M   'P 1'
_cell_length_a   3.10743500
_cell_length_b   9.64903800
_cell_length_c   12.50326500
_cell_angle_alpha   90.00000000
_cell_angle_beta   90.00000000
_cell_angle_gamma   90.00000000
_symmetry_Int_Tables_number   1
_chemical_formula_structural   VFe2BO5
_chemical_formula_sum   'V4 Fe8 B4 O20'
_cell_volume   374.89487694
_cell_formula_units_Z   4
loop_
 _symmetry_equiv_pos_site_id
 _symmetry_equiv_pos_as_xyz
  1  'x, y, z'
loop_
 _atom_site_type_symbol
 _atom_site_label
 _atom_site_symmetry_multiplicity
 _atom_site_fract_x
 _atom_site_fract_y
 _atom_site_fract_z
 _atom_site_occupancy
  V  V0  1  0.00000000  0.24482400  0.38695800  1
  V  V1  1  0.00000000  0.75517600  0.61304200  1
  V  V2  1  0.00000000  0.25517600  0.88695800  1
  V  V3  1  0.00000000  0.74482400  0.11304200  1
  Fe  Fe0  1  0.50000000  0.00000000  0.50000000  1
  Fe  Fe1  1  0.50000000  0.50000000  0.00000000  1
  Fe  Fe2  1  0.50000000  0.00127200  0.22438800  1
  Fe  Fe3  1  0.50000000  0.99872800  0.77561200  1
  Fe  Fe4  1  0.50000000  0.49872800  0.72438800  1
  Fe  Fe5  1  0.50000000  0.50127200  0.27561200  1
  Fe  Fe6  1  0.00000000  0.00000000  0.00000000  1
  Fe  Fe7  1  0.00000000  0.50000000  0.50000000  1
  B  B0  1  0.00000000  0.26951300  0.13848300  1
  B  B1  1  0.00000000  0.73048700  0.86151700  1
  B  B2  1  0.00000000  0.23048700  0.63848300  1
  B  B3  1  0.00000000  0.76951300  0.36151700  1
  O  O0  1  0.50000000  0.11298000  0.36013700  1
  O  O1  1  0.50000000  0.88702000  0.63986300  1
  O  O2  1  0.50000000  0.38702000  0.86013700  1
  O  O3  1  0.50000000  0.61298000  0.13986300  1
  O  O4  1  0.00000000  0.12554900  0.13903600  1
  O  O5  1  0.00000000  0.87445100  0.86096400  1
  O  O6  1  0.00000000  0.37445100  0.63903600  1
  O  O7  1  0.00000000  0.62554900  0.36096400  1
  O  O8  1  0.50000000  0.38349400  0.41699000  1
  O  O9  1  0.50000000  0.61650600  0.58301000  1
  O  O10  1  0.50000000  0.11650600  0.91699000  1
  O  O11  1  0.50000000  0.88349400  0.08301000  1
  O  O12  1  0.00000000  0.34170400  0.23511900  1
  O  O13  1  0.00000000  0.65829600  0.76488100  1
  O  O14  1  0.00000000  0.15829600  0.73511900  1
  O  O15  1  0.00000000  0.84170400  0.26488100  1
  O  O16  1  0.00000000  0.34357800  0.04298300  1
  O  O17  1  0.00000000  0.65642200  0.95701700  1
  O  O18  1  0.00000000  0.15642200  0.54298300  1
  O  O19  1  0.00000000  0.84357800  0.45701700  1
loop_
_geom_bond_atom_site_label_1
_geom_bond_atom_site_label_2
_geom_bond_distance
_geom_bond_site_symmetry_2
Fe0 O1 2.060711 1_545
Fe0 O0 2.060711 1_555
Fe0 O19 2.231797 1_645
Fe0 O19 2.231797 1_545
Fe0 O18 2.231797 1_655
Fe0 O18 2.231797 1_555
Fe1 O3 2.060711 1_555
Fe1 O2 2.060711 1_554
Fe1 O17 2.231797 1_654
Fe1 O17 2.231797 1_554
Fe1 O16 2.231797 1_655
Fe1 O16 2.231797 1_555
Fe2 O0 2.010637 1_555
Fe2 O11 2.101481 1_545
Fe2 O4 2.234027 1_555
Fe2 O4 2.234027 1_655
Fe2 O15 2.245213 1_545
Fe2 O15 2.245213 1_645
Fe3 O1 2.010637 1_555
Fe3 O10 2.101481 1_565
Fe3 O5 2.234027 1_555
Fe3 O5 2.234027 1_655
Fe3 O14 2.245213 1_565
Fe3 O14 2.245213 1_665
Fe4 O2 2.010637 1_555
Fe4 O9 2.101481 1_555
Fe4 O6 2.234027 1_655
Fe4 O6 2.234027 1_555
Fe4 O13 2.245213 1_655
Fe4 O13 2.245213 1_555
Fe5 O3 2.010637 1_555
Fe5 O8 2.101481 1_555
Fe5 O7 2.234027 1_655
Fe5 O7 2.234027 1_555
Fe5 O12 2.245213 1_655
Fe5 O12 2.245213 1_555
Fe6 O4 2.118869 1_555
Fe6 O5 2.118869 1_544
Fe6 O11 2.180602 1_445
Fe6 O10 2.180602 1_554
Fe6 O11 2.180602 1_545
Fe6 O10 2.180602 1_454
Fe7 O7 2.118869 1_555
Fe7 O6 2.118869 1_555
Fe7 O8 2.180602 1_555
Fe7 O9 2.180602 1_555
Fe7 O8 2.180602 1_455
Fe7 O9 2.180602 1_455
B0 O4 1.389131 1_555
B0 O16 1.391588 1_555
B0 O12 1.394676 1_555
B1 O5 1.389131 1_555
B1 O17 1.391588 1_555
B1 O13 1.394676 1_555
B2 O6 1.389131 1_555
B2 O18 1.391588 1_555
B2 O14 1.394676 1_555
B3 O7 1.389131 1_555
B3 O19 1.391588 1_555
B3 O15 1.394676 1_555
O0 V0 2.035905 1_655
O0 V0 2.035905 1_555
O1 V1 2.035905 1_555
O1 V1 2.035905 1_655
O2 V2 2.035905 1_655
O2 V2 2.035905 1_555
O3 V3 2.035905 1_555
O3 V3 2.035905 1_655
O8 V0 2.084554 1_655
O8 V0 2.084554 1_555
O9 V1 2.084554 1_655
O9 V1 2.084554 1_555
O10 V2 2.084554 1_555
O10 V2 2.084554 1_655
O11 V3 2.084554 1_555
O11 V3 2.084554 1_655
O12 V0 2.116149 1_555
O13 V1 2.116149 1_555
O14 V2 2.116149 1_555
O15 V3 2.116149 1_555
O16 V2 2.129156 1_554
O17 V3 2.129156 1_556
O18 V0 2.129156 1_555
O19 V1 2.129156 1_555
