# generated using pymatgen
data_KFeSO4F
_symmetry_space_group_name_H-M   'P 1'
_cell_length_a   8.10311488
_cell_length_b   8.10311488
_cell_length_c   14.94278737
_cell_angle_alpha   88.61010273
_cell_angle_beta   88.61010273
_cell_angle_gamma   62.79062998
_symmetry_Int_Tables_number   1
_chemical_formula_structural   KFeSO4F
_chemical_formula_sum   'K8 Fe8 S8 O32 F8'
_cell_volume   872.22555650
_cell_formula_units_Z   8
loop_
 _symmetry_equiv_pos_site_id
 _symmetry_equiv_pos_as_xyz
  1  'x, y, z'
loop_
 _atom_site_type_symbol
 _atom_site_label
 _atom_site_symmetry_multiplicity
 _atom_site_fract_x
 _atom_site_fract_y
 _atom_site_fract_z
 _atom_site_occupancy
  K  K0  1  0.76228777  0.50094574  0.05328182  1
  K  K1  1  0.49905426  0.23771223  0.44671818  1
  K  K2  1  0.23771223  0.49905426  0.94671818  1
  K  K3  1  0.50094574  0.76228777  0.55328182  1
  K  K4  1  0.98861941  0.75936836  0.41628824  1
  K  K5  1  0.24063164  0.01138059  0.08371176  1
  K  K6  1  0.01138059  0.24063164  0.58371176  1
  K  K7  1  0.75936836  0.98861941  0.91628824  1
  Fe  Fe0  1  0.12861120  0.37598908  0.24725841  1
  Fe  Fe1  1  0.62401092  0.87138880  0.25274159  1
  Fe  Fe2  1  0.87138880  0.62401092  0.75274159  1
  Fe  Fe3  1  0.37598908  0.12861120  0.74725841  1
  Fe  Fe4  1  0.83196664  0.16803336  0.25000000  1
  Fe  Fe5  1  0.16803336  0.83196664  0.75000000  1
  Fe  Fe6  1  0.42552342  0.57447658  0.25000000  1
  Fe  Fe7  1  0.57447658  0.42552342  0.75000000  1
  S  S0  1  0.76844475  0.50357378  0.38597820  1
  S  S1  1  0.49642622  0.23155525  0.11402180  1
  S  S2  1  0.23155525  0.49642622  0.61402180  1
  S  S3  1  0.50357378  0.76844475  0.88597820  1
  S  S4  1  0.01118572  0.77069253  0.14245100  1
  S  S5  1  0.22930747  0.98881428  0.35754900  1
  S  S6  1  0.98881428  0.22930747  0.85754900  1
  S  S7  1  0.77069253  0.01118572  0.64245100  1
  O  O0  1  0.96875572  0.43095227  0.36759058  1
  O  O1  1  0.56904773  0.03124428  0.13240942  1
  O  O2  1  0.03124428  0.56904773  0.63240942  1
  O  O3  1  0.43095227  0.96875572  0.86759058  1
  O  O4  1  0.29191586  0.32229212  0.12476619  1
  O  O5  1  0.67770788  0.70808414  0.37523381  1
  O  O6  1  0.70808414  0.67770788  0.87523381  1
  O  O7  1  0.32229212  0.29191586  0.62476619  1
  O  O8  1  0.73558719  0.45063524  0.47573558  1
  O  O9  1  0.54936476  0.26441281  0.02426442  1
  O  O10  1  0.26441281  0.54936476  0.52426442  1
  O  O11  1  0.45063524  0.73558719  0.97573558  1
  O  O12  1  0.68585121  0.42526233  0.32007080  1
  O  O13  1  0.57473767  0.31414879  0.17992920  1
  O  O14  1  0.31414879  0.57473767  0.67992920  1
  O  O15  1  0.42526233  0.68585121  0.82007080  1
  O  O16  1  0.02515496  0.06640173  0.34786549  1
  O  O17  1  0.93359827  0.97484504  0.15213451  1
  O  O18  1  0.97484504  0.93359827  0.65213451  1
  O  O19  1  0.06640173  0.02515496  0.84786549  1
  O  O20  1  0.30898080  0.78583605  0.34908589  1
  O  O21  1  0.21416395  0.69101920  0.15091411  1
  O  O22  1  0.69101920  0.21416395  0.65091411  1
  O  O23  1  0.78583605  0.30898080  0.84908589  1
  O  O24  1  0.03799950  0.26997423  0.94464455  1
  O  O25  1  0.73002577  0.96200050  0.55535545  1
  O  O26  1  0.96200050  0.73002577  0.05535545  1
  O  O27  1  0.26997423  0.03799950  0.44464455  1
  O  O28  1  0.93524956  0.69321346  0.21591949  1
  O  O29  1  0.30678654  0.06475044  0.28408051  1
  O  O30  1  0.06475044  0.30678654  0.78408051  1
  O  O31  1  0.69321346  0.93524956  0.71591949  1
  F  F0  1  0.97159377  0.29808637  0.18169972  1
  F  F1  1  0.70191463  0.02840623  0.31830028  1
  F  F2  1  0.02840623  0.70191463  0.81830028  1
  F  F3  1  0.29808637  0.97159377  0.68169972  1
  F  F4  1  0.28871907  0.45434082  0.31340181  1
  F  F5  1  0.54565918  0.71128093  0.18659819  1
  F  F6  1  0.71128093  0.54565918  0.68659819  1
  F  F7  1  0.45434082  0.28871907  0.81340181  1
loop_
_geom_bond_atom_site_label_1
_geom_bond_atom_site_label_2
_geom_bond_distance
_geom_bond_site_symmetry_2
K0 O11 2.641842 1_554
K0 O24 2.697601 1_654
K0 O6 2.935885 1_554
K0 O26 2.969490 1_555
K0 O9 3.152629 1_555
K0 O13 3.163427 1_555
K1 O10 2.641842 1_555
K1 O25 2.697601 1_545
K1 O7 2.935885 1_555
K1 O27 2.969490 1_555
K1 O8 3.152629 1_555
K1 O12 3.163427 1_555
K2 O9 2.641842 1_556
K2 O26 2.697601 1_456
K2 O4 2.935885 1_556
K2 O24 2.969490 1_555
K2 O11 3.152629 1_555
K2 O15 3.163427 1_555
K3 O8 2.641842 1_555
K3 O27 2.697601 1_565
K3 O5 2.935885 1_555
K3 O25 2.969490 1_555
K3 O10 3.152629 1_555
K3 O14 3.163427 1_555
K4 O10 2.656556 1_655
K4 O16 2.803260 1_665
K4 O5 2.817966 1_555
K4 O0 2.851089 1_555
K4 O20 2.857526 1_655
K4 O25 2.865833 1_555
K4 O28 3.129138 1_555
K5 O11 2.656556 1_544
K5 O17 2.803260 1_445
K5 O4 2.817966 1_555
K5 O1 2.851089 1_555
K5 O21 2.857526 1_545
K5 O24 2.865833 1_554
K5 O29 3.129138 1_555
K6 O8 2.656556 1_455
K6 O18 2.803260 1_445
K6 O7 2.817966 1_555
K6 O2 2.851089 1_555
K6 O22 2.857526 1_455
K6 O27 2.865833 1_555
K6 O30 3.129138 1_555
K7 O9 2.656556 1_566
K7 O19 2.803260 1_665
K7 O6 2.817966 1_555
K7 O3 2.851089 1_555
K7 O23 2.857526 1_565
K7 O26 2.865833 1_556
K7 O31 3.129138 1_555
Fe0 O0 2.123129 1_455
Fe0 O4 2.164545 1_555
Fe0 O29 2.321447 1_555
Fe0 O28 2.361316 1_455
Fe1 O1 2.123129 1_565
Fe1 O5 2.164545 1_555
Fe1 O28 2.321447 1_555
Fe1 O29 2.361316 1_565
Fe2 O2 2.123129 1_655
Fe2 O6 2.164545 1_555
Fe2 O31 2.321447 1_555
Fe2 O30 2.361316 1_655
Fe3 O3 2.123129 1_545
Fe3 O7 2.164545 1_555
Fe3 O30 2.321447 1_555
Fe3 O31 2.361316 1_545
Fe4 O17 2.034951 1_545
Fe4 O16 2.034951 1_655
Fe4 O12 2.152116 1_555
Fe4 O13 2.152116 1_555
Fe5 O18 2.034951 1_455
Fe5 O19 2.034951 1_565
Fe5 O14 2.152116 1_555
Fe5 O15 2.152116 1_555
Fe6 O21 2.143223 1_555
Fe6 O20 2.143223 1_555
Fe6 O12 2.172872 1_555
Fe6 O13 2.172872 1_555
Fe7 O22 2.143223 1_555
Fe7 O23 2.143223 1_555
Fe7 O14 2.172872 1_555
Fe7 O15 2.172872 1_555
O0 S0 1.472788 1_555
O1 S1 1.472788 1_555
O2 S2 1.472788 1_555
O3 S3 1.472788 1_555
O4 S1 1.480257 1_555
O5 S0 1.480257 1_555
O6 S3 1.480257 1_555
O7 S2 1.480257 1_555
O8 S0 1.453615 1_555
O9 S1 1.453615 1_555
O10 S2 1.453615 1_555
O11 S3 1.453615 1_555
O12 S0 1.507040 1_555
O13 S1 1.507040 1_555
O14 S2 1.507040 1_555
O15 S3 1.507040 1_555
O16 S5 1.486240 1_545
O17 S4 1.486240 1_655
O18 S7 1.486240 1_565
O19 S6 1.486240 1_455
O20 S5 1.474141 1_555
O21 S4 1.474141 1_555
O22 S7 1.474141 1_555
O23 S6 1.474141 1_555
O24 S6 1.458519 1_455
O25 S7 1.458519 1_565
O26 S4 1.458519 1_655
O27 S5 1.458519 1_545
O28 S4 1.505013 1_655
O29 S5 1.505013 1_545
O30 S6 1.505013 1_455
O31 S7 1.505013 1_565
F0 Fe0 1.949854 1_655
F0 Fe4 2.101060 1_555
F0 K0 2.591559 1_555
F0 K5 2.769907 1_655
F1 Fe1 1.949859 1_545
F1 Fe4 2.101054 1_555
F1 K1 2.591562 1_555
F1 K4 2.769903 1_545
F2 Fe2 1.949859 1_455
F2 Fe5 2.101054 1_555
F2 K2 2.591562 1_555
F2 K7 2.769903 1_455
F3 Fe3 1.949854 1_565
F3 Fe5 2.101060 1_555
F3 K3 2.591559 1_555
F3 K6 2.769907 1_565
F4 Fe0 1.977128 1_555
F4 Fe6 1.991293 1_555
F4 K1 2.685859 1_555
F4 K4 2.982054 1_455
F5 Fe1 1.977128 1_555
F5 Fe6 1.991293 1_555
F5 K0 2.685859 1_555
F5 K5 2.982054 1_565
F6 Fe2 1.977128 1_555
F6 Fe7 1.991293 1_555
F6 K3 2.685859 1_555
F6 K6 2.982054 1_655
F7 Fe3 1.977128 1_555
F7 Fe7 1.991293 1_555
F7 K2 2.685859 1_555
F7 K7 2.982054 1_545
