# generated using pymatgen
data_NdGa6
_symmetry_space_group_name_H-M   'P 1'
_cell_length_a   6.00844127
_cell_length_b   6.00844127
_cell_length_c   7.61618077
_cell_angle_alpha   90.00000000
_cell_angle_beta   90.00000000
_cell_angle_gamma   90.00000000
_symmetry_Int_Tables_number   1
_chemical_formula_structural   NdGa6
_chemical_formula_sum   'Nd2 Ga12'
_cell_volume   274.95453327
_cell_formula_units_Z   2
loop_
 _symmetry_equiv_pos_site_id
 _symmetry_equiv_pos_as_xyz
  1  'x, y, z'
loop_
 _atom_site_type_symbol
 _atom_site_label
 _atom_site_symmetry_multiplicity
 _atom_site_fract_x
 _atom_site_fract_y
 _atom_site_fract_z
 _atom_site_occupancy
  Nd  Nd0  1  0.75000000  0.25000000  -0.00000000  1
  Nd  Nd1  1  0.25000000  0.75000000  -0.00000000  1
  Ga  Ga0  1  0.75000000  0.75000000  0.16009434  1
  Ga  Ga1  1  0.25000000  0.25000000  0.16009434  1
  Ga  Ga2  1  0.25000000  0.25000000  0.83990566  1
  Ga  Ga3  1  0.75000000  0.75000000  0.83990566  1
  Ga  Ga4  1  0.04068070  0.95931930  0.34443685  1
  Ga  Ga5  1  0.54068070  0.04068070  0.34443685  1
  Ga  Ga6  1  0.95931930  0.45931930  0.34443685  1
  Ga  Ga7  1  0.45931930  0.54068070  0.34443685  1
  Ga  Ga8  1  0.95931930  0.04068070  0.65556315  1
  Ga  Ga9  1  0.45931930  0.95931930  0.65556315  1
  Ga  Ga10  1  0.04068070  0.54068070  0.65556315  1
  Ga  Ga11  1  0.54068070  0.45931930  0.65556315  1
loop_
_geom_bond_atom_site_label_1
_geom_bond_atom_site_label_2
_geom_bond_distance
_geom_bond_site_symmetry_2
Ga0 Ga3 2.438615 1_554
Ga0 Ga6 2.569696 1_555
Ga0 Ga7 2.569696 1_555
Ga0 Ga5 2.569696 1_565
Ga0 Ga4 2.569696 1_655
Ga0 Nd1 3.242230 1_555
Ga0 Nd0 3.242230 1_565
Ga0 Nd1 3.242230 1_655
Ga0 Nd0 3.242230 1_555
Ga1 Ga2 2.438615 1_554
Ga1 Ga6 2.569696 1_455
Ga1 Ga7 2.569696 1_555
Ga1 Ga4 2.569696 1_545
Ga1 Ga5 2.569696 1_555
Ga1 Nd1 3.242230 1_555
Ga1 Nd1 3.242230 1_545
Ga1 Nd0 3.242230 1_455
Ga1 Nd0 3.242230 1_555
Ga2 Ga9 2.569696 1_545
Ga2 Ga8 2.569696 1_455
Ga2 Nd1 3.242230 1_556
Ga2 Nd0 3.242230 1_456
Ga2 Nd1 3.242230 1_546
Ga2 Nd0 3.242230 1_556
Ga3 Ga8 2.569696 1_565
Ga3 Ga9 2.569696 1_555
Ga3 Nd1 3.242230 1_556
Ga3 Nd1 3.242230 1_656
Ga3 Nd0 3.242230 1_556
Ga3 Nd0 3.242230 1_566
Ga4 Ga8 2.468387 1_465
Ga4 Nd1 3.169416 1_555
Ga5 Ga9 2.468387 1_545
Ga5 Nd0 3.169416 1_555
Ga6 Nd0 3.169416 1_555
Ga7 Nd1 3.169416 1_555
Ga8 Nd0 3.169416 1_556
Ga9 Nd1 3.169416 1_556
Ga10 Ga6 2.468387 1_455
Ga10 Ga3 2.569696 1_455
Ga10 Ga2 2.569696 1_555
Ga10 Nd1 3.169416 1_556
Ga11 Ga7 2.468387 1_555
Ga11 Ga3 2.569696 1_555
Ga11 Ga2 2.569696 1_555
Ga11 Nd0 3.169416 1_556
