# generated using pymatgen
data_LaU3Al8
_symmetry_space_group_name_H-M   'P 1'
_cell_length_a   9.40798962
_cell_length_b   9.40798962
_cell_length_c   9.40798984
_cell_angle_alpha   34.34538389
_cell_angle_beta   34.34538389
_cell_angle_gamma   34.34537767
_symmetry_Int_Tables_number   1
_chemical_formula_structural   LaU3Al8
_chemical_formula_sum   'La1 U3 Al8'
_cell_volume   236.39482176
_cell_formula_units_Z   1
loop_
 _symmetry_equiv_pos_site_id
 _symmetry_equiv_pos_as_xyz
  1  'x, y, z'
loop_
 _atom_site_type_symbol
 _atom_site_label
 _atom_site_symmetry_multiplicity
 _atom_site_fract_x
 _atom_site_fract_y
 _atom_site_fract_z
 _atom_site_occupancy
  La  La0  1  0.12285300  0.12285300  0.12285300  1
  U  U0  1  0.61212100  0.61212100  0.61212100  1
  U  U1  1  0.99931000  0.99931000  0.99931000  1
  U  U2  1  0.51769200  0.51769200  0.51769200  1
  Al  Al0  1  0.56108100  0.05818700  0.56108100  1
  Al  Al1  1  0.06306900  0.56608300  0.06306900  1
  Al  Al2  1  0.05818700  0.56108100  0.56108100  1
  Al  Al3  1  0.56608300  0.06306900  0.06306900  1
  Al  Al4  1  0.81335400  0.81335400  0.81335400  1
  Al  Al5  1  0.31209900  0.31209900  0.31209900  1
  Al  Al6  1  0.56108100  0.56108100  0.05818700  1
  Al  Al7  1  0.06306900  0.06306900  0.56608300  1
loop_
_geom_bond_atom_site_label_1
_geom_bond_atom_site_label_2
_geom_bond_distance
_geom_bond_site_symmetry_2
La0 U1 3.277973 1_444
La0 U2 3.598743 1_545
La0 U2 3.598743 1_455
La0 U2 3.598743 1_554
U0 U2 2.505489 1_555
U0 U1 3.511361 1_455
U0 U1 3.511361 1_545
U0 U1 3.511361 1_554
Al0 Al5 2.694594 1_555
Al0 Al2 2.761656 1_645
Al0 Al6 2.761657 1_546
Al0 Al2 2.793812 1_555
Al0 Al6 2.793812 1_555
Al0 Al4 2.796145 1_545
Al0 U1 3.212302 1_445
Al0 U1 3.212302 1_544
Al0 La0 3.238329 1_655
Al0 La0 3.238329 1_556
Al0 U0 3.434827 1_545
Al0 U2 3.669999 1_555
Al1 Al5 2.694994 1_555
Al1 Al4 2.741302 1_454
Al1 Al3 2.760990 1_465
Al1 Al7 2.760990 1_564
Al1 Al3 2.794478 1_555
Al1 Al7 2.794479 1_555
Al1 U2 3.038156 1_455
Al1 U2 3.038156 1_554
Al1 U0 3.056325 1_554
Al1 U0 3.056325 1_455
Al1 U1 3.138717 1_454
Al1 La0 3.285940 1_555
Al2 Al5 2.694594 1_555
Al2 Al6 2.761657 1_456
Al2 Al6 2.793812 1_555
Al2 Al4 2.796145 1_455
Al2 U1 3.212302 1_445
Al2 U1 3.212302 1_454
Al2 La0 3.238329 1_565
Al2 La0 3.238329 1_556
Al2 U0 3.434827 1_455
Al2 U2 3.669999 1_555
Al3 Al5 2.694994 1_555
Al3 Al4 2.741302 1_544
Al3 Al7 2.760990 1_654
Al3 Al7 2.794479 1_555
Al3 U2 3.038156 1_545
Al3 U2 3.038156 1_554
Al3 U0 3.056325 1_554
Al3 U0 3.056325 1_545
Al3 U1 3.138717 1_544
Al3 La0 3.285940 1_555
Al4 Al7 2.741302 1_665
Al4 Al6 2.796145 1_556
Al4 La0 3.269200 1_656
Al4 La0 3.269200 1_566
Al4 La0 3.269201 1_665
Al4 U2 3.359585 1_565
Al4 U2 3.359585 1_655
Al4 U2 3.359586 1_556
Al5 Al6 2.694594 1_555
Al5 Al7 2.694994 1_555
Al5 U1 3.253441 1_454
Al5 U1 3.253441 1_544
Al5 U1 3.253442 1_445
Al5 U0 3.327001 1_455
Al5 U0 3.327001 1_545
Al5 U0 3.327002 1_554
Al6 U1 3.212301 1_454
Al6 U1 3.212301 1_544
Al6 La0 3.238328 1_655
Al6 La0 3.238328 1_565
Al6 U0 3.434827 1_554
Al6 U2 3.669999 1_555
Al7 U2 3.038156 1_545
Al7 U2 3.038156 1_455
Al7 U0 3.056325 1_545
Al7 U0 3.056325 1_455
Al7 U1 3.138717 1_445
Al7 La0 3.285940 1_555
