# generated using pymatgen
data_CdCu2
_symmetry_space_group_name_H-M   'P 1'
_cell_length_a   5.01038671
_cell_length_b   5.01038685
_cell_length_c   7.91557223
_cell_angle_alpha   90.00000000
_cell_angle_beta   90.00000000
_cell_angle_gamma   119.99999239
_symmetry_Int_Tables_number   1
_chemical_formula_structural   CdCu2
_chemical_formula_sum   'Cd4 Cu8'
_cell_volume   172.08994154
_cell_formula_units_Z   4
loop_
 _symmetry_equiv_pos_site_id
 _symmetry_equiv_pos_as_xyz
  1  'x, y, z'
loop_
 _atom_site_type_symbol
 _atom_site_label
 _atom_site_symmetry_multiplicity
 _atom_site_fract_x
 _atom_site_fract_y
 _atom_site_fract_z
 _atom_site_occupancy
  Cd  Cd0  1  0.33333300  0.66666700  0.43885427  1
  Cd  Cd1  1  0.66666700  0.33333300  0.93885427  1
  Cd  Cd2  1  0.66666700  0.33333300  0.56114573  1
  Cd  Cd3  1  0.33333300  0.66666700  0.06114573  1
  Cu  Cu0  1  0.16898019  0.33796238  0.75000000  1
  Cu  Cu1  1  0.83101981  0.16898019  0.25000000  1
  Cu  Cu2  1  0.33796238  0.16898019  0.25000000  1
  Cu  Cu3  1  0.66203762  0.83101981  0.75000000  1
  Cu  Cu4  1  -0.00000000  -0.00000000  0.00000000  1
  Cu  Cu5  1  -0.00000000  -0.00000000  0.50000000  1
  Cu  Cu6  1  0.83101981  0.66203762  0.25000000  1
  Cu  Cu7  1  0.16898019  0.83101981  0.75000000  1
loop_
_geom_bond_atom_site_label_1
_geom_bond_atom_site_label_2
_geom_bond_distance
_geom_bond_site_symmetry_2
Cd0 Cu3 2.846078 1_555
Cd0 Cu0 2.846078 1_555
Cd0 Cu7 2.846080 1_555
Cd0 Cu6 2.917371 1_455
Cd0 Cu2 2.917371 1_565
Cd0 Cu1 2.917378 1_455
Cd0 Cu1 2.917378 1_565
Cd0 Cu6 2.917384 1_555
Cd0 Cu2 2.917384 1_555
Cd0 Cu5 2.932957 1_565
Cd0 Cu5 2.932961 1_665
Cd0 Cu5 2.932961 1_555
Cd0 Cd3 2.989779 1_555
Cd0 Cd2 3.050412 1_455
Cd0 Cd2 3.050412 1_565
Cd0 Cd2 3.050420 1_555
Cd1 Cu2 2.846078 1_556
Cd1 Cu6 2.846078 1_556
Cd1 Cu1 2.846080 1_556
Cd1 Cu0 2.917371 1_655
Cd1 Cu3 2.917371 1_545
Cd1 Cu7 2.917378 1_655
Cd1 Cu7 2.917378 1_545
Cd1 Cu0 2.917384 1_555
Cd1 Cu3 2.917384 1_555
Cd1 Cu4 2.932957 1_656
Cd1 Cu4 2.932961 1_556
Cd1 Cu4 2.932961 1_666
Cd1 Cd2 2.989779 1_555
Cd1 Cd3 3.050412 1_656
Cd1 Cd3 3.050412 1_546
Cd1 Cd3 3.050420 1_556
Cd2 Cu2 2.846078 1_555
Cd2 Cu6 2.846078 1_555
Cd2 Cu1 2.846080 1_555
Cd2 Cu0 2.917371 1_655
Cd2 Cu3 2.917371 1_545
Cd2 Cu7 2.917378 1_655
Cd2 Cu7 2.917378 1_545
Cd2 Cu0 2.917384 1_555
Cd2 Cu3 2.917384 1_555
Cd2 Cu5 2.932957 1_655
Cd2 Cu5 2.932961 1_555
Cd2 Cu5 2.932961 1_665
Cd3 Cu3 2.846078 1_554
Cd3 Cu0 2.846078 1_554
Cd3 Cu7 2.846080 1_554
Cd3 Cu6 2.917371 1_455
Cd3 Cu2 2.917371 1_565
Cd3 Cu1 2.917378 1_455
Cd3 Cu1 2.917378 1_565
Cd3 Cu6 2.917384 1_555
Cd3 Cu2 2.917384 1_555
Cd3 Cu4 2.932957 1_565
Cd3 Cu4 2.932961 1_665
Cd3 Cu4 2.932961 1_555
Cu0 Cu4 2.463031 1_556
Cu0 Cu5 2.463031 1_555
Cu0 Cu7 2.470408 1_555
Cu0 Cu3 2.470409 1_555
Cu0 Cu7 2.539978 1_545
Cu0 Cu3 2.539979 1_445
Cu1 Cu4 2.463026 1_655
Cu1 Cu5 2.463026 1_655
Cu1 Cu2 2.470408 1_555
Cu1 Cu6 2.470408 1_555
Cu1 Cu2 2.539978 1_655
Cu1 Cu6 2.539978 1_545
Cu2 Cu4 2.463031 1_555
Cu2 Cu5 2.463031 1_555
Cu2 Cu6 2.470409 1_555
Cu2 Cu6 2.539979 1_445
Cu3 Cu4 2.463031 1_666
Cu3 Cu5 2.463031 1_665
Cu3 Cu7 2.470408 1_555
Cu3 Cu7 2.539978 1_655
Cu4 Cu7 2.463026 1_544
Cu4 Cu6 2.463031 1_445
Cu5 Cu7 2.463026 1_545
Cu5 Cu6 2.463031 1_445
