# generated using pymatgen
data_K3Ho
_symmetry_space_group_name_H-M   'P 1'
_cell_length_a   8.59481600
_cell_length_b   8.59481600
_cell_length_c   7.04116300
_cell_angle_alpha   90.00000000
_cell_angle_beta   90.00000000
_cell_angle_gamma   120.00000002
_symmetry_Int_Tables_number   1
_chemical_formula_structural   K3Ho
_chemical_formula_sum   'K6 Ho2'
_cell_volume   450.45166582
_cell_formula_units_Z   2
loop_
 _symmetry_equiv_pos_site_id
 _symmetry_equiv_pos_as_xyz
  1  'x, y, z'
loop_
 _atom_site_type_symbol
 _atom_site_label
 _atom_site_symmetry_multiplicity
 _atom_site_fract_x
 _atom_site_fract_y
 _atom_site_fract_z
 _atom_site_occupancy
  K  K0  1  0.17236900  0.34473900  0.25000000  1
  K  K1  1  0.65526100  0.82763100  0.25000000  1
  K  K2  1  0.17236900  0.82763100  0.25000000  1
  K  K3  1  0.82763100  0.65526100  0.75000000  1
  K  K4  1  0.34473900  0.17236900  0.75000000  1
  K  K5  1  0.82763100  0.17236900  0.75000000  1
  Ho  Ho0  1  0.33333300  0.66666700  0.75000000  1
  Ho  Ho1  1  0.66666700  0.33333300  0.25000000  1
loop_
_geom_bond_atom_site_label_1
_geom_bond_atom_site_label_2
_geom_bond_distance
_geom_bond_site_symmetry_2
K0 K1 4.150368 1_555
K0 K2 4.150368 1_555
K0 K5 4.356471 1_454
K0 K5 4.356471 1_455
K0 K4 4.356480 1_554
K0 K4 4.356480 1_555
K0 K1 4.444448 1_445
K0 K2 4.444448 1_545
K1 K2 4.150368 1_555
K1 K5 4.356471 1_565
K1 K5 4.356471 1_564
K1 K3 4.356480 1_555
K1 K3 4.356480 1_554
K1 K2 4.444448 1_655
K2 K3 4.356471 1_455
K2 K3 4.356471 1_454
K2 K4 4.356471 1_564
K2 K4 4.356471 1_565
K3 K4 4.150368 1_555
K3 K5 4.150368 1_555
K3 K4 4.444448 1_665
K3 K5 4.444448 1_565
K4 K5 4.150368 1_555
K4 K5 4.444448 1_455
Ho0 K1 4.258679 1_556
Ho0 K1 4.258679 1_555
Ho0 K0 4.258679 1_556
Ho0 K0 4.258679 1_555
Ho0 K2 4.258679 1_556
Ho0 K2 4.258679 1_555
Ho0 K3 4.298238 1_455
Ho0 K4 4.298238 1_565
Ho0 K5 4.298246 1_565
Ho0 K5 4.298246 1_455
Ho0 K4 4.298255 1_555
Ho0 K3 4.298255 1_555
Ho1 K3 4.258679 1_555
Ho1 K3 4.258679 1_554
Ho1 K4 4.258679 1_554
Ho1 K4 4.258679 1_555
Ho1 K5 4.258679 1_555
Ho1 K5 4.258679 1_554
Ho1 K1 4.298238 1_545
Ho1 K0 4.298238 1_655
Ho1 K2 4.298246 1_545
Ho1 K2 4.298246 1_655
Ho1 K0 4.298255 1_555
Ho1 K1 4.298255 1_555
