# generated using pymatgen
data_K2Na3TlO4
_symmetry_space_group_name_H-M   'P 1'
_cell_length_a   7.67087153
_cell_length_b   9.22094696
_cell_length_c   9.53241038
_cell_angle_alpha   90.00000000
_cell_angle_beta   90.00000000
_cell_angle_gamma   90.00000000
_symmetry_Int_Tables_number   1
_chemical_formula_structural   K2Na3TlO4
_chemical_formula_sum   'K8 Na12 Tl4 O16'
_cell_volume   674.25311906
_cell_formula_units_Z   4
loop_
 _symmetry_equiv_pos_site_id
 _symmetry_equiv_pos_as_xyz
  1  'x, y, z'
loop_
 _atom_site_type_symbol
 _atom_site_label
 _atom_site_symmetry_multiplicity
 _atom_site_fract_x
 _atom_site_fract_y
 _atom_site_fract_z
 _atom_site_occupancy
  K  K0  1  0.24643520  0.50000000  -0.00000000  1
  K  K1  1  0.25356480  0.00000000  0.50000000  1
  K  K2  1  0.75356480  0.50000000  -0.00000000  1
  K  K3  1  0.74643520  0.00000000  0.50000000  1
  K  K4  1  0.50000000  0.26361560  0.74983620  1
  K  K5  1  0.50000000  0.73638440  0.25016380  1
  K  K6  1  -0.00000000  0.76361560  0.75016380  1
  K  K7  1  -0.00000000  0.23638440  0.24983620  1
  Na  Na0  1  0.24937502  0.51683432  0.65089289  1
  Na  Na1  1  0.24937502  0.48316568  0.34910711  1
  Na  Na2  1  0.25062498  0.01683432  0.84910711  1
  Na  Na3  1  0.25062498  0.98316568  0.15089289  1
  Na  Na4  1  -0.00000000  0.23989330  0.91561125  1
  Na  Na5  1  -0.00000000  0.76010670  0.08438875  1
  Na  Na6  1  0.50000000  0.73989330  0.58438875  1
  Na  Na7  1  0.50000000  0.26010670  0.41561125  1
  Na  Na8  1  0.74937502  0.98316568  0.15089289  1
  Na  Na9  1  0.75062498  0.48316568  0.34910711  1
  Na  Na10  1  0.75062498  0.51683432  0.65089289  1
  Na  Na11  1  0.74937502  0.01683432  0.84910711  1
  Tl  Tl0  1  -0.00000000  0.72735051  0.37937751  1
  Tl  Tl1  1  -0.00000000  0.27264949  0.62062249  1
  Tl  Tl2  1  0.50000000  0.22735051  0.12062249  1
  Tl  Tl3  1  0.50000000  0.77264949  0.87937751  1
  O  O0  1  0.50000000  0.04737387  0.27813757  1
  O  O1  1  0.50000000  0.95262613  0.72186243  1
  O  O2  1  -0.00000000  0.54737387  0.22186243  1
  O  O3  1  -0.00000000  0.45262613  0.77813757  1
  O  O4  1  0.25407335  0.80194552  0.98452761  1
  O  O5  1  0.25407335  0.19805448  0.01547239  1
  O  O6  1  0.24592665  0.30194552  0.51547239  1
  O  O7  1  0.24592665  0.69805448  0.48452761  1
  O  O8  1  0.74592665  0.19805448  0.01547239  1
  O  O9  1  0.74592665  0.80194552  0.98452761  1
  O  O10  1  0.75407335  0.69805448  0.48452761  1
  O  O11  1  0.75407335  0.30194552  0.51547239  1
  O  O12  1  0.50000000  0.43962408  0.22388016  1
  O  O13  1  -0.00000000  0.06037592  0.72388016  1
  O  O14  1  0.50000000  0.56037592  0.77611984  1
  O  O15  1  -0.00000000  0.93962408  0.27611984  1
loop_
_geom_bond_atom_site_label_1
_geom_bond_atom_site_label_2
_geom_bond_distance
_geom_bond_site_symmetry_2
K0 O4 2.788743 1_554
K0 O5 2.788743 1_555
K0 O2 2.870029 1_555
K0 O3 2.870029 1_554
K0 O14 2.940692 1_554
K0 O12 2.940692 1_555
K1 O7 2.788743 1_545
K1 O6 2.788743 1_555
K1 O1 2.870029 1_545
K1 O0 2.870029 1_555
K1 O13 2.940692 1_555
K1 O15 2.940692 1_545
K2 O8 2.788743 1_555
K2 O9 2.788743 1_554
K2 O2 2.870029 1_655
K2 O3 2.870029 1_654
K2 O14 2.940692 1_554
K2 O12 2.940692 1_555
K3 O10 2.788743 1_545
K3 O11 2.788743 1_555
K3 O0 2.870029 1_555
K3 O1 2.870029 1_545
K3 O13 2.940692 1_655
K3 O15 2.940692 1_645
K4 O14 2.747857 1_555
K4 O1 2.879989 1_545
K4 O6 2.985694 1_555
K4 O11 2.985694 1_555
K4 O8 3.214971 1_556
K4 O5 3.214971 1_556
K5 O12 2.747857 1_555
K5 O0 2.879989 1_565
K5 O10 2.985694 1_555
K5 O7 2.985694 1_555
K5 O4 3.214971 1_554
K5 O9 3.214971 1_554
K6 O13 2.747857 1_565
K6 O3 2.879989 1_555
K6 O4 2.985694 1_555
K6 O9 2.985694 1_455
K6 O10 3.214971 1_455
K6 O7 3.214971 1_555
K7 O15 2.747857 1_545
K7 O2 2.879989 1_555
K7 O8 2.985694 1_455
K7 O5 2.985694 1_555
K7 O11 3.214971 1_455
K7 O6 3.214971 1_555
Na0 O14 2.298305 1_555
Na0 O7 2.303903 1_555
Na0 O3 2.341166 1_555
Na0 O6 2.365024 1_555
Na1 O12 2.298305 1_555
Na1 O6 2.303903 1_555
Na1 O2 2.341166 1_555
Na1 O7 2.365024 1_555
Na2 O13 2.298305 1_555
Na2 O5 2.303903 1_556
Na2 O1 2.341166 1_545
Na2 O4 2.365024 1_545
Na3 O15 2.298305 1_555
Na3 O4 2.303903 1_554
Na3 O0 2.341166 1_565
Na3 O5 2.365024 1_565
Na4 O8 2.203053 1_456
Na4 O5 2.203053 1_556
Na4 O3 2.359059 1_555
Na4 O13 2.465852 1_555
Na5 O4 2.203053 1_554
Na5 O9 2.203053 1_454
Na5 O2 2.359059 1_555
Na5 O15 2.465852 1_555
Na6 O10 2.203053 1_555
Na6 O7 2.203053 1_555
Na6 O1 2.359059 1_555
Na6 O14 2.465852 1_555
Na7 O6 2.203053 1_555
Na7 O11 2.203053 1_555
Na7 O0 2.359059 1_555
Na7 O12 2.465852 1_555
Na8 O15 2.298305 1_655
Na8 O9 2.303903 1_554
Na8 O0 2.341166 1_565
Na8 O8 2.365024 1_565
Na9 O12 2.298305 1_555
Na9 O11 2.303903 1_555
Na9 O2 2.341166 1_655
Na9 O10 2.365024 1_555
Na10 O14 2.298305 1_555
Na10 O10 2.303903 1_555
Na10 O3 2.341166 1_655
Na10 O11 2.365024 1_555
Na11 O13 2.298305 1_655
Na11 O8 2.303903 1_556
Na11 O1 2.341166 1_545
Na11 O9 2.365024 1_545
O0 Tl2 2.237995 1_555
O1 Tl3 2.237995 1_555
O2 Tl0 2.237995 1_555
O3 Tl1 2.237995 1_555
O4 Tl3 2.153235 1_555
O5 Tl2 2.153235 1_555
O6 Tl1 2.153235 1_555
O7 Tl0 2.153235 1_555
O8 Tl2 2.153235 1_555
O9 Tl3 2.153235 1_555
O10 Tl0 2.153235 1_655
O11 Tl1 2.153235 1_655
O12 Tl2 2.190915 1_555
O13 Tl1 2.190915 1_555
O14 Tl3 2.190915 1_555
O15 Tl0 2.190915 1_555
