# generated using pymatgen
data_Yb(YSe2)2
_symmetry_space_group_name_H-M   'P 1'
_cell_length_a   4.06955800
_cell_length_b   13.52481200
_cell_length_c   13.80577200
_cell_angle_alpha   90.00000000
_cell_angle_beta   90.00000000
_cell_angle_gamma   90.00000000
_symmetry_Int_Tables_number   1
_chemical_formula_structural   Yb(YSe2)2
_chemical_formula_sum   'Yb4 Y8 Se16'
_cell_volume   759.86978577
_cell_formula_units_Z   4
loop_
 _symmetry_equiv_pos_site_id
 _symmetry_equiv_pos_as_xyz
  1  'x, y, z'
loop_
 _atom_site_type_symbol
 _atom_site_label
 _atom_site_symmetry_multiplicity
 _atom_site_fract_x
 _atom_site_fract_y
 _atom_site_fract_z
 _atom_site_occupancy
  Yb  Yb0  1  0.25000000  0.37130000  0.58132000  1
  Yb  Yb1  1  0.25000000  0.87130000  0.91868000  1
  Yb  Yb2  1  0.75000000  0.62870000  0.41868000  1
  Yb  Yb3  1  0.75000000  0.12870000  0.08132000  1
  Y  Y0  1  0.25000000  0.10793000  0.41760300  1
  Y  Y1  1  0.25000000  0.60793000  0.08239700  1
  Y  Y2  1  0.75000000  0.89207000  0.58239700  1
  Y  Y3  1  0.75000000  0.39207000  0.91760300  1
  Y  Y4  1  0.25000000  0.14751700  0.79711200  1
  Y  Y5  1  0.25000000  0.64751700  0.70288800  1
  Y  Y6  1  0.75000000  0.85248300  0.20288800  1
  Y  Y7  1  0.75000000  0.35248300  0.29711200  1
  Se  Se0  1  0.25000000  0.21432800  0.23521200  1
  Se  Se1  1  0.25000000  0.71432800  0.26478800  1
  Se  Se2  1  0.75000000  0.78567200  0.76478800  1
  Se  Se3  1  0.75000000  0.28567200  0.73521200  1
  Se  Se4  1  0.25000000  0.25460700  0.97631800  1
  Se  Se5  1  0.25000000  0.75460700  0.52368200  1
  Se  Se6  1  0.75000000  0.74539300  0.02368200  1
  Se  Se7  1  0.75000000  0.24539300  0.47631800  1
  Se  Se8  1  0.25000000  0.47066600  0.38450200  1
  Se  Se9  1  0.25000000  0.97066600  0.11549800  1
  Se  Se10  1  0.75000000  0.52933400  0.61549800  1
  Se  Se11  1  0.75000000  0.02933400  0.88450200  1
  Se  Se12  1  0.25000000  0.03513000  0.61826300  1
  Se  Se13  1  0.25000000  0.53513000  0.88173700  1
  Se  Se14  1  0.75000000  0.96487000  0.38173700  1
  Se  Se15  1  0.75000000  0.46487000  0.11826300  1
loop_
_geom_bond_atom_site_label_1
_geom_bond_atom_site_label_2
_geom_bond_distance
_geom_bond_site_symmetry_2
Se0 Y7 2.891712 1_555
Se0 Y7 2.891712 1_455
Se0 Y0 2.900229 1_555
Se0 Yb3 3.161557 1_555
Se0 Yb3 3.161557 1_455
Se1 Y6 2.891712 1_455
Se1 Y6 2.891712 1_555
Se1 Y1 2.900229 1_555
Se1 Yb2 3.161557 1_555
Se1 Yb2 3.161557 1_455
Se2 Y5 2.891712 1_655
Se2 Y5 2.891712 1_555
Se2 Y2 2.900229 1_555
Se2 Yb1 3.161557 1_655
Se2 Yb1 3.161557 1_555
Se3 Y4 2.891712 1_655
Se3 Y4 2.891712 1_555
Se3 Y3 2.900229 1_555
Se3 Yb0 3.161557 1_655
Se3 Yb0 3.161557 1_555
Se4 Y4 2.866852 1_555
Se4 Y3 2.872958 1_455
Se4 Y3 2.872958 1_555
Se4 Yb3 3.023495 1_556
Se4 Yb3 3.023495 1_456
Se5 Y5 2.866852 1_555
Se5 Y2 2.872958 1_555
Se5 Y2 2.872958 1_455
Se5 Yb2 3.023495 1_455
Se5 Yb2 3.023495 1_555
Se6 Y6 2.866852 1_555
Se6 Y1 2.872958 1_655
Se6 Y1 2.872958 1_555
Se6 Yb1 3.023495 1_654
Se6 Yb1 3.023495 1_554
Se7 Y7 2.866852 1_555
Se7 Y0 2.872958 1_555
Se7 Y0 2.872958 1_655
Se7 Yb0 3.023495 1_555
Se7 Yb0 3.023495 1_655
Se8 Y7 2.854965 1_455
Se8 Y7 2.854965 1_555
Se8 Yb2 2.988539 1_455
Se8 Yb2 2.988539 1_555
Se8 Yb0 3.031401 1_555
Se9 Y6 2.854965 1_555
Se9 Y6 2.854965 1_455
Se9 Yb3 2.988539 1_465
Se9 Yb3 2.988539 1_565
Se9 Yb1 3.031401 1_554
Se10 Y5 2.854965 1_555
Se10 Y5 2.854965 1_655
Se10 Yb0 2.988539 1_555
Se10 Yb0 2.988539 1_655
Se10 Yb2 3.031401 1_555
Se11 Y4 2.854965 1_655
Se11 Y4 2.854965 1_555
Se11 Yb1 2.988539 1_545
Se11 Yb1 2.988539 1_645
Se11 Yb3 3.031401 1_556
Se12 Y2 2.851173 1_545
Se12 Y2 2.851173 1_445
Se12 Y4 2.899506 1_555
Se12 Y0 2.940038 1_555
Se13 Y3 2.851173 1_555
Se13 Y3 2.851173 1_455
Se13 Y5 2.899506 1_555
Se13 Y1 2.940038 1_556
Se14 Y0 2.851173 1_665
Se14 Y0 2.851173 1_565
Se14 Y6 2.899506 1_555
Se14 Y2 2.940038 1_555
Se15 Y1 2.851173 1_655
Se15 Y1 2.851173 1_555
Se15 Y7 2.899506 1_555
Se15 Y3 2.940038 1_554
