# generated using pymatgen
data_EuNbCrBiO6
_symmetry_space_group_name_H-M   'P 1'
_cell_length_a   5.66998961
_cell_length_b   5.66998961
_cell_length_c   5.66998961
_cell_angle_alpha   60.00000000
_cell_angle_beta   60.00000000
_cell_angle_gamma   60.00000000
_symmetry_Int_Tables_number   1
_chemical_formula_structural   EuNbCrBiO6
_chemical_formula_sum   'Eu1 Nb1 Cr1 Bi1 O6'
_cell_volume   128.89372965
_cell_formula_units_Z   1
loop_
 _symmetry_equiv_pos_site_id
 _symmetry_equiv_pos_as_xyz
  1  'x, y, z'
loop_
 _atom_site_type_symbol
 _atom_site_label
 _atom_site_symmetry_multiplicity
 _atom_site_fract_x
 _atom_site_fract_y
 _atom_site_fract_z
 _atom_site_occupancy
  Eu  Eu0  1  0.75000000  0.75000000  0.75000000  1
  Nb  Nb0  1  0.50000000  0.50000000  0.50000000  1
  Cr  Cr0  1  0.00000000  0.00000000  0.00000000  1
  Bi  Bi0  1  0.25000000  0.25000000  0.25000000  1
  O  O0  1  0.75149282  0.24850718  0.24850718  1
  O  O1  1  0.24850718  0.75149282  0.75149282  1
  O  O2  1  0.75149282  0.24850718  0.75149282  1
  O  O3  1  0.24850718  0.75149282  0.24850718  1
  O  O4  1  0.75149282  0.75149282  0.24850718  1
  O  O5  1  0.24850718  0.24850718  0.75149282  1
loop_
_geom_bond_atom_site_label_1
_geom_bond_atom_site_label_2
_geom_bond_distance
_geom_bond_site_symmetry_2
Eu0 O2 2.835020 1_555
Eu0 O4 2.835020 1_555
Eu0 O1 2.835020 1_555
Eu0 O0 2.835020 1_565
Eu0 O3 2.835020 1_655
Eu0 O5 2.835020 1_565
Eu0 O5 2.835020 1_655
Eu0 O3 2.835020 1_556
Eu0 O0 2.835020 1_556
Eu0 O2 2.835020 1_565
Eu0 O4 2.835020 1_556
Eu0 O1 2.835020 1_655
Nb0 O5 2.016614 1_555
Nb0 O3 2.016614 1_555
Nb0 O0 2.016614 1_555
Nb0 O2 2.016614 1_555
Nb0 O1 2.016614 1_555
Nb0 O4 2.016614 1_555
Cr0 O2 1.992674 1_454
Cr0 O4 1.992674 1_445
Cr0 O1 1.992674 1_544
Cr0 O0 1.992674 1_455
Cr0 O3 1.992674 1_545
Cr0 O5 1.992674 1_554
Bi0 O0 2.835020 1_455
Bi0 O5 2.835020 1_554
Bi0 O3 2.835020 1_545
Bi0 O2 2.835020 1_455
Bi0 O1 2.835020 1_554
Bi0 O2 2.835020 1_554
Bi0 O4 2.835020 1_545
Bi0 O1 2.835020 1_545
Bi0 O4 2.835020 1_455
Bi0 O0 2.835020 1_555
Bi0 O5 2.835020 1_555
Bi0 O3 2.835020 1_555
