# generated using pymatgen
data_VP2O7
_symmetry_space_group_name_H-M   'P 1'
_cell_length_a   4.47565686
_cell_length_b   8.19957454
_cell_length_c   8.37406001
_cell_angle_alpha   74.54338883
_cell_angle_beta   75.57741340
_cell_angle_gamma   75.48637423
_symmetry_Int_Tables_number   1
_chemical_formula_structural   VP2O7
_chemical_formula_sum   'V2 P4 O14'
_cell_volume   281.22319212
_cell_formula_units_Z   2
loop_
 _symmetry_equiv_pos_site_id
 _symmetry_equiv_pos_as_xyz
  1  'x, y, z'
loop_
 _atom_site_type_symbol
 _atom_site_label
 _atom_site_symmetry_multiplicity
 _atom_site_fract_x
 _atom_site_fract_y
 _atom_site_fract_z
 _atom_site_occupancy
  V  V0  1  0.29234800  0.24261100  0.73070900  1
  V  V1  1  0.71638000  0.76324900  0.27135000  1
  P  P0  1  0.69018600  0.32607800  0.32619300  1
  P  P1  1  0.34419900  0.19223500  0.14557500  1
  P  P2  1  0.21272600  0.61569800  0.78854000  1
  P  P3  1  0.64473500  0.81722400  0.84994900  1
  O  O0  1  0.92815900  0.24468400  0.73178100  1
  O  O1  1  0.09130000  0.76504800  0.24777900  1
  O  O2  1  0.52177800  0.23554800  0.49250000  1
  O  O3  1  0.26992600  0.26616900  0.97052400  1
  O  O4  1  0.55872000  0.77523900  0.46679900  1
  O  O5  1  0.71067700  0.75420900  0.02378000  1
  O  O6  1  0.45144200  0.98932600  0.79511100  1
  O  O7  1  0.29709700  0.49447000  0.66933600  1
  O  O8  1  0.54787800  0.01789500  0.17734600  1
  O  O9  1  0.74787300  0.50270900  0.30448200  1
  O  O10  1  0.51252700  0.66686100  0.81328100  1
  O  O11  1  0.98326200  0.79584100  0.71981900  1
  O  O12  1  0.50631900  0.33166000  0.18015300  1
  O  O13  1  0.02094000  0.19548200  0.28272700  1
loop_
_geom_bond_atom_site_label_1
_geom_bond_atom_site_label_2
_geom_bond_distance
_geom_bond_site_symmetry_2
O0 V0 1.623615 1_655
O1 V1 1.643402 1_455
O2 P0 1.505045 1_555
O2 V0 2.012042 1_555
O3 P1 1.514894 1_556
O3 V0 2.043774 1_555
O4 V1 1.631582 1_555
O5 P3 1.486517 1_554
O5 V1 2.100805 1_555
O6 P3 1.480295 1_555
O6 V0 1.991022 1_565
O7 P2 1.509996 1_555
O7 V0 1.995047 1_555
O8 P1 1.486687 1_555
O8 V1 2.044139 1_545
O9 P0 1.490293 1_555
O9 V1 2.052638 1_555
O10 P2 1.576805 1_555
O10 P3 1.619397 1_555
O11 P2 1.627484 1_655
O11 P3 1.630971 1_555
O12 P1 1.616840 1_555
O12 P0 1.620962 1_555
O13 P1 1.606943 1_555
O13 P0 1.617216 1_455
