# generated using pymatgen
data_Cs2As2Pt
_symmetry_space_group_name_H-M   'P 1'
_cell_length_a   8.31081892
_cell_length_b   8.31081892
_cell_length_c   6.52594918
_cell_angle_alpha   90.00000000
_cell_angle_beta   90.00000000
_cell_angle_gamma   129.84510434
_symmetry_Int_Tables_number   1
_chemical_formula_structural   Cs2As2Pt
_chemical_formula_sum   'Cs4 As4 Pt2'
_cell_volume   346.07304179
_cell_formula_units_Z   2
loop_
 _symmetry_equiv_pos_site_id
 _symmetry_equiv_pos_as_xyz
  1  'x, y, z'
loop_
 _atom_site_type_symbol
 _atom_site_label
 _atom_site_symmetry_multiplicity
 _atom_site_fract_x
 _atom_site_fract_y
 _atom_site_fract_z
 _atom_site_occupancy
  Cs  Cs0  1  0.79371275  0.20628725  0.25000000  1
  Cs  Cs1  1  0.20628725  0.79371275  0.75000000  1
  Cs  Cs2  1  0.41403082  0.58596918  0.25000000  1
  Cs  Cs3  1  0.58596918  0.41403082  0.75000000  1
  As  As0  1  0.92633207  0.73024819  0.25000000  1
  As  As1  1  0.07366793  0.26975181  0.75000000  1
  As  As2  1  0.26975181  0.07366793  0.25000000  1
  As  As3  1  0.73024819  0.92633207  0.75000000  1
  Pt  Pt0  1  0.00000000  0.00000000  0.00000000  1
  Pt  Pt1  1  0.00000000  0.00000000  0.50000000  1
loop_
_geom_bond_atom_site_label_1
_geom_bond_atom_site_label_2
_geom_bond_distance
_geom_bond_site_symmetry_2
Cs0 Pt0 3.508076 1_655
Cs0 Pt1 3.508076 1_655
Cs1 Pt0 3.508076 1_566
Cs1 Pt1 3.508076 1_565
As0 As2 2.419380 1_665
As0 Pt0 2.510714 1_665
As0 Pt1 2.510714 1_665
As0 Cs2 3.608782 1_555
As0 Cs0 3.745219 1_555
As0 Cs1 3.842654 1_655
As0 Cs1 3.842654 1_654
As0 Cs3 4.003629 1_554
As0 Cs3 4.003629 1_555
As1 As3 2.419380 1_445
As1 Pt0 2.510714 1_556
As1 Pt1 2.510714 1_555
As1 Cs3 3.608782 1_555
As1 Cs1 3.745219 1_555
As1 Cs0 3.842654 1_455
As1 Cs0 3.842654 1_456
As1 Cs2 4.003629 1_556
As1 Cs2 4.003629 1_555
As2 Pt0 2.510714 1_555
As2 Pt1 2.510714 1_555
As2 Cs2 3.608782 1_555
As2 Cs0 3.745219 1_555
As2 Cs1 3.842654 1_544
As2 Cs1 3.842654 1_545
As2 Cs3 4.003629 1_554
As2 Cs3 4.003629 1_555
As3 Pt0 2.510714 1_666
As3 Pt1 2.510714 1_665
As3 Cs3 3.608782 1_555
As3 Cs1 3.745219 1_555
As3 Cs0 3.842654 1_565
As3 Cs0 3.842654 1_566
As3 Cs2 4.003629 1_556
As3 Cs2 4.003629 1_555
