# generated using pymatgen
data_Li9Mn2Co5O16
_symmetry_space_group_name_H-M   'P 1'
_cell_length_a   3.01644600
_cell_length_b   6.40991882
_cell_length_c   15.46380847
_cell_angle_alpha   88.82239389
_cell_angle_beta   86.59494616
_cell_angle_gamma   76.64120118
_symmetry_Int_Tables_number   1
_chemical_formula_structural   Li9Mn2Co5O16
_chemical_formula_sum   'Li9 Mn2 Co5 O16'
_cell_volume   290.38454718
_cell_formula_units_Z   1
loop_
 _symmetry_equiv_pos_site_id
 _symmetry_equiv_pos_as_xyz
  1  'x, y, z'
loop_
 _atom_site_type_symbol
 _atom_site_label
 _atom_site_symmetry_multiplicity
 _atom_site_fract_x
 _atom_site_fract_y
 _atom_site_fract_z
 _atom_site_occupancy
  Li  Li0  1  0.93536400  0.12196500  0.81130300  1
  Li  Li1  1  0.18154200  0.62828600  0.56095600  1
  Li  Li2  1  0.44818000  0.11459800  0.31354500  1
  Li  Li3  1  0.55713200  0.88144500  0.68666900  1
  Li  Li4  1  0.81811200  0.37143300  0.44069800  1
  Li  Li5  1  0.06267900  0.87865300  0.18858000  1
  Li  Li6  1  0.68871000  0.62176500  0.06248500  1
  Li  Li7  1  0.31001600  0.38022000  0.93650200  1
  Li  Li8  1  0.49953300  0.00054500  0.50075200  1
  Mn  Mn0  1  0.00803500  0.00051100  0.99811900  1
  Mn  Mn1  1  0.74185100  0.50193500  0.25237900  1
  Co  Co0  1  0.25049200  0.49610300  0.74946500  1
  Co  Co1  1  0.88028100  0.24299200  0.61953000  1
  Co  Co2  1  0.12718200  0.76063500  0.38196000  1
  Co  Co3  1  0.37461000  0.25057700  0.12532100  1
  Co  Co4  1  0.61856700  0.74673800  0.87319600  1
  O  O0  1  0.45269600  0.04578600  0.90586500  1
  O  O1  1  0.74379400  0.53746700  0.65775800  1
  O  O2  1  0.97928300  0.03428400  0.40170900  1
  O  O3  1  0.05990900  0.79384100  0.78388300  1
  O  O4  1  0.32500300  0.30677300  0.53943900  1
  O  O5  1  0.57265600  0.79850500  0.28610800  1
  O  O6  1  0.18733400  0.54838700  0.15768700  1
  O  O7  1  0.87289500  0.29929800  0.03429700  1
  O  O8  1  0.43248100  0.20485600  0.71526500  1
  O  O9  1  0.68174400  0.69381400  0.46108600  1
  O  O10  1  0.87551700  0.20344800  0.21589200  1
  O  O11  1  0.02059100  0.96778700  0.59957500  1
  O  O12  1  0.29276900  0.46136000  0.34493200  1
  O  O13  1  0.56533000  0.95297500  0.09245700  1
  O  O14  1  0.18352000  0.69971400  0.96348700  1
  O  O15  1  0.75219700  0.45330500  0.83909800  1
loop_
_geom_bond_atom_site_label_1
_geom_bond_atom_site_label_2
_geom_bond_distance
_geom_bond_site_symmetry_2
Li0 O3 2.096947 1_645
Li0 O15 2.113732 1_555
Li0 O0 2.131376 1_555
Li0 O8 2.156768 1_555
Li0 O0 2.168294 1_655
Li0 O8 2.192634 1_655
Li1 O4 2.035717 1_555
Li1 O1 2.099486 1_455
Li1 O9 2.188995 1_455
Li1 O9 2.197151 1_555
Li1 O11 2.204278 1_555
Li1 O1 2.294697 1_555
Li2 O5 2.022638 1_545
Li2 O2 2.050084 1_455
Li2 O10 2.083027 1_555
Li2 O2 2.130678 1_555
Li2 O12 2.220726 1_555
Li2 O10 2.325631 1_455
Li3 O11 2.043972 1_655
Li3 O8 2.071750 1_565
Li3 O11 2.133995 1_555
Li3 O3 2.172073 1_655
Li3 O1 2.194379 1_555
Li3 O3 2.216172 1_555
Li4 O9 2.038957 1_555
Li4 O12 2.160961 1_655
Li4 O4 2.169051 1_555
Li4 O4 2.190797 1_655
Li4 O2 2.191676 1_555
Li4 O12 2.204112 1_555
Li5 O10 2.072713 1_465
Li5 O6 2.122168 1_555
Li5 O13 2.143042 1_455
Li5 O13 2.184560 1_555
Li5 O5 2.185766 1_455
Li5 O5 2.187106 1_555
Li6 O7 2.061241 1_555
Li6 O13 2.124951 1_555
Li6 O6 2.135054 1_655
Li6 O6 2.170621 1_555
Li6 O14 2.193013 1_554
Li6 O14 2.205167 1_654
Li7 O14 2.041780 1_555
Li7 O15 2.070836 1_555
Li7 O7 2.083643 1_456
Li7 O0 2.143898 1_555
Li7 O15 2.286322 1_455
Li7 O7 2.303193 1_556
Li8 O4 2.005332 1_555
Li8 O9 2.013487 1_545
Li8 O11 2.081183 1_545
Li8 O2 2.086731 1_555
Li8 O11 2.229221 1_645
Li8 O2 2.229418 1_455
Mn0 O7 1.950213 1_456
Mn0 O14 1.954907 1_545
Mn0 O0 1.963169 1_555
Mn0 O13 1.985607 1_446
Mn0 O0 2.228844 1_455
Mn0 O13 2.254615 1_546
Mn1 O5 1.925380 1_555
Mn1 O10 1.949981 1_555
Mn1 O12 1.966790 1_555
Mn1 O6 1.992935 1_655
Mn1 O12 2.223775 1_655
Mn1 O6 2.252452 1_555
Co0 O8 1.897044 1_555
Co0 O3 1.937643 1_555
Co0 O15 2.045268 1_455
Co0 O1 2.052268 1_555
Co0 O15 2.080485 1_555
Co0 O1 2.114774 1_455
Co1 O11 1.745867 1_645
Co1 O4 1.880394 1_655
Co1 O1 1.933829 1_555
Co1 O8 1.994028 1_555
Co1 O4 2.101367 1_555
Co1 O8 2.261816 1_655
Co2 O2 1.735879 1_465
Co2 O9 1.880185 1_455
Co2 O12 1.955949 1_555
Co2 O5 1.990214 1_555
Co2 O9 2.090315 1_555
Co2 O5 2.268473 1_455
Co3 O6 1.928999 1_555
Co3 O13 1.930333 1_545
Co3 O10 2.064377 1_455
Co3 O7 2.070142 1_555
Co3 O10 2.087804 1_555
Co3 O7 2.094218 1_455
Co4 O15 1.908769 1_555
Co4 O14 1.926213 1_555
Co4 O3 1.929029 1_655
Co4 O0 1.935599 1_565
Co4 O3 2.205139 1_555
Co4 O14 2.229902 1_655
