# generated using pymatgen
data_Ba(BrO)2
_symmetry_space_group_name_H-M   'P 1'
_cell_length_a   5.96936733
_cell_length_b   5.96936733
_cell_length_c   9.66133902
_cell_angle_alpha   65.76511744
_cell_angle_beta   65.76511744
_cell_angle_gamma   70.06083746
_symmetry_Int_Tables_number   1
_chemical_formula_structural   Ba(BrO)2
_chemical_formula_sum   'Ba2 Br4 O4'
_cell_volume   280.02981081
_cell_formula_units_Z   2
loop_
 _symmetry_equiv_pos_site_id
 _symmetry_equiv_pos_as_xyz
  1  'x, y, z'
loop_
 _atom_site_type_symbol
 _atom_site_label
 _atom_site_symmetry_multiplicity
 _atom_site_fract_x
 _atom_site_fract_y
 _atom_site_fract_z
 _atom_site_occupancy
  Ba  Ba0  1  0.66032800  0.33967200  0.25000000  1
  Ba  Ba1  1  0.33967200  0.66032800  0.75000000  1
  Br  Br0  1  0.12199500  0.64218100  0.13636600  1
  Br  Br1  1  0.35781900  0.87800500  0.36363400  1
  Br  Br2  1  0.87800500  0.35781900  0.86363400  1
  Br  Br3  1  0.64218100  0.12199500  0.63636600  1
  O  O0  1  0.15085600  0.27874700  0.03976600  1
  O  O1  1  0.72125300  0.84914400  0.46023400  1
  O  O2  1  0.84914400  0.72125300  0.96023400  1
  O  O3  1  0.27874700  0.15085600  0.53976600  1
loop_
_geom_bond_atom_site_label_1
_geom_bond_atom_site_label_2
_geom_bond_distance
_geom_bond_site_symmetry_2
Ba0 O1 2.798092 1_545
Ba0 O0 2.798092 1_655
Ba0 O3 2.867344 1_555
Ba0 O2 2.867344 1_554
Ba0 Br0 3.368046 1_655
Ba0 Br1 3.368046 1_545
Ba0 Br2 3.378776 1_554
Ba0 Br3 3.378776 1_555
Ba0 Br1 3.479039 1_555
Ba0 Br0 3.479039 1_555
Ba1 O2 2.798092 1_455
Ba1 O3 2.798092 1_565
Ba1 O0 2.867344 1_556
Ba1 O1 2.867344 1_555
Ba1 Br3 3.368046 1_565
Ba1 Br2 3.368046 1_455
Ba1 Br0 3.378776 1_556
Ba1 Br1 3.378776 1_555
Ba1 Br2 3.479039 1_555
Ba1 Br3 3.479039 1_555
Br0 O2 2.619716 1_454
Br0 O0 2.623472 1_555
Br1 O3 2.619716 1_565
Br1 O1 2.623472 1_555
Br2 O0 2.619716 1_656
Br2 O2 2.623472 1_555
Br3 O1 2.619716 1_545
Br3 O3 2.623472 1_555
