# generated using pymatgen
data_Na2Ga2Se3
_symmetry_space_group_name_H-M   'P 1'
_cell_length_a   6.86245464
_cell_length_b   6.86245464
_cell_length_c   8.58265045
_cell_angle_alpha   82.33951501
_cell_angle_beta   82.33951501
_cell_angle_gamma   120.02032006
_symmetry_Int_Tables_number   1
_chemical_formula_structural   Na2Ga2Se3
_chemical_formula_sum   'Na4 Ga4 Se6'
_cell_volume   337.28837779
_cell_formula_units_Z   2
loop_
 _symmetry_equiv_pos_site_id
 _symmetry_equiv_pos_as_xyz
  1  'x, y, z'
loop_
 _atom_site_type_symbol
 _atom_site_label
 _atom_site_symmetry_multiplicity
 _atom_site_fract_x
 _atom_site_fract_y
 _atom_site_fract_z
 _atom_site_occupancy
  Na  Na0  1  0.66432765  0.33567235  0.00000000  1
  Na  Na1  1  0.33567235  0.66432765  0.00000000  1
  Na  Na2  1  -0.00000000  -0.00000000  0.00000000  1
  Na  Na3  1  0.50000000  0.50000000  0.50000000  1
  Ga  Ga0  1  0.88122307  0.21478206  0.35446254  1
  Ga  Ga1  1  0.78521794  0.11877693  0.64553746  1
  Ga  Ga2  1  0.21478206  0.88122307  0.35446254  1
  Ga  Ga3  1  0.11877693  0.78521794  0.64553746  1
  Se  Se0  1  0.41278438  0.07312178  0.76289944  1
  Se  Se1  1  0.07312178  0.41278438  0.76289944  1
  Se  Se2  1  0.92687822  0.58721562  0.23710056  1
  Se  Se3  1  0.75271099  0.75271099  0.76322235  1
  Se  Se4  1  0.58721562  0.92687822  0.23710056  1
  Se  Se5  1  0.24728901  0.24728901  0.23677765  1
loop_
_geom_bond_atom_site_label_1
_geom_bond_atom_site_label_2
_geom_bond_distance
_geom_bond_site_symmetry_2
Na0 Se1 2.999407 1_654
Na0 Se4 2.999407 1_545
Na0 Se3 3.011992 1_554
Na0 Se5 3.011992 1_555
Na0 Se0 3.028037 1_554
Na0 Se2 3.028037 1_555
Na1 Se0 2.999407 1_564
Na1 Se2 2.999407 1_455
Na1 Se3 3.011992 1_554
Na1 Se5 3.011992 1_555
Na1 Se1 3.028037 1_554
Na1 Se4 3.028037 1_555
Na2 Se3 2.974336 1_444
Na2 Se5 2.974336 1_555
Na2 Se2 3.030794 1_445
Na2 Se0 3.030794 1_554
Na2 Se4 3.030794 1_445
Na2 Se1 3.030794 1_554
Na3 Se0 3.186590 1_555
Na3 Se4 3.186590 1_555
Na3 Se1 3.186590 1_555
Na3 Se2 3.186590 1_555
Na3 Se5 3.193500 1_555
Na3 Se3 3.193500 1_555
Ga0 Ga1 2.407729 1_555
Ga0 Se4 2.464256 1_545
Ga0 Se2 2.464385 1_555
Ga0 Se5 2.466451 1_655
Ga1 Se1 2.464256 1_655
Ga1 Se0 2.464385 1_555
Ga1 Se3 2.466451 1_545
Ga2 Ga3 2.407729 1_555
Ga2 Se2 2.464256 1_455
Ga2 Se4 2.464385 1_555
Ga2 Se5 2.466451 1_565
Ga3 Se0 2.464256 1_565
Ga3 Se1 2.464385 1_555
Ga3 Se3 2.466451 1_455
