# generated using pymatgen
data_YMg14Ni
_symmetry_space_group_name_H-M   'P 1'
_cell_length_a   6.38700658
_cell_length_b   6.38700607
_cell_length_c   10.21701561
_cell_angle_alpha   90.00000000
_cell_angle_beta   90.00000000
_cell_angle_gamma   120.00000266
_symmetry_Int_Tables_number   1
_chemical_formula_structural   YMg14Ni
_chemical_formula_sum   'Y1 Mg14 Ni1'
_cell_volume   360.95193077
_cell_formula_units_Z   1
loop_
 _symmetry_equiv_pos_site_id
 _symmetry_equiv_pos_as_xyz
  1  'x, y, z'
loop_
 _atom_site_type_symbol
 _atom_site_label
 _atom_site_symmetry_multiplicity
 _atom_site_fract_x
 _atom_site_fract_y
 _atom_site_fract_z
 _atom_site_occupancy
  Y  Y0  1  0.16666700  0.33333300  0.12500000  1
  Mg  Mg0  1  0.17904115  0.83952007  0.12500000  1
  Mg  Mg1  1  0.15989189  0.82994544  0.62500000  1
  Mg  Mg2  1  0.66047993  0.32095885  0.12500000  1
  Mg  Mg3  1  0.67005456  0.34010811  0.62500000  1
  Mg  Mg4  1  0.66047993  0.83952007  0.12500000  1
  Mg  Mg5  1  0.67005456  0.82994544  0.62500000  1
  Mg  Mg6  1  0.32631900  0.17368100  0.39468539  1
  Mg  Mg7  1  0.32631900  0.17368100  0.85531461  1
  Mg  Mg8  1  0.32631900  0.65263899  0.39468539  1
  Mg  Mg9  1  0.32631900  0.65263899  0.85531461  1
  Mg  Mg10  1  0.84736101  0.17368100  0.39468539  1
  Mg  Mg11  1  0.84736101  0.17368100  0.85531461  1
  Mg  Mg12  1  0.83333300  0.66666700  0.36569442  1
  Mg  Mg13  1  0.83333300  0.66666700  0.88430558  1
  Ni  Ni0  1  0.16666700  0.33333300  0.62500000  1
loop_
_geom_bond_atom_site_label_1
_geom_bond_atom_site_label_2
_geom_bond_distance
_geom_bond_site_symmetry_2
Mg0 Mg2 3.074952 1_565
Mg0 Mg4 3.074953 1_555
Mg0 Mg13 3.115147 1_454
Mg0 Mg12 3.115147 1_455
Mg0 Y0 3.194236 1_555
Mg0 Y0 3.194236 1_565
Mg0 Mg2 3.312054 1_455
Mg0 Mg4 3.312054 1_455
Mg0 Mg9 3.320310 1_554
Mg0 Mg8 3.320310 1_555
Mg0 Mg7 3.320317 1_564
Mg0 Mg6 3.320317 1_565
Mg1 Mg8 3.025450 1_555
Mg1 Mg9 3.025450 1_555
Mg1 Mg6 3.025457 1_565
Mg1 Mg7 3.025457 1_565
Mg1 Mg3 3.128594 1_455
Mg1 Mg5 3.128594 1_455
Mg1 Ni0 3.193723 1_555
Mg1 Ni0 3.193723 1_565
Mg1 Mg12 3.206503 1_455
Mg1 Mg13 3.206503 1_455
Mg1 Mg3 3.258412 1_565
Mg1 Mg5 3.258412 1_555
Mg2 Mg4 3.074952 1_545
Mg2 Y0 3.194237 1_655
Mg2 Y0 3.194237 1_555
Mg2 Mg4 3.312054 1_555
Mg2 Mg6 3.320317 1_555
Mg2 Mg7 3.320317 1_554
Mg3 Mg6 3.025457 1_555
Mg3 Mg7 3.025457 1_555
Mg3 Mg5 3.128594 1_555
Mg3 Ni0 3.193723 1_655
Mg3 Ni0 3.193723 1_555
Mg3 Mg5 3.258412 1_545
Mg4 Y0 3.194236 1_555
Mg4 Y0 3.194236 1_665
Mg4 Mg8 3.320316 1_555
Mg4 Mg9 3.320316 1_554
Mg5 Mg9 3.025457 1_555
Mg5 Mg8 3.025457 1_555
Mg5 Ni0 3.193723 1_665
Mg5 Ni0 3.193723 1_555
Mg6 Ni0 2.942204 1_555
Mg6 Y0 3.272839 1_555
Mg7 Ni0 2.942204 1_555
Mg7 Y0 3.272839 1_556
Mg8 Ni0 2.942211 1_555
Mg8 Y0 3.272844 1_555
Mg9 Ni0 2.942211 1_555
Mg9 Y0 3.272844 1_556
Mg10 Ni0 2.942211 1_655
Mg10 Mg3 3.025450 1_555
Mg10 Mg5 3.025457 1_545
Mg10 Mg12 3.208149 1_545
Mg10 Mg12 3.208149 1_555
Mg10 Y0 3.272844 1_655
Mg10 Mg2 3.320310 1_555
Mg10 Mg4 3.320316 1_545
Mg11 Ni0 2.942211 1_655
Mg11 Mg3 3.025450 1_555
Mg11 Mg5 3.025457 1_545
Mg11 Mg13 3.208149 1_545
Mg11 Mg13 3.208149 1_555
Mg11 Y0 3.272844 1_656
Mg11 Mg2 3.320310 1_556
Mg11 Mg4 3.320316 1_546
Mg12 Mg4 3.115140 1_555
Mg12 Mg2 3.115147 1_555
Mg12 Mg5 3.206496 1_555
Mg12 Mg3 3.206503 1_555
Mg12 Mg6 3.208149 1_665
Mg12 Mg6 3.208149 1_555
Mg12 Mg8 3.208149 1_555
Mg12 Mg8 3.208149 1_655
Mg13 Mg4 3.115140 1_556
Mg13 Mg2 3.115147 1_556
Mg13 Mg5 3.206496 1_555
Mg13 Mg3 3.206503 1_555
Mg13 Mg7 3.208149 1_665
Mg13 Mg7 3.208149 1_555
Mg13 Mg9 3.208149 1_555
Mg13 Mg9 3.208149 1_655
