# generated using pymatgen
data_PaCd
_symmetry_space_group_name_H-M   'P 1'
_cell_length_a   6.22116090
_cell_length_b   6.22116090
_cell_length_c   11.47142814
_cell_angle_alpha   90.00000000
_cell_angle_beta   90.00000000
_cell_angle_gamma   120.00002063
_symmetry_Int_Tables_number   1
_chemical_formula_structural   PaCd
_chemical_formula_sum   'Pa8 Cd8'
_cell_volume   384.49517823
_cell_formula_units_Z   8
loop_
 _symmetry_equiv_pos_site_id
 _symmetry_equiv_pos_as_xyz
  1  'x, y, z'
loop_
 _atom_site_type_symbol
 _atom_site_label
 _atom_site_symmetry_multiplicity
 _atom_site_fract_x
 _atom_site_fract_y
 _atom_site_fract_z
 _atom_site_occupancy
  Pa  Pa0_0  1  0.00000000  0.00000000  0.00000000  1
  Pa  Pa0_1  1  0.00000000  0.00000000  0.50000000  1
  Pa  Pa0_2  1  0.00000000  0.50000000  0.00000000  1
  Pa  Pa0_3  1  0.00000000  0.50000000  0.50000000  1
  Pa  Pa0_4  1  0.50000000  0.00000000  0.00000000  1
  Pa  Pa0_5  1  0.50000000  0.00000000  0.50000000  1
  Pa  Pa0_6  1  0.50000000  0.50000000  0.00000000  1
  Pa  Pa0_7  1  0.50000000  0.50000000  0.50000000  1
  Cd  Cd0_0  1  0.16666650  0.33333350  0.25000000  1
  Cd  Cd0_1  1  0.16666650  0.33333350  0.75000000  1
  Cd  Cd0_2  1  0.16666650  0.83333350  0.25000000  1
  Cd  Cd0_3  1  0.16666650  0.83333350  0.75000000  1
  Cd  Cd0_4  1  0.66666650  0.33333350  0.25000000  1
  Cd  Cd0_5  1  0.66666650  0.33333350  0.75000000  1
  Cd  Cd0_6  1  0.66666650  0.83333350  0.25000000  1
  Cd  Cd0_7  1  0.66666650  0.83333350  0.75000000  1
loop_
_geom_bond_atom_site_label_1
_geom_bond_atom_site_label_2
_geom_bond_distance
_geom_bond_site_symmetry_2
Pa0_0 Pa0_6 3.110579 1_445
Pa0_0 Pa0_6 3.110579 1_555
Pa0_0 Pa0_4 3.110580 1_455
Pa0_0 Pa0_2 3.110580 1_545
Pa0_0 Pa0_4 3.110580 1_555
Pa0_0 Pa0_2 3.110580 1_555
Pa0_1 Pa0_7 3.110579 1_555
Pa0_1 Pa0_7 3.110579 1_445
Pa0_1 Pa0_3 3.110580 1_555
Pa0_1 Pa0_5 3.110580 1_555
Pa0_1 Pa0_3 3.110580 1_545
Pa0_1 Pa0_5 3.110580 1_455
Pa0_2 Pa0_4 3.110579 1_565
Pa0_2 Pa0_4 3.110579 1_455
Pa0_2 Pa0_6 3.110580 1_455
Pa0_2 Pa0_6 3.110580 1_555
Pa0_3 Pa0_5 3.110579 1_455
Pa0_3 Pa0_5 3.110579 1_565
Pa0_3 Pa0_7 3.110580 1_455
Pa0_3 Pa0_7 3.110580 1_555
Pa0_4 Pa0_6 3.110580 1_555
Pa0_4 Pa0_6 3.110580 1_545
Pa0_5 Pa0_7 3.110580 1_555
Pa0_5 Pa0_7 3.110580 1_545
Cd0_0 Cd0_6 3.110579 1_555
Cd0_0 Cd0_6 3.110579 1_445
Cd0_0 Cd0_4 3.110580 1_555
Cd0_0 Cd0_2 3.110580 1_555
Cd0_0 Cd0_4 3.110580 1_455
Cd0_0 Cd0_2 3.110580 1_545
Cd0_0 Pa0_3 3.383760 1_555
Cd0_0 Pa0_2 3.383760 1_555
Cd0_0 Pa0_7 3.383762 1_555
Cd0_0 Pa0_0 3.383762 1_555
Cd0_0 Pa0_1 3.383762 1_555
Cd0_0 Pa0_6 3.383762 1_555
Cd0_1 Cd0_7 3.110579 1_555
Cd0_1 Cd0_7 3.110579 1_445
Cd0_1 Cd0_3 3.110580 1_555
Cd0_1 Cd0_5 3.110580 1_555
Cd0_1 Cd0_3 3.110580 1_545
Cd0_1 Cd0_5 3.110580 1_455
Cd0_1 Pa0_3 3.383760 1_555
Cd0_1 Pa0_2 3.383760 1_556
Cd0_1 Pa0_7 3.383762 1_555
Cd0_1 Pa0_6 3.383762 1_556
Cd0_1 Pa0_0 3.383762 1_556
Cd0_1 Pa0_1 3.383762 1_555
Cd0_2 Cd0_4 3.110579 1_455
Cd0_2 Cd0_4 3.110579 1_565
Cd0_2 Cd0_6 3.110580 1_555
Cd0_2 Cd0_6 3.110580 1_455
Cd0_2 Pa0_0 3.383760 1_565
Cd0_2 Pa0_1 3.383760 1_565
Cd0_2 Pa0_2 3.383762 1_555
Cd0_2 Pa0_5 3.383762 1_565
Cd0_2 Pa0_4 3.383762 1_565
Cd0_2 Pa0_3 3.383762 1_555
Cd0_3 Cd0_5 3.110579 1_455
Cd0_3 Cd0_5 3.110579 1_565
Cd0_3 Cd0_7 3.110580 1_555
Cd0_3 Cd0_7 3.110580 1_455
Cd0_3 Pa0_0 3.383760 1_566
Cd0_3 Pa0_1 3.383760 1_565
Cd0_3 Pa0_5 3.383762 1_565
Cd0_3 Pa0_3 3.383762 1_555
Cd0_3 Pa0_4 3.383762 1_566
Cd0_3 Pa0_2 3.383762 1_556
Cd0_4 Cd0_6 3.110580 1_545
Cd0_4 Cd0_6 3.110580 1_555
Cd0_4 Pa0_6 3.383760 1_555
Cd0_4 Pa0_7 3.383760 1_555
Cd0_4 Pa0_4 3.383762 1_555
Cd0_4 Pa0_5 3.383762 1_555
Cd0_4 Pa0_2 3.383762 1_655
Cd0_4 Pa0_3 3.383762 1_655
Cd0_5 Cd0_7 3.110580 1_545
Cd0_5 Cd0_7 3.110580 1_555
Cd0_5 Pa0_7 3.383760 1_555
Cd0_5 Pa0_6 3.383760 1_556
Cd0_5 Pa0_4 3.383762 1_556
Cd0_5 Pa0_5 3.383762 1_555
Cd0_5 Pa0_2 3.383762 1_656
Cd0_5 Pa0_3 3.383762 1_655
Cd0_6 Pa0_4 3.383760 1_565
Cd0_6 Pa0_5 3.383760 1_565
Cd0_6 Pa0_7 3.383762 1_555
Cd0_6 Pa0_1 3.383762 1_665
Cd0_6 Pa0_6 3.383762 1_555
Cd0_6 Pa0_0 3.383762 1_665
Cd0_7 Pa0_4 3.383760 1_566
Cd0_7 Pa0_5 3.383760 1_565
Cd0_7 Pa0_0 3.383762 1_666
Cd0_7 Pa0_7 3.383762 1_555
Cd0_7 Pa0_6 3.383762 1_556
Cd0_7 Pa0_1 3.383762 1_665
