# generated using pymatgen
data_TlIn5Se8
_symmetry_space_group_name_H-M   'P 1'
_cell_length_a   10.37977303
_cell_length_b   10.37977303
_cell_length_c   9.91307320
_cell_angle_alpha   79.26469878
_cell_angle_beta   79.26469878
_cell_angle_gamma   22.60972145
_symmetry_Int_Tables_number   1
_chemical_formula_structural   TlIn5Se8
_chemical_formula_sum   'Tl1 In5 Se8'
_cell_volume   403.13056774
_cell_formula_units_Z   1
loop_
 _symmetry_equiv_pos_site_id
 _symmetry_equiv_pos_as_xyz
  1  'x, y, z'
loop_
 _atom_site_type_symbol
 _atom_site_label
 _atom_site_symmetry_multiplicity
 _atom_site_fract_x
 _atom_site_fract_y
 _atom_site_fract_z
 _atom_site_occupancy
  Tl  Tl0  1  0.50000000  0.50000000  0.50000000  1
  In  In0  1  0.36318800  0.36318800  0.88718200  1
  In  In1  1  0.63681200  0.63681200  0.11281800  1
  In  In2  1  0.72156600  0.72156600  0.66086900  1
  In  In3  1  0.27843400  0.27843400  0.33913100  1
  In  In4  1  0.00000000  0.00000000  0.00000000  1
  Se  Se0  1  0.24212900  0.24212900  0.84434300  1
  Se  Se1  1  0.75787100  0.75787100  0.15565700  1
  Se  Se2  1  0.93795800  0.93795800  0.76662200  1
  Se  Se3  1  0.06204200  0.06204200  0.23337800  1
  Se  Se4  1  0.16350200  0.16350200  0.53302100  1
  Se  Se5  1  0.83649800  0.83649800  0.46697900  1
  Se  Se6  1  0.58736200  0.58736200  0.88499200  1
  Se  Se7  1  0.41263800  0.41263800  0.11500800  1
loop_
_geom_bond_atom_site_label_1
_geom_bond_atom_site_label_2
_geom_bond_distance
_geom_bond_site_symmetry_2
In0 Se0 2.578964 1_555
In0 Se7 2.641528 1_556
In0 Se2 2.682183 1_545
In0 Se2 2.682183 1_455
In1 Se1 2.578964 1_555
In1 Se6 2.641528 1_554
In1 Se3 2.682183 1_565
In1 Se3 2.682183 1_655
In2 Se5 2.731255 1_555
In2 Se4 2.777160 1_655
In2 Se4 2.777160 1_565
In2 Se0 2.812941 1_565
In2 Se0 2.812941 1_655
In2 Se6 3.177072 1_555
In3 Se4 2.731255 1_555
In3 Se5 2.777160 1_455
In3 Se5 2.777160 1_545
In3 Se1 2.812941 1_545
In3 Se1 2.812941 1_455
In3 Se7 3.177072 1_555
In4 Se6 2.798643 1_454
In4 Se6 2.798643 1_544
In4 Se7 2.798643 1_455
In4 Se7 2.798643 1_545
In4 Se3 2.838560 1_555
In4 Se2 2.838560 1_444
Se2 Tl0 3.384192 1_655
Se2 Tl0 3.384192 1_565
Se3 Tl0 3.384192 1_455
Se3 Tl0 3.384192 1_545
