# generated using pymatgen
data_LiDy2Nb2O8
_symmetry_space_group_name_H-M   'P 1'
_cell_length_a   6.23763820
_cell_length_b   6.23763820
_cell_length_c   6.12941924
_cell_angle_alpha   106.94200371
_cell_angle_beta   106.94200371
_cell_angle_gamma   114.41984996
_symmetry_Int_Tables_number   1
_chemical_formula_structural   LiDy2Nb2O8
_chemical_formula_sum   'Li1 Dy2 Nb2 O8'
_cell_volume   183.03412451
_cell_formula_units_Z   1
loop_
 _symmetry_equiv_pos_site_id
 _symmetry_equiv_pos_as_xyz
  1  'x, y, z'
loop_
 _atom_site_type_symbol
 _atom_site_label
 _atom_site_symmetry_multiplicity
 _atom_site_fract_x
 _atom_site_fract_y
 _atom_site_fract_z
 _atom_site_occupancy
  Li  Li0  1  0.36483200  0.63516800  0.25000000  1
  Dy  Dy0  1  0.64307700  0.35692300  0.25000000  1
  Dy  Dy1  1  0.36824800  0.63175200  0.75000000  1
  Nb  Nb0  1  0.88207100  0.11792900  0.75000000  1
  Nb  Nb1  1  0.10401900  0.89598100  0.25000000  1
  O  O0  1  0.66996800  0.10813200  0.91560900  1
  O  O1  1  0.25508800  0.31008900  0.96080900  1
  O  O2  1  0.89186800  0.33003200  0.58439100  1
  O  O3  1  0.68991100  0.74491200  0.53919100  1
  O  O4  1  0.30238200  0.27446400  0.43084100  1
  O  O5  1  0.72553600  0.69761900  0.06915900  1
  O  O6  1  0.11965900  0.65207600  0.38954100  1
  O  O7  1  0.34792400  0.88034100  0.11045900  1
loop_
_geom_bond_atom_site_label_1
_geom_bond_atom_site_label_2
_geom_bond_distance
_geom_bond_site_symmetry_2
Li0 O3 1.942323 1_555
Li0 O1 1.942323 1_554
Li0 O7 1.981045 1_555
Li0 O6 1.981045 1_555
Dy0 O2 2.280180 1_555
Dy0 O0 2.280180 1_554
Dy0 O1 2.387022 1_554
Dy0 O3 2.387022 1_555
Dy0 O6 2.456297 1_655
Dy0 O7 2.456297 1_545
Dy0 O4 2.609743 1_555
Dy0 O5 2.609748 1_555
Dy1 O5 2.279502 1_556
Dy1 O4 2.279505 1_555
Dy1 O7 2.372984 1_556
Dy1 O6 2.372984 1_555
Dy1 O2 2.430387 1_455
Dy1 O0 2.430387 1_565
Dy1 O1 2.658021 1_555
Dy1 O3 2.658021 1_555
Nb0 O0 1.880565 1_555
Nb0 O2 1.880565 1_555
Nb0 O3 1.886599 1_545
Nb0 O1 1.886599 1_655
Nb1 O4 1.895637 1_565
Nb1 O5 1.895637 1_455
Nb1 O6 1.971843 1_555
Nb1 O7 1.971843 1_555
