# generated using pymatgen
data_EuSnRh2
_symmetry_space_group_name_H-M   'P 1'
_cell_length_a   4.73126570
_cell_length_b   4.73126570
_cell_length_c   4.73126570
_cell_angle_alpha   60.00000000
_cell_angle_beta   60.00000000
_cell_angle_gamma   60.00000000
_symmetry_Int_Tables_number   1
_chemical_formula_structural   EuSnRh2
_chemical_formula_sum   'Eu1 Sn1 Rh2'
_cell_volume   74.88882492
_cell_formula_units_Z   1
loop_
 _symmetry_equiv_pos_site_id
 _symmetry_equiv_pos_as_xyz
  1  'x, y, z'
loop_
 _atom_site_type_symbol
 _atom_site_label
 _atom_site_symmetry_multiplicity
 _atom_site_fract_x
 _atom_site_fract_y
 _atom_site_fract_z
 _atom_site_occupancy
  Eu  Eu0  1  0.50000000  0.50000000  0.50000000  1
  Sn  Sn0  1  -0.00000000  0.00000000  0.00000000  1
  Rh  Rh0  1  0.25000000  0.25000000  0.25000000  1
  Rh  Rh1  1  0.75000000  0.75000000  0.75000000  1
loop_
_geom_bond_atom_site_label_1
_geom_bond_atom_site_label_2
_geom_bond_distance
_geom_bond_site_symmetry_2
Eu0 Rh1 2.897297 1_455
Eu0 Rh0 2.897297 1_655
Eu0 Rh0 2.897297 1_565
Eu0 Rh1 2.897297 1_554
Eu0 Rh1 2.897297 1_555
Eu0 Rh1 2.897297 1_545
Eu0 Rh0 2.897297 1_555
Eu0 Rh0 2.897297 1_556
Eu0 Sn0 3.345510 1_566
Eu0 Sn0 3.345510 1_655
Eu0 Sn0 3.345510 1_656
Eu0 Sn0 3.345510 1_665
Eu0 Sn0 3.345510 1_556
Eu0 Sn0 3.345510 1_565
Rh0 Sn0 2.897297 1_655
Rh0 Sn0 2.897297 1_565
Rh0 Sn0 2.897297 1_556
Rh0 Sn0 2.897297 1_555
Rh1 Sn0 2.897297 1_566
Rh1 Sn0 2.897297 1_666
Rh1 Sn0 2.897297 1_656
Rh1 Sn0 2.897297 1_665
