# generated using pymatgen
data_ZnH6(Se2N)2
_symmetry_space_group_name_H-M   'P 1'
_cell_length_a   6.13001008
_cell_length_b   6.75581911
_cell_length_c   12.03140700
_cell_angle_alpha   90.00000000
_cell_angle_beta   90.00000000
_cell_angle_gamma   114.10001840
_symmetry_Int_Tables_number   1
_chemical_formula_structural   ZnH6(Se2N)2
_chemical_formula_sum   'Zn2 H12 Se8 N4'
_cell_volume   454.82826893
_cell_formula_units_Z   2
loop_
 _symmetry_equiv_pos_site_id
 _symmetry_equiv_pos_as_xyz
  1  'x, y, z'
loop_
 _atom_site_type_symbol
 _atom_site_label
 _atom_site_symmetry_multiplicity
 _atom_site_fract_x
 _atom_site_fract_y
 _atom_site_fract_z
 _atom_site_occupancy
  Zn  Zn0  1  0.17146900  0.11079000  0.25579800  1
  Zn  Zn1  1  0.82853100  0.88921000  0.75579800  1
  H  H0  1  0.72793600  0.00185300  0.19056400  1
  H  H1  1  0.27206400  0.99814700  0.69056400  1
  H  H2  1  0.82758100  0.24772700  0.24234900  1
  H  H3  1  0.17241900  0.75227300  0.74234900  1
  H  H4  1  0.73144000  0.03710400  0.32603600  1
  H  H5  1  0.26856000  0.96289600  0.82603600  1
  H  H6  1  0.98659600  0.80712800  0.10382500  1
  H  H7  1  0.01340400  0.19287200  0.60382500  1
  H  H8  1  0.17839000  0.74833800  0.17935000  1
  H  H9  1  0.82161000  0.25166200  0.67935000  1
  H  H10  1  0.27512000  0.93678100  0.08194100  1
  H  H11  1  0.72488000  0.06321900  0.58194100  1
  Se  Se0  1  0.43354000  0.46466800  0.18285000  1
  Se  Se1  1  0.56646000  0.53533200  0.68285000  1
  Se  Se2  1  0.36995100  0.41087400  0.98781600  1
  Se  Se3  1  0.63004900  0.58912600  0.48781600  1
  Se  Se4  1  0.97708700  0.36221100  0.94003100  1
  Se  Se5  1  0.02291300  0.63778900  0.44003100  1
  Se  Se6  1  0.26937300  0.01879600  0.44029700  1
  Se  Se7  1  0.73062700  0.98120400  0.94029700  1
  N  N0  1  0.82505900  0.09726400  0.25433000  1
  N  N1  1  0.17494100  0.90273600  0.75433000  1
  N  N2  1  0.14896800  0.87244700  0.14297300  1
  N  N3  1  0.85103200  0.12755300  0.64297300  1
loop_
_geom_bond_atom_site_label_1
_geom_bond_atom_site_label_2
_geom_bond_distance
_geom_bond_site_symmetry_2
H0 N0 1.022315 1_555
H1 N1 1.022315 1_555
H2 N0 1.020518 1_555
H3 N1 1.020518 1_555
H4 N0 1.023885 1_555
H5 N1 1.023885 1_555
H6 N2 1.024003 1_655
H7 N3 1.024003 1_455
H8 N2 1.024983 1_555
H9 N3 1.024983 1_555
H10 N2 1.025490 1_555
H11 N3 1.025490 1_555
Se0 Se2 2.382131 1_554
Se0 Zn0 2.435198 1_555
Se1 Se3 2.382131 1_555
Se1 Zn1 2.435198 1_555
Se2 Se4 2.364689 1_455
Se3 Se5 2.364689 1_655
Se4 Se7 2.394207 1_545
Se5 Se6 2.394207 1_565
Se6 Zn0 2.445093 1_555
Se7 Zn1 2.445093 1_555
N0 Zn0 2.087926 1_655
N1 Zn1 2.087926 1_455
N2 Zn0 2.067136 1_565
N3 Zn1 2.067136 1_545
