# generated using pymatgen
data_Mg7Si4
_symmetry_space_group_name_H-M   'P 1'
_cell_length_a   5.35363400
_cell_length_b   6.14420847
_cell_length_c   13.56406054
_cell_angle_alpha   84.61341376
_cell_angle_beta   80.35180654
_cell_angle_gamma   86.73088330
_symmetry_Int_Tables_number   1
_chemical_formula_structural   Mg7Si4
_chemical_formula_sum   'Mg14 Si8'
_cell_volume   437.53296464
_cell_formula_units_Z   2
loop_
 _symmetry_equiv_pos_site_id
 _symmetry_equiv_pos_as_xyz
  1  'x, y, z'
loop_
 _atom_site_type_symbol
 _atom_site_label
 _atom_site_symmetry_multiplicity
 _atom_site_fract_x
 _atom_site_fract_y
 _atom_site_fract_z
 _atom_site_occupancy
  Mg  Mg0  1  0.00887300  0.09545700  0.18370600  1
  Mg  Mg1  1  0.21156100  0.58656700  0.24650800  1
  Mg  Mg2  1  0.72202100  0.73770200  0.37550500  1
  Mg  Mg3  1  0.57850900  0.27216700  0.35755700  1
  Mg  Mg4  1  0.04658900  0.53156400  0.99789400  1
  Mg  Mg5  1  0.74839800  0.91928400  0.56422500  1
  Mg  Mg6  1  0.23441800  0.36638200  0.76517600  1
  Mg  Mg7  1  0.72501000  0.40568500  0.59996000  1
  Mg  Mg8  1  0.54173900  0.31258600  0.08148000  1
  Mg  Mg9  1  0.48186500  0.81281100  0.03437200  1
  Mg  Mg10  1  0.99950600  0.04238200  0.95023900  1
  Mg  Mg11  1  0.35882500  0.84743200  0.76644700  1
  Mg  Mg12  1  0.24642700  0.13156200  0.57435400  1
  Mg  Mg13  1  0.25350600  0.63337700  0.53742000  1
  Si  Si0  1  0.52288500  0.15088200  0.88961500  1
  Si  Si1  1  0.50393000  0.97281200  0.22231600  1
  Si  Si2  1  0.73674100  0.61825200  0.18615200  1
  Si  Si3  1  0.89230100  0.68479400  0.72978300  1
  Si  Si4  1  0.61244500  0.53247500  0.88452900  1
  Si  Si5  1  0.17196600  0.94332800  0.38014400  1
  Si  Si6  1  0.03746600  0.32282500  0.41925400  1
  Si  Si7  1  0.86509100  0.07222100  0.74965300  1
loop_
_geom_bond_atom_site_label_1
_geom_bond_atom_site_label_2
_geom_bond_distance
_geom_bond_site_symmetry_2
Mg0 Si1 2.798845 1_445
Mg0 Si1 2.833703 1_545
Mg0 Si5 2.992449 1_545
Mg1 Si6 2.777103 1_555
Mg1 Si2 2.789472 1_455
Mg1 Si2 2.806117 1_555
Mg1 Si1 2.880080 1_555
Mg1 Si5 2.949535 1_555
Mg2 Si2 2.724148 1_555
Mg2 Si5 2.795623 1_655
Mg2 Si1 2.797289 1_555
Mg2 Si6 3.043503 1_655
Mg2 Si5 3.130568 1_555
Mg3 Si6 2.767647 1_655
Mg3 Si1 2.805399 1_545
Mg3 Si6 2.884572 1_555
Mg3 Si5 3.012472 1_545
Mg3 Si2 3.043307 1_555
Mg4 Si2 2.879355 1_456
Mg4 Si4 2.993582 1_455
Mg4 Si4 3.159207 1_555
Mg5 Si3 2.749191 1_555
Mg5 Si7 2.938822 1_565
Mg5 Si5 3.077250 1_655
Mg6 Si3 2.668763 1_455
Mg6 Si0 2.684794 1_555
Mg6 Si7 2.799829 1_455
Mg6 Si4 3.066288 1_555
Mg7 Si6 2.797874 1_655
Mg7 Si3 2.848626 1_555
Mg7 Si7 2.904668 1_555
Mg8 Si1 2.686694 1_545
Mg8 Si2 2.802477 1_555
Mg8 Si4 2.854296 1_554
Mg8 Si0 2.890520 1_554
Mg9 Si0 2.712922 1_564
Mg9 Si4 2.762277 1_554
Mg9 Si2 2.796944 1_555
Mg9 Si1 2.839712 1_555
Mg10 Si0 2.835126 1_555
Mg10 Si0 2.882619 1_655
Mg10 Si7 2.915744 1_555
Mg11 Si4 2.828630 1_555
Mg11 Si3 2.877183 1_455
Mg11 Si0 2.881353 1_565
Mg11 Si7 2.944951 1_465
Mg11 Si3 2.948649 1_555
Mg11 Si7 3.076761 1_565
Mg12 Si6 2.689457 1_555
Mg12 Si7 2.872204 1_455
Mg12 Si5 3.067983 1_545
Mg13 Si5 2.796938 1_555
Mg13 Si6 2.999141 1_555
Mg13 Si3 3.006841 1_455
Si0 Si4 2.412156 1_555
Si0 Si7 2.469728 1_555
Si1 Si2 2.495183 1_555
Si1 Si5 2.542221 1_555
Si3 Si7 2.414138 1_565
Si3 Si4 2.502664 1_555
Si5 Si6 2.479815 1_565
