# generated using pymatgen
data_Na2MgScF7
_symmetry_space_group_name_H-M   'P 1'
_cell_length_a   7.49820343
_cell_length_b   7.49820343
_cell_length_c   7.49820343
_cell_angle_alpha   120.95032011
_cell_angle_beta   118.95162388
_cell_angle_gamma   90.09364213
_symmetry_Int_Tables_number   1
_chemical_formula_structural   Na2MgScF7
_chemical_formula_sum   'Na4 Mg2 Sc2 F14'
_cell_volume   298.20360254
_cell_formula_units_Z   2
loop_
 _symmetry_equiv_pos_site_id
 _symmetry_equiv_pos_as_xyz
  1  'x, y, z'
loop_
 _atom_site_type_symbol
 _atom_site_label
 _atom_site_symmetry_multiplicity
 _atom_site_fract_x
 _atom_site_fract_y
 _atom_site_fract_z
 _atom_site_occupancy
  Na  Na0  1  0.50000000  0.50000000  0.00000000  1
  Na  Na1  1  0.00000000  0.00000000  0.00000000  1
  Na  Na2  1  0.00000000  0.50000000  0.00000000  1
  Na  Na3  1  0.00000000  0.00000000  0.50000000  1
  Mg  Mg0  1  0.50000000  0.50000000  0.50000000  1
  Mg  Mg1  1  0.50000000  0.00000000  0.00000000  1
  Sc  Sc0  1  0.00000000  0.50000000  0.50000000  1
  Sc  Sc1  1  0.50000000  0.00000000  0.50000000  1
  F  F0  1  0.86145600  0.59652800  0.26492800  1
  F  F1  1  0.16840100  0.90347200  0.26492800  1
  F  F2  1  0.18300500  0.82325200  0.77131900  1
  F  F3  1  0.44806800  0.67674800  0.35975300  1
  F  F4  1  0.44806800  0.08831500  0.77131900  1
  F  F5  1  0.18300500  0.41168500  0.35975300  1
  F  F6  1  0.81699500  0.58831500  0.64024700  1
  F  F7  1  0.55193200  0.91168500  0.22868100  1
  F  F8  1  0.55193200  0.32325200  0.64024700  1
  F  F9  1  0.81699500  0.17674800  0.22868100  1
  F  F10  1  0.42050600  0.25000000  0.17050600  1
  F  F11  1  0.13854400  0.40347200  0.73507200  1
  F  F12  1  0.83159900  0.09652800  0.73507200  1
  F  F13  1  0.57949400  0.75000000  0.82949400  1
loop_
_geom_bond_atom_site_label_1
_geom_bond_atom_site_label_2
_geom_bond_distance
_geom_bond_site_symmetry_2
F0 Sc0 2.061994 1_655
F0 Na0 2.262268 1_555
F0 Na2 2.463858 1_655
F0 Na3 2.463858 1_665
F1 Sc1 2.061988 1_565
F1 Na1 2.262269 1_565
F1 Na2 2.463859 1_555
F1 Na3 2.463864 1_565
F2 Mg1 2.013121 1_566
F2 Sc0 2.027576 1_555
F2 Na1 2.554605 1_566
F2 Na3 2.802620 1_565
F3 Mg0 2.013122 1_555
F3 Sc1 2.027576 1_565
F3 Na0 2.554600 1_555
F3 Na2 2.802625 1_555
F4 Mg1 2.013129 1_556
F4 Sc1 2.027569 1_555
F4 Na0 2.554600 1_556
F4 Na3 2.802625 1_555
F5 Mg0 2.013122 1_555
F5 Sc0 2.027576 1_555
F5 Na1 2.554600 1_555
F5 Na2 2.802625 1_555
F6 Mg0 2.013122 1_555
F6 Sc0 2.027576 1_655
F6 Na1 2.554600 1_666
F6 Na2 2.802625 1_656
F7 Mg1 2.013129 1_565
F7 Sc1 2.027569 1_565
F7 Na0 2.554600 1_555
F7 Na3 2.802625 1_665
F8 Mg0 2.013122 1_555
F8 Sc1 2.027576 1_555
F8 Na0 2.554600 1_556
F8 Na2 2.802625 1_656
F9 Mg1 2.013121 1_555
F9 Sc0 2.027576 1_655
F9 Na1 2.554605 1_655
F9 Na3 2.802620 1_655
F10 Mg1 1.944245 1_555
F10 Mg0 1.944245 1_555
F11 Sc0 2.061994 1_555
F11 Na0 2.262268 1_556
F11 Na3 2.463858 1_555
F11 Na2 2.463858 1_556
F12 Sc1 2.061988 1_555
F12 Na1 2.262269 1_656
F12 Na2 2.463859 1_656
F12 Na3 2.463864 1_655
F13 Mg0 1.944245 1_555
F13 Mg1 1.944245 1_566
