# generated using pymatgen
data_NdFeGe
_symmetry_space_group_name_H-M   'P 1'
_cell_length_a   4.20569773
_cell_length_b   4.20569773
_cell_length_c   4.12428900
_cell_angle_alpha   90.00000000
_cell_angle_beta   90.00000000
_cell_angle_gamma   119.99999580
_symmetry_Int_Tables_number   1
_chemical_formula_structural   NdFeGe
_chemical_formula_sum   'Nd1 Fe1 Ge1'
_cell_volume   63.17654225
_cell_formula_units_Z   1
loop_
 _symmetry_equiv_pos_site_id
 _symmetry_equiv_pos_as_xyz
  1  'x, y, z'
loop_
 _atom_site_type_symbol
 _atom_site_label
 _atom_site_symmetry_multiplicity
 _atom_site_fract_x
 _atom_site_fract_y
 _atom_site_fract_z
 _atom_site_occupancy
  Nd  Nd0  1  0.66666700  0.33333300  0.00000000  1
  Fe  Fe0  1  0.00000000  0.00000000  0.50000000  1
  Ge  Ge0  1  0.33333300  0.66666700  0.50000000  1
loop_
_geom_bond_atom_site_label_1
_geom_bond_atom_site_label_2
_geom_bond_distance
_geom_bond_site_symmetry_2
Fe0 Ge0 2.428158 1_545
Fe0 Ge0 2.428162 1_555
Fe0 Ge0 2.428162 1_445
Fe0 Nd0 3.185654 1_456
Fe0 Nd0 3.185654 1_455
Fe0 Nd0 3.185657 1_446
Fe0 Nd0 3.185657 1_555
Fe0 Nd0 3.185657 1_556
Fe0 Nd0 3.185657 1_445
Ge0 Nd0 3.185654 1_455
Ge0 Nd0 3.185654 1_565
Ge0 Nd0 3.185654 1_566
Ge0 Nd0 3.185654 1_456
Ge0 Nd0 3.185660 1_555
Ge0 Nd0 3.185660 1_556
