# generated using pymatgen
data_Sr9La5I33
_symmetry_space_group_name_H-M   'P 1'
_cell_length_a   13.05535573
_cell_length_b   12.96318788
_cell_length_c   24.54099767
_cell_angle_alpha   100.36387737
_cell_angle_beta   81.05095302
_cell_angle_gamma   70.46009253
_symmetry_Int_Tables_number   1
_chemical_formula_structural   Sr9La5I33
_chemical_formula_sum   'Sr18 La10 I66'
_cell_volume   3744.54334244
_cell_formula_units_Z   2
loop_
 _symmetry_equiv_pos_site_id
 _symmetry_equiv_pos_as_xyz
  1  'x, y, z'
loop_
 _atom_site_type_symbol
 _atom_site_label
 _atom_site_symmetry_multiplicity
 _atom_site_fract_x
 _atom_site_fract_y
 _atom_site_fract_z
 _atom_site_occupancy
  Sr  Sr0  1  0.75169053  0.91456572  0.92559104  1
  Sr  Sr1  1  0.91141475  0.31628070  0.96658046  1
  Sr  Sr2  1  0.97742789  0.47633852  0.19349440  1
  Sr  Sr3  1  0.73914565  0.86379171  0.33665587  1
  Sr  Sr4  1  0.85945708  0.24260986  0.38065490  1
  Sr  Sr5  1  0.60360283  0.68084763  0.54412373  1
  Sr  Sr6  1  0.74944020  0.07450165  0.56469578  1
  Sr  Sr7  1  0.64699867  0.76436859  0.12043868  1
  Sr  Sr8  1  0.78039116  0.13650786  0.15649945  1
  Sr  Sr9  1  0.21960884  0.86349214  0.84350055  1
  Sr  Sr10  1  0.35300133  0.23563141  0.87956132  1
  Sr  Sr11  1  0.25055980  0.92549835  0.43530422  1
  Sr  Sr12  1  0.39639717  0.31915237  0.45587627  1
  Sr  Sr13  1  0.14054292  0.75739014  0.61934510  1
  Sr  Sr14  1  0.26085435  0.13620829  0.66334413  1
  Sr  Sr15  1  0.02257211  0.52366148  0.80650560  1
  Sr  Sr16  1  0.08858525  0.68371930  0.03341954  1
  Sr  Sr17  1  0.24830947  0.08543428  0.07440896  1
  La  La0  1  0.95324545  0.37919316  0.58574690  1
  La  La1  1  0.86274180  0.17856013  0.76306337  1
  La  La2  1  0.64495942  0.85980817  0.73442427  1
  La  La3  1  0.54332504  0.62873400  0.92829015  1
  La  La4  1  0.46077788  0.46462551  0.68523459  1
  La  La5  1  0.53922212  0.53537449  0.31476541  1
  La  La6  1  0.45667496  0.37126600  0.07170985  1
  La  La7  1  0.35504058  0.14019183  0.26557573  1
  La  La8  1  0.13725820  0.82143987  0.23693663  1
  La  La9  1  0.04675455  0.62080684  0.41425310  1
  I  I0  1  0.86153587  0.76742988  0.78648316  1
  I  I1  1  0.85374548  0.94256138  0.67250550  1
  I  I2  1  0.79536471  0.62577518  0.91729446  1
  I  I3  1  0.95072220  0.73842438  0.19364404  1
  I  I4  1  0.99704736  0.15347770  0.63485097  1
  I  I5  1  0.92726262  0.05735846  0.87447490  1
  I  I6  1  0.81142062  0.65515301  0.62589851  1
  I  I7  1  0.81594568  0.44247590  0.73707712  1
  I  I8  1  0.77758791  0.81123627  0.47938785  1
  I  I9  1  0.88273586  0.58865946  0.33475061  1
  I  I10  1  0.88121946  0.47377831  0.47005366  1
  I  I11  1  0.95411686  0.15226450  0.48667903  1
  I  I12  1  0.71039104  0.35790415  0.88254100  1
  I  I13  1  0.81874850  0.88749943  0.05888252  1
  I  I14  1  0.54303704  0.82333009  0.85736154  1
  I  I15  1  0.89338673  0.55599783  0.07134404  1
  I  I16  1  0.56510208  0.95324828  0.62669626  1
  I  I17  1  0.95846860  0.24744248  0.09432658  1
  I  I18  1  0.69463524  0.39591187  0.58704008  1
  I  I19  1  0.62927931  0.97819694  0.22337032  1
  I  I20  1  0.79740827  0.34703943  0.26412743  1
  I  I21  1  0.68163739  0.65989635  0.23732773  1
  I  I22  1  0.87467761  0.03788367  0.27526848  1
  I  I23  1  0.64494507  0.24383028  0.70550614  1
  I  I24  1  0.49760650  0.70742508  0.68952804  1
  I  I25  1  0.64038164  0.08269595  0.82462864  1
  I  I26  1  0.53817116  0.75349669  0.40929912  1
  I  I27  1  0.43622525  0.57499510  0.82070320  1
  I  I28  1  0.60806778  0.44663258  0.42755974  1
  I  I29  1  0.28128530  0.80297570  0.97260663  1
  I  I30  1  0.39032143  0.46440899  0.95976047  1
  I  I31  1  0.67761070  0.11996858  0.43633936  1
  I  I32  1  0.46799433  0.14147474  0.98058136  1
  I  I33  1  0.53200567  0.85852526  0.01941864  1
  I  I34  1  0.32238930  0.88003142  0.56366064  1
  I  I35  1  0.60967857  0.53559101  0.04023953  1
  I  I36  1  0.71871470  0.19702430  0.02739337  1
  I  I37  1  0.39193222  0.55336742  0.57244026  1
  I  I38  1  0.56377475  0.42500490  0.17929680  1
  I  I39  1  0.46182884  0.24650331  0.59070088  1
  I  I40  1  0.35961836  0.91730405  0.17537136  1
  I  I41  1  0.50239350  0.29257492  0.31047196  1
  I  I42  1  0.35505493  0.75616972  0.29449386  1
  I  I43  1  0.12532239  0.96211633  0.72473152  1
  I  I44  1  0.31836261  0.34010365  0.76267227  1
  I  I45  1  0.20259173  0.65296057  0.73587257  1
  I  I46  1  0.37072069  0.02180306  0.77662968  1
  I  I47  1  0.30536476  0.60408813  0.41295992  1
  I  I48  1  0.04153140  0.75255752  0.90567342  1
  I  I49  1  0.43489792  0.04675172  0.37330374  1
  I  I50  1  0.10661327  0.44400217  0.92865596  1
  I  I51  1  0.45696296  0.17666991  0.14263846  1
  I  I52  1  0.18125150  0.11250057  0.94111748  1
  I  I53  1  0.28960896  0.64209585  0.11745900  1
  I  I54  1  0.04588314  0.84773550  0.51332097  1
  I  I55  1  0.11878054  0.52622169  0.52994634  1
  I  I56  1  0.11726414  0.41134054  0.66524939  1
  I  I57  1  0.22241209  0.18876373  0.52061215  1
  I  I58  1  0.18405432  0.55752410  0.26292288  1
  I  I59  1  0.18857938  0.34484699  0.37410149  1
  I  I60  1  0.07273738  0.94264154  0.12552510  1
  I  I61  1  0.00295264  0.84652230  0.36514903  1
  I  I62  1  0.04927780  0.26157562  0.80635596  1
  I  I63  1  0.20463529  0.37422482  0.08270554  1
  I  I64  1  0.14625452  0.05743862  0.32749450  1
  I  I65  1  0.13846413  0.23257012  0.21351684  1
loop_
_geom_bond_atom_site_label_1
_geom_bond_atom_site_label_2
_geom_bond_distance
_geom_bond_site_symmetry_2
I0 La2 3.235777 1_555
I0 Sr15 3.329140 1_655
I0 Sr0 3.413692 1_555
I1 La2 3.484759 1_555
I1 La1 3.491044 1_565
I1 Sr13 3.581166 1_655
I1 Sr6 3.601500 1_565
I2 La3 3.246086 1_555
I2 Sr15 3.393037 1_655
I2 Sr0 3.555730 1_555
I3 La8 3.219347 1_655
I3 Sr2 3.296530 1_555
I3 Sr3 3.810187 1_555
I3 Sr16 3.891616 1_655
I4 La1 3.257989 1_555
I4 La0 3.271757 1_555
I4 Sr14 3.562396 1_655
I5 La1 3.468501 1_555
I5 Sr0 3.610134 1_545
I5 Sr1 3.616366 1_555
I5 Sr9 3.668043 1_645
I6 La2 3.264175 1_555
I6 La0 3.306031 1_555
I6 Sr5 3.581812 1_555
I7 La1 3.463026 1_555
I7 La0 3.677965 1_555
I7 Sr15 3.737845 1_655
I8 La9 3.468078 1_655
I8 Sr6 3.537789 1_565
I8 Sr5 3.598887 1_555
I8 Sr3 3.763291 1_555
I9 La9 3.189008 1_655
I9 Sr2 3.363334 1_555
I9 Sr3 3.417198 1_555
I10 La0 3.429390 1_555
I10 Sr4 3.503158 1_555
I10 La9 3.598896 1_655
I10 Sr5 3.651381 1_555
I11 Sr4 3.285967 1_555
I11 La0 3.458386 1_555
I11 Sr6 3.567459 1_555
I11 Sr11 3.840223 1_645
I12 La1 3.255468 1_555
I12 La3 3.322836 1_555
I12 Sr1 3.545340 1_555
I13 Sr7 3.473524 1_555
I13 Sr8 3.488920 1_565
I13 Sr16 3.503589 1_655
I13 Sr0 3.562036 1_554
I14 La2 3.283557 1_555
I14 La3 3.311932 1_555
I14 Sr0 3.805854 1_555
I15 Sr7 3.302435 1_555
I15 Sr2 3.554638 1_555
I15 Sr16 3.569411 1_655
I15 Sr1 3.573503 1_554
I16 La2 3.272390 1_555
I16 Sr5 3.570641 1_555
I16 Sr6 3.581783 1_565
I16 Sr14 3.745753 1_565
I17 Sr8 3.423937 1_555
I17 Sr1 3.498720 1_554
I17 Sr17 3.564734 1_655
I17 Sr2 3.587334 1_555
I18 La0 3.304807 1_555
I18 La4 3.322869 1_555
I18 Sr5 3.875254 1_555
I18 Sr6 3.903090 1_555
I19 Sr7 3.314787 1_555
I19 La7 3.366824 1_565
I19 Sr3 3.645152 1_555
I19 Sr8 3.702632 1_565
I20 La5 3.311637 1_555
I20 Sr4 3.470842 1_555
I20 Sr8 3.531099 1_555
I20 Sr2 3.708186 1_555
I21 Sr7 3.414530 1_555
I21 La5 3.418501 1_555
I21 Sr3 3.615309 1_555
I21 Sr2 3.656713 1_555
I22 Sr4 3.284716 1_555
I22 La8 3.481692 1_645
I22 Sr8 3.612414 1_555
I22 Sr3 3.682201 1_545
I23 La4 3.240640 1_555
I23 La1 3.296408 1_555
I23 Sr6 3.524447 1_555
I24 La4 3.325284 1_555
I24 La2 3.351892 1_555
I24 Sr5 3.531200 1_555
I25 La2 3.285474 1_545
I25 Sr10 3.509050 1_555
I25 Sr0 3.734378 1_545
I25 La1 3.738796 1_555
I26 La5 3.313819 1_555
I26 Sr11 3.552457 1_555
I26 Sr5 3.745220 1_555
I26 Sr3 3.752065 1_555
I27 La3 3.248044 1_555
I27 La4 3.294326 1_555
I27 Sr9 3.738611 1_555
I28 Sr4 3.318765 1_555
I28 La5 3.319884 1_555
I28 Sr12 3.704179 1_555
I28 Sr5 3.756269 1_555
I29 La3 3.282952 1_555
I29 Sr9 3.545131 1_555
I29 Sr16 3.634550 1_556
I29 Sr17 3.892763 1_566
I30 La6 3.315197 1_556
I30 Sr10 3.474357 1_555
I30 La3 3.475987 1_555
I30 Sr16 3.913064 1_556
I31 Sr4 3.511170 1_555
I31 Sr3 3.512705 1_545
I31 Sr6 3.516608 1_555
I31 Sr12 3.611292 1_555
I32 Sr10 3.303122 1_555
I32 La6 3.332038 1_556
I32 Sr0 3.730998 1_545
I32 Sr17 3.741203 1_556
I33 Sr7 3.303122 1_555
I33 La3 3.332038 1_554
I33 Sr17 3.730998 1_565
I33 Sr0 3.741203 1_554
I34 Sr13 3.511170 1_555
I34 Sr14 3.512705 1_565
I34 Sr11 3.516608 1_555
I34 Sr5 3.611292 1_555
I35 La3 3.315197 1_554
I35 Sr7 3.474357 1_555
I35 La6 3.475987 1_555
I35 Sr1 3.913064 1_554
I36 La6 3.282952 1_555
I36 Sr8 3.545131 1_555
I36 Sr1 3.634550 1_554
I36 Sr0 3.892763 1_544
I37 Sr13 3.318765 1_555
I37 La4 3.319884 1_555
I37 Sr5 3.704179 1_555
I37 Sr12 3.756269 1_555
I38 La6 3.248044 1_555
I38 La5 3.294326 1_555
I38 Sr8 3.738611 1_555
I39 La4 3.313819 1_555
I39 Sr6 3.552457 1_555
I39 Sr12 3.745220 1_555
I39 Sr14 3.752065 1_555
I40 La7 3.285474 1_565
I40 Sr7 3.509050 1_555
I40 Sr17 3.734378 1_565
I40 La8 3.738796 1_555
I41 La5 3.325284 1_555
I41 La7 3.351892 1_555
I41 Sr12 3.531200 1_555
I42 La5 3.240640 1_555
I42 La8 3.296408 1_555
I42 Sr11 3.524447 1_555
I43 Sr13 3.284716 1_555
I43 La1 3.481692 1_465
I43 Sr9 3.612414 1_555
I43 Sr14 3.682201 1_565
I44 Sr10 3.414530 1_555
I44 La4 3.418501 1_555
I44 Sr14 3.615309 1_555
I44 Sr15 3.656713 1_555
I45 La4 3.311637 1_555
I45 Sr13 3.470842 1_555
I45 Sr9 3.531099 1_555
I45 Sr15 3.708186 1_555
I46 Sr10 3.314787 1_555
I46 La2 3.366824 1_545
I46 Sr14 3.645152 1_555
I46 Sr9 3.702632 1_545
I47 La9 3.304807 1_555
I47 La5 3.322869 1_555
I47 Sr12 3.875254 1_555
I47 Sr11 3.903090 1_555
I48 Sr9 3.423937 1_555
I48 Sr16 3.498720 1_556
I48 Sr0 3.564734 1_455
I48 Sr15 3.587334 1_555
I49 La7 3.272390 1_555
I49 Sr12 3.570641 1_555
I49 Sr11 3.581783 1_545
I49 Sr3 3.745753 1_545
I50 Sr10 3.302435 1_555
I50 Sr15 3.554638 1_555
I50 Sr1 3.569411 1_455
I50 Sr16 3.573503 1_556
I51 La7 3.283557 1_555
I51 La6 3.311932 1_555
I51 Sr17 3.805854 1_555
I52 Sr10 3.473524 1_555
I52 Sr9 3.488920 1_545
I52 Sr1 3.503589 1_455
I52 Sr17 3.562036 1_556
I53 La8 3.255468 1_555
I53 La6 3.322836 1_555
I53 Sr16 3.545340 1_555
I54 Sr13 3.285967 1_555
I54 La9 3.458386 1_555
I54 Sr11 3.567459 1_555
I54 Sr6 3.840223 1_465
I55 La9 3.429390 1_555
I55 Sr13 3.503158 1_555
I55 La0 3.598896 1_455
I55 Sr12 3.651381 1_555
I56 La0 3.189008 1_455
I56 Sr15 3.363334 1_555
I56 Sr14 3.417198 1_555
I57 La0 3.468078 1_455
I57 Sr11 3.537789 1_545
I57 Sr12 3.598887 1_555
I57 Sr14 3.763291 1_555
I58 La8 3.463026 1_555
I58 La9 3.677965 1_555
I58 Sr2 3.737845 1_455
I59 La7 3.264175 1_555
I59 La9 3.306031 1_555
I59 Sr12 3.581812 1_555
I60 La8 3.468501 1_555
I60 Sr17 3.610134 1_565
I60 Sr16 3.616366 1_555
I60 Sr8 3.668043 1_465
I61 La8 3.257989 1_555
I61 La9 3.271757 1_555
I61 Sr3 3.562396 1_455
I62 La1 3.219347 1_455
I62 Sr15 3.296530 1_555
I62 Sr14 3.810187 1_555
I62 Sr1 3.891616 1_455
I63 La6 3.246086 1_555
I63 Sr2 3.393037 1_455
I63 Sr17 3.555730 1_555
I64 La7 3.484759 1_555
I64 La8 3.491044 1_545
I64 Sr4 3.581166 1_455
I64 Sr11 3.601500 1_545
I65 La7 3.235777 1_555
I65 Sr2 3.329140 1_455
I65 Sr17 3.413692 1_555
