# generated using pymatgen
data_K2CuBiI6
_symmetry_space_group_name_H-M   'P 1'
_cell_length_a   8.38670786
_cell_length_b   8.38670786
_cell_length_c   8.38670786
_cell_angle_alpha   60.00000000
_cell_angle_beta   60.00000000
_cell_angle_gamma   60.00000000
_symmetry_Int_Tables_number   1
_chemical_formula_structural   K2CuBiI6
_chemical_formula_sum   'K2 Cu1 Bi1 I6'
_cell_volume   417.11859200
_cell_formula_units_Z   1
loop_
 _symmetry_equiv_pos_site_id
 _symmetry_equiv_pos_as_xyz
  1  'x, y, z'
loop_
 _atom_site_type_symbol
 _atom_site_label
 _atom_site_symmetry_multiplicity
 _atom_site_fract_x
 _atom_site_fract_y
 _atom_site_fract_z
 _atom_site_occupancy
  K  K0  1  0.75000000  0.75000000  0.75000000  1
  K  K1  1  0.25000000  0.25000000  0.25000000  1
  Cu  Cu0  1  0.50000000  0.50000000  0.50000000  1
  Bi  Bi0  1  0.00000000  0.00000000  0.00000000  1
  I  I0  1  0.73934100  0.26065900  0.26065900  1
  I  I1  1  0.26065900  0.26065900  0.73934100  1
  I  I2  1  0.26065900  0.73934100  0.73934100  1
  I  I3  1  0.26065900  0.73934100  0.26065900  1
  I  I4  1  0.73934100  0.26065900  0.73934100  1
  I  I5  1  0.73934100  0.73934100  0.26065900  1
loop_
_geom_bond_atom_site_label_1
_geom_bond_atom_site_label_2
_geom_bond_distance
_geom_bond_site_symmetry_2
Cu0 I2 2.838727 1_555
Cu0 I3 2.838727 1_555
Cu0 I0 2.838727 1_555
Cu0 I1 2.838727 1_555
Cu0 I5 2.838727 1_555
Cu0 I4 2.838727 1_555
Bi0 I5 3.091571 1_445
Bi0 I2 3.091571 1_544
Bi0 I4 3.091571 1_454
Bi0 I1 3.091571 1_554
Bi0 I3 3.091571 1_545
Bi0 I0 3.091571 1_455
I0 K0 4.195259 1_545
I0 K1 4.195259 1_655
I0 K0 4.195259 1_554
I0 K1 4.195259 1_555
I1 K0 4.195259 1_545
I1 K1 4.195259 1_556
I1 K0 4.195259 1_455
I1 K1 4.195259 1_555
I2 K1 4.195259 1_556
I2 K1 4.195259 1_565
I2 K0 4.195259 1_455
I2 K0 4.195259 1_555
I3 K0 4.195259 1_554
I3 K1 4.195259 1_565
I3 K0 4.195259 1_455
I3 K1 4.195259 1_555
I4 K0 4.195259 1_545
I4 K1 4.195259 1_655
I4 K1 4.195259 1_556
I4 K0 4.195259 1_555
I5 K1 4.195259 1_655
I5 K0 4.195259 1_554
I5 K1 4.195259 1_565
I5 K0 4.195259 1_555
