# generated using pymatgen
data_BaTiCu4P4O17
_symmetry_space_group_name_H-M   'P 1'
_cell_length_a   9.71367200
_cell_length_b   9.71367200
_cell_length_c   7.24858100
_cell_angle_alpha   90.00000000
_cell_angle_beta   90.00000000
_cell_angle_gamma   90.00000000
_symmetry_Int_Tables_number   1
_chemical_formula_structural   BaTiCu4P4O17
_chemical_formula_sum   'Ba2 Ti2 Cu8 P8 O34'
_cell_volume   683.94293165
_cell_formula_units_Z   2
loop_
 _symmetry_equiv_pos_site_id
 _symmetry_equiv_pos_as_xyz
  1  'x, y, z'
loop_
 _atom_site_type_symbol
 _atom_site_label
 _atom_site_symmetry_multiplicity
 _atom_site_fract_x
 _atom_site_fract_y
 _atom_site_fract_z
 _atom_site_occupancy
  Ba  Ba0  1  0.50000000  0.50000000  0.00000000  1
  Ba  Ba1  1  0.00000000  0.00000000  0.00000000  1
  Ti  Ti0  1  0.00000000  0.50000000  0.97529500  1
  Ti  Ti1  1  0.50000000  0.00000000  0.02470500  1
  Cu  Cu0  1  0.76762800  0.51202400  0.40458400  1
  Cu  Cu1  1  0.23237200  0.48797600  0.40458400  1
  Cu  Cu2  1  0.73237200  0.01202400  0.59541600  1
  Cu  Cu3  1  0.26762800  0.98797600  0.59541600  1
  Cu  Cu4  1  0.51202400  0.76762800  0.59541600  1
  Cu  Cu5  1  0.48797600  0.23237200  0.59541600  1
  Cu  Cu6  1  0.01202400  0.73237200  0.40458400  1
  Cu  Cu7  1  0.98797600  0.26762800  0.40458400  1
  P  P0  1  0.78076700  0.30715100  0.73761500  1
  P  P1  1  0.21923300  0.69284900  0.73761500  1
  P  P2  1  0.71923300  0.80715100  0.26238500  1
  P  P3  1  0.28076700  0.19284900  0.26238500  1
  P  P4  1  0.30715100  0.78076700  0.26238500  1
  P  P5  1  0.69284900  0.21923300  0.26238500  1
  P  P6  1  0.80715100  0.71923300  0.73761500  1
  P  P7  1  0.19284900  0.28076700  0.73761500  1
  O  O0  1  0.84899600  0.36438600  0.55470100  1
  O  O1  1  0.15100400  0.63561400  0.55470100  1
  O  O2  1  0.65100400  0.86438600  0.44529900  1
  O  O3  1  0.34899600  0.13561400  0.44529900  1
  O  O4  1  0.36438600  0.84899600  0.44529900  1
  O  O5  1  0.63561400  0.15100400  0.44529900  1
  O  O6  1  0.86438600  0.65100400  0.55470100  1
  O  O7  1  0.13561400  0.34899600  0.55470100  1
  O  O8  1  0.62453700  0.33771000  0.73183700  1
  O  O9  1  0.37546300  0.66229000  0.73183700  1
  O  O10  1  0.87546300  0.83771000  0.26816300  1
  O  O11  1  0.12453700  0.16229000  0.26816300  1
  O  O12  1  0.33771000  0.62453700  0.26816300  1
  O  O13  1  0.66229000  0.37546300  0.26816300  1
  O  O14  1  0.83771000  0.87546300  0.73183700  1
  O  O15  1  0.16229000  0.12453700  0.73183700  1
  O  O16  1  0.83853700  0.38682700  0.90403000  1
  O  O17  1  0.16146300  0.61317300  0.90403000  1
  O  O18  1  0.66146300  0.88682700  0.09597000  1
  O  O19  1  0.33853700  0.11317300  0.09597000  1
  O  O20  1  0.38682700  0.83853700  0.09597000  1
  O  O21  1  0.61317300  0.16146300  0.09597000  1
  O  O22  1  0.88682700  0.66146300  0.90403000  1
  O  O23  1  0.11317300  0.33853700  0.90403000  1
  O  O24  1  0.00000000  0.50000000  0.21029300  1
  O  O25  1  0.50000000  0.00000000  0.78970700  1
  O  O26  1  0.81800900  0.15297300  0.75197200  1
  O  O27  1  0.18199100  0.84702700  0.75197200  1
  O  O28  1  0.68199100  0.65297300  0.24802800  1
  O  O29  1  0.31800900  0.34702700  0.24802800  1
  O  O30  1  0.15297300  0.81800900  0.24802800  1
  O  O31  1  0.84702700  0.18199100  0.24802800  1
  O  O32  1  0.65297300  0.68199100  0.75197200  1
  O  O33  1  0.34702700  0.31800900  0.75197200  1
loop_
_geom_bond_atom_site_label_1
_geom_bond_atom_site_label_2
_geom_bond_distance
_geom_bond_site_symmetry_2
Ba0 O12 2.779731 1_555
Ba0 O8 2.779731 1_554
Ba0 O9 2.779731 1_554
Ba0 O13 2.779731 1_555
Ba0 O32 2.926666 1_554
Ba0 O29 2.926666 1_555
Ba0 O33 2.926666 1_554
Ba0 O28 2.926666 1_555
Ba1 O15 2.779731 1_554
Ba1 O11 2.779731 1_555
Ba1 O10 2.779731 1_445
Ba1 O14 2.779731 1_444
Ba1 O26 2.926666 1_454
Ba1 O30 2.926666 1_545
Ba1 O27 2.926666 1_544
Ba1 O31 2.926666 1_455
Cu0 O13 1.945365 1_555
Cu0 O28 1.963234 1_555
Cu0 O0 1.966063 1_555
Cu0 O6 1.972288 1_555
Cu1 O12 1.945365 1_555
Cu1 O29 1.963234 1_555
Cu1 O1 1.966063 1_555
Cu1 O7 1.972288 1_555
Cu2 O14 1.945365 1_545
Cu2 O26 1.963234 1_555
Cu2 O2 1.966063 1_545
Cu2 O5 1.972288 1_555
Cu3 O15 1.945365 1_565
Cu3 O27 1.963234 1_555
Cu3 O3 1.966063 1_565
Cu3 O4 1.972288 1_555
Cu4 O9 1.945365 1_555
Cu4 O32 1.963234 1_555
Cu4 O4 1.966063 1_555
Cu4 O2 1.972288 1_555
Cu5 O8 1.945365 1_555
Cu5 O33 1.963234 1_555
Cu5 O5 1.966063 1_555
Cu5 O3 1.972288 1_555
Cu6 O10 1.945365 1_455
Cu6 O30 1.963234 1_555
Cu6 O6 1.966063 1_455
Cu6 O1 1.972288 1_555
Cu7 O11 1.945365 1_655
Cu7 O31 1.963234 1_555
Cu7 O7 1.966063 1_655
Cu7 O0 1.972288 1_555
O0 P0 1.583117 1_555
O1 P1 1.583117 1_555
O2 P2 1.583117 1_555
O3 P3 1.583117 1_555
O4 P4 1.583117 1_555
O5 P5 1.583117 1_555
O6 P6 1.583117 1_555
O7 P7 1.583117 1_555
O8 P0 1.546893 1_555
O9 P1 1.546893 1_555
O10 P2 1.546893 1_555
O11 P3 1.546893 1_555
O12 P4 1.546893 1_555
O13 P5 1.546893 1_555
O14 P6 1.546893 1_555
O15 P7 1.546893 1_555
O16 P0 1.539151 1_555
O16 Ti0 1.983743 1_655
O17 P1 1.539151 1_555
O17 Ti0 1.983743 1_555
O18 P2 1.539151 1_555
O18 Ti1 1.983743 1_565
O19 P3 1.539151 1_555
O19 Ti1 1.983743 1_555
O20 P4 1.539151 1_555
O20 Ti1 1.983743 1_565
O21 P5 1.539151 1_555
O21 Ti1 1.983743 1_555
O22 P6 1.539151 1_555
O22 Ti0 1.983743 1_655
O23 P7 1.539151 1_555
O23 Ti0 1.983743 1_555
O24 Ti0 1.703402 1_554
O25 Ti1 1.703402 1_556
O26 P0 1.544217 1_555
O27 P1 1.544217 1_555
O28 P2 1.544217 1_555
O29 P3 1.544217 1_555
O30 P4 1.544217 1_555
O31 P5 1.544217 1_555
O32 P6 1.544217 1_555
O33 P7 1.544217 1_555
