# generated using pymatgen
data_BaYMnCoO5
_symmetry_space_group_name_H-M   'P 1'
_cell_length_a   3.92057905
_cell_length_b   3.92058934
_cell_length_c   15.64510347
_cell_angle_alpha   89.95282150
_cell_angle_beta   89.98264365
_cell_angle_gamma   89.99906101
_symmetry_Int_Tables_number   1
_chemical_formula_structural   BaYMnCoO5
_chemical_formula_sum   'Ba2 Y2 Mn2 Co2 O10'
_cell_volume   240.48048646
_cell_formula_units_Z   2
loop_
 _symmetry_equiv_pos_site_id
 _symmetry_equiv_pos_as_xyz
  1  'x, y, z'
loop_
 _atom_site_type_symbol
 _atom_site_label
 _atom_site_symmetry_multiplicity
 _atom_site_fract_x
 _atom_site_fract_y
 _atom_site_fract_z
 _atom_site_occupancy
  Ba  Ba0  1  0.99977900  0.00049200  0.49199600  1
  Ba  Ba1  1  0.00039600  0.00010700  0.99201700  1
  Y  Y0  1  0.00004500  0.99987800  0.25268500  1
  Y  Y1  1  0.99985500  0.00002200  0.75267200  1
  Mn  Mn0  1  0.49994400  0.49992000  0.63194000  1
  Mn  Mn1  1  0.50033100  0.49941700  0.13199000  1
  Co  Co0  1  0.50048800  0.50009800  0.86619600  1
  Co  Co1  1  0.49973100  0.50060400  0.36622100  1
  O  O0  1  0.49991300  0.50009700  0.00219300  1
  O  O1  1  0.50003400  0.50004100  0.50217600  1
  O  O2  1  0.00032700  0.49990100  0.34226800  1
  O  O3  1  0.99933200  0.49999900  0.84227000  1
  O  O4  1  0.50002700  0.99941700  0.34229200  1
  O  O5  1  0.49983600  0.00007000  0.84224700  1
  O  O6  1  0.00000600  0.50011300  0.16022200  1
  O  O7  1  0.99995300  0.50012100  0.66019900  1
  O  O8  1  0.49999000  0.99978400  0.16022200  1
  O  O9  1  0.50001200  0.99992000  0.66019700  1
loop_
_geom_bond_atom_site_label_1
_geom_bond_atom_site_label_2
_geom_bond_distance
_geom_bond_site_symmetry_2
Ba0 O1 2.774925 1_555
Ba0 O1 2.776450 1_655
Ba0 O1 2.777282 1_545
Ba0 O1 2.778716 1_645
Ba0 O2 3.051799 1_655
Ba0 O4 3.054068 1_545
Ba0 O4 3.054406 1_645
Ba0 O2 3.057249 1_645
Ba0 O9 3.280386 1_545
Ba0 O7 3.281011 1_545
Ba0 O7 3.281862 1_555
Ba0 O9 3.282430 1_645
Ba1 O0 2.775449 1_546
Ba1 O0 2.775624 1_556
Ba1 O0 2.778100 1_446
Ba1 O0 2.778184 1_456
Ba1 O5 3.053160 1_555
Ba1 O3 3.053245 1_455
Ba1 O3 3.056264 1_445
Ba1 O5 3.056888 1_455
Ba1 O6 3.280153 1_546
Ba1 O8 3.280984 1_546
Ba1 O8 3.281933 1_446
Ba1 O6 3.282770 1_556
Mn0 O9 2.009171 1_545
Mn0 O7 2.009363 1_455
Mn0 O7 2.009693 1_555
Mn0 O9 2.009881 1_555
Mn0 O1 2.030171 1_555
Mn1 O8 2.007682 1_545
Mn1 O6 2.008324 1_655
Mn1 O6 2.010549 1_555
Mn1 O8 2.011198 1_555
Mn1 O0 2.030688 1_555
Co0 O3 1.991146 1_555
Co0 O5 1.995372 1_565
Co0 O5 1.996194 1_555
Co0 O3 2.000272 1_455
Co0 O0 2.127688 1_556
Co1 O4 1.990849 1_555
Co1 O2 1.993607 1_555
Co1 O2 1.997974 1_655
Co1 O4 2.000597 1_545
Co1 O1 2.127030 1_555
O2 Y0 2.408772 1_555
O2 Y0 2.410796 1_545
O3 Y1 2.409055 1_565
O3 Y1 2.410786 1_555
O4 Y0 2.409709 1_655
O4 Y0 2.410285 1_555
O5 Y1 2.409422 1_555
O5 Y1 2.409991 1_455
O6 Y0 2.436048 1_545
O6 Y0 2.436482 1_555
O7 Y1 2.435711 1_555
O7 Y1 2.437004 1_565
O8 Y0 2.435735 1_555
O8 Y0 2.436787 1_655
O9 Y1 2.436230 1_565
O9 Y1 2.436515 1_465
