# generated using pymatgen
data_BaO
_symmetry_space_group_name_H-M   'P 1'
_cell_length_a   13.63872562
_cell_length_b   14.37070766
_cell_length_c   13.15231444
_cell_angle_alpha   86.10241986
_cell_angle_beta   87.47087017
_cell_angle_gamma   88.60841711
_symmetry_Int_Tables_number   1
_chemical_formula_structural   BaO
_chemical_formula_sum   'Ba50 O50'
_cell_volume   2568.77582269
_cell_formula_units_Z   50
loop_
 _symmetry_equiv_pos_site_id
 _symmetry_equiv_pos_as_xyz
  1  'x, y, z'
loop_
 _atom_site_type_symbol
 _atom_site_label
 _atom_site_symmetry_multiplicity
 _atom_site_fract_x
 _atom_site_fract_y
 _atom_site_fract_z
 _atom_site_occupancy
  Ba  Ba0  1  0.46348616  0.40141937  0.58615763  1
  Ba  Ba1  1  0.96263010  0.88686743  0.38672660  1
  Ba  Ba2  1  0.91545954  0.05420515  0.17233511  1
  Ba  Ba3  1  0.15156302  0.06879395  0.01928158  1
  Ba  Ba4  1  0.32796444  0.20211992  0.12404585  1
  Ba  Ba5  1  0.76828863  0.04076175  0.55272520  1
  Ba  Ba6  1  0.80354606  0.62514841  0.59903960  1
  Ba  Ba7  1  0.79700232  0.74577577  0.27017421  1
  Ba  Ba8  1  0.04840178  0.65051631  0.83994113  1
  Ba  Ba9  1  0.09038481  0.02956121  0.59130959  1
  Ba  Ba10  1  0.37858186  0.60545723  0.08527290  1
  Ba  Ba11  1  0.41587202  0.05385490  0.52567358  1
  Ba  Ba12  1  0.30104060  0.84187101  0.74579485  1
  Ba  Ba13  1  0.92131329  0.28492256  0.06294870  1
  Ba  Ba14  1  0.72156709  0.40902580  0.54444044  1
  Ba  Ba15  1  0.47483826  0.32595778  0.26918629  1
  Ba  Ba16  1  0.14471177  0.38926415  0.98157373  1
  Ba  Ba17  1  0.30183656  0.76870935  0.41524007  1
  Ba  Ba18  1  0.09249028  0.31197866  0.26197116  1
  Ba  Ba19  1  0.72435351  0.23353651  0.33816019  1
  Ba  Ba20  1  0.73099284  0.40270626  0.83862899  1
  Ba  Ba21  1  0.74093377  0.94172570  0.00468836  1
  Ba  Ba22  1  0.60085527  0.99067420  0.26048680  1
  Ba  Ba23  1  0.21633039  0.54088408  0.59394415  1
  Ba  Ba24  1  0.83305581  0.63880830  0.03072101  1
  Ba  Ba25  1  0.55750107  0.90812496  0.70203690  1
  Ba  Ba26  1  0.01543520  0.90728484  0.87406412  1
  Ba  Ba27  1  0.00773924  0.58447450  0.37051022  1
  Ba  Ba28  1  0.93741585  0.27720263  0.48801034  1
  Ba  Ba29  1  0.44373304  0.05074009  0.92805346  1
  Ba  Ba30  1  0.40424549  0.86651119  0.14099422  1
  Ba  Ba31  1  0.10496527  0.77718733  0.14964022  1
  Ba  Ba32  1  0.19811741  0.02295413  0.30830845  1
  Ba  Ba33  1  0.43387313  0.33486580  0.88303279  1
  Ba  Ba34  1  0.61432131  0.70167575  0.87206718  1
  Ba  Ba35  1  0.62696412  0.19808940  0.05553871  1
  Ba  Ba36  1  0.81536936  0.83942782  0.72842284  1
  Ba  Ba37  1  0.06374644  0.76249212  0.57432716  1
  Ba  Ba38  1  0.25018250  0.26783803  0.48108900  1
  Ba  Ba39  1  0.29411832  0.58645012  0.83903827  1
  Ba  Ba40  1  0.83126718  0.45746737  0.24848697  1
  Ba  Ba41  1  0.27666213  0.53463578  0.33149424  1
  Ba  Ba42  1  0.92311432  0.15149311  0.80129255  1
  Ba  Ba43  1  0.57253023  0.56785583  0.34244562  1
  Ba  Ba44  1  0.61781440  0.46226957  0.09421823  1
  Ba  Ba45  1  0.48395696  0.63657651  0.63494837  1
  Ba  Ba46  1  0.26442518  0.14312364  0.74167889  1
  Ba  Ba47  1  0.01117072  0.39056038  0.71537302  1
  Ba  Ba48  1  0.57128747  0.81309324  0.46504813  1
  Ba  Ba49  1  0.58889804  0.18180197  0.69495151  1
  O  O0  1  0.77417803  0.78823305  0.93264258  1
  O  O1  1  0.30391580  0.01835390  0.12765932  1
  O  O2  1  0.46863670  0.85762030  0.31360993  1
  O  O3  1  0.38195370  0.58262309  0.47538802  1
  O  O4  1  0.96038051  0.29670136  0.87454461  1
  O  O5  1  0.40801914  0.01967074  0.73201292  1
  O  O6  1  0.93133691  0.70326150  0.71004199  1
  O  O7  1  0.15288202  0.65415299  0.44884459  1
  O  O8  1  0.58267462  0.16589430  0.25076669  1
  O  O9  1  0.40891932  0.22826796  0.59082606  1
  O  O10  1  0.59401471  0.35781987  0.71158009  1
  O  O11  1  0.60124760  0.97536417  0.50595410  1
  O  O12  1  0.05918416  0.95720591  0.20495360  1
  O  O13  1  0.15078480  0.99599114  0.77985935  1
  O  O14  1  0.29369914  0.48196245  0.00133030  1
  O  O15  1  0.54804138  0.18515155  0.88214303  1
  O  O16  1  0.37682938  0.48588703  0.71684256  1
  O  O17  1  0.66522004  0.75007983  0.68334015  1
  O  O18  1  0.42191376  0.81789017  0.57832043  1
  O  O19  1  0.92759799  0.93771742  0.57120129  1
  O  O20  1  0.30286173  0.18835426  0.91921381  1
  O  O21  1  0.74434822  0.33415025  0.06057845  1
  O  O22  1  0.70862241  0.00869666  0.73345956  1
  O  O23  1  0.28462618  0.71092296  0.20319008  1
  O  O24  1  0.18498855  0.70552212  0.70969338  1
  O  O25  1  0.13212744  0.21149414  0.11383987  1
  O  O26  1  0.00331263  0.41943779  0.13476854  1
  O  O27  1  0.44716292  0.50666918  0.22712139  1
  O  O28  1  0.42665054  0.72753792  0.84258408  1
  O  O29  1  0.49400263  0.31737033  0.06970467  1
  O  O30  1  0.88427687  0.44675308  0.42537262  1
  O  O31  1  0.83725466  0.45043759  0.68633227  1
  O  O32  1  0.03485823  0.20239441  0.64410498  1
  O  O33  1  0.09646640  0.78065765  0.96176660  1
  O  O34  1  0.68547402  0.54884449  0.93293880  1
  O  O35  1  0.75930791  0.22082223  0.53394514  1
  O  O36  1  0.23793325  0.09179239  0.48469970  1
  O  O37  1  0.14044271  0.89272705  0.43647801  1
  O  O38  1  0.93262637  0.04526749  0.97427601  1
  O  O39  1  0.56304470  0.96800199  0.06535564  1
  O  O40  1  0.89579635  0.71941410  0.43726372  1
  O  O41  1  0.29058588  0.28024658  0.29337019  1
  O  O42  1  0.62663873  0.57280948  0.52641048  1
  O  O43  1  0.94521182  0.68220118  0.19180077  1
  O  O44  1  0.78191200  0.93331240  0.21194534  1
  O  O45  1  0.91933350  0.21903916  0.30055834  1
  O  O46  1  0.71800498  0.60372106  0.18945900  1
  O  O47  1  0.12335292  0.49009107  0.81182017  1
  O  O48  1  0.64967237  0.39854795  0.33087118  1
  O  O49  1  0.15913981  0.42843749  0.45530244  1
loop_
_geom_bond_atom_site_label_1
_geom_bond_atom_site_label_2
_geom_bond_distance
_geom_bond_site_symmetry_2
Ba0 O16 2.420598 1_555
Ba0 O10 2.519423 1_555
Ba0 O9 2.610452 1_555
Ba0 O3 3.102671 1_555
Ba1 O37 2.544408 1_655
Ba1 O19 2.602082 1_555
Ba1 O40 2.626628 1_555
Ba1 O12 2.815989 1_655
Ba2 O12 2.414499 1_645
Ba2 O44 2.560105 1_545
Ba2 O38 2.616716 1_554
Ba2 O45 3.002497 1_555
Ba3 O25 2.472561 1_555
Ba3 O1 2.631098 1_555
Ba3 O20 2.927029 1_554
Ba3 O12 3.068652 1_545
Ba3 O38 3.100518 1_454
Ba3 O13 3.385558 1_544
Ba4 O41 2.586871 1_555
Ba4 O1 2.665998 1_555
Ba4 O25 2.679914 1_555
Ba4 O20 2.751583 1_554
Ba4 O29 2.874109 1_555
Ba5 O22 2.494720 1_555
Ba5 O35 2.583032 1_555
Ba5 O11 2.599661 1_545
Ba5 O19 2.610410 1_545
Ba6 O6 2.640383 1_555
Ba6 O40 2.720298 1_555
Ba6 O31 2.726142 1_555
Ba6 O42 2.772904 1_555
Ba6 O17 2.816617 1_555
Ba7 O43 2.416127 1_555
Ba7 O40 2.629056 1_555
Ba7 O46 2.637732 1_555
Ba7 O44 2.756531 1_555
Ba8 O6 2.459373 1_455
Ba8 O47 2.542603 1_555
Ba8 O24 2.575946 1_555
Ba8 O33 2.656016 1_555
Ba9 O36 2.546254 1_555
Ba9 O19 2.642516 1_445
Ba9 O13 2.656959 1_545
Ba9 O32 2.705794 1_555
Ba9 O37 2.972580 1_545
Ba10 O27 2.469891 1_555
Ba10 O14 2.487509 1_555
Ba10 O23 2.528683 1_555
Ba11 O36 2.547254 1_555
Ba11 O9 2.701626 1_555
Ba11 O5 2.722754 1_555
Ba11 O11 2.752307 1_545
Ba11 O18 3.414272 1_545
Ba12 O24 2.629358 1_555
Ba12 O28 2.650748 1_555
Ba12 O18 2.728262 1_555
Ba12 O5 2.963955 1_565
Ba12 O13 3.023106 1_555
Ba13 O21 2.499501 1_555
Ba13 O4 2.506716 1_554
Ba13 O26 2.515209 1_655
Ba13 O25 3.123291 1_655
Ba13 O45 3.202351 1_555
Ba14 O31 2.604400 1_555
Ba14 O42 2.659988 1_555
Ba14 O30 2.703203 1_555
Ba14 O35 2.752423 1_555
Ba14 O10 2.811592 1_555
Ba14 O48 3.030180 1_555
Ba15 O41 2.613222 1_555
Ba15 O29 2.636093 1_555
Ba15 O27 2.639737 1_555
Ba15 O8 2.718976 1_555
Ba15 O48 2.799809 1_555
Ba16 O14 2.489230 1_556
Ba16 O47 2.601187 1_555
Ba16 O26 2.775260 1_556
Ba16 O25 2.995474 1_556
Ba16 O4 3.286443 1_455
Ba17 O7 2.648959 1_555
Ba17 O37 2.814697 1_555
Ba17 O2 2.869709 1_555
Ba17 O18 2.890401 1_555
Ba17 O3 2.935620 1_555
Ba17 O23 2.984132 1_555
Ba18 O26 2.529852 1_555
Ba18 O25 2.534725 1_555
Ba18 O45 2.752094 1_455
Ba18 O41 2.773281 1_555
Ba18 O49 3.308963 1_555
Ba19 O8 2.537538 1_555
Ba19 O48 2.555437 1_555
Ba19 O35 2.632786 1_555
Ba19 O45 2.689011 1_555
Ba20 O31 2.487655 1_555
Ba20 O34 2.560722 1_555
Ba20 O10 2.679376 1_555
Ba20 O21 3.028607 1_556
Ba21 O0 2.483277 1_554
Ba21 O39 2.547787 1_555
Ba21 O44 2.800701 1_555
Ba21 O38 3.037285 1_564
Ba22 O8 2.519335 1_565
Ba22 O44 2.649247 1_555
Ba22 O39 2.682774 1_555
Ba22 O2 2.696431 1_555
Ba22 O11 3.221228 1_555
Ba23 O7 2.587552 1_555
Ba23 O49 2.670579 1_555
Ba23 O3 2.742545 1_555
Ba23 O16 2.843183 1_555
Ba23 O24 2.912256 1_555
Ba23 O47 3.129262 1_555
Ba24 O0 2.559491 1_554
Ba24 O46 2.584851 1_555
Ba24 O43 2.780111 1_555
Ba24 O34 2.820951 1_554
Ba25 O5 2.595715 1_565
Ba25 O22 2.609380 1_565
Ba25 O17 2.694306 1_555
Ba25 O11 2.737526 1_555
Ba25 O18 2.901332 1_555
Ba26 O33 2.364907 1_555
Ba26 O13 2.503121 1_555
Ba26 O38 2.657030 1_465
Ba27 O7 2.529688 1_555
Ba27 O40 2.613727 1_455
Ba27 O30 2.670884 1_455
Ba27 O43 2.809655 1_455
Ba27 O49 3.189690 1_555
Ba28 O35 2.611865 1_555
Ba28 O30 2.614349 1_555
Ba28 O32 2.647287 1_655
Ba28 O45 2.679855 1_555
Ba29 O15 2.453288 1_555
Ba29 O39 2.682580 1_546
Ba29 O5 2.713411 1_555
Ba29 O20 2.723929 1_555
Ba29 O1 3.190652 1_556
Ba30 O2 2.464327 1_555
Ba30 O1 2.547317 1_565
Ba30 O39 2.752030 1_555
Ba30 O23 2.853218 1_555
Ba31 O33 2.475858 1_554
Ba31 O43 2.617823 1_455
Ba31 O23 2.711982 1_555
Ba31 O12 2.783698 1_555
Ba32 O37 2.547228 1_545
Ba32 O12 2.611517 1_545
Ba32 O36 2.665516 1_555
Ba32 O1 2.728699 1_555
Ba33 O29 2.616748 1_556
Ba33 O15 2.625409 1_555
Ba33 O20 2.797089 1_555
Ba33 O10 3.076271 1_555
Ba33 O16 3.084842 1_555
Ba33 O14 3.245390 1_556
Ba34 O34 2.476371 1_555
Ba34 O17 2.600716 1_555
Ba34 O28 2.619503 1_555
Ba34 O0 2.712048 1_555
Ba35 O29 2.474704 1_555
Ba35 O21 2.563140 1_555
Ba35 O15 2.584213 1_554
Ba35 O8 2.624349 1_555
Ba36 O6 2.503875 1_555
Ba36 O17 2.555830 1_555
Ba36 O0 2.773001 1_555
Ba36 O22 2.807581 1_565
Ba36 O19 2.835939 1_555
Ba37 O24 2.563257 1_555
Ba37 O7 2.589589 1_555
Ba37 O6 2.599136 1_455
Ba37 O37 2.711177 1_555
Ba37 O40 3.076516 1_455
Ba37 O19 3.091306 1_455
Ba38 O41 2.501190 1_555
Ba38 O36 2.536544 1_555
Ba38 O49 2.602874 1_555
Ba38 O9 2.682900 1_555
Ba39 O16 2.453683 1_555
Ba39 O14 2.524776 1_556
Ba39 O28 2.752939 1_555
Ba39 O24 2.782336 1_555
Ba39 O47 2.787049 1_555
Ba40 O30 2.460315 1_555
Ba40 O46 2.670719 1_555
Ba40 O48 2.786652 1_555
Ba40 O26 2.789400 1_655
Ba40 O21 3.407323 1_555
Ba41 O3 2.566098 1_555
Ba41 O49 2.664668 1_555
Ba41 O27 2.683539 1_555
Ba41 O7 2.858629 1_555
Ba41 O23 2.948461 1_555
Ba42 O4 2.430861 1_555
Ba42 O32 2.588887 1_655
Ba42 O38 2.658506 1_555
Ba43 O27 2.545701 1_555
Ba43 O42 2.566614 1_555
Ba43 O48 2.638534 1_555
Ba43 O46 2.794149 1_555
Ba43 O3 3.079090 1_555
Ba44 O34 2.534394 1_554
Ba44 O21 2.540260 1_555
Ba44 O29 2.757088 1_555
Ba44 O46 2.863667 1_555
Ba44 O27 2.932595 1_555
Ba44 O48 3.229205 1_555
Ba45 O42 2.551575 1_555
Ba45 O3 2.733481 1_555
Ba45 O16 2.771652 1_555
Ba45 O18 2.782919 1_555
Ba45 O17 3.106971 1_555
Ba45 O28 3.166174 1_555
Ba46 O20 2.545667 1_555
Ba46 O5 2.615153 1_555
Ba46 O13 2.659174 1_545
Ba46 O9 2.959628 1_555
Ba47 O4 2.493056 1_455
Ba47 O31 2.539450 1_455
Ba47 O47 2.553457 1_555
Ba47 O32 2.927531 1_555
Ba48 O18 2.472644 1_555
Ba48 O11 2.476014 1_555
Ba48 O2 2.523087 1_555
Ba48 O17 3.258682 1_555
Ba49 O15 2.503599 1_555
Ba49 O10 2.556601 1_555
Ba49 O9 2.905099 1_555
Ba49 O22 2.969112 1_555
Ba49 O35 3.109339 1_555
Ba49 O5 3.430854 1_555
