# generated using pymatgen
data_Ba10Pr5Nb4SnO30
_symmetry_space_group_name_H-M   'P 1'
_cell_length_a   8.74476333
_cell_length_b   10.68131099
_cell_length_c   10.67470766
_cell_angle_alpha   80.30961895
_cell_angle_beta   113.99353826
_cell_angle_gamma   113.95553328
_symmetry_Int_Tables_number   1
_chemical_formula_structural   Ba10Pr5Nb4SnO30
_chemical_formula_sum   'Ba10 Pr5 Nb4 Sn1 O30'
_cell_volume   832.44858323
_cell_formula_units_Z   1
loop_
 _symmetry_equiv_pos_site_id
 _symmetry_equiv_pos_as_xyz
  1  'x, y, z'
loop_
 _atom_site_type_symbol
 _atom_site_label
 _atom_site_symmetry_multiplicity
 _atom_site_fract_x
 _atom_site_fract_y
 _atom_site_fract_z
 _atom_site_occupancy
  Ba  Ba0  1  0.64815900  0.69932400  0.09958500  1
  Ba  Ba1  1  0.84907900  0.29846800  0.89792300  1
  Ba  Ba2  1  0.24606100  0.49757700  0.49953600  1
  Ba  Ba3  1  0.45089800  0.09934400  0.30133300  1
  Ba  Ba4  1  0.04702300  0.90105900  0.69902500  1
  Ba  Ba5  1  0.75297700  0.49894100  0.50097500  1
  Ba  Ba6  1  0.95092100  0.10153200  0.30207700  1
  Ba  Ba7  1  0.34910200  0.30065600  0.89866700  1
  Ba  Ba8  1  0.55393900  0.90242300  0.70046400  1
  Ba  Ba9  1  0.15184100  0.70067600  0.10041500  1
  Pr  Pr0  1  0.79939500  0.39983400  0.19919100  1
  Pr  Pr1  1  0.00060500  0.00016600  0.00080900  1
  Pr  Pr2  1  0.40000000  0.20000000  0.60000000  1
  Pr  Pr3  1  0.59984600  0.79931900  0.40048700  1
  Pr  Pr4  1  0.20015400  0.60068100  0.79951300  1
  Nb  Nb0  1  0.30003300  0.40001000  0.19997600  1
  Nb  Nb1  1  0.70028900  0.60004400  0.80028600  1
  Nb  Nb2  1  0.09971100  0.79995600  0.39971400  1
  Nb  Nb3  1  0.49996700  0.99999000  0.00002400  1
  Sn  Sn0  1  0.90000000  0.20000000  0.60000000  1
  O  O0  1  0.92462900  0.61139800  0.77747000  1
  O  O1  1  0.13092300  0.21101600  0.57677200  1
  O  O2  1  0.52363300  0.41117100  0.17602000  1
  O  O3  1  0.72384900  0.00930500  0.97814100  1
  O  O4  1  0.32276600  0.80954200  0.37592900  1
  O  O5  1  0.56936700  0.40479900  0.73107300  1
  O  O6  1  0.76360500  0.99875300  0.52738400  1
  O  O7  1  0.16898300  0.20484000  0.13088800  1
  O  O8  1  0.36904300  0.80427700  0.93134400  1
  O  O9  1  0.96810600  0.60459300  0.32943200  1
  O  O10  1  0.47723400  0.59045800  0.82407100  1
  O  O11  1  0.66907700  0.18898400  0.62322800  1
  O  O12  1  0.07615100  0.39069500  0.22185900  1
  O  O13  1  0.27636700  0.98882900  0.02398000  1
  O  O14  1  0.87537100  0.78860200  0.42253000  1
  O  O15  1  0.83189400  0.79540700  0.87056800  1
  O  O16  1  0.03639500  0.40124700  0.67261600  1
  O  O17  1  0.43095700  0.59572300  0.26865600  1
  O  O18  1  0.63101700  0.19516000  0.06911200  1
  O  O19  1  0.23063300  0.99520100  0.46892700  1
  O  O20  1  0.80957700  0.27325800  0.39942800  1
  O  O21  1  0.21107500  0.47133300  0.00552300  1
  O  O22  1  0.61029300  0.66974500  0.60566800  1
  O  O23  1  0.00976600  0.86945200  0.20544900  1
  O  O24  1  0.41064500  0.06935100  0.80564300  1
  O  O25  1  0.99042300  0.12674200  0.80057200  1
  O  O26  1  0.38935500  0.33064900  0.39435700  1
  O  O27  1  0.79023400  0.53054800  0.99455100  1
  O  O28  1  0.18970700  0.73025500  0.59433200  1
  O  O29  1  0.58892500  0.92866700  0.19447700  1
loop_
_geom_bond_atom_site_label_1
_geom_bond_atom_site_label_2
_geom_bond_distance
_geom_bond_site_symmetry_2
Ba0 O23 2.774419 1_655
Ba0 O10 2.898408 1_554
Ba0 O8 2.901521 1_554
Ba0 O2 2.912074 1_555
Ba0 O17 2.915157 1_555
Ba0 O29 3.096419 1_555
Ba0 O27 3.111710 1_554
Ba0 O3 3.248791 1_564
Ba0 O15 3.259156 1_554
Ba0 O14 3.277027 1_555
Ba0 O9 3.279042 1_555
Ba0 O21 3.419239 1_555
Ba1 O21 2.785658 1_656
Ba1 O11 2.889541 1_555
Ba1 O5 2.911543 1_555
Ba1 O3 2.932199 1_555
Ba1 O18 2.939330 1_556
Ba1 O25 3.082136 1_555
Ba1 O27 3.130832 1_555
Ba1 O16 3.244627 1_655
Ba1 O0 3.273050 1_555
Ba1 O7 3.284391 1_656
Ba1 O12 3.293133 1_656
Ba1 O24 3.432162 1_555
Ba2 O22 2.796527 1_555
Ba2 O1 2.895727 1_555
Ba2 O16 2.901188 1_555
Ba2 O12 2.911529 1_555
Ba2 O9 2.912023 1_455
Ba2 O26 3.105210 1_555
Ba2 O28 3.112934 1_555
Ba2 O4 3.273995 1_555
Ba2 O17 3.283590 1_555
Ba2 O5 3.294204 1_555
Ba2 O10 3.302311 1_555
Ba2 O20 3.401482 1_455
Ba3 O20 2.763612 1_555
Ba3 O13 2.920103 1_545
Ba3 O19 2.922443 1_545
Ba3 O4 2.924165 1_545
Ba3 O7 2.928404 1_555
Ba3 O29 3.112578 1_545
Ba3 O26 3.117698 1_555
Ba3 O6 3.256012 1_545
Ba3 O11 3.264412 1_555
Ba3 O18 3.268875 1_555
Ba3 O2 3.280144 1_555
Ba3 O23 3.449811 1_545
Ba4 O24 2.782365 1_565
Ba4 O6 2.889976 1_455
Ba4 O14 2.921243 1_455
Ba4 O15 2.923657 1_455
Ba4 O0 2.930347 1_455
Ba4 O25 3.084776 1_465
Ba4 O28 3.131017 1_555
Ba4 O1 3.248700 1_565
Ba4 O19 3.269099 1_555
Ba4 O13 3.293005 1_556
Ba4 O8 3.312098 1_555
Ba4 O22 3.428454 1_455
Ba5 O26 2.782365 1_555
Ba5 O16 2.889976 1_655
Ba5 O0 2.921243 1_555
Ba5 O9 2.923657 1_555
Ba5 O14 2.930347 1_555
Ba5 O20 3.084776 1_555
Ba5 O22 3.131017 1_555
Ba5 O11 3.248700 1_555
Ba5 O5 3.269099 1_555
Ba5 O2 3.293005 1_555
Ba5 O17 3.312098 1_555
Ba5 O28 3.428454 1_655
Ba6 O29 2.785658 1_545
Ba6 O1 2.889541 1_655
Ba6 O19 2.911543 1_645
Ba6 O12 2.932199 1_655
Ba6 O7 2.939330 1_655
Ba6 O20 3.082136 1_555
Ba6 O23 3.130832 1_645
Ba6 O6 3.244627 1_545
Ba6 O14 3.273050 1_545
Ba6 O18 3.284391 1_555
Ba6 O3 3.293133 1_554
Ba6 O26 3.432162 1_655
Ba7 O25 2.763612 1_455
Ba7 O2 2.920103 1_556
Ba7 O5 2.922443 1_555
Ba7 O10 2.924165 1_555
Ba7 O18 2.928404 1_556
Ba7 O21 3.112578 1_556
Ba7 O24 3.117698 1_555
Ba7 O16 3.256012 1_555
Ba7 O1 3.264412 1_555
Ba7 O7 3.268875 1_556
Ba7 O13 3.280144 1_546
Ba7 O27 3.449811 1_555
Ba8 O28 2.796527 1_555
Ba8 O11 2.895727 1_565
Ba8 O6 2.901188 1_555
Ba8 O3 2.911529 1_565
Ba8 O15 2.912023 1_555
Ba8 O24 3.105210 1_565
Ba8 O22 3.112934 1_555
Ba8 O10 3.273995 1_555
Ba8 O8 3.283590 1_555
Ba8 O19 3.294204 1_555
Ba8 O4 3.302311 1_555
Ba8 O25 3.401482 1_565
Ba9 O27 2.774419 1_454
Ba9 O4 2.898408 1_555
Ba9 O17 2.901521 1_555
Ba9 O13 2.912074 1_555
Ba9 O8 2.915157 1_554
Ba9 O21 3.096419 1_555
Ba9 O23 3.111710 1_555
Ba9 O12 3.248791 1_555
Ba9 O9 3.259156 1_455
Ba9 O0 3.277027 1_454
Ba9 O15 3.279042 1_454
Ba9 O29 3.419239 1_555
Nb0 O7 2.023183 1_555
Nb0 O26 2.024541 1_555
Nb0 O12 2.025673 1_555
Nb0 O17 2.026849 1_555
Nb0 O2 2.027317 1_555
Nb0 O21 2.032205 1_555
Nb1 O5 2.024285 1_555
Nb1 O27 2.024700 1_555
Nb1 O0 2.026850 1_555
Nb1 O10 2.027677 1_555
Nb1 O22 2.028556 1_555
Nb1 O15 2.028906 1_555
Nb2 O19 2.024285 1_555
Nb2 O23 2.024700 1_555
Nb2 O14 2.026850 1_455
Nb2 O4 2.027677 1_555
Nb2 O28 2.028556 1_555
Nb2 O9 2.028906 1_455
Nb3 O18 2.023183 1_565
Nb3 O24 2.024541 1_564
Nb3 O3 2.025673 1_564
Nb3 O8 2.026849 1_554
Nb3 O13 2.027317 1_555
Nb3 O29 2.032205 1_555
O0 Pr4 2.372238 1_655
O1 Sn0 2.087487 1_455
O1 Pr2 2.313553 1_555
O2 Pr0 2.373397 1_555
O3 Pr1 2.373376 1_656
O4 Pr3 2.374912 1_555
O5 Pr2 2.377101 1_555
O6 Sn0 2.090742 1_565
O6 Pr3 2.310860 1_555
O7 Pr1 2.370804 1_555
O8 Pr4 2.371211 1_555
O9 Pr0 2.372372 1_555
O10 Pr4 2.374912 1_555
O11 Sn0 2.087487 1_555
O11 Pr2 2.313553 1_555
O12 Pr0 2.373376 1_455
O13 Pr1 2.373397 1_565
O14 Pr3 2.372238 1_555
O15 Pr1 2.372372 1_666
O16 Sn0 2.090742 1_455
O16 Pr4 2.310860 1_555
O17 Pr3 2.371211 1_555
O18 Pr0 2.370804 1_555
O19 Pr2 2.377101 1_565
O20 Sn0 2.093615 1_555
O20 Pr0 2.318345 1_555
O21 Pr4 2.380650 1_554
O22 Pr3 2.374972 1_555
O23 Pr1 2.376857 1_565
O24 Pr2 2.383889 1_555
O25 Sn0 2.093615 1_555
O25 Pr1 2.318345 1_656
O26 Pr2 2.383889 1_555
O27 Pr0 2.376857 1_556
O28 Pr4 2.374972 1_555
O29 Pr3 2.380650 1_555
