# generated using pymatgen
data_Ce2Te(Mo2O15)3
_symmetry_space_group_name_H-M   'P 1'
_cell_length_a   9.32328800
_cell_length_b   10.07597310
_cell_length_c   11.31811606
_cell_angle_alpha   77.60863712
_cell_angle_beta   84.80449387
_cell_angle_gamma   68.22259294
_symmetry_Int_Tables_number   1
_chemical_formula_structural   Ce2Te(Mo2O15)3
_chemical_formula_sum   'Ce2 Te1 Mo6 O45'
_cell_volume   964.28546930
_cell_formula_units_Z   1
loop_
 _symmetry_equiv_pos_site_id
 _symmetry_equiv_pos_as_xyz
  1  'x, y, z'
loop_
 _atom_site_type_symbol
 _atom_site_label
 _atom_site_symmetry_multiplicity
 _atom_site_fract_x
 _atom_site_fract_y
 _atom_site_fract_z
 _atom_site_occupancy
  Ce  Ce0  1  0.24781400  0.72641000  0.32332900  1
  Ce  Ce1  1  0.77224800  0.26050000  0.69771300  1
  Te  Te0  1  0.50262500  0.99440200  0.49715100  1
  Mo  Mo0  1  0.80729300  0.77343100  0.36279400  1
  Mo  Mo1  1  0.20678800  0.22338300  0.63124300  1
  Mo  Mo2  1  0.59994700  0.09930400  0.19518700  1
  Mo  Mo3  1  0.41268800  0.89417700  0.79981800  1
  Mo  Mo4  1  0.26857400  0.31859400  0.32324600  1
  Mo  Mo5  1  0.73735800  0.67317700  0.66899300  1
  O  O0  1  0.88226700  0.18648500  0.38090100  1
  O  O1  1  0.11785500  0.81142900  0.62958700  1
  O  O2  1  0.33060400  0.98005000  0.59789500  1
  O  O3  1  0.67840600  0.01028300  0.40256300  1
  O  O4  1  0.41191300  0.62848500  0.13641000  1
  O  O5  1  0.60358500  0.37619600  0.88156900  1
  O  O6  1  0.44243400  0.70758400  0.40021500  1
  O  O7  1  0.56167900  0.27033900  0.61565600  1
  O  O8  1  0.24648100  0.50117000  0.34366500  1
  O  O9  1  0.75578600  0.49160300  0.64880300  1
  O  O10  1  0.49832500  0.13187300  0.06577500  1
  O  O11  1  0.52218100  0.87043300  0.92302900  1
  O  O12  1  0.15050200  0.26567500  0.45780300  1
  O  O13  1  0.85987100  0.72617400  0.53724500  1
  O  O14  1  0.38640000  0.07214100  0.34277100  1
  O  O15  1  0.61958000  0.91665600  0.65381100  1
  O  O16  1  0.29208800  0.91647000  0.14679600  1
  O  O17  1  0.57316300  0.15218200  0.80815300  1
  O  O18  1  0.37263400  0.49224900  0.95043000  1
  O  O19  1  0.64370100  0.52238300  0.06191600  1
  O  O20  1  0.47349000  0.27681300  0.25696700  1
  O  O21  1  0.53372300  0.71385100  0.74065900  1
  O  O22  1  0.18154600  0.70859600  0.57778900  1
  O  O23  1  0.81390500  0.28503100  0.43644100  1
  O  O24  1  0.56136500  0.54994800  0.15479200  1
  O  O25  1  0.45729500  0.46012100  0.85971100  1
  O  O26  1  0.68185500  0.88228500  0.22819400  1
  O  O27  1  0.32604900  0.11223900  0.76782700  1
  O  O28  1  0.58988800  0.78750600  0.47619900  1
  O  O29  1  0.42118500  0.20174000  0.52101200  1
  O  O30  1  0.15488600  0.34491400  0.20382800  1
  O  O31  1  0.85360600  0.64095300  0.78808800  1
  O  O32  1  0.83414400  0.60143500  0.34483400  1
  O  O33  1  0.18117500  0.39563000  0.64793200  1
  O  O34  1  0.99060800  0.80095000  0.31474300  1
  O  O35  1  0.02353500  0.19750200  0.67930500  1
  O  O36  1  0.76387500  0.13719300  0.14827300  1
  O  O37  1  0.25189000  0.85637100  0.85893200  1
  O  O38  1  0.25500400  0.92346600  0.37115200  1
  O  O39  1  0.75224700  0.05332500  0.65147000  1
  O  O40  1  0.17049400  0.00284000  0.07841700  1
  O  O41  1  0.80263300  0.08094400  0.84637200  1
  O  O42  1  0.91427300  0.75159400  0.97881100  1
  O  O43  1  0.89196700  0.65316800  0.05225900  1
  O  O44  1  0.17527100  0.12404400  0.02293200  1
loop_
_geom_bond_atom_site_label_1
_geom_bond_atom_site_label_2
_geom_bond_distance
_geom_bond_site_symmetry_2
Ce0 O6 2.011312 1_555
Ce0 O38 2.192342 1_555
Ce0 O34 2.235724 1_455
Ce0 O8 2.236077 1_555
Ce0 O16 2.573883 1_555
Ce0 O4 2.641871 1_555
Ce0 O22 2.871681 1_555
Ce1 O41 2.141027 1_555
Ce1 O35 2.190899 1_655
Ce1 O7 2.207439 1_555
Ce1 O9 2.224701 1_555
Ce1 O39 2.332751 1_555
Ce1 O17 2.587715 1_555
Ce1 O5 2.692611 1_555
Ce1 O23 2.916496 1_555
Mo0 O32 1.710974 1_555
Mo0 O34 1.847228 1_555
Mo0 O26 1.882895 1_555
Mo0 O13 1.991007 1_555
Mo0 O28 2.273688 1_555
Mo0 O3 2.361608 1_565
Mo1 O33 1.711684 1_555
Mo1 O35 1.839659 1_555
Mo1 O27 1.877382 1_555
Mo1 O12 1.992995 1_555
Mo1 O29 2.222901 1_555
Mo1 O2 2.388429 1_545
Mo2 O36 1.721192 1_555
Mo2 O10 1.721929 1_555
Mo2 O20 1.975023 1_555
Mo2 O26 1.991562 1_545
Mo2 O3 2.401896 1_555
Mo2 O14 2.536689 1_555
Mo3 O37 1.724225 1_555
Mo3 O11 1.725524 1_555
Mo3 O21 1.971543 1_555
Mo3 O27 2.001459 1_565
Mo3 O2 2.352464 1_555
Mo3 O15 2.467607 1_555
Mo4 O30 1.708114 1_555
Mo4 O8 1.836506 1_555
Mo4 O12 1.897060 1_555
Mo4 O20 1.915496 1_555
Mo4 O14 2.281769 1_555
Mo4 O29 2.573634 1_555
Mo5 O31 1.706643 1_555
Mo5 O9 1.835215 1_555
Mo5 O13 1.901499 1_555
Mo5 O21 1.927899 1_555
Mo5 O15 2.260153 1_555
Mo5 O28 2.503623 1_555
O0 O23 1.230061 1_555
O1 O22 1.229234 1_555
O2 Te0 1.913988 1_555
O3 Te0 1.913338 1_545
O14 Te0 1.991603 1_545
O15 Te0 2.016617 1_555
O16 O40 1.333898 1_565
O17 O41 2.043116 1_555
O18 O25 1.260297 1_555
O19 O24 1.261886 1_555
O24 O4 1.332179 1_555
O25 O5 1.323652 1_555
O28 Te0 1.995690 1_555
O29 Te0 2.010453 1_545
O40 O44 1.262515 1_555
O42 O43 1.218911 1_556
