# generated using pymatgen
data_Ca3MnH12S2O17
_symmetry_space_group_name_H-M   'P 1'
_cell_length_a   8.62575032
_cell_length_b   8.62575032
_cell_length_c   10.84252600
_cell_angle_alpha   90.00000000
_cell_angle_beta   90.00000000
_cell_angle_gamma   120.00000248
_symmetry_Int_Tables_number   1
_chemical_formula_structural   Ca3MnH12S2O17
_chemical_formula_sum   'Ca6 Mn2 H24 S4 O34'
_cell_volume   698.64227174
_cell_formula_units_Z   2
loop_
 _symmetry_equiv_pos_site_id
 _symmetry_equiv_pos_as_xyz
  1  'x, y, z'
loop_
 _atom_site_type_symbol
 _atom_site_label
 _atom_site_symmetry_multiplicity
 _atom_site_fract_x
 _atom_site_fract_y
 _atom_site_fract_z
 _atom_site_occupancy
  Ca  Ca0  1  0.85536700  0.15918900  0.75000000  1
  Ca  Ca1  1  0.84081100  0.69617800  0.75000000  1
  Ca  Ca2  1  0.30382200  0.14463300  0.75000000  1
  Ca  Ca3  1  0.15918900  0.85536700  0.25000000  1
  Ca  Ca4  1  0.69617800  0.84081100  0.25000000  1
  Ca  Ca5  1  0.14463300  0.30382200  0.25000000  1
  Mn  Mn0  1  0.00000000  0.00000000  0.00000000  1
  Mn  Mn1  1  0.00000000  0.00000000  0.50000000  1
  H  H0  1  0.16694900  0.31135800  0.93904900  1
  H  H1  1  0.68864200  0.85559000  0.93904900  1
  H  H2  1  0.14441000  0.83305100  0.93904900  1
  H  H3  1  0.16694900  0.31135800  0.56095100  1
  H  H4  1  0.68864200  0.85559000  0.56095100  1
  H  H5  1  0.14441000  0.83305100  0.56095100  1
  H  H6  1  0.31135800  0.16694900  0.43904900  1
  H  H7  1  0.85559000  0.68864200  0.43904900  1
  H  H8  1  0.83305100  0.14441000  0.43904900  1
  H  H9  1  0.31135800  0.16694900  0.06095100  1
  H  H10  1  0.85559000  0.68864200  0.06095100  1
  H  H11  1  0.83305100  0.14441000  0.06095100  1
  H  H12  1  0.46290900  0.90612300  0.81988800  1
  H  H13  1  0.09387700  0.55678500  0.81988800  1
  H  H14  1  0.44321500  0.53709100  0.81988800  1
  H  H15  1  0.46290900  0.90612300  0.68011200  1
  H  H16  1  0.09387700  0.55678500  0.68011200  1
  H  H17  1  0.44321500  0.53709100  0.68011200  1
  H  H18  1  0.90612300  0.46290900  0.31988800  1
  H  H19  1  0.55678500  0.09387700  0.31988800  1
  H  H20  1  0.53709100  0.44321500  0.31988800  1
  H  H21  1  0.90612300  0.46290900  0.18011200  1
  H  H22  1  0.55678500  0.09387700  0.18011200  1
  H  H23  1  0.53709100  0.44321500  0.18011200  1
  S  S0  1  0.66666700  0.33333300  0.97677100  1
  S  S1  1  0.66666700  0.33333300  0.52322900  1
  S  S2  1  0.33333300  0.66666700  0.47677100  1
  S  S3  1  0.33333300  0.66666700  0.02322900  1
  O  O0  1  0.66666700  0.33333300  0.11456800  1
  O  O1  1  0.66666700  0.33333300  0.38543200  1
  O  O2  1  0.33333300  0.66666700  0.61456800  1
  O  O3  1  0.33333300  0.66666700  0.88543200  1
  O  O4  1  0.75786300  0.23561700  0.93324400  1
  O  O5  1  0.76438300  0.52224600  0.93324400  1
  O  O6  1  0.47775400  0.24213700  0.93324400  1
  O  O7  1  0.75786300  0.23561700  0.56675600  1
  O  O8  1  0.76438300  0.52224600  0.56675600  1
  O  O9  1  0.47775400  0.24213700  0.56675600  1
  O  O10  1  0.23561700  0.75786300  0.43324400  1
  O  O11  1  0.52224600  0.76438300  0.43324400  1
  O  O12  1  0.24213700  0.47775400  0.43324400  1
  O  O13  1  0.23561700  0.75786300  0.06675600  1
  O  O14  1  0.52224600  0.76438300  0.06675600  1
  O  O15  1  0.24213700  0.47775400  0.06675600  1
  O  O16  1  0.10596300  0.20233200  0.88758200  1
  O  O17  1  0.79766800  0.90363000  0.88758200  1
  O  O18  1  0.09637000  0.89403700  0.88758200  1
  O  O19  1  0.10596300  0.20233200  0.61241800  1
  O  O20  1  0.79766800  0.90363000  0.61241800  1
  O  O21  1  0.09637000  0.89403700  0.61241800  1
  O  O22  1  0.20233200  0.10596300  0.38758200  1
  O  O23  1  0.90363000  0.79766800  0.38758200  1
  O  O24  1  0.89403700  0.09637000  0.38758200  1
  O  O25  1  0.20233200  0.10596300  0.11241800  1
  O  O26  1  0.90363000  0.79766800  0.11241800  1
  O  O27  1  0.89403700  0.09637000  0.11241800  1
  O  O28  1  0.50472000  0.99082200  0.75000000  1
  O  O29  1  0.00917800  0.51389800  0.75000000  1
  O  O30  1  0.48610200  0.49528000  0.75000000  1
  O  O31  1  0.99082200  0.50472000  0.25000000  1
  O  O32  1  0.51389800  0.00917800  0.25000000  1
  O  O33  1  0.49528000  0.48610200  0.25000000  1
loop_
_geom_bond_atom_site_label_1
_geom_bond_atom_site_label_2
_geom_bond_distance
_geom_bond_site_symmetry_2
Ca0 O4 2.375691 1_555
Ca0 O7 2.375691 1_555
Ca0 O16 2.496353 1_655
Ca0 O19 2.496353 1_655
Ca0 O17 2.497036 1_545
Ca0 O20 2.497036 1_545
Ca0 O28 2.620062 1_545
Ca0 O29 2.657489 1_655
Ca1 O5 2.375691 1_555
Ca1 O8 2.375691 1_555
Ca1 O20 2.496346 1_555
Ca1 O17 2.496346 1_555
Ca1 O21 2.497034 1_655
Ca1 O18 2.497034 1_655
Ca1 O29 2.620062 1_655
Ca1 O30 2.657489 1_555
Ca2 O6 2.375691 1_555
Ca2 O9 2.375691 1_555
Ca2 O18 2.496350 1_545
Ca2 O21 2.496350 1_545
Ca2 O16 2.497029 1_555
Ca2 O19 2.497029 1_555
Ca2 O30 2.620062 1_555
Ca2 O28 2.657489 1_545
Ca3 O10 2.375691 1_555
Ca3 O13 2.375691 1_555
Ca3 O22 2.496353 1_565
Ca3 O25 2.496353 1_565
Ca3 O23 2.497036 1_455
Ca3 O26 2.497036 1_455
Ca3 O31 2.620062 1_455
Ca3 O32 2.657489 1_565
Ca4 O11 2.375691 1_555
Ca4 O14 2.375691 1_555
Ca4 O23 2.496346 1_555
Ca4 O26 2.496346 1_555
Ca4 O24 2.497034 1_565
Ca4 O27 2.497034 1_565
Ca4 O32 2.620062 1_565
Ca4 O33 2.657489 1_555
Ca5 O12 2.375691 1_555
Ca5 O15 2.375691 1_555
Ca5 O24 2.496350 1_455
Ca5 O27 2.496350 1_455
Ca5 O22 2.497029 1_555
Ca5 O25 2.497029 1_555
Ca5 O33 2.620062 1_555
Ca5 O31 2.657489 1_455
Mn0 O26 1.942133 1_445
Mn0 O17 1.942133 1_444
Mn0 O25 1.942133 1_555
Mn0 O16 1.942133 1_554
Mn0 O27 1.942139 1_455
Mn0 O18 1.942139 1_544
Mn1 O20 1.942133 1_445
Mn1 O23 1.942133 1_445
Mn1 O22 1.942133 1_555
Mn1 O19 1.942133 1_555
Mn1 O21 1.942139 1_545
Mn1 O24 1.942139 1_455
H0 O16 0.988851 1_555
H1 O17 0.988851 1_555
H2 O18 0.988851 1_555
H3 O19 0.988851 1_555
H4 O20 0.988851 1_555
H5 O21 0.988851 1_555
H6 O22 0.988851 1_555
H7 O23 0.988851 1_555
H8 O24 0.988851 1_555
H9 O25 0.988851 1_555
H10 O26 0.988851 1_555
H11 O27 0.988851 1_555
H12 O28 0.987193 1_555
H13 O29 0.987193 1_555
H14 O30 0.987188 1_555
H15 O28 0.987193 1_555
H16 O29 0.987193 1_555
H17 O30 0.987188 1_555
H18 O31 0.987193 1_555
H19 O32 0.987193 1_555
H20 O33 0.987188 1_555
H21 O31 0.987193 1_555
H22 O32 0.987193 1_555
H23 O33 0.987188 1_555
O0 S0 1.494068 1_554
O1 S1 1.494068 1_555
O2 S2 1.494068 1_555
O3 S3 1.494068 1_556
O4 S0 1.488285 1_555
O5 S0 1.488292 1_555
O6 S0 1.488292 1_555
O7 S1 1.488285 1_555
O8 S1 1.488292 1_555
O9 S1 1.488292 1_555
O10 S2 1.488285 1_555
O11 S2 1.488292 1_555
O12 S2 1.488292 1_555
O13 S3 1.488285 1_555
O14 S3 1.488292 1_555
O15 S3 1.488292 1_555
