# generated using pymatgen
data_Ba6Co6O16F
_symmetry_space_group_name_H-M   'P 1'
_cell_length_a   5.80422426
_cell_length_b   5.80422426
_cell_length_c   14.43698100
_cell_angle_alpha   90.00000000
_cell_angle_beta   90.00000000
_cell_angle_gamma   120.64643431
_symmetry_Int_Tables_number   1
_chemical_formula_structural   Ba6Co6O16F
_chemical_formula_sum   'Ba6 Co6 O16 F1'
_cell_volume   418.43636214
_cell_formula_units_Z   1
loop_
 _symmetry_equiv_pos_site_id
 _symmetry_equiv_pos_as_xyz
  1  'x, y, z'
loop_
 _atom_site_type_symbol
 _atom_site_label
 _atom_site_symmetry_multiplicity
 _atom_site_fract_x
 _atom_site_fract_y
 _atom_site_fract_z
 _atom_site_occupancy
  Ba  Ba0  1  0.00049500  0.99950500  0.50000000  1
  Ba  Ba1  1  0.68228200  0.31771800  0.00000000  1
  Ba  Ba2  1  0.33824200  0.66175800  0.64708700  1
  Ba  Ba3  1  0.33824200  0.66175800  0.35291300  1
  Ba  Ba4  1  0.00116400  0.99883600  0.81221300  1
  Ba  Ba5  1  0.00116400  0.99883600  0.18778700  1
  Co  Co0  1  0.67349200  0.32650800  0.75584000  1
  Co  Co1  1  0.67349200  0.32650800  0.24416000  1
  Co  Co2  1  0.32579400  0.67420600  0.88151700  1
  Co  Co3  1  0.32579400  0.67420600  0.11848300  1
  Co  Co4  1  0.67395500  0.32604500  0.58525700  1
  Co  Co5  1  0.67395500  0.32604500  0.41474300  1
  O  O0  1  0.82986400  0.17013600  0.65647400  1
  O  O1  1  0.38298500  0.18011200  0.66863800  1
  O  O2  1  0.81988800  0.61701500  0.66863800  1
  O  O3  1  0.82986400  0.17013600  0.34352600  1
  O  O4  1  0.38298500  0.18011200  0.33136200  1
  O  O5  1  0.81988800  0.61701500  0.33136200  1
  O  O6  1  0.98767700  0.48556400  0.83411200  1
  O  O7  1  0.51443600  0.01232300  0.83411200  1
  O  O8  1  0.49515900  0.50484100  0.85080000  1
  O  O9  1  0.98767700  0.48556400  0.16588800  1
  O  O10  1  0.51443600  0.01232300  0.16588800  1
  O  O11  1  0.49515900  0.50484100  0.14920000  1
  O  O12  1  0.51630400  0.03226500  0.50000000  1
  O  O13  1  0.52360600  0.47639400  0.50000000  1
  O  O14  1  0.96773500  0.48369600  0.50000000  1
  O  O15  1  0.25842400  0.74157600  0.00000000  1
  F  F0  1  0.94781700  0.05218300  0.00000000  1
loop_
_geom_bond_atom_site_label_1
_geom_bond_atom_site_label_2
_geom_bond_distance
_geom_bond_site_symmetry_2
Ba0 O3 2.839859 1_465
Ba0 O0 2.839859 1_465
Ba0 O13 2.883148 1_565
Ba0 O13 2.883148 1_455
Ba0 O12 2.901561 1_565
Ba0 O14 2.901561 1_455
Ba0 O14 2.911877 1_465
Ba0 O12 2.911877 1_465
Ba0 O1 3.095540 1_565
Ba0 O4 3.095540 1_565
Ba0 O2 3.095540 1_455
Ba0 O5 3.095540 1_455
Ba1 F0 2.678131 1_555
Ba1 O9 2.840120 1_555
Ba1 O10 2.840120 1_555
Ba1 O6 2.840120 1_554
Ba1 O7 2.840120 1_554
Ba1 O8 2.863834 1_554
Ba1 O11 2.863834 1_555
Ba1 O15 2.974552 1_545
Ba1 O15 2.974552 1_655
Ba2 O12 2.817122 1_565
Ba2 O14 2.817122 1_455
Ba2 O13 2.829207 1_555
Ba2 O0 2.878144 1_565
Ba2 O0 2.878144 1_455
Ba2 O2 2.901658 1_455
Ba2 O1 2.901658 1_565
Ba2 O1 2.952909 1_555
Ba2 O2 2.952909 1_555
Ba2 O7 3.217932 1_565
Ba2 O6 3.217932 1_455
Ba2 O8 3.339792 1_555
Ba3 O12 2.817122 1_565
Ba3 O14 2.817122 1_455
Ba3 O13 2.829207 1_555
Ba3 O3 2.878144 1_565
Ba3 O3 2.878144 1_455
Ba3 O5 2.901658 1_455
Ba3 O4 2.901658 1_565
Ba3 O4 2.952909 1_555
Ba3 O5 2.952909 1_555
Ba3 O10 3.217932 1_565
Ba3 O9 3.217932 1_455
Ba3 O11 3.339792 1_555
Ba4 F0 2.763953 1_466
Ba4 O1 2.817399 1_565
Ba4 O2 2.817399 1_455
Ba4 O0 2.835532 1_465
Ba4 O7 2.883160 1_465
Ba4 O6 2.883160 1_465
Ba4 O8 2.927835 1_565
Ba4 O8 2.927835 1_455
Ba4 O6 2.956964 1_455
Ba4 O7 2.956964 1_565
Ba5 F0 2.763953 1_465
Ba5 O5 2.817399 1_455
Ba5 O4 2.817399 1_565
Ba5 O3 2.835532 1_465
Ba5 O10 2.883160 1_465
Ba5 O9 2.883160 1_465
Ba5 O11 2.927835 1_565
Ba5 O11 2.927835 1_455
Ba5 O9 2.956964 1_455
Ba5 O10 2.956964 1_565
Co0 O1 1.920787 1_555
Co0 O2 1.920787 1_555
Co0 O6 1.933495 1_555
Co0 O7 1.933495 1_555
Co0 O0 2.131965 1_555
Co0 O8 2.261534 1_555
Co1 O4 1.920787 1_555
Co1 O5 1.920787 1_555
Co1 O9 1.933495 1_555
Co1 O10 1.933495 1_555
Co1 O3 2.131965 1_555
Co1 O11 2.261534 1_555
Co2 O8 1.764805 1_555
Co2 O7 1.824287 1_565
Co2 O6 1.824287 1_455
Co2 O15 1.840551 1_556
Co3 O11 1.764805 1_555
Co3 O10 1.824287 1_565
Co3 O9 1.824287 1_455
Co3 O15 1.840551 1_555
Co4 O0 1.878765 1_555
Co4 O2 1.886897 1_555
Co4 O1 1.886897 1_555
Co4 O14 1.915516 1_555
Co4 O12 1.915516 1_555
Co4 O13 1.953058 1_555
Co5 O3 1.878765 1_555
Co5 O5 1.886897 1_555
Co5 O4 1.886897 1_555
Co5 O14 1.915516 1_555
Co5 O12 1.915516 1_555
Co5 O13 1.953058 1_555
