# generated using pymatgen
data_La2MgTiO6
_symmetry_space_group_name_H-M   'P 1'
_cell_length_a   5.57473913
_cell_length_b   5.57473913
_cell_length_c   5.57473909
_cell_angle_alpha   60.70339756
_cell_angle_beta   60.70339756
_cell_angle_gamma   60.70340327
_symmetry_Int_Tables_number   1
_chemical_formula_structural   La2MgTiO6
_chemical_formula_sum   'La2 Mg1 Ti1 O6'
_cell_volume   124.45121160
_cell_formula_units_Z   1
loop_
 _symmetry_equiv_pos_site_id
 _symmetry_equiv_pos_as_xyz
  1  'x, y, z'
loop_
 _atom_site_type_symbol
 _atom_site_label
 _atom_site_symmetry_multiplicity
 _atom_site_fract_x
 _atom_site_fract_y
 _atom_site_fract_z
 _atom_site_occupancy
  La  La0  1  0.75039400  0.75039400  0.75039400  1
  La  La1  1  0.24960600  0.24960600  0.24960600  1
  Mg  Mg0  1  0.50000000  0.50000000  0.50000000  1
  Ti  Ti0  1  0.00000000  0.00000000  0.00000000  1
  O  O0  1  0.75929900  0.31709600  0.17006600  1
  O  O1  1  0.17006600  0.75929900  0.31709600  1
  O  O2  1  0.31709600  0.17006600  0.75929900  1
  O  O3  1  0.24070100  0.68290400  0.82993400  1
  O  O4  1  0.68290400  0.82993400  0.24070100  1
  O  O5  1  0.82993400  0.24070100  0.68290400  1
loop_
_geom_bond_atom_site_label_1
_geom_bond_atom_site_label_2
_geom_bond_distance
_geom_bond_site_symmetry_2
La0 O1 2.403414 1_655
La0 O0 2.403414 1_556
La0 O2 2.403414 1_565
La0 O5 2.797447 1_565
La0 O4 2.797447 1_556
La0 O3 2.797447 1_655
La0 O3 2.839311 1_555
La0 O4 2.839311 1_555
La0 O5 2.839311 1_555
La1 O5 2.403414 1_455
La1 O3 2.403414 1_554
La1 O4 2.403414 1_545
La1 O1 2.797447 1_545
La1 O2 2.797447 1_554
La1 O0 2.797447 1_455
La1 O0 2.839311 1_555
La1 O2 2.839311 1_555
La1 O1 2.839311 1_555
Mg0 O4 2.074402 1_555
Mg0 O2 2.074402 1_555
Mg0 O3 2.074402 1_555
Mg0 O0 2.074402 1_555
Mg0 O5 2.074403 1_555
Mg0 O1 2.074403 1_555
O0 Ti0 1.974336 1_655
O1 Ti0 1.974336 1_565
O2 Ti0 1.974336 1_556
O3 Ti0 1.974336 1_566
O4 Ti0 1.974336 1_665
O5 Ti0 1.974336 1_656
