# generated using pymatgen
data_Mn2AlV
_symmetry_space_group_name_H-M   'P 1'
_cell_length_a   4.28557297
_cell_length_b   4.28557280
_cell_length_c   4.28557394
_cell_angle_alpha   60.00000004
_cell_angle_beta   60.00000141
_cell_angle_gamma   59.99999433
_symmetry_Int_Tables_number   1
_chemical_formula_structural   Mn2AlV
_chemical_formula_sum   'Mn2 Al1 V1'
_cell_volume   55.65596939
_cell_formula_units_Z   1
loop_
 _symmetry_equiv_pos_site_id
 _symmetry_equiv_pos_as_xyz
  1  'x, y, z'
loop_
 _atom_site_type_symbol
 _atom_site_label
 _atom_site_symmetry_multiplicity
 _atom_site_fract_x
 _atom_site_fract_y
 _atom_site_fract_z
 _atom_site_occupancy
  Mn  Mn0  1  0.25000000  0.25000000  0.25000000  1
  Mn  Mn1  1  0.75000000  0.75000000  0.75000000  1
  Al  Al0  1  -0.00000000  0.00000000  0.00000000  1
  V  V0  1  0.50000000  0.50000000  0.50000000  1
loop_
_geom_bond_atom_site_label_1
_geom_bond_atom_site_label_2
_geom_bond_distance
_geom_bond_site_symmetry_2
Mn0 V0 2.624367 1_545
Mn0 V0 2.624367 1_455
Mn0 V0 2.624367 1_555
Mn0 V0 2.624367 1_554
Mn1 V0 2.624367 1_565
Mn1 V0 2.624367 1_655
Mn1 V0 2.624367 1_555
Mn1 V0 2.624367 1_556
Al0 Mn1 2.624367 1_454
Al0 Mn0 2.624367 1_545
Al0 Mn1 2.624367 1_544
Al0 Mn0 2.624367 1_455
Al0 Mn1 2.624367 1_444
Al0 Mn0 2.624367 1_555
Al0 Mn1 2.624367 1_445
Al0 Mn0 2.624367 1_554
