# generated using pymatgen
data_Rb3Sm(PS4)2
_symmetry_space_group_name_H-M   'P 1'
_cell_length_a   6.89574300
_cell_length_b   9.89442800
_cell_length_c   11.82387840
_cell_angle_alpha   89.32545826
_cell_angle_beta   90.00000000
_cell_angle_gamma   90.00000000
_symmetry_Int_Tables_number   1
_chemical_formula_structural   Rb3Sm(PS4)2
_chemical_formula_sum   'Rb6 Sm2 P4 S16'
_cell_volume   806.68060740
_cell_formula_units_Z   2
loop_
 _symmetry_equiv_pos_site_id
 _symmetry_equiv_pos_as_xyz
  1  'x, y, z'
loop_
 _atom_site_type_symbol
 _atom_site_label
 _atom_site_symmetry_multiplicity
 _atom_site_fract_x
 _atom_site_fract_y
 _atom_site_fract_z
 _atom_site_occupancy
  Rb  Rb0  1  0.80267900  0.35555200  0.09674100  1
  Rb  Rb1  1  0.30267900  0.64444800  0.90325900  1
  Rb  Rb2  1  0.30734600  0.82565300  0.41447200  1
  Rb  Rb3  1  0.80734600  0.17434700  0.58552800  1
  Rb  Rb4  1  0.80856000  0.60794200  0.64950800  1
  Rb  Rb5  1  0.30856000  0.39205800  0.35049200  1
  Sm  Sm0  1  0.78690400  0.88411600  0.14709800  1
  Sm  Sm1  1  0.28690400  0.11588400  0.85290200  1
  P  P0  1  0.80856800  0.62731500  0.30828900  1
  P  P1  1  0.83040000  0.91501100  0.84558700  1
  P  P2  1  0.33040000  0.08498900  0.15441300  1
  P  P3  1  0.30856800  0.37268500  0.69171100  1
  S  S0  1  0.06480700  0.90959500  0.73855500  1
  S  S1  1  0.56480700  0.09040500  0.26144500  1
  S  S2  1  0.80593500  0.73845600  0.93751600  1
  S  S3  1  0.30593500  0.26154400  0.06248400  1
  S  S4  1  0.08535700  0.05347000  0.24908500  1
  S  S5  1  0.89487800  0.06475300  0.96027800  1
  S  S6  1  0.58535700  0.94653000  0.75091500  1
  S  S7  1  0.39487800  0.93524700  0.03972200  1
  S  S8  1  0.30510600  0.20157900  0.59458800  1
  S  S9  1  0.80510600  0.79842100  0.40541200  1
  S  S10  1  0.54296500  0.34725000  0.79806700  1
  S  S11  1  0.04296500  0.65275000  0.20193300  1
  S  S12  1  0.31487300  0.55278400  0.60916100  1
  S  S13  1  0.81487300  0.44721600  0.39083900  1
  S  S14  1  0.06390100  0.35482600  0.79269500  1
  S  S15  1  0.56390100  0.64517400  0.20730500  1
loop_
_geom_bond_atom_site_label_1
_geom_bond_atom_site_label_2
_geom_bond_distance
_geom_bond_site_symmetry_2
Rb0 S5 3.375763 1_554
Rb0 S15 3.566550 1_555
Rb0 S3 3.573740 1_555
Rb0 S13 3.605007 1_555
Rb0 S11 3.609119 1_655
Rb0 S3 3.616805 1_655
Rb0 S1 3.639432 1_555
Rb1 S7 3.375763 1_556
Rb1 S14 3.566550 1_555
Rb1 S2 3.573740 1_455
Rb1 S12 3.605007 1_555
Rb1 S10 3.609119 1_555
Rb1 S2 3.616805 1_555
Rb1 S0 3.639432 1_555
Rb2 S4 3.338352 1_565
Rb2 S9 3.444749 1_555
Rb2 S9 3.475533 1_455
Rb2 S15 3.524462 1_555
Rb2 S12 3.527723 1_555
Rb2 S11 3.559078 1_555
Rb2 S1 3.629926 1_565
Rb3 S6 3.338352 1_545
Rb3 S8 3.444749 1_655
Rb3 S8 3.475533 1_555
Rb3 S14 3.524462 1_655
Rb3 S13 3.527723 1_555
Rb3 S10 3.559078 1_555
Rb3 S0 3.629926 1_645
Rb4 S9 3.428475 1_555
Rb4 S13 3.464057 1_555
Rb4 S12 3.481535 1_555
Rb4 S14 3.484108 1_655
Rb4 S12 3.566717 1_655
Rb4 S10 3.603659 1_555
Rb4 S0 3.635000 1_655
Rb4 S2 3.656233 1_555
Rb4 S6 3.889039 1_555
Rb5 S8 3.428475 1_555
Rb5 S12 3.464057 1_555
Rb5 S13 3.481535 1_455
Rb5 S15 3.484108 1_555
Rb5 S13 3.566717 1_555
Rb5 S11 3.603659 1_555
Rb5 S1 3.635000 1_555
Rb5 S3 3.656233 1_555
Rb5 S4 3.889039 1_555
P0 S13 2.022146 1_555
P0 S9 2.057021 1_555
P0 S11 2.061517 1_655
P0 S15 2.073272 1_555
P1 S6 2.048741 1_555
P1 S2 2.053516 1_555
P1 S0 2.053978 1_655
P1 S5 2.068612 1_565
P2 S4 2.048741 1_555
P2 S3 2.053516 1_555
P2 S1 2.053978 1_555
P2 S7 2.068612 1_545
P3 S12 2.022146 1_555
P3 S8 2.057021 1_555
P3 S10 2.061517 1_555
P3 S14 2.073272 1_555
S0 Sm1 2.899078 1_565
S1 Sm0 2.899078 1_545
S2 Sm0 2.884316 1_556
S3 Sm1 2.884316 1_554
S4 Sm0 2.923210 1_445
S5 Sm0 2.921516 1_546
S5 Sm1 3.026648 1_655
S6 Sm1 2.923210 1_565
S7 Sm1 2.921516 1_564
S7 Sm0 3.026648 1_555
S8 Sm1 3.162642 1_555
S9 Sm0 3.162642 1_555
S10 Sm1 2.956996 1_555
S11 Sm0 2.956996 1_455
S14 Sm1 2.901948 1_555
S15 Sm0 2.901948 1_555
