# generated using pymatgen
data_Zn2Pd
_symmetry_space_group_name_H-M   'P 1'
_cell_length_a   5.24601232
_cell_length_b   5.24601232
_cell_length_c   12.24747926
_cell_angle_alpha   90.00000000
_cell_angle_beta   90.00000000
_cell_angle_gamma   91.13721688
_symmetry_Int_Tables_number   1
_chemical_formula_structural   Zn2Pd
_chemical_formula_sum   'Zn16 Pd8'
_cell_volume   336.99214159
_cell_formula_units_Z   8
loop_
 _symmetry_equiv_pos_site_id
 _symmetry_equiv_pos_as_xyz
  1  'x, y, z'
loop_
 _atom_site_type_symbol
 _atom_site_label
 _atom_site_symmetry_multiplicity
 _atom_site_fract_x
 _atom_site_fract_y
 _atom_site_fract_z
 _atom_site_occupancy
  Zn  Zn0  1  0.27687737  0.72312263  0.00552160  1
  Zn  Zn1  1  0.72312263  0.27687737  0.00552160  1
  Zn  Zn2  1  -0.00000000  0.50000000  0.16694746  1
  Zn  Zn3  1  0.50000000  0.00000000  0.83312153  1
  Zn  Zn4  1  -0.00000000  0.50000000  0.83312153  1
  Zn  Zn5  1  0.50000000  0.00000000  0.16694746  1
  Zn  Zn6  1  -0.00000000  0.00000000  0.16590140  1
  Zn  Zn7  1  -0.00000000  0.00000000  0.82942179  1
  Zn  Zn8  1  0.72347386  0.72347386  0.66694940  1
  Zn  Zn9  1  0.27652614  0.27652614  0.66694940  1
  Zn  Zn10  1  0.28204034  0.28204034  0.33037436  1
  Zn  Zn11  1  0.71795966  0.71795966  0.33037436  1
  Zn  Zn12  1  -0.00000000  0.00000000  0.50240558  1
  Zn  Zn13  1  -0.00000000  0.50000000  0.50016175  1
  Zn  Zn14  1  0.50000000  0.00000000  0.50016175  1
  Zn  Zn15  1  0.50000000  0.50000000  0.83592364  1
  Pd  Pd0  1  0.21329525  0.78670475  0.33815672  1
  Pd  Pd1  1  0.78670475  0.21329525  0.33815672  1
  Pd  Pd2  1  0.22449381  0.77550619  0.66590616  1
  Pd  Pd3  1  0.77550619  0.22449381  0.66590616  1
  Pd  Pd4  1  0.50000000  0.50000000  0.49809394  1
  Pd  Pd5  1  0.50000000  0.50000000  0.16821098  1
  Pd  Pd6  1  0.77963423  0.77963423  0.99288387  1
  Pd  Pd7  1  0.22036577  0.22036577  0.99288387  1
loop_
_geom_bond_atom_site_label_1
_geom_bond_atom_site_label_2
_geom_bond_distance
_geom_bond_site_symmetry_2
Zn0 Zn15 2.666287 1_554
Zn0 Zn2 2.705757 1_555
Zn0 Zn5 2.705757 1_565
Zn0 Zn4 2.805467 1_554
Zn0 Zn3 2.805467 1_564
Zn1 Zn15 2.666287 1_554
Zn1 Zn5 2.705757 1_555
Zn1 Zn2 2.705757 1_655
Zn1 Zn3 2.805467 1_554
Zn1 Zn4 2.805467 1_654
Zn2 Zn6 2.623037 1_555
Zn2 Zn6 2.623037 1_565
Zn3 Zn7 2.623398 1_655
Zn3 Zn7 2.623398 1_555
Zn3 Zn9 2.772781 1_555
Zn3 Zn8 2.772781 1_545
Zn4 Zn7 2.623398 1_555
Zn4 Zn7 2.623398 1_565
Zn4 Zn8 2.772781 1_455
Zn4 Zn9 2.772781 1_555
Zn5 Zn6 2.623037 1_555
Zn5 Zn6 2.623037 1_655
Zn10 Zn5 2.751365 1_555
Zn10 Zn2 2.751365 1_555
Zn10 Zn13 2.808545 1_555
Zn10 Zn14 2.808545 1_555
Zn11 Zn2 2.751365 1_655
Zn11 Zn5 2.751365 1_565
Zn11 Zn14 2.808545 1_565
Zn11 Zn13 2.808545 1_655
Zn12 Zn13 2.623150 1_555
Zn12 Zn13 2.623150 1_545
Zn12 Zn14 2.623150 1_455
Zn12 Zn14 2.623150 1_555
Zn13 Zn8 2.778319 1_455
Zn13 Zn9 2.778319 1_555
Zn14 Zn8 2.778319 1_545
Zn14 Zn9 2.778319 1_555
Zn15 Zn3 2.623231 1_565
Zn15 Zn3 2.623231 1_555
Zn15 Zn4 2.623231 1_555
Zn15 Zn4 2.623231 1_655
Zn15 Zn9 2.641421 1_555
Zn15 Zn8 2.641421 1_555
Pd0 Zn12 2.569138 1_565
Pd0 Zn10 2.618079 1_565
Pd0 Zn11 2.618079 1_455
Pd0 Zn6 2.646621 1_565
Pd0 Zn11 2.680703 1_555
Pd0 Zn10 2.680703 1_555
Pd0 Zn14 2.717406 1_565
Pd0 Zn13 2.717406 1_555
Pd0 Zn5 2.800776 1_565
Pd0 Zn2 2.800776 1_555
Pd1 Zn12 2.569138 1_655
Pd1 Zn11 2.618079 1_545
Pd1 Zn10 2.618079 1_655
Pd1 Zn6 2.646621 1_655
Pd1 Zn11 2.680703 1_555
Pd1 Zn10 2.680703 1_555
Pd1 Zn13 2.717406 1_655
Pd1 Zn14 2.717406 1_555
Pd1 Zn2 2.800776 1_655
Pd1 Zn5 2.800776 1_555
Pd2 Zn12 2.615126 1_565
Pd2 Zn7 2.615267 1_565
Pd2 Zn8 2.637130 1_455
Pd2 Zn9 2.637130 1_565
Pd2 Zn9 2.637263 1_555
Pd2 Zn8 2.637263 1_555
Pd2 Zn13 2.743907 1_555
Pd2 Zn14 2.743907 1_565
Pd2 Zn4 2.757262 1_555
Pd2 Zn3 2.757262 1_565
Pd2 Zn15 2.932007 1_555
Pd3 Zn12 2.615126 1_655
Pd3 Zn7 2.615267 1_655
Pd3 Zn8 2.637130 1_545
Pd3 Zn9 2.637130 1_655
Pd3 Zn9 2.637263 1_555
Pd3 Zn8 2.637263 1_555
Pd3 Zn13 2.743907 1_655
Pd3 Zn14 2.743907 1_555
Pd3 Zn4 2.757262 1_655
Pd3 Zn3 2.757262 1_555
Pd3 Zn15 2.932007 1_555
Pd4 Zn11 2.604308 1_555
Pd4 Zn10 2.604308 1_555
Pd4 Zn13 2.623128 1_655
Pd4 Zn13 2.623128 1_555
Pd4 Zn14 2.623128 1_555
Pd4 Zn14 2.623128 1_565
Pd4 Zn8 2.640281 1_555
Pd4 Zn9 2.640281 1_555
Pd5 Zn11 2.550977 1_555
Pd5 Zn10 2.550977 1_555
Pd5 Zn0 2.600911 1_555
Pd5 Zn1 2.600911 1_555
Pd5 Zn2 2.623052 1_655
Pd5 Zn5 2.623052 1_565
Pd5 Zn5 2.623052 1_555
Pd5 Zn2 2.623052 1_555
Pd6 Zn7 2.574454 1_665
Pd6 Zn0 2.635724 1_656
Pd6 Zn1 2.635724 1_566
Pd6 Zn1 2.652744 1_556
Pd6 Zn0 2.652744 1_556
Pd6 Zn6 2.666477 1_666
Pd6 Zn4 2.717417 1_655
Pd6 Zn3 2.717417 1_565
Pd6 Zn15 2.813191 1_555
Pd6 Zn5 2.846133 1_566
Pd6 Zn2 2.846133 1_656
Pd7 Zn7 2.574454 1_555
Pd7 Zn1 2.635724 1_456
Pd7 Zn0 2.635724 1_546
Pd7 Zn1 2.652744 1_556
Pd7 Zn0 2.652744 1_556
Pd7 Zn6 2.666477 1_556
Pd7 Zn4 2.717417 1_555
Pd7 Zn3 2.717417 1_555
Pd7 Zn15 2.813191 1_555
Pd7 Zn2 2.846133 1_556
Pd7 Zn5 2.846133 1_556
