# generated using pymatgen
data_LaTi2O6
_symmetry_space_group_name_H-M   'P 1'
_cell_length_a   3.83963400
_cell_length_b   3.83963400
_cell_length_c   8.05397800
_cell_angle_alpha   90.00000000
_cell_angle_beta   90.00000000
_cell_angle_gamma   90.00000000
_symmetry_Int_Tables_number   1
_chemical_formula_structural   LaTi2O6
_chemical_formula_sum   'La1 Ti2 O6'
_cell_volume   118.73810031
_cell_formula_units_Z   1
loop_
 _symmetry_equiv_pos_site_id
 _symmetry_equiv_pos_as_xyz
  1  'x, y, z'
loop_
 _atom_site_type_symbol
 _atom_site_label
 _atom_site_symmetry_multiplicity
 _atom_site_fract_x
 _atom_site_fract_y
 _atom_site_fract_z
 _atom_site_occupancy
  La  La0  1  0.00000000  0.00000000  0.50000000  1
  Ti  Ti0  1  0.50000000  0.50000000  0.77275900  1
  Ti  Ti1  1  0.50000000  0.50000000  0.22724100  1
  O  O0  1  0.50000000  0.00000000  0.72383700  1
  O  O1  1  0.00000000  0.50000000  0.72383700  1
  O  O2  1  0.50000000  0.00000000  0.27616300  1
  O  O3  1  0.00000000  0.50000000  0.27616300  1
  O  O4  1  0.50000000  0.50000000  0.50000000  1
  O  O5  1  0.50000000  0.50000000  0.00000000  1
loop_
_geom_bond_atom_site_label_1
_geom_bond_atom_site_label_2
_geom_bond_distance
_geom_bond_site_symmetry_2
La0 O1 2.633573 1_545
La0 O0 2.633573 1_455
La0 O0 2.633573 1_555
La0 O1 2.633573 1_555
La0 O3 2.633573 1_555
La0 O3 2.633573 1_545
La0 O2 2.633573 1_455
La0 O2 2.633573 1_555
La0 O4 2.715031 1_445
La0 O4 2.715031 1_545
La0 O4 2.715031 1_555
La0 O4 2.715031 1_455
O0 Ti0 1.959833 1_545
O0 Ti0 1.959833 1_555
O1 Ti0 1.959833 1_555
O1 Ti0 1.959833 1_455
O2 Ti1 1.959833 1_545
O2 Ti1 1.959833 1_555
O3 Ti1 1.959833 1_455
O3 Ti1 1.959833 1_555
O4 Ti0 2.196795 1_555
O4 Ti1 2.196795 1_555
O5 Ti1 1.830194 1_555
O5 Ti0 1.830194 1_554
