# generated using pymatgen
data_Li9Mn2Co5O16
_symmetry_space_group_name_H-M   'P 1'
_cell_length_a   4.98446800
_cell_length_b   5.95152423
_cell_length_c   9.84100080
_cell_angle_alpha   88.79058336
_cell_angle_beta   79.04506404
_cell_angle_gamma   88.97451719
_symmetry_Int_Tables_number   1
_chemical_formula_structural   Li9Mn2Co5O16
_chemical_formula_sum   'Li9 Mn2 Co5 O16'
_cell_volume   286.52260827
_cell_formula_units_Z   1
loop_
 _symmetry_equiv_pos_site_id
 _symmetry_equiv_pos_as_xyz
  1  'x, y, z'
loop_
 _atom_site_type_symbol
 _atom_site_label
 _atom_site_symmetry_multiplicity
 _atom_site_fract_x
 _atom_site_fract_y
 _atom_site_fract_z
 _atom_site_occupancy
  Li  Li0  1  0.25054700  0.00106800  0.25537900  1
  Li  Li1  1  0.24642800  0.25309200  0.75251800  1
  Li  Li2  1  0.24928500  0.50023700  0.25585900  1
  Li  Li3  1  0.75477700  0.25315900  0.24907100  1
  Li  Li4  1  0.75183300  0.49118500  0.74533700  1
  Li  Li5  1  0.75578100  0.75434300  0.25153500  1
  Li  Li6  1  0.24368600  0.74547300  0.74853000  1
  Li  Li7  1  0.74805800  0.00321800  0.74183100  1
  Li  Li8  1  0.00041800  0.24882900  0.49938300  1
  Mn  Mn0  1  0.00020000  0.99963100  0.99924100  1
  Mn  Mn1  1  0.50088000  0.49955200  0.49969300  1
  Co  Co0  1  0.99974600  0.50030900  0.00108000  1
  Co  Co1  1  0.00004700  0.74494500  0.49958000  1
  Co  Co2  1  0.49999500  0.74798800  0.99961700  1
  Co  Co3  1  0.49787500  0.01174000  0.50047500  1
  Co  Co4  1  0.50049300  0.25245900  0.00040100  1
  O  O0  1  0.14092100  0.76793300  0.11599700  1
  O  O1  1  0.12917200  0.96993900  0.60565200  1
  O  O2  1  0.13966700  0.27377200  0.11805500  1
  O  O3  1  0.63837900  0.99831400  0.11605300  1
  O  O4  1  0.60022700  0.26132700  0.61585500  1
  O  O5  1  0.64496000  0.49687000  0.11281500  1
  O  O6  1  0.13524300  0.51767400  0.60840000  1
  O  O7  1  0.63559000  0.73579200  0.61100200  1
  O  O8  1  0.40135400  0.26917900  0.38521900  1
  O  O9  1  0.35504000  0.50280300  0.88741000  1
  O  O10  1  0.36324900  0.74162100  0.38919900  1
  O  O11  1  0.86652800  0.52292700  0.39272500  1
  O  O12  1  0.85998300  0.72412800  0.88450600  1
  O  O13  1  0.86675600  0.97536800  0.39309800  1
  O  O14  1  0.36248500  0.00295300  0.88323000  1
  O  O15  1  0.86039400  0.23217000  0.88125300  1
loop_
_geom_bond_atom_site_label_1
_geom_bond_atom_site_label_2
_geom_bond_distance
_geom_bond_site_symmetry_2
Li0 O0 2.120745 1_545
Li0 O13 2.129807 1_445
Li0 O10 2.144390 1_545
Li0 O3 2.147006 1_545
Li0 O2 2.219250 1_555
Li0 O8 2.288649 1_555
Li1 O4 2.004986 1_555
Li1 O14 2.092060 1_555
Li1 O15 2.097224 1_455
Li1 O9 2.156192 1_555
Li1 O6 2.229666 1_555
Li1 O1 2.393639 1_545
Li2 O2 2.083114 1_555
Li2 O8 2.083679 1_555
Li2 O11 2.119910 1_455
Li2 O10 2.121430 1_555
Li2 O5 2.194602 1_555
Li2 O0 2.209898 1_555
Li3 O8 2.002465 1_555
Li3 O5 2.090426 1_555
Li3 O2 2.102278 1_655
Li3 O3 2.180497 1_545
Li3 O13 2.285288 1_545
Li3 O11 2.305138 1_555
Li4 O7 2.093413 1_555
Li4 O12 2.115612 1_555
Li4 O6 2.125120 1_655
Li4 O4 2.131365 1_555
Li4 O15 2.148573 1_555
Li4 O9 2.195329 1_555
Li5 O11 2.077428 1_555
Li5 O13 2.091274 1_555
Li5 O3 2.100662 1_555
Li5 O0 2.121027 1_655
Li5 O10 2.159341 1_555
Li5 O5 2.218575 1_555
Li6 O1 2.070249 1_555
Li6 O6 2.102473 1_555
Li6 O9 2.106695 1_555
Li6 O12 2.119772 1_455
Li6 O7 2.155312 1_555
Li6 O14 2.207402 1_565
Li7 O15 2.109738 1_555
Li7 O1 2.115187 1_645
Li7 O14 2.147903 1_555
Li7 O4 2.160073 1_555
Li7 O7 2.213101 1_545
Li7 O12 2.282036 1_545
Li8 O11 2.088832 1_455
Li8 O1 2.098629 1_545
Li8 O8 2.102444 1_555
Li8 O4 2.104184 1_455
Li8 O6 2.132534 1_555
Li8 O13 2.135929 1_445
Mn0 O14 1.944596 1_565
Mn0 O3 1.945826 1_456
Mn0 O0 1.979522 1_556
Mn0 O15 1.988551 1_465
Mn0 O12 2.207023 1_455
Mn0 O2 2.223160 1_566
Mn1 O4 1.919316 1_555
Mn1 O8 1.922753 1_555
Mn1 O11 1.929482 1_555
Mn1 O6 1.932462 1_555
Mn1 O10 1.977515 1_555
Mn1 O7 2.001473 1_555
Co0 O5 1.896864 1_555
Co0 O9 1.906598 1_654
Co0 O12 1.944689 1_554
Co0 O2 1.958387 1_655
Co0 O0 2.174772 1_655
Co0 O15 2.202302 1_554
Co1 O13 1.895115 1_455
Co1 O6 1.900262 1_555
Co1 O1 1.908444 1_555
Co1 O11 1.910699 1_455
Co1 O10 1.926132 1_555
Co1 O7 1.936324 1_455
Co2 O0 1.936025 1_556
Co2 O12 1.936031 1_555
Co2 O5 2.047853 1_556
Co2 O14 2.066889 1_565
Co2 O9 2.068741 1_555
Co2 O3 2.101800 1_556
Co3 O1 1.947614 1_545
Co3 O13 1.949654 1_545
Co3 O8 1.993265 1_555
Co3 O4 2.018540 1_555
Co3 O7 2.125907 1_545
Co3 O10 2.150843 1_545
Co4 O2 1.948829 1_555
Co4 O15 1.950978 1_554
Co4 O9 2.044442 1_554
Co4 O3 2.059840 1_545
Co4 O5 2.065542 1_555
Co4 O14 2.101943 1_554
