# generated using pymatgen
data_UO3
_symmetry_space_group_name_H-M   'P 1'
_cell_length_a   11.30248997
_cell_length_b   11.28055596
_cell_length_c   6.97424500
_cell_angle_alpha   72.18294124
_cell_angle_beta   71.84016643
_cell_angle_gamma   35.97689234
_symmetry_Int_Tables_number   1
_chemical_formula_structural   UO3
_chemical_formula_sum   'U8 O24'
_cell_volume   494.04512588
_cell_formula_units_Z   8
loop_
 _symmetry_equiv_pos_site_id
 _symmetry_equiv_pos_as_xyz
  1  'x, y, z'
loop_
 _atom_site_type_symbol
 _atom_site_label
 _atom_site_symmetry_multiplicity
 _atom_site_fract_x
 _atom_site_fract_y
 _atom_site_fract_z
 _atom_site_occupancy
  U  U0  1  0.81100200  0.81100200  0.18899800  1
  U  U1  1  0.18899800  0.18899800  0.81100200  1
  U  U2  1  0.43899800  0.43899800  0.06100200  1
  U  U3  1  0.06100200  0.06100200  0.43899800  1
  U  U4  1  0.62500000  0.62500000  0.12500000  1
  U  U5  1  0.12500000  0.62500000  0.62500000  1
  U  U6  1  0.62500000  0.62500000  0.62500000  1
  U  U7  1  0.62500000  0.12500000  0.62500000  1
  O  O0  1  0.71604200  0.71802600  0.08539400  1
  O  O1  1  0.08539400  0.48053900  0.71604200  1
  O  O2  1  0.71802600  0.71604200  0.48053900  1
  O  O3  1  0.48053900  0.08539400  0.71802600  1
  O  O4  1  0.53395800  0.53197400  0.16460600  1
  O  O5  1  0.16460600  0.76946100  0.53395800  1
  O  O6  1  0.53197400  0.53395800  0.76946100  1
  O  O7  1  0.76946100  0.16460600  0.53197400  1
  O  O8  1  0.85510100  0.86216400  0.83483000  1
  O  O9  1  0.83483000  0.44790500  0.85510100  1
  O  O10  1  0.86216400  0.85510100  0.44790500  1
  O  O11  1  0.44790500  0.83483000  0.86216400  1
  O  O12  1  0.39489900  0.38783600  0.41517000  1
  O  O13  1  0.41517000  0.80209500  0.39489900  1
  O  O14  1  0.38783600  0.39489900  0.80209500  1
  O  O15  1  0.80209500  0.41517000  0.38783600  1
  O  O16  1  0.19911000  0.18305300  0.54864900  1
  O  O17  1  0.54864900  0.06918800  0.19911000  1
  O  O18  1  0.18305300  0.19911000  0.06918800  1
  O  O19  1  0.06918800  0.54864900  0.18305300  1
  O  O20  1  0.05089000  0.06694700  0.70135100  1
  O  O21  1  0.70135100  0.18081200  0.05089000  1
  O  O22  1  0.06694700  0.05089000  0.18081200  1
  O  O23  1  0.18081200  0.70135100  0.06694700  1
loop_
_geom_bond_atom_site_label_1
_geom_bond_atom_site_label_2
_geom_bond_distance
_geom_bond_site_symmetry_2
O0 U4 1.905122 1_555
O0 U0 2.354390 1_555
O1 U5 1.905111 1_555
O1 U1 2.354401 1_555
O2 U6 1.905120 1_555
O2 U0 2.354394 1_555
O3 U7 1.905111 1_555
O3 U1 2.354401 1_555
O4 U4 1.905122 1_555
O4 U2 2.354390 1_555
O5 U5 1.905111 1_555
O5 U3 2.354401 1_565
O6 U6 1.905120 1_555
O6 U2 2.354394 1_556
O7 U7 1.905111 1_555
O7 U3 2.354401 1_655
O8 U7 2.221040 1_565
O8 U5 2.238071 1_655
O8 U0 2.347012 1_556
O9 U6 2.221040 1_555
O9 U4 2.238071 1_556
O9 U1 2.347012 1_655
O10 U5 2.221040 1_655
O10 U7 2.238071 1_565
O10 U0 2.347012 1_555
O11 U4 2.221040 1_556
O11 U6 2.238071 1_555
O11 U1 2.347012 1_565
O12 U7 2.221040 1_555
O12 U5 2.238071 1_555
O12 U2 2.347012 1_555
O13 U6 2.221040 1_555
O13 U4 2.238071 1_555
O13 U3 2.347012 1_565
O14 U5 2.221040 1_555
O14 U7 2.238071 1_555
O14 U2 2.347012 1_556
O15 U4 2.221040 1_555
O15 U6 2.238071 1_555
O15 U3 2.347012 1_655
O16 U1 1.815970 1_555
O17 U0 1.815970 1_545
O18 U1 1.815970 1_554
O19 U0 1.815970 1_455
O20 U3 1.815970 1_555
O21 U2 1.815970 1_555
O22 U3 1.815970 1_555
O23 U2 1.815970 1_555
