# generated using pymatgen
data_Er2AlFe3
_symmetry_space_group_name_H-M   'P 1'
_cell_length_a   5.22536669
_cell_length_b   5.22536669
_cell_length_c   5.24884295
_cell_angle_alpha   89.99577264
_cell_angle_beta   60.17455883
_cell_angle_gamma   120.02198707
_symmetry_Int_Tables_number   1
_chemical_formula_structural   Er2AlFe3
_chemical_formula_sum   'Er2 Al1 Fe3'
_cell_volume   101.56952837
_cell_formula_units_Z   1
loop_
 _symmetry_equiv_pos_site_id
 _symmetry_equiv_pos_as_xyz
  1  'x, y, z'
loop_
 _atom_site_type_symbol
 _atom_site_label
 _atom_site_symmetry_multiplicity
 _atom_site_fract_x
 _atom_site_fract_y
 _atom_site_fract_z
 _atom_site_occupancy
  Er  Er0  1  0.50531633  0.75257063  0.74211304  1
  Er  Er1  1  0.99468367  0.99742937  0.00788696  1
  Al  Al0  1  0.75000000  0.37500000  0.87500000  1
  Fe  Fe0  1  0.25000000  0.37500000  0.37500000  1
  Fe  Fe1  1  0.25000000  0.87500000  0.37500000  1
  Fe  Fe2  1  0.75000000  0.37500000  0.37500000  1
loop_
_geom_bond_atom_site_label_1
_geom_bond_atom_site_label_2
_geom_bond_distance
_geom_bond_site_symmetry_2
Er0 Fe0 3.051104 1_665
Er0 Fe0 3.051104 1_555
Er0 Fe2 3.051753 1_565
Er0 Fe1 3.051754 1_555
Er0 Fe1 3.051941 1_655
Er0 Fe2 3.051941 1_555
Er0 Fe0 3.108740 1_556
Er0 Fe2 3.109702 1_456
Er0 Fe1 3.109703 1_556
Er0 Er1 3.154462 1_555
Er0 Er1 3.224384 1_446
Er0 Er1 3.224384 1_556
Er0 Er1 3.227469 1_456
Er1 Fe0 3.051104 1_555
Er1 Fe0 3.051104 1_665
Er1 Fe2 3.051753 1_555
Er1 Fe1 3.051754 1_655
Er1 Fe1 3.051941 1_555
Er1 Fe2 3.051941 1_565
Er1 Fe0 3.108740 1_664
Er1 Fe2 3.109702 1_664
Er1 Fe1 3.109703 1_654
Al0 Fe1 2.624421 1_546
Al0 Fe1 2.624421 1_655
Al0 Fe2 2.624421 1_555
Al0 Fe2 2.624421 1_556
Al0 Fe0 2.625478 1_655
Al0 Fe0 2.625478 1_556
Al0 Er0 3.069990 1_555
Al0 Er1 3.069990 1_546
Al0 Er0 3.070133 1_655
Al0 Er1 3.070133 1_446
Al0 Er0 3.070133 1_545
Al0 Er1 3.070133 1_556
Fe0 Fe2 2.612683 1_555
Fe0 Fe2 2.612683 1_455
Fe0 Fe1 2.612683 1_555
Fe0 Fe1 2.612683 1_545
Fe1 Fe2 2.611815 1_565
Fe1 Fe2 2.611815 1_455
