# generated using pymatgen
data_KMg14Cr
_symmetry_space_group_name_H-M   'P 1'
_cell_length_a   6.45833925
_cell_length_b   6.45833871
_cell_length_c   10.51880573
_cell_angle_alpha   90.00000000
_cell_angle_beta   90.00000000
_cell_angle_gamma   120.00000270
_symmetry_Int_Tables_number   1
_chemical_formula_structural   KMg14Cr
_chemical_formula_sum   'K1 Mg14 Cr1'
_cell_volume   379.96074168
_cell_formula_units_Z   1
loop_
 _symmetry_equiv_pos_site_id
 _symmetry_equiv_pos_as_xyz
  1  'x, y, z'
loop_
 _atom_site_type_symbol
 _atom_site_label
 _atom_site_symmetry_multiplicity
 _atom_site_fract_x
 _atom_site_fract_y
 _atom_site_fract_z
 _atom_site_occupancy
  K  K0  1  0.16666700  0.33333300  0.12500000  1
  Mg  Mg0  1  0.17134220  0.83567060  0.12500000  1
  Mg  Mg1  1  0.16504671  0.83252285  0.62500000  1
  Mg  Mg2  1  0.66432940  0.32865780  0.12500000  1
  Mg  Mg3  1  0.66747715  0.33495329  0.62500000  1
  Mg  Mg4  1  0.66432940  0.83567060  0.12500000  1
  Mg  Mg5  1  0.66747715  0.83252285  0.62500000  1
  Mg  Mg6  1  0.33498000  0.16502000  0.39112881  1
  Mg  Mg7  1  0.33498000  0.16502000  0.85887119  1
  Mg  Mg8  1  0.33498000  0.66996100  0.39112881  1
  Mg  Mg9  1  0.33498000  0.66996100  0.85887119  1
  Mg  Mg10  1  0.83003900  0.16502000  0.39112881  1
  Mg  Mg11  1  0.83003900  0.16502000  0.85887119  1
  Mg  Mg12  1  0.83333300  0.66666700  0.36994936  1
  Mg  Mg13  1  0.83333300  0.66666700  0.88005064  1
  Cr  Cr0  1  0.16666700  0.33333300  0.62500000  1
loop_
_geom_bond_atom_site_label_1
_geom_bond_atom_site_label_2
_geom_bond_distance
_geom_bond_site_symmetry_2
K0 Mg0 3.229275 1_555
K0 Mg4 3.229275 1_555
K0 Mg0 3.229275 1_545
K0 Mg4 3.229275 1_445
K0 Mg2 3.229275 1_555
K0 Mg2 3.229275 1_455
K0 Mg7 3.373611 1_554
K0 Mg6 3.373611 1_555
K0 Mg9 3.373618 1_554
K0 Mg8 3.373618 1_555
K0 Mg11 3.373618 1_454
K0 Mg10 3.373618 1_455
Mg0 Mg2 3.183878 1_565
Mg0 Mg4 3.183879 1_555
Mg0 Mg12 3.195744 1_455
Mg0 Mg13 3.195744 1_454
Mg0 Mg2 3.274460 1_455
Mg0 Mg4 3.274461 1_455
Mg0 Mg8 3.351069 1_555
Mg0 Mg9 3.351069 1_554
Mg0 Mg7 3.351075 1_564
Mg0 Mg6 3.351075 1_565
Mg1 Mg8 3.083955 1_555
Mg1 Mg9 3.083955 1_555
Mg1 Mg6 3.083962 1_565
Mg1 Mg7 3.083962 1_565
Mg1 Mg3 3.213473 1_455
Mg1 Mg5 3.213473 1_455
Mg1 Mg3 3.244866 1_565
Mg1 Mg5 3.244866 1_555
Mg1 Mg13 3.261858 1_455
Mg1 Mg12 3.261858 1_455
Mg2 Mg4 3.183878 1_545
Mg2 Mg4 3.274460 1_555
Mg2 Mg6 3.351075 1_555
Mg2 Mg7 3.351075 1_554
Mg3 Mg6 3.083962 1_555
Mg3 Mg7 3.083962 1_555
Mg3 Mg5 3.213473 1_555
Mg3 Mg5 3.244866 1_545
Mg4 Mg8 3.351075 1_555
Mg4 Mg9 3.351075 1_554
Mg5 Mg9 3.083962 1_555
Mg5 Mg8 3.083962 1_555
Mg6 Mg8 3.197259 1_545
Mg6 Mg8 3.261080 1_555
Mg7 Mg9 3.197259 1_545
Mg7 Mg9 3.261080 1_555
Mg10 Mg3 3.083955 1_555
Mg10 Mg5 3.083962 1_545
Mg10 Mg8 3.197259 1_545
Mg10 Mg6 3.197259 1_555
Mg10 Mg12 3.236898 1_555
Mg10 Mg12 3.236898 1_545
Mg10 Mg8 3.261080 1_655
Mg10 Mg6 3.261080 1_655
Mg10 Mg2 3.351069 1_555
Mg10 Mg4 3.351075 1_545
Mg11 Mg3 3.083955 1_555
Mg11 Mg5 3.083962 1_545
Mg11 Mg9 3.197259 1_545
Mg11 Mg7 3.197259 1_555
Mg11 Mg13 3.236898 1_555
Mg11 Mg13 3.236898 1_545
Mg11 Mg9 3.261080 1_655
Mg11 Mg7 3.261080 1_655
Mg11 Mg2 3.351069 1_556
Mg11 Mg4 3.351075 1_546
Mg12 Mg4 3.195738 1_555
Mg12 Mg2 3.195744 1_555
Mg12 Mg6 3.236898 1_555
Mg12 Mg6 3.236898 1_665
Mg12 Mg8 3.236898 1_555
Mg12 Mg8 3.236898 1_655
Mg12 Mg5 3.261851 1_555
Mg12 Mg3 3.261858 1_555
Mg13 Mg4 3.195738 1_556
Mg13 Mg2 3.195744 1_556
Mg13 Mg7 3.236898 1_555
Mg13 Mg7 3.236898 1_665
Mg13 Mg9 3.236898 1_555
Mg13 Mg9 3.236898 1_655
Mg13 Mg5 3.261851 1_555
Mg13 Mg3 3.261858 1_555
Cr0 Mg6 3.097850 1_555
Cr0 Mg7 3.097850 1_555
Cr0 Mg8 3.097857 1_555
Cr0 Mg9 3.097857 1_555
Cr0 Mg10 3.097857 1_455
Cr0 Mg11 3.097857 1_455
Cr0 Mg1 3.229182 1_555
Cr0 Mg5 3.229182 1_445
Cr0 Mg5 3.229182 1_555
Cr0 Mg1 3.229182 1_545
Cr0 Mg3 3.229182 1_455
Cr0 Mg3 3.229182 1_555
