# generated using pymatgen
data_Cr3BO6
_symmetry_space_group_name_H-M   'P 1'
_cell_length_a   4.47988600
_cell_length_b   8.57687800
_cell_length_c   10.10055700
_cell_angle_alpha   90.00000000
_cell_angle_beta   90.00000000
_cell_angle_gamma   90.00000000
_symmetry_Int_Tables_number   1
_chemical_formula_structural   Cr3BO6
_chemical_formula_sum   'Cr12 B4 O24'
_cell_volume   388.09810218
_cell_formula_units_Z   4
loop_
 _symmetry_equiv_pos_site_id
 _symmetry_equiv_pos_as_xyz
  1  'x, y, z'
loop_
 _atom_site_type_symbol
 _atom_site_label
 _atom_site_symmetry_multiplicity
 _atom_site_fract_x
 _atom_site_fract_y
 _atom_site_fract_z
 _atom_site_occupancy
  Cr  Cr0  1  0.47393800  0.75000000  0.90685000  1
  Cr  Cr1  1  0.97393800  0.25000000  0.59315000  1
  Cr  Cr2  1  0.52606200  0.25000000  0.09315000  1
  Cr  Cr3  1  0.02606200  0.75000000  0.40685000  1
  Cr  Cr4  1  0.50250300  0.43073700  0.36977900  1
  Cr  Cr5  1  0.00250300  0.56926300  0.13022100  1
  Cr  Cr6  1  0.49749700  0.93073700  0.63022100  1
  Cr  Cr7  1  0.99749700  0.06926300  0.86977900  1
  Cr  Cr8  1  0.49749700  0.56926300  0.63022100  1
  Cr  Cr9  1  0.99749700  0.43073700  0.86977900  1
  Cr  Cr10  1  0.50250300  0.06926300  0.36977900  1
  Cr  Cr11  1  0.00250300  0.93073700  0.13022100  1
  B  B0  1  0.08134200  0.25000000  0.27716100  1
  B  B1  1  0.91865800  0.75000000  0.72283900  1
  B  B2  1  0.41865800  0.25000000  0.77716100  1
  B  B3  1  0.58134200  0.75000000  0.22283900  1
  O  O0  1  0.78278300  0.75000000  0.58458200  1
  O  O1  1  0.28278300  0.25000000  0.91541800  1
  O  O2  1  0.21721700  0.25000000  0.41541800  1
  O  O3  1  0.71721700  0.75000000  0.08458200  1
  O  O4  1  0.76503100  0.42138400  0.03074400  1
  O  O5  1  0.26503100  0.57861600  0.46925600  1
  O  O6  1  0.23496900  0.92138400  0.96925600  1
  O  O7  1  0.73496900  0.07861600  0.53074400  1
  O  O8  1  0.25587500  0.75000000  0.22466300  1
  O  O9  1  0.24412500  0.75000000  0.72466300  1
  O  O10  1  0.75587500  0.25000000  0.27533700  1
  O  O11  1  0.74412500  0.25000000  0.77533700  1
  O  O12  1  0.72843900  0.88854500  0.28975100  1
  O  O13  1  0.22843900  0.11145500  0.21024900  1
  O  O14  1  0.27156100  0.38854500  0.71024900  1
  O  O15  1  0.77156100  0.61145500  0.78975100  1
  O  O16  1  0.27156100  0.11145500  0.71024900  1
  O  O17  1  0.77156100  0.88854500  0.78975100  1
  O  O18  1  0.72843900  0.61145500  0.28975100  1
  O  O19  1  0.22843900  0.38854500  0.21024900  1
  O  O20  1  0.26503100  0.92138400  0.46925600  1
  O  O21  1  0.76503100  0.07861600  0.03074400  1
  O  O22  1  0.73496900  0.42138400  0.53074400  1
  O  O23  1  0.23496900  0.57861600  0.96925600  1
loop_
_geom_bond_atom_site_label_1
_geom_bond_atom_site_label_2
_geom_bond_distance
_geom_bond_site_symmetry_2
Cr0 O23 1.924612 1_555
Cr0 O6 1.924612 1_555
Cr0 O3 2.100123 1_556
Cr0 O9 2.108612 1_555
Cr0 O17 2.142122 1_555
Cr0 O15 2.142122 1_555
Cr1 O22 1.924612 1_555
Cr1 O7 1.924612 1_555
Cr1 O2 2.100123 1_655
Cr1 O11 2.108612 1_555
Cr1 O14 2.142122 1_655
Cr1 O16 2.142122 1_655
Cr2 O4 1.924612 1_555
Cr2 O21 1.924612 1_555
Cr2 O1 2.100123 1_554
Cr2 O10 2.108612 1_555
Cr2 O19 2.142122 1_555
Cr2 O13 2.142122 1_555
Cr3 O20 1.924612 1_555
Cr3 O5 1.924612 1_555
Cr3 O0 2.100123 1_455
Cr3 O8 2.108612 1_555
Cr3 O12 2.142122 1_455
Cr3 O18 2.142122 1_455
Cr4 O22 1.932443 1_555
Cr4 O5 1.936499 1_555
Cr4 O18 2.019991 1_555
Cr4 O19 2.057865 1_555
Cr4 O2 2.061287 1_555
Cr4 O10 2.145076 1_555
Cr5 O23 1.932443 1_554
Cr5 O4 1.936499 1_455
Cr5 O19 2.019991 1_555
Cr5 O18 2.057865 1_455
Cr5 O3 2.061287 1_455
Cr5 O8 2.145076 1_555
Cr6 O20 1.932443 1_555
Cr6 O7 1.936499 1_565
Cr6 O16 2.019991 1_565
Cr6 O17 2.057865 1_555
Cr6 O0 2.061287 1_555
Cr6 O9 2.145076 1_555
Cr7 O21 1.932443 1_556
Cr7 O6 1.936499 1_645
Cr7 O17 2.019991 1_545
Cr7 O16 2.057865 1_655
Cr7 O1 2.061287 1_655
Cr7 O11 2.145076 1_555
Cr8 O5 1.932443 1_555
Cr8 O22 1.936499 1_555
Cr8 O14 2.019991 1_555
Cr8 O15 2.057865 1_555
Cr8 O0 2.061287 1_555
Cr8 O9 2.145076 1_555
Cr9 O4 1.932443 1_556
Cr9 O23 1.936499 1_655
Cr9 O15 2.019991 1_555
Cr9 O14 2.057865 1_655
Cr9 O1 2.061287 1_655
Cr9 O11 2.145076 1_555
Cr10 O7 1.932443 1_555
Cr10 O20 1.936499 1_545
Cr10 O12 2.019991 1_545
Cr10 O13 2.057865 1_555
Cr10 O2 2.061287 1_555
Cr10 O10 2.145076 1_555
Cr11 O6 1.932443 1_554
Cr11 O21 1.936499 1_465
Cr11 O13 2.019991 1_565
Cr11 O12 2.057865 1_455
Cr11 O3 2.061287 1_455
Cr11 O8 2.145076 1_555
B0 O10 1.458171 1_455
B0 O19 1.517577 1_555
B0 O13 1.517577 1_555
B0 O2 1.523370 1_555
B1 O9 1.458171 1_655
B1 O17 1.517577 1_555
B1 O15 1.517577 1_555
B1 O0 1.523370 1_555
B2 O11 1.458171 1_555
B2 O16 1.517577 1_555
B2 O14 1.517577 1_555
B2 O1 1.523370 1_555
B3 O8 1.458171 1_555
B3 O12 1.517577 1_555
B3 O18 1.517577 1_555
B3 O3 1.523370 1_555
