# generated using pymatgen
data_U2Ni3As4
_symmetry_space_group_name_H-M   'P 1'
_cell_length_a   4.08920700
_cell_length_b   4.08920700
_cell_length_c   9.20161100
_cell_angle_alpha   90.00000000
_cell_angle_beta   90.00000000
_cell_angle_gamma   90.00000000
_symmetry_Int_Tables_number   1
_chemical_formula_structural   U2Ni3As4
_chemical_formula_sum   'U2 Ni3 As4'
_cell_volume   153.86578630
_cell_formula_units_Z   1
loop_
 _symmetry_equiv_pos_site_id
 _symmetry_equiv_pos_as_xyz
  1  'x, y, z'
loop_
 _atom_site_type_symbol
 _atom_site_label
 _atom_site_symmetry_multiplicity
 _atom_site_fract_x
 _atom_site_fract_y
 _atom_site_fract_z
 _atom_site_occupancy
  U  U0  1  0.75000000  0.75000000  0.74976300  1
  U  U1  1  0.25000000  0.25000000  0.25086900  1
  Ni  Ni0  1  0.75000000  0.25000000  0.49958400  1
  Ni  Ni1  1  0.25000000  0.75000000  0.49958400  1
  Ni  Ni2  1  0.75000000  0.75000000  0.11537800  1
  As  As0  1  0.75000000  0.75000000  0.36513700  1
  As  As1  1  0.25000000  0.25000000  0.64611500  1
  As  As2  1  0.75000000  0.25000000  0.99133500  1
  As  As3  1  0.25000000  0.75000000  0.99133500  1
loop_
_geom_bond_atom_site_label_1
_geom_bond_atom_site_label_2
_geom_bond_distance
_geom_bond_site_symmetry_2
Ni0 U1 3.068875 1_655
Ni0 U1 3.068875 1_555
Ni0 U0 3.078934 1_545
Ni0 U0 3.078934 1_555
Ni1 U1 3.068875 1_555
Ni1 U1 3.068875 1_565
Ni1 U0 3.078934 1_455
Ni1 U0 3.078934 1_555
Ni2 U1 3.148834 1_555
Ni2 U1 3.148834 1_565
Ni2 U1 3.148834 1_655
Ni2 U1 3.148834 1_665
As0 Ni2 2.298185 1_555
As0 Ni1 2.389747 1_555
As0 Ni1 2.389747 1_655
As0 Ni0 2.389747 1_555
As0 Ni0 2.389747 1_565
As0 U1 3.076744 1_665
As0 U1 3.076744 1_555
As0 U1 3.076744 1_565
As0 U1 3.076744 1_655
As1 Ni0 2.449158 1_455
As1 Ni0 2.449158 1_555
As1 Ni1 2.449158 1_545
As1 Ni1 2.449158 1_555
As1 U0 3.044734 1_555
As1 U0 3.044734 1_445
As1 U0 3.044734 1_455
As1 U0 3.044734 1_545
As2 Ni2 2.341621 1_546
As2 Ni2 2.341621 1_556
As2 As3 2.891506 1_555
As2 As3 2.891506 1_655
As2 As3 2.891506 1_545
As2 As3 2.891506 1_645
As2 U0 3.020178 1_545
As2 U0 3.020178 1_555
As2 U1 3.143815 1_656
As2 U1 3.143815 1_556
As3 Ni2 2.341621 1_556
As3 Ni2 2.341621 1_456
As3 U0 3.020178 1_555
As3 U0 3.020178 1_455
As3 U1 3.143815 1_566
As3 U1 3.143815 1_556
