# generated using pymatgen
data_V3P3O13
_symmetry_space_group_name_H-M   'P 1'
_cell_length_a   6.37654400
_cell_length_b   7.62652700
_cell_length_c   10.37980519
_cell_angle_alpha   81.02418317
_cell_angle_beta   90.00000000
_cell_angle_gamma   90.00000000
_symmetry_Int_Tables_number   1
_chemical_formula_structural   V3P3O13
_chemical_formula_sum   'V6 P6 O26'
_cell_volume   498.59772857
_cell_formula_units_Z   2
loop_
 _symmetry_equiv_pos_site_id
 _symmetry_equiv_pos_as_xyz
  1  'x, y, z'
loop_
 _atom_site_type_symbol
 _atom_site_label
 _atom_site_symmetry_multiplicity
 _atom_site_fract_x
 _atom_site_fract_y
 _atom_site_fract_z
 _atom_site_occupancy
  V  V0  1  0.25000000  0.64453800  0.19143100  1
  V  V1  1  0.75000000  0.35546200  0.80856900  1
  V  V2  1  0.25000000  0.20902500  0.44463300  1
  V  V3  1  0.50000000  0.00000000  0.00000000  1
  V  V4  1  0.75000000  0.79097500  0.55536700  1
  V  V5  1  0.00000000  0.00000000  0.00000000  1
  P  P0  1  0.25000000  0.78266800  0.47991600  1
  P  P1  1  0.75000000  0.21733200  0.52008400  1
  P  P2  1  0.25000000  0.25806300  0.76718500  1
  P  P3  1  0.75000000  0.74193700  0.23281500  1
  P  P4  1  0.75000000  0.69778700  0.87690900  1
  P  P5  1  0.25000000  0.30221300  0.12309100  1
  O  O0  1  0.75000000  0.66575700  0.73038800  1
  O  O1  1  0.55231800  0.24937000  0.43575200  1
  O  O2  1  0.25000000  0.20870600  0.62464800  1
  O  O3  1  0.55030700  0.79363600  0.90846000  1
  O  O4  1  0.75000000  0.33832600  0.62399600  1
  O  O5  1  0.75000000  0.13213400  0.90454800  1
  O  O6  1  0.25000000  0.66167400  0.37600400  1
  O  O7  1  0.05030700  0.20636400  0.09154000  1
  O  O8  1  0.25000000  0.98309700  0.40877800  1
  O  O9  1  0.75000000  0.01690300  0.59122200  1
  O  O10  1  0.05452500  0.36624400  0.78566500  1
  O  O11  1  0.25000000  0.86786600  0.09545200  1
  O  O12  1  0.55452500  0.63375600  0.21433500  1
  O  O13  1  0.75000000  0.49694600  0.94221500  1
  O  O14  1  0.75000000  0.79129400  0.37535200  1
  O  O15  1  0.44969300  0.20636400  0.09154000  1
  O  O16  1  0.94768200  0.24937000  0.43575200  1
  O  O17  1  0.44768200  0.75063000  0.56424800  1
  O  O18  1  0.44547500  0.36624400  0.78566500  1
  O  O19  1  0.25000000  0.33424300  0.26961200  1
  O  O20  1  0.75000000  0.91852300  0.13309600  1
  O  O21  1  0.25000000  0.08147700  0.86690400  1
  O  O22  1  0.94547500  0.63375600  0.21433500  1
  O  O23  1  0.94969300  0.79363600  0.90846000  1
  O  O24  1  0.05231800  0.75063000  0.56424800  1
  O  O25  1  0.25000000  0.50305400  0.05778500  1
loop_
_geom_bond_atom_site_label_1
_geom_bond_atom_site_label_2
_geom_bond_distance
_geom_bond_site_symmetry_2
O0 P4 1.577533 1_555
O0 V4 1.915979 1_555
O0 V1 2.378971 1_555
O1 P1 1.532361 1_555
O1 V2 1.952055 1_555
O2 P2 1.582533 1_555
O2 V2 1.868143 1_555
O3 P4 1.528963 1_555
O3 V3 1.987289 1_566
O4 P1 1.524928 1_555
O4 V1 1.940520 1_555
O5 V1 1.834116 1_555
O5 V5 2.055934 1_656
O5 V3 2.055934 1_556
O6 P0 1.524928 1_555
O6 V0 1.940520 1_555
O7 P5 1.528963 1_555
O7 V5 1.987289 1_555
O8 P0 1.590467 1_555
O8 V2 1.818651 1_565
O9 P1 1.590467 1_555
O9 V4 1.818651 1_545
O10 P2 1.523327 1_555
O10 V1 1.956485 1_455
O11 V0 1.834116 1_555
O11 V3 2.055934 1_565
O11 V5 2.055934 1_565
O12 P3 1.523327 1_555
O12 V0 1.956485 1_555
O13 P4 1.575334 1_555
O13 V1 1.885672 1_555
O14 P3 1.582533 1_555
O14 V4 1.868143 1_555
O15 P5 1.528963 1_555
O15 V3 1.987289 1_555
O16 P1 1.532361 1_555
O16 V2 1.952055 1_655
O17 P0 1.532361 1_555
O17 V4 1.952055 1_555
O18 P2 1.523327 1_555
O18 V1 1.956485 1_555
O19 P5 1.577533 1_555
O19 V2 1.915979 1_555
O19 V0 2.378971 1_555
O20 P3 1.565278 1_555
O20 V5 2.137310 1_665
O20 V3 2.137310 1_565
O21 P2 1.565278 1_555
O21 V3 2.137310 1_556
O21 V5 2.137310 1_556
O22 P3 1.523327 1_555
O22 V0 1.956485 1_655
O23 P4 1.528963 1_555
O23 V5 1.987289 1_666
O24 P0 1.532361 1_555
O24 V4 1.952055 1_455
O25 P5 1.575334 1_555
O25 V0 1.885672 1_555
