# generated using pymatgen
data_Mg14CrCO16
_symmetry_space_group_name_H-M   'P 1'
_cell_length_a   8.45411242
_cell_length_b   8.73737519
_cell_length_c   4.20850290
_cell_angle_alpha   90.00000000
_cell_angle_beta   90.00000000
_cell_angle_gamma   90.00000000
_symmetry_Int_Tables_number   1
_chemical_formula_structural   Mg14CrCO16
_chemical_formula_sum   'Mg14 Cr1 C1 O16'
_cell_volume   310.86844048
_cell_formula_units_Z   1
loop_
 _symmetry_equiv_pos_site_id
 _symmetry_equiv_pos_as_xyz
  1  'x, y, z'
loop_
 _atom_site_type_symbol
 _atom_site_label
 _atom_site_symmetry_multiplicity
 _atom_site_fract_x
 _atom_site_fract_y
 _atom_site_fract_z
 _atom_site_occupancy
  Mg  Mg0  1  0.50000000  0.00000000  0.00000000  1
  Mg  Mg1  1  0.50000000  0.50000000  0.00000000  1
  Mg  Mg2  1  0.00000000  0.25724651  0.50000000  1
  Mg  Mg3  1  0.00000000  0.74275349  0.50000000  1
  Mg  Mg4  1  0.50000000  0.25156744  0.50000000  1
  Mg  Mg5  1  0.50000000  0.74843256  0.50000000  1
  Mg  Mg6  1  0.25072740  0.00000000  0.50000000  1
  Mg  Mg7  1  0.24591025  0.50000000  0.50000000  1
  Mg  Mg8  1  0.74927260  0.00000000  0.50000000  1
  Mg  Mg9  1  0.75408975  0.50000000  0.50000000  1
  Mg  Mg10  1  0.24572048  0.25547799  0.00000000  1
  Mg  Mg11  1  0.24572048  0.74452201  0.00000000  1
  Mg  Mg12  1  0.75427952  0.25547799  0.00000000  1
  Mg  Mg13  1  0.75427952  0.74452201  0.00000000  1
  Cr  Cr0  1  0.00000000  0.00000000  0.00000000  1
  C  C0  1  0.00000000  0.50000000  0.00000000  1
  O  O0  1  0.24656109  0.00000000  0.00000000  1
  O  O1  1  0.25529660  0.50000000  0.00000000  1
  O  O2  1  0.75343891  0.00000000  0.00000000  1
  O  O3  1  0.74470340  0.50000000  0.00000000  1
  O  O4  1  0.24849484  0.25046655  0.50000000  1
  O  O5  1  0.24849484  0.74953345  0.50000000  1
  O  O6  1  0.75150516  0.25046655  0.50000000  1
  O  O7  1  0.75150516  0.74953345  0.50000000  1
  O  O8  1  0.00000000  0.00000000  0.50000000  1
  O  O9  1  0.00000000  0.50000000  0.50000000  1
  O  O10  1  0.50000000  0.00000000  0.50000000  1
  O  O11  1  0.50000000  0.50000000  0.50000000  1
  O  O12  1  0.00000000  0.22515561  0.00000000  1
  O  O13  1  0.00000000  0.77484439  0.00000000  1
  O  O14  1  0.50000000  0.24760433  0.00000000  1
  O  O15  1  0.50000000  0.75239567  0.00000000  1
loop_
_geom_bond_atom_site_label_1
_geom_bond_atom_site_label_2
_geom_bond_distance
_geom_bond_site_symmetry_2
Mg0 O10 2.104251 1_555
Mg0 O10 2.104251 1_554
Mg0 O0 2.142601 1_555
Mg0 O2 2.142601 1_555
Mg0 O14 2.163412 1_555
Mg0 O15 2.163412 1_545
Mg1 O3 2.068750 1_555
Mg1 O1 2.068750 1_555
Mg1 O11 2.104251 1_554
Mg1 O11 2.104251 1_555
Mg1 O15 2.205276 1_555
Mg1 O14 2.205276 1_555
Mg2 O4 2.101638 1_555
Mg2 O6 2.101638 1_455
Mg2 O9 2.121028 1_555
Mg2 O12 2.122850 1_556
Mg2 O12 2.122850 1_555
Mg2 O8 2.247659 1_555
Mg3 O7 2.101638 1_455
Mg3 O5 2.101638 1_555
Mg3 O9 2.121028 1_555
Mg3 O13 2.122850 1_555
Mg3 O13 2.122850 1_556
Mg3 O8 2.247659 1_565
Mg4 O14 2.104536 1_556
Mg4 O14 2.104536 1_555
Mg4 O4 2.126275 1_555
Mg4 O6 2.126275 1_555
Mg4 O11 2.170648 1_555
Mg4 O10 2.198039 1_555
Mg5 O15 2.104536 1_556
Mg5 O15 2.104536 1_555
Mg5 O5 2.126275 1_555
Mg5 O7 2.126275 1_555
Mg5 O11 2.170648 1_555
Mg5 O10 2.198039 1_565
Mg6 O0 2.104546 1_555
Mg6 O0 2.104546 1_556
Mg6 O10 2.107379 1_555
Mg6 O8 2.119678 1_555
Mg6 O5 2.188502 1_545
Mg6 O4 2.188502 1_555
Mg7 O9 2.078953 1_555
Mg7 O1 2.105747 1_556
Mg7 O1 2.105747 1_555
Mg7 O11 2.148103 1_555
Mg7 O4 2.180377 1_555
Mg7 O5 2.180377 1_555
Mg8 O2 2.104546 1_556
Mg8 O2 2.104546 1_555
Mg8 O10 2.107379 1_555
Mg8 O8 2.119678 1_655
Mg8 O7 2.188502 1_545
Mg8 O6 2.188502 1_555
Mg9 O9 2.078953 1_655
Mg9 O3 2.105747 1_556
Mg9 O3 2.105747 1_555
Mg9 O11 2.148103 1_555
Mg9 O6 2.180377 1_555
Mg9 O7 2.180377 1_555
Mg10 O12 2.094175 1_555
Mg10 O4 2.104838 1_554
Mg10 O4 2.104838 1_555
Mg10 O1 2.138014 1_555
Mg10 O14 2.150808 1_555
Mg10 O0 2.232218 1_555
Mg11 O13 2.094175 1_555
Mg11 O5 2.104838 1_554
Mg11 O5 2.104838 1_555
Mg11 O1 2.138014 1_555
Mg11 O15 2.150808 1_555
Mg11 O0 2.232218 1_565
Mg12 O12 2.094175 1_655
Mg12 O6 2.104838 1_555
Mg12 O6 2.104838 1_554
Mg12 O3 2.138014 1_555
Mg12 O14 2.150808 1_555
Mg12 O2 2.232218 1_555
Mg13 O13 2.094175 1_655
Mg13 O7 2.104838 1_555
Mg13 O7 2.104838 1_554
Mg13 O3 2.138014 1_555
Mg13 O15 2.150808 1_555
Mg13 O2 2.232218 1_565
Cr0 O13 1.967269 1_545
Cr0 O12 1.967269 1_555
Cr0 O0 2.084455 1_555
Cr0 O2 2.084455 1_455
Cr0 O8 2.104251 1_554
Cr0 O8 2.104251 1_555
C0 O9 2.104251 1_555
C0 O9 2.104251 1_554
C0 O3 2.158306 1_455
C0 O1 2.158306 1_555
