# generated using pymatgen
data_VCo2Ni
_symmetry_space_group_name_H-M   'P 1'
_cell_length_a   5.01273848
_cell_length_b   5.01273900
_cell_length_c   6.69910524
_cell_angle_alpha   68.02914617
_cell_angle_beta   68.02914543
_cell_angle_gamma   60.00000314
_symmetry_Int_Tables_number   1
_chemical_formula_structural   VCo2Ni
_chemical_formula_sum   'V3 Co6 Ni3'
_cell_volume   131.47406342
_cell_formula_units_Z   3
loop_
 _symmetry_equiv_pos_site_id
 _symmetry_equiv_pos_as_xyz
  1  'x, y, z'
loop_
 _atom_site_type_symbol
 _atom_site_label
 _atom_site_symmetry_multiplicity
 _atom_site_fract_x
 _atom_site_fract_y
 _atom_site_fract_z
 _atom_site_occupancy
  V  V0  1  0.00000000  0.00000000  0.00000000  1
  V  V1  1  0.78378300  0.78378300  0.64865000  1
  V  V2  1  0.21621700  0.21621700  0.35135000  1
  Co  Co0  1  0.71850600  0.71850600  0.33323300  1
  Co  Co1  1  0.22975500  0.71850600  0.33323300  1
  Co  Co2  1  0.71850600  0.22975500  0.33323300  1
  Co  Co3  1  0.28149400  0.28149400  0.66676700  1
  Co  Co4  1  0.77024500  0.28149400  0.66676700  1
  Co  Co5  1  0.28149400  0.77024500  0.66676700  1
  Ni  Ni0  1  0.00000000  0.50000000  0.00000000  1
  Ni  Ni1  1  0.50000000  0.00000000  0.00000000  1
  Ni  Ni2  1  0.50000000  0.50000000  0.00000000  1
loop_
_geom_bond_atom_site_label_1
_geom_bond_atom_site_label_2
_geom_bond_distance
_geom_bond_site_symmetry_2
Co0 V1 2.412624 1_555
Co0 Co1 2.449981 1_555
Co0 Co2 2.449981 1_555
Co0 Co5 2.462008 1_555
Co0 Co4 2.462008 1_555
Co0 Ni1 2.470074 1_565
Co0 Ni0 2.470074 1_655
Co0 V0 2.498519 1_665
Co0 V2 2.508970 1_655
Co0 V2 2.508970 1_565
Co0 Co1 2.562758 1_655
Co0 Co2 2.562758 1_565
Co1 V1 2.412627 1_455
Co1 Co2 2.449981 1_555
Co1 Co5 2.462008 1_555
Co1 Co3 2.462008 1_555
Co1 Ni2 2.470074 1_555
Co1 Ni1 2.470074 1_565
Co1 V0 2.498519 1_565
Co1 V2 2.508967 1_555
Co1 V2 2.508972 1_565
Co1 Co2 2.562758 1_465
Co2 V1 2.412627 1_545
Co2 Co4 2.462008 1_555
Co2 Co3 2.462008 1_555
Co2 Ni2 2.470074 1_555
Co2 Ni0 2.470074 1_655
Co2 V0 2.498519 1_655
Co2 V2 2.508967 1_555
Co2 V2 2.508972 1_655
Co3 V2 2.412624 1_555
Co3 Co4 2.449981 1_555
Co3 Co5 2.449981 1_555
Co3 Ni1 2.470074 1_556
Co3 Ni0 2.470074 1_556
Co3 V0 2.498519 1_556
Co3 V1 2.508970 1_455
Co3 V1 2.508970 1_545
Co3 Co4 2.562758 1_455
Co3 Co5 2.562758 1_545
Co4 V2 2.412627 1_655
Co4 Co5 2.449981 1_555
Co4 Ni2 2.470074 1_556
Co4 Ni1 2.470074 1_556
Co4 V0 2.498519 1_656
Co4 V1 2.508967 1_555
Co4 V1 2.508972 1_545
Co4 Co5 2.562758 1_645
Co5 V2 2.412627 1_565
Co5 Ni2 2.470074 1_556
Co5 Ni0 2.470074 1_556
Co5 V0 2.498519 1_566
Co5 V1 2.508967 1_555
Co5 V1 2.508972 1_455
Ni0 Ni2 2.506369 1_555
Ni0 Ni2 2.506369 1_455
Ni0 Ni1 2.506369 1_555
Ni0 Ni1 2.506369 1_465
Ni0 V0 2.506369 1_555
Ni0 V0 2.506369 1_565
Ni0 V2 2.569055 1_555
Ni0 V1 2.569055 1_454
Ni1 V0 2.506369 1_655
Ni1 V0 2.506369 1_555
Ni1 Ni2 2.506369 1_555
Ni1 Ni2 2.506369 1_545
Ni1 V2 2.569055 1_555
Ni1 V1 2.569055 1_544
Ni2 V0 2.506369 1_565
Ni2 V0 2.506369 1_655
Ni2 V2 2.569052 1_555
Ni2 V1 2.569052 1_554
