# generated using pymatgen
data_Gd8Rh5C12
_symmetry_space_group_name_H-M   'P 1'
_cell_length_a   14.16665511
_cell_length_b   14.16665511
_cell_length_c   7.47631505
_cell_angle_alpha   86.38914157
_cell_angle_beta   86.38914157
_cell_angle_gamma   14.69856187
_symmetry_Int_Tables_number   1
_chemical_formula_structural   Gd8Rh5C12
_chemical_formula_sum   'Gd8 Rh5 C12'
_cell_volume   379.94692258
_cell_formula_units_Z   1
loop_
 _symmetry_equiv_pos_site_id
 _symmetry_equiv_pos_as_xyz
  1  'x, y, z'
loop_
 _atom_site_type_symbol
 _atom_site_label
 _atom_site_symmetry_multiplicity
 _atom_site_fract_x
 _atom_site_fract_y
 _atom_site_fract_z
 _atom_site_occupancy
  Gd  Gd0  1  0.29398200  0.29398200  0.61618800  1
  Gd  Gd1  1  0.70601800  0.70601800  0.38381200  1
  Gd  Gd2  1  0.30036300  0.30036300  0.10886700  1
  Gd  Gd3  1  0.69963700  0.69963700  0.89113300  1
  Gd  Gd4  1  0.41184700  0.41184700  0.32843100  1
  Gd  Gd5  1  0.58815300  0.58815300  0.67156900  1
  Gd  Gd6  1  0.45294800  0.45294800  0.79736300  1
  Gd  Gd7  1  0.54705200  0.54705200  0.20263700  1
  Rh  Rh0  1  0.00000000  0.00000000  0.50000000  1
  Rh  Rh1  1  0.10959000  0.10959000  0.00869700  1
  Rh  Rh2  1  0.89041000  0.89041000  0.99130300  1
  Rh  Rh3  1  0.11699900  0.11699900  0.37135400  1
  Rh  Rh4  1  0.88300100  0.88300100  0.62864600  1
  C  C0  1  0.02256100  0.02256100  0.74394100  1
  C  C1  1  0.97743900  0.97743900  0.25605900  1
  C  C2  1  0.04787900  0.04787900  0.88411600  1
  C  C3  1  0.95212100  0.95212100  0.11588400  1
  C  C4  1  0.16813900  0.16813900  0.15108200  1
  C  C5  1  0.83186100  0.83186100  0.84891800  1
  C  C6  1  0.21590500  0.21590500  0.13528500  1
  C  C7  1  0.78409500  0.78409500  0.86471500  1
  C  C8  1  0.15890000  0.15890000  0.62483800  1
  C  C9  1  0.84110000  0.84110000  0.37516200  1
  C  C10  1  0.20680400  0.20680400  0.63109000  1
  C  C11  1  0.79319600  0.79319600  0.36891000  1
loop_
_geom_bond_atom_site_label_1
_geom_bond_atom_site_label_2
_geom_bond_distance
_geom_bond_site_symmetry_2
Gd2 Rh2 3.190110 1_544
Gd2 Rh2 3.190110 1_454
Gd3 Rh1 3.190110 1_566
Gd3 Rh1 3.190110 1_656
Gd4 Rh4 2.957655 1_545
Gd4 Rh4 2.957655 1_455
Gd5 Rh3 2.957655 1_655
Gd5 Rh3 2.957655 1_565
Gd6 Rh2 2.854994 1_545
Gd6 Rh2 2.854994 1_455
Gd6 Rh4 3.008869 1_455
Gd6 Rh4 3.008869 1_545
Gd6 Rh0 3.098602 1_565
Gd6 Rh0 3.098602 1_655
Gd7 Rh1 2.854994 1_655
Gd7 Rh1 2.854994 1_565
Gd7 Rh3 3.008869 1_655
Gd7 Rh3 3.008869 1_565
Gd7 Rh0 3.098602 1_565
Gd7 Rh0 3.098602 1_655
C0 C2 1.303511 1_555
C0 Rh0 1.968488 1_555
C0 Gd5 2.616740 1_545
C0 Gd5 2.616740 1_455
C0 Gd6 2.677838 1_545
C0 Gd6 2.677838 1_455
C1 C3 1.303511 1_555
C1 Rh0 1.968488 1_665
C1 Gd4 2.616740 1_655
C1 Gd4 2.616740 1_565
C1 Gd7 2.677838 1_565
C1 Gd7 2.677838 1_655
C2 Rh1 2.019850 1_556
C2 Gd5 2.619442 1_545
C2 Gd5 2.619442 1_455
C2 Gd7 2.991379 1_546
C2 Gd7 2.991379 1_456
C3 Rh2 2.019850 1_554
C3 Gd4 2.619442 1_655
C3 Gd4 2.619442 1_565
C3 Gd6 2.991379 1_564
C3 Gd6 2.991379 1_654
C4 C6 1.339945 1_555
C4 Rh1 2.015565 1_555
C4 Rh3 2.115800 1_555
C4 Gd3 2.761510 1_544
C4 Gd3 2.761510 1_454
C4 Gd1 2.771213 1_545
C4 Gd1 2.771213 1_455
C5 C7 1.339945 1_555
C5 Rh2 2.015565 1_555
C5 Rh4 2.115800 1_555
C5 Gd2 2.761510 1_566
C5 Gd2 2.761510 1_656
C5 Gd0 2.771213 1_565
C5 Gd0 2.771213 1_655
C6 Gd2 2.368988 1_555
C6 Gd1 2.597688 1_545
C6 Gd1 2.597688 1_455
C6 Gd3 2.632647 1_454
C6 Gd3 2.632647 1_544
C7 Gd3 2.368988 1_555
C7 Gd0 2.597688 1_565
C7 Gd0 2.597688 1_655
C7 Gd2 2.632647 1_656
C7 Gd2 2.632647 1_566
C8 Rh3 2.293745 1_555
C8 Gd5 2.696304 1_545
C8 Gd5 2.696304 1_455
C8 Gd3 2.974476 1_545
C8 Gd3 2.974476 1_455
C9 Rh4 2.293745 1_555
C9 Gd4 2.696304 1_655
C9 Gd4 2.696304 1_565
C9 Gd2 2.974476 1_655
C9 Gd2 2.974476 1_565
C10 C8 1.349903 1_555
C10 Gd0 2.445204 1_555
C10 Gd1 2.589868 1_455
C10 Gd1 2.589868 1_545
C10 Gd3 2.656040 1_545
C10 Gd3 2.656040 1_455
C11 C9 1.349903 1_555
C11 Gd1 2.445204 1_555
C11 Gd0 2.589868 1_565
C11 Gd0 2.589868 1_655
C11 Gd2 2.656040 1_565
C11 Gd2 2.656040 1_655
