# generated using pymatgen
data_U5Sb4
_symmetry_space_group_name_H-M   'P 1'
_cell_length_a   9.30954881
_cell_length_b   9.30954881
_cell_length_c   6.14373300
_cell_angle_alpha   90.00000000
_cell_angle_beta   90.00000000
_cell_angle_gamma   120.00000575
_symmetry_Int_Tables_number   1
_chemical_formula_structural   U5Sb4
_chemical_formula_sum   'U10 Sb8'
_cell_volume   461.12663328
_cell_formula_units_Z   2
loop_
 _symmetry_equiv_pos_site_id
 _symmetry_equiv_pos_as_xyz
  1  'x, y, z'
loop_
 _atom_site_type_symbol
 _atom_site_label
 _atom_site_symmetry_multiplicity
 _atom_site_fract_x
 _atom_site_fract_y
 _atom_site_fract_z
 _atom_site_occupancy
  U  U0  1  0.33333300  0.66666700  0.00000000  1
  U  U1  1  0.66666700  0.33333300  0.00000000  1
  U  U2  1  0.66666700  0.33333300  0.50000000  1
  U  U3  1  0.33333300  0.66666700  0.50000000  1
  U  U4  1  0.28841100  0.00000000  0.25000000  1
  U  U5  1  0.71158900  0.00000000  0.75000000  1
  U  U6  1  0.00000000  0.28841100  0.25000000  1
  U  U7  1  0.00000000  0.71158900  0.75000000  1
  U  U8  1  0.71158900  0.71158900  0.25000000  1
  U  U9  1  0.28841100  0.28841100  0.75000000  1
  Sb  Sb0  1  0.00000000  0.00000000  0.00000000  1
  Sb  Sb1  1  0.00000000  0.00000000  0.50000000  1
  Sb  Sb2  1  0.62258300  0.00000000  0.25000000  1
  Sb  Sb3  1  0.37741700  0.00000000  0.75000000  1
  Sb  Sb4  1  0.00000000  0.62258300  0.25000000  1
  Sb  Sb5  1  0.00000000  0.37741700  0.75000000  1
  Sb  Sb6  1  0.37741700  0.37741700  0.25000000  1
  Sb  Sb7  1  0.62258300  0.62258300  0.75000000  1
loop_
_geom_bond_atom_site_label_1
_geom_bond_atom_site_label_2
_geom_bond_distance
_geom_bond_site_symmetry_2
U0 U3 3.071867 1_554
U0 U3 3.071867 1_555
U1 U2 3.071867 1_555
U1 U2 3.071867 1_554
Sb0 U9 3.093249 1_554
Sb0 U8 3.093249 1_445
Sb0 U6 3.093249 1_555
Sb0 U4 3.093249 1_555
Sb0 U5 3.093249 1_454
Sb0 U7 3.093249 1_544
Sb1 U9 3.093249 1_555
Sb1 U8 3.093249 1_445
Sb1 U6 3.093249 1_555
Sb1 U4 3.093249 1_555
Sb1 U5 3.093249 1_455
Sb1 U7 3.093249 1_545
Sb2 U4 3.110991 1_555
Sb2 U6 3.181269 1_655
Sb2 U8 3.181269 1_545
Sb2 U5 3.181659 1_555
Sb2 U5 3.181659 1_554
Sb2 U2 3.299044 1_555
Sb2 U1 3.299044 1_555
Sb2 U0 3.299047 1_545
Sb2 U3 3.299047 1_545
Sb3 U5 3.110991 1_555
Sb3 U7 3.181269 1_545
Sb3 U9 3.181269 1_555
Sb3 U4 3.181659 1_556
Sb3 U4 3.181659 1_555
Sb3 U3 3.299044 1_545
Sb3 U0 3.299044 1_546
Sb3 U1 3.299047 1_556
Sb3 U2 3.299047 1_555
Sb4 U6 3.110991 1_555
Sb4 U4 3.181269 1_565
Sb4 U8 3.181269 1_455
Sb4 U7 3.181659 1_555
Sb4 U7 3.181659 1_554
Sb4 U0 3.299044 1_555
Sb4 U3 3.299044 1_555
Sb4 U1 3.299047 1_455
Sb4 U2 3.299047 1_455
Sb5 U7 3.110991 1_555
Sb5 U5 3.181269 1_455
Sb5 U9 3.181269 1_555
Sb5 U6 3.181659 1_556
Sb5 U6 3.181659 1_555
Sb5 U1 3.299044 1_456
Sb5 U2 3.299044 1_455
Sb5 U3 3.299047 1_555
Sb5 U0 3.299047 1_556
Sb6 U8 3.110990 1_555
Sb6 U6 3.181269 1_555
Sb6 U4 3.181269 1_555
Sb6 U9 3.181659 1_555
Sb6 U9 3.181659 1_554
Sb6 U1 3.299053 1_555
Sb6 U0 3.299053 1_555
Sb6 U3 3.299053 1_555
Sb6 U2 3.299053 1_555
Sb7 U9 3.110990 1_555
Sb7 U7 3.181269 1_655
Sb7 U5 3.181269 1_565
Sb7 U8 3.181659 1_555
Sb7 U8 3.181659 1_556
Sb7 U0 3.299053 1_556
Sb7 U1 3.299053 1_556
Sb7 U3 3.299053 1_555
Sb7 U2 3.299053 1_555
