# generated using pymatgen
data_Li2MnP2O7
_symmetry_space_group_name_H-M   'P 1'
_cell_length_a   8.19365589
_cell_length_b   8.19360132
_cell_length_c   9.92420780
_cell_angle_alpha   93.43062820
_cell_angle_beta   86.57031641
_cell_angle_gamma   74.52204602
_symmetry_Int_Tables_number   1
_chemical_formula_structural   Li2MnP2O7
_chemical_formula_sum   'Li8 Mn4 P8 O28'
_cell_volume   638.96073036
_cell_formula_units_Z   4
loop_
 _symmetry_equiv_pos_site_id
 _symmetry_equiv_pos_as_xyz
  1  'x, y, z'
loop_
 _atom_site_type_symbol
 _atom_site_label
 _atom_site_symmetry_multiplicity
 _atom_site_fract_x
 _atom_site_fract_y
 _atom_site_fract_z
 _atom_site_occupancy
  Li  Li0  1  0.23518400  0.23460900  0.99934000  1
  Li  Li1  1  0.73607200  0.73440700  0.49921700  1
  Li  Li2  1  0.51610500  0.01402400  0.74993700  1
  Li  Li3  1  0.01556700  0.51417400  0.24977100  1
  Li  Li4  1  0.98591800  0.48392400  0.74999700  1
  Li  Li5  1  0.48581600  0.98433400  0.24970800  1
  Li  Li6  1  0.76527200  0.76465600  0.99933900  1
  Li  Li7  1  0.26579400  0.26416200  0.49922700  1
  Mn  Mn0  1  0.50079300  0.49949400  0.49994800  1
  Mn  Mn1  1  0.24398100  0.75596000  0.24968100  1
  Mn  Mn2  1  0.00032300  0.99941400  0.00304100  1
  Mn  Mn3  1  0.74748200  0.25249900  0.74904500  1
  P  P0  1  0.67597400  0.09906100  0.46151200  1
  P  P1  1  0.17522000  0.59982800  0.96232700  1
  P  P2  1  0.59946900  0.17531900  0.03812100  1
  P  P3  1  0.09956500  0.67535000  0.53829800  1
  P  P4  1  0.90105600  0.32410000  0.46154000  1
  P  P5  1  0.40003600  0.82476700  0.96230700  1
  P  P6  1  0.82458400  0.40045900  0.03811900  1
  P  P7  1  0.32480400  0.90050400  0.53829800  1
  O  O0  1  0.84286000  0.15723900  0.40727400  1
  O  O1  1  0.34214500  0.65778200  0.90808000  1
  O  O2  1  0.65777500  0.34213500  0.09206800  1
  O  O3  1  0.15826800  0.84184800  0.59249500  1
  O  O4  1  0.43712400  0.17758600  0.11978500  1
  O  O5  1  0.93797000  0.67687200  0.62072500  1
  O  O6  1  0.67809600  0.93693200  0.37961600  1
  O  O7  1  0.17753700  0.43748800  0.88058700  1
  O  O8  1  0.82236300  0.56273500  0.11981200  1
  O  O9  1  0.32317800  0.06221900  0.62060500  1
  O  O10  1  0.06326600  0.32188400  0.37971100  1
  O  O11  1  0.56235300  0.82249500  0.88061500  1
  O  O12  1  0.25125400  0.98161100  0.94194700  1
  O  O13  1  0.75243000  0.48113500  0.44134300  1
  O  O14  1  0.48203100  0.75157500  0.55735000  1
  O  O15  1  0.98159400  0.25190500  0.05865700  1
  O  O16  1  0.69141400  0.07552400  0.61444600  1
  O  O17  1  0.19029300  0.57694200  0.11539200  1
  O  O18  1  0.57610100  0.19041700  0.88510800  1
  O  O19  1  0.07408400  0.69193100  0.38568300  1
  O  O20  1  0.92440800  0.30868100  0.61450100  1
  O  O21  1  0.42290600  0.80969900  0.11537700  1
  O  O22  1  0.80942600  0.42392800  0.88512400  1
  O  O23  1  0.30830100  0.92569000  0.38563500  1
  O  O24  1  0.24861300  0.51814800  0.55715400  1
  O  O25  1  0.74789800  0.01827000  0.05875200  1
  O  O26  1  0.01829400  0.74848100  0.94197300  1
  O  O27  1  0.51900100  0.24780600  0.44141400  1
loop_
_geom_bond_atom_site_label_1
_geom_bond_atom_site_label_2
_geom_bond_distance
_geom_bond_site_symmetry_2
Li0 O7 2.063323 1_555
Li0 O4 2.067786 1_556
Li0 O12 2.083981 1_545
Li0 O15 2.090574 1_456
Li1 O6 2.066541 1_555
Li1 O5 2.074484 1_555
Li1 O13 2.086631 1_555
Li1 O14 2.091817 1_555
Li2 O9 2.066992 1_555
Li2 O11 2.067171 1_545
Li2 O18 2.087136 1_555
Li2 O16 2.088448 1_555
Li3 O10 2.067086 1_555
Li3 O8 2.072993 1_455
Li3 O17 2.083085 1_555
Li3 O19 2.094157 1_555
Li4 O5 2.066674 1_555
Li4 O7 2.067150 1_655
Li4 O22 2.087475 1_555
Li4 O20 2.088105 1_555
Li5 O6 2.066749 1_555
Li5 O4 2.073076 1_565
Li5 O21 2.082779 1_555
Li5 O23 2.093324 1_555
Li6 O11 2.063469 1_555
Li6 O8 2.067872 1_556
Li6 O26 2.083948 1_655
Li6 O25 2.090811 1_566
Li7 O10 2.065918 1_555
Li7 O9 2.073883 1_555
Li7 O27 2.086017 1_555
Li7 O24 2.090906 1_555
Mn0 O13 2.071844 1_555
Mn0 O14 2.072071 1_555
Mn0 O27 2.072330 1_555
Mn0 O24 2.072647 1_555
Mn1 O23 2.069765 1_555
Mn1 O19 2.069922 1_555
Mn1 O21 2.073808 1_555
Mn1 O17 2.074060 1_555
Mn2 O25 2.071172 1_465
Mn2 O15 2.071697 1_465
Mn2 O26 2.072416 1_554
Mn2 O12 2.072773 1_554
Mn3 O22 2.071194 1_555
Mn3 O18 2.071369 1_555
Mn3 O20 2.072310 1_555
Mn3 O16 2.072492 1_555
O0 P4 1.636211 1_555
O0 P0 1.636249 1_555
O1 P1 1.635582 1_555
O1 P5 1.635671 1_555
O2 P2 1.635427 1_555
O2 P6 1.635477 1_555
O3 P3 1.635574 1_555
O3 P7 1.635662 1_555
O4 P2 1.510837 1_555
O5 P3 1.510897 1_655
O6 P0 1.510740 1_565
O7 P1 1.511043 1_555
O8 P6 1.510575 1_555
O9 P7 1.510905 1_545
O10 P4 1.510801 1_455
O11 P5 1.510767 1_555
O12 P5 1.550115 1_555
O13 P4 1.549999 1_555
O14 P7 1.549881 1_555
O15 P6 1.550302 1_555
O16 P0 1.549755 1_555
O17 P1 1.549872 1_554
O18 P2 1.550011 1_556
O19 P3 1.550268 1_555
O20 P4 1.549758 1_555
O21 P5 1.549895 1_554
O22 P6 1.550020 1_556
O23 P7 1.550262 1_555
O24 P3 1.549886 1_555
O25 P2 1.550128 1_555
O26 P1 1.549918 1_555
O27 P0 1.550017 1_555
