# generated using pymatgen
data_YCrF5
_symmetry_space_group_name_H-M   'P 1'
_cell_length_a   5.80685706
_cell_length_b   5.80685706
_cell_length_c   5.80685706
_cell_angle_alpha   137.26492048
_cell_angle_beta   106.67292988
_cell_angle_gamma   88.77336384
_symmetry_Int_Tables_number   1
_chemical_formula_structural   YCrF5
_chemical_formula_sum   'Y1 Cr1 F5'
_cell_volume   121.77090542
_cell_formula_units_Z   1
loop_
 _symmetry_equiv_pos_site_id
 _symmetry_equiv_pos_as_xyz
  1  'x, y, z'
loop_
 _atom_site_type_symbol
 _atom_site_label
 _atom_site_symmetry_multiplicity
 _atom_site_fract_x
 _atom_site_fract_y
 _atom_site_fract_z
 _atom_site_occupancy
  Y  Y0  1  0.50000000  0.50000000  0.00000000  1
  Cr  Cr0  1  0.00000000  0.00000000  0.00000000  1
  F  F0  1  0.81640200  0.50000000  0.31640200  1
  F  F1  1  0.18359800  0.50000000  0.68359800  1
  F  F2  1  0.23603500  0.23603500  0.00000000  1
  F  F3  1  0.76396500  0.76396500  0.00000000  1
  F  F4  1  0.50000000  0.00000000  0.50000000  1
loop_
_geom_bond_atom_site_label_1
_geom_bond_atom_site_label_2
_geom_bond_distance
_geom_bond_site_symmetry_2
Cr0 F2 1.958989 1_555
Cr0 F3 1.958989 1_445
Cr0 F1 2.469277 1_544
Cr0 F1 2.469277 1_555
Cr0 F0 2.469277 1_455
Cr0 F0 2.469277 1_444
F0 Y0 2.194159 1_555
F1 Y0 2.194159 1_556
F2 Y0 2.190796 1_555
F3 Y0 2.190796 1_555
F4 Y0 2.115724 1_556
F4 Y0 2.115724 1_545
