# generated using pymatgen
data_Sr10Mg5Mo2(WO10)3
_symmetry_space_group_name_H-M   'P 1'
_cell_length_a   5.65015700
_cell_length_b   5.66142035
_cell_length_c   20.50650229
_cell_angle_alpha   97.68573479
_cell_angle_beta   97.90462078
_cell_angle_gamma   89.88529543
_symmetry_Int_Tables_number   1
_chemical_formula_structural   Sr10Mg5Mo2(WO10)3
_chemical_formula_sum   'Sr10 Mg5 Mo2 W3 O30'
_cell_volume   643.80096176
_cell_formula_units_Z   1
loop_
 _symmetry_equiv_pos_site_id
 _symmetry_equiv_pos_as_xyz
  1  'x, y, z'
loop_
 _atom_site_type_symbol
 _atom_site_label
 _atom_site_symmetry_multiplicity
 _atom_site_fract_x
 _atom_site_fract_y
 _atom_site_fract_z
 _atom_site_occupancy
  Sr  Sr0  1  0.24936500  0.74888500  0.50010900  1
  Sr  Sr1  1  0.64945100  0.14914200  0.30083400  1
  Sr  Sr2  1  0.04928100  0.54900800  0.10014000  1
  Sr  Sr3  1  0.44922400  0.94892500  0.89996300  1
  Sr  Sr4  1  0.84918200  0.34874100  0.69932700  1
  Sr  Sr5  1  0.75063500  0.25111500  0.49989100  1
  Sr  Sr6  1  0.15081800  0.65125900  0.30067300  1
  Sr  Sr7  1  0.55077600  0.05107500  0.10003700  1
  Sr  Sr8  1  0.95071900  0.45099200  0.89986000  1
  Sr  Sr9  1  0.35054900  0.85085800  0.69916600  1
  Mg  Mg0  1  0.19998700  0.19997600  0.40001000  1
  Mg  Mg1  1  0.59996300  0.59995500  0.20000400  1
  Mg  Mg2  1  0.00000000  0.00000000  0.00000000  1
  Mg  Mg3  1  0.40003700  0.40004500  0.79999600  1
  Mg  Mg4  1  0.80001300  0.80002400  0.59999000  1
  Mo  Mo0  1  0.29997800  0.29993100  0.59989800  1
  Mo  Mo1  1  0.70002200  0.70006900  0.40010200  1
  W  W0  1  0.09999300  0.10005700  0.20013200  1
  W  W1  1  0.50000000  0.50000000  0.00000000  1
  W  W2  1  0.90000700  0.89994300  0.79986800  1
  O  O0  1  0.57271600  0.50922500  0.59910800  1
  O  O1  1  0.97276800  0.90934200  0.39933400  1
  O  O2  1  0.37357000  0.30936200  0.19931400  1
  O  O3  1  0.77354800  0.70936300  0.99919900  1
  O  O4  1  0.17355600  0.10925200  0.79906300  1
  O  O5  1  0.42728400  0.49077500  0.40089200  1
  O  O6  1  0.82644400  0.89074800  0.20093700  1
  O  O7  1  0.22645200  0.29063700  0.00080100  1
  O  O8  1  0.62643000  0.69063800  0.80068600  1
  O  O9  1  0.02723200  0.09065800  0.60066600  1
  O  O10  1  0.23684400  0.26510200  0.50324000  1
  O  O11  1  0.63686500  0.66519900  0.30352000  1
  O  O12  1  0.03648600  0.06518700  0.10319000  1
  O  O13  1  0.43651100  0.46515700  0.90309000  1
  O  O14  1  0.83650100  0.86509500  0.70289400  1
  O  O15  1  0.76315600  0.73489800  0.49676000  1
  O  O16  1  0.16349900  0.13490500  0.29710600  1
  O  O17  1  0.56348900  0.53484300  0.09691000  1
  O  O18  1  0.96351400  0.93481300  0.89681000  1
  O  O19  1  0.36313500  0.33480100  0.69648000  1
  O  O20  1  0.50771200  0.02502500  0.59486000  1
  O  O21  1  0.90790800  0.42524400  0.39509600  1
  O  O22  1  0.30788700  0.82435700  0.19500400  1
  O  O23  1  0.70787400  0.22427900  0.99488600  1
  O  O24  1  0.10770900  0.62413200  0.79474400  1
  O  O25  1  0.49228800  0.97497500  0.40514000  1
  O  O26  1  0.89229100  0.37586800  0.20525600  1
  O  O27  1  0.29212600  0.77572100  0.00511400  1
  O  O28  1  0.69211300  0.17564300  0.80499600  1
  O  O29  1  0.09209200  0.57475600  0.60490400  1
loop_
_geom_bond_atom_site_label_1
_geom_bond_atom_site_label_2
_geom_bond_distance
_geom_bond_site_symmetry_2
Mg0 O16 2.074579 1_555
Mg0 O10 2.081059 1_555
Mg0 O21 2.083341 1_455
Mg0 O25 2.083491 1_545
Mg0 O1 2.086433 1_445
Mg0 O5 2.086670 1_555
Mg1 O17 2.078409 1_555
Mg1 O22 2.080344 1_555
Mg1 O26 2.080484 1_555
Mg1 O2 2.083325 1_555
Mg1 O6 2.083618 1_555
Mg1 O11 2.086822 1_555
Mg2 O27 2.080190 1_545
Mg2 O23 2.080190 1_454
Mg2 O12 2.080353 1_555
Mg2 O18 2.080353 1_444
Mg2 O7 2.083311 1_555
Mg2 O3 2.083311 1_444
Mg3 O13 2.078409 1_555
Mg3 O28 2.080344 1_555
Mg3 O24 2.080484 1_555
Mg3 O8 2.083325 1_555
Mg3 O4 2.083618 1_555
Mg3 O19 2.086822 1_555
Mg4 O14 2.074579 1_555
Mg4 O15 2.081059 1_555
Mg4 O29 2.083341 1_655
Mg4 O20 2.083491 1_565
Mg4 O9 2.086433 1_665
Mg4 O0 2.086670 1_555
Mo0 O19 1.946852 1_555
Mo0 O20 1.947716 1_555
Mo0 O29 1.947857 1_555
Mo0 O10 1.948380 1_555
Mo0 O9 1.948793 1_555
Mo0 O0 1.948919 1_555
Mo1 O11 1.946852 1_555
Mo1 O25 1.947716 1_555
Mo1 O21 1.947857 1_555
Mo1 O15 1.948380 1_555
Mo1 O1 1.948793 1_555
Mo1 O5 1.948919 1_555
O0 Sr5 2.654598 1_555
O0 Sr4 2.664575 1_555
O0 Sr0 3.001151 1_555
O0 Sr9 3.027182 1_555
O1 Sr6 2.646405 1_655
O1 Sr0 2.673267 1_655
O1 Sr1 2.994808 1_565
O1 Sr5 3.034172 1_565
O2 W0 1.952832 1_555
O2 Sr7 2.654020 1_555
O2 Sr1 2.682052 1_555
O2 Sr2 3.006183 1_555
O2 Sr6 3.047056 1_555
O3 W1 1.952833 1_556
O3 Sr8 2.655085 1_555
O3 Sr2 2.673200 1_656
O3 Sr3 3.006858 1_555
O3 Sr7 3.039566 1_566
O4 W2 1.952668 1_445
O4 Sr9 2.663200 1_545
O4 Sr3 2.672333 1_545
O4 Sr4 3.013489 1_455
O4 Sr8 3.039290 1_455
O5 Sr0 2.654598 1_555
O5 Sr6 2.664575 1_555
O5 Sr5 3.001151 1_555
O5 Sr1 3.027182 1_555
O6 W0 1.952668 1_665
O6 Sr1 2.663200 1_565
O6 Sr7 2.672333 1_565
O6 Sr6 3.013489 1_655
O6 Sr2 3.039290 1_655
O7 W1 1.952833 1_555
O7 Sr2 2.655085 1_555
O7 Sr8 2.673200 1_454
O7 Sr7 3.006858 1_555
O7 Sr3 3.039566 1_544
O8 W2 1.952832 1_555
O8 Sr3 2.654020 1_555
O8 Sr9 2.682052 1_555
O8 Sr8 3.006183 1_555
O8 Sr4 3.047056 1_555
O9 Sr4 2.646405 1_455
O9 Sr5 2.673267 1_455
O9 Sr9 2.994808 1_545
O9 Sr0 3.034172 1_545
O10 Sr5 2.739596 1_455
O10 Sr0 2.749501 1_555
O10 Sr5 2.913907 1_555
O10 Sr0 2.915560 1_545
O11 Sr6 2.739894 1_555
O11 Sr1 2.748971 1_565
O11 Sr6 2.913218 1_655
O11 Sr1 2.915670 1_555
O12 W0 1.954163 1_555
O12 Sr7 2.737270 1_455
O12 Sr2 2.749499 1_555
O12 Sr2 2.915565 1_545
O12 Sr7 2.916113 1_555
O13 W1 1.953521 1_556
O13 Sr8 2.737555 1_455
O13 Sr3 2.749437 1_555
O13 Sr3 2.915681 1_545
O13 Sr8 2.915903 1_555
O14 W2 1.954809 1_555
O14 Sr9 2.737287 1_555
O14 Sr4 2.750200 1_565
O14 Sr4 2.915400 1_555
O14 Sr9 2.916619 1_655
O15 Sr0 2.739596 1_655
O15 Sr5 2.749501 1_555
O15 Sr0 2.913907 1_555
O15 Sr5 2.915560 1_565
O16 W0 1.954809 1_555
O16 Sr1 2.737287 1_555
O16 Sr6 2.750200 1_545
O16 Sr6 2.915400 1_555
O16 Sr1 2.916619 1_455
O17 W1 1.953521 1_555
O17 Sr2 2.737555 1_655
O17 Sr7 2.749437 1_555
O17 Sr7 2.915681 1_565
O17 Sr2 2.915903 1_555
O18 W2 1.954163 1_555
O18 Sr3 2.737270 1_655
O18 Sr8 2.749499 1_555
O18 Sr8 2.915565 1_565
O18 Sr3 2.916113 1_555
O19 Sr4 2.739894 1_555
O19 Sr9 2.748971 1_545
O19 Sr4 2.913218 1_455
O19 Sr9 2.915670 1_555
O20 Sr0 2.601272 1_545
O20 Sr9 2.725063 1_545
O20 Sr5 2.953637 1_555
O20 Sr4 3.081821 1_555
O21 Sr1 2.595552 1_555
O21 Sr5 2.734042 1_555
O21 Sr6 2.944635 1_655
O21 Sr0 3.087512 1_655
O22 W0 1.951875 1_565
O22 Sr2 2.601067 1_555
O22 Sr6 2.746603 1_555
O22 Sr7 2.955357 1_565
O22 Sr1 3.100018 1_565
O23 W1 1.951892 1_556
O23 Sr3 2.601910 1_545
O23 Sr7 2.737598 1_556
O23 Sr8 2.956149 1_555
O23 Sr2 3.093085 1_656
O24 W2 1.951711 1_455
O24 Sr4 2.607693 1_455
O24 Sr8 2.736534 1_455
O24 Sr9 2.965022 1_555
O24 Sr3 3.093208 1_555
O25 Sr5 2.601272 1_565
O25 Sr1 2.725063 1_565
O25 Sr0 2.953637 1_555
O25 Sr6 3.081821 1_555
O26 W0 1.951711 1_655
O26 Sr6 2.607693 1_655
O26 Sr2 2.736534 1_655
O26 Sr1 2.965022 1_555
O26 Sr7 3.093208 1_555
O27 W1 1.951892 1_555
O27 Sr7 2.601910 1_565
O27 Sr3 2.737598 1_554
O27 Sr2 2.956149 1_555
O27 Sr8 3.093085 1_454
O28 W2 1.951875 1_545
O28 Sr8 2.601067 1_555
O28 Sr4 2.746603 1_555
O28 Sr3 2.955357 1_545
O28 Sr9 3.100018 1_545
O29 Sr9 2.595552 1_555
O29 Sr0 2.734042 1_555
O29 Sr4 2.944635 1_455
O29 Sr5 3.087512 1_455
