# generated using pymatgen
data_NaYbF4
_symmetry_space_group_name_H-M   'P 1'
_cell_length_a   3.70187296
_cell_length_b   5.38664684
_cell_length_c   3.70187296
_cell_angle_alpha   90.00000000
_cell_angle_beta   90.00000000
_cell_angle_gamma   90.00000000
_symmetry_Int_Tables_number   1
_chemical_formula_structural   NaYbF4
_chemical_formula_sum   'Na1 Yb1 F4'
_cell_volume   73.81787244
_cell_formula_units_Z   1
loop_
 _symmetry_equiv_pos_site_id
 _symmetry_equiv_pos_as_xyz
  1  'x, y, z'
loop_
 _atom_site_type_symbol
 _atom_site_label
 _atom_site_symmetry_multiplicity
 _atom_site_fract_x
 _atom_site_fract_y
 _atom_site_fract_z
 _atom_site_occupancy
  Na  Na0  1  0.00000000  0.00000000  0.00000000  1
  Yb  Yb0  1  0.50000000  0.50000000  0.50000000  1
  F  F0  1  0.50000000  0.27029994  0.00000000  1
  F  F1  1  0.00000000  0.72970006  0.50000000  1
  F  F2  1  0.50000000  0.72970006  0.00000000  1
  F  F3  1  0.00000000  0.27029994  0.50000000  1
loop_
_geom_bond_atom_site_label_1
_geom_bond_atom_site_label_2
_geom_bond_distance
_geom_bond_site_symmetry_2
F0 Yb0 2.226412 1_555
F0 Yb0 2.226412 1_554
F0 Na0 2.354980 1_555
F0 Na0 2.354980 1_655
F1 Yb0 2.226412 1_455
F1 Yb0 2.226412 1_555
F1 Na0 2.354980 1_565
F1 Na0 2.354980 1_566
F2 Yb0 2.226412 1_554
F2 Yb0 2.226412 1_555
F2 Na0 2.354980 1_565
F2 Na0 2.354980 1_665
F3 Yb0 2.226412 1_555
F3 Yb0 2.226412 1_455
F3 Na0 2.354980 1_555
F3 Na0 2.354980 1_556
