# generated using pymatgen
data_Pr3MgNi14
_symmetry_space_group_name_H-M   'P 1'
_cell_length_a   12.40133821
_cell_length_b   12.40133821
_cell_length_c   12.40133800
_cell_angle_alpha   23.19176686
_cell_angle_beta   23.19176686
_cell_angle_gamma   23.19177166
_symmetry_Int_Tables_number   1
_chemical_formula_structural   Pr3MgNi14
_chemical_formula_sum   'Pr3 Mg1 Ni14'
_cell_volume   259.65456688
_cell_formula_units_Z   1
loop_
 _symmetry_equiv_pos_site_id
 _symmetry_equiv_pos_as_xyz
  1  'x, y, z'
loop_
 _atom_site_type_symbol
 _atom_site_label
 _atom_site_symmetry_multiplicity
 _atom_site_fract_x
 _atom_site_fract_y
 _atom_site_fract_z
 _atom_site_occupancy
  Pr  Pr0  1  0.05167900  0.05167900  0.05167900  1
  Pr  Pr1  1  0.94378300  0.94378300  0.94378300  1
  Pr  Pr2  1  0.15039500  0.15039500  0.15039500  1
  Mg  Mg0  1  0.85316800  0.85316800  0.85316800  1
  Ni  Ni0  1  0.61151300  0.10895200  0.61151300  1
  Ni  Ni1  1  0.10895200  0.61151300  0.61151300  1
  Ni  Ni2  1  0.61151300  0.61151300  0.10895200  1
  Ni  Ni3  1  0.38921300  0.88910900  0.38921300  1
  Ni  Ni4  1  0.88910900  0.38921300  0.38921300  1
  Ni  Ni5  1  0.38921300  0.38921300  0.88910900  1
  Ni  Ni6  1  0.38889500  0.38889400  0.38889500  1
  Ni  Ni7  1  0.61201300  0.61201300  0.61201300  1
  Ni  Ni8  1  0.27796700  0.27796700  0.27796700  1
  Ni  Ni9  1  0.72207700  0.72207700  0.72207700  1
  Ni  Ni10  1  0.50083500  0.50083500  0.50083500  1
  Ni  Ni11  1  0.00057300  0.49955100  0.49955100  1
  Ni  Ni12  1  0.49955100  0.49955100  0.00057300  1
  Ni  Ni13  1  0.49955100  0.00057300  0.49955100  1
loop_
_geom_bond_atom_site_label_1
_geom_bond_atom_site_label_2
_geom_bond_distance
_geom_bond_site_symmetry_2
Pr0 Pr2 3.572336 1_555
Mg0 Ni4 2.812836 1_556
Mg0 Ni3 2.812836 1_556
Mg0 Ni4 2.812836 1_565
Mg0 Ni3 2.812836 1_655
Mg0 Ni5 2.812836 1_565
Mg0 Ni5 2.812836 1_655
Mg0 Ni10 2.959373 1_556
Mg0 Ni10 2.959374 1_565
Mg0 Ni10 2.959374 1_655
Mg0 Ni2 3.095609 1_556
Mg0 Ni1 3.095609 1_655
Mg0 Ni0 3.095609 1_565
Mg0 Pr2 3.161075 1_665
Mg0 Pr2 3.161076 1_566
Mg0 Pr2 3.161076 1_656
Mg0 Pr1 3.279177 1_555
Ni0 Ni9 2.459173 1_545
Ni0 Ni6 2.463359 1_555
Ni0 Ni2 2.479995 1_546
Ni0 Ni1 2.479995 1_645
Ni0 Ni2 2.505530 1_555
Ni0 Ni1 2.505531 1_555
Ni0 Ni10 2.514728 1_555
Ni0 Pr2 2.877783 1_556
Ni0 Pr2 2.877783 1_655
Ni0 Pr0 3.281692 1_655
Ni0 Pr0 3.281692 1_556
Ni1 Ni9 2.459173 1_455
Ni1 Ni6 2.463362 1_555
Ni1 Ni2 2.479995 1_456
Ni1 Ni2 2.505530 1_555
Ni1 Ni10 2.514728 1_555
Ni1 Pr2 2.877783 1_556
Ni1 Pr2 2.877783 1_565
Ni1 Pr0 3.281692 1_565
Ni1 Pr0 3.281692 1_556
Ni2 Ni9 2.459173 1_554
Ni2 Ni6 2.463362 1_555
Ni2 Pr2 2.877783 1_565
Ni2 Pr2 2.877783 1_655
Ni2 Pr0 3.281692 1_655
Ni2 Pr0 3.281692 1_565
Ni3 Ni8 2.469711 1_565
Ni3 Ni7 2.490366 1_555
Ni3 Ni5 2.492244 1_555
Ni3 Ni4 2.492245 1_555
Ni3 Ni5 2.493281 1_564
Ni3 Ni4 2.493281 1_465
Ni3 Pr2 2.980435 1_565
Ni3 Pr1 3.180971 1_455
Ni3 Pr1 3.180971 1_554
Ni4 Ni8 2.469711 1_655
Ni4 Ni7 2.490366 1_555
Ni4 Ni5 2.492244 1_555
Ni4 Ni5 2.493281 1_654
Ni4 Pr2 2.980435 1_655
Ni4 Pr1 3.180971 1_545
Ni4 Pr1 3.180971 1_554
Ni5 Ni8 2.469710 1_556
Ni5 Ni7 2.490366 1_555
Ni5 Pr2 2.980435 1_556
Ni5 Pr1 3.180971 1_545
Ni5 Pr1 3.180971 1_455
Ni6 Ni9 2.878397 1_545
Ni6 Ni9 2.878401 1_554
Ni6 Ni9 2.878401 1_455
Ni6 Pr0 2.881819 1_556
Ni6 Pr0 2.881820 1_655
Ni6 Pr0 2.881824 1_565
Ni7 Ni8 2.878509 1_556
Ni7 Ni8 2.878510 1_565
Ni7 Ni8 2.878510 1_655
Ni7 Pr1 2.878950 1_554
Ni7 Pr1 2.878950 1_455
Ni7 Pr1 2.878950 1_545
Ni8 Pr1 2.878559 1_445
Ni8 Pr1 2.878559 1_454
Ni8 Pr1 2.878559 1_544
Ni9 Pr0 2.881559 1_665
Ni9 Pr0 2.881560 1_566
Ni9 Pr0 2.881560 1_656
Ni10 Ni5 2.456282 1_555
Ni10 Ni4 2.456283 1_555
Ni10 Ni3 2.456283 1_555
Ni10 Ni2 2.514728 1_555
Ni10 Pr2 2.944212 1_556
Ni10 Pr2 2.944212 1_565
Ni10 Pr2 2.944212 1_655
Ni11 Ni7 2.444585 1_455
Ni11 Ni8 2.462019 1_555
Ni11 Ni9 2.473113 1_455
Ni11 Ni6 2.474135 1_555
Ni11 Ni12 2.487667 1_555
Ni11 Ni13 2.487668 1_555
Ni11 Ni12 2.497858 1_456
Ni11 Ni13 2.497858 1_465
Ni11 Pr1 3.215065 1_454
Ni11 Pr1 3.215065 1_445
Ni12 Ni7 2.444585 1_554
Ni12 Ni8 2.462019 1_555
Ni12 Ni9 2.473113 1_554
Ni12 Ni6 2.474135 1_555
Ni12 Ni13 2.487667 1_555
Ni12 Ni13 2.497858 1_564
Ni12 Pr1 3.215066 1_454
Ni12 Pr1 3.215066 1_544
Ni13 Ni7 2.444585 1_545
Ni13 Ni8 2.462019 1_555
Ni13 Ni9 2.473113 1_545
Ni13 Ni6 2.474133 1_555
Ni13 Pr1 3.215065 1_544
Ni13 Pr1 3.215065 1_445
