# generated using pymatgen
data_TeWS
_symmetry_space_group_name_H-M   'P 1'
_cell_length_a   3.36029180
_cell_length_b   3.36029180
_cell_length_c   38.36830300
_cell_angle_alpha   90.00000000
_cell_angle_beta   90.00000000
_cell_angle_gamma   119.99999597
_symmetry_Int_Tables_number   1
_chemical_formula_structural   TeWS
_chemical_formula_sum   'Te4 W4 S4'
_cell_volume   375.19515674
_cell_formula_units_Z   4
loop_
 _symmetry_equiv_pos_site_id
 _symmetry_equiv_pos_as_xyz
  1  'x, y, z'
loop_
 _atom_site_type_symbol
 _atom_site_label
 _atom_site_symmetry_multiplicity
 _atom_site_fract_x
 _atom_site_fract_y
 _atom_site_fract_z
 _atom_site_occupancy
  Te  Te0  1  0.33333300  0.66666700  0.33136300  1
  Te  Te1  1  0.66666700  0.33333300  0.66863700  1
  Te  Te2  1  0.66666700  0.33333300  0.76773700  1
  Te  Te3  1  0.33333300  0.66666700  0.23226300  1
  W  W0  1  0.33333300  0.66666700  0.71816800  1
  W  W1  1  0.33333300  0.66666700  0.09392500  1
  W  W2  1  0.66666700  0.33333300  0.90607500  1
  W  W3  1  0.66666700  0.33333300  0.28183200  1
  S  S0  1  0.33333300  0.66666700  0.94563500  1
  S  S1  1  0.66666700  0.33333300  0.05436500  1
  S  S2  1  0.66666700  0.33333300  0.13349100  1
  S  S3  1  0.33333300  0.66666700  0.86650900  1
loop_
_geom_bond_atom_site_label_1
_geom_bond_atom_site_label_2
_geom_bond_distance
_geom_bond_site_symmetry_2
Te0 W3 2.715777 1_455
Te0 W3 2.715777 1_565
Te0 W3 2.715781 1_555
Te1 W0 2.715777 1_655
Te1 W0 2.715777 1_545
Te1 W0 2.715781 1_555
Te2 W0 2.716797 1_655
Te2 W0 2.716797 1_545
Te2 W0 2.716801 1_555
Te3 W3 2.716797 1_455
Te3 W3 2.716797 1_565
Te3 W3 2.716801 1_555
S0 W2 2.463273 1_455
S0 W2 2.463273 1_565
S0 W2 2.463278 1_555
S1 W1 2.463273 1_545
S1 W1 2.463273 1_655
S1 W1 2.463278 1_555
S2 W1 2.463415 1_655
S2 W1 2.463415 1_545
S2 W1 2.463420 1_555
S3 W2 2.463415 1_565
S3 W2 2.463415 1_455
S3 W2 2.463420 1_555
