# generated using pymatgen
data_Rb2HPd(CN)4
_symmetry_space_group_name_H-M   'P 1'
_cell_length_a   7.65895200
_cell_length_b   10.07707800
_cell_length_c   13.76851800
_cell_angle_alpha   90.00000000
_cell_angle_beta   90.00000000
_cell_angle_gamma   90.00000000
_symmetry_Int_Tables_number   1
_chemical_formula_structural   Rb2HPd(CN)4
_chemical_formula_sum   'Rb8 H4 Pd4 C16 N16'
_cell_volume   1062.65224624
_cell_formula_units_Z   4
loop_
 _symmetry_equiv_pos_site_id
 _symmetry_equiv_pos_as_xyz
  1  'x, y, z'
loop_
 _atom_site_type_symbol
 _atom_site_label
 _atom_site_symmetry_multiplicity
 _atom_site_fract_x
 _atom_site_fract_y
 _atom_site_fract_z
 _atom_site_occupancy
  Rb  Rb0  1  0.28941800  0.25000000  0.25000000  1
  Rb  Rb1  1  0.71058200  0.75000000  0.75000000  1
  Rb  Rb2  1  0.21058200  0.75000000  0.25000000  1
  Rb  Rb3  1  0.78941800  0.25000000  0.75000000  1
  Rb  Rb4  1  0.25000000  0.00000000  0.59600600  1
  Rb  Rb5  1  0.75000000  0.00000000  0.40399400  1
  Rb  Rb6  1  0.25000000  0.50000000  0.90399400  1
  Rb  Rb7  1  0.75000000  0.50000000  0.09600600  1
  H  H0  1  0.74971700  0.25000000  0.25000000  1
  H  H1  1  0.25028300  0.75000000  0.75000000  1
  H  H2  1  0.75028300  0.75000000  0.25000000  1
  H  H3  1  0.24971700  0.25000000  0.75000000  1
  Pd  Pd0  1  0.00000000  0.00000000  0.00000000  1
  Pd  Pd1  1  0.50000000  0.00000000  0.00000000  1
  Pd  Pd2  1  0.50000000  0.50000000  0.50000000  1
  Pd  Pd3  1  0.00000000  0.50000000  0.50000000  1
  C  C0  1  0.00731700  0.01181400  0.14442700  1
  C  C1  1  0.99268300  0.98818600  0.85557300  1
  C  C2  1  0.49268300  0.98818600  0.14442700  1
  C  C3  1  0.49268300  0.51181400  0.35557300  1
  C  C4  1  0.50731700  0.01181400  0.85557300  1
  C  C5  1  0.50731700  0.48818600  0.64442700  1
  C  C6  1  0.00731700  0.48818600  0.35557300  1
  C  C7  1  0.99268300  0.51181400  0.64442700  1
  C  C8  1  0.52966800  0.19708800  0.99036700  1
  C  C9  1  0.47033200  0.80291200  0.00963300  1
  C  C10  1  0.97033200  0.80291200  0.99036700  1
  C  C11  1  0.97033200  0.69708800  0.50963300  1
  C  C12  1  0.02966800  0.19708800  0.00963300  1
  C  C13  1  0.02966800  0.30291200  0.49036700  1
  C  C14  1  0.52966800  0.30291200  0.50963300  1
  C  C15  1  0.47033200  0.69708800  0.49036700  1
  N  N0  1  0.01736200  0.02701600  0.22908300  1
  N  N1  1  0.98263800  0.97298400  0.77091700  1
  N  N2  1  0.48263800  0.97298400  0.22908300  1
  N  N3  1  0.48263800  0.52701600  0.27091700  1
  N  N4  1  0.51736200  0.02701600  0.77091700  1
  N  N5  1  0.51736200  0.47298400  0.72908300  1
  N  N6  1  0.01736200  0.47298400  0.27091700  1
  N  N7  1  0.98263800  0.52701600  0.72908300  1
  N  N8  1  0.54691200  0.31127000  0.97607900  1
  N  N9  1  0.45308800  0.68873000  0.02392100  1
  N  N10  1  0.95308800  0.68873000  0.97607900  1
  N  N11  1  0.95308800  0.81127000  0.52392100  1
  N  N12  1  0.04691200  0.31127000  0.02392100  1
  N  N13  1  0.04691200  0.18873000  0.47607900  1
  N  N14  1  0.54691200  0.18873000  0.52392100  1
  N  N15  1  0.45308800  0.81127000  0.47607900  1
loop_
_geom_bond_atom_site_label_1
_geom_bond_atom_site_label_2
_geom_bond_distance
_geom_bond_site_symmetry_2
C0 N0 1.178126 1_555
C0 Pd0 1.992894 1_555
C1 N1 1.178126 1_555
C1 Pd0 1.992894 1_666
C2 N2 1.178126 1_555
C2 Pd1 1.992894 1_565
C3 N3 1.178126 1_555
C3 Pd2 1.992894 1_555
C4 N4 1.178126 1_555
C4 Pd1 1.992894 1_556
C5 N5 1.178126 1_555
C5 Pd2 1.992894 1_555
C6 N6 1.178126 1_555
C6 Pd3 1.992894 1_555
C7 N7 1.178126 1_555
C7 Pd3 1.992894 1_655
C8 N8 1.174765 1_555
C8 Pd1 2.003422 1_556
C9 N9 1.174765 1_555
C9 Pd1 2.003422 1_565
C10 N10 1.174765 1_555
C10 Pd0 2.003422 1_666
C11 N11 1.174765 1_555
C11 Pd3 2.003422 1_655
C12 N12 1.174765 1_555
C12 Pd0 2.003422 1_555
C13 N13 1.174765 1_555
C13 Pd3 2.003422 1_555
C14 N14 1.174765 1_555
C14 Pd2 2.003422 1_555
C15 N15 1.174765 1_555
C15 Pd2 2.003422 1_555
N0 Rb0 3.077942 1_555
N0 Rb2 3.172613 1_545
N0 Rb5 3.172851 1_455
N1 Rb1 3.077942 1_555
N1 Rb3 3.172613 1_565
N1 Rb4 3.172851 1_665
N2 Rb2 3.077942 1_555
N2 Rb0 3.172613 1_565
N2 Rb5 3.172851 1_565
N3 Rb2 3.077942 1_555
N3 Rb0 3.172613 1_555
N3 Rb7 3.172851 1_555
N4 Rb3 3.077942 1_555
N4 Rb1 3.172613 1_545
N4 Rb4 3.172851 1_555
N5 Rb3 3.077942 1_555
N5 Rb1 3.172613 1_555
N5 Rb6 3.172851 1_555
N6 Rb0 3.077942 1_555
N6 Rb2 3.172613 1_555
N6 Rb7 3.172851 1_455
N7 Rb1 3.077942 1_555
N7 Rb3 3.172613 1_555
N7 Rb6 3.172851 1_655
N8 Rb7 2.960226 1_556
N8 Rb6 3.126231 1_555
N9 Rb6 2.960226 1_554
N9 Rb7 3.126231 1_555
N10 Rb7 2.960226 1_556
N10 Rb6 3.126231 1_655
N11 Rb5 2.960226 1_565
N11 Rb4 3.126231 1_665
N12 Rb6 2.960226 1_554
N12 Rb7 3.126231 1_455
N13 Rb4 2.960226 1_555
N13 Rb5 3.126231 1_455
N14 Rb5 2.960226 1_555
N14 Rb4 3.126231 1_555
N15 Rb4 2.960226 1_565
N15 Rb5 3.126231 1_565
