# generated using pymatgen
data_Li6CoO4
_symmetry_space_group_name_H-M   'P 1'
_cell_length_a   7.94606763
_cell_length_b   7.94612934
_cell_length_c   7.94612067
_cell_angle_alpha   109.12400430
_cell_angle_beta   109.64344709
_cell_angle_gamma   109.64351165
_symmetry_Int_Tables_number   1
_chemical_formula_structural   Li6CoO4
_chemical_formula_sum   'Li24 Co4 O16'
_cell_volume   386.23062221
_cell_formula_units_Z   4
loop_
 _symmetry_equiv_pos_site_id
 _symmetry_equiv_pos_as_xyz
  1  'x, y, z'
loop_
 _atom_site_type_symbol
 _atom_site_label
 _atom_site_symmetry_multiplicity
 _atom_site_fract_x
 _atom_site_fract_y
 _atom_site_fract_z
 _atom_site_occupancy
  Li  Li0  1  0.74999050  0.10077337  0.35075985  1
  Li  Li1  1  0.74999194  0.60076034  0.85077406  1
  Li  Li2  1  0.74999730  0.85077480  0.10078299  1
  Li  Li3  1  0.74999865  0.35078387  0.60077536  1
  Li  Li4  1  0.25000272  0.39921741  0.14921707  1
  Li  Li5  1  0.25001935  0.89922474  0.64922528  1
  Li  Li6  1  0.24998919  0.64923161  0.39923241  1
  Li  Li7  1  0.25001892  0.14924839  0.89924788  1
  Li  Li8  1  0.53206329  0.40706360  0.37499638  1
  Li  Li9  1  0.53205261  0.90705820  0.87498974  1
  Li  Li10  1  0.03204056  0.87500764  0.90703618  1
  Li  Li11  1  0.03204586  0.37500747  0.40704058  1
  Li  Li12  1  0.46794937  0.09294148  0.12501055  1
  Li  Li13  1  0.46795426  0.59294565  0.62501028  1
  Li  Li14  1  0.53211024  0.62504419  0.15705476  1
  Li  Li15  1  0.53210252  0.12503394  0.65705207  1
  Li  Li16  1  0.46790217  0.87496097  0.34294876  1
  Li  Li17  1  0.46789750  0.37496098  0.84294367  1
  Li  Li18  1  0.96799436  0.84295574  0.37504021  1
  Li  Li19  1  0.96800389  0.34295892  0.87504380  1
  Li  Li20  1  0.03199509  0.65704013  0.12495385  1
  Li  Li21  1  0.03199110  0.15703488  0.62495430  1
  Li  Li22  1  0.96794264  0.62498496  0.59295481  1
  Li  Li23  1  0.96794896  0.12498888  0.09295144  1
  Co  Co0  1  0.25000386  0.62500429  0.87500413  1
  Co  Co1  1  0.74999636  0.87497309  0.62497323  1
  Co  Co2  1  0.25000398  0.12500384  0.37500422  1
  Co  Co3  1  0.74999680  0.37497351  0.12497347  1
  O  O0  1  0.74998136  0.35006375  0.36409080  1
  O  O1  1  0.74998311  0.85008816  0.86410753  1
  O  O2  1  0.48598890  0.63591172  0.38589153  1
  O  O3  1  0.48598234  0.13592797  0.88590837  1
  O  O4  1  0.24998410  0.38586576  0.89988725  1
  O  O5  1  0.24996604  0.88585881  0.39987854  1
  O  O6  1  0.01402625  0.39992587  0.14994559  1
  O  O7  1  0.01401715  0.89989911  0.64991991  1
  O  O8  1  0.98598819  0.10012689  0.35009509  1
  O  O9  1  0.98598602  0.60011797  0.85010348  1
  O  O10  1  0.75002013  0.11412620  0.60010671  1
  O  O11  1  0.75002247  0.61411126  0.10008403  1
  O  O12  1  0.25003076  0.14991059  0.13589127  1
  O  O13  1  0.25001271  0.64990142  0.63587992  1
  O  O14  1  0.51400594  0.86410991  0.11412420  1
  O  O15  1  0.51400354  0.36409772  0.61413046  1
loop_
_geom_bond_atom_site_label_1
_geom_bond_atom_site_label_2
_geom_bond_distance
_geom_bond_site_symmetry_2
Li0 O8 1.878763 1_555
Li0 O14 1.878818 1_545
Li0 O0 1.948788 1_555
Li0 O10 1.949074 1_555
Li1 O9 1.878739 1_555
Li1 O15 1.878847 1_555
Li1 O11 1.948783 1_556
Li1 O1 1.949078 1_555
Li2 O11 1.878814 1_555
Li2 O1 1.878833 1_554
Li2 O14 1.949036 1_555
Li2 O8 1.949167 1_565
Li3 O0 1.878811 1_555
Li3 O10 1.878836 1_555
Li3 O15 1.949045 1_555
Li3 O9 1.949153 1_555
Li4 O6 1.878931 1_555
Li4 O2 1.879009 1_555
Li4 O4 1.948973 1_554
Li4 O12 1.948983 1_555
Li5 O7 1.878953 1_555
Li5 O3 1.878997 1_565
Li5 O13 1.948972 1_555
Li5 O5 1.948977 1_555
Li6 O13 1.878630 1_555
Li6 O5 1.878657 1_555
Li6 O6 1.948900 1_555
Li6 O2 1.949058 1_555
Li7 O4 1.878627 1_555
Li7 O12 1.878648 1_556
Li7 O3 1.948767 1_555
Li7 O7 1.949228 1_545
Li8 O0 1.952827 1_555
Li8 O2 1.952968 1_555
Li8 O12 2.078983 1_555
Li8 O15 2.079265 1_555
Li9 O1 1.952753 1_555
Li9 O3 1.953083 1_565
Li9 O13 2.079027 1_555
Li9 O14 2.079173 1_556
Li10 O9 1.952837 1_455
Li10 O12 1.953063 1_566
Li10 O7 2.078676 1_555
Li10 O1 2.078968 1_455
Li11 O8 1.952739 1_455
Li11 O13 1.952957 1_555
Li11 O6 2.078610 1_555
Li11 O0 2.078923 1_455
Li12 O12 1.952653 1_555
Li12 O14 1.952780 1_545
Li12 O0 2.078857 1_555
Li12 O3 2.079018 1_554
Li13 O13 1.952754 1_555
Li13 O15 1.952888 1_555
Li13 O1 2.078929 1_555
Li13 O2 2.079081 1_555
Li14 O11 1.952720 1_555
Li14 O2 1.953113 1_555
Li14 O14 2.078719 1_555
Li14 O4 2.079481 1_554
Li15 O10 1.952605 1_555
Li15 O3 1.953219 1_555
Li15 O15 2.078659 1_555
Li15 O5 2.079527 1_545
Li16 O5 1.952664 1_555
Li16 O14 1.952972 1_555
Li16 O2 2.078587 1_555
Li16 O10 2.079404 1_565
Li17 O4 1.952558 1_555
Li17 O15 1.952874 1_555
Li17 O3 2.078531 1_555
Li17 O11 2.079357 1_556
Li18 O7 1.952808 1_655
Li18 O11 1.953230 1_555
Li18 O5 2.078546 1_655
Li18 O8 2.079352 1_565
Li19 O6 1.952943 1_656
Li19 O10 1.953145 1_555
Li19 O4 2.078593 1_655
Li19 O9 2.079261 1_555
Li20 O9 1.952642 1_454
Li20 O5 1.953045 1_555
Li20 O11 2.078426 1_455
Li20 O6 2.079113 1_555
Li21 O8 1.952746 1_455
Li21 O4 1.953139 1_555
Li21 O10 2.078507 1_455
Li21 O7 2.079181 1_545
Li22 O7 1.952934 1_655
Li22 O0 1.953112 1_555
Li22 O9 2.078809 1_555
Li22 O13 2.079081 1_655
Li23 O1 1.952992 1_544
Li23 O6 1.953061 1_655
Li23 O8 2.078760 1_555
Li23 O12 2.079134 1_655
Co0 O9 1.973780 1_455
Co0 O14 1.973781 1_556
Co0 O13 1.973814 1_555
Co0 O4 1.973817 1_555
Co1 O7 1.973606 1_655
Co1 O2 1.973608 1_555
Co1 O1 1.973864 1_555
Co1 O10 1.973869 1_565
Co2 O15 1.973760 1_555
Co2 O8 1.973766 1_455
Co2 O5 1.973798 1_545
Co2 O12 1.973798 1_555
Co3 O6 1.973555 1_655
Co3 O3 1.973557 1_554
Co3 O0 1.973817 1_555
Co3 O11 1.973819 1_555
