# generated using pymatgen
data_ThCrSb3
_symmetry_space_group_name_H-M   'P 1'
_cell_length_a   6.19999200
_cell_length_b   6.31517100
_cell_length_c   12.95584900
_cell_angle_alpha   90.00000000
_cell_angle_beta   90.00000000
_cell_angle_gamma   90.00000000
_symmetry_Int_Tables_number   1
_chemical_formula_structural   ThCrSb3
_chemical_formula_sum   'Th4 Cr4 Sb12'
_cell_volume   507.27343714
_cell_formula_units_Z   4
loop_
 _symmetry_equiv_pos_site_id
 _symmetry_equiv_pos_as_xyz
  1  'x, y, z'
loop_
 _atom_site_type_symbol
 _atom_site_label
 _atom_site_symmetry_multiplicity
 _atom_site_fract_x
 _atom_site_fract_y
 _atom_site_fract_z
 _atom_site_occupancy
  Th  Th0  1  0.25000000  0.50356900  0.30767100  1
  Th  Th1  1  0.75000000  0.49643100  0.69232900  1
  Th  Th2  1  0.25000000  0.00356900  0.69232900  1
  Th  Th3  1  0.75000000  0.99643100  0.30767100  1
  Cr  Cr0  1  0.00000000  0.75000000  0.90671300  1
  Cr  Cr1  1  0.00000000  0.25000000  0.09328700  1
  Cr  Cr2  1  0.50000000  0.25000000  0.09328700  1
  Cr  Cr3  1  0.50000000  0.75000000  0.90671300  1
  Sb  Sb0  1  0.00000000  0.75000000  0.50144500  1
  Sb  Sb1  1  0.00000000  0.25000000  0.49855500  1
  Sb  Sb2  1  0.50000000  0.25000000  0.49855500  1
  Sb  Sb3  1  0.50000000  0.75000000  0.50144500  1
  Sb  Sb4  1  0.25000000  0.59521100  0.06123500  1
  Sb  Sb5  1  0.75000000  0.40478900  0.93876500  1
  Sb  Sb6  1  0.25000000  0.09521100  0.93876500  1
  Sb  Sb7  1  0.75000000  0.90478900  0.06123500  1
  Sb  Sb8  1  0.25000000  0.00452100  0.23038900  1
  Sb  Sb9  1  0.75000000  0.99547900  0.76961100  1
  Sb  Sb10  1  0.25000000  0.50452100  0.76961100  1
  Sb  Sb11  1  0.75000000  0.49547900  0.23038900  1
loop_
_geom_bond_atom_site_label_1
_geom_bond_atom_site_label_2
_geom_bond_distance
_geom_bond_site_symmetry_2
Cr0 Sb5 2.706959 1_455
Cr0 Sb6 2.706959 1_565
Cr0 Sb7 2.714018 1_456
Cr0 Sb4 2.714018 1_556
Cr0 Sb9 2.821505 1_455
Cr0 Sb10 2.821505 1_555
Cr1 Sb4 2.706959 1_555
Cr1 Sb7 2.706959 1_445
Cr1 Sb6 2.714018 1_554
Cr1 Sb5 2.714018 1_454
Cr1 Sb11 2.821505 1_455
Cr1 Sb8 2.821505 1_555
Cr2 Sb4 2.706959 1_555
Cr2 Sb7 2.706959 1_545
Cr2 Sb5 2.714018 1_554
Cr2 Sb6 2.714018 1_554
Cr2 Sb11 2.821505 1_555
Cr2 Sb8 2.821505 1_555
Cr3 Sb5 2.706959 1_555
Cr3 Sb6 2.706959 1_565
Cr3 Sb7 2.714018 1_556
Cr3 Sb4 2.714018 1_556
Cr3 Sb9 2.821505 1_555
Cr3 Sb10 2.821505 1_555
Sb0 Sb3 3.099996 1_555
Sb0 Sb3 3.099996 1_455
Sb0 Sb1 3.157807 1_565
Sb0 Sb1 3.157807 1_555
Sb0 Th2 3.329085 1_565
Sb0 Th1 3.329085 1_455
Sb0 Th0 3.335725 1_555
Sb0 Th3 3.335725 1_455
Sb1 Sb2 3.099996 1_455
Sb1 Sb2 3.099996 1_555
Sb1 Th3 3.329085 1_445
Sb1 Th0 3.329085 1_555
Sb1 Th1 3.335725 1_455
Sb1 Th2 3.335725 1_555
Sb2 Sb3 3.157807 1_555
Sb2 Sb3 3.157807 1_545
Sb2 Th0 3.329085 1_555
Sb2 Th3 3.329085 1_545
Sb2 Th1 3.335725 1_555
Sb2 Th2 3.335725 1_555
Sb3 Th1 3.329085 1_555
Sb3 Th2 3.329085 1_565
Sb3 Th0 3.335725 1_555
Sb3 Th3 3.335725 1_555
Sb4 Th0 3.244815 1_555
Sb5 Th1 3.244815 1_555
Sb6 Th2 3.244815 1_555
Sb7 Th3 3.244815 1_555
Sb8 Th3 3.258081 1_445
Sb8 Th3 3.258081 1_545
Sb8 Th0 3.306800 1_555
Sb8 Th0 3.318261 1_545
Sb9 Th2 3.258081 1_565
Sb9 Th2 3.258081 1_665
Sb9 Th1 3.306800 1_555
Sb9 Th1 3.318261 1_565
Sb10 Th1 3.258081 1_555
Sb10 Th1 3.258081 1_455
Sb10 Th2 3.306800 1_565
Sb10 Th2 3.318261 1_555
Sb11 Th0 3.258081 1_555
Sb11 Th0 3.258081 1_655
Sb11 Th3 3.306800 1_545
Sb11 Th3 3.318261 1_555
