# generated using pymatgen
data_Th(WO4)2
_symmetry_space_group_name_H-M   'P 1'
_cell_length_a   9.93870700
_cell_length_b   10.52709700
_cell_length_c   14.82005700
_cell_angle_alpha   90.00000000
_cell_angle_beta   90.00000000
_cell_angle_gamma   90.00000000
_symmetry_Int_Tables_number   1
_chemical_formula_structural   Th(WO4)2
_chemical_formula_sum   'Th8 W16 O64'
_cell_volume   1550.55932144
_cell_formula_units_Z   8
loop_
 _symmetry_equiv_pos_site_id
 _symmetry_equiv_pos_as_xyz
  1  'x, y, z'
loop_
 _atom_site_type_symbol
 _atom_site_label
 _atom_site_symmetry_multiplicity
 _atom_site_fract_x
 _atom_site_fract_y
 _atom_site_fract_z
 _atom_site_occupancy
  Th  Th0  1  0.27574900  0.96559800  0.60920100  1
  Th  Th1  1  0.72425100  0.03440200  0.39079900  1
  Th  Th2  1  0.22425100  0.46559800  0.39079900  1
  Th  Th3  1  0.72425100  0.53440200  0.10920100  1
  Th  Th4  1  0.77574900  0.53440200  0.60920100  1
  Th  Th5  1  0.27574900  0.46559800  0.89079900  1
  Th  Th6  1  0.77574900  0.03440200  0.89079900  1
  Th  Th7  1  0.22425100  0.96559800  0.10920100  1
  W  W0  1  0.00117300  0.72401100  0.94035300  1
  W  W1  1  0.99882700  0.27598900  0.05964700  1
  W  W2  1  0.49882700  0.22401100  0.05964700  1
  W  W3  1  0.99882700  0.77598900  0.44035300  1
  W  W4  1  0.50117300  0.77598900  0.94035300  1
  W  W5  1  0.00117300  0.22401100  0.55964700  1
  W  W6  1  0.50117300  0.27598900  0.55964700  1
  W  W7  1  0.49882700  0.72401100  0.44035300  1
  W  W8  1  0.18163300  0.60482800  0.65183700  1
  W  W9  1  0.81836700  0.39517200  0.34816300  1
  W  W10  1  0.31836700  0.10482800  0.34816300  1
  W  W11  1  0.81836700  0.89517200  0.15183700  1
  W  W12  1  0.68163300  0.89517200  0.65183700  1
  W  W13  1  0.18163300  0.10482800  0.84816300  1
  W  W14  1  0.68163300  0.39517200  0.84816300  1
  W  W15  1  0.31836700  0.60482800  0.15183700  1
  O  O0  1  0.38899800  0.67454500  0.87615800  1
  O  O1  1  0.61100200  0.32545500  0.12384200  1
  O  O2  1  0.11100200  0.17454500  0.12384200  1
  O  O3  1  0.61100200  0.82545500  0.37615800  1
  O  O4  1  0.88899800  0.82545500  0.87615800  1
  O  O5  1  0.38899800  0.17454500  0.62384200  1
  O  O6  1  0.88899800  0.32545500  0.62384200  1
  O  O7  1  0.11100200  0.67454500  0.37615800  1
  O  O8  1  0.23658500  0.57105200  0.53757400  1
  O  O9  1  0.76341500  0.42894800  0.46242600  1
  O  O10  1  0.26341500  0.07105200  0.46242600  1
  O  O11  1  0.76341500  0.92894800  0.03757400  1
  O  O12  1  0.73658500  0.92894800  0.53757400  1
  O  O13  1  0.23658500  0.07105200  0.96242600  1
  O  O14  1  0.73658500  0.42894800  0.96242600  1
  O  O15  1  0.26341500  0.57105200  0.03757400  1
  O  O16  1  0.11770600  0.83031100  0.99620300  1
  O  O17  1  0.88229400  0.16968900  0.00379700  1
  O  O18  1  0.38229400  0.33031100  0.00379700  1
  O  O19  1  0.88229400  0.66968900  0.49620300  1
  O  O20  1  0.61770600  0.66968900  0.99620300  1
  O  O21  1  0.11770600  0.33031100  0.50379700  1
  O  O22  1  0.61770600  0.16968900  0.50379700  1
  O  O23  1  0.38229400  0.83031100  0.49620300  1
  O  O24  1  0.22888800  0.76708900  0.67781000  1
  O  O25  1  0.77111200  0.23291100  0.32219000  1
  O  O26  1  0.27111200  0.26708900  0.32219000  1
  O  O27  1  0.77111200  0.73291100  0.17781000  1
  O  O28  1  0.72888800  0.73291100  0.67781000  1
  O  O29  1  0.22888800  0.26708900  0.82219000  1
  O  O30  1  0.72888800  0.23291100  0.82219000  1
  O  O31  1  0.27111200  0.76708900  0.17781000  1
  O  O32  1  0.09256200  0.61035500  0.86949900  1
  O  O33  1  0.90743800  0.38964500  0.13050100  1
  O  O34  1  0.40743800  0.11035500  0.13050100  1
  O  O35  1  0.90743800  0.88964500  0.36949900  1
  O  O36  1  0.59256200  0.88964500  0.86949900  1
  O  O37  1  0.09256200  0.11035500  0.63050100  1
  O  O38  1  0.59256200  0.38964500  0.63050100  1
  O  O39  1  0.40743800  0.61035500  0.36949900  1
  O  O40  1  0.26336300  0.99834100  0.76949800  1
  O  O41  1  0.73663700  0.00165900  0.23050200  1
  O  O42  1  0.23663700  0.49834100  0.23050200  1
  O  O43  1  0.73663700  0.50165900  0.26949800  1
  O  O44  1  0.76336300  0.50165900  0.76949800  1
  O  O45  1  0.26336300  0.49834100  0.73050200  1
  O  O46  1  0.76336300  0.00165900  0.73050200  1
  O  O47  1  0.23663700  0.99834100  0.26949800  1
  O  O48  1  0.09255900  0.86118500  0.52599400  1
  O  O49  1  0.90744100  0.13881500  0.47400600  1
  O  O50  1  0.40744100  0.36118500  0.47400600  1
  O  O51  1  0.90744100  0.63881500  0.02599400  1
  O  O52  1  0.59255900  0.63881500  0.52599400  1
  O  O53  1  0.09255900  0.36118500  0.97400600  1
  O  O54  1  0.59255900  0.13881500  0.97400600  1
  O  O55  1  0.40744100  0.86118500  0.02599400  1
  O  O56  1  0.00095000  0.58216200  0.65579800  1
  O  O57  1  0.99905000  0.41783800  0.34420200  1
  O  O58  1  0.49905000  0.08216200  0.34420200  1
  O  O59  1  0.99905000  0.91783800  0.15579800  1
  O  O60  1  0.50095000  0.91783800  0.65579800  1
  O  O61  1  0.00095000  0.08216200  0.84420200  1
  O  O62  1  0.50095000  0.41783800  0.84420200  1
  O  O63  1  0.49905000  0.58216200  0.15579800  1
loop_
_geom_bond_atom_site_label_1
_geom_bond_atom_site_label_2
_geom_bond_distance
_geom_bond_site_symmetry_2
O0 W4 1.813419 1_555
O0 Th5 2.480364 1_555
O1 W2 1.813419 1_555
O1 Th3 2.480364 1_555
O2 W1 1.813419 1_455
O2 Th7 2.480364 1_545
O3 W7 1.813419 1_555
O3 Th1 2.480364 1_565
O4 W0 1.813419 1_655
O4 Th6 2.480364 1_565
O5 W6 1.813419 1_555
O5 Th0 2.480364 1_545
O6 W5 1.813419 1_655
O6 Th4 2.480364 1_555
O7 W3 1.813419 1_455
O7 Th2 2.480364 1_555
O8 W8 1.814458 1_555
O8 Th2 2.445191 1_555
O9 W9 1.814458 1_555
O9 Th4 2.445191 1_555
O10 W10 1.814458 1_555
O10 Th0 2.445191 1_545
O11 W11 1.814458 1_555
O11 Th6 2.445191 1_564
O12 W12 1.814458 1_555
O12 Th1 2.445191 1_565
O13 W13 1.814458 1_555
O13 Th7 2.445191 1_546
O14 W14 1.814458 1_555
O14 Th3 2.445191 1_556
O15 W15 1.814458 1_555
O15 Th5 2.445191 1_554
O16 W0 1.810722 1_555
O16 Th7 2.440083 1_556
O17 W1 1.810722 1_555
O17 Th6 2.440083 1_554
O18 W2 1.810722 1_555
O18 Th5 2.440083 1_554
O19 W3 1.810722 1_555
O19 Th4 2.440083 1_555
O20 W4 1.810722 1_555
O20 Th3 2.440083 1_556
O21 W5 1.810722 1_555
O21 Th2 2.440083 1_555
O22 W6 1.810722 1_555
O22 Th1 2.440083 1_555
O23 W7 1.810722 1_555
O23 Th0 2.440083 1_555
O24 W8 1.812863 1_555
O24 Th0 2.370172 1_555
O25 W9 1.812863 1_555
O25 Th1 2.370172 1_555
O26 W10 1.812863 1_555
O26 Th2 2.370172 1_555
O27 W11 1.812863 1_555
O27 Th3 2.370172 1_555
O28 W12 1.812863 1_555
O28 Th4 2.370172 1_555
O29 W13 1.812863 1_555
O29 Th5 2.370172 1_555
O30 W14 1.812863 1_555
O30 Th6 2.370172 1_555
O31 W15 1.812863 1_555
O31 Th7 2.370172 1_555
O32 W0 1.832798 1_555
O32 Th5 2.395113 1_555
O33 W1 1.832798 1_555
O33 Th3 2.395113 1_555
O34 W2 1.832798 1_555
O34 Th7 2.395113 1_545
O35 W3 1.832798 1_555
O35 Th1 2.395113 1_565
O36 W4 1.832798 1_555
O36 Th6 2.395113 1_565
O37 W5 1.832798 1_555
O37 Th0 2.395113 1_545
O38 W6 1.832798 1_555
O38 Th4 2.395113 1_555
O39 W7 1.832798 1_555
O39 Th2 2.395113 1_555
O40 W13 1.809859 1_565
O40 Th0 2.403641 1_555
O41 W11 1.809859 1_545
O41 Th1 2.403641 1_555
O42 W15 1.809859 1_555
O42 Th2 2.403641 1_555
O43 W9 1.809859 1_555
O43 Th3 2.403641 1_555
O44 W14 1.809859 1_555
O44 Th4 2.403641 1_555
O45 W8 1.809859 1_555
O45 Th5 2.403641 1_555
O46 W12 1.809859 1_545
O46 Th6 2.403641 1_555
O47 W10 1.809859 1_565
O47 Th7 2.403641 1_555
O48 W3 1.811928 1_455
O48 Th0 2.458379 1_555
O49 W5 1.811928 1_655
O49 Th1 2.458379 1_555
O50 W6 1.811928 1_555
O50 Th2 2.458379 1_555
O51 W0 1.811928 1_654
O51 Th3 2.458379 1_555
O52 W7 1.811928 1_555
O52 Th4 2.458379 1_555
O53 W1 1.811928 1_456
O53 Th5 2.458379 1_555
O54 W2 1.811928 1_556
O54 Th6 2.458379 1_555
O55 W4 1.811928 1_554
O55 Th7 2.458379 1_555
O56 W8 1.812489 1_555
O56 Th4 2.395671 1_455
O57 W9 1.812489 1_555
O57 Th2 2.395671 1_655
O58 W10 1.812489 1_555
O58 Th1 2.395671 1_555
O59 W11 1.812489 1_555
O59 Th7 2.395671 1_655
O60 W12 1.812489 1_555
O60 Th0 2.395671 1_555
O61 W13 1.812489 1_555
O61 Th6 2.395671 1_455
O62 W14 1.812489 1_555
O62 Th5 2.395671 1_555
O63 W15 1.812489 1_555
O63 Th3 2.395671 1_555
