# generated using pymatgen
data_SiC4(NO)4
_symmetry_space_group_name_H-M   'P 1'
_cell_length_a   11.46851100
_cell_length_b   7.66894300
_cell_length_c   11.11723893
_cell_angle_alpha   90.00000000
_cell_angle_beta   100.31477756
_cell_angle_gamma   90.00000000
_symmetry_Int_Tables_number   1
_chemical_formula_structural   SiC4(NO)4
_chemical_formula_sum   'Si4 C16 N16 O16'
_cell_volume   961.97430137
_cell_formula_units_Z   4
loop_
 _symmetry_equiv_pos_site_id
 _symmetry_equiv_pos_as_xyz
  1  'x, y, z'
loop_
 _atom_site_type_symbol
 _atom_site_label
 _atom_site_symmetry_multiplicity
 _atom_site_fract_x
 _atom_site_fract_y
 _atom_site_fract_z
 _atom_site_occupancy
  Si  Si0  1  0.24086500  0.36173000  0.39441100  1
  Si  Si1  1  0.75913500  0.86173000  0.10558900  1
  Si  Si2  1  0.75913500  0.63827000  0.60558900  1
  Si  Si3  1  0.24086500  0.13827000  0.89441100  1
  C  C0  1  0.05336200  0.34989000  0.18314900  1
  C  C1  1  0.94663800  0.84989000  0.31685100  1
  C  C2  1  0.94663800  0.65011000  0.81685100  1
  C  C3  1  0.05336200  0.15011000  0.68314900  1
  C  C4  1  0.19132500  0.57721400  0.58755900  1
  C  C5  1  0.80867500  0.07721400  0.91244100  1
  C  C6  1  0.80867500  0.42278600  0.41244100  1
  C  C7  1  0.19132500  0.92278600  0.08755900  1
  C  C8  1  0.44687400  0.52433000  0.32647700  1
  C  C9  1  0.55312600  0.02433000  0.17352300  1
  C  C10  1  0.55312600  0.47567000  0.67352300  1
  C  C11  1  0.44687400  0.97567000  0.82647700  1
  C  C12  1  0.32369300  0.01800900  0.46538100  1
  C  C13  1  0.67630700  0.51800900  0.03461900  1
  C  C14  1  0.67630700  0.98199100  0.53461900  1
  C  C15  1  0.32369300  0.48199100  0.96538100  1
  N  N0  1  0.27597200  0.15758200  0.44571400  1
  N  N1  1  0.72402800  0.65758200  0.05428600  1
  N  N2  1  0.72402800  0.84241800  0.55428600  1
  N  N3  1  0.27597200  0.34241800  0.94571400  1
  N  N4  1  0.36087900  0.45626700  0.35384000  1
  N  N5  1  0.63912100  0.95626700  0.14616000  1
  N  N6  1  0.63912100  0.54373300  0.64616000  1
  N  N7  1  0.36087900  0.04373300  0.85384000  1
  N  N8  1  0.19147800  0.47229700  0.50672100  1
  N  N9  1  0.80852200  0.97229700  0.99327900  1
  N  N10  1  0.80852200  0.52770300  0.49327900  1
  N  N11  1  0.19147800  0.02770300  0.00672100  1
  N  N12  1  0.13117600  0.35723800  0.27137400  1
  N  N13  1  0.86882400  0.85723800  0.22862600  1
  N  N14  1  0.86882400  0.64276200  0.72862600  1
  N  N15  1  0.13117600  0.14276200  0.77137400  1
  O  O0  1  0.97684200  0.34223600  0.09665500  1
  O  O1  1  0.02315800  0.84223600  0.40334500  1
  O  O2  1  0.02315800  0.65776400  0.90334500  1
  O  O3  1  0.97684200  0.15776400  0.59665500  1
  O  O4  1  0.53187000  0.59105100  0.29987900  1
  O  O5  1  0.46813000  0.09105100  0.20012100  1
  O  O6  1  0.46813000  0.40894900  0.70012100  1
  O  O7  1  0.53187000  0.90894900  0.79987900  1
  O  O8  1  0.36819900  0.87995800  0.48752000  1
  O  O9  1  0.63180100  0.37995800  0.01248000  1
  O  O10  1  0.63180100  0.12004200  0.51248000  1
  O  O11  1  0.36819900  0.62004200  0.98752000  1
  O  O12  1  0.18704500  0.67629800  0.66799500  1
  O  O13  1  0.81295500  0.17629800  0.83200500  1
  O  O14  1  0.81295500  0.32370200  0.33200500  1
  O  O15  1  0.18704500  0.82370200  0.16799500  1
loop_
_geom_bond_atom_site_label_1
_geom_bond_atom_site_label_2
_geom_bond_distance
_geom_bond_site_symmetry_2
C0 O0 1.181528 1_455
C0 N12 1.203380 1_555
C1 O1 1.181528 1_655
C1 N13 1.203380 1_555
C2 O2 1.181528 1_655
C2 N14 1.203380 1_555
C3 O3 1.181528 1_455
C3 N15 1.203380 1_555
C4 O12 1.181173 1_555
C4 N8 1.206485 1_555
C5 O13 1.181173 1_555
C5 N9 1.206485 1_545
C6 O14 1.181173 1_555
C6 N10 1.206485 1_555
C7 O15 1.181173 1_555
C7 N11 1.206485 1_565
C8 O4 1.184342 1_555
C8 N4 1.202119 1_555
C9 O5 1.184342 1_555
C9 N5 1.202119 1_545
C10 O6 1.184342 1_555
C10 N6 1.202119 1_555
C11 O7 1.184342 1_555
C11 N7 1.202119 1_565
C12 O8 1.181936 1_545
C12 N0 1.204236 1_555
C13 O9 1.181936 1_555
C13 N1 1.204236 1_555
C14 O10 1.181936 1_565
C14 N2 1.204236 1_555
C15 O11 1.181936 1_555
C15 N3 1.204236 1_555
N0 Si0 1.690050 1_555
N1 Si1 1.690050 1_555
N2 Si2 1.690050 1_555
N3 Si3 1.690050 1_555
N4 Si0 1.686950 1_555
N5 Si1 1.686950 1_555
N6 Si2 1.686950 1_555
N7 Si3 1.686950 1_555
N8 Si0 1.688784 1_555
N9 Si1 1.688784 1_556
N10 Si2 1.688784 1_555
N11 Si3 1.688784 1_554
N12 Si0 1.684766 1_555
N13 Si1 1.684766 1_555
N14 Si2 1.684766 1_555
N15 Si3 1.684766 1_555
