# generated using pymatgen
data_La3Fe4AgO12
_symmetry_space_group_name_H-M   'P 1'
_cell_length_a   7.90506800
_cell_length_b   5.54405100
_cell_length_c   5.56155762
_cell_angle_alpha   89.79208236
_cell_angle_beta   90.00000000
_cell_angle_gamma   90.00000000
_symmetry_Int_Tables_number   1
_chemical_formula_structural   La3Fe4AgO12
_chemical_formula_sum   'La3 Fe4 Ag1 O12'
_cell_volume   243.73977633
_cell_formula_units_Z   1
loop_
 _symmetry_equiv_pos_site_id
 _symmetry_equiv_pos_as_xyz
  1  'x, y, z'
loop_
 _atom_site_type_symbol
 _atom_site_label
 _atom_site_symmetry_multiplicity
 _atom_site_fract_x
 _atom_site_fract_y
 _atom_site_fract_z
 _atom_site_occupancy
  La  La0  1  0.00000000  0.00839900  0.96856900  1
  La  La1  1  0.50000000  0.50763900  0.53263700  1
  La  La2  1  0.50000000  0.99714200  0.03013900  1
  Fe  Fe0  1  0.24443900  0.50154700  0.00501300  1
  Fe  Fe1  1  0.75494300  0.00030500  0.49822900  1
  Fe  Fe2  1  0.75556100  0.50154700  0.00501300  1
  Fe  Fe3  1  0.24505700  0.00030500  0.49822900  1
  Ag  Ag0  1  0.00000000  0.49770200  0.48111400  1
  O  O0  1  0.00000000  0.57209500  0.02273300  1
  O  O1  1  0.00000000  0.92470000  0.51240100  1
  O  O2  1  0.50000000  0.43621900  0.98429600  1
  O  O3  1  0.50000000  0.07207000  0.49411400  1
  O  O4  1  0.22522700  0.20361800  0.20435300  1
  O  O5  1  0.78485200  0.27796600  0.72100600  1
  O  O6  1  0.71173600  0.78315600  0.78265900  1
  O  O7  1  0.30007300  0.72542500  0.27573800  1
  O  O8  1  0.28826400  0.78315600  0.78265900  1
  O  O9  1  0.69992700  0.72542500  0.27573800  1
  O  O10  1  0.77477300  0.20361800  0.20435300  1
  O  O11  1  0.21514800  0.27796600  0.72100600  1
loop_
_geom_bond_atom_site_label_1
_geom_bond_atom_site_label_2
_geom_bond_distance
_geom_bond_site_symmetry_2
La0 O0 2.436492 1_546
La0 O4 2.463982 1_556
La0 O10 2.463982 1_456
La0 O1 2.580748 1_545
La0 O11 2.647043 1_555
La0 O5 2.647043 1_455
La0 O8 2.798304 1_545
La0 O6 2.798304 1_445
La1 O3 2.425077 1_555
La1 O9 2.446317 1_555
La1 O7 2.446317 1_555
La1 O2 2.541524 1_555
La1 O6 2.661522 1_555
La1 O8 2.661522 1_555
La1 O5 2.789205 1_555
La1 O11 2.789205 1_555
La2 O2 2.446660 1_564
La2 O6 2.472902 1_554
La2 O8 2.472902 1_554
La2 O9 2.572517 1_555
La2 O7 2.572517 1_555
La2 O3 2.615134 1_565
La2 O10 2.641061 1_565
La2 O4 2.641061 1_565
Fe0 O0 1.974026 1_555
Fe0 O4 1.991754 1_555
Fe0 O7 2.003628 1_555
Fe0 O8 2.018115 1_554
Fe0 O11 2.024644 1_554
Fe0 O2 2.055741 1_554
Fe1 O1 1.983527 1_645
Fe1 O10 1.988221 1_555
Fe1 O5 1.993610 1_555
Fe1 O6 2.013579 1_545
Fe1 O9 2.014050 1_545
Fe1 O3 2.054351 1_555
Fe2 O0 1.974026 1_655
Fe2 O10 1.991754 1_555
Fe2 O9 2.003628 1_555
Fe2 O6 2.018115 1_554
Fe2 O5 2.024644 1_554
Fe2 O2 2.055741 1_554
Fe3 O1 1.983527 1_545
Fe3 O4 1.988221 1_555
Fe3 O11 1.993610 1_555
Fe3 O8 2.013579 1_545
Fe3 O7 2.014050 1_545
Fe3 O3 2.054351 1_555
Ag0 O1 2.374315 1_555
Ag0 O11 2.478888 1_555
Ag0 O5 2.478888 1_455
Ag0 O0 2.580982 1_555
