# generated using pymatgen
data_Na4Tb2(IrO4)3
_symmetry_space_group_name_H-M   'P 1'
_cell_length_a   3.20770900
_cell_length_b   9.48117490
_cell_length_c   9.48117490
_cell_angle_alpha   119.99999230
_cell_angle_beta   90.00000000
_cell_angle_gamma   90.00000000
_symmetry_Int_Tables_number   1
_chemical_formula_structural   Na4Tb2(IrO4)3
_chemical_formula_sum   'Na4 Tb2 Ir3 O12'
_cell_volume   249.71805520
_cell_formula_units_Z   1
loop_
 _symmetry_equiv_pos_site_id
 _symmetry_equiv_pos_as_xyz
  1  'x, y, z'
loop_
 _atom_site_type_symbol
 _atom_site_label
 _atom_site_symmetry_multiplicity
 _atom_site_fract_x
 _atom_site_fract_y
 _atom_site_fract_z
 _atom_site_occupancy
  Na  Na0  1  0.50000000  0.30098000  0.30098000  1
  Na  Na1  1  0.50000000  0.00000000  0.69902000  1
  Na  Na2  1  0.50000000  0.69902000  0.00000000  1
  Na  Na3  1  0.00000000  0.00000000  0.00000000  1
  Tb  Tb0  1  0.50000000  0.66666700  0.33333300  1
  Tb  Tb1  1  0.50000000  0.33333300  0.66666700  1
  Ir  Ir0  1  0.00000000  0.67042300  0.67042300  1
  Ir  Ir1  1  0.00000000  0.00000000  0.32957700  1
  Ir  Ir2  1  0.00000000  0.32957700  0.00000000  1
  O  O0  1  0.50000000  0.54350600  0.54350600  1
  O  O1  1  0.50000000  0.00000000  0.45649400  1
  O  O2  1  0.50000000  0.45649400  0.00000000  1
  O  O3  1  0.50000000  0.80346700  0.80346700  1
  O  O4  1  0.50000000  0.00000000  0.19653300  1
  O  O5  1  0.50000000  0.19653300  0.00000000  1
  O  O6  1  0.00000000  0.75671800  0.21622400  1
  O  O7  1  0.00000000  0.45950600  0.24328200  1
  O  O8  1  0.00000000  0.54049400  0.78377600  1
  O  O9  1  0.00000000  0.78377600  0.54049400  1
  O  O10  1  0.00000000  0.21622400  0.75671800  1
  O  O11  1  0.00000000  0.24328200  0.45950600  1
loop_
_geom_bond_atom_site_label_1
_geom_bond_atom_site_label_2
_geom_bond_distance
_geom_bond_site_symmetry_2
Na0 O0 2.299432 1_555
Na0 O7 2.439850 1_555
Na0 O7 2.439850 1_655
Na0 O11 2.439850 1_555
Na0 O11 2.439850 1_655
Na0 O5 2.509588 1_555
Na0 O4 2.509588 1_555
Na1 O1 2.299431 1_555
Na1 O10 2.439850 1_555
Na1 O10 2.439850 1_655
Na1 O9 2.439851 1_545
Na1 O9 2.439851 1_645
Na1 O3 2.509588 1_545
Na1 O5 2.509588 1_556
Na2 O2 2.299431 1_555
Na2 O6 2.439850 1_555
Na2 O6 2.439850 1_655
Na2 O8 2.439851 1_654
Na2 O8 2.439851 1_554
Na2 O3 2.509588 1_554
Na2 O4 2.509588 1_565
Na3 O5 2.458551 1_455
Na3 O5 2.458551 1_555
Na3 O4 2.458551 1_455
Na3 O4 2.458551 1_555
Na3 O3 2.458551 1_544
Na3 O3 2.458551 1_444
Ir0 O8 1.999118 1_555
Ir0 O9 1.999118 1_555
Ir0 O0 2.005077 1_455
Ir0 O0 2.005077 1_555
Ir0 O3 2.040469 1_555
Ir0 O3 2.040469 1_455
Ir1 O6 1.999119 1_545
Ir1 O11 1.999119 1_555
Ir1 O1 2.005077 1_455
Ir1 O1 2.005077 1_555
Ir1 O4 2.040469 1_555
Ir1 O4 2.040469 1_455
Ir2 O10 1.999119 1_554
Ir2 O7 1.999119 1_555
Ir2 O2 2.005077 1_455
Ir2 O2 2.005077 1_555
Ir2 O5 2.040469 1_455
Ir2 O5 2.040469 1_555
O0 Tb0 2.767893 1_555
O0 Tb1 2.767893 1_555
O1 Tb0 2.767885 1_545
O1 Tb1 2.767886 1_555
O2 Tb1 2.767885 1_554
O2 Tb0 2.767886 1_555
O6 Tb0 2.341395 1_555
O6 Tb0 2.341395 1_455
O7 Tb0 2.341401 1_555
O7 Tb0 2.341401 1_455
O8 Tb1 2.341400 1_455
O8 Tb1 2.341400 1_555
O9 Tb0 2.341400 1_555
O9 Tb0 2.341400 1_455
O10 Tb1 2.341395 1_555
O10 Tb1 2.341395 1_455
O11 Tb1 2.341401 1_455
O11 Tb1 2.341401 1_555
