# generated using pymatgen
data_Yb2SnGe2
_symmetry_space_group_name_H-M   'P 1'
_cell_length_a   7.37513800
_cell_length_b   7.37513800
_cell_length_c   4.38733100
_cell_angle_alpha   90.00000000
_cell_angle_beta   90.00000000
_cell_angle_gamma   90.00000000
_symmetry_Int_Tables_number   1
_chemical_formula_structural   Yb2SnGe2
_chemical_formula_sum   'Yb4 Sn2 Ge4'
_cell_volume   238.63860567
_cell_formula_units_Z   2
loop_
 _symmetry_equiv_pos_site_id
 _symmetry_equiv_pos_as_xyz
  1  'x, y, z'
loop_
 _atom_site_type_symbol
 _atom_site_label
 _atom_site_symmetry_multiplicity
 _atom_site_fract_x
 _atom_site_fract_y
 _atom_site_fract_z
 _atom_site_occupancy
  Yb  Yb0  1  0.67599800  0.17599800  0.50000000  1
  Yb  Yb1  1  0.32400200  0.82400200  0.50000000  1
  Yb  Yb2  1  0.17599800  0.32400200  0.50000000  1
  Yb  Yb3  1  0.82400200  0.67599800  0.50000000  1
  Sn  Sn0  1  0.50000000  0.50000000  0.00000000  1
  Sn  Sn1  1  0.00000000  0.00000000  0.00000000  1
  Ge  Ge0  1  0.11959800  0.61959800  0.00000000  1
  Ge  Ge1  1  0.88040200  0.38040200  0.00000000  1
  Ge  Ge2  1  0.61959800  0.88040200  0.00000000  1
  Ge  Ge3  1  0.38040200  0.11959800  0.00000000  1
loop_
_geom_bond_atom_site_label_1
_geom_bond_atom_site_label_2
_geom_bond_distance
_geom_bond_site_symmetry_2
Sn0 Yb3 3.493851 1_555
Sn0 Yb3 3.493851 1_554
Sn0 Yb0 3.493851 1_555
Sn0 Yb0 3.493851 1_554
Sn0 Yb2 3.493851 1_554
Sn0 Yb1 3.493851 1_554
Sn0 Yb1 3.493851 1_555
Sn0 Yb2 3.493851 1_555
Sn1 Yb0 3.493851 1_454
Sn1 Yb1 3.493851 1_544
Sn1 Yb0 3.493851 1_455
Sn1 Yb2 3.493851 1_555
Sn1 Yb2 3.493851 1_554
Sn1 Yb3 3.493851 1_445
Sn1 Yb1 3.493851 1_545
Sn1 Yb3 3.493851 1_444
Ge0 Ge1 2.494819 1_455
Ge0 Sn0 2.940908 1_555
Ge0 Sn1 2.940908 1_565
Ge0 Yb1 3.058975 1_554
Ge0 Yb1 3.058975 1_555
Ge0 Yb2 3.120554 1_554
Ge0 Yb3 3.120554 1_455
Ge0 Yb3 3.120554 1_454
Ge0 Yb2 3.120554 1_555
Ge1 Sn0 2.940908 1_555
Ge1 Sn1 2.940908 1_655
Ge1 Yb0 3.058975 1_554
Ge1 Yb0 3.058975 1_555
Ge1 Yb2 3.120554 1_655
Ge1 Yb2 3.120554 1_654
Ge1 Yb3 3.120554 1_555
Ge1 Yb3 3.120554 1_554
Ge2 Ge3 2.494819 1_565
Ge2 Sn0 2.940908 1_555
Ge2 Sn1 2.940908 1_665
Ge2 Yb3 3.058975 1_555
Ge2 Yb3 3.058975 1_554
Ge2 Yb0 3.120554 1_564
Ge2 Yb0 3.120554 1_565
Ge2 Yb1 3.120554 1_554
Ge2 Yb1 3.120554 1_555
Ge3 Sn0 2.940908 1_555
Ge3 Sn1 2.940908 1_555
Ge3 Yb2 3.058975 1_554
Ge3 Yb2 3.058975 1_555
Ge3 Yb0 3.120554 1_554
Ge3 Yb1 3.120554 1_545
Ge3 Yb1 3.120554 1_544
Ge3 Yb0 3.120554 1_555
