# generated using pymatgen
data_Li3SbCl6
_symmetry_space_group_name_H-M   'P 1'
_cell_length_a   7.26967572
_cell_length_b   7.26967572
_cell_length_c   7.26967572
_cell_angle_alpha   60.00000000
_cell_angle_beta   60.00000000
_cell_angle_gamma   60.00000000
_symmetry_Int_Tables_number   1
_chemical_formula_structural   Li3SbCl6
_chemical_formula_sum   'Li3 Sb1 Cl6'
_cell_volume   271.66276608
_cell_formula_units_Z   1
loop_
 _symmetry_equiv_pos_site_id
 _symmetry_equiv_pos_as_xyz
  1  'x, y, z'
loop_
 _atom_site_type_symbol
 _atom_site_label
 _atom_site_symmetry_multiplicity
 _atom_site_fract_x
 _atom_site_fract_y
 _atom_site_fract_z
 _atom_site_occupancy
  Li  Li0  1  0.75000000  0.75000000  0.75000000  1
  Li  Li1  1  0.25000000  0.25000000  0.25000000  1
  Li  Li2  1  0.50000000  0.50000000  0.50000000  1
  Sb  Sb0  1  0.00000000  0.00000000  0.00000000  1
  Cl  Cl0  1  0.74411300  0.25588700  0.25588700  1
  Cl  Cl1  1  0.25588700  0.25588700  0.74411300  1
  Cl  Cl2  1  0.25588700  0.74411300  0.74411300  1
  Cl  Cl3  1  0.25588700  0.74411300  0.25588700  1
  Cl  Cl4  1  0.74411300  0.25588700  0.74411300  1
  Cl  Cl5  1  0.74411300  0.74411300  0.25588700  1
loop_
_geom_bond_atom_site_label_1
_geom_bond_atom_site_label_2
_geom_bond_distance
_geom_bond_site_symmetry_2
Cl0 Li2 2.509695 1_555
Cl0 Sb0 2.630742 1_655
Cl1 Li2 2.509695 1_555
Cl1 Sb0 2.630742 1_556
Cl2 Li2 2.509695 1_555
Cl2 Sb0 2.630742 1_566
Cl3 Li2 2.509695 1_555
Cl3 Sb0 2.630742 1_565
Cl4 Li2 2.509695 1_555
Cl4 Sb0 2.630742 1_656
Cl5 Li2 2.509695 1_555
Cl5 Sb0 2.630742 1_665
