# generated using pymatgen
data_NdNb3O9
_symmetry_space_group_name_H-M   'P 1'
_cell_length_a   16.81994342
_cell_length_b   12.54656757
_cell_length_c   9.77680809
_cell_angle_alpha   59.12215471
_cell_angle_beta   54.99805072
_cell_angle_gamma   26.54280116
_symmetry_Int_Tables_number   1
_chemical_formula_structural   NdNb3O9
_chemical_formula_sum   'Nd4 Nb12 O36'
_cell_volume   755.22828565
_cell_formula_units_Z   4
loop_
 _symmetry_equiv_pos_site_id
 _symmetry_equiv_pos_as_xyz
  1  'x, y, z'
loop_
 _atom_site_type_symbol
 _atom_site_label
 _atom_site_symmetry_multiplicity
 _atom_site_fract_x
 _atom_site_fract_y
 _atom_site_fract_z
 _atom_site_occupancy
  Nd  Nd0  1  0.00000000  0.00000000  0.00000000  1
  Nd  Nd1  1  0.33322300  0.00156700  0.99876200  1
  Nd  Nd2  1  0.66677700  0.99843300  0.00123800  1
  Nd  Nd3  1  0.50000000  0.50000000  0.00000000  1
  Nb  Nb0  1  0.07539300  0.00906200  0.25745500  1
  Nb  Nb1  1  0.41528400  0.00113100  0.25268200  1
  Nb  Nb2  1  0.24941000  0.00678700  0.73789900  1
  Nb  Nb3  1  0.24350600  0.50029700  0.26210100  1
  Nb  Nb4  1  0.08438200  0.49920300  0.74731800  1
  Nb  Nb5  1  0.75059000  0.99321300  0.26210100  1
  Nb  Nb6  1  0.58471600  0.99886900  0.74731800  1
  Nb  Nb7  1  0.58269600  0.50175900  0.25745500  1
  Nb  Nb8  1  0.41730400  0.49824100  0.74254500  1
  Nb  Nb9  1  0.92460700  0.99093800  0.74254500  1
  Nb  Nb10  1  0.91561800  0.50079700  0.25268200  1
  Nb  Nb11  1  0.75649400  0.49970300  0.73789900  1
  O  O0  1  0.00000000  0.00000000  0.50000000  1
  O  O1  1  0.17525500  0.98614100  0.00075700  1
  O  O2  1  0.01152500  0.24357600  0.23108200  1
  O  O3  1  0.00000000  0.50000000  0.00000000  1
  O  O4  1  0.17937400  0.23178800  0.23008900  1
  O  O5  1  0.50000000  0.00000000  0.00000000  1
  O  O6  1  0.33409400  0.99891700  0.49929000  1
  O  O7  1  0.34375900  0.24753300  0.23066900  1
  O  O8  1  0.16571900  0.24298900  0.76933100  1
  O  O9  1  0.99819000  0.77608100  0.22934900  1
  O  O10  1  0.16639500  0.50059400  0.50071000  1
  O  O11  1  0.33740700  0.50119700  0.99924300  1
  O  O12  1  0.51199100  0.24588600  0.21813800  1
  O  O13  1  0.33270100  0.23188600  0.77001100  1
  O  O14  1  0.19047300  0.73526100  0.22062800  1
  O  O15  1  0.82474500  0.01385900  0.99924300  1
  O  O16  1  0.66590600  0.00108300  0.50071000  1
  O  O17  1  0.66316400  0.26257000  0.22062800  1
  O  O18  1  0.49770700  0.24719200  0.76891800  1
  O  O19  1  0.34235800  0.75288600  0.22004100  1
  O  O20  1  0.15098300  0.77759200  0.76945900  1
  O  O21  1  0.50000000  0.50000000  0.50000000  1
  O  O22  1  0.66259300  0.49880300  0.00075700  1
  O  O23  1  0.84901700  0.22240800  0.23054100  1
  O  O24  1  0.65764200  0.24711400  0.77995900  1
  O  O25  1  0.50229300  0.75280800  0.23108200  1
  O  O26  1  0.33683600  0.73743000  0.77937200  1
  O  O27  1  0.80952700  0.26473900  0.77937200  1
  O  O28  1  0.66729900  0.76811400  0.22998900  1
  O  O29  1  0.48800900  0.75411400  0.78186200  1
  O  O30  1  0.83360500  0.49940600  0.49929000  1
  O  O31  1  0.00181000  0.22391900  0.77065100  1
  O  O32  1  0.65624100  0.75246700  0.76933100  1
  O  O33  1  0.83428100  0.75701100  0.23066900  1
  O  O34  1  0.82062600  0.76821200  0.76991100  1
  O  O35  1  0.98847500  0.75642400  0.76891800  1
loop_
_geom_bond_atom_site_label_1
_geom_bond_atom_site_label_2
_geom_bond_distance
_geom_bond_site_symmetry_2
Nd0 O20 2.554647 1_544
Nd0 O23 2.554647 1_455
Nd0 O9 2.555463 1_445
Nd0 O31 2.555463 1_554
Nd0 O27 2.735647 1_454
Nd0 O14 2.735647 1_545
Nd0 O26 2.735653 1_544
Nd0 O17 2.735653 1_455
Nd0 O22 2.797549 1_455
Nd0 O11 2.797549 1_544
Nd0 O1 2.797555 1_545
Nd0 O15 2.797555 1_454
Nd1 O13 2.587649 1_555
Nd1 O4 2.602372 1_556
Nd1 O29 2.622216 1_545
Nd1 O19 2.652196 1_546
Nd1 O8 2.674209 1_555
Nd1 O32 2.674215 1_545
Nd1 O2 2.690808 1_556
Nd1 O25 2.690825 1_546
Nd1 O3 2.794554 1_556
Nd1 O5 2.794566 1_556
Nd1 O1 2.820340 1_546
Nd1 O22 2.820357 1_546
Nd2 O28 2.587649 1_555
Nd2 O34 2.602372 1_554
Nd2 O12 2.622216 1_565
Nd2 O24 2.652196 1_564
Nd2 O33 2.674209 1_555
Nd2 O7 2.674215 1_565
Nd2 O35 2.690808 1_554
Nd2 O18 2.690825 1_564
Nd2 O3 2.794554 1_655
Nd2 O5 2.794566 1_565
Nd2 O15 2.820340 1_564
Nd2 O11 2.820357 1_564
Nd3 O17 2.574294 1_555
Nd3 O26 2.574294 1_554
Nd3 O27 2.574299 1_554
Nd3 O14 2.574299 1_555
Nd3 O29 2.667917 1_554
Nd3 O12 2.667917 1_555
Nd3 O19 2.671222 1_555
Nd3 O24 2.671222 1_554
Nd3 O15 2.725624 1_554
Nd3 O1 2.725624 1_555
Nd3 O11 2.725630 1_554
Nd3 O22 2.725630 1_555
Nb0 O2 1.939484 1_555
Nb0 O0 1.943102 1_555
Nb0 O23 1.980667 1_455
Nb0 O19 2.031576 1_545
Nb0 O1 2.059873 1_545
Nb0 O14 2.061606 1_545
Nb1 O6 1.975012 1_545
Nb1 O4 1.993080 1_555
Nb1 O28 1.994616 1_545
Nb1 O7 2.002670 1_555
Nb1 O25 2.013957 1_545
Nb1 O5 2.023621 1_555
Nb2 O6 1.911419 1_545
Nb2 O8 1.957799 1_555
Nb2 O31 1.983506 1_555
Nb2 O26 2.033177 1_545
Nb2 O29 2.039034 1_545
Nb2 O1 2.108265 1_546
Nb3 O10 1.911419 1_555
Nb3 O7 1.957799 1_555
Nb3 O9 1.983506 1_455
Nb3 O14 2.033176 1_555
Nb3 O12 2.039011 1_555
Nb3 O11 2.108264 1_554
Nb4 O10 1.975012 1_555
Nb4 O34 1.993080 1_455
Nb4 O13 1.994608 1_555
Nb4 O8 2.002670 1_555
Nb4 O35 2.013957 1_455
Nb4 O3 2.023621 1_556
Nb5 O16 1.911419 1_565
Nb5 O33 1.957799 1_555
Nb5 O9 1.983506 1_555
Nb5 O17 2.033177 1_565
Nb5 O12 2.039034 1_565
Nb5 O15 2.108265 1_564
Nb6 O16 1.975012 1_565
Nb6 O34 1.993080 1_555
Nb6 O13 1.994616 1_565
Nb6 O32 2.002670 1_555
Nb6 O18 2.013957 1_565
Nb6 O5 2.023621 1_566
Nb7 O25 1.939483 1_555
Nb7 O21 1.943101 1_555
Nb7 O23 1.980675 1_555
Nb7 O19 2.031561 1_555
Nb7 O22 2.059872 1_555
Nb7 O17 2.061606 1_555
Nb8 O18 1.939483 1_555
Nb8 O21 1.943101 1_555
Nb8 O20 1.980675 1_555
Nb8 O24 2.031561 1_555
Nb8 O11 2.059872 1_555
Nb8 O26 2.061606 1_555
Nb9 O35 1.939484 1_555
Nb9 O0 1.943102 1_665
Nb9 O20 1.980667 1_655
Nb9 O24 2.031576 1_565
Nb9 O15 2.059873 1_565
Nb9 O27 2.061606 1_565
Nb10 O30 1.975012 1_555
Nb10 O4 1.993080 1_655
Nb10 O28 1.994608 1_555
Nb10 O33 2.002670 1_555
Nb10 O2 2.013957 1_655
Nb10 O3 2.023621 1_655
Nb11 O30 1.911419 1_555
Nb11 O32 1.957799 1_555
Nb11 O31 1.983506 1_655
Nb11 O27 2.033176 1_555
Nb11 O29 2.039011 1_555
Nb11 O22 2.108264 1_556
