# generated using pymatgen
data_DyErAl4
_symmetry_space_group_name_H-M   'P 1'
_cell_length_a   5.51633608
_cell_length_b   5.51633608
_cell_length_c   5.51633721
_cell_angle_alpha   60.00000678
_cell_angle_beta   60.00000678
_cell_angle_gamma   60.00000000
_symmetry_Int_Tables_number   1
_chemical_formula_structural   DyErAl4
_chemical_formula_sum   'Dy1 Er1 Al4'
_cell_volume   118.69632926
_cell_formula_units_Z   1
loop_
 _symmetry_equiv_pos_site_id
 _symmetry_equiv_pos_as_xyz
  1  'x, y, z'
loop_
 _atom_site_type_symbol
 _atom_site_label
 _atom_site_symmetry_multiplicity
 _atom_site_fract_x
 _atom_site_fract_y
 _atom_site_fract_z
 _atom_site_occupancy
  Dy  Dy0  1  0.24999888  0.24999888  0.25000436  1
  Er  Er0  1  0.99999726  0.99999726  0.00000922  1
  Al  Al0  1  0.62503596  0.62503596  0.12489211  1
  Al  Al1  1  0.62503613  0.12489663  0.62503110  1
  Al  Al2  1  0.12489663  0.62503613  0.62503110  1
  Al  Al3  1  0.62503613  0.62503613  0.62503110  1
loop_
_geom_bond_atom_site_label_1
_geom_bond_atom_site_label_2
_geom_bond_distance
_geom_bond_site_symmetry_2
Dy0 Er0 3.378045 1_455
Dy0 Er0 3.378045 1_545
Dy0 Er0 3.378045 1_445
Dy0 Er0 3.378075 1_446
Al0 Al3 2.757401 1_554
Al0 Al1 2.757401 1_564
Al0 Al2 2.757401 1_654
Al0 Al1 2.758936 1_555
Al0 Al2 2.758936 1_555
Al0 Al3 2.758936 1_555
Al0 Er0 3.234145 1_545
Al0 Er0 3.234145 1_455
Al0 Er0 3.234150 1_555
Al0 Dy0 3.234324 1_555
Al0 Dy0 3.234328 1_655
Al0 Dy0 3.234328 1_565
Al1 Al3 2.757399 1_545
Al1 Al2 2.757399 1_645
Al1 Al3 2.758938 1_555
Al1 Al2 2.758938 1_555
Al1 Er0 3.234106 1_545
Al1 Er0 3.234185 1_446
Al1 Er0 3.234190 1_546
Al1 Dy0 3.234300 1_555
Al1 Dy0 3.234304 1_655
Al1 Dy0 3.234354 1_556
Al2 Al3 2.757399 1_455
Al2 Al3 2.758938 1_555
Al2 Er0 3.234106 1_455
Al2 Er0 3.234185 1_446
Al2 Er0 3.234190 1_456
Al2 Dy0 3.234300 1_555
Al2 Dy0 3.234304 1_565
Al2 Dy0 3.234354 1_556
Al3 Er0 3.234108 1_555
Al3 Er0 3.234188 1_546
Al3 Er0 3.234188 1_456
Al3 Dy0 3.234302 1_655
Al3 Dy0 3.234302 1_565
Al3 Dy0 3.234352 1_556
