# generated using pymatgen
data_U2Ag(GeO6)2
_symmetry_space_group_name_H-M   'P 1'
_cell_length_a   8.93746099
_cell_length_b   8.93746099
_cell_length_c   7.03506800
_cell_angle_alpha   90.00000000
_cell_angle_beta   90.00000000
_cell_angle_gamma   104.44459819
_symmetry_Int_Tables_number   1
_chemical_formula_structural   U2Ag(GeO6)2
_chemical_formula_sum   'U4 Ag2 Ge4 O24'
_cell_volume   544.18503764
_cell_formula_units_Z   2
loop_
 _symmetry_equiv_pos_site_id
 _symmetry_equiv_pos_as_xyz
  1  'x, y, z'
loop_
 _atom_site_type_symbol
 _atom_site_label
 _atom_site_symmetry_multiplicity
 _atom_site_fract_x
 _atom_site_fract_y
 _atom_site_fract_z
 _atom_site_occupancy
  U  U0  1  0.97713000  0.40842800  0.25000000  1
  U  U1  1  0.59157200  0.02287000  0.75000000  1
  U  U2  1  0.99789600  0.61693400  0.75000000  1
  U  U3  1  0.38306600  0.00210400  0.25000000  1
  Ag  Ag0  1  0.58344600  0.41655400  0.50000000  1
  Ag  Ag1  1  0.58344600  0.41655400  0.00000000  1
  Ge  Ge0  1  0.99372400  0.24217000  0.75000000  1
  Ge  Ge1  1  0.75783000  0.00627600  0.25000000  1
  Ge  Ge2  1  0.21630800  0.01617400  0.75000000  1
  Ge  Ge3  1  0.98382600  0.78369200  0.25000000  1
  O  O0  1  0.75384800  0.39568100  0.25000000  1
  O  O1  1  0.60431900  0.24615200  0.75000000  1
  O  O2  1  0.18590600  0.43675800  0.25000000  1
  O  O3  1  0.56324200  0.81409400  0.75000000  1
  O  O4  1  0.97771800  0.37301500  0.56575200  1
  O  O5  1  0.62698500  0.02228200  0.43424800  1
  O  O6  1  0.97771800  0.37301500  0.93424800  1
  O  O7  1  0.62698500  0.02228200  0.06575200  1
  O  O8  1  0.35058900  0.00708000  0.56776900  1
  O  O9  1  0.99292000  0.64941100  0.43223100  1
  O  O10  1  0.35058900  0.00708000  0.93223100  1
  O  O11  1  0.99292000  0.64941100  0.06776900  1
  O  O12  1  0.84189600  0.07538200  0.75000000  1
  O  O13  1  0.92461800  0.15810400  0.25000000  1
  O  O14  1  0.78153100  0.56949000  0.75000000  1
  O  O15  1  0.43051000  0.21846900  0.25000000  1
  O  O16  1  0.20484700  0.63788100  0.75000000  1
  O  O17  1  0.36211900  0.79515300  0.25000000  1
  O  O18  1  0.04707000  0.86792400  0.75000000  1
  O  O19  1  0.13207600  0.95293000  0.25000000  1
  O  O20  1  0.17782900  0.20169400  0.75000000  1
  O  O21  1  0.79830600  0.82217100  0.25000000  1
  O  O22  1  0.46546300  0.46622600  0.75000000  1
  O  O23  1  0.53377400  0.53453700  0.25000000  1
loop_
_geom_bond_atom_site_label_1
_geom_bond_atom_site_label_2
_geom_bond_distance
_geom_bond_site_symmetry_2
Ag0 O23 2.153088 1_555
Ag0 O22 2.153088 1_555
Ag0 O0 2.364152 1_555
Ag0 O1 2.364152 1_555
Ag0 O14 2.624608 1_555
Ag0 O15 2.624608 1_555
Ag1 O23 2.153088 1_555
Ag1 O22 2.153088 1_554
Ag1 O0 2.364152 1_555
Ag1 O1 2.364152 1_554
Ag1 O15 2.624608 1_555
Ag1 O14 2.624608 1_554
Ge0 O12 1.747647 1_555
Ge0 O20 1.770668 1_655
Ge0 O6 1.775274 1_555
Ge0 O4 1.775274 1_555
Ge1 O13 1.747647 1_555
Ge1 O21 1.770668 1_545
Ge1 O5 1.775274 1_555
Ge1 O7 1.775274 1_555
Ge2 O18 1.744585 1_545
Ge2 O10 1.771758 1_555
Ge2 O8 1.771758 1_555
Ge2 O20 1.775378 1_555
Ge3 O19 1.744585 1_655
Ge3 O11 1.771758 1_555
Ge3 O9 1.771758 1_555
Ge3 O21 1.775378 1_555
O0 U0 1.970247 1_555
O1 U1 1.970247 1_555
O2 U0 1.819367 1_455
O3 U1 1.819367 1_565
O4 U0 2.243963 1_555
O4 U2 2.503795 1_555
O5 U1 2.243963 1_555
O5 U3 2.503795 1_555
O6 U0 2.243963 1_556
O6 U2 2.503795 1_555
O7 U1 2.243963 1_554
O7 U3 2.503795 1_555
O8 U3 2.256158 1_555
O8 U1 2.480035 1_555
O9 U2 2.256158 1_555
O9 U0 2.480035 1_555
O10 U3 2.256158 1_556
O10 U1 2.480035 1_555
O11 U2 2.256158 1_554
O11 U0 2.480035 1_555
O12 U1 2.168356 1_555
O13 U0 2.168356 1_555
O14 U2 1.873535 1_555
O15 U3 1.873535 1_555
O16 U2 1.812010 1_455
O17 U3 1.812010 1_565
O18 U2 2.175619 1_455
O19 U3 2.175619 1_565
