# generated using pymatgen
data_Cs2WSO4
_symmetry_space_group_name_H-M   'P 1'
_cell_length_a   6.45078497
_cell_length_b   6.45078497
_cell_length_c   13.04794264
_cell_angle_alpha   75.68838285
_cell_angle_beta   75.68838285
_cell_angle_gamma   60.00000031
_symmetry_Int_Tables_number   1
_chemical_formula_structural   Cs2WSO4
_chemical_formula_sum   'Cs4 W2 S2 O8'
_cell_volume   450.65427563
_cell_formula_units_Z   2
loop_
 _symmetry_equiv_pos_site_id
 _symmetry_equiv_pos_as_xyz
  1  'x, y, z'
loop_
 _atom_site_type_symbol
 _atom_site_label
 _atom_site_symmetry_multiplicity
 _atom_site_fract_x
 _atom_site_fract_y
 _atom_site_fract_z
 _atom_site_occupancy
  Cs  Cs0  1  0.35493624  0.35493624  0.93519027  1
  Cs  Cs1  1  0.64506376  0.64506376  0.06480973  1
  Cs  Cs2  1  0.22639424  0.22639424  0.32081828  1
  Cs  Cs3  1  0.77360576  0.77360576  0.67918172  1
  W  W0  1  0.06065191  0.06065191  0.81804527  1
  W  W1  1  0.93934809  0.93934809  0.18195473  1
  S  S0  1  0.12182980  0.12182980  0.63450960  1
  S  S1  1  0.87817020  0.87817020  0.36549040  1
  O  O0  1  0.34946753  0.89251019  0.86551309  1
  O  O1  1  0.89251019  0.89251019  0.86551309  1
  O  O2  1  0.89251019  0.34946753  0.86551309  1
  O  O3  1  0.65053247  0.10748981  0.13448691  1
  O  O4  1  0.10748981  0.10748981  0.13448691  1
  O  O5  1  0.10748981  0.65053247  0.13448691  1
  O  O6  1  0.44842399  0.44842399  0.65472703  1
  O  O7  1  0.55157601  0.55157601  0.34527297  1
loop_
_geom_bond_atom_site_label_1
_geom_bond_atom_site_label_2
_geom_bond_distance
_geom_bond_site_symmetry_2
Cs0 O4 3.209619 1_556
Cs0 O3 3.209619 1_556
Cs0 O5 3.209619 1_556
Cs0 O2 3.344849 1_455
Cs0 O0 3.344849 1_545
Cs0 O1 3.344855 1_545
Cs0 O1 3.344855 1_455
Cs0 O2 3.344861 1_555
Cs0 O0 3.344861 1_555
Cs0 O6 3.507225 1_555
Cs1 O1 3.209619 1_554
Cs1 O0 3.209619 1_554
Cs1 O2 3.209619 1_554
Cs1 O5 3.344849 1_655
Cs1 O3 3.344849 1_565
Cs1 O4 3.344855 1_565
Cs1 O4 3.344855 1_655
Cs1 O5 3.344861 1_555
Cs1 O3 3.344861 1_555
Cs1 O7 3.507225 1_555
Cs2 O3 3.085415 1_555
Cs2 O5 3.085415 1_555
Cs2 O4 3.085422 1_555
Cs2 O7 3.736896 1_555
Cs2 O7 3.736896 1_545
Cs2 O7 3.736896 1_455
Cs2 S1 3.766025 1_445
Cs2 S1 3.766025 1_455
Cs2 S1 3.766025 1_545
Cs2 S0 3.922746 1_555
Cs3 O0 3.085415 1_555
Cs3 O2 3.085415 1_555
Cs3 O1 3.085422 1_555
Cs3 O6 3.736896 1_555
Cs3 O6 3.736896 1_655
Cs3 O6 3.736896 1_565
Cs3 S0 3.766025 1_665
Cs3 S0 3.766025 1_565
Cs3 S0 3.766025 1_655
Cs3 S1 3.922746 1_555
S0 W0 2.295135 1_555
S1 W1 2.295135 1_555
O0 W0 1.802423 1_565
O1 W0 1.802423 1_665
O2 W0 1.802423 1_655
O3 W1 1.802423 1_545
O4 W1 1.802423 1_445
O5 W1 1.802423 1_455
