# generated using pymatgen
data_YbGa4Pd7
_symmetry_space_group_name_H-M   'P 1'
_cell_length_a   8.44278753
_cell_length_b   8.44278753
_cell_length_c   8.44278753
_cell_angle_alpha   90.00000000
_cell_angle_beta   90.00000000
_cell_angle_gamma   90.00000000
_symmetry_Int_Tables_number   1
_chemical_formula_structural   YbGa4Pd7
_chemical_formula_sum   'Yb3 Ga12 Pd21'
_cell_volume   601.80747728
_cell_formula_units_Z   3
loop_
 _symmetry_equiv_pos_site_id
 _symmetry_equiv_pos_as_xyz
  1  'x, y, z'
loop_
 _atom_site_type_symbol
 _atom_site_label
 _atom_site_symmetry_multiplicity
 _atom_site_fract_x
 _atom_site_fract_y
 _atom_site_fract_z
 _atom_site_occupancy
  Yb  Yb0  1  0.00000000  0.50000000  0.50000000  1
  Yb  Yb1  1  0.50000000  0.00000000  0.50000000  1
  Yb  Yb2  1  0.50000000  0.50000000  0.00000000  1
  Ga  Ga0  1  0.00000000  0.24022342  0.24022342  1
  Ga  Ga1  1  0.00000000  0.75977658  0.75977658  1
  Ga  Ga2  1  0.00000000  0.75977658  0.24022342  1
  Ga  Ga3  1  0.00000000  0.24022342  0.75977658  1
  Ga  Ga4  1  0.24022342  0.00000000  0.24022342  1
  Ga  Ga5  1  0.24022342  0.00000000  0.75977658  1
  Ga  Ga6  1  0.75977658  0.00000000  0.75977658  1
  Ga  Ga7  1  0.75977658  0.00000000  0.24022342  1
  Ga  Ga8  1  0.24022342  0.24022342  0.00000000  1
  Ga  Ga9  1  0.75977658  0.75977658  0.00000000  1
  Ga  Ga10  1  0.24022342  0.75977658  0.00000000  1
  Ga  Ga11  1  0.75977658  0.24022342  0.00000000  1
  Pd  Pd0  1  0.50000000  0.15715394  0.15715394  1
  Pd  Pd1  1  0.50000000  0.84284606  0.84284606  1
  Pd  Pd2  1  0.50000000  0.84284606  0.15715394  1
  Pd  Pd3  1  0.50000000  0.15715394  0.84284606  1
  Pd  Pd4  1  0.15715394  0.50000000  0.15715394  1
  Pd  Pd5  1  0.15715394  0.50000000  0.84284606  1
  Pd  Pd6  1  0.84284606  0.50000000  0.84284606  1
  Pd  Pd7  1  0.84284606  0.50000000  0.15715394  1
  Pd  Pd8  1  0.15715394  0.15715394  0.50000000  1
  Pd  Pd9  1  0.84284606  0.84284606  0.50000000  1
  Pd  Pd10  1  0.15715394  0.84284606  0.50000000  1
  Pd  Pd11  1  0.84284606  0.15715394  0.50000000  1
  Pd  Pd12  1  0.00000000  0.00000000  0.00000000  1
  Pd  Pd13  1  0.34397513  0.34397513  0.34397513  1
  Pd  Pd14  1  0.65602487  0.65602487  0.65602487  1
  Pd  Pd15  1  0.65602487  0.65602487  0.34397513  1
  Pd  Pd16  1  0.65602487  0.34397513  0.65602487  1
  Pd  Pd17  1  0.34397513  0.34397513  0.65602487  1
  Pd  Pd18  1  0.34397513  0.65602487  0.34397513  1
  Pd  Pd19  1  0.34397513  0.65602487  0.65602487  1
  Pd  Pd20  1  0.65602487  0.34397513  0.34397513  1
loop_
_geom_bond_atom_site_label_1
_geom_bond_atom_site_label_2
_geom_bond_distance
_geom_bond_site_symmetry_2
Ga0 Pd8 2.657558 1_555
Ga0 Pd4 2.657558 1_555
Ga0 Pd7 2.657558 1_455
Ga0 Pd11 2.657558 1_455
Ga0 Pd12 2.868245 1_555
Ga0 Ga4 2.868245 1_555
Ga0 Ga8 2.868245 1_555
Ga0 Ga11 2.868245 1_455
Ga0 Ga7 2.868245 1_455
Ga0 Yb0 3.101708 1_555
Ga0 Pd13 3.157283 1_555
Ga0 Pd20 3.157283 1_455
Ga1 Pd10 2.657558 1_555
Ga1 Pd5 2.657558 1_555
Ga1 Pd9 2.657558 1_455
Ga1 Pd6 2.657558 1_455
Ga1 Ga10 2.868245 1_556
Ga1 Ga5 2.868245 1_565
Ga1 Ga9 2.868245 1_456
Ga1 Ga6 2.868245 1_465
Ga1 Pd12 2.868245 1_566
Ga1 Yb0 3.101708 1_555
Ga1 Pd19 3.157283 1_555
Ga1 Pd14 3.157283 1_455
Ga2 Pd4 2.657558 1_555
Ga2 Pd7 2.657558 1_455
Ga2 Pd10 2.657558 1_555
Ga2 Pd9 2.657558 1_455
Ga2 Pd12 2.868245 1_565
Ga2 Ga4 2.868245 1_565
Ga2 Ga9 2.868245 1_455
Ga2 Ga7 2.868245 1_465
Ga2 Yb0 3.101708 1_555
Ga2 Pd18 3.157283 1_555
Ga2 Pd15 3.157283 1_455
Ga3 Pd8 2.657558 1_555
Ga3 Pd11 2.657558 1_455
Ga3 Pd5 2.657558 1_555
Ga3 Pd6 2.657558 1_455
Ga3 Ga5 2.868245 1_555
Ga3 Pd12 2.868245 1_556
Ga3 Ga6 2.868245 1_455
Ga3 Ga8 2.868245 1_556
Ga3 Yb0 3.101708 1_555
Ga3 Pd17 3.157283 1_555
Ga3 Pd16 3.157283 1_455
Ga4 Pd8 2.657558 1_555
Ga4 Pd0 2.657558 1_555
Ga4 Pd10 2.657558 1_545
Ga4 Pd2 2.657558 1_545
Ga4 Ga8 2.868245 1_555
Ga4 Pd12 2.868245 1_555
Ga4 Yb1 3.101708 1_555
Ga4 Pd13 3.157283 1_555
Ga4 Pd18 3.157283 1_545
Ga5 Pd8 2.657558 1_555
Ga5 Pd10 2.657558 1_545
Ga5 Pd3 2.657558 1_555
Ga5 Pd1 2.657558 1_545
Ga5 Ga8 2.868245 1_556
Ga5 Pd12 2.868245 1_556
Ga5 Yb1 3.101708 1_555
Ga5 Pd17 3.157283 1_555
Ga5 Pd19 3.157283 1_545
Ga6 Pd11 2.657558 1_555
Ga6 Pd3 2.657558 1_555
Ga6 Pd9 2.657558 1_545
Ga6 Pd1 2.657558 1_545
Ga6 Ga9 2.868245 1_546
Ga6 Pd12 2.868245 1_656
Ga6 Yb1 3.101708 1_555
Ga6 Pd16 3.157283 1_555
Ga6 Pd14 3.157283 1_545
Ga7 Pd0 2.657558 1_555
Ga7 Pd2 2.657558 1_545
Ga7 Pd11 2.657558 1_555
Ga7 Pd9 2.657558 1_545
Ga7 Ga9 2.868245 1_545
Ga7 Pd12 2.868245 1_655
Ga7 Yb1 3.101708 1_555
Ga7 Pd20 3.157283 1_555
Ga7 Pd15 3.157283 1_545
Ga8 Pd4 2.657558 1_555
Ga8 Pd0 2.657558 1_555
Ga8 Pd5 2.657558 1_554
Ga8 Pd3 2.657558 1_554
Ga8 Pd12 2.868245 1_555
Ga8 Yb2 3.101708 1_555
Ga8 Pd13 3.157283 1_555
Ga8 Pd17 3.157283 1_554
Ga9 Pd2 2.657558 1_555
Ga9 Pd7 2.657558 1_555
Ga9 Pd6 2.657558 1_554
Ga9 Pd1 2.657558 1_554
Ga9 Pd12 2.868245 1_665
Ga9 Yb2 3.101708 1_555
Ga9 Pd15 3.157283 1_555
Ga9 Pd14 3.157283 1_554
Ga10 Pd4 2.657558 1_555
Ga10 Pd5 2.657558 1_554
Ga10 Pd2 2.657558 1_555
Ga10 Pd1 2.657558 1_554
Ga10 Ga2 2.868245 1_555
Ga10 Ga4 2.868245 1_565
Ga10 Pd12 2.868245 1_565
Ga10 Ga5 2.868245 1_564
Ga10 Yb2 3.101708 1_555
Ga10 Pd18 3.157283 1_555
Ga10 Pd19 3.157283 1_554
Ga11 Pd0 2.657558 1_555
Ga11 Pd3 2.657558 1_554
Ga11 Pd7 2.657558 1_555
Ga11 Pd6 2.657558 1_554
Ga11 Ga7 2.868245 1_555
Ga11 Ga6 2.868245 1_554
Ga11 Pd12 2.868245 1_655
Ga11 Ga3 2.868245 1_654
Ga11 Yb2 3.101708 1_555
Ga11 Pd20 3.157283 1_555
Ga11 Pd16 3.157283 1_554
Pd0 Pd20 2.590548 1_555
Pd0 Pd13 2.590548 1_555
Pd0 Pd3 2.653635 1_554
Pd0 Pd2 2.653635 1_545
Pd0 Yb1 3.184182 1_555
Pd0 Yb2 3.184182 1_555
Pd1 Pd14 2.590548 1_555
Pd1 Pd19 2.590548 1_555
Pd1 Pd3 2.653635 1_565
Pd1 Pd2 2.653635 1_556
Pd1 Yb1 3.184182 1_565
Pd1 Yb2 3.184182 1_556
Pd2 Yb2 3.184182 1_555
Pd2 Yb1 3.184182 1_565
Pd3 Yb1 3.184182 1_555
Pd3 Yb2 3.184182 1_556
Pd4 Pd5 2.653635 1_554
Pd4 Pd7 2.653635 1_455
Pd4 Yb0 3.184182 1_555
Pd4 Yb2 3.184182 1_555
Pd5 Pd6 2.653635 1_455
Pd5 Yb0 3.184182 1_555
Pd5 Yb2 3.184182 1_556
Pd6 Pd7 2.653635 1_556
Pd6 Yb0 3.184182 1_655
Pd6 Yb2 3.184182 1_556
Pd7 Yb2 3.184182 1_555
Pd7 Yb0 3.184182 1_655
Pd8 Yb0 3.184182 1_555
Pd8 Yb1 3.184182 1_555
Pd9 Yb0 3.184182 1_655
Pd9 Yb1 3.184182 1_565
Pd10 Pd19 2.590548 1_555
Pd10 Pd18 2.590548 1_555
Pd10 Pd8 2.653635 1_565
Pd10 Pd9 2.653635 1_455
Pd10 Yb0 3.184182 1_555
Pd10 Yb1 3.184182 1_565
Pd11 Pd16 2.590548 1_555
Pd11 Pd20 2.590548 1_555
Pd11 Pd8 2.653635 1_655
Pd11 Pd9 2.653635 1_545
Pd11 Yb1 3.184182 1_555
Pd11 Yb0 3.184182 1_655
Pd13 Pd4 2.590548 1_555
Pd13 Pd8 2.590548 1_555
Pd13 Pd17 2.634570 1_555
Pd13 Pd18 2.634570 1_555
Pd13 Pd20 2.634570 1_555
Pd13 Yb2 3.450265 1_555
Pd13 Yb0 3.450265 1_555
Pd13 Yb1 3.450265 1_555
Pd14 Pd9 2.590548 1_555
Pd14 Pd6 2.590548 1_555
Pd14 Pd15 2.634570 1_555
Pd14 Pd16 2.634570 1_555
Pd14 Pd19 2.634570 1_555
Pd14 Yb2 3.450265 1_556
Pd14 Yb1 3.450265 1_565
Pd14 Yb0 3.450265 1_655
Pd15 Pd2 2.590548 1_555
Pd15 Pd7 2.590548 1_555
Pd15 Pd9 2.590548 1_555
Pd15 Pd20 2.634570 1_555
Pd15 Pd18 2.634570 1_555
Pd15 Yb2 3.450265 1_555
Pd15 Yb1 3.450265 1_565
Pd15 Yb0 3.450265 1_655
Pd16 Pd3 2.590548 1_555
Pd16 Pd6 2.590548 1_555
Pd16 Pd20 2.634570 1_555
Pd16 Pd17 2.634570 1_555
Pd16 Yb1 3.450265 1_555
Pd16 Yb2 3.450265 1_556
Pd16 Yb0 3.450265 1_655
Pd17 Pd8 2.590548 1_555
Pd17 Pd3 2.590548 1_555
Pd17 Pd5 2.590548 1_555
Pd17 Pd19 2.634570 1_555
Pd17 Yb1 3.450265 1_555
Pd17 Yb0 3.450265 1_555
Pd17 Yb2 3.450265 1_556
Pd18 Pd4 2.590548 1_555
Pd18 Pd2 2.590548 1_555
Pd18 Pd19 2.634570 1_555
Pd18 Yb2 3.450265 1_555
Pd18 Yb0 3.450265 1_555
Pd18 Yb1 3.450265 1_565
Pd19 Pd5 2.590548 1_555
Pd19 Yb0 3.450265 1_555
Pd19 Yb1 3.450265 1_565
Pd19 Yb2 3.450265 1_556
Pd20 Pd7 2.590548 1_555
Pd20 Yb1 3.450265 1_555
Pd20 Yb2 3.450265 1_555
Pd20 Yb0 3.450265 1_655
