# generated using pymatgen
data_Mn4CoNi3Ge4
_symmetry_space_group_name_H-M   'P 1'
_cell_length_a   3.69018300
_cell_length_b   5.95375700
_cell_length_c   7.09694668
_cell_angle_alpha   89.77715214
_cell_angle_beta   90.00000000
_cell_angle_gamma   90.00000000
_symmetry_Int_Tables_number   1
_chemical_formula_structural   Mn4CoNi3Ge4
_chemical_formula_sum   'Mn4 Co1 Ni3 Ge4'
_cell_volume   155.92195316
_cell_formula_units_Z   1
loop_
 _symmetry_equiv_pos_site_id
 _symmetry_equiv_pos_as_xyz
  1  'x, y, z'
loop_
 _atom_site_type_symbol
 _atom_site_label
 _atom_site_symmetry_multiplicity
 _atom_site_fract_x
 _atom_site_fract_y
 _atom_site_fract_z
 _atom_site_occupancy
  Mn  Mn0  1  0.00000000  0.53257600  0.68020900  1
  Mn  Mn1  1  0.00000000  0.03268200  0.82215800  1
  Mn  Mn2  1  0.50000000  0.46846000  0.32004100  1
  Mn  Mn3  1  0.50000000  0.96644800  0.17838900  1
  Co  Co0  1  0.00000000  0.64731900  0.05736500  1
  Ni  Ni0  1  0.00000000  0.14482200  0.44173700  1
  Ni  Ni1  1  0.50000000  0.35228800  0.94095100  1
  Ni  Ni2  1  0.50000000  0.85333400  0.55875700  1
  Ge  Ge0  1  0.00000000  0.25837500  0.12671800  1
  Ge  Ge1  1  0.00000000  0.75362000  0.37167000  1
  Ge  Ge2  1  0.50000000  0.74446500  0.87617200  1
  Ge  Ge3  1  0.50000000  0.24561100  0.62583200  1
loop_
_geom_bond_atom_site_label_1
_geom_bond_atom_site_label_2
_geom_bond_distance
_geom_bond_site_symmetry_2
Mn0 Ni2 2.789535 1_555
Mn0 Ni2 2.789535 1_455
Mn0 Ni1 2.822291 1_455
Mn0 Ni1 2.822291 1_555
Mn0 Ni0 2.867802 1_555
Mn1 Ni0 2.778634 1_555
Mn1 Ni1 2.783607 1_455
Mn1 Ni1 2.783607 1_555
Mn1 Ni2 2.838048 1_445
Mn1 Ni2 2.838048 1_545
Mn2 Ni1 2.780471 1_554
Mn2 Ni0 2.801810 1_555
Mn2 Ni0 2.801810 1_655
Mn2 Ni2 2.855010 1_555
Mn3 Ni2 2.779647 1_555
Mn3 Ni0 2.835608 1_565
Mn3 Ni0 2.835608 1_665
Mn3 Ni1 2.843680 1_564
Co0 Ge2 2.320924 1_454
Co0 Ge2 2.320924 1_554
Co0 Ge1 2.321020 1_555
Co0 Ge0 2.365535 1_555
Co0 Ni1 2.680238 1_454
Co0 Ni1 2.680238 1_554
Co0 Mn0 2.765033 1_554
Co0 Mn3 2.786545 1_555
Co0 Mn3 2.786545 1_455
Co0 Mn2 2.828096 1_455
Co0 Mn2 2.828096 1_555
Co0 Mn1 2.832082 1_564
Ni0 Ni2 2.663576 1_445
Ni0 Ni2 2.663576 1_545
Ge0 Ni0 2.333140 1_555
Ge0 Ni1 2.334391 1_554
Ge0 Ni1 2.334391 1_454
Ge0 Mn1 2.549515 1_554
Ge0 Mn3 2.560222 1_445
Ge0 Mn3 2.560222 1_545
Ge0 Mn2 2.620037 1_455
Ge0 Mn2 2.620037 1_555
Ge1 Ni2 2.350713 1_455
Ge1 Ni2 2.350713 1_555
Ge1 Ni0 2.383503 1_565
Ge1 Mn2 2.534934 1_555
Ge1 Mn2 2.534934 1_455
Ge1 Mn0 2.550347 1_555
Ge1 Mn3 2.622599 1_455
Ge1 Mn3 2.622599 1_555
Ge2 Ni2 2.341652 1_555
Ge2 Ni1 2.378001 1_555
Ge2 Mn3 2.523689 1_556
Ge2 Mn1 2.547697 1_565
Ge2 Mn1 2.547697 1_665
Ge2 Mn0 2.635078 1_555
Ge2 Mn0 2.635078 1_655
Ge3 Ni1 2.327197 1_555
Ge3 Ni0 2.340411 1_555
Ge3 Ni0 2.340411 1_655
Ge3 Ni2 2.385354 1_545
Ge3 Mn2 2.539225 1_555
Ge3 Mn0 2.545085 1_655
Ge3 Mn0 2.545085 1_555
Ge3 Mn1 2.634214 1_655
Ge3 Mn1 2.634214 1_555
