# generated using pymatgen
data_Mn3ZnP3O13
_symmetry_space_group_name_H-M   'P 1'
_cell_length_a   6.16683800
_cell_length_b   7.76305600
_cell_length_c   10.32883496
_cell_angle_alpha   80.01439341
_cell_angle_beta   90.00000000
_cell_angle_gamma   90.00000000
_symmetry_Int_Tables_number   1
_chemical_formula_structural   Mn3ZnP3O13
_chemical_formula_sum   'Mn6 Zn2 P6 O26'
_cell_volume   486.98690045
_cell_formula_units_Z   2
loop_
 _symmetry_equiv_pos_site_id
 _symmetry_equiv_pos_as_xyz
  1  'x, y, z'
loop_
 _atom_site_type_symbol
 _atom_site_label
 _atom_site_symmetry_multiplicity
 _atom_site_fract_x
 _atom_site_fract_y
 _atom_site_fract_z
 _atom_site_occupancy
  Mn  Mn0  1  0.25000000  0.65118500  0.21047100  1
  Mn  Mn1  1  0.75000000  0.34881500  0.78952900  1
  Mn  Mn2  1  0.25000000  0.22780400  0.43174800  1
  Mn  Mn3  1  0.50000000  0.00000000  0.00000000  1
  Mn  Mn4  1  0.75000000  0.77219600  0.56825200  1
  Mn  Mn5  1  0.00000000  0.00000000  0.00000000  1
  Zn  Zn0  1  0.75000000  0.36569100  0.15718700  1
  Zn  Zn1  1  0.25000000  0.63430900  0.84281300  1
  P  P0  1  0.25000000  0.79035600  0.49185100  1
  P  P1  1  0.75000000  0.20964400  0.50814900  1
  P  P2  1  0.25000000  0.26569400  0.76108300  1
  P  P3  1  0.75000000  0.73430600  0.23891700  1
  P  P4  1  0.75000000  0.67532800  0.88280900  1
  P  P5  1  0.25000000  0.32467200  0.11719100  1
  O  O0  1  0.75000000  0.62321500  0.74383200  1
  O  O1  1  0.55692900  0.24970200  0.40891400  1
  O  O2  1  0.25000000  0.21976400  0.62518900  1
  O  O3  1  0.53582400  0.77880200  0.89559100  1
  O  O4  1  0.75000000  0.34542400  0.60119000  1
  O  O5  1  0.75000000  0.11684300  0.90628500  1
  O  O6  1  0.25000000  0.65457600  0.39881000  1
  O  O7  1  0.03582400  0.22119800  0.10440900  1
  O  O8  1  0.25000000  0.97508300  0.41347000  1
  O  O9  1  0.75000000  0.02491700  0.58653000  1
  O  O10  1  0.05848200  0.38389800  0.79116100  1
  O  O11  1  0.25000000  0.88315700  0.09371500  1
  O  O12  1  0.55848200  0.61610200  0.20883900  1
  O  O13  1  0.75000000  0.49328600  0.97142100  1
  O  O14  1  0.75000000  0.78023600  0.37481100  1
  O  O15  1  0.46417600  0.22119800  0.10440900  1
  O  O16  1  0.94307100  0.24970200  0.40891400  1
  O  O17  1  0.44307100  0.75029800  0.59108600  1
  O  O18  1  0.44151800  0.38389800  0.79116100  1
  O  O19  1  0.25000000  0.37678500  0.25616800  1
  O  O20  1  0.75000000  0.90423200  0.13182300  1
  O  O21  1  0.25000000  0.09576800  0.86817700  1
  O  O22  1  0.94151800  0.61610200  0.20883900  1
  O  O23  1  0.96417600  0.77880200  0.89559100  1
  O  O24  1  0.05692900  0.75029800  0.59108600  1
  O  O25  1  0.25000000  0.50671400  0.02857900  1
loop_
_geom_bond_atom_site_label_1
_geom_bond_atom_site_label_2
_geom_bond_distance
_geom_bond_site_symmetry_2
Mn0 O12 1.922243 1_555
Mn0 O22 1.922243 1_455
Mn0 O6 1.950059 1_555
Mn0 O11 1.985976 1_555
Mn0 O19 2.100422 1_555
Mn0 O25 2.349088 1_555
Mn1 O10 1.922243 1_655
Mn1 O18 1.922243 1_555
Mn1 O4 1.950059 1_555
Mn1 O5 1.985976 1_555
Mn1 O0 2.100422 1_555
Mn1 O13 2.349088 1_555
Mn2 O1 1.911345 1_555
Mn2 O16 1.911345 1_455
Mn2 O19 1.974620 1_555
Mn2 O2 1.988148 1_555
Mn2 O8 2.003271 1_545
Mn3 O11 1.957573 1_545
Mn3 O5 1.957573 1_554
Mn3 O21 2.105333 1_554
Mn3 O20 2.105333 1_545
Mn3 O15 2.191507 1_555
Mn3 O3 2.191507 1_544
Mn4 O24 1.911345 1_655
Mn4 O17 1.911345 1_555
Mn4 O0 1.974620 1_555
Mn4 O14 1.988148 1_555
Mn4 O9 2.003271 1_565
Mn5 O11 1.957573 1_545
Mn5 O5 1.957573 1_454
Mn5 O21 2.105333 1_554
Mn5 O20 2.105333 1_445
Mn5 O7 2.191507 1_555
Mn5 O23 2.191507 1_444
O0 P4 1.557446 1_555
O1 P1 1.566643 1_555
O2 P2 1.506939 1_555
O3 P4 1.563311 1_555
O3 Zn1 2.207788 1_555
O4 P1 1.544632 1_555
O6 P0 1.544632 1_555
O7 P5 1.563311 1_555
O7 Zn0 2.207788 1_455
O8 P0 1.519633 1_555
O9 P1 1.519633 1_555
O10 P2 1.559590 1_555
O10 Zn1 2.412087 1_555
O12 P3 1.559590 1_555
O12 Zn0 2.412087 1_555
O13 P4 1.544756 1_555
O13 Zn0 2.000903 1_556
O14 P3 1.506939 1_555
O15 P5 1.563311 1_555
O15 Zn0 2.207788 1_555
O16 P1 1.566643 1_555
O17 P0 1.566643 1_555
O18 P2 1.559590 1_555
O18 Zn1 2.412087 1_555
O19 P5 1.557446 1_555
O20 P3 1.567699 1_555
O21 P2 1.567699 1_555
O22 P3 1.559590 1_555
O22 Zn0 2.412087 1_555
O23 P4 1.563311 1_555
O23 Zn1 2.207788 1_655
O24 P0 1.566643 1_555
O25 P5 1.544756 1_555
O25 Zn1 2.000903 1_554
