# generated using pymatgen
data_Ag6Hg(P10I)2
_symmetry_space_group_name_H-M   'P 1'
_cell_length_a   28.08791900
_cell_length_b   6.79542800
_cell_length_c   7.45426972
_cell_angle_alpha   65.92383880
_cell_angle_beta   90.00000000
_cell_angle_gamma   90.00000000
_symmetry_Int_Tables_number   1
_chemical_formula_structural   Ag6Hg(P10I)2
_chemical_formula_sum   'Ag12 Hg2 P40 I4'
_cell_volume   1299.01497597
_cell_formula_units_Z   2
loop_
 _symmetry_equiv_pos_site_id
 _symmetry_equiv_pos_as_xyz
  1  'x, y, z'
loop_
 _atom_site_type_symbol
 _atom_site_label
 _atom_site_symmetry_multiplicity
 _atom_site_fract_x
 _atom_site_fract_y
 _atom_site_fract_z
 _atom_site_occupancy
  Ag  Ag0  1  0.15442900  0.09674600  0.97938900  1
  Ag  Ag1  1  0.65442900  0.90325400  0.02061100  1
  Ag  Ag2  1  0.84572900  0.90335300  0.01902100  1
  Ag  Ag3  1  0.34572900  0.09664700  0.98097900  1
  Ag  Ag4  1  0.07072300  0.16020800  0.43252300  1
  Ag  Ag5  1  0.57072300  0.83979200  0.56747700  1
  Ag  Ag6  1  0.92988700  0.84224800  0.57076400  1
  Ag  Ag7  1  0.42988700  0.15775200  0.42923600  1
  Ag  Ag8  1  0.24997800  0.84703100  0.57821700  1
  Ag  Ag9  1  0.74997800  0.15296900  0.42178300  1
  Ag  Ag10  1  0.00921100  0.14517300  0.97732700  1
  Ag  Ag11  1  0.50921100  0.85482700  0.02267300  1
  Hg  Hg0  1  0.25008200  0.47620200  0.16814500  1
  Hg  Hg1  1  0.75008200  0.52379800  0.83185500  1
  P  P0  1  0.16838300  0.71970400  0.71962300  1
  P  P1  1  0.66838300  0.28029600  0.28037700  1
  P  P2  1  0.83150200  0.27786800  0.28126300  1
  P  P3  1  0.33150200  0.72213200  0.71873700  1
  P  P4  1  0.93556000  0.29226500  0.09282600  1
  P  P5  1  0.43556000  0.70773500  0.90717400  1
  P  P6  1  0.06248500  0.71152300  0.91196600  1
  P  P7  1  0.56248500  0.28847700  0.08803400  1
  P  P8  1  0.16991100  0.44576800  0.01855300  1
  P  P9  1  0.66991100  0.55423200  0.98144700  1
  P  P10  1  0.83028800  0.55287000  0.98135100  1
  P  P11  1  0.33028800  0.44713000  0.01864900  1
  P  P12  1  0.99304100  0.35171300  0.46553000  1
  P  P13  1  0.49304100  0.64828700  0.53447000  1
  P  P14  1  0.00609600  0.64995000  0.52587800  1
  P  P15  1  0.50609600  0.35005000  0.47412200  1
  P  P16  1  0.11715800  0.95031400  0.74848900  1
  P  P17  1  0.61715800  0.04968600  0.25151100  1
  P  P18  1  0.88238700  0.04527000  0.25501900  1
  P  P19  1  0.38238700  0.95473000  0.74498100  1
  P  P20  1  0.10583000  0.49850200  0.16703200  1
  P  P21  1  0.60583000  0.50149800  0.83296800  1
  P  P22  1  0.89407300  0.50080200  0.83121800  1
  P  P23  1  0.39407300  0.49919800  0.16878200  1
  P  P24  1  0.12908600  0.51900800  0.59633400  1
  P  P25  1  0.62908600  0.48099200  0.40366600  1
  P  P26  1  0.87146500  0.47564100  0.40518300  1
  P  P27  1  0.37146500  0.52435900  0.59481700  1
  P  P28  1  0.04699600  0.89159600  0.29058400  1
  P  P29  1  0.54699600  0.10840400  0.70941600  1
  P  P30  1  0.95580000  0.10990600  0.71400900  1
  P  P31  1  0.45580000  0.89009400  0.28599100  1
  P  P32  1  0.05930600  0.48775100  0.76113700  1
  P  P33  1  0.55930600  0.51224900  0.23886300  1
  P  P34  1  0.93993700  0.52318000  0.23395500  1
  P  P35  1  0.43993700  0.47682000  0.76604500  1
  P  P36  1  0.11713400  0.75765100  0.28452200  1
  P  P37  1  0.61713400  0.24234900  0.71547800  1
  P  P38  1  0.88412100  0.23912800  0.71636200  1
  P  P39  1  0.38412100  0.76087200  0.28363800  1
  I  I0  1  0.24997600  0.26898000  0.59105400  1
  I  I1  1  0.74997600  0.73102000  0.40894600  1
  I  I2  1  0.25007700  0.92658800  0.16433700  1
  I  I3  1  0.75007700  0.07341200  0.83566300  1
loop_
_geom_bond_atom_site_label_1
_geom_bond_atom_site_label_2
_geom_bond_distance
_geom_bond_site_symmetry_2
Ag0 P16 2.538894 1_545
Ag0 P8 2.542535 1_556
Ag0 P36 2.702655 1_546
Ag0 I2 3.025660 1_546
Ag0 P24 3.195108 1_555
Ag1 P17 2.538894 1_565
Ag1 P9 2.542535 1_554
Ag1 P37 2.702655 1_564
Ag1 I3 3.025660 1_564
Ag1 P25 3.195108 1_555
Ag2 P18 2.543459 1_565
Ag2 P10 2.546570 1_554
Ag2 P38 2.694259 1_564
Ag2 I3 3.022095 1_564
Ag3 P19 2.543459 1_545
Ag3 P11 2.546570 1_556
Ag3 P39 2.694259 1_546
Ag3 I2 3.022095 1_546
Ag4 P20 2.541992 1_555
Ag4 P28 2.543857 1_545
Ag4 P16 2.557726 1_545
Ag4 P12 2.603097 1_455
Ag5 P21 2.541992 1_555
Ag5 P29 2.543857 1_565
Ag5 P17 2.557726 1_565
Ag5 P13 2.603097 1_555
Ag6 P22 2.547452 1_555
Ag6 P30 2.561784 1_565
Ag6 P18 2.563921 1_565
Ag6 P14 2.599661 1_655
Ag7 P23 2.547452 1_555
Ag7 P31 2.561784 1_545
Ag7 P19 2.563921 1_545
Ag7 P15 2.599661 1_555
Ag8 P3 2.517055 1_555
Ag8 P0 2.523509 1_555
Ag8 I2 2.906840 1_555
Ag8 I0 2.907674 1_565
Ag9 P2 2.517055 1_555
Ag9 P1 2.523509 1_555
Ag9 I3 2.906840 1_555
Ag9 I1 2.907674 1_545
Ag10 P28 2.503071 1_546
Ag10 P30 2.558242 1_455
Ag10 P4 2.592689 1_456
Ag10 P32 2.633508 1_555
Ag11 P29 2.503071 1_564
Ag11 P31 2.558242 1_555
Ag11 P5 2.592689 1_554
Ag11 P33 2.633508 1_555
Hg0 P11 2.556501 1_555
Hg0 P8 2.558348 1_555
Hg0 I0 2.880815 1_555
Hg0 I2 3.049096 1_555
Hg1 P10 2.556501 1_555
Hg1 P9 2.558348 1_555
Hg1 I1 2.880815 1_555
Hg1 I3 3.049096 1_555
P0 P16 2.201672 1_555
P0 P24 2.223861 1_555
P0 P8 2.246784 1_556
P1 P17 2.201672 1_555
P1 P25 2.223861 1_555
P1 P9 2.246784 1_554
P2 P26 2.220889 1_555
P10 P22 2.215968 1_555
P10 P2 2.254491 1_556
P11 P23 2.215968 1_555
P11 P3 2.254491 1_554
P12 P30 2.177551 1_555
P12 P34 2.218387 1_555
P12 P14 2.277713 1_655
P13 P31 2.177551 1_555
P13 P35 2.218387 1_555
P13 P15 2.277713 1_555
P14 P28 2.177752 1_555
P14 P32 2.224163 1_555
P15 P29 2.177752 1_555
P15 P33 2.224163 1_555
P16 P6 2.205211 1_555
P17 P7 2.205211 1_555
P18 P2 2.198097 1_555
P18 P4 2.203136 1_555
P19 P3 2.198097 1_555
P19 P5 2.203136 1_555
P20 P8 2.217358 1_555
P20 P6 2.224216 1_554
P20 P36 2.286358 1_555
P21 P9 2.217358 1_555
P21 P7 2.224216 1_556
P21 P37 2.286358 1_555
P22 P4 2.216800 1_556
P22 P38 2.283694 1_555
P23 P5 2.216800 1_554
P23 P39 2.283694 1_555
P24 P36 2.251592 1_555
P24 P32 2.276598 1_555
P25 P37 2.251592 1_555
P25 P33 2.276598 1_555
P26 P38 2.246847 1_555
P26 P34 2.257414 1_555
P27 P3 2.220889 1_555
P27 P39 2.246847 1_555
P27 P35 2.257414 1_555
P28 P36 2.178327 1_555
P29 P37 2.178327 1_555
P30 P38 2.199409 1_555
P31 P39 2.199409 1_555
P32 P6 2.231434 1_555
P33 P7 2.231434 1_555
P34 P4 2.220587 1_555
P35 P5 2.220587 1_555
