# generated using pymatgen
data_Co2AgN3
_symmetry_space_group_name_H-M   'P 1'
_cell_length_a   2.84322187
_cell_length_b   2.84322234
_cell_length_c   26.00388255
_cell_angle_alpha   90.00000000
_cell_angle_beta   90.00000000
_cell_angle_gamma   120.00000600
_symmetry_Int_Tables_number   1
_chemical_formula_structural   Co2AgN3
_chemical_formula_sum   'Co6 Ag3 N9'
_cell_volume   182.04987113
_cell_formula_units_Z   3
loop_
 _symmetry_equiv_pos_site_id
 _symmetry_equiv_pos_as_xyz
  1  'x, y, z'
loop_
 _atom_site_type_symbol
 _atom_site_label
 _atom_site_symmetry_multiplicity
 _atom_site_fract_x
 _atom_site_fract_y
 _atom_site_fract_z
 _atom_site_occupancy
  Co  Co0  1  0.34097946  0.02875113  0.11660935  1
  Co  Co1  1  0.68777167  0.65902054  0.78327535  1
  Co  Co2  1  0.97124887  0.31222833  0.44994235  1
  Co  Co3  1  0.65902054  0.68777167  0.21672465  1
  Co  Co4  1  0.02875113  0.34097946  0.88339065  1
  Co  Co5  1  0.31222833  0.97124887  0.55005765  1
  Ag  Ag0  1  0.00000000  0.32809684  0.66666700  1
  Ag  Ag1  1  0.32809684  1.00000000  0.33333300  1
  Ag  Ag2  1  0.67190316  0.67190316  -0.00000000  1
  N  N0  1  0.00000000  0.27866145  0.16666700  1
  N  N1  1  0.27866145  0.00000000  0.83333300  1
  N  N2  1  0.72133855  0.72133855  0.50000000  1
  N  N3  1  0.32096779  0.99255604  0.41647771  1
  N  N4  1  0.67158825  0.67903221  0.08314371  1
  N  N5  1  0.00744396  0.32841175  0.74981071  1
  N  N6  1  0.67903221  0.67158825  0.91685629  1
  N  N7  1  0.99255604  0.32096779  0.58352229  1
  N  N8  1  0.32841175  0.00744396  0.25018929  1
loop_
_geom_bond_atom_site_label_1
_geom_bond_atom_site_label_2
_geom_bond_distance
_geom_bond_site_symmetry_2
Co0 N4 1.822460 1_555
Co0 N4 1.864361 1_445
Co0 N4 1.887923 1_545
Co0 N0 1.956539 1_555
Co0 N0 2.092560 1_655
Co0 N0 2.261637 1_545
Co1 N5 1.822447 1_655
Co1 N5 1.864349 1_665
Co1 N5 1.887911 1_555
Co1 N1 1.956539 1_665
Co1 N1 2.092560 1_555
Co1 N1 2.261637 1_565
Co2 N3 1.822447 1_545
Co2 N3 1.864349 1_645
Co2 N3 1.887911 1_655
Co2 N2 1.956539 1_545
Co2 N2 2.092560 1_555
Co2 N2 2.261637 1_655
Co3 N8 1.822447 1_565
Co3 N8 1.864349 1_665
Co3 N8 1.887911 1_555
Co3 N0 1.956539 1_665
Co3 N0 2.092560 1_555
Co3 N0 2.261637 1_655
Co4 N6 1.822459 1_555
Co4 N6 1.864361 1_445
Co4 N6 1.887923 1_455
Co4 N1 1.956539 1_555
Co4 N1 2.092560 1_565
Co4 N1 2.261637 1_455
Co5 N7 1.822447 1_455
Co5 N7 1.864349 1_465
Co5 N7 1.887911 1_565
Co5 N2 1.956539 1_455
Co5 N2 2.092560 1_555
Co5 N2 2.261637 1_565
Ag0 N5 2.162159 1_555
Ag0 N7 2.162185 1_455
Ag1 N8 2.162159 1_565
Ag1 N3 2.162185 1_555
Ag2 N6 2.162159 1_554
Ag2 N4 2.162159 1_555
