# generated using pymatgen
data_BaPtO3
_symmetry_space_group_name_H-M   'P 1'
_cell_length_a   5.86578627
_cell_length_b   5.86578627
_cell_length_c   34.99641100
_cell_angle_alpha   90.00000000
_cell_angle_beta   90.00000000
_cell_angle_gamma   120.00000304
_symmetry_Int_Tables_number   1
_chemical_formula_structural   BaPtO3
_chemical_formula_sum   'Ba14 Pt14 O42'
_cell_volume   1042.81338257
_cell_formula_units_Z   14
loop_
 _symmetry_equiv_pos_site_id
 _symmetry_equiv_pos_as_xyz
  1  'x, y, z'
loop_
 _atom_site_type_symbol
 _atom_site_label
 _atom_site_symmetry_multiplicity
 _atom_site_fract_x
 _atom_site_fract_y
 _atom_site_fract_z
 _atom_site_occupancy
  Ba  Ba0  1  0.00000000  0.00000000  0.89386400  1
  Ba  Ba1  1  0.00000000  0.00000000  0.10613600  1
  Ba  Ba2  1  0.00000000  0.00000000  0.39386400  1
  Ba  Ba3  1  0.00000000  0.00000000  0.60613600  1
  Ba  Ba4  1  0.66666700  0.33333300  0.81805500  1
  Ba  Ba5  1  0.33333300  0.66666700  0.18194500  1
  Ba  Ba6  1  0.33333300  0.66666700  0.31805500  1
  Ba  Ba7  1  0.66666700  0.33333300  0.68194500  1
  Ba  Ba8  1  0.66666700  0.33333300  0.25000000  1
  Ba  Ba9  1  0.33333300  0.66666700  0.75000000  1
  Ba  Ba10  1  0.66666700  0.33333300  0.95827200  1
  Ba  Ba11  1  0.33333300  0.66666700  0.04172800  1
  Ba  Ba12  1  0.33333300  0.66666700  0.45827200  1
  Ba  Ba13  1  0.66666700  0.33333300  0.54172800  1
  Pt  Pt0  1  0.00000000  0.00000000  0.79011900  1
  Pt  Pt1  1  0.00000000  0.00000000  0.20988100  1
  Pt  Pt2  1  0.00000000  0.00000000  0.29011900  1
  Pt  Pt3  1  0.00000000  0.00000000  0.70988100  1
  Pt  Pt4  1  0.00000000  0.00000000  0.00000000  1
  Pt  Pt5  1  0.00000000  0.00000000  0.50000000  1
  Pt  Pt6  1  0.66666700  0.33333300  0.43620400  1
  Pt  Pt7  1  0.33333300  0.66666700  0.56379600  1
  Pt  Pt8  1  0.33333300  0.66666700  0.93620400  1
  Pt  Pt9  1  0.66666700  0.33333300  0.06379600  1
  Pt  Pt10  1  0.66666700  0.33333300  0.35644400  1
  Pt  Pt11  1  0.33333300  0.66666700  0.64355600  1
  Pt  Pt12  1  0.33333300  0.66666700  0.85644400  1
  Pt  Pt13  1  0.66666700  0.33333300  0.14355600  1
  O  O0  1  0.82063800  0.17936200  0.31712500  1
  O  O1  1  0.17936200  0.82063800  0.68287500  1
  O  O2  1  0.35872300  0.17936200  0.31712500  1
  O  O3  1  0.17936200  0.82063800  0.81712500  1
  O  O4  1  0.64127700  0.82063800  0.68287500  1
  O  O5  1  0.82063800  0.17936200  0.18287500  1
  O  O6  1  0.82063800  0.64127700  0.31712500  1
  O  O7  1  0.64127700  0.82063800  0.81712500  1
  O  O8  1  0.17936200  0.35872300  0.68287500  1
  O  O9  1  0.35872300  0.17936200  0.18287500  1
  O  O10  1  0.17936200  0.35872300  0.81712500  1
  O  O11  1  0.82063800  0.64127700  0.18287500  1
  O  O12  1  0.85206400  0.14793600  0.75000000  1
  O  O13  1  0.14793600  0.85206400  0.25000000  1
  O  O14  1  0.29587100  0.14793600  0.75000000  1
  O  O15  1  0.70412900  0.85206400  0.25000000  1
  O  O16  1  0.85206400  0.70412900  0.75000000  1
  O  O17  1  0.14793600  0.29587100  0.25000000  1
  O  O18  1  0.48314200  0.51685800  0.89560400  1
  O  O19  1  0.51685800  0.48314200  0.10439600  1
  O  O20  1  0.03371600  0.51685800  0.89560400  1
  O  O21  1  0.51685800  0.48314200  0.39560400  1
  O  O22  1  0.96628400  0.48314200  0.10439600  1
  O  O23  1  0.48314200  0.51685800  0.60439600  1
  O  O24  1  0.48314200  0.96628400  0.89560400  1
  O  O25  1  0.96628400  0.48314200  0.39560400  1
  O  O26  1  0.51685800  0.03371600  0.10439600  1
  O  O27  1  0.03371600  0.51685800  0.60439600  1
  O  O28  1  0.51685800  0.03371600  0.39560400  1
  O  O29  1  0.48314200  0.96628400  0.60439600  1
  O  O30  1  0.84898900  0.15101100  0.46048600  1
  O  O31  1  0.15101100  0.84898900  0.53951400  1
  O  O32  1  0.30202100  0.15101100  0.46048600  1
  O  O33  1  0.15101100  0.84898900  0.96048600  1
  O  O34  1  0.69797900  0.84898900  0.53951400  1
  O  O35  1  0.84898900  0.15101100  0.03951400  1
  O  O36  1  0.84898900  0.69797900  0.46048600  1
  O  O37  1  0.69797900  0.84898900  0.96048600  1
  O  O38  1  0.15101100  0.30202100  0.53951400  1
  O  O39  1  0.30202100  0.15101100  0.03951400  1
  O  O40  1  0.15101100  0.30202100  0.96048600  1
  O  O41  1  0.84898900  0.69797900  0.03951400  1
loop_
_geom_bond_atom_site_label_1
_geom_bond_atom_site_label_2
_geom_bond_distance
_geom_bond_site_symmetry_2
Ba0 O40 2.791046 1_555
Ba0 O37 2.791046 1_445
Ba0 O33 2.791049 1_545
Ba0 O18 2.938521 1_555
Ba0 O18 2.938521 1_445
Ba0 O20 2.938521 1_555
Ba0 O24 2.938521 1_445
Ba0 O24 2.938521 1_545
Ba0 O20 2.938521 1_545
Ba0 O10 3.245475 1_555
Ba0 O7 3.245475 1_445
Ba0 O3 3.245478 1_545
Ba1 O39 2.791046 1_555
Ba1 O41 2.791046 1_445
Ba1 O35 2.791049 1_455
Ba1 O19 2.938521 1_555
Ba1 O19 2.938521 1_445
Ba1 O26 2.938521 1_555
Ba1 O22 2.938521 1_445
Ba1 O22 2.938521 1_455
Ba1 O26 2.938521 1_455
Ba1 O9 3.245475 1_555
Ba1 O11 3.245475 1_445
Ba1 O5 3.245478 1_455
Ba2 O32 2.791046 1_555
Ba2 O36 2.791046 1_445
Ba2 O30 2.791049 1_455
Ba2 O21 2.938521 1_555
Ba2 O21 2.938521 1_445
Ba2 O28 2.938521 1_555
Ba2 O25 2.938521 1_445
Ba2 O25 2.938521 1_455
Ba2 O28 2.938521 1_455
Ba2 O2 3.245475 1_555
Ba2 O6 3.245475 1_445
Ba2 O0 3.245478 1_455
Ba3 O38 2.791046 1_555
Ba3 O34 2.791046 1_445
Ba3 O31 2.791049 1_545
Ba3 O23 2.938521 1_555
Ba3 O23 2.938521 1_445
Ba3 O27 2.938521 1_555
Ba3 O29 2.938521 1_445
Ba3 O29 2.938521 1_545
Ba3 O27 2.938521 1_545
Ba3 O8 3.245475 1_555
Ba3 O4 3.245475 1_445
Ba3 O1 3.245478 1_545
Ba4 O3 2.935908 1_655
Ba4 O3 2.935908 1_545
Ba4 O7 2.935908 1_545
Ba4 O10 2.935908 1_655
Ba4 O10 2.935908 1_555
Ba4 O7 2.935908 1_555
Ba4 O12 3.036506 1_555
Ba4 O16 3.036512 1_555
Ba4 O14 3.036512 1_555
Ba4 O20 3.292736 1_655
Ba4 O24 3.292736 1_545
Ba4 O18 3.292739 1_555
Ba5 O5 2.935908 1_455
Ba5 O5 2.935908 1_565
Ba5 O11 2.935908 1_455
Ba5 O9 2.935908 1_565
Ba5 O9 2.935908 1_555
Ba5 O11 2.935908 1_555
Ba5 O13 3.036506 1_555
Ba5 O15 3.036512 1_555
Ba5 O17 3.036512 1_555
Ba5 O26 3.292736 1_565
Ba5 O22 3.292736 1_455
Ba5 O19 3.292739 1_555
Ba6 O0 2.935908 1_565
Ba6 O0 2.935908 1_455
Ba6 O6 2.935908 1_455
Ba6 O2 2.935908 1_565
Ba6 O2 2.935908 1_555
Ba6 O6 2.935908 1_555
Ba6 O13 3.036506 1_555
Ba6 O17 3.036512 1_555
Ba6 O15 3.036512 1_555
Ba6 O28 3.292736 1_565
Ba6 O25 3.292736 1_455
Ba6 O21 3.292739 1_555
Ba7 O1 2.935908 1_655
Ba7 O1 2.935908 1_545
Ba7 O4 2.935908 1_545
Ba7 O8 2.935908 1_655
Ba7 O8 2.935908 1_555
Ba7 O4 2.935908 1_555
Ba7 O12 3.036506 1_555
Ba7 O16 3.036512 1_555
Ba7 O14 3.036512 1_555
Ba7 O27 3.292736 1_655
Ba7 O29 3.292736 1_545
Ba7 O23 3.292739 1_555
Ba8 O0 2.822327 1_555
Ba8 O5 2.822327 1_555
Ba8 O6 2.822333 1_555
Ba8 O2 2.822333 1_555
Ba8 O11 2.822333 1_555
Ba8 O9 2.822333 1_555
Ba8 O13 2.939061 1_655
Ba8 O13 2.939061 1_545
Ba8 O15 2.939061 1_555
Ba8 O17 2.939061 1_555
Ba8 O17 2.939061 1_655
Ba8 O15 2.939061 1_545
Ba9 O3 2.822327 1_555
Ba9 O1 2.822327 1_555
Ba9 O4 2.822333 1_555
Ba9 O7 2.822333 1_555
Ba9 O10 2.822333 1_555
Ba9 O8 2.822333 1_555
Ba9 O12 2.939061 1_565
Ba9 O12 2.939061 1_455
Ba9 O16 2.939061 1_555
Ba9 O14 2.939061 1_555
Ba9 O14 2.939061 1_565
Ba9 O16 2.939061 1_455
Ba10 O20 2.878643 1_655
Ba10 O24 2.878643 1_545
Ba10 O18 2.878646 1_555
Ba10 O33 2.938225 1_655
Ba10 O33 2.938225 1_545
Ba10 O40 2.938225 1_555
Ba10 O37 2.938225 1_555
Ba10 O37 2.938225 1_545
Ba10 O40 2.938225 1_655
Ba10 O35 3.393363 1_556
Ba10 O39 3.393368 1_556
Ba10 O41 3.393368 1_556
Ba11 O26 2.878643 1_565
Ba11 O22 2.878643 1_455
Ba11 O19 2.878646 1_555
Ba11 O35 2.938225 1_565
Ba11 O35 2.938225 1_455
Ba11 O39 2.938225 1_555
Ba11 O41 2.938225 1_555
Ba11 O41 2.938225 1_455
Ba11 O39 2.938225 1_565
Ba11 O33 3.393363 1_554
Ba11 O40 3.393368 1_554
Ba11 O37 3.393368 1_554
Ba12 O28 2.878643 1_565
Ba12 O25 2.878643 1_455
Ba12 O21 2.878646 1_555
Ba12 O30 2.938225 1_455
Ba12 O30 2.938225 1_565
Ba12 O32 2.938225 1_555
Ba12 O36 2.938225 1_555
Ba12 O36 2.938225 1_455
Ba12 O32 2.938225 1_565
Ba12 O31 3.393363 1_555
Ba12 O38 3.393368 1_555
Ba12 O34 3.393368 1_555
Ba13 O27 2.878643 1_655
Ba13 O29 2.878643 1_545
Ba13 O23 2.878646 1_555
Ba13 O31 2.938225 1_545
Ba13 O31 2.938225 1_655
Ba13 O34 2.938225 1_555
Ba13 O38 2.938225 1_555
Ba13 O34 2.938225 1_545
Ba13 O38 2.938225 1_655
Ba13 O30 3.393363 1_555
Ba13 O36 3.393368 1_555
Ba13 O32 3.393368 1_555
O0 Pt2 2.052797 1_655
O0 Pt10 2.083397 1_555
O1 Pt3 2.052797 1_565
O1 Pt11 2.083397 1_555
O2 Pt2 2.052793 1_555
O2 Pt10 2.083404 1_555
O3 Pt0 2.052797 1_565
O3 Pt12 2.083397 1_555
O4 Pt3 2.052793 1_665
O4 Pt11 2.083404 1_555
O5 Pt1 2.052797 1_655
O5 Pt13 2.083397 1_555
O6 Pt2 2.052793 1_665
O6 Pt10 2.083404 1_555
O7 Pt0 2.052793 1_665
O7 Pt12 2.083404 1_555
O8 Pt3 2.052793 1_555
O8 Pt11 2.083404 1_555
O9 Pt1 2.052793 1_555
O9 Pt13 2.083404 1_555
O10 Pt0 2.052793 1_555
O10 Pt12 2.083404 1_555
O11 Pt1 2.052793 1_665
O11 Pt13 2.083404 1_555
O12 Pt3 2.056770 1_655
O12 Pt0 2.056770 1_655
O13 Pt2 2.056770 1_565
O13 Pt1 2.056770 1_565
O14 Pt3 2.056766 1_555
O14 Pt0 2.056766 1_555
O15 Pt2 2.056766 1_665
O15 Pt1 2.056766 1_665
O16 Pt3 2.056766 1_665
O16 Pt0 2.056766 1_665
O17 Pt2 2.056766 1_555
O17 Pt1 2.056766 1_555
O18 Pt12 2.048109 1_555
O18 Pt8 2.082167 1_555
O19 Pt13 2.048109 1_555
O19 Pt9 2.082167 1_555
O20 Pt12 2.048105 1_555
O20 Pt8 2.082163 1_555
O21 Pt10 2.048109 1_555
O21 Pt6 2.082167 1_555
O22 Pt13 2.048105 1_555
O22 Pt9 2.082163 1_555
O23 Pt11 2.048109 1_555
O23 Pt7 2.082167 1_555
O24 Pt12 2.048105 1_555
O24 Pt8 2.082163 1_555
O25 Pt10 2.048105 1_555
O25 Pt6 2.082163 1_555
O26 Pt13 2.048105 1_555
O26 Pt9 2.082163 1_555
O27 Pt11 2.048105 1_555
O27 Pt7 2.082163 1_555
O28 Pt10 2.048105 1_555
O28 Pt6 2.082163 1_555
O29 Pt11 2.048105 1_555
O29 Pt7 2.082163 1_555
O30 Pt6 2.037984 1_555
O30 Pt5 2.065474 1_655
O31 Pt7 2.037984 1_555
O31 Pt5 2.065474 1_565
O32 Pt6 2.037993 1_555
O32 Pt5 2.065471 1_555
O33 Pt8 2.037984 1_555
O33 Pt4 2.065474 1_566
O34 Pt7 2.037993 1_555
O34 Pt5 2.065471 1_665
O35 Pt9 2.037984 1_555
O35 Pt4 2.065474 1_655
O36 Pt6 2.037993 1_555
O36 Pt5 2.065471 1_665
O37 Pt8 2.037993 1_555
O37 Pt4 2.065471 1_666
O38 Pt7 2.037993 1_555
O38 Pt5 2.065471 1_555
O39 Pt9 2.037993 1_555
O39 Pt4 2.065471 1_555
O40 Pt8 2.037993 1_555
O40 Pt4 2.065471 1_556
O41 Pt9 2.037993 1_555
O41 Pt4 2.065471 1_665
