# generated using pymatgen
data_La3Mg2MnS8
_symmetry_space_group_name_H-M   'P 1'
_cell_length_a   8.09915764
_cell_length_b   7.90075535
_cell_length_c   8.12438005
_cell_angle_alpha   59.06647388
_cell_angle_beta   59.90942035
_cell_angle_gamma   59.49675446
_symmetry_Int_Tables_number   1
_chemical_formula_structural   La3Mg2MnS8
_chemical_formula_sum   'La3 Mg2 Mn1 S8'
_cell_volume   363.31035960
_cell_formula_units_Z   1
loop_
 _symmetry_equiv_pos_site_id
 _symmetry_equiv_pos_as_xyz
  1  'x, y, z'
loop_
 _atom_site_type_symbol
 _atom_site_label
 _atom_site_symmetry_multiplicity
 _atom_site_fract_x
 _atom_site_fract_y
 _atom_site_fract_z
 _atom_site_occupancy
  La  La0  1  0.50004500  0.50003700  0.49994500  1
  La  La1  1  0.49998500  0.50002700  0.99994000  1
  La  La2  1  0.00002000  0.49999400  0.50004500  1
  Mg  Mg0  1  0.87357300  0.87717700  0.87453400  1
  Mg  Mg1  1  0.12640800  0.12283200  0.12548100  1
  Mn  Mn0  1  0.49996500  0.00000100  0.50001600  1
  S  S0  1  0.73067500  0.77597700  0.73000500  1
  S  S1  1  0.26929700  0.22400400  0.73659600  1
  S  S2  1  0.25294400  0.74412500  0.25151400  1
  S  S3  1  0.73357100  0.22094900  0.27268800  1
  S  S4  1  0.74705400  0.25580800  0.74848400  1
  S  S5  1  0.26641700  0.77908200  0.72730200  1
  S  S6  1  0.26932600  0.22397100  0.27004900  1
  S  S7  1  0.73072400  0.77600900  0.26340100  1
loop_
_geom_bond_atom_site_label_1
_geom_bond_atom_site_label_2
_geom_bond_distance
_geom_bond_site_symmetry_2
La0 S2 2.815792 1_555
La0 S4 2.815837 1_555
La0 S7 2.857468 1_555
La0 S1 2.858182 1_555
La0 S3 2.880683 1_555
La0 S5 2.880953 1_555
La1 S4 2.816825 1_555
La1 S2 2.816851 1_556
La1 S0 2.857395 1_555
La1 S6 2.857884 1_556
La1 S5 2.879694 1_555
La1 S3 2.880426 1_556
La2 S2 2.802353 1_555
La2 S4 2.802897 1_455
La2 S1 2.875994 1_555
La2 S7 2.876606 1_455
La2 S0 2.876863 1_455
La2 S6 2.877264 1_555
Mg0 S4 2.416293 1_565
Mg0 S0 2.573877 1_555
Mg0 S7 2.576058 1_556
Mg0 S5 2.605425 1_655
Mg1 S2 2.416777 1_545
Mg1 S6 2.573906 1_555
Mg1 S1 2.576176 1_554
Mg1 S3 2.605362 1_455
Mn0 S5 2.563184 1_545
Mn0 S3 2.563681 1_555
Mn0 S6 2.618456 1_555
Mn0 S1 2.618539 1_555
Mn0 S7 2.618686 1_545
Mn0 S0 2.618981 1_545
