# generated using pymatgen
data_AlSO10
_symmetry_space_group_name_H-M   'P 1'
_cell_length_a   11.08323000
_cell_length_b   8.21366900
_cell_length_c   10.60019653
_cell_angle_alpha   56.21996562
_cell_angle_beta   90.00000000
_cell_angle_gamma   90.00000000
_symmetry_Int_Tables_number   1
_chemical_formula_structural   AlSO10
_chemical_formula_sum   'Al4 S4 O40'
_cell_volume   802.06883252
_cell_formula_units_Z   4
loop_
 _symmetry_equiv_pos_site_id
 _symmetry_equiv_pos_as_xyz
  1  'x, y, z'
loop_
 _atom_site_type_symbol
 _atom_site_label
 _atom_site_symmetry_multiplicity
 _atom_site_fract_x
 _atom_site_fract_y
 _atom_site_fract_z
 _atom_site_occupancy
  Al  Al0  1  0.02415200  0.12940800  0.31535500  1
  Al  Al1  1  0.47584800  0.12940800  0.81535500  1
  Al  Al2  1  0.97584800  0.87059200  0.68464500  1
  Al  Al3  1  0.52415200  0.87059200  0.18464500  1
  S  S0  1  0.69602500  0.09709900  0.25606000  1
  S  S1  1  0.80397500  0.09709900  0.75606000  1
  S  S2  1  0.30397500  0.90290100  0.74394000  1
  S  S3  1  0.19602500  0.90290100  0.24394000  1
  O  O0  1  0.01010200  0.09732900  0.49961300  1
  O  O1  1  0.48989800  0.09732900  0.99961300  1
  O  O2  1  0.98989800  0.90267100  0.50038700  1
  O  O3  1  0.51010200  0.90267100  0.00038700  1
  O  O4  1  0.90068900  0.66240400  0.17468600  1
  O  O5  1  0.59931100  0.66240400  0.67468600  1
  O  O6  1  0.09931100  0.33759600  0.82531400  1
  O  O7  1  0.40068900  0.33759600  0.32531400  1
  O  O8  1  0.14537100  0.54551500  0.13596100  1
  O  O9  1  0.35462900  0.54551500  0.63596100  1
  O  O10  1  0.85462900  0.45448500  0.86403900  1
  O  O11  1  0.64537100  0.45448500  0.36403900  1
  O  O12  1  0.90307500  0.24683300  0.18690700  1
  O  O13  1  0.59692500  0.24683300  0.68690700  1
  O  O14  1  0.09692500  0.75316700  0.81309300  1
  O  O15  1  0.40307500  0.75316700  0.31309300  1
  O  O16  1  0.60592600  0.59667700  0.24389000  1
  O  O17  1  0.89407400  0.59667700  0.74389000  1
  O  O18  1  0.39407400  0.40332300  0.75611000  1
  O  O19  1  0.10592600  0.40332300  0.25611000  1
  O  O20  1  0.16427600  0.92387800  0.79144600  1
  O  O21  1  0.33572400  0.92387800  0.29144600  1
  O  O22  1  0.83572400  0.07612200  0.20855400  1
  O  O23  1  0.66427600  0.07612200  0.70855400  1
  O  O24  1  0.35719300  0.72667900  0.86840100  1
  O  O25  1  0.14280700  0.72667900  0.36840100  1
  O  O26  1  0.64280700  0.27332100  0.13159900  1
  O  O27  1  0.85719300  0.27332100  0.63159900  1
  O  O28  1  0.35067600  0.08653900  0.73487600  1
  O  O29  1  0.14932400  0.08653900  0.23487600  1
  O  O30  1  0.64932400  0.91346100  0.26512400  1
  O  O31  1  0.85067600  0.91346100  0.76512400  1
  O  O32  1  0.30102600  0.93695300  0.59571300  1
  O  O33  1  0.19897400  0.93695300  0.09571300  1
  O  O34  1  0.69897400  0.06304700  0.40428700  1
  O  O35  1  0.80102600  0.06304700  0.90428700  1
  O  O36  1  0.37837800  0.32958800  0.21514700  1
  O  O37  1  0.12162200  0.32958800  0.71514700  1
  O  O38  1  0.62162200  0.67041200  0.78485300  1
  O  O39  1  0.87837800  0.67041200  0.28485300  1
loop_
_geom_bond_atom_site_label_1
_geom_bond_atom_site_label_2
_geom_bond_distance
_geom_bond_site_symmetry_2
Al0 O29 1.763636 1_555
Al0 O12 1.767644 1_455
Al0 O0 1.826546 1_555
Al0 O2 1.843241 1_445
Al0 O19 2.169432 1_555
Al1 O28 1.763636 1_555
Al1 O13 1.767644 1_555
Al1 O1 1.826546 1_555
Al1 O3 1.843241 1_546
Al1 O18 2.169432 1_555
Al2 O31 1.763636 1_555
Al2 O14 1.767644 1_655
Al2 O2 1.826546 1_555
Al2 O0 1.843241 1_665
Al2 O17 2.169432 1_555
Al3 O30 1.763636 1_555
Al3 O15 1.767644 1_555
Al3 O3 1.826546 1_555
Al3 O1 1.843241 1_564
Al3 O16 2.169432 1_555
O10 O17 1.234157 1_555
O11 O16 1.234157 1_555
O18 O9 1.234157 1_555
O19 O8 1.234157 1_555
O20 S2 1.666445 1_555
O21 S3 1.666445 1_555
O22 S0 1.666445 1_555
O23 S1 1.666445 1_555
O24 S2 1.435277 1_555
O25 S3 1.435277 1_555
O26 S0 1.435277 1_555
O27 S1 1.435277 1_555
O28 S2 1.546311 1_545
O29 S3 1.546311 1_545
O30 S0 1.546311 1_565
O31 S1 1.546311 1_565
O32 S2 1.435057 1_555
O33 S3 1.435057 1_555
O34 S0 1.435057 1_555
O35 S1 1.435057 1_555
O36 O7 1.230701 1_555
O37 O6 1.230701 1_555
O38 O5 1.230701 1_555
O39 O4 1.230701 1_555
