# generated using pymatgen
data_KLi6IrO6
_symmetry_space_group_name_H-M   'P 1'
_cell_length_a   5.35518226
_cell_length_b   5.35518226
_cell_length_c   5.35518203
_cell_angle_alpha   101.37779339
_cell_angle_beta   101.37779339
_cell_angle_gamma   101.37779407
_symmetry_Int_Tables_number   1
_chemical_formula_structural   KLi6IrO6
_chemical_formula_sum   'K1 Li6 Ir1 O6'
_cell_volume   143.07210162
_cell_formula_units_Z   1
loop_
 _symmetry_equiv_pos_site_id
 _symmetry_equiv_pos_as_xyz
  1  'x, y, z'
loop_
 _atom_site_type_symbol
 _atom_site_label
 _atom_site_symmetry_multiplicity
 _atom_site_fract_x
 _atom_site_fract_y
 _atom_site_fract_z
 _atom_site_occupancy
  K  K0  1  0.50000000  0.50000000  0.50000000  1
  Li  Li0  1  0.00000000  0.33816500  0.66183500  1
  Li  Li1  1  0.66183500  0.00000000  0.33816500  1
  Li  Li2  1  0.66183500  0.33816500  0.00000000  1
  Li  Li3  1  0.33816500  0.00000000  0.66183500  1
  Li  Li4  1  0.00000000  0.66183500  0.33816500  1
  Li  Li5  1  0.33816500  0.66183500  0.00000000  1
  Ir  Ir0  1  0.00000000  0.00000000  0.00000000  1
  O  O0  1  0.07702100  0.72571000  0.72571000  1
  O  O1  1  0.72571000  0.72571000  0.07702100  1
  O  O2  1  0.92297900  0.27429000  0.27429000  1
  O  O3  1  0.27429000  0.27429000  0.92297900  1
  O  O4  1  0.27429000  0.92297900  0.27429000  1
  O  O5  1  0.72571000  0.07702100  0.72571000  1
loop_
_geom_bond_atom_site_label_1
_geom_bond_atom_site_label_2
_geom_bond_distance
_geom_bond_site_symmetry_2
K0 O1 2.991096 1_556
K0 O3 2.991096 1_554
K0 O0 2.991096 1_655
K0 O5 2.991096 1_565
K0 O4 2.991096 1_545
K0 O2 2.991096 1_455
K0 Li5 2.994666 1_555
K0 Li2 2.994666 1_555
K0 Li2 2.994666 1_556
K0 Li5 2.994666 1_556
K0 Li0 2.994666 1_555
K0 Li3 2.994666 1_555
K0 Li4 2.994666 1_655
K0 Li1 2.994666 1_565
K0 Li4 2.994666 1_555
K0 Li1 2.994666 1_555
K0 Li0 2.994666 1_655
K0 Li3 2.994666 1_565
K0 O3 3.104331 1_555
K0 O1 3.104331 1_555
K0 O2 3.104331 1_555
K0 O4 3.104331 1_555
K0 O5 3.104331 1_555
K0 O0 3.104331 1_555
Li0 O3 1.951107 1_555
Li0 O5 1.951107 1_455
Li0 O2 1.980101 1_455
Li0 O0 1.980101 1_555
Li1 O1 1.951107 1_545
Li1 O2 1.951107 1_555
Li1 O5 1.980101 1_555
Li1 O4 1.980101 1_545
Li2 O2 1.951107 1_555
Li2 O5 1.951107 1_554
Li2 O3 1.980101 1_554
Li2 O1 1.980101 1_555
Li3 O3 1.951107 1_555
Li3 O0 1.951107 1_545
Li3 O4 1.980101 1_545
Li3 O5 1.980101 1_555
Li4 O1 1.951107 1_455
Li4 O4 1.951107 1_555
Li4 O0 1.980101 1_555
Li4 O2 1.980101 1_455
Li5 O4 1.951107 1_555
Li5 O0 1.951107 1_554
Li5 O3 1.980101 1_554
Li5 O1 1.980101 1_555
Ir0 O5 2.027831 1_454
Ir0 O0 2.027831 1_544
Ir0 O2 2.027831 1_455
Ir0 O4 2.027831 1_545
Ir0 O1 2.027831 1_445
Ir0 O3 2.027831 1_554
