# generated using pymatgen
data_Li3GdO3
_symmetry_space_group_name_H-M   'P 1'
_cell_length_a   10.19806825
_cell_length_b   10.19895256
_cell_length_c   10.79156944
_cell_angle_alpha   89.99614926
_cell_angle_beta   90.00998839
_cell_angle_gamma   120.00401586
_symmetry_Int_Tables_number   1
_chemical_formula_structural   Li3GdO3
_chemical_formula_sum   'Li36 Gd12 O36'
_cell_volume   972.01092100
_cell_formula_units_Z   12
loop_
 _symmetry_equiv_pos_site_id
 _symmetry_equiv_pos_as_xyz
  1  'x, y, z'
loop_
 _atom_site_type_symbol
 _atom_site_label
 _atom_site_symmetry_multiplicity
 _atom_site_fract_x
 _atom_site_fract_y
 _atom_site_fract_z
 _atom_site_occupancy
  Li  Li0  1  0.08390432  0.85746930  0.43741915  1
  Li  Li1  1  0.14253153  0.91605856  0.93751241  1
  Li  Li2  1  0.10785252  0.52627804  0.93798322  1
  Li  Li3  1  0.19163169  0.75178804  0.06220284  1
  Li  Li4  1  0.10787601  0.58158102  0.43787584  1
  Li  Li5  1  0.24820131  0.80837221  0.56212292  1
  Li  Li6  1  0.19162767  0.43982860  0.56210543  1
  Li  Li7  1  0.47372137  0.89211136  0.43788841  1
  Li  Li8  1  0.08390985  0.22647678  0.93752397  1
  Li  Li9  1  0.14252833  0.22647121  0.43742590  1
  Li  Li10  1  0.24819691  0.43983679  0.06223327  1
  Li  Li11  1  0.41843053  0.89212782  0.93794966  1
  Li  Li12  1  0.56019080  0.80836246  0.06219553  1
  Li  Li13  1  0.22639431  0.14250218  0.06259556  1
  Li  Li14  1  0.47372833  0.58160304  0.93798222  1
  Li  Li15  1  0.56017444  0.75181940  0.56211779  1
  Li  Li16  1  0.22641711  0.08389903  0.56249673  1
  Li  Li17  1  0.41841140  0.52629051  0.43787032  1
  Li  Li18  1  0.58161069  0.47373318  0.56201190  1
  Li  Li19  1  0.77351388  0.91606133  0.43743131  1
  Li  Li20  1  0.43981147  0.24818349  0.43778332  1
  Li  Li21  1  0.52628163  0.41844409  0.06210231  1
  Li  Li22  1  0.77352992  0.85746659  0.93750397  1
  Li  Li23  1  0.43981535  0.19161441  0.93784930  1
  Li  Li24  1  0.58157362  0.10782864  0.06211375  1
  Li  Li25  1  0.75181322  0.56018591  0.93787336  1
  Li  Li26  1  0.85747794  0.77358357  0.56250209  1
  Li  Li27  1  0.91607213  0.77357504  0.06258135  1
  Li  Li28  1  0.52628661  0.10783905  0.56204859  1
  Li  Li29  1  0.80837654  0.56019878  0.43779363  1
  Li  Li30  1  0.75183420  0.19162062  0.43779330  1
  Li  Li31  1  0.89214156  0.41839960  0.56203335  1
  Li  Li32  1  0.80837176  0.24817516  0.93785561  1
  Li  Li33  1  0.89215048  0.47372137  0.06211540  1
  Li  Li34  1  0.85747041  0.08390213  0.06257234  1
  Li  Li35  1  0.91608053  0.14250758  0.56251432  1
  Gd  Gd0  1  -0.00001675  0.66651557  0.74998860  1
  Gd  Gd1  1  0.00013526  0.33357975  0.24998503  1
  Gd  Gd2  1  0.33337160  0.66664358  0.24946985  1
  Gd  Gd3  1  0.99990014  -0.00002128  0.25000644  1
  Gd  Gd4  1  0.99996078  -0.00006190  0.75003629  1
  Gd  Gd5  1  0.33331428  0.66668188  0.74948711  1
  Gd  Gd6  1  0.33349473  0.33351523  0.74999675  1
  Gd  Gd7  1  0.33339996  0.99986092  0.25001063  1
  Gd  Gd8  1  0.66643968  0.66658223  0.25000147  1
  Gd  Gd9  1  0.66668735  0.33338911  0.25053700  1
  Gd  Gd10  1  0.66671777  0.33333284  0.75049553  1
  Gd  Gd11  1  0.66653234  0.99999385  0.75000127  1
  O  O0  1  0.08475364  0.87456421  0.61955069  1
  O  O1  1  0.12563910  0.91525646  0.11944464  1
  O  O2  1  0.20863884  0.75198068  0.88019912  1
  O  O3  1  0.24796654  0.79180680  0.38048252  1
  O  O4  1  0.12322034  0.58143389  0.61949473  1
  O  O5  1  0.12279784  0.54154575  0.11916204  1
  O  O6  1  0.08479007  0.21027615  0.11935426  1
  O  O7  1  0.20834807  0.45624995  0.38052539  1
  O  O8  1  0.41866554  0.87730301  0.11920188  1
  O  O9  1  0.45832246  0.87688414  0.61954699  1
  O  O10  1  0.24805686  0.45670920  0.88018363  1
  O  O11  1  0.12547719  0.21022934  0.61956330  1
  O  O12  1  0.21021605  0.12544762  0.88050163  1
  O  O13  1  0.41857638  0.54182549  0.61949659  1
  O  O14  1  0.45845146  0.58128224  0.11912166  1
  O  O15  1  0.54344582  0.79151468  0.88013861  1
  O  O16  1  0.21042063  0.08477209  0.38056774  1
  O  O17  1  0.54371751  0.75213832  0.38056415  1
  O  O18  1  0.45664494  0.24799619  0.61974362  1
  O  O19  1  0.78971034  0.91529848  0.61961665  1
  O  O20  1  0.45643944  0.20838746  0.11963800  1
  O  O21  1  0.54174585  0.41856192  0.88053105  1
  O  O22  1  0.58135935  0.45821304  0.38071271  1
  O  O23  1  0.78970103  0.87454738  0.11932116  1
  O  O24  1  0.87453851  0.78972814  0.38067484  1
  O  O25  1  0.75204448  0.54344446  0.11955905  1
  O  O26  1  0.54158203  0.12297440  0.38063925  1
  O  O27  1  0.58143563  0.12306889  0.88051029  1
  O  O28  1  0.79142019  0.54336125  0.61976214  1
  O  O29  1  0.91523027  0.78979586  0.88046926  1
  O  O30  1  0.87682179  0.45821621  0.88054059  1
  O  O31  1  0.87688050  0.41862304  0.38072870  1
  O  O32  1  0.75197289  0.20847480  0.61981084  1
  O  O33  1  0.79141310  0.24793153  0.11956771  1
  O  O34  1  0.87442994  0.08473914  0.88040410  1
  O  O35  1  0.91514793  0.12549116  0.38067411  1
loop_
_geom_bond_atom_site_label_1
_geom_bond_atom_site_label_2
_geom_bond_distance
_geom_bond_site_symmetry_2
Li0 O0 1.972849 1_555
Li0 O24 1.983776 1_455
Li0 O16 2.103336 1_565
Li0 O3 2.178613 1_555
Li1 O1 1.970566 1_556
Li1 O12 1.985260 1_565
Li1 O29 2.103503 1_455
Li1 O2 2.183111 1_555
Li2 O5 1.961250 1_556
Li2 O10 1.987926 1_555
Li2 O2 2.092349 1_555
Li2 O30 2.186560 1_455
Li3 O2 1.971693 1_554
Li3 O5 1.990727 1_555
Li3 O8 2.100736 1_555
Li3 O1 2.176359 1_555
Li4 O4 1.966223 1_555
Li4 O3 1.989563 1_555
Li4 O7 2.092129 1_555
Li4 O31 2.185384 1_455
Li5 O3 1.967362 1_555
Li5 O9 1.991508 1_555
Li5 O4 2.101096 1_555
Li5 O0 2.178080 1_555
Li6 O7 1.966827 1_555
Li6 O4 1.990965 1_555
Li6 O13 2.100958 1_555
Li6 O11 2.177854 1_555
Li7 O9 1.966609 1_555
Li7 O17 1.987374 1_555
Li7 O3 2.091605 1_555
Li7 O26 2.185146 1_565
Li8 O6 1.969563 1_556
Li8 O34 1.986078 1_455
Li8 O12 2.104108 1_555
Li8 O10 2.183528 1_555
Li9 O11 1.972898 1_555
Li9 O16 1.986306 1_555
Li9 O35 2.103314 1_455
Li9 O7 2.178608 1_555
Li10 O10 1.972174 1_554
Li10 O14 1.990380 1_555
Li10 O5 2.101417 1_555
Li10 O6 2.176389 1_555
Li11 O8 1.961914 1_556
Li11 O2 1.987463 1_555
Li11 O15 2.091979 1_555
Li11 O27 2.186227 1_565
Li12 O15 1.972115 1_554
Li12 O8 1.992787 1_555
Li12 O14 2.101062 1_555
Li12 O23 2.175628 1_555
Li13 O12 1.972370 1_554
Li13 O6 1.984196 1_555
Li13 O1 2.102866 1_545
Li13 O20 2.181098 1_555
Li14 O14 1.960877 1_556
Li14 O15 1.989014 1_555
Li14 O10 2.091847 1_555
Li14 O21 2.187340 1_555
Li15 O17 1.966536 1_555
Li15 O13 1.990640 1_555
Li15 O9 2.101268 1_555
Li15 O19 2.177311 1_555
Li16 O16 1.970425 1_555
Li16 O0 1.984888 1_545
Li16 O11 2.103751 1_555
Li16 O18 2.182864 1_555
Li17 O13 1.966369 1_555
Li17 O7 1.987854 1_555
Li17 O17 2.092217 1_555
Li17 O22 2.185936 1_555
Li18 O22 1.962804 1_555
Li18 O28 1.987654 1_555
Li18 O18 2.092473 1_555
Li18 O13 2.187850 1_555
Li19 O19 1.973304 1_555
Li19 O35 1.984530 1_565
Li19 O24 2.103487 1_555
Li19 O17 2.178255 1_555
Li20 O18 1.971181 1_555
Li20 O22 1.989771 1_555
Li20 O26 2.100958 1_555
Li20 O16 2.175261 1_555
Li21 O21 1.965755 1_554
Li21 O20 1.989072 1_555
Li21 O25 2.091556 1_555
Li21 O14 2.182787 1_555
Li22 O23 1.969404 1_556
Li22 O29 1.985253 1_555
Li22 O34 2.103800 1_565
Li22 O15 2.182293 1_555
Li23 O20 1.969145 1_556
Li23 O27 1.991894 1_555
Li23 O21 2.101036 1_555
Li23 O12 2.177186 1_555
Li24 O27 1.965986 1_554
Li24 O33 1.986730 1_555
Li24 O20 2.091654 1_555
Li24 O8 2.181982 1_545
Li25 O25 1.968186 1_556
Li25 O21 1.990873 1_555
Li25 O30 2.101415 1_555
Li25 O29 2.177629 1_555
Li26 O24 1.969528 1_555
Li26 O19 1.986402 1_555
Li26 O0 2.103333 1_655
Li26 O28 2.183315 1_555
Li27 O29 1.972592 1_554
Li27 O1 1.985744 1_655
Li27 O23 2.103325 1_555
Li27 O25 2.181424 1_555
Li28 O26 1.963848 1_555
Li28 O18 1.987715 1_555
Li28 O32 2.091945 1_555
Li28 O9 2.186535 1_545
Li29 O28 1.971290 1_555
Li29 O31 1.990310 1_555
Li29 O22 2.100577 1_555
Li29 O24 2.176132 1_555
Li30 O32 1.971712 1_555
Li30 O26 1.991551 1_555
Li30 O31 2.100681 1_555
Li30 O35 2.175435 1_555
Li31 O31 1.962806 1_555
Li31 O32 1.988798 1_555
Li31 O28 2.092141 1_555
Li31 O4 2.187107 1_655
Li32 O33 1.968493 1_556
Li32 O30 1.990798 1_555
Li32 O27 2.100799 1_555
Li32 O34 2.177161 1_555
Li33 O30 1.965758 1_554
Li33 O25 1.986951 1_555
Li33 O33 2.092074 1_555
Li33 O5 2.182296 1_655
Li34 O34 1.973148 1_554
Li34 O23 1.983906 1_545
Li34 O6 2.102899 1_655
Li34 O33 2.181333 1_555
Li35 O35 1.969615 1_555
Li35 O11 1.985114 1_655
Li35 O19 2.103275 1_545
Li35 O32 2.182288 1_555
Gd0 O0 2.323056 1_555
Gd0 O29 2.323396 1_455
Gd0 O28 2.324621 1_455
Gd0 O2 2.325147 1_555
Gd0 O4 2.325312 1_555
Gd0 O30 2.325350 1_455
Gd1 O6 2.323908 1_555
Gd1 O7 2.323964 1_555
Gd1 O5 2.324516 1_555
Gd1 O35 2.324809 1_455
Gd1 O31 2.326825 1_455
Gd1 O33 2.326836 1_455
Gd2 O14 2.339905 1_555
Gd2 O5 2.340049 1_555
Gd2 O8 2.340919 1_555
Gd2 O17 2.343437 1_555
Gd2 O7 2.343990 1_555
Gd2 O3 2.345137 1_555
Gd3 O23 2.340338 1_545
Gd3 O24 2.340834 1_545
Gd3 O6 2.341073 1_655
Gd3 O35 2.341214 1_555
Gd3 O16 2.341897 1_655
Gd3 O1 2.342014 1_645
Gd4 O29 2.338635 1_545
Gd4 O19 2.339101 1_545
Gd4 O0 2.339263 1_645
Gd4 O12 2.339348 1_655
Gd4 O34 2.339717 1_555
Gd4 O11 2.339970 1_655
Gd5 O4 2.334617 1_555
Gd5 O13 2.335271 1_555
Gd5 O9 2.335474 1_555
Gd5 O10 2.338615 1_555
Gd5 O2 2.338846 1_555
Gd5 O15 2.339142 1_555
Gd6 O11 2.322505 1_555
Gd6 O12 2.323623 1_555
Gd6 O21 2.324616 1_555
Gd6 O13 2.325136 1_555
Gd6 O10 2.325334 1_555
Gd6 O18 2.325969 1_555
Gd7 O1 2.321569 1_555
Gd7 O16 2.322696 1_565
Gd7 O3 2.322757 1_555
Gd7 O8 2.323556 1_555
Gd7 O26 2.324712 1_565
Gd7 O20 2.325568 1_565
Gd8 O23 2.324084 1_555
Gd8 O24 2.324487 1_555
Gd8 O14 2.324718 1_555
Gd8 O17 2.325062 1_555
Gd8 O22 2.326954 1_555
Gd8 O25 2.327682 1_555
Gd9 O31 2.336661 1_555
Gd9 O22 2.336664 1_555
Gd9 O26 2.338008 1_555
Gd9 O25 2.340976 1_555
Gd9 O20 2.341665 1_555
Gd9 O33 2.341938 1_555
Gd10 O30 2.335067 1_555
Gd10 O21 2.336202 1_555
Gd10 O27 2.336336 1_555
Gd10 O28 2.339214 1_555
Gd10 O18 2.339315 1_555
Gd10 O32 2.339746 1_555
Gd11 O34 2.321394 1_565
Gd11 O19 2.321626 1_555
Gd11 O9 2.323751 1_555
Gd11 O15 2.323760 1_555
Gd11 O32 2.324075 1_565
Gd11 O27 2.324314 1_565
