# generated using pymatgen
data_Ce5AgSn3
_symmetry_space_group_name_H-M   'P 1'
_cell_length_a   6.56340800
_cell_length_b   9.54342433
_cell_length_c   9.54342433
_cell_angle_alpha   120.00000226
_cell_angle_beta   90.00000000
_cell_angle_gamma   90.00000000
_symmetry_Int_Tables_number   1
_chemical_formula_structural   Ce5AgSn3
_chemical_formula_sum   'Ce10 Ag2 Sn6'
_cell_volume   517.68846969
_cell_formula_units_Z   2
loop_
 _symmetry_equiv_pos_site_id
 _symmetry_equiv_pos_as_xyz
  1  'x, y, z'
loop_
 _atom_site_type_symbol
 _atom_site_label
 _atom_site_symmetry_multiplicity
 _atom_site_fract_x
 _atom_site_fract_y
 _atom_site_fract_z
 _atom_site_occupancy
  Ce  Ce0  1  0.75000000  0.71446800  0.71446800  1
  Ce  Ce1  1  0.25000000  0.28553200  0.28553200  1
  Ce  Ce2  1  0.75000000  0.00000000  0.28553200  1
  Ce  Ce3  1  0.25000000  0.00000000  0.71446800  1
  Ce  Ce4  1  0.75000000  0.28553200  0.00000000  1
  Ce  Ce5  1  0.25000000  0.71446800  0.00000000  1
  Ce  Ce6  1  0.00000000  0.66666700  0.33333300  1
  Ce  Ce7  1  0.00000000  0.33333300  0.66666700  1
  Ce  Ce8  1  0.50000000  0.33333300  0.66666700  1
  Ce  Ce9  1  0.50000000  0.66666700  0.33333300  1
  Ag  Ag0  1  0.00000000  0.00000000  0.00000000  1
  Ag  Ag1  1  0.50000000  0.00000000  0.00000000  1
  Sn  Sn0  1  0.75000000  0.37085100  0.37085100  1
  Sn  Sn1  1  0.25000000  0.62914900  0.62914900  1
  Sn  Sn2  1  0.75000000  0.00000000  0.62914900  1
  Sn  Sn3  1  0.25000000  0.00000000  0.37085100  1
  Sn  Sn4  1  0.75000000  0.62914900  0.00000000  1
  Sn  Sn5  1  0.25000000  0.37085100  0.00000000  1
loop_
_geom_bond_atom_site_label_1
_geom_bond_atom_site_label_2
_geom_bond_distance
_geom_bond_site_symmetry_2
Ce0 Sn4 3.210468 1_556
Ce0 Sn2 3.210468 1_565
Ce0 Sn0 3.279283 1_555
Ce0 Sn1 3.381207 1_555
Ce0 Sn1 3.381207 1_655
Ce0 Ce8 3.804129 1_555
Ce0 Ce9 3.804129 1_555
Ce0 Ce7 3.804129 1_655
Ce0 Ce6 3.804129 1_655
Ce1 Sn5 3.210468 1_555
Ce1 Sn3 3.210468 1_555
Ce1 Sn1 3.279283 1_555
Ce1 Sn0 3.381207 1_555
Ce1 Sn0 3.381207 1_455
Ce1 Ce7 3.804129 1_555
Ce1 Ce8 3.804129 1_555
Ce1 Ce9 3.804129 1_555
Ce1 Ce6 3.804129 1_555
Ce2 Sn4 3.210467 1_545
Ce2 Sn0 3.210467 1_555
Ce2 Sn2 3.279283 1_555
Ce2 Sn3 3.381207 1_655
Ce2 Sn3 3.381207 1_555
Ce2 Ce9 3.804120 1_545
Ce2 Ce6 3.804120 1_645
Ce2 Ce7 3.804125 1_655
Ce2 Ce8 3.804125 1_555
Ce3 Sn5 3.210467 1_556
Ce3 Sn1 3.210467 1_545
Ce3 Sn3 3.279283 1_555
Ce3 Sn2 3.381207 1_555
Ce3 Sn2 3.381207 1_455
Ce3 Ce7 3.804120 1_555
Ce3 Ce8 3.804120 1_555
Ce3 Ce6 3.804125 1_545
Ce3 Ce9 3.804125 1_545
Ce4 Sn2 3.210467 1_554
Ce4 Sn0 3.210467 1_555
Ce4 Sn4 3.279283 1_555
Ce4 Sn5 3.381207 1_555
Ce4 Sn5 3.381207 1_655
Ce4 Ce8 3.804120 1_554
Ce4 Ce7 3.804120 1_654
Ce4 Ce9 3.804125 1_555
Ce4 Ce6 3.804125 1_655
Ce5 Sn3 3.210467 1_565
Ce5 Sn1 3.210467 1_554
Ce5 Sn5 3.279283 1_555
Ce5 Sn4 3.381207 1_555
Ce5 Sn4 3.381207 1_455
Ce5 Ce6 3.804120 1_555
Ce5 Ce9 3.804120 1_555
Ce5 Ce7 3.804125 1_554
Ce5 Ce8 3.804125 1_554
Ce6 Ce9 3.281704 1_555
Ce6 Ce9 3.281704 1_455
Ce6 Sn4 3.435292 1_455
Ce6 Sn3 3.435292 1_565
Ce6 Sn2 3.435295 1_465
Ce6 Sn5 3.435295 1_555
Ce6 Sn1 3.435300 1_555
Ce6 Sn0 3.435300 1_455
Ce7 Ce8 3.281704 1_555
Ce7 Ce8 3.281704 1_455
Ce7 Sn2 3.435292 1_455
Ce7 Sn5 3.435292 1_556
Ce7 Sn3 3.435295 1_555
Ce7 Sn4 3.435295 1_456
Ce7 Sn1 3.435300 1_555
Ce7 Sn0 3.435300 1_455
Ce8 Sn2 3.435292 1_555
Ce8 Sn5 3.435292 1_556
Ce8 Sn3 3.435295 1_555
Ce8 Sn4 3.435295 1_556
Ce8 Sn1 3.435300 1_555
Ce8 Sn0 3.435300 1_555
Ce9 Sn4 3.435292 1_555
Ce9 Sn3 3.435292 1_565
Ce9 Sn2 3.435295 1_565
Ce9 Sn5 3.435295 1_555
Ce9 Sn1 3.435300 1_555
Ce9 Sn0 3.435300 1_555
Ag0 Ce1 3.180843 1_555
Ag0 Ce0 3.180843 1_444
Ag0 Ce5 3.180843 1_545
Ag0 Ce4 3.180843 1_455
Ag0 Ce3 3.180843 1_554
Ag0 Ce2 3.180843 1_455
Ag0 Ag1 3.281704 1_555
Ag0 Ag1 3.281704 1_455
Ag1 Ce0 3.180843 1_544
Ag1 Ce1 3.180843 1_555
Ag1 Ce5 3.180843 1_545
Ag1 Ce2 3.180843 1_555
Ag1 Ce4 3.180843 1_555
Ag1 Ce3 3.180843 1_554
