# generated using pymatgen
data_V2O3F
_symmetry_space_group_name_H-M   'P 1'
_cell_length_a   5.57097000
_cell_length_b   5.59270342
_cell_length_c   9.80028191
_cell_angle_alpha   101.54818065
_cell_angle_beta   97.25942684
_cell_angle_gamma   114.45157196
_symmetry_Int_Tables_number   1
_chemical_formula_structural   V2O3F
_chemical_formula_sum   'V8 O12 F4'
_cell_volume   264.73291913
_cell_formula_units_Z   4
loop_
 _symmetry_equiv_pos_site_id
 _symmetry_equiv_pos_as_xyz
  1  'x, y, z'
loop_
 _atom_site_type_symbol
 _atom_site_label
 _atom_site_symmetry_multiplicity
 _atom_site_fract_x
 _atom_site_fract_y
 _atom_site_fract_z
 _atom_site_occupancy
  V  V0  1  0.23906300  0.78662700  0.97639500  1
  V  V1  1  0.00000000  0.50000000  0.50000000  1
  V  V2  1  0.37767400  0.39297700  0.75009400  1
  V  V3  1  0.62232600  0.60702300  0.24990600  1
  V  V4  1  0.13464800  0.12444100  0.25217000  1
  V  V5  1  0.76093700  0.21337300  0.02360500  1
  V  V6  1  0.50000000  0.00000000  0.50000000  1
  V  V7  1  0.86535200  0.87555900  0.74783000  1
  O  O0  1  0.10273000  0.80102400  0.59681400  1
  O  O1  1  0.14304200  0.45593400  0.90344200  1
  O  O2  1  0.89727000  0.19897600  0.40318600  1
  O  O3  1  0.37955800  0.68655500  0.40413300  1
  O  O4  1  0.57415600  0.78076100  0.64707900  1
  O  O5  1  0.42584400  0.21923900  0.35292100  1
  O  O6  1  0.17273700  0.98809100  0.84452100  1
  O  O7  1  0.35657200  0.04529900  0.09610800  1
  O  O8  1  0.85695800  0.54406600  0.09655800  1
  O  O9  1  0.62044200  0.31344500  0.59586700  1
  O  O10  1  0.64342800  0.95470100  0.90389200  1
  O  O11  1  0.82726300  0.01190900  0.15547900  1
  F  F0  1  0.92539700  0.71786500  0.35240000  1
  F  F1  1  0.32593300  0.52487100  0.14679600  1
  F  F2  1  0.07460300  0.28213500  0.64760000  1
  F  F3  1  0.67406700  0.47512900  0.85320400  1
loop_
_geom_bond_atom_site_label_1
_geom_bond_atom_site_label_2
_geom_bond_distance
_geom_bond_site_symmetry_2
O0 V1 1.577229 1_555
O0 V6 2.439530 1_565
O1 V0 1.665157 1_555
O2 V1 1.577229 1_655
O2 V6 2.439530 1_555
O3 V6 1.616620 1_565
O3 V1 2.347465 1_555
O4 V7 1.600400 1_555
O4 V6 2.174452 1_565
O5 V4 1.600400 1_555
O5 V6 2.174452 1_555
O6 V7 1.638715 1_455
O6 V0 1.970622 1_555
O6 V2 2.500642 1_565
O7 V0 1.496728 1_544
O8 V5 1.665157 1_555
O9 V6 1.616620 1_555
O9 V1 2.347465 1_655
O10 V5 1.496728 1_566
O11 V4 1.638715 1_655
O11 V5 1.970622 1_555
O11 V3 2.500642 1_545
F0 V3 1.643032 1_555
F0 V1 2.173192 1_655
F1 V3 1.650168 1_555
F2 V2 1.643032 1_555
F2 V1 2.173192 1_555
F3 V2 1.650168 1_555
