# generated using pymatgen
data_La3Cu3Bi4
_symmetry_space_group_name_H-M   'P 1'
_cell_length_a   8.73190160
_cell_length_b   8.73190160
_cell_length_c   8.73190160
_cell_angle_alpha   109.47122063
_cell_angle_beta   109.47122063
_cell_angle_gamma   109.47122063
_symmetry_Int_Tables_number   1
_chemical_formula_structural   La3Cu3Bi4
_chemical_formula_sum   'La6 Cu6 Bi8'
_cell_volume   512.51267259
_cell_formula_units_Z   2
loop_
 _symmetry_equiv_pos_site_id
 _symmetry_equiv_pos_as_xyz
  1  'x, y, z'
loop_
 _atom_site_type_symbol
 _atom_site_label
 _atom_site_symmetry_multiplicity
 _atom_site_fract_x
 _atom_site_fract_y
 _atom_site_fract_z
 _atom_site_occupancy
  La  La0  1  0.87500000  0.25000000  0.12500000  1
  La  La1  1  0.62500000  0.75000000  0.37500000  1
  La  La2  1  0.25000000  0.12500000  0.87500000  1
  La  La3  1  0.75000000  0.37500000  0.62500000  1
  La  La4  1  0.12500000  0.87500000  0.25000000  1
  La  La5  1  0.37500000  0.62500000  0.75000000  1
  Cu  Cu0  1  0.37500000  0.25000000  0.62500000  1
  Cu  Cu1  1  0.12500000  0.75000000  0.87500000  1
  Cu  Cu2  1  0.25000000  0.62500000  0.37500000  1
  Cu  Cu3  1  0.75000000  0.87500000  0.12500000  1
  Cu  Cu4  1  0.62500000  0.37500000  0.25000000  1
  Cu  Cu5  1  0.87500000  0.12500000  0.75000000  1
  Bi  Bi0  1  0.66031413  0.50000000  -0.00000000  1
  Bi  Bi1  1  0.50000000  -0.00000000  0.66031413  1
  Bi  Bi2  1  -0.00000000  0.66031413  0.50000000  1
  Bi  Bi3  1  0.83968587  0.83968587  0.83968587  1
  Bi  Bi4  1  0.50000000  0.00000000  0.16031413  1
  Bi  Bi5  1  0.16031413  0.50000000  -0.00000000  1
  Bi  Bi6  1  -0.00000000  0.16031413  0.50000000  1
  Bi  Bi7  1  0.33968587  0.33968587  0.33968587  1
loop_
_geom_bond_atom_site_label_1
_geom_bond_atom_site_label_2
_geom_bond_distance
_geom_bond_site_symmetry_2
Cu0 La2 3.087193 1_555
Cu0 La5 3.087193 1_555
Cu0 La3 3.087193 1_555
Cu0 La4 3.087193 1_545
Cu1 La5 3.087193 1_555
Cu1 La3 3.087193 1_455
Cu1 La2 3.087193 1_565
Cu1 La4 3.087193 1_556
Cu2 La5 3.087193 1_555
Cu2 La0 3.087193 1_455
Cu2 La4 3.087193 1_555
Cu2 La1 3.087193 1_555
Cu3 La4 3.087193 1_655
Cu3 La5 3.087193 1_554
Cu3 La1 3.087193 1_555
Cu3 La0 3.087193 1_565
Cu4 La3 3.087193 1_555
Cu4 La0 3.087193 1_555
Cu4 La2 3.087193 1_554
Cu4 La1 3.087193 1_555
Cu5 La0 3.087193 1_556
Cu5 La3 3.087193 1_555
Cu5 La2 3.087193 1_655
Cu5 La1 3.087193 1_545
Bi0 Cu0 2.804399 1_554
Bi0 Cu4 2.804399 1_555
Bi0 Cu3 2.804399 1_555
Bi0 La1 3.455300 1_555
Bi0 La5 3.455300 1_554
Bi0 La2 3.455300 1_554
Bi0 La4 3.524692 1_655
Bi0 La3 3.524692 1_554
Bi0 La0 3.524692 1_555
Bi1 Cu5 2.804399 1_555
Bi1 Cu2 2.804399 1_545
Bi1 Cu0 2.804399 1_555
Bi1 La1 3.455300 1_545
Bi1 La3 3.455300 1_555
Bi1 La4 3.455300 1_545
Bi1 La2 3.524692 1_555
Bi1 La5 3.524692 1_545
Bi1 La0 3.524692 1_556
Bi2 Cu4 2.804399 1_455
Bi2 Cu2 2.804399 1_555
Bi2 Cu1 2.804399 1_555
Bi2 La5 3.455300 1_555
Bi2 La3 3.455300 1_455
Bi2 La0 3.455300 1_455
Bi2 La4 3.524692 1_555
Bi2 La1 3.524692 1_455
Bi2 La2 3.524692 1_565
Bi3 Cu3 2.804399 1_556
Bi3 Cu5 2.804399 1_565
Bi3 Cu1 2.804399 1_655
Bi3 La0 3.455300 1_566
Bi3 La4 3.455300 1_656
Bi3 La2 3.455300 1_665
Bi3 La1 3.524692 1_555
Bi3 La5 3.524692 1_555
Bi3 La3 3.524692 1_555
Bi4 Cu3 2.804399 1_545
Bi4 Cu4 2.804399 1_555
Bi4 Cu1 2.804399 1_544
Bi4 La5 3.455300 1_544
Bi4 La0 3.455300 1_555
Bi4 La2 3.455300 1_554
Bi4 La1 3.524692 1_545
Bi4 La3 3.524692 1_555
Bi4 La4 3.524692 1_545
Bi5 Cu2 2.804399 1_555
Bi5 Cu1 2.804399 1_554
Bi5 Cu5 2.804399 1_454
Bi5 La0 3.455300 1_455
Bi5 La3 3.455300 1_454
Bi5 La4 3.455300 1_555
Bi5 La1 3.524692 1_555
Bi5 La5 3.524692 1_554
Bi5 La2 3.524692 1_554
Bi6 Cu3 2.804399 1_445
Bi6 Cu5 2.804399 1_455
Bi6 Cu0 2.804399 1_555
Bi6 La2 3.455300 1_555
Bi6 La1 3.455300 1_445
Bi6 La4 3.455300 1_545
Bi6 La5 3.524692 1_555
Bi6 La3 3.524692 1_455
Bi6 La0 3.524692 1_455
Bi7 Cu2 2.804399 1_555
Bi7 Cu4 2.804399 1_555
Bi7 Cu0 2.804399 1_555
Bi7 La1 3.455300 1_555
Bi7 La5 3.455300 1_555
Bi7 La3 3.455300 1_555
Bi7 La0 3.524692 1_455
Bi7 La2 3.524692 1_554
Bi7 La4 3.524692 1_545
