# generated using pymatgen
data_Pr3(GeRu)2
_symmetry_space_group_name_H-M   'P 1'
_cell_length_a   5.76815986
_cell_length_b   7.98212552
_cell_length_c   13.73543271
_cell_angle_alpha   89.99786189
_cell_angle_beta   90.00203840
_cell_angle_gamma   89.99748667
_symmetry_Int_Tables_number   1
_chemical_formula_structural   Pr3(GeRu)2
_chemical_formula_sum   'Pr12 Ge8 Ru8'
_cell_volume   632.40920985
_cell_formula_units_Z   4
loop_
 _symmetry_equiv_pos_site_id
 _symmetry_equiv_pos_as_xyz
  1  'x, y, z'
loop_
 _atom_site_type_symbol
 _atom_site_label
 _atom_site_symmetry_multiplicity
 _atom_site_fract_x
 _atom_site_fract_y
 _atom_site_fract_z
 _atom_site_occupancy
  Pr  Pr0  1  0.15059034  0.90326430  0.59843588  1
  Pr  Pr1  1  0.84941758  0.09676909  0.09840122  1
  Pr  Pr2  1  0.15058972  0.59670235  0.40156914  1
  Pr  Pr3  1  0.84938510  0.40327793  0.90163070  1
  Pr  Pr4  1  0.84942223  0.09674938  0.40155856  1
  Pr  Pr5  1  0.15058101  0.90324252  0.90160683  1
  Pr  Pr6  1  0.84937526  0.40328794  0.59841049  1
  Pr  Pr7  1  0.15058982  0.59670790  0.09838846  1
  Pr  Pr8  1  0.37188633  0.26258174  0.75005398  1
  Pr  Pr9  1  0.62811797  0.73739957  0.24995441  1
  Pr  Pr10  1  0.37193957  0.23749298  0.24995268  1
  Pr  Pr11  1  0.62806471  0.76252523  0.75005334  1
  Ge  Ge0  1  0.86056501  0.11111734  0.74999034  1
  Ge  Ge1  1  0.13942712  0.88888675  0.25001150  1
  Ge  Ge2  1  0.86042701  0.38892054  0.25000800  1
  Ge  Ge3  1  0.13955727  0.61108054  0.75000069  1
  Ge  Ge4  1  0.38967030  0.25018315  0.50001122  1
  Ge  Ge5  1  0.61037432  0.74983495  0.00001853  1
  Ge  Ge6  1  0.61034159  0.74981417  0.49996889  1
  Ge  Ge7  1  0.38964317  0.25017382  -0.00001017  1
  Ru  Ru0  1  0.64700520  0.02929454  0.58957265  1
  Ru  Ru1  1  0.35298185  0.97069825  0.08952807  1
  Ru  Ru2  1  0.64696557  0.47075618  0.41043182  1
  Ru  Ru3  1  0.35305307  0.52925214  0.91052802  1
  Ru  Ru4  1  0.35298645  0.97071262  0.41040338  1
  Ru  Ru5  1  0.64701717  0.02931330  0.91048347  1
  Ru  Ru6  1  0.35305593  0.52922714  0.58952070  1
  Ru  Ru7  1  0.64696933  0.47073361  0.08951719  1
loop_
_geom_bond_atom_site_label_1
_geom_bond_atom_site_label_2
_geom_bond_distance
_geom_bond_site_symmetry_2
Pr0 Ru4 2.885021 1_555
Pr0 Ru0 3.037460 1_565
Pr0 Ru0 3.076390 1_465
Pr0 Ru6 3.208190 1_555
Pr1 Ru5 2.883593 1_554
Pr1 Ru1 3.037681 1_545
Pr1 Ru1 3.076398 1_645
Pr1 Ru7 3.207586 1_555
Pr2 Ru6 2.884136 1_555
Pr2 Ru2 3.036934 1_555
Pr2 Ru2 3.076474 1_455
Pr2 Ru4 3.207896 1_555
Pr3 Ru7 2.883299 1_556
Pr3 Ru3 3.036800 1_555
Pr3 Ru3 3.076799 1_655
Pr3 Ru5 3.207501 1_555
Pr4 Ru0 2.884853 1_555
Pr4 Ru4 3.037581 1_545
Pr4 Ru4 3.076283 1_645
Pr4 Ru2 3.207924 1_555
Pr5 Ru1 2.883637 1_556
Pr5 Ru5 3.037685 1_565
Pr5 Ru5 3.076398 1_465
Pr5 Ru3 3.207848 1_555
Pr6 Ru2 2.884327 1_555
Pr6 Ru6 3.036623 1_555
Pr6 Ru6 3.076778 1_655
Pr6 Ru0 3.207717 1_555
Pr7 Ru3 2.883090 1_554
Pr7 Ru7 3.037044 1_555
Pr7 Ru7 3.076527 1_455
Pr7 Ru1 3.207746 1_555
Pr8 Ru3 3.066184 1_555
Pr8 Ru6 3.066510 1_555
Pr8 Ru5 3.292480 1_555
Pr8 Ru0 3.293177 1_555
Pr9 Ru7 3.065799 1_555
Pr9 Ru2 3.065951 1_555
Pr9 Ru1 3.292603 1_555
Pr9 Ru4 3.293031 1_555
Pr10 Ru1 3.066411 1_545
Pr10 Ru4 3.066480 1_545
Pr10 Ru7 3.292283 1_555
Pr10 Ru2 3.292793 1_555
Pr11 Ru5 3.066428 1_565
Pr11 Ru0 3.066712 1_565
Pr11 Ru3 3.292740 1_555
Pr11 Ru6 3.293395 1_555
Ge0 Ru0 2.607489 1_555
Ge0 Ru5 2.608327 1_555
Ge0 Pr8 3.067068 1_555
Ge0 Pr11 3.088886 1_545
Ge0 Pr6 3.126892 1_555
Ge0 Pr3 3.127504 1_555
Ge0 Pr0 3.144022 1_645
Ge0 Pr5 3.144489 1_645
Ge0 Pr8 3.187613 1_655
Ge1 Ru4 2.607194 1_555
Ge1 Ru1 2.608248 1_555
Ge1 Pr9 3.067204 1_555
Ge1 Pr10 3.089017 1_565
Ge1 Pr2 3.126768 1_555
Ge1 Pr7 3.127452 1_555
Ge1 Pr4 3.143932 1_465
Ge1 Pr1 3.144444 1_465
Ge1 Pr9 3.187617 1_455
Ge2 Ru2 2.607365 1_555
Ge2 Ru7 2.607972 1_555
Ge2 Pr10 3.066035 1_555
Ge2 Pr9 3.087487 1_555
Ge2 Pr4 3.126613 1_555
Ge2 Pr1 3.127123 1_555
Ge2 Pr2 3.144203 1_655
Ge2 Pr7 3.144755 1_655
Ge2 Pr10 3.188424 1_655
Ge3 Ru6 2.608153 1_555
Ge3 Ru3 2.608530 1_555
Ge3 Pr11 3.066195 1_555
Ge3 Pr8 3.087680 1_555
Ge3 Pr0 3.126822 1_555
Ge3 Pr5 3.127182 1_555
Ge3 Pr6 3.144572 1_455
Ge3 Pr3 3.144943 1_455
Ge3 Pr11 3.188369 1_455
Ge4 Ru6 2.552937 1_555
Ge4 Ru4 2.556600 1_545
Ge4 Ru2 2.610859 1_555
Ge4 Ru0 2.612434 1_555
Ge4 Pr6 3.217398 1_555
Ge4 Pr4 3.218918 1_555
Ge4 Pr2 3.373407 1_555
Ge4 Pr0 3.376064 1_545
Ge4 Pr8 3.437409 1_555
Ge4 Pr10 3.437678 1_555
Ge4 Pr6 3.610118 1_455
Ge4 Pr4 3.611058 1_455
Ge5 Ru7 2.553168 1_555
Ge5 Ru5 2.556081 1_564
Ge5 Ru3 2.610433 1_554
Ge5 Ru1 2.612262 1_555
Ge5 Pr7 3.217715 1_555
Ge5 Pr5 3.218681 1_554
Ge5 Pr3 3.373313 1_554
Ge5 Pr1 3.375891 1_565
Ge5 Pr9 3.435929 1_555
Ge5 Pr11 3.436389 1_554
Ge5 Pr7 3.609514 1_655
Ge5 Pr5 3.610619 1_654
Ge6 Ru2 2.553222 1_555
Ge6 Ru0 2.556632 1_565
Ge6 Ru6 2.610724 1_555
Ge6 Ru4 2.612580 1_555
Ge6 Pr2 3.217645 1_555
Ge6 Pr0 3.219047 1_555
Ge6 Pr6 3.373340 1_555
Ge6 Pr4 3.376094 1_565
Ge6 Pr9 3.437024 1_555
Ge6 Pr11 3.438037 1_555
Ge6 Pr2 3.609906 1_655
Ge6 Pr0 3.611179 1_655
Ge7 Ru3 2.552762 1_554
Ge7 Ru1 2.556092 1_545
Ge7 Ru7 2.610564 1_555
Ge7 Ru5 2.612166 1_554
Ge7 Pr3 3.217381 1_554
Ge7 Pr1 3.218581 1_555
Ge7 Pr7 3.373323 1_555
Ge7 Pr5 3.375918 1_544
Ge7 Pr8 3.435925 1_554
Ge7 Pr10 3.436357 1_555
Ge7 Pr3 3.609608 1_454
Ge7 Pr1 3.610704 1_455
