# generated using pymatgen
data_Fe3NiF6
_symmetry_space_group_name_H-M   'P 1'
_cell_length_a   6.25813709
_cell_length_b   5.58248953
_cell_length_c   7.28542445
_cell_angle_alpha   59.47212136
_cell_angle_beta   133.58398082
_cell_angle_gamma   121.73699249
_symmetry_Int_Tables_number   1
_chemical_formula_structural   Fe3NiF6
_chemical_formula_sum   'Fe3 Ni1 F6'
_cell_volume   152.37533062
_cell_formula_units_Z   1
loop_
 _symmetry_equiv_pos_site_id
 _symmetry_equiv_pos_as_xyz
  1  'x, y, z'
loop_
 _atom_site_type_symbol
 _atom_site_label
 _atom_site_symmetry_multiplicity
 _atom_site_fract_x
 _atom_site_fract_y
 _atom_site_fract_z
 _atom_site_occupancy
  Fe  Fe0  1  0.00000000  0.00000000  0.50000000  1
  Fe  Fe1  1  0.50000000  0.50000000  0.00000000  1
  Fe  Fe2  1  0.00000000  0.50000000  0.00000000  1
  Ni  Ni0  1  0.00000000  0.00000000  0.00000000  1
  F  F0  1  0.02900300  0.45221200  0.75282600  1
  F  F1  1  0.97099700  0.54778800  0.24717400  1
  F  F2  1  0.77408400  0.78600700  0.65642900  1
  F  F3  1  0.22591600  0.21399300  0.34357100  1
  F  F4  1  0.57608300  0.92411100  0.90290400  1
  F  F5  1  0.42391700  0.07588900  0.09709600  1
loop_
_geom_bond_atom_site_label_1
_geom_bond_atom_site_label_2
_geom_bond_distance
_geom_bond_site_symmetry_2
F0 Fe2 2.082435 1_556
F0 Fe1 2.084267 1_556
F0 Ni0 2.235831 1_556
F1 Fe2 2.082435 1_655
F1 Fe1 2.084267 1_555
F1 Ni0 2.235831 1_665
F2 Fe0 1.945883 1_665
F2 Fe2 2.061227 1_656
F2 Ni0 2.464286 1_666
F3 Fe0 1.945883 1_555
F3 Fe2 2.061227 1_555
F3 Ni0 2.464286 1_555
F4 Fe1 1.977269 1_556
F4 Ni0 2.062131 1_666
F5 Fe1 1.977269 1_555
F5 Ni0 2.062131 1_555
