# generated using pymatgen
data_Pr2MnRhO6
_symmetry_space_group_name_H-M   'P 1'
_cell_length_a   5.89687900
_cell_length_b   5.58904100
_cell_length_c   9.37975285
_cell_angle_alpha   55.04489558
_cell_angle_beta   90.00000000
_cell_angle_gamma   90.00000000
_symmetry_Int_Tables_number   1
_chemical_formula_structural   Pr2MnRhO6
_chemical_formula_sum   'Pr4 Mn2 Rh2 O12'
_cell_volume   253.36901913
_cell_formula_units_Z   2
loop_
 _symmetry_equiv_pos_site_id
 _symmetry_equiv_pos_as_xyz
  1  'x, y, z'
loop_
 _atom_site_type_symbol
 _atom_site_label
 _atom_site_symmetry_multiplicity
 _atom_site_fract_x
 _atom_site_fract_y
 _atom_site_fract_z
 _atom_site_occupancy
  Pr  Pr0  1  0.56685400  0.72902200  0.75109400  1
  Pr  Pr1  1  0.06685400  0.27097800  0.74890600  1
  Pr  Pr2  1  0.43314600  0.27097800  0.24890600  1
  Pr  Pr3  1  0.93314600  0.72902200  0.25109400  1
  Mn  Mn0  1  0.50000000  0.00000000  0.00000000  1
  Mn  Mn1  1  0.00000000  0.00000000  0.50000000  1
  Rh  Rh0  1  0.50000000  0.50000000  0.50000000  1
  Rh  Rh1  1  0.00000000  0.50000000  0.00000000  1
  O  O0  1  0.79703600  0.24769000  0.94965600  1
  O  O1  1  0.29703600  0.75231000  0.55034400  1
  O  O2  1  0.20120800  0.35358800  0.45163500  1
  O  O3  1  0.70120800  0.64641200  0.04836500  1
  O  O4  1  0.20296400  0.75231000  0.05034400  1
  O  O5  1  0.70296400  0.24769000  0.44965600  1
  O  O6  1  0.79879200  0.64641200  0.54836500  1
  O  O7  1  0.29879200  0.35358800  0.95163500  1
  O  O8  1  0.96735400  0.85671200  0.74515100  1
  O  O9  1  0.46735400  0.14328800  0.75484900  1
  O  O10  1  0.03264600  0.14328800  0.25484900  1
  O  O11  1  0.53264600  0.85671200  0.24515100  1
loop_
_geom_bond_atom_site_label_1
_geom_bond_atom_site_label_2
_geom_bond_distance
_geom_bond_site_symmetry_2
Mn0 O11 1.963616 1_545
Mn0 O9 1.963616 1_554
Mn0 O0 2.111491 1_554
Mn0 O4 2.111491 1_545
Mn0 O7 2.119370 1_554
Mn0 O3 2.119370 1_545
Mn1 O8 1.963616 1_445
Mn1 O10 1.963616 1_555
Mn1 O1 2.111491 1_545
Mn1 O5 2.111491 1_455
Mn1 O2 2.119370 1_555
Mn1 O6 2.119370 1_445
O0 Rh1 2.099301 1_656
O0 Pr1 2.411076 1_655
O0 Pr0 2.609032 1_555
O0 Pr3 2.765863 1_546
O1 Rh0 2.099301 1_555
O1 Pr0 2.411076 1_555
O1 Pr1 2.609032 1_555
O1 Pr2 2.765863 1_565
O2 Rh0 2.098863 1_555
O2 Pr3 2.432522 1_455
O2 Pr2 2.589542 1_555
O2 Pr1 2.672162 1_555
O3 Rh1 2.098863 1_655
O3 Pr2 2.432522 1_555
O3 Pr3 2.589542 1_555
O3 Pr0 2.672162 1_554
O4 Rh1 2.099301 1_555
O4 Pr3 2.411076 1_455
O4 Pr2 2.609032 1_555
O4 Pr1 2.765863 1_564
O5 Rh0 2.099301 1_555
O5 Pr2 2.411076 1_555
O5 Pr3 2.609032 1_555
O5 Pr0 2.765863 1_545
O6 Rh0 2.098863 1_555
O6 Pr1 2.432522 1_655
O6 Pr0 2.589542 1_555
O6 Pr3 2.672162 1_555
O7 Rh1 2.098863 1_556
O7 Pr0 2.432522 1_555
O7 Pr1 2.589542 1_555
O7 Pr2 2.672162 1_556
O8 Rh1 2.065193 1_656
O8 Pr1 2.408276 1_665
O8 Pr0 2.458550 1_555
O9 Rh0 2.065193 1_555
O9 Pr0 2.408276 1_545
O9 Pr1 2.458550 1_555
O10 Rh1 2.065193 1_555
O10 Pr3 2.408276 1_445
O10 Pr2 2.458550 1_555
O11 Rh0 2.065193 1_555
O11 Pr2 2.408276 1_565
O11 Pr3 2.458550 1_555
