# generated using pymatgen
data_Li2SiNiO4
_symmetry_space_group_name_H-M   'P 1'
_cell_length_a   5.21868350
_cell_length_b   5.21502624
_cell_length_c   6.44368751
_cell_angle_alpha   90.12275466
_cell_angle_beta   90.23342965
_cell_angle_gamma   91.80114801
_symmetry_Int_Tables_number   1
_chemical_formula_structural   Li2SiNiO4
_chemical_formula_sum   'Li4 Si2 Ni2 O8'
_cell_volume   175.28008626
_cell_formula_units_Z   2
loop_
 _symmetry_equiv_pos_site_id
 _symmetry_equiv_pos_as_xyz
  1  'x, y, z'
loop_
 _atom_site_type_symbol
 _atom_site_label
 _atom_site_symmetry_multiplicity
 _atom_site_fract_x
 _atom_site_fract_y
 _atom_site_fract_z
 _atom_site_occupancy
  Li  Li0  1  0.18787700  0.18671800  0.75204500  1
  Li  Li1  1  0.31343000  0.68664100  0.50033400  1
  Li  Li2  1  0.68570400  0.31392200  0.99963600  1
  Li  Li3  1  0.81390100  0.81173500  0.24787200  1
  Si  Si0  1  0.17600800  0.17741800  0.25144100  1
  Si  Si1  1  0.82323200  0.82332200  0.74846100  1
  Ni  Ni0  1  0.31677800  0.68413800  0.00067000  1
  Ni  Ni1  1  0.68311700  0.31676600  0.49987400  1
  O  O0  1  0.13797000  0.78924300  0.74761800  1
  O  O1  1  0.20908400  0.86236600  0.25292000  1
  O  O2  1  0.30451000  0.30360300  0.03965900  1
  O  O3  1  0.30211400  0.30348400  0.46529500  1
  O  O4  1  0.69640500  0.69497200  0.95998600  1
  O  O5  1  0.69674400  0.69804700  0.53440400  1
  O  O6  1  0.78854600  0.13788500  0.75264000  1
  O  O7  1  0.86178000  0.21253800  0.24714900  1
loop_
_geom_bond_atom_site_label_1
_geom_bond_atom_site_label_2
_geom_bond_distance
_geom_bond_site_symmetry_2
Li0 O3 2.032558 1_555
Li0 O2 2.034549 1_556
Li0 O0 2.081123 1_545
Li0 O6 2.091544 1_455
Li1 O0 1.924260 1_555
Li1 O1 1.925762 1_555
Li1 O3 2.009404 1_555
Li1 O5 2.010522 1_555
Li2 O7 1.920886 1_556
Li2 O6 1.922392 1_555
Li2 O4 2.003152 1_555
Li2 O2 2.006079 1_556
Li3 O5 2.031093 1_555
Li3 O4 2.037251 1_554
Li3 O1 2.071035 1_655
Li3 O7 2.097285 1_565
Ni0 O0 1.963058 1_554
Ni0 O1 1.963560 1_555
Ni0 O4 1.998536 1_554
Ni0 O2 1.999934 1_555
Ni1 O7 1.963970 1_555
Ni1 O6 1.963988 1_555
Ni1 O3 1.998896 1_555
Ni1 O5 1.999337 1_555
O0 Si1 1.657679 1_455
O1 Si0 1.657477 1_565
O2 Si0 1.651851 1_555
O3 Si0 1.650990 1_555
O4 Si1 1.651448 1_555
O5 Si1 1.651265 1_555
O6 Si1 1.656230 1_545
O7 Si0 1.655890 1_655
