# generated using pymatgen
data_Sr3Ca5Fe5(CoO8)3
_symmetry_space_group_name_H-M   'P 1'
_cell_length_a   7.68621800
_cell_length_b   7.68611020
_cell_length_c   7.70192165
_cell_angle_alpha   90.00204037
_cell_angle_beta   90.02344077
_cell_angle_gamma   90.01320184
_symmetry_Int_Tables_number   1
_chemical_formula_structural   Sr3Ca5Fe5(CoO8)3
_chemical_formula_sum   'Sr3 Ca5 Fe5 Co3 O24'
_cell_volume   455.00728829
_cell_formula_units_Z   1
loop_
 _symmetry_equiv_pos_site_id
 _symmetry_equiv_pos_as_xyz
  1  'x, y, z'
loop_
 _atom_site_type_symbol
 _atom_site_label
 _atom_site_symmetry_multiplicity
 _atom_site_fract_x
 _atom_site_fract_y
 _atom_site_fract_z
 _atom_site_occupancy
  Sr  Sr0  1  0.74716000  0.25128600  0.74860600  1
  Sr  Sr1  1  0.25291400  0.25124100  0.74857000  1
  Sr  Sr2  1  0.25306700  0.74861400  0.74882300  1
  Ca  Ca0  1  0.74687000  0.25189100  0.25137400  1
  Ca  Ca1  1  0.25302100  0.25178100  0.25120900  1
  Ca  Ca2  1  0.74707500  0.74819400  0.74859200  1
  Ca  Ca3  1  0.74712200  0.74853200  0.25170700  1
  Ca  Ca4  1  0.25294400  0.74856800  0.25161500  1
  Fe  Fe0  1  0.99920200  0.99933700  0.00218400  1
  Fe  Fe1  1  0.50055600  0.99910400  0.00256200  1
  Fe  Fe2  1  0.99910700  0.99940900  0.49834200  1
  Fe  Fe3  1  0.99927400  0.50060200  0.00191900  1
  Fe  Fe4  1  0.99893800  0.50061000  0.49825200  1
  Co  Co0  1  0.50070300  0.99916700  0.49776800  1
  Co  Co1  1  0.50085300  0.50083600  0.00283900  1
  Co  Co2  1  0.50065500  0.50093100  0.49743900  1
  O  O0  1  0.99913700  0.25001500  0.00591900  1
  O  O1  1  0.50087800  0.25755900  0.00536400  1
  O  O2  1  0.99932500  0.25259200  0.49353000  1
  O  O3  1  0.50094000  0.24586800  0.49186300  1
  O  O4  1  0.99741600  0.74995700  0.00461700  1
  O  O5  1  0.50230200  0.74262800  0.00484100  1
  O  O6  1  0.99712500  0.74756500  0.49578200  1
  O  O7  1  0.50296100  0.75411900  0.49517900  1
  O  O8  1  0.99710300  0.99689800  0.75001400  1
  O  O9  1  0.50308000  0.99606600  0.74570400  1
  O  O10  1  0.99903200  0.99942800  0.25025000  1
  O  O11  1  0.50094000  0.00002100  0.25414100  1
  O  O12  1  0.99693600  0.50261000  0.74717200  1
  O  O13  1  0.50358600  0.50352000  0.75143200  1
  O  O14  1  0.99920000  0.50123900  0.25257700  1
  O  O15  1  0.50097600  0.50115300  0.24865100  1
  O  O16  1  0.74835200  0.99741100  0.00443300  1
  O  O17  1  0.25153500  0.99922200  0.00630400  1
  O  O18  1  0.74731600  0.99687600  0.49503400  1
  O  O19  1  0.25255300  0.99851300  0.49321900  1
  O  O20  1  0.74768500  0.50258900  0.00483500  1
  O  O21  1  0.25213000  0.50065500  0.00751100  1
  O  O22  1  0.73918000  0.50255400  0.49553900  1
  O  O23  1  0.26084900  0.50083600  0.49428400  1
loop_
_geom_bond_atom_site_label_1
_geom_bond_atom_site_label_2
_geom_bond_distance
_geom_bond_site_symmetry_2
Ca0 O3 2.647423 1_555
Ca0 O1 2.676568 1_555
Ca0 O2 2.690870 1_555
Ca0 O15 2.691591 1_555
Ca0 O22 2.692896 1_555
Ca0 O20 2.705319 1_555
Ca0 O11 2.705484 1_555
Ca0 O0 2.708644 1_555
Ca0 O18 2.713665 1_545
Ca0 O14 2.726336 1_555
Ca0 O16 2.728182 1_545
Ca0 O10 2.742938 1_545
Ca1 O3 2.658164 1_555
Ca1 O23 2.678162 1_555
Ca1 O21 2.679981 1_555
Ca1 O1 2.686912 1_555
Ca1 O19 2.695178 1_545
Ca1 O2 2.699739 1_455
Ca1 O15 2.702719 1_555
Ca1 O17 2.706655 1_545
Ca1 O0 2.715555 1_455
Ca1 O11 2.716205 1_555
Ca1 O14 2.735732 1_455
Ca1 O10 2.751643 1_445
Ca2 O13 2.652935 1_555
Ca2 O9 2.673744 1_555
Ca2 O12 2.693149 1_555
Ca2 O7 2.707225 1_555
Ca2 O8 2.710294 1_555
Ca2 O22 2.714121 1_555
Ca2 O5 2.727555 1_556
Ca2 O20 2.731085 1_556
Ca2 O18 2.732666 1_555
Ca2 O6 2.736462 1_555
Ca2 O16 2.748039 1_556
Ca2 O4 2.754604 1_556
Ca3 O7 2.653874 1_555
Ca3 O22 2.665564 1_555
Ca3 O5 2.674908 1_555
Ca3 O18 2.674968 1_555
Ca3 O20 2.681130 1_555
Ca3 O15 2.682073 1_555
Ca3 O6 2.687637 1_555
Ca3 O16 2.699379 1_555
Ca3 O11 2.705346 1_565
Ca3 O4 2.706628 1_555
Ca3 O14 2.714495 1_555
Ca3 O10 2.732437 1_555
Ca4 O23 2.668841 1_555
Ca4 O19 2.674516 1_555
Ca4 O21 2.676810 1_555
Ca4 O7 2.685283 1_555
Ca4 O15 2.693139 1_555
Ca4 O17 2.698460 1_555
Ca4 O5 2.700174 1_555
Ca4 O11 2.714290 1_565
Ca4 O6 2.721365 1_455
Ca4 O14 2.723223 1_455
Ca4 O4 2.733772 1_455
Ca4 O10 2.743789 1_455
Fe0 O10 1.910586 1_555
Fe0 O4 1.916900 1_555
Fe0 O0 1.926953 1_565
Fe0 O16 1.928226 1_555
Fe0 O17 1.939733 1_655
Fe0 O8 1.942344 1_554
Fe1 O16 1.904710 1_555
Fe1 O17 1.914259 1_555
Fe1 O11 1.937655 1_565
Fe1 O5 1.971430 1_555
Fe1 O9 1.978540 1_554
Fe1 O1 1.986631 1_565
Fe2 O10 1.910785 1_555
Fe2 O18 1.935571 1_555
Fe2 O6 1.935857 1_555
Fe2 O8 1.938522 1_555
Fe2 O2 1.946347 1_565
Fe2 O19 1.948471 1_655
Fe3 O4 1.916738 1_555
Fe3 O0 1.926287 1_555
Fe3 O14 1.930555 1_555
Fe3 O20 1.933971 1_555
Fe3 O21 1.943966 1_655
Fe3 O12 1.962178 1_554
Fe4 O14 1.892178 1_555
Fe4 O6 1.898274 1_555
Fe4 O2 1.906642 1_555
Fe4 O12 1.917291 1_555
Fe4 O22 1.996717 1_555
Fe4 O23 2.013350 1_655
Co0 O11 1.876409 1_565
Co0 O7 1.883655 1_555
Co0 O18 1.895733 1_555
Co0 O3 1.896719 1_565
Co0 O19 1.907648 1_555
Co0 O9 1.909813 1_555
Co1 O5 1.858534 1_555
Co1 O1 1.869956 1_555
Co1 O15 1.893226 1_555
Co1 O20 1.897305 1_555
Co1 O21 1.912093 1_555
Co1 O13 1.936550 1_554
Co2 O22 1.833459 1_555
Co2 O23 1.843351 1_555
Co2 O15 1.916149 1_555
Co2 O7 1.946186 1_555
Co2 O13 1.956455 1_555
Co2 O3 1.960913 1_555
O0 Sr0 2.770472 1_554
O0 Sr1 2.781488 1_654
O1 Sr0 2.738505 1_554
O1 Sr1 2.746529 1_554
O2 Sr0 2.760320 1_555
O2 Sr1 2.766695 1_655
O3 Sr0 2.736852 1_555
O3 Sr1 2.747396 1_555
O4 Sr2 2.783124 1_654
O5 Sr2 2.748999 1_554
O6 Sr2 2.768595 1_655
O7 Sr2 2.740513 1_555
O8 Sr2 2.741209 1_655
O8 Sr0 2.741449 1_565
O8 Sr1 2.772374 1_665
O9 Sr2 2.703531 1_555
O9 Sr0 2.714112 1_565
O9 Sr1 2.747043 1_565
O12 Sr0 2.723173 1_555
O12 Sr2 2.729340 1_655
O12 Sr1 2.757850 1_655
O13 Sr2 2.694168 1_555
O13 Sr0 2.695500 1_555
O13 Sr1 2.733289 1_555
O16 Sr0 2.773136 1_564
O17 Sr2 2.764566 1_554
O17 Sr1 2.773617 1_564
O18 Sr0 2.763619 1_565
O19 Sr2 2.750476 1_555
O19 Sr1 2.764218 1_565
O20 Sr0 2.761362 1_554
O21 Sr2 2.757207 1_554
O21 Sr1 2.766254 1_554
O22 Sr0 2.744595 1_555
O23 Sr2 2.733809 1_555
O23 Sr1 2.742268 1_555
