# generated using pymatgen
data_K(TeMo)3
_symmetry_space_group_name_H-M   'P 1'
_cell_length_a   9.82571743
_cell_length_b   9.82571782
_cell_length_c   4.60181361
_cell_angle_alpha   90.00000000
_cell_angle_beta   90.00000000
_cell_angle_gamma   120.00000520
_symmetry_Int_Tables_number   1
_chemical_formula_structural   K(TeMo)3
_chemical_formula_sum   'K2 Te6 Mo6'
_cell_volume   384.75847176
_cell_formula_units_Z   2
loop_
 _symmetry_equiv_pos_site_id
 _symmetry_equiv_pos_as_xyz
  1  'x, y, z'
loop_
 _atom_site_type_symbol
 _atom_site_label
 _atom_site_symmetry_multiplicity
 _atom_site_fract_x
 _atom_site_fract_y
 _atom_site_fract_z
 _atom_site_occupancy
  K  K0  1  0.33333300  0.66666700  0.25000000  1
  K  K1  1  0.66666700  0.33333300  0.75000000  1
  Te  Te0  1  0.35847406  0.05984067  0.25000000  1
  Te  Te1  1  0.94015933  0.29863139  0.25000000  1
  Te  Te2  1  0.70136861  0.64152594  0.25000000  1
  Te  Te3  1  0.29863139  0.35847406  0.75000000  1
  Te  Te4  1  0.05984067  0.70136861  0.75000000  1
  Te  Te5  1  0.64152594  0.94015933  0.75000000  1
  Mo  Mo0  1  0.13904456  0.16743615  0.25000000  1
  Mo  Mo1  1  0.02839158  0.86095544  0.25000000  1
  Mo  Mo2  1  0.83256385  0.97160842  0.25000000  1
  Mo  Mo3  1  0.16743615  0.02839158  0.75000000  1
  Mo  Mo4  1  0.97160842  0.13904456  0.75000000  1
  Mo  Mo5  1  0.86095544  0.83256385  0.75000000  1
loop_
_geom_bond_atom_site_label_1
_geom_bond_atom_site_label_2
_geom_bond_distance
_geom_bond_site_symmetry_2
K0 Te3 3.680761 1_555
K0 Te3 3.680761 1_554
K0 Te5 3.680764 1_555
K0 Te5 3.680764 1_554
K0 Te4 3.680769 1_555
K0 Te4 3.680769 1_554
K0 Te0 3.745813 1_565
K0 Te1 3.745826 1_455
K0 Te2 3.745842 1_555
K1 Te2 3.680761 1_556
K1 Te2 3.680761 1_555
K1 Te0 3.680764 1_555
K1 Te0 3.680764 1_556
K1 Te1 3.680769 1_556
K1 Te1 3.680769 1_555
K1 Te5 3.745813 1_545
K1 Te4 3.745826 1_655
K1 Te3 3.745842 1_555
Mo0 Mo2 2.641300 1_445
Mo0 Mo1 2.641300 1_545
Mo0 Mo4 2.760373 1_454
Mo0 Mo4 2.760373 1_455
Mo0 Mo3 2.760373 1_554
Mo0 Mo3 2.760373 1_555
Mo0 Te1 2.828379 1_455
Mo0 Te0 2.836481 1_555
Mo0 Te3 2.886701 1_554
Mo0 Te3 2.886701 1_555
Mo1 Mo2 2.641300 1_455
Mo1 Mo5 2.760373 1_455
Mo1 Mo5 2.760373 1_454
Mo1 Mo3 2.760373 1_565
Mo1 Mo3 2.760373 1_564
Mo1 Te0 2.828394 1_565
Mo1 Te2 2.836466 1_455
Mo1 Te4 2.886694 1_554
Mo1 Te4 2.886694 1_555
Mo2 Mo4 2.760373 1_565
Mo2 Mo4 2.760373 1_564
Mo2 Mo5 2.760373 1_554
Mo2 Mo5 2.760373 1_555
Mo2 Te2 2.828397 1_555
Mo2 Te1 2.836462 1_565
Mo2 Te5 2.886705 1_554
Mo2 Te5 2.886705 1_555
Mo3 Mo5 2.641300 1_445
Mo3 Mo4 2.641300 1_455
Mo3 Te3 2.828397 1_555
Mo3 Te4 2.836462 1_545
Mo3 Te0 2.886705 1_556
Mo3 Te0 2.886705 1_555
Mo4 Mo5 2.641300 1_545
Mo4 Te5 2.828394 1_545
Mo4 Te3 2.836466 1_655
Mo4 Te1 2.886694 1_556
Mo4 Te1 2.886694 1_555
Mo5 Te4 2.828379 1_655
Mo5 Te5 2.836481 1_555
Mo5 Te2 2.886701 1_556
Mo5 Te2 2.886701 1_555
