# generated using pymatgen
data_Li4MnCo2O7
_symmetry_space_group_name_H-M   'P 1'
_cell_length_a   15.10160855
_cell_length_b   15.10160855
_cell_length_c   5.90052108
_cell_angle_alpha   84.15877236
_cell_angle_beta   84.15877236
_cell_angle_gamma   10.94641031
_symmetry_Int_Tables_number   1
_chemical_formula_structural   Li4MnCo2O7
_chemical_formula_sum   'Li8 Mn2 Co4 O14'
_cell_volume   254.19028609
_cell_formula_units_Z   2
loop_
 _symmetry_equiv_pos_site_id
 _symmetry_equiv_pos_as_xyz
  1  'x, y, z'
loop_
 _atom_site_type_symbol
 _atom_site_label
 _atom_site_symmetry_multiplicity
 _atom_site_fract_x
 _atom_site_fract_y
 _atom_site_fract_z
 _atom_site_occupancy
  Li  Li0  1  0.57658300  0.57658300  0.21752600  1
  Li  Li1  1  0.71071600  0.71071600  0.64042700  1
  Li  Li2  1  0.85261200  0.85261200  0.07546800  1
  Li  Li3  1  0.14538200  0.14538200  0.92760400  1
  Li  Li4  1  0.28325500  0.28325500  0.35382100  1
  Li  Li5  1  0.42702300  0.42702300  0.78322800  1
  Li  Li6  1  0.00458100  0.00458100  0.50087800  1
  Li  Li7  1  0.14337600  0.14337600  0.42628600  1
  Mn  Mn0  1  0.00233200  0.00233200  0.99377100  1
  Mn  Mn1  1  0.42792600  0.42792600  0.29129700  1
  Co  Co0  1  0.28390800  0.28390800  0.86690200  1
  Co  Co1  1  0.58077400  0.58077400  0.69561100  1
  Co  Co2  1  0.70706700  0.70706700  0.15354400  1
  Co  Co3  1  0.85344200  0.85344200  0.57273600  1
  O  O0  1  0.50290200  0.50290200  0.21589700  1
  O  O1  1  0.63990100  0.63990100  0.68544600  1
  O  O2  1  0.78519400  0.78519400  0.09608900  1
  O  O3  1  0.06571700  0.06571700  0.94177700  1
  O  O4  1  0.21436600  0.21436600  0.36718700  1
  O  O5  1  0.35678000  0.35678000  0.80633200  1
  O  O6  1  0.92840400  0.92840400  0.51635700  1
  O  O7  1  0.64665900  0.64665900  0.17306200  1
  O  O8  1  0.78630300  0.78630300  0.62180600  1
  O  O9  1  0.93385400  0.93385400  0.05891800  1
  O  O10  1  0.21622700  0.21622700  0.91720400  1
  O  O11  1  0.35597100  0.35597100  0.33920600  1
  O  O12  1  0.49791700  0.49791700  0.77803500  1
  O  O13  1  0.07082800  0.07082800  0.48358300  1
loop_
_geom_bond_atom_site_label_1
_geom_bond_atom_site_label_2
_geom_bond_distance
_geom_bond_site_symmetry_2
Li0 O7 2.096357 1_555
Li0 O13 2.124533 1_565
Li0 O13 2.124533 1_655
Li0 O0 2.216261 1_555
Li0 O3 2.222046 1_654
Li0 O3 2.222046 1_564
Li1 O1 2.118476 1_555
Li1 O4 2.156381 1_565
Li1 O4 2.156381 1_655
Li1 O10 2.196504 1_565
Li1 O10 2.196504 1_655
Li1 O8 2.263969 1_555
Li2 O2 2.018150 1_555
Li2 O11 2.130447 1_565
Li2 O11 2.130447 1_655
Li2 O5 2.138137 1_654
Li2 O5 2.138137 1_564
Li2 O9 2.434538 1_555
Li3 O7 2.045786 1_456
Li3 O7 2.045786 1_546
Li3 O1 2.047358 1_545
Li3 O1 2.047358 1_455
Li3 O10 2.124595 1_555
Li3 O3 2.388069 1_555
Li4 O4 2.064611 1_555
Li4 O2 2.091100 1_545
Li4 O2 2.091100 1_455
Li4 O8 2.147818 1_545
Li4 O8 2.147818 1_455
Li4 O11 2.179117 1_555
Li5 O5 2.102333 1_555
Li5 O12 2.128550 1_555
Li5 O6 2.131362 1_545
Li5 O6 2.131362 1_455
Li5 O9 2.198052 1_456
Li5 O9 2.198052 1_546
Li6 O13 1.983916 1_555
Li6 O12 2.173090 1_455
Li6 O12 2.173090 1_545
Li6 O0 2.218605 1_545
Li6 O0 2.218605 1_455
Li6 O6 2.282772 1_445
Li7 O7 2.070463 1_455
Li7 O7 2.070463 1_545
Li7 O1 2.095560 1_455
Li7 O1 2.095560 1_545
Li7 O4 2.127174 1_555
Li7 O13 2.172813 1_555
Mn0 O3 1.899020 1_555
Mn0 O12 1.935800 1_545
Mn0 O12 1.935800 1_455
Mn0 O0 1.948705 1_456
Mn0 O0 1.948705 1_546
Mn0 O9 2.055409 1_446
Mn1 O6 1.960192 1_545
Mn1 O6 1.960192 1_455
Mn1 O9 1.984088 1_455
Mn1 O9 1.984088 1_545
Mn1 O11 2.152907 1_555
Mn1 O0 2.252610 1_555
Co0 O2 1.978813 1_456
Co0 O2 1.978813 1_546
Co0 O10 2.026147 1_555
Co0 O8 2.037181 1_545
Co0 O8 2.037181 1_455
Co0 O5 2.183532 1_555
Co1 O1 1.772556 1_555
Co1 O13 1.950858 1_565
Co1 O13 1.950858 1_655
Co1 O3 2.062765 1_655
Co1 O3 2.062765 1_565
Co1 O12 2.488889 1_555
Co2 O7 1.808057 1_555
Co2 O4 1.941285 1_565
Co2 O4 1.941285 1_655
Co2 O10 2.004187 1_654
Co2 O10 2.004187 1_564
Co2 O2 2.338711 1_555
Co3 O11 1.989432 1_655
Co3 O11 1.989432 1_565
Co3 O5 2.003225 1_655
Co3 O5 2.003225 1_565
Co3 O8 2.009713 1_555
Co3 O6 2.244292 1_555
