# generated using pymatgen
data_LiFe(WO4)2
_symmetry_space_group_name_H-M   'P 1'
_cell_length_a   7.45769591
_cell_length_b   7.45769591
_cell_length_c   5.01793886
_cell_angle_alpha   89.27344599
_cell_angle_beta   89.27344599
_cell_angle_gamma   101.54608438
_symmetry_Int_Tables_number   1
_chemical_formula_structural   LiFe(WO4)2
_chemical_formula_sum   'Li2 Fe2 W4 O16'
_cell_volume   273.38134455
_cell_formula_units_Z   2
loop_
 _symmetry_equiv_pos_site_id
 _symmetry_equiv_pos_as_xyz
  1  'x, y, z'
loop_
 _atom_site_type_symbol
 _atom_site_label
 _atom_site_symmetry_multiplicity
 _atom_site_fract_x
 _atom_site_fract_y
 _atom_site_fract_z
 _atom_site_occupancy
  Li  Li0  1  0.84176500  0.15823500  0.25000000  1
  Li  Li1  1  0.15823500  0.84176500  0.75000000  1
  Fe  Fe0  1  0.67082500  0.32917500  0.75000000  1
  Fe  Fe1  1  0.32917500  0.67082500  0.25000000  1
  W  W0  1  0.83943400  0.66307800  0.24410100  1
  W  W1  1  0.33692200  0.16056600  0.25589900  1
  W  W2  1  0.16056600  0.33692200  0.75589900  1
  W  W3  1  0.66307800  0.83943400  0.74410100  1
  O  O0  1  0.69677500  0.57749000  0.92269500  1
  O  O1  1  0.42251000  0.30322500  0.57730500  1
  O  O2  1  0.30322500  0.42251000  0.07730500  1
  O  O3  1  0.57749000  0.69677500  0.42269500  1
  O  O4  1  0.79947800  0.43753400  0.41348400  1
  O  O5  1  0.56246600  0.20052200  0.08651600  1
  O  O6  1  0.20052200  0.56246600  0.58651600  1
  O  O7  1  0.43753400  0.79947800  0.91348400  1
  O  O8  1  0.90350700  0.80612000  0.55612200  1
  O  O9  1  0.19388000  0.09649300  0.94387800  1
  O  O10  1  0.09649300  0.19388000  0.44387800  1
  O  O11  1  0.80612000  0.90350700  0.05612200  1
  O  O12  1  0.07176800  0.68356700  0.10887400  1
  O  O13  1  0.31643300  0.92823200  0.39112600  1
  O  O14  1  0.92823200  0.31643300  0.89112600  1
  O  O15  1  0.68356700  0.07176800  0.60887400  1
loop_
_geom_bond_atom_site_label_1
_geom_bond_atom_site_label_2
_geom_bond_distance
_geom_bond_site_symmetry_2
Li0 O10 2.115942 1_655
Li0 O11 2.115942 1_545
Li0 O14 2.159343 1_554
Li0 O15 2.159343 1_555
Li0 O5 2.326102 1_555
Li0 O4 2.326102 1_555
Li1 O9 2.115942 1_565
Li1 O8 2.115942 1_455
Li1 O13 2.159343 1_555
Li1 O12 2.159343 1_556
Li1 O6 2.326102 1_555
Li1 O7 2.326102 1_555
Fe0 O4 2.009713 1_555
Fe0 O5 2.009713 1_556
Fe0 O1 2.029597 1_555
Fe0 O0 2.029597 1_555
Fe0 O15 2.073987 1_555
Fe0 O14 2.073987 1_555
Fe1 O7 2.009713 1_554
Fe1 O6 2.009713 1_555
Fe1 O2 2.029597 1_555
Fe1 O3 2.029597 1_555
Fe1 O12 2.073987 1_555
Fe1 O13 2.073987 1_555
O0 W0 1.984490 1_556
O0 W3 2.200062 1_555
O1 W1 1.984490 1_555
O1 W2 2.200062 1_555
O2 W2 1.984490 1_554
O2 W1 2.200062 1_555
O3 W3 1.984490 1_555
O3 W0 2.200062 1_555
O4 W0 1.843134 1_555
O5 W1 1.843134 1_555
O6 W2 1.843134 1_555
O7 W3 1.843134 1_555
O8 W0 1.917033 1_555
O8 W3 2.075541 1_555
O9 W1 1.917033 1_556
O9 W2 2.075541 1_555
O10 W2 1.917033 1_555
O10 W1 2.075541 1_555
O11 W3 1.917033 1_554
O11 W0 2.075541 1_555
O12 W0 1.829625 1_455
O13 W1 1.829625 1_565
O14 W2 1.829625 1_655
O15 W3 1.829625 1_545
