# generated using pymatgen
data_Al2Se3
_symmetry_space_group_name_H-M   'P 1'
_cell_length_a   11.95240270
_cell_length_b   6.90072307
_cell_length_c   7.76581741
_cell_angle_alpha   63.62136925
_cell_angle_beta   59.13381851
_cell_angle_gamma   29.99999964
_symmetry_Int_Tables_number   1
_chemical_formula_structural   Al2Se3
_chemical_formula_sum   'Al4 Se6'
_cell_volume   274.90361099
_cell_formula_units_Z   2
loop_
 _symmetry_equiv_pos_site_id
 _symmetry_equiv_pos_as_xyz
  1  'x, y, z'
loop_
 _atom_site_type_symbol
 _atom_site_label
 _atom_site_symmetry_multiplicity
 _atom_site_fract_x
 _atom_site_fract_y
 _atom_site_fract_z
 _atom_site_occupancy
  Al  Al0  1  0.04529600  0.33576200  0.83748800  1
  Al  Al1  1  0.15737400  0.66666700  0.52787800  1
  Al  Al2  1  0.40282400  0.30913800  0.83748800  1
  Al  Al3  1  0.71439200  0.35509800  0.83748800  1
  Se  Se0  1  0.00874900  0.66666700  0.97375200  1
  Se  Se1  1  0.13754900  0.37788400  0.49335000  1
  Se  Se2  1  0.33606500  0.66666700  0.99180400  1
  Se  Se3  1  0.52033500  0.28387900  0.49335000  1
  Se  Se4  1  0.66198300  0.66666700  0.01405200  1
  Se  Se5  1  0.84876600  0.33823500  0.49335000  1
loop_
_geom_bond_atom_site_label_1
_geom_bond_atom_site_label_2
_geom_bond_distance
_geom_bond_site_symmetry_2
Al0 Se1 2.298659 1_555
Al0 Se4 2.510124 1_456
Al0 Se2 2.529080 1_545
Al0 Se0 2.543643 1_555
Al1 Se3 2.336070 1_555
Al1 Se5 2.336072 1_465
Al1 Se1 2.336076 1_555
Al1 Se0 2.972164 1_555
Al2 Se3 2.298659 1_555
Al2 Se4 2.510127 1_546
Al2 Se2 2.529087 1_555
Al2 Se0 2.543640 1_555
Al3 Se5 2.298659 1_555
Al3 Se4 2.510139 1_556
Al3 Se2 2.529083 1_555
Al3 Se0 2.543637 1_645
