# generated using pymatgen
data_Er2Fe14Si3
_symmetry_space_group_name_H-M   'P 1'
_cell_length_a   8.30553449
_cell_length_b   8.30553449
_cell_length_c   8.18005500
_cell_angle_alpha   90.00000000
_cell_angle_beta   90.00000000
_cell_angle_gamma   120.00000389
_symmetry_Int_Tables_number   1
_chemical_formula_structural   Er2Fe14Si3
_chemical_formula_sum   'Er4 Fe28 Si6'
_cell_volume   488.67712519
_cell_formula_units_Z   2
loop_
 _symmetry_equiv_pos_site_id
 _symmetry_equiv_pos_as_xyz
  1  'x, y, z'
loop_
 _atom_site_type_symbol
 _atom_site_label
 _atom_site_symmetry_multiplicity
 _atom_site_fract_x
 _atom_site_fract_y
 _atom_site_fract_z
 _atom_site_occupancy
  Er  Er0  1  0.00000000  0.00000000  0.25000000  1
  Er  Er1  1  0.00000000  0.00000000  0.75000000  1
  Er  Er2  1  0.33333300  0.66666700  0.75000000  1
  Er  Er3  1  0.66666700  0.33333300  0.25000000  1
  Fe  Fe0  1  0.33333300  0.66666700  0.39018100  1
  Fe  Fe1  1  0.66666700  0.33333300  0.60981900  1
  Fe  Fe2  1  0.66666700  0.33333300  0.89018100  1
  Fe  Fe3  1  0.33333300  0.66666700  0.10981900  1
  Fe  Fe4  1  0.32988900  0.35782400  0.25000000  1
  Fe  Fe5  1  0.64217600  0.97206500  0.25000000  1
  Fe  Fe6  1  0.02793500  0.67011100  0.25000000  1
  Fe  Fe7  1  0.64217600  0.67011100  0.25000000  1
  Fe  Fe8  1  0.02793500  0.35782400  0.25000000  1
  Fe  Fe9  1  0.32988900  0.97206500  0.25000000  1
  Fe  Fe10  1  0.67011100  0.64217600  0.75000000  1
  Fe  Fe11  1  0.35782400  0.02793500  0.75000000  1
  Fe  Fe12  1  0.97206500  0.32988900  0.75000000  1
  Fe  Fe13  1  0.35782400  0.32988900  0.75000000  1
  Fe  Fe14  1  0.97206500  0.64217600  0.75000000  1
  Fe  Fe15  1  0.67011100  0.02793500  0.75000000  1
  Fe  Fe16  1  0.16794800  0.83205200  0.51313700  1
  Fe  Fe17  1  0.16794800  0.33589500  0.51313700  1
  Fe  Fe18  1  0.66410500  0.83205200  0.51313700  1
  Fe  Fe19  1  0.83205200  0.16794800  0.48686300  1
  Fe  Fe20  1  0.83205200  0.66410500  0.48686300  1
  Fe  Fe21  1  0.33589500  0.16794800  0.48686300  1
  Fe  Fe22  1  0.83205200  0.16794800  0.01313700  1
  Fe  Fe23  1  0.83205200  0.66410500  0.01313700  1
  Fe  Fe24  1  0.33589500  0.16794800  0.01313700  1
  Fe  Fe25  1  0.16794800  0.83205200  0.98686300  1
  Fe  Fe26  1  0.16794800  0.33589500  0.98686300  1
  Fe  Fe27  1  0.66410500  0.83205200  0.98686300  1
  Si  Si0  1  0.50000000  0.50000000  0.50000000  1
  Si  Si1  1  0.50000000  0.00000000  0.50000000  1
  Si  Si2  1  0.00000000  0.50000000  0.50000000  1
  Si  Si3  1  0.50000000  0.50000000  0.00000000  1
  Si  Si4  1  0.50000000  0.00000000  0.00000000  1
  Si  Si5  1  0.00000000  0.50000000  0.00000000  1
loop_
_geom_bond_atom_site_label_1
_geom_bond_atom_site_label_2
_geom_bond_distance
_geom_bond_site_symmetry_2
Er0 Fe4 2.862971 1_555
Er0 Fe7 2.862971 1_445
Er0 Fe8 2.862972 1_555
Er0 Fe5 2.862972 1_445
Er0 Fe6 2.862972 1_545
Er0 Fe9 2.862972 1_545
Er0 Fe24 3.096982 1_555
Er0 Fe21 3.096982 1_555
Er0 Fe20 3.096982 1_445
Er0 Fe23 3.096982 1_445
Er0 Fe19 3.096987 1_455
Er0 Fe22 3.096987 1_455
Er0 Fe17 3.235790 1_555
Er0 Fe27 3.235790 1_444
Er0 Fe18 3.235790 1_445
Er0 Fe26 3.235790 1_554
Er0 Fe16 3.235795 1_545
Er0 Fe25 3.235795 1_544
Er1 Fe10 2.862971 1_445
Er1 Fe13 2.862971 1_555
Er1 Fe14 2.862972 1_445
Er1 Fe11 2.862972 1_555
Er1 Fe15 2.862972 1_455
Er1 Fe12 2.862972 1_455
Er1 Fe26 3.096982 1_555
Er1 Fe17 3.096982 1_555
Er1 Fe27 3.096982 1_445
Er1 Fe18 3.096982 1_445
Er1 Fe16 3.096987 1_545
Er1 Fe25 3.096987 1_545
Er1 Fe24 3.235790 1_556
Er1 Fe21 3.235790 1_555
Er1 Fe23 3.235790 1_446
Er1 Fe20 3.235790 1_445
Er1 Fe22 3.235795 1_456
Er1 Fe19 3.235795 1_455
Er2 Fe11 2.904166 1_565
Er2 Fe14 2.904166 1_455
Er2 Fe12 2.904170 1_455
Er2 Fe15 2.904170 1_565
Er2 Fe13 2.904174 1_555
Er2 Fe10 2.904174 1_555
Er2 Fe3 2.943339 1_556
Er2 Fe0 2.943339 1_555
Er2 Fe25 3.068311 1_555
Er2 Fe16 3.068311 1_555
Er2 Fe27 3.068322 1_555
Er2 Fe26 3.068322 1_555
Er2 Fe17 3.068322 1_555
Er2 Fe18 3.068322 1_555
Er2 Si4 3.151279 1_566
Er2 Si5 3.151279 1_556
Er2 Si2 3.151279 1_555
Er2 Si1 3.151279 1_565
Er2 Si0 3.151285 1_555
Er2 Si3 3.151285 1_556
Er3 Fe8 2.904166 1_655
Er3 Fe5 2.904166 1_545
Er3 Fe9 2.904170 1_545
Er3 Fe6 2.904170 1_655
Er3 Fe4 2.904174 1_555
Er3 Fe7 2.904174 1_555
Er3 Fe1 2.943339 1_555
Er3 Fe2 2.943339 1_554
Er3 Fe22 3.068311 1_555
Er3 Fe19 3.068311 1_555
Er3 Fe24 3.068322 1_555
Er3 Fe21 3.068322 1_555
Er3 Fe20 3.068322 1_555
Er3 Fe23 3.068322 1_555
Er3 Si2 3.151279 1_655
Er3 Si5 3.151279 1_655
Er3 Si4 3.151279 1_555
Er3 Si1 3.151279 1_555
Er3 Si3 3.151285 1_555
Er3 Si0 3.151285 1_555
Fe0 Fe3 2.293377 1_555
Fe0 Si2 2.560365 1_555
Fe0 Si1 2.560365 1_565
Fe0 Si0 2.560372 1_555
Fe0 Fe16 2.583027 1_555
Fe0 Fe18 2.583040 1_555
Fe0 Fe17 2.583040 1_555
Fe0 Fe9 2.796796 1_555
Fe0 Fe6 2.796796 1_555
Fe0 Fe5 2.796799 1_555
Fe0 Fe8 2.796799 1_555
Fe0 Fe7 2.796803 1_555
Fe0 Fe4 2.796803 1_555
Fe1 Fe2 2.293377 1_555
Fe1 Si1 2.560365 1_555
Fe1 Si2 2.560365 1_655
Fe1 Si0 2.560372 1_555
Fe1 Fe19 2.583027 1_555
Fe1 Fe20 2.583040 1_555
Fe1 Fe21 2.583040 1_555
Fe1 Fe12 2.796796 1_555
Fe1 Fe15 2.796796 1_555
Fe1 Fe14 2.796799 1_555
Fe1 Fe11 2.796799 1_555
Fe1 Fe13 2.796803 1_555
Fe1 Fe10 2.796803 1_555
Fe2 Si4 2.560365 1_556
Fe2 Si5 2.560365 1_656
Fe2 Si3 2.560372 1_556
Fe2 Fe22 2.583027 1_556
Fe2 Fe23 2.583040 1_556
Fe2 Fe24 2.583040 1_556
Fe3 Si5 2.560365 1_555
Fe3 Si4 2.560365 1_565
Fe3 Si3 2.560372 1_555
Fe3 Fe9 2.796796 1_555
Fe3 Fe6 2.796796 1_555
Fe3 Fe5 2.796799 1_555
Fe3 Fe8 2.796799 1_555
Fe3 Fe7 2.796803 1_555
Fe3 Fe4 2.796803 1_555
Fe4 Si3 2.429874 1_555
Fe4 Si0 2.429874 1_555
Fe4 Fe8 2.507889 1_555
Fe4 Fe7 2.593710 1_555
Fe5 Si4 2.429874 1_565
Fe5 Si1 2.429874 1_565
Fe5 Fe7 2.507889 1_555
Fe5 Fe9 2.593710 1_555
Fe6 Si5 2.429874 1_555
Fe6 Si2 2.429874 1_555
Fe6 Fe9 2.507889 1_555
Fe6 Fe8 2.593710 1_555
Fe7 Si0 2.429874 1_555
Fe7 Si3 2.429874 1_555
Fe8 Si5 2.429874 1_555
Fe8 Si2 2.429874 1_555
Fe9 Si4 2.429874 1_565
Fe9 Si1 2.429874 1_565
Fe10 Si0 2.429874 1_555
Fe10 Si3 2.429874 1_556
Fe10 Fe23 2.496076 1_556
Fe10 Fe20 2.496076 1_555
Fe10 Fe14 2.507889 1_555
Fe10 Fe18 2.514411 1_555
Fe10 Fe27 2.514411 1_555
Fe10 Fe13 2.593710 1_555
Fe10 Fe2 2.796803 1_555
Fe11 Si4 2.429874 1_556
Fe11 Si1 2.429874 1_555
Fe11 Fe24 2.496080 1_556
Fe11 Fe21 2.496080 1_555
Fe11 Fe13 2.507889 1_555
Fe11 Fe16 2.514413 1_545
Fe11 Fe25 2.514413 1_545
Fe11 Fe15 2.593710 1_555
Fe11 Fe2 2.796799 1_555
Fe12 Si5 2.429874 1_656
Fe12 Si2 2.429874 1_655
Fe12 Fe22 2.496078 1_556
Fe12 Fe19 2.496078 1_555
Fe12 Fe15 2.507889 1_555
Fe12 Fe26 2.514416 1_655
Fe12 Fe17 2.514416 1_655
Fe12 Fe14 2.593710 1_555
Fe12 Fe2 2.796796 1_555
Fe13 Si0 2.429874 1_555
Fe13 Si3 2.429874 1_556
Fe13 Fe24 2.496076 1_556
Fe13 Fe21 2.496076 1_555
Fe13 Fe17 2.514411 1_555
Fe13 Fe26 2.514411 1_555
Fe13 Fe2 2.796803 1_555
Fe14 Si5 2.429874 1_656
Fe14 Si2 2.429874 1_655
Fe14 Fe20 2.496080 1_555
Fe14 Fe23 2.496080 1_556
Fe14 Fe16 2.514413 1_655
Fe14 Fe25 2.514413 1_655
Fe14 Fe2 2.796799 1_555
Fe15 Si1 2.429874 1_555
Fe15 Si4 2.429874 1_556
Fe15 Fe22 2.496078 1_556
Fe15 Fe19 2.496078 1_555
Fe15 Fe27 2.514416 1_545
Fe15 Fe18 2.514416 1_545
Fe15 Fe2 2.796796 1_555
Fe16 Si1 2.390854 1_565
Fe16 Si2 2.390854 1_555
Fe16 Fe21 2.425575 1_565
Fe16 Fe20 2.425575 1_455
Fe16 Fe9 2.496078 1_555
Fe16 Fe6 2.496078 1_555
Fe17 Si0 2.390854 1_555
Fe17 Si2 2.390862 1_555
Fe17 Fe21 2.425560 1_555
Fe17 Fe19 2.425575 1_455
Fe17 Fe4 2.496076 1_555
Fe17 Fe8 2.496080 1_555
Fe18 Si0 2.390854 1_555
Fe18 Si1 2.390862 1_565
Fe18 Fe20 2.425560 1_555
Fe18 Fe19 2.425575 1_565
Fe18 Fe7 2.496076 1_555
Fe18 Fe5 2.496080 1_555
Fe19 Si1 2.390854 1_555
Fe19 Si2 2.390854 1_655
Fe19 Fe8 2.514413 1_655
Fe19 Fe5 2.514413 1_545
Fe20 Si0 2.390854 1_555
Fe20 Si2 2.390862 1_655
Fe20 Fe7 2.514411 1_555
Fe20 Fe6 2.514416 1_655
Fe21 Si0 2.390854 1_555
Fe21 Si1 2.390862 1_555
Fe21 Fe4 2.514411 1_555
Fe21 Fe9 2.514416 1_545
Fe22 Si5 2.390854 1_655
Fe22 Si4 2.390854 1_555
Fe22 Fe26 2.425575 1_654
Fe22 Fe27 2.425575 1_544
Fe22 Fe8 2.514413 1_655
Fe22 Fe5 2.514413 1_545
Fe23 Si3 2.390854 1_555
Fe23 Si5 2.390862 1_655
Fe23 Fe27 2.425560 1_554
Fe23 Fe25 2.425575 1_654
Fe23 Fe7 2.514411 1_555
Fe23 Fe6 2.514416 1_655
Fe24 Si3 2.390854 1_555
Fe24 Si4 2.390862 1_555
Fe24 Fe26 2.425560 1_554
Fe24 Fe25 2.425575 1_544
Fe24 Fe4 2.514411 1_555
Fe24 Fe9 2.514416 1_545
Fe25 Si5 2.390854 1_556
Fe25 Si4 2.390854 1_566
Fe25 Fe6 2.496078 1_556
Fe25 Fe9 2.496078 1_556
Fe25 Fe3 2.583027 1_556
Fe26 Si3 2.390854 1_556
Fe26 Si5 2.390862 1_556
Fe26 Fe4 2.496076 1_556
Fe26 Fe8 2.496080 1_556
Fe26 Fe3 2.583040 1_556
Fe27 Si3 2.390854 1_556
Fe27 Si4 2.390862 1_566
Fe27 Fe7 2.496076 1_556
Fe27 Fe5 2.496080 1_556
Fe27 Fe3 2.583040 1_556
