# generated using pymatgen
data_Nb3SiSnMo3
_symmetry_space_group_name_H-M   'P 1'
_cell_length_a   5.12830295
_cell_length_b   5.12830295
_cell_length_c   5.12830257
_cell_angle_alpha   89.90335531
_cell_angle_beta   89.90335531
_cell_angle_gamma   89.90334986
_symmetry_Int_Tables_number   1
_chemical_formula_structural   Nb3SiSnMo3
_chemical_formula_sum   'Nb3 Si1 Sn1 Mo3'
_cell_volume   134.87117281
_cell_formula_units_Z   1
loop_
 _symmetry_equiv_pos_site_id
 _symmetry_equiv_pos_as_xyz
  1  'x, y, z'
loop_
 _atom_site_type_symbol
 _atom_site_label
 _atom_site_symmetry_multiplicity
 _atom_site_fract_x
 _atom_site_fract_y
 _atom_site_fract_z
 _atom_site_occupancy
  Nb  Nb0  1  0.25628600  0.99886100  0.50092400  1
  Nb  Nb1  1  0.99886100  0.50092400  0.25628600  1
  Nb  Nb2  1  0.50092400  0.25628600  0.99886100  1
  Si  Si0  1  0.50009200  0.50009200  0.50009200  1
  Sn  Sn0  1  0.99902000  0.99902000  0.99902000  1
  Mo  Mo0  1  0.74491800  0.99937400  0.50052400  1
  Mo  Mo1  1  0.99937400  0.50052400  0.74491800  1
  Mo  Mo2  1  0.50052400  0.74491800  0.99937400  1
loop_
_geom_bond_atom_site_label_1
_geom_bond_atom_site_label_2
_geom_bond_distance
_geom_bond_site_symmetry_2
Nb0 Si0 2.845182 1_555
Nb0 Si0 2.860310 1_565
Nb0 Sn0 2.873009 1_455
Nb0 Sn0 2.894329 1_454
Nb1 Si0 2.845183 1_555
Nb1 Si0 2.860309 1_655
Nb1 Sn0 2.873009 1_554
Nb1 Sn0 2.894329 1_544
Nb2 Si0 2.845182 1_555
Nb2 Si0 2.860309 1_556
Nb2 Sn0 2.873009 1_545
Nb2 Sn0 2.894329 1_445
Mo0 Nb0 2.505856 1_555
Mo0 Nb0 2.622451 1_655
Mo0 Si0 2.853641 1_555
Mo0 Si0 2.856444 1_565
Mo0 Sn0 2.871358 1_555
Mo0 Sn0 2.881196 1_554
Mo1 Nb1 2.505856 1_555
Mo1 Nb1 2.622451 1_556
Mo1 Si0 2.853641 1_555
Mo1 Si0 2.856444 1_655
Mo1 Sn0 2.871358 1_555
Mo1 Sn0 2.881196 1_545
Mo2 Nb2 2.505856 1_555
Mo2 Nb2 2.622451 1_565
Mo2 Si0 2.853641 1_555
Mo2 Si0 2.856444 1_556
Mo2 Sn0 2.871358 1_555
Mo2 Sn0 2.881196 1_455
