# generated using pymatgen
data_Zr2N
_symmetry_space_group_name_H-M   'P 1'
_cell_length_a   5.41300273
_cell_length_b   5.41300273
_cell_length_c   3.30778919
_cell_angle_alpha   90.00000000
_cell_angle_beta   90.00000000
_cell_angle_gamma   90.00000000
_symmetry_Int_Tables_number   1
_chemical_formula_structural   Zr2N
_chemical_formula_sum   'Zr4 N2'
_cell_volume   96.92020316
_cell_formula_units_Z   2
loop_
 _symmetry_equiv_pos_site_id
 _symmetry_equiv_pos_as_xyz
  1  'x, y, z'
loop_
 _atom_site_type_symbol
 _atom_site_label
 _atom_site_symmetry_multiplicity
 _atom_site_fract_x
 _atom_site_fract_y
 _atom_site_fract_z
 _atom_site_occupancy
  Zr  Zr0  1  0.29612546  0.29612546  0.00000000  1
  Zr  Zr1  1  0.70387354  0.70387354  0.00000000  1
  Zr  Zr2  1  0.79612546  0.20387554  0.50000100  1
  Zr  Zr3  1  0.20387554  0.79612546  0.50000100  1
  N  N0  1  -0.00000000  -0.00000000  -0.00000000  1
  N  N1  1  0.50000000  0.50000000  0.50000100  1
loop_
_geom_bond_atom_site_label_1
_geom_bond_atom_site_label_2
_geom_bond_distance
_geom_bond_site_symmetry_2
N0 Zr0 2.266882 1_555
N0 Zr1 2.266890 1_445
N0 Zr3 2.274009 1_544
N0 Zr2 2.274009 1_454
N0 Zr3 2.274014 1_545
N0 Zr2 2.274014 1_455
N1 Zr2 2.266879 1_555
N1 Zr3 2.266879 1_555
N1 Zr1 2.274001 1_556
N1 Zr1 2.274006 1_555
N1 Zr0 2.274006 1_556
N1 Zr0 2.274011 1_555
