# generated using pymatgen
data_LaPrNi10
_symmetry_space_group_name_H-M   'P 1'
_cell_length_a   3.93754702
_cell_length_b   4.94291087
_cell_length_c   8.55972711
_cell_angle_alpha   90.00000000
_cell_angle_beta   90.00000000
_cell_angle_gamma   90.00000000
_symmetry_Int_Tables_number   1
_chemical_formula_structural   LaPrNi10
_chemical_formula_sum   'La1 Pr1 Ni10'
_cell_volume   166.59748911
_cell_formula_units_Z   1
loop_
 _symmetry_equiv_pos_site_id
 _symmetry_equiv_pos_as_xyz
  1  'x, y, z'
loop_
 _atom_site_type_symbol
 _atom_site_label
 _atom_site_symmetry_multiplicity
 _atom_site_fract_x
 _atom_site_fract_y
 _atom_site_fract_z
 _atom_site_occupancy
  La  La0  1  0.00000000  0.00000000  0.00000000  1
  Pr  Pr0  1  0.00000000  0.50000000  0.50000000  1
  Ni  Ni0  1  0.00000000  0.00000000  0.33265658  1
  Ni  Ni1  1  0.00000000  0.50000000  0.83371416  1
  Ni  Ni2  1  0.00000000  0.50000000  0.16628584  1
  Ni  Ni3  1  0.00000000  0.00000000  0.66734342  1
  Ni  Ni4  1  0.50000000  0.00000000  0.50000000  1
  Ni  Ni5  1  0.50000000  0.50000000  0.00000000  1
  Ni  Ni6  1  0.50000000  0.25092404  0.25121091  1
  Ni  Ni7  1  0.50000000  0.74907596  0.74878909  1
  Ni  Ni8  1  0.50000000  0.74907596  0.25121091  1
  Ni  Ni9  1  0.50000000  0.25092404  0.74878909  1
loop_
_geom_bond_atom_site_label_1
_geom_bond_atom_site_label_2
_geom_bond_distance
_geom_bond_site_symmetry_2
La0 Ni0 2.847450 1_555
La0 Ni3 2.847450 1_554
La0 Ni2 2.852026 1_545
La0 Ni1 2.852026 1_544
La0 Ni2 2.852026 1_555
La0 Ni1 2.852026 1_554
La0 Ni5 3.159772 1_545
La0 Ni5 3.159772 1_455
La0 Ni5 3.159772 1_555
La0 Ni5 3.159772 1_445
La0 Ni9 3.168308 1_454
La0 Ni7 3.168308 1_544
La0 Ni7 3.168308 1_444
La0 Ni9 3.168308 1_554
La0 Ni6 3.168308 1_555
La0 Ni8 3.168308 1_545
La0 Ni8 3.168308 1_445
La0 Ni6 3.168308 1_455
Ni0 Ni8 2.429079 1_445
Ni0 Ni6 2.429079 1_455
Ni0 Ni6 2.429079 1_555
Ni0 Ni8 2.429079 1_545
Ni0 Ni4 2.434724 1_455
Ni0 Ni4 2.434724 1_555
Ni0 Ni2 2.852388 1_555
Ni0 Ni2 2.852388 1_545
Ni0 Pr0 2.856554 1_545
Ni0 Pr0 2.856554 1_555
Ni0 Ni3 2.864828 1_555
Ni1 Ni5 2.429409 1_556
Ni1 Ni5 2.429409 1_456
Ni1 Ni9 2.433158 1_455
Ni1 Ni9 2.433158 1_555
Ni1 Ni7 2.433158 1_455
Ni1 Ni7 2.433158 1_555
Ni1 Ni2 2.846723 1_556
Ni1 Ni3 2.852388 1_565
Ni1 Ni3 2.852388 1_555
Ni1 Pr0 2.856502 1_555
Ni2 Ni5 2.429409 1_455
Ni2 Ni5 2.429409 1_555
Ni2 Ni8 2.433158 1_455
Ni2 Ni6 2.433158 1_555
Ni2 Ni8 2.433158 1_555
Ni2 Ni6 2.433158 1_455
Ni2 Pr0 2.856502 1_555
Ni3 Ni9 2.429079 1_555
Ni3 Ni9 2.429079 1_455
Ni3 Ni7 2.429079 1_445
Ni3 Ni7 2.429079 1_545
Ni3 Ni4 2.434724 1_455
Ni3 Ni4 2.434724 1_555
Ni3 Pr0 2.856554 1_545
Ni3 Pr0 2.856554 1_555
Ni4 Ni8 2.464424 1_545
Ni4 Ni9 2.464424 1_555
Ni4 Ni6 2.464424 1_555
Ni4 Ni7 2.464424 1_545
Ni4 Pr0 3.159772 1_545
Ni4 Pr0 3.159772 1_555
Ni4 Pr0 3.159772 1_645
Ni4 Pr0 3.159772 1_655
Ni5 Ni9 2.477808 1_554
Ni5 Ni7 2.477808 1_554
Ni5 Ni8 2.477808 1_555
Ni5 Ni6 2.477808 1_555
Ni6 Ni8 2.462321 1_555
Ni6 Ni8 2.480590 1_545
Ni6 Pr0 3.150695 1_655
Ni6 Pr0 3.150695 1_555
Ni7 Ni9 2.462321 1_555
Ni7 Ni9 2.480590 1_565
Ni7 Pr0 3.150695 1_655
Ni7 Pr0 3.150695 1_555
Ni8 Pr0 3.150695 1_655
Ni8 Pr0 3.150695 1_555
Ni9 Pr0 3.150695 1_655
Ni9 Pr0 3.150695 1_555
