# generated using pymatgen
data_Hf2Te3
_symmetry_space_group_name_H-M   'P 1'
_cell_length_a   7.00589697
_cell_length_b   7.73787162
_cell_length_c   7.00697643
_cell_angle_alpha   63.09458079
_cell_angle_beta   59.99030750
_cell_angle_gamma   90.00120668
_symmetry_Int_Tables_number   1
_chemical_formula_structural   Hf2Te3
_chemical_formula_sum   'Hf4 Te6'
_cell_volume   280.44147537
_cell_formula_units_Z   2
loop_
 _symmetry_equiv_pos_site_id
 _symmetry_equiv_pos_as_xyz
  1  'x, y, z'
loop_
 _atom_site_type_symbol
 _atom_site_label
 _atom_site_symmetry_multiplicity
 _atom_site_fract_x
 _atom_site_fract_y
 _atom_site_fract_z
 _atom_site_occupancy
  Hf  Hf0  1  0.66666700  -0.00000000  0.66666700  1
  Hf  Hf1  1  0.32720734  0.98139313  0.34548029  1
  Hf  Hf2  1  0.00612566  0.01860687  0.98785271  1
  Hf  Hf3  1  0.16666700  0.50000000  0.66666700  1
  Te  Te0  1  0.74074739  0.26125192  0.17030591  1
  Te  Te1  1  0.08911950  0.26133199  0.47938669  1
  Te  Te2  1  0.43153482  0.26145960  0.82747324  1
  Te  Te3  1  0.90179818  0.73854040  0.50585976  1
  Te  Te4  1  0.24421350  0.73866801  0.85394631  1
  Te  Te5  1  0.59258661  0.73874808  0.16302809  1
loop_
_geom_bond_atom_site_label_1
_geom_bond_atom_site_label_2
_geom_bond_distance
_geom_bond_site_symmetry_2
Hf0 Te2 2.878008 1_555
Hf0 Te3 2.878008 1_545
Hf0 Te0 2.878110 1_555
Hf0 Te5 2.878110 1_546
Hf0 Te1 2.878169 1_655
Hf0 Te4 2.878178 1_545
Hf1 Te5 2.900219 1_555
Hf1 Te3 2.900869 1_455
Hf1 Te4 2.903595 1_555
Hf1 Te0 2.937146 1_565
Hf1 Te1 2.937488 1_565
Hf1 Te2 2.938085 1_564
Hf2 Te0 2.900219 1_456
Hf2 Te2 2.900869 1_555
Hf2 Te1 2.903595 1_555
Hf2 Te5 2.937138 1_446
Hf2 Te4 2.937488 1_545
Hf2 Te3 2.938085 1_446
Hf3 Te2 2.886051 1_555
Hf3 Te3 2.886060 1_455
Hf3 Te4 2.886904 1_555
Hf3 Te1 2.886913 1_555
Hf3 Te0 2.887317 1_456
Hf3 Te5 2.887317 1_555
