# generated using pymatgen
data_SrPd2
_symmetry_space_group_name_H-M   'P 1'
_cell_length_a   5.56581421
_cell_length_b   5.56581472
_cell_length_c   5.56581351
_cell_angle_alpha   60.00000106
_cell_angle_beta   59.99999792
_cell_angle_gamma   59.99999459
_symmetry_Int_Tables_number   1
_chemical_formula_structural   SrPd2
_chemical_formula_sum   'Sr2 Pd4'
_cell_volume   121.91891303
_cell_formula_units_Z   2
loop_
 _symmetry_equiv_pos_site_id
 _symmetry_equiv_pos_as_xyz
  1  'x, y, z'
loop_
 _atom_site_type_symbol
 _atom_site_label
 _atom_site_symmetry_multiplicity
 _atom_site_fract_x
 _atom_site_fract_y
 _atom_site_fract_z
 _atom_site_occupancy
  Sr  Sr0  1  0.12500000  0.12500000  0.12500000  1
  Sr  Sr1  1  0.87500000  0.87500000  0.87500000  1
  Pd  Pd0  1  0.00000000  0.50000000  0.50000000  1
  Pd  Pd1  1  0.50000000  -0.00000000  0.50000000  1
  Pd  Pd2  1  0.50000000  0.50000000  0.00000000  1
  Pd  Pd3  1  0.50000000  0.50000000  0.50000000  1
loop_
_geom_bond_atom_site_label_1
_geom_bond_atom_site_label_2
_geom_bond_distance
_geom_bond_site_symmetry_2
Sr0 Sr1 3.408351 1_445
Sr0 Sr1 3.408351 1_544
Sr0 Sr1 3.408351 1_444
Sr0 Sr1 3.408351 1_454
Pd0 Pd2 2.782907 1_555
Pd0 Pd2 2.782907 1_456
Pd0 Pd1 2.782907 1_555
Pd0 Pd1 2.782907 1_465
Pd0 Pd3 2.782907 1_555
Pd0 Pd3 2.782907 1_455
Pd0 Sr0 3.263247 1_556
Pd0 Sr1 3.263247 1_454
Pd0 Sr0 3.263248 1_555
Pd0 Sr1 3.263248 1_455
Pd0 Sr0 3.263248 1_565
Pd0 Sr1 3.263248 1_445
Pd1 Pd2 2.782907 1_555
Pd1 Pd2 2.782907 1_546
Pd1 Pd3 2.782907 1_555
Pd1 Pd3 2.782907 1_545
Pd1 Sr1 3.263247 1_544
Pd1 Sr0 3.263247 1_556
Pd1 Sr1 3.263248 1_545
Pd1 Sr0 3.263248 1_555
Pd1 Sr1 3.263248 1_445
Pd1 Sr0 3.263248 1_655
Pd2 Pd3 2.782907 1_555
Pd2 Pd3 2.782907 1_554
Pd2 Sr1 3.263248 1_454
Pd2 Sr0 3.263248 1_655
Pd2 Sr0 3.263248 1_565
Pd2 Sr1 3.263248 1_544
Pd2 Sr0 3.263248 1_555
Pd2 Sr1 3.263248 1_554
Pd3 Sr1 3.263248 1_455
Pd3 Sr0 3.263248 1_655
Pd3 Sr0 3.263248 1_565
Pd3 Sr1 3.263248 1_545
Pd3 Sr0 3.263248 1_556
Pd3 Sr1 3.263248 1_554
