# generated using pymatgen
data_IrClOF6
_symmetry_space_group_name_H-M   'P 1'
_cell_length_a   19.72695600
_cell_length_b   5.69064700
_cell_length_c   12.52533191
_cell_angle_alpha   80.12194020
_cell_angle_beta   90.00000000
_cell_angle_gamma   90.00000000
_symmetry_Int_Tables_number   1
_chemical_formula_structural   IrClOF6
_chemical_formula_sum   'Ir8 Cl8 O8 F48'
_cell_volume   1385.23797238
_cell_formula_units_Z   8
loop_
 _symmetry_equiv_pos_site_id
 _symmetry_equiv_pos_as_xyz
  1  'x, y, z'
loop_
 _atom_site_type_symbol
 _atom_site_label
 _atom_site_symmetry_multiplicity
 _atom_site_fract_x
 _atom_site_fract_y
 _atom_site_fract_z
 _atom_site_occupancy
  Ir  Ir0  1  0.38477500  0.66365600  0.08453800  1
  Ir  Ir1  1  0.88477500  0.33634400  0.41546200  1
  Ir  Ir2  1  0.61522500  0.33634400  0.91546200  1
  Ir  Ir3  1  0.11522500  0.66365600  0.58453800  1
  Ir  Ir4  1  0.39037100  0.48952800  0.67158800  1
  Ir  Ir5  1  0.89037100  0.51047200  0.82841200  1
  Ir  Ir6  1  0.60962900  0.51047200  0.32841200  1
  Ir  Ir7  1  0.10962900  0.48952800  0.17158800  1
  Cl  Cl0  1  0.27827100  0.00946300  0.31323700  1
  Cl  Cl1  1  0.77827100  0.99053700  0.18676300  1
  Cl  Cl2  1  0.72172900  0.99053700  0.68676300  1
  Cl  Cl3  1  0.22172900  0.00946300  0.81323700  1
  Cl  Cl4  1  0.27984200  0.15781500  0.44326200  1
  Cl  Cl5  1  0.77984200  0.84218500  0.05673800  1
  Cl  Cl6  1  0.72015800  0.84218500  0.55673800  1
  Cl  Cl7  1  0.22015800  0.15781500  0.94326200  1
  O  O0  1  0.42020900  0.02310700  0.33645900  1
  O  O1  1  0.92020900  0.97689300  0.16354100  1
  O  O2  1  0.57979100  0.97689300  0.66354100  1
  O  O3  1  0.07979100  0.02310700  0.83645900  1
  O  O4  1  0.42260800  0.11724800  0.41606000  1
  O  O5  1  0.92260800  0.88275200  0.08394000  1
  O  O6  1  0.57739200  0.88275200  0.58394000  1
  O  O7  1  0.07739200  0.11724800  0.91606000  1
  F  F0  1  0.39380400  0.79036700  0.93640500  1
  F  F1  1  0.89380400  0.20963300  0.56359500  1
  F  F2  1  0.60619600  0.20963300  0.06359500  1
  F  F3  1  0.10619600  0.79036700  0.43640500  1
  F  F4  1  0.37475700  0.53543900  0.23318200  1
  F  F5  1  0.87475700  0.46456100  0.26681800  1
  F  F6  1  0.62524300  0.46456100  0.76681800  1
  F  F7  1  0.12524300  0.53543900  0.73318200  1
  F  F8  1  0.33157400  0.92943900  0.10541800  1
  F  F9  1  0.83157400  0.07056100  0.39458200  1
  F  F10  1  0.66842600  0.07056100  0.89458200  1
  F  F11  1  0.16842600  0.92943900  0.60541800  1
  F  F12  1  0.43740700  0.39739800  0.06634200  1
  F  F13  1  0.93740700  0.60260200  0.43365800  1
  F  F14  1  0.56259300  0.60260200  0.93365800  1
  F  F15  1  0.06259300  0.39739800  0.56634200  1
  F  F16  1  0.30497200  0.50512000  0.05360400  1
  F  F17  1  0.80497200  0.49488000  0.44639600  1
  F  F18  1  0.69502800  0.49488000  0.94639600  1
  F  F19  1  0.19502800  0.50512000  0.55360400  1
  F  F20  1  0.46269600  0.82728300  0.11716400  1
  F  F21  1  0.96269600  0.17271700  0.38283600  1
  F  F22  1  0.53730400  0.17271700  0.88283600  1
  F  F23  1  0.03730400  0.82728300  0.61716400  1
  F  F24  1  0.40821100  0.35295900  0.81634400  1
  F  F25  1  0.90821100  0.64704100  0.68365600  1
  F  F26  1  0.59178900  0.64704100  0.18365600  1
  F  F27  1  0.09178900  0.35295900  0.31634400  1
  F  F28  1  0.34071700  0.21397500  0.65362900  1
  F  F29  1  0.84071700  0.78602500  0.84637100  1
  F  F30  1  0.65928300  0.78602500  0.34637100  1
  F  F31  1  0.15928300  0.21397500  0.15362900  1
  F  F32  1  0.31107200  0.62886200  0.71721000  1
  F  F33  1  0.81107200  0.37113800  0.78279000  1
  F  F34  1  0.68892800  0.37113800  0.28279000  1
  F  F35  1  0.18892800  0.62886200  0.21721000  1
  F  F36  1  0.46935900  0.35076500  0.62456300  1
  F  F37  1  0.96935900  0.64923500  0.87543700  1
  F  F38  1  0.53064100  0.64923500  0.37543700  1
  F  F39  1  0.03064100  0.35076500  0.12456300  1
  F  F40  1  0.37084900  0.62496900  0.52628500  1
  F  F41  1  0.87084900  0.37503100  0.97371500  1
  F  F42  1  0.62915100  0.37503100  0.47371500  1
  F  F43  1  0.12915100  0.62496900  0.02628500  1
  F  F44  1  0.44055400  0.76409300  0.68708400  1
  F  F45  1  0.94055400  0.23590700  0.81291600  1
  F  F46  1  0.55944600  0.23590700  0.31291600  1
  F  F47  1  0.05944600  0.76409300  0.18708400  1
loop_
_geom_bond_atom_site_label_1
_geom_bond_atom_site_label_2
_geom_bond_distance
_geom_bond_site_symmetry_2
Cl0 Cl4 1.959020 1_555
Cl1 Cl5 1.959020 1_555
Cl2 Cl6 1.959020 1_555
Cl3 Cl7 1.959020 1_555
O0 O4 1.211020 1_555
O1 O5 1.211020 1_555
O2 O6 1.211020 1_555
O3 O7 1.211020 1_555
F0 Ir0 1.880212 1_556
F1 Ir1 1.880212 1_555
F2 Ir2 1.880212 1_554
F3 Ir3 1.880212 1_555
F4 Ir0 1.889893 1_555
F5 Ir1 1.889893 1_555
F6 Ir2 1.889893 1_555
F7 Ir3 1.889893 1_555
F8 Ir0 1.895558 1_555
F9 Ir1 1.895558 1_555
F10 Ir2 1.895558 1_555
F11 Ir3 1.895558 1_555
F12 Ir0 1.882605 1_555
F13 Ir1 1.882605 1_555
F14 Ir2 1.882605 1_555
F15 Ir3 1.882605 1_555
F16 Ir0 1.887406 1_555
F17 Ir1 1.887406 1_555
F18 Ir2 1.887406 1_555
F19 Ir3 1.887406 1_555
F20 Ir0 1.878135 1_555
F21 Ir1 1.878135 1_555
F22 Ir2 1.878135 1_555
F23 Ir3 1.878135 1_555
F24 Ir4 1.879300 1_555
F25 Ir5 1.879300 1_555
F26 Ir6 1.879300 1_555
F27 Ir7 1.879300 1_555
F28 Ir4 1.894715 1_555
F29 Ir5 1.894715 1_555
F30 Ir6 1.894715 1_555
F31 Ir7 1.894715 1_555
F32 Ir4 1.886214 1_555
F33 Ir5 1.886214 1_555
F34 Ir6 1.886214 1_555
F35 Ir7 1.886214 1_555
F36 Ir4 1.886271 1_555
F37 Ir5 1.886271 1_555
F38 Ir6 1.886271 1_555
F39 Ir7 1.886271 1_555
F40 Ir4 1.890334 1_555
F41 Ir5 1.890334 1_555
F42 Ir6 1.890334 1_555
F43 Ir7 1.890334 1_555
F44 Ir4 1.887590 1_555
F45 Ir5 1.887590 1_555
F46 Ir6 1.887590 1_555
F47 Ir7 1.887590 1_555
