# generated using pymatgen
data_Li3SbF6
_symmetry_space_group_name_H-M   'P 1'
_cell_length_a   5.89120641
_cell_length_b   5.89120641
_cell_length_c   5.89120641
_cell_angle_alpha   60.00000000
_cell_angle_beta   60.00000000
_cell_angle_gamma   60.00000000
_symmetry_Int_Tables_number   1
_chemical_formula_structural   Li3SbF6
_chemical_formula_sum   'Li3 Sb1 F6'
_cell_volume   144.57650426
_cell_formula_units_Z   1
loop_
 _symmetry_equiv_pos_site_id
 _symmetry_equiv_pos_as_xyz
  1  'x, y, z'
loop_
 _atom_site_type_symbol
 _atom_site_label
 _atom_site_symmetry_multiplicity
 _atom_site_fract_x
 _atom_site_fract_y
 _atom_site_fract_z
 _atom_site_occupancy
  Li  Li0  1  0.75000000  0.75000000  0.75000000  1
  Li  Li1  1  0.25000000  0.25000000  0.25000000  1
  Li  Li2  1  0.50000000  0.50000000  0.50000000  1
  Sb  Sb0  1  0.00000000  0.00000000  0.00000000  1
  F  F0  1  0.73972500  0.26027500  0.26027500  1
  F  F1  1  0.26027500  0.26027500  0.73972500  1
  F  F2  1  0.26027500  0.73972500  0.73972500  1
  F  F3  1  0.26027500  0.73972500  0.26027500  1
  F  F4  1  0.73972500  0.26027500  0.73972500  1
  F  F5  1  0.73972500  0.73972500  0.26027500  1
loop_
_geom_bond_atom_site_label_1
_geom_bond_atom_site_label_2
_geom_bond_distance
_geom_bond_site_symmetry_2
F0 Li2 1.997251 1_555
F0 Sb0 2.168461 1_655
F1 Li2 1.997251 1_555
F1 Sb0 2.168461 1_556
F2 Li2 1.997251 1_555
F2 Sb0 2.168461 1_566
F3 Li2 1.997251 1_555
F3 Sb0 2.168461 1_565
F4 Li2 1.997251 1_555
F4 Sb0 2.168461 1_656
F5 Li2 1.997251 1_555
F5 Sb0 2.168461 1_665
