# generated using pymatgen
data_MgTi2
_symmetry_space_group_name_H-M   'P 1'
_cell_length_a   4.70626600
_cell_length_b   5.39469300
_cell_length_c   8.76596800
_cell_angle_alpha   90.00000000
_cell_angle_beta   90.00000000
_cell_angle_gamma   90.00000000
_symmetry_Int_Tables_number   1
_chemical_formula_structural   MgTi2
_chemical_formula_sum   'Mg4 Ti8'
_cell_volume   222.55793648
_cell_formula_units_Z   4
loop_
 _symmetry_equiv_pos_site_id
 _symmetry_equiv_pos_as_xyz
  1  'x, y, z'
loop_
 _atom_site_type_symbol
 _atom_site_label
 _atom_site_symmetry_multiplicity
 _atom_site_fract_x
 _atom_site_fract_y
 _atom_site_fract_z
 _atom_site_occupancy
  Mg  Mg0  1  0.00000000  0.91891800  0.16280600  1
  Mg  Mg1  1  0.00000000  0.91891800  0.83719400  1
  Mg  Mg2  1  0.50000000  0.08108200  0.33719400  1
  Mg  Mg3  1  0.50000000  0.08108200  0.66280600  1
  Ti  Ti0  1  0.00000000  0.43637900  0.00000000  1
  Ti  Ti1  1  0.00000000  0.41660800  0.33511100  1
  Ti  Ti2  1  0.00000000  0.85821800  0.50000000  1
  Ti  Ti3  1  0.00000000  0.41660800  0.66488900  1
  Ti  Ti4  1  0.50000000  0.14178200  0.00000000  1
  Ti  Ti5  1  0.50000000  0.58339200  0.16488900  1
  Ti  Ti6  1  0.50000000  0.56362100  0.50000000  1
  Ti  Ti7  1  0.50000000  0.58339200  0.83511100  1
loop_
_geom_bond_atom_site_label_1
_geom_bond_atom_site_label_2
_geom_bond_distance
_geom_bond_site_symmetry_2
Mg0 Mg1 2.854304 1_554
Mg0 Mg2 2.939288 1_565
Mg0 Mg2 2.939288 1_465
Mg0 Ti0 2.968695 1_555
Mg0 Ti5 2.968819 1_455
Mg0 Ti5 2.968819 1_555
Mg0 Ti2 2.973915 1_555
Mg0 Ti4 3.003245 1_565
Mg0 Ti4 3.003245 1_465
Mg0 Ti1 3.080580 1_565
Mg0 Ti1 3.102326 1_555
Mg0 Ti0 3.135200 1_565
Mg1 Mg3 2.939288 1_565
Mg1 Mg3 2.939288 1_465
Mg1 Ti0 2.968695 1_556
Mg1 Ti7 2.968819 1_455
Mg1 Ti7 2.968819 1_555
Mg1 Ti2 2.973915 1_555
Mg1 Ti4 3.003245 1_466
Mg1 Ti4 3.003245 1_566
Mg1 Ti3 3.080580 1_565
Mg1 Ti3 3.102326 1_555
Mg1 Ti0 3.135200 1_566
Mg2 Mg3 2.854304 1_555
Mg2 Ti6 2.968695 1_555
Mg2 Ti1 2.968819 1_555
Mg2 Ti1 2.968819 1_655
Mg2 Ti4 2.973915 1_555
Mg2 Ti2 3.003245 1_645
Mg2 Ti2 3.003245 1_545
Mg2 Ti5 3.080580 1_545
Mg2 Ti5 3.102326 1_555
Mg2 Ti6 3.135200 1_545
Mg3 Ti6 2.968695 1_555
Mg3 Ti3 2.968819 1_655
Mg3 Ti3 2.968819 1_555
Mg3 Ti4 2.973915 1_556
Mg3 Ti2 3.003245 1_645
Mg3 Ti2 3.003245 1_545
Mg3 Ti7 3.080580 1_545
Mg3 Ti7 3.102326 1_555
Mg3 Ti6 3.135200 1_545
Ti0 Ti4 2.839539 1_555
Ti0 Ti4 2.839539 1_455
Ti0 Ti5 2.873228 1_455
Ti0 Ti5 2.873228 1_555
Ti0 Ti7 2.873228 1_554
Ti0 Ti7 2.873228 1_454
Ti0 Ti1 2.939508 1_555
Ti0 Ti3 2.939508 1_554
Ti1 Ti2 2.786541 1_555
Ti1 Ti6 2.873228 1_455
Ti1 Ti6 2.873228 1_555
Ti1 Ti3 2.890823 1_555
Ti1 Ti5 2.928024 1_455
Ti1 Ti5 2.928024 1_555
Ti1 Ti2 3.341171 1_545
Ti2 Ti3 2.786541 1_555
Ti2 Ti6 2.839539 1_455
Ti2 Ti6 2.839539 1_555
Ti2 Ti3 3.341171 1_565
Ti3 Ti6 2.873228 1_555
Ti3 Ti6 2.873228 1_455
Ti3 Ti7 2.928024 1_555
Ti3 Ti7 2.928024 1_455
Ti4 Ti5 2.786541 1_555
Ti4 Ti7 2.786541 1_554
Ti4 Ti5 3.341171 1_545
Ti4 Ti7 3.341171 1_544
Ti5 Ti7 2.890823 1_554
Ti5 Ti6 2.939508 1_555
Ti6 Ti7 2.939508 1_555
