# generated using pymatgen
data_CeBeSiHO5
_symmetry_space_group_name_H-M   'P 1'
_cell_length_a   5.87957450
_cell_length_b   7.40613231
_cell_length_c   10.21289079
_cell_angle_alpha   89.98819575
_cell_angle_beta   119.18111239
_cell_angle_gamma   89.99276160
_symmetry_Int_Tables_number   1
_chemical_formula_structural   CeBeSiHO5
_chemical_formula_sum   'Ce4 Be4 Si4 H4 O20'
_cell_volume   388.27684080
_cell_formula_units_Z   4
loop_
 _symmetry_equiv_pos_site_id
 _symmetry_equiv_pos_as_xyz
  1  'x, y, z'
loop_
 _atom_site_type_symbol
 _atom_site_label
 _atom_site_symmetry_multiplicity
 _atom_site_fract_x
 _atom_site_fract_y
 _atom_site_fract_z
 _atom_site_occupancy
  Ce  Ce0  1  0.01171100  0.01527800  0.31429700  1
  Ce  Ce1  1  0.01141000  0.48458100  0.81418100  1
  Ce  Ce2  1  0.98859000  0.51541900  0.18581900  1
  Ce  Ce3  1  0.98828900  0.98472200  0.68570300  1
  Be  Be0  1  0.56863000  0.12533400  0.96294600  1
  Be  Be1  1  0.56847900  0.37460400  0.46294200  1
  Be  Be2  1  0.43152100  0.62539600  0.53705800  1
  Be  Be3  1  0.43137000  0.87466600  0.03705400  1
  Si  Si0  1  0.53413400  0.72531800  0.81345500  1
  Si  Si1  1  0.53438200  0.77462600  0.31345100  1
  Si  Si2  1  0.46561800  0.22537400  0.68654900  1
  Si  Si3  1  0.46586600  0.27468200  0.18654500  1
  H  H0  1  0.94348200  0.34061300  0.49990700  1
  H  H1  1  0.94407900  0.15879700  0.00017700  1
  H  H2  1  0.05592100  0.84120300  0.99982300  1
  H  H3  1  0.05651800  0.65938700  0.50009300  1
  O  O0  1  0.45842100  0.40605100  0.58692300  1
  O  O1  1  0.45873900  0.09396000  0.08704400  1
  O  O2  1  0.63000700  0.74252700  0.68466500  1
  O  O3  1  0.63014600  0.75734700  0.18462300  1
  O  O4  1  0.26826100  0.42567500  0.06917700  1
  O  O5  1  0.26817700  0.07438400  0.56927500  1
  O  O6  1  0.22294200  0.82721800  0.22484700  1
  O  O7  1  0.22270700  0.67278800  0.72486700  1
  O  O8  1  0.13235900  0.68042900  0.43484500  1
  O  O9  1  0.13211800  0.81997100  0.93479200  1
  O  O10  1  0.86788200  0.18002900  0.06520800  1
  O  O11  1  0.86764100  0.31957100  0.56515500  1
  O  O12  1  0.77729300  0.32721200  0.27513300  1
  O  O13  1  0.77705800  0.17278300  0.77515300  1
  O  O14  1  0.73182300  0.92561600  0.43072500  1
  O  O15  1  0.73173900  0.57432500  0.93082300  1
  O  O16  1  0.36985400  0.24265300  0.81537700  1
  O  O17  1  0.36999300  0.25747300  0.31533500  1
  O  O18  1  0.54126100  0.90604000  0.91295600  1
  O  O19  1  0.54157900  0.59394900  0.41307700  1
loop_
_geom_bond_atom_site_label_1
_geom_bond_atom_site_label_2
_geom_bond_distance
_geom_bond_site_symmetry_2
Ce0 O5 2.327682 1_555
Ce0 O6 2.328807 1_545
Ce0 O14 2.543812 1_445
Ce0 O10 2.564395 1_455
Ce0 O12 2.618780 1_455
Ce0 O8 2.704749 1_545
Ce0 O3 2.746076 1_445
Ce0 O17 2.763023 1_555
Ce0 O1 2.989557 1_455
Ce1 O4 2.327511 1_556
Ce1 O7 2.328796 1_555
Ce1 O15 2.544586 1_455
Ce1 O11 2.565428 1_455
Ce1 O13 2.618313 1_455
Ce1 O9 2.709277 1_555
Ce1 O2 2.744690 1_455
Ce1 O16 2.761522 1_555
Ce1 O0 2.989767 1_455
Ce2 O15 2.327511 1_554
Ce2 O12 2.328796 1_555
Ce2 O4 2.544586 1_655
Ce2 O8 2.565428 1_655
Ce2 O6 2.618319 1_655
Ce2 O10 2.709277 1_555
Ce2 O17 2.744690 1_655
Ce2 O3 2.761522 1_555
Ce2 O19 2.989767 1_655
Ce3 O14 2.327682 1_555
Ce3 O13 2.328811 1_565
Ce3 O5 2.543812 1_665
Ce3 O9 2.564395 1_655
Ce3 O7 2.618780 1_655
Ce3 O11 2.704749 1_565
Ce3 O16 2.746076 1_665
Ce3 O2 2.763023 1_555
Ce3 O18 2.989557 1_655
Be0 O10 1.599700 1_556
Be0 O16 1.635184 1_555
Be0 O18 1.686597 1_545
Be0 O1 1.695936 1_556
Be1 O11 1.599642 1_555
Be1 O17 1.634702 1_555
Be1 O19 1.686538 1_555
Be1 O0 1.695676 1_555
Be2 O8 1.599642 1_555
Be2 O2 1.634702 1_555
Be2 O0 1.686538 1_555
Be2 O19 1.695676 1_555
Be3 O9 1.599700 1_554
Be3 O3 1.635184 1_555
Be3 O1 1.686597 1_565
Be3 O18 1.695936 1_554
H0 O11 0.978216 1_555
H1 O10 0.978116 1_555
H2 O9 0.978116 1_555
H3 O8 0.978216 1_555
O0 Si2 1.668842 1_555
O1 Si3 1.668804 1_555
O2 Si0 1.669434 1_555
O3 Si1 1.669411 1_555
O4 Si3 1.636545 1_555
O5 Si2 1.636357 1_555
O6 Si1 1.645442 1_555
O7 Si0 1.645465 1_555
O12 Si3 1.645465 1_555
O13 Si2 1.645440 1_555
O14 Si1 1.636357 1_555
O15 Si0 1.636545 1_555
O16 Si2 1.669411 1_555
O17 Si3 1.669434 1_555
O18 Si0 1.668804 1_555
O19 Si1 1.668842 1_555
