# generated using pymatgen
data_Al4Tc
_symmetry_space_group_name_H-M   'P 1'
_cell_length_a   5.16078134
_cell_length_b   5.10521406
_cell_length_c   9.11261837
_cell_angle_alpha   87.03143041
_cell_angle_beta   73.55070042
_cell_angle_gamma   79.46193097
_symmetry_Int_Tables_number   1
_chemical_formula_structural   Al4Tc
_chemical_formula_sum   'Al12 Tc3'
_cell_volume   226.37880078
_cell_formula_units_Z   3
loop_
 _symmetry_equiv_pos_site_id
 _symmetry_equiv_pos_as_xyz
  1  'x, y, z'
loop_
 _atom_site_type_symbol
 _atom_site_label
 _atom_site_symmetry_multiplicity
 _atom_site_fract_x
 _atom_site_fract_y
 _atom_site_fract_z
 _atom_site_occupancy
  Al  Al0  1  0.84935495  0.51018075  0.00000000  1
  Al  Al1  1  0.50516051  0.14712286  0.00000000  1
  Al  Al2  1  0.27089308  0.68607470  0.15243040  1
  Al  Al3  1  0.42332348  0.68607470  0.84756960  1
  Al  Al4  1  0.05739450  0.21977852  0.23847983  1
  Al  Al5  1  0.29587233  0.21977852  0.76152017  1
  Al  Al6  1  0.95484132  0.80731494  0.74773076  1
  Al  Al7  1  0.70257208  0.80731494  0.25226924  1
  Al  Al8  1  0.07492831  0.58646616  0.46507011  1
  Al  Al9  1  0.53999642  0.58646616  0.53492989  1
  Al  Al10  1  0.23029471  0.06751284  0.49606908  1
  Al  Al11  1  0.72636379  0.06751284  0.50393092  1
  Tc  Tc0  1  0.01164338  0.99467044  0.00000000  1
  Tc  Tc1  1  0.80487649  0.32986681  0.72461014  1
  Tc  Tc2  1  0.52948563  0.32986681  0.27538986  1
loop_
_geom_bond_atom_site_label_1
_geom_bond_atom_site_label_2
_geom_bond_distance
_geom_bond_site_symmetry_2
Al0 Tc0 2.611806 1_645
Al0 Al6 2.667248 1_554
Al0 Al7 2.667248 1_555
Al0 Tc0 2.752640 1_655
Al0 Al1 2.791949 1_555
Al0 Tc1 2.800105 1_554
Al0 Tc2 2.800107 1_555
Al0 Al3 2.906563 1_554
Al0 Al2 2.906563 1_555
Al0 Al5 2.911843 1_654
Al0 Al4 2.911847 1_655
Al1 Tc0 2.587243 1_645
Al1 Al4 2.669479 1_555
Al1 Al5 2.669485 1_554
Al1 Tc2 2.765431 1_555
Al1 Tc1 2.765432 1_554
Al1 Tc0 2.796015 1_545
Al1 Al2 2.946597 1_545
Al1 Al3 2.946597 1_544
Al1 Al3 3.031450 1_554
Al1 Al2 3.031450 1_555
Al1 Al7 3.098214 1_545
Al1 Al6 3.098214 1_544
Al2 Tc2 2.468115 1_555
Al2 Tc0 2.501272 1_555
Al2 Al3 2.664375 1_554
Al2 Al7 2.774220 1_455
Al2 Al4 2.787942 1_555
Al2 Al8 2.793618 1_555
Al2 Al7 2.807935 1_555
Al2 Al4 2.808310 1_565
Al3 Tc1 2.468117 1_555
Al3 Tc0 2.501272 1_556
Al3 Al6 2.774220 1_455
Al3 Al5 2.787947 1_555
Al3 Al9 2.793620 1_555
Al3 Al6 2.807935 1_555
Al3 Al5 2.808312 1_565
Al4 Tc0 2.597630 1_545
Al4 Tc2 2.606151 1_455
Al4 Tc2 2.710972 1_555
Al4 Al8 2.888652 1_555
Al4 Al7 3.009262 1_445
Al5 Tc0 2.597626 1_546
Al5 Tc1 2.606136 1_455
Al5 Tc1 2.710987 1_555
Al5 Al9 2.888651 1_555
Al5 Al6 3.009255 1_445
Al6 Tc0 2.645258 1_656
Al6 Tc1 2.653135 1_565
Al6 Tc1 2.724006 1_555
Al6 Al8 2.726003 1_655
Al7 Tc0 2.645258 1_655
Al7 Tc2 2.653135 1_565
Al7 Tc2 2.724008 1_555
Al7 Al9 2.726004 1_555
Al8 Tc2 2.649707 1_555
Al8 Al9 2.651629 1_555
Al8 Al9 2.651649 1_455
Al8 Tc1 2.780690 1_455
Al9 Tc1 2.649716 1_555
Al9 Tc2 2.780689 1_555
Al10 Al11 2.581305 1_455
Al10 Al11 2.581305 1_555
Al10 Tc2 2.634579 1_555
Al10 Al8 2.648695 1_555
Al10 Al5 2.706431 1_555
Al10 Al9 2.739686 1_545
Al10 Al6 2.751999 1_445
Al10 Tc1 2.752307 1_455
Al10 Al4 2.766556 1_555
Al10 Al8 2.770247 1_545
Al10 Al7 2.948833 1_545
Al11 Tc1 2.634581 1_555
Al11 Al9 2.648697 1_555
Al11 Al4 2.706435 1_655
Al11 Al8 2.739690 1_645
Al11 Al7 2.751999 1_545
Al11 Tc2 2.752310 1_555
Al11 Al5 2.766561 1_555
Al11 Al9 2.770252 1_545
Al11 Al6 2.948833 1_545
