# generated using pymatgen
data_Sm2Ga2(Fe5C)3
_symmetry_space_group_name_H-M   'P 1'
_cell_length_a   6.57258829
_cell_length_b   6.57258829
_cell_length_c   6.57258827
_cell_angle_alpha   83.43552024
_cell_angle_beta   83.43552024
_cell_angle_gamma   83.43551626
_symmetry_Int_Tables_number   1
_chemical_formula_structural   Sm2Ga2(Fe5C)3
_chemical_formula_sum   'Sm2 Ga2 Fe15 C3'
_cell_volume   278.73934028
_cell_formula_units_Z   1
loop_
 _symmetry_equiv_pos_site_id
 _symmetry_equiv_pos_as_xyz
  1  'x, y, z'
loop_
 _atom_site_type_symbol
 _atom_site_label
 _atom_site_symmetry_multiplicity
 _atom_site_fract_x
 _atom_site_fract_y
 _atom_site_fract_z
 _atom_site_occupancy
  Sm  Sm0  1  0.65160400  0.65160400  0.65160400  1
  Sm  Sm1  1  0.34839600  0.34839600  0.34839600  1
  Ga  Ga0  1  0.89760000  0.89760000  0.89760000  1
  Ga  Ga1  1  0.10240000  0.10240000  0.10240000  1
  Fe  Fe0  1  0.00000000  0.00000000  0.50000000  1
  Fe  Fe1  1  0.50000000  0.00000000  0.00000000  1
  Fe  Fe2  1  0.00000000  0.50000000  0.00000000  1
  Fe  Fe3  1  0.71489700  0.28510300  0.00000000  1
  Fe  Fe4  1  0.00000000  0.71489700  0.28510300  1
  Fe  Fe5  1  0.28510300  0.00000000  0.71489700  1
  Fe  Fe6  1  0.00000000  0.28510300  0.71489700  1
  Fe  Fe7  1  0.71489700  0.00000000  0.28510300  1
  Fe  Fe8  1  0.28510300  0.71489700  0.00000000  1
  Fe  Fe9  1  0.34386200  0.34386200  0.85368300  1
  Fe  Fe10  1  0.85368300  0.34386200  0.34386200  1
  Fe  Fe11  1  0.34386200  0.85368300  0.34386200  1
  Fe  Fe12  1  0.65613800  0.65613800  0.14631700  1
  Fe  Fe13  1  0.14631700  0.65613800  0.65613800  1
  Fe  Fe14  1  0.65613800  0.14631700  0.65613800  1
  C  C0  1  0.50000000  0.50000000  0.00000000  1
  C  C1  1  0.00000000  0.50000000  0.50000000  1
  C  C2  1  0.50000000  0.00000000  0.50000000  1
loop_
_geom_bond_atom_site_label_1
_geom_bond_atom_site_label_2
_geom_bond_distance
_geom_bond_site_symmetry_2
Ga0 Ga1 2.584281 1_666
Ga0 Sm0 3.104116 1_555
Ga1 Sm1 3.104116 1_555
Fe0 Fe7 2.472140 1_455
Fe0 Fe5 2.472140 1_555
Fe0 Fe6 2.472140 1_555
Fe0 Fe4 2.472140 1_545
Fe0 Fe13 2.506844 1_545
Fe0 Fe11 2.506844 1_545
Fe0 Fe10 2.506844 1_455
Fe0 Fe14 2.506844 1_455
Fe0 Ga0 2.652239 1_445
Fe0 Ga1 2.652239 1_555
Fe0 Sm1 3.411059 1_555
Fe0 Sm0 3.411059 1_445
Fe1 Fe5 2.472140 1_554
Fe1 Fe7 2.472140 1_555
Fe1 Fe3 2.472140 1_555
Fe1 Fe8 2.472140 1_545
Fe1 Fe9 2.506844 1_554
Fe1 Fe12 2.506844 1_545
Fe1 Fe14 2.506844 1_554
Fe1 Fe11 2.506844 1_545
Fe1 Ga0 2.652239 1_544
Fe1 Ga1 2.652239 1_555
Fe1 Sm1 3.411059 1_555
Fe1 Sm0 3.411059 1_544
Fe2 Fe6 2.472140 1_554
Fe2 Fe4 2.472140 1_555
Fe2 Fe8 2.472140 1_555
Fe2 Fe3 2.472140 1_455
Fe2 Fe9 2.506844 1_554
Fe2 Ga0 2.652239 1_454
Fe2 Ga1 2.652239 1_555
Fe2 Sm1 3.411059 1_555
Fe2 Sm0 3.411059 1_454
Fe3 Ga0 2.808828 1_544
Fe3 Ga1 2.808828 1_655
Fe4 Ga0 2.808828 1_454
Fe4 Ga1 2.808828 1_565
Fe5 Ga1 2.808828 1_556
Fe5 Ga0 2.808828 1_445
Fe6 Ga1 2.808828 1_556
Fe6 Ga0 2.808828 1_445
Fe7 Ga0 2.808828 1_544
Fe7 Ga1 2.808828 1_655
Fe8 Ga1 2.808828 1_565
Fe8 Ga0 2.808828 1_454
Fe9 Ga1 2.664422 1_556
Fe10 Fe2 2.506844 1_655
Fe10 Ga1 2.664421 1_655
Fe11 Ga1 2.664421 1_565
Fe12 Fe2 2.506844 1_655
Fe12 Ga0 2.664422 1_554
Fe13 Fe2 2.506844 1_556
Fe13 Ga0 2.664421 1_455
Fe14 Ga0 2.664421 1_545
C0 Fe8 1.879836 1_555
C0 Fe3 1.879836 1_555
C0 Fe12 1.929566 1_555
C0 Fe9 1.929566 1_554
C0 Sm1 2.532361 1_555
C0 Sm0 2.532361 1_554
C1 Fe6 1.879836 1_555
C1 Fe4 1.879836 1_555
C1 Fe10 1.929566 1_455
C1 Fe13 1.929566 1_555
C1 Sm0 2.532361 1_455
C1 Sm1 2.532361 1_555
C2 Fe5 1.879836 1_555
C2 Fe7 1.879836 1_555
C2 Fe14 1.929566 1_555
C2 Fe11 1.929566 1_545
C2 Sm0 2.532361 1_545
C2 Sm1 2.532361 1_555
