# generated using pymatgen
data_Co5As2
_symmetry_space_group_name_H-M   'P 1'
_cell_length_a   6.78679982
_cell_length_b   6.78679982
_cell_length_c   12.37938000
_cell_angle_alpha   90.00000000
_cell_angle_beta   90.00000000
_cell_angle_gamma   119.99999822
_symmetry_Int_Tables_number   1
_chemical_formula_structural   Co5As2
_chemical_formula_sum   'Co30 As12'
_cell_volume   493.80969569
_cell_formula_units_Z   6
loop_
 _symmetry_equiv_pos_site_id
 _symmetry_equiv_pos_as_xyz
  1  'x, y, z'
loop_
 _atom_site_type_symbol
 _atom_site_label
 _atom_site_symmetry_multiplicity
 _atom_site_fract_x
 _atom_site_fract_y
 _atom_site_fract_z
 _atom_site_occupancy
  Co  Co0  1  0.00000000  0.00000000  0.94714300  1
  Co  Co1  1  0.00000000  0.00000000  0.44714300  1
  Co  Co2  1  0.33333300  0.66666700  0.08582600  1
  Co  Co3  1  0.66666700  0.33333300  0.58582600  1
  Co  Co4  1  0.33333300  0.66666700  0.58582600  1
  Co  Co5  1  0.66666700  0.33333300  0.08582600  1
  Co  Co6  1  0.27060900  0.00000000  0.11747700  1
  Co  Co7  1  0.27060900  0.27060900  0.61747700  1
  Co  Co8  1  0.00000000  0.72939100  0.61747700  1
  Co  Co9  1  0.00000000  0.27060900  0.11747700  1
  Co  Co10  1  0.72939100  0.72939100  0.11747700  1
  Co  Co11  1  0.72939100  0.00000000  0.61747700  1
  Co  Co12  1  0.62637700  0.00000000  0.21221000  1
  Co  Co13  1  0.62637700  0.62637700  0.71221000  1
  Co  Co14  1  0.00000000  0.37362300  0.71221000  1
  Co  Co15  1  0.00000000  0.62637700  0.21221000  1
  Co  Co16  1  0.37362300  0.37362300  0.21221000  1
  Co  Co17  1  0.37362300  0.00000000  0.71221000  1
  Co  Co18  1  0.30685600  0.00000000  0.32233000  1
  Co  Co19  1  0.30685600  0.30685600  0.82233000  1
  Co  Co20  1  0.00000000  0.69314400  0.82233000  1
  Co  Co21  1  0.00000000  0.30685600  0.32233000  1
  Co  Co22  1  0.69314400  0.69314400  0.32233000  1
  Co  Co23  1  0.69314400  0.00000000  0.82233000  1
  Co  Co24  1  0.63001200  0.00000000  0.42327100  1
  Co  Co25  1  0.63001200  0.63001200  0.92327100  1
  Co  Co26  1  0.00000000  0.36998800  0.92327100  1
  Co  Co27  1  0.00000000  0.63001200  0.42327100  1
  Co  Co28  1  0.36998800  0.36998800  0.42327100  1
  Co  Co29  1  0.36998800  0.00000000  0.92327100  1
  As  As0  1  0.00000000  0.00000000  0.24493700  1
  As  As1  1  0.00000000  0.00000000  0.74493700  1
  As  As2  1  0.33333300  0.66666700  0.29007400  1
  As  As3  1  0.66666700  0.33333300  0.79007400  1
  As  As4  1  0.33333300  0.66666700  0.79007400  1
  As  As5  1  0.66666700  0.33333300  0.29007400  1
  As  As6  1  0.67135000  0.00000000  0.01608400  1
  As  As7  1  0.67135000  0.67135000  0.51608400  1
  As  As8  1  0.00000000  0.32865000  0.51608400  1
  As  As9  1  0.00000000  0.67135000  0.01608400  1
  As  As10  1  0.32865000  0.32865000  0.01608400  1
  As  As11  1  0.32865000  0.00000000  0.51608400  1
loop_
_geom_bond_atom_site_label_1
_geom_bond_atom_site_label_2
_geom_bond_distance
_geom_bond_site_symmetry_2
As0 Co18 2.292381 1_555
As0 Co21 2.292381 1_555
As0 Co22 2.292381 1_445
As0 Co6 2.421297 1_555
As0 Co9 2.421297 1_555
As0 Co10 2.421297 1_445
As0 Co1 2.503185 1_555
As0 Co12 2.567866 1_455
As0 Co15 2.567866 1_545
As0 Co16 2.567866 1_555
As1 Co23 2.292381 1_455
As1 Co20 2.292381 1_545
As1 Co19 2.292381 1_555
As1 Co11 2.421297 1_455
As1 Co8 2.421297 1_545
As1 Co7 2.421297 1_555
As1 Co0 2.503185 1_555
As1 Co14 2.567866 1_555
As1 Co17 2.567866 1_555
As1 Co13 2.567866 1_445
As2 Co15 2.345876 1_555
As2 Co12 2.345879 1_565
As2 Co16 2.345882 1_555
As2 Co18 2.390835 1_565
As2 Co21 2.390839 1_555
As2 Co22 2.390842 1_555
As2 Co2 2.528464 1_555
As2 Co27 2.708469 1_555
As2 Co24 2.708471 1_565
As2 Co28 2.708474 1_555
As3 Co14 2.345876 1_655
As3 Co17 2.345879 1_555
As3 Co13 2.345882 1_555
As3 Co23 2.390835 1_555
As3 Co20 2.390839 1_655
As3 Co19 2.390842 1_555
As3 Co3 2.528464 1_555
As3 Co26 2.708469 1_655
As3 Co29 2.708471 1_555
As3 Co25 2.708474 1_555
As4 Co17 2.345876 1_565
As4 Co14 2.345879 1_555
As4 Co13 2.345882 1_555
As4 Co20 2.390835 1_555
As4 Co23 2.390839 1_565
As4 Co19 2.390842 1_555
As4 Co4 2.528464 1_555
As4 Co29 2.708469 1_565
As4 Co26 2.708471 1_555
As4 Co25 2.708474 1_555
As5 Co12 2.345876 1_555
As5 Co15 2.345879 1_655
As5 Co16 2.345882 1_555
As5 Co21 2.390835 1_655
As5 Co18 2.390839 1_555
As5 Co22 2.390842 1_555
As5 Co5 2.528464 1_555
As5 Co24 2.708469 1_555
As5 Co27 2.708471 1_655
As5 Co28 2.708474 1_555
As6 Co29 2.345914 1_554
As6 Co0 2.388183 1_654
As6 Co23 2.403111 1_554
As6 Co10 2.413935 1_545
As6 Co9 2.413935 1_655
As6 Co5 2.436421 1_555
As6 Co2 2.436424 1_545
As6 Co12 2.447028 1_555
As6 Co25 2.645686 1_544
As6 Co26 2.645686 1_654
As7 Co28 2.345914 1_555
As7 Co1 2.388184 1_665
As7 Co22 2.403111 1_555
As7 Co11 2.413935 1_565
As7 Co8 2.413935 1_655
As7 Co4 2.436427 1_555
As7 Co3 2.436427 1_555
As7 Co13 2.447028 1_555
As7 Co24 2.645686 1_565
As7 Co27 2.645686 1_655
As8 Co27 2.345914 1_555
As8 Co1 2.388183 1_555
As8 Co21 2.403111 1_555
As8 Co7 2.413935 1_555
As8 Co11 2.413935 1_455
As8 Co3 2.436421 1_455
As8 Co4 2.436424 1_555
As8 Co14 2.447028 1_555
As8 Co28 2.645686 1_555
As8 Co24 2.645686 1_455
As9 Co26 2.345914 1_554
As9 Co0 2.388183 1_564
As9 Co20 2.403111 1_554
As9 Co10 2.413935 1_455
As9 Co6 2.413935 1_565
As9 Co2 2.436421 1_555
As9 Co5 2.436424 1_455
As9 Co15 2.447028 1_555
As9 Co25 2.645686 1_454
As9 Co29 2.645686 1_564
As10 Co25 2.345914 1_554
As10 Co0 2.388184 1_554
As10 Co19 2.403111 1_554
As10 Co6 2.413935 1_555
As10 Co9 2.413935 1_555
As10 Co2 2.436427 1_555
As10 Co5 2.436427 1_555
As10 Co16 2.447028 1_555
As10 Co26 2.645686 1_554
As10 Co29 2.645686 1_554
As11 Co24 2.345914 1_555
As11 Co1 2.388183 1_555
As11 Co18 2.403111 1_555
As11 Co7 2.413935 1_555
As11 Co8 2.413935 1_545
As11 Co4 2.436421 1_545
As11 Co3 2.436424 1_555
As11 Co17 2.447028 1_555
As11 Co28 2.645686 1_555
As11 Co27 2.645686 1_545
