# generated using pymatgen
data_Sc11Ir4
_symmetry_space_group_name_H-M   'P 1'
_cell_length_a   9.45442554
_cell_length_b   9.45442541
_cell_length_c   9.45442847
_cell_angle_alpha   59.99964312
_cell_angle_beta   59.99963138
_cell_angle_gamma   59.99962500
_symmetry_Int_Tables_number   1
_chemical_formula_structural   Sc11Ir4
_chemical_formula_sum   'Sc22 Ir8'
_cell_volume   597.56748212
_cell_formula_units_Z   2
loop_
 _symmetry_equiv_pos_site_id
 _symmetry_equiv_pos_as_xyz
  1  'x, y, z'
loop_
 _atom_site_type_symbol
 _atom_site_label
 _atom_site_symmetry_multiplicity
 _atom_site_fract_x
 _atom_site_fract_y
 _atom_site_fract_z
 _atom_site_occupancy
  Sc  Sc0  1  0.84344928  0.84344870  0.84344890  1
  Sc  Sc1  1  0.15655192  0.15655161  0.53034493  1
  Sc  Sc2  1  0.15655228  0.53034456  0.15655138  1
  Sc  Sc3  1  0.53034024  0.15655347  0.15655309  1
  Sc  Sc4  1  0.84344644  0.46965908  0.84344702  1
  Sc  Sc5  1  0.46965387  0.84344831  0.84344853  1
  Sc  Sc6  1  0.84344667  0.84344675  0.46965902  1
  Sc  Sc7  1  0.15655437  0.15655376  0.15655342  1
  Sc  Sc8  1  0.80217254  0.19782741  0.19782697  1
  Sc  Sc9  1  0.80216959  0.80217179  0.19783081  1
  Sc  Sc10  1  0.19782772  0.19783049  0.80217206  1
  Sc  Sc11  1  0.80216924  0.19783119  0.80217190  1
  Sc  Sc12  1  0.19782799  0.80217190  0.19783013  1
  Sc  Sc13  1  0.19783189  0.80216832  0.80216878  1
  Sc  Sc14  1  0.38270334  0.38270419  0.38270360  1
  Sc  Sc15  1  0.61729581  0.61729738  0.14811331  1
  Sc  Sc16  1  0.14811428  0.61729581  0.61729676  1
  Sc  Sc17  1  0.61729535  0.14811329  0.61729798  1
  Sc  Sc18  1  0.85188868  0.38270439  0.38270375  1
  Sc  Sc19  1  0.38270397  0.85188787  0.38270479  1
  Sc  Sc20  1  0.38270376  0.38270493  0.85188800  1
  Sc  Sc21  1  0.61729484  0.61729545  0.61729588  1
  Ir  Ir0  1  0.50000158  0.99999087  0.50000351  1
  Ir  Ir1  1  0.00000254  0.50000529  0.99999201  1
  Ir  Ir2  1  -0.00000370  0.50000120  0.50000171  1
  Ir  Ir3  1  0.50000187  0.50000330  0.99999058  1
  Ir  Ir4  1  0.00000228  0.99999233  0.50000551  1
  Ir  Ir5  1  0.50000596  -0.00000370  -0.00000423  1
  Ir  Ir6  1  0.50000248  0.49999842  0.49999888  1
  Ir  Ir7  1  0.00000092  0.99999766  0.99999700  1
loop_
_geom_bond_atom_site_label_1
_geom_bond_atom_site_label_2
_geom_bond_distance
_geom_bond_site_symmetry_2
Ir0 Sc5 2.739250 1_555
Ir0 Sc6 2.739255 1_555
Ir0 Sc1 2.739299 1_565
Ir0 Sc3 2.739312 1_565
Ir0 Sc21 2.958992 1_555
Ir0 Sc19 2.959040 1_555
Ir0 Sc14 2.959130 1_565
Ir0 Sc17 2.959134 1_565
Ir1 Sc0 2.739232 1_455
Ir1 Sc4 2.739287 1_455
Ir1 Sc2 2.739310 1_556
Ir1 Sc7 2.739317 1_556
Ir1 Sc16 2.958992 1_555
Ir1 Sc20 2.959032 1_555
Ir1 Sc15 2.959081 1_456
Ir1 Sc18 2.959117 1_456
Ir2 Sc6 2.739263 1_455
Ir2 Sc4 2.739263 1_455
Ir2 Sc1 2.739295 1_555
Ir2 Sc2 2.739302 1_555
Ir2 Sc21 2.959039 1_455
Ir2 Sc18 2.959065 1_455
Ir2 Sc14 2.959081 1_555
Ir2 Sc16 2.959109 1_555
Ir3 Sc5 2.739248 1_555
Ir3 Sc4 2.739252 1_555
Ir3 Sc2 2.739299 1_556
Ir3 Sc3 2.739307 1_556
Ir3 Sc21 2.958988 1_555
Ir3 Sc20 2.959037 1_555
Ir3 Sc14 2.959129 1_556
Ir3 Sc15 2.959135 1_556
Ir4 Sc0 2.739234 1_455
Ir4 Sc6 2.739290 1_455
Ir4 Sc1 2.739310 1_565
Ir4 Sc7 2.739322 1_565
Ir4 Sc16 2.959000 1_555
Ir4 Sc19 2.959035 1_555
Ir4 Sc17 2.959083 1_465
Ir4 Sc18 2.959118 1_465
Ir5 Sc0 2.739228 1_544
Ir5 Sc5 2.739275 1_544
Ir5 Sc7 2.739321 1_555
Ir5 Sc3 2.739324 1_555
Ir5 Sc17 2.959013 1_554
Ir5 Sc15 2.959021 1_545
Ir5 Sc20 2.959090 1_554
Ir5 Sc19 2.959094 1_545
Ir6 Sc17 2.716367 1_555
Ir6 Sc15 2.716371 1_555
Ir6 Sc18 2.716375 1_555
Ir6 Sc16 2.716390 1_555
Ir6 Sc21 2.716397 1_555
Ir6 Sc20 2.716399 1_555
Ir6 Sc19 2.716400 1_555
Ir6 Sc14 2.716414 1_555
Ir7 Sc11 2.645073 1_465
Ir7 Sc9 2.645075 1_456
Ir7 Sc13 2.645078 1_555
Ir7 Sc10 2.645092 1_565
Ir7 Sc8 2.645092 1_466
Ir7 Sc12 2.645096 1_556
