# generated using pymatgen
data_RbNaCaTh(Si2O5)4
_symmetry_space_group_name_H-M   'P 1'
_cell_length_a   7.68326354
_cell_length_b   7.68326354
_cell_length_c   14.86363596
_cell_angle_alpha   90.00000000
_cell_angle_beta   90.00000000
_cell_angle_gamma   90.00000000
_symmetry_Int_Tables_number   1
_chemical_formula_structural   RbNaCaTh(Si2O5)4
_chemical_formula_sum   'Rb2 Na2 Ca2 Th2 Si16 O40'
_cell_volume   877.43816392
_cell_formula_units_Z   2
loop_
 _symmetry_equiv_pos_site_id
 _symmetry_equiv_pos_as_xyz
  1  'x, y, z'
loop_
 _atom_site_type_symbol
 _atom_site_label
 _atom_site_symmetry_multiplicity
 _atom_site_fract_x
 _atom_site_fract_y
 _atom_site_fract_z
 _atom_site_occupancy
  Rb  Rb0  1  -0.00000000  0.00000000  0.50000000  1
  Rb  Rb1  1  0.00000000  0.00000000  -0.00000000  1
  Na  Na0  1  0.50000000  0.00000000  0.25000000  1
  Na  Na1  1  -0.00000000  0.50000000  0.75000000  1
  Ca  Ca0  1  -0.00000000  0.50000000  0.25000000  1
  Ca  Ca1  1  0.50000000  0.00000000  0.75000000  1
  Th  Th0  1  -0.00000000  -0.00000000  0.25000000  1
  Th  Th1  1  0.00000000  0.00000000  0.75000000  1
  Si  Si0  1  0.33306951  0.26217034  0.39063802  1
  Si  Si1  1  0.66693049  0.73782966  0.39063802  1
  Si  Si2  1  0.73396889  0.33497400  0.39108870  1
  Si  Si3  1  0.26603111  0.66502600  0.39108870  1
  Si  Si4  1  0.66502600  0.26603111  0.89108870  1
  Si  Si5  1  0.33497400  0.73396889  0.89108870  1
  Si  Si6  1  0.26217034  0.33306951  0.89063802  1
  Si  Si7  1  0.73782966  0.66693049  0.89063802  1
  Si  Si8  1  0.66502600  0.73396889  0.60891130  1
  Si  Si9  1  0.33497400  0.26603111  0.60891130  1
  Si  Si10  1  0.26217034  0.66693049  0.60936198  1
  Si  Si11  1  0.73782966  0.33306951  0.60936198  1
  Si  Si12  1  0.33306951  0.73782966  0.10936198  1
  Si  Si13  1  0.66693049  0.26217034  0.10936198  1
  Si  Si14  1  0.73396889  0.66502600  0.10891130  1
  Si  Si15  1  0.26603111  0.33497400  0.10891130  1
  O  O0  1  0.25458051  0.45589281  0.36241571  1
  O  O1  1  0.74541949  0.54410719  0.36241571  1
  O  O2  1  0.54139964  0.25867797  0.36366668  1
  O  O3  1  0.45860036  0.74132203  0.36366668  1
  O  O4  1  0.74132203  0.45860036  0.86366668  1
  O  O5  1  0.25867797  0.54139964  0.86366668  1
  O  O6  1  0.45589281  0.25458051  0.86241571  1
  O  O7  1  0.54410719  0.74541949  0.86241571  1
  O  O8  1  0.74132203  0.54139964  0.63633332  1
  O  O9  1  0.25867797  0.45860036  0.63633332  1
  O  O10  1  0.45589281  0.74541949  0.63758429  1
  O  O11  1  0.54410719  0.25458051  0.63758429  1
  O  O12  1  0.25458051  0.54410719  0.13758429  1
  O  O13  1  0.74541949  0.45589281  0.13758429  1
  O  O14  1  0.54139964  0.74132203  0.13633332  1
  O  O15  1  0.45860036  0.25867797  0.13633332  1
  O  O16  1  0.31181561  0.24342145  0.50013430  1
  O  O17  1  0.68818439  0.75657855  0.50013430  1
  O  O18  1  0.75657855  0.31181561  0.49986570  1
  O  O19  1  0.24342145  0.68818439  0.49986570  1
  O  O20  1  0.68818439  0.24342145  0.99986570  1
  O  O21  1  0.31181561  0.75657855  0.99986570  1
  O  O22  1  0.24342145  0.31181561  0.00013430  1
  O  O23  1  0.75657855  0.68818439  0.00013430  1
  O  O24  1  0.23727267  0.10714614  0.33913497  1
  O  O25  1  0.76272733  0.89285386  0.33913497  1
  O  O26  1  0.89283257  0.25064736  0.33623555  1
  O  O27  1  0.10716743  0.74935264  0.33623555  1
  O  O28  1  0.74935264  0.10716743  0.83623555  1
  O  O29  1  0.25064736  0.89283257  0.83623555  1
  O  O30  1  0.10714614  0.23727267  0.83913497  1
  O  O31  1  0.89285386  0.76272733  0.83913497  1
  O  O32  1  0.74935264  0.89283257  0.66376445  1
  O  O33  1  0.25064736  0.10716743  0.66376445  1
  O  O34  1  0.10714614  0.76272733  0.66086503  1
  O  O35  1  0.89285386  0.23727267  0.66086503  1
  O  O36  1  0.23727267  0.89285386  0.16086503  1
  O  O37  1  0.76272733  0.10714614  0.16086503  1
  O  O38  1  0.89283257  0.74935264  0.16376445  1
  O  O39  1  0.10716743  0.25064736  0.16376445  1
loop_
_geom_bond_atom_site_label_1
_geom_bond_atom_site_label_2
_geom_bond_distance
_geom_bond_site_symmetry_2
Na0 O36 2.551029 1_545
Na0 O25 2.551029 1_545
Na0 O37 2.551029 1_555
Na0 O24 2.551029 1_555
Na0 O15 2.627872 1_555
Na0 O14 2.627872 1_545
Na0 O2 2.627872 1_555
Na0 O3 2.627872 1_545
Na1 O34 2.551029 1_555
Na1 O31 2.551029 1_455
Na1 O30 2.551029 1_555
Na1 O35 2.551029 1_455
Na1 O5 2.627872 1_555
Na1 O8 2.627872 1_455
Na1 O9 2.627872 1_555
Na1 O4 2.627872 1_455
Ca0 O39 2.447729 1_555
Ca0 O27 2.447729 1_555
Ca0 O26 2.447729 1_455
Ca0 O38 2.447729 1_455
Ca0 O12 2.594753 1_555
Ca0 O0 2.594753 1_555
Ca0 O13 2.594753 1_455
Ca0 O1 2.594753 1_455
Ca1 O29 2.447729 1_545
Ca1 O32 2.447729 1_545
Ca1 O28 2.447729 1_555
Ca1 O33 2.447729 1_555
Ca1 O6 2.594753 1_555
Ca1 O11 2.594753 1_555
Ca1 O10 2.594753 1_545
Ca1 O7 2.594753 1_545
O0 Si0 1.659830 1_555
O0 Si3 1.664711 1_555
O1 Si1 1.659830 1_555
O1 Si2 1.664711 1_555
O2 Si2 1.642821 1_555
O2 Si0 1.650313 1_555
O3 Si3 1.642821 1_555
O3 Si1 1.650313 1_555
O4 Si4 1.642821 1_555
O4 Si7 1.650313 1_555
O5 Si5 1.642821 1_555
O5 Si6 1.650313 1_555
O6 Si6 1.659830 1_555
O6 Si4 1.664711 1_555
O7 Si7 1.659830 1_555
O7 Si5 1.664711 1_555
O8 Si8 1.642821 1_555
O8 Si11 1.650313 1_555
O9 Si9 1.642821 1_555
O9 Si10 1.650313 1_555
O10 Si10 1.659830 1_555
O10 Si8 1.664711 1_555
O11 Si11 1.659830 1_555
O11 Si9 1.664711 1_555
O12 Si12 1.659830 1_555
O12 Si15 1.664711 1_555
O13 Si13 1.659830 1_555
O13 Si14 1.664711 1_555
O14 Si14 1.642821 1_555
O14 Si12 1.650313 1_555
O15 Si15 1.642821 1_555
O15 Si13 1.650313 1_555
O16 Si9 1.635833 1_555
O16 Si0 1.642016 1_555
O16 Rb0 3.039341 1_555
O17 Si8 1.635833 1_555
O17 Si1 1.642016 1_555
O17 Rb0 3.039341 1_665
O18 Si2 1.635833 1_555
O18 Si11 1.642016 1_555
O18 Rb0 3.039341 1_655
O19 Si3 1.635833 1_555
O19 Si10 1.642016 1_555
O19 Rb0 3.039341 1_565
O20 Si4 1.635833 1_555
O20 Si13 1.642016 1_556
O20 Rb1 3.039341 1_656
O21 Si5 1.635833 1_555
O21 Si12 1.642016 1_556
O21 Rb1 3.039341 1_566
O22 Si15 1.635833 1_555
O22 Si6 1.642016 1_554
O22 Rb1 3.039341 1_555
O23 Si14 1.635833 1_555
O23 Si7 1.642016 1_554
O23 Rb1 3.039341 1_665
O24 Si0 1.595766 1_555
O24 Th0 2.399255 1_555
O24 Rb0 3.117405 1_555
O25 Si1 1.595766 1_555
O25 Th0 2.399255 1_665
O25 Rb0 3.117405 1_665
O26 Si2 1.604483 1_555
O26 Th0 2.455522 1_655
O26 Rb0 3.211177 1_655
O27 Si3 1.604483 1_555
O27 Th0 2.455522 1_565
O27 Rb0 3.211177 1_565
O28 Si4 1.604483 1_555
O28 Th1 2.455522 1_655
O28 Rb1 3.211177 1_656
O29 Si5 1.604483 1_555
O29 Th1 2.455522 1_565
O29 Rb1 3.211177 1_566
O30 Si6 1.595766 1_555
O30 Th1 2.399255 1_555
O30 Rb1 3.117405 1_556
O31 Si7 1.595766 1_555
O31 Th1 2.399255 1_665
O31 Rb1 3.117405 1_666
O32 Si8 1.604483 1_555
O32 Th1 2.455522 1_665
O32 Rb0 3.211177 1_665
O33 Si9 1.604483 1_555
O33 Th1 2.455522 1_555
O33 Rb0 3.211177 1_555
O34 Si10 1.595766 1_555
O34 Th1 2.399255 1_565
O34 Rb0 3.117405 1_565
O35 Si11 1.595766 1_555
O35 Th1 2.399255 1_655
O35 Rb0 3.117405 1_655
O36 Si12 1.595766 1_555
O36 Th0 2.399255 1_565
O36 Rb1 3.117405 1_565
O37 Si13 1.595766 1_555
O37 Th0 2.399255 1_655
O37 Rb1 3.117405 1_655
O38 Si14 1.604483 1_555
O38 Th0 2.455522 1_665
O38 Rb1 3.211177 1_665
O39 Si15 1.604483 1_555
O39 Th0 2.455522 1_555
O39 Rb1 3.211177 1_555
