# generated using pymatgen
data_ZnH7C3NO6
_symmetry_space_group_name_H-M   'P 1'
_cell_length_a   7.35322555
_cell_length_b   7.46898815
_cell_length_c   8.26014238
_cell_angle_alpha   90.93434360
_cell_angle_beta   89.99999891
_cell_angle_gamma   119.48860409
_symmetry_Int_Tables_number   1
_chemical_formula_structural   ZnH7C3NO6
_chemical_formula_sum   'Zn2 H14 C6 N2 O12'
_cell_volume   394.81769365
_cell_formula_units_Z   2
loop_
 _symmetry_equiv_pos_site_id
 _symmetry_equiv_pos_as_xyz
  1  'x, y, z'
loop_
 _atom_site_type_symbol
 _atom_site_label
 _atom_site_symmetry_multiplicity
 _atom_site_fract_x
 _atom_site_fract_y
 _atom_site_fract_z
 _atom_site_occupancy
  Zn  Zn0  1  0.33523400  0.66742200  0.25055200  1
  Zn  Zn1  1  0.66781200  0.33257800  0.74944800  1
  H  H0  1  0.99952400  0.41567500  0.49655200  1
  H  H1  1  0.41522100  0.00000000  0.50000000  1
  H  H2  1  0.58385000  0.58432500  0.50344800  1
  H  H3  1  0.99873500  0.58469400  0.99904300  1
  H  H4  1  0.58204300  0.00000000  0.00000000  1
  H  H5  1  0.41404200  0.41530600  0.00095700  1
  H  H6  1  0.89454100  0.92903500  0.34677700  1
  H  H7  1  0.08273800  0.15282500  0.27205100  1
  H  H8  1  0.96550600  0.07096500  0.65322300  1
  H  H9  1  0.92991400  0.84717500  0.72794900  1
  H  H10  1  0.92767300  0.03774500  0.84624700  1
  H  H11  1  0.15491500  0.06799100  0.77354400  1
  H  H12  1  0.88992700  0.96225500  0.15375300  1
  H  H13  1  0.08692400  0.93200900  0.22645600  1
  C  C0  1  0.00228900  0.56496500  0.50166200  1
  C  C1  1  0.56572300  0.00000000  0.50000000  1
  C  C2  1  0.43732400  0.43503500  0.49833800  1
  C  C3  1  0.00080200  0.43775000  0.99979100  1
  C  C4  1  0.43164300  0.00000000  0.00000000  1
  C  C5  1  0.56305200  0.56225000  0.00020900  1
  N  N0  1  0.99183400  0.99579700  0.24992100  1
  N  N1  1  0.99603700  0.00420300  0.75007900  1
  O  O0  1  0.11484500  0.69994400  0.40024400  1
  O  O1  1  0.58892800  0.88242800  0.39961100  1
  O  O2  1  0.30242500  0.41049000  0.39086400  1
  O  O3  1  0.41490100  0.30005600  0.59975600  1
  O  O4  1  0.70649900  0.11757200  0.60038900  1
  O  O5  1  0.89193500  0.58951000  0.60913600  1
  O  O6  1  0.88545400  0.29805800  0.89755200  1
  O  O7  1  0.40607000  0.10789200  0.89441000  1
  O  O8  1  0.69985700  0.58274900  0.89769100  1
  O  O9  1  0.58739500  0.70194200  0.10244800  1
  O  O10  1  0.29817800  0.89210800  0.10559000  1
  O  O11  1  0.11710800  0.41725100  0.10230900  1
loop_
_geom_bond_atom_site_label_1
_geom_bond_atom_site_label_2
_geom_bond_distance
_geom_bond_site_symmetry_2
H6 N0 1.030699 1_555
H7 N0 1.037770 1_445
H8 N1 1.030699 1_555
H9 N1 1.037770 1_565
H10 N1 1.031490 1_555
H11 N1 1.038468 1_455
H12 N0 1.031494 1_555
H13 N0 1.038468 1_455
C0 H0 1.105290 1_455
C0 O0 1.268561 1_555
C0 O5 1.273311 1_455
C1 H1 1.106675 1_555
C1 O4 1.269500 1_555
C1 O1 1.269503 1_545
C2 H2 1.105294 1_555
C2 O3 1.268561 1_555
C2 O2 1.273311 1_555
C3 H3 1.105201 1_455
C3 O11 1.266919 1_556
C3 O6 1.273273 1_455
C4 H4 1.105925 1_555
C4 O10 1.271836 1_545
C4 O7 1.271836 1_554
C5 H5 1.105198 1_555
C5 O8 1.266919 1_554
C5 O9 1.273275 1_555
O0 Zn0 2.142867 1_555
O1 Zn0 2.135655 1_555
O2 Zn0 2.168148 1_555
O3 Zn1 2.142867 1_555
O4 Zn1 2.135651 1_555
O5 Zn1 2.168148 1_555
O6 Zn1 2.130912 1_555
O7 Zn1 2.200006 1_555
O8 Zn1 2.130315 1_555
O9 Zn0 2.130906 1_555
O10 Zn0 2.200006 1_555
O11 Zn0 2.130315 1_555
