# generated using pymatgen
data_Na3La(BO3)2
_symmetry_space_group_name_H-M   'P 1'
_cell_length_a   8.95605800
_cell_length_b   6.75107700
_cell_length_c   12.30671990
_cell_angle_alpha   57.83988576
_cell_angle_beta   90.00000000
_cell_angle_gamma   90.00000000
_symmetry_Int_Tables_number   1
_chemical_formula_structural   Na3La(BO3)2
_chemical_formula_sum   'Na12 La4 B8 O24'
_cell_volume   629.92961807
_cell_formula_units_Z   4
loop_
 _symmetry_equiv_pos_site_id
 _symmetry_equiv_pos_as_xyz
  1  'x, y, z'
loop_
 _atom_site_type_symbol
 _atom_site_label
 _atom_site_symmetry_multiplicity
 _atom_site_fract_x
 _atom_site_fract_y
 _atom_site_fract_z
 _atom_site_occupancy
  Na  Na0  1  0.93729700  0.61302400  0.60657500  1
  Na  Na1  1  0.06270300  0.38697600  0.39342500  1
  Na  Na2  1  0.43729700  0.38697600  0.89342500  1
  Na  Na3  1  0.56270300  0.61302400  0.10657500  1
  Na  Na4  1  0.23662600  0.81802900  0.65751000  1
  Na  Na5  1  0.76337400  0.18197100  0.34249000  1
  Na  Na6  1  0.73662600  0.18197100  0.84249000  1
  Na  Na7  1  0.26337400  0.81802900  0.15751000  1
  Na  Na8  1  0.31118500  0.41809100  0.60301200  1
  Na  Na9  1  0.68881500  0.58190900  0.39698800  1
  Na  Na10  1  0.81118500  0.58190900  0.89698800  1
  Na  Na11  1  0.18881500  0.41809100  0.10301200  1
  La  La0  1  0.11337000  0.98514000  0.85470400  1
  La  La1  1  0.88663000  0.01486000  0.14529600  1
  La  La2  1  0.61337000  0.01486000  0.64529600  1
  La  La3  1  0.38663000  0.98514000  0.35470400  1
  B  B0  1  0.09865700  0.41790200  0.86075000  1
  B  B1  1  0.90134300  0.58209800  0.13925000  1
  B  B2  1  0.59865700  0.58209800  0.63925000  1
  B  B3  1  0.40134300  0.41790200  0.36075000  1
  B  B4  1  0.43192200  0.87007600  0.87484800  1
  B  B5  1  0.56807800  0.12992400  0.12515200  1
  B  B6  1  0.93192200  0.12992400  0.62515200  1
  B  B7  1  0.06807800  0.87007600  0.37484800  1
  O  O0  1  0.36439900  0.98802600  0.75277500  1
  O  O1  1  0.63560100  0.01197400  0.24722500  1
  O  O2  1  0.86439900  0.01197400  0.74722500  1
  O  O3  1  0.13560100  0.98802600  0.25277500  1
  O  O4  1  0.10107600  0.61302100  0.86910400  1
  O  O5  1  0.89892400  0.38697900  0.13089600  1
  O  O6  1  0.60107600  0.38697900  0.63089600  1
  O  O7  1  0.39892400  0.61302100  0.36910400  1
  O  O8  1  0.34853600  0.82345600  0.98080700  1
  O  O9  1  0.65146400  0.17654400  0.01919300  1
  O  O10  1  0.84853600  0.17654400  0.51919300  1
  O  O11  1  0.15146400  0.82345600  0.48080700  1
  O  O12  1  0.48171700  0.74631600  0.58538300  1
  O  O13  1  0.51828300  0.25368400  0.41461700  1
  O  O14  1  0.98171700  0.25368400  0.91461700  1
  O  O15  1  0.01828300  0.74631600  0.08538300  1
  O  O16  1  0.07995200  0.19946600  0.61557400  1
  O  O17  1  0.92004800  0.80053400  0.38442600  1
  O  O18  1  0.57995200  0.80053400  0.88442600  1
  O  O19  1  0.42004800  0.19946600  0.11557400  1
  O  O20  1  0.21094600  0.37976600  0.79508000  1
  O  O21  1  0.78905400  0.62023400  0.20492000  1
  O  O22  1  0.71094600  0.62023400  0.70492000  1
  O  O23  1  0.28905400  0.37976600  0.29508000  1
loop_
_geom_bond_atom_site_label_1
_geom_bond_atom_site_label_2
_geom_bond_distance
_geom_bond_site_symmetry_2
Na0 O17 2.327307 1_555
Na0 O22 2.374766 1_555
Na0 O11 2.398356 1_655
Na1 O16 2.327307 1_555
Na1 O23 2.374766 1_555
Na1 O10 2.398356 1_455
Na2 O19 2.327307 1_556
Na2 O20 2.374766 1_555
Na2 O9 2.398356 1_556
Na3 O18 2.327307 1_554
Na3 O21 2.374766 1_555
Na3 O8 2.398356 1_554
Na4 O11 2.286327 1_555
Na4 O0 2.331003 1_555
Na4 O12 2.509591 1_555
Na4 O4 2.516645 1_555
Na4 O20 2.518078 1_555
Na4 O16 2.729770 1_565
Na5 O10 2.286327 1_555
Na5 O1 2.331003 1_555
Na5 O13 2.509591 1_555
Na5 O5 2.516645 1_555
Na5 O21 2.518078 1_555
Na5 O17 2.729770 1_545
Na6 O9 2.286327 1_556
Na6 O2 2.331003 1_555
Na6 O14 2.509591 1_555
Na6 O6 2.516645 1_555
Na6 O22 2.518078 1_555
Na6 O18 2.729770 1_545
Na7 O8 2.286327 1_554
Na7 O3 2.331003 1_555
Na7 O15 2.509591 1_555
Na7 O7 2.516645 1_555
Na7 O23 2.518078 1_555
Na7 O19 2.729770 1_565
Na8 O20 2.410192 1_555
Na8 O16 2.499641 1_555
Na8 O0 2.521325 1_545
Na8 O7 2.569628 1_555
Na8 O12 2.603459 1_555
Na8 O6 2.612626 1_555
Na8 O11 2.723198 1_555
Na9 O21 2.410192 1_555
Na9 O17 2.499641 1_555
Na9 O1 2.521325 1_565
Na9 O6 2.569628 1_555
Na9 O13 2.603459 1_555
Na9 O7 2.612626 1_555
Na9 O10 2.723198 1_555
Na10 O22 2.410192 1_555
Na10 O18 2.499641 1_555
Na10 O2 2.521325 1_565
Na10 O5 2.569628 1_556
Na10 O14 2.603459 1_555
Na10 O4 2.612626 1_655
Na10 O9 2.723198 1_556
Na11 O23 2.410192 1_555
Na11 O19 2.499641 1_555
Na11 O3 2.521325 1_545
Na11 O4 2.569628 1_554
Na11 O15 2.603459 1_555
Na11 O5 2.612626 1_455
Na11 O8 2.723198 1_554
La0 O4 2.425025 1_555
La0 O8 2.496487 1_555
La0 O16 2.512117 1_565
La0 O20 2.513701 1_565
La0 O2 2.549372 1_465
La0 O15 2.551741 1_556
La0 O0 2.569523 1_555
La0 O14 2.577561 1_465
La1 O5 2.425025 1_555
La1 O9 2.496487 1_555
La1 O17 2.512117 1_545
La1 O21 2.513701 1_545
La1 O3 2.549372 1_645
La1 O14 2.551741 1_554
La1 O1 2.569523 1_555
La1 O15 2.577561 1_645
La2 O6 2.425025 1_555
La2 O10 2.496487 1_555
La2 O18 2.512117 1_545
La2 O22 2.513701 1_545
La2 O0 2.549372 1_545
La2 O13 2.551741 1_555
La2 O2 2.569523 1_555
La2 O12 2.577561 1_545
La3 O7 2.425025 1_555
La3 O11 2.496487 1_555
La3 O19 2.512117 1_565
La3 O23 2.513701 1_565
La3 O1 2.549372 1_565
La3 O12 2.551741 1_555
La3 O3 2.569523 1_555
La3 O13 2.577561 1_565
B0 O4 1.374917 1_555
B0 O20 1.397254 1_555
B0 O14 1.408206 1_455
B1 O5 1.374917 1_555
B1 O21 1.397254 1_555
B1 O15 1.408206 1_655
B2 O6 1.374917 1_555
B2 O22 1.397254 1_555
B2 O12 1.408206 1_555
B3 O7 1.374917 1_555
B3 O23 1.397254 1_555
B3 O13 1.408206 1_555
B4 O8 1.385749 1_555
B4 O18 1.390341 1_555
B4 O0 1.408268 1_555
B5 O9 1.385749 1_555
B5 O19 1.390341 1_555
B5 O1 1.408268 1_555
B6 O10 1.385749 1_555
B6 O16 1.390341 1_655
B6 O2 1.408268 1_555
B7 O11 1.385749 1_555
B7 O17 1.390341 1_455
B7 O3 1.408268 1_555
