# generated using pymatgen
data_Ca3Si4(NiO7)2
_symmetry_space_group_name_H-M   'P 1'
_cell_length_a   9.26696871
_cell_length_b   9.26696871
_cell_length_c   10.04319332
_cell_angle_alpha   60.16257305
_cell_angle_beta   60.16257305
_cell_angle_gamma   48.40387832
_symmetry_Int_Tables_number   1
_chemical_formula_structural   Ca3Si4(NiO7)2
_chemical_formula_sum   'Ca6 Si8 Ni4 O28'
_cell_volume   540.58502999
_cell_formula_units_Z   2
loop_
 _symmetry_equiv_pos_site_id
 _symmetry_equiv_pos_as_xyz
  1  'x, y, z'
loop_
 _atom_site_type_symbol
 _atom_site_label
 _atom_site_symmetry_multiplicity
 _atom_site_fract_x
 _atom_site_fract_y
 _atom_site_fract_z
 _atom_site_occupancy
  Ca  Ca0  1  0.22618400  0.16489000  0.54186400  1
  Ca  Ca1  1  0.83511000  0.77381600  0.95813600  1
  Ca  Ca2  1  0.16489000  0.22618400  0.04186400  1
  Ca  Ca3  1  0.65686400  0.34313600  0.25000000  1
  Ca  Ca4  1  0.77381600  0.83511000  0.45813600  1
  Ca  Ca5  1  0.34313600  0.65686400  0.75000000  1
  Si  Si0  1  0.11437400  0.53544300  0.65630700  1
  Si  Si1  1  0.53544300  0.11437400  0.15630700  1
  Si  Si2  1  0.20917900  0.54065300  0.14747300  1
  Si  Si3  1  0.54065300  0.20917900  0.64747300  1
  Si  Si4  1  0.46455700  0.88562600  0.84369300  1
  Si  Si5  1  0.79082100  0.45934700  0.85252700  1
  Si  Si6  1  0.45934700  0.79082100  0.35252700  1
  Si  Si7  1  0.88562600  0.46455700  0.34369300  1
  Ni  Ni0  1  0.21383400  0.78616600  0.25000000  1
  Ni  Ni1  1  0.78616600  0.21383400  0.75000000  1
  Ni  Ni2  1  0.00000000  0.00000000  0.00000000  1
  Ni  Ni3  1  0.00000000  0.00000000  0.50000000  1
  O  O0  1  0.28567300  0.88252700  0.50312200  1
  O  O1  1  0.89590800  0.97570200  0.71587200  1
  O  O2  1  0.64944900  0.45328300  0.80927500  1
  O  O3  1  0.97570200  0.89590800  0.21587200  1
  O  O4  1  0.94187800  0.25968600  0.48420500  1
  O  O5  1  0.50823800  0.04785100  0.81864600  1
  O  O6  1  0.45328300  0.64944900  0.30927500  1
  O  O7  1  0.74031400  0.05812200  0.01579500  1
  O  O8  1  0.49176200  0.95214900  0.18135400  1
  O  O9  1  0.66894400  0.65872100  0.40872400  1
  O  O10  1  0.10409200  0.02429800  0.28412800  1
  O  O11  1  0.05812200  0.74031400  0.51579500  1
  O  O12  1  0.95214900  0.49176200  0.68135400  1
  O  O13  1  0.88252700  0.28567300  0.00312200  1
  O  O14  1  0.65872100  0.66894400  0.90872400  1
  O  O15  1  0.25968600  0.94187800  0.98420500  1
  O  O16  1  0.46960000  0.89241600  0.67856300  1
  O  O17  1  0.33105600  0.34127900  0.59127600  1
  O  O18  1  0.10758400  0.53040000  0.82143700  1
  O  O19  1  0.34127900  0.33105600  0.09127600  1
  O  O20  1  0.04785100  0.50823800  0.31864600  1
  O  O21  1  0.02429800  0.10409200  0.78412800  1
  O  O22  1  0.89241600  0.46960000  0.17856300  1
  O  O23  1  0.35055100  0.54671700  0.19072500  1
  O  O24  1  0.53040000  0.10758400  0.32143700  1
  O  O25  1  0.54671700  0.35055100  0.69072500  1
  O  O26  1  0.11747300  0.71432700  0.99687800  1
  O  O27  1  0.71432700  0.11747300  0.49687800  1
loop_
_geom_bond_atom_site_label_1
_geom_bond_atom_site_label_2
_geom_bond_distance
_geom_bond_site_symmetry_2
Ca0 O21 2.289847 1_555
Ca0 O16 2.327751 1_545
Ca0 O4 2.446913 1_455
Ca0 O24 2.470277 1_555
Ca0 O0 2.487273 1_545
Ca0 O17 2.694246 1_555
Ca0 O20 2.736372 1_555
Ca0 O12 2.838324 1_455
Ca1 O1 2.289847 1_555
Ca1 O18 2.327751 1_655
Ca1 O7 2.446913 1_566
Ca1 O22 2.470277 1_556
Ca1 O26 2.487273 1_655
Ca1 O14 2.694246 1_555
Ca1 O8 2.736372 1_556
Ca1 O5 2.838324 1_565
Ca2 O10 2.289847 1_555
Ca2 O22 2.327751 1_455
Ca2 O15 2.446913 1_544
Ca2 O18 2.470277 1_554
Ca2 O13 2.487273 1_455
Ca2 O19 2.694246 1_555
Ca2 O5 2.736372 1_554
Ca2 O8 2.838324 1_545
Ca3 O6 2.329105 1_555
Ca3 O23 2.329105 1_555
Ca3 O27 2.340961 1_555
Ca3 O13 2.340961 1_555
Ca3 O24 2.766688 1_555
Ca3 O22 2.766688 1_555
Ca4 O3 2.289847 1_555
Ca4 O24 2.327751 1_565
Ca4 O11 2.446913 1_655
Ca4 O16 2.470277 1_555
Ca4 O27 2.487273 1_565
Ca4 O9 2.694246 1_555
Ca4 O12 2.736372 1_555
Ca4 O20 2.838324 1_655
Ca5 O2 2.329105 1_555
Ca5 O25 2.329105 1_555
Ca5 O26 2.340961 1_555
Ca5 O0 2.340961 1_555
Ca5 O16 2.766688 1_555
Ca5 O18 2.766688 1_555
Ni0 O10 1.856757 1_565
Ni0 O3 1.856757 1_455
Ni0 O6 1.927327 1_555
Ni0 O23 1.927327 1_555
Ni0 O11 2.289326 1_555
Ni0 O15 2.289326 1_554
Ni1 O21 1.856757 1_655
Ni1 O1 1.856757 1_545
Ni1 O25 1.927327 1_555
Ni1 O2 1.927327 1_555
Ni1 O7 2.289326 1_556
Ni1 O4 2.289326 1_555
Ni2 O3 1.844769 1_445
Ni2 O21 1.844769 1_554
Ni2 O15 2.022541 1_544
Ni2 O7 2.022541 1_455
Ni2 O13 2.101558 1_455
Ni2 O26 2.101558 1_544
Ni3 O1 1.844769 1_445
Ni3 O10 1.844769 1_555
Ni3 O4 2.022541 1_455
Ni3 O11 2.022541 1_545
Ni3 O0 2.101558 1_545
Ni3 O27 2.101558 1_455
O0 Si6 1.625045 1_555
O2 Si5 1.611370 1_555
O4 Si7 1.618511 1_555
O5 Si3 1.675003 1_555
O5 Si4 1.678541 1_545
O6 Si6 1.611370 1_555
O7 Si1 1.618511 1_555
O8 Si6 1.675003 1_555
O8 Si1 1.678541 1_565
O9 Si7 1.662324 1_555
O9 Si6 1.684062 1_555
O11 Si0 1.618511 1_555
O12 Si5 1.675003 1_555
O12 Si0 1.678541 1_655
O13 Si5 1.625045 1_554
O14 Si4 1.662324 1_555
O14 Si5 1.684062 1_555
O15 Si4 1.618511 1_555
O16 Si4 1.606077 1_555
O17 Si0 1.662324 1_555
O17 Si3 1.684062 1_555
O18 Si0 1.606077 1_555
O19 Si1 1.662324 1_555
O19 Si2 1.684062 1_555
O20 Si2 1.675003 1_555
O20 Si7 1.678541 1_455
O22 Si7 1.606077 1_555
O23 Si2 1.611370 1_555
O24 Si1 1.606077 1_555
O25 Si3 1.611370 1_555
O26 Si2 1.625045 1_556
O27 Si3 1.625045 1_555
