# generated using pymatgen
data_Be6Al4Si12O37
_symmetry_space_group_name_H-M   'P 1'
_cell_length_a   9.30175017
_cell_length_b   9.30175017
_cell_length_c   9.28188100
_cell_angle_alpha   90.00000000
_cell_angle_beta   90.00000000
_cell_angle_gamma   120.00000123
_symmetry_Int_Tables_number   1
_chemical_formula_structural   Be6Al4Si12O37
_chemical_formula_sum   'Be6 Al4 Si12 O37'
_cell_volume   695.49812668
_cell_formula_units_Z   1
loop_
 _symmetry_equiv_pos_site_id
 _symmetry_equiv_pos_as_xyz
  1  'x, y, z'
loop_
 _atom_site_type_symbol
 _atom_site_label
 _atom_site_symmetry_multiplicity
 _atom_site_fract_x
 _atom_site_fract_y
 _atom_site_fract_z
 _atom_site_occupancy
  Be  Be0  1  0.50000000  0.50000000  0.00000000  1
  Be  Be1  1  0.50000000  0.00000000  0.00000000  1
  Be  Be2  1  0.00000000  0.50000000  0.00000000  1
  Be  Be3  1  0.50000000  0.50000000  0.50000000  1
  Be  Be4  1  0.50000000  0.00000000  0.50000000  1
  Be  Be5  1  0.00000000  0.50000000  0.50000000  1
  Al  Al0  1  0.66666700  0.33333300  0.00000000  1
  Al  Al1  1  0.66666700  0.33333300  0.50000000  1
  Al  Al2  1  0.33333300  0.66666700  0.50000000  1
  Al  Al3  1  0.33333300  0.66666700  0.00000000  1
  Si  Si0  1  0.38746700  0.27212100  0.74999600  1
  Si  Si1  1  0.72787900  0.11534600  0.74999600  1
  Si  Si2  1  0.88465400  0.61253300  0.74999600  1
  Si  Si3  1  0.27212100  0.38746700  0.25000400  1
  Si  Si4  1  0.11534600  0.72787900  0.25000400  1
  Si  Si5  1  0.61253300  0.88465400  0.25000400  1
  Si  Si6  1  0.61253300  0.72787900  0.74999600  1
  Si  Si7  1  0.27212100  0.88465400  0.74999600  1
  Si  Si8  1  0.11534600  0.38746700  0.74999600  1
  Si  Si9  1  0.72787900  0.61253300  0.25000400  1
  Si  Si10  1  0.88465400  0.27212100  0.25000400  1
  Si  Si11  1  0.38746700  0.11534600  0.25000400  1
  O  O0  1  0.30970800  0.07392700  0.74992100  1
  O  O1  1  0.92607300  0.23578100  0.74992100  1
  O  O2  1  0.76421900  0.69029200  0.74992100  1
  O  O3  1  0.07392700  0.30970800  0.25007900  1
  O  O4  1  0.23578100  0.92607300  0.25007900  1
  O  O5  1  0.69029200  0.76421900  0.25007900  1
  O  O6  1  0.69029200  0.92607300  0.74992100  1
  O  O7  1  0.07392700  0.76421900  0.74992100  1
  O  O8  1  0.23578100  0.30970800  0.74992100  1
  O  O9  1  0.92607300  0.69029200  0.25007900  1
  O  O10  1  0.76421900  0.07392700  0.25007900  1
  O  O11  1  0.30970800  0.23578100  0.25007900  1
  O  O12  1  0.49827800  0.35379200  0.89570500  1
  O  O13  1  0.64620800  0.14448600  0.89570500  1
  O  O14  1  0.85551400  0.50172200  0.89570500  1
  O  O15  1  0.49830400  0.35381500  0.60428400  1
  O  O16  1  0.64618500  0.14448900  0.60428400  1
  O  O17  1  0.85551100  0.50169600  0.60428400  1
  O  O18  1  0.35381500  0.49830400  0.39571600  1
  O  O19  1  0.14448900  0.64618500  0.39571600  1
  O  O20  1  0.50169600  0.85551100  0.39571600  1
  O  O21  1  0.35379200  0.49827800  0.10429500  1
  O  O22  1  0.14448600  0.64620800  0.10429500  1
  O  O23  1  0.50172200  0.85551400  0.10429500  1
  O  O24  1  0.50169600  0.64618500  0.60428400  1
  O  O25  1  0.35381500  0.85551100  0.60428400  1
  O  O26  1  0.14448900  0.49830400  0.60428400  1
  O  O27  1  0.50172200  0.64620800  0.89570500  1
  O  O28  1  0.35379200  0.85551400  0.89570500  1
  O  O29  1  0.14448600  0.49827800  0.89570500  1
  O  O30  1  0.64620800  0.50172200  0.10429500  1
  O  O31  1  0.85551400  0.35379200  0.10429500  1
  O  O32  1  0.49827800  0.14448600  0.10429500  1
  O  O33  1  0.64618500  0.50169600  0.39571600  1
  O  O34  1  0.85551100  0.35381500  0.39571600  1
  O  O35  1  0.49830400  0.14448900  0.39571600  1
  O  O36  1  0.00000000  0.00000000  0.00000000  1
loop_
_geom_bond_atom_site_label_1
_geom_bond_atom_site_label_2
_geom_bond_distance
_geom_bond_site_symmetry_2
Be0 O21 1.662881 1_555
Be0 O30 1.662881 1_555
Be0 O27 1.662881 1_554
Be0 O12 1.662881 1_554
Be1 O13 1.662881 1_554
Be1 O28 1.662881 1_544
Be1 O32 1.662881 1_555
Be1 O23 1.662881 1_545
Be2 O22 1.662881 1_555
Be2 O31 1.662881 1_455
Be2 O14 1.662881 1_454
Be2 O29 1.662881 1_554
Be3 O15 1.662745 1_555
Be3 O24 1.662745 1_555
Be3 O18 1.662745 1_555
Be3 O33 1.662745 1_555
Be4 O16 1.662745 1_555
Be4 O25 1.662745 1_545
Be4 O35 1.662745 1_555
Be4 O20 1.662745 1_545
Be5 O19 1.662745 1_555
Be5 O34 1.662745 1_455
Be5 O26 1.662745 1_555
Be5 O17 1.662745 1_455
Al0 O31 1.929954 1_555
Al0 O13 1.929954 1_554
Al0 O32 1.929958 1_555
Al0 O14 1.929958 1_554
Al0 O30 1.929962 1_555
Al0 O12 1.929962 1_554
Al1 O16 1.929803 1_555
Al1 O34 1.929803 1_555
Al1 O17 1.929806 1_555
Al1 O35 1.929806 1_555
Al1 O15 1.929811 1_555
Al1 O33 1.929811 1_555
Al2 O25 1.929803 1_555
Al2 O19 1.929803 1_555
Al2 O26 1.929806 1_555
Al2 O20 1.929806 1_555
Al2 O24 1.929811 1_555
Al2 O18 1.929811 1_555
Al3 O22 1.929954 1_555
Al3 O28 1.929954 1_554
Al3 O23 1.929958 1_555
Al3 O29 1.929958 1_554
Al3 O21 1.929962 1_555
Al3 O27 1.929962 1_554
O0 Si0 1.608852 1_555
O0 Si7 1.614406 1_545
O1 Si1 1.608852 1_555
O1 Si8 1.614406 1_655
O2 Si2 1.608852 1_555
O2 Si6 1.614406 1_555
O3 Si3 1.608852 1_555
O3 Si10 1.614406 1_455
O4 Si4 1.608852 1_555
O4 Si11 1.614406 1_565
O5 Si5 1.608852 1_555
O5 Si9 1.614406 1_555
O6 Si6 1.608852 1_555
O6 Si1 1.614406 1_565
O7 Si7 1.608852 1_555
O7 Si2 1.614406 1_455
O8 Si8 1.608852 1_555
O8 Si0 1.614406 1_555
O9 Si9 1.608852 1_555
O9 Si4 1.614406 1_655
O10 Si10 1.608852 1_555
O10 Si5 1.614406 1_545
O11 Si11 1.608852 1_555
O11 Si3 1.614406 1_555
O12 Si0 1.638790 1_555
O13 Si1 1.638790 1_555
O14 Si2 1.638790 1_555
O15 Si0 1.638941 1_555
O16 Si1 1.638941 1_555
O17 Si2 1.638941 1_555
O18 Si3 1.638941 1_555
O19 Si4 1.638941 1_555
O20 Si5 1.638941 1_555
O21 Si3 1.638790 1_555
O22 Si4 1.638790 1_555
O23 Si5 1.638790 1_555
O24 Si6 1.638941 1_555
O25 Si7 1.638941 1_555
O26 Si8 1.638941 1_555
O27 Si6 1.638790 1_555
O28 Si7 1.638790 1_555
O29 Si8 1.638790 1_555
O30 Si9 1.638790 1_555
O31 Si10 1.638790 1_555
O32 Si11 1.638790 1_555
O33 Si9 1.638941 1_555
O34 Si10 1.638941 1_555
O35 Si11 1.638941 1_555
