# generated using pymatgen
data_Li4MnP2O9
_symmetry_space_group_name_H-M   'P 1'
_cell_length_a   12.64299361
_cell_length_b   7.11321606
_cell_length_c   19.40089177
_cell_angle_alpha   90.00000000
_cell_angle_beta   98.17872792
_cell_angle_gamma   90.00000000
_symmetry_Int_Tables_number   1
_chemical_formula_structural   Li4MnP2O9
_chemical_formula_sum   'Li40 Mn10 P20 O90'
_cell_volume   1727.02186595
_cell_formula_units_Z   10
loop_
 _symmetry_equiv_pos_site_id
 _symmetry_equiv_pos_as_xyz
  1  'x, y, z'
loop_
 _atom_site_type_symbol
 _atom_site_label
 _atom_site_symmetry_multiplicity
 _atom_site_fract_x
 _atom_site_fract_y
 _atom_site_fract_z
 _atom_site_occupancy
  Li  Li0  1  0.09386524  0.51514746  0.94916655  1
  Li  Li1  1  0.08627743  0.27461271  0.82844963  1
  Li  Li2  1  0.10419331  0.01459222  0.70112322  1
  Li  Li3  1  0.10699760  0.78807254  0.56250470  1
  Li  Li4  1  0.09386524  0.48485254  0.44916655  1
  Li  Li5  1  0.08627743  0.72538729  0.32844963  1
  Li  Li6  1  0.10419331  0.98540778  0.20112322  1
  Li  Li7  1  0.10699760  0.21192746  0.06250470  1
  Li  Li8  1  0.29467933  0.78628015  0.97814952  1
  Li  Li9  1  0.29963506  0.95529112  0.83789421  1
  Li  Li10  1  0.30396149  0.54262070  0.84635198  1
  Li  Li11  1  0.29380246  0.95334078  0.64227756  1
  Li  Li12  1  0.29467933  0.21371985  0.47814952  1
  Li  Li13  1  0.29963506  0.04470888  0.33789421  1
  Li  Li14  1  0.30396149  0.45737930  0.34635198  1
  Li  Li15  1  0.29380246  0.04665922  0.14227756  1
  Li  Li16  1  0.51567820  0.25988788  0.86761467  1
  Li  Li17  1  0.50000000  0.57250629  0.75000000  1
  Li  Li18  1  0.48432180  0.25988788  0.63238533  1
  Li  Li19  1  0.50000000  0.00000000  0.50000000  1
  Li  Li20  1  0.51567820  0.74011212  0.36761467  1
  Li  Li21  1  0.50000000  0.42749371  0.25000000  1
  Li  Li22  1  0.48432180  0.74011212  0.13238533  1
  Li  Li23  1  0.50000000  0.00000000  0.00000000  1
  Li  Li24  1  0.70619754  0.95334078  0.85772244  1
  Li  Li25  1  0.69603851  0.54262070  0.65364802  1
  Li  Li26  1  0.70036494  0.95529112  0.66210579  1
  Li  Li27  1  0.70532067  0.78628015  0.52185048  1
  Li  Li28  1  0.70619754  0.04665922  0.35772244  1
  Li  Li29  1  0.69603851  0.45737930  0.15364802  1
  Li  Li30  1  0.70036494  0.04470888  0.16210579  1
  Li  Li31  1  0.70532067  0.21371985  0.02185048  1
  Li  Li32  1  0.89300240  0.78807254  0.93749530  1
  Li  Li33  1  0.89580669  0.01459222  0.79887678  1
  Li  Li34  1  0.91372257  0.27461271  0.67155037  1
  Li  Li35  1  0.90613476  0.51514746  0.55083345  1
  Li  Li36  1  0.89300240  0.21192746  0.43749530  1
  Li  Li37  1  0.89580669  0.98540778  0.29887678  1
  Li  Li38  1  0.91372257  0.72538729  0.17155037  1
  Li  Li39  1  0.90613476  0.48485254  0.05083345  1
  Mn  Mn0  1  0.10055900  0.53929399  0.69845268  1
  Mn  Mn1  1  0.10055900  0.46070601  0.19845268  1
  Mn  Mn2  1  0.29763465  0.51990428  0.59766149  1
  Mn  Mn3  1  0.29763465  0.48009572  0.09766149  1
  Mn  Mn4  1  0.50000000  0.50000000  0.50000000  1
  Mn  Mn5  1  0.50000000  0.50000000  0.00000000  1
  Mn  Mn6  1  0.70236535  0.51990428  0.90233851  1
  Mn  Mn7  1  0.70236535  0.48009572  0.40233851  1
  Mn  Mn8  1  0.89944100  0.53929399  0.80154732  1
  Mn  Mn9  1  0.89944100  0.46070601  0.30154732  1
  P  P0  1  0.10056089  0.80038385  0.83348921  1
  P  P1  1  0.09918588  0.24474837  0.56886579  1
  P  P2  1  0.10056089  0.19961615  0.33348921  1
  P  P3  1  0.09918588  0.75525163  0.06886579  1
  P  P4  1  0.29316514  0.25673003  0.95400968  1
  P  P5  1  0.30449532  0.28045879  0.73973925  1
  P  P6  1  0.29316514  0.74326997  0.45400968  1
  P  P7  1  0.30449532  0.71954121  0.23973925  1
  P  P8  1  0.50522943  0.79370404  0.87400373  1
  P  P9  1  0.49477057  0.79370404  0.62599627  1
  P  P10  1  0.50522943  0.20629596  0.37400373  1
  P  P11  1  0.49477057  0.20629596  0.12599627  1
  P  P12  1  0.69550468  0.28045879  0.76026075  1
  P  P13  1  0.70683486  0.25673003  0.54599032  1
  P  P14  1  0.69550468  0.71954121  0.26026075  1
  P  P15  1  0.70683486  0.74326997  0.04599032  1
  P  P16  1  0.90081412  0.24474837  0.93113421  1
  P  P17  1  0.89943911  0.80038385  0.66651079  1
  P  P18  1  0.90081412  0.75525163  0.43113421  1
  P  P19  1  0.89943911  0.19961615  0.16651079  1
  O  O0  1  0.01635403  0.66649812  0.86115890  1
  O  O1  1  -0.00000000  0.42478001  0.75000000  1
  O  O2  1  0.00163142  0.27584316  0.51358119  1
  O  O3  1  0.06185500  0.00402387  0.82907142  1
  O  O4  1  0.01635403  0.33350188  0.36115890  1
  O  O5  1  -0.00000000  0.57521999  0.25000000  1
  O  O6  1  0.07235424  0.32034374  0.64061763  1
  O  O7  1  0.11668525  0.75628024  0.75596227  1
  O  O8  1  0.00163142  0.72415684  0.01358119  1
  O  O9  1  0.06185500  0.99597613  0.32907142  1
  O  O10  1  0.14141753  0.04565915  0.58480158  1
  O  O11  1  0.20627068  0.76079200  0.88075743  1
  O  O12  1  0.07235424  0.67965626  0.14061763  1
  O  O13  1  0.19341905  0.32893427  0.90753334  1
  O  O14  1  0.11668525  0.24371976  0.25596227  1
  O  O15  1  0.21287072  0.41373993  0.75934184  1
  O  O16  1  0.19407240  0.64631090  0.64176413  1
  O  O17  1  0.18860871  0.36918945  0.54032913  1
  O  O18  1  0.14141753  0.95434085  0.08480158  1
  O  O19  1  0.20627068  0.23920800  0.38075743  1
  O  O20  1  0.19341905  0.67106573  0.40753334  1
  O  O21  1  0.26687396  0.07483275  0.74147681  1
  O  O22  1  0.21287072  0.58626007  0.25934184  1
  O  O23  1  0.19407240  0.35368910  0.14176413  1
  O  O24  1  0.32711440  0.05322360  0.94294080  1
  O  O25  1  0.18860871  0.63081055  0.04032913  1
  O  O26  1  0.27562124  0.72562485  0.53252842  1
  O  O27  1  0.32580470  0.31662967  0.66327434  1
  O  O28  1  0.26687396  0.92516725  0.24147681  1
  O  O29  1  0.38555388  0.39159168  0.93598808  1
  O  O30  1  0.32711440  0.94677640  0.44294080  1
  O  O31  1  0.40283243  0.33243747  0.79151063  1
  O  O32  1  0.27562124  0.27437515  0.03252842  1
  O  O33  1  0.40398635  0.76373093  0.82186637  1
  O  O34  1  0.32580470  0.68337033  0.16327434  1
  O  O35  1  0.40863814  0.66396104  0.65355346  1
  O  O36  1  0.39814303  0.39388928  0.55071964  1
  O  O37  1  0.38555388  0.60840832  0.43598808  1
  O  O38  1  0.48343674  0.73509610  0.94937811  1
  O  O39  1  0.40283243  0.66756253  0.29151063  1
  O  O40  1  0.40398635  0.23626907  0.32186637  1
  O  O41  1  0.45174702  0.99454781  0.61715469  1
  O  O42  1  0.40863814  0.33603896  0.15355346  1
  O  O43  1  0.39814303  0.60611072  0.05071964  1
  O  O44  1  0.54825298  0.99454781  0.88284531  1
  O  O45  1  0.48343674  0.26490390  0.44937811  1
  O  O46  1  0.51656326  0.73509610  0.55062189  1
  O  O47  1  0.45174702  0.00545219  0.11715469  1
  O  O48  1  0.60185697  0.39388928  0.94928036  1
  O  O49  1  0.59136186  0.66396104  0.84644654  1
  O  O50  1  0.54825298  0.00545219  0.38284531  1
  O  O51  1  0.59601365  0.76373093  0.67813363  1
  O  O52  1  0.59716757  0.33243747  0.70848937  1
  O  O53  1  0.51656326  0.26490390  0.05062189  1
  O  O54  1  0.61444612  0.39159168  0.56401192  1
  O  O55  1  0.60185697  0.60611072  0.44928036  1
  O  O56  1  0.59136186  0.33603896  0.34644654  1
  O  O57  1  0.67419530  0.31662967  0.83672566  1
  O  O58  1  0.59601365  0.23626907  0.17813363  1
  O  O59  1  0.72437876  0.72562485  0.96747158  1
  O  O60  1  0.59716757  0.66756253  0.20848937  1
  O  O61  1  0.67288560  0.05322360  0.55705920  1
  O  O62  1  0.61444612  0.60840832  0.06401192  1
  O  O63  1  0.73312604  0.07483275  0.75852319  1
  O  O64  1  0.67419530  0.68337033  0.33672566  1
  O  O65  1  0.72437876  0.27437515  0.46747158  1
  O  O66  1  0.81139129  0.36918945  0.95967087  1
  O  O67  1  0.67288560  0.94677640  0.05705920  1
  O  O68  1  0.80592760  0.64631090  0.85823587  1
  O  O69  1  0.78712928  0.41373993  0.74065816  1
  O  O70  1  0.73312604  0.92516725  0.25852319  1
  O  O71  1  0.80658095  0.32893427  0.59246666  1
  O  O72  1  0.79372932  0.76079200  0.61924257  1
  O  O73  1  0.85858247  0.04565915  0.91519842  1
  O  O74  1  0.81139129  0.63081055  0.45967087  1
  O  O75  1  0.80592760  0.35368910  0.35823587  1
  O  O76  1  0.78712928  0.58626007  0.24065816  1
  O  O77  1  0.88331475  0.75628024  0.74403773  1
  O  O78  1  0.80658095  0.67106573  0.09246666  1
  O  O79  1  0.92764576  0.32034374  0.85938237  1
  O  O80  1  0.79372932  0.23920800  0.11924257  1
  O  O81  1  0.85858247  0.95434085  0.41519842  1
  O  O82  1  0.93814500  0.00402387  0.67092858  1
  O  O83  1  0.99836858  0.27584316  0.98641881  1
  O  O84  1  0.88331475  0.24371976  0.24403773  1
  O  O85  1  0.92764576  0.67965626  0.35938237  1
  O  O86  1  0.98364597  0.66649812  0.63884110  1
  O  O87  1  0.93814500  0.99597613  0.17092858  1
  O  O88  1  0.99836858  0.72415684  0.48641881  1
  O  O89  1  0.98364597  0.33350188  0.13884110  1
loop_
_geom_bond_atom_site_label_1
_geom_bond_atom_site_label_2
_geom_bond_distance
_geom_bond_site_symmetry_2
Li0 O13 2.068911 1_555
Li0 O0 2.135094 1_555
Li0 O25 2.153373 1_556
Li0 O83 2.264045 1_455
Li0 O8 2.355115 1_556
Li1 O13 1.935703 1_555
Li1 O3 1.949676 1_555
Li1 O1 2.043268 1_555
Li1 O79 2.197899 1_455
Li1 O15 2.439103 1_555
Li2 O82 2.099088 1_455
Li2 O7 2.117834 1_545
Li2 O21 2.137451 1_555
Li2 O10 2.380210 1_555
Li2 O6 2.477022 1_555
Li2 O3 2.613828 1_555
Li3 O10 1.918371 1_565
Li3 O88 1.922257 1_455
Li3 O16 2.027724 1_555
Li3 O26 2.330951 1_555
Li3 O86 2.455707 1_455
Li4 O20 2.068911 1_555
Li4 O4 2.135094 1_555
Li4 O17 2.153373 1_555
Li4 O88 2.264045 1_455
Li4 O2 2.355115 1_555
Li5 O20 1.935703 1_555
Li5 O9 1.949676 1_555
Li5 O5 2.043268 1_555
Li5 O85 2.197899 1_455
Li5 O22 2.439103 1_555
Li6 O87 2.099088 1_455
Li6 O14 2.117834 1_565
Li6 O28 2.137451 1_555
Li6 O18 2.380210 1_555
Li6 O12 2.477022 1_555
Li6 O9 2.613828 1_555
Li7 O18 1.918371 1_545
Li7 O83 1.922257 1_454
Li7 O23 2.027724 1_555
Li7 O32 2.330951 1_555
Li7 O89 2.455707 1_455
Li8 O11 2.061920 1_555
Li8 O24 2.078462 1_565
Li8 O43 2.193583 1_556
Li8 O25 2.221925 1_556
Li8 O38 2.553102 1_555
Li9 O33 1.952103 1_555
Li9 O21 2.042853 1_565
Li9 O11 2.068403 1_555
Li9 O24 2.134936 1_565
Li10 O15 2.112634 1_555
Li10 O33 2.114132 1_555
Li10 O11 2.148021 1_555
Li10 O29 2.175326 1_555
Li10 O31 2.303968 1_555
Li10 O13 2.478819 1_555
Li11 O41 2.141958 1_555
Li11 O21 2.180157 1_565
Li11 O10 2.185221 1_565
Li11 O35 2.510478 1_555
Li11 O16 2.521128 1_555
Li12 O19 2.061920 1_555
Li12 O30 2.078462 1_545
Li12 O36 2.193583 1_555
Li12 O17 2.221925 1_555
Li12 O45 2.553102 1_555
Li13 O40 1.952103 1_555
Li13 O28 2.042853 1_545
Li13 O19 2.068403 1_555
Li13 O30 2.134936 1_545
Li14 O22 2.112634 1_555
Li14 O40 2.114132 1_555
Li14 O19 2.148021 1_555
Li14 O37 2.175326 1_555
Li14 O39 2.303968 1_555
Li14 O20 2.478819 1_555
Li15 O47 2.141958 1_555
Li15 O28 2.180157 1_545
Li15 O18 2.185221 1_545
Li15 O42 2.510478 1_555
Li15 O23 2.521128 1_555
Li16 O44 1.945421 1_545
Li16 O31 1.970400 1_555
Li16 O48 2.028498 1_555
Li16 O57 2.209139 1_555
Li16 O29 2.442284 1_555
Li17 O49 2.154918 1_555
Li17 O35 2.154918 1_555
Li17 O31 2.314166 1_555
Li17 O52 2.314166 1_555
Li17 O51 2.397771 1_555
Li17 O33 2.397771 1_555
Li18 O41 1.945421 1_545
Li18 O52 1.970400 1_555
Li18 O36 2.028498 1_555
Li18 O27 2.209139 1_555
Li18 O54 2.442284 1_555
Li19 O46 2.121446 1_545
Li19 O45 2.121446 1_555
Li19 O61 2.336239 1_555
Li19 O30 2.336239 1_545
Li19 O41 2.436042 1_545
Li19 O50 2.436042 1_555
Li20 O50 1.945421 1_565
Li20 O39 1.970400 1_555
Li20 O55 2.028498 1_555
Li20 O64 2.209139 1_555
Li20 O37 2.442284 1_555
Li21 O42 2.154918 1_555
Li21 O56 2.154918 1_555
Li21 O60 2.314166 1_555
Li21 O39 2.314166 1_555
Li21 O58 2.397771 1_555
Li21 O40 2.397771 1_555
Li22 O47 1.945421 1_565
Li22 O60 1.970400 1_555
Li22 O43 2.028498 1_555
Li22 O34 2.209139 1_555
Li22 O62 2.442284 1_555
Li23 O38 2.121446 1_544
Li23 O53 2.121446 1_555
Li23 O24 2.336239 1_554
Li23 O67 2.336239 1_545
Li23 O47 2.436042 1_555
Li23 O44 2.436042 1_544
Li24 O44 2.141958 1_555
Li24 O63 2.180157 1_565
Li24 O73 2.185221 1_565
Li24 O49 2.510478 1_555
Li24 O68 2.521128 1_555
Li25 O69 2.112634 1_555
Li25 O51 2.114132 1_555
Li25 O72 2.148021 1_555
Li25 O54 2.175326 1_555
Li25 O52 2.303968 1_555
Li25 O71 2.478819 1_555
Li26 O51 1.952103 1_555
Li26 O63 2.042853 1_565
Li26 O72 2.068403 1_555
Li26 O61 2.134936 1_565
Li27 O72 2.061920 1_555
Li27 O61 2.078462 1_565
Li27 O55 2.193583 1_555
Li27 O74 2.221925 1_555
Li27 O46 2.553102 1_555
Li28 O50 2.141958 1_555
Li28 O70 2.180157 1_545
Li28 O81 2.185221 1_545
Li28 O56 2.510478 1_555
Li28 O75 2.521128 1_555
Li29 O76 2.112634 1_555
Li29 O58 2.114132 1_555
Li29 O80 2.148021 1_555
Li29 O62 2.175326 1_555
Li29 O60 2.303968 1_555
Li29 O78 2.478819 1_555
Li30 O58 1.952103 1_555
Li30 O70 2.042853 1_545
Li30 O80 2.068403 1_555
Li30 O67 2.134936 1_545
Li31 O80 2.061920 1_555
Li31 O67 2.078462 1_545
Li31 O48 2.193583 1_554
Li31 O66 2.221925 1_554
Li31 O53 2.553102 1_555
Li32 O73 1.918371 1_565
Li32 O8 1.922257 1_656
Li32 O68 2.027724 1_555
Li32 O59 2.330951 1_555
Li32 O0 2.455707 1_655
Li33 O3 2.099088 1_655
Li33 O77 2.117834 1_545
Li33 O63 2.137451 1_555
Li33 O73 2.380210 1_555
Li33 O79 2.477022 1_555
Li33 O82 2.613828 1_555
Li34 O71 1.935703 1_555
Li34 O82 1.949676 1_555
Li34 O1 2.043268 1_655
Li34 O6 2.197899 1_655
Li34 O69 2.439103 1_555
Li35 O71 2.068911 1_555
Li35 O86 2.135094 1_555
Li35 O74 2.153373 1_555
Li35 O2 2.264045 1_655
Li35 O88 2.355115 1_555
Li36 O81 1.918371 1_545
Li36 O2 1.922257 1_655
Li36 O75 2.027724 1_555
Li36 O65 2.330951 1_555
Li36 O4 2.455707 1_655
Li37 O9 2.099088 1_655
Li37 O84 2.117834 1_565
Li37 O70 2.137451 1_555
Li37 O81 2.380210 1_555
Li37 O85 2.477022 1_555
Li37 O87 2.613828 1_555
Li38 O78 1.935703 1_555
Li38 O87 1.949676 1_555
Li38 O5 2.043268 1_655
Li38 O12 2.197899 1_655
Li38 O76 2.439103 1_555
Li39 O78 2.068911 1_555
Li39 O89 2.135094 1_555
Li39 O66 2.153373 1_554
Li39 O8 2.264045 1_655
Li39 O83 2.355115 1_554
Mn0 O16 1.885955 1_555
Mn0 O7 1.898424 1_555
Mn0 O1 1.908342 1_555
Mn0 O6 1.923002 1_555
Mn0 O15 1.931867 1_555
Mn0 O86 1.963348 1_455
Mn1 O23 1.885955 1_555
Mn1 O14 1.898424 1_555
Mn1 O5 1.908342 1_555
Mn1 O12 1.923002 1_555
Mn1 O22 1.931867 1_555
Mn1 O89 1.963348 1_455
Mn2 O16 1.890424 1_555
Mn2 O36 1.891269 1_555
Mn2 O27 1.925871 1_555
Mn2 O26 1.927571 1_555
Mn2 O35 1.939701 1_555
Mn2 O17 1.962226 1_555
Mn3 O23 1.890424 1_555
Mn3 O43 1.891269 1_555
Mn3 O34 1.925871 1_555
Mn3 O32 1.927571 1_555
Mn3 O42 1.939701 1_555
Mn3 O25 1.962226 1_555
Mn4 O36 1.885971 1_555
Mn4 O55 1.885971 1_555
Mn4 O54 1.928549 1_555
Mn4 O37 1.928549 1_555
Mn4 O46 1.935569 1_555
Mn4 O45 1.935569 1_555
Mn5 O48 1.885971 1_554
Mn5 O43 1.885971 1_555
Mn5 O29 1.928549 1_554
Mn5 O62 1.928549 1_555
Mn5 O38 1.935569 1_554
Mn5 O53 1.935569 1_555
Mn6 O68 1.890424 1_555
Mn6 O48 1.891269 1_555
Mn6 O57 1.925871 1_555
Mn6 O59 1.927571 1_555
Mn6 O49 1.939701 1_555
Mn6 O66 1.962226 1_555
Mn7 O75 1.890424 1_555
Mn7 O55 1.891269 1_555
Mn7 O64 1.925871 1_555
Mn7 O65 1.927571 1_555
Mn7 O56 1.939701 1_555
Mn7 O74 1.962226 1_555
Mn8 O68 1.885955 1_555
Mn8 O77 1.898424 1_555
Mn8 O1 1.908342 1_655
Mn8 O79 1.923002 1_555
Mn8 O69 1.931867 1_555
Mn8 O0 1.963348 1_655
Mn9 O75 1.885955 1_555
Mn9 O84 1.898424 1_555
Mn9 O5 1.908342 1_655
Mn9 O85 1.923002 1_555
Mn9 O76 1.931867 1_555
Mn9 O4 1.963348 1_655
O0 P0 1.578352 1_555
O2 P1 1.531067 1_555
O3 P0 1.527462 1_545
O4 P2 1.578352 1_555
O6 P1 1.573655 1_555
O7 P0 1.577819 1_555
O8 P3 1.531067 1_555
O9 P2 1.527462 1_565
O10 P1 1.529453 1_555
O11 P0 1.535503 1_555
O12 P3 1.573655 1_555
O13 P4 1.530894 1_555
O14 P2 1.577819 1_555
O15 P5 1.584521 1_555
O17 P1 1.595724 1_555
O18 P3 1.529453 1_555
O19 P2 1.535503 1_555
O20 P6 1.530894 1_555
O21 P5 1.539909 1_555
O22 P7 1.584521 1_555
O24 P4 1.533647 1_555
O25 P3 1.595724 1_555
O26 P6 1.575320 1_555
O27 P5 1.566280 1_555
O28 P7 1.539909 1_555
O29 P4 1.588423 1_555
O30 P6 1.533647 1_555
O31 P5 1.528391 1_555
O32 P4 1.575320 1_554
O33 P8 1.529270 1_555
O34 P7 1.566280 1_555
O35 P9 1.577678 1_555
O37 P6 1.588423 1_555
O38 P8 1.582011 1_555
O39 P7 1.528391 1_555
O40 P10 1.529270 1_555
O41 P9 1.529634 1_555
O42 P11 1.577678 1_555
O44 P8 1.529634 1_555
O45 P10 1.582011 1_555
O46 P9 1.582011 1_555
O47 P11 1.529634 1_555
O49 P8 1.577678 1_555
O50 P10 1.529634 1_555
O51 P9 1.529270 1_555
O52 P12 1.528391 1_555
O53 P11 1.582011 1_555
O54 P13 1.588423 1_555
O56 P10 1.577678 1_555
O57 P12 1.566280 1_555
O58 P11 1.529270 1_555
O59 P15 1.575320 1_556
O60 P14 1.528391 1_555
O61 P13 1.533647 1_555
O62 P15 1.588423 1_555
O63 P12 1.539909 1_555
O64 P14 1.566280 1_555
O65 P13 1.575320 1_555
O66 P16 1.595724 1_555
O67 P15 1.533647 1_555
O69 P12 1.584521 1_555
O70 P14 1.539909 1_555
O71 P13 1.530894 1_555
O72 P17 1.535503 1_555
O73 P16 1.529453 1_555
O74 P18 1.595724 1_555
O76 P14 1.584521 1_555
O77 P17 1.577819 1_555
O78 P15 1.530894 1_555
O79 P16 1.573655 1_555
O80 P19 1.535503 1_555
O81 P18 1.529453 1_555
O82 P17 1.527462 1_545
O83 P16 1.531067 1_555
O84 P19 1.577819 1_555
O85 P18 1.573655 1_555
O86 P17 1.578352 1_555
O87 P19 1.527462 1_565
O88 P18 1.531067 1_555
O89 P19 1.578352 1_555
