# generated using pymatgen
data_BP2Pb2O9
_symmetry_space_group_name_H-M   'P 1'
_cell_length_a   17.47730800
_cell_length_b   5.59728200
_cell_length_c   10.09371041
_cell_angle_alpha   56.70915672
_cell_angle_beta   90.00000000
_cell_angle_gamma   90.00000000
_symmetry_Int_Tables_number   1
_chemical_formula_structural   BP2Pb2O9
_chemical_formula_sum   'B4 P8 Pb8 O36'
_cell_volume   825.38076559
_cell_formula_units_Z   4
loop_
 _symmetry_equiv_pos_site_id
 _symmetry_equiv_pos_as_xyz
  1  'x, y, z'
loop_
 _atom_site_type_symbol
 _atom_site_label
 _atom_site_symmetry_multiplicity
 _atom_site_fract_x
 _atom_site_fract_y
 _atom_site_fract_z
 _atom_site_occupancy
  B  B0  1  0.68921600  0.09720800  0.76140700  1
  B  B1  1  0.81078400  0.09720800  0.26140700  1
  B  B2  1  0.31078400  0.90279200  0.23859300  1
  B  B3  1  0.18921600  0.90279200  0.73859300  1
  P  P0  1  0.57777100  0.13851300  0.56584000  1
  P  P1  1  0.92222900  0.13851300  0.06584000  1
  P  P2  1  0.42222900  0.86148700  0.43416000  1
  P  P3  1  0.07777100  0.86148700  0.93416000  1
  P  P4  1  0.63833900  0.67920500  0.05203000  1
  P  P5  1  0.86166100  0.67920500  0.55203000  1
  P  P6  1  0.36166100  0.32079500  0.94797000  1
  P  P7  1  0.13833900  0.32079500  0.44797000  1
  Pb  Pb0  1  0.62510400  0.88595200  0.31211800  1
  Pb  Pb1  1  0.87489600  0.88595200  0.81211800  1
  Pb  Pb2  1  0.37489600  0.11404800  0.68788200  1
  Pb  Pb3  1  0.12510400  0.11404800  0.18788200  1
  Pb  Pb4  1  0.46471000  0.52232600  0.18954800  1
  Pb  Pb5  1  0.03529000  0.52232600  0.68954800  1
  Pb  Pb6  1  0.53529000  0.47767400  0.81045200  1
  Pb  Pb7  1  0.96471000  0.47767400  0.31045200  1
  O  O0  1  0.55519600  0.40496200  0.40561500  1
  O  O1  1  0.94480400  0.40496200  0.90561500  1
  O  O2  1  0.44480400  0.59503800  0.59438500  1
  O  O3  1  0.05519600  0.59503800  0.09438500  1
  O  O4  1  0.70806600  0.63947700  0.15523600  1
  O  O5  1  0.79193400  0.63947700  0.65523600  1
  O  O6  1  0.29193400  0.36052300  0.84476400  1
  O  O7  1  0.20806600  0.36052300  0.34476400  1
  O  O8  1  0.64904100  0.25848100  0.61878200  1
  O  O9  1  0.85095900  0.25848100  0.11878200  1
  O  O10  1  0.35095900  0.74151900  0.38121800  1
  O  O11  1  0.14904100  0.74151900  0.88121800  1
  O  O12  1  0.58195700  0.88949800  0.05424500  1
  O  O13  1  0.91804300  0.88949800  0.55424500  1
  O  O14  1  0.41804300  0.11050200  0.94575500  1
  O  O15  1  0.08195700  0.11050200  0.44575500  1
  O  O16  1  0.59485800  0.40530300  0.09301600  1
  O  O17  1  0.90514200  0.40530300  0.59301600  1
  O  O18  1  0.40514200  0.59469700  0.90698400  1
  O  O19  1  0.09485800  0.59469700  0.40698400  1
  O  O20  1  0.51653600  0.02604600  0.69794000  1
  O  O21  1  0.98346400  0.02604600  0.19794000  1
  O  O22  1  0.48346400  0.97395400  0.30206000  1
  O  O23  1  0.01653600  0.97395400  0.80206000  1
  O  O24  1  0.74987800  0.18618800  0.80392600  1
  O  O25  1  0.75012200  0.18618800  0.30392600  1
  O  O26  1  0.25012200  0.81381200  0.19607400  1
  O  O27  1  0.24987800  0.81381200  0.69607400  1
  O  O28  1  0.66394300  0.81367900  0.86980500  1
  O  O29  1  0.83605700  0.81367900  0.36980500  1
  O  O30  1  0.33605700  0.18632100  0.13019500  1
  O  O31  1  0.16394300  0.18632100  0.63019500  1
  O  O32  1  0.60547000  0.88656100  0.55720200  1
  O  O33  1  0.89453000  0.88656100  0.05720200  1
  O  O34  1  0.39453000  0.11343900  0.44279800  1
  O  O35  1  0.10547000  0.11343900  0.94279800  1
loop_
_geom_bond_atom_site_label_1
_geom_bond_atom_site_label_2
_geom_bond_distance
_geom_bond_site_symmetry_2
B0 O24 1.338257 1_555
B0 O8 1.397772 1_555
B0 O28 1.415844 1_545
B1 O25 1.338257 1_555
B1 O9 1.397772 1_555
B1 O29 1.415844 1_545
B2 O26 1.338257 1_555
B2 O10 1.397772 1_555
B2 O30 1.415844 1_565
B3 O27 1.338257 1_555
B3 O11 1.397772 1_555
B3 O31 1.415844 1_565
O0 P0 1.532204 1_555
O0 Pb4 2.473087 1_555
O0 Pb0 2.615797 1_555
O1 P1 1.532204 1_556
O1 Pb5 2.473087 1_655
O1 Pb1 2.615797 1_555
O2 P2 1.532204 1_555
O2 Pb6 2.473087 1_555
O2 Pb2 2.615797 1_555
O3 P3 1.532204 1_554
O3 Pb7 2.473087 1_455
O3 Pb3 2.615797 1_555
O4 P4 1.537998 1_555
O5 P5 1.537998 1_555
O6 P6 1.537998 1_555
O7 P7 1.537998 1_555
O8 P0 1.637659 1_555
O9 P1 1.637659 1_555
O10 P2 1.637659 1_555
O11 P3 1.637659 1_555
O12 P4 1.544638 1_555
O12 Pb4 2.684536 1_555
O12 Pb0 2.699519 1_555
O13 P5 1.544638 1_555
O13 Pb5 2.684536 1_655
O13 Pb1 2.699519 1_555
O14 P6 1.544638 1_555
O14 Pb6 2.684536 1_555
O14 Pb2 2.699519 1_555
O15 P7 1.544638 1_555
O15 Pb7 2.684536 1_455
O15 Pb3 2.699519 1_555
O16 P4 1.550096 1_555
O16 Pb0 2.561893 1_545
O16 Pb4 2.693144 1_555
O17 P5 1.550096 1_555
O17 Pb1 2.561893 1_545
O17 Pb5 2.693144 1_655
O18 P6 1.550096 1_555
O18 Pb2 2.561893 1_565
O18 Pb6 2.693144 1_555
O19 P7 1.550096 1_555
O19 Pb3 2.561893 1_565
O19 Pb7 2.693144 1_455
O20 P0 1.548584 1_555
O20 Pb2 2.515168 1_555
O20 Pb6 2.644183 1_545
O21 P1 1.548584 1_555
O21 Pb3 2.515168 1_655
O21 Pb7 2.644183 1_545
O22 P2 1.548584 1_555
O22 Pb0 2.515168 1_555
O22 Pb4 2.644183 1_565
O23 P3 1.548584 1_555
O23 Pb1 2.515168 1_455
O23 Pb5 2.644183 1_565
O24 Pb1 2.729931 1_545
O25 Pb0 2.729931 1_545
O26 Pb3 2.729931 1_565
O27 Pb2 2.729931 1_565
O28 P4 1.621758 1_556
O29 P5 1.621758 1_555
O30 P6 1.621758 1_554
O31 P7 1.621758 1_555
O32 P0 1.538095 1_565
O32 Pb0 2.499348 1_555
O32 Pb6 2.618079 1_555
O33 P1 1.538095 1_565
O33 Pb1 2.499348 1_554
O33 Pb7 2.618079 1_555
O34 P2 1.538095 1_545
O34 Pb2 2.499348 1_555
O34 Pb4 2.618079 1_555
O35 P3 1.538095 1_545
O35 Pb3 2.499348 1_556
O35 Pb5 2.618079 1_555
