# generated using pymatgen
data_CaB2H3
_symmetry_space_group_name_H-M   'P 1'
_cell_length_a   3.63970700
_cell_length_b   3.54837387
_cell_length_c   16.44897779
_cell_angle_alpha   90.92026841
_cell_angle_beta   90.00000000
_cell_angle_gamma   90.00000000
_symmetry_Int_Tables_number   1
_chemical_formula_structural   CaB2H3
_chemical_formula_sum   'Ca4 B8 H12'
_cell_volume   212.41182421
_cell_formula_units_Z   4
loop_
 _symmetry_equiv_pos_site_id
 _symmetry_equiv_pos_as_xyz
  1  'x, y, z'
loop_
 _atom_site_type_symbol
 _atom_site_label
 _atom_site_symmetry_multiplicity
 _atom_site_fract_x
 _atom_site_fract_y
 _atom_site_fract_z
 _atom_site_occupancy
  Ca  Ca0  1  0.52497200  0.74074300  0.38401000  1
  Ca  Ca1  1  0.02497200  0.25925700  0.11599000  1
  Ca  Ca2  1  0.47502800  0.25925700  0.61599000  1
  Ca  Ca3  1  0.97502800  0.74074300  0.88401000  1
  B  B0  1  0.05657100  0.75029200  0.51058500  1
  B  B1  1  0.55657100  0.24970800  0.98941500  1
  B  B2  1  0.94342900  0.24970800  0.48941500  1
  B  B3  1  0.44342900  0.75029200  0.01058500  1
  B  B4  1  0.55728100  0.61100900  0.74943000  1
  B  B5  1  0.05728100  0.38899100  0.75057000  1
  B  B6  1  0.44271900  0.38899100  0.25057000  1
  B  B7  1  0.94271900  0.61100900  0.24943000  1
  H  H0  1  0.53709100  0.87988200  0.79715300  1
  H  H1  1  0.03709100  0.12011800  0.70284700  1
  H  H2  1  0.46290900  0.12011800  0.20284700  1
  H  H3  1  0.96290900  0.87988200  0.29715300  1
  H  H4  1  0.37063600  0.75374100  0.53846000  1
  H  H5  1  0.87063600  0.24625900  0.96154000  1
  H  H6  1  0.62936400  0.24625900  0.46154000  1
  H  H7  1  0.12936400  0.75374100  0.03846000  1
  H  H8  1  0.40419100  0.22813100  0.31711100  1
  H  H9  1  0.90419100  0.77186900  0.18288900  1
  H  H10  1  0.59580900  0.77186900  0.68288900  1
  H  H11  1  0.09580900  0.22813100  0.81711100  1
loop_
_geom_bond_atom_site_label_1
_geom_bond_atom_site_label_2
_geom_bond_distance
_geom_bond_site_symmetry_2
Ca0 H8 2.110985 1_565
Ca0 H8 2.156020 1_555
Ca0 H3 2.201895 1_555
Ca0 H6 2.216940 1_565
Ca0 H6 2.218395 1_555
Ca0 H3 2.548077 1_455
Ca1 H9 2.110985 1_445
Ca1 H9 2.156020 1_455
Ca1 H2 2.201895 1_555
Ca1 H7 2.216940 1_545
Ca1 H7 2.218395 1_555
Ca1 H2 2.548077 1_455
Ca2 H10 2.110985 1_545
Ca2 H10 2.156020 1_555
Ca2 H1 2.201895 1_555
Ca2 H4 2.216940 1_545
Ca2 H4 2.218395 1_555
Ca2 H1 2.548077 1_655
Ca3 H11 2.110985 1_665
Ca3 H11 2.156020 1_655
Ca3 H0 2.201895 1_555
Ca3 H5 2.216940 1_565
Ca3 H5 2.218395 1_555
Ca3 H0 2.548077 1_655
B0 H4 1.231622 1_555
B1 H5 1.231622 1_555
B2 H6 1.231622 1_555
B3 H7 1.231622 1_555
B4 H0 1.227922 1_555
B4 H10 1.250414 1_555
B5 H1 1.227922 1_555
B5 H11 1.250414 1_555
B6 H2 1.227922 1_555
B6 H8 1.250414 1_555
B7 H3 1.227922 1_555
B7 H9 1.250414 1_555
