# generated using pymatgen
data_Hf2N2O
_symmetry_space_group_name_H-M   'P 1'
_cell_length_a   5.44143340
_cell_length_b   5.81015680
_cell_length_c   5.52614256
_cell_angle_alpha   118.39573123
_cell_angle_beta   59.48369185
_cell_angle_gamma   117.33287588
_symmetry_Int_Tables_number   1
_chemical_formula_structural   Hf2N2O
_chemical_formula_sum   'Hf4 N4 O2'
_cell_volume   126.82336054
_cell_formula_units_Z   2
loop_
 _symmetry_equiv_pos_site_id
 _symmetry_equiv_pos_as_xyz
  1  'x, y, z'
loop_
 _atom_site_type_symbol
 _atom_site_label
 _atom_site_symmetry_multiplicity
 _atom_site_fract_x
 _atom_site_fract_y
 _atom_site_fract_z
 _atom_site_occupancy
  Hf  Hf0  1  0.12263500  0.42866100  0.13441200  1
  Hf  Hf1  1  0.34936900  0.06975700  0.37146800  1
  Hf  Hf2  1  0.62263500  0.92866100  0.67161300  1
  Hf  Hf3  1  0.84936900  0.56975700  0.84892000  1
  N  N0  1  0.24595800  0.73525000  0.94794100  1
  N  N1  1  0.74595800  0.23525000  0.04135200  1
  N  N2  1  0.46191500  0.25320900  0.74534700  1
  N  N3  1  0.96191500  0.75320900  0.54594800  1
  O  O0  1  0.07012400  0.26312200  0.44175100  1
  O  O1  1  0.57012400  0.76312200  0.25124700  1
loop_
_geom_bond_atom_site_label_1
_geom_bond_atom_site_label_2
_geom_bond_distance
_geom_bond_site_symmetry_2
Hf0 N1 2.033236 1_455
Hf0 N0 2.152019 1_554
Hf0 N2 2.163955 1_554
Hf0 O0 2.167888 1_555
Hf0 N3 2.215486 1_455
Hf0 O1 2.486010 1_555
Hf1 O0 2.067662 1_555
Hf1 N2 2.090680 1_555
Hf1 N1 2.162011 1_555
Hf1 N3 2.195132 1_445
Hf1 O1 2.255541 1_545
Hf1 N0 2.361891 1_544
Hf2 N0 2.033241 1_555
Hf2 N1 2.152028 1_566
Hf2 N3 2.163958 1_555
Hf2 O1 2.167883 1_555
Hf2 N2 2.215481 1_565
Hf2 O0 2.486008 1_665
Hf3 O1 2.067663 1_556
Hf3 N3 2.090675 1_555
Hf3 N0 2.162013 1_655
Hf3 N2 2.195130 1_555
Hf3 O0 2.255541 1_655
Hf3 N1 2.361895 1_556
