# generated using pymatgen
data_YSn2BiO7
_symmetry_space_group_name_H-M   'P 1'
_cell_length_a   7.51601460
_cell_length_b   7.51601460
_cell_length_c   7.51601460
_cell_angle_alpha   120.29045056
_cell_angle_beta   119.83973568
_cell_angle_gamma   89.88773640
_symmetry_Int_Tables_number   1
_chemical_formula_structural   YSn2BiO7
_chemical_formula_sum   'Y2 Sn4 Bi2 O14'
_cell_volume   299.92386307
_cell_formula_units_Z   2
loop_
 _symmetry_equiv_pos_site_id
 _symmetry_equiv_pos_as_xyz
  1  'x, y, z'
loop_
 _atom_site_type_symbol
 _atom_site_label
 _atom_site_symmetry_multiplicity
 _atom_site_fract_x
 _atom_site_fract_y
 _atom_site_fract_z
 _atom_site_occupancy
  Y  Y0  1  0.00000000  0.50000000  0.50000000  1
  Y  Y1  1  0.50000000  0.50000000  0.00000000  1
  Sn  Sn0  1  0.50000000  0.00000000  0.00000000  1
  Sn  Sn1  1  0.50000000  0.50000000  0.50000000  1
  Sn  Sn2  1  0.50000000  0.00000000  0.50000000  1
  Sn  Sn3  1  0.00000000  0.00000000  0.00000000  1
  Bi  Bi0  1  0.00000000  0.50000000  0.00000000  1
  Bi  Bi1  1  0.00000000  0.00000000  0.50000000  1
  O  O0  1  0.86616700  0.61616700  0.25000000  1
  O  O1  1  0.13383300  0.38383300  0.75000000  1
  O  O2  1  0.83386500  0.08386500  0.75000000  1
  O  O3  1  0.41330400  0.66330400  0.75000000  1
  O  O4  1  0.83564400  0.66390700  0.74505200  1
  O  O5  1  0.41885500  0.09059300  0.75494800  1
  O  O6  1  0.83564400  0.09059300  0.17173800  1
  O  O7  1  0.41885500  0.66390700  0.32826200  1
  O  O8  1  0.16613500  0.91613500  0.25000000  1
  O  O9  1  0.58669600  0.33669600  0.25000000  1
  O  O10  1  0.16435600  0.33609300  0.25494800  1
  O  O11  1  0.58114500  0.90940700  0.24505200  1
  O  O12  1  0.16435600  0.90940700  0.82826200  1
  O  O13  1  0.58114500  0.33609300  0.67173800  1
loop_
_geom_bond_atom_site_label_1
_geom_bond_atom_site_label_2
_geom_bond_distance
_geom_bond_site_symmetry_2
Bi0 O0 2.351021 1_455
Bi0 O1 2.351021 1_554
Bi0 O2 2.573748 1_454
Bi0 O8 2.573748 1_555
Bi0 O13 2.595217 1_454
Bi0 O7 2.595217 1_555
Bi0 O4 2.595218 1_454
Bi0 O10 2.595218 1_555
Bi1 O0 2.351021 1_445
Bi1 O1 2.351021 1_555
Bi1 O8 2.573748 1_545
Bi1 O2 2.573748 1_455
Bi1 O5 2.595217 1_555
Bi1 O11 2.595217 1_445
Bi1 O6 2.595217 1_455
Bi1 O12 2.595217 1_545
O0 Y0 2.252868 1_655
O0 Y1 2.252868 1_555
O1 Y0 2.252868 1_555
O1 Y1 2.252868 1_556
O2 Sn3 2.084218 1_656
O2 Sn2 2.084218 1_555
O3 Sn1 2.085797 1_555
O3 Sn0 2.085797 1_566
O3 Y0 2.562553 1_555
O3 Y1 2.562553 1_556
O4 Sn3 2.086284 1_666
O4 Sn1 2.091278 1_555
O4 Y0 2.530854 1_655
O5 Sn2 2.086283 1_555
O5 Sn0 2.091284 1_556
O5 Y1 2.530848 1_556
O6 Sn3 2.086289 1_655
O6 Sn0 2.091277 1_555
O6 Y0 2.530848 1_655
O7 Sn2 2.086283 1_565
O7 Sn1 2.091284 1_555
O7 Y1 2.530848 1_555
O8 Sn3 2.084218 1_565
O8 Sn2 2.084218 1_565
O9 Sn0 2.085797 1_555
O9 Sn1 2.085797 1_555
O9 Y0 2.562553 1_655
O9 Y1 2.562553 1_555
O10 Sn3 2.086284 1_555
O10 Sn1 2.091278 1_555
O10 Y0 2.530854 1_555
O11 Sn2 2.086283 1_565
O11 Sn0 2.091284 1_565
O11 Y1 2.530848 1_555
O12 Sn3 2.086289 1_566
O12 Sn0 2.091277 1_566
O12 Y0 2.530848 1_555
O13 Sn2 2.086283 1_555
O13 Sn1 2.091284 1_555
O13 Y1 2.530848 1_556
