# generated using pymatgen
data_Li9Mn2Co5O16
_symmetry_space_group_name_H-M   'P 1'
_cell_length_a   5.08561300
_cell_length_b   5.84436159
_cell_length_c   9.88854553
_cell_angle_alpha   98.85718157
_cell_angle_beta   95.04644163
_cell_angle_gamma   90.48175455
_symmetry_Int_Tables_number   1
_chemical_formula_structural   Li9Mn2Co5O16
_chemical_formula_sum   'Li9 Mn2 Co5 O16'
_cell_volume   289.20649802
_cell_formula_units_Z   1
loop_
 _symmetry_equiv_pos_site_id
 _symmetry_equiv_pos_as_xyz
  1  'x, y, z'
loop_
 _atom_site_type_symbol
 _atom_site_label
 _atom_site_symmetry_multiplicity
 _atom_site_fract_x
 _atom_site_fract_y
 _atom_site_fract_z
 _atom_site_occupancy
  Li  Li0  1  0.87556600  0.80757200  0.25820400  1
  Li  Li1  1  0.11690600  0.68716600  0.74238900  1
  Li  Li2  1  0.38457800  0.56270700  0.25889400  1
  Li  Li3  1  0.87389500  0.32003400  0.26071500  1
  Li  Li4  1  0.12684300  0.18694300  0.74422400  1
  Li  Li5  1  0.37222100  0.06257400  0.25667700  1
  Li  Li6  1  0.62797100  0.93142600  0.73971700  1
  Li  Li7  1  0.62048800  0.43978800  0.73846400  1
  Li  Li8  1  0.74993500  0.62543400  0.50017000  1
  Mn  Mn0  1  0.99966100  0.00054800  0.00027200  1
  Mn  Mn1  1  0.24909200  0.87298900  0.50127800  1
  Co  Co0  1  0.49991500  0.74883200  0.99923600  1
  Co  Co1  1  0.00024100  0.49987700  0.00009600  1
  Co  Co2  1  0.25673400  0.38126100  0.49682000  1
  Co  Co3  1  0.50024900  0.25168800  0.00076100  1
  Co  Co4  1  0.75345000  0.12577200  0.50093500  1
  O  O0  1  0.70148900  0.02415500  0.11225200  1
  O  O1  1  0.95035700  0.91165100  0.61008500  1
  O  O2  1  0.17853300  0.79058300  0.11133500  1
  O  O3  1  0.69331100  0.52646100  0.11632100  1
  O  O4  1  0.93444000  0.38290800  0.60944900  1
  O  O5  1  0.17622300  0.26899900  0.11422400  1
  O  O6  1  0.43018700  0.14540300  0.61636900  1
  O  O7  1  0.41281500  0.66681000  0.61702200  1
  O  O8  1  0.08693800  0.60628100  0.38343100  1
  O  O9  1  0.30640000  0.47466800  0.88519900  1
  O  O10  1  0.55388600  0.33480000  0.38717200  1
  O  O11  1  0.07034400  0.08170600  0.38532100  1
  O  O12  1  0.29723300  0.97650300  0.88888700  1
  O  O13  1  0.55612800  0.86425500  0.39166300  1
  O  O14  1  0.82255900  0.73066200  0.88450300  1
  O  O15  1  0.82141100  0.20954400  0.88791500  1
loop_
_geom_bond_atom_site_label_1
_geom_bond_atom_site_label_2
_geom_bond_distance
_geom_bond_site_symmetry_2
Li0 O11 2.064513 1_665
Li0 O8 2.075716 1_655
Li0 O3 2.136005 1_555
Li0 O13 2.177639 1_555
Li0 O0 2.196718 1_565
Li0 O2 2.201116 1_655
Li1 O7 2.025207 1_555
Li1 O1 2.121939 1_455
Li1 O14 2.132318 1_455
Li1 O12 2.187443 1_555
Li1 O9 2.187716 1_555
Li1 O4 2.188377 1_455
Li2 O8 2.027437 1_555
Li2 O10 2.114713 1_555
Li2 O13 2.156583 1_555
Li2 O3 2.191068 1_555
Li2 O5 2.249968 1_555
Li2 O2 2.313803 1_555
Li3 O10 2.132336 1_555
Li3 O8 2.134990 1_655
Li3 O3 2.157789 1_555
Li3 O11 2.189023 1_655
Li3 O5 2.194954 1_655
Li3 O0 2.209193 1_555
Li4 O1 2.064626 1_445
Li4 O6 2.071761 1_555
Li4 O4 2.074790 1_455
Li4 O9 2.152493 1_555
Li4 O12 2.156731 1_545
Li4 O15 2.187029 1_455
Li5 O10 2.045304 1_555
Li5 O13 2.067582 1_545
Li5 O11 2.071314 1_555
Li5 O2 2.140985 1_545
Li5 O5 2.174820 1_555
Li5 O0 2.285254 1_555
Li6 O7 2.054553 1_555
Li6 O6 2.082887 1_565
Li6 O1 2.161462 1_555
Li6 O14 2.166435 1_555
Li6 O15 2.177918 1_565
Li6 O12 2.323502 1_555
Li7 O6 2.116877 1_555
Li7 O4 2.126977 1_555
Li7 O7 2.146870 1_555
Li7 O14 2.232710 1_555
Li7 O9 2.240657 1_555
Li7 O15 2.325666 1_555
Li8 O1 2.057893 1_555
Li8 O10 2.078178 1_555
Li8 O13 2.090248 1_555
Li8 O4 2.091140 1_555
Li8 O8 2.143352 1_655
Li8 O7 2.145337 1_555
Mn0 O12 1.942228 1_644
Mn0 O5 1.947155 1_655
Mn0 O0 1.948460 1_555
Mn0 O2 1.948714 1_645
Mn0 O15 1.951272 1_554
Mn0 O14 1.961715 1_544
Mn1 O8 1.928128 1_555
Mn1 O7 1.931102 1_555
Mn1 O1 1.932696 1_455
Mn1 O11 1.973601 1_565
Mn1 O13 1.974273 1_555
Mn1 O6 1.977662 1_565
Co0 O9 2.007335 1_555
Co0 O0 2.026313 1_566
Co0 O2 2.049828 1_556
Co0 O3 2.069148 1_556
Co0 O14 2.069822 1_555
Co0 O12 2.072666 1_555
Co1 O9 2.000093 1_554
Co1 O3 2.011520 1_455
Co1 O2 2.035146 1_555
Co1 O15 2.038080 1_454
Co1 O5 2.051070 1_555
Co1 O14 2.062978 1_454
Co2 O10 1.933280 1_555
Co2 O7 2.007199 1_555
Co2 O8 2.008779 1_555
Co2 O4 2.060375 1_455
Co2 O11 2.091164 1_555
Co2 O6 2.101080 1_555
Co3 O3 2.014857 1_555
Co3 O12 2.024752 1_544
Co3 O15 2.053367 1_554
Co3 O9 2.063493 1_554
Co3 O5 2.068255 1_555
Co3 O0 2.075345 1_555
Co4 O4 1.887708 1_555
Co4 O13 1.945629 1_545
Co4 O1 1.995147 1_545
Co4 O10 2.007768 1_555
Co4 O11 2.052087 1_655
Co4 O6 2.076491 1_555
