# generated using pymatgen
data_HoAsO4
_symmetry_space_group_name_H-M   'P 1'
_cell_length_a   5.88020430
_cell_length_b   5.88020566
_cell_length_c   5.88020535
_cell_angle_alpha   106.60450770
_cell_angle_beta   106.60450067
_cell_angle_gamma   115.37067562
_symmetry_Int_Tables_number   1
_chemical_formula_structural   HoAsO4
_chemical_formula_sum   'Ho2 As2 O8'
_cell_volume   155.25757966
_cell_formula_units_Z   2
loop_
 _symmetry_equiv_pos_site_id
 _symmetry_equiv_pos_as_xyz
  1  'x, y, z'
loop_
 _atom_site_type_symbol
 _atom_site_label
 _atom_site_symmetry_multiplicity
 _atom_site_fract_x
 _atom_site_fract_y
 _atom_site_fract_z
 _atom_site_occupancy
  Ho  Ho0  1  0.12500000  0.87500000  0.25000000  1
  Ho  Ho1  1  0.87500000  0.12500000  0.75000000  1
  As  As0  1  0.37500000  0.62500000  0.75000000  1
  As  As1  1  0.62500000  0.37500000  0.25000000  1
  O  O0  1  0.80123514  0.73364853  0.43241339  1
  O  O1  1  0.36882275  0.80123514  0.56758661  1
  O  O2  1  0.73364853  0.80123514  0.93241339  1
  O  O3  1  0.80123514  0.36882275  0.06758661  1
  O  O4  1  0.63117725  0.19876486  0.43241339  1
  O  O5  1  0.19876486  0.26635147  0.56758661  1
  O  O6  1  0.19876486  0.63117725  0.93241339  1
  O  O7  1  0.26635147  0.19876486  0.06758661  1
loop_
_geom_bond_atom_site_label_1
_geom_bond_atom_site_label_2
_geom_bond_distance
_geom_bond_site_symmetry_2
Ho0 O2 2.279648 1_454
Ho0 O5 2.279649 1_565
Ho0 O6 2.279651 1_554
Ho0 O1 2.279652 1_555
Ho0 O4 2.405503 1_565
Ho0 O3 2.405503 1_455
Ho0 O0 2.405508 1_455
Ho0 O7 2.405508 1_565
Ho1 O7 2.279648 1_656
Ho1 O0 2.279649 1_545
Ho1 O3 2.279651 1_556
Ho1 O4 2.279652 1_555
Ho1 O1 2.405503 1_545
Ho1 O6 2.405503 1_655
Ho1 O5 2.405508 1_655
Ho1 O2 2.405508 1_545
As0 O6 1.694415 1_555
As0 O1 1.694416 1_555
As0 O2 1.694416 1_555
As0 O5 1.694416 1_555
As1 O3 1.694415 1_555
As1 O4 1.694416 1_555
As1 O7 1.694416 1_555
As1 O0 1.694416 1_555
