# generated using pymatgen
data_Sm4Cu5P7
_symmetry_space_group_name_H-M   'P 1'
_cell_length_a   10.55156671
_cell_length_b   10.55156671
_cell_length_c   10.55156671
_cell_angle_alpha   150.58991610
_cell_angle_beta   150.58991610
_cell_angle_gamma   42.07615422
_symmetry_Int_Tables_number   1
_chemical_formula_structural   Sm4Cu5P7
_chemical_formula_sum   'Sm4 Cu5 P7'
_cell_volume   282.60658042
_cell_formula_units_Z   1
loop_
 _symmetry_equiv_pos_site_id
 _symmetry_equiv_pos_as_xyz
  1  'x, y, z'
loop_
 _atom_site_type_symbol
 _atom_site_label
 _atom_site_symmetry_multiplicity
 _atom_site_fract_x
 _atom_site_fract_y
 _atom_site_fract_z
 _atom_site_occupancy
  Sm  Sm0  1  0.62459800  0.14260300  0.00000000  1
  Sm  Sm1  1  0.14260300  0.62459800  0.00000000  1
  Sm  Sm2  1  0.37540200  0.37540200  0.51800500  1
  Sm  Sm3  1  0.85739700  0.85739700  0.48199500  1
  Cu  Cu0  1  0.74954100  0.74954100  0.00000000  1
  Cu  Cu1  1  0.25045900  0.25045900  0.00000000  1
  Cu  Cu2  1  0.25000000  0.75000000  0.50000000  1
  Cu  Cu3  1  0.75000000  0.25000000  0.50000000  1
  Cu  Cu4  1  0.00000000  0.00000000  0.00000000  1
  P  P0  1  0.42152200  0.92889300  0.00000000  1
  P  P1  1  0.92889300  0.42152200  0.00000000  1
  P  P2  1  0.57847800  0.57847800  0.50737100  1
  P  P3  1  0.07110700  0.07110700  0.49262900  1
  P  P4  1  0.50000000  0.50000000  0.00000000  1
  P  P5  1  0.50000000  0.00000000  0.50000000  1
  P  P6  1  0.00000000  0.50000000  0.50000000  1
loop_
_geom_bond_atom_site_label_1
_geom_bond_atom_site_label_2
_geom_bond_distance
_geom_bond_site_symmetry_2
Cu0 P2 2.383049 1_554
Cu0 P3 2.383049 1_665
Cu0 P0 2.416024 1_555
Cu0 P1 2.416024 1_555
Cu1 P0 2.383049 1_545
Cu1 P1 2.383049 1_455
Cu1 P2 2.416024 1_555
Cu1 P3 2.416024 1_554
Cu2 P2 2.399576 1_555
Cu2 P3 2.399576 1_565
Cu2 P1 2.399576 1_455
Cu2 P0 2.399576 1_556
Cu3 P2 2.399576 1_555
Cu3 P3 2.399576 1_655
Cu3 P0 2.399576 1_545
Cu3 P1 2.399576 1_556
Cu4 P5 2.678442 1_555
Cu4 P5 2.678442 1_454
Cu4 P6 2.678442 1_544
Cu4 P6 2.678442 1_555
Cu4 Sm2 3.017662 1_555
Cu4 Sm0 3.017662 1_455
Cu4 Sm1 3.017662 1_545
Cu4 Sm3 3.017662 1_444
P0 Sm3 2.892850 1_555
P0 Sm2 2.892850 1_554
P0 Sm3 2.945121 1_454
P0 Sm2 2.945121 1_565
P1 Sm3 2.892850 1_555
P1 Sm2 2.892850 1_554
P1 Sm3 2.945121 1_544
P1 Sm2 2.945121 1_655
P2 Sm1 2.892850 1_555
P2 Sm0 2.892850 1_555
P2 Sm0 2.945121 1_566
P2 Sm1 2.945121 1_656
P3 Sm1 2.892850 1_556
P3 Sm0 2.892850 1_556
P3 Sm0 2.945121 1_455
P3 Sm1 2.945121 1_545
P4 P6 2.678442 1_554
P4 P5 2.678442 1_565
P4 P6 2.678442 1_655
P4 P5 2.678442 1_554
P4 Sm2 2.930804 1_554
P4 Sm3 2.930804 1_555
P4 Sm1 2.930804 1_555
P4 Sm0 2.930804 1_555
P5 Sm2 2.974550 1_555
P5 Sm3 2.974550 1_545
P5 Sm1 2.974550 1_545
P5 Sm0 2.974550 1_556
P6 Sm2 2.974550 1_555
P6 Sm3 2.974550 1_455
P6 Sm0 2.974550 1_455
P6 Sm1 2.974550 1_556
