# generated using pymatgen
data_CaAl2H4Pb2(O2F3)2
_symmetry_space_group_name_H-M   'P 1'
_cell_length_a   7.81294315
_cell_length_b   7.58197813
_cell_length_c   4.74627938
_cell_angle_alpha   94.50149906
_cell_angle_beta   94.94427031
_cell_angle_gamma   110.83497531
_symmetry_Int_Tables_number   1
_chemical_formula_structural   CaAl2H4Pb2(O2F3)2
_chemical_formula_sum   'Ca1 Al2 H4 Pb2 O4 F6'
_cell_volume   259.99039285
_cell_formula_units_Z   1
loop_
 _symmetry_equiv_pos_site_id
 _symmetry_equiv_pos_as_xyz
  1  'x, y, z'
loop_
 _atom_site_type_symbol
 _atom_site_label
 _atom_site_symmetry_multiplicity
 _atom_site_fract_x
 _atom_site_fract_y
 _atom_site_fract_z
 _atom_site_occupancy
  Ca  Ca0  1  0.50000000  0.00000000  0.50000000  1
  Al  Al0  1  0.15237600  0.66886900  0.12804700  1
  Al  Al1  1  0.84762400  0.33113100  0.87195300  1
  H  H0  1  0.15028300  0.49499300  0.63986000  1
  H  H1  1  0.84971700  0.50500700  0.36014000  1
  H  H2  1  0.09466200  0.83439200  0.73986000  1
  H  H3  1  0.90533800  0.16560800  0.26014000  1
  Pb  Pb0  1  0.75365800  0.78417200  0.94331700  1
  Pb  Pb1  1  0.24634200  0.21582800  0.05668300  1
  O  O0  1  0.09360900  0.48072100  0.81892500  1
  O  O1  1  0.90639100  0.51927900  0.18107600  1
  O  O2  1  0.07102400  0.84465300  0.94087000  1
  O  O3  1  0.92897600  0.15534700  0.05913000  1
  F  F0  1  0.19597300  0.83236500  0.45691500  1
  F  F1  1  0.80402700  0.16763500  0.54308600  1
  F  F2  1  0.25473400  0.53045100  0.34184000  1
  F  F3  1  0.74526600  0.46954900  0.65816000  1
  F  F4  1  0.39217200  0.81629300  0.06164900  1
  F  F5  1  0.60782800  0.18370700  0.93835100  1
loop_
_geom_bond_atom_site_label_1
_geom_bond_atom_site_label_2
_geom_bond_distance
_geom_bond_site_symmetry_2
Ca0 F1 2.242181 1_555
Ca0 F0 2.242181 1_545
Ca0 F5 2.320925 1_555
Ca0 F4 2.320925 1_545
Al0 F0 1.842107 1_555
Al0 F2 1.842535 1_555
Al0 O0 1.867578 1_554
Al0 F4 1.877804 1_555
Al0 O1 1.902869 1_455
Al0 O2 1.913293 1_554
Al1 F1 1.842103 1_555
Al1 F3 1.842535 1_555
Al1 O1 1.867581 1_556
Al1 F5 1.877804 1_555
Al1 O0 1.902868 1_655
Al1 O3 1.913293 1_556
H0 O0 0.987578 1_555
H1 O1 0.987574 1_555
H2 O2 0.989602 1_555
H3 O3 0.989602 1_555
O2 Pb0 2.357033 1_455
O2 Pb1 2.642645 1_566
O3 Pb1 2.357033 1_655
O3 Pb0 2.642645 1_544
F0 H2 1.618298 1_555
F1 H3 1.618302 1_555
F2 Pb1 2.625487 1_555
F3 Pb0 2.625487 1_555
