# generated using pymatgen
data_TbY2Ni6(B2C)3
_symmetry_space_group_name_H-M   'P 1'
_cell_length_a   15.87160275
_cell_length_b   15.87160275
_cell_length_c   15.87160275
_cell_angle_alpha   167.16736869
_cell_angle_beta   167.16736869
_cell_angle_gamma   18.18642277
_symmetry_Int_Tables_number   1
_chemical_formula_structural   TbY2Ni6(B2C)3
_chemical_formula_sum   'Tb1 Y2 Ni6 B6 C3'
_cell_volume   197.21490199
_cell_formula_units_Z   1
loop_
 _symmetry_equiv_pos_site_id
 _symmetry_equiv_pos_as_xyz
  1  'x, y, z'
loop_
 _atom_site_type_symbol
 _atom_site_label
 _atom_site_symmetry_multiplicity
 _atom_site_fract_x
 _atom_site_fract_y
 _atom_site_fract_z
 _atom_site_occupancy
  Tb  Tb0  1  0.50000000  0.50000000  0.00000000  1
  Y  Y0  1  0.16666600  0.16666600  0.00000000  1
  Y  Y1  1  0.83333400  0.83333400  0.00000000  1
  Ni  Ni0  1  0.58333800  0.08333800  0.50000000  1
  Ni  Ni1  1  0.25000000  0.75000000  0.50000000  1
  Ni  Ni2  1  0.91666200  0.41666200  0.50000000  1
  Ni  Ni3  1  0.08333800  0.58333800  0.50000000  1
  Ni  Ni4  1  0.75000000  0.25000000  0.50000000  1
  Ni  Ni5  1  0.41666200  0.91666200  0.50000000  1
  B  B0  1  0.61894400  0.61894400  0.00000000  1
  B  B1  1  0.28563000  0.28563000  0.00000000  1
  B  B2  1  0.95229600  0.95229600  0.00000000  1
  B  B3  1  0.04770400  0.04770400  0.00000000  1
  B  B4  1  0.71437000  0.71437000  0.00000000  1
  B  B5  1  0.38105600  0.38105600  0.00000000  1
  C  C0  1  0.00000000  0.00000000  0.00000000  1
  C  C1  1  0.66666900  0.66666900  0.00000000  1
  C  C2  1  0.33333100  0.33333100  0.00000000  1
loop_
_geom_bond_atom_site_label_1
_geom_bond_atom_site_label_2
_geom_bond_distance
_geom_bond_site_symmetry_2
B0 C1 1.495905 1_555
B0 Ni0 2.095591 1_554
B0 Ni3 2.095591 1_655
B0 Ni3 2.095591 1_554
B0 Ni0 2.095591 1_565
B1 C2 1.495153 1_555
B1 Ni4 2.095992 1_454
B1 Ni1 2.095992 1_555
B1 Ni4 2.095992 1_555
B1 Ni1 2.095992 1_544
B2 C0 1.495247 1_665
B2 Ni2 2.096059 1_565
B2 Ni5 2.096059 1_655
B2 Ni5 2.096059 1_554
B2 Ni2 2.096059 1_554
B3 C0 1.495247 1_555
B3 Ni3 2.096059 1_544
B3 Ni0 2.096059 1_454
B3 Ni3 2.096059 1_555
B3 Ni0 2.096059 1_555
B4 C1 1.495153 1_555
B4 Ni1 2.095992 1_655
B4 Ni4 2.095992 1_554
B4 Ni1 2.095992 1_554
B4 Ni4 2.095992 1_565
B5 C2 1.495905 1_555
B5 Ni5 2.095591 1_544
B5 Ni2 2.095591 1_555
B5 Ni5 2.095591 1_555
B5 Ni2 2.095591 1_454
C0 Tb0 2.508365 1_556
C0 Tb0 2.508365 1_455
C0 Tb0 2.508365 1_545
C0 Tb0 2.508365 1_444
C1 Y0 2.508365 1_565
C1 Y0 2.508365 1_655
C1 Y0 2.508365 1_554
C1 Y0 2.508365 1_666
C2 Y1 2.508365 1_545
C2 Y1 2.508365 1_444
C2 Y1 2.508365 1_556
C2 Y1 2.508365 1_455
