# generated using pymatgen
data_F2
_symmetry_space_group_name_H-M   'P 1'
_cell_length_a   3.37801233
_cell_length_b   3.37801233
_cell_length_c   6.07844167
_cell_angle_alpha   67.66006248
_cell_angle_beta   67.66006248
_cell_angle_gamma   56.96078500
_symmetry_Int_Tables_number   1
_chemical_formula_structural   F2
_chemical_formula_sum   F4
_cell_volume   52.42741414
_cell_formula_units_Z   2
loop_
 _symmetry_equiv_pos_site_id
 _symmetry_equiv_pos_as_xyz
  1  'x, y, z'
loop_
 _atom_site_type_symbol
 _atom_site_label
 _atom_site_symmetry_multiplicity
 _atom_site_fract_x
 _atom_site_fract_y
 _atom_site_fract_z
 _atom_site_occupancy
  F  F0  1  0.83090023  0.64289011  0.28981627  1
  F  F1  1  0.35710989  0.16909977  0.21018373  1
  F  F2  1  0.16909977  0.35710989  0.71018373  1
  F  F3  1  0.64289011  0.83090023  0.78981627  1
loop_
_geom_bond_atom_site_label_1
_geom_bond_atom_site_label_2
_geom_bond_distance
_geom_bond_site_symmetry_2
F0 F1 1.669774 1_655
F0 F1 1.669774 1_565
F2 F3 1.669774 1_545
F2 F3 1.669774 1_455
