# generated using pymatgen
data_Ba9Ca3La4(Fe4O15)2
_symmetry_space_group_name_H-M   'P 1'
_cell_length_a   7.05238700
_cell_length_b   11.81285005
_cell_length_c   11.82451551
_cell_angle_alpha   119.96157004
_cell_angle_beta   90.00193336
_cell_angle_gamma   90.00533047
_symmetry_Int_Tables_number   1
_chemical_formula_structural   Ba9Ca3La4(Fe4O15)2
_chemical_formula_sum   'Ba9 Ca3 La4 Fe8 O30'
_cell_volume   853.43973522
_cell_formula_units_Z   1
loop_
 _symmetry_equiv_pos_site_id
 _symmetry_equiv_pos_as_xyz
  1  'x, y, z'
loop_
 _atom_site_type_symbol
 _atom_site_label
 _atom_site_symmetry_multiplicity
 _atom_site_fract_x
 _atom_site_fract_y
 _atom_site_fract_z
 _atom_site_occupancy
  Ba  Ba0  1  0.68393500  0.34759700  0.17939000  1
  Ba  Ba1  1  0.67849200  0.83077900  0.17591200  1
  Ba  Ba2  1  0.68143700  0.82406600  0.65245900  1
  Ba  Ba3  1  0.16830200  0.66234900  0.82784900  1
  Ba  Ba4  1  0.17383400  0.16487400  0.82464200  1
  Ba  Ba5  1  0.17133800  0.16840400  0.34041500  1
  Ba  Ba6  1  0.99478300  0.66796200  0.33856600  1
  Ba  Ba7  1  0.49376900  0.32924700  0.66124800  1
  Ba  Ba8  1  0.49967700  0.99991400  0.99970700  1
  Ca  Ca0  1  0.99608900  0.00045200  0.00026600  1
  Ca  Ca1  1  0.35099400  0.96072700  0.48040900  1
  Ca  Ca2  1  0.85160200  0.47991200  0.52027100  1
  La  La0  1  0.34428000  0.52040700  0.47952800  1
  La  La1  1  0.34510300  0.52164500  0.04308800  1
  La  La2  1  0.84505900  0.04250200  0.52135800  1
  La  La3  1  0.84540300  0.47794500  0.95560200  1
  Fe  Fe0  1  0.53490200  0.67028700  0.33613800  1
  Fe  Fe1  1  0.03703700  0.33413700  0.66377800  1
  Fe  Fe2  1  0.16654900  0.35282200  0.17766000  1
  Fe  Fe3  1  0.16959300  0.82435900  0.17967100  1
  Fe  Fe4  1  0.16935600  0.82289600  0.64443800  1
  Fe  Fe5  1  0.67806000  0.64745000  0.82166700  1
  Fe  Fe6  1  0.67522200  0.17382500  0.82388900  1
  Fe  Fe7  1  0.67794200  0.17727300  0.35275800  1
  O  O0  1  0.34904300  0.49454300  0.24615500  1
  O  O1  1  0.35010300  0.75063700  0.24769500  1
  O  O2  1  0.34918000  0.75128600  0.50162900  1
  O  O3  1  0.84940500  0.50166900  0.75143400  1
  O  O4  1  0.84848100  0.24906300  0.75314300  1
  O  O5  1  0.84853700  0.25053700  0.49964400  1
  O  O6  1  0.53812700  0.61034700  0.93757700  1
  O  O7  1  0.53634400  0.06162500  0.67202200  1
  O  O8  1  0.53064300  0.32519500  0.38733300  1
  O  O9  1  0.53704600  0.32788700  0.93816200  1
  O  O10  1  0.53017700  0.61298000  0.67486800  1
  O  O11  1  0.53808500  0.06244300  0.38981500  1
  O  O12  1  0.03496100  0.39567600  0.06390400  1
  O  O13  1  0.02761300  0.93594700  0.32900600  1
  O  O14  1  0.03552900  0.66859600  0.60399800  1
  O  O15  1  0.03585600  0.66890200  0.06459700  1
  O  O16  1  0.03392000  0.39568100  0.33192600  1
  O  O17  1  0.02824400  0.93563900  0.60659900  1
  O  O18  1  0.79167900  0.81360900  0.90694500  1
  O  O19  1  0.79137000  0.09319400  0.90797100  1
  O  O20  1  0.79116300  0.09363100  0.18640000  1
  O  O21  1  0.24043300  0.17868700  0.08864900  1
  O  O22  1  0.24075600  0.90963600  0.08986000  1
  O  O23  1  0.23983500  0.91033600  0.81986100  1
  O  O24  1  0.68518100  0.83163700  0.41509300  1
  O  O25  1  0.67648800  0.58356700  0.41612300  1
  O  O26  1  0.67715800  0.58362400  0.16628800  1
  O  O27  1  0.17655000  0.16709600  0.58367200  1
  O  O28  1  0.18587700  0.41682700  0.58456200  1
  O  O29  1  0.17746000  0.41767500  0.83436000  1
loop_
_geom_bond_atom_site_label_1
_geom_bond_atom_site_label_2
_geom_bond_distance
_geom_bond_site_symmetry_2
Ba0 O25 2.795507 1_555
Ba0 O0 2.801172 1_555
Ba0 O8 2.816847 1_555
Ba0 O26 2.869068 1_555
Ba0 O9 2.932566 1_554
Ba0 O16 2.940090 1_655
Ba0 O12 3.015034 1_655
Ba0 O20 3.134949 1_555
Ba0 O19 3.205076 1_554
Ba1 O1 2.789728 1_555
Ba1 O11 2.820268 1_565
Ba1 O24 2.823544 1_555
Ba1 O26 2.864483 1_555
Ba1 O6 2.893453 1_554
Ba1 O13 2.938597 1_655
Ba1 O15 3.037756 1_655
Ba1 O20 3.146887 1_565
Ba1 O18 3.185777 1_554
Ba2 O2 2.806847 1_555
Ba2 O25 2.819903 1_555
Ba2 O10 2.843469 1_555
Ba2 O24 2.852579 1_555
Ba2 O7 2.885783 1_565
Ba2 O17 2.954076 1_655
Ba2 O14 2.981109 1_655
Ba2 O18 3.169540 1_555
Ba2 O19 3.200278 1_565
Ba3 O3 2.786237 1_455
Ba3 O14 2.843134 1_555
Ba3 O28 2.892955 1_555
Ba3 O15 2.915306 1_556
Ba3 O29 2.930224 1_555
Ba3 O10 3.012029 1_555
Ba3 O23 3.020116 1_555
Ba3 O22 3.058229 1_556
Ba3 O18 3.074750 1_455
Ba3 O6 3.107962 1_555
Ba4 O4 2.794413 1_455
Ba4 O17 2.839042 1_545
Ba4 O27 2.862617 1_555
Ba4 O29 2.930712 1_555
Ba4 O12 2.948371 1_556
Ba4 O7 3.013759 1_555
Ba4 O23 3.015177 1_545
Ba4 O21 3.079558 1_556
Ba4 O9 3.080309 1_555
Ba4 O19 3.129902 1_455
Ba5 O5 2.800876 1_455
Ba5 O13 2.866261 1_545
Ba5 O27 2.884377 1_555
Ba5 O16 2.902935 1_555
Ba5 O28 2.914526 1_555
Ba5 O8 3.021898 1_555
Ba5 O22 3.052170 1_545
Ba5 O11 3.054252 1_555
Ba5 O21 3.078325 1_555
Ba5 O20 3.110918 1_455
Ba6 O24 2.752795 1_555
Ba6 O25 2.790468 1_555
Ba6 O26 2.851691 1_555
Ba6 O2 3.006136 1_655
Ba6 O0 3.065584 1_655
Ba6 O1 3.071737 1_655
Ba6 O14 3.148004 1_655
Ba6 O17 3.176288 1_655
Ba6 O16 3.189920 1_655
Ba6 O13 3.231893 1_655
Ba6 O12 3.246525 1_655
Ba6 O15 3.258022 1_655
Ba7 O28 2.746772 1_555
Ba7 O27 2.785560 1_555
Ba7 O29 2.849981 1_555
Ba7 O5 3.000318 1_555
Ba7 O4 3.060075 1_555
Ba7 O3 3.066851 1_555
Ba7 O11 3.198228 1_555
Ba7 O8 3.225783 1_555
Ba7 O7 3.240857 1_555
Ba7 O10 3.284266 1_555
Ba7 O9 3.296575 1_555
Ba7 O6 3.311030 1_555
Ba8 O21 2.586681 1_566
Ba8 O22 2.596785 1_556
Ba8 O23 2.598440 1_555
Ba8 O19 2.795754 1_565
Ba8 O18 2.806634 1_555
Ba8 O20 2.807647 1_566
Ca0 O19 2.381199 1_554
Ca0 O20 2.392717 1_555
Ca0 O18 2.394558 1_544
Ca0 O21 2.509183 1_655
Ca0 O23 2.524099 1_644
Ca0 O22 2.527046 1_645
Ca1 O7 2.359015 1_565
Ca1 O11 2.370155 1_565
Ca1 O27 2.444341 1_565
Ca1 O2 2.608512 1_555
Ca1 O1 2.628686 1_555
Ca1 O24 2.702014 1_555
Ca1 O17 2.817267 1_555
Ca1 O13 2.822778 1_555
Ca2 O16 2.321685 1_655
Ca2 O14 2.329363 1_655
Ca2 O25 2.459146 1_555
Ca2 O5 2.596463 1_555
Ca2 O3 2.614579 1_555
Ca2 O28 2.693852 1_655
Ca2 O8 2.839755 1_555
Ca2 O10 2.842857 1_555
La0 O8 2.392319 1_555
La0 O10 2.392986 1_555
La0 O28 2.409423 1_555
La0 O2 2.606901 1_555
La0 O0 2.620557 1_555
La0 O25 2.676990 1_555
La0 O14 2.720157 1_555
La0 O16 2.727333 1_555
La1 O9 2.403064 1_554
La1 O6 2.411053 1_554
La1 O29 2.443266 1_554
La1 O1 2.575843 1_555
La1 O0 2.576184 1_555
La1 O26 2.660131 1_555
La1 O15 2.721383 1_555
La1 O12 2.724736 1_555
La2 O17 2.355752 1_645
La2 O13 2.357116 1_645
La2 O24 2.434737 1_545
La2 O5 2.595380 1_555
La2 O4 2.605065 1_555
La2 O27 2.662798 1_655
La2 O11 2.743627 1_555
La2 O7 2.750156 1_555
La3 O12 2.369556 1_656
La3 O15 2.376750 1_656
La3 O26 2.463073 1_556
La3 O4 2.564504 1_555
La3 O3 2.565819 1_555
La3 O29 2.650889 1_655
La3 O6 2.742489 1_555
La3 O9 2.747349 1_555
Fe0 O24 1.962108 1_555
Fe0 O25 1.977078 1_555
Fe0 O26 2.008689 1_555
Fe0 O2 2.142552 1_555
Fe0 O1 2.164425 1_555
Fe0 O0 2.225568 1_555
Fe1 O28 1.961412 1_555
Fe1 O27 1.972926 1_555
Fe1 O29 2.008622 1_555
Fe1 O5 2.143451 1_455
Fe1 O3 2.166470 1_455
Fe1 O4 2.226076 1_455
Fe2 O21 1.856976 1_555
Fe2 O16 1.880524 1_555
Fe2 O12 1.899192 1_555
Fe2 O0 1.939146 1_555
Fe3 O22 1.860895 1_555
Fe3 O13 1.879813 1_555
Fe3 O15 1.901869 1_555
Fe3 O1 1.930231 1_555
Fe4 O23 1.864514 1_555
Fe4 O17 1.886721 1_555
Fe4 O14 1.889657 1_555
Fe4 O2 1.936222 1_555
Fe5 O18 1.879949 1_555
Fe5 O10 1.886904 1_555
Fe5 O6 1.909060 1_555
Fe5 O3 1.920274 1_555
Fe6 O19 1.874206 1_555
Fe6 O7 1.887590 1_555
Fe6 O9 1.905687 1_555
Fe6 O4 1.930085 1_555
Fe7 O20 1.882078 1_555
Fe7 O8 1.893784 1_555
Fe7 O11 1.896924 1_555
Fe7 O5 1.926493 1_555
