# generated using pymatgen
data_Pr2In3Cu
_symmetry_space_group_name_H-M   'P 1'
_cell_length_a   7.71046600
_cell_length_b   9.67866756
_cell_length_c   16.84712633
_cell_angle_alpha   89.99968063
_cell_angle_beta   90.00000000
_cell_angle_gamma   90.00000000
_symmetry_Int_Tables_number   1
_chemical_formula_structural   Pr2In3Cu
_chemical_formula_sum   'Pr16 In24 Cu8'
_cell_volume   1257.25112298
_cell_formula_units_Z   8
loop_
 _symmetry_equiv_pos_site_id
 _symmetry_equiv_pos_as_xyz
  1  'x, y, z'
loop_
 _atom_site_type_symbol
 _atom_site_label
 _atom_site_symmetry_multiplicity
 _atom_site_fract_x
 _atom_site_fract_y
 _atom_site_fract_z
 _atom_site_occupancy
  Pr  Pr0_0  1  0.00000000  0.49999300  0.00329550  1
  Pr  Pr0_1  1  0.00000000  0.49999300  0.50329550  1
  Pr  Pr0_2  1  0.00000000  0.99999300  0.00329550  1
  Pr  Pr0_3  1  0.00000000  0.99999300  0.50329550  1
  Pr  Pr0_4  1  0.50000000  0.49999300  0.00329550  1
  Pr  Pr0_5  1  0.50000000  0.49999300  0.50329550  1
  Pr  Pr0_6  1  0.50000000  0.99999300  0.00329550  1
  Pr  Pr0_7  1  0.50000000  0.99999300  0.50329550  1
  Pr  Pr1_0  1  0.00000000  0.24999100  0.24775600  1
  Pr  Pr1_1  1  0.00000000  0.24999100  0.74775600  1
  Pr  Pr1_2  1  0.00000000  0.74999100  0.24775600  1
  Pr  Pr1_3  1  0.00000000  0.74999100  0.74775600  1
  Pr  Pr1_4  1  0.50000000  0.24999100  0.24775600  1
  Pr  Pr1_5  1  0.50000000  0.24999100  0.74775600  1
  Pr  Pr1_6  1  0.50000000  0.74999100  0.24775600  1
  Pr  Pr1_7  1  0.50000000  0.74999100  0.74775600  1
  In  In0_0  1  0.25000000  0.24999400  0.41844000  1
  In  In0_1  1  0.25000000  0.24999400  0.91844000  1
  In  In0_2  1  0.25000000  0.74999400  0.41844000  1
  In  In0_3  1  0.25000000  0.74999400  0.91844000  1
  In  In0_4  1  0.75000000  0.24999400  0.41844000  1
  In  In0_5  1  0.75000000  0.24999400  0.91844000  1
  In  In0_6  1  0.75000000  0.74999400  0.41844000  1
  In  In0_7  1  0.75000000  0.74999400  0.91844000  1
  In  In1_0  1  0.25000000  0.24998900  0.09119650  1
  In  In1_1  1  0.25000000  0.24998900  0.59119650  1
  In  In1_2  1  0.25000000  0.74998900  0.09119650  1
  In  In1_3  1  0.25000000  0.74998900  0.59119650  1
  In  In1_4  1  0.75000000  0.24998900  0.09119650  1
  In  In1_5  1  0.75000000  0.24998900  0.59119650  1
  In  In1_6  1  0.75000000  0.74998900  0.09119650  1
  In  In1_7  1  0.75000000  0.74998900  0.59119650  1
  In  In2_0  1  0.25000000  0.49994750  0.32406350  1
  In  In2_1  1  0.25000000  0.49994750  0.82406350  1
  In  In2_2  1  0.25000000  0.99994750  0.32406350  1
  In  In2_3  1  0.25000000  0.99994750  0.82406350  1
  In  In2_4  1  0.75000000  0.49994750  0.32406350  1
  In  In2_5  1  0.75000000  0.49994750  0.82406350  1
  In  In2_6  1  0.75000000  0.99994750  0.32406350  1
  In  In2_7  1  0.75000000  0.99994750  0.82406350  1
  Cu  Cu0_0  1  0.25000000  0.49998550  0.16524900  1
  Cu  Cu0_1  1  0.25000000  0.49998550  0.66524900  1
  Cu  Cu0_2  1  0.25000000  0.99998550  0.16524900  1
  Cu  Cu0_3  1  0.25000000  0.99998550  0.66524900  1
  Cu  Cu0_4  1  0.75000000  0.49998550  0.16524900  1
  Cu  Cu0_5  1  0.75000000  0.49998550  0.66524900  1
  Cu  Cu0_6  1  0.75000000  0.99998550  0.16524900  1
  Cu  Cu0_7  1  0.75000000  0.99998550  0.66524900  1
loop_
_geom_bond_atom_site_label_1
_geom_bond_atom_site_label_2
_geom_bond_distance
_geom_bond_site_symmetry_2
Pr0_0 Pr0_4 3.855233 1_455
Pr0_0 Pr0_4 3.855233 1_555
Pr0_1 Pr0_5 3.855233 1_555
Pr0_1 Pr0_5 3.855233 1_455
Pr0_2 Pr0_6 3.855233 1_555
Pr0_2 Pr0_6 3.855233 1_455
Pr0_3 Pr0_7 3.855233 1_555
Pr0_3 Pr0_7 3.855233 1_455
In0_0 In2_0 2.894923 1_555
In0_0 In2_2 2.895690 1_545
In0_0 In1_1 2.910451 1_555
In0_0 Pr0_5 3.407955 1_555
In0_0 Pr0_1 3.407955 1_555
In0_0 Pr0_3 3.407958 1_545
In0_0 Pr0_7 3.407958 1_545
In0_0 Pr1_0 3.461850 1_555
In0_0 Pr1_4 3.461850 1_555
In0_1 In2_1 2.894923 1_555
In0_1 In2_3 2.895690 1_545
In0_1 In1_0 2.910451 1_556
In0_1 Pr0_0 3.407955 1_556
In0_1 Pr0_4 3.407955 1_556
In0_1 Pr0_2 3.407958 1_546
In0_1 Pr0_6 3.407958 1_546
In0_1 Pr1_5 3.461850 1_555
In0_1 Pr1_1 3.461850 1_555
In0_2 In2_2 2.894923 1_555
In0_2 In2_0 2.895690 1_555
In0_2 In1_3 2.910451 1_555
In0_2 Pr0_7 3.407955 1_555
In0_2 Pr0_3 3.407955 1_555
In0_2 Pr0_5 3.407958 1_555
In0_2 Pr0_1 3.407958 1_555
In0_2 Pr1_2 3.461850 1_555
In0_2 Pr1_6 3.461850 1_555
In0_3 In2_3 2.894923 1_555
In0_3 In2_1 2.895690 1_555
In0_3 In1_2 2.910451 1_556
In0_3 Pr0_6 3.407955 1_556
In0_3 Pr0_2 3.407955 1_556
In0_3 Pr0_4 3.407958 1_556
In0_3 Pr0_0 3.407958 1_556
In0_3 Pr1_3 3.461850 1_555
In0_3 Pr1_7 3.461850 1_555
In0_4 In2_4 2.894923 1_555
In0_4 In2_6 2.895690 1_545
In0_4 In1_5 2.910451 1_555
In0_4 Pr0_1 3.407955 1_655
In0_4 Pr0_5 3.407955 1_555
In0_4 Pr0_3 3.407958 1_645
In0_4 Pr0_7 3.407958 1_545
In0_4 Pr1_0 3.461850 1_655
In0_4 Pr1_4 3.461850 1_555
In0_5 In2_5 2.894923 1_555
In0_5 In2_7 2.895690 1_545
In0_5 In1_4 2.910451 1_556
In0_5 Pr0_4 3.407955 1_556
In0_5 Pr0_0 3.407955 1_656
In0_5 Pr0_6 3.407958 1_546
In0_5 Pr0_2 3.407958 1_646
In0_5 Pr1_5 3.461850 1_555
In0_5 Pr1_1 3.461850 1_655
In0_6 In2_6 2.894923 1_555
In0_6 In2_4 2.895690 1_555
In0_6 In1_7 2.910451 1_555
In0_6 Pr0_3 3.407955 1_655
In0_6 Pr0_7 3.407955 1_555
In0_6 Pr0_1 3.407958 1_655
In0_6 Pr0_5 3.407958 1_555
In0_6 Pr1_6 3.461850 1_555
In0_6 Pr1_2 3.461850 1_655
In0_7 In2_7 2.894923 1_555
In0_7 In2_5 2.895690 1_555
In0_7 In1_6 2.910451 1_556
In0_7 Pr0_6 3.407955 1_556
In0_7 Pr0_2 3.407955 1_656
In0_7 Pr0_4 3.407958 1_556
In0_7 Pr0_0 3.407958 1_656
In0_7 Pr1_3 3.461850 1_655
In0_7 Pr1_7 3.461850 1_555
In1_0 Pr1_0 3.266883 1_555
In1_0 Pr1_4 3.266883 1_555
In1_0 Pr0_2 3.429774 1_545
In1_0 Pr0_6 3.429774 1_545
In1_0 Pr0_0 3.429817 1_555
In1_0 Pr0_4 3.429817 1_555
In1_1 Pr1_1 3.266883 1_555
In1_1 Pr1_5 3.266883 1_555
In1_1 Pr0_7 3.429774 1_545
In1_1 Pr0_3 3.429774 1_545
In1_1 Pr0_1 3.429817 1_555
In1_1 Pr0_5 3.429817 1_555
In1_2 Pr1_6 3.266883 1_555
In1_2 Pr1_2 3.266883 1_555
In1_2 Pr0_0 3.429774 1_555
In1_2 Pr0_4 3.429774 1_555
In1_2 Pr0_2 3.429817 1_555
In1_2 Pr0_6 3.429817 1_555
In1_3 Pr1_7 3.266883 1_555
In1_3 Pr1_3 3.266883 1_555
In1_3 Pr0_1 3.429774 1_555
In1_3 Pr0_5 3.429774 1_555
In1_3 Pr0_7 3.429817 1_555
In1_3 Pr0_3 3.429817 1_555
In1_4 Pr1_0 3.266883 1_655
In1_4 Pr1_4 3.266883 1_555
In1_4 Pr0_2 3.429774 1_645
In1_4 Pr0_6 3.429774 1_545
In1_4 Pr0_0 3.429817 1_655
In1_4 Pr0_4 3.429817 1_555
In1_5 Pr1_1 3.266883 1_655
In1_5 Pr1_5 3.266883 1_555
In1_5 Pr0_3 3.429774 1_645
In1_5 Pr0_7 3.429774 1_545
In1_5 Pr0_5 3.429817 1_555
In1_5 Pr0_1 3.429817 1_655
In1_6 Pr1_2 3.266883 1_655
In1_6 Pr1_6 3.266883 1_555
In1_6 Pr0_0 3.429774 1_655
In1_6 Pr0_4 3.429774 1_555
In1_6 Pr0_2 3.429817 1_655
In1_6 Pr0_6 3.429817 1_555
In1_7 Pr1_7 3.266883 1_555
In1_7 Pr1_3 3.266883 1_655
In1_7 Pr0_5 3.429774 1_555
In1_7 Pr0_1 3.429774 1_655
In1_7 Pr0_7 3.429817 1_555
In1_7 Pr0_3 3.429817 1_655
In2_0 Pr1_0 3.349800 1_555
In2_0 Pr1_4 3.349800 1_555
In2_0 Pr1_6 3.350398 1_555
In2_0 Pr1_2 3.350398 1_555
In2_0 Pr0_5 3.582367 1_555
In2_0 Pr0_1 3.582367 1_555
In2_1 Pr1_5 3.349800 1_555
In2_1 Pr1_1 3.349800 1_555
In2_1 Pr1_3 3.350398 1_555
In2_1 Pr1_7 3.350398 1_555
In2_1 Pr0_0 3.582367 1_556
In2_1 Pr0_4 3.582367 1_556
In2_2 Pr1_6 3.349800 1_555
In2_2 Pr1_2 3.349800 1_555
In2_2 Pr1_0 3.350398 1_565
In2_2 Pr1_4 3.350398 1_565
In2_2 Pr0_3 3.582367 1_555
In2_2 Pr0_7 3.582367 1_555
In2_3 Pr1_7 3.349800 1_555
In2_3 Pr1_3 3.349800 1_555
In2_3 Pr1_1 3.350398 1_565
In2_3 Pr1_5 3.350398 1_565
In2_3 Pr0_2 3.582367 1_556
In2_3 Pr0_6 3.582367 1_556
In2_4 Pr1_0 3.349800 1_655
In2_4 Pr1_4 3.349800 1_555
In2_4 Pr1_2 3.350398 1_655
In2_4 Pr1_6 3.350398 1_555
In2_4 Pr0_5 3.582367 1_555
In2_4 Pr0_1 3.582367 1_655
In2_5 Pr1_1 3.349800 1_655
In2_5 Pr1_5 3.349800 1_555
In2_5 Pr1_3 3.350398 1_655
In2_5 Pr1_7 3.350398 1_555
In2_5 Pr0_0 3.582367 1_656
In2_5 Pr0_4 3.582367 1_556
In2_6 Pr1_2 3.349800 1_655
In2_6 Pr1_6 3.349800 1_555
In2_6 Pr1_0 3.350398 1_665
In2_6 Pr1_4 3.350398 1_565
In2_6 Pr0_3 3.582367 1_655
In2_6 Pr0_7 3.582367 1_555
In2_7 Pr1_3 3.349800 1_655
In2_7 Pr1_7 3.349800 1_555
In2_7 Pr1_5 3.350398 1_565
In2_7 Pr1_1 3.350398 1_665
In2_7 Pr0_2 3.582367 1_656
In2_7 Pr0_6 3.582367 1_556
Cu0_0 In2_0 2.675568 1_555
Cu0_0 In1_0 2.722332 1_555
Cu0_0 In1_2 2.722380 1_555
Cu0_0 Pr0_0 3.340681 1_555
Cu0_0 Pr0_4 3.340681 1_555
Cu0_0 Pr1_0 3.391506 1_555
Cu0_0 Pr1_4 3.391506 1_555
Cu0_0 Pr1_6 3.391593 1_555
Cu0_0 Pr1_2 3.391593 1_555
Cu0_1 In2_1 2.675568 1_555
Cu0_1 In1_1 2.722332 1_555
Cu0_1 In1_3 2.722380 1_555
Cu0_1 Pr0_1 3.340681 1_555
Cu0_1 Pr0_5 3.340681 1_555
Cu0_1 Pr1_1 3.391506 1_555
Cu0_1 Pr1_5 3.391506 1_555
Cu0_1 Pr1_3 3.391593 1_555
Cu0_1 Pr1_7 3.391593 1_555
Cu0_2 In2_2 2.675568 1_555
Cu0_2 In1_2 2.722332 1_555
Cu0_2 In1_0 2.722380 1_565
Cu0_2 Pr0_2 3.340681 1_555
Cu0_2 Pr0_6 3.340681 1_555
Cu0_2 Pr1_2 3.391506 1_555
Cu0_2 Pr1_6 3.391506 1_555
Cu0_2 Pr1_0 3.391593 1_565
Cu0_2 Pr1_4 3.391593 1_565
Cu0_3 In2_3 2.675568 1_555
Cu0_3 In1_3 2.722332 1_555
Cu0_3 In1_1 2.722380 1_565
Cu0_3 Pr0_3 3.340681 1_555
Cu0_3 Pr0_7 3.340681 1_555
Cu0_3 Pr1_7 3.391506 1_555
Cu0_3 Pr1_3 3.391506 1_555
Cu0_3 Pr1_1 3.391593 1_565
Cu0_3 Pr1_5 3.391593 1_565
Cu0_4 In2_4 2.675568 1_555
Cu0_4 In1_4 2.722332 1_555
Cu0_4 In1_6 2.722380 1_555
Cu0_4 Pr0_0 3.340681 1_655
Cu0_4 Pr0_4 3.340681 1_555
Cu0_4 Pr1_0 3.391506 1_655
Cu0_4 Pr1_4 3.391506 1_555
Cu0_4 Pr1_6 3.391593 1_555
Cu0_4 Pr1_2 3.391593 1_655
Cu0_5 In2_5 2.675568 1_555
Cu0_5 In1_5 2.722332 1_555
Cu0_5 In1_7 2.722380 1_555
Cu0_5 Pr0_1 3.340681 1_655
Cu0_5 Pr0_5 3.340681 1_555
Cu0_5 Pr1_1 3.391506 1_655
Cu0_5 Pr1_5 3.391506 1_555
Cu0_5 Pr1_3 3.391593 1_655
Cu0_5 Pr1_7 3.391593 1_555
Cu0_6 In2_6 2.675568 1_555
Cu0_6 In1_6 2.722332 1_555
Cu0_6 In1_4 2.722380 1_565
Cu0_6 Pr0_6 3.340681 1_555
Cu0_6 Pr0_2 3.340681 1_655
Cu0_6 Pr1_2 3.391506 1_655
Cu0_6 Pr1_6 3.391506 1_555
Cu0_6 Pr1_0 3.391593 1_665
Cu0_6 Pr1_4 3.391593 1_565
Cu0_7 In2_7 2.675568 1_555
Cu0_7 In1_7 2.722332 1_555
Cu0_7 In1_5 2.722380 1_565
Cu0_7 Pr0_3 3.340681 1_655
Cu0_7 Pr0_7 3.340681 1_555
Cu0_7 Pr1_3 3.391506 1_655
Cu0_7 Pr1_7 3.391506 1_555
Cu0_7 Pr1_1 3.391593 1_665
Cu0_7 Pr1_5 3.391593 1_565
