# generated using pymatgen
data_Ca(GePd)2
_symmetry_space_group_name_H-M   'P 1'
_cell_length_a   4.30916078
_cell_length_b   4.30916095
_cell_length_c   5.90322788
_cell_angle_alpha   111.40656291
_cell_angle_beta   111.40655885
_cell_angle_gamma   90.00000390
_symmetry_Int_Tables_number   1
_chemical_formula_structural   Ca(GePd)2
_chemical_formula_sum   'Ca1 Ge2 Pd2'
_cell_volume   93.88516928
_cell_formula_units_Z   1
loop_
 _symmetry_equiv_pos_site_id
 _symmetry_equiv_pos_as_xyz
  1  'x, y, z'
loop_
 _atom_site_type_symbol
 _atom_site_label
 _atom_site_symmetry_multiplicity
 _atom_site_fract_x
 _atom_site_fract_y
 _atom_site_fract_z
 _atom_site_occupancy
  Ca  Ca0  1  -0.00000000  -0.00000000  -0.00000000  1
  Ge  Ge0  1  0.37621370  0.37621370  0.75242839  1
  Ge  Ge1  1  0.62378630  0.62378630  0.24757161  1
  Pd  Pd0  1  0.25000000  0.75000000  0.50000000  1
  Pd  Pd1  1  0.75000000  0.25000000  0.50000000  1
loop_
_geom_bond_atom_site_label_1
_geom_bond_atom_site_label_2
_geom_bond_distance
_geom_bond_site_symmetry_2
Ca0 Ge0 3.294124 1_554
Ca0 Ge1 3.294124 1_445
Ca0 Ge1 3.294127 1_455
Ca0 Ge0 3.294127 1_544
Ca0 Ge0 3.294127 1_454
Ca0 Ge1 3.294127 1_545
Ca0 Ge1 3.294130 1_555
Ca0 Ge0 3.294130 1_444
Ca0 Pd1 3.321616 1_455
Ca0 Pd0 3.321616 1_544
Ca0 Pd1 3.321616 1_444
Ca0 Pd0 3.321616 1_555
Ca0 Pd0 3.321616 1_545
Ca0 Pd1 3.321616 1_454
Ca0 Pd1 3.321616 1_555
Ca0 Pd0 3.321616 1_444
Ge0 Ge1 2.503470 1_556
Ge0 Pd1 2.504222 1_455
Ge0 Pd0 2.504222 1_545
Ge0 Pd1 2.504225 1_555
Ge0 Pd0 2.504226 1_555
Ge1 Pd0 2.504222 1_655
Ge1 Pd1 2.504222 1_565
Ge1 Pd0 2.504225 1_555
Ge1 Pd1 2.504226 1_555
