# generated using pymatgen
data_Sr3Ca5FeCo7O20
_symmetry_space_group_name_H-M   'P 1'
_cell_length_a   10.73687198
_cell_length_b   11.19320144
_cell_length_c   17.32815340
_cell_angle_alpha   108.91518556
_cell_angle_beta   108.21273384
_cell_angle_gamma   89.61993068
_symmetry_Int_Tables_number   1
_chemical_formula_structural   Sr3Ca5FeCo7O20
_chemical_formula_sum   'Sr12 Ca20 Fe4 Co28 O80'
_cell_volume   1860.92998889
_cell_formula_units_Z   4
loop_
 _symmetry_equiv_pos_site_id
 _symmetry_equiv_pos_as_xyz
  1  'x, y, z'
loop_
 _atom_site_type_symbol
 _atom_site_label
 _atom_site_symmetry_multiplicity
 _atom_site_fract_x
 _atom_site_fract_y
 _atom_site_fract_z
 _atom_site_occupancy
  Sr  Sr0  1  0.30849100  0.56724200  0.60835900  1
  Sr  Sr1  1  0.80571600  0.05854700  0.60864200  1
  Sr  Sr2  1  0.80340400  0.55918100  0.60963400  1
  Sr  Sr3  1  0.19450300  0.43959500  0.38396300  1
  Sr  Sr4  1  0.19777000  0.43716500  0.89367200  1
  Sr  Sr5  1  0.69262600  0.93130900  0.38364900  1
  Sr  Sr6  1  0.05713300  0.29558300  0.60881200  1
  Sr  Sr7  1  0.05698500  0.79989700  0.61072800  1
  Sr  Sr8  1  0.56078400  0.29653700  0.60985800  1
  Sr  Sr9  1  0.44752300  0.20364800  0.89008900  1
  Sr  Sr10  1  0.94404000  0.19983800  0.38413900  1
  Sr  Sr11  1  0.94678200  0.19836800  0.88962700  1
  Ca  Ca0  1  0.30666200  0.06848200  0.11201100  1
  Ca  Ca1  1  0.30931500  0.06584100  0.60582300  1
  Ca  Ca2  1  0.30815700  0.57054500  0.11370500  1
  Ca  Ca3  1  0.80296900  0.06651100  0.10979500  1
  Ca  Ca4  1  0.80405600  0.56823600  0.11209100  1
  Ca  Ca5  1  0.20027100  0.93113300  0.38841500  1
  Ca  Ca6  1  0.19234800  0.93614300  0.89409500  1
  Ca  Ca7  1  0.69372800  0.43007100  0.38939600  1
  Ca  Ca8  1  0.69671100  0.43167600  0.89376300  1
  Ca  Ca9  1  0.69751300  0.93529400  0.89090600  1
  Ca  Ca10  1  0.05673500  0.29134400  0.11092000  1
  Ca  Ca11  1  0.05435700  0.79478200  0.11145400  1
  Ca  Ca12  1  0.55103000  0.29460700  0.11199900  1
  Ca  Ca13  1  0.55567500  0.79246800  0.11052900  1
  Ca  Ca14  1  0.55212300  0.79289200  0.60760200  1
  Ca  Ca15  1  0.45086700  0.20773600  0.38964500  1
  Ca  Ca16  1  0.44340500  0.70305400  0.38959900  1
  Ca  Ca17  1  0.44700900  0.71443400  0.89479500  1
  Ca  Ca18  1  0.94665900  0.70444700  0.38816400  1
  Ca  Ca19  1  0.94343400  0.71224200  0.89432200  1
  Fe  Fe0  1  0.10827700  0.59731100  0.75373700  1
  Fe  Fe1  1  0.61084900  0.59877200  0.75478000  1
  Fe  Fe2  1  0.36355800  0.41284900  0.75302200  1
  Fe  Fe3  1  0.36279200  0.91054400  0.75253200  1
  Co  Co0  1  0.00966500  0.00358800  0.00620400  1
  Co  Co1  1  0.00291900  0.99594300  0.49591300  1
  Co  Co2  1  0.00719300  0.50274800  0.00629400  1
  Co  Co3  1  0.00034400  0.50077300  0.49675800  1
  Co  Co4  1  0.50623600  0.00094100  0.00213600  1
  Co  Co5  1  0.50254200  0.99522800  0.49600000  1
  Co  Co6  1  0.50640200  0.50116700  0.00426100  1
  Co  Co7  1  0.50297400  0.49987500  0.49495900  1
  Co  Co8  1  0.25820000  0.25330600  0.00734600  1
  Co  Co9  1  0.25502900  0.24837100  0.49577500  1
  Co  Co10  1  0.25694500  0.75375800  0.00318100  1
  Co  Co11  1  0.25448100  0.75309300  0.49937000  1
  Co  Co12  1  0.75900200  0.25458100  0.00972600  1
  Co  Co13  1  0.75102900  0.24565500  0.49408500  1
  Co  Co14  1  0.75629200  0.75124100  0.00111200  1
  Co  Co15  1  0.74992900  0.74368300  0.49372900  1
  Co  Co16  1  0.11074900  0.08932600  0.24725600  1
  Co  Co17  1  0.11231900  0.09000600  0.75114900  1
  Co  Co18  1  0.10636200  0.59627600  0.24590500  1
  Co  Co19  1  0.60383200  0.09268000  0.24681300  1
  Co  Co20  1  0.60668000  0.09187200  0.74852700  1
  Co  Co21  1  0.60723100  0.59017100  0.24840500  1
  Co  Co22  1  0.36053800  0.40601100  0.24755500  1
  Co  Co23  1  0.35581500  0.90441900  0.24951500  1
  Co  Co24  1  0.85356600  0.40860400  0.24822300  1
  Co  Co25  1  0.85866900  0.41011800  0.75535300  1
  Co  Co26  1  0.86061700  0.90169200  0.24567800  1
  Co  Co27  1  0.85596600  0.90023500  0.75052600  1
  O  O0  1  0.13253400  0.12524600  0.48932600  1
  O  O1  1  0.13042000  0.12446900  0.99448600  1
  O  O2  1  0.12014600  0.62952300  0.48455500  1
  O  O3  1  0.12968300  0.63480200  0.99346000  1
  O  O4  1  0.62501400  0.12234800  0.48573500  1
  O  O5  1  0.63347600  0.13071400  0.99510200  1
  O  O6  1  0.62334800  0.62023600  0.48288900  1
  O  O7  1  0.63119100  0.63009900  0.98984100  1
  O  O8  1  0.13173100  0.38896500  0.01691900  1
  O  O9  1  0.12568900  0.38515500  0.50468700  1
  O  O10  1  0.13087700  0.88778300  0.01445900  1
  O  O11  1  0.13227200  0.88471100  0.50313700  1
  O  O12  1  0.63454000  0.39150400  0.01751900  1
  O  O13  1  0.63018100  0.37085500  0.50185800  1
  O  O14  1  0.63257700  0.88866100  0.01615500  1
  O  O15  1  0.62339200  0.87362700  0.50451400  1
  O  O16  1  0.37767800  0.10944000  0.48521700  1
  O  O17  1  0.37944000  0.11075200  0.99343500  1
  O  O18  1  0.37368000  0.62474400  0.48656000  1
  O  O19  1  0.38546300  0.61761500  0.99412800  1
  O  O20  1  0.87835300  0.11450000  0.49130100  1
  O  O21  1  0.87821100  0.10889500  0.99369100  1
  O  O22  1  0.87249800  0.61107200  0.48584200  1
  O  O23  1  0.87832700  0.60972200  0.98940500  1
  O  O24  1  0.38449900  0.38323800  0.01812200  1
  O  O25  1  0.37646100  0.37199100  0.50279400  1
  O  O26  1  0.38303200  0.87767600  0.01614800  1
  O  O27  1  0.37866100  0.88108800  0.51015600  1
  O  O28  1  0.87979300  0.37566600  0.01483600  1
  O  O29  1  0.87427700  0.37111400  0.50367800  1
  O  O30  1  0.88309500  0.87577000  0.01632900  1
  O  O31  1  0.87815900  0.86852200  0.50229300  1
  O  O32  1  0.09377500  0.10419800  0.14262200  1
  O  O33  1  0.08767900  0.08607800  0.64085700  1
  O  O34  1  0.08553100  0.60640300  0.13926900  1
  O  O35  1  0.07673100  0.59476400  0.63988700  1
  O  O36  1  0.58757900  0.10689600  0.14268800  1
  O  O37  1  0.58219000  0.09087800  0.63934800  1
  O  O38  1  0.59032700  0.60545200  0.14351600  1
  O  O39  1  0.58116000  0.60118600  0.64250200  1
  O  O40  1  0.43990800  0.39842700  0.35395700  1
  O  O41  1  0.45206900  0.40440500  0.86303600  1
  O  O42  1  0.43529600  0.89438100  0.35654600  1
  O  O43  1  0.45907300  0.90301700  0.86357000  1
  O  O44  1  0.93561000  0.40492100  0.35558100  1
  O  O45  1  0.94295700  0.40113100  0.86123200  1
  O  O46  1  0.94231500  0.90154500  0.35535900  1
  O  O47  1  0.94520500  0.89930100  0.85990200  1
  O  O48  1  0.34403300  0.28657200  0.14366300  1
  O  O49  1  0.33634600  0.29204900  0.64203900  1
  O  O50  1  0.34118000  0.78940400  0.14391800  1
  O  O51  1  0.33735000  0.79571800  0.64205900  1
  O  O52  1  0.84147900  0.28824200  0.14339300  1
  O  O53  1  0.83019100  0.30376000  0.64552800  1
  O  O54  1  0.84027300  0.78308700  0.14081600  1
  O  O55  1  0.82632200  0.79555100  0.64098700  1
  O  O56  1  0.19131700  0.20131300  0.35449700  1
  O  O57  1  0.18982000  0.20501900  0.85772400  1
  O  O58  1  0.19122000  0.70804400  0.35130900  1
  O  O59  1  0.20482400  0.71723400  0.86257100  1
  O  O60  1  0.68512100  0.20192600  0.35597100  1
  O  O61  1  0.68678700  0.20840700  0.85551700  1
  O  O62  1  0.69536000  0.69920900  0.35422400  1
  O  O63  1  0.70500800  0.72017800  0.86298600  1
  O  O64  1  0.42478900  0.06463700  0.24942400  1
  O  O65  1  0.42294300  0.06646400  0.74406700  1
  O  O66  1  0.42640000  0.56824400  0.24882800  1
  O  O67  1  0.43258900  0.57571000  0.75872800  1
  O  O68  1  0.92782300  0.05671100  0.23965800  1
  O  O69  1  0.93339600  0.05606300  0.74947100  1
  O  O70  1  0.92538800  0.56702700  0.24774200  1
  O  O71  1  0.93342500  0.57311800  0.76087800  1
  O  O72  1  0.17645400  0.43477700  0.23938100  1
  O  O73  1  0.18419900  0.43993900  0.75240100  1
  O  O74  1  0.17454800  0.92775800  0.24774600  1
  O  O75  1  0.18686700  0.93373800  0.76025700  1
  O  O76  1  0.67210000  0.42767000  0.24767200  1
  O  O77  1  0.67927000  0.44056000  0.75941800  1
  O  O78  1  0.67861500  0.93330600  0.24090600  1
  O  O79  1  0.67467800  0.93139600  0.75175100  1
loop_
_geom_bond_atom_site_label_1
_geom_bond_atom_site_label_2
_geom_bond_distance
_geom_bond_site_symmetry_2
Ca0 O48 2.329870 1_555
Ca0 O64 2.336260 1_555
Ca0 O32 2.504808 1_555
Ca0 O10 2.519968 1_545
Ca0 O26 2.553650 1_545
Ca0 O1 2.554130 1_554
Ca0 O17 2.587484 1_554
Ca0 O36 2.903709 1_555
Ca1 O65 2.321503 1_555
Ca1 O49 2.398907 1_555
Ca1 O27 2.471334 1_545
Ca1 O11 2.547136 1_545
Ca1 O0 2.564817 1_555
Ca1 O16 2.601802 1_555
Ca1 O33 2.624775 1_555
Ca1 O37 2.800234 1_555
Ca2 O66 2.296796 1_555
Ca2 O50 2.337730 1_555
Ca2 O24 2.526894 1_555
Ca2 O8 2.527274 1_555
Ca2 O34 2.569975 1_555
Ca2 O3 2.643542 1_554
Ca2 O19 2.654912 1_554
Ca2 O38 2.916281 1_555
Ca3 O68 2.268326 1_555
Ca3 O52 2.365582 1_555
Ca3 O14 2.457900 1_545
Ca3 O5 2.534927 1_554
Ca3 O36 2.553515 1_555
Ca3 O30 2.554642 1_545
Ca3 O21 2.562262 1_554
Ca4 O54 2.301675 1_555
Ca4 O70 2.308412 1_555
Ca4 O12 2.448064 1_555
Ca4 O38 2.521395 1_555
Ca4 O28 2.574041 1_555
Ca4 O7 2.624511 1_554
Ca4 O23 2.660027 1_554
Ca4 O34 2.921433 1_655
Ca5 O74 2.353486 1_555
Ca5 O58 2.362517 1_555
Ca5 O16 2.511562 1_565
Ca5 O11 2.517307 1_555
Ca5 O0 2.572577 1_565
Ca5 O27 2.580453 1_555
Ca5 O46 2.646921 1_455
Ca5 O42 2.748076 1_555
Ca6 O75 2.292804 1_555
Ca6 O59 2.343900 1_555
Ca6 O1 2.497760 1_565
Ca6 O47 2.536873 1_455
Ca6 O17 2.554907 1_565
Ca6 O10 2.583774 1_556
Ca6 O26 2.695525 1_556
Ca7 O76 2.384636 1_555
Ca7 O60 2.424044 1_555
Ca7 O6 2.496910 1_555
Ca7 O13 2.525290 1_555
Ca7 O22 2.536345 1_555
Ca7 O29 2.558441 1_555
Ca7 O40 2.599063 1_555
Ca7 O44 2.828759 1_555
Ca8 O77 2.311200 1_555
Ca8 O61 2.362549 1_555
Ca8 O41 2.511415 1_555
Ca8 O23 2.531966 1_555
Ca8 O7 2.552153 1_555
Ca8 O12 2.602009 1_556
Ca8 O28 2.630039 1_556
Ca8 O45 2.866985 1_555
Ca9 O63 2.303199 1_555
Ca9 O79 2.332115 1_555
Ca9 O43 2.460142 1_555
Ca9 O21 2.521576 1_565
Ca9 O5 2.590905 1_565
Ca9 O14 2.674711 1_556
Ca9 O30 2.711437 1_556
Ca9 O47 2.874389 1_555
Ca10 O72 2.259790 1_555
Ca10 O32 2.333754 1_555
Ca10 O28 2.507981 1_455
Ca10 O8 2.545788 1_555
Ca10 O52 2.546768 1_455
Ca10 O1 2.592364 1_554
Ca10 O21 2.626688 1_454
Ca10 O48 2.960316 1_555
Ca11 O74 2.302102 1_555
Ca11 O34 2.310644 1_555
Ca11 O30 2.443779 1_455
Ca11 O54 2.517488 1_455
Ca11 O10 2.567568 1_555
Ca11 O3 2.584926 1_554
Ca11 O23 2.654948 1_454
Ca11 O50 2.956432 1_555
Ca12 O76 2.297895 1_555
Ca12 O36 2.331174 1_555
Ca12 O24 2.456019 1_555
Ca12 O48 2.458770 1_555
Ca12 O12 2.596596 1_555
Ca12 O17 2.606403 1_554
Ca12 O5 2.634797 1_554
Ca12 O52 2.997977 1_555
Ca13 O78 2.277267 1_555
Ca13 O38 2.340851 1_555
Ca13 O26 2.472482 1_555
Ca13 O19 2.534288 1_554
Ca13 O50 2.546874 1_555
Ca13 O14 2.552011 1_555
Ca13 O7 2.628722 1_554
Ca13 O54 2.941554 1_555
Ca14 O39 2.404579 1_555
Ca14 O79 2.415781 1_555
Ca14 O27 2.526855 1_555
Ca14 O15 2.550166 1_555
Ca14 O51 2.553926 1_555
Ca14 O18 2.566876 1_555
Ca14 O6 2.701021 1_555
Ca14 O55 2.815725 1_555
Ca15 O64 2.367530 1_555
Ca15 O40 2.399808 1_555
Ca15 O13 2.495193 1_555
Ca15 O4 2.498799 1_555
Ca15 O25 2.546602 1_555
Ca15 O16 2.564561 1_555
Ca15 O56 2.656206 1_555
Ca15 O60 2.749789 1_555
Ca16 O66 2.366292 1_555
Ca16 O42 2.384008 1_555
Ca16 O18 2.429292 1_555
Ca16 O6 2.490133 1_555
Ca16 O15 2.554134 1_555
Ca16 O58 2.583387 1_555
Ca16 O27 2.647411 1_555
Ca16 O62 2.951891 1_555
Ca17 O67 2.322844 1_555
Ca17 O43 2.356508 1_555
Ca17 O59 2.485364 1_555
Ca17 O7 2.541964 1_555
Ca17 O19 2.550237 1_555
Ca17 O26 2.574404 1_556
Ca17 O14 2.639848 1_556
Ca17 O63 2.993522 1_555
Ca18 O70 2.359994 1_555
Ca18 O2 2.430114 1_655
Ca18 O46 2.446952 1_555
Ca18 O31 2.522173 1_555
Ca18 O22 2.567419 1_555
Ca18 O62 2.572399 1_555
Ca18 O11 2.641458 1_655
Ca18 O58 2.893217 1_655
Ca19 O71 2.301255 1_555
Ca19 O47 2.357396 1_555
Ca19 O63 2.452637 1_555
Ca19 O23 2.544898 1_555
Ca19 O3 2.548807 1_655
Ca19 O30 2.563448 1_556
Ca19 O10 2.650732 1_656
Ca19 O59 3.028126 1_655
Fe0 O35 1.885070 1_555
Fe0 O59 1.894249 1_555
Fe0 O73 1.932410 1_555
Fe0 O71 1.945975 1_455
Fe1 O39 1.879863 1_555
Fe1 O63 1.888320 1_555
Fe1 O77 1.928815 1_555
Fe1 O67 1.958160 1_555
Fe2 O41 1.878661 1_555
Fe2 O49 1.892139 1_555
Fe2 O67 1.933255 1_555
Fe2 O73 1.944738 1_555
Fe3 O51 1.863783 1_555
Fe3 O43 1.907476 1_555
Fe3 O65 1.929932 1_565
Fe3 O75 1.944792 1_555
Co0 O10 1.837355 1_545
Co0 O21 1.838694 1_454
Co0 O1 1.979625 1_554
Co0 O30 2.064467 1_445
Co0 O32 2.150536 1_555
Co0 O47 2.294317 1_444
Co1 O11 1.861216 1_555
Co1 O20 1.880045 1_465
Co1 O31 2.015167 1_455
Co1 O0 2.068232 1_565
Co1 O46 2.195844 1_455
Co1 O33 2.257170 1_565
Co2 O23 1.840072 1_454
Co2 O8 1.849176 1_555
Co2 O28 2.050672 1_455
Co2 O3 2.094191 1_554
Co2 O34 2.105036 1_555
Co2 O45 2.271770 1_454
Co3 O22 1.846848 1_455
Co3 O9 1.865869 1_555
Co3 O2 2.041642 1_555
Co3 O29 2.047714 1_455
Co3 O44 2.205477 1_455
Co3 O35 2.231352 1_555
Co4 O17 1.832087 1_554
Co4 O14 1.856862 1_545
Co4 O26 2.038296 1_545
Co4 O5 2.058258 1_554
Co4 O43 2.182684 1_544
Co4 O36 2.216400 1_555
Co5 O16 1.855289 1_565
Co5 O15 1.882846 1_555
Co5 O27 1.972622 1_555
Co5 O4 2.029897 1_565
Co5 O42 2.187826 1_555
Co5 O37 2.237798 1_565
Co6 O19 1.843712 1_554
Co6 O12 1.848017 1_555
Co6 O24 1.984486 1_555
Co6 O7 2.099775 1_554
Co6 O38 2.196783 1_555
Co6 O41 2.213507 1_554
Co7 O18 1.970199 1_555
Co7 O6 1.975833 1_555
Co7 O13 1.987203 1_555
Co7 O25 2.044413 1_555
Co7 O40 2.212447 1_555
Co7 O39 2.306180 1_555
Co8 O1 1.907450 1_554
Co8 O24 1.918520 1_555
Co8 O8 2.031555 1_555
Co8 O17 2.053753 1_554
Co8 O48 2.154329 1_555
Co8 O57 2.336662 1_554
Co9 O25 1.856077 1_555
Co9 O0 1.863849 1_555
Co9 O16 2.030977 1_555
Co9 O9 2.061317 1_555
Co9 O56 2.204648 1_555
Co9 O49 2.289979 1_555
Co10 O3 1.844763 1_554
Co10 O26 1.854668 1_555
Co10 O10 2.017227 1_555
Co10 O19 2.050196 1_554
Co10 O50 2.218042 1_555
Co10 O59 2.218514 1_554
Co11 O27 1.887102 1_555
Co11 O2 1.903715 1_555
Co11 O18 1.922910 1_555
Co11 O11 1.965177 1_555
Co11 O51 2.235704 1_555
Co11 O58 2.318301 1_555
Co12 O5 1.840237 1_554
Co12 O28 1.844039 1_555
Co12 O12 2.025920 1_555
Co12 O21 2.067715 1_554
Co12 O52 2.108897 1_555
Co12 O61 2.413199 1_554
Co13 O29 1.867239 1_555
Co13 O4 1.878682 1_555
Co13 O13 1.904825 1_555
Co13 O20 1.998755 1_555
Co13 O60 2.157432 1_555
Co13 O53 2.353407 1_555
Co14 O7 1.835604 1_554
Co14 O30 1.851621 1_555
Co14 O14 2.031676 1_555
Co14 O23 2.048772 1_554
Co14 O63 2.189053 1_554
Co14 O54 2.209248 1_555
Co15 O6 1.867816 1_555
Co15 O31 1.906179 1_555
Co15 O22 1.977072 1_555
Co15 O15 1.988103 1_555
Co15 O62 2.184737 1_555
Co15 O55 2.293162 1_555
Co16 O56 1.808903 1_555
Co16 O32 1.826755 1_555
Co16 O74 1.931249 1_545
Co16 O68 1.955715 1_455
Co17 O57 1.808992 1_555
Co17 O33 1.831411 1_555
Co17 O69 1.950210 1_455
Co17 O75 1.951024 1_545
Co18 O58 1.795729 1_555
Co18 O34 1.831496 1_555
Co18 O72 1.936369 1_555
Co18 O70 1.984357 1_455
Co19 O36 1.816646 1_555
Co19 O60 1.821389 1_555
Co19 O78 1.936876 1_545
Co19 O64 1.966629 1_555
Co20 O37 1.823149 1_555
Co20 O61 1.824443 1_555
Co20 O79 1.945454 1_545
Co20 O65 1.968890 1_555
Co21 O62 1.796389 1_555
Co21 O38 1.833183 1_555
Co21 O76 1.940986 1_555
Co21 O66 1.961206 1_555
Co22 O40 1.803108 1_555
Co22 O48 1.817407 1_555
Co22 O66 1.944063 1_555
Co22 O72 1.968848 1_555
Co23 O42 1.823483 1_555
Co23 O50 1.823711 1_555
Co23 O64 1.945439 1_565
Co23 O74 1.954019 1_555
Co24 O44 1.806468 1_555
Co24 O52 1.843883 1_555
Co24 O70 1.941887 1_555
Co24 O76 1.956012 1_555
Co25 O45 1.809907 1_555
Co25 O53 1.817869 1_555
Co25 O71 1.959674 1_555
Co25 O77 1.972763 1_555
Co26 O54 1.817596 1_555
Co26 O46 1.827978 1_555
Co26 O68 1.929599 1_565
Co26 O78 1.964556 1_555
Co27 O55 1.806226 1_555
Co27 O47 1.840605 1_555
Co27 O69 1.945040 1_565
Co27 O79 1.980620 1_555
O0 Sr10 2.602613 1_455
O0 Sr6 2.654312 1_555
O1 Sr11 2.566451 1_455
O2 Sr3 2.576826 1_555
O2 Sr7 2.661432 1_555
O2 Sr0 2.723378 1_555
O3 Sr4 2.589756 1_555
O4 Sr5 2.560939 1_545
O4 Sr8 2.663383 1_555
O4 Sr1 2.682325 1_555
O5 Sr9 2.575732 1_555
O6 Sr2 2.707304 1_555
O8 Sr4 2.655835 1_554
O8 Sr11 2.761755 1_454
O9 Sr0 2.590119 1_555
O9 Sr6 2.610611 1_555
O9 Sr3 2.663069 1_555
O9 Sr10 2.677265 1_455
O11 Sr7 2.670244 1_555
O12 Sr9 2.757420 1_554
O13 Sr8 2.576555 1_555
O13 Sr2 2.592085 1_555
O15 Sr1 2.607021 1_565
O15 Sr5 2.685527 1_555
O16 Sr8 2.717257 1_555
O17 Sr9 2.618802 1_555
O18 Sr3 2.585110 1_555
O18 Sr0 2.677439 1_555
O19 Sr4 2.598581 1_555
O20 Sr10 2.614486 1_555
O20 Sr6 2.621400 1_655
O20 Sr5 2.628672 1_545
O20 Sr1 2.637830 1_555
O21 Sr11 2.609061 1_555
O22 Sr2 2.701357 1_555
O22 Sr7 2.735780 1_655
O24 Sr4 2.675751 1_554
O24 Sr9 2.729430 1_554
O25 Sr8 2.602000 1_555
O25 Sr0 2.622302 1_555
O25 Sr3 2.665582 1_555
O28 Sr11 2.707029 1_554
O29 Sr6 2.574677 1_655
O29 Sr2 2.593770 1_555
O29 Sr10 2.627409 1_555
O31 Sr7 2.543256 1_655
O31 Sr1 2.618753 1_565
O31 Sr5 2.654612 1_555
O33 Sr6 2.575900 1_555
O33 Sr1 2.901067 1_455
O33 Sr7 3.076424 1_545
O35 Sr7 2.500210 1_555
O35 Sr0 2.704790 1_555
O35 Sr2 2.822100 1_455
O37 Sr8 2.509043 1_555
O37 Sr1 2.614534 1_555
O39 Sr2 2.626870 1_555
O39 Sr0 2.802073 1_555
O40 Sr3 2.847845 1_555
O41 Sr9 2.443434 1_555
O41 Sr4 2.939011 1_555
O42 Sr5 2.665206 1_555
O44 Sr10 2.495654 1_555
O44 Sr3 2.674931 1_655
O45 Sr11 2.470799 1_555
O45 Sr4 2.621086 1_655
O46 Sr5 2.870919 1_555
O49 Sr8 2.642004 1_555
O49 Sr6 2.873075 1_555
O51 Sr0 2.430304 1_555
O51 Sr7 2.889899 1_555
O53 Sr1 2.603507 1_555
O53 Sr6 2.697913 1_655
O53 Sr8 2.758396 1_555
O53 Sr2 3.110223 1_555
O55 Sr2 2.519680 1_555
O55 Sr7 2.690853 1_655
O55 Sr1 3.164238 1_565
O56 Sr3 2.546150 1_555
O56 Sr10 2.858592 1_455
O57 Sr4 2.463247 1_555
O57 Sr9 2.646819 1_555
O57 Sr11 2.837511 1_455
O60 Sr10 2.669348 1_555
O61 Sr11 2.676220 1_555
O61 Sr9 2.818815 1_555
O62 Sr5 2.481869 1_555
O65 Sr9 2.428750 1_555
O67 Sr0 2.498989 1_555
O68 Sr10 2.448602 1_555
O69 Sr11 2.394352 1_555
O69 Sr1 2.405724 1_555
O71 Sr2 2.508488 1_555
O72 Sr3 2.434387 1_555
O73 Sr4 2.416813 1_555
O73 Sr6 2.442076 1_555
O75 Sr7 2.480940 1_555
O77 Sr8 2.488221 1_555
O78 Sr5 2.438115 1_555
