# generated using pymatgen
data_TbCo2Ni3
_symmetry_space_group_name_H-M   'P 1'
_cell_length_a   3.97805900
_cell_length_b   4.92036870
_cell_length_c   4.76692559
_cell_angle_alpha   61.04656304
_cell_angle_beta   90.00000000
_cell_angle_gamma   90.00000000
_symmetry_Int_Tables_number   1
_chemical_formula_structural   TbCo2Ni3
_chemical_formula_sum   'Tb1 Co2 Ni3'
_cell_volume   81.64356305
_cell_formula_units_Z   1
loop_
 _symmetry_equiv_pos_site_id
 _symmetry_equiv_pos_as_xyz
  1  'x, y, z'
loop_
 _atom_site_type_symbol
 _atom_site_label
 _atom_site_symmetry_multiplicity
 _atom_site_fract_x
 _atom_site_fract_y
 _atom_site_fract_z
 _atom_site_occupancy
  Tb  Tb0  1  0.00000000  0.99999500  0.00001300  1
  Co  Co0  1  0.50000000  0.49999000  0.49999100  1
  Co  Co1  1  0.50000000  0.49998500  0.00003000  1
  Ni  Ni0  1  0.50000000  0.00000900  0.49999600  1
  Ni  Ni1  1  0.00000000  0.33575300  0.33217900  1
  Ni  Ni2  1  0.00000000  0.66416800  0.66789000  1
loop_
_geom_bond_atom_site_label_1
_geom_bond_atom_site_label_2
_geom_bond_distance
_geom_bond_site_symmetry_2
Co0 Co1 2.383289 1_555
Co0 Co1 2.383637 1_556
Co0 Ni1 2.423855 1_555
Co0 Ni1 2.423855 1_655
Co0 Ni2 2.423916 1_555
Co0 Ni2 2.423916 1_655
Co0 Ni0 2.460079 1_555
Co0 Ni0 2.460289 1_565
Co0 Tb0 3.164203 1_555
Co0 Tb0 3.164203 1_655
Co0 Tb0 3.164262 1_546
Co0 Tb0 3.164262 1_646
Co1 Ni2 2.424309 1_554
Co1 Ni2 2.424309 1_654
Co1 Ni1 2.424334 1_655
Co1 Ni1 2.424334 1_555
Co1 Ni0 2.460779 1_555
Co1 Ni0 2.461061 1_564
Co1 Tb0 3.163652 1_545
Co1 Tb0 3.163652 1_645
Co1 Tb0 3.163668 1_655
Co1 Tb0 3.163668 1_555
Ni0 Ni1 2.458807 1_655
Ni0 Ni1 2.458807 1_555
Ni0 Ni2 2.459053 1_645
Ni0 Ni2 2.459053 1_545
Ni0 Tb0 3.104337 1_545
Ni0 Tb0 3.104337 1_645
Ni0 Tb0 3.104410 1_646
Ni0 Tb0 3.104410 1_546
Ni1 Tb0 2.787320 1_545
Ni1 Tb0 2.787826 1_546
Ni1 Tb0 2.859820 1_555
Ni2 Tb0 2.787440 1_556
Ni2 Tb0 2.788014 1_555
Ni2 Tb0 2.859523 1_546
