# generated using pymatgen
data_Ga3SiNi4
_symmetry_space_group_name_H-M   'P 1'
_cell_length_a   4.61005353
_cell_length_b   4.61005353
_cell_length_c   4.61005331
_cell_angle_alpha   90.91365587
_cell_angle_beta   90.91365587
_cell_angle_gamma   90.91365218
_symmetry_Int_Tables_number   1
_chemical_formula_structural   Ga3SiNi4
_chemical_formula_sum   'Ga3 Si1 Ni4'
_cell_volume   97.93781759
_cell_formula_units_Z   1
loop_
 _symmetry_equiv_pos_site_id
 _symmetry_equiv_pos_as_xyz
  1  'x, y, z'
loop_
 _atom_site_type_symbol
 _atom_site_label
 _atom_site_symmetry_multiplicity
 _atom_site_fract_x
 _atom_site_fract_y
 _atom_site_fract_z
 _atom_site_occupancy
  Ga  Ga0  1  0.34267400  0.15745400  0.65307900  1
  Ga  Ga1  1  0.15745400  0.65307900  0.34267400  1
  Ga  Ga2  1  0.65307900  0.34267400  0.15745400  1
  Si  Si0  1  0.84146100  0.84146100  0.84146100  1
  Ni  Ni0  1  0.13454400  0.13454400  0.13454400  1
  Ni  Ni1  1  0.65362800  0.85725400  0.35990600  1
  Ni  Ni2  1  0.85725400  0.35990600  0.65362800  1
  Ni  Ni3  1  0.35990600  0.65362800  0.85725400  1
loop_
_geom_bond_atom_site_label_1
_geom_bond_atom_site_label_2
_geom_bond_distance
_geom_bond_site_symmetry_2
Ga0 Ni1 2.421223 1_545
Ga0 Ni0 2.435256 1_556
Ga0 Ni2 2.438360 1_455
Ga0 Ni3 2.459183 1_555
Ga0 Ni3 2.521958 1_545
Ga0 Ni2 2.535298 1_555
Ga0 Ni0 2.561584 1_555
Ga0 Si0 2.865705 1_445
Ga0 Si0 2.871794 1_545
Ga1 Ni2 2.421224 1_455
Ga1 Ni0 2.435256 1_565
Ga1 Ni3 2.438360 1_554
Ga1 Ni1 2.459183 1_555
Ga1 Ni1 2.521958 1_455
Ga1 Ni3 2.535298 1_555
Ga1 Ni0 2.561584 1_555
Ga1 Si0 2.865705 1_454
Ga1 Si0 2.871794 1_455
Ga2 Ni3 2.421223 1_554
Ga2 Ni0 2.435256 1_655
Ga2 Ni1 2.438360 1_545
Ga2 Ni2 2.459183 1_555
Ga2 Ni2 2.521957 1_554
Ga2 Ni1 2.535298 1_555
Ga2 Ni0 2.561584 1_555
Ga2 Si0 2.865705 1_544
Ga2 Si0 2.871794 1_554
Ni0 Si0 2.302604 1_444
Ni1 Si0 2.372626 1_555
Ni1 Si0 2.555379 1_554
Ni2 Si0 2.372626 1_555
Ni2 Si0 2.555380 1_545
Ni3 Si0 2.372626 1_555
Ni3 Si0 2.555380 1_455
