# generated using pymatgen
data_Er5(Ge5Rh2)2
_symmetry_space_group_name_H-M   'P 1'
_cell_length_a   13.05950000
_cell_length_b   13.05950000
_cell_length_c   4.28393900
_cell_angle_alpha   90.00000000
_cell_angle_beta   90.00000000
_cell_angle_gamma   90.00000000
_symmetry_Int_Tables_number   1
_chemical_formula_structural   Er5(Ge5Rh2)2
_chemical_formula_sum   'Er10 Ge20 Rh8'
_cell_volume   730.62811085
_cell_formula_units_Z   2
loop_
 _symmetry_equiv_pos_site_id
 _symmetry_equiv_pos_as_xyz
  1  'x, y, z'
loop_
 _atom_site_type_symbol
 _atom_site_label
 _atom_site_symmetry_multiplicity
 _atom_site_fract_x
 _atom_site_fract_y
 _atom_site_fract_z
 _atom_site_occupancy
  Er  Er0  1  0.50000000  0.50000000  0.00000000  1
  Er  Er1  1  0.00000000  0.00000000  0.00000000  1
  Er  Er2  1  0.67541600  0.17541600  0.50000000  1
  Er  Er3  1  0.32458400  0.82458400  0.50000000  1
  Er  Er4  1  0.17541600  0.32458400  0.50000000  1
  Er  Er5  1  0.82458400  0.67541600  0.50000000  1
  Er  Er6  1  0.88692500  0.38692500  0.50000000  1
  Er  Er7  1  0.11307500  0.61307500  0.50000000  1
  Er  Er8  1  0.38692500  0.11307500  0.50000000  1
  Er  Er9  1  0.61307500  0.88692500  0.50000000  1
  Ge  Ge0  1  0.56648200  0.06648200  0.00000000  1
  Ge  Ge1  1  0.43351800  0.93351800  0.00000000  1
  Ge  Ge2  1  0.06648200  0.43351800  0.00000000  1
  Ge  Ge3  1  0.93351800  0.56648200  0.00000000  1
  Ge  Ge4  1  0.66132500  0.69995000  0.00000000  1
  Ge  Ge5  1  0.33867500  0.30005000  0.00000000  1
  Ge  Ge6  1  0.16132500  0.80005000  0.00000000  1
  Ge  Ge7  1  0.83867500  0.19995000  0.00000000  1
  Ge  Ge8  1  0.30005000  0.66132500  0.00000000  1
  Ge  Ge9  1  0.69995000  0.33867500  0.00000000  1
  Ge  Ge10  1  0.19995000  0.16132500  0.00000000  1
  Ge  Ge11  1  0.80005000  0.83867500  0.00000000  1
  Ge  Ge12  1  0.65873800  0.50318300  0.50000000  1
  Ge  Ge13  1  0.34126200  0.49681700  0.50000000  1
  Ge  Ge14  1  0.15873800  0.99681700  0.50000000  1
  Ge  Ge15  1  0.84126200  0.00318300  0.50000000  1
  Ge  Ge16  1  0.49681700  0.65873800  0.50000000  1
  Ge  Ge17  1  0.50318300  0.34126200  0.50000000  1
  Ge  Ge18  1  0.00318300  0.15873800  0.50000000  1
  Ge  Ge19  1  0.99681700  0.84126200  0.50000000  1
  Rh  Rh0  1  0.74618500  0.52166800  0.00000000  1
  Rh  Rh1  1  0.25381500  0.47833200  0.00000000  1
  Rh  Rh2  1  0.24618500  0.97833200  0.00000000  1
  Rh  Rh3  1  0.75381500  0.02166800  0.00000000  1
  Rh  Rh4  1  0.47833200  0.74618500  0.00000000  1
  Rh  Rh5  1  0.52166800  0.25381500  0.00000000  1
  Rh  Rh6  1  0.02166800  0.24618500  0.00000000  1
  Rh  Rh7  1  0.97833200  0.75381500  0.00000000  1
loop_
_geom_bond_atom_site_label_1
_geom_bond_atom_site_label_2
_geom_bond_distance
_geom_bond_site_symmetry_2
Er0 Ge17 2.981149 1_554
Er0 Ge13 2.981149 1_555
Er0 Ge17 2.981149 1_555
Er0 Ge13 2.981149 1_554
Er0 Ge12 2.981149 1_555
Er0 Ge16 2.981149 1_555
Er0 Ge16 2.981149 1_554
Er0 Ge12 2.981149 1_554
Er0 Rh0 3.227482 1_555
Er0 Rh5 3.227482 1_555
Er0 Rh1 3.227482 1_555
Er0 Rh4 3.227482 1_555
Er0 Ge9 3.355193 1_555
Er0 Ge5 3.355193 1_555
Er0 Ge4 3.355193 1_555
Er0 Ge8 3.355193 1_555
Er1 Ge18 2.981149 1_555
Er1 Ge14 2.981149 1_544
Er1 Ge18 2.981149 1_554
Er1 Ge14 2.981149 1_545
Er1 Ge15 2.981149 1_455
Er1 Ge19 2.981149 1_444
Er1 Ge19 2.981149 1_445
Er1 Ge15 2.981149 1_454
Er1 Rh7 3.227482 1_445
Er1 Rh6 3.227482 1_555
Er1 Rh3 3.227482 1_455
Er1 Rh2 3.227482 1_545
Er1 Ge6 3.355193 1_545
Er1 Ge11 3.355193 1_445
Er1 Ge10 3.355193 1_555
Er1 Ge7 3.355193 1_455
Er2 Ge0 2.938664 1_555
Er2 Ge0 2.938664 1_556
Er2 Ge7 3.039154 1_556
Er2 Ge7 3.039154 1_555
Er2 Ge9 3.039154 1_556
Er2 Ge9 3.039154 1_555
Er2 Rh3 3.109318 1_556
Er2 Rh5 3.109318 1_556
Er2 Rh5 3.109318 1_555
Er2 Rh3 3.109318 1_555
Er2 Ge15 3.122534 1_555
Er2 Ge17 3.122534 1_555
Er3 Ge1 2.938664 1_555
Er3 Ge1 2.938664 1_556
Er3 Ge8 3.039154 1_555
Er3 Ge8 3.039154 1_556
Er3 Ge6 3.039154 1_556
Er3 Ge6 3.039154 1_555
Er3 Rh4 3.109318 1_556
Er3 Rh4 3.109318 1_555
Er3 Rh2 3.109318 1_555
Er3 Rh2 3.109318 1_556
Er3 Ge14 3.122534 1_555
Er3 Ge16 3.122534 1_555
Er4 Ge2 2.938664 1_556
Er4 Ge2 2.938664 1_555
Er4 Ge10 3.039154 1_556
Er4 Ge10 3.039154 1_555
Er4 Ge5 3.039154 1_555
Er4 Ge5 3.039154 1_556
Er4 Rh6 3.109318 1_556
Er4 Rh1 3.109318 1_555
Er4 Rh1 3.109318 1_556
Er4 Rh6 3.109318 1_555
Er4 Ge18 3.122534 1_555
Er4 Ge13 3.122534 1_555
Er5 Ge3 2.938664 1_555
Er5 Ge3 2.938664 1_556
Er5 Ge11 3.039154 1_556
Er5 Ge4 3.039154 1_555
Er5 Ge11 3.039154 1_555
Er5 Ge4 3.039154 1_556
Er5 Rh7 3.109318 1_555
Er5 Rh7 3.109318 1_556
Er5 Rh0 3.109318 1_555
Er5 Rh0 3.109318 1_556
Er5 Ge12 3.122534 1_555
Er5 Ge19 3.122534 1_555
Er6 Ge2 3.233721 1_655
Er6 Ge2 3.233721 1_656
Er6 Ge3 3.233721 1_555
Er6 Ge3 3.233721 1_556
Er6 Ge9 3.308697 1_556
Er6 Ge9 3.308697 1_555
Er6 Ge7 3.308697 1_556
Er6 Ge7 3.308697 1_555
Er6 Rh0 3.326066 1_555
Er6 Rh0 3.326066 1_556
Er6 Rh6 3.326066 1_655
Er6 Rh6 3.326066 1_656
Er6 Ge12 3.344487 1_555
Er6 Ge18 3.344487 1_655
Er7 Ge2 3.233721 1_556
Er7 Ge2 3.233721 1_555
Er7 Ge3 3.233721 1_455
Er7 Ge3 3.233721 1_456
Er7 Ge8 3.308697 1_555
Er7 Ge8 3.308697 1_556
Er7 Ge6 3.308697 1_555
Er7 Ge6 3.308697 1_556
Er7 Rh7 3.326066 1_456
Er7 Rh7 3.326066 1_455
Er7 Rh1 3.326066 1_555
Er7 Rh1 3.326066 1_556
Er7 Ge19 3.344487 1_455
Er7 Ge13 3.344487 1_555
Er8 Ge0 3.233721 1_556
Er8 Ge1 3.233721 1_546
Er8 Ge1 3.233721 1_545
Er8 Ge0 3.233721 1_555
Er8 Ge5 3.308697 1_556
Er8 Ge5 3.308697 1_555
Er8 Ge10 3.308697 1_555
Er8 Ge10 3.308697 1_556
Er8 Rh5 3.326066 1_555
Er8 Rh2 3.326066 1_546
Er8 Rh2 3.326066 1_545
Er8 Rh5 3.326066 1_556
Er8 Ge17 3.344487 1_555
Er8 Ge14 3.344487 1_545
Er9 Ge0 3.233721 1_566
Er9 Ge0 3.233721 1_565
Er9 Ge1 3.233721 1_555
Er9 Ge1 3.233721 1_556
Er9 Ge11 3.308697 1_555
Er9 Ge4 3.308697 1_555
Er9 Ge4 3.308697 1_556
Er9 Ge11 3.308697 1_556
Er9 Rh3 3.326066 1_565
Er9 Rh3 3.326066 1_566
Er9 Rh4 3.326066 1_556
Er9 Rh4 3.326066 1_555
Er9 Ge15 3.344487 1_565
Er9 Ge16 3.344487 1_555
Ge0 Ge1 2.455702 1_545
Ge0 Rh3 2.515503 1_555
Ge0 Rh5 2.515503 1_555
Ge1 Rh4 2.515503 1_555
Ge1 Rh2 2.515503 1_555
Ge2 Ge3 2.455702 1_455
Ge2 Rh6 2.515503 1_555
Ge2 Rh1 2.515503 1_555
Ge3 Rh7 2.515503 1_555
Ge3 Rh0 2.515503 1_555
Ge4 Rh4 2.464896 1_555
Ge4 Rh0 2.578571 1_555
Ge5 Rh5 2.464896 1_555
Ge5 Rh1 2.578571 1_555
Ge6 Rh7 2.464896 1_455
Ge6 Ge8 2.562101 1_555
Ge6 Rh2 2.578571 1_555
Ge7 Rh6 2.464896 1_655
Ge7 Ge9 2.562101 1_555
Ge7 Rh3 2.578571 1_555
Ge8 Rh1 2.464896 1_555
Ge8 Rh4 2.578571 1_555
Ge9 Rh0 2.464896 1_555
Ge9 Rh5 2.578571 1_555
Ge10 Rh2 2.464896 1_545
Ge10 Ge5 2.562101 1_555
Ge10 Rh6 2.578571 1_555
Ge11 Rh3 2.464896 1_565
Ge11 Ge4 2.562101 1_555
Ge11 Rh7 2.578571 1_555
Ge12 Rh0 2.439366 1_555
Ge12 Rh0 2.439366 1_556
Ge13 Rh1 2.439366 1_555
Ge13 Rh1 2.439366 1_556
Ge14 Rh2 2.439366 1_555
Ge14 Rh2 2.439366 1_556
Ge15 Rh3 2.439366 1_555
Ge15 Rh3 2.439366 1_556
Ge16 Rh4 2.439366 1_555
Ge16 Rh4 2.439366 1_556
Ge17 Rh5 2.439366 1_555
Ge17 Rh5 2.439366 1_556
Ge18 Rh6 2.439366 1_555
Ge18 Rh6 2.439366 1_556
Ge19 Rh7 2.439366 1_555
Ge19 Rh7 2.439366 1_556
