# generated using pymatgen
data_NaTi8Cu6BiO24
_symmetry_space_group_name_H-M   'P 1'
_cell_length_a   7.46801300
_cell_length_b   7.46801300
_cell_length_c   7.46801300
_cell_angle_alpha   90.00000000
_cell_angle_beta   90.00000000
_cell_angle_gamma   90.00000000
_symmetry_Int_Tables_number   1
_chemical_formula_structural   NaTi8Cu6BiO24
_chemical_formula_sum   'Na1 Ti8 Cu6 Bi1 O24'
_cell_volume   416.50018231
_cell_formula_units_Z   1
loop_
 _symmetry_equiv_pos_site_id
 _symmetry_equiv_pos_as_xyz
  1  'x, y, z'
loop_
 _atom_site_type_symbol
 _atom_site_label
 _atom_site_symmetry_multiplicity
 _atom_site_fract_x
 _atom_site_fract_y
 _atom_site_fract_z
 _atom_site_occupancy
  Na  Na0  1  0.00000000  0.00000000  0.00000000  1
  Ti  Ti0  1  0.24547900  0.24547900  0.24547900  1
  Ti  Ti1  1  0.75452100  0.75452100  0.75452100  1
  Ti  Ti2  1  0.75452100  0.75452100  0.24547900  1
  Ti  Ti3  1  0.75452100  0.24547900  0.75452100  1
  Ti  Ti4  1  0.24547900  0.24547900  0.75452100  1
  Ti  Ti5  1  0.24547900  0.75452100  0.24547900  1
  Ti  Ti6  1  0.24547900  0.75452100  0.75452100  1
  Ti  Ti7  1  0.75452100  0.24547900  0.24547900  1
  Cu  Cu0  1  0.00000000  0.50000000  0.50000000  1
  Cu  Cu1  1  0.50000000  0.00000000  0.50000000  1
  Cu  Cu2  1  0.50000000  0.50000000  0.00000000  1
  Cu  Cu3  1  0.50000000  0.00000000  0.00000000  1
  Cu  Cu4  1  0.00000000  0.50000000  0.00000000  1
  Cu  Cu5  1  0.00000000  0.00000000  0.50000000  1
  Bi  Bi0  1  0.50000000  0.50000000  0.50000000  1
  O  O0  1  0.00000000  0.30579200  0.17789800  1
  O  O1  1  0.00000000  0.69420800  0.82210200  1
  O  O2  1  0.00000000  0.69420800  0.17789800  1
  O  O3  1  0.00000000  0.30579200  0.82210200  1
  O  O4  1  0.17789800  0.00000000  0.30579200  1
  O  O5  1  0.82210200  0.00000000  0.69420800  1
  O  O6  1  0.17789800  0.00000000  0.69420800  1
  O  O7  1  0.82210200  0.00000000  0.30579200  1
  O  O8  1  0.30579200  0.17789800  0.00000000  1
  O  O9  1  0.69420800  0.82210200  0.00000000  1
  O  O10  1  0.30579200  0.82210200  0.00000000  1
  O  O11  1  0.69420800  0.17789800  0.00000000  1
  O  O12  1  0.50000000  0.19631800  0.32207500  1
  O  O13  1  0.50000000  0.80368200  0.67792500  1
  O  O14  1  0.50000000  0.80368200  0.32207500  1
  O  O15  1  0.50000000  0.19631800  0.67792500  1
  O  O16  1  0.32207500  0.50000000  0.19631800  1
  O  O17  1  0.67792500  0.50000000  0.80368200  1
  O  O18  1  0.32207500  0.50000000  0.80368200  1
  O  O19  1  0.67792500  0.50000000  0.19631800  1
  O  O20  1  0.19631800  0.32207500  0.50000000  1
  O  O21  1  0.80368200  0.67792500  0.50000000  1
  O  O22  1  0.19631800  0.67792500  0.50000000  1
  O  O23  1  0.80368200  0.32207500  0.50000000  1
loop_
_geom_bond_atom_site_label_1
_geom_bond_atom_site_label_2
_geom_bond_distance
_geom_bond_site_symmetry_2
Na0 O9 2.641993 1_445
Na0 O1 2.641993 1_544
Na0 O5 2.641993 1_454
Na0 O6 2.641993 1_554
Na0 O11 2.641993 1_455
Na0 O2 2.641993 1_545
Na0 O10 2.641993 1_545
Na0 O0 2.641993 1_555
Na0 O7 2.641993 1_455
Na0 O8 2.641993 1_555
Na0 O4 2.641993 1_555
Na0 O3 2.641993 1_554
Cu0 O22 1.978644 1_555
Cu0 O20 1.978644 1_555
Cu0 O23 1.978644 1_455
Cu0 O21 1.978644 1_455
Cu1 O14 1.978644 1_545
Cu1 O15 1.978644 1_555
Cu1 O13 1.978644 1_545
Cu1 O12 1.978644 1_555
Cu2 O18 1.978644 1_554
Cu2 O19 1.978644 1_555
Cu2 O17 1.978644 1_554
Cu2 O16 1.978644 1_555
Cu3 O8 1.966860 1_555
Cu3 O10 1.966860 1_545
Cu3 O9 1.966860 1_545
Cu3 O11 1.966860 1_555
Cu4 O3 1.966860 1_554
Cu4 O0 1.966860 1_555
Cu4 O2 1.966860 1_555
Cu4 O1 1.966860 1_554
Cu5 O4 1.966860 1_555
Cu5 O7 1.966860 1_455
Cu5 O5 1.966860 1_455
Cu5 O6 1.966860 1_555
Bi0 O17 2.628487 1_555
Bi0 O20 2.628487 1_555
Bi0 O23 2.628487 1_555
Bi0 O21 2.628487 1_555
Bi0 O14 2.628487 1_555
Bi0 O18 2.628487 1_555
Bi0 O15 2.628487 1_555
Bi0 O22 2.628487 1_555
Bi0 O19 2.628487 1_555
Bi0 O16 2.628487 1_555
Bi0 O12 2.628487 1_555
Bi0 O13 2.628487 1_555
O0 Ti7 1.954064 1_455
O0 Ti0 1.954064 1_555
O1 Ti1 1.954064 1_455
O1 Ti6 1.954064 1_555
O2 Ti2 1.954064 1_455
O2 Ti5 1.954064 1_555
O3 Ti3 1.954064 1_455
O3 Ti4 1.954064 1_555
O4 Ti5 1.954064 1_545
O4 Ti0 1.954064 1_555
O5 Ti3 1.954064 1_555
O5 Ti1 1.954064 1_545
O6 Ti6 1.954064 1_545
O6 Ti4 1.954064 1_555
O7 Ti2 1.954064 1_545
O7 Ti7 1.954064 1_555
O8 Ti4 1.954064 1_554
O8 Ti0 1.954064 1_555
O9 Ti2 1.954064 1_555
O9 Ti1 1.954064 1_554
O10 Ti5 1.954064 1_555
O10 Ti6 1.954064 1_554
O11 Ti3 1.954064 1_554
O11 Ti7 1.954064 1_555
O12 Ti7 2.018640 1_555
O12 Ti0 2.018640 1_555
O13 Ti6 2.018640 1_555
O13 Ti1 2.018640 1_555
O14 Ti5 2.018640 1_555
O14 Ti2 2.018640 1_555
O15 Ti3 2.018640 1_555
O15 Ti4 2.018640 1_555
O16 Ti5 2.018640 1_555
O16 Ti0 2.018640 1_555
O17 Ti1 2.018640 1_555
O17 Ti3 2.018640 1_555
O18 Ti6 2.018640 1_555
O18 Ti4 2.018640 1_555
O19 Ti7 2.018640 1_555
O19 Ti2 2.018640 1_555
O20 Ti0 2.018640 1_555
O20 Ti4 2.018640 1_555
O21 Ti2 2.018640 1_555
O21 Ti1 2.018640 1_555
O22 Ti5 2.018640 1_555
O22 Ti6 2.018640 1_555
O23 Ti7 2.018640 1_555
O23 Ti3 2.018640 1_555
