# generated using pymatgen
data_Sm3MnGaS7
_symmetry_space_group_name_H-M   'P 1'
_cell_length_a   9.97460943
_cell_length_b   9.97460943
_cell_length_c   6.06639300
_cell_angle_alpha   90.00000000
_cell_angle_beta   90.00000000
_cell_angle_gamma   119.99999625
_symmetry_Int_Tables_number   1
_chemical_formula_structural   Sm3MnGaS7
_chemical_formula_sum   'Sm6 Mn2 Ga2 S14'
_cell_volume   522.70058831
_cell_formula_units_Z   2
loop_
 _symmetry_equiv_pos_site_id
 _symmetry_equiv_pos_as_xyz
  1  'x, y, z'
loop_
 _atom_site_type_symbol
 _atom_site_label
 _atom_site_symmetry_multiplicity
 _atom_site_fract_x
 _atom_site_fract_y
 _atom_site_fract_z
 _atom_site_occupancy
  Sm  Sm0  1  0.76580500  0.14098800  0.24544500  1
  Sm  Sm1  1  0.37518300  0.23419500  0.24544500  1
  Sm  Sm2  1  0.85901200  0.62481700  0.24544500  1
  Sm  Sm3  1  0.23419500  0.85901200  0.74544500  1
  Sm  Sm4  1  0.62481700  0.76580500  0.74544500  1
  Sm  Sm5  1  0.14098800  0.37518300  0.74544500  1
  Mn  Mn0  1  0.00000000  0.00000000  0.02285800  1
  Mn  Mn1  1  0.00000000  0.00000000  0.52285800  1
  Ga  Ga0  1  0.66666700  0.33333300  0.66885900  1
  Ga  Ga1  1  0.33333300  0.66666700  0.16885900  1
  S  S0  1  0.85221600  0.09366400  0.79654000  1
  S  S1  1  0.24144800  0.14778400  0.79654000  1
  S  S2  1  0.90633600  0.75855200  0.79654000  1
  S  S3  1  0.14778400  0.90633600  0.29654000  1
  S  S4  1  0.75855200  0.85221600  0.29654000  1
  S  S5  1  0.09366400  0.24144800  0.29654000  1
  S  S6  1  0.90520200  0.42030900  0.50975400  1
  S  S7  1  0.51510700  0.09479800  0.50975400  1
  S  S8  1  0.57969100  0.48489300  0.50975400  1
  S  S9  1  0.09479800  0.57969100  0.00975400  1
  S  S10  1  0.48489300  0.90520200  0.00975400  1
  S  S11  1  0.42030900  0.51510700  0.00975400  1
  S  S12  1  0.66666700  0.33333300  0.04006800  1
  S  S13  1  0.33333300  0.66666700  0.54006800  1
loop_
_geom_bond_atom_site_label_1
_geom_bond_atom_site_label_2
_geom_bond_distance
_geom_bond_site_symmetry_2
Mn0 S0 2.511555 1_454
Mn0 S2 2.511556 1_444
Mn0 S1 2.511556 1_554
Mn0 S3 2.679447 1_545
Mn0 S5 2.679447 1_555
Mn0 S4 2.679447 1_445
Mn1 S3 2.511555 1_545
Mn1 S5 2.511556 1_555
Mn1 S4 2.511556 1_445
Mn1 S0 2.679447 1_455
Mn1 S2 2.679447 1_445
Mn1 S1 2.679447 1_555
Ga0 S12 2.251900 1_556
Ga0 S6 2.298069 1_555
Ga0 S7 2.298071 1_555
Ga0 S8 2.298078 1_555
Ga1 S13 2.251900 1_555
Ga1 S9 2.298069 1_555
Ga1 S10 2.298071 1_555
Ga1 S11 2.298078 1_555
S0 Sm5 2.861741 1_655
S0 Sm4 2.918535 1_545
S0 Sm0 2.964554 1_556
S1 Sm3 2.861741 1_545
S1 Sm5 2.918535 1_555
S1 Sm1 2.964554 1_556
S2 Sm4 2.861741 1_555
S2 Sm3 2.918535 1_655
S2 Sm2 2.964554 1_556
S3 Sm2 2.861741 1_455
S3 Sm1 2.918535 1_565
S3 Sm3 2.964554 1_555
S4 Sm0 2.861741 1_565
S4 Sm2 2.918535 1_555
S4 Sm4 2.964554 1_555
S5 Sm1 2.861741 1_555
S5 Sm0 2.918535 1_455
S5 Sm5 2.964554 1_555
S6 Sm2 2.807871 1_555
S6 Sm0 2.897024 1_555
S6 Sm5 2.972681 1_655
S7 Sm0 2.807871 1_555
S7 Sm1 2.897023 1_555
S7 Sm3 2.972681 1_545
S8 Sm1 2.807871 1_555
S8 Sm2 2.897024 1_555
S8 Sm4 2.972681 1_555
S9 Sm5 2.807871 1_554
S9 Sm3 2.897024 1_554
S9 Sm2 2.972681 1_455
S10 Sm3 2.807871 1_554
S10 Sm4 2.897023 1_554
S10 Sm0 2.972681 1_565
S11 Sm4 2.807871 1_554
S11 Sm5 2.897024 1_554
S11 Sm1 2.972681 1_555
S12 Sm0 2.847491 1_555
S12 Sm2 2.847498 1_555
S12 Sm1 2.847500 1_555
S13 Sm3 2.847491 1_555
S13 Sm5 2.847498 1_555
S13 Sm4 2.847500 1_555
