# generated using pymatgen
data_K5TlO4
_symmetry_space_group_name_H-M   'P 1'
_cell_length_a   6.94911600
_cell_length_b   12.06691500
_cell_length_c   20.98697700
_cell_angle_alpha   90.00000000
_cell_angle_beta   90.00000000
_cell_angle_gamma   90.00000000
_symmetry_Int_Tables_number   1
_chemical_formula_structural   K5TlO4
_chemical_formula_sum   'K40 Tl8 O32'
_cell_volume   1759.85019829
_cell_formula_units_Z   8
loop_
 _symmetry_equiv_pos_site_id
 _symmetry_equiv_pos_as_xyz
  1  'x, y, z'
loop_
 _atom_site_type_symbol
 _atom_site_label
 _atom_site_symmetry_multiplicity
 _atom_site_fract_x
 _atom_site_fract_y
 _atom_site_fract_z
 _atom_site_occupancy
  K  K0  1  0.92510100  0.19955900  0.35903000  1
  K  K1  1  0.42510100  0.80044100  0.14097000  1
  K  K2  1  0.57489900  0.69955900  0.64097000  1
  K  K3  1  0.07489900  0.30044100  0.85903000  1
  K  K4  1  0.07489900  0.80044100  0.64097000  1
  K  K5  1  0.57489900  0.19955900  0.85903000  1
  K  K6  1  0.42510100  0.30044100  0.35903000  1
  K  K7  1  0.92510100  0.69955900  0.14097000  1
  K  K8  1  0.91427500  0.16176700  0.99627600  1
  K  K9  1  0.41427500  0.83823300  0.50372400  1
  K  K10  1  0.58572500  0.66176700  0.00372400  1
  K  K11  1  0.08572500  0.33823300  0.49627600  1
  K  K12  1  0.08572500  0.83823300  0.00372400  1
  K  K13  1  0.58572500  0.16176700  0.49627600  1
  K  K14  1  0.41427500  0.33823300  0.99627600  1
  K  K15  1  0.91427500  0.66176700  0.50372400  1
  K  K16  1  0.89912600  0.08039700  0.74878100  1
  K  K17  1  0.39912600  0.91960300  0.75121900  1
  K  K18  1  0.60087400  0.58039700  0.25121900  1
  K  K19  1  0.10087400  0.41960300  0.24878100  1
  K  K20  1  0.10087400  0.91960300  0.25121900  1
  K  K21  1  0.60087400  0.08039700  0.24878100  1
  K  K22  1  0.39912600  0.41960300  0.74878100  1
  K  K23  1  0.89912600  0.58039700  0.75121900  1
  K  K24  1  0.91619800  0.43754100  0.06502600  1
  K  K25  1  0.41619800  0.56245900  0.43497400  1
  K  K26  1  0.58380200  0.93754100  0.93497400  1
  K  K27  1  0.08380200  0.06245900  0.56502600  1
  K  K28  1  0.08380200  0.56245900  0.93497400  1
  K  K29  1  0.58380200  0.43754100  0.56502600  1
  K  K30  1  0.41619800  0.06245900  0.06502600  1
  K  K31  1  0.91619800  0.93754100  0.43497400  1
  K  K32  1  0.89650400  0.32760100  0.67127100  1
  K  K33  1  0.39650400  0.67239900  0.82872900  1
  K  K34  1  0.60349600  0.82760100  0.32872900  1
  K  K35  1  0.10349600  0.17239900  0.17127100  1
  K  K36  1  0.10349600  0.67239900  0.32872900  1
  K  K37  1  0.60349600  0.32760100  0.17127100  1
  K  K38  1  0.39650400  0.17239900  0.67127100  1
  K  K39  1  0.89650400  0.82760100  0.82872900  1
  Tl  Tl0  1  0.82399700  0.46209200  0.37698300  1
  Tl  Tl1  1  0.32399700  0.53790800  0.12301700  1
  Tl  Tl2  1  0.67600300  0.96209200  0.62301700  1
  Tl  Tl3  1  0.17600300  0.03790800  0.87698300  1
  Tl  Tl4  1  0.17600300  0.53790800  0.62301700  1
  Tl  Tl5  1  0.67600300  0.46209200  0.87698300  1
  Tl  Tl6  1  0.32399700  0.03790800  0.37698300  1
  Tl  Tl7  1  0.82399700  0.96209200  0.12301700  1
  O  O0  1  0.80814700  0.36530800  0.95429700  1
  O  O1  1  0.30814700  0.63469200  0.54570300  1
  O  O2  1  0.69185300  0.86530800  0.04570300  1
  O  O3  1  0.19185300  0.13469200  0.45429700  1
  O  O4  1  0.19185300  0.63469200  0.04570300  1
  O  O5  1  0.69185300  0.36530800  0.45429700  1
  O  O6  1  0.30814700  0.13469200  0.95429700  1
  O  O7  1  0.80814700  0.86530800  0.54570300  1
  O  O8  1  0.85984900  0.04799200  0.87953900  1
  O  O9  1  0.35984900  0.95200800  0.62046100  1
  O  O10  1  0.64015100  0.54799200  0.12046100  1
  O  O11  1  0.14015100  0.45200800  0.37953900  1
  O  O12  1  0.14015100  0.95200800  0.12046100  1
  O  O13  1  0.64015100  0.04799200  0.37953900  1
  O  O14  1  0.35984900  0.45200800  0.87953900  1
  O  O15  1  0.85984900  0.54799200  0.62046100  1
  O  O16  1  0.76202300  0.13931700  0.62486700  1
  O  O17  1  0.26202300  0.86068300  0.87513300  1
  O  O18  1  0.73797700  0.63931700  0.37513300  1
  O  O19  1  0.23797700  0.36068300  0.12486700  1
  O  O20  1  0.23797700  0.86068300  0.37513300  1
  O  O21  1  0.73797700  0.13931700  0.12486700  1
  O  O22  1  0.26202300  0.36068300  0.62486700  1
  O  O23  1  0.76202300  0.63931700  0.87513300  1
  O  O24  1  0.73159200  0.37654200  0.28708000  1
  O  O25  1  0.23159200  0.62345800  0.21292000  1
  O  O26  1  0.76840800  0.87654200  0.71292000  1
  O  O27  1  0.26840800  0.12345800  0.78708000  1
  O  O28  1  0.26840800  0.62345800  0.71292000  1
  O  O29  1  0.76840800  0.37654200  0.78708000  1
  O  O30  1  0.23159200  0.12345800  0.28708000  1
  O  O31  1  0.73159200  0.87654200  0.21292000  1
loop_
_geom_bond_atom_site_label_1
_geom_bond_atom_site_label_2
_geom_bond_distance
_geom_bond_site_symmetry_2
K0 O13 2.729708 1_555
K0 O30 2.767607 1_655
K0 O3 2.836604 1_655
K0 O24 2.940979 1_555
K0 O5 3.259600 1_555
K1 O12 2.729708 1_555
K1 O31 2.767607 1_555
K1 O2 2.836604 1_555
K1 O25 2.940979 1_555
K1 O4 3.259600 1_555
K2 O15 2.729708 1_555
K2 O28 2.767607 1_555
K2 O1 2.836604 1_555
K2 O26 2.940979 1_555
K2 O7 3.259600 1_555
K3 O14 2.729708 1_555
K3 O29 2.767607 1_455
K3 O0 2.836604 1_455
K3 O27 2.940979 1_555
K3 O6 3.259600 1_555
K4 O9 2.729708 1_555
K4 O26 2.767607 1_455
K4 O7 2.836604 1_455
K4 O28 2.940979 1_555
K4 O1 3.259600 1_555
K5 O8 2.729708 1_555
K5 O27 2.767607 1_555
K5 O6 2.836604 1_555
K5 O29 2.940979 1_555
K5 O0 3.259600 1_555
K6 O11 2.729708 1_555
K6 O24 2.767607 1_555
K6 O5 2.836604 1_555
K6 O30 2.940979 1_555
K6 O3 3.259600 1_555
K7 O10 2.729708 1_555
K7 O25 2.767607 1_655
K7 O4 2.836604 1_655
K7 O31 2.940979 1_555
K7 O2 3.259600 1_555
K8 O0 2.711562 1_555
K8 O8 2.833765 1_555
K8 O6 2.893861 1_655
K8 O21 2.976151 1_556
K9 O1 2.711562 1_555
K9 O9 2.833765 1_555
K9 O7 2.893861 1_555
K9 O20 2.976151 1_555
K10 O2 2.711562 1_555
K10 O10 2.833765 1_555
K10 O4 2.893861 1_555
K10 O23 2.976151 1_554
K11 O3 2.711562 1_555
K11 O11 2.833765 1_555
K11 O5 2.893861 1_455
K11 O22 2.976151 1_555
K12 O4 2.711562 1_555
K12 O12 2.833765 1_555
K12 O2 2.893861 1_455
K12 O17 2.976151 1_554
K13 O5 2.711562 1_555
K13 O13 2.833765 1_555
K13 O3 2.893861 1_555
K13 O16 2.976151 1_555
K14 O6 2.711562 1_555
K14 O14 2.833765 1_555
K14 O0 2.893861 1_555
K14 O19 2.976151 1_556
K15 O7 2.711562 1_555
K15 O15 2.833765 1_555
K15 O1 2.893861 1_655
K15 O18 2.976151 1_555
K16 O26 2.728128 1_545
K16 O27 2.738861 1_655
K16 O8 2.785340 1_555
K16 O16 2.859412 1_555
K17 O27 2.728128 1_565
K17 O26 2.738861 1_555
K17 O9 2.785340 1_555
K17 O17 2.859412 1_555
K18 O24 2.728128 1_555
K18 O25 2.738861 1_555
K18 O10 2.785340 1_555
K18 O18 2.859412 1_555
K19 O25 2.728128 1_555
K19 O24 2.738861 1_455
K19 O11 2.785340 1_555
K19 O19 2.859412 1_555
K20 O30 2.728128 1_565
K20 O31 2.738861 1_455
K20 O12 2.785340 1_555
K20 O20 2.859412 1_555
K21 O31 2.728128 1_545
K21 O30 2.738861 1_555
K21 O13 2.785340 1_555
K21 O21 2.859412 1_555
K22 O28 2.728128 1_555
K22 O29 2.738861 1_555
K22 O14 2.785340 1_555
K22 O22 2.859412 1_555
K23 O29 2.728128 1_555
K23 O28 2.738861 1_655
K23 O15 2.785340 1_555
K23 O23 2.859412 1_555
K24 O0 2.593045 1_554
K24 O10 2.609540 1_555
K24 O19 2.727166 1_655
K24 O4 3.081149 1_655
K25 O1 2.593045 1_555
K25 O11 2.609540 1_555
K25 O18 2.727166 1_555
K25 O5 3.081149 1_555
K26 O2 2.593045 1_556
K26 O8 2.609540 1_565
K26 O17 2.727166 1_555
K26 O6 3.081149 1_565
K27 O3 2.593045 1_555
K27 O9 2.609540 1_545
K27 O16 2.727166 1_455
K27 O7 3.081149 1_445
K28 O4 2.593045 1_556
K28 O14 2.609540 1_555
K28 O23 2.727166 1_455
K28 O0 3.081149 1_455
K29 O5 2.593045 1_555
K29 O15 2.609540 1_555
K29 O22 2.727166 1_555
K29 O1 3.081149 1_555
K30 O6 2.593045 1_554
K30 O12 2.609540 1_545
K30 O21 2.727166 1_555
K30 O2 3.081149 1_545
K31 O7 2.593045 1_555
K31 O13 2.609540 1_565
K31 O20 2.727166 1_655
K31 O3 3.081149 1_665
K32 O16 2.642687 1_555
K32 O29 2.654879 1_555
K32 O22 2.749468 1_655
K32 O15 2.876560 1_555
K33 O17 2.642687 1_555
K33 O28 2.654879 1_555
K33 O23 2.749468 1_555
K33 O14 2.876560 1_555
K34 O18 2.642687 1_555
K34 O31 2.654879 1_555
K34 O20 2.749468 1_555
K34 O13 2.876560 1_565
K35 O19 2.642687 1_555
K35 O30 2.654879 1_555
K35 O21 2.749468 1_455
K35 O12 2.876560 1_545
K36 O20 2.642687 1_555
K36 O25 2.654879 1_555
K36 O18 2.749468 1_455
K36 O11 2.876560 1_555
K37 O21 2.642687 1_555
K37 O24 2.654879 1_555
K37 O19 2.749468 1_555
K37 O10 2.876560 1_555
K38 O22 2.642687 1_555
K38 O27 2.654879 1_555
K38 O16 2.749468 1_555
K38 O9 2.876560 1_545
K39 O23 2.642687 1_555
K39 O26 2.654879 1_555
K39 O17 2.749468 1_655
K39 O8 2.876560 1_565
O0 Tl5 2.199997 1_555
O1 Tl4 2.199997 1_555
O2 Tl7 2.199997 1_555
O3 Tl6 2.199997 1_555
O4 Tl1 2.199997 1_555
O5 Tl0 2.199997 1_555
O6 Tl3 2.199997 1_555
O7 Tl2 2.199997 1_555
O8 Tl3 2.201012 1_655
O9 Tl2 2.201012 1_555
O10 Tl1 2.201012 1_555
O11 Tl0 2.201012 1_455
O12 Tl7 2.201012 1_455
O13 Tl6 2.201012 1_555
O14 Tl5 2.201012 1_555
O15 Tl4 2.201012 1_655
O16 Tl2 2.220870 1_545
O17 Tl3 2.220870 1_565
O18 Tl0 2.220870 1_555
O19 Tl1 2.220870 1_555
O20 Tl6 2.220870 1_565
O21 Tl7 2.220870 1_545
O22 Tl4 2.220870 1_555
O23 Tl5 2.220870 1_555
O24 Tl0 2.244552 1_555
O25 Tl1 2.244552 1_555
O26 Tl2 2.244552 1_555
O27 Tl3 2.244552 1_555
O28 Tl4 2.244552 1_555
O29 Tl5 2.244552 1_555
O30 Tl6 2.244552 1_555
O31 Tl7 2.244552 1_555
