# generated using pymatgen
data_ZrNb
_symmetry_space_group_name_H-M   'P 1'
_cell_length_a   5.97008550
_cell_length_b   5.97008550
_cell_length_c   9.73897600
_cell_angle_alpha   90.00000000
_cell_angle_beta   90.00000000
_cell_angle_gamma   109.62288217
_symmetry_Int_Tables_number   1
_chemical_formula_structural   ZrNb
_chemical_formula_sum   'Zr8 Nb8'
_cell_volume   326.95650933
_cell_formula_units_Z   8
loop_
 _symmetry_equiv_pos_site_id
 _symmetry_equiv_pos_as_xyz
  1  'x, y, z'
loop_
 _atom_site_type_symbol
 _atom_site_label
 _atom_site_symmetry_multiplicity
 _atom_site_fract_x
 _atom_site_fract_y
 _atom_site_fract_z
 _atom_site_occupancy
  Zr  Zr0_0  1  0.25000000  0.25000000  0.25000000  1
  Zr  Zr0_1  1  0.25000000  0.25000000  0.75000000  1
  Zr  Zr0_2  1  0.25000000  0.75000000  0.25000000  1
  Zr  Zr0_3  1  0.25000000  0.75000000  0.75000000  1
  Zr  Zr0_4  1  0.75000000  0.25000000  0.25000000  1
  Zr  Zr0_5  1  0.75000000  0.25000000  0.75000000  1
  Zr  Zr0_6  1  0.75000000  0.75000000  0.25000000  1
  Zr  Zr0_7  1  0.75000000  0.75000000  0.75000000  1
  Nb  Nb0_0  1  0.00000000  0.00000000  0.00000000  1
  Nb  Nb0_1  1  0.00000000  0.00000000  0.50000000  1
  Nb  Nb0_2  1  0.00000000  0.50000000  0.00000000  1
  Nb  Nb0_3  1  0.00000000  0.50000000  0.50000000  1
  Nb  Nb0_4  1  0.50000000  0.00000000  0.00000000  1
  Nb  Nb0_5  1  0.50000000  0.00000000  0.50000000  1
  Nb  Nb0_6  1  0.50000000  0.50000000  0.00000000  1
  Nb  Nb0_7  1  0.50000000  0.50000000  0.50000000  1
loop_
_geom_bond_atom_site_label_1
_geom_bond_atom_site_label_2
_geom_bond_distance
_geom_bond_site_symmetry_2
Zr0_0 Zr0_4 2.985043 1_555
Zr0_0 Zr0_2 2.985043 1_555
Zr0_0 Zr0_2 2.985043 1_545
Zr0_0 Zr0_4 2.985043 1_455
Zr0_1 Zr0_5 2.985043 1_555
Zr0_1 Zr0_3 2.985043 1_545
Zr0_1 Zr0_3 2.985043 1_555
Zr0_1 Zr0_5 2.985043 1_455
Zr0_2 Zr0_6 2.985043 1_455
Zr0_2 Zr0_6 2.985043 1_555
Zr0_3 Zr0_7 2.985043 1_455
Zr0_3 Zr0_7 2.985043 1_555
Zr0_4 Zr0_6 2.985043 1_545
Zr0_4 Zr0_6 2.985043 1_555
Zr0_5 Zr0_7 2.985043 1_545
Zr0_5 Zr0_7 2.985043 1_555
Nb0_0 Zr0_0 2.981111 1_555
Nb0_0 Zr0_1 2.981111 1_554
Nb0_0 Zr0_6 2.981111 1_445
Nb0_0 Zr0_7 2.981111 1_444
Nb0_0 Nb0_4 2.985043 1_555
Nb0_0 Nb0_4 2.985043 1_455
Nb0_0 Nb0_2 2.985043 1_555
Nb0_0 Nb0_2 2.985043 1_545
Nb0_1 Zr0_0 2.981111 1_555
Nb0_1 Zr0_1 2.981111 1_555
Nb0_1 Zr0_6 2.981111 1_445
Nb0_1 Zr0_7 2.981111 1_445
Nb0_1 Nb0_5 2.985043 1_555
Nb0_1 Nb0_5 2.985043 1_455
Nb0_1 Nb0_3 2.985043 1_545
Nb0_1 Nb0_3 2.985043 1_555
Nb0_2 Zr0_2 2.981111 1_555
Nb0_2 Zr0_3 2.981111 1_554
Nb0_2 Zr0_5 2.981111 1_454
Nb0_2 Zr0_4 2.981111 1_455
Nb0_2 Nb0_6 2.985043 1_455
Nb0_2 Nb0_6 2.985043 1_555
Nb0_3 Zr0_2 2.981111 1_555
Nb0_3 Zr0_3 2.981111 1_555
Nb0_3 Zr0_5 2.981111 1_455
Nb0_3 Zr0_4 2.981111 1_455
Nb0_3 Nb0_7 2.985043 1_555
Nb0_3 Nb0_7 2.985043 1_455
Nb0_4 Zr0_4 2.981111 1_555
Nb0_4 Zr0_5 2.981111 1_554
Nb0_4 Zr0_2 2.981111 1_545
Nb0_4 Zr0_3 2.981111 1_544
Nb0_4 Nb0_6 2.985043 1_555
Nb0_4 Nb0_6 2.985043 1_545
Nb0_5 Zr0_4 2.981111 1_555
Nb0_5 Zr0_5 2.981111 1_555
Nb0_5 Zr0_2 2.981111 1_545
Nb0_5 Zr0_3 2.981111 1_545
Nb0_5 Nb0_7 2.985043 1_555
Nb0_5 Nb0_7 2.985043 1_545
Nb0_6 Zr0_0 2.981111 1_555
Nb0_6 Zr0_1 2.981111 1_554
Nb0_6 Zr0_6 2.981111 1_555
Nb0_6 Zr0_7 2.981111 1_554
Nb0_7 Zr0_0 2.981111 1_555
Nb0_7 Zr0_1 2.981111 1_555
Nb0_7 Zr0_6 2.981111 1_555
Nb0_7 Zr0_7 2.981111 1_555
