# generated using pymatgen
data_KRb2MnF6
_symmetry_space_group_name_H-M   'P 1'
_cell_length_a   6.29716100
_cell_length_b   6.29716100
_cell_length_c   6.45292517
_cell_angle_alpha   119.20465999
_cell_angle_beta   119.20465999
_cell_angle_gamma   90.00000000
_symmetry_Int_Tables_number   1
_chemical_formula_structural   KRb2MnF6
_chemical_formula_sum   'K1 Rb2 Mn1 F6'
_cell_volume   185.20324857
_cell_formula_units_Z   1
loop_
 _symmetry_equiv_pos_site_id
 _symmetry_equiv_pos_as_xyz
  1  'x, y, z'
loop_
 _atom_site_type_symbol
 _atom_site_label
 _atom_site_symmetry_multiplicity
 _atom_site_fract_x
 _atom_site_fract_y
 _atom_site_fract_z
 _atom_site_occupancy
  K  K0  1  0.50000000  0.50000000  0.00000000  1
  Rb  Rb0  1  0.25000000  0.75000000  0.50000000  1
  Rb  Rb1  1  0.75000000  0.25000000  0.50000000  1
  Mn  Mn0  1  0.00000000  0.00000000  0.00000000  1
  F  F0  1  0.21452500  0.21452500  0.00000000  1
  F  F1  1  0.78547500  0.78547500  0.00000000  1
  F  F2  1  0.78547500  0.21452500  0.00000000  1
  F  F3  1  0.21452500  0.78547500  0.00000000  1
  F  F4  1  0.22641000  0.22641000  0.45282100  1
  F  F5  1  0.77359000  0.77359000  0.54717900  1
loop_
_geom_bond_atom_site_label_1
_geom_bond_atom_site_label_2
_geom_bond_distance
_geom_bond_site_symmetry_2
F0 Mn0 1.910459 1_555
F0 K0 2.542306 1_555
F0 Rb1 3.241893 1_454
F0 Rb0 3.241893 1_544
F0 Rb0 3.241893 1_555
F0 Rb1 3.241893 1_555
F1 Mn0 1.910459 1_665
F1 K0 2.542306 1_555
F1 Rb0 3.241893 1_655
F1 Rb1 3.241893 1_565
F1 Rb0 3.241893 1_554
F1 Rb1 3.241893 1_554
F2 Mn0 1.910459 1_655
F2 K0 2.542306 1_555
F2 Rb1 3.241893 1_555
F2 Rb1 3.241893 1_554
F2 Rb0 3.241893 1_655
F2 Rb0 3.241893 1_544
F3 Mn0 1.910459 1_565
F3 K0 2.542306 1_555
F3 Rb0 3.241893 1_555
F3 Rb0 3.241893 1_554
F3 Rb1 3.241893 1_565
F3 Rb1 3.241893 1_454
F4 Mn0 2.114879 1_555
F4 K0 2.555574 1_556
F4 Rb0 3.156278 1_545
F4 Rb1 3.156278 1_455
F4 Rb0 3.156285 1_555
F4 Rb1 3.156285 1_555
F5 Mn0 2.114879 1_666
F5 K0 2.555574 1_555
F5 Rb1 3.156278 1_565
F5 Rb0 3.156278 1_655
F5 Rb0 3.156285 1_555
F5 Rb1 3.156285 1_555
