# generated using pymatgen
data_Ga2Cu(SO)2
_symmetry_space_group_name_H-M   'P 1'
_cell_length_a   8.04852482
_cell_length_b   8.04852482
_cell_length_c   8.04852482
_cell_angle_alpha   150.78997301
_cell_angle_beta   150.78997301
_cell_angle_gamma   41.78303079
_symmetry_Int_Tables_number   1
_chemical_formula_structural   Ga2Cu(SO)2
_chemical_formula_sum   'Ga2 Cu1 S2 O2'
_cell_volume   123.88170982
_cell_formula_units_Z   1
loop_
 _symmetry_equiv_pos_site_id
 _symmetry_equiv_pos_as_xyz
  1  'x, y, z'
loop_
 _atom_site_type_symbol
 _atom_site_label
 _atom_site_symmetry_multiplicity
 _atom_site_fract_x
 _atom_site_fract_y
 _atom_site_fract_z
 _atom_site_occupancy
  Ga  Ga0  1  0.25000000  0.75000000  0.50000000  1
  Ga  Ga1  1  0.75000000  0.25000000  0.50000000  1
  Cu  Cu0  1  0.00000000  0.00000000  0.00000000  1
  S  S0  1  0.83662800  0.83662800  0.00000000  1
  S  S1  1  0.16337200  0.16337200  0.00000000  1
  O  O0  1  0.00000000  0.50000000  0.50000000  1
  O  O1  1  0.50000000  0.00000000  0.50000000  1
loop_
_geom_bond_atom_site_label_1
_geom_bond_atom_site_label_2
_geom_bond_distance
_geom_bond_site_symmetry_2
Ga0 S1 2.411633 1_566
Ga0 S1 2.411633 1_555
Ga0 S0 2.411633 1_455
Ga0 S0 2.411633 1_556
Ga1 S1 2.411633 1_555
Ga1 S0 2.411633 1_545
Ga1 S1 2.411633 1_656
Ga1 S0 2.411633 1_556
Cu0 O1 2.029468 1_454
Cu0 O0 2.029468 1_544
Cu0 O1 2.029468 1_555
Cu0 O0 2.029468 1_555
Cu0 S0 2.456917 1_445
Cu0 S1 2.456917 1_555
