# generated using pymatgen
data_MgC4S4N2(O4F3)4
_symmetry_space_group_name_H-M   'P 1'
_cell_length_a   5.69140388
_cell_length_b   15.07403040
_cell_length_c   14.65315429
_cell_angle_alpha   90.00000000
_cell_angle_beta   98.28907527
_cell_angle_gamma   90.00000000
_symmetry_Int_Tables_number   1
_chemical_formula_structural   MgC4S4N2(O4F3)4
_chemical_formula_sum   'Mg2 C8 S8 N4 O32 F24'
_cell_volume   1243.99634651
_cell_formula_units_Z   2
loop_
 _symmetry_equiv_pos_site_id
 _symmetry_equiv_pos_as_xyz
  1  'x, y, z'
loop_
 _atom_site_type_symbol
 _atom_site_label
 _atom_site_symmetry_multiplicity
 _atom_site_fract_x
 _atom_site_fract_y
 _atom_site_fract_z
 _atom_site_occupancy
  Mg  Mg0  1  0.50000000  0.50000000  0.50000000  1
  Mg  Mg1  1  0.00000000  -0.00000000  0.00000000  1
  C  C0  1  0.52001134  0.35156157  0.10177601  1
  C  C1  1  0.02001134  0.14843843  0.60177601  1
  C  C2  1  0.47998866  0.64843843  0.89822399  1
  C  C3  1  0.97998866  0.85156157  0.39822399  1
  C  C4  1  0.43263633  0.09972851  0.34299742  1
  C  C5  1  0.93263633  0.40027149  0.84299742  1
  C  C6  1  0.56736367  0.90027149  0.65700258  1
  C  C7  1  0.06736367  0.59972851  0.15700258  1
  S  S0  1  0.30162363  0.28468262  0.15805933  1
  S  S1  1  0.80162363  0.21531738  0.65805933  1
  S  S2  1  0.69837637  0.71531738  0.84194067  1
  S  S3  1  0.19837637  0.78468262  0.34194067  1
  S  S4  1  0.62784359  0.15673206  0.26792266  1
  S  S5  1  0.12784359  0.34326794  0.76792266  1
  S  S6  1  0.37215641  0.84326794  0.73207734  1
  S  S7  1  0.87215641  0.65673206  0.23207734  1
  N  N0  1  0.43640936  0.19327814  0.18577312  1
  N  N1  1  0.93640936  0.30672186  0.68577312  1
  N  N2  1  0.56359064  0.80672186  0.81422688  1
  N  N3  1  0.06359064  0.69327814  0.31422688  1
  O  O0  1  0.50413175  0.11887499  0.94494743  1
  O  O1  1  0.00413175  0.38112501  0.44494743  1
  O  O2  1  0.49586825  0.88112501  0.05505257  1
  O  O3  1  0.99586825  0.61887499  0.55505257  1
  O  O4  1  0.23292886  0.39464048  0.46808856  1
  O  O5  1  0.73292886  0.10535952  0.96808856  1
  O  O6  1  0.76707114  0.60535952  0.53191144  1
  O  O7  1  0.26707114  0.89464048  0.03191144  1
  O  O8  1  0.86285262  0.42533345  0.49317911  1
  O  O9  1  0.36285262  0.07466655  0.99317911  1
  O  O10  1  0.13714738  0.57466655  0.50682089  1
  O  O11  1  0.63714738  0.92533345  0.00682089  1
  O  O12  1  0.55585637  0.46522939  0.37506074  1
  O  O13  1  0.05585637  0.03477061  0.87506074  1
  O  O14  1  0.44414363  0.53477061  0.62493926  1
  O  O15  1  0.94414363  0.96522939  0.12493926  1
  O  O16  1  0.26095994  0.33344612  0.23924940  1
  O  O17  1  0.76095994  0.16655388  0.73924940  1
  O  O18  1  0.73904006  0.66655388  0.76075060  1
  O  O19  1  0.23904006  0.83344612  0.26075060  1
  O  O20  1  0.11049151  0.26505119  0.08522378  1
  O  O21  1  0.61049151  0.23494881  0.58522378  1
  O  O22  1  0.88950849  0.73494881  0.91477622  1
  O  O23  1  0.38950849  0.76505119  0.41477622  1
  O  O24  1  0.74796116  0.22701416  0.32308208  1
  O  O25  1  0.24796116  0.27298584  0.82308208  1
  O  O26  1  0.25203884  0.77298584  0.67691792  1
  O  O27  1  0.75203884  0.72701416  0.17691792  1
  O  O28  1  0.75996325  0.08656826  0.23170618  1
  O  O29  1  0.25996325  0.41343174  0.73170618  1
  O  O30  1  0.24003675  0.91343174  0.76829382  1
  O  O31  1  0.74003675  0.58656826  0.26829382  1
  F  F0  1  0.42394567  0.43144776  0.07770499  1
  F  F1  1  0.92394567  0.06855224  0.57770499  1
  F  F2  1  0.57605433  0.56855224  0.92229501  1
  F  F3  1  0.07605433  0.93144776  0.42229501  1
  F  F4  1  0.56391298  0.30856267  0.02544362  1
  F  F5  1  0.06391298  0.19143733  0.52544362  1
  F  F6  1  0.43608702  0.69143733  0.97455638  1
  F  F7  1  0.93608702  0.80856267  0.47455638  1
  F  F8  1  0.72218312  0.36270548  0.16011750  1
  F  F9  1  0.22218312  0.13729452  0.66011750  1
  F  F10  1  0.27781688  0.63729452  0.83988250  1
  F  F11  1  0.77781688  0.86270548  0.33988250  1
  F  F12  1  0.57123673  0.06637739  0.41758440  1
  F  F13  1  0.07123673  0.43362261  0.91758440  1
  F  F14  1  0.42876327  0.93362261  0.58241560  1
  F  F15  1  0.92876327  0.56637739  0.08241560  1
  F  F16  1  0.27927580  0.15836888  0.37003765  1
  F  F17  1  0.77927580  0.34163112  0.87003765  1
  F  F18  1  0.72072420  0.84163112  0.62996235  1
  F  F19  1  0.22072420  0.65836888  0.12996235  1
  F  F20  1  0.31341177  0.03337444  0.29551420  1
  F  F21  1  0.81341177  0.46662556  0.79551420  1
  F  F22  1  0.68658823  0.96662556  0.70448580  1
  F  F23  1  0.18658823  0.53337444  0.20448580  1
loop_
_geom_bond_atom_site_label_1
_geom_bond_atom_site_label_2
_geom_bond_distance
_geom_bond_site_symmetry_2
Mg0 O12 1.973638 1_555
Mg0 O14 1.973638 1_555
Mg0 O4 2.201477 1_555
Mg0 O6 2.201477 1_555
Mg0 O8 2.366668 1_555
Mg0 O10 2.366668 1_555
Mg1 O13 1.973638 1_554
Mg1 O15 1.973638 1_445
Mg1 O5 2.201477 1_454
Mg1 O7 2.201477 1_545
Mg1 O11 2.366668 1_445
Mg1 O9 2.366668 1_554
C0 F8 1.341417 1_555
C0 F4 1.346922 1_555
C0 F0 1.348278 1_555
C0 S0 1.880681 1_555
C1 F9 1.341417 1_555
C1 F5 1.346922 1_555
C1 F1 1.348278 1_455
C1 S1 1.880681 1_455
C2 F10 1.341417 1_555
C2 F6 1.346922 1_555
C2 F2 1.348278 1_555
C2 S2 1.880681 1_555
C3 F11 1.341417 1_555
C3 F7 1.346922 1_555
C3 F3 1.348278 1_655
C3 S3 1.880681 1_655
C4 F16 1.341610 1_555
C4 F20 1.344939 1_555
C4 F12 1.349414 1_555
C4 S4 1.880229 1_555
C5 F17 1.341610 1_555
C5 F21 1.344939 1_555
C5 F13 1.349414 1_655
C5 S5 1.880229 1_655
C6 F18 1.341610 1_555
C6 F22 1.344939 1_555
C6 F14 1.349414 1_555
C6 S6 1.880229 1_555
C7 F19 1.341610 1_555
C7 F23 1.344939 1_555
C7 F15 1.349414 1_455
C7 S7 1.880229 1_455
N0 S4 1.600443 1_555
N0 S0 1.600621 1_555
N1 S5 1.600443 1_655
N1 S1 1.600621 1_555
N2 S6 1.600443 1_555
N2 S2 1.600621 1_555
N3 S7 1.600443 1_455
N3 S3 1.600621 1_555
O0 O5 1.313331 1_555
O0 O9 1.324376 1_555
O1 O4 1.313331 1_555
O1 O8 1.324376 1_455
O2 O7 1.313331 1_555
O3 O6 1.313331 1_555
O10 O3 1.324376 1_455
O11 O2 1.324376 1_555
O16 S0 1.445210 1_555
O17 S1 1.445210 1_555
O18 S2 1.445210 1_555
O19 S3 1.445210 1_555
O20 S0 1.440561 1_555
O21 S1 1.440561 1_555
O22 S2 1.440561 1_555
O23 S3 1.440561 1_555
O24 S4 1.443511 1_555
O25 S5 1.443511 1_555
O26 S6 1.443511 1_555
O27 S7 1.443511 1_555
O28 S4 1.442476 1_555
O29 S5 1.442476 1_555
O30 S6 1.442476 1_555
O31 S7 1.442476 1_555
