# generated using pymatgen
data_MgSe2O5
_symmetry_space_group_name_H-M   'P 1'
_cell_length_a   6.01840721
_cell_length_b   6.82559561
_cell_length_c   10.39516732
_cell_angle_alpha   90.00000000
_cell_angle_beta   90.00000000
_cell_angle_gamma   90.00000000
_symmetry_Int_Tables_number   1
_chemical_formula_structural   MgSe2O5
_chemical_formula_sum   'Mg4 Se8 O20'
_cell_volume   427.02530116
_cell_formula_units_Z   4
loop_
 _symmetry_equiv_pos_site_id
 _symmetry_equiv_pos_as_xyz
  1  'x, y, z'
loop_
 _atom_site_type_symbol
 _atom_site_label
 _atom_site_symmetry_multiplicity
 _atom_site_fract_x
 _atom_site_fract_y
 _atom_site_fract_z
 _atom_site_occupancy
  Mg  Mg0  1  0.75000000  0.00000000  0.56052409  1
  Mg  Mg1  1  0.25000000  0.50000000  0.93947591  1
  Mg  Mg2  1  0.25000000  0.00000000  0.43947591  1
  Mg  Mg3  1  0.75000000  0.50000000  0.06052409  1
  Se  Se0  1  0.52911861  0.13264142  0.84565791  1
  Se  Se1  1  0.02911861  0.36735858  0.65434209  1
  Se  Se2  1  0.47088139  0.63264142  0.65434209  1
  Se  Se3  1  0.97088139  0.86735858  0.84565791  1
  Se  Se4  1  0.47088139  0.86735858  0.15434209  1
  Se  Se5  1  0.97088139  0.63264142  0.34565791  1
  Se  Se6  1  0.52911861  0.36735858  0.34565791  1
  Se  Se7  1  0.02911861  0.13264142  0.15434209  1
  O  O0  1  0.25000000  0.50000000  0.56827318  1
  O  O1  1  0.75000000  0.00000000  0.93172682  1
  O  O2  1  0.75000000  0.50000000  0.43172682  1
  O  O3  1  0.25000000  0.00000000  0.06827318  1
  O  O4  1  0.65793168  0.19184155  0.70845445  1
  O  O5  1  0.15793168  0.30815845  0.79154555  1
  O  O6  1  0.34206832  0.69184155  0.79154555  1
  O  O7  1  0.84206832  0.80815845  0.70845445  1
  O  O8  1  0.34206832  0.80815845  0.29154555  1
  O  O9  1  0.84206832  0.69184155  0.20845445  1
  O  O10  1  0.65793168  0.30815845  0.20845445  1
  O  O11  1  0.15793168  0.19184155  0.29154555  1
  O  O12  1  0.04735691  0.34233094  0.06741466  1
  O  O13  1  0.54735691  0.15766906  0.43258534  1
  O  O14  1  0.95264309  0.84233094  0.43258534  1
  O  O15  1  0.45264309  0.65766906  0.06741466  1
  O  O16  1  0.95264309  0.65766906  0.93258534  1
  O  O17  1  0.45264309  0.84233094  0.56741466  1
  O  O18  1  0.04735691  0.15766906  0.56741466  1
  O  O19  1  0.54735691  0.34233094  0.93258534  1
loop_
_geom_bond_atom_site_label_1
_geom_bond_atom_site_label_2
_geom_bond_distance
_geom_bond_site_symmetry_2
Mg0 O18 2.089504 1_655
Mg0 O17 2.089504 1_545
Mg0 O4 2.094363 1_555
Mg0 O7 2.094363 1_545
Mg0 O13 2.101029 1_555
Mg0 O14 2.101029 1_545
Mg1 O19 2.089504 1_555
Mg1 O16 2.089504 1_455
Mg1 O6 2.094363 1_555
Mg1 O5 2.094363 1_555
Mg1 O15 2.101029 1_556
Mg1 O12 2.101029 1_556
Mg2 O13 2.089504 1_555
Mg2 O14 2.089504 1_445
Mg2 O8 2.094363 1_545
Mg2 O11 2.094363 1_555
Mg2 O18 2.101029 1_555
Mg2 O17 2.101029 1_545
Mg3 O12 2.089504 1_655
Mg3 O15 2.089504 1_555
Mg3 O10 2.094363 1_555
Mg3 O9 2.094363 1_555
Mg3 O19 2.101029 1_554
Mg3 O16 2.101029 1_554
O0 Se1 1.840473 1_555
O0 Se2 1.840473 1_555
O1 Se0 1.840473 1_555
O1 Se3 1.840473 1_545
O2 Se6 1.840473 1_555
O2 Se5 1.840473 1_555
O3 Se7 1.840473 1_555
O3 Se4 1.840473 1_545
O4 Se0 1.672868 1_555
O5 Se1 1.672868 1_555
O6 Se2 1.672868 1_555
O7 Se3 1.672868 1_555
O8 Se4 1.672868 1_555
O9 Se5 1.672868 1_555
O10 Se6 1.672868 1_555
O11 Se7 1.672868 1_555
O12 Se7 1.696196 1_555
O13 Se6 1.696196 1_555
O14 Se5 1.696196 1_555
O15 Se4 1.696196 1_555
O16 Se3 1.696196 1_555
O17 Se2 1.696196 1_555
O18 Se1 1.696196 1_555
O19 Se0 1.696196 1_555
