# generated using pymatgen
data_CaTi3O7
_symmetry_space_group_name_H-M   'P 1'
_cell_length_a   5.44389200
_cell_length_b   10.58244200
_cell_length_c   10.94777500
_cell_angle_alpha   90.00000000
_cell_angle_beta   90.00000000
_cell_angle_gamma   90.00000000
_symmetry_Int_Tables_number   1
_chemical_formula_structural   CaTi3O7
_chemical_formula_sum   'Ca4 Ti12 O28'
_cell_volume   630.69771970
_cell_formula_units_Z   4
loop_
 _symmetry_equiv_pos_site_id
 _symmetry_equiv_pos_as_xyz
  1  'x, y, z'
loop_
 _atom_site_type_symbol
 _atom_site_label
 _atom_site_symmetry_multiplicity
 _atom_site_fract_x
 _atom_site_fract_y
 _atom_site_fract_z
 _atom_site_occupancy
  Ca  Ca0  1  0.67410900  0.75000000  0.93260700  1
  Ca  Ca1  1  0.17410900  0.25000000  0.56739300  1
  Ca  Ca2  1  0.32589100  0.25000000  0.06739300  1
  Ca  Ca3  1  0.82589100  0.75000000  0.43260700  1
  Ti  Ti0  1  0.30116900  0.02668500  0.30732300  1
  Ti  Ti1  1  0.80116900  0.97331500  0.19267700  1
  Ti  Ti2  1  0.69883100  0.52668500  0.69267700  1
  Ti  Ti3  1  0.19883100  0.47331500  0.80732300  1
  Ti  Ti4  1  0.31040200  0.75000000  0.21842400  1
  Ti  Ti5  1  0.81040200  0.25000000  0.28157600  1
  Ti  Ti6  1  0.68959800  0.25000000  0.78157600  1
  Ti  Ti7  1  0.18959800  0.75000000  0.71842400  1
  Ti  Ti8  1  0.80116900  0.52668500  0.19267700  1
  Ti  Ti9  1  0.30116900  0.47331500  0.30732300  1
  Ti  Ti10  1  0.19883100  0.02668500  0.80732300  1
  Ti  Ti11  1  0.69883100  0.97331500  0.69267700  1
  O  O0  1  0.93397500  0.11989500  0.72383200  1
  O  O1  1  0.43397500  0.88010500  0.77616800  1
  O  O2  1  0.06602500  0.61989500  0.27616800  1
  O  O3  1  0.56602500  0.38010500  0.22383200  1
  O  O4  1  0.06602500  0.88010500  0.27616800  1
  O  O5  1  0.56602500  0.11989500  0.22383200  1
  O  O6  1  0.93397500  0.38010500  0.72383200  1
  O  O7  1  0.43397500  0.61989500  0.77616800  1
  O  O8  1  0.45739500  0.11923300  0.71911300  1
  O  O9  1  0.95739500  0.88076700  0.78088700  1
  O  O10  1  0.54260500  0.61923300  0.28088700  1
  O  O11  1  0.04260500  0.38076700  0.21911300  1
  O  O12  1  0.54260500  0.88076700  0.28088700  1
  O  O13  1  0.04260500  0.11923300  0.21911300  1
  O  O14  1  0.45739500  0.38076700  0.71911300  1
  O  O15  1  0.95739500  0.61923300  0.78088700  1
  O  O16  1  0.16862000  0.75000000  0.56465900  1
  O  O17  1  0.66862000  0.25000000  0.93534100  1
  O  O18  1  0.83138000  0.25000000  0.43534100  1
  O  O19  1  0.33138000  0.75000000  0.06465900  1
  O  O20  1  0.21739100  0.41994500  0.95161600  1
  O  O21  1  0.71739100  0.58005500  0.54838400  1
  O  O22  1  0.78260900  0.91994500  0.04838400  1
  O  O23  1  0.28260900  0.08005500  0.45161600  1
  O  O24  1  0.78260900  0.58005500  0.04838400  1
  O  O25  1  0.28260900  0.41994500  0.45161600  1
  O  O26  1  0.21739100  0.08005500  0.95161600  1
  O  O27  1  0.71739100  0.91994500  0.54838400  1
loop_
_geom_bond_atom_site_label_1
_geom_bond_atom_site_label_2
_geom_bond_distance
_geom_bond_site_symmetry_2
Ca0 O22 2.278114 1_556
Ca0 O24 2.278114 1_556
Ca0 O19 2.360320 1_556
Ca0 O7 2.556911 1_555
Ca0 O1 2.556911 1_555
Ca0 O15 2.655602 1_555
Ca0 O9 2.655602 1_555
Ca1 O25 2.278114 1_555
Ca1 O23 2.278114 1_555
Ca1 O18 2.360320 1_455
Ca1 O0 2.556911 1_455
Ca1 O6 2.556911 1_455
Ca1 O8 2.655602 1_555
Ca1 O14 2.655602 1_555
Ca2 O26 2.278114 1_554
Ca2 O20 2.278114 1_554
Ca2 O17 2.360320 1_554
Ca2 O5 2.556911 1_555
Ca2 O3 2.556911 1_555
Ca2 O13 2.655602 1_555
Ca2 O11 2.655602 1_555
Ca3 O21 2.278114 1_555
Ca3 O27 2.278114 1_555
Ca3 O16 2.360320 1_655
Ca3 O4 2.556911 1_655
Ca3 O2 2.556911 1_655
Ca3 O10 2.655602 1_555
Ca3 O12 2.655602 1_555
O0 Ti10 1.971639 1_655
O0 Ti6 2.016223 1_555
O0 Ti11 2.039884 1_545
O1 Ti11 1.971639 1_555
O1 Ti7 2.016223 1_555
O1 Ti10 2.039884 1_565
O2 Ti8 1.971639 1_455
O2 Ti4 2.016223 1_555
O2 Ti9 2.039884 1_555
O3 Ti9 1.971639 1_555
O3 Ti5 2.016223 1_555
O3 Ti8 2.039884 1_555
O4 Ti1 1.971639 1_455
O4 Ti4 2.016223 1_555
O4 Ti0 2.039884 1_565
O5 Ti0 1.971639 1_555
O5 Ti5 2.016223 1_555
O5 Ti1 2.039884 1_545
O6 Ti3 1.971639 1_655
O6 Ti6 2.016223 1_555
O6 Ti2 2.039884 1_555
O7 Ti2 1.971639 1_555
O7 Ti7 2.016223 1_555
O7 Ti3 2.039884 1_555
O8 Ti10 1.968019 1_555
O8 Ti6 1.995129 1_555
O8 Ti11 2.048350 1_545
O9 Ti11 1.968019 1_555
O9 Ti7 1.995129 1_655
O9 Ti10 2.048350 1_665
O10 Ti8 1.968019 1_555
O10 Ti4 1.995129 1_555
O10 Ti9 2.048350 1_555
O11 Ti9 1.968019 1_555
O11 Ti5 1.995129 1_455
O11 Ti8 2.048350 1_455
O12 Ti1 1.968019 1_555
O12 Ti4 1.995129 1_555
O12 Ti0 2.048350 1_565
O13 Ti0 1.968019 1_555
O13 Ti5 1.995129 1_455
O13 Ti1 2.048350 1_445
O14 Ti3 1.968019 1_555
O14 Ti6 1.995129 1_555
O14 Ti2 2.048350 1_555
O15 Ti2 1.968019 1_555
O15 Ti7 1.995129 1_655
O15 Ti3 2.048350 1_655
O16 Ti7 1.687254 1_555
O17 Ti6 1.687254 1_555
O18 Ti5 1.687254 1_555
O19 Ti4 1.687254 1_555
O20 Ti3 1.680655 1_555
O21 Ti2 1.680655 1_555
O22 Ti1 1.680655 1_555
O23 Ti0 1.680655 1_555
O24 Ti8 1.680655 1_555
O25 Ti9 1.680655 1_555
O26 Ti10 1.680655 1_555
O27 Ti11 1.680655 1_555
