# generated using pymatgen
data_Hf8Mg(N2O)4
_symmetry_space_group_name_H-M   'P 1'
_cell_length_a   5.46559100
_cell_length_b   5.45736004
_cell_length_c   10.76270726
_cell_angle_alpha   90.61835859
_cell_angle_beta   74.95460525
_cell_angle_gamma   59.51400305
_symmetry_Int_Tables_number   1
_chemical_formula_structural   Hf8Mg(N2O)4
_chemical_formula_sum   'Hf8 Mg1 N8 O4'
_cell_volume   263.21759681
_cell_formula_units_Z   1
loop_
 _symmetry_equiv_pos_site_id
 _symmetry_equiv_pos_as_xyz
  1  'x, y, z'
loop_
 _atom_site_type_symbol
 _atom_site_label
 _atom_site_symmetry_multiplicity
 _atom_site_fract_x
 _atom_site_fract_y
 _atom_site_fract_z
 _atom_site_occupancy
  Hf  Hf0  1  0.13948200  0.43216900  0.28962300  1
  Hf  Hf1  1  0.12380800  0.90473800  0.78945000  1
  Hf  Hf2  1  0.34359800  0.35164600  0.00497000  1
  Hf  Hf3  1  0.65826300  0.18990800  0.49740100  1
  Hf  Hf4  1  0.35044800  0.84164800  0.47524100  1
  Hf  Hf5  1  0.84195700  0.08193300  0.21190100  1
  Hf  Hf6  1  0.65591200  0.68180000  0.02557400  1
  Hf  Hf7  1  0.85195700  0.55385000  0.71274800  1
  Mg  Mg0  1  0.50085700  0.23204700  0.75104300  1
  N  N0  1  0.45687000  0.11198100  0.36915400  1
  N  N1  1  0.55423400  0.38705500  0.12804800  1
  N  N2  1  0.26566500  0.54660900  0.63701000  1
  N  N3  1  0.74795900  0.43566900  0.37414400  1
  N  N4  1  0.45607400  0.59558000  0.86962300  1
  N  N5  1  0.92947000  0.68119100  0.13116300  1
  N  N6  1  0.93490100  0.15784800  0.63058500  1
  N  N7  1  0.72445000  0.93294500  0.87259500  1
  O  O0  1  0.25656300  0.06708900  0.13129400  1
  O  O1  1  0.07447900  0.81549900  0.37506800  1
  O  O2  1  0.07834900  0.30425300  0.86504800  1
  O  O3  1  0.56418500  0.88016200  0.62733700  1
loop_
_geom_bond_atom_site_label_1
_geom_bond_atom_site_label_2
_geom_bond_distance
_geom_bond_site_symmetry_2
Hf0 N3 2.086767 1_455
Hf0 O1 2.093558 1_555
Hf0 N0 2.126688 1_555
Hf0 O0 2.312959 1_555
Hf0 N5 2.357240 1_455
Hf0 N1 2.366695 1_555
Hf1 N7 2.056895 1_455
Hf1 N4 2.150629 1_555
Hf1 O2 2.187358 1_565
Hf1 N2 2.201269 1_555
Hf1 N6 2.327647 1_465
Hf1 O3 2.518458 1_555
Hf2 N1 2.032083 1_555
Hf2 N5 2.103137 1_455
Hf2 N4 2.163189 1_554
Hf2 O0 2.223895 1_555
Hf2 N7 2.268911 1_544
Hf2 O2 2.437625 1_554
Hf3 N3 2.041298 1_555
Hf3 N0 2.132779 1_555
Hf3 N2 2.162452 1_555
Hf3 O1 2.180406 1_645
Hf3 N6 2.287710 1_555
Hf3 O3 2.374270 1_545
Hf4 N0 2.093032 1_565
Hf4 O1 2.125358 1_555
Hf4 N3 2.156268 1_555
Hf4 N6 2.218353 1_465
Hf4 O3 2.307171 1_555
Hf4 N2 2.497458 1_555
Hf5 N1 2.042675 1_555
Hf5 N5 2.109174 1_545
Hf5 O0 2.164680 1_655
Hf5 N0 2.261782 1_555
Hf5 N3 2.344127 1_555
Hf5 O1 2.480341 1_645
Hf6 N5 2.098603 1_555
Hf6 O0 2.117128 1_565
Hf6 N1 2.177081 1_555
Hf6 N7 2.231400 1_554
Hf6 O2 2.363545 1_654
Hf6 N4 2.384906 1_554
Hf7 N6 2.101072 1_555
Hf7 O3 2.105735 1_555
Hf7 N2 2.174991 1_655
Hf7 N4 2.275823 1_555
Hf7 O2 2.337600 1_655
Hf7 N7 2.358682 1_555
Mg0 O2 2.142122 1_555
Mg0 O3 2.147414 1_545
Mg0 N7 2.172884 1_545
Mg0 N2 2.175121 1_555
Mg0 N6 2.211295 1_555
Mg0 N4 2.217011 1_555
