# generated using pymatgen
data_BaMnO2
_symmetry_space_group_name_H-M   'P 1'
_cell_length_a   9.75146500
_cell_length_b   10.66684000
_cell_length_c   11.49407400
_cell_angle_alpha   90.00000000
_cell_angle_beta   90.00000000
_cell_angle_gamma   90.00000000
_symmetry_Int_Tables_number   1
_chemical_formula_structural   BaMnO2
_chemical_formula_sum   'Ba16 Mn16 O32'
_cell_volume   1195.58273797
_cell_formula_units_Z   16
loop_
 _symmetry_equiv_pos_site_id
 _symmetry_equiv_pos_as_xyz
  1  'x, y, z'
loop_
 _atom_site_type_symbol
 _atom_site_label
 _atom_site_symmetry_multiplicity
 _atom_site_fract_x
 _atom_site_fract_y
 _atom_site_fract_z
 _atom_site_occupancy
  Ba  Ba0  1  0.47815400  0.23054900  0.38354300  1
  Ba  Ba1  1  0.02184600  0.73054900  0.11645700  1
  Ba  Ba2  1  0.97815400  0.76945100  0.61645700  1
  Ba  Ba3  1  0.52184600  0.26945100  0.88354300  1
  Ba  Ba4  1  0.52184600  0.76945100  0.61645700  1
  Ba  Ba5  1  0.97815400  0.26945100  0.88354300  1
  Ba  Ba6  1  0.02184600  0.23054900  0.38354300  1
  Ba  Ba7  1  0.47815400  0.73054900  0.11645700  1
  Ba  Ba8  1  0.25000000  0.06607200  0.12107800  1
  Ba  Ba9  1  0.25000000  0.56607200  0.37892200  1
  Ba  Ba10  1  0.75000000  0.93392800  0.87892200  1
  Ba  Ba11  1  0.75000000  0.43392800  0.62107800  1
  Ba  Ba12  1  0.25000000  0.57588000  0.85827400  1
  Ba  Ba13  1  0.25000000  0.07588000  0.64172600  1
  Ba  Ba14  1  0.75000000  0.42412000  0.14172600  1
  Ba  Ba15  1  0.75000000  0.92412000  0.35827400  1
  Mn  Mn0  1  0.89367900  0.11267500  0.13770500  1
  Mn  Mn1  1  0.60632100  0.61267500  0.36229500  1
  Mn  Mn2  1  0.39367900  0.88732500  0.86229500  1
  Mn  Mn3  1  0.10632100  0.38732500  0.63770500  1
  Mn  Mn4  1  0.10632100  0.88732500  0.86229500  1
  Mn  Mn5  1  0.39367900  0.38732500  0.63770500  1
  Mn  Mn6  1  0.60632100  0.11267500  0.13770500  1
  Mn  Mn7  1  0.89367900  0.61267500  0.36229500  1
  Mn  Mn8  1  0.09486700  0.92098700  0.36121800  1
  Mn  Mn9  1  0.40513300  0.42098700  0.13878200  1
  Mn  Mn10  1  0.59486700  0.07901300  0.63878200  1
  Mn  Mn11  1  0.90513300  0.57901300  0.86121800  1
  Mn  Mn12  1  0.90513300  0.07901300  0.63878200  1
  Mn  Mn13  1  0.59486700  0.57901300  0.86121800  1
  Mn  Mn14  1  0.40513300  0.92098700  0.36121800  1
  Mn  Mn15  1  0.09486700  0.42098700  0.13878200  1
  O  O0  1  0.75000000  0.44515500  0.84886500  1
  O  O1  1  0.75000000  0.94515500  0.65113500  1
  O  O2  1  0.25000000  0.55484500  0.15113500  1
  O  O3  1  0.25000000  0.05484500  0.34886500  1
  O  O4  1  0.55459800  0.76496000  0.89024400  1
  O  O5  1  0.94540200  0.26496000  0.60975600  1
  O  O6  1  0.05459800  0.23504000  0.10975600  1
  O  O7  1  0.44540200  0.73504000  0.39024400  1
  O  O8  1  0.44540200  0.23504000  0.10975600  1
  O  O9  1  0.05459800  0.73504000  0.39024400  1
  O  O10  1  0.94540200  0.76496000  0.89024400  1
  O  O11  1  0.55459800  0.26496000  0.60975600  1
  O  O12  1  0.50000000  0.50000000  0.00000000  1
  O  O13  1  0.00000000  0.00000000  0.50000000  1
  O  O14  1  0.00000000  0.50000000  0.00000000  1
  O  O15  1  0.50000000  0.00000000  0.50000000  1
  O  O16  1  0.25000000  0.85384900  0.99664500  1
  O  O17  1  0.25000000  0.35384900  0.50335500  1
  O  O18  1  0.75000000  0.14615100  0.00335500  1
  O  O19  1  0.75000000  0.64615100  0.49664500  1
  O  O20  1  0.47813700  0.54298700  0.71036700  1
  O  O21  1  0.02186300  0.04298700  0.78963300  1
  O  O22  1  0.97813700  0.45701300  0.28963300  1
  O  O23  1  0.52186300  0.95701300  0.21036700  1
  O  O24  1  0.52186300  0.45701300  0.28963300  1
  O  O25  1  0.97813700  0.95701300  0.21036700  1
  O  O26  1  0.02186300  0.54298700  0.71036700  1
  O  O27  1  0.47813700  0.04298700  0.78963300  1
  O  O28  1  0.25000000  0.32691600  0.76714800  1
  O  O29  1  0.25000000  0.82691600  0.73285200  1
  O  O30  1  0.75000000  0.67308400  0.23285200  1
  O  O31  1  0.75000000  0.17308400  0.26714800  1
loop_
_geom_bond_atom_site_label_1
_geom_bond_atom_site_label_2
_geom_bond_distance
_geom_bond_site_symmetry_2
Ba0 O24 2.679959 1_555
Ba0 O11 2.729648 1_555
Ba0 O15 2.808015 1_555
Ba0 O17 2.928512 1_555
Ba0 O3 2.936225 1_555
Ba0 O31 3.031969 1_555
Ba0 O8 3.163456 1_555
Ba1 O25 2.679959 1_455
Ba1 O10 2.729648 1_454
Ba1 O14 2.808015 1_555
Ba1 O16 2.928512 1_554
Ba1 O2 2.936225 1_555
Ba1 O30 3.031969 1_455
Ba1 O9 3.163456 1_555
Ba2 O26 2.679959 1_655
Ba2 O9 2.729648 1_655
Ba2 O13 2.808015 1_665
Ba2 O19 2.928512 1_555
Ba2 O1 2.936225 1_555
Ba2 O29 3.031969 1_655
Ba2 O10 3.163456 1_555
Ba3 O27 2.679959 1_555
Ba3 O8 2.729648 1_556
Ba3 O12 2.808015 1_556
Ba3 O18 2.928512 1_556
Ba3 O0 2.936225 1_555
Ba3 O28 3.031969 1_555
Ba3 O11 3.163456 1_555
Ba4 O20 2.679959 1_555
Ba4 O7 2.729648 1_555
Ba4 O15 2.808015 1_565
Ba4 O19 2.928512 1_555
Ba4 O1 2.936225 1_555
Ba4 O29 3.031969 1_555
Ba4 O4 3.163456 1_555
Ba5 O21 2.679959 1_655
Ba5 O6 2.729648 1_656
Ba5 O14 2.808015 1_656
Ba5 O18 2.928512 1_556
Ba5 O0 2.936225 1_555
Ba5 O28 3.031969 1_655
Ba5 O5 3.163456 1_555
Ba6 O22 2.679959 1_455
Ba6 O5 2.729648 1_455
Ba6 O13 2.808015 1_555
Ba6 O17 2.928512 1_555
Ba6 O3 2.936225 1_555
Ba6 O31 3.031969 1_455
Ba6 O6 3.163456 1_555
Ba7 O23 2.679959 1_555
Ba7 O4 2.729648 1_554
Ba7 O12 2.808015 1_555
Ba7 O16 2.928512 1_554
Ba7 O2 2.936225 1_555
Ba7 O30 3.031969 1_555
Ba7 O7 3.163456 1_555
Ba8 O3 2.620938 1_555
Ba8 O8 2.626058 1_555
Ba8 O6 2.626058 1_555
Ba8 O16 2.677714 1_544
Ba8 O23 3.071598 1_545
Ba8 O25 3.071598 1_445
Ba9 O2 2.620938 1_555
Ba9 O7 2.626058 1_555
Ba9 O9 2.626058 1_555
Ba9 O17 2.677714 1_555
Ba9 O22 3.071598 1_455
Ba9 O24 3.071598 1_555
Ba10 O1 2.620938 1_555
Ba10 O4 2.626058 1_555
Ba10 O10 2.626058 1_555
Ba10 O18 2.677714 1_566
Ba10 O21 3.071598 1_665
Ba10 O27 3.071598 1_565
Ba11 O0 2.620938 1_555
Ba11 O5 2.626058 1_555
Ba11 O11 2.626058 1_555
Ba11 O19 2.677714 1_555
Ba11 O26 3.071598 1_655
Ba11 O20 3.071598 1_555
Ba12 O20 2.821781 1_555
Ba12 O26 2.821781 1_555
Ba12 O28 2.854749 1_555
Ba12 O29 3.041158 1_555
Ba12 O12 3.041709 1_556
Ba12 O14 3.041709 1_556
Ba12 O16 3.364676 1_555
Ba12 O2 3.373636 1_556
Ba13 O27 2.821781 1_555
Ba13 O21 2.821781 1_555
Ba13 O29 2.854749 1_545
Ba13 O28 3.041158 1_555
Ba13 O15 3.041709 1_555
Ba13 O13 3.041709 1_555
Ba13 O17 3.364676 1_555
Ba13 O3 3.373636 1_555
Ba14 O24 2.821781 1_555
Ba14 O22 2.821781 1_555
Ba14 O30 2.854749 1_555
Ba14 O31 3.041158 1_555
Ba14 O14 3.041709 1_655
Ba14 O12 3.041709 1_555
Ba14 O18 3.364676 1_555
Ba14 O0 3.373636 1_554
Ba15 O25 2.821781 1_555
Ba15 O23 2.821781 1_555
Ba15 O31 2.854749 1_565
Ba15 O30 3.041158 1_555
Ba15 O13 3.041709 1_665
Ba15 O15 3.041709 1_565
Ba15 O19 3.364676 1_555
Ba15 O1 3.373636 1_555
Mn0 O25 2.032936 1_545
Mn0 O6 2.066216 1_655
Mn0 O18 2.115462 1_555
Mn0 O31 2.142866 1_555
Mn1 O24 2.032936 1_555
Mn1 O7 2.066216 1_555
Mn1 O19 2.115462 1_555
Mn1 O30 2.142866 1_555
Mn2 O27 2.032936 1_565
Mn2 O4 2.066216 1_555
Mn2 O16 2.115462 1_555
Mn2 O29 2.142866 1_555
Mn3 O26 2.032936 1_555
Mn3 O5 2.066216 1_455
Mn3 O17 2.115462 1_555
Mn3 O28 2.142866 1_555
Mn4 O21 2.032936 1_565
Mn4 O10 2.066216 1_455
Mn4 O16 2.115462 1_555
Mn4 O29 2.142866 1_555
Mn5 O20 2.032936 1_555
Mn5 O11 2.066216 1_555
Mn5 O17 2.115462 1_555
Mn5 O28 2.142866 1_555
Mn6 O23 2.032936 1_545
Mn6 O8 2.066216 1_555
Mn6 O18 2.115462 1_555
Mn6 O31 2.142866 1_555
Mn7 O22 2.032936 1_555
Mn7 O9 2.066216 1_655
Mn7 O19 2.115462 1_555
Mn7 O30 2.142866 1_555
Mn8 O13 2.027488 1_565
Mn8 O9 2.049304 1_555
Mn8 O3 2.085037 1_565
Mn8 O25 2.109445 1_455
Mn9 O12 2.027488 1_555
Mn9 O8 2.049304 1_555
Mn9 O2 2.085037 1_555
Mn9 O24 2.109445 1_555
Mn10 O15 2.027488 1_555
Mn10 O11 2.049304 1_555
Mn10 O1 2.085037 1_545
Mn10 O27 2.109445 1_555
Mn11 O14 2.027488 1_656
Mn11 O10 2.049304 1_555
Mn11 O0 2.085037 1_555
Mn11 O26 2.109445 1_655
Mn12 O13 2.027488 1_655
Mn12 O5 2.049304 1_555
Mn12 O1 2.085037 1_545
Mn12 O21 2.109445 1_655
Mn13 O12 2.027488 1_556
Mn13 O4 2.049304 1_555
Mn13 O0 2.085037 1_555
Mn13 O20 2.109445 1_555
Mn14 O15 2.027488 1_565
Mn14 O7 2.049304 1_555
Mn14 O3 2.085037 1_565
Mn14 O23 2.109445 1_555
Mn15 O14 2.027488 1_555
Mn15 O6 2.049304 1_555
Mn15 O2 2.085037 1_555
Mn15 O22 2.109445 1_455
