# generated using pymatgen
data_Y(CoO2)2
_symmetry_space_group_name_H-M   'P 1'
_cell_length_a   6.14903746
_cell_length_b   6.14903746
_cell_length_c   6.14903729
_cell_angle_alpha   59.66934191
_cell_angle_beta   59.66934191
_cell_angle_gamma   59.66934562
_symmetry_Int_Tables_number   1
_chemical_formula_structural   Y(CoO2)2
_chemical_formula_sum   'Y2 Co4 O8'
_cell_volume   163.16671113
_cell_formula_units_Z   2
loop_
 _symmetry_equiv_pos_site_id
 _symmetry_equiv_pos_as_xyz
  1  'x, y, z'
loop_
 _atom_site_type_symbol
 _atom_site_label
 _atom_site_symmetry_multiplicity
 _atom_site_fract_x
 _atom_site_fract_y
 _atom_site_fract_z
 _atom_site_occupancy
  Y  Y0  1  0.62090100  0.62090100  0.62090100  1
  Y  Y1  1  0.37909900  0.37909900  0.37909900  1
  Co  Co0  1  0.50000000  0.00000000  0.00000000  1
  Co  Co1  1  0.00000000  0.00000000  0.00000000  1
  Co  Co2  1  0.00000000  0.50000000  0.00000000  1
  Co  Co3  1  0.00000000  0.00000000  0.50000000  1
  O  O0  1  0.75797300  0.19538600  0.75797300  1
  O  O1  1  0.24202700  0.24202700  0.80461400  1
  O  O2  1  0.80461400  0.24202700  0.24202700  1
  O  O3  1  0.23449700  0.23449700  0.23449700  1
  O  O4  1  0.75797300  0.75797300  0.19538600  1
  O  O5  1  0.24202700  0.80461400  0.24202700  1
  O  O6  1  0.19538600  0.75797300  0.75797300  1
  O  O7  1  0.76550300  0.76550300  0.76550300  1
loop_
_geom_bond_atom_site_label_1
_geom_bond_atom_site_label_2
_geom_bond_distance
_geom_bond_site_symmetry_2
Co0 O5 1.977181 1_545
Co0 O0 1.977181 1_554
Co0 O1 1.977181 1_554
Co0 O4 1.977181 1_545
Co0 O7 2.041677 1_544
Co0 O3 2.041677 1_555
Co1 O4 2.120930 1_445
Co1 O1 2.120930 1_554
Co1 O6 2.120930 1_544
Co1 O2 2.120930 1_455
Co1 O0 2.120930 1_454
Co1 O5 2.120930 1_545
Co2 O2 1.977181 1_455
Co2 O6 1.977181 1_554
Co2 O1 1.977181 1_554
Co2 O4 1.977181 1_455
Co2 O7 2.041677 1_454
Co2 O3 2.041677 1_555
Co3 O2 1.977181 1_455
Co3 O0 1.977181 1_455
Co3 O5 1.977181 1_545
Co3 O6 1.977181 1_545
Co3 O7 2.041677 1_445
Co3 O3 2.041677 1_555
O0 Y0 2.128315 1_555
O1 Y1 2.128315 1_555
O2 Y1 2.128315 1_555
O3 Y1 2.183423 1_555
O4 Y0 2.128315 1_555
O5 Y1 2.128315 1_555
O6 Y0 2.128315 1_555
O7 Y0 2.183423 1_555
