# generated using pymatgen
data_Sr3B6O11F2
_symmetry_space_group_name_H-M   'P 1'
_cell_length_a   8.33399700
_cell_length_b   6.46537700
_cell_length_c   9.49281127
_cell_angle_alpha   78.27032309
_cell_angle_beta   90.00000000
_cell_angle_gamma   90.00000000
_symmetry_Int_Tables_number   1
_chemical_formula_structural   Sr3B6O11F2
_chemical_formula_sum   'Sr6 B12 O22 F4'
_cell_volume   500.81452579
_cell_formula_units_Z   2
loop_
 _symmetry_equiv_pos_site_id
 _symmetry_equiv_pos_as_xyz
  1  'x, y, z'
loop_
 _atom_site_type_symbol
 _atom_site_label
 _atom_site_symmetry_multiplicity
 _atom_site_fract_x
 _atom_site_fract_y
 _atom_site_fract_z
 _atom_site_occupancy
  Sr  Sr0  1  0.26027700  0.98117800  0.23665200  1
  Sr  Sr1  1  0.76027700  0.01882200  0.76334800  1
  Sr  Sr2  1  0.61409200  0.56100100  0.46826400  1
  Sr  Sr3  1  0.11409200  0.43899900  0.53173600  1
  Sr  Sr4  1  0.10236300  0.54554100  0.95043300  1
  Sr  Sr5  1  0.60236300  0.45445900  0.04956700  1
  B  B0  1  0.61888300  0.93113800  0.14303800  1
  B  B1  1  0.11888300  0.06886200  0.85696200  1
  B  B2  1  0.39649300  0.89800000  0.93577100  1
  B  B3  1  0.89649300  0.10200000  0.06422900  1
  B  B4  1  0.15941900  0.89533600  0.62712300  1
  B  B5  1  0.65941900  0.10466400  0.37287700  1
  B  B6  1  0.90143800  0.32740200  0.26594600  1
  B  B7  1  0.40143800  0.67259800  0.73405400  1
  B  B8  1  0.94252200  0.99248000  0.44404800  1
  B  B9  1  0.44252200  0.00752000  0.55595200  1
  B  B10  1  0.87714100  0.72926800  0.20933900  1
  B  B11  1  0.37714100  0.27073200  0.79066100  1
  O  O0  1  0.95907900  0.54653000  0.27056700  1
  O  O1  1  0.45907900  0.45347000  0.72943300  1
  O  O2  1  0.04740000  0.84145000  0.51533500  1
  O  O3  1  0.54740000  0.15855000  0.48466500  1
  O  O4  1  0.00447800  0.18271400  0.37210100  1
  O  O5  1  0.50447800  0.81728600  0.62789900  1
  O  O6  1  0.73223100  0.30471800  0.30646200  1
  O  O7  1  0.23223100  0.69528200  0.69353800  1
  O  O8  1  0.78154600  0.94787300  0.44929200  1
  O  O9  1  0.28154600  0.05212700  0.55070900  1
  O  O10  1  0.96421100  0.90994200  0.16451200  1
  O  O11  1  0.46421100  0.09005800  0.83548800  1
  O  O12  1  0.06506900  0.99185600  0.72610900  1
  O  O13  1  0.56506900  0.00814400  0.27389100  1
  O  O14  1  0.22044600  0.92115300  0.95630300  1
  O  O15  1  0.72044600  0.07884700  0.04369700  1
  O  O16  1  0.47186300  0.87042900  0.07805200  1
  O  O17  1  0.97186300  0.12957100  0.92194800  1
  O  O18  1  0.71232600  0.72710700  0.19730400  1
  O  O19  1  0.21232600  0.27289300  0.80269600  1
  O  O20  1  0.93112200  0.29292600  0.12156400  1
  O  O21  1  0.43112200  0.70707400  0.87843600  1
  F  F0  1  0.31783600  0.33828600  0.10350700  1
  F  F1  1  0.81783600  0.66171400  0.89649300  1
  F  F2  1  0.33293600  0.62340100  0.38787200  1
  F  F3  1  0.83293600  0.37659900  0.61212800  1
loop_
_geom_bond_atom_site_label_1
_geom_bond_atom_site_label_2
_geom_bond_distance
_geom_bond_site_symmetry_2
B0 O16 1.460941 1_555
B0 O15 1.466827 1_565
B0 O13 1.497810 1_565
B0 O18 1.528285 1_555
B1 O17 1.460941 1_455
B1 O14 1.466827 1_545
B1 O12 1.497810 1_545
B1 O19 1.528285 1_555
B2 O16 1.467202 1_556
B2 O21 1.475280 1_555
B2 O14 1.491597 1_555
B2 O11 1.511956 1_565
B3 O17 1.467202 1_554
B3 O20 1.475280 1_555
B3 O15 1.491597 1_555
B3 O10 1.511956 1_545
B4 O7 1.451586 1_555
B4 O12 1.459137 1_555
B4 O2 1.506437 1_555
B4 O9 1.513521 1_565
B5 O6 1.451586 1_555
B5 O13 1.459137 1_555
B5 O3 1.506437 1_555
B5 O8 1.513525 1_545
B6 O20 1.453829 1_555
B6 O6 1.461192 1_555
B6 O4 1.498237 1_655
B6 O0 1.505033 1_555
B7 O21 1.453829 1_555
B7 O7 1.461192 1_555
B7 O5 1.498237 1_555
B7 O1 1.505033 1_555
B8 O8 1.370998 1_555
B8 O4 1.379951 1_665
B8 O2 1.380843 1_655
B9 O9 1.370998 1_555
B9 O5 1.379951 1_545
B9 O3 1.380843 1_555
B10 O10 1.367496 1_555
B10 O18 1.378617 1_555
B10 O0 1.385930 1_555
B11 O11 1.367496 1_555
B11 O19 1.378617 1_555
B11 O1 1.385930 1_555
O0 Sr3 2.756457 1_655
O1 Sr2 2.756457 1_555
O2 Sr3 2.634168 1_555
O2 Sr0 3.160773 1_555
O3 Sr2 2.634168 1_555
O3 Sr1 3.160773 1_555
O4 Sr3 2.626295 1_555
O4 Sr0 2.928647 1_545
O5 Sr2 2.626295 1_555
O5 Sr1 2.928647 1_565
O6 Sr5 2.663795 1_555
O6 Sr2 2.666244 1_555
O7 Sr4 2.663795 1_555
O7 Sr3 2.666244 1_555
O8 Sr2 2.837823 1_555
O8 Sr1 3.112212 1_565
O9 Sr3 2.837821 1_555
O9 Sr0 3.112221 1_545
O10 Sr0 2.626301 1_655
O11 Sr1 2.626301 1_555
O12 Sr1 2.575404 1_465
O13 Sr0 2.575404 1_545
O14 Sr4 2.631362 1_555
O14 Sr0 2.786261 1_556
O15 Sr5 2.631362 1_555
O15 Sr1 2.786261 1_554
O16 Sr0 2.515385 1_555
O17 Sr1 2.515385 1_555
O18 Sr5 2.630439 1_555
O18 Sr2 2.704905 1_555
O19 Sr4 2.630439 1_555
O19 Sr3 2.704905 1_555
O20 Sr4 2.502889 1_654
O21 Sr5 2.502889 1_556
F0 Sr0 2.443733 1_545
F0 Sr5 2.508542 1_555
F0 Sr4 2.517955 1_554
F1 Sr1 2.443733 1_565
F1 Sr4 2.508542 1_655
F1 Sr5 2.517955 1_556
F2 Sr3 2.439442 1_555
F2 Sr2 2.471910 1_555
F2 Sr0 2.535344 1_555
F3 Sr2 2.439442 1_555
F3 Sr3 2.471910 1_655
F3 Sr1 2.535344 1_555
