# generated using pymatgen
data_NdNi5Sn
_symmetry_space_group_name_H-M   'P 1'
_cell_length_a   4.92109674
_cell_length_b   4.92109674
_cell_length_c   19.71480300
_cell_angle_alpha   90.00000000
_cell_angle_beta   90.00000000
_cell_angle_gamma   120.00000989
_symmetry_Int_Tables_number   1
_chemical_formula_structural   NdNi5Sn
_chemical_formula_sum   'Nd4 Ni20 Sn4'
_cell_volume   413.47269476
_cell_formula_units_Z   4
loop_
 _symmetry_equiv_pos_site_id
 _symmetry_equiv_pos_as_xyz
  1  'x, y, z'
loop_
 _atom_site_type_symbol
 _atom_site_label
 _atom_site_symmetry_multiplicity
 _atom_site_fract_x
 _atom_site_fract_y
 _atom_site_fract_z
 _atom_site_occupancy
  Nd  Nd0  1  0.33333300  0.66666700  0.25000000  1
  Nd  Nd1  1  0.66666700  0.33333300  0.75000000  1
  Nd  Nd2  1  0.00000000  0.00000000  0.50000000  1
  Nd  Nd3  1  0.00000000  0.00000000  0.00000000  1
  Ni  Ni0  1  0.00000000  0.00000000  0.25000000  1
  Ni  Ni1  1  0.00000000  0.00000000  0.75000000  1
  Ni  Ni2  1  0.33333300  0.66666700  0.75000000  1
  Ni  Ni3  1  0.66666700  0.33333300  0.25000000  1
  Ni  Ni4  1  0.33333300  0.66666700  0.95633800  1
  Ni  Ni5  1  0.66666700  0.33333300  0.04366200  1
  Ni  Ni6  1  0.66666700  0.33333300  0.45633800  1
  Ni  Ni7  1  0.33333300  0.66666700  0.54366200  1
  Ni  Ni8  1  0.83339800  0.16660200  0.35386400  1
  Ni  Ni9  1  0.83339800  0.66679600  0.35386400  1
  Ni  Ni10  1  0.33320400  0.16660200  0.35386400  1
  Ni  Ni11  1  0.16660200  0.83339800  0.64613600  1
  Ni  Ni12  1  0.16660200  0.33320400  0.64613600  1
  Ni  Ni13  1  0.66679600  0.83339800  0.64613600  1
  Ni  Ni14  1  0.16660200  0.83339800  0.85386400  1
  Ni  Ni15  1  0.16660200  0.33320400  0.85386400  1
  Ni  Ni16  1  0.66679600  0.83339800  0.85386400  1
  Ni  Ni17  1  0.83339800  0.16660200  0.14613600  1
  Ni  Ni18  1  0.83339800  0.66679600  0.14613600  1
  Ni  Ni19  1  0.33320400  0.16660200  0.14613600  1
  Sn  Sn0  1  0.33333300  0.66666700  0.41261100  1
  Sn  Sn1  1  0.66666700  0.33333300  0.58738900  1
  Sn  Sn2  1  0.66666700  0.33333300  0.91261100  1
  Sn  Sn3  1  0.33333300  0.66666700  0.08738900  1
loop_
_geom_bond_atom_site_label_1
_geom_bond_atom_site_label_2
_geom_bond_distance
_geom_bond_site_symmetry_2
Nd0 Ni3 2.841193 1_455
Nd0 Ni3 2.841193 1_565
Nd0 Ni0 2.841194 1_565
Nd0 Ni0 2.841198 1_555
Nd0 Ni0 2.841198 1_665
Nd0 Ni3 2.841202 1_555
Nd0 Ni10 3.201123 1_565
Nd0 Ni19 3.201123 1_565
Nd0 Ni18 3.201123 1_455
Nd0 Ni9 3.201123 1_455
Nd0 Ni17 3.201125 1_565
Nd0 Ni8 3.201125 1_565
Nd0 Ni8 3.201125 1_455
Nd0 Ni17 3.201125 1_455
Nd0 Ni10 3.201127 1_555
Nd0 Ni18 3.201127 1_555
Nd0 Ni9 3.201127 1_555
Nd0 Ni19 3.201127 1_555
Nd0 Sn0 3.205844 1_555
Nd0 Sn3 3.205844 1_555
Nd1 Ni2 2.841193 1_545
Nd1 Ni2 2.841193 1_655
Nd1 Ni1 2.841194 1_655
Nd1 Ni1 2.841198 1_665
Nd1 Ni1 2.841198 1_555
Nd1 Ni2 2.841202 1_555
Nd1 Ni12 3.201123 1_655
Nd1 Ni15 3.201123 1_655
Nd1 Ni13 3.201123 1_545
Nd1 Ni16 3.201123 1_545
Nd1 Ni14 3.201125 1_545
Nd1 Ni11 3.201125 1_545
Nd1 Ni11 3.201125 1_655
Nd1 Ni14 3.201125 1_655
Nd1 Ni13 3.201127 1_555
Nd1 Ni15 3.201127 1_555
Nd1 Ni16 3.201127 1_555
Nd1 Ni12 3.201127 1_555
Nd1 Sn1 3.205844 1_555
Nd1 Sn2 3.205844 1_555
Nd2 Ni7 2.968727 1_545
Nd2 Ni6 2.968727 1_455
Nd2 Ni7 2.968730 1_445
Nd2 Ni6 2.968730 1_445
Nd2 Ni6 2.968730 1_555
Nd2 Ni7 2.968730 1_555
Nd2 Ni9 3.211999 1_445
Nd2 Ni10 3.211999 1_555
Nd2 Ni12 3.211999 1_555
Nd2 Ni13 3.211999 1_445
Nd2 Ni8 3.211999 1_455
Nd2 Ni11 3.211999 1_545
Nd2 Sn0 3.322743 1_545
Nd2 Sn1 3.322743 1_455
Nd2 Sn0 3.322746 1_445
Nd2 Sn0 3.322746 1_555
Nd2 Sn1 3.322746 1_445
Nd2 Sn1 3.322746 1_555
Nd3 Ni5 2.968727 1_455
Nd3 Ni4 2.968727 1_544
Nd3 Ni4 2.968730 1_444
Nd3 Ni5 2.968730 1_445
Nd3 Ni5 2.968730 1_555
Nd3 Ni4 2.968730 1_554
Nd3 Ni18 3.211999 1_445
Nd3 Ni19 3.211999 1_555
Nd3 Ni16 3.211999 1_444
Nd3 Ni15 3.211999 1_554
Nd3 Ni17 3.211999 1_455
Nd3 Ni14 3.211999 1_544
Nd3 Sn3 3.322743 1_545
Nd3 Sn2 3.322743 1_454
Nd3 Sn3 3.322746 1_555
Nd3 Sn3 3.322746 1_445
Nd3 Sn2 3.322746 1_554
Nd3 Sn2 3.322746 1_444
Ni0 Ni9 2.491874 1_445
Ni0 Ni18 2.491874 1_445
Ni0 Ni19 2.491874 1_555
Ni0 Ni10 2.491874 1_555
Ni0 Ni17 2.491874 1_455
Ni0 Ni8 2.491874 1_455
Ni0 Ni3 2.841194 1_455
Ni0 Ni3 2.841198 1_445
Ni0 Ni3 2.841198 1_555
Ni1 Ni13 2.491874 1_445
Ni1 Ni15 2.491874 1_555
Ni1 Ni12 2.491874 1_555
Ni1 Ni16 2.491874 1_445
Ni1 Ni14 2.491874 1_545
Ni1 Ni11 2.491874 1_545
Ni1 Ni2 2.841194 1_545
Ni1 Ni2 2.841198 1_445
Ni1 Ni2 2.841198 1_555
Ni3 Ni8 2.492501 1_555
Ni3 Ni9 2.492504 1_555
Ni4 Sn3 2.583645 1_556
Ni4 Sn2 2.969098 1_455
Ni4 Sn2 2.969098 1_565
Ni4 Sn2 2.969107 1_555
Ni5 Sn2 2.583645 1_554
Ni5 Sn3 2.969098 1_545
Ni5 Sn3 2.969098 1_655
Ni5 Sn3 2.969107 1_555
Ni6 Ni8 2.470038 1_555
Ni6 Ni9 2.470040 1_555
Ni6 Sn1 2.583645 1_555
Ni6 Sn0 2.969098 1_545
Ni6 Sn0 2.969098 1_655
Ni6 Sn0 2.969107 1_555
Ni7 Sn0 2.583645 1_555
Ni7 Sn1 2.969098 1_455
Ni7 Sn1 2.969098 1_565
Ni7 Sn1 2.969107 1_555
Ni8 Ni9 2.459594 1_545
Ni8 Ni9 2.461503 1_555
Ni8 Sn0 2.719502 1_655
Ni8 Sn0 2.719502 1_545
Ni9 Sn0 2.719500 1_655
Ni9 Sn0 2.719504 1_555
Ni10 Ni9 2.459593 1_445
Ni10 Ni8 2.459594 1_455
Ni10 Ni9 2.461503 1_555
Ni10 Ni8 2.461503 1_555
Ni10 Ni6 2.470040 1_555
Ni10 Ni3 2.492504 1_555
Ni10 Sn0 2.719500 1_545
Ni10 Sn0 2.719504 1_555
Ni11 Ni13 2.459594 1_455
Ni11 Ni12 2.459594 1_565
Ni11 Ni13 2.461503 1_555
Ni11 Ni12 2.461503 1_555
Ni11 Ni7 2.470038 1_555
Ni11 Ni2 2.492501 1_555
Ni11 Sn1 2.719502 1_565
Ni11 Sn1 2.719502 1_455
Ni12 Ni13 2.459593 1_445
Ni12 Ni13 2.461503 1_555
Ni12 Ni7 2.470040 1_555
Ni12 Ni2 2.492504 1_555
Ni12 Sn1 2.719500 1_455
Ni12 Sn1 2.719504 1_555
Ni13 Ni7 2.470040 1_555
Ni13 Ni2 2.492504 1_555
Ni13 Sn1 2.719500 1_565
Ni13 Sn1 2.719504 1_555
Ni14 Ni16 2.459594 1_455
Ni14 Ni15 2.459594 1_565
Ni14 Ni15 2.461503 1_555
Ni14 Ni16 2.461503 1_555
Ni14 Ni4 2.470038 1_555
Ni14 Ni2 2.492501 1_555
Ni14 Sn2 2.719502 1_565
Ni14 Sn2 2.719502 1_455
Ni15 Ni16 2.459593 1_445
Ni15 Ni16 2.461503 1_555
Ni15 Ni4 2.470040 1_555
Ni15 Ni2 2.492504 1_555
Ni15 Sn2 2.719500 1_455
Ni15 Sn2 2.719504 1_555
Ni16 Ni4 2.470040 1_555
Ni16 Ni2 2.492504 1_555
Ni16 Sn2 2.719500 1_565
Ni16 Sn2 2.719504 1_555
Ni17 Ni18 2.459594 1_545
Ni17 Ni19 2.459594 1_655
Ni17 Ni19 2.461503 1_555
Ni17 Ni18 2.461503 1_555
Ni17 Ni5 2.470038 1_555
Ni17 Ni3 2.492501 1_555
Ni17 Sn3 2.719502 1_655
Ni17 Sn3 2.719502 1_545
Ni18 Ni19 2.459593 1_665
Ni18 Ni19 2.461503 1_555
Ni18 Ni5 2.470040 1_555
Ni18 Ni3 2.492504 1_555
Ni18 Sn3 2.719500 1_655
Ni18 Sn3 2.719504 1_555
Ni19 Ni5 2.470040 1_555
Ni19 Ni3 2.492504 1_555
Ni19 Sn3 2.719500 1_545
Ni19 Sn3 2.719504 1_555
