# generated using pymatgen
data_Tm2(Ga3Ru)3
_symmetry_space_group_name_H-M   'P 1'
_cell_length_a   7.48145066
_cell_length_b   7.48145066
_cell_length_c   9.70251400
_cell_angle_alpha   90.00000000
_cell_angle_beta   90.00000000
_cell_angle_gamma   119.57880168
_symmetry_Int_Tables_number   1
_chemical_formula_structural   Tm2(Ga3Ru)3
_chemical_formula_sum   'Tm4 Ga18 Ru6'
_cell_volume   472.29593104
_cell_formula_units_Z   2
loop_
 _symmetry_equiv_pos_site_id
 _symmetry_equiv_pos_as_xyz
  1  'x, y, z'
loop_
 _atom_site_type_symbol
 _atom_site_label
 _atom_site_symmetry_multiplicity
 _atom_site_fract_x
 _atom_site_fract_y
 _atom_site_fract_z
 _atom_site_occupancy
  Tm  Tm0  1  0.99689100  0.66930600  0.25000000  1
  Tm  Tm1  1  0.00310900  0.33069400  0.75000000  1
  Tm  Tm2  1  0.66930600  0.99689100  0.25000000  1
  Tm  Tm3  1  0.33069400  0.00310900  0.75000000  1
  Ga  Ga0  1  0.12498700  0.12498700  0.25000000  1
  Ga  Ga1  1  0.87501300  0.87501300  0.75000000  1
  Ga  Ga2  1  0.00462000  0.33499200  0.07688500  1
  Ga  Ga3  1  0.99538000  0.66500800  0.92311500  1
  Ga  Ga4  1  0.99538000  0.66500800  0.57688500  1
  Ga  Ga5  1  0.33499200  0.00462000  0.42311500  1
  Ga  Ga6  1  0.00462000  0.33499200  0.42311500  1
  Ga  Ga7  1  0.66500800  0.99538000  0.57688500  1
  Ga  Ga8  1  0.66500800  0.99538000  0.92311500  1
  Ga  Ga9  1  0.33499200  0.00462000  0.07688500  1
  Ga  Ga10  1  0.33654000  0.33654000  0.56114100  1
  Ga  Ga11  1  0.66346000  0.66346000  0.43885900  1
  Ga  Ga12  1  0.66346000  0.66346000  0.06114100  1
  Ga  Ga13  1  0.33654000  0.33654000  0.93885900  1
  Ga  Ga14  1  0.33688900  0.54834500  0.25000000  1
  Ga  Ga15  1  0.66311100  0.45165500  0.75000000  1
  Ga  Ga16  1  0.54834500  0.33688900  0.25000000  1
  Ga  Ga17  1  0.45165500  0.66311100  0.75000000  1
  Ru  Ru0  1  0.67457100  0.32542900  0.00000000  1
  Ru  Ru1  1  0.32542900  0.67457100  0.00000000  1
  Ru  Ru2  1  0.32542900  0.67457100  0.50000000  1
  Ru  Ru3  1  0.67457100  0.32542900  0.50000000  1
  Ru  Ru4  1  0.00000000  0.00000000  0.00000000  1
  Ru  Ru5  1  0.00000000  0.00000000  0.50000000  1
loop_
_geom_bond_atom_site_label_1
_geom_bond_atom_site_label_2
_geom_bond_distance
_geom_bond_site_symmetry_2
Ga0 Ru5 2.601771 1_555
Ga0 Ru4 2.601771 1_555
Ga0 Ga2 2.738146 1_555
Ga0 Ga5 2.738146 1_555
Ga0 Ga6 2.738146 1_555
Ga0 Ga9 2.738146 1_555
Ga0 Ga14 2.754645 1_555
Ga0 Ga16 2.754645 1_555
Ga0 Tm0 3.052099 1_445
Ga0 Tm2 3.052099 1_445
Ga1 Ru5 2.601771 1_665
Ga1 Ru4 2.601771 1_666
Ga1 Ga3 2.738146 1_555
Ga1 Ga7 2.738146 1_555
Ga1 Ga4 2.738146 1_555
Ga1 Ga8 2.738146 1_555
Ga1 Ga17 2.754645 1_555
Ga1 Ga15 2.754645 1_555
Ga1 Tm1 3.052099 1_665
Ga1 Tm3 3.052099 1_665
Ga2 Ru0 2.546442 1_455
Ga2 Ru1 2.598386 1_555
Ga2 Ru4 2.598716 1_555
Ga2 Ga3 2.914646 1_454
Ga2 Ga8 2.960392 1_444
Ga2 Tm0 3.036959 1_455
Ga2 Tm2 3.041083 1_445
Ga2 Tm1 3.171733 1_554
Ga3 Ru1 2.546442 1_656
Ga3 Ru0 2.598386 1_556
Ga3 Ru4 2.598716 1_666
Ga3 Ga9 2.960392 1_666
Ga3 Tm1 3.036959 1_655
Ga3 Tm3 3.041083 1_665
Ga3 Tm0 3.171733 1_556
Ga4 Ru2 2.546442 1_655
Ga4 Ru3 2.598386 1_555
Ga4 Ru5 2.598716 1_665
Ga4 Ga6 2.914646 1_655
Ga4 Ga5 2.960392 1_665
Ga4 Tm1 3.036959 1_655
Ga4 Tm3 3.041083 1_665
Ga4 Tm0 3.171733 1_555
Ga5 Ru2 2.546442 1_545
Ga5 Ru3 2.598386 1_555
Ga5 Ru5 2.598716 1_555
Ga5 Ga7 2.914646 1_545
Ga5 Tm2 3.036959 1_545
Ga5 Tm0 3.041083 1_445
Ga5 Tm3 3.171733 1_555
Ga6 Ru3 2.546442 1_455
Ga6 Ru2 2.598386 1_555
Ga6 Ru5 2.598716 1_555
Ga6 Ga7 2.960392 1_445
Ga6 Tm0 3.036959 1_455
Ga6 Tm2 3.041083 1_445
Ga6 Tm1 3.171733 1_555
Ga7 Ru3 2.546442 1_565
Ga7 Ru2 2.598386 1_555
Ga7 Ru5 2.598716 1_665
Ga7 Tm3 3.036959 1_565
Ga7 Tm1 3.041083 1_665
Ga7 Tm2 3.171733 1_555
Ga8 Ru0 2.546442 1_566
Ga8 Ru1 2.598386 1_556
Ga8 Ru4 2.598716 1_666
Ga8 Ga9 2.914646 1_566
Ga8 Tm3 3.036959 1_565
Ga8 Tm1 3.041083 1_665
Ga8 Tm2 3.171733 1_556
Ga9 Ru1 2.546442 1_545
Ga9 Ru0 2.598386 1_555
Ga9 Ru4 2.598716 1_555
Ga9 Tm2 3.036959 1_545
Ga9 Tm0 3.041083 1_445
Ga9 Tm3 3.171733 1_554
Ga10 Ru5 2.602336 1_555
Ga10 Ru2 2.638563 1_555
Ga10 Ru3 2.638563 1_555
Ga10 Ga11 2.732415 1_555
Ga10 Ga6 2.816326 1_555
Ga10 Ga5 2.816326 1_555
Ga10 Ga17 2.826916 1_555
Ga10 Ga15 2.826916 1_555
Ga10 Tm3 3.078098 1_555
Ga10 Tm1 3.078098 1_555
Ga11 Ru5 2.602336 1_665
Ga11 Ru2 2.638563 1_555
Ga11 Ru3 2.638563 1_555
Ga11 Ga4 2.816326 1_555
Ga11 Ga7 2.816326 1_555
Ga11 Ga14 2.826916 1_555
Ga11 Ga16 2.826916 1_555
Ga11 Tm0 3.078098 1_555
Ga11 Tm2 3.078098 1_555
Ga12 Ru4 2.602336 1_665
Ga12 Ru1 2.638563 1_555
Ga12 Ru0 2.638563 1_555
Ga12 Ga13 2.732415 1_554
Ga12 Ga3 2.816326 1_554
Ga12 Ga8 2.816326 1_554
Ga12 Ga14 2.826916 1_555
Ga12 Ga16 2.826916 1_555
Ga12 Tm0 3.078098 1_555
Ga12 Tm2 3.078098 1_555
Ga13 Ru4 2.602336 1_556
Ga13 Ru0 2.638563 1_556
Ga13 Ru1 2.638563 1_556
Ga13 Ga2 2.816326 1_556
Ga13 Ga9 2.816326 1_556
Ga13 Ga17 2.826916 1_555
Ga13 Ga15 2.826916 1_555
Ga13 Tm3 3.078098 1_555
Ga13 Tm1 3.078098 1_555
Ga14 Ru1 2.619687 1_555
Ga14 Ru2 2.619687 1_555
Ga14 Ga16 2.734267 1_555
Ga14 Ga2 2.762472 1_555
Ga14 Ga6 2.762472 1_555
Ga14 Tm2 3.034305 1_555
Ga14 Tm0 3.092220 1_455
Ga15 Ru3 2.619687 1_555
Ga15 Ru0 2.619687 1_556
Ga15 Ga17 2.734267 1_555
Ga15 Ga4 2.762472 1_555
Ga15 Ga3 2.762472 1_555
Ga15 Tm3 3.034305 1_555
Ga15 Tm1 3.092220 1_655
Ga16 Ru3 2.619687 1_555
Ga16 Ru0 2.619687 1_555
Ga16 Ga5 2.762472 1_555
Ga16 Ga9 2.762472 1_555
Ga16 Tm0 3.034305 1_555
Ga16 Tm2 3.092220 1_545
Ga17 Ru1 2.619687 1_556
Ga17 Ru2 2.619687 1_555
Ga17 Ga7 2.762472 1_555
Ga17 Ga8 2.762472 1_555
Ga17 Tm1 3.034305 1_555
Ga17 Tm3 3.092220 1_565
