# generated using pymatgen
data_NaCu5Se2Cl3O8
_symmetry_space_group_name_H-M   'P 1'
_cell_length_a   6.49445700
_cell_length_b   10.64779500
_cell_length_c   18.07185400
_cell_angle_alpha   90.00000000
_cell_angle_beta   90.00000000
_cell_angle_gamma   90.00000000
_symmetry_Int_Tables_number   1
_chemical_formula_structural   NaCu5Se2Cl3O8
_chemical_formula_sum   'Na4 Cu20 Se8 Cl12 O32'
_cell_volume   1249.69846433
_cell_formula_units_Z   4
loop_
 _symmetry_equiv_pos_site_id
 _symmetry_equiv_pos_as_xyz
  1  'x, y, z'
loop_
 _atom_site_type_symbol
 _atom_site_label
 _atom_site_symmetry_multiplicity
 _atom_site_fract_x
 _atom_site_fract_y
 _atom_site_fract_z
 _atom_site_occupancy
  Na  Na0  1  0.25000000  0.76407100  0.90556600  1
  Na  Na1  1  0.25000000  0.73592900  0.40556600  1
  Na  Na2  1  0.75000000  0.23592900  0.09443400  1
  Na  Na3  1  0.75000000  0.26407100  0.59443400  1
  Cu  Cu0  1  0.25000000  0.00029500  0.09767700  1
  Cu  Cu1  1  0.25000000  0.49970500  0.59767700  1
  Cu  Cu2  1  0.75000000  0.99970500  0.90232300  1
  Cu  Cu3  1  0.75000000  0.50029500  0.40232300  1
  Cu  Cu4  1  0.25000000  0.50246900  0.13347700  1
  Cu  Cu5  1  0.25000000  0.99753100  0.63347700  1
  Cu  Cu6  1  0.75000000  0.49753100  0.86652300  1
  Cu  Cu7  1  0.75000000  0.00246900  0.36652300  1
  Cu  Cu8  1  0.25000000  0.21894700  0.21980800  1
  Cu  Cu9  1  0.25000000  0.28105300  0.71980800  1
  Cu  Cu10  1  0.75000000  0.78105300  0.78019200  1
  Cu  Cu11  1  0.75000000  0.71894700  0.28019200  1
  Cu  Cu12  1  0.00500500  0.95941200  0.23664200  1
  Cu  Cu13  1  0.49499500  0.54058800  0.73664200  1
  Cu  Cu14  1  0.50500500  0.04058800  0.76335800  1
  Cu  Cu15  1  0.99499500  0.45941200  0.26335800  1
  Cu  Cu16  1  0.99499500  0.04058800  0.76335800  1
  Cu  Cu17  1  0.50500500  0.45941200  0.26335800  1
  Cu  Cu18  1  0.49499500  0.95941200  0.23664200  1
  Cu  Cu19  1  0.00500500  0.54058800  0.73664200  1
  Se  Se0  1  0.25000000  0.07634300  0.93081700  1
  Se  Se1  1  0.25000000  0.42365700  0.43081800  1
  Se  Se2  1  0.75000000  0.92365700  0.06918200  1
  Se  Se3  1  0.75000000  0.57634300  0.56918300  1
  Se  Se4  1  0.75000000  0.58336600  0.11672600  1
  Se  Se5  1  0.75000000  0.91663400  0.61672600  1
  Se  Se6  1  0.25000000  0.41663400  0.88327400  1
  Se  Se7  1  0.25000000  0.08336600  0.38327400  1
  Cl  Cl0  1  0.25000000  0.24483200  0.09022800  1
  Cl  Cl1  1  0.25000000  0.25516800  0.59022800  1
  Cl  Cl2  1  0.75000000  0.75516800  0.90977200  1
  Cl  Cl3  1  0.75000000  0.74483200  0.40977200  1
  Cl  Cl4  1  0.25000000  0.63092200  0.03712600  1
  Cl  Cl5  1  0.25000000  0.86907800  0.53712600  1
  Cl  Cl6  1  0.75000000  0.36907800  0.96287400  1
  Cl  Cl7  1  0.75000000  0.13092200  0.46287400  1
  Cl  Cl8  1  0.25000000  0.73607700  0.25501300  1
  Cl  Cl9  1  0.25000000  0.76392300  0.75501300  1
  Cl  Cl10  1  0.75000000  0.26392300  0.74498700  1
  Cl  Cl11  1  0.75000000  0.23607700  0.24498700  1
  O  O0  1  0.75000000  0.89869200  0.27449000  1
  O  O1  1  0.75000000  0.60130800  0.77449000  1
  O  O2  1  0.25000000  0.10130800  0.72551000  1
  O  O3  1  0.25000000  0.39869200  0.22551000  1
  O  O4  1  0.25000000  0.04033900  0.20341200  1
  O  O5  1  0.25000000  0.45966100  0.70341200  1
  O  O6  1  0.75000000  0.95966100  0.79658800  1
  O  O7  1  0.75000000  0.54033900  0.29658800  1
  O  O8  1  0.95000000  0.48942200  0.15317000  1
  O  O9  1  0.55000000  0.01057800  0.65317000  1
  O  O10  1  0.45000000  0.51057800  0.84683000  1
  O  O11  1  0.05000000  0.98942200  0.34683000  1
  O  O12  1  0.05000000  0.51057800  0.84683000  1
  O  O13  1  0.45000000  0.98942200  0.34683000  1
  O  O14  1  0.55000000  0.48942200  0.15317000  1
  O  O15  1  0.95000000  0.01057800  0.65317000  1
  O  O16  1  0.25000000  0.95367400  0.99341100  1
  O  O17  1  0.25000000  0.54632600  0.49341100  1
  O  O18  1  0.75000000  0.04632600  0.00658900  1
  O  O19  1  0.75000000  0.45367400  0.50658900  1
  O  O20  1  0.75000000  0.71333700  0.17144700  1
  O  O21  1  0.75000000  0.78666300  0.67144700  1
  O  O22  1  0.25000000  0.28666300  0.82855300  1
  O  O23  1  0.25000000  0.21333700  0.32855300  1
  O  O24  1  0.04741200  0.02480900  0.87401100  1
  O  O25  1  0.45258800  0.47519100  0.37401100  1
  O  O26  1  0.54741200  0.97519100  0.12598900  1
  O  O27  1  0.95258800  0.52480900  0.62598900  1
  O  O28  1  0.95258800  0.97519100  0.12598900  1
  O  O29  1  0.54741200  0.52480900  0.62598900  1
  O  O30  1  0.45258800  0.02480900  0.87401100  1
  O  O31  1  0.04741200  0.47519100  0.37401100  1
loop_
_geom_bond_atom_site_label_1
_geom_bond_atom_site_label_2
_geom_bond_distance
_geom_bond_site_symmetry_2
Na0 O16 2.568267 1_555
Na1 O17 2.568267 1_555
Na2 O18 2.568267 1_555
Na3 O19 2.568267 1_555
Cu0 O16 1.948572 1_544
Cu0 O4 1.957821 1_555
Cu0 O26 2.015947 1_545
Cu0 O28 2.015947 1_445
Cu1 O17 1.948572 1_555
Cu1 O5 1.957821 1_555
Cu1 O27 2.015947 1_455
Cu1 O29 2.015947 1_555
Cu2 O18 1.948572 1_566
Cu2 O6 1.957821 1_555
Cu2 O30 2.015947 1_565
Cu2 O24 2.015947 1_665
Cu3 O19 1.948572 1_555
Cu3 O7 1.957821 1_555
Cu3 O31 2.015947 1_655
Cu3 O25 2.015947 1_555
Cu4 O8 1.985440 1_455
Cu4 O14 1.985440 1_555
Cu4 O3 1.996816 1_555
Cu5 O15 1.985440 1_465
Cu5 O9 1.985440 1_565
Cu5 O2 1.996816 1_565
Cu6 O10 1.985440 1_555
Cu6 O12 1.985440 1_655
Cu6 O1 1.996816 1_555
Cu7 O13 1.985440 1_545
Cu7 O11 1.985440 1_645
Cu7 O0 1.996816 1_545
Cu8 O3 1.916660 1_555
Cu8 O4 1.924726 1_555
Cu8 O23 1.966131 1_555
Cu9 O2 1.916660 1_555
Cu9 O5 1.924726 1_555
Cu9 O22 1.966131 1_555
Cu10 O1 1.916660 1_555
Cu10 O6 1.924726 1_555
Cu10 O21 1.966131 1_555
Cu11 O0 1.916660 1_555
Cu11 O7 1.924726 1_555
Cu11 O20 1.966131 1_555
Cu12 O0 1.904881 1_455
Cu12 O4 1.906510 1_565
Cu12 O28 2.035420 1_455
Cu12 O11 2.037837 1_555
Cu13 O1 1.904881 1_555
Cu13 O5 1.906510 1_555
Cu13 O29 2.035420 1_555
Cu13 O10 2.037837 1_555
Cu14 O2 1.904881 1_555
Cu14 O6 1.906510 1_545
Cu14 O30 2.035420 1_555
Cu14 O9 2.037837 1_555
Cu15 O3 1.904881 1_655
Cu15 O7 1.906510 1_555
Cu15 O31 2.035420 1_655
Cu15 O8 2.037837 1_555
Cu16 O2 1.904881 1_655
Cu16 O6 1.906510 1_545
Cu16 O24 2.035420 1_655
Cu16 O15 2.037837 1_555
Cu17 O3 1.904881 1_555
Cu17 O7 1.906510 1_555
Cu17 O25 2.035420 1_555
Cu17 O14 2.037837 1_555
Cu18 O0 1.904881 1_555
Cu18 O4 1.906510 1_565
Cu18 O26 2.035420 1_555
Cu18 O13 2.037837 1_555
Cu19 O1 1.904881 1_455
Cu19 O5 1.906510 1_555
Cu19 O27 2.035420 1_455
Cu19 O12 2.037837 1_555
Cl0 Cu8 2.357915 1_555
Cl0 Cu0 2.607257 1_555
Cl0 Cu4 2.852436 1_555
Cl0 Na2 3.249501 1_455
Cl0 Na2 3.249501 1_555
Cl1 Cu9 2.357915 1_555
Cl1 Cu1 2.607257 1_555
Cl1 Cu5 2.852436 1_545
Cl1 Na3 3.249501 1_455
Cl1 Na3 3.249501 1_555
Cl2 Cu10 2.357915 1_555
Cl2 Cu2 2.607257 1_555
Cl2 Cu6 2.852436 1_555
Cl2 Na0 3.249501 1_555
Cl2 Na0 3.249501 1_655
Cl3 Cu11 2.357915 1_555
Cl3 Cu3 2.607257 1_555
Cl3 Cu7 2.852436 1_565
Cl3 Na1 3.249501 1_555
Cl3 Na1 3.249501 1_655
Cl4 Cu4 2.214190 1_555
Cl4 Na0 2.768151 1_554
Cl5 Cu5 2.214190 1_555
Cl5 Na1 2.768151 1_555
Cl6 Cu6 2.214190 1_555
Cl6 Na2 2.768151 1_556
Cl7 Cu7 2.214190 1_555
Cl7 Na3 2.768151 1_555
Cl8 Na1 2.720772 1_555
Cl8 Cu12 2.880426 1_555
Cl8 Cu18 2.880426 1_555
Cl9 Na0 2.720772 1_555
Cl9 Cu13 2.880426 1_555
Cl9 Cu19 2.880426 1_555
Cl10 Na3 2.720772 1_555
Cl10 Cu16 2.880426 1_555
Cl10 Cu14 2.880426 1_555
Cl11 Na2 2.720772 1_555
Cl11 Cu15 2.880426 1_555
Cl11 Cu17 2.880426 1_555
O8 Se4 1.766771 1_555
O9 Se5 1.766771 1_545
O10 Se6 1.766771 1_555
O11 Se7 1.766771 1_565
O12 Se6 1.766771 1_555
O13 Se7 1.766771 1_565
O14 Se4 1.766771 1_555
O15 Se5 1.766771 1_545
O16 Se0 1.727897 1_565
O17 Se1 1.727886 1_555
O18 Se2 1.727886 1_545
O19 Se3 1.727897 1_555
O20 Se4 1.700922 1_555
O21 Se5 1.700922 1_555
O22 Se6 1.700922 1_555
O23 Se7 1.700922 1_555
O24 Se0 1.756715 1_555
O25 Se1 1.756726 1_555
O26 Se2 1.756726 1_555
O27 Se3 1.756715 1_555
O28 Se2 1.756726 1_555
O29 Se3 1.756715 1_555
O30 Se0 1.756715 1_555
O31 Se1 1.756726 1_555
