# generated using pymatgen
data_SrYCoO4
_symmetry_space_group_name_H-M   'P 1'
_cell_length_a   6.82662412
_cell_length_b   7.65622057
_cell_length_c   8.49591655
_cell_angle_alpha   116.01055158
_cell_angle_beta   68.13609192
_cell_angle_gamma   106.15056943
_symmetry_Int_Tables_number   1
_chemical_formula_structural   SrYCoO4
_chemical_formula_sum   'Sr4 Y4 Co4 O16'
_cell_volume   366.83960649
_cell_formula_units_Z   4
loop_
 _symmetry_equiv_pos_site_id
 _symmetry_equiv_pos_as_xyz
  1  'x, y, z'
loop_
 _atom_site_type_symbol
 _atom_site_label
 _atom_site_symmetry_multiplicity
 _atom_site_fract_x
 _atom_site_fract_y
 _atom_site_fract_z
 _atom_site_occupancy
  Sr  Sr0  1  0.29197100  0.41217700  0.17707800  1
  Sr  Sr1  1  0.29608400  0.91075900  0.17353800  1
  Sr  Sr2  1  0.29304500  0.15615700  0.67523700  1
  Sr  Sr3  1  0.29774400  0.66737200  0.67703200  1
  Y  Y0  1  0.72607200  0.56555300  0.80833800  1
  Y  Y1  1  0.72479000  0.11360700  0.82267500  1
  Y  Y2  1  0.70786700  0.33951800  0.32366100  1
  Y  Y3  1  0.71608800  0.84881500  0.32730500  1
  Co  Co0  1  0.96758900  0.99721600  0.01155000  1
  Co  Co1  1  0.97683900  0.74550800  0.50114100  1
  Co  Co2  1  0.00453200  0.50009500  0.00137300  1
  Co  Co3  1  0.01628000  0.25299700  0.49354800  1
  O  O0  1  0.67476600  0.42636100  0.06664100  1
  O  O1  1  0.66264300  0.00408100  0.15596600  1
  O  O2  1  0.67719200  0.23321400  0.59497800  1
  O  O3  1  0.66604900  0.66342800  0.51248100  1
  O  O4  1  0.37746100  0.55554400  0.90795600  1
  O  O5  1  0.38028600  0.02962600  0.89009400  1
  O  O6  1  0.35417400  0.29360900  0.41499500  1
  O  O7  1  0.36502600  0.80840400  0.42097800  1
  O  O8  1  0.00112100  0.37715300  0.75151400  1
  O  O9  1  0.88423500  0.86058000  0.77822500  1
  O  O10  1  0.00794700  0.12507800  0.25741700  1
  O  O11  1  0.01125600  0.62462600  0.23608300  1
  O  O12  1  0.95748200  0.74775800  0.00552600  1
  O  O13  1  0.00114600  0.23733300  0.99542200  1
  O  O14  1  0.99469300  0.51087800  0.50588500  1
  O  O15  1  0.96562300  0.99255900  0.51336300  1
loop_
_geom_bond_atom_site_label_1
_geom_bond_atom_site_label_2
_geom_bond_distance
_geom_bond_site_symmetry_2
Co0 O13 1.847753 1_664
Co0 O12 1.870483 1_555
Co0 O10 1.970451 1_665
Co0 O1 1.985895 1_565
Co0 O9 2.009443 1_554
Co0 O5 2.595010 1_664
Co1 O14 1.852680 1_555
Co1 O15 1.869951 1_555
Co1 O11 1.970231 1_655
Co1 O3 2.016109 1_555
Co1 O9 2.024830 1_555
Co1 O7 2.439621 1_655
Co2 O11 1.806600 1_555
Co2 O8 1.914384 1_554
Co2 O13 1.983954 1_554
Co2 O12 1.992873 1_455
Co2 O0 2.081302 1_455
Co2 O4 2.341109 1_554
Co3 O10 1.821483 1_555
Co3 O8 1.943252 1_555
Co3 O14 1.974789 1_455
Co3 O15 1.997821 1_445
Co3 O6 2.121142 1_555
Co3 O2 2.134867 1_455
O0 Y1 2.391891 1_554
O0 Sr0 2.413764 1_555
O0 Y2 2.643071 1_555
O0 Y0 2.710228 1_554
O0 Y3 3.020042 1_555
O1 Y2 2.323369 1_555
O1 Sr1 2.369650 1_545
O1 Y3 2.412433 1_545
O2 Y0 2.409209 1_555
O2 Sr2 2.418763 1_555
O2 Y1 2.621805 1_555
O2 Y2 2.685295 1_555
O2 Y3 2.831703 1_545
O3 Y2 2.317001 1_555
O3 Sr3 2.379952 1_555
O3 Y3 2.427934 1_555
O4 Y0 2.200241 1_555
O4 Sr1 2.705709 1_556
O4 Sr3 2.721391 1_555
O4 Sr0 2.761194 1_556
O4 Sr2 2.856065 1_555
O5 Y1 2.179660 1_555
O5 Sr3 2.602578 1_545
O5 Sr2 2.703136 1_555
O5 Sr1 2.749149 1_546
O5 Sr0 2.917335 1_556
O6 Y2 2.219736 1_555
O6 Sr2 2.698025 1_555
O6 Sr0 2.748314 1_555
O6 Sr1 2.764544 1_545
O6 Sr3 2.771351 1_555
O7 Y3 2.203525 1_555
O7 Sr2 2.624767 1_565
O7 Sr3 2.673834 1_555
O7 Sr1 2.764413 1_555
O7 Sr0 2.856562 1_555
O8 Y0 2.461727 1_455
O8 Y1 2.469489 1_455
O8 Sr2 2.684505 1_555
O8 Sr3 2.685836 1_555
O9 Y0 2.297323 1_555
O9 Y1 2.303371 1_565
O10 Y3 2.583011 1_445
O10 Sr1 2.606796 1_545
O10 Sr0 2.648791 1_555
O10 Y2 2.722259 1_455
O11 Sr1 2.596915 1_555
O11 Sr0 2.621592 1_555
O11 Y3 2.683523 1_455
O11 Y2 2.714705 1_455
O12 Y0 2.437960 1_554
O12 Y3 2.507326 1_555
O12 Sr3 2.832616 1_654
O12 Sr1 2.868497 1_655
O13 Y1 2.541486 1_455
O13 Sr2 2.631680 1_555
O13 Sr0 2.665907 1_556
O13 Y2 2.682669 1_456
O14 Y0 2.472834 1_555
O14 Y2 2.645604 1_555
O14 Sr3 2.676438 1_655
O14 Sr0 2.696757 1_655
O15 Y1 2.441595 1_565
O15 Y3 2.459381 1_555
O15 Sr2 2.770821 1_665
O15 Sr1 2.857626 1_655
