# generated using pymatgen
data_AlWO4
_symmetry_space_group_name_H-M   'P 1'
_cell_length_a   4.59279407
_cell_length_b   4.59279407
_cell_length_c   2.82216346
_cell_angle_alpha   90.00000000
_cell_angle_beta   90.00000000
_cell_angle_gamma   92.64645417
_symmetry_Int_Tables_number   1
_chemical_formula_structural   AlWO4
_chemical_formula_sum   'Al1 W1 O4'
_cell_volume   59.46654025
_cell_formula_units_Z   1
loop_
 _symmetry_equiv_pos_site_id
 _symmetry_equiv_pos_as_xyz
  1  'x, y, z'
loop_
 _atom_site_type_symbol
 _atom_site_label
 _atom_site_symmetry_multiplicity
 _atom_site_fract_x
 _atom_site_fract_y
 _atom_site_fract_z
 _atom_site_occupancy
  Al  Al0  1  0.50000000  0.50000000  -0.00000000  1
  W  W0  1  -0.00000000  0.00000000  0.50000000  1
  O  O0  1  0.30170365  0.30170365  0.50000000  1
  O  O1  1  0.69829635  0.69829635  0.50000000  1
  O  O2  1  0.78470739  0.21529261  -0.00000000  1
  O  O3  1  0.21529261  0.78470739  -0.00000000  1
loop_
_geom_bond_atom_site_label_1
_geom_bond_atom_site_label_2
_geom_bond_distance
_geom_bond_site_symmetry_2
Al0 O0 1.890352 1_554
Al0 O1 1.890352 1_555
Al0 O0 1.890352 1_555
Al0 O1 1.890352 1_554
Al0 O3 1.891439 1_555
Al0 O2 1.891439 1_555
O0 W0 1.913848 1_555
O1 W0 1.913848 1_665
O2 W0 2.009196 1_655
O2 W0 2.009196 1_654
O3 W0 2.009196 1_565
O3 W0 2.009196 1_564
