# generated using pymatgen
data_Fe(BO2)2
_symmetry_space_group_name_H-M   'P 1'
_cell_length_a   4.42432487
_cell_length_b   9.13841401
_cell_length_c   5.62321665
_cell_angle_alpha   90.00049574
_cell_angle_beta   90.00023423
_cell_angle_gamma   99.49599198
_symmetry_Int_Tables_number   1
_chemical_formula_structural   Fe(BO2)2
_chemical_formula_sum   'Fe4 B8 O16'
_cell_volume   224.23862963
_cell_formula_units_Z   4
loop_
 _symmetry_equiv_pos_site_id
 _symmetry_equiv_pos_as_xyz
  1  'x, y, z'
loop_
 _atom_site_type_symbol
 _atom_site_label
 _atom_site_symmetry_multiplicity
 _atom_site_fract_x
 _atom_site_fract_y
 _atom_site_fract_z
 _atom_site_occupancy
  Fe  Fe0  1  0.74993540  0.00000574  0.34881600  1
  Fe  Fe1  1  0.74993975  0.50000629  0.15117894  1
  Fe  Fe2  1  0.24993551  0.50000275  0.84882335  1
  Fe  Fe3  1  0.24994426  0.00000297  0.65117942  1
  B  B0  1  0.31164291  0.18639223  0.10773037  1
  B  B1  1  0.81166244  0.68637869  0.60771852  1
  B  B2  1  0.18837484  0.81360484  0.10775050  1
  B  B3  1  0.68834705  0.31361912  0.60772067  1
  B  B4  1  0.68836474  0.81361490  0.89229078  1
  B  B5  1  0.18835617  0.31361446  0.39225743  1
  B  B6  1  0.81165028  0.18638865  0.89227146  1
  B  B7  1  0.31165577  0.68638591  0.39226022  1
  O  O0  1  0.83442031  0.35314941  0.84771670  1
  O  O1  1  0.33444504  0.85315762  0.34772839  1
  O  O2  1  0.66561412  0.64684378  0.84775887  1
  O  O3  1  0.16559174  0.14683582  0.34774751  1
  O  O4  1  0.16560551  0.64683793  0.15225124  1
  O  O5  1  0.66559927  0.14683960  0.65223957  1
  O  O6  1  0.33442845  0.35315407  0.15227570  1
  O  O7  1  0.83443295  0.85315110  0.65228424  1
  O  O8  1  0.60548396  0.13925039  0.08665739  1
  O  O9  1  0.10547779  0.63925468  0.58668370  1
  O  O10  1  0.89452805  0.86075608  0.08668258  1
  O  O11  1  0.39452364  0.36074816  0.58668666  1
  O  O12  1  0.39454879  0.86075121  0.91330813  1
  O  O13  1  0.89451466  0.36075402  0.41331664  1
  O  O14  1  0.10547489  0.13925115  0.91331942  1
  O  O15  1  0.60549972  0.63924743  0.41334558  1
loop_
_geom_bond_atom_site_label_1
_geom_bond_atom_site_label_2
_geom_bond_distance
_geom_bond_site_symmetry_2
Fe0 O1 2.089532 1_545
Fe0 O3 2.090018 1_655
Fe0 O8 2.114046 1_555
Fe0 O10 2.114217 1_545
Fe0 O5 2.239659 1_555
Fe0 O7 2.240174 1_545
Fe1 O6 2.089622 1_555
Fe1 O4 2.090057 1_655
Fe1 O15 2.114025 1_555
Fe1 O13 2.114229 1_555
Fe1 O2 2.239668 1_554
Fe1 O0 2.240126 1_554
Fe2 O0 2.089641 1_455
Fe2 O2 2.090144 1_555
Fe2 O9 2.114027 1_555
Fe2 O11 2.114251 1_555
Fe2 O4 2.239678 1_556
Fe2 O6 2.240067 1_556
Fe3 O7 2.089621 1_445
Fe3 O5 2.090043 1_555
Fe3 O14 2.114015 1_555
Fe3 O12 2.114244 1_545
Fe3 O3 2.239724 1_555
Fe3 O1 2.240036 1_545
B0 O8 1.440331 1_555
B0 O14 1.443279 1_554
B0 O3 1.514188 1_555
B0 O6 1.531208 1_555
B1 O9 1.440133 1_655
B1 O15 1.443086 1_555
B1 O2 1.514266 1_555
B1 O7 1.531329 1_555
B2 O10 1.440391 1_455
B2 O12 1.443449 1_554
B2 O1 1.514008 1_555
B2 O4 1.531224 1_555
B3 O11 1.440186 1_555
B3 O13 1.443249 1_555
B3 O0 1.514069 1_555
B3 O5 1.531364 1_555
B4 O12 1.440177 1_555
B4 O10 1.443186 1_556
B4 O7 1.514133 1_555
B4 O2 1.531295 1_555
B5 O13 1.440318 1_455
B5 O11 1.443343 1_555
B5 O6 1.514020 1_555
B5 O3 1.531336 1_555
B6 O14 1.440233 1_655
B6 O8 1.443175 1_556
B6 O5 1.514240 1_555
B6 O0 1.531218 1_555
B7 O15 1.440335 1_555
B7 O9 1.443352 1_555
B7 O4 1.514122 1_555
B7 O1 1.531287 1_555
