# generated using pymatgen
data_EuInNi5
_symmetry_space_group_name_H-M   'P 1'
_cell_length_a   10.22958112
_cell_length_b   10.22958112
_cell_length_c   10.22958020
_cell_angle_alpha   27.62222909
_cell_angle_beta   27.62222909
_cell_angle_gamma   27.62222900
_symmetry_Int_Tables_number   1
_chemical_formula_structural   EuInNi5
_chemical_formula_sum   'Eu2 In2 Ni10'
_cell_volume   203.13658507
_cell_formula_units_Z   2
loop_
 _symmetry_equiv_pos_site_id
 _symmetry_equiv_pos_as_xyz
  1  'x, y, z'
loop_
 _atom_site_type_symbol
 _atom_site_label
 _atom_site_symmetry_multiplicity
 _atom_site_fract_x
 _atom_site_fract_y
 _atom_site_fract_z
 _atom_site_occupancy
  Eu  Eu0  1  0.00000000  -0.00000000  0.00000000  1
  Eu  Eu1  1  0.50000000  0.50000000  0.50000000  1
  In  In0  1  0.11037377  0.11037377  0.11037377  1
  In  In1  1  0.88962623  0.88962623  0.88962623  1
  Ni  Ni0  1  0.33390895  0.33390895  0.33390895  1
  Ni  Ni1  1  0.56656741  0.56656741  0.06881534  1
  Ni  Ni2  1  0.06881534  0.56656741  0.56656741  1
  Ni  Ni3  1  0.56656741  0.06881534  0.56656741  1
  Ni  Ni4  1  0.79991916  0.79991916  0.79991916  1
  Ni  Ni5  1  0.20008084  0.20008084  0.20008084  1
  Ni  Ni6  1  0.43343259  0.93118466  0.43343259  1
  Ni  Ni7  1  0.93118466  0.43343259  0.43343259  1
  Ni  Ni8  1  0.43343259  0.43343259  0.93118466  1
  Ni  Ni9  1  0.66609105  0.66609105  0.66609105  1
loop_
_geom_bond_atom_site_label_1
_geom_bond_atom_site_label_2
_geom_bond_distance
_geom_bond_site_symmetry_2
Eu0 Ni9 2.819858 1_445
Eu0 Ni0 2.819858 1_554
Eu0 Ni0 2.819858 1_455
Eu0 Ni9 2.819858 1_454
Eu0 Ni9 2.819858 1_544
Eu0 Ni0 2.819858 1_545
Eu0 Ni2 3.147544 1_545
Eu0 Ni7 3.147544 1_454
Eu0 Ni6 3.147544 1_544
Eu0 Ni3 3.147544 1_455
Eu0 Ni1 3.147545 1_455
Eu0 Ni8 3.147545 1_544
Eu0 Ni1 3.147545 1_545
Eu0 Ni8 3.147545 1_454
Eu0 Ni6 3.147545 1_445
Eu0 Ni2 3.147545 1_554
Eu0 Ni3 3.147545 1_554
Eu0 Ni7 3.147545 1_445
Eu0 In1 3.256002 1_444
Eu0 In0 3.256002 1_555
Eu1 Ni4 2.987128 1_554
Eu1 Ni5 2.987128 1_556
Eu1 Ni4 2.987129 1_455
Eu1 Ni5 2.987129 1_565
Eu1 Ni4 2.987129 1_545
Eu1 Ni5 2.987129 1_655
Eu1 Ni8 3.249552 1_555
Eu1 Ni1 3.249552 1_555
Eu1 Ni2 3.249553 1_555
Eu1 Ni3 3.249553 1_555
Eu1 Ni6 3.249553 1_555
Eu1 Ni7 3.249553 1_555
Eu1 In0 3.272460 1_565
Eu1 In0 3.272460 1_655
Eu1 In1 3.272460 1_455
Eu1 In1 3.272460 1_545
Eu1 In0 3.272461 1_556
Eu1 In1 3.272461 1_554
In0 Ni5 2.646339 1_555
In0 Ni2 2.752610 1_554
In0 Ni3 2.752610 1_554
In0 Ni1 2.752610 1_455
In0 Ni1 2.752610 1_545
In0 Ni2 2.752611 1_545
In0 Ni3 2.752611 1_455
In0 Ni4 2.899452 1_445
In0 Ni4 2.899452 1_544
In0 Ni4 2.899452 1_454
In1 Ni4 2.646339 1_555
In1 Ni7 2.752610 1_556
In1 Ni6 2.752610 1_556
In1 Ni8 2.752610 1_655
In1 Ni8 2.752610 1_565
In1 Ni7 2.752611 1_565
In1 Ni6 2.752611 1_655
In1 Ni5 2.899452 1_665
In1 Ni5 2.899452 1_656
In1 Ni5 2.899452 1_566
Ni0 Ni2 2.417924 1_555
Ni0 Ni3 2.417924 1_555
Ni0 Ni1 2.417924 1_555
Ni0 Ni8 2.452954 1_554
Ni0 Ni6 2.452955 1_545
Ni0 Ni7 2.452955 1_455
Ni0 Ni9 2.820011 1_554
Ni0 Ni9 2.820011 1_455
Ni0 Ni9 2.820011 1_545
Ni1 Ni4 2.406059 1_554
Ni1 Ni2 2.431045 1_555
Ni1 Ni3 2.431045 1_555
Ni1 Ni9 2.452954 1_554
Ni1 Ni2 2.453003 1_654
Ni1 Ni3 2.453003 1_564
Ni2 Ni4 2.406059 1_455
Ni2 Ni3 2.431045 1_555
Ni2 Ni9 2.452955 1_455
Ni2 Ni3 2.453003 1_465
Ni3 Ni4 2.406059 1_545
Ni3 Ni9 2.452955 1_545
Ni5 Ni6 2.406059 1_545
Ni5 Ni7 2.406059 1_455
Ni5 Ni8 2.406059 1_554
Ni6 Ni9 2.417924 1_555
Ni6 Ni8 2.431045 1_555
Ni6 Ni7 2.431045 1_555
Ni6 Ni8 2.453003 1_564
Ni6 Ni7 2.453003 1_465
Ni7 Ni9 2.417924 1_555
Ni7 Ni8 2.431045 1_555
Ni7 Ni8 2.453003 1_654
Ni8 Ni9 2.417924 1_555
