# generated using pymatgen
data_Li9Mn2Co5O16
_symmetry_space_group_name_H-M   'P 1'
_cell_length_a   5.89747857
_cell_length_b   10.13106200
_cell_length_c   5.92951496
_cell_angle_alpha   88.81796600
_cell_angle_beta   120.28949172
_cell_angle_gamma   107.56974944
_symmetry_Int_Tables_number   1
_chemical_formula_structural   Li9Mn2Co5O16
_chemical_formula_sum   'Li9 Mn2 Co5 O16'
_cell_volume   287.88942654
_cell_formula_units_Z   1
loop_
 _symmetry_equiv_pos_site_id
 _symmetry_equiv_pos_as_xyz
  1  'x, y, z'
loop_
 _atom_site_type_symbol
 _atom_site_label
 _atom_site_symmetry_multiplicity
 _atom_site_fract_x
 _atom_site_fract_y
 _atom_site_fract_z
 _atom_site_occupancy
  Li  Li0  1  0.00018900  0.99692900  0.50155100  1
  Li  Li1  1  0.00103900  0.25946500  0.25916900  1
  Li  Li2  1  0.99847500  0.50222800  0.99384900  1
  Li  Li3  1  0.50079500  0.99780300  0.99701600  1
  Li  Li4  1  0.50199000  0.25593500  0.75795700  1
  Li  Li5  1  0.50630800  0.50457600  0.50168300  1
  Li  Li6  1  0.49816300  0.74578900  0.24232800  1
  Li  Li7  1  0.99037700  0.74071800  0.73750200  1
  Li  Li8  1  0.99345500  0.49786300  0.49848400  1
  Mn  Mn0  1  0.00390200  0.00041700  0.99791200  1
  Mn  Mn1  1  0.99965900  0.25405500  0.75106300  1
  Co  Co0  1  0.00238100  0.74029100  0.25053400  1
  Co  Co1  1  0.49201400  0.99516900  0.49973900  1
  Co  Co2  1  0.50674400  0.25552900  0.25937300  1
  Co  Co3  1  0.50781700  0.50153700  0.00426600  1
  Co  Co4  1  0.48881100  0.74051800  0.74924900  1
  O  O0  1  0.78084000  0.87903600  0.12060900  1
  O  O1  1  0.77089500  0.11982100  0.87239400  1
  O  O2  1  0.76395000  0.36318500  0.64250600  1
  O  O3  1  0.26384900  0.88063800  0.61503800  1
  O  O4  1  0.25232200  0.12242900  0.34252300  1
  O  O5  1  0.24653400  0.36278200  0.10716800  1
  O  O6  1  0.27188300  0.63401200  0.86983900  1
  O  O7  1  0.73639500  0.62263600  0.34705800  1
  O  O8  1  0.21793400  0.12339100  0.86694900  1
  O  O9  1  0.24122700  0.37033200  0.64919600  1
  O  O10  1  0.24747500  0.63822400  0.37158800  1
  O  O11  1  0.74736000  0.13520900  0.40229100  1
  O  O12  1  0.71808800  0.36502500  0.13339700  1
  O  O13  1  0.74680300  0.62395200  0.87932900  1
  O  O14  1  0.75576000  0.88116500  0.65358900  1
  O  O15  1  0.24656900  0.88934300  0.12485100  1
loop_
_geom_bond_atom_site_label_1
_geom_bond_atom_site_label_2
_geom_bond_distance
_geom_bond_site_symmetry_2
Li0 O3 2.067964 1_555
Li0 O8 2.073510 1_565
Li0 O0 2.105497 1_455
Li0 O14 2.124327 1_455
Li0 O11 2.207731 1_465
Li0 O4 2.222675 1_565
Li1 O12 2.067262 1_455
Li1 O5 2.089622 1_555
Li1 O9 2.111539 1_555
Li1 O11 2.154699 1_455
Li1 O4 2.200640 1_555
Li1 O1 2.222148 1_454
Li2 O13 2.058793 1_555
Li2 O2 2.067756 1_555
Li2 O10 2.158571 1_656
Li2 O6 2.186073 1_655
Li2 O5 2.191910 1_656
Li2 O12 2.301349 1_556
Li3 O15 2.036479 1_556
Li3 O3 2.099641 1_555
Li3 O1 2.138313 1_565
Li3 O0 2.157531 1_556
Li3 O8 2.222513 1_565
Li3 O11 2.284327 1_566
Li4 O2 2.014614 1_555
Li4 O9 2.041772 1_555
Li4 O12 2.047132 1_556
Li4 O8 2.173787 1_555
Li4 O1 2.252368 1_555
Li4 O4 2.311225 1_555
Li5 O7 2.083832 1_555
Li5 O13 2.088293 1_555
Li5 O10 2.185261 1_555
Li5 O2 2.245589 1_555
Li5 O5 2.253385 1_555
Li5 O9 2.259498 1_555
Li6 O7 2.015562 1_555
Li6 O10 2.024016 1_555
Li6 O6 2.039391 1_554
Li6 O0 2.221985 1_555
Li6 O15 2.240617 1_555
Li6 O14 2.297532 1_555
Li7 O6 2.067609 1_655
Li7 O13 2.078868 1_555
Li7 O7 2.137518 1_555
Li7 O14 2.156748 1_555
Li7 O3 2.212796 1_655
Li7 O15 2.256974 1_656
Li8 O9 2.092384 1_655
Li8 O12 2.095040 1_555
Li8 O2 2.103773 1_555
Li8 O7 2.106994 1_555
Li8 O6 2.134963 1_655
Li8 O10 2.153899 1_655
Mn0 O0 1.929748 1_446
Mn0 O15 1.931755 1_546
Mn0 O8 1.935945 1_555
Mn0 O14 1.946806 1_445
Mn0 O1 1.959680 1_455
Mn0 O4 1.959794 1_556
Mn1 O2 1.888106 1_555
Mn1 O9 1.899374 1_655
Mn1 O5 1.954039 1_656
Mn1 O11 1.964076 1_555
Mn1 O8 1.995139 1_655
Mn1 O1 2.004544 1_555
Co0 O10 1.870541 1_555
Co0 O7 1.989389 1_455
Co0 O13 2.047836 1_454
Co0 O0 2.079684 1_455
Co0 O3 2.124151 1_555
Co0 O15 2.152392 1_555
Co1 O3 1.891298 1_555
Co1 O15 2.025250 1_555
Co1 O11 2.041693 1_565
Co1 O14 2.048257 1_555
Co1 O4 2.061773 1_565
Co1 O1 2.092278 1_565
Co2 O12 1.847236 1_555
Co2 O4 1.951931 1_555
Co2 O5 1.979722 1_555
Co2 O11 2.001579 1_555
Co2 O2 2.068521 1_555
Co2 O8 2.204901 1_554
Co3 O7 1.947887 1_555
Co3 O13 2.008328 1_554
Co3 O12 2.017596 1_555
Co3 O9 2.046002 1_554
Co3 O5 2.080401 1_555
Co3 O6 2.082589 1_554
Co4 O6 1.835694 1_555
Co4 O10 2.025976 1_555
Co4 O13 2.041544 1_555
Co4 O14 2.084154 1_555
Co4 O3 2.105713 1_555
Co4 O0 2.151058 1_556
