# generated using pymatgen
data_Nb2O5
_symmetry_space_group_name_H-M   'P 1'
_cell_length_a   4.05615517
_cell_length_b   4.05615517
_cell_length_c   5.84511883
_cell_angle_alpha   68.58748970
_cell_angle_beta   68.58748970
_cell_angle_gamma   80.70473397
_symmetry_Int_Tables_number   1
_chemical_formula_structural   Nb2O5
_chemical_formula_sum   'Nb2 O5'
_cell_volume   83.30458764
_cell_formula_units_Z   1
loop_
 _symmetry_equiv_pos_site_id
 _symmetry_equiv_pos_as_xyz
  1  'x, y, z'
loop_
 _atom_site_type_symbol
 _atom_site_label
 _atom_site_symmetry_multiplicity
 _atom_site_fract_x
 _atom_site_fract_y
 _atom_site_fract_z
 _atom_site_occupancy
  Nb  Nb0  1  0.84969800  0.77090800  0.29505900  1
  Nb  Nb1  1  0.22909200  0.15030200  0.70494100  1
  O  O0  1  0.28286000  0.71714000  0.50000000  1
  O  O1  1  0.63731600  0.20893400  0.35373400  1
  O  O2  1  0.23788600  0.11592000  0.03604900  1
  O  O3  1  0.88408000  0.76211400  0.96395100  1
  O  O4  1  0.79106600  0.36268400  0.64626600  1
loop_
_geom_bond_atom_site_label_1
_geom_bond_atom_site_label_2
_geom_bond_distance
_geom_bond_site_symmetry_2
Nb0 O3 1.902127 1_554
Nb0 O1 1.936790 1_565
Nb0 O2 2.038122 1_665
Nb0 O4 2.073957 1_555
Nb0 O0 2.174627 1_555
Nb0 O0 2.406597 1_655
Nb0 O1 2.429700 1_555
Nb1 O2 1.902127 1_556
Nb1 O4 1.936790 1_455
Nb1 O3 2.038122 1_445
Nb1 O1 2.073957 1_555
Nb1 O0 2.174627 1_555
Nb1 O0 2.406597 1_545
Nb1 O4 2.429700 1_555
