# generated using pymatgen
data_Rh2(Se3Br2)3
_symmetry_space_group_name_H-M   'P 1'
_cell_length_a   15.51897934
_cell_length_b   15.51897934
_cell_length_c   15.51897934
_cell_angle_alpha   132.06129446
_cell_angle_beta   132.06129446
_cell_angle_gamma   70.13223617
_symmetry_Int_Tables_number   1
_chemical_formula_structural   Rh2(Se3Br2)3
_chemical_formula_sum   'Rh8 Se36 Br24'
_cell_volume   2019.50510247
_cell_formula_units_Z   4
loop_
 _symmetry_equiv_pos_site_id
 _symmetry_equiv_pos_as_xyz
  1  'x, y, z'
loop_
 _atom_site_type_symbol
 _atom_site_label
 _atom_site_symmetry_multiplicity
 _atom_site_fract_x
 _atom_site_fract_y
 _atom_site_fract_z
 _atom_site_occupancy
  Rh  Rh0  1  0.12027477  0.58877422  0.74421576  1
  Rh  Rh1  1  0.84455847  0.37605902  0.25578424  1
  Rh  Rh2  1  0.12605902  0.37027477  0.03150055  1
  Rh  Rh3  1  0.33877422  0.09455847  0.96849945  1
  Rh  Rh4  1  0.62972523  0.66122578  0.75578424  1
  Rh  Rh5  1  0.90544153  0.87394098  0.24421576  1
  Rh  Rh6  1  0.62394098  0.87972523  0.46849945  1
  Rh  Rh7  1  0.41122578  0.15544153  0.53150055  1
  Se  Se0  1  0.04630350  0.40428454  0.36159037  1
  Se  Se1  1  0.04269418  0.68471314  0.63840963  1
  Se  Se2  1  0.43471314  0.29630350  0.14201896  1
  Se  Se3  1  0.15428454  0.29269418  0.85798104  1
  Se  Se4  1  0.70369650  0.84571546  0.13840963  1
  Se  Se5  1  0.70730582  0.56528686  0.86159037  1
  Se  Se6  1  0.31528686  0.95369650  0.35798104  1
  Se  Se7  1  0.59571546  0.95730582  0.64201896  1
  Se  Se8  1  0.93615719  0.49598946  0.62481645  1
  Se  Se9  1  0.87117400  0.31134074  0.37518355  1
  Se  Se10  1  0.06134074  0.18615719  0.94016773  1
  Se  Se11  1  0.24598946  0.12117400  0.05983227  1
  Se  Se12  1  0.81384281  0.75401054  0.87518355  1
  Se  Se13  1  0.87882600  0.93865926  0.12481645  1
  Se  Se14  1  0.68865926  0.06384281  0.55983227  1
  Se  Se15  1  0.50401054  0.12882600  0.44016773  1
  Se  Se16  1  0.58233402  0.82864254  0.91039441  1
  Se  Se17  1  0.91824913  0.67193960  0.08960559  1
  Se  Se18  1  0.42193960  0.83233402  0.25369147  1
  Se  Se19  1  0.57864254  0.16824913  0.74630853  1
  Se  Se20  1  0.16766598  0.42135746  0.58960559  1
  Se  Se21  1  0.83175087  0.57806040  0.41039441  1
  Se  Se22  1  0.32806040  0.41766598  0.24630853  1
  Se  Se23  1  0.17135746  0.08175087  0.75369147  1
  Se  Se24  1  0.69166788  -0.00221689  0.02762745  1
  Se  Se25  1  0.97015566  0.66403944  0.97237255  1
  Se  Se26  1  0.41403944  0.94166788  0.19388377  1
  Se  Se27  1  0.74778311  0.22015566  0.80611623  1
  Se  Se28  1  0.05833212  0.25221689  0.47237255  1
  Se  Se29  1  0.77984434  0.58596056  0.52762745  1
  Se  Se30  1  0.33596056  0.30833212  0.30611623  1
  Se  Se31  1  0.00221689  0.02984434  0.69388377  1
  Se  Se32  1  0.10614692  0.60614692  0.50000000  1
  Se  Se33  1  0.35614692  0.35614692  0.00000000  1
  Se  Se34  1  0.64385308  0.64385308  0.00000000  1
  Se  Se35  1  0.39385308  0.89385308  0.50000000  1
  Br  Br0  1  0.26686415  0.87789561  0.80584810  1
  Br  Br1  1  0.07204751  0.46101605  0.19415190  1
  Br  Br2  1  0.21101605  0.51686415  0.88896854  1
  Br  Br3  1  0.62789561  0.32204751  0.11103146  1
  Br  Br4  1  0.48313585  0.37210439  0.69415190  1
  Br  Br5  1  0.67795249  0.78898395  0.30584810  1
  Br  Br6  1  0.53898395  0.73313585  0.61103146  1
  Br  Br7  1  0.12210439  0.92795249  0.38896854  1
  Br  Br8  1  0.43553214  0.04005707  0.86031552  1
  Br  Br9  1  0.17974155  0.57521661  0.13968448  1
  Br  Br10  1  0.32521661  0.68553214  0.89547506  1
  Br  Br11  1  0.79005707  0.42974155  0.10452494  1
  Br  Br12  1  0.31446786  0.20994293  0.63968448  1
  Br  Br13  1  0.57025845  0.67478339  0.36031552  1
  Br  Br14  1  0.42478339  0.56446786  0.60452494  1
  Br  Br15  1  0.95994293  0.82025845  0.39547506  1
  Br  Br16  1  0.65829236  0.47901944  0.56992795  1
  Br  Br17  1  0.90909150  0.08836442  0.43007205  1
  Br  Br18  1  0.83836442  0.90829236  0.67927292  1
  Br  Br19  1  0.22901944  0.15909150  0.32072708  1
  Br  Br20  1  0.09170764  0.77098056  0.93007205  1
  Br  Br21  1  0.84090850  0.16163558  0.06992795  1
  Br  Br22  1  0.91163558  0.34170764  0.82072708  1
  Br  Br23  1  0.52098056  0.09090850  0.17927292  1
loop_
_geom_bond_atom_site_label_1
_geom_bond_atom_site_label_2
_geom_bond_distance
_geom_bond_site_symmetry_2
Rh0 Se20 2.400278 1_555
Rh0 Se1 2.402261 1_555
Rh0 Se8 2.408092 1_455
Rh1 Se21 2.400283 1_555
Rh1 Se0 2.402261 1_655
Rh1 Se9 2.408084 1_555
Rh2 Se22 2.400278 1_555
Rh2 Se3 2.402261 1_554
Rh2 Se10 2.408092 1_554
Rh3 Se23 2.400271 1_555
Rh3 Se2 2.402261 1_556
Rh3 Se11 2.408085 1_556
Rh4 Se16 2.400278 1_555
Rh4 Se5 2.402261 1_555
Rh4 Se12 2.408092 1_555
Rh5 Se17 2.400283 1_555
Rh5 Se4 2.402261 1_555
Rh5 Se13 2.408084 1_555
Rh6 Se18 2.400278 1_555
Rh6 Se7 2.402261 1_555
Rh6 Se14 2.408092 1_565
Rh7 Se19 2.400271 1_555
Rh7 Se6 2.402261 1_545
Rh7 Se15 2.408085 1_555
Se0 Se32 2.361991 1_555
Se0 Se20 2.508452 1_555
Se1 Se32 2.361991 1_555
Se1 Se21 2.508461 1_455
Se2 Se33 2.361991 1_555
Se2 Se22 2.508452 1_555
Se3 Se33 2.361991 1_556
Se8 Se9 2.468237 1_555
Se10 Se31 2.392954 1_555
Se10 Se11 2.468226 1_556
Se11 Se30 2.392944 1_555
Se12 Se25 2.392954 1_555
Se12 Se13 2.468237 1_556
Se13 Se24 2.392934 1_565
Se14 Se27 2.392954 1_555
Se14 Se15 2.468226 1_555
Se15 Se26 2.392944 1_545
Se16 Se24 2.360430 1_566
Se16 Se4 2.508452 1_556
Se17 Se25 2.360408 1_554
Se17 Se5 2.508461 1_554
Se18 Se26 2.360436 1_555
Se18 Se6 2.508452 1_555
Se19 Se27 2.360414 1_555
Se19 Se7 2.508465 1_545
Se20 Se28 2.360430 1_555
Se21 Se29 2.360408 1_555
Se22 Se30 2.360436 1_555
Se23 Se31 2.360414 1_555
Se23 Se3 2.508465 1_555
Se28 Se9 2.392934 1_455
Se29 Se8 2.392954 1_555
Se34 Se5 2.361991 1_554
Se34 Se4 2.361991 1_555
Se35 Se7 2.361991 1_555
Se35 Se6 2.361991 1_555
Br0 Rh3 2.515366 1_565
Br1 Rh2 2.515366 1_555
Br2 Rh0 2.515365 1_555
Br3 Rh1 2.515366 1_555
Br4 Rh7 2.515366 1_555
Br5 Rh6 2.515366 1_555
Br6 Rh4 2.515365 1_555
Br7 Rh5 2.515366 1_455
Br8 Rh3 2.529974 1_555
Br8 Se24 3.107059 1_556
Br9 Rh2 2.529974 1_555
Br9 Se25 3.107049 1_454
Br10 Rh0 2.529974 1_555
Br10 Se26 3.107055 1_556
Br11 Rh1 2.529974 1_555
Br11 Se27 3.107049 1_554
Br12 Rh7 2.529974 1_555
Br12 Se28 3.107059 1_555
Br13 Rh6 2.529974 1_555
Br13 Se29 3.107049 1_555
Br14 Rh4 2.529974 1_555
Br14 Se30 3.107055 1_555
Br15 Rh5 2.529974 1_555
Br15 Se31 3.107049 1_665
Br16 Rh4 2.538703 1_555
Br17 Rh5 2.538703 1_545
Br18 Rh6 2.538703 1_555
Br19 Rh7 2.538703 1_555
Br20 Rh0 2.538703 1_555
Br21 Rh1 2.538703 1_555
Br22 Rh2 2.538703 1_656
Br23 Rh3 2.538703 1_554
