# generated using pymatgen
data_Nb3CoSe6
_symmetry_space_group_name_H-M   'P 1'
_cell_length_a   6.08156307
_cell_length_b   6.08158214
_cell_length_c   12.59298904
_cell_angle_alpha   90.00076994
_cell_angle_beta   89.99957454
_cell_angle_gamma   120.00027494
_symmetry_Int_Tables_number   1
_chemical_formula_structural   Nb3CoSe6
_chemical_formula_sum   'Nb6 Co2 Se12'
_cell_volume   403.35741538
_cell_formula_units_Z   2
loop_
 _symmetry_equiv_pos_site_id
 _symmetry_equiv_pos_as_xyz
  1  'x, y, z'
loop_
 _atom_site_type_symbol
 _atom_site_label
 _atom_site_symmetry_multiplicity
 _atom_site_fract_x
 _atom_site_fract_y
 _atom_site_fract_z
 _atom_site_occupancy
  Nb  Nb0  1  0.33333219  0.66666608  0.49941379  1
  Nb  Nb1  1  0.33333538  0.66666196  0.00058993  1
  Nb  Nb2  1  0.66666593  0.33333132  0.50056364  1
  Nb  Nb3  1  0.66666823  0.33333442  -0.00056565  1
  Nb  Nb4  1  0.00000072  0.00000056  0.99997065  1
  Nb  Nb5  1  -0.00000099  -0.00000062  0.50003215  1
  Co  Co0  1  0.33333339  0.66666738  0.24994529  1
  Co  Co1  1  0.66666567  0.33333136  0.75006016  1
  Se  Se0  1  0.66658215  0.66954341  0.86854836  1
  Se  Se1  1  0.66949601  0.66662486  0.13143617  1
  Se  Se2  1  0.66946964  0.00283255  0.36863536  1
  Se  Se3  1  0.33336147  0.33052909  0.36863557  1
  Se  Se4  1  0.99716429  0.66663765  0.36863546  1
  Se  Se5  1  0.00296220  0.33342089  0.86854858  1
  Se  Se6  1  0.33047497  0.33340524  0.63137592  1
  Se  Se7  1  0.00293059  0.66952259  0.63137547  1
  Se  Se8  1  0.33045652  0.99704282  0.86854827  1
  Se  Se9  1  0.66659156  0.99706413  0.63137671  1
  Se  Se10  1  0.33337983  0.00287484  0.13143720  1
  Se  Se11  1  0.99713024  0.33051048  0.13143598  1
loop_
_geom_bond_atom_site_label_1
_geom_bond_atom_site_label_2
_geom_bond_distance
_geom_bond_site_symmetry_2
Nb0 Se7 2.614236 1_555
Nb0 Se9 2.614239 1_555
Nb0 Se6 2.614283 1_555
Nb0 Se3 2.625158 1_555
Nb0 Se2 2.625177 1_565
Nb0 Se4 2.625190 1_455
Nb1 Se0 2.614765 1_554
Nb1 Se5 2.614766 1_554
Nb1 Se8 2.614864 1_554
Nb1 Se11 2.625836 1_455
Nb1 Se1 2.625847 1_555
Nb1 Se10 2.625888 1_565
Nb2 Se2 2.614297 1_555
Nb2 Se4 2.614320 1_555
Nb2 Se3 2.614330 1_555
Nb2 Se7 2.625785 1_655
Nb2 Se6 2.625791 1_555
Nb2 Se9 2.625839 1_545
Nb3 Se1 2.614773 1_555
Nb3 Se11 2.614782 1_555
Nb3 Se10 2.614785 1_555
Nb3 Se5 2.626479 1_654
Nb3 Se8 2.626484 1_544
Nb3 Se0 2.626519 1_554
Nb4 Se8 2.610421 1_545
Nb4 Se0 2.610433 1_445
Nb4 Se5 2.610473 1_555
Nb4 Se1 2.610802 1_446
Nb4 Se11 2.610807 1_456
Nb4 Se10 2.610824 1_556
Nb5 Se6 2.609819 1_555
Nb5 Se9 2.609823 1_445
Nb5 Se7 2.609857 1_545
Nb5 Se4 2.610254 1_445
Nb5 Se3 2.610277 1_555
Nb5 Se2 2.610285 1_455
Co0 Se11 2.531233 1_455
Co0 Se1 2.531253 1_555
Co0 Se10 2.531277 1_565
Co0 Se2 2.532432 1_565
Co0 Se4 2.532452 1_455
Co0 Se3 2.532474 1_555
Co1 Se8 2.531428 1_545
Co1 Se0 2.531439 1_555
Co1 Se5 2.531451 1_655
Co1 Se9 2.532773 1_545
Co1 Se7 2.532786 1_655
Co1 Se6 2.532786 1_555
