# generated using pymatgen
data_K2RuCl5O
_symmetry_space_group_name_H-M   'P 1'
_cell_length_a   7.16975900
_cell_length_b   9.64388900
_cell_length_c   13.58680700
_cell_angle_alpha   90.00000000
_cell_angle_beta   90.00000000
_cell_angle_gamma   90.00000000
_symmetry_Int_Tables_number   1
_chemical_formula_structural   K2RuCl5O
_chemical_formula_sum   'K8 Ru4 Cl20 O4'
_cell_volume   939.45107382
_cell_formula_units_Z   4
loop_
 _symmetry_equiv_pos_site_id
 _symmetry_equiv_pos_as_xyz
  1  'x, y, z'
loop_
 _atom_site_type_symbol
 _atom_site_label
 _atom_site_symmetry_multiplicity
 _atom_site_fract_x
 _atom_site_fract_y
 _atom_site_fract_z
 _atom_site_occupancy
  K  K0  1  0.35111300  0.49946900  0.14694500  1
  K  K1  1  0.14888700  0.00053100  0.64694500  1
  K  K2  1  0.64888700  0.99946900  0.85305500  1
  K  K3  1  0.85111300  0.50053100  0.35305500  1
  K  K4  1  0.64888700  0.50053100  0.85305500  1
  K  K5  1  0.85111300  0.99946900  0.35305500  1
  K  K6  1  0.35111300  0.00053100  0.14694500  1
  K  K7  1  0.14888700  0.49946900  0.64694500  1
  Ru  Ru0  1  0.82706100  0.75000000  0.09542800  1
  Ru  Ru1  1  0.67293900  0.75000000  0.59542800  1
  Ru  Ru2  1  0.17293900  0.25000000  0.90457200  1
  Ru  Ru3  1  0.32706100  0.25000000  0.40457200  1
  Cl  Cl0  1  0.54238200  0.75000000  0.00138900  1
  Cl  Cl1  1  0.95761800  0.75000000  0.50138900  1
  Cl  Cl2  1  0.45761800  0.25000000  0.99861100  1
  Cl  Cl3  1  0.04238200  0.25000000  0.49861100  1
  Cl  Cl4  1  0.61646900  0.75000000  0.24312700  1
  Cl  Cl5  1  0.88353100  0.75000000  0.74312700  1
  Cl  Cl6  1  0.38353100  0.25000000  0.75687300  1
  Cl  Cl7  1  0.11646900  0.25000000  0.25687300  1
  Cl  Cl8  1  0.07892100  0.75000000  0.21123300  1
  Cl  Cl9  1  0.42107900  0.75000000  0.71123300  1
  Cl  Cl10  1  0.92107900  0.25000000  0.78876700  1
  Cl  Cl11  1  0.57892100  0.25000000  0.28876700  1
  Cl  Cl12  1  0.81245800  0.50574200  0.10685700  1
  Cl  Cl13  1  0.68754200  0.99425800  0.60685700  1
  Cl  Cl14  1  0.18754200  0.00574200  0.89314300  1
  Cl  Cl15  1  0.31245800  0.49425800  0.39314300  1
  Cl  Cl16  1  0.18754200  0.49425800  0.89314300  1
  Cl  Cl17  1  0.31245800  0.00574200  0.39314300  1
  Cl  Cl18  1  0.81245800  0.99425800  0.10685700  1
  Cl  Cl19  1  0.68754200  0.50574200  0.60685700  1
  O  O0  1  0.96626100  0.75000000  0.99225000  1
  O  O1  1  0.53373900  0.75000000  0.49225000  1
  O  O2  1  0.03373900  0.25000000  0.00775000  1
  O  O3  1  0.46626100  0.25000000  0.50775000  1
loop_
_geom_bond_atom_site_label_1
_geom_bond_atom_site_label_2
_geom_bond_distance
_geom_bond_site_symmetry_2
Cl0 Ru0 2.408007 1_555
Cl0 K2 3.230017 1_554
Cl0 K4 3.230017 1_554
Cl0 K0 3.410158 1_555
Cl0 K6 3.410158 1_565
Cl1 Ru1 2.408007 1_555
Cl1 K5 3.230017 1_555
Cl1 K3 3.230017 1_555
Cl1 K7 3.410158 1_655
Cl1 K1 3.410158 1_665
Cl2 Ru2 2.408007 1_555
Cl2 K6 3.230017 1_556
Cl2 K0 3.230017 1_556
Cl2 K2 3.410158 1_545
Cl2 K4 3.410158 1_555
Cl3 Ru3 2.408007 1_555
Cl3 K1 3.230017 1_555
Cl3 K7 3.230017 1_555
Cl3 K5 3.410158 1_445
Cl3 K3 3.410158 1_455
Cl4 Ru0 2.511346 1_555
Cl4 K5 3.293804 1_555
Cl4 K3 3.293804 1_555
Cl4 K0 3.341392 1_555
Cl4 K6 3.341392 1_565
Cl5 Ru1 2.511346 1_555
Cl5 K4 3.293804 1_555
Cl5 K2 3.293804 1_555
Cl5 K7 3.341392 1_655
Cl5 K1 3.341392 1_665
Cl6 Ru2 2.511346 1_555
Cl6 K7 3.293804 1_555
Cl6 K1 3.293804 1_555
Cl6 K2 3.341392 1_545
Cl6 K4 3.341392 1_555
Cl7 Ru3 2.511346 1_555
Cl7 K6 3.293804 1_555
Cl7 K0 3.293804 1_555
Cl7 K3 3.341392 1_455
Cl7 K5 3.341392 1_445
Cl8 Ru0 2.395094 1_455
Cl8 K0 3.226299 1_555
Cl8 K6 3.226299 1_565
Cl8 K3 3.488389 1_455
Cl8 K5 3.488389 1_455
Cl9 Ru1 2.395094 1_555
Cl9 K7 3.226299 1_555
Cl9 K1 3.226299 1_565
Cl9 K2 3.488389 1_555
Cl9 K4 3.488389 1_555
Cl10 Ru2 2.395094 1_655
Cl10 K4 3.226299 1_555
Cl10 K2 3.226299 1_545
Cl10 K7 3.488389 1_655
Cl10 K1 3.488389 1_655
Cl11 Ru3 2.395094 1_555
Cl11 K3 3.226299 1_555
Cl11 K5 3.226299 1_545
Cl11 K6 3.488389 1_555
Cl11 K0 3.488389 1_555
Cl12 Ru0 2.363030 1_555
Cl12 K0 3.352822 1_555
Cl12 K3 3.356882 1_555
Cl12 K4 3.642675 1_554
Cl13 Ru1 2.363030 1_555
Cl13 K1 3.352822 1_665
Cl13 K2 3.356882 1_555
Cl13 K5 3.642675 1_555
Cl14 Ru2 2.363030 1_555
Cl14 K2 3.352822 1_545
Cl14 K1 3.356882 1_555
Cl14 K6 3.642675 1_556
Cl15 Ru3 2.363030 1_555
Cl15 K3 3.352822 1_455
Cl15 K0 3.356882 1_555
Cl15 K7 3.642675 1_555
Cl16 Ru2 2.363030 1_555
Cl16 K4 3.352822 1_555
Cl16 K7 3.356882 1_555
Cl16 K0 3.642675 1_556
Cl17 Ru3 2.363030 1_555
Cl17 K5 3.352822 1_445
Cl17 K6 3.356882 1_555
Cl17 K1 3.642675 1_555
Cl18 Ru0 2.363030 1_555
Cl18 K6 3.352822 1_565
Cl18 K5 3.356882 1_555
Cl18 K2 3.642675 1_554
Cl19 Ru1 2.363030 1_555
Cl19 K7 3.352822 1_655
Cl19 K4 3.356882 1_555
Cl19 K3 3.642675 1_555
O0 Ru0 1.720836 1_556
O1 Ru1 1.720836 1_555
O2 Ru2 1.720836 1_554
O3 Ru3 1.720836 1_555
