# generated using pymatgen
data_CaSb2P2O9
_symmetry_space_group_name_H-M   'P 1'
_cell_length_a   7.00175800
_cell_length_b   7.14889300
_cell_length_c   15.79085900
_cell_angle_alpha   90.00000000
_cell_angle_beta   90.00000000
_cell_angle_gamma   90.00000000
_symmetry_Int_Tables_number   1
_chemical_formula_structural   CaSb2P2O9
_chemical_formula_sum   'Ca4 Sb8 P8 O36'
_cell_volume   790.40858521
_cell_formula_units_Z   4
loop_
 _symmetry_equiv_pos_site_id
 _symmetry_equiv_pos_as_xyz
  1  'x, y, z'
loop_
 _atom_site_type_symbol
 _atom_site_label
 _atom_site_symmetry_multiplicity
 _atom_site_fract_x
 _atom_site_fract_y
 _atom_site_fract_z
 _atom_site_occupancy
  Ca  Ca0  1  0.75000000  0.90177900  0.77866200  1
  Ca  Ca1  1  0.75000000  0.59822100  0.27866200  1
  Ca  Ca2  1  0.25000000  0.40177900  0.72133800  1
  Ca  Ca3  1  0.25000000  0.09822100  0.22133800  1
  Sb  Sb0  1  0.75000000  0.39289800  0.88310100  1
  Sb  Sb1  1  0.25000000  0.60710200  0.11689900  1
  Sb  Sb2  1  0.25000000  0.89289800  0.61689900  1
  Sb  Sb3  1  0.75000000  0.10710200  0.38310100  1
  Sb  Sb4  1  0.50000000  0.00000000  0.00000000  1
  Sb  Sb5  1  0.50000000  0.50000000  0.50000000  1
  Sb  Sb6  1  0.00000000  0.50000000  0.50000000  1
  Sb  Sb7  1  0.00000000  0.00000000  0.00000000  1
  P  P0  1  0.25000000  0.39265400  0.92040300  1
  P  P1  1  0.75000000  0.60734600  0.07959700  1
  P  P2  1  0.75000000  0.89265400  0.57959700  1
  P  P3  1  0.25000000  0.10734600  0.42040300  1
  P  P4  1  0.75000000  0.40157600  0.69187000  1
  P  P5  1  0.75000000  0.09842400  0.19187000  1
  P  P6  1  0.25000000  0.90157600  0.80813000  1
  P  P7  1  0.25000000  0.59842400  0.30813000  1
  O  O0  1  0.06347900  0.61184100  0.36248500  1
  O  O1  1  0.56347900  0.38815900  0.63751500  1
  O  O2  1  0.93652100  0.11184100  0.13751500  1
  O  O3  1  0.43652100  0.88815900  0.86248500  1
  O  O4  1  0.93652100  0.38815900  0.63751500  1
  O  O5  1  0.43652100  0.61184100  0.36248500  1
  O  O6  1  0.06347900  0.88815900  0.86248500  1
  O  O7  1  0.56347900  0.11184100  0.13751500  1
  O  O8  1  0.25000000  0.28151200  0.48398500  1
  O  O9  1  0.75000000  0.71848800  0.51601500  1
  O  O10  1  0.75000000  0.78151200  0.01601500  1
  O  O11  1  0.25000000  0.21848800  0.98398500  1
  O  O12  1  0.75000000  0.11952600  0.92406800  1
  O  O13  1  0.25000000  0.88047400  0.07593200  1
  O  O14  1  0.25000000  0.61952600  0.57593200  1
  O  O15  1  0.75000000  0.38047400  0.42406800  1
  O  O16  1  0.75000000  0.23629400  0.75821400  1
  O  O17  1  0.25000000  0.76370600  0.24178600  1
  O  O18  1  0.25000000  0.73629400  0.74178600  1
  O  O19  1  0.75000000  0.26370600  0.25821400  1
  O  O20  1  0.42589300  0.12442400  0.36121900  1
  O  O21  1  0.92589300  0.87557600  0.63878100  1
  O  O22  1  0.57410700  0.62442400  0.13878100  1
  O  O23  1  0.07410700  0.37557600  0.86121900  1
  O  O24  1  0.57410700  0.87557600  0.63878100  1
  O  O25  1  0.07410700  0.12442400  0.36121900  1
  O  O26  1  0.42589300  0.37557600  0.86121900  1
  O  O27  1  0.92589300  0.62442400  0.13878100  1
  O  O28  1  0.75000000  0.42645900  0.02812700  1
  O  O29  1  0.25000000  0.08131100  0.75404900  1
  O  O30  1  0.25000000  0.41868900  0.25404900  1
  O  O31  1  0.75000000  0.58131100  0.74595100  1
  O  O32  1  0.75000000  0.07354100  0.52812700  1
  O  O33  1  0.25000000  0.92645900  0.47187300  1
  O  O34  1  0.25000000  0.57354100  0.97187300  1
  O  O35  1  0.75000000  0.91868900  0.24595100  1
loop_
_geom_bond_atom_site_label_1
_geom_bond_atom_site_label_2
_geom_bond_distance
_geom_bond_site_symmetry_2
Ca0 O31 2.348500 1_555
Ca0 O16 2.413112 1_565
Ca0 O21 2.535904 1_555
Ca0 O24 2.535904 1_555
Ca0 O3 2.564976 1_555
Ca0 O6 2.564976 1_655
Ca0 O12 2.774017 1_565
Ca1 O35 2.348500 1_555
Ca1 O19 2.413112 1_555
Ca1 O27 2.535904 1_555
Ca1 O22 2.535904 1_555
Ca1 O5 2.564976 1_555
Ca1 O0 2.564976 1_655
Ca1 O15 2.774017 1_555
Ca2 O29 2.348500 1_555
Ca2 O18 2.413112 1_555
Ca2 O26 2.535904 1_555
Ca2 O23 2.535904 1_555
Ca2 O1 2.564976 1_555
Ca2 O4 2.564976 1_455
Ca2 O14 2.774017 1_555
Ca3 O30 2.348500 1_555
Ca3 O17 2.413112 1_545
Ca3 O20 2.535904 1_555
Ca3 O25 2.535904 1_555
Ca3 O7 2.564976 1_555
Ca3 O2 2.564976 1_455
Ca3 O13 2.774017 1_545
O0 P7 1.565717 1_555
O0 Sb6 2.356297 1_555
O1 P4 1.565717 1_555
O1 Sb5 2.356297 1_555
O2 P5 1.565717 1_555
O2 Sb7 2.356297 1_655
O3 P6 1.565717 1_555
O3 Sb4 2.356297 1_566
O4 P4 1.565717 1_555
O4 Sb6 2.356297 1_655
O5 P7 1.565717 1_555
O5 Sb5 2.356297 1_555
O6 P6 1.565717 1_555
O6 Sb7 2.356297 1_566
O7 P5 1.565717 1_555
O7 Sb4 2.356297 1_555
O8 P3 1.599470 1_555
O8 Sb6 2.359591 1_555
O8 Sb5 2.359591 1_555
O9 P2 1.599470 1_555
O9 Sb6 2.359591 1_655
O9 Sb5 2.359591 1_555
O10 P1 1.599470 1_555
O10 Sb4 2.359591 1_565
O10 Sb7 2.359591 1_665
O11 P0 1.599470 1_555
O11 Sb7 2.359591 1_556
O11 Sb4 2.359591 1_556
O12 Sb0 2.058592 1_555
O12 Sb4 2.287323 1_556
O12 Sb7 2.287323 1_656
O13 Sb1 2.058592 1_555
O13 Sb4 2.287323 1_565
O13 Sb7 2.287323 1_565
O14 Sb2 2.058592 1_555
O14 Sb6 2.287323 1_555
O14 Sb5 2.287323 1_555
O15 Sb3 2.058592 1_555
O15 Sb6 2.287323 1_655
O15 Sb5 2.287323 1_555
O16 P4 1.579134 1_555
O16 Sb0 2.267698 1_555
O17 P7 1.579134 1_555
O17 Sb1 2.267698 1_555
O18 P6 1.579134 1_555
O18 Sb2 2.267698 1_555
O19 P5 1.579134 1_555
O19 Sb3 2.267698 1_555
O20 P3 1.550826 1_555
O20 Sb3 2.298812 1_555
O21 P2 1.550826 1_555
O21 Sb2 2.298812 1_655
O22 P1 1.550826 1_555
O22 Sb1 2.298812 1_555
O23 P0 1.550826 1_555
O23 Sb0 2.298812 1_455
O24 P2 1.550826 1_555
O24 Sb2 2.298812 1_555
O25 P3 1.550826 1_555
O25 Sb3 2.298812 1_455
O26 P0 1.550826 1_555
O26 Sb0 2.298812 1_555
O27 P1 1.550826 1_555
O27 Sb1 2.298812 1_655
O28 P1 1.527346 1_555
O28 Sb0 2.302619 1_554
O29 P6 1.542814 1_545
O29 Sb2 2.550409 1_545
O30 P7 1.542814 1_555
O30 Sb1 2.550409 1_555
O31 P4 1.542814 1_555
O31 Sb0 2.550409 1_555
O32 P2 1.527346 1_545
O32 Sb3 2.302619 1_555
O33 P3 1.527346 1_565
O33 Sb2 2.302619 1_555
O34 P0 1.527346 1_555
O34 Sb1 2.302619 1_556
O35 P5 1.542814 1_565
O35 Sb3 2.550409 1_565
