# generated using pymatgen
data_TaGaNi6
_symmetry_space_group_name_H-M   'P 1'
_cell_length_a   3.59595105
_cell_length_b   3.59595105
_cell_length_c   7.13087900
_cell_angle_alpha   90.00000000
_cell_angle_beta   90.00000000
_cell_angle_gamma   90.00000000
_symmetry_Int_Tables_number   1
_chemical_formula_structural   TaGaNi6
_chemical_formula_sum   'Ta1 Ga1 Ni6'
_cell_volume   92.20842622
_cell_formula_units_Z   1
loop_
 _symmetry_equiv_pos_site_id
 _symmetry_equiv_pos_as_xyz
  1  'x, y, z'
loop_
 _atom_site_type_symbol
 _atom_site_label
 _atom_site_symmetry_multiplicity
 _atom_site_fract_x
 _atom_site_fract_y
 _atom_site_fract_z
 _atom_site_occupancy
  Ta  Ta0  1  0.00000000  0.00000000  0.50000000  1
  Ga  Ga0  1  0.00000000  0.00000000  -0.00000000  1
  Ni  Ni0  1  0.50000000  0.50000000  -0.00000000  1
  Ni  Ni1  1  0.50000000  0.50000000  0.50000000  1
  Ni  Ni2  1  0.50000000  0.00000000  0.24671152  1
  Ni  Ni3  1  0.50000000  -0.00000000  0.75328848  1
  Ni  Ni4  1  -0.00000000  0.50000000  0.24671152  1
  Ni  Ni5  1  0.00000000  0.50000000  0.75328848  1
loop_
_geom_bond_atom_site_label_1
_geom_bond_atom_site_label_2
_geom_bond_distance
_geom_bond_site_symmetry_2
Ga0 Ni5 2.515501 1_544
Ga0 Ni3 2.515501 1_554
Ga0 Ni3 2.515501 1_454
Ga0 Ni5 2.515501 1_554
Ga0 Ni4 2.515501 1_555
Ga0 Ni4 2.515501 1_545
Ga0 Ni2 2.515501 1_555
Ga0 Ni2 2.515501 1_455
Ga0 Ni0 2.542721 1_545
Ga0 Ni0 2.542721 1_455
Ga0 Ni0 2.542721 1_445
Ga0 Ni0 2.542721 1_555
Ni0 Ni3 2.515501 1_554
Ni0 Ni5 2.515501 1_654
Ni0 Ni5 2.515501 1_554
Ni0 Ni3 2.515501 1_564
Ni0 Ni4 2.515501 1_555
Ni0 Ni2 2.515501 1_555
Ni0 Ni2 2.515501 1_565
Ni0 Ni4 2.515501 1_655
Ni1 Ta0 2.542721 1_565
Ni1 Ta0 2.542721 1_555
Ni1 Ta0 2.542721 1_665
Ni1 Ta0 2.542721 1_655
Ni1 Ni4 2.548522 1_555
Ni1 Ni3 2.548522 1_565
Ni1 Ni5 2.548522 1_555
Ni1 Ni2 2.548522 1_555
Ni1 Ni4 2.548522 1_655
Ni1 Ni2 2.548522 1_565
Ni1 Ni3 2.548522 1_555
Ni1 Ni5 2.548522 1_655
Ni2 Ni4 2.542721 1_645
Ni2 Ni4 2.542721 1_555
Ni2 Ni4 2.542721 1_545
Ni2 Ni4 2.542721 1_655
Ni2 Ta0 2.548522 1_655
Ni2 Ta0 2.548522 1_555
Ni3 Ni5 2.542721 1_555
Ni3 Ni5 2.542721 1_645
Ni3 Ni5 2.542721 1_545
Ni3 Ni5 2.542721 1_655
Ni3 Ta0 2.548522 1_655
Ni3 Ta0 2.548522 1_555
Ni4 Ta0 2.548522 1_565
Ni4 Ta0 2.548522 1_555
Ni5 Ta0 2.548522 1_565
Ni5 Ta0 2.548522 1_555
