# generated using pymatgen
data_Ba3Fe26O41
_symmetry_space_group_name_H-M   'P 1'
_cell_length_a   6.02284768
_cell_length_b   6.02284768
_cell_length_c   52.87936600
_cell_angle_alpha   90.00000000
_cell_angle_beta   90.00000000
_cell_angle_gamma   119.99999647
_symmetry_Int_Tables_number   1
_chemical_formula_structural   Ba3Fe26O41
_chemical_formula_sum   'Ba6 Fe52 O82'
_cell_volume   1661.19511812
_cell_formula_units_Z   2
loop_
 _symmetry_equiv_pos_site_id
 _symmetry_equiv_pos_as_xyz
  1  'x, y, z'
loop_
 _atom_site_type_symbol
 _atom_site_label
 _atom_site_symmetry_multiplicity
 _atom_site_fract_x
 _atom_site_fract_y
 _atom_site_fract_z
 _atom_site_occupancy
  Ba  Ba0  1  0.33333300  0.66666700  0.47173700  1
  Ba  Ba1  1  0.66666700  0.33333300  0.52826300  1
  Ba  Ba2  1  0.66666700  0.33333300  0.97173700  1
  Ba  Ba3  1  0.33333300  0.66666700  0.02826300  1
  Ba  Ba4  1  0.00000000  0.00000000  0.25000000  1
  Ba  Ba5  1  0.00000000  0.00000000  0.75000000  1
  Fe  Fe0  1  0.00000000  0.00000000  0.50000000  1
  Fe  Fe1  1  0.00000000  0.00000000  0.00000000  1
  Fe  Fe2  1  0.66666700  0.33333300  0.46496200  1
  Fe  Fe3  1  0.33333300  0.66666700  0.53503800  1
  Fe  Fe4  1  0.33333300  0.66666700  0.96496200  1
  Fe  Fe5  1  0.66666700  0.33333300  0.03503800  1
  Fe  Fe6  1  0.00000000  0.00000000  0.44748500  1
  Fe  Fe7  1  0.00000000  0.00000000  0.55251500  1
  Fe  Fe8  1  0.00000000  0.00000000  0.94748500  1
  Fe  Fe9  1  0.00000000  0.00000000  0.05251500  1
  Fe  Fe10  1  0.49479300  0.50520700  0.40934500  1
  Fe  Fe11  1  0.49479300  0.98958500  0.40934500  1
  Fe  Fe12  1  0.01041500  0.50520700  0.40934500  1
  Fe  Fe13  1  0.50520700  0.49479300  0.59065500  1
  Fe  Fe14  1  0.50520700  0.01041500  0.59065500  1
  Fe  Fe15  1  0.98958500  0.49479300  0.59065500  1
  Fe  Fe16  1  0.50520700  0.49479300  0.90934500  1
  Fe  Fe17  1  0.50520700  0.01041500  0.90934500  1
  Fe  Fe18  1  0.98958500  0.49479300  0.90934500  1
  Fe  Fe19  1  0.49479300  0.50520700  0.09065500  1
  Fe  Fe20  1  0.49479300  0.98958500  0.09065500  1
  Fe  Fe21  1  0.01041500  0.50520700  0.09065500  1
  Fe  Fe22  1  0.00000000  0.00000000  0.37387700  1
  Fe  Fe23  1  0.00000000  0.00000000  0.62612300  1
  Fe  Fe24  1  0.00000000  0.00000000  0.87387700  1
  Fe  Fe25  1  0.00000000  0.00000000  0.12612300  1
  Fe  Fe26  1  0.66666700  0.33333300  0.36152000  1
  Fe  Fe27  1  0.33333300  0.66666700  0.63848000  1
  Fe  Fe28  1  0.33333300  0.66666700  0.86152000  1
  Fe  Fe29  1  0.66666700  0.33333300  0.13848000  1
  Fe  Fe30  1  0.33333300  0.66666700  0.34833700  1
  Fe  Fe31  1  0.66666700  0.33333300  0.65166300  1
  Fe  Fe32  1  0.66666700  0.33333300  0.84833700  1
  Fe  Fe33  1  0.33333300  0.66666700  0.15166300  1
  Fe  Fe34  1  0.83472800  0.66945600  0.31303700  1
  Fe  Fe35  1  0.33054400  0.16527200  0.31303700  1
  Fe  Fe36  1  0.83472800  0.16527200  0.31303700  1
  Fe  Fe37  1  0.16527200  0.33054400  0.68696300  1
  Fe  Fe38  1  0.66945600  0.83472800  0.68696300  1
  Fe  Fe39  1  0.16527200  0.83472800  0.68696300  1
  Fe  Fe40  1  0.16527200  0.33054400  0.81303700  1
  Fe  Fe41  1  0.66945600  0.83472800  0.81303700  1
  Fe  Fe42  1  0.16527200  0.83472800  0.81303700  1
  Fe  Fe43  1  0.83472800  0.66945600  0.18696300  1
  Fe  Fe44  1  0.33054400  0.16527200  0.18696300  1
  Fe  Fe45  1  0.83472800  0.16527200  0.18696300  1
  Fe  Fe46  1  0.33333300  0.66666700  0.27653400  1
  Fe  Fe47  1  0.66666700  0.33333300  0.72346600  1
  Fe  Fe48  1  0.66666700  0.33333300  0.77653400  1
  Fe  Fe49  1  0.33333300  0.66666700  0.22346600  1
  Fe  Fe50  1  0.66666700  0.33333300  0.25000000  1
  Fe  Fe51  1  0.33333300  0.66666700  0.75000000  1
  O  O0  1  0.83843700  0.67687400  0.47650500  1
  O  O1  1  0.32312600  0.16156300  0.47650500  1
  O  O2  1  0.83843700  0.16156300  0.47650500  1
  O  O3  1  0.16156300  0.32312600  0.52349500  1
  O  O4  1  0.67687400  0.83843700  0.52349500  1
  O  O5  1  0.16156300  0.83843700  0.52349500  1
  O  O6  1  0.16156300  0.32312600  0.97650500  1
  O  O7  1  0.67687400  0.83843700  0.97650500  1
  O  O8  1  0.16156300  0.83843700  0.97650500  1
  O  O9  1  0.83843700  0.67687400  0.02349500  1
  O  O10  1  0.32312600  0.16156300  0.02349500  1
  O  O11  1  0.83843700  0.16156300  0.02349500  1
  O  O12  1  0.66666700  0.33333300  0.42785900  1
  O  O13  1  0.33333300  0.66666700  0.57214100  1
  O  O14  1  0.33333300  0.66666700  0.92785900  1
  O  O15  1  0.66666700  0.33333300  0.07214100  1
  O  O16  1  0.17511600  0.82488400  0.42844900  1
  O  O17  1  0.17511600  0.35023300  0.42844900  1
  O  O18  1  0.64976700  0.82488400  0.42844900  1
  O  O19  1  0.82488400  0.17511600  0.57155100  1
  O  O20  1  0.82488400  0.64976700  0.57155100  1
  O  O21  1  0.35023300  0.17511600  0.57155100  1
  O  O22  1  0.82488400  0.17511600  0.92844900  1
  O  O23  1  0.82488400  0.64976700  0.92844900  1
  O  O24  1  0.35023300  0.17511600  0.92844900  1
  O  O25  1  0.17511600  0.82488400  0.07155100  1
  O  O26  1  0.17511600  0.35023300  0.07155100  1
  O  O27  1  0.64976700  0.82488400  0.07155100  1
  O  O28  1  0.33333300  0.66666700  0.38522600  1
  O  O29  1  0.66666700  0.33333300  0.61477400  1
  O  O30  1  0.66666700  0.33333300  0.88522600  1
  O  O31  1  0.33333300  0.66666700  0.11477400  1
  O  O32  1  0.82195100  0.64390200  0.38476600  1
  O  O33  1  0.35609800  0.17804900  0.38476600  1
  O  O34  1  0.82195100  0.17804900  0.38476600  1
  O  O35  1  0.17804900  0.35609800  0.61523400  1
  O  O36  1  0.64390200  0.82195100  0.61523400  1
  O  O37  1  0.17804900  0.82195100  0.61523400  1
  O  O38  1  0.17804900  0.35609800  0.88476600  1
  O  O39  1  0.64390200  0.82195100  0.88476600  1
  O  O40  1  0.17804900  0.82195100  0.88476600  1
  O  O41  1  0.82195100  0.64390200  0.11523400  1
  O  O42  1  0.35609800  0.17804900  0.11523400  1
  O  O43  1  0.82195100  0.17804900  0.11523400  1
  O  O44  1  0.51188400  0.02376800  0.33789200  1
  O  O45  1  0.97623200  0.48811600  0.33789200  1
  O  O46  1  0.51188400  0.48811600  0.33789200  1
  O  O47  1  0.48811600  0.97623200  0.66210800  1
  O  O48  1  0.02376800  0.51188400  0.66210800  1
  O  O49  1  0.48811600  0.51188400  0.66210800  1
  O  O50  1  0.48811600  0.97623200  0.83789200  1
  O  O51  1  0.02376800  0.51188400  0.83789200  1
  O  O52  1  0.48811600  0.51188400  0.83789200  1
  O  O53  1  0.51188400  0.02376800  0.16210800  1
  O  O54  1  0.97623200  0.48811600  0.16210800  1
  O  O55  1  0.51188400  0.48811600  0.16210800  1
  O  O56  1  0.00000000  0.00000000  0.33695000  1
  O  O57  1  0.00000000  0.00000000  0.66305000  1
  O  O58  1  0.00000000  0.00000000  0.83695000  1
  O  O59  1  0.00000000  0.00000000  0.16305000  1
  O  O60  1  0.16233400  0.83766600  0.29494700  1
  O  O61  1  0.16233400  0.32466800  0.29494700  1
  O  O62  1  0.67533200  0.83766600  0.29494700  1
  O  O63  1  0.83766600  0.16233400  0.70505300  1
  O  O64  1  0.83766600  0.67533200  0.70505300  1
  O  O65  1  0.32466800  0.16233400  0.70505300  1
  O  O66  1  0.83766600  0.16233400  0.79494700  1
  O  O67  1  0.83766600  0.67533200  0.79494700  1
  O  O68  1  0.32466800  0.16233400  0.79494700  1
  O  O69  1  0.16233400  0.83766600  0.20505300  1
  O  O70  1  0.16233400  0.32466800  0.20505300  1
  O  O71  1  0.67533200  0.83766600  0.20505300  1
  O  O72  1  0.66666700  0.33333300  0.29392000  1
  O  O73  1  0.33333300  0.66666700  0.70608000  1
  O  O74  1  0.33333300  0.66666700  0.79392000  1
  O  O75  1  0.66666700  0.33333300  0.20608000  1
  O  O76  1  0.48325800  0.51674200  0.25000000  1
  O  O77  1  0.48325800  0.96651600  0.25000000  1
  O  O78  1  0.03348400  0.51674200  0.25000000  1
  O  O79  1  0.51674200  0.48325800  0.75000000  1
  O  O80  1  0.51674200  0.03348400  0.75000000  1
  O  O81  1  0.96651600  0.48325800  0.75000000  1
loop_
_geom_bond_atom_site_label_1
_geom_bond_atom_site_label_2
_geom_bond_distance
_geom_bond_site_symmetry_2
Ba0 O16 2.822032 1_555
Ba0 O18 2.822032 1_555
Ba0 O17 2.822032 1_555
Ba0 O0 3.022426 1_455
Ba0 O1 3.022426 1_565
Ba0 O2 3.022429 1_455
Ba0 O2 3.022429 1_565
Ba0 O0 3.022432 1_555
Ba0 O1 3.022432 1_555
Ba0 O5 3.271335 1_555
Ba0 O3 3.271338 1_555
Ba0 O4 3.271338 1_555
Ba1 O19 2.822032 1_555
Ba1 O20 2.822032 1_555
Ba1 O21 2.822032 1_555
Ba1 O4 3.022426 1_545
Ba1 O3 3.022426 1_655
Ba1 O5 3.022429 1_545
Ba1 O5 3.022429 1_655
Ba1 O3 3.022432 1_555
Ba1 O4 3.022432 1_555
Ba1 O2 3.271335 1_555
Ba1 O1 3.271338 1_555
Ba1 O0 3.271338 1_555
Ba2 O22 2.822032 1_555
Ba2 O23 2.822032 1_555
Ba2 O24 2.822032 1_555
Ba2 O6 3.022426 1_655
Ba2 O7 3.022426 1_545
Ba2 O8 3.022429 1_545
Ba2 O8 3.022429 1_655
Ba2 O6 3.022432 1_555
Ba2 O7 3.022432 1_555
Ba2 O11 3.271335 1_556
Ba2 O9 3.271338 1_556
Ba2 O10 3.271338 1_556
Ba3 O25 2.822032 1_555
Ba3 O26 2.822032 1_555
Ba3 O27 2.822032 1_555
Ba3 O9 3.022426 1_455
Ba3 O10 3.022426 1_565
Ba3 O11 3.022429 1_455
Ba3 O11 3.022429 1_565
Ba3 O9 3.022432 1_555
Ba3 O10 3.022432 1_555
Ba3 O8 3.271335 1_554
Ba3 O6 3.271338 1_554
Ba3 O7 3.271338 1_554
Ba4 O69 2.918355 1_545
Ba4 O60 2.918355 1_545
Ba4 O71 2.918355 1_445
Ba4 O70 2.918355 1_555
Ba4 O62 2.918355 1_445
Ba4 O61 2.918355 1_555
Ba4 O77 3.016484 1_545
Ba4 O78 3.016484 1_545
Ba4 O78 3.016484 1_555
Ba4 O77 3.016484 1_445
Ba4 O76 3.016484 1_445
Ba4 O76 3.016484 1_555
Ba5 O66 2.918355 1_455
Ba5 O63 2.918355 1_455
Ba5 O64 2.918355 1_445
Ba5 O67 2.918355 1_445
Ba5 O68 2.918355 1_555
Ba5 O65 2.918355 1_555
Ba5 O80 3.016484 1_455
Ba5 O81 3.016484 1_455
Ba5 O80 3.016484 1_555
Ba5 O81 3.016484 1_445
Ba5 O79 3.016484 1_445
Ba5 O79 3.016484 1_555
Fe0 O2 2.093836 1_455
Fe0 O5 2.093836 1_545
Fe0 O1 2.093837 1_555
Fe0 O0 2.093837 1_445
Fe0 O3 2.093837 1_555
Fe0 O4 2.093837 1_445
Fe1 O11 2.093836 1_455
Fe1 O8 2.093836 1_544
Fe1 O9 2.093837 1_445
Fe1 O10 2.093837 1_555
Fe1 O7 2.093837 1_444
Fe1 O6 2.093837 1_554
Fe2 O2 1.892992 1_555
Fe2 O0 1.892997 1_555
Fe2 O1 1.892997 1_555
Fe2 O12 1.961983 1_555
Fe3 O5 1.892992 1_555
Fe3 O3 1.892997 1_555
Fe3 O4 1.892997 1_555
Fe3 O13 1.961983 1_555
Fe4 O8 1.892992 1_555
Fe4 O6 1.892997 1_555
Fe4 O7 1.892997 1_555
Fe4 O14 1.961983 1_555
Fe5 O11 1.892992 1_555
Fe5 O9 1.892997 1_555
Fe5 O10 1.892997 1_555
Fe5 O15 1.961983 1_555
Fe6 O16 2.085767 1_545
Fe6 O18 2.085772 1_445
Fe6 O17 2.085772 1_555
Fe6 O2 2.279356 1_455
Fe6 O1 2.279356 1_555
Fe6 O0 2.279356 1_445
Fe7 O19 2.085767 1_455
Fe7 O21 2.085772 1_555
Fe7 O20 2.085772 1_445
Fe7 O5 2.279356 1_545
Fe7 O4 2.279356 1_445
Fe7 O3 2.279356 1_555
Fe8 O22 2.085767 1_455
Fe8 O23 2.085772 1_445
Fe8 O24 2.085772 1_555
Fe8 O8 2.279356 1_545
Fe8 O7 2.279356 1_445
Fe8 O6 2.279356 1_555
Fe9 O25 2.085767 1_545
Fe9 O27 2.085772 1_445
Fe9 O26 2.085772 1_555
Fe9 O11 2.279356 1_455
Fe9 O10 2.279356 1_555
Fe9 O9 2.279356 1_445
Fe10 O17 1.949783 1_555
Fe10 O18 1.949783 1_555
Fe10 O12 2.042840 1_555
Fe10 O28 2.112726 1_555
Fe10 O32 2.150271 1_555
Fe10 O33 2.150271 1_555
Fe11 O18 1.949774 1_555
Fe11 O16 1.949783 1_555
Fe11 O12 2.042840 1_565
Fe11 O28 2.112717 1_555
Fe11 O34 2.150271 1_565
Fe11 O33 2.150275 1_565
Fe12 O17 1.949774 1_555
Fe12 O16 1.949783 1_555
Fe12 O12 2.042840 1_455
Fe12 O28 2.112717 1_555
Fe12 O34 2.150271 1_455
Fe12 O32 2.150275 1_455
Fe13 O20 1.949783 1_555
Fe13 O21 1.949783 1_555
Fe13 O13 2.042840 1_555
Fe13 O29 2.112726 1_555
Fe13 O35 2.150271 1_555
Fe13 O36 2.150271 1_555
Fe14 O21 1.949774 1_555
Fe14 O19 1.949783 1_555
Fe14 O13 2.042840 1_545
Fe14 O29 2.112717 1_555
Fe14 O37 2.150271 1_545
Fe14 O36 2.150275 1_545
Fe15 O20 1.949774 1_555
Fe15 O19 1.949783 1_555
Fe15 O13 2.042840 1_655
Fe15 O29 2.112717 1_555
Fe15 O37 2.150271 1_655
Fe15 O35 2.150275 1_655
Fe16 O23 1.949783 1_555
Fe16 O24 1.949783 1_555
Fe16 O14 2.042840 1_555
Fe16 O30 2.112726 1_555
Fe16 O38 2.150271 1_555
Fe16 O39 2.150271 1_555
Fe17 O24 1.949774 1_555
Fe17 O22 1.949783 1_555
Fe17 O14 2.042840 1_545
Fe17 O30 2.112717 1_555
Fe17 O40 2.150271 1_545
Fe17 O39 2.150275 1_545
Fe18 O23 1.949774 1_555
Fe18 O22 1.949783 1_555
Fe18 O14 2.042840 1_655
Fe18 O30 2.112717 1_555
Fe18 O40 2.150271 1_655
Fe18 O38 2.150275 1_655
Fe19 O26 1.949783 1_555
Fe19 O27 1.949783 1_555
Fe19 O15 2.042840 1_555
Fe19 O31 2.112726 1_555
Fe19 O42 2.150271 1_555
Fe19 O41 2.150271 1_555
Fe20 O27 1.949774 1_555
Fe20 O25 1.949783 1_555
Fe20 O15 2.042840 1_565
Fe20 O31 2.112717 1_555
Fe20 O43 2.150271 1_565
Fe20 O42 2.150275 1_565
Fe21 O26 1.949774 1_555
Fe21 O25 1.949783 1_555
Fe21 O15 2.042840 1_455
Fe21 O31 2.112717 1_555
Fe21 O43 2.150271 1_455
Fe21 O41 2.150275 1_455
Fe22 O34 1.944590 1_455
Fe22 O32 1.944590 1_445
Fe22 O33 1.944590 1_555
Fe22 O56 1.952676 1_555
Fe23 O37 1.944590 1_545
Fe23 O35 1.944590 1_555
Fe23 O36 1.944590 1_445
Fe23 O57 1.952676 1_555
Fe24 O40 1.944590 1_545
Fe24 O38 1.944590 1_555
Fe24 O39 1.944590 1_445
Fe24 O58 1.952676 1_555
Fe25 O43 1.944590 1_455
Fe25 O41 1.944590 1_445
Fe25 O42 1.944590 1_555
Fe25 O59 1.952676 1_555
Fe26 O34 2.033495 1_555
Fe26 O32 2.033500 1_555
Fe26 O33 2.033500 1_555
Fe26 O44 2.041629 1_555
Fe26 O45 2.041629 1_555
Fe26 O46 2.041634 1_555
Fe27 O37 2.033495 1_555
Fe27 O35 2.033500 1_555
Fe27 O36 2.033500 1_555
Fe27 O47 2.041629 1_555
Fe27 O48 2.041629 1_555
Fe27 O49 2.041634 1_555
Fe28 O40 2.033495 1_555
Fe28 O38 2.033500 1_555
Fe28 O39 2.033500 1_555
Fe28 O50 2.041629 1_555
Fe28 O51 2.041629 1_555
Fe28 O52 2.041634 1_555
Fe29 O43 2.033495 1_555
Fe29 O42 2.033500 1_555
Fe29 O41 2.033500 1_555
Fe29 O54 2.041629 1_555
Fe29 O53 2.041629 1_555
Fe29 O55 2.041634 1_555
Fe30 O45 1.942783 1_455
Fe30 O44 1.942783 1_565
Fe30 O46 1.942788 1_555
Fe30 O28 1.950667 1_555
Fe31 O47 1.942783 1_545
Fe31 O48 1.942783 1_655
Fe31 O49 1.942788 1_555
Fe31 O29 1.950667 1_555
Fe32 O50 1.942783 1_545
Fe32 O51 1.942783 1_655
Fe32 O52 1.942788 1_555
Fe32 O30 1.950667 1_555
Fe33 O53 1.942783 1_565
Fe33 O54 1.942783 1_455
Fe33 O55 1.942788 1_555
Fe33 O31 1.950667 1_555
Fe34 O62 1.958487 1_555
Fe34 O60 1.958487 1_655
Fe34 O72 2.023761 1_555
Fe34 O56 2.138103 1_665
Fe34 O45 2.139499 1_555
Fe34 O46 2.139499 1_555
Fe35 O61 1.958487 1_555
Fe35 O60 1.958487 1_545
Fe35 O72 2.023761 1_555
Fe35 O56 2.138103 1_555
Fe35 O44 2.139499 1_555
Fe35 O46 2.139499 1_555
Fe36 O62 1.958487 1_545
Fe36 O61 1.958487 1_655
Fe36 O72 2.023756 1_555
Fe36 O56 2.138103 1_655
Fe36 O45 2.139499 1_555
Fe36 O44 2.139499 1_555
Fe37 O65 1.958487 1_555
Fe37 O63 1.958487 1_455
Fe37 O73 2.023761 1_555
Fe37 O57 2.138103 1_555
Fe37 O48 2.139499 1_555
Fe37 O49 2.139499 1_555
Fe38 O64 1.958487 1_555
Fe38 O63 1.958487 1_565
Fe38 O73 2.023761 1_555
Fe38 O57 2.138103 1_665
Fe38 O47 2.139499 1_555
Fe38 O49 2.139499 1_555
Fe39 O64 1.958487 1_455
Fe39 O65 1.958487 1_565
Fe39 O73 2.023756 1_555
Fe39 O57 2.138103 1_565
Fe39 O48 2.139499 1_555
Fe39 O47 2.139499 1_555
Fe40 O68 1.958487 1_555
Fe40 O66 1.958487 1_455
Fe40 O74 2.023761 1_555
Fe40 O58 2.138103 1_555
Fe40 O51 2.139499 1_555
Fe40 O52 2.139499 1_555
Fe41 O67 1.958487 1_555
Fe41 O66 1.958487 1_565
Fe41 O74 2.023761 1_555
Fe41 O58 2.138103 1_665
Fe41 O50 2.139499 1_555
Fe41 O52 2.139499 1_555
Fe42 O67 1.958487 1_455
Fe42 O68 1.958487 1_565
Fe42 O74 2.023756 1_555
Fe42 O58 2.138103 1_565
Fe42 O51 2.139499 1_555
Fe42 O50 2.139499 1_555
Fe43 O71 1.958487 1_555
Fe43 O69 1.958487 1_655
Fe43 O75 2.023761 1_555
Fe43 O59 2.138103 1_665
Fe43 O54 2.139499 1_555
Fe43 O55 2.139499 1_555
Fe44 O70 1.958487 1_555
Fe44 O69 1.958487 1_545
Fe44 O75 2.023761 1_555
Fe44 O59 2.138103 1_555
Fe44 O53 2.139499 1_555
Fe44 O55 2.139499 1_555
Fe45 O71 1.958487 1_545
Fe45 O70 1.958487 1_655
Fe45 O75 2.023756 1_555
Fe45 O59 2.138103 1_655
Fe45 O54 2.139499 1_555
Fe45 O53 2.139499 1_555
Fe46 O60 2.032269 1_555
Fe46 O61 2.032273 1_555
Fe46 O62 2.032273 1_555
Fe46 O78 2.101136 1_555
Fe46 O77 2.101136 1_555
Fe46 O76 2.101139 1_555
Fe47 O63 2.032269 1_555
Fe47 O65 2.032273 1_555
Fe47 O64 2.032273 1_555
Fe47 O80 2.101136 1_555
Fe47 O81 2.101136 1_555
Fe47 O79 2.101139 1_555
Fe48 O66 2.032269 1_555
Fe48 O68 2.032273 1_555
Fe48 O67 2.032273 1_555
Fe48 O80 2.101136 1_555
Fe48 O81 2.101136 1_555
Fe48 O79 2.101139 1_555
Fe49 O69 2.032269 1_555
Fe49 O70 2.032273 1_555
Fe49 O71 2.032273 1_555
Fe49 O78 2.101136 1_555
Fe49 O77 2.101136 1_555
Fe49 O76 2.101139 1_555
Fe50 O77 1.913295 1_545
Fe50 O78 1.913295 1_655
Fe50 O76 1.913300 1_555
Fe50 O75 2.322462 1_555
Fe50 O72 2.322462 1_555
Fe51 O81 1.913295 1_455
Fe51 O80 1.913295 1_565
Fe51 O79 1.913300 1_555
Fe51 O73 2.322462 1_555
Fe51 O74 2.322462 1_555
