# generated using pymatgen
data_Li7Mn2(CoO4)3
_symmetry_space_group_name_H-M   'P 1'
_cell_length_a   7.73230536
_cell_length_b   7.73230536
_cell_length_c   10.25906410
_cell_angle_alpha   71.79751634
_cell_angle_beta   71.79751634
_cell_angle_gamma   21.74315510
_symmetry_Int_Tables_number   1
_chemical_formula_structural   Li7Mn2(CoO4)3
_chemical_formula_sum   'Li7 Mn2 Co3 O12'
_cell_volume   215.42100017
_cell_formula_units_Z   1
loop_
 _symmetry_equiv_pos_site_id
 _symmetry_equiv_pos_as_xyz
  1  'x, y, z'
loop_
 _atom_site_type_symbol
 _atom_site_label
 _atom_site_symmetry_multiplicity
 _atom_site_fract_x
 _atom_site_fract_y
 _atom_site_fract_z
 _atom_site_occupancy
  Li  Li0  1  0.16800900  0.16800900  0.26032900  1
  Li  Li1  1  0.83037700  0.83037700  0.74952900  1
  Li  Li2  1  0.50062200  0.50062200  0.25263900  1
  Li  Li3  1  0.16932200  0.16932200  0.73453100  1
  Li  Li4  1  0.82953700  0.82953700  0.25703000  1
  Li  Li5  1  0.50291600  0.50291600  0.74346600  1
  Li  Li6  1  0.66536300  0.66536300  0.50344100  1
  Mn  Mn0  1  0.00038900  0.00038900  0.00077700  1
  Mn  Mn1  1  0.00302000  0.00302000  0.50285600  1
  Co  Co0  1  0.32945700  0.32945700  0.99892200  1
  Co  Co1  1  0.67413900  0.67413900  0.00143800  1
  Co  Co2  1  0.32525600  0.32525600  0.49394800  1
  O  O0  1  0.24468700  0.24468700  0.87625900  1
  O  O1  1  0.91562900  0.91562900  0.39183000  1
  O  O2  1  0.57477200  0.57477200  0.89242000  1
  O  O3  1  0.25896400  0.25896400  0.37819600  1
  O  O4  1  0.91705300  0.91705300  0.89188700  1
  O  O5  1  0.57296600  0.57296600  0.38923300  1
  O  O6  1  0.07608400  0.07608400  0.61703700  1
  O  O7  1  0.74701900  0.74701900  0.12189200  1
  O  O8  1  0.42394100  0.42394100  0.60737400  1
  O  O9  1  0.08359100  0.08359100  0.10988900  1
  O  O10  1  0.75916100  0.75916100  0.61402300  1
  O  O11  1  0.42772400  0.42772400  0.11105400  1
loop_
_geom_bond_atom_site_label_1
_geom_bond_atom_site_label_2
_geom_bond_distance
_geom_bond_site_symmetry_2
Li0 O3 2.105441 1_555
Li0 O7 2.121229 1_455
Li0 O7 2.121229 1_545
Li0 O5 2.178262 1_545
Li0 O5 2.178262 1_455
Li0 O9 2.298798 1_555
Li1 O10 2.014658 1_555
Li1 O0 2.105805 1_565
Li1 O0 2.105805 1_655
Li1 O8 2.225877 1_565
Li1 O8 2.225877 1_655
Li1 O4 2.255827 1_555
Li2 O5 2.037230 1_555
Li2 O11 2.087715 1_555
Li2 O1 2.158590 1_455
Li2 O1 2.158590 1_545
Li2 O9 2.164571 1_655
Li2 O9 2.164571 1_565
Li3 O10 2.108026 1_545
Li3 O10 2.108026 1_455
Li3 O0 2.117279 1_555
Li3 O6 2.131633 1_555
Li3 O2 2.309291 1_545
Li3 O2 2.309291 1_455
Li4 O3 1.993293 1_655
Li4 O3 1.993293 1_565
Li4 O7 2.144272 1_555
Li4 O1 2.184554 1_555
Li4 O11 2.274321 1_565
Li4 O11 2.274321 1_655
Li5 O6 2.031518 1_565
Li5 O6 2.031518 1_655
Li5 O8 2.110255 1_555
Li5 O2 2.141719 1_555
Li5 O4 2.209669 1_545
Li5 O4 2.209669 1_455
Li6 O6 2.078025 1_655
Li6 O6 2.078025 1_565
Li6 O10 2.084312 1_555
Li6 O5 2.094714 1_555
Li6 O3 2.153272 1_655
Li6 O3 2.153272 1_565
Mn0 O4 1.936284 1_444
Mn0 O9 1.936369 1_555
Mn0 O11 1.957138 1_455
Mn0 O11 1.957138 1_545
Mn0 O2 1.959554 1_454
Mn0 O2 1.959554 1_544
Mn1 O6 1.852114 1_555
Mn1 O5 1.956099 1_455
Mn1 O5 1.956099 1_545
Mn1 O8 1.974769 1_455
Mn1 O8 1.974769 1_545
Mn1 O1 2.005138 1_445
Co0 O4 2.042814 1_545
Co0 O4 2.042814 1_455
Co0 O0 2.066798 1_555
Co0 O7 2.069074 1_456
Co0 O7 2.069074 1_546
Co0 O11 2.154702 1_556
Co1 O7 1.903228 1_555
Co1 O0 2.012135 1_654
Co1 O0 2.012135 1_564
Co1 O9 2.069413 1_655
Co1 O9 2.069413 1_565
Co1 O2 2.145218 1_554
Co2 O3 1.784477 1_555
Co2 O10 1.966033 1_455
Co2 O10 1.966033 1_545
Co2 O1 2.047785 1_545
Co2 O1 2.047785 1_455
Co2 O8 2.170196 1_555
