# generated using pymatgen
data_BaIn8Ni2O15
_symmetry_space_group_name_H-M   'P 1'
_cell_length_a   8.38498680
_cell_length_b   8.38498680
_cell_length_c   10.07108000
_cell_angle_alpha   90.00000000
_cell_angle_beta   90.00000000
_cell_angle_gamma   95.85701812
_symmetry_Int_Tables_number   1
_chemical_formula_structural   BaIn8Ni2O15
_chemical_formula_sum   'Ba2 In16 Ni4 O30'
_cell_volume   704.38111638
_cell_formula_units_Z   2
loop_
 _symmetry_equiv_pos_site_id
 _symmetry_equiv_pos_as_xyz
  1  'x, y, z'
loop_
 _atom_site_type_symbol
 _atom_site_label
 _atom_site_symmetry_multiplicity
 _atom_site_fract_x
 _atom_site_fract_y
 _atom_site_fract_z
 _atom_site_occupancy
  Ba  Ba0  1  0.52648000  0.52648000  0.51936200  1
  Ba  Ba1  1  0.97352000  0.97352000  0.01936200  1
  In  In0  1  0.04562800  0.78304900  0.64870800  1
  In  In1  1  0.21191100  0.95003000  0.35175900  1
  In  In2  1  0.71695100  0.45437200  0.14870800  1
  In  In3  1  0.54997000  0.28808900  0.85175900  1
  In  In4  1  0.95003000  0.21191100  0.35175900  1
  In  In5  1  0.78304900  0.04562800  0.64870800  1
  In  In6  1  0.28808900  0.54997000  0.85175900  1
  In  In7  1  0.45437200  0.71695100  0.14870800  1
  In  In8  1  0.18964100  0.18964100  0.63895900  1
  In  In9  1  0.81378200  0.81378200  0.36343600  1
  In  In10  1  0.31035900  0.31035900  0.13895900  1
  In  In11  1  0.68621800  0.68621800  0.86343600  1
  In  In12  1  0.40023700  0.92516200  0.88757100  1
  In  In13  1  0.57483800  0.09976300  0.38757100  1
  In  In14  1  0.92516200  0.40023700  0.88757100  1
  In  In15  1  0.09976300  0.57483800  0.38757100  1
  Ni  Ni0  1  0.08305200  0.59381800  0.11295600  1
  Ni  Ni1  1  0.90618200  0.41694800  0.61295600  1
  Ni  Ni2  1  0.59381800  0.08305200  0.11295600  1
  Ni  Ni3  1  0.41694800  0.90618200  0.61295600  1
  O  O0  1  0.50656200  0.50656200  0.99627000  1
  O  O1  1  0.99343800  0.99343800  0.49627000  1
  O  O2  1  0.60819600  0.86618800  0.00740700  1
  O  O3  1  0.14461500  0.40262000  0.99636200  1
  O  O4  1  0.63381200  0.89180400  0.50740700  1
  O  O5  1  0.09738000  0.35538500  0.49636200  1
  O  O6  1  0.40262000  0.14461500  0.99636200  1
  O  O7  1  0.86618800  0.60819600  0.00740700  1
  O  O8  1  0.35538500  0.09738000  0.49636200  1
  O  O9  1  0.89180400  0.63381200  0.50740700  1
  O  O10  1  0.85903200  0.85903200  0.77388900  1
  O  O11  1  0.13847400  0.13847400  0.22719900  1
  O  O12  1  0.64096800  0.64096800  0.27388900  1
  O  O13  1  0.36152600  0.36152600  0.72719900  1
  O  O14  1  0.25148800  0.74571000  0.00054400  1
  O  O15  1  0.75429000  0.24851200  0.50054400  1
  O  O16  1  0.74571000  0.25148800  0.00054400  1
  O  O17  1  0.24851200  0.75429000  0.50054400  1
  O  O18  1  0.06658400  0.55914600  0.74476400  1
  O  O19  1  0.43341600  0.94085400  0.24476400  1
  O  O20  1  0.94085400  0.43341600  0.24476400  1
  O  O21  1  0.55914600  0.06658400  0.74476400  1
  O  O22  1  0.72182900  0.46353600  0.75288700  1
  O  O23  1  0.53891900  0.28035400  0.23748500  1
  O  O24  1  0.03646400  0.77817100  0.25288700  1
  O  O25  1  0.21964600  0.96108100  0.73748500  1
  O  O26  1  0.28035400  0.53891900  0.23748500  1
  O  O27  1  0.46353600  0.72182900  0.75288700  1
  O  O28  1  0.96108100  0.21964600  0.73748500  1
  O  O29  1  0.77817100  0.03646400  0.25288700  1
loop_
_geom_bond_atom_site_label_1
_geom_bond_atom_site_label_2
_geom_bond_distance
_geom_bond_site_symmetry_2
Ba0 O12 2.786881 1_555
Ba0 O13 2.795879 1_555
Ba0 O22 2.944356 1_555
Ba0 O27 2.944356 1_555
Ba0 O9 3.105676 1_555
Ba0 O4 3.105676 1_555
Ba0 O17 3.166356 1_555
Ba0 O15 3.166356 1_555
Ba1 O10 2.786881 1_554
Ba1 O11 2.795879 1_665
Ba1 O24 2.944356 1_655
Ba1 O29 2.944356 1_565
Ba1 O2 3.105676 1_555
Ba1 O7 3.105676 1_555
Ba1 O16 3.166356 1_565
Ba1 O14 3.166356 1_655
In0 O18 2.135126 1_555
In0 O10 2.155629 1_455
In0 O25 2.170795 1_555
In0 O9 2.219272 1_455
In0 O17 2.294006 1_555
In0 O1 2.412059 1_455
In1 O19 2.155420 1_555
In1 O11 2.155950 1_565
In1 O8 2.188899 1_565
In1 O24 2.190806 1_555
In1 O17 2.266288 1_555
In1 O1 2.396357 1_455
In2 O20 2.135126 1_555
In2 O12 2.155629 1_555
In2 O23 2.170795 1_555
In2 O7 2.219272 1_555
In2 O16 2.294006 1_555
In2 O0 2.412059 1_554
In3 O21 2.155420 1_555
In3 O13 2.155950 1_555
In3 O6 2.188899 1_555
In3 O22 2.190806 1_555
In3 O16 2.266288 1_556
In3 O0 2.396357 1_555
In4 O20 2.155420 1_555
In4 O11 2.155950 1_655
In4 O5 2.188899 1_655
In4 O29 2.190806 1_555
In4 O15 2.266288 1_555
In4 O1 2.396357 1_545
In5 O21 2.135126 1_555
In5 O10 2.155629 1_545
In5 O28 2.170795 1_555
In5 O4 2.219272 1_545
In5 O15 2.294006 1_555
In5 O1 2.412059 1_545
In6 O18 2.155420 1_555
In6 O13 2.155950 1_555
In6 O3 2.188899 1_555
In6 O27 2.190806 1_555
In6 O14 2.266288 1_556
In6 O0 2.396357 1_555
In7 O19 2.135126 1_555
In7 O12 2.155629 1_555
In7 O26 2.170795 1_555
In7 O2 2.219272 1_555
In7 O14 2.294006 1_555
In7 O0 2.412059 1_554
In8 O13 2.126080 1_555
In8 O8 2.193566 1_555
In8 O5 2.193566 1_555
In8 O28 2.195258 1_455
In8 O25 2.195258 1_545
In8 O1 2.631687 1_445
In9 O12 2.141079 1_555
In9 O29 2.220107 1_565
In9 O24 2.220107 1_655
In9 O9 2.238088 1_555
In9 O4 2.238088 1_555
In9 O1 2.421792 1_555
In10 O11 2.126080 1_555
In10 O3 2.193566 1_554
In10 O6 2.193566 1_554
In10 O26 2.195258 1_555
In10 O23 2.195258 1_555
In10 O0 2.631687 1_554
In11 O10 2.141079 1_555
In11 O27 2.220107 1_555
In11 O22 2.220107 1_555
In11 O7 2.238088 1_556
In11 O2 2.238088 1_556
In11 O0 2.421792 1_555
In12 O6 2.139938 1_565
In12 O14 2.175144 1_556
In12 O25 2.182079 1_555
In12 O2 2.217582 1_556
In12 O21 2.219819 1_565
In12 O27 2.283219 1_555
In13 O8 2.139938 1_555
In13 O15 2.175144 1_555
In13 O23 2.182079 1_555
In13 O4 2.217582 1_545
In13 O19 2.219819 1_545
In13 O29 2.283219 1_555
In14 O3 2.139938 1_655
In14 O16 2.175144 1_556
In14 O28 2.182079 1_555
In14 O7 2.217582 1_556
In14 O18 2.219819 1_655
In14 O22 2.283219 1_555
In15 O5 2.139938 1_555
In15 O17 2.175144 1_555
In15 O26 2.182079 1_555
In15 O9 2.217582 1_455
In15 O20 2.219819 1_455
In15 O24 2.283219 1_555
Ni0 O3 2.093898 1_554
Ni0 O7 2.120334 1_455
Ni0 O14 2.128693 1_555
Ni0 O24 2.156695 1_555
Ni0 O20 2.159957 1_455
Ni0 O26 2.162673 1_555
Ni1 O5 2.093898 1_655
Ni1 O9 2.120334 1_555
Ni1 O15 2.128693 1_555
Ni1 O22 2.156695 1_555
Ni1 O18 2.159957 1_655
Ni1 O28 2.162673 1_555
Ni2 O6 2.093898 1_554
Ni2 O2 2.120334 1_545
Ni2 O16 2.128693 1_555
Ni2 O29 2.156695 1_555
Ni2 O19 2.159957 1_545
Ni2 O23 2.162673 1_555
Ni3 O8 2.093898 1_565
Ni3 O4 2.120334 1_555
Ni3 O17 2.128693 1_555
Ni3 O27 2.156695 1_555
Ni3 O21 2.159957 1_565
Ni3 O25 2.162673 1_555
