# generated using pymatgen
data_Na3Fe(SO4)3
_symmetry_space_group_name_H-M   'P 1'
_cell_length_a   8.49520782
_cell_length_b   8.49520782
_cell_length_c   8.49520820
_cell_angle_alpha   107.65225726
_cell_angle_beta   107.65225726
_cell_angle_gamma   107.65225964
_symmetry_Int_Tables_number   1
_chemical_formula_structural   Na3Fe(SO4)3
_chemical_formula_sum   'Na6 Fe2 S6 O24'
_cell_volume   501.22243966
_cell_formula_units_Z   2
loop_
 _symmetry_equiv_pos_site_id
 _symmetry_equiv_pos_as_xyz
  1  'x, y, z'
loop_
 _atom_site_type_symbol
 _atom_site_label
 _atom_site_symmetry_multiplicity
 _atom_site_fract_x
 _atom_site_fract_y
 _atom_site_fract_z
 _atom_site_occupancy
  Na  Na0  1  0.61589600  0.14142500  0.76691500  1
  Na  Na1  1  0.76691500  0.61589600  0.14142500  1
  Na  Na2  1  0.14142500  0.76691500  0.61589600  1
  Na  Na3  1  0.38410400  0.85857500  0.23308500  1
  Na  Na4  1  0.23308500  0.38410400  0.85857500  1
  Na  Na5  1  0.85857500  0.23308500  0.38410400  1
  Fe  Fe0  1  0.00000000  0.00000000  0.00000000  1
  Fe  Fe1  1  0.50000000  0.50000000  0.50000000  1
  S  S0  1  0.90068600  0.55161400  0.76715800  1
  S  S1  1  0.76715800  0.90068600  0.55161400  1
  S  S2  1  0.55161400  0.76715800  0.90068600  1
  S  S3  1  0.09931400  0.44838600  0.23284200  1
  S  S4  1  0.23284200  0.09931400  0.44838600  1
  S  S5  1  0.44838600  0.23284200  0.09931400  1
  O  O0  1  0.75674800  0.52022400  0.58966400  1
  O  O1  1  0.58966400  0.75674800  0.52022400  1
  O  O2  1  0.52022400  0.58966400  0.75674800  1
  O  O3  1  0.24325200  0.47977600  0.41033600  1
  O  O4  1  0.41033600  0.24325200  0.47977600  1
  O  O5  1  0.47977600  0.41033600  0.24325200  1
  O  O6  1  0.81748200  0.45883300  0.86058200  1
  O  O7  1  0.86058200  0.81748200  0.45883300  1
  O  O8  1  0.45883300  0.86058200  0.81748200  1
  O  O9  1  0.18251800  0.54116700  0.13941800  1
  O  O10  1  0.13941800  0.18251800  0.54116700  1
  O  O11  1  0.54116700  0.13941800  0.18251800  1
  O  O12  1  0.03162100  0.49135200  0.71688300  1
  O  O13  1  0.71688300  0.03162100  0.49135200  1
  O  O14  1  0.49135200  0.71688300  0.03162100  1
  O  O15  1  0.96837900  0.50864800  0.28311700  1
  O  O16  1  0.28311700  0.96837900  0.50864800  1
  O  O17  1  0.50864800  0.28311700  0.96837900  1
  O  O18  1  0.00553000  0.75644100  0.88679700  1
  O  O19  1  0.88679700  0.00553000  0.75644100  1
  O  O20  1  0.75644100  0.88679700  0.00553000  1
  O  O21  1  0.99447000  0.24355900  0.11320300  1
  O  O22  1  0.11320300  0.99447000  0.24355900  1
  O  O23  1  0.24355900  0.11320300  0.99447000  1
loop_
_geom_bond_atom_site_label_1
_geom_bond_atom_site_label_2
_geom_bond_distance
_geom_bond_site_symmetry_2
Na0 O17 2.359989 1_555
Na0 O6 2.430732 1_555
Na0 O8 2.587574 1_545
Na0 O16 2.593959 1_545
Na0 O13 2.732261 1_555
Na0 O19 2.882731 1_555
Na1 O15 2.359989 1_555
Na1 O7 2.430732 1_555
Na1 O6 2.587574 1_554
Na1 O17 2.593959 1_554
Na1 O14 2.732261 1_555
Na1 O20 2.882731 1_555
Na2 O16 2.359989 1_555
Na2 O8 2.430732 1_555
Na2 O7 2.587574 1_455
Na2 O15 2.593960 1_455
Na2 O12 2.732261 1_555
Na2 O18 2.882732 1_555
Na3 O14 2.359989 1_555
Na3 O9 2.430732 1_555
Na3 O11 2.587574 1_565
Na3 O13 2.593959 1_565
Na3 O16 2.732261 1_555
Na3 O22 2.882731 1_555
Na4 O12 2.359989 1_555
Na4 O10 2.430732 1_555
Na4 O9 2.587574 1_556
Na4 O14 2.593959 1_556
Na4 O17 2.732261 1_555
Na4 O23 2.882731 1_555
Na5 O13 2.359989 1_555
Na5 O11 2.430732 1_555
Na5 O10 2.587574 1_655
Na5 O12 2.593960 1_655
Na5 O15 2.732261 1_555
Na5 O21 2.882732 1_555
Fe0 O23 2.021813 1_554
Fe0 O20 2.021813 1_445
Fe0 O21 2.021813 1_455
Fe0 O18 2.021813 1_544
Fe0 O22 2.021814 1_545
Fe0 O19 2.021814 1_454
Fe1 O4 2.013159 1_555
Fe1 O1 2.013159 1_555
Fe1 O3 2.013159 1_555
Fe1 O0 2.013159 1_555
Fe1 O2 2.013159 1_555
Fe1 O5 2.013159 1_555
O0 S0 1.509998 1_555
O1 S1 1.509998 1_555
O2 S2 1.509998 1_555
O3 S3 1.509998 1_555
O4 S4 1.509998 1_555
O5 S5 1.509998 1_555
O6 S0 1.460302 1_555
O7 S1 1.460302 1_555
O8 S2 1.460302 1_555
O9 S3 1.460302 1_555
O10 S4 1.460302 1_555
O11 S5 1.460302 1_555
O12 S0 1.477367 1_455
O13 S1 1.477367 1_545
O14 S2 1.477367 1_554
O15 S3 1.477367 1_655
O16 S4 1.477367 1_565
O17 S5 1.477367 1_556
O18 S0 1.514116 1_455
O19 S1 1.514116 1_545
O20 S2 1.514116 1_554
O21 S3 1.514116 1_655
O22 S4 1.514116 1_565
O23 S5 1.514116 1_556
