# generated using pymatgen
data_TbNbO4
_symmetry_space_group_name_H-M   'P 1'
_cell_length_a   5.12268233
_cell_length_b   5.32588547
_cell_length_c   6.57086700
_cell_angle_alpha   112.18745213
_cell_angle_beta   111.17318857
_cell_angle_gamma   94.06379856
_symmetry_Int_Tables_number   1
_chemical_formula_structural   TbNbO4
_chemical_formula_sum   'Tb2 Nb2 O8'
_cell_volume   150.26547849
_cell_formula_units_Z   2
loop_
 _symmetry_equiv_pos_site_id
 _symmetry_equiv_pos_as_xyz
  1  'x, y, z'
loop_
 _atom_site_type_symbol
 _atom_site_label
 _atom_site_symmetry_multiplicity
 _atom_site_fract_x
 _atom_site_fract_y
 _atom_site_fract_z
 _atom_site_occupancy
  Tb  Tb0  1  0.87857023  0.12856888  0.75709390  1
  Tb  Tb1  1  0.12142977  0.87143112  0.24290610  1
  Nb  Nb0  1  0.35776526  0.60770077  0.71543153  1
  Nb  Nb1  1  0.64223474  0.39229923  0.28456847  1
  O  O0  1  0.28937795  0.12737119  0.07725011  1
  O  O1  1  0.78784076  0.44983248  0.07725393  1
  O  O2  1  0.71062205  0.87262881  0.92275089  1
  O  O3  1  0.21215924  0.55016752  0.92274707  1
  O  O4  1  0.51093316  0.71581396  0.43644268  1
  O  O5  1  0.92549949  0.22065605  0.43646154  1
  O  O6  1  0.48906684  0.28418604  0.56355732  1
  O  O7  1  0.07450051  0.77934395  0.56353846  1
loop_
_geom_bond_atom_site_label_1
_geom_bond_atom_site_label_2
_geom_bond_distance
_geom_bond_site_symmetry_2
Nb0 O2 1.876685 1_555
Nb0 O3 1.876917 1_555
Nb0 O6 1.941010 1_555
Nb0 O7 1.941224 1_555
Nb0 O5 2.465703 1_455
Nb0 O4 2.465778 1_555
Nb1 O0 1.876685 1_555
Nb1 O1 1.876911 1_555
Nb1 O4 1.941010 1_555
Nb1 O5 1.941224 1_555
Nb1 O7 2.465703 1_655
Nb1 O6 2.465778 1_555
O0 Tb1 2.326803 1_545
O0 Tb0 2.380811 1_454
O1 Tb1 2.326657 1_655
O1 Tb0 2.381106 1_554
O2 Tb0 2.326809 1_565
O2 Tb1 2.380808 1_656
O3 Tb0 2.326656 1_455
O3 Tb1 2.381102 1_556
O4 Tb1 2.341543 1_555
O4 Tb0 2.422213 1_565
O5 Tb1 2.341876 1_645
O5 Tb0 2.422118 1_555
O6 Tb0 2.341543 1_555
O6 Tb1 2.422213 1_545
O7 Tb0 2.341876 1_465
O7 Tb1 2.422118 1_555
