# generated using pymatgen
data_CsRbMg14O15
_symmetry_space_group_name_H-M   'P 1'
_cell_length_a   4.23986000
_cell_length_b   8.94921700
_cell_length_c   9.59816700
_cell_angle_alpha   90.00000000
_cell_angle_beta   90.00000000
_cell_angle_gamma   90.00000000
_symmetry_Int_Tables_number   1
_chemical_formula_structural   CsRbMg14O15
_chemical_formula_sum   'Cs1 Rb1 Mg14 O15'
_cell_volume   364.18735072
_cell_formula_units_Z   1
loop_
 _symmetry_equiv_pos_site_id
 _symmetry_equiv_pos_as_xyz
  1  'x, y, z'
loop_
 _atom_site_type_symbol
 _atom_site_label
 _atom_site_symmetry_multiplicity
 _atom_site_fract_x
 _atom_site_fract_y
 _atom_site_fract_z
 _atom_site_occupancy
  Cs  Cs0  1  0.00000000  0.50000000  0.88390100  1
  Rb  Rb0  1  0.00000000  0.00000000  0.05505200  1
  Mg  Mg0  1  0.00000000  0.00000000  0.51353600  1
  Mg  Mg1  1  0.00000000  0.50000000  0.47303700  1
  Mg  Mg2  1  0.50000000  0.74996800  0.99106600  1
  Mg  Mg3  1  0.50000000  0.25003200  0.99106600  1
  Mg  Mg4  1  0.50000000  0.74213600  0.49972100  1
  Mg  Mg5  1  0.50000000  0.25786400  0.49972100  1
  Mg  Mg6  1  0.50000000  0.00000000  0.73839800  1
  Mg  Mg7  1  0.50000000  0.50000000  0.70217100  1
  Mg  Mg8  1  0.50000000  0.00000000  0.30451300  1
  Mg  Mg9  1  0.50000000  0.50000000  0.23206700  1
  Mg  Mg10  1  0.00000000  0.78300600  0.74708900  1
  Mg  Mg11  1  0.00000000  0.21699400  0.74708900  1
  Mg  Mg12  1  0.00000000  0.73271700  0.23329700  1
  Mg  Mg13  1  0.00000000  0.26728300  0.23329700  1
  O  O0  1  0.00000000  0.00000000  0.72026700  1
  O  O1  1  0.00000000  0.00000000  0.31254200  1
  O  O2  1  0.00000000  0.50000000  0.27007000  1
  O  O3  1  0.50000000  0.72666000  0.74865200  1
  O  O4  1  0.50000000  0.27334000  0.74865200  1
  O  O5  1  0.50000000  0.75595600  0.26694100  1
  O  O6  1  0.50000000  0.24404400  0.26694100  1
  O  O7  1  0.50000000  0.00000000  0.93725400  1
  O  O8  1  0.50000000  0.50000000  0.02674200  1
  O  O9  1  0.50000000  0.00000000  0.51930100  1
  O  O10  1  0.50000000  0.50000000  0.50054100  1
  O  O11  1  0.00000000  0.73566000  0.01098000  1
  O  O12  1  0.00000000  0.26434000  0.01098000  1
  O  O13  1  0.00000000  0.72720300  0.53255700  1
  O  O14  1  0.00000000  0.27279700  0.53255700  1
loop_
_geom_bond_atom_site_label_1
_geom_bond_atom_site_label_2
_geom_bond_distance
_geom_bond_site_symmetry_2
Cs0 O12 2.436287 1_556
Cs0 O11 2.436287 1_556
Cs0 O8 2.524634 1_556
Cs0 O8 2.524634 1_456
Mg0 O1 1.929174 1_555
Mg0 O0 1.984239 1_555
Mg0 O9 2.120652 1_455
Mg0 O9 2.120652 1_555
Mg0 O14 2.448136 1_555
Mg0 O13 2.448136 1_545
Mg1 O2 1.948111 1_555
Mg1 O13 2.112020 1_555
Mg1 O14 2.112020 1_555
Mg1 O10 2.136304 1_455
Mg1 O10 2.136304 1_555
Mg2 O11 2.132377 1_556
Mg2 O11 2.132377 1_656
Mg2 O8 2.263074 1_556
Mg2 O7 2.296428 1_565
Mg2 O3 2.336061 1_555
Mg2 O5 2.648437 1_556
Mg3 O12 2.132377 1_556
Mg3 O12 2.132377 1_656
Mg3 O8 2.263074 1_556
Mg3 O7 2.296428 1_555
Mg3 O4 2.336061 1_555
Mg3 O6 2.648437 1_556
Mg4 O13 2.147392 1_555
Mg4 O13 2.147392 1_655
Mg4 O10 2.166942 1_555
Mg4 O5 2.237682 1_555
Mg4 O9 2.315321 1_565
Mg4 O3 2.393292 1_555
Mg5 O14 2.147392 1_555
Mg5 O14 2.147392 1_655
Mg5 O10 2.166942 1_555
Mg5 O6 2.237682 1_555
Mg5 O9 2.315321 1_555
Mg5 O4 2.393292 1_555
Mg6 O7 1.908653 1_555
Mg6 O9 2.102930 1_555
Mg6 O0 2.127061 1_655
Mg6 O0 2.127061 1_555
Mg6 O3 2.448158 1_545
Mg6 O4 2.448158 1_555
Mg7 O10 1.935278 1_555
Mg7 O4 2.076911 1_555
Mg7 O3 2.076911 1_555
Mg8 O9 2.061571 1_555
Mg8 O1 2.121330 1_555
Mg8 O1 2.121330 1_655
Mg8 O6 2.213575 1_555
Mg8 O5 2.213575 1_545
Mg9 O8 1.970744 1_555
Mg9 O2 2.151082 1_555
Mg9 O2 2.151082 1_655
Mg9 O5 2.314933 1_555
Mg9 O6 2.314933 1_555
Mg9 O10 2.576858 1_555
Mg10 O0 1.958917 1_565
Mg10 O13 2.118807 1_555
Mg10 O3 2.179128 1_455
Mg10 O3 2.179128 1_555
Mg10 O11 2.568065 1_556
Mg11 O0 1.958917 1_555
Mg11 O14 2.118807 1_555
Mg11 O4 2.179128 1_455
Mg11 O4 2.179128 1_555
Mg11 O12 2.568065 1_556
Mg12 O2 2.112331 1_555
Mg12 O11 2.133998 1_555
Mg12 O5 2.154445 1_555
Mg12 O5 2.154445 1_455
Mg12 O1 2.509992 1_565
Mg13 O2 2.112331 1_555
Mg13 O12 2.133998 1_555
Mg13 O6 2.154445 1_555
Mg13 O6 2.154445 1_455
Mg13 O1 2.509992 1_555
O1 Rb0 2.471432 1_555
O7 Rb0 2.402595 1_556
O7 Rb0 2.402595 1_656
O11 Rb0 2.403159 1_565
O12 Rb0 2.403159 1_555
