# generated using pymatgen
data_Mg6AlV
_symmetry_space_group_name_H-M   'P 1'
_cell_length_a   4.94560000
_cell_length_b   6.19925600
_cell_length_c   10.72638300
_cell_angle_alpha   90.00000000
_cell_angle_beta   90.00000000
_cell_angle_gamma   90.00000000
_symmetry_Int_Tables_number   1
_chemical_formula_structural   Mg6AlV
_chemical_formula_sum   'Mg12 Al2 V2'
_cell_volume   328.86061053
_cell_formula_units_Z   2
loop_
 _symmetry_equiv_pos_site_id
 _symmetry_equiv_pos_as_xyz
  1  'x, y, z'
loop_
 _atom_site_type_symbol
 _atom_site_label
 _atom_site_symmetry_multiplicity
 _atom_site_fract_x
 _atom_site_fract_y
 _atom_site_fract_z
 _atom_site_occupancy
  Mg  Mg0  1  0.00000000  0.25779300  0.08594000  1
  Mg  Mg1  1  0.00000000  0.74220700  0.08594000  1
  Mg  Mg2  1  0.00000000  0.50000000  0.83327400  1
  Mg  Mg3  1  0.50000000  0.24502900  0.91623800  1
  Mg  Mg4  1  0.50000000  0.75497100  0.91623800  1
  Mg  Mg5  1  0.50000000  0.50000000  0.66605800  1
  Mg  Mg6  1  0.00000000  0.75779300  0.58594000  1
  Mg  Mg7  1  0.00000000  0.24220700  0.58594000  1
  Mg  Mg8  1  0.00000000  0.00000000  0.33327400  1
  Mg  Mg9  1  0.50000000  0.74502900  0.41623800  1
  Mg  Mg10  1  0.50000000  0.25497100  0.41623800  1
  Mg  Mg11  1  0.50000000  0.00000000  0.16605800  1
  Al  Al0  1  0.00000000  0.50000000  0.32304400  1
  Al  Al1  1  0.00000000  0.00000000  0.82304400  1
  V  V0  1  0.50000000  0.50000000  0.17327000  1
  V  V1  1  0.50000000  0.00000000  0.67327000  1
loop_
_geom_bond_atom_site_label_1
_geom_bond_atom_site_label_2
_geom_bond_distance
_geom_bond_site_symmetry_2
Mg0 Mg1 3.003006 1_555
Mg0 V0 3.040843 1_555
Mg0 V0 3.040843 1_455
Mg0 Mg11 3.067127 1_455
Mg0 Mg11 3.067127 1_555
Mg0 Mg3 3.071555 1_554
Mg0 Mg3 3.071555 1_454
Mg0 Mg8 3.097161 1_555
Mg0 Mg2 3.098331 1_554
Mg0 Mg1 3.196250 1_545
Mg1 V0 3.040843 1_455
Mg1 V0 3.040843 1_555
Mg1 Mg11 3.067127 1_565
Mg1 Mg11 3.067127 1_465
Mg1 Mg4 3.071555 1_454
Mg1 Mg4 3.071555 1_554
Mg1 Mg8 3.097161 1_565
Mg1 Mg2 3.098331 1_554
Mg2 Mg5 3.054803 1_455
Mg2 Mg5 3.054803 1_555
Mg2 Mg3 3.066767 1_455
Mg2 Mg3 3.066767 1_555
Mg2 Mg4 3.066767 1_455
Mg2 Mg4 3.066767 1_555
Mg2 Mg6 3.097161 1_555
Mg2 Mg7 3.097161 1_555
Mg3 V1 3.016532 1_555
Mg3 Mg4 3.037995 1_545
Mg3 Mg5 3.114435 1_555
Mg3 Mg4 3.161261 1_555
Mg3 V0 3.177982 1_556
Mg4 V1 3.016532 1_565
Mg4 Mg5 3.114435 1_555
Mg4 V0 3.177982 1_556
Mg5 Mg6 3.067127 1_655
Mg5 Mg6 3.067127 1_555
Mg5 Mg7 3.067127 1_555
Mg5 Mg7 3.067127 1_655
Mg5 Mg9 3.080253 1_555
Mg5 V1 3.100593 1_555
Mg5 V1 3.100593 1_565
Mg6 Mg7 3.003006 1_565
Mg6 V1 3.040843 1_565
Mg6 V1 3.040843 1_465
Mg6 Mg9 3.071555 1_455
Mg6 Mg9 3.071555 1_555
Mg6 Mg8 3.098331 1_565
Mg6 Mg7 3.196250 1_555
Mg7 V1 3.040843 1_555
Mg7 V1 3.040843 1_455
Mg7 Mg8 3.098331 1_555
Mg8 Mg9 3.066767 1_545
Mg8 Mg9 3.066767 1_445
Mg9 V0 3.016532 1_555
Mg9 V1 3.177982 1_565
Mg10 V0 3.016532 1_555
Mg10 Mg9 3.037995 1_555
Mg10 Mg8 3.066767 1_555
Mg10 Mg8 3.066767 1_655
Mg10 Mg7 3.071555 1_555
Mg10 Mg7 3.071555 1_655
Mg10 Mg5 3.080253 1_555
Mg10 Mg11 3.114435 1_555
Mg10 Mg9 3.161261 1_545
Mg10 V1 3.177982 1_555
Mg11 Mg8 3.054803 1_655
Mg11 Mg8 3.054803 1_555
Mg11 Mg3 3.080253 1_554
Mg11 Mg4 3.080253 1_544
Mg11 V0 3.100593 1_555
Mg11 V0 3.100593 1_545
Mg11 Mg9 3.114435 1_545
Al0 V0 2.948845 1_555
Al0 V0 2.948845 1_455
Al0 Mg1 2.953426 1_555
Al0 Mg0 2.953426 1_555
Al0 Mg9 3.069424 1_555
Al0 Mg9 3.069424 1_455
Al0 Mg10 3.069424 1_555
Al0 Mg10 3.069424 1_455
Al0 Mg8 3.101570 1_565
Al0 Mg8 3.101570 1_555
Al0 Mg6 3.241291 1_555
Al0 Mg7 3.241291 1_555
Al1 V1 2.948845 1_455
Al1 V1 2.948845 1_555
Al1 Mg7 2.953426 1_555
Al1 Mg6 2.953426 1_545
Al1 Mg3 3.069424 1_555
Al1 Mg4 3.069424 1_445
Al1 Mg4 3.069424 1_545
Al1 Mg3 3.069424 1_455
Al1 Mg2 3.101570 1_555
Al1 Mg2 3.101570 1_545
Al1 Mg0 3.241291 1_556
Al1 Mg1 3.241291 1_546
