# generated using pymatgen
data_La5Ga4SnSb10
_symmetry_space_group_name_H-M   'P 1'
_cell_length_a   4.46846000
_cell_length_b   11.78089082
_cell_length_c   22.26119303
_cell_angle_alpha   100.90930689
_cell_angle_beta   90.04624855
_cell_angle_gamma   90.14128824
_symmetry_Int_Tables_number   1
_chemical_formula_structural   La5Ga4SnSb10
_chemical_formula_sum   'La10 Ga8 Sn2 Sb20'
_cell_volume   1150.70074045
_cell_formula_units_Z   2
loop_
 _symmetry_equiv_pos_site_id
 _symmetry_equiv_pos_as_xyz
  1  'x, y, z'
loop_
 _atom_site_type_symbol
 _atom_site_label
 _atom_site_symmetry_multiplicity
 _atom_site_fract_x
 _atom_site_fract_y
 _atom_site_fract_z
 _atom_site_occupancy
  La  La0  1  0.25079200  0.27562900  0.02721600  1
  La  La1  1  0.25196400  0.27642500  0.82846000  1
  La  La2  1  0.25237600  0.28126100  0.62883100  1
  La  La3  1  0.24860300  0.28170000  0.42648100  1
  La  La4  1  0.24805200  0.27675000  0.22567800  1
  La  La5  1  0.74960100  0.72426300  0.97219900  1
  La  La6  1  0.74839200  0.72404800  0.77329900  1
  La  La7  1  0.74761200  0.71930000  0.57240400  1
  La  La8  1  0.75132500  0.71795800  0.36984600  1
  La  La9  1  0.75220800  0.72286800  0.17027200  1
  Ga  Ga0  1  0.50012200  0.99982900  0.03053900  1
  Ga  Ga1  1  0.49974200  0.00005100  0.83217500  1
  Ga  Ga2  1  0.50001700  0.99995400  0.64347300  1
  Ga  Ga3  1  0.49996000  0.99995400  0.43910800  1
  Ga  Ga4  1  0.50003500  0.99986000  0.22723400  1
  Ga  Ga5  1  0.99968900  0.99989600  0.16708000  1
  Ga  Ga6  1  0.99930300  0.99993000  0.96876200  1
  Ga  Ga7  1  0.99979700  0.00011700  0.77159200  1
  Sn  Sn0  1  0.99988200  0.00004800  0.56939600  1
  Sn  Sn1  1  0.99976600  0.99992300  0.36600800  1
  Sb  Sb0  1  0.24458900  0.49996100  0.14962400  1
  Sb  Sb1  1  0.24346000  0.49871800  0.34902500  1
  Sb  Sb2  1  0.24566900  0.49950200  0.55006000  1
  Sb  Sb3  1  0.24735200  0.50053400  0.75066600  1
  Sb  Sb4  1  0.24631600  0.49994700  0.95008000  1
  Sb  Sb5  1  0.75575400  0.49931900  0.24877400  1
  Sb  Sb6  1  0.75535600  0.50111000  0.45001400  1
  Sb  Sb7  1  0.75342700  0.50160000  0.65098200  1
  Sb  Sb8  1  0.75306900  0.49991900  0.85012300  1
  Sb  Sb9  1  0.75467000  0.49953900  0.04947100  1
  Sb  Sb10  1  0.25599100  0.81205800  0.27918200  1
  Sb  Sb11  1  0.25587400  0.81096100  0.47917900  1
  Sb  Sb12  1  0.24747000  0.81736600  0.68155600  1
  Sb  Sb13  1  0.25049400  0.82148500  0.88163000  1
  Sb  Sb14  1  0.25151400  0.82174300  0.08215000  1
  Sb  Sb15  1  0.74889100  0.17830500  0.11790500  1
  Sb  Sb16  1  0.74438200  0.18797200  0.31688100  1
  Sb  Sb17  1  0.74417800  0.18902800  0.51713700  1
  Sb  Sb18  1  0.75252500  0.18265500  0.71809000  1
  Sb  Sb19  1  0.74978000  0.17851300  0.91741800  1
loop_
_geom_bond_atom_site_label_1
_geom_bond_atom_site_label_2
_geom_bond_distance
_geom_bond_site_symmetry_2
La0 Sb19 3.348929 1_454
La0 Sb19 3.349292 1_554
La0 Sb15 3.350481 1_555
La0 Sb15 3.360199 1_455
La0 Sb4 3.413278 1_554
La0 Sb9 3.413847 1_455
La0 Sb0 3.418374 1_555
La0 Sb9 3.427464 1_555
La1 Sb19 3.327252 1_555
La1 Sb19 3.338665 1_455
La1 Sb18 3.345036 1_455
La1 Sb18 3.354659 1_555
La1 Sb4 3.400998 1_555
La1 Sb8 3.415769 1_555
La1 Sb8 3.418311 1_455
La1 Sb3 3.420679 1_555
La2 Sb18 3.339844 1_455
La2 Sb18 3.342420 1_555
La2 Sb17 3.345215 1_555
La2 Sb3 3.373134 1_555
La2 Sb2 3.375352 1_555
La2 Sb17 3.387619 1_455
La2 Sb7 3.388087 1_555
La2 Sb7 3.390859 1_455
La2 Sn0 3.509863 1_455
La3 Sb17 3.317711 1_555
La3 Sb16 3.328804 1_555
La3 Sb17 3.342815 1_455
La3 Sb1 3.343499 1_555
La3 Sb16 3.347770 1_455
La3 Sb6 3.366175 1_455
La3 Sb2 3.388288 1_555
La3 Sb6 3.397067 1_555
La3 Sn1 3.515130 1_445
La4 Sb16 3.307965 1_555
La4 Sb15 3.316846 1_455
La4 Sb15 3.328339 1_555
La4 Sb16 3.328781 1_455
La4 Sb0 3.386283 1_555
La4 Sb5 3.390977 1_455
La4 Sb1 3.414787 1_555
La4 Sb5 3.427070 1_555
La5 Sb14 3.349759 1_556
La5 Sb13 3.351148 1_555
La5 Sb14 3.354745 1_656
La5 Sb13 3.354871 1_655
La5 Sb8 3.413548 1_555
La5 Sb4 3.419150 1_655
La5 Sb9 3.419424 1_556
La5 Sb4 3.429282 1_555
La6 Sb13 3.325165 1_555
La6 Sb13 3.331361 1_655
La6 Sb12 3.346362 1_655
La6 Sb12 3.353275 1_555
La6 Sb7 3.403229 1_555
La6 Sb8 3.406840 1_555
La6 Sb3 3.415709 1_555
La6 Sb3 3.418655 1_655
La7 Sb12 3.338236 1_655
La7 Sb11 3.339716 1_555
La7 Sb12 3.345516 1_555
La7 Sb7 3.366980 1_555
La7 Sb6 3.373637 1_555
La7 Sb2 3.383525 1_655
La7 Sb2 3.386028 1_555
La7 Sb11 3.387449 1_655
La7 Sn0 3.504292 1_565
La8 Sb11 3.322184 1_555
La8 Sb10 3.324647 1_555
La8 Sb11 3.343182 1_655
La8 Sb10 3.351080 1_655
La8 Sb5 3.357339 1_555
La8 Sb1 3.361311 1_655
La8 Sb6 3.381923 1_555
La8 Sb1 3.398857 1_555
La8 Sn1 3.516172 1_555
La9 Sb10 3.309765 1_555
La9 Sb14 3.322983 1_655
La9 Sb10 3.326405 1_655
La9 Sb14 3.328881 1_555
La9 Sb9 3.387647 1_555
La9 Sb0 3.394324 1_655
La9 Sb5 3.425238 1_555
La9 Sb0 3.429943 1_555
Ga0 Ga6 2.621500 1_554
Ga0 Ga6 2.625847 1_454
Ga0 Sb14 2.803339 1_555
Ga0 Sb15 2.806476 1_565
Ga0 La5 3.448614 1_554
Ga0 La0 3.451455 1_565
Ga1 Ga7 2.608656 1_455
Ga1 Ga7 2.610937 1_555
Ga1 Sb19 2.782875 1_555
Ga1 Sb13 2.782975 1_545
Ga1 La6 3.454279 1_545
Ga1 La1 3.457361 1_555
Ga2 Sb18 2.701244 1_565
Ga2 Sb12 2.701677 1_555
Ga2 Sn0 2.776432 1_465
Ga2 Sn0 2.777599 1_565
Ga2 La7 3.563695 1_555
Ga2 La2 3.569318 1_565
Ga3 Sn1 2.763628 1_455
Ga3 Sn1 2.764352 1_555
Ga3 Sb11 2.772003 1_555
Ga3 Sb17 2.773111 1_565
Ga3 La3 3.567742 1_565
Ga3 La8 3.571843 1_555
Ga4 Ga5 2.604439 1_555
Ga4 Ga5 2.605239 1_455
Ga4 Sb10 2.894846 1_555
Ga4 Sb16 2.897676 1_565
Ga4 La4 3.459849 1_565
Ga4 La9 3.461276 1_555
Ga5 Sb15 2.784321 1_565
Ga5 Sb14 2.785472 1_655
Ga5 La4 3.455520 1_665
Ga5 La9 3.456791 1_555
Ga6 Sb19 2.809902 1_565
Ga6 Sb13 2.813058 1_655
Ga6 La5 3.445877 1_555
Ga6 La0 3.447518 1_666
Ga7 Sb18 2.871047 1_555
Ga7 Sb12 2.873906 1_645
Ga7 La6 3.445286 1_545
Ga7 La1 3.447920 1_655
Sb0 Sb5 3.107594 1_455
Sb0 Sb9 3.122692 1_455
Sb0 Sb5 3.176043 1_555
Sb0 Sb9 3.189040 1_555
Sb1 Sb5 3.118990 1_455
Sb1 Sb6 3.129893 1_455
Sb1 Sb5 3.199217 1_555
Sb1 Sb6 3.202257 1_555
Sb2 Sb6 3.125549 1_455
Sb2 Sb7 3.142185 1_455
Sb2 Sb7 3.188477 1_555
Sb2 Sb6 3.189287 1_555
Sb3 Sb8 3.129562 1_455
Sb3 Sb7 3.130255 1_455
Sb3 Sb8 3.163329 1_555
Sb3 Sb7 3.171250 1_555
Sb4 Sb9 3.119879 1_456
Sb4 Sb8 3.130655 1_455
Sb4 Sb9 3.170395 1_556
Sb4 Sb8 3.175963 1_555
Sb10 Sn1 2.888249 1_455
Sb11 Sn0 2.937187 1_465
Sb16 Sn1 2.886820 1_545
Sb17 Sn0 2.933652 1_555
