# generated using pymatgen
data_Eu(GaP)2
_symmetry_space_group_name_H-M   'P 1'
_cell_length_a   3.90233431
_cell_length_b   9.24114900
_cell_length_c   12.06615153
_cell_angle_alpha   95.42479968
_cell_angle_beta   90.00000000
_cell_angle_gamma   90.00000000
_symmetry_Int_Tables_number   1
_chemical_formula_structural   Eu(GaP)2
_chemical_formula_sum   'Eu4 Ga8 P8'
_cell_volume   433.18130568
_cell_formula_units_Z   4
loop_
 _symmetry_equiv_pos_site_id
 _symmetry_equiv_pos_as_xyz
  1  'x, y, z'
loop_
 _atom_site_type_symbol
 _atom_site_label
 _atom_site_symmetry_multiplicity
 _atom_site_fract_x
 _atom_site_fract_y
 _atom_site_fract_z
 _atom_site_occupancy
  Eu  Eu0  1  0.00000000  0.19556181  0.27950074  1
  Eu  Eu1  1  0.00000000  0.80443819  0.72049926  1
  Eu  Eu2  1  0.50000000  0.00000000  -0.00000000  1
  Eu  Eu3  1  0.50000000  0.50000000  0.50000000  1
  Ga  Ga0  1  0.50000000  0.39537394  0.05613349  1
  Ga  Ga1  1  0.50000000  0.60462606  0.94386651  1
  Ga  Ga2  1  0.50000000  0.88785287  0.43508875  1
  Ga  Ga3  1  0.50000000  0.11214713  0.56491125  1
  Ga  Ga4  1  0.00000000  0.59764178  0.28032781  1
  Ga  Ga5  1  0.00000000  0.40235822  0.71967219  1
  Ga  Ga6  1  0.00000000  0.80383973  0.17300095  1
  Ga  Ga7  1  0.00000000  0.19616027  0.82699905  1
  P  P0  1  0.50000000  0.44228154  0.25672528  1
  P  P1  1  0.50000000  0.55771846  0.74327472  1
  P  P2  1  -0.00000000  0.26412344  0.53617542  1
  P  P3  1  0.00000000  0.73587656  0.46382458  1
  P  P4  1  0.50000000  0.94523859  0.24040966  1
  P  P5  1  0.50000000  0.05476141  0.75959034  1
  P  P6  1  -0.00000000  0.23938649  0.02671586  1
  P  P7  1  -0.00000000  0.76061351  0.97328414  1
loop_
_geom_bond_atom_site_label_1
_geom_bond_atom_site_label_2
_geom_bond_distance
_geom_bond_site_symmetry_2
Eu0 P4 3.028938 1_445
Eu0 P4 3.028938 1_545
Eu0 P0 3.033039 1_555
Eu0 P0 3.033039 1_455
Eu0 P2 3.101981 1_555
Eu0 P6 3.114633 1_555
Eu1 P5 3.028938 1_565
Eu1 P5 3.028938 1_465
Eu1 P1 3.033039 1_555
Eu1 P1 3.033039 1_455
Eu1 P3 3.101981 1_555
Eu1 P7 3.114633 1_555
Eu2 P6 2.944484 1_655
Eu2 P7 2.944484 1_644
Eu2 P6 2.944484 1_555
Eu2 P7 2.944484 1_544
Eu2 P5 2.991390 1_554
Eu2 P4 2.991390 1_545
Eu3 P0 2.933423 1_555
Eu3 P1 2.933423 1_555
Eu3 P2 2.988124 1_555
Eu3 P3 2.988124 1_555
Eu3 P2 2.988124 1_655
Eu3 P3 2.988124 1_655
Ga0 P0 2.418206 1_555
Ga0 P6 2.431920 1_555
Ga0 P6 2.431920 1_655
Ga0 Ga1 2.463661 1_554
Ga1 P1 2.418206 1_555
Ga1 P7 2.431920 1_655
Ga1 P7 2.431920 1_555
Ga2 P3 2.447813 1_555
Ga2 P3 2.447813 1_655
Ga2 P4 2.456562 1_555
Ga2 Ga3 2.477119 1_565
Ga3 P2 2.447813 1_555
Ga3 P2 2.447813 1_655
Ga3 P5 2.456562 1_555
Ga4 P0 2.423243 1_555
Ga4 P0 2.423243 1_455
Ga4 P3 2.449352 1_555
Ga5 P1 2.423243 1_455
Ga5 P1 2.423243 1_555
Ga5 P2 2.449352 1_555
Ga6 P7 2.405152 1_554
Ga6 P4 2.444400 1_455
Ga6 P4 2.444400 1_555
Ga7 P6 2.405152 1_556
Ga7 P5 2.444400 1_555
Ga7 P5 2.444400 1_455
