# generated using pymatgen
data_Y4Co13Si2(SbO14)2
_symmetry_space_group_name_H-M   'P 1'
_cell_length_a   12.20338749
_cell_length_b   12.20338749
_cell_length_c   9.56132815
_cell_angle_alpha   87.87095807
_cell_angle_beta   87.87095807
_cell_angle_gamma   153.70933431
_symmetry_Int_Tables_number   1
_chemical_formula_structural   Y4Co13Si2(SbO14)2
_chemical_formula_sum   'Y4 Co13 Si2 Sb2 O28'
_cell_volume   622.20883649
_cell_formula_units_Z   1
loop_
 _symmetry_equiv_pos_site_id
 _symmetry_equiv_pos_as_xyz
  1  'x, y, z'
loop_
 _atom_site_type_symbol
 _atom_site_label
 _atom_site_symmetry_multiplicity
 _atom_site_fract_x
 _atom_site_fract_y
 _atom_site_fract_z
 _atom_site_occupancy
  Y  Y0  1  0.51479900  0.92679500  0.34058000  1
  Y  Y1  1  0.07320500  0.48520100  0.65942000  1
  Y  Y2  1  0.48520100  0.07320500  0.65942000  1
  Y  Y3  1  0.92679500  0.51479900  0.34058000  1
  Co  Co0  1  0.33675500  0.07915600  0.37275600  1
  Co  Co1  1  0.20361300  0.32853400  0.69101000  1
  Co  Co2  1  0.92084400  0.66324500  0.62724400  1
  Co  Co3  1  0.66324500  0.92084400  0.62724400  1
  Co  Co4  1  0.79638700  0.67146600  0.30899000  1
  Co  Co5  1  0.29190200  0.70809800  0.00000000  1
  Co  Co6  1  0.67146600  0.79638700  0.30899000  1
  Co  Co7  1  0.00000000  0.00000000  0.00000000  1
  Co  Co8  1  0.42769000  0.57231000  0.00000000  1
  Co  Co9  1  0.32853400  0.20361300  0.69101000  1
  Co  Co10  1  0.07915600  0.33675500  0.37275600  1
  Co  Co11  1  0.57231000  0.42769000  0.00000000  1
  Co  Co12  1  0.70809800  0.29190200  0.00000000  1
  Si  Si0  1  0.75503600  0.75503600  0.71381500  1
  Si  Si1  1  0.24496400  0.24496400  0.28618500  1
  Sb  Sb0  1  0.85852900  0.14147100  0.00000000  1
  Sb  Sb1  1  0.14147100  0.85852900  0.00000000  1
  O  O0  1  0.03143600  0.28520400  0.59483800  1
  O  O1  1  0.46197500  0.87909800  0.60857700  1
  O  O2  1  0.05032900  0.05032900  0.65643900  1
  O  O3  1  0.70375000  0.70375000  0.89035200  1
  O  O4  1  0.53802500  0.12090200  0.39142300  1
  O  O5  1  0.96856400  0.71479600  0.40516200  1
  O  O6  1  0.40412900  0.99009400  0.89293800  1
  O  O7  1  0.59587100  0.00990600  0.10706200  1
  O  O8  1  0.29625000  0.29625000  0.10964800  1
  O  O9  1  0.72500100  0.87798100  0.10366200  1
  O  O10  1  0.57023600  0.68116700  0.65435500  1
  O  O11  1  0.71479600  0.96856400  0.40516200  1
  O  O12  1  0.00990600  0.59587100  0.10706200  1
  O  O13  1  0.12201900  0.27499900  0.89633800  1
  O  O14  1  0.31883300  0.42976400  0.34564500  1
  O  O15  1  0.94967100  0.94967100  0.34356100  1
  O  O16  1  0.87798100  0.72500100  0.10366200  1
  O  O17  1  0.27499900  0.12201900  0.89633800  1
  O  O18  1  0.99009400  0.40412900  0.89293800  1
  O  O19  1  0.59009800  0.87659300  0.87965900  1
  O  O20  1  0.40990200  0.12340700  0.12034100  1
  O  O21  1  0.68116700  0.57023600  0.65435500  1
  O  O22  1  0.87659300  0.59009800  0.87965900  1
  O  O23  1  0.87909800  0.46197500  0.60857700  1
  O  O24  1  0.42976400  0.31883300  0.34564500  1
  O  O25  1  0.12340700  0.40990200  0.12034100  1
  O  O26  1  0.28520400  0.03143600  0.59483800  1
  O  O27  1  0.12090200  0.53802500  0.39142300  1
loop_
_geom_bond_atom_site_label_1
_geom_bond_atom_site_label_2
_geom_bond_distance
_geom_bond_site_symmetry_2
Co0 O24 1.969609 1_555
Co0 O5 2.006392 1_445
Co0 O4 2.029734 1_555
Co0 O26 2.096586 1_555
Co0 O20 2.406612 1_555
Co1 O0 1.930652 1_555
Co1 O13 1.966081 1_555
Co1 O2 1.968860 1_555
Co1 O10 1.976506 1_555
Co2 O21 1.969609 1_555
Co2 O26 2.006392 1_665
Co2 O23 2.029734 1_555
Co2 O5 2.096586 1_555
Co2 O22 2.406612 1_555
Co3 O10 1.969609 1_555
Co3 O0 2.006392 1_665
Co3 O1 2.029734 1_555
Co3 O11 2.096586 1_555
Co3 O19 2.406612 1_555
Co4 O5 1.930652 1_555
Co4 O16 1.966081 1_555
Co4 O15 1.968860 1_555
Co4 O24 1.976506 1_555
Co5 O18 2.106490 1_454
Co5 O7 2.106490 1_565
Co5 O25 2.211396 1_555
Co5 O19 2.211396 1_554
Co5 O12 2.439096 1_555
Co5 O6 2.439096 1_554
Co6 O11 1.930652 1_555
Co6 O9 1.966081 1_555
Co6 O15 1.968860 1_555
Co6 O14 1.976506 1_555
Co7 O3 2.089568 1_444
Co7 O8 2.089568 1_555
Co7 O16 2.268174 1_445
Co7 O17 2.268174 1_554
Co7 O13 2.268174 1_554
Co7 O9 2.268174 1_445
Co8 O13 2.081976 1_554
Co8 O9 2.081976 1_555
Co8 O8 2.223597 1_555
Co8 O3 2.223597 1_554
Co8 O19 2.314556 1_554
Co8 O25 2.314556 1_555
Co9 O26 1.930652 1_555
Co9 O17 1.966081 1_555
Co9 O2 1.968860 1_555
Co9 O21 1.976506 1_555
Co10 O14 1.969609 1_555
Co10 O11 2.006392 1_445
Co10 O27 2.029734 1_555
Co10 O0 2.096586 1_555
Co10 O25 2.406612 1_555
Co11 O16 2.081976 1_555
Co11 O17 2.081976 1_554
Co11 O8 2.223597 1_555
Co11 O3 2.223597 1_554
Co11 O22 2.314556 1_554
Co11 O20 2.314556 1_555
Co12 O6 2.106490 1_544
Co12 O12 2.106490 1_655
Co12 O20 2.211396 1_555
Co12 O22 2.211396 1_554
Co12 O7 2.439096 1_555
Co12 O18 2.439096 1_554
O0 Y1 2.121903 1_555
O1 Y1 2.147855 1_555
O1 Y2 2.195360 1_565
O1 Y0 2.532572 1_555
O2 Si0 1.641254 1_445
O3 Si0 1.665279 1_555
O4 Y3 2.147855 1_555
O4 Y0 2.195360 1_545
O4 Y2 2.532572 1_555
O5 Y3 2.121903 1_555
O6 Sb1 2.075073 1_556
O6 Y2 2.204760 1_565
O7 Sb0 2.075073 1_555
O7 Y0 2.204760 1_545
O8 Si1 1.665279 1_555
O9 Sb0 2.055451 1_565
O10 Si0 1.646125 1_555
O11 Y0 2.121903 1_555
O12 Sb1 2.075073 1_555
O12 Y3 2.204760 1_455
O13 Sb0 2.055451 1_456
O14 Si1 1.646125 1_555
O15 Si1 1.641254 1_665
O16 Sb1 2.055451 1_655
O17 Sb1 2.055451 1_546
O18 Sb0 2.075073 1_556
O18 Y1 2.204760 1_655
O19 Sb0 2.018119 1_566
O20 Sb1 2.018119 1_545
O21 Si0 1.646125 1_555
O22 Sb1 2.018119 1_656
O23 Y2 2.147855 1_555
O23 Y1 2.195360 1_655
O23 Y3 2.532572 1_555
O24 Si1 1.646125 1_555
O25 Sb0 2.018119 1_455
O26 Y2 2.121903 1_555
O27 Y0 2.147855 1_555
O27 Y3 2.195360 1_455
O27 Y1 2.532572 1_555
