# generated using pymatgen
data_CrCuN6Cl5
_symmetry_space_group_name_H-M   'P 1'
_cell_length_a   10.13556000
_cell_length_b   10.13556000
_cell_length_c   10.13556000
_cell_angle_alpha   90.00000000
_cell_angle_beta   90.00000000
_cell_angle_gamma   90.00000000
_symmetry_Int_Tables_number   1
_chemical_formula_structural   CrCuN6Cl5
_chemical_formula_sum   'Cr4 Cu4 N24 Cl20'
_cell_volume   1041.22178653
_cell_formula_units_Z   4
loop_
 _symmetry_equiv_pos_site_id
 _symmetry_equiv_pos_as_xyz
  1  'x, y, z'
loop_
 _atom_site_type_symbol
 _atom_site_label
 _atom_site_symmetry_multiplicity
 _atom_site_fract_x
 _atom_site_fract_y
 _atom_site_fract_z
 _atom_site_occupancy
  Cr  Cr0  1  0.75000000  0.25000000  0.25000000  1
  Cr  Cr1  1  0.25000000  0.75000000  0.25000000  1
  Cr  Cr2  1  0.25000000  0.25000000  0.75000000  1
  Cr  Cr3  1  0.75000000  0.75000000  0.75000000  1
  Cu  Cu0  1  0.25000000  0.75000000  0.75000000  1
  Cu  Cu1  1  0.75000000  0.25000000  0.75000000  1
  Cu  Cu2  1  0.75000000  0.75000000  0.25000000  1
  Cu  Cu3  1  0.25000000  0.25000000  0.25000000  1
  N  N0  1  0.86817200  0.34616600  0.34616600  1
  N  N1  1  0.13182800  0.65383400  0.34616600  1
  N  N2  1  0.13182800  0.34616600  0.65383400  1
  N  N3  1  0.86817200  0.65383400  0.65383400  1
  N  N4  1  0.34616600  0.34616600  0.86817200  1
  N  N5  1  0.65383400  0.34616600  0.13182800  1
  N  N6  1  0.34616600  0.65383400  0.13182800  1
  N  N7  1  0.65383400  0.65383400  0.86817200  1
  N  N8  1  0.34616600  0.86817200  0.34616600  1
  N  N9  1  0.34616600  0.13182800  0.65383400  1
  N  N10  1  0.65383400  0.13182800  0.34616600  1
  N  N11  1  0.65383400  0.86817200  0.65383400  1
  N  N12  1  0.63182800  0.15383400  0.15383400  1
  N  N13  1  0.36817200  0.84616600  0.15383400  1
  N  N14  1  0.36817200  0.15383400  0.84616600  1
  N  N15  1  0.63182800  0.84616600  0.84616600  1
  N  N16  1  0.15383400  0.15383400  0.63182800  1
  N  N17  1  0.84616600  0.15383400  0.36817200  1
  N  N18  1  0.15383400  0.84616600  0.36817200  1
  N  N19  1  0.84616600  0.84616600  0.63182800  1
  N  N20  1  0.15383400  0.63182800  0.15383400  1
  N  N21  1  0.15383400  0.36817200  0.84616600  1
  N  N22  1  0.84616600  0.36817200  0.15383400  1
  N  N23  1  0.84616600  0.63182800  0.84616600  1
  Cl  Cl0  1  0.36735400  0.63264600  0.63264600  1
  Cl  Cl1  1  0.63264600  0.36735400  0.63264600  1
  Cl  Cl2  1  0.63264600  0.63264600  0.36735400  1
  Cl  Cl3  1  0.36735400  0.36735400  0.36735400  1
  Cl  Cl4  1  0.13264600  0.86735400  0.86735400  1
  Cl  Cl5  1  0.86735400  0.13264600  0.86735400  1
  Cl  Cl6  1  0.86735400  0.86735400  0.13264600  1
  Cl  Cl7  1  0.13264600  0.13264600  0.13264600  1
  Cl  Cl8  1  0.00000000  0.50000000  0.75000000  1
  Cl  Cl9  1  0.00000000  0.50000000  0.25000000  1
  Cl  Cl10  1  0.50000000  0.75000000  0.00000000  1
  Cl  Cl11  1  0.50000000  0.25000000  0.00000000  1
  Cl  Cl12  1  0.75000000  0.00000000  0.50000000  1
  Cl  Cl13  1  0.25000000  0.00000000  0.50000000  1
  Cl  Cl14  1  0.50000000  0.00000000  0.75000000  1
  Cl  Cl15  1  0.50000000  0.00000000  0.25000000  1
  Cl  Cl16  1  0.00000000  0.75000000  0.50000000  1
  Cl  Cl17  1  0.00000000  0.25000000  0.50000000  1
  Cl  Cl18  1  0.75000000  0.50000000  0.00000000  1
  Cl  Cl19  1  0.25000000  0.50000000  0.00000000  1
loop_
_geom_bond_atom_site_label_1
_geom_bond_atom_site_label_2
_geom_bond_distance
_geom_bond_site_symmetry_2
Cr0 N10 1.826101 1_555
Cr0 N5 1.826101 1_555
Cr0 N0 1.826101 1_555
Cr0 N22 1.826101 1_555
Cr0 N17 1.826101 1_555
Cr0 N12 1.826101 1_555
Cr1 N6 1.826101 1_555
Cr1 N1 1.826101 1_555
Cr1 N8 1.826101 1_555
Cr1 N18 1.826101 1_555
Cr1 N13 1.826101 1_555
Cr1 N20 1.826101 1_555
Cr2 N9 1.826101 1_555
Cr2 N2 1.826101 1_555
Cr2 N14 1.826101 1_555
Cr2 N4 1.826101 1_555
Cr2 N21 1.826101 1_555
Cr2 N16 1.826101 1_555
Cr3 N3 1.826101 1_555
Cr3 N15 1.826101 1_555
Cr3 N19 1.826101 1_555
Cr3 N7 1.826101 1_555
Cr3 N23 1.826101 1_555
Cr3 N11 1.826101 1_555
Cl0 Cu0 2.060185 1_555
Cl1 Cu1 2.060185 1_555
Cl2 Cu2 2.060185 1_555
Cl3 Cu3 2.060185 1_555
Cl4 Cu0 2.060185 1_555
Cl5 Cu1 2.060185 1_555
Cl6 Cu2 2.060185 1_555
Cl7 Cu3 2.060185 1_555
Cl8 N3 2.272975 1_455
Cl8 N23 2.272975 1_455
Cl8 N2 2.272975 1_555
Cl8 N21 2.272975 1_555
Cl9 N20 2.272975 1_555
Cl9 N0 2.272975 1_455
Cl9 N1 2.272975 1_555
Cl9 N22 2.272975 1_455
Cl10 N13 2.272975 1_555
Cl10 N7 2.272975 1_554
Cl10 N15 2.272975 1_554
Cl10 N6 2.272975 1_555
Cl11 N12 2.272975 1_555
Cl11 N4 2.272975 1_554
Cl11 N5 2.272975 1_555
Cl11 N14 2.272975 1_554
Cl12 N17 2.272975 1_555
Cl12 N11 2.272975 1_545
Cl12 N19 2.272975 1_545
Cl12 N10 2.272975 1_555
Cl13 N8 2.272975 1_545
Cl13 N16 2.272975 1_555
Cl13 N18 2.272975 1_545
Cl13 N9 2.272975 1_555
Cl14 N15 2.272975 1_545
Cl14 N11 2.272975 1_545
Cl14 N14 2.272975 1_555
Cl14 N9 2.272975 1_555
Cl15 N8 2.272975 1_545
Cl15 N12 2.272975 1_555
Cl15 N13 2.272975 1_545
Cl15 N10 2.272975 1_555
Cl16 N3 2.272975 1_455
Cl16 N18 2.272975 1_555
Cl16 N19 2.272975 1_455
Cl16 N1 2.272975 1_555
Cl17 N0 2.272975 1_455
Cl17 N16 2.272975 1_555
Cl17 N2 2.272975 1_555
Cl17 N17 2.272975 1_455
Cl18 N23 2.272975 1_554
Cl18 N7 2.272975 1_554
Cl18 N22 2.272975 1_555
Cl18 N5 2.272975 1_555
Cl19 N4 2.272975 1_554
Cl19 N20 2.272975 1_555
Cl19 N21 2.272975 1_554
Cl19 N6 2.272975 1_555
