# generated using pymatgen
data_CaMn2(H2O3)4
_symmetry_space_group_name_H-M   'P 1'
_cell_length_a   5.58953500
_cell_length_b   13.27888400
_cell_length_c   14.66958200
_cell_angle_alpha   90.00000000
_cell_angle_beta   90.00000000
_cell_angle_gamma   90.00000000
_symmetry_Int_Tables_number   1
_chemical_formula_structural   CaMn2(H2O3)4
_chemical_formula_sum   'Ca4 Mn8 H32 O48'
_cell_volume   1088.81725839
_cell_formula_units_Z   4
loop_
 _symmetry_equiv_pos_site_id
 _symmetry_equiv_pos_as_xyz
  1  'x, y, z'
loop_
 _atom_site_type_symbol
 _atom_site_label
 _atom_site_symmetry_multiplicity
 _atom_site_fract_x
 _atom_site_fract_y
 _atom_site_fract_z
 _atom_site_occupancy
  Ca  Ca0  1  0.25000000  0.84955800  0.25000000  1
  Ca  Ca1  1  0.75000000  0.65044200  0.75000000  1
  Ca  Ca2  1  0.75000000  0.15044200  0.75000000  1
  Ca  Ca3  1  0.25000000  0.34955800  0.25000000  1
  Mn  Mn0  1  0.98789200  0.59764000  0.13251800  1
  Mn  Mn1  1  0.51210800  0.59764000  0.36748200  1
  Mn  Mn2  1  0.01210800  0.90236000  0.63251800  1
  Mn  Mn3  1  0.48789200  0.90236000  0.86748200  1
  Mn  Mn4  1  0.01210800  0.40236000  0.86748200  1
  Mn  Mn5  1  0.48789200  0.40236000  0.63251800  1
  Mn  Mn6  1  0.98789200  0.09764000  0.36748200  1
  Mn  Mn7  1  0.51210800  0.09764000  0.13251800  1
  H  H0  1  0.54640100  0.97940700  0.38490500  1
  H  H1  1  0.95359900  0.97940700  0.11509500  1
  H  H2  1  0.45359900  0.52059300  0.88490500  1
  H  H3  1  0.04640100  0.52059300  0.61509500  1
  H  H4  1  0.45359900  0.02059300  0.61509500  1
  H  H5  1  0.04640100  0.02059300  0.88490500  1
  H  H6  1  0.54640100  0.47940700  0.11509500  1
  H  H7  1  0.95359900  0.47940700  0.38490500  1
  H  H8  1  0.41494200  0.89560100  0.43965600  1
  H  H9  1  0.08505800  0.89560100  0.06034400  1
  H  H10  1  0.58505800  0.60439900  0.93965600  1
  H  H11  1  0.91494200  0.60439900  0.56034400  1
  H  H12  1  0.58505800  0.10439900  0.56034400  1
  H  H13  1  0.91494200  0.10439900  0.93965600  1
  H  H14  1  0.41494200  0.39560100  0.06034400  1
  H  H15  1  0.08505800  0.39560100  0.43965600  1
  H  H16  1  0.93397300  0.72470800  0.37884000  1
  H  H17  1  0.56602700  0.72470800  0.12116000  1
  H  H18  1  0.06602700  0.77529200  0.87884000  1
  H  H19  1  0.43397300  0.77529200  0.62116000  1
  H  H20  1  0.06602700  0.27529200  0.62116000  1
  H  H21  1  0.43397300  0.27529200  0.87884000  1
  H  H22  1  0.93397300  0.22470800  0.12116000  1
  H  H23  1  0.56602700  0.22470800  0.37884000  1
  H  H24  1  0.85721700  0.83707600  0.38996600  1
  H  H25  1  0.64278300  0.83707600  0.11003400  1
  H  H26  1  0.14278300  0.66292400  0.88996600  1
  H  H27  1  0.35721700  0.66292400  0.61003400  1
  H  H28  1  0.14278300  0.16292400  0.61003400  1
  H  H29  1  0.35721700  0.16292400  0.88996600  1
  H  H30  1  0.85721700  0.33707600  0.11003400  1
  H  H31  1  0.64278300  0.33707600  0.38996600  1
  O  O0  1  0.71303300  0.60252500  0.09391500  1
  O  O1  1  0.78696700  0.60252500  0.40608500  1
  O  O2  1  0.28696700  0.89747500  0.59391500  1
  O  O3  1  0.21303300  0.89747500  0.90608500  1
  O  O4  1  0.28696700  0.39747500  0.90608500  1
  O  O5  1  0.21303300  0.39747500  0.59391500  1
  O  O6  1  0.71303300  0.10252500  0.40608500  1
  O  O7  1  0.78696700  0.10252500  0.09391500  1
  O  O8  1  0.17242800  0.59069000  0.04941100  1
  O  O9  1  0.32757200  0.59069000  0.45058900  1
  O  O10  1  0.82757200  0.90931000  0.54941100  1
  O  O11  1  0.67242800  0.90931000  0.95058900  1
  O  O12  1  0.82757200  0.40931000  0.95058900  1
  O  O13  1  0.67242800  0.40931000  0.54941100  1
  O  O14  1  0.17242800  0.09069000  0.45058900  1
  O  O15  1  0.32757200  0.09069000  0.04941100  1
  O  O16  1  0.01861600  0.49912000  0.19673900  1
  O  O17  1  0.48138400  0.49912000  0.30326100  1
  O  O18  1  0.98138400  0.00088000  0.69673900  1
  O  O19  1  0.51861600  0.00088000  0.80326100  1
  O  O20  1  0.98138400  0.50088000  0.80326100  1
  O  O21  1  0.51861600  0.50088000  0.69673900  1
  O  O22  1  0.01861600  0.99912000  0.30326100  1
  O  O23  1  0.48138400  0.99912000  0.19673900  1
  O  O24  1  0.04115200  0.69834000  0.19105000  1
  O  O25  1  0.45884800  0.69834000  0.30895000  1
  O  O26  1  0.95884800  0.80166000  0.69105000  1
  O  O27  1  0.54115200  0.80166000  0.80895000  1
  O  O28  1  0.95884800  0.30166000  0.80895000  1
  O  O29  1  0.54115200  0.30166000  0.69105000  1
  O  O30  1  0.04115200  0.19834000  0.30895000  1
  O  O31  1  0.45884800  0.19834000  0.19105000  1
  O  O32  1  0.49419200  0.90834700  0.38125300  1
  O  O33  1  0.00580800  0.90834700  0.11874700  1
  O  O34  1  0.50580800  0.59165300  0.88125300  1
  O  O35  1  0.99419200  0.59165300  0.61874700  1
  O  O36  1  0.50580800  0.09165300  0.61874700  1
  O  O37  1  0.99419200  0.09165300  0.88125300  1
  O  O38  1  0.49419200  0.40834700  0.11874700  1
  O  O39  1  0.00580800  0.40834700  0.38125300  1
  O  O40  1  0.99352800  0.79454800  0.37334100  1
  O  O41  1  0.50647200  0.79454800  0.12665900  1
  O  O42  1  0.00647200  0.70545200  0.87334100  1
  O  O43  1  0.49352800  0.70545200  0.62665900  1
  O  O44  1  0.00647200  0.20545200  0.62665900  1
  O  O45  1  0.49352800  0.20545200  0.87334100  1
  O  O46  1  0.99352800  0.29454800  0.12665900  1
  O  O47  1  0.50647200  0.29454800  0.37334100  1
loop_
_geom_bond_atom_site_label_1
_geom_bond_atom_site_label_2
_geom_bond_distance
_geom_bond_site_symmetry_2
Ca0 O41 2.421253 1_555
Ca0 O40 2.421253 1_455
Ca0 O25 2.478438 1_555
Ca0 O24 2.478438 1_555
Ca0 O32 2.485899 1_555
Ca0 O33 2.485899 1_555
Ca0 O22 2.495479 1_555
Ca0 O23 2.495479 1_555
Ca1 O42 2.421253 1_655
Ca1 O43 2.421253 1_555
Ca1 O26 2.478438 1_555
Ca1 O27 2.478438 1_555
Ca1 O34 2.485899 1_555
Ca1 O35 2.485899 1_555
Ca1 O20 2.495479 1_555
Ca1 O21 2.495479 1_555
Ca2 O45 2.421253 1_555
Ca2 O44 2.421253 1_655
Ca2 O28 2.478438 1_555
Ca2 O29 2.478438 1_555
Ca2 O37 2.485899 1_555
Ca2 O36 2.485899 1_555
Ca2 O18 2.495479 1_555
Ca2 O19 2.495479 1_555
Ca3 O47 2.421253 1_555
Ca3 O46 2.421253 1_455
Ca3 O30 2.478438 1_555
Ca3 O31 2.478438 1_555
Ca3 O39 2.485899 1_555
Ca3 O38 2.485899 1_555
Ca3 O16 2.495479 1_555
Ca3 O17 2.495479 1_555
Mn0 O8 1.599613 1_655
Mn0 O24 1.616771 1_655
Mn0 O16 1.621270 1_655
Mn0 O0 1.638662 1_555
Mn1 O9 1.599613 1_555
Mn1 O25 1.616771 1_555
Mn1 O17 1.621270 1_555
Mn1 O1 1.638662 1_555
Mn2 O10 1.599613 1_455
Mn2 O26 1.616771 1_455
Mn2 O18 1.621270 1_465
Mn2 O2 1.638662 1_555
Mn3 O11 1.599613 1_555
Mn3 O27 1.616771 1_555
Mn3 O19 1.621270 1_565
Mn3 O3 1.638662 1_555
Mn4 O12 1.599613 1_455
Mn4 O28 1.616771 1_455
Mn4 O20 1.621270 1_455
Mn4 O4 1.638662 1_555
Mn5 O13 1.599613 1_555
Mn5 O29 1.616771 1_555
Mn5 O21 1.621270 1_555
Mn5 O5 1.638662 1_555
Mn6 O14 1.599613 1_655
Mn6 O30 1.616771 1_655
Mn6 O22 1.621270 1_645
Mn6 O6 1.638662 1_555
Mn7 O15 1.599613 1_555
Mn7 O31 1.616771 1_555
Mn7 O23 1.621270 1_545
Mn7 O7 1.638662 1_555
H0 O32 0.989145 1_555
H1 O33 0.989145 1_655
H2 O34 0.989145 1_555
H3 O35 0.989145 1_455
H4 O36 0.989145 1_555
H5 O37 0.989145 1_455
H6 O38 0.989145 1_555
H7 O39 0.989145 1_655
H8 O32 0.979227 1_555
H9 O33 0.979227 1_555
H10 O34 0.979227 1_555
H11 O35 0.979227 1_555
H12 O36 0.979227 1_555
H13 O37 0.979227 1_555
H14 O38 0.979227 1_555
H15 O39 0.979227 1_555
H16 O40 0.988628 1_555
H17 O41 0.988628 1_555
H18 O42 0.988628 1_555
H19 O43 0.988628 1_555
H20 O44 0.988628 1_555
H21 O45 0.988628 1_555
H22 O46 0.988628 1_555
H23 O47 0.988628 1_555
H24 O40 0.979238 1_555
H25 O41 0.979238 1_555
H26 O42 0.979238 1_555
H27 O43 0.979238 1_555
H28 O44 0.979238 1_555
H29 O45 0.979238 1_555
H30 O46 0.979238 1_555
H31 O47 0.979238 1_555
