# generated using pymatgen
data_Zn(BiO2)2
_symmetry_space_group_name_H-M   'P 1'
_cell_length_a   3.38277100
_cell_length_b   11.06907000
_cell_length_c   11.42710300
_cell_angle_alpha   90.00000000
_cell_angle_beta   90.00000000
_cell_angle_gamma   90.00000000
_symmetry_Int_Tables_number   1
_chemical_formula_structural   Zn(BiO2)2
_chemical_formula_sum   'Zn4 Bi8 O16'
_cell_volume   427.87791875
_cell_formula_units_Z   4
loop_
 _symmetry_equiv_pos_site_id
 _symmetry_equiv_pos_as_xyz
  1  'x, y, z'
loop_
 _atom_site_type_symbol
 _atom_site_label
 _atom_site_symmetry_multiplicity
 _atom_site_fract_x
 _atom_site_fract_y
 _atom_site_fract_z
 _atom_site_occupancy
  Zn  Zn0  1  0.25000000  0.19822200  0.13789600  1
  Zn  Zn1  1  0.75000000  0.80177800  0.86210400  1
  Zn  Zn2  1  0.25000000  0.69822200  0.36210400  1
  Zn  Zn3  1  0.75000000  0.30177800  0.63789600  1
  Bi  Bi0  1  0.75000000  0.40499200  0.37059700  1
  Bi  Bi1  1  0.25000000  0.09500800  0.87059700  1
  Bi  Bi2  1  0.75000000  0.90499200  0.12940300  1
  Bi  Bi3  1  0.25000000  0.59500800  0.62940300  1
  Bi  Bi4  1  0.25000000  0.59540400  0.10414500  1
  Bi  Bi5  1  0.75000000  0.40459600  0.89585500  1
  Bi  Bi6  1  0.25000000  0.09540400  0.39585500  1
  Bi  Bi7  1  0.75000000  0.90459600  0.60414500  1
  O  O0  1  0.75000000  0.96905700  0.40760300  1
  O  O1  1  0.25000000  0.03094300  0.59239700  1
  O  O2  1  0.75000000  0.46905700  0.09239700  1
  O  O3  1  0.25000000  0.53094300  0.90760300  1
  O  O4  1  0.75000000  0.97801600  0.79510200  1
  O  O5  1  0.25000000  0.02198400  0.20489800  1
  O  O6  1  0.75000000  0.47801600  0.70489800  1
  O  O7  1  0.25000000  0.52198400  0.29510200  1
  O  O8  1  0.75000000  0.67848800  0.48038300  1
  O  O9  1  0.25000000  0.32151200  0.51961700  1
  O  O10  1  0.75000000  0.17848800  0.01961700  1
  O  O11  1  0.25000000  0.82151200  0.98038300  1
  O  O12  1  0.25000000  0.75419300  0.74241900  1
  O  O13  1  0.75000000  0.24580700  0.25758100  1
  O  O14  1  0.75000000  0.74580700  0.24241900  1
  O  O15  1  0.25000000  0.25419300  0.75758100  1
loop_
_geom_bond_atom_site_label_1
_geom_bond_atom_site_label_2
_geom_bond_distance
_geom_bond_site_symmetry_2
Bi0 O13 2.184624 1_555
Bi0 O7 2.298265 1_655
Bi0 O7 2.298265 1_555
Bi0 O9 2.571848 1_555
Bi0 O9 2.571848 1_655
Bi1 O15 2.184624 1_555
Bi1 O4 2.298265 1_545
Bi1 O4 2.298265 1_445
Bi1 O10 2.571848 1_456
Bi1 O10 2.571848 1_556
Bi2 O14 2.184624 1_555
Bi2 O5 2.298265 1_565
Bi2 O5 2.298265 1_665
Bi2 O11 2.571848 1_554
Bi2 O11 2.571848 1_654
Bi3 O12 2.184624 1_555
Bi3 O6 2.298265 1_455
Bi3 O6 2.298265 1_555
Bi3 O8 2.571848 1_555
Bi3 O8 2.571848 1_455
Bi4 O2 2.198802 1_555
Bi4 O2 2.198802 1_455
Bi4 O7 2.328511 1_555
Bi4 O3 2.356525 1_554
Bi5 O3 2.198802 1_555
Bi5 O3 2.198802 1_655
Bi5 O6 2.328511 1_555
Bi5 O2 2.356525 1_556
Bi6 O0 2.198802 1_545
Bi6 O0 2.198802 1_445
Bi6 O5 2.328511 1_555
Bi6 O1 2.356525 1_555
Bi7 O1 2.198802 1_665
Bi7 O1 2.198802 1_565
Bi7 O4 2.328511 1_555
Bi7 O0 2.356525 1_555
O4 Zn1 2.095659 1_555
O5 Zn0 2.095659 1_555
O6 Zn3 2.095659 1_555
O7 Zn2 2.095659 1_555
O8 Zn2 2.176071 1_655
O8 Zn2 2.176071 1_555
O9 Zn3 2.176071 1_455
O9 Zn3 2.176071 1_555
O10 Zn0 2.176071 1_555
O10 Zn0 2.176071 1_655
O11 Zn1 2.176071 1_555
O11 Zn1 2.176071 1_455
O12 Zn1 2.238011 1_455
O12 Zn1 2.238011 1_555
O13 Zn0 2.238011 1_555
O13 Zn0 2.238011 1_655
O14 Zn2 2.238011 1_655
O14 Zn2 2.238011 1_555
O15 Zn3 2.238011 1_555
O15 Zn3 2.238011 1_455
