# generated using pymatgen
data_CuPb5Se4(ClO3)4
_symmetry_space_group_name_H-M   'P 1'
_cell_length_a   12.90879291
_cell_length_b   12.90879291
_cell_length_c   14.38775719
_cell_angle_alpha   79.56461841
_cell_angle_beta   79.56461841
_cell_angle_gamma   24.69582389
_symmetry_Int_Tables_number   1
_chemical_formula_structural   CuPb5Se4(ClO3)4
_chemical_formula_sum   'Cu2 Pb10 Se8 Cl8 O24'
_cell_volume   984.32167119
_cell_formula_units_Z   2
loop_
 _symmetry_equiv_pos_site_id
 _symmetry_equiv_pos_as_xyz
  1  'x, y, z'
loop_
 _atom_site_type_symbol
 _atom_site_label
 _atom_site_symmetry_multiplicity
 _atom_site_fract_x
 _atom_site_fract_y
 _atom_site_fract_z
 _atom_site_occupancy
  Cu  Cu0  1  0.50000000  0.50000000  0.50000000  1
  Cu  Cu1  1  0.50000000  0.50000000  0.00000000  1
  Pb  Pb0  1  0.94827200  0.83003800  0.17628600  1
  Pb  Pb1  1  0.16996200  0.05172800  0.32371400  1
  Pb  Pb2  1  0.05172800  0.16996200  0.82371400  1
  Pb  Pb3  1  0.83003800  0.94827200  0.67628600  1
  Pb  Pb4  1  0.74571800  0.71641600  0.36917100  1
  Pb  Pb5  1  0.28358400  0.25428200  0.13082900  1
  Pb  Pb6  1  0.25428200  0.28358400  0.63082900  1
  Pb  Pb7  1  0.71641600  0.74571800  0.86917100  1
  Pb  Pb8  1  0.56475700  0.43524300  0.25000000  1
  Pb  Pb9  1  0.43524300  0.56475700  0.75000000  1
  Se  Se0  1  0.34000700  0.33470800  0.32297900  1
  Se  Se1  1  0.66529200  0.65999300  0.17702100  1
  Se  Se2  1  0.65999300  0.66529200  0.67702100  1
  Se  Se3  1  0.33470800  0.34000700  0.82297900  1
  Se  Se4  1  0.96578100  0.94420700  0.41747200  1
  Se  Se5  1  0.05579300  0.03421900  0.08252800  1
  Se  Se6  1  0.03421900  0.05579300  0.58252800  1
  Se  Se7  1  0.94420700  0.96578100  0.91747200  1
  Cl  Cl0  1  0.19708800  0.21972800  0.45846300  1
  Cl  Cl1  1  0.78027200  0.80291200  0.04153700  1
  Cl  Cl2  1  0.80291200  0.78027200  0.54153700  1
  Cl  Cl3  1  0.21972800  0.19708800  0.95846300  1
  Cl  Cl4  1  0.41869800  0.35544100  0.53807200  1
  Cl  Cl5  1  0.64455900  0.58130200  0.96192800  1
  Cl  Cl6  1  0.58130200  0.64455900  0.46192800  1
  Cl  Cl7  1  0.35544100  0.41869800  0.03807200  1
  O  O0  1  0.55324900  0.07582800  0.26097300  1
  O  O1  1  0.92417200  0.44675100  0.23902700  1
  O  O2  1  0.44675100  0.92417200  0.73902700  1
  O  O3  1  0.07582800  0.55324900  0.76097300  1
  O  O4  1  0.88217900  0.99051000  0.31210700  1
  O  O5  1  0.00949000  0.11782100  0.18789300  1
  O  O6  1  0.11782100  0.00949000  0.68789300  1
  O  O7  1  0.99051000  0.88217900  0.81210700  1
  O  O8  1  0.06665600  0.54534400  0.27463500  1
  O  O9  1  0.45465600  0.93334400  0.22536500  1
  O  O10  1  0.93334400  0.45465600  0.72536500  1
  O  O11  1  0.54534400  0.06665600  0.77463500  1
  O  O12  1  0.26229000  0.73484700  0.39294300  1
  O  O13  1  0.26515300  0.73771000  0.10705700  1
  O  O14  1  0.73771000  0.26515300  0.60705700  1
  O  O15  1  0.73484700  0.26229000  0.89294300  1
  O  O16  1  0.79755300  0.21553100  0.41388700  1
  O  O17  1  0.78446900  0.20244700  0.08611300  1
  O  O18  1  0.20244700  0.78446900  0.58611300  1
  O  O19  1  0.21553100  0.79755300  0.91388700  1
  O  O20  1  0.34357400  0.45860100  0.26065500  1
  O  O21  1  0.54139900  0.65642600  0.23934500  1
  O  O22  1  0.65642600  0.54139900  0.73934500  1
  O  O23  1  0.45860100  0.34357400  0.76065500  1
loop_
_geom_bond_atom_site_label_1
_geom_bond_atom_site_label_2
_geom_bond_distance
_geom_bond_site_symmetry_2
Cu0 O18 2.016900 1_555
Cu0 O16 2.016900 1_555
Cu0 O14 2.023907 1_555
Cu0 O12 2.023907 1_555
Cu1 O19 2.016900 1_554
Cu1 O17 2.016900 1_555
Cu1 O13 2.023907 1_555
Cu1 O15 2.023907 1_554
Cl0 Pb4 2.924747 1_455
Cl0 Pb6 3.143952 1_555
Cl0 Pb4 3.183932 1_545
Cl1 Pb5 2.924747 1_565
Cl1 Pb7 3.143952 1_554
Cl1 Pb5 3.183932 1_655
Cl2 Pb6 2.924747 1_655
Cl2 Pb4 3.143952 1_555
Cl2 Pb6 3.183932 1_565
Cl3 Pb7 2.924747 1_545
Cl3 Pb5 3.143952 1_556
Cl3 Pb7 3.183932 1_455
Cl4 Cu0 2.804272 1_555
Cl4 Pb3 3.016852 1_545
Cl4 Pb6 3.041203 1_555
Cl5 Cu1 2.804272 1_556
Cl5 Pb2 3.016852 1_655
Cl5 Pb7 3.041203 1_555
Cl6 Cu0 2.804272 1_555
Cl6 Pb1 3.016852 1_565
Cl6 Pb4 3.041203 1_555
Cl7 Cu1 2.804272 1_555
Cl7 Pb0 3.016852 1_455
Cl7 Pb5 3.041203 1_555
O0 Se0 1.736685 1_555
O0 Pb5 2.675450 1_555
O0 Pb0 2.702771 1_545
O0 Pb4 2.821501 1_545
O1 Se1 1.736685 1_555
O1 Pb4 2.675450 1_555
O1 Pb1 2.702771 1_655
O1 Pb5 2.821501 1_655
O2 Se2 1.736685 1_555
O2 Pb7 2.675450 1_555
O2 Pb2 2.702771 1_565
O2 Pb6 2.821501 1_565
O3 Se3 1.736685 1_555
O3 Pb6 2.675450 1_555
O3 Pb3 2.702771 1_455
O3 Pb7 2.821501 1_455
O4 Se4 1.706573 1_555
O4 Pb0 2.547308 1_555
O4 Pb8 2.696370 1_565
O5 Se5 1.706573 1_555
O5 Pb1 2.547308 1_555
O5 Pb8 2.696370 1_455
O6 Se6 1.706573 1_555
O6 Pb2 2.547308 1_555
O6 Pb9 2.696370 1_545
O7 Se7 1.706573 1_555
O7 Pb3 2.547308 1_555
O7 Pb9 2.696370 1_655
O8 Se0 1.760189 1_555
O8 Pb4 2.512570 1_455
O8 Pb0 2.556982 1_455
O8 Pb5 2.799756 1_555
O9 Se1 1.760189 1_555
O9 Pb5 2.512570 1_565
O9 Pb1 2.556982 1_565
O9 Pb4 2.799756 1_555
O10 Se2 1.760189 1_555
O10 Pb6 2.512570 1_655
O10 Pb2 2.556982 1_655
O10 Pb7 2.799756 1_555
O11 Se3 1.760189 1_555
O11 Pb7 2.512570 1_545
O11 Pb3 2.556982 1_545
O11 Pb6 2.799756 1_555
O12 Se4 1.771593 1_455
O12 Pb8 2.639283 1_555
O13 Se5 1.771593 1_565
O13 Pb8 2.639283 1_555
O14 Se6 1.771593 1_655
O14 Pb9 2.639283 1_555
O15 Se7 1.771593 1_545
O15 Pb9 2.639283 1_555
O16 Se4 1.772077 1_545
O16 Pb8 2.700348 1_555
O17 Se5 1.772077 1_655
O17 Pb8 2.700348 1_555
O18 Se6 1.772077 1_565
O18 Pb9 2.700348 1_555
O19 Se7 1.772077 1_455
O19 Pb9 2.700348 1_555
O20 Se0 1.721433 1_555
O20 Pb0 2.485860 1_455
O20 Pb8 2.561339 1_555
O21 Se1 1.721433 1_555
O21 Pb1 2.485860 1_565
O21 Pb8 2.561339 1_555
O22 Se2 1.721433 1_555
O22 Pb2 2.485860 1_655
O22 Pb9 2.561339 1_555
O23 Se3 1.721433 1_555
O23 Pb3 2.485860 1_545
O23 Pb9 2.561339 1_555
