# generated using pymatgen
data_Cd5H2(NO7)2
_symmetry_space_group_name_H-M   'P 1'
_cell_length_a   9.87758845
_cell_length_b   9.87758845
_cell_length_c   5.63912063
_cell_angle_alpha   89.70406348
_cell_angle_beta   89.70406348
_cell_angle_gamma   42.55524993
_symmetry_Int_Tables_number   1
_chemical_formula_structural   Cd5H2(NO7)2
_chemical_formula_sum   'Cd5 H2 N2 O14'
_cell_volume   372.08871400
_cell_formula_units_Z   1
loop_
 _symmetry_equiv_pos_site_id
 _symmetry_equiv_pos_as_xyz
  1  'x, y, z'
loop_
 _atom_site_type_symbol
 _atom_site_label
 _atom_site_symmetry_multiplicity
 _atom_site_fract_x
 _atom_site_fract_y
 _atom_site_fract_z
 _atom_site_occupancy
  Cd  Cd0  1  0.88465700  0.88465700  0.01912300  1
  Cd  Cd1  1  0.11534300  0.11534300  0.98087700  1
  Cd  Cd2  1  0.76532200  0.23467800  0.50000000  1
  Cd  Cd3  1  0.23467800  0.76532200  0.50000000  1
  Cd  Cd4  1  0.50000000  0.50000000  0.00000000  1
  H  H0  1  0.82972100  0.82972100  0.74261900  1
  H  H1  1  0.17027900  0.17027900  0.25738100  1
  N  N0  1  0.74728400  0.74728400  0.24490000  1
  N  N1  1  0.25271600  0.25271600  0.75510000  1
  O  O0  1  0.27922400  0.81629100  0.12925200  1
  O  O1  1  0.72077600  0.18370900  0.87074800  1
  O  O2  1  0.18370900  0.72077600  0.87074800  1
  O  O3  1  0.81629100  0.27922400  0.12925200  1
  O  O4  1  0.62776300  0.93386300  0.20149400  1
  O  O5  1  0.37223700  0.06613700  0.79850600  1
  O  O6  1  0.06613700  0.37223700  0.79850600  1
  O  O7  1  0.93386300  0.62776300  0.20149400  1
  O  O8  1  0.44913700  0.44913700  0.35610900  1
  O  O9  1  0.55086300  0.55086300  0.64389100  1
  O  O10  1  0.68479300  0.68479300  0.32474700  1
  O  O11  1  0.31520700  0.31520700  0.67525300  1
  O  O12  1  0.92949600  0.92949600  0.38245800  1
  O  O13  1  0.07050400  0.07050400  0.61754200  1
loop_
_geom_bond_atom_site_label_1
_geom_bond_atom_site_label_2
_geom_bond_distance
_geom_bond_site_symmetry_2
Cd0 H0 1.863174 1_554
Cd0 O12 2.213146 1_555
Cd0 O2 2.233813 1_654
Cd0 O1 2.233813 1_564
Cd0 O7 2.427748 1_555
Cd0 O4 2.427748 1_555
Cd1 H1 1.863174 1_556
Cd1 O13 2.213146 1_555
Cd1 O0 2.233813 1_546
Cd1 O3 2.233813 1_456
Cd1 O5 2.427748 1_555
Cd1 O6 2.427748 1_555
Cd2 O13 2.227954 1_655
Cd2 O12 2.227954 1_545
Cd2 O3 2.263636 1_555
Cd2 O1 2.263636 1_555
Cd2 O9 2.271864 1_555
Cd2 O8 2.271864 1_555
Cd3 O13 2.227954 1_565
Cd3 O12 2.227954 1_455
Cd3 O0 2.263636 1_555
Cd3 O2 2.263636 1_555
Cd3 O9 2.271864 1_555
Cd3 O8 2.271864 1_555
Cd4 O9 2.210989 1_554
Cd4 O8 2.210989 1_555
Cd4 O3 2.239916 1_555
Cd4 O0 2.239916 1_555
Cd4 O1 2.239916 1_554
Cd4 O2 2.239916 1_554
N0 O10 1.233022 1_555
N0 O4 1.281814 1_555
N0 O7 1.281814 1_555
N1 O11 1.233022 1_555
N1 O5 1.281814 1_555
N1 O6 1.281814 1_555
