# generated using pymatgen
data_Mg17Al11Zn
_symmetry_space_group_name_H-M   'P 1'
_cell_length_a   9.09713523
_cell_length_b   9.09713523
_cell_length_c   9.10338404
_cell_angle_alpha   70.56165629
_cell_angle_beta   70.56165629
_cell_angle_gamma   109.46659961
_symmetry_Int_Tables_number   1
_chemical_formula_structural   Mg17Al11Zn
_chemical_formula_sum   'Mg17 Al11 Zn1'
_cell_volume   580.45274503
_cell_formula_units_Z   1
loop_
 _symmetry_equiv_pos_site_id
 _symmetry_equiv_pos_as_xyz
  1  'x, y, z'
loop_
 _atom_site_type_symbol
 _atom_site_label
 _atom_site_symmetry_multiplicity
 _atom_site_fract_x
 _atom_site_fract_y
 _atom_site_fract_z
 _atom_site_occupancy
  Mg  Mg0  1  0.00068000  0.00068000  0.34415700  1
  Mg  Mg1  1  0.31553100  0.31553100  0.28693200  1
  Mg  Mg2  1  0.99965600  0.99965600  0.99927700  1
  Mg  Mg3  1  0.60388200  0.60388200  0.71507700  1
  Mg  Mg4  1  0.34591700  0.34591700  0.65496600  1
  Mg  Mg5  1  0.39938500  0.68418700  0.00001600  1
  Mg  Mg6  1  0.68530700  0.99855400  0.60352600  1
  Mg  Mg7  1  0.28561100  0.60114700  0.39848900  1
  Mg  Mg8  1  0.65545700  0.99962400  0.99932900  1
  Mg  Mg9  1  0.99994700  0.39799700  0.31592500  1
  Mg  Mg10  1  0.31595200  0.71435900  0.68430500  1
  Mg  Mg11  1  0.71435900  0.31595200  0.68430500  1
  Mg  Mg12  1  0.39799700  0.99994700  0.31592500  1
  Mg  Mg13  1  0.99962400  0.65545700  0.99932900  1
  Mg  Mg14  1  0.60114700  0.28561100  0.39848900  1
  Mg  Mg15  1  0.99855400  0.68530700  0.60352600  1
  Mg  Mg16  1  0.68418700  0.39938500  0.00001600  1
  Al  Al0  1  0.63578700  0.63578700  0.17630800  1
  Al  Al1  1  0.18532300  0.36680100  0.99996100  1
  Al  Al2  1  0.99889400  0.18247200  0.63467500  1
  Al  Al3  1  0.63343300  0.81821200  0.36630800  1
  Al  Al4  1  0.81494900  0.18124400  0.18506700  1
  Al  Al5  1  0.00010500  0.36624800  0.81441500  1
  Al  Al6  1  0.36624800  0.00010500  0.81441500  1
  Al  Al7  1  0.18124400  0.81494900  0.18506700  1
  Al  Al8  1  0.81821200  0.63343300  0.36630800  1
  Al  Al9  1  0.18247200  0.99889400  0.63467500  1
  Al  Al10  1  0.36680100  0.18532300  0.99996100  1
  Zn  Zn0  1  0.81357100  0.81357100  0.81925200  1
loop_
_geom_bond_atom_site_label_1
_geom_bond_atom_site_label_2
_geom_bond_distance
_geom_bond_site_symmetry_2
Mg0 Mg1 3.037252 1_555
Mg0 Mg6 3.038148 1_445
Mg0 Mg15 3.038148 1_445
Mg0 Mg2 3.145788 1_444
Mg1 Mg16 3.128869 1_555
Mg1 Mg5 3.128869 1_555
Mg1 Mg7 3.146454 1_555
Mg1 Mg14 3.146454 1_555
Mg1 Mg9 3.152391 1_455
Mg1 Mg12 3.152391 1_545
Mg2 Mg8 3.130970 1_555
Mg2 Mg4 3.148457 1_665
Mg2 Zn0 3.193777 1_555
Mg3 Zn0 2.856537 1_555
Mg3 Mg4 3.058212 1_555
Mg3 Mg5 3.110981 1_556
Mg3 Mg6 3.125824 1_555
Mg4 Mg7 3.039194 1_555
Mg5 Mg8 3.030519 1_554
Mg5 Mg6 3.145629 1_554
Mg5 Zn0 3.149357 1_554
Mg5 Mg7 3.155377 1_555
Mg5 Mg9 3.163611 1_455
Mg6 Zn0 2.946920 1_555
Mg6 Mg9 3.162185 1_565
Mg7 Mg9 3.123655 1_455
Mg8 Zn0 3.085609 1_555
Mg10 Mg13 3.041223 1_455
Mg10 Mg12 3.129784 1_555
Mg10 Mg6 3.132883 1_555
Mg10 Mg5 3.158674 1_556
Mg10 Mg7 3.158929 1_555
Mg10 Mg15 3.159386 1_455
Mg10 Mg3 3.163078 1_555
Mg11 Mg8 3.041223 1_545
Mg11 Mg9 3.129784 1_555
Mg11 Mg15 3.132883 1_555
Mg11 Mg16 3.158674 1_556
Mg11 Mg14 3.158929 1_555
Mg11 Mg6 3.159386 1_545
Mg11 Mg3 3.163078 1_555
Mg12 Mg8 3.051143 1_554
Mg12 Mg14 3.123655 1_565
Mg12 Mg7 3.158091 1_555
Mg12 Mg15 3.162185 1_455
Mg12 Mg16 3.163611 1_565
Mg13 Mg16 3.030519 1_556
Mg13 Mg9 3.051143 1_556
Mg13 Zn0 3.085609 1_555
Mg13 Mg2 3.130970 1_555
Mg14 Mg4 3.039194 1_555
Mg14 Mg6 3.151031 1_545
Mg14 Mg16 3.155377 1_555
Mg14 Mg9 3.158091 1_555
Mg15 Zn0 2.946920 1_555
Mg15 Mg3 3.125824 1_555
Mg15 Mg16 3.145629 1_556
Mg15 Mg7 3.151031 1_655
Mg16 Mg3 3.110981 1_554
Mg16 Zn0 3.149357 1_554
Al0 Zn0 2.656188 1_554
Al0 Al3 2.766903 1_555
Al0 Al8 2.766903 1_555
Al0 Mg1 2.902954 1_555
Al0 Mg7 2.992733 1_555
Al0 Mg14 2.992733 1_555
Al0 Mg13 3.073604 1_554
Al0 Mg8 3.073604 1_554
Al0 Mg5 3.138854 1_555
Al0 Mg16 3.138854 1_555
Al0 Mg2 3.179182 1_554
Al1 Al10 2.695880 1_555
Al1 Al4 2.752891 1_456
Al1 Al5 2.754348 1_555
Al1 Mg5 2.895301 1_556
Al1 Mg9 2.971798 1_456
Al1 Mg10 2.973546 1_555
Al1 Mg0 3.091042 1_556
Al1 Mg4 3.092282 1_555
Al1 Mg1 3.172091 1_556
Al1 Mg3 3.179126 1_555
Al1 Mg2 3.204541 1_445
Al2 Al5 2.700535 1_655
Al2 Al9 2.727076 1_645
Al2 Zn0 2.741955 1_545
Al2 Mg9 2.906280 1_555
Al2 Mg6 2.948019 1_545
Al2 Mg1 2.973235 1_655
Al2 Mg8 3.083128 1_545
Al2 Mg4 3.106990 1_655
Al2 Mg11 3.171815 1_555
Al2 Mg7 3.182458 1_655
Al2 Mg2 3.182989 1_545
Al3 Al4 2.698315 1_565
Al3 Al8 2.744917 1_555
Al3 Mg10 2.900069 1_555
Al3 Mg7 2.971643 1_555
Al3 Mg3 2.986076 1_555
Al3 Mg8 3.096590 1_554
Al3 Mg0 3.096801 1_665
Al3 Mg12 3.168623 1_555
Al3 Mg6 3.177728 1_555
Al3 Mg2 3.200425 1_554
Al4 Al5 2.757324 1_654
Al4 Mg14 2.898717 1_555
Al4 Mg9 2.970773 1_555
Al4 Mg16 2.978774 1_555
Al4 Mg0 3.089596 1_655
Al4 Mg8 3.096521 1_544
Al4 Mg12 3.168888 1_545
Al4 Mg6 3.186529 1_545
Al4 Mg2 3.198592 1_544
Al5 Mg15 2.906371 1_455
Al5 Mg10 2.976746 1_555
Al5 Mg16 2.981557 1_456
Al5 Mg4 3.092736 1_555
Al5 Mg8 3.093250 1_445
Al5 Mg11 3.160181 1_455
Al5 Mg7 3.165213 1_555
Al5 Mg2 3.194492 1_445
Al6 Al9 2.700535 1_545
Al6 Al7 2.757324 1_546
Al6 Mg6 2.906371 1_545
Al6 Mg11 2.976746 1_555
Al6 Mg5 2.981557 1_546
Al6 Mg4 3.092736 1_555
Al6 Mg13 3.093250 1_445
Al6 Mg10 3.160181 1_545
Al6 Mg14 3.165213 1_555
Al6 Mg2 3.194492 1_445
Al7 Al8 2.698315 1_455
Al7 Mg7 2.898717 1_555
Al7 Mg12 2.970773 1_555
Al7 Mg5 2.978774 1_555
Al7 Mg0 3.089596 1_565
Al7 Mg13 3.096521 1_454
Al7 Mg9 3.168888 1_455
Al7 Mg15 3.186529 1_455
Al7 Mg2 3.198592 1_454
Al8 Mg11 2.900069 1_555
Al8 Mg14 2.971643 1_555
Al8 Mg3 2.986076 1_555
Al8 Mg13 3.096590 1_554
Al8 Mg0 3.096801 1_665
Al8 Mg9 3.168623 1_555
Al8 Mg15 3.177728 1_555
Al8 Mg2 3.200425 1_554
Al9 Zn0 2.741955 1_455
Al9 Mg12 2.906280 1_555
Al9 Mg15 2.948019 1_455
Al9 Mg1 2.973235 1_565
Al9 Mg13 3.083128 1_455
Al9 Mg4 3.106990 1_565
Al9 Mg10 3.171815 1_555
Al9 Mg14 3.182458 1_565
Al9 Mg2 3.182989 1_455
Al10 Al7 2.752891 1_546
Al10 Al6 2.754348 1_555
Al10 Mg16 2.895301 1_556
Al10 Mg12 2.971798 1_546
Al10 Mg11 2.973546 1_555
Al10 Mg0 3.091042 1_556
Al10 Mg4 3.092282 1_555
Al10 Mg1 3.172091 1_556
Al10 Mg3 3.179126 1_555
Al10 Mg2 3.204541 1_445
