# generated using pymatgen
data_YbH7C4O11
_symmetry_space_group_name_H-M   'P 1'
_cell_length_a   8.88828100
_cell_length_b   8.88828100
_cell_length_c   12.99625200
_cell_angle_alpha   90.00000000
_cell_angle_beta   90.00000000
_cell_angle_gamma   90.00000000
_symmetry_Int_Tables_number   1
_chemical_formula_structural   YbH7C4O11
_chemical_formula_sum   'Yb4 H28 C16 O44'
_cell_volume   1026.72391099
_cell_formula_units_Z   4
loop_
 _symmetry_equiv_pos_site_id
 _symmetry_equiv_pos_as_xyz
  1  'x, y, z'
loop_
 _atom_site_type_symbol
 _atom_site_label
 _atom_site_symmetry_multiplicity
 _atom_site_fract_x
 _atom_site_fract_y
 _atom_site_fract_z
 _atom_site_occupancy
  Yb  Yb0  1  0.00000000  0.50000000  0.96028700  1
  Yb  Yb1  1  0.00000000  0.50000000  0.46028700  1
  Yb  Yb2  1  0.50000000  0.00000000  0.53971300  1
  Yb  Yb3  1  0.50000000  0.00000000  0.03971300  1
  H  H0  1  0.00000000  0.00000000  0.72819400  1
  H  H1  1  0.50000000  0.50000000  0.22819400  1
  H  H2  1  0.50000000  0.50000000  0.77180600  1
  H  H3  1  0.00000000  0.00000000  0.27180600  1
  H  H4  1  0.00828300  0.19483000  0.67490600  1
  H  H5  1  0.99171700  0.80517000  0.67490600  1
  H  H6  1  0.69483000  0.49171700  0.17490600  1
  H  H7  1  0.30517000  0.50828300  0.17490600  1
  H  H8  1  0.49171700  0.30517000  0.82509400  1
  H  H9  1  0.50828300  0.69483000  0.82509400  1
  H  H10  1  0.80517000  0.00828300  0.32509400  1
  H  H11  1  0.19483000  0.99171700  0.32509400  1
  H  H12  1  0.93634000  0.18168100  0.79175100  1
  H  H13  1  0.06366000  0.81831900  0.79175100  1
  H  H14  1  0.68168100  0.56366000  0.29175100  1
  H  H15  1  0.31831900  0.43634000  0.29175100  1
  H  H16  1  0.56366000  0.31831900  0.70824900  1
  H  H17  1  0.43634000  0.68168100  0.70824900  1
  H  H18  1  0.81831900  0.93634000  0.20824900  1
  H  H19  1  0.18168100  0.06366000  0.20824900  1
  H  H20  1  0.08134300  0.53280700  0.72450000  1
  H  H21  1  0.91865700  0.46719300  0.72450000  1
  H  H22  1  0.03280700  0.41865700  0.22450000  1
  H  H23  1  0.96719300  0.58134300  0.22450000  1
  H  H24  1  0.41865700  0.96719300  0.77550000  1
  H  H25  1  0.58134300  0.03280700  0.77550000  1
  H  H26  1  0.46719300  0.08134300  0.27550000  1
  H  H27  1  0.53280700  0.91865700  0.27550000  1
  C  C0  1  0.28594600  0.27647100  0.94754700  1
  C  C1  1  0.71405400  0.72352900  0.94754700  1
  C  C2  1  0.77647100  0.21405400  0.44754700  1
  C  C3  1  0.22352900  0.78594600  0.44754700  1
  C  C4  1  0.21405400  0.22352900  0.55245300  1
  C  C5  1  0.78594600  0.77647100  0.55245300  1
  C  C6  1  0.72352900  0.28594600  0.05245300  1
  C  C7  1  0.27647100  0.71405400  0.05245300  1
  C  C8  1  0.20303900  0.22504000  0.05513300  1
  C  C9  1  0.79696100  0.77496000  0.05513300  1
  C  C10  1  0.72504000  0.29696100  0.55513300  1
  C  C11  1  0.27496000  0.70303900  0.55513300  1
  C  C12  1  0.29696100  0.27496000  0.44486700  1
  C  C13  1  0.70303900  0.72504000  0.44486700  1
  C  C14  1  0.77496000  0.20303900  0.94486700  1
  C  C15  1  0.22504000  0.79696100  0.94486700  1
  O  O0  1  0.95347100  0.12810800  0.72445300  1
  O  O1  1  0.04652900  0.87189200  0.72445300  1
  O  O2  1  0.62810800  0.54652900  0.22445300  1
  O  O3  1  0.37189200  0.45347100  0.22445300  1
  O  O4  1  0.54652900  0.37189200  0.77554700  1
  O  O5  1  0.45347100  0.62810800  0.77554700  1
  O  O6  1  0.87189200  0.95347100  0.27554700  1
  O  O7  1  0.12810800  0.04652900  0.27554700  1
  O  O8  1  0.00000000  0.50000000  0.76978300  1
  O  O9  1  0.00000000  0.50000000  0.26978300  1
  O  O10  1  0.50000000  0.00000000  0.73021700  1
  O  O11  1  0.50000000  0.00000000  0.23021700  1
  O  O12  1  0.21498000  0.37104800  0.89641300  1
  O  O13  1  0.78502000  0.62895200  0.89641300  1
  O  O14  1  0.87104800  0.28502000  0.39641300  1
  O  O15  1  0.12895200  0.71498000  0.39641300  1
  O  O16  1  0.28502000  0.12895200  0.60358700  1
  O  O17  1  0.71498000  0.87104800  0.60358700  1
  O  O18  1  0.62895200  0.21498000  0.10358700  1
  O  O19  1  0.37104800  0.78502000  0.10358700  1
  O  O20  1  0.41173300  0.21617100  0.93153600  1
  O  O21  1  0.58826700  0.78382900  0.93153600  1
  O  O22  1  0.71617100  0.08826700  0.43153600  1
  O  O23  1  0.28382900  0.91173300  0.43153600  1
  O  O24  1  0.08826700  0.28382900  0.56846400  1
  O  O25  1  0.91173300  0.71617100  0.56846400  1
  O  O26  1  0.78382900  0.41173300  0.06846400  1
  O  O27  1  0.21617100  0.58826700  0.06846400  1
  O  O28  1  0.26281500  0.11292000  0.09785100  1
  O  O29  1  0.73718500  0.88708000  0.09785100  1
  O  O30  1  0.61292000  0.23718500  0.59785100  1
  O  O31  1  0.38708000  0.76281500  0.59785100  1
  O  O32  1  0.23718500  0.38708000  0.40214900  1
  O  O33  1  0.76281500  0.61292000  0.40214900  1
  O  O34  1  0.88708000  0.26281500  0.90214900  1
  O  O35  1  0.11292000  0.73718500  0.90214900  1
  O  O36  1  0.09335700  0.30381300  0.08133100  1
  O  O37  1  0.90664300  0.69618700  0.08133100  1
  O  O38  1  0.80381300  0.40664300  0.58133100  1
  O  O39  1  0.19618700  0.59335700  0.58133100  1
  O  O40  1  0.40664300  0.19618700  0.41866900  1
  O  O41  1  0.59335700  0.80381300  0.41866900  1
  O  O42  1  0.69618700  0.09335700  0.91866900  1
  O  O43  1  0.30381300  0.90664300  0.91866900  1
loop_
_geom_bond_atom_site_label_1
_geom_bond_atom_site_label_2
_geom_bond_distance
_geom_bond_site_symmetry_2
H0 O1 1.212413 1_545
H0 O0 1.212413 1_455
H1 O3 1.212413 1_555
H1 O2 1.212413 1_555
H2 O5 1.212413 1_555
H2 O4 1.212413 1_555
H3 O7 1.212413 1_555
H3 O6 1.212413 1_445
H4 O0 1.001843 1_455
H5 O1 1.001843 1_655
H6 O2 1.001843 1_555
H7 O3 1.001843 1_555
H8 O4 1.001843 1_555
H9 O5 1.001843 1_555
H10 O6 1.001843 1_545
H11 O7 1.001843 1_565
H12 O0 1.007416 1_555
H12 O34 1.664417 1_555
H13 O1 1.007416 1_555
H13 O35 1.664417 1_555
H14 O2 1.007416 1_555
H14 O33 1.664417 1_555
H15 O3 1.007416 1_555
H15 O32 1.664417 1_555
H16 O4 1.007416 1_555
H16 O30 1.664417 1_555
H17 O5 1.007416 1_555
H17 O31 1.664417 1_555
H18 O6 1.007416 1_555
H18 O29 1.664417 1_555
H19 O7 1.007416 1_555
H19 O28 1.664417 1_555
H20 O8 0.976781 1_555
H21 O8 0.976781 1_655
H22 O9 0.976781 1_555
H23 O9 0.976781 1_655
H24 O10 0.976781 1_565
H25 O10 0.976781 1_555
H26 O11 0.976781 1_555
H27 O11 0.976781 1_565
C0 O12 1.243441 1_555
C0 O20 1.257198 1_555
C1 O13 1.243441 1_555
C1 O21 1.257198 1_555
C2 O14 1.243441 1_555
C2 O22 1.257198 1_555
C3 O15 1.243441 1_555
C3 O23 1.257198 1_555
C4 O16 1.243441 1_555
C4 O24 1.257198 1_555
C5 O17 1.243441 1_555
C5 O25 1.257198 1_555
C6 O18 1.243441 1_555
C6 O26 1.257198 1_555
C7 O19 1.243441 1_555
C7 O27 1.257198 1_555
C8 O36 1.247615 1_555
C8 O28 1.258421 1_555
C9 O37 1.247615 1_555
C9 O29 1.258421 1_555
C10 O38 1.247615 1_555
C10 O30 1.258421 1_555
C11 O39 1.247615 1_555
C11 O31 1.258421 1_555
C12 O40 1.247615 1_555
C12 O32 1.258421 1_555
C13 O41 1.247615 1_555
C13 O33 1.258421 1_555
C14 O42 1.247615 1_555
C14 O34 1.258421 1_555
C15 O43 1.247615 1_555
C15 O35 1.258421 1_555
O8 Yb0 2.475838 1_555
O9 Yb1 2.475838 1_555
O10 Yb2 2.475838 1_555
O11 Yb3 2.475838 1_555
O12 Yb0 2.377805 1_555
O13 Yb0 2.377805 1_655
O14 Yb1 2.377805 1_655
O15 Yb1 2.377805 1_555
O16 Yb2 2.377805 1_555
O17 Yb2 2.377805 1_565
O18 Yb3 2.377805 1_555
O19 Yb3 2.377805 1_565
O20 Yb3 2.506747 1_556
O21 Yb3 2.506747 1_566
O22 Yb2 2.506747 1_555
O23 Yb2 2.506747 1_565
O24 Yb1 2.506747 1_555
O25 Yb1 2.506747 1_655
O26 Yb0 2.506747 1_654
O27 Yb0 2.506747 1_554
O28 Yb3 2.454100 1_555
O29 Yb3 2.454100 1_565
O30 Yb2 2.454100 1_555
O31 Yb2 2.454100 1_565
O32 Yb1 2.454100 1_555
O33 Yb1 2.454100 1_655
O34 Yb0 2.454100 1_655
O35 Yb0 2.454100 1_555
O36 Yb0 2.490775 1_554
O37 Yb0 2.490775 1_654
O38 Yb1 2.490775 1_655
O39 Yb1 2.490775 1_555
O40 Yb2 2.490775 1_555
O41 Yb2 2.490775 1_565
O42 Yb3 2.490775 1_556
O43 Yb3 2.490775 1_566
