# generated using pymatgen
data_SnIr3
_symmetry_space_group_name_H-M   'P 1'
_cell_length_a   5.68603050
_cell_length_b   5.68603050
_cell_length_c   4.53793800
_cell_angle_alpha   90.00000000
_cell_angle_beta   90.00000000
_cell_angle_gamma   120.00000578
_symmetry_Int_Tables_number   1
_chemical_formula_structural   SnIr3
_chemical_formula_sum   'Sn2 Ir6'
_cell_volume   127.05961461
_cell_formula_units_Z   2
loop_
 _symmetry_equiv_pos_site_id
 _symmetry_equiv_pos_as_xyz
  1  'x, y, z'
loop_
 _atom_site_type_symbol
 _atom_site_label
 _atom_site_symmetry_multiplicity
 _atom_site_fract_x
 _atom_site_fract_y
 _atom_site_fract_z
 _atom_site_occupancy
  Sn  Sn0  1  0.33333300  0.66666700  0.75000000  1
  Sn  Sn1  1  0.66666700  0.33333300  0.25000000  1
  Ir  Ir0  1  0.16279100  0.32558300  0.25000000  1
  Ir  Ir1  1  0.67441700  0.83720900  0.25000000  1
  Ir  Ir2  1  0.16279100  0.83720900  0.25000000  1
  Ir  Ir3  1  0.83720900  0.67441700  0.75000000  1
  Ir  Ir4  1  0.32558300  0.16279100  0.75000000  1
  Ir  Ir5  1  0.83720900  0.16279100  0.75000000  1
loop_
_geom_bond_atom_site_label_1
_geom_bond_atom_site_label_2
_geom_bond_distance
_geom_bond_site_symmetry_2
Ir0 Ir1 2.776909 1_445
Ir0 Ir2 2.776909 1_545
Ir0 Ir5 2.778240 1_455
Ir0 Ir5 2.778240 1_454
Ir0 Ir4 2.778246 1_554
Ir0 Ir4 2.778246 1_555
Ir0 Sn0 2.822980 1_555
Ir0 Sn0 2.822980 1_554
Ir0 Sn1 2.843266 1_455
Ir0 Sn1 2.843277 1_555
Ir0 Ir1 2.909121 1_555
Ir0 Ir2 2.909121 1_555
Ir1 Ir2 2.776909 1_655
Ir1 Ir5 2.778240 1_565
Ir1 Ir5 2.778240 1_564
Ir1 Ir3 2.778246 1_554
Ir1 Ir3 2.778246 1_555
Ir1 Sn0 2.822980 1_555
Ir1 Sn0 2.822980 1_554
Ir1 Sn1 2.843266 1_565
Ir1 Sn1 2.843277 1_555
Ir1 Ir2 2.909121 1_555
Ir2 Ir3 2.778240 1_455
Ir2 Ir3 2.778240 1_454
Ir2 Ir4 2.778240 1_564
Ir2 Ir4 2.778240 1_565
Ir2 Sn0 2.822980 1_555
Ir2 Sn0 2.822980 1_554
Ir2 Sn1 2.843271 1_455
Ir2 Sn1 2.843271 1_565
Ir3 Ir4 2.776909 1_665
Ir3 Ir5 2.776909 1_565
Ir3 Sn1 2.822980 1_556
Ir3 Sn1 2.822980 1_555
Ir3 Sn0 2.843266 1_655
Ir3 Sn0 2.843277 1_555
Ir3 Ir4 2.909121 1_555
Ir3 Ir5 2.909121 1_555
Ir4 Ir5 2.776909 1_455
Ir4 Sn1 2.822980 1_556
Ir4 Sn1 2.822980 1_555
Ir4 Sn0 2.843266 1_545
Ir4 Sn0 2.843277 1_555
Ir4 Ir5 2.909121 1_555
Ir5 Sn1 2.822980 1_556
Ir5 Sn1 2.822980 1_555
Ir5 Sn0 2.843271 1_545
Ir5 Sn0 2.843271 1_655
