# generated using pymatgen
data_KBiPCO7
_symmetry_space_group_name_H-M   'P 1'
_cell_length_a   7.07783000
_cell_length_b   5.77053200
_cell_length_c   10.10706397
_cell_angle_alpha   89.40336746
_cell_angle_beta   90.00000000
_cell_angle_gamma   90.00000000
_symmetry_Int_Tables_number   1
_chemical_formula_structural   KBiPCO7
_chemical_formula_sum   'K2 Bi2 P2 C2 O14'
_cell_volume   412.77886148
_cell_formula_units_Z   2
loop_
 _symmetry_equiv_pos_site_id
 _symmetry_equiv_pos_as_xyz
  1  'x, y, z'
loop_
 _atom_site_type_symbol
 _atom_site_label
 _atom_site_symmetry_multiplicity
 _atom_site_fract_x
 _atom_site_fract_y
 _atom_site_fract_z
 _atom_site_occupancy
  K  K0  1  0.46046100  0.24206100  0.77270300  1
  K  K1  1  0.96046100  0.75793900  0.22729700  1
  Bi  Bi0  1  0.77551400  0.78275100  0.63527100  1
  Bi  Bi1  1  0.27551400  0.21724900  0.36472900  1
  P  P0  1  0.26519700  0.71974200  0.57267000  1
  P  P1  1  0.76519700  0.28025800  0.42733000  1
  C  C0  1  0.73397600  0.72112600  0.91099900  1
  C  C1  1  0.23397600  0.27887400  0.08900100  1
  O  O0  1  0.22117200  0.29936500  0.96436800  1
  O  O1  1  0.74194000  0.92747200  0.85671200  1
  O  O2  1  0.73969700  0.54316300  0.83416900  1
  O  O3  1  0.09535300  0.78893200  0.66207400  1
  O  O4  1  0.44307500  0.80130300  0.64979700  1
  O  O5  1  0.74936800  0.16424900  0.56721600  1
  O  O6  1  0.27209900  0.45272200  0.55373500  1
  O  O7  1  0.77209900  0.54727800  0.44626500  1
  O  O8  1  0.24936800  0.83575100  0.43278400  1
  O  O9  1  0.94307500  0.19869700  0.35020300  1
  O  O10  1  0.59535300  0.21106800  0.33792600  1
  O  O11  1  0.23969700  0.45683700  0.16583100  1
  O  O12  1  0.24194000  0.07252800  0.14328800  1
  O  O13  1  0.72117200  0.70063500  0.03563200  1
loop_
_geom_bond_atom_site_label_1
_geom_bond_atom_site_label_2
_geom_bond_distance
_geom_bond_site_symmetry_2
K0 O0 2.596874 1_555
K0 O2 2.708042 1_555
K0 O1 2.820182 1_545
K0 O4 2.844815 1_545
K0 O6 2.845530 1_555
K0 O5 2.952249 1_555
K1 O13 2.596874 1_555
K1 O11 2.708042 1_655
K1 O12 2.820182 1_665
K1 O9 2.844815 1_565
K1 O7 2.845530 1_555
K1 O8 2.952249 1_655
Bi0 O3 2.280241 1_655
Bi0 O5 2.306988 1_565
Bi0 O7 2.355891 1_555
Bi0 O4 2.360021 1_555
Bi0 O1 2.408732 1_555
Bi0 O2 2.441113 1_555
Bi1 O10 2.280241 1_555
Bi1 O8 2.306988 1_545
Bi1 O6 2.355891 1_555
Bi1 O9 2.360021 1_455
Bi1 O12 2.408732 1_555
Bi1 O11 2.441113 1_555
C0 O13 1.267229 1_556
C0 O2 1.294545 1_555
C0 O1 1.307078 1_555
C1 O0 1.267229 1_554
C1 O11 1.294545 1_555
C1 O12 1.307078 1_555
O3 P0 1.558380 1_555
O4 P0 1.556237 1_555
O5 P1 1.562023 1_555
O6 P0 1.555430 1_555
O7 P1 1.555430 1_555
O8 P0 1.562023 1_555
O9 P1 1.556237 1_555
O10 P1 1.558380 1_555
