# generated using pymatgen
data_NaNiO2
_symmetry_space_group_name_H-M   'P 1'
_cell_length_a   3.00088342
_cell_length_b   8.34316180
_cell_length_c   6.23754470
_cell_angle_alpha   85.47179522
_cell_angle_beta   89.99960132
_cell_angle_gamma   90.00615184
_symmetry_Int_Tables_number   1
_chemical_formula_structural   NaNiO2
_chemical_formula_sum   'Na4 Ni4 O8'
_cell_volume   155.68104134
_cell_formula_units_Z   4
loop_
 _symmetry_equiv_pos_site_id
 _symmetry_equiv_pos_as_xyz
  1  'x, y, z'
loop_
 _atom_site_type_symbol
 _atom_site_label
 _atom_site_symmetry_multiplicity
 _atom_site_fract_x
 _atom_site_fract_y
 _atom_site_fract_z
 _atom_site_occupancy
  Na  Na0  1  0.99992174  0.49994764  0.00011603  1
  Na  Na1  1  0.49990120  0.75005399  0.74985317  1
  Na  Na2  1  0.99989721  0.99994048  0.50014883  1
  Na  Na3  1  0.49990058  0.25004157  0.24989575  1
  Ni  Ni0  1  0.00003624  0.50000639  0.50002681  1
  Ni  Ni1  1  0.50001638  0.74999155  0.24993355  1
  Ni  Ni2  1  0.00002100  0.00000822  0.00005212  1
  Ni  Ni3  1  0.50004986  0.25000787  0.74997194  1
  O  O0  1  0.04422024  0.27158660  0.53399626  1
  O  O1  1  0.45581911  0.52159720  0.28405083  1
  O  O2  1  0.04419195  0.77158242  0.03395363  1
  O  O3  1  0.45582680  0.02160969  0.78408431  1
  O  O4  1  0.95583683  0.72841213  0.46590519  1
  O  O5  1  0.54423094  0.97839004  0.21603836  1
  O  O6  1  0.95586720  0.22841996  0.96595301  1
  O  O7  1  0.54426471  0.47840824  0.71602022  1
loop_
_geom_bond_atom_site_label_1
_geom_bond_atom_site_label_2
_geom_bond_distance
_geom_bond_site_symmetry_2
Na0 O1 2.256422 1_655
Na0 O7 2.256650 1_554
Na0 O6 2.295884 1_554
Na0 O2 2.296464 1_655
Na0 O1 2.426066 1_555
Na0 O7 2.427170 1_654
Na1 O4 2.256556 1_555
Na1 O2 2.256763 1_556
Na1 O3 2.296220 1_565
Na1 O7 2.296594 1_555
Na1 O4 2.426032 1_455
Na1 O2 2.427064 1_656
Na2 O3 2.256507 1_665
Na2 O5 2.256752 1_555
Na2 O4 2.295976 1_555
Na2 O0 2.296577 1_665
Na2 O3 2.426026 1_565
Na2 O5 2.427230 1_655
Na3 O6 2.256563 1_554
Na3 O0 2.256730 1_555
Na3 O1 2.296139 1_555
Na3 O5 2.296662 1_545
Na3 O6 2.425923 1_454
Na3 O0 2.427141 1_655
Ni0 O4 1.905339 1_455
Ni0 O0 1.905421 1_555
Ni0 O1 1.918238 1_555
Ni0 O7 1.918291 1_455
Ni0 O1 2.115700 1_455
Ni0 O7 2.115797 1_555
Ni1 O5 1.905207 1_555
Ni1 O1 1.905214 1_555
Ni1 O4 1.918337 1_555
Ni1 O2 1.918385 1_555
Ni1 O4 2.115548 1_455
Ni1 O2 2.115575 1_655
Ni2 O6 1.905374 1_454
Ni2 O2 1.905454 1_545
Ni2 O3 1.918255 1_554
Ni2 O5 1.918306 1_445
Ni2 O3 2.115618 1_454
Ni2 O5 2.115731 1_545
Ni3 O7 1.905234 1_555
Ni3 O3 1.905250 1_555
Ni3 O0 1.918373 1_555
Ni3 O6 1.918373 1_555
Ni3 O0 2.115542 1_655
Ni3 O6 2.115595 1_455
