# generated using pymatgen
data_Li5Mn2CoO8
_symmetry_space_group_name_H-M   'P 1'
_cell_length_a   2.89724310
_cell_length_b   9.77655575
_cell_length_c   10.17201841
_cell_angle_alpha   79.31287341
_cell_angle_beta   90.09618547
_cell_angle_gamma   90.85800988
_symmetry_Int_Tables_number   1
_chemical_formula_structural   Li5Mn2CoO8
_chemical_formula_sum   'Li10 Mn4 Co2 O16'
_cell_volume   283.09345481
_cell_formula_units_Z   2
loop_
 _symmetry_equiv_pos_site_id
 _symmetry_equiv_pos_as_xyz
  1  'x, y, z'
loop_
 _atom_site_type_symbol
 _atom_site_label
 _atom_site_symmetry_multiplicity
 _atom_site_fract_x
 _atom_site_fract_y
 _atom_site_fract_z
 _atom_site_occupancy
  Li  Li0  1  0.00000100  0.24999900  0.12499800  1
  Li  Li1  1  0.00000200  0.25000100  0.62500300  1
  Li  Li2  1  0.99965000  0.75007700  0.37475800  1
  Li  Li3  1  0.00035300  0.74992200  0.87523900  1
  Li  Li4  1  0.50003000  0.24984100  0.37487700  1
  Li  Li5  1  0.49997100  0.25015900  0.87511800  1
  Li  Li6  1  0.50632900  0.49089300  0.49997300  1
  Li  Li7  1  0.50710600  0.49080400  0.99958400  1
  Li  Li8  1  0.49289300  0.00919000  0.25041600  1
  Li  Li9  1  0.49367300  0.00910500  0.75002700  1
  Mn  Mn0  1  0.99160900  0.00835500  0.49145200  1
  Mn  Mn1  1  0.99061800  0.00827800  0.99109000  1
  Mn  Mn2  1  0.00939800  0.49172200  0.25890500  1
  Mn  Mn3  1  0.00837700  0.49164900  0.75855900  1
  Co  Co0  1  0.49999000  0.74999800  0.62499600  1
  Co  Co1  1  0.50001100  0.75000000  0.12499800  1
  O  O0  1  0.49482500  0.10972400  0.05498400  1
  O  O1  1  0.49476300  0.11022600  0.55513900  1
  O  O2  1  0.50518200  0.39027500  0.19501100  1
  O  O3  1  0.50522200  0.38978500  0.69487100  1
  O  O4  1  0.00299600  0.38609700  0.42534200  1
  O  O5  1  0.00375000  0.38541200  0.92519700  1
  O  O6  1  0.99624200  0.11458200  0.32481100  1
  O  O7  1  0.99701000  0.11390500  0.82465400  1
  O  O8  1  0.51458400  0.61405100  0.30591200  1
  O  O9  1  0.51607600  0.61383900  0.80561100  1
  O  O10  1  0.48391000  0.88616500  0.44439600  1
  O  O11  1  0.48542500  0.88595100  0.94408200  1
  O  O12  1  0.97350400  0.87103800  0.17466500  1
  O  O13  1  0.97512400  0.87141300  0.67397800  1
  O  O14  1  0.02651200  0.62896400  0.07532900  1
  O  O15  1  0.02486400  0.62858200  0.57602400  1
loop_
_geom_bond_atom_site_label_1
_geom_bond_atom_site_label_2
_geom_bond_distance
_geom_bond_site_symmetry_2
Li0 O0 2.197447 1_455
Li0 O2 2.197458 1_555
Li0 O2 2.206302 1_455
Li0 O0 2.206309 1_555
Li0 O5 2.210213 1_554
Li0 O6 2.210328 1_455
Li1 O1 2.193604 1_455
Li1 O3 2.193645 1_555
Li1 O1 2.202143 1_555
Li1 O3 2.202258 1_455
Li1 O7 2.211857 1_455
Li1 O4 2.211939 1_555
Li2 O8 2.126058 1_555
Li2 O10 2.128543 1_655
Li2 O12 2.157853 1_555
Li2 O15 2.169734 1_655
Li2 O8 2.212022 1_655
Li2 O10 2.217493 1_555
Li3 O11 2.126076 1_555
Li3 O9 2.128496 1_455
Li3 O14 2.157817 1_556
Li3 O13 2.169679 1_455
Li3 O11 2.212017 1_455
Li3 O9 2.217383 1_555
Li4 O1 2.072853 1_555
Li4 O2 2.073762 1_555
Li4 O6 2.080363 1_455
Li4 O4 2.086740 1_655
Li4 O6 2.093803 1_555
Li4 O4 2.103633 1_555
Li5 O3 2.072790 1_555
Li5 O0 2.073767 1_556
Li5 O5 2.080353 1_655
Li5 O7 2.086714 1_455
Li5 O5 2.093829 1_555
Li5 O7 2.103626 1_555
Li6 O4 1.998144 1_555
Li6 O4 2.008211 1_655
Li6 O3 2.044638 1_555
Li6 O8 2.112993 1_555
Li6 O15 2.191435 1_555
Li6 O15 2.233658 1_655
Li7 O5 2.000358 1_555
Li7 O5 2.010437 1_655
Li7 O2 2.047662 1_556
Li7 O9 2.111784 1_555
Li7 O14 2.191529 1_556
Li7 O14 2.236937 1_656
Li8 O6 2.000382 1_555
Li8 O6 2.010490 1_455
Li8 O0 2.047721 1_555
Li8 O10 2.111805 1_545
Li8 O12 2.191535 1_545
Li8 O12 2.236881 1_445
Li9 O7 1.998156 1_555
Li9 O7 2.008206 1_455
Li9 O1 2.044587 1_555
Li9 O11 2.112926 1_545
Li9 O13 2.191420 1_545
Li9 O13 2.233695 1_445
Mn0 O6 1.816248 1_555
Mn0 O1 1.931139 1_655
Mn0 O1 1.941409 1_555
Mn0 O10 1.988956 1_645
Mn0 O10 1.994213 1_545
Mn0 O13 2.078063 1_545
Mn1 O7 1.812199 1_555
Mn1 O0 1.931975 1_656
Mn1 O0 1.937596 1_556
Mn1 O11 1.989611 1_545
Mn1 O11 1.994942 1_645
Mn1 O12 2.087747 1_546
Mn2 O4 1.812200 1_555
Mn2 O2 1.932000 1_455
Mn2 O2 1.937582 1_555
Mn2 O8 1.989605 1_555
Mn2 O8 1.994966 1_455
Mn2 O14 2.087765 1_555
Mn3 O5 1.816262 1_555
Mn3 O3 1.931107 1_455
Mn3 O3 1.941371 1_555
Mn3 O9 1.988942 1_455
Mn3 O9 1.994199 1_555
Mn3 O15 2.078092 1_555
Co0 O15 1.928773 1_555
Co0 O13 1.928821 1_555
Co0 O10 2.060029 1_555
Co0 O9 2.060109 1_555
Co0 O15 2.060485 1_655
Co0 O13 2.060497 1_455
Co1 O12 1.925672 1_555
Co1 O14 1.925679 1_555
Co1 O8 2.061343 1_555
Co1 O11 2.061369 1_554
Co1 O14 2.064154 1_655
Co1 O12 2.064172 1_455
