# generated using pymatgen
data_Ba2AlCuF9
_symmetry_space_group_name_H-M   'P 1'
_cell_length_a   7.44554400
_cell_length_b   5.49368800
_cell_length_c   9.41768670
_cell_angle_alpha   89.09003702
_cell_angle_beta   90.00000000
_cell_angle_gamma   90.00000000
_symmetry_Int_Tables_number   1
_chemical_formula_structural   Ba2AlCuF9
_chemical_formula_sum   'Ba4 Al2 Cu2 F18'
_cell_volume   385.16772660
_cell_formula_units_Z   2
loop_
 _symmetry_equiv_pos_site_id
 _symmetry_equiv_pos_as_xyz
  1  'x, y, z'
loop_
 _atom_site_type_symbol
 _atom_site_label
 _atom_site_symmetry_multiplicity
 _atom_site_fract_x
 _atom_site_fract_y
 _atom_site_fract_z
 _atom_site_occupancy
  Ba  Ba0  1  0.66105700  0.23820100  0.94504100  1
  Ba  Ba1  1  0.16105700  0.76179900  0.05495900  1
  Ba  Ba2  1  0.38933400  0.75197400  0.58843100  1
  Ba  Ba3  1  0.88933400  0.24802600  0.41156900  1
  Al  Al0  1  0.36495400  0.26926400  0.32335400  1
  Al  Al1  1  0.86495400  0.73073600  0.67664600  1
  Cu  Cu0  1  0.66992800  0.75295000  0.23202500  1
  Cu  Cu1  1  0.16992800  0.24705000  0.76797500  1
  F  F0  1  0.84359400  0.98441300  0.17303100  1
  F  F1  1  0.34359400  0.01558700  0.82696900  1
  F  F2  1  0.19851600  0.03466500  0.30599300  1
  F  F3  1  0.69851600  0.96533500  0.69400700  1
  F  F4  1  0.82504300  0.49531400  0.17212000  1
  F  F5  1  0.32504300  0.50468600  0.82788000  1
  F  F6  1  0.19541800  0.50693100  0.33002300  1
  F  F7  1  0.69541800  0.49306900  0.66997700  1
  F  F8  1  0.51702800  0.80715700  0.05212300  1
  F  F9  1  0.01702800  0.19284300  0.94787700  1
  F  F10  1  0.34971800  0.24238300  0.51819700  1
  F  F11  1  0.84971800  0.75761700  0.48180300  1
  F  F12  1  0.54728100  0.03185100  0.34098100  1
  F  F13  1  0.04728100  0.96814900  0.65901900  1
  F  F14  1  0.39555600  0.30974500  0.13817600  1
  F  F15  1  0.89555600  0.69025500  0.86182400  1
  F  F16  1  0.54257300  0.50851500  0.35704100  1
  F  F17  1  0.04257300  0.49148500  0.64295900  1
loop_
_geom_bond_atom_site_label_1
_geom_bond_atom_site_label_2
_geom_bond_distance
_geom_bond_site_symmetry_2
Ba0 F9 2.662180 1_655
Ba0 F14 2.719056 1_556
Ba0 F8 2.774646 1_546
Ba0 F3 2.833148 1_545
Ba0 F4 2.855746 1_556
Ba0 F0 2.882034 1_546
Ba0 F1 2.891769 1_555
Ba0 F7 2.936193 1_555
Ba0 F5 3.093290 1_555
Ba0 F15 3.125428 1_555
Ba1 F8 2.662180 1_555
Ba1 F15 2.719056 1_454
Ba1 F9 2.774646 1_564
Ba1 F2 2.833148 1_565
Ba1 F5 2.855746 1_554
Ba1 F1 2.882034 1_564
Ba1 F0 2.891769 1_455
Ba1 F6 2.936193 1_555
Ba1 F4 3.093290 1_455
Ba1 F14 3.125428 1_555
Ba2 F5 2.657573 1_555
Ba2 F1 2.713536 1_565
Ba2 F3 2.774681 1_555
Ba2 F10 2.779635 1_565
Ba2 F7 2.787798 1_555
Ba2 F16 2.816370 1_555
Ba2 F13 2.891960 1_555
Ba2 F10 2.901847 1_555
Ba2 F17 2.992336 1_555
Ba2 F12 3.010655 1_565
Ba2 F6 3.150128 1_555
Ba3 F4 2.657573 1_555
Ba3 F0 2.713536 1_545
Ba3 F2 2.774681 1_655
Ba3 F11 2.779635 1_545
Ba3 F6 2.787798 1_655
Ba3 F17 2.816370 1_655
Ba3 F12 2.891960 1_555
Ba3 F11 2.901847 1_555
Ba3 F16 2.992336 1_555
Ba3 F13 3.010655 1_645
Ba3 F7 3.150128 1_555
Al0 F14 1.769296 1_555
Al0 F2 1.797258 1_555
Al0 F6 1.817880 1_555
Al0 F10 1.842060 1_555
Al0 F12 1.888036 1_555
Al0 F16 1.894833 1_555
Al1 F15 1.769296 1_555
Al1 F3 1.797258 1_555
Al1 F7 1.817880 1_555
Al1 F11 1.842060 1_555
Al1 F13 1.888036 1_655
Al1 F17 1.894833 1_655
Cu0 F0 1.890797 1_555
Cu0 F4 1.918529 1_555
Cu0 F16 2.009563 1_555
Cu0 F8 2.058928 1_555
Cu0 F12 2.069868 1_565
Cu1 F1 1.890797 1_555
Cu1 F5 1.918529 1_555
Cu1 F17 2.009563 1_555
Cu1 F9 2.058928 1_555
Cu1 F13 2.069868 1_545
