# generated using pymatgen
data_Cs4TlSbCl12
_symmetry_space_group_name_H-M   'P 1'
_cell_length_a   7.65685500
_cell_length_b   7.65685500
_cell_length_c   10.62957400
_cell_angle_alpha   90.00000000
_cell_angle_beta   90.00000000
_cell_angle_gamma   90.00000000
_symmetry_Int_Tables_number   1
_chemical_formula_structural   Cs4TlSbCl12
_chemical_formula_sum   'Cs4 Tl1 Sb1 Cl12'
_cell_volume   623.18458958
_cell_formula_units_Z   1
loop_
 _symmetry_equiv_pos_site_id
 _symmetry_equiv_pos_as_xyz
  1  'x, y, z'
loop_
 _atom_site_type_symbol
 _atom_site_label
 _atom_site_symmetry_multiplicity
 _atom_site_fract_x
 _atom_site_fract_y
 _atom_site_fract_z
 _atom_site_occupancy
  Cs  Cs0  1  0.50000000  0.00000000  0.77740100  1
  Cs  Cs1  1  0.00000000  0.50000000  0.22259900  1
  Cs  Cs2  1  0.50000000  0.00000000  0.22259900  1
  Cs  Cs3  1  0.00000000  0.50000000  0.77740100  1
  Tl  Tl0  1  0.00000000  0.00000000  0.00000000  1
  Sb  Sb0  1  0.50000000  0.50000000  0.50000000  1
  Cl  Cl0  1  0.00000000  0.00000000  0.75186800  1
  Cl  Cl1  1  0.50000000  0.50000000  0.27272300  1
  Cl  Cl2  1  0.72318100  0.72318100  0.50000000  1
  Cl  Cl3  1  0.24394000  0.24394000  0.00000000  1
  Cl  Cl4  1  0.72318100  0.27681900  0.50000000  1
  Cl  Cl5  1  0.24394000  0.75606000  0.00000000  1
  Cl  Cl6  1  0.00000000  0.00000000  0.24813200  1
  Cl  Cl7  1  0.50000000  0.50000000  0.72727700  1
  Cl  Cl8  1  0.27681900  0.27681900  0.50000000  1
  Cl  Cl9  1  0.75606000  0.75606000  0.00000000  1
  Cl  Cl10  1  0.27681900  0.72318100  0.50000000  1
  Cl  Cl11  1  0.75606000  0.24394000  0.00000000  1
loop_
_geom_bond_atom_site_label_1
_geom_bond_atom_site_label_2
_geom_bond_distance
_geom_bond_site_symmetry_2
Cl0 Tl0 2.637537 1_556
Cl0 Cs0 3.838036 1_455
Cl0 Cs3 3.838036 1_545
Cl0 Cs3 3.838036 1_555
Cl0 Cs0 3.838036 1_555
Cl1 Sb0 2.415858 1_555
Cl1 Cs1 3.865324 1_555
Cl1 Cs2 3.865324 1_565
Cl1 Cs1 3.865324 1_655
Cl1 Cs2 3.865324 1_555
Cl2 Sb0 2.416699 1_555
Cl2 Cs3 4.013394 1_655
Cl2 Cs2 4.013394 1_565
Cl2 Cs0 4.013394 1_565
Cl2 Cs1 4.013394 1_655
Cl3 Tl0 2.641487 1_555
Cl3 Cs2 3.596014 1_555
Cl3 Cs1 3.596014 1_555
Cl3 Cs3 3.596014 1_554
Cl3 Cs0 3.596014 1_554
Cl4 Sb0 2.416699 1_555
Cl4 Cs2 4.013394 1_555
Cl4 Cs0 4.013394 1_555
Cl4 Cs3 4.013394 1_655
Cl4 Cs1 4.013394 1_655
Cl5 Tl0 2.641487 1_565
Cl5 Cs2 3.596014 1_565
Cl5 Cs0 3.596014 1_564
Cl5 Cs3 3.596014 1_554
Cl5 Cs1 3.596014 1_555
Cl6 Tl0 2.637537 1_555
Cl6 Cs2 3.838036 1_555
Cl6 Cs1 3.838036 1_555
Cl6 Cs2 3.838036 1_455
Cl6 Cs1 3.838036 1_545
Cl7 Sb0 2.415858 1_555
Cl7 Cs0 3.865324 1_555
Cl7 Cs3 3.865324 1_655
Cl7 Cs3 3.865324 1_555
Cl7 Cs0 3.865324 1_565
Cl8 Sb0 2.416699 1_555
Cl8 Cs1 4.013394 1_555
Cl8 Cs0 4.013394 1_555
Cl8 Cs2 4.013394 1_555
Cl8 Cs3 4.013394 1_555
Cl9 Tl0 2.641487 1_665
Cl9 Cs1 3.596014 1_655
Cl9 Cs0 3.596014 1_564
Cl9 Cs2 3.596014 1_565
Cl9 Cs3 3.596014 1_654
Cl10 Sb0 2.416699 1_555
Cl10 Cs3 4.013394 1_555
Cl10 Cs1 4.013394 1_555
Cl10 Cs2 4.013394 1_565
Cl10 Cs0 4.013394 1_565
Cl11 Tl0 2.641487 1_655
Cl11 Cs3 3.596014 1_654
Cl11 Cs1 3.596014 1_655
Cl11 Cs0 3.596014 1_554
Cl11 Cs2 3.596014 1_555
