# generated using pymatgen
data_Li5MnO3F
_symmetry_space_group_name_H-M   'P 1'
_cell_length_a   4.75454461
_cell_length_b   9.44097209
_cell_length_c   9.59978500
_cell_angle_alpha   90.00013577
_cell_angle_beta   89.99980485
_cell_angle_gamma   102.62569582
_symmetry_Int_Tables_number   1
_chemical_formula_structural   Li5MnO3F
_chemical_formula_sum   'Li20 Mn4 O12 F4'
_cell_volume   420.49064858
_cell_formula_units_Z   4
loop_
 _symmetry_equiv_pos_site_id
 _symmetry_equiv_pos_as_xyz
  1  'x, y, z'
loop_
 _atom_site_type_symbol
 _atom_site_label
 _atom_site_symmetry_multiplicity
 _atom_site_fract_x
 _atom_site_fract_y
 _atom_site_fract_z
 _atom_site_occupancy
  Li  Li0  1  0.97371800  0.48335800  0.00000300  1
  Li  Li1  1  0.48977200  0.98013300  0.49999700  1
  Li  Li2  1  0.51022600  0.76985300  0.00000100  1
  Li  Li3  1  0.02623100  0.26665100  0.49999900  1
  Li  Li4  1  0.00450700  0.75552700  0.78700600  1
  Li  Li5  1  0.48866300  0.25246800  0.28059100  1
  Li  Li6  1  0.51131800  0.49754600  0.78059900  1
  Li  Li7  1  0.99551700  0.99445000  0.28701500  1
  Li  Li8  1  0.51131900  0.49754300  0.21940300  1
  Li  Li9  1  0.99551400  0.99445300  0.71298900  1
  Li  Li10  1  0.00450300  0.75552800  0.21298700  1
  Li  Li11  1  0.48866200  0.25246600  0.71941200  1
  Li  Li12  1  0.99679800  0.49589200  0.71434000  1
  Li  Li13  1  0.48112000  0.99198000  0.21164600  1
  Li  Li14  1  0.99679900  0.49589000  0.28566000  1
  Li  Li15  1  0.48110700  0.99197600  0.78835100  1
  Li  Li16  1  0.00317400  0.25410000  0.78565400  1
  Li  Li17  1  0.51889500  0.75801300  0.28835800  1
  Li  Li18  1  0.00317800  0.25410100  0.21434800  1
  Li  Li19  1  0.51890700  0.75801800  0.71164100  1
  Mn  Mn0  1  0.01617200  0.75044000  0.49999400  1
  Mn  Mn1  1  0.98381600  0.99953500  0.00000000  1
  Mn  Mn2  1  0.53419300  0.23726600  0.99999100  1
  Mn  Mn3  1  0.46591100  0.51271700  0.50001800  1
  O  O0  1  0.77105300  0.63376000  0.64569000  1
  O  O1  1  0.22895900  0.11622700  0.14569100  1
  O  O2  1  0.77104400  0.63376000  0.35430500  1
  O  O3  1  0.22895300  0.11622800  0.85431100  1
  O  O4  1  0.75223700  0.37579000  0.15176700  1
  O  O5  1  0.24635800  0.86876200  0.64396200  1
  O  O6  1  0.75223800  0.37579400  0.84823100  1
  O  O7  1  0.24636400  0.86876400  0.35602500  1
  O  O8  1  0.24773600  0.37423000  0.65178000  1
  O  O9  1  0.75367800  0.88120400  0.14397400  1
  O  O10  1  0.24774100  0.37423300  0.34822700  1
  O  O11  1  0.75368300  0.88120700  0.85603300  1
  F  F0  1  0.26254600  0.62693900  0.85517900  1
  F  F1  1  0.73742100  0.12313200  0.35520700  1
  F  F2  1  0.26254700  0.62693500  0.14481900  1
  F  F3  1  0.73742100  0.12313300  0.64479600  1
loop_
_geom_bond_atom_site_label_1
_geom_bond_atom_site_label_2
_geom_bond_distance
_geom_bond_site_symmetry_2
Li0 O4 1.948149 1_555
Li0 O6 1.948191 1_554
Li1 O5 1.955246 1_555
Li1 O7 1.955274 1_555
Li2 O11 1.955298 1_554
Li2 O9 1.955311 1_555
Li3 O10 1.948318 1_555
Li3 O8 1.948363 1_555
Li4 O5 1.952785 1_555
Li4 O0 1.958610 1_455
Li4 O11 1.971736 1_455
Li5 O10 1.905486 1_555
Li5 O4 1.953851 1_555
Li5 O1 2.040060 1_555
Li6 O6 1.905380 1_555
Li6 O8 1.953816 1_555
Li6 O0 2.040055 1_555
Li7 O9 1.952783 1_555
Li7 O1 1.958681 1_665
Li7 O7 1.971808 1_655
Li8 O4 1.905389 1_555
Li8 O10 1.953809 1_555
Li8 O2 2.040006 1_555
Li9 O11 1.952784 1_555
Li9 O3 1.958654 1_665
Li9 O5 1.971883 1_655
Li10 O7 1.952772 1_555
Li10 O2 1.958637 1_455
Li10 O9 1.971672 1_455
Li11 O8 1.905484 1_555
Li11 O6 1.953853 1_555
Li11 O3 2.040050 1_555
Li12 O8 1.924196 1_655
Li12 O6 1.927002 1_555
Li12 O0 1.972623 1_555
Li13 O9 1.946174 1_555
Li13 O1 1.956792 1_565
Li13 O7 1.988071 1_555
Li14 O10 1.924201 1_655
Li14 O4 1.927030 1_555
Li14 O2 1.972650 1_555
Li15 O11 1.946232 1_555
Li15 O3 1.956813 1_565
Li15 O5 1.988117 1_555
Li16 O6 1.924461 1_455
Li16 O8 1.927036 1_555
Li16 O3 1.972786 1_555
Li17 O7 1.945896 1_555
Li17 O2 1.956766 1_555
Li17 O9 1.988051 1_555
Li18 O4 1.924461 1_455
Li18 O10 1.927080 1_555
Li18 O1 1.972803 1_555
Li19 O5 1.945961 1_555
Li19 O0 1.956798 1_555
Li19 O11 1.988083 1_555
Mn0 O5 1.954808 1_555
Mn0 O7 1.954834 1_555
Mn0 O2 1.991626 1_455
Mn0 O0 1.991652 1_455
Mn1 O11 1.954717 1_554
Mn1 O9 1.954786 1_555
Mn1 O3 1.991696 1_664
Mn1 O1 1.991721 1_665
Mn2 O6 2.077240 1_555
Mn2 O4 2.077327 1_556
Mn2 O3 2.154720 1_555
Mn2 O1 2.154829 1_556
Mn3 O8 2.077276 1_555
Mn3 O10 2.077448 1_555
Mn3 O0 2.154428 1_555
Mn3 O2 2.154657 1_555
F0 Li6 2.008865 1_555
F0 Li4 2.014543 1_555
F0 Li19 2.063104 1_555
F0 Li12 2.066819 1_455
F0 Li2 2.108424 1_556
F0 Li0 2.200546 1_456
F1 Li5 2.008549 1_555
F1 Li7 2.015451 1_545
F1 Li13 2.063447 1_545
F1 Li18 2.066621 1_655
F1 Li1 2.108574 1_545
F1 Li3 2.200031 1_655
F2 Li8 2.008877 1_555
F2 Li10 2.014575 1_555
F2 Li17 2.063079 1_555
F2 Li14 2.066821 1_455
F2 Li2 2.108415 1_555
F2 Li0 2.200483 1_455
F3 Li11 2.008526 1_555
F3 Li9 2.015435 1_545
F3 Li15 2.063457 1_545
F3 Li16 2.066598 1_655
F3 Li1 2.108637 1_545
F3 Li3 2.200055 1_655
