# generated using pymatgen
data_Lu3Ge3Ru2
_symmetry_space_group_name_H-M   'P 1'
_cell_length_a   5.72117731
_cell_length_b   5.72117731
_cell_length_c   13.73413400
_cell_angle_alpha   90.00000000
_cell_angle_beta   90.00000000
_cell_angle_gamma   136.57643194
_symmetry_Int_Tables_number   1
_chemical_formula_structural   Lu3Ge3Ru2
_chemical_formula_sum   'Lu6 Ge6 Ru4'
_cell_volume   309.01031824
_cell_formula_units_Z   2
loop_
 _symmetry_equiv_pos_site_id
 _symmetry_equiv_pos_as_xyz
  1  'x, y, z'
loop_
 _atom_site_type_symbol
 _atom_site_label
 _atom_site_symmetry_multiplicity
 _atom_site_fract_x
 _atom_site_fract_y
 _atom_site_fract_z
 _atom_site_occupancy
  Lu  Lu0  1  0.92280200  0.07719800  0.38640000  1
  Lu  Lu1  1  0.07719800  0.92280200  0.61360000  1
  Lu  Lu2  1  0.92280200  0.07719800  0.11360000  1
  Lu  Lu3  1  0.07719800  0.92280200  0.88640000  1
  Lu  Lu4  1  0.64645800  0.35354200  0.25000000  1
  Lu  Lu5  1  0.35354200  0.64645800  0.75000000  1
  Ge  Ge0  1  0.61364700  0.38635300  0.45924900  1
  Ge  Ge1  1  0.38635300  0.61364700  0.54075100  1
  Ge  Ge2  1  0.61364700  0.38635300  0.04075100  1
  Ge  Ge3  1  0.38635300  0.61364700  0.95924900  1
  Ge  Ge4  1  0.34045000  0.65955000  0.25000000  1
  Ge  Ge5  1  0.65955000  0.34045000  0.75000000  1
  Ru  Ru0  1  0.78751200  0.21248800  0.91625500  1
  Ru  Ru1  1  0.21248800  0.78751200  0.08374500  1
  Ru  Ru2  1  0.78751200  0.21248800  0.58374500  1
  Ru  Ru3  1  0.21248800  0.78751200  0.41625500  1
loop_
_geom_bond_atom_site_label_1
_geom_bond_atom_site_label_2
_geom_bond_distance
_geom_bond_site_symmetry_2
Lu0 Ru2 3.068309 1_555
Lu0 Ru3 3.105841 1_655
Lu0 Ru3 3.105841 1_545
Lu0 Ru3 3.106712 1_645
Lu1 Ru3 3.068309 1_555
Lu1 Ru2 3.105841 1_565
Lu1 Ru2 3.105841 1_455
Lu1 Ru2 3.106712 1_465
Lu2 Ru0 3.068309 1_554
Lu2 Ru1 3.105841 1_655
Lu2 Ru1 3.105841 1_545
Lu2 Ru1 3.106712 1_645
Lu3 Ru1 3.068309 1_556
Lu3 Ru0 3.105841 1_565
Lu3 Ru0 3.105841 1_455
Lu3 Ru0 3.106712 1_465
Lu4 Ru3 3.191548 1_655
Lu4 Ru1 3.191548 1_655
Lu4 Ru3 3.191548 1_545
Lu4 Ru1 3.191548 1_545
Lu5 Ru0 3.191548 1_455
Lu5 Ru0 3.191548 1_565
Lu5 Ru2 3.191548 1_455
Lu5 Ru2 3.191548 1_565
Ge0 Ru3 2.435613 1_545
Ge0 Ru3 2.435613 1_655
Ge0 Ru2 2.517884 1_555
Ge0 Ge1 2.662955 1_555
Ge0 Lu4 2.894943 1_555
Ge0 Lu1 3.020514 1_545
Ge0 Lu1 3.020514 1_655
Ge0 Lu0 3.097828 1_455
Ge0 Lu0 3.097828 1_565
Ge1 Ru2 2.435613 1_455
Ge1 Ru2 2.435613 1_565
Ge1 Ru3 2.517884 1_555
Ge1 Lu5 2.894943 1_555
Ge1 Lu0 3.020514 1_455
Ge1 Lu0 3.020514 1_565
Ge1 Lu1 3.097828 1_545
Ge1 Lu1 3.097828 1_655
Ge2 Ru1 2.435613 1_545
Ge2 Ru1 2.435613 1_655
Ge2 Ru0 2.517884 1_554
Ge2 Ge3 2.662955 1_554
Ge2 Lu4 2.894943 1_555
Ge2 Lu3 3.020514 1_544
Ge2 Lu3 3.020514 1_654
Ge2 Lu2 3.097828 1_455
Ge2 Lu2 3.097828 1_565
Ge3 Ru0 2.435613 1_565
Ge3 Ru0 2.435613 1_455
Ge3 Ru1 2.517884 1_556
Ge3 Lu5 2.894943 1_555
Ge3 Lu2 3.020514 1_456
Ge3 Lu2 3.020514 1_566
Ge3 Lu3 3.097828 1_545
Ge3 Lu3 3.097828 1_655
Ge4 Ru3 2.657860 1_555
Ge4 Ru1 2.657860 1_555
Ge4 Lu4 2.955057 1_565
Ge4 Lu4 2.955057 1_455
Ge4 Lu2 2.958934 1_565
Ge4 Lu2 2.958934 1_455
Ge4 Lu0 2.958934 1_565
Ge4 Lu0 2.958934 1_455
Ge4 Lu4 3.253047 1_555
Ge5 Ru0 2.657860 1_555
Ge5 Ru2 2.657860 1_555
Ge5 Lu5 2.955057 1_655
Ge5 Lu5 2.955057 1_545
Ge5 Lu1 2.958934 1_545
Ge5 Lu1 2.958934 1_655
Ge5 Lu3 2.958934 1_545
Ge5 Lu3 2.958934 1_655
Ge5 Lu5 3.253047 1_555
