# generated using pymatgen
data_Pr9Ni24Sn49
_symmetry_space_group_name_H-M   'P 1'
_cell_length_a   10.37861138
_cell_length_b   10.37861138
_cell_length_c   17.13860271
_cell_angle_alpha   89.81398480
_cell_angle_beta   89.81398480
_cell_angle_gamma   70.66197628
_symmetry_Int_Tables_number   1
_chemical_formula_structural   Pr9Ni24Sn49
_chemical_formula_sum   'Pr9 Ni24 Sn49'
_cell_volume   1741.92657795
_cell_formula_units_Z   1
loop_
 _symmetry_equiv_pos_site_id
 _symmetry_equiv_pos_as_xyz
  1  'x, y, z'
loop_
 _atom_site_type_symbol
 _atom_site_label
 _atom_site_symmetry_multiplicity
 _atom_site_fract_x
 _atom_site_fract_y
 _atom_site_fract_z
 _atom_site_occupancy
  Pr  Pr0  1  0.75087400  0.24933800  0.75048700  1
  Pr  Pr1  1  0.24912600  0.75066200  0.24951300  1
  Pr  Pr2  1  0.00000000  0.50000000  0.00000000  1
  Pr  Pr3  1  0.50000000  0.00000000  0.50000000  1
  Pr  Pr4  1  0.00000000  0.50000000  0.50000000  1
  Pr  Pr5  1  0.50000000  0.00000000  0.00000000  1
  Pr  Pr6  1  0.24933800  0.75087400  0.75048700  1
  Pr  Pr7  1  0.75066200  0.24912600  0.24951300  1
  Pr  Pr8  1  0.00000000  0.00000000  0.00000000  1
  Ni  Ni0  1  0.74175800  0.09686000  0.58011800  1
  Ni  Ni1  1  0.24132400  0.59811400  0.08022000  1
  Ni  Ni2  1  0.75867600  0.40188600  0.91978000  1
  Ni  Ni3  1  0.25824200  0.90314000  0.41988200  1
  Ni  Ni4  1  0.09686000  0.74175800  0.58011800  1
  Ni  Ni5  1  0.59811400  0.24132400  0.08022000  1
  Ni  Ni6  1  0.40188600  0.75867600  0.91978000  1
  Ni  Ni7  1  0.90314000  0.25824200  0.41988200  1
  Ni  Ni8  1  0.67843800  0.00001200  0.83941700  1
  Ni  Ni9  1  0.17882700  0.50080400  0.33908500  1
  Ni  Ni10  1  0.82117300  0.49919600  0.66091500  1
  Ni  Ni11  1  0.32156200  0.99998800  0.16058300  1
  Ni  Ni12  1  0.49919600  0.82117300  0.66091500  1
  Ni  Ni13  1  0.99998800  0.32156200  0.16058300  1
  Ni  Ni14  1  0.00001200  0.67843800  0.83941700  1
  Ni  Ni15  1  0.50080400  0.17882700  0.33908500  1
  Ni  Ni16  1  0.24025600  0.24025600  0.92054200  1
  Ni  Ni17  1  0.74049700  0.74049700  0.42012200  1
  Ni  Ni18  1  0.25950300  0.25950300  0.57987800  1
  Ni  Ni19  1  0.75974400  0.75974400  0.07945800  1
  Ni  Ni20  1  0.41903900  0.41903900  0.74074900  1
  Ni  Ni21  1  0.91939500  0.91939500  0.23984200  1
  Ni  Ni22  1  0.08060500  0.08060500  0.76015800  1
  Ni  Ni23  1  0.58096100  0.58096100  0.25925100  1
  Sn  Sn0  1  0.50421400  0.25223400  0.62249700  1
  Sn  Sn1  1  0.00135600  0.73827600  0.13001900  1
  Sn  Sn2  1  0.99864400  0.26172400  0.86998100  1
  Sn  Sn3  1  0.49578600  0.74776600  0.37750300  1
  Sn  Sn4  1  0.25223400  0.50421400  0.62249700  1
  Sn  Sn5  1  0.73827600  0.00135600  0.13001900  1
  Sn  Sn6  1  0.26172400  0.99864400  0.86998100  1
  Sn  Sn7  1  0.74776600  0.49578600  0.37750300  1
  Sn  Sn8  1  0.67982100  0.19036800  0.93557200  1
  Sn  Sn9  1  0.19178300  0.68300200  0.43688100  1
  Sn  Sn10  1  0.80821700  0.31699800  0.56311900  1
  Sn  Sn11  1  0.32017900  0.80963200  0.06442800  1
  Sn  Sn12  1  0.31699800  0.80821700  0.56311900  1
  Sn  Sn13  1  0.80963200  0.32017900  0.06442800  1
  Sn  Sn14  1  0.19036800  0.67982100  0.93557200  1
  Sn  Sn15  1  0.68300200  0.19178300  0.43688100  1
  Sn  Sn16  1  0.68313800  0.68313800  0.55859400  1
  Sn  Sn17  1  0.19486100  0.19486100  0.06382200  1
  Sn  Sn18  1  0.80513900  0.80513900  0.93617800  1
  Sn  Sn19  1  0.31686200  0.31686200  0.44140600  1
  Sn  Sn20  1  0.55939300  0.55939300  0.68578400  1
  Sn  Sn21  1  0.06339700  0.06339700  0.19364200  1
  Sn  Sn22  1  0.93660300  0.93660300  0.80635800  1
  Sn  Sn23  1  0.44060700  0.44060700  0.31421600  1
  Sn  Sn24  1  0.81216100  0.55609900  0.81428700  1
  Sn  Sn25  1  0.31397300  0.05753400  0.31608000  1
  Sn  Sn26  1  0.68602700  0.94246600  0.68392000  1
  Sn  Sn27  1  0.18783900  0.44390100  0.18571300  1
  Sn  Sn28  1  0.55609900  0.81216100  0.81428700  1
  Sn  Sn29  1  0.05753400  0.31397300  0.31608000  1
  Sn  Sn30  1  0.94246600  0.68602700  0.68392000  1
  Sn  Sn31  1  0.44390100  0.18783900  0.18571300  1
  Sn  Sn32  1  0.05568200  0.31605800  0.68429200  1
  Sn  Sn33  1  0.55517700  0.81682200  0.18731400  1
  Sn  Sn34  1  0.44482300  0.18317800  0.81268600  1
  Sn  Sn35  1  0.94431800  0.68394200  0.31570800  1
  Sn  Sn36  1  0.18317800  0.44482300  0.81268600  1
  Sn  Sn37  1  0.68394200  0.94431800  0.31570800  1
  Sn  Sn38  1  0.31605800  0.05568200  0.68429200  1
  Sn  Sn39  1  0.81682200  0.55517700  0.18731400  1
  Sn  Sn40  1  0.12955100  0.12955100  0.50137500  1
  Sn  Sn41  1  0.62771000  0.62771000  0.00231200  1
  Sn  Sn42  1  0.37229000  0.37229000  0.99768800  1
  Sn  Sn43  1  0.87044900  0.87044900  0.49862500  1
  Sn  Sn44  1  0.00115000  0.00115000  0.62971500  1
  Sn  Sn45  1  0.49967500  0.49967500  0.13098700  1
  Sn  Sn46  1  0.50032500  0.50032500  0.86901300  1
  Sn  Sn47  1  0.99885000  0.99885000  0.37028500  1
  Sn  Sn48  1  0.50000000  0.50000000  0.50000000  1
loop_
_geom_bond_atom_site_label_1
_geom_bond_atom_site_label_2
_geom_bond_distance
_geom_bond_site_symmetry_2
Pr0 Sn22 3.318993 1_545
Pr0 Sn2 3.328386 1_555
Pr0 Sn8 3.354355 1_555
Pr0 Sn20 3.360068 1_555
Pr0 Sn0 3.369164 1_555
Pr0 Sn10 3.377721 1_555
Pr0 Sn24 3.620055 1_555
Pr0 Sn34 3.621465 1_555
Pr0 Sn46 3.631498 1_555
Pr0 Sn32 3.632710 1_655
Pr0 Sn44 3.637984 1_655
Pr0 Sn26 3.653264 1_545
Pr1 Sn21 3.318993 1_565
Pr1 Sn1 3.328386 1_555
Pr1 Sn11 3.354355 1_555
Pr1 Sn23 3.360068 1_555
Pr1 Sn3 3.369164 1_555
Pr1 Sn9 3.377721 1_555
Pr1 Sn27 3.620055 1_555
Pr1 Sn33 3.621465 1_555
Pr1 Sn45 3.631498 1_555
Pr1 Sn35 3.632710 1_455
Pr1 Sn47 3.637984 1_455
Pr1 Sn25 3.653264 1_565
Pr2 Sn13 3.319704 1_455
Pr2 Sn14 3.319704 1_554
Pr2 Sn17 3.326560 1_555
Pr2 Sn18 3.326560 1_454
Pr2 Sn2 3.337716 1_454
Pr2 Sn1 3.337716 1_555
Pr2 Sn41 3.646276 1_455
Pr2 Sn42 3.646276 1_554
Pr2 Sn39 3.674174 1_455
Pr2 Sn36 3.674174 1_554
Pr2 Sn27 3.680585 1_555
Pr2 Sn24 3.680585 1_454
Pr3 Sn15 3.349008 1_555
Pr3 Sn12 3.349008 1_545
Pr3 Sn16 3.359648 1_545
Pr3 Sn19 3.359648 1_555
Pr3 Sn0 3.372639 1_555
Pr3 Sn3 3.372639 1_545
Pr3 Sn40 3.628558 1_555
Pr3 Sn43 3.628558 1_545
Pr3 Sn38 3.632726 1_555
Pr3 Sn37 3.632726 1_545
Pr3 Sn25 3.644705 1_555
Pr3 Sn26 3.644705 1_545
Pr4 Sn9 3.349008 1_555
Pr4 Sn10 3.349008 1_455
Pr4 Sn19 3.359648 1_555
Pr4 Sn16 3.359648 1_455
Pr4 Sn4 3.372639 1_555
Pr4 Sn7 3.372639 1_455
Pr4 Sn40 3.628558 1_555
Pr4 Sn43 3.628558 1_455
Pr4 Sn32 3.632726 1_555
Pr4 Sn35 3.632726 1_455
Pr4 Sn30 3.644705 1_455
Pr4 Sn29 3.644705 1_555
Pr5 Sn11 3.319704 1_545
Pr5 Sn8 3.319704 1_554
Pr5 Sn17 3.326560 1_555
Pr5 Sn18 3.326560 1_544
Pr5 Sn6 3.337716 1_544
Pr5 Sn5 3.337716 1_555
Pr5 Sn41 3.646276 1_545
Pr5 Sn42 3.646276 1_554
Pr5 Sn34 3.674174 1_554
Pr5 Sn33 3.674174 1_545
Pr5 Sn28 3.680585 1_544
Pr5 Sn31 3.680585 1_555
Pr6 Sn22 3.318993 1_455
Pr6 Sn6 3.328386 1_555
Pr6 Sn14 3.354355 1_555
Pr6 Sn20 3.360068 1_555
Pr6 Sn4 3.369164 1_555
Pr6 Sn12 3.377721 1_555
Pr6 Sn28 3.620055 1_555
Pr6 Sn36 3.621465 1_555
Pr6 Sn46 3.631498 1_555
Pr6 Sn38 3.632710 1_565
Pr6 Sn44 3.637984 1_565
Pr6 Sn30 3.653264 1_455
Pr7 Sn21 3.318993 1_655
Pr7 Sn5 3.328386 1_555
Pr7 Sn13 3.354355 1_555
Pr7 Sn23 3.360068 1_555
Pr7 Sn7 3.369164 1_555
Pr7 Sn15 3.377721 1_555
Pr7 Sn31 3.620055 1_555
Pr7 Sn39 3.621465 1_555
Pr7 Sn45 3.631498 1_555
Pr7 Sn37 3.632710 1_545
Pr7 Sn47 3.637984 1_545
Pr7 Sn29 3.653264 1_655
Pr8 Sn11 3.439008 1_545
Pr8 Sn13 3.439008 1_455
Pr8 Sn14 3.439008 1_544
Pr8 Sn8 3.439008 1_454
Pr8 Sn18 3.480521 1_444
Pr8 Sn17 3.480521 1_555
Pr8 Sn22 3.492142 1_444
Pr8 Sn21 3.492142 1_555
Pr8 Sn1 3.504248 1_545
Pr8 Sn5 3.504248 1_455
Pr8 Sn2 3.504248 1_454
Pr8 Sn6 3.504248 1_544
Ni0 Sn0 2.563009 1_555
Ni0 Sn26 2.579881 1_545
Ni0 Sn10 2.611259 1_555
Ni0 Sn15 2.639131 1_555
Ni0 Sn43 2.680849 1_545
Ni0 Sn44 2.682373 1_655
Ni0 Pr3 3.300528 1_555
Ni0 Pr0 3.342152 1_555
Ni1 Sn1 2.577239 1_555
Ni1 Sn27 2.588776 1_555
Ni1 Sn11 2.597458 1_555
Ni1 Sn14 2.615800 1_554
Ni1 Sn45 2.680568 1_555
Ni1 Sn42 2.690841 1_554
Ni1 Pr2 3.304655 1_555
Ni1 Pr1 3.323829 1_555
Ni2 Sn2 2.577239 1_555
Ni2 Sn24 2.588776 1_555
Ni2 Sn8 2.597458 1_555
Ni2 Sn13 2.615800 1_556
Ni2 Sn46 2.680568 1_555
Ni2 Sn41 2.690841 1_556
Ni2 Pr2 3.304655 1_656
Ni2 Pr0 3.323829 1_555
Ni3 Sn3 2.563009 1_555
Ni3 Sn25 2.579881 1_565
Ni3 Sn9 2.611259 1_555
Ni3 Sn12 2.639131 1_555
Ni3 Sn40 2.680849 1_565
Ni3 Sn47 2.682373 1_455
Ni3 Pr3 3.300528 1_565
Ni3 Pr1 3.342152 1_555
Ni4 Sn4 2.563009 1_555
Ni4 Sn30 2.579881 1_455
Ni4 Sn12 2.611259 1_555
Ni4 Sn9 2.639131 1_555
Ni4 Sn43 2.680849 1_455
Ni4 Sn44 2.682373 1_565
Ni4 Pr4 3.300528 1_555
Ni4 Pr6 3.342152 1_555
Ni5 Sn5 2.577239 1_555
Ni5 Sn31 2.588776 1_555
Ni5 Sn13 2.597458 1_555
Ni5 Sn8 2.615800 1_554
Ni5 Sn45 2.680568 1_555
Ni5 Sn42 2.690841 1_554
Ni5 Pr5 3.304655 1_555
Ni5 Pr7 3.323829 1_555
Ni6 Sn6 2.577239 1_555
Ni6 Sn28 2.588776 1_555
Ni6 Sn14 2.597458 1_555
Ni6 Sn11 2.615800 1_556
Ni6 Sn46 2.680568 1_555
Ni6 Sn41 2.690841 1_556
Ni6 Pr5 3.304655 1_566
Ni6 Pr6 3.323829 1_555
Ni7 Sn7 2.563009 1_555
Ni7 Sn29 2.579881 1_655
Ni7 Sn15 2.611259 1_555
Ni7 Sn10 2.639131 1_555
Ni7 Sn40 2.680849 1_655
Ni7 Sn47 2.682373 1_545
Ni7 Pr4 3.300528 1_655
Ni7 Pr7 3.342152 1_555
Ni8 Sn34 2.579027 1_555
Ni8 Sn8 2.580538 1_555
Ni8 Sn22 2.599620 1_545
Ni8 Sn18 2.607843 1_545
Ni8 Sn28 2.692059 1_545
Ni8 Sn26 2.728178 1_545
Ni8 Pr0 3.292335 1_555
Ni8 Pr5 3.312275 1_556
Ni9 Sn9 2.567786 1_555
Ni9 Sn35 2.575773 1_455
Ni9 Sn23 2.612211 1_555
Ni9 Sn19 2.637312 1_555
Ni9 Sn29 2.669244 1_555
Ni9 Sn27 2.690515 1_555
Ni9 Pr1 3.291424 1_555
Ni9 Pr4 3.320748 1_555
Ni10 Sn10 2.567786 1_555
Ni10 Sn32 2.575773 1_655
Ni10 Sn20 2.612211 1_555
Ni10 Sn16 2.637312 1_555
Ni10 Sn30 2.669244 1_555
Ni10 Sn24 2.690515 1_555
Ni10 Pr0 3.291424 1_555
Ni10 Pr4 3.320748 1_655
Ni11 Sn33 2.579027 1_555
Ni11 Sn11 2.580538 1_555
Ni11 Sn21 2.599620 1_565
Ni11 Sn17 2.607843 1_565
Ni11 Sn31 2.692059 1_565
Ni11 Sn25 2.728178 1_565
Ni11 Pr1 3.292335 1_555
Ni11 Pr5 3.312275 1_565
Ni12 Sn12 2.567786 1_555
Ni12 Sn38 2.575773 1_565
Ni12 Sn20 2.612211 1_555
Ni12 Sn16 2.637312 1_555
Ni12 Sn26 2.669244 1_555
Ni12 Sn28 2.690515 1_555
Ni12 Pr6 3.291424 1_555
Ni12 Pr3 3.320748 1_565
Ni13 Sn39 2.579027 1_555
Ni13 Sn13 2.580538 1_555
Ni13 Sn21 2.599620 1_655
Ni13 Sn17 2.607843 1_655
Ni13 Sn27 2.692059 1_655
Ni13 Sn29 2.728178 1_655
Ni13 Pr7 3.292335 1_555
Ni13 Pr2 3.312275 1_655
Ni14 Sn36 2.579027 1_555
Ni14 Sn14 2.580538 1_555
Ni14 Sn22 2.599620 1_455
Ni14 Sn18 2.607843 1_455
Ni14 Sn24 2.692059 1_455
Ni14 Sn30 2.728178 1_455
Ni14 Pr6 3.292335 1_555
Ni14 Pr2 3.312275 1_556
Ni15 Sn15 2.567786 1_555
Ni15 Sn37 2.575773 1_545
Ni15 Sn23 2.612211 1_555
Ni15 Sn19 2.637312 1_555
Ni15 Sn25 2.669244 1_555
Ni15 Sn31 2.690515 1_555
Ni15 Pr7 3.291424 1_555
Ni15 Pr3 3.320748 1_555
Ni16 Sn17 2.570212 1_556
Ni16 Sn2 2.594497 1_455
Ni16 Sn6 2.594497 1_545
Ni16 Sn42 2.602098 1_555
Ni16 Sn34 2.724737 1_555
Ni16 Sn36 2.724737 1_555
Ni16 Pr5 3.299899 1_556
Ni16 Pr2 3.299899 1_556
Ni17 Sn16 2.560722 1_555
Ni17 Sn43 2.583906 1_555
Ni17 Sn7 2.621907 1_555
Ni17 Sn3 2.621907 1_555
Ni17 Sn37 2.679854 1_555
Ni17 Sn35 2.679854 1_555
Ni17 Pr3 3.302669 1_565
Ni17 Pr4 3.302669 1_655
Ni18 Sn19 2.560722 1_555
Ni18 Sn40 2.583906 1_555
Ni18 Sn0 2.621907 1_555
Ni18 Sn4 2.621907 1_555
Ni18 Sn38 2.679854 1_555
Ni18 Sn32 2.679854 1_555
Ni18 Pr3 3.302669 1_555
Ni18 Pr4 3.302669 1_555
Ni19 Sn18 2.570212 1_554
Ni19 Sn5 2.594497 1_565
Ni19 Sn1 2.594497 1_655
Ni19 Sn41 2.602098 1_555
Ni19 Sn39 2.724737 1_555
Ni19 Sn33 2.724737 1_555
Ni19 Pr5 3.299899 1_565
Ni19 Pr2 3.299899 1_655
Ni20 Sn20 2.553179 1_555
Ni20 Sn46 2.598318 1_555
Ni20 Sn0 2.623649 1_555
Ni20 Sn4 2.623649 1_555
Ni20 Sn34 2.670697 1_555
Ni20 Sn36 2.670697 1_555
Ni20 Pr6 3.312933 1_555
Ni20 Pr0 3.312933 1_555
Ni21 Sn21 2.560897 1_665
Ni21 Sn1 2.598733 1_655
Ni21 Sn5 2.598733 1_565
Ni21 Sn47 2.613866 1_555
Ni21 Sn35 2.700371 1_555
Ni21 Sn37 2.700371 1_555
Ni21 Pr1 3.292132 1_655
Ni21 Pr7 3.292132 1_565
Ni22 Sn22 2.560897 1_445
Ni22 Sn6 2.598733 1_545
Ni22 Sn2 2.598733 1_455
Ni22 Sn44 2.613866 1_555
Ni22 Sn32 2.700371 1_555
Ni22 Sn38 2.700371 1_555
Ni22 Pr6 3.292132 1_545
Ni22 Pr0 3.292132 1_455
Ni23 Sn23 2.553179 1_555
Ni23 Sn45 2.598318 1_555
Ni23 Sn3 2.623649 1_555
Ni23 Sn7 2.623649 1_555
Ni23 Sn39 2.670697 1_555
Ni23 Sn33 2.670697 1_555
Ni23 Pr1 3.312933 1_555
Ni23 Pr7 3.312933 1_555
Sn0 Sn48 3.303485 1_555
Sn3 Sn48 3.303485 1_555
Sn4 Sn48 3.303485 1_555
Sn10 Sn48 3.315974 1_555
Sn12 Sn48 3.315974 1_555
Sn15 Sn48 3.315974 1_555
Sn16 Sn48 3.263640 1_555
Sn19 Sn48 3.263640 1_555
Sn20 Sn48 3.342967 1_555
Sn23 Sn48 3.342967 1_555
Sn48 Sn7 3.303485 1_555
Sn48 Sn9 3.315974 1_555
