# generated using pymatgen
data_Y4Si2Sb2W13O28
_symmetry_space_group_name_H-M   'P 1'
_cell_length_a   12.97580073
_cell_length_b   12.97580073
_cell_length_c   9.62454075
_cell_angle_alpha   85.53622521
_cell_angle_beta   85.53622521
_cell_angle_gamma   152.18777459
_symmetry_Int_Tables_number   1
_chemical_formula_structural   Y4Si2Sb2W13O28
_chemical_formula_sum   'Y4 Si2 Sb2 W13 O28'
_cell_volume   715.34045697
_cell_formula_units_Z   1
loop_
 _symmetry_equiv_pos_site_id
 _symmetry_equiv_pos_as_xyz
  1  'x, y, z'
loop_
 _atom_site_type_symbol
 _atom_site_label
 _atom_site_symmetry_multiplicity
 _atom_site_fract_x
 _atom_site_fract_y
 _atom_site_fract_z
 _atom_site_occupancy
  Y  Y0  1  0.29312500  0.86962500  0.66164100  1
  Y  Y1  1  0.13037500  0.70687500  0.33835900  1
  Y  Y2  1  0.70687500  0.13037500  0.33835900  1
  Y  Y3  1  0.86962500  0.29312500  0.66164100  1
  Si  Si0  1  0.55477500  0.55477500  0.29143800  1
  Si  Si1  1  0.44522500  0.44522500  0.70856200  1
  Sb  Sb0  1  0.11898000  0.88102000  0.00000000  1
  Sb  Sb1  1  0.88102000  0.11898000  0.00000000  1
  W  W0  1  0.49993300  0.76837900  0.63336000  1
  W  W1  1  0.03300800  0.87208800  0.31146400  1
  W  W2  1  0.23162100  0.50006700  0.36664000  1
  W  W3  1  0.50006700  0.23162100  0.36664000  1
  W  W4  1  0.96699200  0.12791200  0.68853600  1
  W  W5  1  0.71674200  0.28325800  0.00000000  1
  W  W6  1  0.12791200  0.96699200  0.68853600  1
  W  W7  1  0.00000000  0.00000000  0.00000000  1
  W  W8  1  0.57797500  0.42202500  0.00000000  1
  W  W9  1  0.87208800  0.03300800  0.31146400  1
  W  W10  1  0.76837900  0.49993300  0.63336000  1
  W  W11  1  0.42202500  0.57797500  0.00000000  1
  W  W12  1  0.28325800  0.71674200  0.00000000  1
  O  O0  1  0.84124300  0.56428800  0.39078600  1
  O  O1  1  0.44162900  0.01367400  0.40343600  1
  O  O2  1  0.81134500  0.81134500  0.31478500  1
  O  O3  1  0.62124000  0.62124000  0.10437500  1
  O  O4  1  0.55837100  0.98632600  0.59656400  1
  O  O5  1  0.15875700  0.43571200  0.60921400  1
  O  O6  1  0.91539900  0.41042500  0.13503800  1
  O  O7  1  0.08460100  0.58957500  0.86496200  1
  O  O8  1  0.37876000  0.37876000  0.89562500  1
  O  O9  1  0.84140100  0.73984700  0.85173400  1
  O  O10  1  0.48299300  0.37583700  0.35968400  1
  O  O11  1  0.43571200  0.15875700  0.60921400  1
  O  O12  1  0.58957500  0.08460100  0.86496200  1
  O  O13  1  0.26015300  0.15859900  0.14826600  1
  O  O14  1  0.62416300  0.51700700  0.64031600  1
  O  O15  1  0.18865500  0.18865500  0.68521500  1
  O  O16  1  0.73984700  0.84140100  0.85173400  1
  O  O17  1  0.15859900  0.26015300  0.14826600  1
  O  O18  1  0.41042500  0.91539900  0.13503800  1
  O  O19  1  0.61943300  0.32865200  0.13148600  1
  O  O20  1  0.38056700  0.67134800  0.86851400  1
  O  O21  1  0.37583700  0.48299300  0.35968400  1
  O  O22  1  0.32865200  0.61943300  0.13148600  1
  O  O23  1  0.01367400  0.44162900  0.40343600  1
  O  O24  1  0.51700700  0.62416300  0.64031600  1
  O  O25  1  0.67134800  0.38056700  0.86851400  1
  O  O26  1  0.56428800  0.84124300  0.39078600  1
  O  O27  1  0.98632600  0.55837100  0.59656400  1
loop_
_geom_bond_atom_site_label_1
_geom_bond_atom_site_label_2
_geom_bond_distance
_geom_bond_site_symmetry_2
Sb0 W7 2.997223 1_565
Sb1 W7 2.997223 1_655
O0 W1 2.091788 1_655
O0 W3 2.190335 1_555
O0 W10 2.235664 1_555
O0 Y1 2.243698 1_655
O1 W3 2.169576 1_555
O1 Y2 2.197376 1_555
O1 Y1 2.211826 1_545
O1 Y0 2.354315 1_545
O2 Si0 1.686446 1_555
O2 W1 2.206032 1_655
O2 W9 2.206032 1_565
O2 W7 2.873059 1_665
O3 Si0 1.711690 1_555
O3 W7 2.247823 1_665
O3 W11 2.435421 1_555
O3 W8 2.435421 1_555
O4 W0 2.169576 1_555
O4 Y0 2.197376 1_555
O4 Y3 2.211826 1_565
O4 Y2 2.354315 1_565
O5 W4 2.091788 1_455
O5 W0 2.190335 1_555
O5 W2 2.235664 1_555
O5 Y3 2.243698 1_455
O6 W5 2.094686 1_555
O6 W12 2.222704 1_655
O6 Y2 2.243059 1_555
O7 W12 2.094686 1_556
O7 W5 2.222704 1_456
O7 Y0 2.243059 1_555
O8 Si1 1.711690 1_555
O8 W7 2.247823 1_556
O8 W8 2.435421 1_556
O8 W11 2.435421 1_556
O9 W6 1.990614 1_655
O9 W8 2.028802 1_556
O9 W7 2.566068 1_666
O10 Si0 1.591155 1_555
O10 W3 2.066784 1_555
O11 W6 2.091788 1_545
O11 W10 2.190335 1_555
O11 W3 2.235664 1_555
O11 Y0 2.243698 1_545
O12 W5 2.094686 1_556
O12 W12 2.222704 1_546
O12 Y3 2.243059 1_555
O13 W1 1.990614 1_545
O13 W8 2.028802 1_555
O13 W7 2.566068 1_555
O14 Si1 1.591155 1_555
O14 W10 2.066784 1_555
O15 Si1 1.686446 1_555
O15 W6 2.206032 1_545
O15 W4 2.206032 1_455
O15 W7 2.873059 1_556
O16 W4 1.990614 1_565
O16 W11 2.028802 1_556
O16 W7 2.566068 1_666
O17 W9 1.990614 1_455
O17 W11 2.028802 1_555
O17 W7 2.566068 1_555
O18 W12 2.094686 1_555
O18 W5 2.222704 1_565
O18 Y1 2.243059 1_555
O19 W8 2.092626 1_555
O19 W3 2.160470 1_555
O19 W5 2.173864 1_555
O20 W11 2.092626 1_556
O20 W0 2.160470 1_555
O20 W12 2.173864 1_556
O21 Si0 1.591155 1_555
O21 W2 2.066784 1_555
O22 W11 2.092626 1_555
O22 W2 2.160470 1_555
O22 W12 2.173864 1_555
O23 W2 2.169576 1_555
O23 Y1 2.197376 1_555
O23 Y2 2.211826 1_455
O23 Y3 2.354315 1_455
O24 Si1 1.591155 1_555
O24 W0 2.066784 1_555
O25 W8 2.092626 1_556
O25 W10 2.160470 1_555
O25 W5 2.173864 1_556
O26 W9 2.091788 1_565
O26 W2 2.190335 1_555
O26 W0 2.235664 1_555
O26 Y2 2.243698 1_565
O27 W10 2.169576 1_555
O27 Y3 2.197376 1_555
O27 Y0 2.211826 1_655
O27 Y1 2.354315 1_655
