# generated using pymatgen
data_La2Cu2SeSO2
_symmetry_space_group_name_H-M   'P 1'
_cell_length_a   4.03601400
_cell_length_b   4.03601400
_cell_length_c   8.71327200
_cell_angle_alpha   90.00000000
_cell_angle_beta   90.00000000
_cell_angle_gamma   90.00000000
_symmetry_Int_Tables_number   1
_chemical_formula_structural   La2Cu2SeSO2
_chemical_formula_sum   'La2 Cu2 Se1 S1 O2'
_cell_volume   141.93405141
_cell_formula_units_Z   1
loop_
 _symmetry_equiv_pos_site_id
 _symmetry_equiv_pos_as_xyz
  1  'x, y, z'
loop_
 _atom_site_type_symbol
 _atom_site_label
 _atom_site_symmetry_multiplicity
 _atom_site_fract_x
 _atom_site_fract_y
 _atom_site_fract_z
 _atom_site_occupancy
  La  La0  1  0.50000000  0.50000000  0.85884700  1
  La  La1  1  0.00000000  0.00000000  0.14589700  1
  Cu  Cu0  1  0.00000000  0.50000000  0.49162600  1
  Cu  Cu1  1  0.50000000  0.00000000  0.49162600  1
  Se  Se0  1  0.00000000  0.00000000  0.66815100  1
  S  S0  1  0.50000000  0.50000000  0.33866700  1
  O  O0  1  0.00000000  0.50000000  0.00259200  1
  O  O1  1  0.50000000  0.00000000  0.00259200  1
loop_
_geom_bond_atom_site_label_1
_geom_bond_atom_site_label_2
_geom_bond_distance
_geom_bond_site_symmetry_2
La0 O1 2.375096 1_566
La0 O0 2.375096 1_556
La0 O0 2.375096 1_656
La0 O1 2.375096 1_556
La0 Se0 3.302359 1_665
La0 Se0 3.302359 1_655
La0 Se0 3.302359 1_555
La0 Se0 3.302359 1_565
La1 O1 2.373077 1_455
La1 O1 2.373077 1_555
La1 O0 2.373077 1_545
La1 O0 2.373077 1_555
La1 S0 3.311488 1_455
La1 S0 3.311488 1_555
La1 S0 3.311488 1_545
La1 S0 3.311488 1_445
Cu0 S0 2.418396 1_455
Cu0 S0 2.418396 1_555
Cu0 Se0 2.537348 1_555
Cu0 Se0 2.537348 1_565
Cu1 S0 2.418396 1_555
Cu1 S0 2.418396 1_545
Cu1 Se0 2.537348 1_555
Cu1 Se0 2.537348 1_655
