# generated using pymatgen
data_MgTi2(PO4)2
_symmetry_space_group_name_H-M   'P 1'
_cell_length_a   8.59988352
_cell_length_b   8.59988352
_cell_length_c   17.45491131
_cell_angle_alpha   63.26745658
_cell_angle_beta   63.26745658
_cell_angle_gamma   32.97437628
_symmetry_Int_Tables_number   1
_chemical_formula_structural   MgTi2(PO4)2
_chemical_formula_sum   'Mg4 Ti8 P8 O32'
_cell_volume   620.49814620
_cell_formula_units_Z   4
loop_
 _symmetry_equiv_pos_site_id
 _symmetry_equiv_pos_as_xyz
  1  'x, y, z'
loop_
 _atom_site_type_symbol
 _atom_site_label
 _atom_site_symmetry_multiplicity
 _atom_site_fract_x
 _atom_site_fract_y
 _atom_site_fract_z
 _atom_site_occupancy
  Mg  Mg0  1  0.48936500  0.84094300  0.85101200  1
  Mg  Mg1  1  0.15905700  0.51063500  0.64898800  1
  Mg  Mg2  1  0.84094300  0.48936500  0.35101200  1
  Mg  Mg3  1  0.51063500  0.15905700  0.14898800  1
  Ti  Ti0  1  0.19245600  0.61138500  0.96403200  1
  Ti  Ti1  1  0.38861500  0.80754400  0.53596800  1
  Ti  Ti2  1  0.80754400  0.38861500  0.03596800  1
  Ti  Ti3  1  0.50000000  0.00000000  0.00000000  1
  Ti  Ti4  1  0.61138500  0.19245600  0.46403200  1
  Ti  Ti5  1  0.61549500  0.38450500  0.25000000  1
  Ti  Ti6  1  0.38450500  0.61549500  0.75000000  1
  Ti  Ti7  1  0.00000000  0.50000000  0.50000000  1
  P  P0  1  0.05370100  0.51264200  0.85627800  1
  P  P1  1  0.78578700  0.17688600  0.61333700  1
  P  P2  1  0.94629900  0.48735800  0.14372300  1
  P  P3  1  0.17688600  0.78578700  0.11333700  1
  P  P4  1  0.51264200  0.05370100  0.35627800  1
  P  P5  1  0.48735800  0.94629900  0.64372200  1
  P  P6  1  0.21421300  0.82311400  0.38666300  1
  P  P7  1  0.82311400  0.21421300  0.88666300  1
  O  O0  1  0.69723600  0.81686700  0.11378700  1
  O  O1  1  0.72814700  0.42025700  0.92537000  1
  O  O2  1  0.81686700  0.69723600  0.61378700  1
  O  O3  1  0.86013700  0.31449300  0.55027300  1
  O  O4  1  0.21500800  0.33873300  0.07066300  1
  O  O5  1  0.63712600  0.26491900  0.70378800  1
  O  O6  1  0.68550700  0.13986300  0.94972700  1
  O  O7  1  0.84069200  0.08261400  0.11922000  1
  O  O8  1  0.13986300  0.68550700  0.44972700  1
  O  O9  1  0.57974300  0.27185300  0.57463000  1
  O  O10  1  0.86949800  0.36835000  0.15087300  1
  O  O11  1  0.60020100  0.96176300  0.27340200  1
  O  O12  1  0.27185300  0.57974300  0.07463000  1
  O  O13  1  0.08261400  0.84069200  0.61922000  1
  O  O14  1  0.30276400  0.18313300  0.88621300  1
  O  O15  1  0.13050200  0.63165000  0.84912700  1
  O  O16  1  0.96176300  0.60020100  0.77340200  1
  O  O17  1  0.31449300  0.86013700  0.05027300  1
  O  O18  1  0.36835000  0.86949800  0.65087300  1
  O  O19  1  0.39979900  0.03823700  0.72659800  1
  O  O20  1  0.91738600  0.15930800  0.38078000  1
  O  O21  1  0.33873300  0.21500800  0.57066300  1
  O  O22  1  0.15930800  0.91738600  0.88078000  1
  O  O23  1  0.26491900  0.63712600  0.20378800  1
  O  O24  1  0.42025700  0.72814700  0.42537000  1
  O  O25  1  0.18313300  0.30276400  0.38621300  1
  O  O26  1  0.03823700  0.39979900  0.22659800  1
  O  O27  1  0.66126700  0.78499200  0.42933700  1
  O  O28  1  0.78499200  0.66126700  0.92933700  1
  O  O29  1  0.73508100  0.36287400  0.79621200  1
  O  O30  1  0.36287400  0.73508100  0.29621200  1
  O  O31  1  0.63165000  0.13050200  0.34912700  1
loop_
_geom_bond_atom_site_label_1
_geom_bond_atom_site_label_2
_geom_bond_distance
_geom_bond_site_symmetry_2
Mg0 O19 2.045809 1_565
Mg0 O14 2.104512 1_565
Mg0 O22 2.146762 1_555
Mg0 O1 2.167631 1_555
Mg0 O28 2.314209 1_555
Mg0 O16 2.466952 1_555
Mg1 O16 2.045809 1_455
Mg1 O2 2.104512 1_455
Mg1 O13 2.146762 1_555
Mg1 O9 2.167631 1_555
Mg1 O21 2.314209 1_555
Mg1 O19 2.466952 1_555
Mg2 O26 2.045809 1_655
Mg2 O25 2.104512 1_655
Mg2 O20 2.146762 1_555
Mg2 O24 2.167631 1_555
Mg2 O27 2.314209 1_555
Mg2 O11 2.466952 1_555
Mg3 O11 2.045809 1_545
Mg3 O0 2.104512 1_545
Mg3 O7 2.146762 1_555
Mg3 O12 2.167631 1_555
Mg3 O4 2.314209 1_555
Mg3 O26 2.466952 1_555
O0 P2 1.543340 1_555
O0 Ti3 2.244289 1_565
O1 P7 1.554297 1_555
O1 Ti2 2.160680 1_556
O2 P5 1.543338 1_555
O2 Ti7 2.244289 1_655
O3 P1 1.576514 1_555
O3 Ti1 2.365266 1_555
O3 Ti7 2.402585 1_655
O3 Ti1 2.537442 1_645
O4 P2 1.568290 1_455
O4 Ti3 2.132590 1_555
O4 Ti0 2.152972 1_554
O5 P1 1.528317 1_555
O5 Ti6 2.020348 1_555
O6 P7 1.576514 1_555
O6 Ti0 2.365266 1_555
O6 Ti3 2.402585 1_556
O6 Ti0 2.537442 1_645
O7 P3 1.572144 1_645
O7 Ti2 2.189009 1_555
O8 P6 1.576514 1_555
O8 Ti4 2.365266 1_555
O8 Ti7 2.402585 1_555
O8 Ti4 2.537442 1_465
O9 P1 1.554297 1_555
O9 Ti4 2.160680 1_555
O10 P2 1.563446 1_555
O10 Ti5 2.022733 1_555
O10 Ti2 2.197276 1_555
O11 P4 1.528028 1_565
O12 P3 1.554297 1_555
O12 Ti0 2.160680 1_554
O13 P1 1.572144 1_465
O13 Ti1 2.189009 1_555
O14 P0 1.543338 1_555
O14 Ti3 2.244289 1_556
O15 P0 1.563438 1_555
O15 Ti6 2.022733 1_555
O15 Ti0 2.197276 1_555
O16 P0 1.528028 1_655
O17 P3 1.576514 1_555
O17 Ti2 2.365266 1_555
O17 Ti3 2.402585 1_565
O17 Ti2 2.537442 1_465
O18 P5 1.563438 1_555
O18 Ti6 2.022733 1_555
O18 Ti1 2.197276 1_555
O19 P5 1.528028 1_545
O20 P6 1.572144 1_645
O20 Ti4 2.189009 1_555
O21 P5 1.568281 1_545
O21 Ti7 2.132590 1_555
O21 Ti4 2.152972 1_555
O22 P7 1.572144 1_465
O22 Ti0 2.189009 1_555
O23 P3 1.528317 1_555
O23 Ti5 2.020348 1_555
O24 P6 1.554297 1_555
O24 Ti1 2.160680 1_555
O25 P4 1.543338 1_555
O25 Ti7 2.244289 1_555
O26 P2 1.528011 1_455
O27 P4 1.568281 1_565
O27 Ti7 2.132590 1_655
O27 Ti1 2.152972 1_555
O28 P0 1.568281 1_655
O28 Ti3 2.132590 1_566
O28 Ti2 2.152972 1_556
O29 P7 1.528317 1_555
O29 Ti6 2.020348 1_555
O30 P6 1.528317 1_555
O30 Ti5 2.020348 1_555
O31 P4 1.563438 1_555
O31 Ti5 2.022733 1_555
O31 Ti4 2.197276 1_555
