# generated using pymatgen
data_Rb2Fe2As2O9
_symmetry_space_group_name_H-M   'P 1'
_cell_length_a   5.88347300
_cell_length_b   8.70303300
_cell_length_c   19.10946400
_cell_angle_alpha   90.00000000
_cell_angle_beta   90.00000000
_cell_angle_gamma   90.00000000
_symmetry_Int_Tables_number   1
_chemical_formula_structural   Rb2Fe2As2O9
_chemical_formula_sum   'Rb8 Fe8 As8 O36'
_cell_volume   978.48213499
_cell_formula_units_Z   4
loop_
 _symmetry_equiv_pos_site_id
 _symmetry_equiv_pos_as_xyz
  1  'x, y, z'
loop_
 _atom_site_type_symbol
 _atom_site_label
 _atom_site_symmetry_multiplicity
 _atom_site_fract_x
 _atom_site_fract_y
 _atom_site_fract_z
 _atom_site_occupancy
  Rb  Rb0  1  0.25000000  0.88867100  0.13849900  1
  Rb  Rb1  1  0.25000000  0.38867100  0.36150100  1
  Rb  Rb2  1  0.75000000  0.11132900  0.86150100  1
  Rb  Rb3  1  0.75000000  0.61132900  0.63849900  1
  Rb  Rb4  1  0.25000000  0.00631200  0.72492700  1
  Rb  Rb5  1  0.25000000  0.50631200  0.77507300  1
  Rb  Rb6  1  0.75000000  0.99368800  0.27507300  1
  Rb  Rb7  1  0.75000000  0.49368800  0.22492700  1
  Fe  Fe0  1  0.25000000  0.28480700  0.56162100  1
  Fe  Fe1  1  0.25000000  0.78480700  0.93837900  1
  Fe  Fe2  1  0.75000000  0.71519300  0.43837900  1
  Fe  Fe3  1  0.75000000  0.21519300  0.06162100  1
  Fe  Fe4  1  0.00000000  0.00000000  0.50000000  1
  Fe  Fe5  1  0.50000000  0.50000000  0.00000000  1
  Fe  Fe6  1  0.50000000  0.00000000  0.50000000  1
  Fe  Fe7  1  0.00000000  0.50000000  0.00000000  1
  As  As0  1  0.25000000  0.81836700  0.35969400  1
  As  As1  1  0.25000000  0.31836700  0.14030600  1
  As  As2  1  0.75000000  0.18163300  0.64030600  1
  As  As3  1  0.75000000  0.68163300  0.85969400  1
  As  As4  1  0.25000000  0.67827500  0.55611700  1
  As  As5  1  0.25000000  0.17827500  0.94388300  1
  As  As6  1  0.75000000  0.32172500  0.44388300  1
  As  As7  1  0.75000000  0.82172500  0.05611700  1
  O  O0  1  0.25000000  0.05777900  0.56239400  1
  O  O1  1  0.25000000  0.55777900  0.93760600  1
  O  O2  1  0.75000000  0.94222100  0.43760600  1
  O  O3  1  0.75000000  0.44222100  0.06239400  1
  O  O4  1  0.25000000  0.96071200  0.42584800  1
  O  O5  1  0.25000000  0.46071200  0.07415200  1
  O  O6  1  0.75000000  0.03928800  0.57415200  1
  O  O7  1  0.75000000  0.53928800  0.92584800  1
  O  O8  1  0.00756000  0.76751300  0.52153500  1
  O  O9  1  0.49244000  0.26751300  0.97846500  1
  O  O10  1  0.50756000  0.23248700  0.47846500  1
  O  O11  1  0.99244000  0.73248700  0.02153500  1
  O  O12  1  0.99244000  0.23248700  0.47846500  1
  O  O13  1  0.50756000  0.73248700  0.02153500  1
  O  O14  1  0.49244000  0.76751300  0.52153500  1
  O  O15  1  0.00756000  0.26751300  0.97846500  1
  O  O16  1  0.25000000  0.49320300  0.52606500  1
  O  O17  1  0.25000000  0.99320300  0.97393500  1
  O  O18  1  0.75000000  0.50679700  0.47393500  1
  O  O19  1  0.75000000  0.00679700  0.02606500  1
  O  O20  1  0.00988400  0.70263300  0.36816100  1
  O  O21  1  0.49011600  0.20263300  0.13183900  1
  O  O22  1  0.50988400  0.29736700  0.63183900  1
  O  O23  1  0.99011600  0.79736700  0.86816100  1
  O  O24  1  0.99011600  0.29736700  0.63183900  1
  O  O25  1  0.50988400  0.79736700  0.86816100  1
  O  O26  1  0.49011600  0.70263300  0.36816100  1
  O  O27  1  0.00988400  0.20263300  0.13183900  1
  O  O28  1  0.25000000  0.69163300  0.64416700  1
  O  O29  1  0.25000000  0.19163300  0.85583300  1
  O  O30  1  0.75000000  0.30836700  0.35583300  1
  O  O31  1  0.75000000  0.80836700  0.14416700  1
  O  O32  1  0.25000000  0.90922400  0.28229500  1
  O  O33  1  0.25000000  0.40922400  0.21770500  1
  O  O34  1  0.75000000  0.09077600  0.71770500  1
  O  O35  1  0.75000000  0.59077600  0.78229500  1
loop_
_geom_bond_atom_site_label_1
_geom_bond_atom_site_label_2
_geom_bond_distance
_geom_bond_site_symmetry_2
Fe0 O16 1.936772 1_555
Fe0 O0 1.975887 1_555
Fe0 O24 2.037242 1_455
Fe0 O22 2.037242 1_555
Fe0 O12 2.242487 1_455
Fe0 O10 2.242487 1_555
Fe1 O17 1.936772 1_555
Fe1 O1 1.975887 1_555
Fe1 O25 2.037242 1_555
Fe1 O23 2.037242 1_455
Fe1 O11 2.242487 1_456
Fe1 O13 2.242487 1_556
Fe2 O18 1.936772 1_555
Fe2 O2 1.975887 1_555
Fe2 O20 2.037242 1_655
Fe2 O26 2.037242 1_555
Fe2 O14 2.242487 1_555
Fe2 O8 2.242487 1_655
Fe3 O19 1.936772 1_555
Fe3 O3 1.975887 1_555
Fe3 O27 2.037242 1_655
Fe3 O21 2.037242 1_555
Fe3 O9 2.242487 1_554
Fe3 O15 2.242487 1_654
Fe4 O0 1.959064 1_555
Fe4 O2 1.959064 1_445
Fe4 O8 2.065246 1_545
Fe4 O12 2.065246 1_455
Fe4 O6 2.070814 1_455
Fe4 O4 2.070814 1_545
Fe5 O3 1.959064 1_555
Fe5 O1 1.959064 1_554
Fe5 O13 2.065246 1_555
Fe5 O9 2.065246 1_554
Fe5 O7 2.070814 1_554
Fe5 O5 2.070814 1_555
Fe6 O0 1.959064 1_555
Fe6 O2 1.959064 1_545
Fe6 O14 2.065246 1_545
Fe6 O10 2.065246 1_555
Fe6 O6 2.070814 1_555
Fe6 O4 2.070814 1_545
Fe7 O3 1.959064 1_455
Fe7 O1 1.959064 1_554
Fe7 O11 2.065246 1_455
Fe7 O15 2.065246 1_554
Fe7 O7 2.070814 1_454
Fe7 O5 2.070814 1_555
As0 O32 1.677157 1_555
As0 O26 1.742547 1_555
As0 O20 1.742547 1_555
As0 O4 1.769979 1_555
As1 O33 1.677157 1_555
As1 O21 1.742547 1_555
As1 O27 1.742547 1_555
As1 O5 1.769979 1_555
As2 O34 1.677157 1_555
As2 O22 1.742547 1_555
As2 O24 1.742547 1_555
As2 O6 1.769979 1_555
As3 O35 1.677157 1_555
As3 O23 1.742547 1_555
As3 O25 1.742547 1_555
As3 O7 1.769979 1_555
As4 O28 1.686600 1_555
As4 O16 1.710003 1_555
As4 O8 1.753417 1_555
As4 O14 1.753417 1_555
As5 O29 1.686600 1_555
As5 O17 1.710003 1_545
As5 O15 1.753417 1_555
As5 O9 1.753417 1_555
As6 O30 1.686600 1_555
As6 O18 1.710003 1_555
As6 O10 1.753417 1_555
As6 O12 1.753417 1_555
As7 O31 1.686600 1_555
As7 O19 1.710003 1_565
As7 O13 1.753417 1_555
As7 O11 1.753417 1_555
O0 Rb4 3.138051 1_555
O1 Rb5 3.138051 1_555
O2 Rb6 3.138051 1_555
O3 Rb7 3.138051 1_555
O8 Rb3 3.023188 1_455
O9 Rb2 3.023188 1_555
O10 Rb1 3.023188 1_555
O11 Rb0 3.023188 1_655
O12 Rb1 3.023188 1_655
O13 Rb0 3.023188 1_555
O14 Rb3 3.023188 1_555
O15 Rb2 3.023188 1_455
O16 Rb1 3.273677 1_555
O17 Rb0 3.273677 1_556
O18 Rb3 3.273677 1_555
O19 Rb2 3.273677 1_554
O20 Rb1 3.078651 1_555
O21 Rb0 3.078651 1_545
O22 Rb3 3.078651 1_555
O23 Rb2 3.078651 1_565
O24 Rb3 3.078651 1_555
O25 Rb2 3.078651 1_565
O26 Rb1 3.078651 1_555
O27 Rb0 3.078651 1_545
O28 Rb5 2.976411 1_555
O28 Rb3 3.025556 1_455
O28 Rb3 3.025556 1_555
O28 Rb4 3.143562 1_565
O29 Rb4 2.976411 1_555
O29 Rb2 3.025556 1_555
O29 Rb2 3.025556 1_455
O29 Rb5 3.143562 1_555
O30 Rb7 2.976411 1_555
O30 Rb1 3.025556 1_655
O30 Rb1 3.025556 1_555
O30 Rb6 3.143562 1_545
O31 Rb6 2.976411 1_555
O31 Rb0 3.025556 1_555
O31 Rb0 3.025556 1_655
O31 Rb7 3.143562 1_555
O32 Rb0 2.753680 1_555
O32 Rb6 3.035329 1_555
O32 Rb6 3.035329 1_455
O33 Rb1 2.753680 1_555
O33 Rb7 3.035329 1_555
O33 Rb7 3.035329 1_455
O34 Rb2 2.753680 1_555
O34 Rb4 3.035329 1_655
O34 Rb4 3.035329 1_555
O35 Rb3 2.753680 1_555
O35 Rb5 3.035329 1_555
O35 Rb5 3.035329 1_655
