# generated using pymatgen
data_ZnAgF5
_symmetry_space_group_name_H-M   'P 1'
_cell_length_a   10.13544700
_cell_length_b   5.35314600
_cell_length_c   7.97094679
_cell_angle_alpha   69.05438577
_cell_angle_beta   90.00000000
_cell_angle_gamma   90.00000000
_symmetry_Int_Tables_number   1
_chemical_formula_structural   ZnAgF5
_chemical_formula_sum   'Zn4 Ag4 F20'
_cell_volume   403.89796169
_cell_formula_units_Z   4
loop_
 _symmetry_equiv_pos_site_id
 _symmetry_equiv_pos_as_xyz
  1  'x, y, z'
loop_
 _atom_site_type_symbol
 _atom_site_label
 _atom_site_symmetry_multiplicity
 _atom_site_fract_x
 _atom_site_fract_y
 _atom_site_fract_z
 _atom_site_occupancy
  Zn  Zn0  1  0.00274000  0.51456200  0.75236500  1
  Zn  Zn1  1  0.50274000  0.48543800  0.74763500  1
  Zn  Zn2  1  0.99726000  0.48543800  0.24763500  1
  Zn  Zn3  1  0.49726000  0.51456200  0.25236500  1
  Ag  Ag0  1  0.75383600  0.10360300  0.60139300  1
  Ag  Ag1  1  0.25383600  0.89639700  0.89860700  1
  Ag  Ag2  1  0.24616400  0.89639700  0.39860700  1
  Ag  Ag3  1  0.74616400  0.10360300  0.10139300  1
  F  F0  1  0.89534500  0.40639400  0.57267200  1
  F  F1  1  0.39534500  0.59360600  0.92732800  1
  F  F2  1  0.10465500  0.59360600  0.42732800  1
  F  F3  1  0.60465500  0.40639400  0.07267200  1
  F  F4  1  0.60200400  0.36923400  0.48979800  1
  F  F5  1  0.10200400  0.63076600  0.01020200  1
  F  F6  1  0.39799600  0.63076600  0.51020200  1
  F  F7  1  0.89799600  0.36923400  0.98979800  1
  F  F8  1  0.41287900  0.15196500  0.80282500  1
  F  F9  1  0.91287900  0.84803500  0.69717500  1
  F  F10  1  0.58712100  0.84803500  0.19717500  1
  F  F11  1  0.08712100  0.15196500  0.30282500  1
  F  F12  1  0.12289700  0.22618500  0.84151900  1
  F  F13  1  0.62289700  0.77381500  0.65848100  1
  F  F14  1  0.87710300  0.77381500  0.15848100  1
  F  F15  1  0.37710300  0.22618500  0.34151900  1
  F  F16  1  0.68432200  0.15192400  0.83866000  1
  F  F17  1  0.18432200  0.84807600  0.66134000  1
  F  F18  1  0.31567800  0.84807600  0.16134000  1
  F  F19  1  0.81567800  0.15192400  0.33866000  1
loop_
_geom_bond_atom_site_label_1
_geom_bond_atom_site_label_2
_geom_bond_distance
_geom_bond_site_symmetry_2
Ag0 F4 2.068104 1_555
Ag0 F9 2.075149 1_545
Ag0 F19 2.111464 1_555
Ag0 F0 2.114584 1_555
Ag0 F16 2.118932 1_555
Ag0 F13 2.123822 1_545
Ag1 F5 2.068104 1_556
Ag1 F8 2.075149 1_565
Ag1 F18 2.111464 1_556
Ag1 F1 2.114584 1_555
Ag1 F17 2.118932 1_555
Ag1 F12 2.123822 1_565
Ag2 F6 2.068104 1_555
Ag2 F11 2.075149 1_565
Ag2 F17 2.111464 1_555
Ag2 F2 2.114584 1_555
Ag2 F18 2.118932 1_555
Ag2 F15 2.123822 1_565
Ag3 F7 2.068104 1_554
Ag3 F10 2.075149 1_545
Ag3 F16 2.111464 1_554
Ag3 F3 2.114584 1_555
Ag3 F19 2.118932 1_555
Ag3 F14 2.123822 1_545
F0 Zn0 2.040743 1_655
F1 Zn1 2.040743 1_555
F2 Zn2 2.040743 1_455
F3 Zn3 2.040743 1_555
F4 Zn3 2.064318 1_555
F5 Zn2 2.064318 1_455
F6 Zn1 2.064318 1_555
F7 Zn0 2.064318 1_655
F8 Zn1 1.910045 1_555
F9 Zn0 1.910045 1_655
F10 Zn3 1.910045 1_555
F11 Zn2 1.910045 1_455
F12 Zn0 1.893912 1_555
F13 Zn1 1.893912 1_555
F14 Zn2 1.893912 1_555
F15 Zn3 1.893912 1_555
F16 Zn1 2.484932 1_555
F17 Zn0 2.484932 1_555
F18 Zn3 2.484932 1_555
F19 Zn2 2.484932 1_555
