# generated using pymatgen
data_La4Mn3Sb8
_symmetry_space_group_name_H-M   'P 1'
_cell_length_a   4.42204900
_cell_length_b   4.42204900
_cell_length_c   21.22191100
_cell_angle_alpha   90.00000000
_cell_angle_beta   90.00000000
_cell_angle_gamma   90.00000000
_symmetry_Int_Tables_number   1
_chemical_formula_structural   La4Mn3Sb8
_chemical_formula_sum   'La4 Mn3 Sb8'
_cell_volume   414.98422703
_cell_formula_units_Z   1
loop_
 _symmetry_equiv_pos_site_id
 _symmetry_equiv_pos_as_xyz
  1  'x, y, z'
loop_
 _atom_site_type_symbol
 _atom_site_label
 _atom_site_symmetry_multiplicity
 _atom_site_fract_x
 _atom_site_fract_y
 _atom_site_fract_z
 _atom_site_occupancy
  La  La0  1  0.50000000  0.00000000  0.36378900  1
  La  La1  1  0.50000000  0.00000000  0.88118400  1
  La  La2  1  0.00000000  0.50000000  0.11881600  1
  La  La3  1  0.00000000  0.50000000  0.63621100  1
  Mn  Mn0  1  0.50000000  0.50000000  0.50000000  1
  Mn  Mn1  1  0.00000000  0.00000000  0.00000000  1
  Mn  Mn2  1  0.00000000  0.00000000  0.50000000  1
  Sb  Sb0  1  0.50000000  0.50000000  0.24063200  1
  Sb  Sb1  1  0.50000000  0.50000000  0.75936800  1
  Sb  Sb2  1  0.00000000  0.00000000  0.23997100  1
  Sb  Sb3  1  0.00000000  0.00000000  0.76002900  1
  Sb  Sb4  1  0.50000000  0.00000000  0.06751400  1
  Sb  Sb5  1  0.50000000  0.00000000  0.58071800  1
  Sb  Sb6  1  0.00000000  0.50000000  0.41928200  1
  Sb  Sb7  1  0.00000000  0.50000000  0.93248600  1
loop_
_geom_bond_atom_site_label_1
_geom_bond_atom_site_label_2
_geom_bond_distance
_geom_bond_site_symmetry_2
La0 Sb6 3.341281 1_655
La0 Sb6 3.341281 1_555
La0 Sb6 3.341281 1_545
La0 Sb6 3.341281 1_645
La0 Sb0 3.423401 1_545
La0 Sb0 3.423401 1_555
La0 Sb2 3.434123 1_555
La0 Sb2 3.434123 1_655
La1 Sb7 3.310979 1_645
La1 Sb7 3.310979 1_655
La1 Sb7 3.310979 1_545
La1 Sb7 3.310979 1_555
La1 Mn1 3.353596 1_656
La1 Mn1 3.353596 1_556
La1 Sb3 3.391076 1_655
La1 Sb3 3.391076 1_555
La1 Sb1 3.401724 1_545
La1 Sb1 3.401724 1_555
La2 Sb4 3.310979 1_565
La2 Sb4 3.310979 1_465
La2 Sb4 3.310979 1_455
La2 Sb4 3.310979 1_555
La2 Mn1 3.353596 1_565
La2 Mn1 3.353596 1_555
La2 Sb2 3.391076 1_555
La2 Sb2 3.391076 1_565
La2 Sb0 3.401724 1_455
La2 Sb0 3.401724 1_555
La3 Sb5 3.341281 1_565
La3 Sb5 3.341281 1_455
La3 Sb5 3.341281 1_465
La3 Sb5 3.341281 1_555
La3 Sb1 3.423401 1_455
La3 Sb1 3.423401 1_555
La3 Sb3 3.434123 1_565
La3 Sb3 3.434123 1_555
Mn0 Sb5 2.796956 1_555
Mn0 Sb5 2.796956 1_565
Mn0 Sb6 2.796956 1_555
Mn0 Sb6 2.796956 1_655
Mn1 Sb7 2.634668 1_544
Mn1 Sb7 2.634668 1_554
Mn1 Sb4 2.634668 1_455
Mn1 Sb4 2.634668 1_555
Mn2 Sb5 2.796956 1_455
Mn2 Sb5 2.796956 1_555
Mn2 Sb6 2.796956 1_555
Mn2 Sb6 2.796956 1_545
Sb0 Sb2 3.126892 1_555
Sb0 Sb2 3.126892 1_565
Sb0 Sb2 3.126892 1_655
Sb0 Sb2 3.126892 1_665
Sb1 Sb3 3.126892 1_665
Sb1 Sb3 3.126892 1_555
Sb1 Sb3 3.126892 1_655
Sb1 Sb3 3.126892 1_565
