# generated using pymatgen
data_Mg6CuW
_symmetry_space_group_name_H-M   'P 1'
_cell_length_a   4.79316400
_cell_length_b   5.99648500
_cell_length_c   10.49541300
_cell_angle_alpha   90.00000000
_cell_angle_beta   90.00000000
_cell_angle_gamma   90.00000000
_symmetry_Int_Tables_number   1
_chemical_formula_structural   Mg6CuW
_chemical_formula_sum   'Mg12 Cu2 W2'
_cell_volume   301.66058812
_cell_formula_units_Z   2
loop_
 _symmetry_equiv_pos_site_id
 _symmetry_equiv_pos_as_xyz
  1  'x, y, z'
loop_
 _atom_site_type_symbol
 _atom_site_label
 _atom_site_symmetry_multiplicity
 _atom_site_fract_x
 _atom_site_fract_y
 _atom_site_fract_z
 _atom_site_occupancy
  Mg  Mg0  1  0.00000000  0.26390600  0.09037800  1
  Mg  Mg1  1  0.00000000  0.73609400  0.09037800  1
  Mg  Mg2  1  0.00000000  0.00000000  0.33313800  1
  Mg  Mg3  1  0.50000000  0.74087600  0.41608400  1
  Mg  Mg4  1  0.50000000  0.25912400  0.41608400  1
  Mg  Mg5  1  0.50000000  0.00000000  0.16642000  1
  Mg  Mg6  1  0.00000000  0.76390600  0.59037800  1
  Mg  Mg7  1  0.00000000  0.23609400  0.59037800  1
  Mg  Mg8  1  0.00000000  0.50000000  0.83313800  1
  Mg  Mg9  1  0.50000000  0.24087600  0.91608400  1
  Mg  Mg10  1  0.50000000  0.75912400  0.91608400  1
  Mg  Mg11  1  0.50000000  0.50000000  0.66642000  1
  Cu  Cu0  1  0.00000000  0.50000000  0.31482100  1
  Cu  Cu1  1  0.00000000  0.00000000  0.81482100  1
  W  W0  1  0.50000000  0.50000000  0.17269700  1
  W  W1  1  0.50000000  0.00000000  0.67269700  1
loop_
_geom_bond_atom_site_label_1
_geom_bond_atom_site_label_2
_geom_bond_distance
_geom_bond_site_symmetry_2
Mg0 W0 2.914508 1_455
Mg0 W0 2.914508 1_555
Mg0 Mg2 2.999326 1_555
Mg0 Mg8 3.048514 1_554
Mg1 W0 2.914508 1_455
Mg1 W0 2.914508 1_555
Mg1 Mg2 2.999326 1_565
Mg1 Mg8 3.048514 1_554
Mg2 Mg5 2.967375 1_455
Mg2 Mg5 2.967375 1_555
Mg2 Mg4 2.985944 1_455
Mg2 Mg4 2.985944 1_555
Mg2 Mg3 2.985944 1_545
Mg2 Mg3 2.985944 1_445
Mg2 Mg7 3.048514 1_555
Mg2 Mg6 3.048514 1_545
Mg3 W0 2.934539 1_555
Mg3 W1 3.109348 1_565
Mg4 W0 2.934539 1_555
Mg4 W1 3.109348 1_555
Mg5 W0 2.998966 1_545
Mg5 W0 2.998966 1_555
Mg6 W1 2.914508 1_565
Mg6 W1 2.914508 1_465
Mg6 Mg8 2.999326 1_555
Mg7 W1 2.914508 1_455
Mg7 W1 2.914508 1_555
Mg7 Mg8 2.999326 1_555
Mg8 Mg9 2.985944 1_555
Mg8 Mg9 2.985944 1_455
Mg9 W1 2.934539 1_555
Mg9 W0 3.109348 1_556
Mg10 W1 2.934539 1_565
Mg10 Mg8 2.985944 1_655
Mg10 Mg8 2.985944 1_555
Mg10 W0 3.109348 1_556
Mg11 Mg8 2.967375 1_655
Mg11 Mg8 2.967375 1_555
Mg11 W1 2.998966 1_565
Mg11 W1 2.998966 1_555
Cu0 Mg1 2.748319 1_555
Cu0 Mg0 2.748319 1_555
Cu0 W0 2.822875 1_555
Cu0 W0 2.822875 1_455
Cu0 Mg3 2.993236 1_455
Cu0 Mg3 2.993236 1_555
Cu0 Mg4 2.993236 1_555
Cu0 Mg4 2.993236 1_455
Cu0 Mg2 3.004399 1_565
Cu0 Mg2 3.004399 1_555
Cu0 Mg6 3.296739 1_555
Cu0 Mg7 3.296739 1_555
Cu1 Mg6 2.748319 1_545
Cu1 Mg7 2.748319 1_555
Cu1 W1 2.822875 1_455
Cu1 W1 2.822875 1_555
Cu1 Mg9 2.993236 1_455
Cu1 Mg9 2.993236 1_555
Cu1 Mg10 2.993236 1_545
Cu1 Mg10 2.993236 1_445
Cu1 Mg8 3.004399 1_545
Cu1 Mg8 3.004399 1_555
Cu1 Mg0 3.296739 1_556
Cu1 Mg1 3.296739 1_546
