# generated using pymatgen
data_NaZn3H3S2O9
_symmetry_space_group_name_H-M   'P 1'
_cell_length_a   5.94324958
_cell_length_b   5.94324958
_cell_length_c   13.80149800
_cell_angle_alpha   90.00000000
_cell_angle_beta   90.00000000
_cell_angle_gamma   119.99999536
_symmetry_Int_Tables_number   1
_chemical_formula_structural   NaZn3H3S2O9
_chemical_formula_sum   'Na2 Zn6 H6 S4 O18'
_cell_volume   422.18696076
_cell_formula_units_Z   2
loop_
 _symmetry_equiv_pos_site_id
 _symmetry_equiv_pos_as_xyz
  1  'x, y, z'
loop_
 _atom_site_type_symbol
 _atom_site_label
 _atom_site_symmetry_multiplicity
 _atom_site_fract_x
 _atom_site_fract_y
 _atom_site_fract_z
 _atom_site_occupancy
  Na  Na0  1  0.33333300  0.66666700  0.99004200  1
  Na  Na1  1  0.33333300  0.66666700  0.49004200  1
  Zn  Zn0  1  0.33161000  0.01008100  0.25400000  1
  Zn  Zn1  1  0.98991900  0.32152900  0.25400000  1
  Zn  Zn2  1  0.67847100  0.66839000  0.25400000  1
  Zn  Zn3  1  0.98991900  0.66839000  0.75400000  1
  Zn  Zn4  1  0.33161000  0.32152900  0.75400000  1
  Zn  Zn5  1  0.67847100  0.01008100  0.75400000  1
  H  H0  1  0.33333300  0.66666700  0.17143600  1
  H  H1  1  0.33333300  0.66666700  0.67143600  1
  H  H2  1  0.00000000  0.00000000  0.13254800  1
  H  H3  1  0.00000000  0.00000000  0.63254800  1
  H  H4  1  0.66666700  0.33333300  0.87039400  1
  H  H5  1  0.66666700  0.33333300  0.37039400  1
  S  S0  1  0.00000000  0.00000000  0.43960700  1
  S  S1  1  0.00000000  0.00000000  0.93960700  1
  S  S2  1  0.66666700  0.33333300  0.56372800  1
  S  S3  1  0.66666700  0.33333300  0.06372800  1
  O  O0  1  0.33333300  0.66666700  0.24219900  1
  O  O1  1  0.33333300  0.66666700  0.74219900  1
  O  O2  1  0.00000000  0.00000000  0.20395600  1
  O  O3  1  0.00000000  0.00000000  0.70395600  1
  O  O4  1  0.66666700  0.33333300  0.79908400  1
  O  O5  1  0.66666700  0.33333300  0.29908400  1
  O  O6  1  0.18307500  0.91211500  0.39479900  1
  O  O7  1  0.08788500  0.27096100  0.39479900  1
  O  O8  1  0.72903900  0.81692500  0.39479900  1
  O  O9  1  0.08788500  0.81692500  0.89479900  1
  O  O10  1  0.18307500  0.27096100  0.89479900  1
  O  O11  1  0.72903900  0.91211500  0.89479900  1
  O  O12  1  0.48243300  0.42024700  0.60830500  1
  O  O13  1  0.57975300  0.06218600  0.60830500  1
  O  O14  1  0.93781400  0.51756700  0.60830500  1
  O  O15  1  0.57975300  0.51756700  0.10830500  1
  O  O16  1  0.48243300  0.06218600  0.10830500  1
  O  O17  1  0.93781400  0.42024700  0.10830500  1
loop_
_geom_bond_atom_site_label_1
_geom_bond_atom_site_label_2
_geom_bond_distance
_geom_bond_site_symmetry_2
Na0 O9 2.440505 1_555
Na0 O10 2.440505 1_555
Na0 O11 2.440505 1_555
Na0 O16 2.625255 1_566
Na0 O17 2.625256 1_456
Na0 O15 2.625259 1_556
Na1 O6 2.440505 1_555
Na1 O8 2.440505 1_555
Na1 O7 2.440505 1_555
Na1 O14 2.625255 1_455
Na1 O13 2.625256 1_565
Na1 O12 2.625259 1_555
H0 O0 0.976635 1_555
H0 Na0 2.503509 1_554
H1 O1 0.976635 1_555
H1 Na1 2.503509 1_555
H2 O2 0.985537 1_555
H3 O3 0.985537 1_555
H4 O4 0.984185 1_555
H5 O5 0.984185 1_555
O0 Zn0 2.052606 1_565
O0 Zn1 2.052610 1_455
O0 Zn2 2.052612 1_555
O1 Zn3 2.052606 1_455
O1 Zn5 2.052610 1_565
O1 Zn4 2.052612 1_555
O2 Zn1 2.060768 1_455
O2 Zn0 2.060768 1_555
O2 Zn2 2.060768 1_445
O3 Zn5 2.060768 1_455
O3 Zn3 2.060768 1_445
O3 Zn4 2.060768 1_555
O4 Zn5 2.053716 1_555
O4 Zn3 2.053719 1_555
O4 Zn4 2.053722 1_555
O5 Zn1 2.053716 1_555
O5 Zn0 2.053719 1_555
O5 Zn2 2.053722 1_555
O6 S0 1.551598 1_565
O6 Zn0 2.092961 1_565
O7 S0 1.551603 1_555
O7 Zn1 2.092959 1_455
O8 S0 1.551602 1_665
O8 Zn2 2.092961 1_555
O9 S1 1.551598 1_565
O9 Zn3 2.092961 1_455
O10 S1 1.551602 1_555
O10 Zn4 2.092961 1_555
O11 S1 1.551603 1_665
O11 Zn5 2.092959 1_565
O12 S2 1.552367 1_555
O12 Zn4 2.159899 1_555
O13 S2 1.552362 1_555
O13 Zn5 2.159899 1_555
O14 S2 1.552363 1_555
O14 Zn3 2.159899 1_555
O15 S3 1.552367 1_555
O15 Zn2 2.159899 1_555
O16 S3 1.552363 1_555
O16 Zn0 2.159899 1_555
O17 S3 1.552362 1_555
O17 Zn1 2.159899 1_555
