# generated using pymatgen
data_K3Mg18Pb11
_symmetry_space_group_name_H-M   'P 1'
_cell_length_a   12.10316789
_cell_length_b   12.10287162
_cell_length_c   14.20950794
_cell_angle_alpha   90.00000000
_cell_angle_beta   90.00000000
_cell_angle_gamma   120.00173467
_symmetry_Int_Tables_number   1
_chemical_formula_structural   K3Mg18Pb11
_chemical_formula_sum   'K6 Mg36 Pb22'
_cell_volume   1802.55931035
_cell_formula_units_Z   2
loop_
 _symmetry_equiv_pos_site_id
 _symmetry_equiv_pos_as_xyz
  1  'x, y, z'
loop_
 _atom_site_type_symbol
 _atom_site_label
 _atom_site_symmetry_multiplicity
 _atom_site_fract_x
 _atom_site_fract_y
 _atom_site_fract_z
 _atom_site_occupancy
  K  K0  1  0.66659051  0.33329861  0.08253291  1
  K  K1  1  0.33340949  0.66670139  0.58253291  1
  K  K2  1  0.33340949  0.66670139  0.91746709  1
  K  K3  1  0.66659051  0.33329861  0.41746709  1
  K  K4  1  0.33342091  0.66671407  0.25000000  1
  K  K5  1  0.66657909  0.33328593  0.75000000  1
  Mg  Mg0  1  0.10511554  0.85614125  0.25000000  1
  Mg  Mg1  1  0.14386725  0.24897248  0.25000000  1
  Mg  Mg2  1  0.75102282  0.89487733  0.25000000  1
  Mg  Mg3  1  0.89488446  0.14385875  0.75000000  1
  Mg  Mg4  1  0.85613275  0.75102752  0.75000000  1
  Mg  Mg5  1  0.24897718  0.10512267  0.75000000  1
  Mg  Mg6  1  0.85017456  0.72992346  0.08337913  1
  Mg  Mg7  1  0.27008221  0.12026971  0.08337348  1
  Mg  Mg8  1  0.87973782  0.14981870  0.08337624  1
  Mg  Mg9  1  0.14982544  0.27007654  0.58337913  1
  Mg  Mg10  1  0.72991779  0.87973029  0.58337348  1
  Mg  Mg11  1  0.12026218  0.85018130  0.58337624  1
  Mg  Mg12  1  0.14982544  0.27007654  0.91662087  1
  Mg  Mg13  1  0.72991779  0.87973029  0.91662652  1
  Mg  Mg14  1  0.12026218  0.85018130  0.91662376  1
  Mg  Mg15  1  0.85017456  0.72992346  0.41662087  1
  Mg  Mg16  1  0.27008221  0.12026971  0.41662652  1
  Mg  Mg17  1  0.87973782  0.14981870  0.41662376  1
  Mg  Mg18  1  0.62653877  0.56865084  0.25000000  1
  Mg  Mg19  1  0.43135388  0.05790313  0.25000000  1
  Mg  Mg20  1  0.94210436  0.37346411  0.25000000  1
  Mg  Mg21  1  0.37346123  0.43134916  0.75000000  1
  Mg  Mg22  1  0.56864612  0.94209687  0.75000000  1
  Mg  Mg23  1  0.05789564  0.62653589  0.75000000  1
  Mg  Mg24  1  0.05511179  0.62286719  0.08396653  1
  Mg  Mg25  1  0.37714476  0.43224806  0.08396701  1
  Mg  Mg26  1  0.56775473  0.94488717  0.08396480  1
  Mg  Mg27  1  0.94488821  0.37713281  0.58396653  1
  Mg  Mg28  1  0.62285524  0.56775194  0.58396701  1
  Mg  Mg29  1  0.43224527  0.05511283  0.58396480  1
  Mg  Mg30  1  0.94488821  0.37713281  0.91603347  1
  Mg  Mg31  1  0.62285524  0.56775194  0.91603299  1
  Mg  Mg32  1  0.43224527  0.05511283  0.91603520  1
  Mg  Mg33  1  0.05511179  0.62286719  0.41603347  1
  Mg  Mg34  1  0.37714476  0.43224806  0.41603299  1
  Mg  Mg35  1  0.56775473  0.94488717  0.41603520  1
  Pb  Pb0  1  0.00000555  0.00000202  0.13382248  1
  Pb  Pb1  1  0.99999445  0.99999798  0.63382248  1
  Pb  Pb2  1  0.99999445  0.99999798  0.86617752  1
  Pb  Pb3  1  0.00000555  0.00000202  0.36617752  1
  Pb  Pb4  1  0.29627937  0.88429816  0.08484118  1
  Pb  Pb5  1  0.11572914  0.41199305  0.08482277  1
  Pb  Pb6  1  0.58804558  0.70374064  0.08483755  1
  Pb  Pb7  1  0.70372063  0.11570184  0.58484118  1
  Pb  Pb8  1  0.88427086  0.58800695  0.58482277  1
  Pb  Pb9  1  0.41195442  0.29625936  0.58483755  1
  Pb  Pb10  1  0.70372063  0.11570184  0.91515882  1
  Pb  Pb11  1  0.88427086  0.58800695  0.91517723  1
  Pb  Pb12  1  0.41195442  0.29625936  0.91516245  1
  Pb  Pb13  1  0.29627937  0.88429816  0.41515882  1
  Pb  Pb14  1  0.11572914  0.41199305  0.41517723  1
  Pb  Pb15  1  0.58804558  0.70374064  0.41516245  1
  Pb  Pb16  1  0.88296720  0.58203915  0.25000000  1
  Pb  Pb17  1  0.41795128  0.30093843  0.25000000  1
  Pb  Pb18  1  0.69905332  0.11701376  0.25000000  1
  Pb  Pb19  1  0.11703280  0.41796085  0.75000000  1
  Pb  Pb20  1  0.58204872  0.69906157  0.75000000  1
  Pb  Pb21  1  0.30094668  0.88298624  0.75000000  1
loop_
_geom_bond_atom_site_label_1
_geom_bond_atom_site_label_2
_geom_bond_distance
_geom_bond_site_symmetry_2
K0 Pb17 3.700454 1_555
K0 Pb18 3.701042 1_555
K0 Pb16 3.701289 1_555
K0 Pb12 3.738119 1_554
K0 Pb11 3.738608 1_554
K0 Pb10 3.738636 1_554
K1 Pb20 3.700454 1_555
K1 Pb21 3.701042 1_555
K1 Pb19 3.701289 1_555
K1 Pb15 3.738119 1_555
K1 Pb14 3.738608 1_555
K1 Pb13 3.738636 1_555
K2 Pb20 3.700454 1_555
K2 Pb21 3.701042 1_555
K2 Pb19 3.701289 1_555
K2 Pb6 3.738119 1_556
K2 Pb5 3.738608 1_556
K2 Pb4 3.738636 1_556
K3 Pb17 3.700454 1_555
K3 Pb18 3.701042 1_555
K3 Pb16 3.701289 1_555
K3 Pb9 3.738119 1_555
K3 Pb8 3.738608 1_555
K3 Pb7 3.738636 1_555
K4 Pb15 3.718176 1_555
K4 Pb6 3.718176 1_555
K4 Pb4 3.718639 1_555
K4 Pb13 3.718639 1_555
K4 Pb5 3.719108 1_555
K4 Pb14 3.719108 1_555
K4 Mg35 3.923734 1_555
K4 Mg26 3.923734 1_555
K4 Mg34 3.924346 1_555
K4 Mg25 3.924346 1_555
K4 Mg33 3.925090 1_555
K4 Mg24 3.925090 1_555
K5 Pb9 3.718176 1_555
K5 Pb12 3.718176 1_555
K5 Pb7 3.718639 1_555
K5 Pb10 3.718639 1_555
K5 Pb8 3.719108 1_555
K5 Pb11 3.719108 1_555
K5 Mg32 3.923734 1_555
K5 Mg29 3.923734 1_555
K5 Mg31 3.924346 1_555
K5 Mg28 3.924346 1_555
K5 Mg30 3.925090 1_555
K5 Mg27 3.925090 1_555
Mg0 Pb16 3.051946 1_455
Mg0 Pb3 3.096816 1_565
Mg0 Pb0 3.096816 1_565
Mg0 Pb4 3.191923 1_555
Mg0 Pb13 3.191923 1_555
Mg1 Pb17 3.051798 1_555
Mg1 Pb3 3.096733 1_555
Mg1 Pb0 3.096733 1_555
Mg1 Pb14 3.192109 1_555
Mg1 Pb5 3.192109 1_555
Mg2 Pb18 3.052006 1_565
Mg2 Pb3 3.096898 1_665
Mg2 Pb0 3.096898 1_665
Mg2 Pb6 3.191676 1_555
Mg2 Pb15 3.191676 1_555
Mg3 Pb19 3.051946 1_655
Mg3 Pb1 3.096816 1_545
Mg3 Pb2 3.096816 1_545
Mg3 Pb10 3.191923 1_555
Mg3 Pb7 3.191923 1_555
Mg4 Pb20 3.051798 1_555
Mg4 Pb1 3.096733 1_555
Mg4 Pb2 3.096733 1_555
Mg4 Pb8 3.192109 1_555
Mg4 Pb11 3.192109 1_555
Mg5 Pb21 3.052006 1_545
Mg5 Pb1 3.096898 1_445
Mg5 Pb2 3.096898 1_445
Mg5 Pb9 3.191676 1_555
Mg5 Pb12 3.191676 1_555
Mg6 Pb0 2.925568 1_665
Mg6 Pb6 3.026677 1_555
Mg6 Pb11 3.088964 1_554
Mg6 Pb16 3.110778 1_555
Mg7 Pb0 2.925630 1_555
Mg7 Pb4 3.027028 1_545
Mg7 Pb12 3.088804 1_554
Mg7 Pb17 3.110723 1_555
Mg8 Pb0 2.925728 1_655
Mg8 Pb5 3.027104 1_655
Mg8 Pb10 3.089130 1_554
Mg8 Pb18 3.110851 1_555
Mg9 Pb1 2.925568 1_445
Mg9 Pb9 3.026677 1_555
Mg9 Pb14 3.088964 1_555
Mg9 Pb19 3.110778 1_555
Mg10 Pb1 2.925630 1_555
Mg10 Pb7 3.027028 1_565
Mg10 Pb15 3.088804 1_555
Mg10 Pb20 3.110723 1_555
Mg11 Pb1 2.925728 1_455
Mg11 Pb8 3.027104 1_455
Mg11 Pb13 3.089130 1_555
Mg11 Pb21 3.110851 1_555
Mg12 Pb2 2.925568 1_445
Mg12 Pb12 3.026677 1_555
Mg12 Pb5 3.088964 1_556
Mg12 Pb19 3.110778 1_555
Mg13 Pb2 2.925630 1_555
Mg13 Pb10 3.027028 1_565
Mg13 Pb6 3.088804 1_556
Mg13 Pb20 3.110723 1_555
Mg14 Pb2 2.925728 1_455
Mg14 Pb11 3.027104 1_455
Mg14 Pb4 3.089130 1_556
Mg14 Pb21 3.110851 1_555
Mg15 Pb3 2.925568 1_665
Mg15 Pb15 3.026677 1_555
Mg15 Pb8 3.088964 1_555
Mg15 Pb16 3.110778 1_555
Mg16 Pb3 2.925630 1_555
Mg16 Pb13 3.027028 1_545
Mg16 Pb9 3.088804 1_555
Mg16 Pb17 3.110723 1_555
Mg17 Pb3 2.925728 1_655
Mg17 Pb14 3.027104 1_655
Mg17 Pb7 3.089130 1_555
Mg17 Pb18 3.110851 1_555
Mg18 Pb17 2.948113 1_555
Mg18 Pb16 3.025829 1_555
Mg18 Pb15 3.026514 1_555
Mg18 Pb6 3.026514 1_555
Mg19 Pb18 2.948123 1_555
Mg19 Pb17 3.025799 1_555
Mg19 Pb4 3.026517 1_545
Mg19 Pb13 3.026517 1_545
Mg20 Pb16 2.948146 1_555
Mg20 Pb18 3.025916 1_555
Mg20 Pb5 3.026917 1_655
Mg20 Pb14 3.026917 1_655
Mg21 Pb20 2.948113 1_555
Mg21 Pb19 3.025829 1_555
Mg21 Pb9 3.026514 1_555
Mg21 Pb12 3.026514 1_555
Mg22 Pb21 2.948123 1_555
Mg22 Pb20 3.025799 1_555
Mg22 Pb7 3.026517 1_565
Mg22 Pb10 3.026517 1_565
Mg23 Pb19 2.948146 1_555
Mg23 Pb21 3.025916 1_555
Mg23 Pb11 3.026917 1_455
Mg23 Pb8 3.026917 1_455
Mg24 Pb5 2.987404 1_555
Mg24 Pb16 3.020201 1_455
Mg24 Pb4 3.048827 1_555
Mg24 Pb11 3.055063 1_454
Mg25 Pb6 2.987429 1_555
Mg25 Pb17 3.020024 1_555
Mg25 Pb5 3.048804 1_555
Mg25 Pb12 3.055030 1_554
Mg26 Pb4 2.987348 1_555
Mg26 Pb18 3.020044 1_565
Mg26 Pb6 3.048816 1_555
Mg26 Pb10 3.055039 1_564
Mg27 Pb8 2.987404 1_555
Mg27 Pb19 3.020201 1_655
Mg27 Pb7 3.048827 1_555
Mg27 Pb14 3.055063 1_655
Mg28 Pb9 2.987429 1_555
Mg28 Pb20 3.020024 1_555
Mg28 Pb8 3.048804 1_555
Mg28 Pb15 3.055030 1_555
Mg29 Pb7 2.987348 1_555
Mg29 Pb21 3.020044 1_545
Mg29 Pb9 3.048816 1_555
Mg29 Pb13 3.055039 1_545
Mg30 Pb11 2.987404 1_555
Mg30 Pb19 3.020201 1_655
Mg30 Pb10 3.048827 1_555
Mg30 Pb5 3.055063 1_656
Mg31 Pb12 2.987429 1_555
Mg31 Pb20 3.020024 1_555
Mg31 Pb11 3.048804 1_555
Mg31 Pb6 3.055030 1_556
Mg32 Pb10 2.987348 1_555
Mg32 Pb21 3.020044 1_545
Mg32 Pb12 3.048816 1_555
Mg32 Pb4 3.055039 1_546
Mg33 Pb14 2.987404 1_555
Mg33 Pb16 3.020201 1_455
Mg33 Pb13 3.048827 1_555
Mg33 Pb8 3.055063 1_455
Mg34 Pb15 2.987429 1_555
Mg34 Pb17 3.020024 1_555
Mg34 Pb14 3.048804 1_555
Mg34 Pb9 3.055030 1_555
Mg35 Pb13 2.987348 1_555
Mg35 Pb18 3.020044 1_565
Mg35 Pb15 3.048816 1_555
Mg35 Pb7 3.055039 1_565
