# generated using pymatgen
data_Li2UBr6
_symmetry_space_group_name_H-M   'P 1'
_cell_length_a   6.96711338
_cell_length_b   6.96711338
_cell_length_c   13.58085500
_cell_angle_alpha   90.00000000
_cell_angle_beta   90.00000000
_cell_angle_gamma   119.99999412
_symmetry_Int_Tables_number   1
_chemical_formula_structural   Li2UBr6
_chemical_formula_sum   'Li4 U2 Br12'
_cell_volume   570.90457876
_cell_formula_units_Z   2
loop_
 _symmetry_equiv_pos_site_id
 _symmetry_equiv_pos_as_xyz
  1  'x, y, z'
loop_
 _atom_site_type_symbol
 _atom_site_label
 _atom_site_symmetry_multiplicity
 _atom_site_fract_x
 _atom_site_fract_y
 _atom_site_fract_z
 _atom_site_occupancy
  Li  Li0  1  0.00000000  0.00000000  0.75000000  1
  Li  Li1  1  0.66666700  0.33333300  0.75000000  1
  Li  Li2  1  0.33333300  0.66666700  0.25000000  1
  Li  Li3  1  0.00000000  0.00000000  0.25000000  1
  U  U0  1  0.33333300  0.66666700  0.75000000  1
  U  U1  1  0.66666700  0.33333300  0.25000000  1
  Br  Br0  1  0.99766000  0.33041900  0.63401300  1
  Br  Br1  1  0.33276000  0.00234000  0.63401300  1
  Br  Br2  1  0.66958100  0.66724000  0.63401300  1
  Br  Br3  1  0.66958100  0.00234000  0.86598700  1
  Br  Br4  1  0.33276000  0.33041900  0.86598700  1
  Br  Br5  1  0.99766000  0.66724000  0.86598700  1
  Br  Br6  1  0.00234000  0.33276000  0.13401300  1
  Br  Br7  1  0.33041900  0.99766000  0.13401300  1
  Br  Br8  1  0.66724000  0.66958100  0.13401300  1
  Br  Br9  1  0.66724000  0.99766000  0.36598700  1
  Br  Br10  1  0.33041900  0.33276000  0.36598700  1
  Br  Br11  1  0.00234000  0.66958100  0.36598700  1
loop_
_geom_bond_atom_site_label_1
_geom_bond_atom_site_label_2
_geom_bond_distance
_geom_bond_site_symmetry_2
Br0 Li0 2.796171 1_655
Br0 Li1 2.801148 1_555
Br0 U0 2.821353 1_655
Br1 Li0 2.796176 1_555
Br1 Li1 2.801149 1_555
Br1 U0 2.821347 1_545
Br2 Li0 2.796174 1_665
Br2 Li1 2.801149 1_555
Br2 U0 2.821359 1_555
Br3 Li0 2.796171 1_655
Br3 Li1 2.801148 1_555
Br3 U0 2.821353 1_545
Br4 Li0 2.796174 1_555
Br4 Li1 2.801149 1_555
Br4 U0 2.821359 1_555
Br5 Li0 2.796176 1_665
Br5 Li1 2.801149 1_555
Br5 U0 2.821347 1_655
Br6 Li3 2.796176 1_555
Br6 Li2 2.801149 1_555
Br6 U1 2.821347 1_455
Br7 Li3 2.796171 1_565
Br7 Li2 2.801148 1_555
Br7 U1 2.821353 1_565
Br8 Li3 2.796174 1_665
Br8 Li2 2.801149 1_555
Br8 U1 2.821359 1_555
Br9 Li3 2.796176 1_665
Br9 Li2 2.801149 1_555
Br9 U1 2.821347 1_565
Br10 Li3 2.796174 1_555
Br10 Li2 2.801149 1_555
Br10 U1 2.821359 1_555
Br11 Li3 2.796171 1_565
Br11 Li2 2.801148 1_555
Br11 U1 2.821353 1_455
