# generated using pymatgen
data_ZrRe2
_symmetry_space_group_name_H-M   'P 1'
_cell_length_a   5.28464166
_cell_length_b   5.28464215
_cell_length_c   8.65682963
_cell_angle_alpha   90.00000000
_cell_angle_beta   90.00000000
_cell_angle_gamma   120.00000331
_symmetry_Int_Tables_number   1
_chemical_formula_structural   ZrRe2
_chemical_formula_sum   'Zr4 Re8'
_cell_volume   209.37297124
_cell_formula_units_Z   4
loop_
 _symmetry_equiv_pos_site_id
 _symmetry_equiv_pos_as_xyz
  1  'x, y, z'
loop_
 _atom_site_type_symbol
 _atom_site_label
 _atom_site_symmetry_multiplicity
 _atom_site_fract_x
 _atom_site_fract_y
 _atom_site_fract_z
 _atom_site_occupancy
  Zr  Zr0  1  0.33333300  0.66666700  0.43864658  1
  Zr  Zr1  1  0.66666700  0.33333300  0.93864658  1
  Zr  Zr2  1  0.66666700  0.33333300  0.56135342  1
  Zr  Zr3  1  0.33333300  0.66666700  0.06135342  1
  Re  Re0  1  0.65712679  0.82856389  0.75000000  1
  Re  Re1  1  0.34287321  0.17143611  0.25000000  1
  Re  Re2  1  0.82856389  0.17143611  0.25000000  1
  Re  Re3  1  0.17143611  0.34287321  0.75000000  1
  Re  Re4  1  0.17143611  0.82856389  0.75000000  1
  Re  Re5  1  0.82856389  0.65712679  0.25000000  1
  Re  Re6  1  -0.00000000  -0.00000000  0.50000000  1
  Re  Re7  1  -0.00000000  -0.00000000  -0.00000000  1
loop_
_geom_bond_atom_site_label_1
_geom_bond_atom_site_label_2
_geom_bond_distance
_geom_bond_site_symmetry_2
Re0 Re3 2.566701 1_555
Re0 Re4 2.566701 1_555
Re0 Re7 2.673237 1_666
Re0 Re6 2.673237 1_665
Re0 Re3 2.717940 1_665
Re0 Re4 2.717940 1_655
Re0 Zr0 3.075843 1_555
Re0 Zr3 3.075843 1_556
Re0 Zr2 3.106557 1_565
Re0 Zr1 3.106557 1_565
Re0 Zr2 3.106566 1_555
Re0 Zr1 3.106566 1_555
Re1 Re5 2.566701 1_555
Re1 Re2 2.566701 1_555
Re1 Re6 2.673237 1_555
Re1 Re7 2.673237 1_555
Re1 Re5 2.717940 1_445
Re1 Re2 2.717940 1_455
Re1 Zr1 3.075843 1_554
Re1 Zr2 3.075843 1_555
Re1 Zr3 3.106557 1_545
Re1 Zr0 3.106557 1_545
Re1 Zr3 3.106566 1_555
Re1 Zr0 3.106566 1_555
Re2 Re5 2.566701 1_555
Re2 Re7 2.673235 1_655
Re2 Re6 2.673235 1_655
Re2 Re5 2.717941 1_545
Re2 Zr2 3.075843 1_555
Re2 Zr1 3.075843 1_554
Re2 Zr0 3.106561 1_655
Re2 Zr3 3.106561 1_655
Re2 Zr3 3.106561 1_545
Re2 Zr0 3.106561 1_545
Re3 Re4 2.566701 1_555
Re3 Re7 2.673238 1_556
Re3 Re6 2.673238 1_555
Re3 Re4 2.717941 1_545
Re3 Zr0 3.075843 1_555
Re3 Zr3 3.075843 1_556
Re3 Zr2 3.106556 1_455
Re3 Zr1 3.106556 1_455
Re3 Zr1 3.106565 1_555
Re3 Zr2 3.106565 1_555
Re4 Re7 2.673235 1_566
Re4 Re6 2.673235 1_565
Re4 Zr0 3.075843 1_555
Re4 Zr3 3.075843 1_556
Re4 Zr1 3.106561 1_455
Re4 Zr2 3.106561 1_455
Re4 Zr2 3.106561 1_565
Re4 Zr1 3.106561 1_565
Re5 Re7 2.673238 1_665
Re5 Re6 2.673238 1_665
Re5 Zr1 3.075843 1_554
Re5 Zr2 3.075843 1_555
Re5 Zr0 3.106556 1_655
Re5 Zr3 3.106556 1_655
Re5 Zr3 3.106565 1_555
Re5 Zr0 3.106565 1_555
Re6 Zr0 3.096970 1_545
Re6 Zr2 3.096970 1_455
Re6 Zr0 3.096974 1_445
Re6 Zr2 3.096974 1_555
Re6 Zr2 3.096975 1_445
Re6 Zr0 3.096975 1_555
Re7 Zr1 3.096970 1_454
Re7 Zr3 3.096970 1_545
Re7 Zr3 3.096974 1_445
Re7 Zr1 3.096974 1_554
Re7 Zr3 3.096975 1_555
Re7 Zr1 3.096975 1_444
