# generated using pymatgen
data_C7I3N4
_symmetry_space_group_name_H-M   'P 1'
_cell_length_a   14.46057700
_cell_length_b   7.25513400
_cell_length_c   14.59015210
_cell_angle_alpha   80.73559454
_cell_angle_beta   90.00000000
_cell_angle_gamma   90.00000000
_symmetry_Int_Tables_number   1
_chemical_formula_structural   C7I3N4
_chemical_formula_sum   'C28 I12 N16'
_cell_volume   1510.73620259
_cell_formula_units_Z   4
loop_
 _symmetry_equiv_pos_site_id
 _symmetry_equiv_pos_as_xyz
  1  'x, y, z'
loop_
 _atom_site_type_symbol
 _atom_site_label
 _atom_site_symmetry_multiplicity
 _atom_site_fract_x
 _atom_site_fract_y
 _atom_site_fract_z
 _atom_site_occupancy
  C  C0  1  0.17329000  0.78487600  0.22230900  1
  C  C1  1  0.67329000  0.71512400  0.77769100  1
  C  C2  1  0.82671000  0.21512400  0.77769100  1
  C  C3  1  0.32671000  0.28487600  0.22230900  1
  C  C4  1  0.10977500  0.51920800  0.12089300  1
  C  C5  1  0.60977500  0.98079200  0.87910700  1
  C  C6  1  0.89022500  0.48079200  0.87910700  1
  C  C7  1  0.39022500  0.01920800  0.12089300  1
  C  C8  1  0.08650000  0.39260400  0.06437600  1
  C  C9  1  0.58650000  0.10739600  0.93562400  1
  C  C10  1  0.91350000  0.60739600  0.93562400  1
  C  C11  1  0.41350000  0.89260400  0.06437600  1
  C  C12  1  0.17701200  0.60026200  0.26145200  1
  C  C13  1  0.67701200  0.89973800  0.73854800  1
  C  C14  1  0.82298800  0.39973800  0.73854800  1
  C  C15  1  0.32298800  0.10026200  0.26145200  1
  C  C16  1  0.16854600  0.30686200  0.37803100  1
  C  C17  1  0.66854600  0.19313800  0.62196900  1
  C  C18  1  0.83145400  0.69313800  0.62196900  1
  C  C19  1  0.33145400  0.80686200  0.37803100  1
  C  C20  1  0.94899700  0.40158100  0.18639900  1
  C  C21  1  0.44899700  0.09841900  0.81360100  1
  C  C22  1  0.05100300  0.59841900  0.81360100  1
  C  C23  1  0.55100300  0.90158100  0.18639900  1
  C  C24  1  0.89159800  0.59724800  0.30475600  1
  C  C25  1  0.39159800  0.90275200  0.69524400  1
  C  C26  1  0.10840200  0.40275200  0.69524400  1
  C  C27  1  0.60840200  0.09724800  0.30475600  1
  I  I0  1  0.00000000  0.00000000  0.00000000  1
  I  I1  1  0.50000000  0.50000000  0.00000000  1
  I  I2  1  0.13764200  0.82317500  0.83240100  1
  I  I3  1  0.63764200  0.67682500  0.16759900  1
  I  I4  1  0.86235800  0.17682500  0.16759900  1
  I  I5  1  0.36235800  0.32317500  0.83240100  1
  I  I6  1  0.00000000  0.00000000  0.50000000  1
  I  I7  1  0.50000000  0.50000000  0.50000000  1
  I  I8  1  0.16625000  0.78055200  0.52893600  1
  I  I9  1  0.66625000  0.71944800  0.47106400  1
  I  I10  1  0.83375000  0.21944800  0.47106400  1
  I  I11  1  0.33375000  0.28055200  0.52893600  1
  N  N0  1  0.92374300  0.50768800  0.25076700  1
  N  N1  1  0.42374300  0.99231200  0.74923300  1
  N  N2  1  0.07625700  0.49231200  0.74923300  1
  N  N3  1  0.57625700  0.00768800  0.25076700  1
  N  N4  1  0.16932900  0.61501100  0.16551300  1
  N  N5  1  0.66932900  0.88498900  0.83448700  1
  N  N6  1  0.83067100  0.38498900  0.83448700  1
  N  N7  1  0.33067100  0.11501100  0.16551300  1
  N  N8  1  0.02428700  0.43223900  0.13891300  1
  N  N9  1  0.52428700  0.06776100  0.86108700  1
  N  N10  1  0.97571300  0.56776100  0.86108700  1
  N  N11  1  0.47571300  0.93223900  0.13891300  1
  N  N12  1  0.17274700  0.45531800  0.32865900  1
  N  N13  1  0.67274700  0.04468200  0.67134100  1
  N  N14  1  0.82725300  0.54468200  0.67134100  1
  N  N15  1  0.32725300  0.95531800  0.32865900  1
loop_
_geom_bond_atom_site_label_1
_geom_bond_atom_site_label_2
_geom_bond_distance
_geom_bond_site_symmetry_2
C0 C12 1.369945 1_555
C0 N4 1.592977 1_555
C1 C13 1.369945 1_555
C1 N5 1.592977 1_555
C2 N6 1.592977 1_555
C3 N7 1.592977 1_555
C4 N4 1.339502 1_555
C4 C8 1.371422 1_555
C4 N8 1.393571 1_555
C5 N5 1.339502 1_555
C5 C9 1.371422 1_565
C5 N9 1.393571 1_565
C6 N6 1.339502 1_555
C6 N10 1.393571 1_555
C7 N7 1.339502 1_555
C7 N11 1.393571 1_545
C8 N8 1.474922 1_555
C9 N9 1.474922 1_555
C10 C6 1.371422 1_555
C10 N10 1.474922 1_555
C11 C7 1.371422 1_565
C11 N11 1.474922 1_555
C12 N12 1.318761 1_555
C12 N4 1.391009 1_555
C13 N13 1.318761 1_565
C13 N5 1.391009 1_555
C14 N14 1.318761 1_555
C14 C2 1.369945 1_555
C14 N6 1.391009 1_555
C15 N15 1.318761 1_545
C15 C3 1.369945 1_555
C15 N7 1.391009 1_555
C16 N12 1.197017 1_555
C17 N13 1.197017 1_555
C18 N14 1.197017 1_555
C19 N15 1.197017 1_555
C20 N8 1.290432 1_655
C20 N0 1.356742 1_555
C20 I4 2.108994 1_555
C21 N9 1.290432 1_555
C21 N1 1.356742 1_545
C21 I5 2.108994 1_555
C22 N10 1.290432 1_455
C22 N2 1.356742 1_555
C22 I2 2.108994 1_555
C23 N11 1.290432 1_555
C23 N3 1.356742 1_565
C23 I3 2.108994 1_555
C24 N0 1.193128 1_555
C25 N1 1.193128 1_555
C26 N2 1.193128 1_555
C27 N3 1.193128 1_555
I6 I8 2.876844 1_545
I7 I9 2.876844 1_555
I10 I6 2.876844 1_655
I11 I7 2.876844 1_555
