# generated using pymatgen
data_Nd(SiPt)2
_symmetry_space_group_name_H-M   'P 1'
_cell_length_a   5.82951708
_cell_length_b   5.82951708
_cell_length_c   5.82951708
_cell_angle_alpha   136.53819624
_cell_angle_beta   136.53819624
_cell_angle_gamma   63.14936384
_symmetry_Int_Tables_number   1
_chemical_formula_structural   Nd(SiPt)2
_chemical_formula_sum   'Nd1 Si2 Pt2'
_cell_volume   92.54674274
_cell_formula_units_Z   1
loop_
 _symmetry_equiv_pos_site_id
 _symmetry_equiv_pos_as_xyz
  1  'x, y, z'
loop_
 _atom_site_type_symbol
 _atom_site_label
 _atom_site_symmetry_multiplicity
 _atom_site_fract_x
 _atom_site_fract_y
 _atom_site_fract_z
 _atom_site_occupancy
  Nd  Nd0  1  0.00000000  0.00000000  0.00000000  1
  Si  Si0  1  0.25000000  0.75000000  0.50000000  1
  Si  Si1  1  0.75000000  0.25000000  0.50000000  1
  Pt  Pt0  1  0.63753800  0.63753800  0.00000000  1
  Pt  Pt1  1  0.36246200  0.36246200  0.00000000  1
loop_
_geom_bond_atom_site_label_1
_geom_bond_atom_site_label_2
_geom_bond_distance
_geom_bond_site_symmetry_2
Nd0 Si1 3.290150 1_455
Nd0 Si0 3.290150 1_544
Nd0 Si1 3.290150 1_444
Nd0 Si1 3.290150 1_454
Nd0 Si0 3.290150 1_545
Nd0 Si0 3.290150 1_444
Nd0 Si0 3.290150 1_555
Nd0 Si1 3.290150 1_555
Nd0 Pt0 3.344174 1_556
Nd0 Pt0 3.344174 1_444
Nd0 Pt0 3.344174 1_545
Nd0 Pt0 3.344174 1_455
Nd0 Pt1 3.344174 1_545
Nd0 Pt1 3.344174 1_444
Nd0 Pt1 3.344174 1_455
Nd0 Pt1 3.344174 1_556
Pt0 Si0 2.430314 1_655
Pt0 Si1 2.430314 1_565
Pt0 Si0 2.430314 1_554
Pt0 Si1 2.430314 1_554
Pt1 Si1 2.430314 1_555
Pt1 Si1 2.430314 1_454
Pt1 Si0 2.430314 1_544
Pt1 Si0 2.430314 1_555
