# generated using pymatgen
data_ErCu(WO4)2
_symmetry_space_group_name_H-M   'P 1'
_cell_length_a   5.15662784
_cell_length_b   6.05641705
_cell_length_c   6.07232728
_cell_angle_alpha   109.16230408
_cell_angle_beta   114.42143797
_cell_angle_gamma   91.72190084
_symmetry_Int_Tables_number   1
_chemical_formula_structural   ErCu(WO4)2
_chemical_formula_sum   'Er1 Cu1 W2 O8'
_cell_volume   160.05006238
_cell_formula_units_Z   1
loop_
 _symmetry_equiv_pos_site_id
 _symmetry_equiv_pos_as_xyz
  1  'x, y, z'
loop_
 _atom_site_type_symbol
 _atom_site_label
 _atom_site_symmetry_multiplicity
 _atom_site_fract_x
 _atom_site_fract_y
 _atom_site_fract_z
 _atom_site_occupancy
  Er  Er0  1  0.64190300  0.71051500  0.09354300  1
  Cu  Cu0  1  0.12220200  0.19473000  0.08385900  1
  W  W0  1  0.38120200  0.03466700  0.60141300  1
  W  W1  1  0.88114600  0.37184600  0.57848600  1
  O  O0  1  0.59874300  0.03192700  0.39462400  1
  O  O1  1  0.65658700  0.38108400  0.78001100  1
  O  O2  1  0.16484000  0.17131600  0.78969300  1
  O  O3  1  0.65885000  0.49709400  0.34565700  1
  O  O4  1  0.15934400  0.62821500  0.83406000  1
  O  O5  1  0.08498700  0.21853300  0.38123200  1
  O  O6  1  0.12286800  0.76546400  0.34989800  1
  O  O7  1  0.62212700  0.92320800  0.84212400  1
loop_
_geom_bond_atom_site_label_1
_geom_bond_atom_site_label_2
_geom_bond_distance
_geom_bond_site_symmetry_2
Er0 O4 2.256312 1_554
Er0 O6 2.258984 1_655
Er0 O7 2.273936 1_554
Er0 O0 2.281985 1_565
Er0 O3 2.284144 1_555
Er0 O1 2.290357 1_554
Cu0 O2 1.849205 1_554
Cu0 O5 1.853547 1_555
Cu0 O7 2.557167 1_444
O0 W0 1.996903 1_555
O0 W1 2.138195 1_555
O1 W1 1.993038 1_555
O1 W0 2.155983 1_555
O2 W0 1.930265 1_555
O2 W1 2.199512 1_455
O3 W1 1.817824 1_555
O4 W1 1.822239 1_455
O5 W1 1.941996 1_455
O5 W0 2.179846 1_555
O6 W0 1.821483 1_565
O7 W0 1.825437 1_565
