# generated using pymatgen
data_TaCr3(AgS4)2
_symmetry_space_group_name_H-M   'P 1'
_cell_length_a   6.52908324
_cell_length_b   7.64236976
_cell_length_c   12.34163150
_cell_angle_alpha   81.81258123
_cell_angle_beta   85.66095752
_cell_angle_gamma   90.27919117
_symmetry_Int_Tables_number   1
_chemical_formula_structural   TaCr3(AgS4)2
_chemical_formula_sum   'Ta2 Cr6 Ag4 S16'
_cell_volume   607.71846744
_cell_formula_units_Z   2
loop_
 _symmetry_equiv_pos_site_id
 _symmetry_equiv_pos_as_xyz
  1  'x, y, z'
loop_
 _atom_site_type_symbol
 _atom_site_label
 _atom_site_symmetry_multiplicity
 _atom_site_fract_x
 _atom_site_fract_y
 _atom_site_fract_z
 _atom_site_occupancy
  Ta  Ta0  1  0.85586600  0.29480500  0.30411700  1
  Ta  Ta1  1  0.63691600  0.44962600  0.69738700  1
  Cr  Cr0  1  0.14863300  0.70452400  0.70533000  1
  Cr  Cr1  1  0.24613600  0.88465600  0.99960000  1
  Cr  Cr2  1  0.75385600  0.10809000  0.00037900  1
  Cr  Cr3  1  0.35865700  0.55584800  0.29429400  1
  Cr  Cr4  1  0.36307100  0.04655000  0.29372600  1
  Cr  Cr5  1  0.62009300  0.94502100  0.70550400  1
  Ag  Ag0  1  0.13726500  0.19804600  0.70409300  1
  Ag  Ag1  1  0.87793100  0.80038200  0.29691200  1
  Ag  Ag2  1  0.25070500  0.37735700  0.00016300  1
  Ag  Ag3  1  0.74791200  0.63137700  0.00016700  1
  S  S0  1  0.11616000  0.67618600  0.88434700  1
  S  S1  1  0.87471700  0.32535900  0.11800900  1
  S  S2  1  0.08503200  0.13374200  0.90694000  1
  S  S3  1  0.91515500  0.86732400  0.09341600  1
  S  S4  1  0.22667500  0.78326600  0.36703200  1
  S  S5  1  0.78413500  0.21543900  0.62638200  1
  S  S6  1  0.19094600  0.28458200  0.36359700  1
  S  S7  1  0.82027500  0.71830300  0.63937200  1
  S  S8  1  0.31935100  0.94658400  0.63152100  1
  S  S9  1  0.67525700  0.04283000  0.37507000  1
  S  S10  1  0.31825800  0.48449600  0.62752000  1
  S  S11  1  0.67458300  0.52215100  0.37000500  1
  S  S12  1  0.41881500  0.07562700  0.10745900  1
  S  S13  1  0.58128600  0.92292700  0.89120500  1
  S  S14  1  0.37968700  0.61795200  0.11235900  1
  S  S15  1  0.62262700  0.38695000  0.88409400  1
loop_
_geom_bond_atom_site_label_1
_geom_bond_atom_site_label_2
_geom_bond_distance
_geom_bond_site_symmetry_2
Cr0 S0 2.183008 1_555
Cr0 S8 2.200151 1_555
Cr0 S10 2.300747 1_555
Cr0 S7 2.347722 1_455
Cr1 S3 2.367065 1_456
Cr1 S2 2.370526 1_565
Cr1 S12 2.436709 1_566
Cr1 S0 2.469141 1_555
Cr1 S13 2.470396 1_555
Cr1 S14 2.498892 1_556
Cr2 S3 2.326650 1_545
Cr2 S2 2.365985 1_654
Cr2 S13 2.417573 1_544
Cr2 S12 2.461121 1_555
Cr2 S1 2.516846 1_555
Cr2 S15 2.582303 1_554
Cr3 S4 2.216090 1_555
Cr3 S14 2.221487 1_555
Cr3 S11 2.328618 1_555
Cr3 S6 2.357861 1_555
Cr4 S4 2.236584 1_545
Cr4 S12 2.278950 1_555
Cr4 S9 2.337809 1_555
Cr4 S6 2.374000 1_555
Cr5 S8 2.226625 1_555
Cr5 S13 2.268655 1_555
Cr5 S5 2.370029 1_565
Cr5 S7 2.374861 1_555
Ag0 S2 2.478690 1_555
Ag0 S8 2.502030 1_545
Ag0 S10 2.509683 1_555
Ag0 S5 2.560204 1_455
Ag1 S3 2.483699 1_555
Ag1 S4 2.493888 1_655
Ag1 S11 2.518482 1_555
Ag1 S9 2.540565 1_565
Ag2 S2 2.595928 1_554
Ag2 S14 2.625631 1_555
Ag2 S0 2.703722 1_554
Ag2 S15 2.719570 1_554
Ag2 S1 2.754119 1_455
Ag2 S12 2.765947 1_555
Ag3 S3 2.555449 1_555
Ag3 S15 2.671196 1_554
Ag3 S14 2.676040 1_555
Ag3 S0 2.696991 1_654
Ag3 S13 2.710741 1_554
Ag3 S1 2.739060 1_555
S1 Ta0 2.269250 1_555
S5 Ta1 2.287149 1_555
S6 Ta0 2.357889 1_455
S7 Ta1 2.364238 1_555
S9 Ta0 2.281873 1_555
S10 Ta1 2.314004 1_555
S11 Ta0 2.314684 1_555
S15 Ta1 2.280452 1_555
