# generated using pymatgen
data_LaMgWS4
_symmetry_space_group_name_H-M   'P 1'
_cell_length_a   8.10158593
_cell_length_b   7.75685883
_cell_length_c   7.76096393
_cell_angle_alpha   54.99969341
_cell_angle_beta   58.52833636
_cell_angle_gamma   58.52720194
_symmetry_Int_Tables_number   1
_chemical_formula_structural   LaMgWS4
_chemical_formula_sum   'La2 Mg2 W2 S8'
_cell_volume   322.98201435
_cell_formula_units_Z   2
loop_
 _symmetry_equiv_pos_site_id
 _symmetry_equiv_pos_as_xyz
  1  'x, y, z'
loop_
 _atom_site_type_symbol
 _atom_site_label
 _atom_site_symmetry_multiplicity
 _atom_site_fract_x
 _atom_site_fract_y
 _atom_site_fract_z
 _atom_site_occupancy
  La  La0  1  0.50217800  0.49429800  0.49430600  1
  La  La1  1  0.00920800  0.49426900  0.49434900  1
  Mg  Mg0  1  0.86177200  0.88813200  0.88834400  1
  Mg  Mg1  1  0.11188000  0.13816300  0.13809200  1
  W  W0  1  0.50138000  0.55418500  0.94299900  1
  W  W1  1  0.50142700  0.94314800  0.55405100  1
  S  S0  1  0.74144100  0.75516700  0.75500500  1
  S  S1  1  0.28092000  0.19283600  0.74528300  1
  S  S2  1  0.28097900  0.74523300  0.19284900  1
  S  S3  1  0.71796700  0.24021700  0.24023400  1
  S  S4  1  0.72036400  0.27745800  0.78166200  1
  S  S5  1  0.24839400  0.75506400  0.75509800  1
  S  S6  1  0.30158000  0.24014900  0.24030500  1
  S  S7  1  0.72051400  0.78167800  0.27742300  1
loop_
_geom_bond_atom_site_label_1
_geom_bond_atom_site_label_2
_geom_bond_distance
_geom_bond_site_symmetry_2
La0 S7 2.763228 1_555
La0 S4 2.763299 1_555
La0 S1 2.825141 1_555
La0 S2 2.825832 1_555
La0 S3 2.844245 1_555
La0 S5 2.902416 1_555
La1 S4 2.763260 1_455
La1 S7 2.763343 1_455
La1 S2 2.825479 1_555
La1 S1 2.825535 1_555
La1 S6 2.844306 1_555
La1 S0 2.902392 1_455
Mg0 S4 2.372237 1_565
Mg0 S7 2.372293 1_556
Mg0 S5 2.532237 1_655
Mg0 S0 2.532333 1_555
Mg1 S2 2.471662 1_545
Mg1 S1 2.472480 1_554
Mg1 S6 2.622878 1_555
Mg1 S3 2.622976 1_455
S0 W0 2.436291 1_555
S0 W1 2.436533 1_555
S1 W1 2.462005 1_545
S2 W0 2.462237 1_554
S3 W1 2.764231 1_545
S3 W0 2.766059 1_554
S4 W0 2.471884 1_555
S5 W0 2.436144 1_555
S5 W1 2.436630 1_555
S6 W1 2.764851 1_545
S6 W0 2.765429 1_554
S7 W1 2.472416 1_555
