# generated using pymatgen
data_O2
_symmetry_space_group_name_H-M   'P 1'
_cell_length_a   4.75183345
_cell_length_b   6.05081496
_cell_length_c   6.05081496
_cell_angle_alpha   100.99473320
_cell_angle_beta   108.47787641
_cell_angle_gamma   108.47787641
_symmetry_Int_Tables_number   1
_chemical_formula_structural   O2
_chemical_formula_sum   O8
_cell_volume   148.07490738
_cell_formula_units_Z   4
loop_
 _symmetry_equiv_pos_site_id
 _symmetry_equiv_pos_as_xyz
  1  'x, y, z'
loop_
 _atom_site_type_symbol
 _atom_site_label
 _atom_site_symmetry_multiplicity
 _atom_site_fract_x
 _atom_site_fract_y
 _atom_site_fract_z
 _atom_site_occupancy
  O  O0  1  0.39506495  0.71339473  0.00195228  1
  O  O1  1  0.10493505  -0.00195228  0.28660527  1
  O  O2  1  0.60493505  0.28660527  -0.00195228  1
  O  O3  1  0.89506495  0.00195228  0.71339473  1
  O  O4  1  0.13830437  0.59599881  0.82083352  1
  O  O5  1  0.36169563  0.17916648  0.40400119  1
  O  O6  1  0.86169563  0.40400119  0.17916648  1
  O  O7  1  0.63830437  0.82083352  0.59599881  1
loop_
_geom_bond_atom_site_label_1
_geom_bond_atom_site_label_2
_geom_bond_distance
_geom_bond_site_symmetry_2
O0 O4 1.224889 1_554
O1 O5 1.224889 1_555
O2 O6 1.224889 1_555
O3 O7 1.224889 1_545
