# generated using pymatgen
data_K6ZnBi5
_symmetry_space_group_name_H-M   'P 1'
_cell_length_a   5.54326370
_cell_length_b   11.59744426
_cell_length_c   15.38009323
_cell_angle_alpha   90.00000000
_cell_angle_beta   90.00000000
_cell_angle_gamma   90.00000000
_symmetry_Int_Tables_number   1
_chemical_formula_structural   K6ZnBi5
_chemical_formula_sum   'K12 Zn2 Bi10'
_cell_volume   988.75069311
_cell_formula_units_Z   2
loop_
 _symmetry_equiv_pos_site_id
 _symmetry_equiv_pos_as_xyz
  1  'x, y, z'
loop_
 _atom_site_type_symbol
 _atom_site_label
 _atom_site_symmetry_multiplicity
 _atom_site_fract_x
 _atom_site_fract_y
 _atom_site_fract_z
 _atom_site_occupancy
  K  K0  1  0.25000000  0.93894192  0.11826023  1
  K  K1  1  0.25000000  0.93894192  0.38173977  1
  K  K2  1  0.75000000  0.06105808  0.88173977  1
  K  K3  1  0.75000000  0.06105808  0.61826023  1
  K  K4  1  0.75000000  0.68602090  0.01825247  1
  K  K5  1  0.75000000  0.68602090  0.48174753  1
  K  K6  1  0.25000000  0.31397910  0.98174753  1
  K  K7  1  0.25000000  0.31397910  0.51825247  1
  K  K8  1  0.75000000  0.39067378  0.75000000  1
  K  K9  1  0.25000000  0.60932622  0.25000000  1
  K  K10  1  0.75000000  0.74566528  0.75000000  1
  K  K11  1  0.25000000  0.25433472  0.25000000  1
  Zn  Zn0  1  0.25000000  0.96055764  0.75000000  1
  Zn  Zn1  1  0.75000000  0.03944236  0.25000000  1
  Bi  Bi0  1  0.25000000  0.83014055  0.60275399  1
  Bi  Bi1  1  0.25000000  0.83014055  0.89724601  1
  Bi  Bi2  1  0.75000000  0.16985945  0.39724601  1
  Bi  Bi3  1  0.75000000  0.16985945  0.10275399  1
  Bi  Bi4  1  0.25000000  0.58154974  0.65131997  1
  Bi  Bi5  1  0.25000000  0.58154974  0.84868003  1
  Bi  Bi6  1  0.75000000  0.41845026  0.34868003  1
  Bi  Bi7  1  0.75000000  0.41845026  0.15131997  1
  Bi  Bi8  1  0.25000000  0.19087684  0.75000000  1
  Bi  Bi9  1  0.75000000  0.80912316  0.25000000  1
loop_
_geom_bond_atom_site_label_1
_geom_bond_atom_site_label_2
_geom_bond_distance
_geom_bond_site_symmetry_2
K0 Zn1 3.625715 1_565
K0 Zn1 3.625715 1_465
K0 K1 4.052340 1_555
K0 K11 4.181447 1_565
K0 K4 4.318757 1_555
K0 K4 4.318757 1_455
K0 K9 4.326476 1_555
K1 Zn1 3.625715 1_565
K1 Zn1 3.625715 1_465
K1 K11 4.181447 1_565
K1 K5 4.318757 1_455
K1 K5 4.318757 1_555
K1 K9 4.326476 1_555
K2 Zn0 3.625715 1_545
K2 Zn0 3.625715 1_645
K2 K3 4.052340 1_555
K2 K6 4.318757 1_655
K2 K6 4.318757 1_555
K2 K8 4.326476 1_555
K3 Zn0 3.625715 1_545
K3 Zn0 3.625715 1_645
K3 K7 4.318757 1_655
K3 K7 4.318757 1_555
K3 K8 4.326476 1_555
K4 K9 4.601881 1_655
K4 K9 4.601881 1_555
K5 K9 4.601881 1_655
K5 K9 4.601881 1_555
K6 K8 4.601881 1_555
K6 K8 4.601881 1_455
K7 K8 4.601881 1_555
K7 K8 4.601881 1_455
K10 Zn0 3.727333 1_655
K10 Zn0 3.727333 1_555
K10 K8 4.116994 1_555
K10 K3 4.181447 1_565
K10 K2 4.181447 1_565
K10 K5 4.183333 1_555
K10 K4 4.183333 1_556
K11 Zn1 3.727333 1_555
K11 Zn1 3.727333 1_455
K11 K9 4.116994 1_555
K11 K6 4.183333 1_554
K11 K7 4.183333 1_555
Bi0 Zn0 2.723297 1_555
Bi0 Bi4 2.978209 1_555
Bi0 K1 3.625862 1_555
Bi0 K10 3.710852 1_555
Bi0 K10 3.710852 1_455
Bi0 K5 3.733530 1_455
Bi0 K5 3.733530 1_555
Bi0 K3 3.861449 1_565
Bi0 K3 3.861449 1_465
Bi1 Zn0 2.723297 1_555
Bi1 Bi5 2.978209 1_555
Bi1 K0 3.625862 1_556
Bi1 K10 3.710852 1_555
Bi1 K10 3.710852 1_455
Bi1 K4 3.733530 1_556
Bi1 K4 3.733530 1_456
Bi1 K2 3.861449 1_465
Bi1 K2 3.861449 1_565
Bi2 Zn1 2.723297 1_555
Bi2 Bi6 2.978209 1_555
Bi2 K3 3.625862 1_555
Bi2 K11 3.710852 1_555
Bi2 K11 3.710852 1_655
Bi2 K7 3.733530 1_555
Bi2 K7 3.733530 1_655
Bi2 K1 3.861449 1_545
Bi2 K1 3.861449 1_645
Bi3 Zn1 2.723297 1_555
Bi3 Bi7 2.978209 1_555
Bi3 K2 3.625862 1_554
Bi3 K11 3.710852 1_555
Bi3 K11 3.710852 1_655
Bi3 K6 3.733530 1_554
Bi3 K6 3.733530 1_654
Bi3 K0 3.861449 1_545
Bi3 K0 3.861449 1_645
Bi4 Bi5 3.035416 1_555
Bi4 K10 3.688904 1_455
Bi4 K10 3.688904 1_555
Bi4 K7 3.717255 1_555
Bi4 K8 3.858203 1_455
Bi4 K8 3.858203 1_555
Bi4 K5 3.993969 1_455
Bi4 K5 3.993969 1_555
Bi5 K10 3.688904 1_455
Bi5 K10 3.688904 1_555
Bi5 K6 3.717255 1_555
Bi5 K8 3.858203 1_455
Bi5 K8 3.858203 1_555
Bi5 K4 3.993969 1_456
Bi5 K4 3.993969 1_556
Bi6 Bi7 3.035416 1_555
Bi6 K11 3.688904 1_555
Bi6 K11 3.688904 1_655
Bi6 K5 3.717255 1_555
Bi6 K9 3.858203 1_555
Bi6 K9 3.858203 1_655
Bi6 K7 3.993969 1_555
Bi6 K7 3.993969 1_655
Bi7 K11 3.688904 1_555
Bi7 K11 3.688904 1_655
Bi7 K4 3.717255 1_555
Bi7 K9 3.858203 1_555
Bi7 K9 3.858203 1_655
Bi7 K6 3.993969 1_654
Bi7 K6 3.993969 1_554
Bi8 Zn0 2.671114 1_545
Bi8 K8 3.612624 1_455
Bi8 K8 3.612624 1_555
Bi8 K2 3.748871 1_455
Bi8 K2 3.748871 1_555
Bi8 K3 3.748871 1_455
Bi8 K3 3.748871 1_555
Bi8 K7 3.839593 1_555
Bi8 K6 3.839593 1_555
Bi9 Zn1 2.671114 1_565
Bi9 K9 3.612624 1_555
Bi9 K9 3.612624 1_655
Bi9 K0 3.748871 1_655
Bi9 K0 3.748871 1_555
Bi9 K1 3.748871 1_555
Bi9 K1 3.748871 1_655
Bi9 K4 3.839593 1_555
Bi9 K5 3.839593 1_555
