# generated using pymatgen
data_Na3MnP8O23
_symmetry_space_group_name_H-M   'P 1'
_cell_length_a   12.14942645
_cell_length_b   12.14942645
_cell_length_c   12.14942645
_cell_angle_alpha   90.00000000
_cell_angle_beta   90.00000000
_cell_angle_gamma   90.00000000
_symmetry_Int_Tables_number   1
_chemical_formula_structural   Na3MnP8O23
_chemical_formula_sum   'Na12 Mn4 P32 O92'
_cell_volume   1793.35938034
_cell_formula_units_Z   4
loop_
 _symmetry_equiv_pos_site_id
 _symmetry_equiv_pos_as_xyz
  1  'x, y, z'
loop_
 _atom_site_type_symbol
 _atom_site_label
 _atom_site_symmetry_multiplicity
 _atom_site_fract_x
 _atom_site_fract_y
 _atom_site_fract_z
 _atom_site_occupancy
  Na  Na0  1  0.12500000  0.04340053  0.29340053  1
  Na  Na1  1  0.37500000  0.95659947  0.79340053  1
  Na  Na2  1  0.87500000  0.54340053  0.20659947  1
  Na  Na3  1  0.29340053  0.12500000  0.04340053  1
  Na  Na4  1  0.79340053  0.37500000  0.95659947  1
  Na  Na5  1  0.62500000  0.45659947  0.70659947  1
  Na  Na6  1  0.70659947  0.62500000  0.45659947  1
  Na  Na7  1  0.20659947  0.87500000  0.54340053  1
  Na  Na8  1  0.04340053  0.29340053  0.12500000  1
  Na  Na9  1  0.54340053  0.20659947  0.87500000  1
  Na  Na10  1  0.45659947  0.70659947  0.62500000  1
  Na  Na11  1  0.95659947  0.79340053  0.37500000  1
  Mn  Mn0  1  0.37500000  0.37500000  0.37500000  1
  Mn  Mn1  1  0.12500000  0.62500000  0.87500000  1
  Mn  Mn2  1  0.62500000  0.87500000  0.12500000  1
  Mn  Mn3  1  0.87500000  0.12500000  0.62500000  1
  P  P0  1  0.01791433  0.01791433  0.01791433  1
  P  P1  1  0.48208567  0.98208567  0.51791433  1
  P  P2  1  0.98208567  0.51791433  0.48208567  1
  P  P3  1  0.76791433  0.26791433  0.23208567  1
  P  P4  1  0.51791433  0.48208567  0.98208567  1
  P  P5  1  0.73208567  0.73208567  0.73208567  1
  P  P6  1  0.26791433  0.23208567  0.76791433  1
  P  P7  1  0.23208567  0.76791433  0.26791433  1
  P  P8  1  0.10882930  0.31866257  0.39602000  1
  P  P9  1  0.39117070  0.68133743  0.89602000  1
  P  P10  1  0.89117070  0.81866257  0.10398000  1
  P  P11  1  0.39602000  0.10882930  0.31866257  1
  P  P12  1  0.06866257  0.35882930  0.85398000  1
  P  P13  1  0.60882930  0.18133743  0.60398000  1
  P  P14  1  0.89602000  0.39117070  0.68133743  1
  P  P15  1  0.43133743  0.64117070  0.35398000  1
  P  P16  1  0.10398000  0.89117070  0.81866257  1
  P  P17  1  0.56866257  0.14117070  0.14602000  1
  P  P18  1  0.60398000  0.60882930  0.18133743  1
  P  P19  1  0.93133743  0.85882930  0.64602000  1
  P  P20  1  0.31866257  0.39602000  0.10882930  1
  P  P21  1  0.85882930  0.64602000  0.93133743  1
  P  P22  1  0.81866257  0.10398000  0.89117070  1
  P  P23  1  0.64117070  0.35398000  0.43133743  1
  P  P24  1  0.18133743  0.60398000  0.60882930  1
  P  P25  1  0.35882930  0.85398000  0.06866257  1
  P  P26  1  0.68133743  0.89602000  0.39117070  1
  P  P27  1  0.14117070  0.14602000  0.56866257  1
  P  P28  1  0.85398000  0.06866257  0.35882930  1
  P  P29  1  0.35398000  0.43133743  0.64117070  1
  P  P30  1  0.64602000  0.93133743  0.85882930  1
  P  P31  1  0.14602000  0.56866257  0.14117070  1
  O  O0  1  0.20860109  0.38728995  0.37032434  1
  O  O1  1  0.29139891  0.61271005  0.87032434  1
  O  O2  1  0.79139891  0.88728995  0.12967566  1
  O  O3  1  0.37032434  0.20860109  0.38728995  1
  O  O4  1  0.13728995  0.45860109  0.87967566  1
  O  O5  1  0.70860109  0.11271005  0.62967566  1
  O  O6  1  0.87032434  0.29139891  0.61271005  1
  O  O7  1  0.36271005  0.54139891  0.37967566  1
  O  O8  1  0.12967566  0.79139891  0.88728995  1
  O  O9  1  0.63728995  0.04139891  0.12032434  1
  O  O10  1  0.62967566  0.70860109  0.11271005  1
  O  O11  1  0.86271005  0.95860109  0.62032434  1
  O  O12  1  0.38728995  0.37032434  0.20860109  1
  O  O13  1  0.95860109  0.62032434  0.86271005  1
  O  O14  1  0.88728995  0.12967566  0.79139891  1
  O  O15  1  0.54139891  0.37967566  0.36271005  1
  O  O16  1  0.11271005  0.62967566  0.70860109  1
  O  O17  1  0.45860109  0.87967566  0.13728995  1
  O  O18  1  0.61271005  0.87032434  0.29139891  1
  O  O19  1  0.04139891  0.12032434  0.63728995  1
  O  O20  1  0.87967566  0.13728995  0.45860109  1
  O  O21  1  0.37967566  0.36271005  0.54139891  1
  O  O22  1  0.62032434  0.86271005  0.95860109  1
  O  O23  1  0.12032434  0.63728995  0.04139891  1
  O  O24  1  0.12500000  0.26653658  0.51653658  1
  O  O25  1  0.37500000  0.73346342  0.01653658  1
  O  O26  1  0.87500000  0.76653658  0.98346342  1
  O  O27  1  0.51653658  0.12500000  0.26653658  1
  O  O28  1  0.01653658  0.37500000  0.73346342  1
  O  O29  1  0.62500000  0.23346342  0.48346342  1
  O  O30  1  0.48346342  0.62500000  0.23346342  1
  O  O31  1  0.98346342  0.87500000  0.76653658  1
  O  O32  1  0.26653658  0.51653658  0.12500000  1
  O  O33  1  0.76653658  0.98346342  0.87500000  1
  O  O34  1  0.23346342  0.48346342  0.62500000  1
  O  O35  1  0.73346342  0.01653658  0.37500000  1
  O  O36  1  0.00862417  0.40458587  0.42423122  1
  O  O37  1  0.49137583  0.59541413  0.92423122  1
  O  O38  1  0.99137583  0.90458587  0.07576878  1
  O  O39  1  0.42423122  0.00862417  0.40458587  1
  O  O40  1  0.15458587  0.25862417  0.82576878  1
  O  O41  1  0.50862417  0.09541413  0.57576878  1
  O  O42  1  0.92423122  0.49137583  0.59541413  1
  O  O43  1  0.34541413  0.74137583  0.32576878  1
  O  O44  1  0.07576878  0.99137583  0.90458587  1
  O  O45  1  0.65458587  0.24137583  0.17423122  1
  O  O46  1  0.57576878  0.50862417  0.09541413  1
  O  O47  1  0.84541413  0.75862417  0.67423122  1
  O  O48  1  0.40458587  0.42423122  0.00862417  1
  O  O49  1  0.75862417  0.67423122  0.84541413  1
  O  O50  1  0.90458587  0.07576878  0.99137583  1
  O  O51  1  0.74137583  0.32576878  0.34541413  1
  O  O52  1  0.09541413  0.57576878  0.50862417  1
  O  O53  1  0.25862417  0.82576878  0.15458587  1
  O  O54  1  0.59541413  0.92423122  0.49137583  1
  O  O55  1  0.24137583  0.17423122  0.65458587  1
  O  O56  1  0.82576878  0.15458587  0.25862417  1
  O  O57  1  0.32576878  0.34541413  0.74137583  1
  O  O58  1  0.67423122  0.84541413  0.75862417  1
  O  O59  1  0.17423122  0.65458587  0.24137583  1
  O  O60  1  0.06786149  0.23799954  0.31367965  1
  O  O61  1  0.43213851  0.76200046  0.81367965  1
  O  O62  1  0.93213851  0.73799954  0.18632035  1
  O  O63  1  0.31367965  0.06786149  0.23799954  1
  O  O64  1  0.98799954  0.31786149  0.93632035  1
  O  O65  1  0.56786149  0.26200046  0.68632035  1
  O  O66  1  0.81367965  0.43213851  0.76200046  1
  O  O67  1  0.51200046  0.68213851  0.43632035  1
  O  O68  1  0.18632035  0.93213851  0.73799954  1
  O  O69  1  0.48799954  0.18213851  0.06367965  1
  O  O70  1  0.68632035  0.56786149  0.26200046  1
  O  O71  1  0.01200046  0.81786149  0.56367965  1
  O  O72  1  0.23799954  0.31367965  0.06786149  1
  O  O73  1  0.81786149  0.56367965  0.01200046  1
  O  O74  1  0.73799954  0.18632035  0.93213851  1
  O  O75  1  0.68213851  0.43632035  0.51200046  1
  O  O76  1  0.26200046  0.68632035  0.56786149  1
  O  O77  1  0.31786149  0.93632035  0.98799954  1
  O  O78  1  0.76200046  0.81367965  0.43213851  1
  O  O79  1  0.18213851  0.06367965  0.48799954  1
  O  O80  1  0.93632035  0.98799954  0.31786149  1
  O  O81  1  0.43632035  0.51200046  0.68213851  1
  O  O82  1  0.56367965  0.01200046  0.81786149  1
  O  O83  1  0.06367965  0.48799954  0.18213851  1
  O  O84  1  0.08828048  0.08828048  0.08828048  1
  O  O85  1  0.41171952  0.91171952  0.58828048  1
  O  O86  1  0.91171952  0.58828048  0.41171952  1
  O  O87  1  0.83828048  0.33828048  0.16171952  1
  O  O88  1  0.58828048  0.41171952  0.91171952  1
  O  O89  1  0.66171952  0.66171952  0.66171952  1
  O  O90  1  0.33828048  0.16171952  0.83828048  1
  O  O91  1  0.16171952  0.83828048  0.33828048  1
loop_
_geom_bond_atom_site_label_1
_geom_bond_atom_site_label_2
_geom_bond_distance
_geom_bond_site_symmetry_2
Na0 O63 2.407537 1_555
Na0 O80 2.407537 1_445
Na0 O79 2.476363 1_555
Na0 O60 2.476363 1_555
Na0 O84 2.589760 1_555
Na0 O91 2.589760 1_545
Na1 O82 2.407537 1_565
Na1 O68 2.407537 1_555
Na1 O77 2.476363 1_555
Na1 O61 2.476363 1_555
Na1 O85 2.589760 1_555
Na1 O90 2.589760 1_565
Na2 O70 2.407537 1_555
Na2 O83 2.407537 1_655
Na2 O73 2.476363 1_555
Na2 O62 2.476363 1_555
Na2 O86 2.589760 1_555
Na2 O87 2.589760 1_555
Na3 O72 2.407537 1_555
Na3 O77 2.407537 1_544
Na3 O69 2.476363 1_555
Na3 O63 2.476363 1_555
Na3 O90 2.589760 1_554
Na3 O84 2.589760 1_555
Na4 O74 2.407537 1_555
Na4 O73 2.407537 1_556
Na4 O66 2.476363 1_555
Na4 O64 2.476363 1_555
Na4 O88 2.589760 1_555
Na4 O87 2.589760 1_556
Na5 O81 2.407537 1_555
Na5 O66 2.407537 1_555
Na5 O65 2.476363 1_555
Na5 O75 2.476363 1_555
Na5 O88 2.589760 1_555
Na5 O89 2.589760 1_555
Na6 O75 2.407537 1_555
Na6 O78 2.407537 1_555
Na6 O70 2.476363 1_555
Na6 O67 2.476363 1_555
Na6 O89 2.589760 1_555
Na6 O86 2.589760 1_555
Na7 O76 2.407537 1_555
Na7 O79 2.407537 1_565
Na7 O68 2.476363 1_555
Na7 O71 2.476363 1_555
Na7 O91 2.589760 1_555
Na7 O85 2.589760 1_555
Na8 O60 2.407537 1_555
Na8 O64 2.407537 1_454
Na8 O83 2.476363 1_555
Na8 O72 2.476363 1_555
Na8 O84 2.589760 1_555
Na8 O87 2.589760 1_455
Na9 O65 2.407537 1_555
Na9 O69 2.407537 1_556
Na9 O82 2.476363 1_555
Na9 O74 2.476363 1_555
Na9 O88 2.589760 1_555
Na9 O90 2.589760 1_555
Na10 O67 2.407537 1_555
Na10 O61 2.407537 1_555
Na10 O76 2.476363 1_555
Na10 O81 2.476363 1_555
Na10 O85 2.589760 1_555
Na10 O89 2.589760 1_555
Na11 O71 2.407537 1_655
Na11 O62 2.407537 1_555
Na11 O80 2.476363 1_555
Na11 O78 2.476363 1_555
Na11 O86 2.589760 1_555
Na11 O91 2.589760 1_655
Mn0 O21 2.027954 1_555
Mn0 O7 2.027954 1_555
Mn0 O15 2.027954 1_555
Mn0 O0 2.027954 1_555
Mn0 O3 2.027954 1_555
Mn0 O12 2.027954 1_555
Mn1 O8 2.027954 1_555
Mn1 O13 2.027954 1_455
Mn1 O16 2.027954 1_555
Mn1 O1 2.027954 1_555
Mn1 O4 2.027954 1_555
Mn1 O23 2.027954 1_556
Mn2 O2 2.027954 1_555
Mn2 O22 2.027954 1_554
Mn2 O10 2.027954 1_555
Mn2 O17 2.027954 1_555
Mn2 O18 2.027954 1_555
Mn2 O9 2.027954 1_565
Mn3 O11 2.027954 1_545
Mn3 O5 2.027954 1_555
Mn3 O14 2.027954 1_555
Mn3 O6 2.027954 1_555
Mn3 O20 2.027954 1_555
Mn3 O19 2.027954 1_655
O0 P8 1.503999 1_555
O1 P9 1.503999 1_555
O2 P10 1.503999 1_555
O3 P11 1.503999 1_555
O4 P12 1.503999 1_555
O5 P13 1.503999 1_555
O6 P14 1.503999 1_555
O7 P15 1.503999 1_555
O8 P16 1.503999 1_555
O9 P17 1.503999 1_555
O10 P18 1.503999 1_555
O11 P19 1.503999 1_555
O12 P20 1.503999 1_555
O13 P21 1.503999 1_555
O14 P22 1.503999 1_555
O15 P23 1.503999 1_555
O16 P24 1.503999 1_555
O17 P25 1.503999 1_555
O18 P26 1.503999 1_555
O19 P27 1.503999 1_555
O20 P28 1.503999 1_555
O21 P29 1.503999 1_555
O22 P30 1.503999 1_555
O23 P31 1.503999 1_555
O24 P27 1.607349 1_555
O24 P8 1.607349 1_555
O25 P9 1.607349 1_554
O25 P25 1.607349 1_555
O26 P21 1.607349 1_555
O26 P10 1.607349 1_556
O27 P17 1.607349 1_555
O27 P11 1.607349 1_555
O28 P14 1.607349 1_455
O28 P12 1.607349 1_555
O29 P13 1.607349 1_555
O29 P23 1.607349 1_555
O30 P15 1.607349 1_555
O30 P18 1.607349 1_555
O31 P19 1.607349 1_555
O31 P16 1.607349 1_655
O32 P31 1.607349 1_555
O32 P20 1.607349 1_555
O33 P30 1.607349 1_555
O33 P22 1.607349 1_565
O34 P29 1.607349 1_555
O34 P24 1.607349 1_555
O35 P26 1.607349 1_545
O35 P28 1.607349 1_555
O36 P2 1.579181 1_455
O36 P8 1.639937 1_555
O37 P4 1.579181 1_555
O37 P9 1.639937 1_555
O38 P0 1.579181 1_665
O38 P10 1.639937 1_555
O39 P1 1.579181 1_545
O39 P11 1.639937 1_555
O40 P6 1.579181 1_555
O40 P12 1.639937 1_555
O41 P1 1.579181 1_545
O41 P13 1.639937 1_555
O42 P2 1.579181 1_555
O42 P14 1.639937 1_555
O43 P7 1.579181 1_555
O43 P15 1.639937 1_555
O44 P0 1.579181 1_566
O44 P16 1.639937 1_555
O45 P3 1.579181 1_555
O45 P17 1.639937 1_555
O46 P4 1.579181 1_554
O46 P18 1.639937 1_555
O47 P5 1.579181 1_555
O47 P19 1.639937 1_555
O48 P4 1.579181 1_554
O48 P20 1.639937 1_555
O49 P5 1.579181 1_555
O49 P21 1.639937 1_555
O50 P0 1.579181 1_656
O50 P22 1.639937 1_555
O51 P3 1.579181 1_555
O51 P23 1.639937 1_555
O52 P2 1.579181 1_455
O52 P24 1.639937 1_555
O53 P7 1.579181 1_555
O53 P25 1.639937 1_555
O54 P1 1.579181 1_555
O54 P26 1.639937 1_555
O55 P6 1.579181 1_555
O55 P27 1.639937 1_555
O56 P3 1.579181 1_555
O56 P28 1.639937 1_555
O57 P6 1.579181 1_555
O57 P29 1.639937 1_555
O58 P5 1.579181 1_555
O58 P30 1.639937 1_555
O59 P7 1.579181 1_555
O59 P31 1.639937 1_555
O60 P8 1.486249 1_555
O61 P9 1.486249 1_555
O62 P10 1.486249 1_555
O63 P11 1.486249 1_555
O64 P12 1.486249 1_655
O65 P13 1.486249 1_555
O66 P14 1.486249 1_555
O67 P15 1.486249 1_555
O68 P16 1.486249 1_555
O69 P17 1.486249 1_555
O70 P18 1.486249 1_555
O71 P19 1.486249 1_455
O72 P20 1.486249 1_555
O73 P21 1.486249 1_554
O74 P22 1.486249 1_555
O75 P23 1.486249 1_555
O76 P24 1.486249 1_555
O77 P25 1.486249 1_556
O78 P26 1.486249 1_555
O79 P27 1.486249 1_555
O80 P28 1.486249 1_565
O81 P29 1.486249 1_555
O82 P30 1.486249 1_545
O83 P31 1.486249 1_555
O84 P0 1.480745 1_555
O85 P1 1.480745 1_555
O86 P2 1.480745 1_555
O87 P3 1.480745 1_555
O88 P4 1.480745 1_555
O89 P5 1.480745 1_555
O90 P6 1.480745 1_555
O91 P7 1.480745 1_555
