# generated using pymatgen
data_Mg4Si7
_symmetry_space_group_name_H-M   'P 1'
_cell_length_a   4.37499400
_cell_length_b   6.67622498
_cell_length_c   13.25738238
_cell_angle_alpha   85.17228033
_cell_angle_beta   89.71706345
_cell_angle_gamma   89.60833737
_symmetry_Int_Tables_number   1
_chemical_formula_structural   Mg4Si7
_chemical_formula_sum   'Mg8 Si14'
_cell_volume   385.84101775
_cell_formula_units_Z   2
loop_
 _symmetry_equiv_pos_site_id
 _symmetry_equiv_pos_as_xyz
  1  'x, y, z'
loop_
 _atom_site_type_symbol
 _atom_site_label
 _atom_site_symmetry_multiplicity
 _atom_site_fract_x
 _atom_site_fract_y
 _atom_site_fract_z
 _atom_site_occupancy
  Mg  Mg0  1  0.72871000  0.06064400  0.91195800  1
  Mg  Mg1  1  0.72687400  0.42375000  0.49840800  1
  Mg  Mg2  1  0.22741100  0.04797800  0.23241800  1
  Mg  Mg3  1  0.22637800  0.58299100  0.65764200  1
  Mg  Mg4  1  0.72661700  0.52054200  0.83904100  1
  Mg  Mg5  1  0.22638600  0.54531800  0.16805200  1
  Mg  Mg6  1  0.22693500  0.73240500  0.42079200  1
  Mg  Mg7  1  0.22749700  0.09163400  0.58135300  1
  Si  Si0  1  0.72948500  0.28339800  0.09610800  1
  Si  Si1  1  0.71529400  0.65548500  0.01687800  1
  Si  Si2  1  0.22573000  0.84850600  0.82074200  1
  Si  Si3  1  0.23175300  0.89335300  0.02491300  1
  Si  Si4  1  0.72503400  0.79945800  0.55167500  1
  Si  Si5  1  0.72797600  0.07308000  0.40688700  1
  Si  Si6  1  0.73171500  0.91390600  0.12916600  1
  Si  Si7  1  0.22612400  0.22610400  0.79419100  1
  Si  Si8  1  0.72602900  0.26356800  0.69290200  1
  Si  Si9  1  0.72792900  0.35625000  0.27358000  1
  Si  Si10  1  0.22745100  0.28547700  0.38780900  1
  Si  Si11  1  0.22877600  0.27762100  0.98178500  1
  Si  Si12  1  0.72761100  0.89620300  0.72307800  1
  Si  Si13  1  0.72857300  0.72597900  0.29422300  1
loop_
_geom_bond_atom_site_label_1
_geom_bond_atom_site_label_2
_geom_bond_distance
_geom_bond_site_symmetry_2
Mg0 Si11 2.810987 1_555
Mg0 Si3 2.817175 1_546
Mg0 Si12 2.817532 1_545
Mg0 Si11 2.833870 1_655
Mg0 Si3 2.837405 1_646
Mg0 Si7 2.846513 1_655
Mg0 Si7 2.864092 1_555
Mg0 Si2 2.901155 1_645
Mg0 Si1 2.936487 1_546
Mg0 Si2 2.944103 1_545
Mg0 Si6 2.962670 1_546
Mg0 Si0 2.963627 1_556
Mg0 Si8 3.099558 1_555
Mg0 Mg4 3.140371 1_555
Mg1 Si4 2.662367 1_555
Mg1 Si8 2.707036 1_555
Mg1 Si5 2.726004 1_555
Mg1 Si10 2.822545 1_655
Mg1 Si10 2.839585 1_555
Mg1 Si9 3.051751 1_555
Mg1 Si13 3.237227 1_555
Mg2 Si10 2.703304 1_555
Mg2 Si6 2.764083 1_445
Mg2 Si6 2.773488 1_545
Mg2 Si3 3.018460 1_545
Mg2 Si9 3.069942 1_455
Mg2 Si9 3.096943 1_555
Mg2 Si13 3.123615 1_545
Mg2 Si13 3.131400 1_445
Mg2 Si0 3.161563 1_455
Mg2 Si0 3.176602 1_555
Mg2 Si5 3.187903 1_455
Mg2 Si5 3.208476 1_555
Mg3 Si7 2.868482 1_555
Mg3 Si2 2.909078 1_555
Mg3 Si4 2.914223 1_555
Mg3 Si4 2.918631 1_455
Mg3 Si8 3.053404 1_555
Mg3 Si8 3.073107 1_455
Mg3 Si12 3.179779 1_455
Mg3 Si12 3.212593 1_555
Mg4 Si1 2.593911 1_556
Mg4 Si8 2.693794 1_555
Mg4 Si12 2.829250 1_555
Mg4 Si7 3.019691 1_655
Mg4 Si7 3.046420 1_555
Mg4 Si2 3.083085 1_555
Mg4 Si2 3.097086 1_655
Mg4 Si11 3.232080 1_555
Mg4 Si11 3.242492 1_655
Mg5 Si9 2.831340 1_455
Mg5 Si9 2.839103 1_555
Mg5 Si3 2.873793 1_555
Mg5 Si1 2.977232 1_555
Mg5 Si0 3.003242 1_555
Mg5 Si0 3.007762 1_455
Mg5 Si13 3.043639 1_455
Mg5 Si1 3.054690 1_455
Mg5 Si13 3.080889 1_555
Mg5 Si11 3.167737 1_554
Mg6 Si13 2.758340 1_555
Mg6 Si13 2.760581 1_455
Mg6 Si4 2.848241 1_455
Mg6 Si4 2.853323 1_555
Mg6 Si10 3.051841 1_555
Mg6 Si5 3.136518 1_465
Mg6 Si5 3.163174 1_565
Mg7 Si10 2.774824 1_555
Mg7 Si8 2.921837 1_455
Mg7 Si8 2.934875 1_555
Mg7 Si4 2.959825 1_545
Mg7 Si4 2.998087 1_445
Mg7 Si7 3.032158 1_555
Mg7 Si12 3.098609 1_445
Mg7 Si12 3.099821 1_545
Mg7 Si5 3.186527 1_555
Mg7 Si5 3.200464 1_455
Si0 Si9 2.442285 1_555
Si0 Si6 2.468820 1_545
Si0 Si1 2.614848 1_555
Si0 Si11 2.654463 1_654
Si0 Si11 2.672286 1_554
Si1 Si6 2.373364 1_555
Si1 Si3 2.643652 1_555
Si1 Si3 2.778228 1_655
Si2 Si7 2.515886 1_565
Si2 Si3 2.748488 1_556
Si3 Si6 2.590929 1_455
Si3 Si6 2.603726 1_555
Si4 Si5 2.536062 1_565
Si5 Si9 2.476893 1_555
Si7 Si8 2.563398 1_555
Si7 Si8 2.572490 1_455
Si10 Si5 2.602416 1_555
Si10 Si5 2.612730 1_455
Si10 Si9 2.678030 1_555
Si10 Si9 2.681552 1_455
Si11 Si7 2.539280 1_555
Si11 Si3 2.580966 1_546
Si12 Si4 2.414186 1_555
Si12 Si8 2.451538 1_565
Si12 Si2 2.544802 1_655
Si12 Si2 2.551691 1_555
Si13 Si6 2.429088 1_555
Si13 Si9 2.506328 1_555
Si13 Si5 2.860664 1_565
