# generated using pymatgen
data_V2NiO6
_symmetry_space_group_name_H-M   'P 1'
_cell_length_a   4.87870831
_cell_length_b   7.24821692
_cell_length_c   26.55724127
_cell_angle_alpha   102.01025322
_cell_angle_beta   90.14134431
_cell_angle_gamma   94.80288080
_symmetry_Int_Tables_number   1
_chemical_formula_structural   V2NiO6
_chemical_formula_sum   'V18 Ni9 O54'
_cell_volume   915.14260625
_cell_formula_units_Z   9
loop_
 _symmetry_equiv_pos_site_id
 _symmetry_equiv_pos_as_xyz
  1  'x, y, z'
loop_
 _atom_site_type_symbol
 _atom_site_label
 _atom_site_symmetry_multiplicity
 _atom_site_fract_x
 _atom_site_fract_y
 _atom_site_fract_z
 _atom_site_occupancy
  V  V0  1  0.11440000  0.57990400  0.92110500  1
  V  V1  1  0.11461900  0.57956000  0.58714900  1
  V  V2  1  0.40985500  0.66209200  0.25840200  1
  V  V3  1  0.44941800  0.71422600  0.70241700  1
  V  V4  1  0.44978300  0.71383400  0.82250400  1
  V  V5  1  0.44100900  0.71283400  0.36958800  1
  V  V6  1  0.44898900  0.71366000  0.48830100  1
  V  V7  1  0.45117600  0.71636500  0.03657000  1
  V  V8  1  0.43861100  0.70955800  0.15381300  1
  V  V9  1  0.55113100  0.28584600  0.84421400  1
  V  V10  1  0.55445800  0.28764800  0.96456300  1
  V  V11  1  0.55396800  0.28811600  0.51067700  1
  V  V12  1  0.55092100  0.28505800  0.63042100  1
  V  V13  1  0.55394100  0.28827200  0.18233000  1
  V  V14  1  0.55175900  0.28913400  0.29486300  1
  V  V15  1  0.88647100  0.42034800  0.74577200  1
  V  V16  1  0.89347700  0.41894800  0.41189700  1
  V  V17  1  0.89271900  0.42233200  0.07996000  1
  Ni  Ni0  1  0.00086800  0.99990100  0.66653400  1
  Ni  Ni1  1  0.00373500  0.00027600  0.33166000  1
  Ni  Ni2  1  0.00262500  0.00128700  0.00028900  1
  Ni  Ni3  1  0.00618800  0.01155700  0.88913000  1
  Ni  Ni4  1  0.00506900  0.01055300  0.55556100  1
  Ni  Ni5  1  0.00549300  0.00408500  0.22365300  1
  Ni  Ni6  1  0.99537300  0.98843300  0.77757500  1
  Ni  Ni7  1  0.99669100  0.99279900  0.44435900  1
  Ni  Ni8  1  0.00485800  0.00281200  0.11238500  1
  O  O0  1  0.10568500  0.82066200  0.93382900  1
  O  O1  1  0.10601000  0.82022300  0.60021800  1
  O  O2  1  0.16575100  0.83031200  0.26812000  1
  O  O3  1  0.16765300  0.84788600  0.71312200  1
  O  O4  1  0.17090200  0.85440500  0.37984500  1
  O  O5  1  0.17027700  0.85079100  0.04733800  1
  O  O6  1  0.16580500  0.84630400  0.82711000  1
  O  O7  1  0.16427100  0.84577700  0.49336600  1
  O  O8  1  0.16728800  0.84878300  0.15973700  1
  O  O9  1  0.21493500  0.53133300  0.75183500  1
  O  O10  1  0.22548500  0.53590400  0.41732300  1
  O  O11  1  0.22815800  0.53609900  0.08742800  1
  O  O12  1  0.29177200  0.52116800  0.86163500  1
  O  O13  1  0.29211900  0.52129800  0.52748800  1
  O  O14  1  0.28740800  0.53348300  0.19396400  1
  O  O15  1  0.29451300  0.52573000  0.97467300  1
  O  O16  1  0.29431400  0.52430300  0.64052100  1
  O  O17  1  0.29225300  0.53637500  0.30995200  1
  O  O18  1  0.34962900  0.16557000  0.99764000  1
  O  O19  1  0.34762700  0.16376500  0.66386700  1
  O  O20  1  0.34943600  0.16631400  0.79647600  1
  O  O21  1  0.34160900  0.17917500  0.33107600  1
  O  O22  1  0.35100200  0.16732700  0.46316200  1
  O  O23  1  0.34514300  0.18104000  0.13270600  1
  O  O24  1  0.36883800  0.20787700  0.90009700  1
  O  O25  1  0.36829100  0.20811100  0.56636000  1
  O  O26  1  0.35902700  0.18433800  0.23241200  1
  O  O27  1  0.63354200  0.79270800  0.76693600  1
  O  O28  1  0.63153700  0.79742200  0.43239300  1
  O  O29  1  0.63368300  0.79618000  0.10159700  1
  O  O30  1  0.65209600  0.83348200  0.87031400  1
  O  O31  1  0.65005900  0.83253600  0.53635200  1
  O  O32  1  0.65387600  0.83585200  0.66924000  1
  O  O33  1  0.63257000  0.80961000  0.21090800  1
  O  O34  1  0.63750900  0.81518800  0.32541900  1
  O  O35  1  0.65520100  0.83709600  0.00305700  1
  O  O36  1  0.70623400  0.47599000  0.69269900  1
  O  O37  1  0.71846600  0.47847100  0.36063600  1
  O  O38  1  0.71066100  0.47865900  0.02674500  1
  O  O39  1  0.70771700  0.47871700  0.80530800  1
  O  O40  1  0.71232200  0.47975200  0.47128100  1
  O  O41  1  0.72040300  0.47931000  0.13804400  1
  O  O42  1  0.78544300  0.46952200  0.91507700  1
  O  O43  1  0.78537700  0.46973800  0.58143800  1
  O  O44  1  0.67692000  0.47389000  0.24860400  1
  O  O45  1  0.83547000  0.15388200  0.83965300  1
  O  O46  1  0.83646500  0.15451100  0.50660000  1
  O  O47  1  0.83218500  0.14994300  0.17538400  1
  O  O48  1  0.83518200  0.15326500  0.95360800  1
  O  O49  1  0.83362900  0.15214400  0.62012700  1
  O  O50  1  0.83152500  0.15226400  0.28615900  1
  O  O51  1  0.89536000  0.17964400  0.73294700  1
  O  O52  1  0.89403800  0.17636600  0.39887700  1
  O  O53  1  0.89802100  0.18096700  0.06620100  1
loop_
_geom_bond_atom_site_label_1
_geom_bond_atom_site_label_2
_geom_bond_distance
_geom_bond_site_symmetry_2
Ni0 O19 1.994192 1_565
Ni0 O32 1.995980 1_455
Ni0 O49 2.028327 1_465
Ni0 O3 2.029642 1_555
Ni0 O1 2.054925 1_555
Ni0 O51 2.057564 1_465
Ni1 O21 2.012317 1_555
Ni1 O50 2.020808 1_455
Ni1 O4 2.030489 1_545
Ni1 O52 2.067105 1_455
Ni1 O2 2.072296 1_545
Ni1 O34 2.127015 1_445
Ni2 O18 1.996685 1_554
Ni2 O35 1.998478 1_445
Ni2 O48 2.032665 1_454
Ni2 O5 2.032667 1_545
Ni2 O53 2.046357 1_455
Ni2 O0 2.057906 1_544
Ni3 O6 2.023724 1_545
Ni3 O48 2.025284 1_455
Ni3 O45 2.046222 1_455
Ni3 O30 2.062500 1_445
Ni3 O0 2.086258 1_545
Ni3 O24 2.154844 1_555
Ni4 O7 2.024494 1_545
Ni4 O49 2.027674 1_455
Ni4 O46 2.039407 1_455
Ni4 O31 2.066976 1_445
Ni4 O1 2.084224 1_545
Ni4 O25 2.162072 1_555
Ni5 O50 2.011734 1_455
Ni5 O8 2.032652 1_545
Ni5 O47 2.045530 1_455
Ni5 O26 2.056737 1_555
Ni5 O2 2.090860 1_545
Ni5 O33 2.186464 1_445
Ni6 O3 2.024576 1_655
Ni6 O45 2.026044 1_565
Ni6 O6 2.045793 1_655
Ni6 O20 2.061929 1_665
Ni6 O51 2.087486 1_565
Ni6 O27 2.149407 1_555
Ni7 O46 2.017585 1_565
Ni7 O4 2.024536 1_655
Ni7 O22 2.050436 1_665
Ni7 O7 2.053231 1_655
Ni7 O52 2.063381 1_565
Ni7 O28 2.160452 1_555
Ni8 O47 2.015193 1_455
Ni8 O23 2.015562 1_555
Ni8 O8 2.045320 1_545
Ni8 O53 2.052363 1_455
Ni8 O5 2.052610 1_545
Ni8 O29 2.229152 1_445
O0 V0 1.711238 1_555
O1 V1 1.710396 1_555
O2 V2 1.756494 1_555
O3 V3 1.737632 1_555
O4 V5 1.724982 1_555
O5 V7 1.737461 1_555
O6 V4 1.740997 1_555
O7 V6 1.742025 1_555
O8 V8 1.718703 1_555
O9 V15 1.723354 1_455
O9 V3 2.294764 1_555
O9 V4 2.299402 1_555
O10 V16 1.755314 1_455
O10 V5 2.194238 1_555
O10 V6 2.268485 1_555
O11 V17 1.761202 1_455
O11 V8 2.143716 1_555
O11 V7 2.284500 1_555
O12 V0 1.792499 1_555
O12 V4 2.012971 1_555
O12 V9 2.181811 1_555
O13 V1 1.796722 1_555
O13 V6 2.010451 1_555
O13 V11 2.176752 1_555
O14 V2 1.841786 1_555
O14 V8 1.929378 1_555
O14 V13 2.259589 1_555
O15 V0 1.798407 1_555
O15 V7 2.016740 1_556
O15 V10 2.198562 1_555
O16 V1 1.796376 1_555
O16 V3 2.011807 1_555
O16 V12 2.194982 1_555
O17 V2 1.862591 1_555
O17 V5 1.914877 1_555
O17 V14 2.249113 1_555
O18 V10 1.653163 1_555
O19 V12 1.651935 1_555
O20 V9 1.649291 1_555
O21 V14 1.672813 1_555
O22 V11 1.651733 1_555
O23 V13 1.677225 1_555
O24 V10 1.891607 1_555
O24 V9 1.893219 1_555
O25 V12 1.874493 1_555
O25 V11 1.902421 1_555
O26 V13 1.882567 1_555
O26 V14 1.886855 1_555
O27 V3 1.888811 1_555
O27 V4 1.892132 1_555
O28 V5 1.869022 1_555
O28 V6 1.912438 1_555
O29 V8 1.868609 1_555
O29 V7 1.897413 1_555
O30 V4 1.652476 1_555
O31 V6 1.651614 1_555
O32 V3 1.651913 1_555
O33 V8 1.772242 1_555
O33 V2 2.070816 1_555
O34 V5 1.758976 1_555
O34 V2 2.143479 1_555
O35 V7 1.652669 1_555
O36 V15 1.792295 1_555
O36 V12 2.022499 1_555
O36 V3 2.190127 1_555
O37 V16 1.751804 1_555
O37 V14 2.098672 1_555
O37 V5 2.234510 1_555
O38 V17 1.802086 1_555
O38 V10 2.022431 1_554
O38 V7 2.195231 1_555
O39 V15 1.797120 1_555
O39 V9 2.007907 1_555
O39 V4 2.175860 1_555
O40 V16 1.801485 1_555
O40 V11 2.012452 1_555
O40 V6 2.185850 1_555
O41 V17 1.748192 1_555
O41 V13 2.110520 1_555
O41 V8 2.224133 1_555
O42 V0 1.723894 1_655
O42 V10 2.283515 1_555
O42 V9 2.304923 1_555
O43 V1 1.723718 1_655
O43 V11 2.291320 1_555
O43 V12 2.295230 1_555
O44 V2 1.943648 1_555
O44 V13 2.035189 1_555
O44 V14 2.055936 1_555
O45 V9 1.740321 1_555
O46 V11 1.740577 1_555
O47 V13 1.741901 1_555
O48 V10 1.736817 1_555
O49 V12 1.737799 1_555
O50 V14 1.741675 1_555
O51 V15 1.710911 1_555
O52 V16 1.720154 1_555
O53 V17 1.713593 1_555
