# generated using pymatgen
data_CeSe2
_symmetry_space_group_name_H-M   'P 1'
_cell_length_a   8.90871500
_cell_length_b   7.51800500
_cell_length_c   8.33677903
_cell_angle_alpha   74.21318646
_cell_angle_beta   90.00000000
_cell_angle_gamma   90.00000000
_symmetry_Int_Tables_number   1
_chemical_formula_structural   CeSe2
_chemical_formula_sum   'Ce4 Se8'
_cell_volume   537.30107733
_cell_formula_units_Z   4
loop_
 _symmetry_equiv_pos_site_id
 _symmetry_equiv_pos_as_xyz
  1  'x, y, z'
loop_
 _atom_site_type_symbol
 _atom_site_label
 _atom_site_symmetry_multiplicity
 _atom_site_fract_x
 _atom_site_fract_y
 _atom_site_fract_z
 _atom_site_occupancy
  Ce  Ce0  1  0.50000000  0.01218000  0.00899400  1
  Ce  Ce1  1  0.50000000  0.53852500  0.47422200  1
  Ce  Ce2  1  0.00000000  0.96627700  0.77036300  1
  Ce  Ce3  1  0.00000000  0.54289900  0.43071000  1
  Se  Se0  1  0.00000000  0.33494500  0.75550000  1
  Se  Se1  1  0.73830700  0.42591500  0.31962800  1
  Se  Se2  1  0.26169300  0.42591500  0.31962800  1
  Se  Se3  1  0.50000000  0.91679200  0.35217100  1
  Se  Se4  1  0.25615100  0.82244600  0.93793600  1
  Se  Se5  1  0.74384900  0.82244600  0.93793600  1
  Se  Se6  1  0.00000000  0.89497200  0.46516500  1
  Se  Se7  1  0.50000000  0.36878900  0.81072700  1
loop_
_geom_bond_atom_site_label_1
_geom_bond_atom_site_label_2
_geom_bond_distance
_geom_bond_site_symmetry_2
Ce0 Se7 2.740180 1_554
Ce0 Se5 2.750387 1_544
Ce0 Se4 2.750387 1_544
Ce0 Se3 2.753757 1_545
Ce1 Se1 2.734711 1_555
Ce1 Se2 2.734711 1_555
Ce1 Se3 2.747387 1_555
Ce1 Se7 2.747834 1_555
Ce2 Se6 2.739222 1_555
Ce2 Se4 2.739777 1_555
Ce2 Se5 2.739777 1_455
Ce2 Se0 2.740532 1_565
Ce3 Se0 2.733587 1_555
Ce3 Se6 2.739016 1_555
Ce3 Se2 2.740336 1_555
Ce3 Se1 2.740336 1_455
