# generated using pymatgen
data_V17Fe7(PbO11)4
_symmetry_space_group_name_H-M   'P 1'
_cell_length_a   5.92131000
_cell_length_b   10.22788054
_cell_length_c   14.88704686
_cell_angle_alpha   109.73876850
_cell_angle_beta   101.23408913
_cell_angle_gamma   90.17833745
_symmetry_Int_Tables_number   1
_chemical_formula_structural   V17Fe7(PbO11)4
_chemical_formula_sum   'V17 Fe7 Pb4 O44'
_cell_volume   830.03835047
_cell_formula_units_Z   1
loop_
 _symmetry_equiv_pos_site_id
 _symmetry_equiv_pos_as_xyz
  1  'x, y, z'
loop_
 _atom_site_type_symbol
 _atom_site_label
 _atom_site_symmetry_multiplicity
 _atom_site_fract_x
 _atom_site_fract_y
 _atom_site_fract_z
 _atom_site_occupancy
  V  V0  1  0.49689100  0.50406900  0.50155700  1
  V  V1  1  0.99365600  0.00147000  0.50288000  1
  V  V2  1  0.00266700  0.50007000  0.49976200  1
  V  V3  1  0.50308600  0.00160900  0.50003200  1
  V  V4  1  0.24411900  0.74231800  0.49989500  1
  V  V5  1  0.74959900  0.24886400  0.50259000  1
  V  V6  1  0.25219000  0.24688500  0.00084800  1
  V  V7  1  0.75678200  0.74808600  0.99879200  1
  V  V8  1  0.74493900  0.24618400  0.00065300  1
  V  V9  1  0.24429300  0.75151300  0.00146100  1
  V  V10  1  0.49864200  0.00477800  0.99774900  1
  V  V11  1  0.99795200  0.50486300  0.00267600  1
  V  V12  1  0.67495900  0.67481100  0.35174900  1
  V  V13  1  0.92100600  0.92151300  0.84406800  1
  V  V14  1  0.07671400  0.07670000  0.15089700  1
  V  V15  1  0.57176500  0.57130500  0.14822100  1
  V  V16  1  0.32125000  0.32595400  0.64856800  1
  Fe  Fe0  1  0.11606200  0.45035800  0.23428200  1
  Fe  Fe1  1  0.61444100  0.94819900  0.22983400  1
  Fe  Fe2  1  0.86435600  0.53057900  0.73130900  1
  Fe  Fe3  1  0.36343600  0.03233400  0.73030900  1
  Fe  Fe4  1  0.17560200  0.17947900  0.35610000  1
  Fe  Fe5  1  0.42483200  0.42726700  0.85337600  1
  Fe  Fe6  1  0.82134500  0.82232500  0.64582600  1
  Pb  Pb0  1  0.63672000  0.30544500  0.27666500  1
  Pb  Pb1  1  0.13871000  0.80563300  0.27831500  1
  Pb  Pb2  1  0.38129900  0.71540800  0.77336600  1
  Pb  Pb3  1  0.88371400  0.22163100  0.77459300  1
  O  O0  1  0.93637400  0.29334200  0.41914200  1
  O  O1  1  0.44259200  0.79683700  0.42280200  1
  O  O2  1  0.47177000  0.30113800  0.42044800  1
  O  O3  1  0.97515500  0.79881800  0.42066100  1
  O  O4  1  0.70981300  0.53200700  0.41878200  1
  O  O5  1  0.20274100  0.03418100  0.42015700  1
  O  O6  1  0.22136000  0.87341400  0.91748700  1
  O  O7  1  0.72245300  0.36769200  0.91987100  1
  O  O8  1  0.71096100  0.87769400  0.91748100  1
  O  O9  1  0.19162100  0.37028100  0.92184000  1
  O  O10  1  0.45624700  0.63805400  0.91925600  1
  O  O11  1  0.95850000  0.13187500  0.91905400  1
  O  O12  1  0.03806900  0.37203300  0.08017900  1
  O  O13  1  0.53724400  0.87433600  0.08005300  1
  O  O14  1  0.78394900  0.45699400  0.58278600  1
  O  O15  1  0.28454200  0.95357200  0.58272100  1
  O  O16  1  0.14934400  0.45132500  0.75118800  1
  O  O17  1  0.64636100  0.95448400  0.75414700  1
  O  O18  1  0.59830200  0.44949400  0.75088900  1
  O  O19  1  0.10441800  0.95594300  0.75999000  1
  O  O20  1  0.87909900  0.72373200  0.75501400  1
  O  O21  1  0.37239200  0.22432400  0.74763800  1
  O  O22  1  0.84988800  0.54914000  0.25001100  1
  O  O23  1  0.34952400  0.05022900  0.24887700  1
  O  O24  1  0.39742600  0.55016800  0.24922300  1
  O  O25  1  0.89972000  0.04750300  0.24663300  1
  O  O26  1  0.12593200  0.27701900  0.25212100  1
  O  O27  1  0.62386700  0.77356700  0.24866100  1
  O  O28  1  0.78738400  0.13078500  0.07670800  1
  O  O29  1  0.27947600  0.62091500  0.07243600  1
  O  O30  1  0.28830500  0.13051700  0.07588400  1
  O  O31  1  0.80100900  0.61534300  0.07466600  1
  O  O32  1  0.53511100  0.36434200  0.07402600  1
  O  O33  1  0.05235700  0.86453000  0.07433100  1
  O  O34  1  0.06251500  0.70560000  0.57702500  1
  O  O35  1  0.55345300  0.20787300  0.57519300  1
  O  O36  1  0.52735100  0.69104600  0.57404800  1
  O  O37  1  0.03197500  0.20305300  0.57473600  1
  O  O38  1  0.28953900  0.45584400  0.57434900  1
  O  O39  1  0.80184000  0.96701000  0.57698200  1
  O  O40  1  0.22052600  0.54318300  0.41905400  1
  O  O41  1  0.72379400  0.04959200  0.42192100  1
  O  O42  1  0.97430300  0.62142300  0.92120900  1
  O  O43  1  0.45856600  0.13829500  0.92034800  1
loop_
_geom_bond_atom_site_label_1
_geom_bond_atom_site_label_2
_geom_bond_distance
_geom_bond_site_symmetry_2
Fe0 O26 1.878752 1_555
Fe0 O22 1.885098 1_455
Fe0 O24 1.886518 1_555
Fe0 O12 2.112251 1_555
Fe0 O40 2.533728 1_555
Fe1 O25 1.897565 1_565
Fe1 O27 1.898565 1_555
Fe1 O23 1.900968 1_565
Fe1 O13 2.052934 1_555
Fe1 O41 2.635020 1_565
Fe2 O20 1.884397 1_555
Fe2 O16 1.888991 1_655
Fe2 O18 1.894380 1_555
Fe2 O14 2.036051 1_555
Fe2 O42 2.604651 1_555
Fe3 O17 1.879905 1_545
Fe3 O21 1.891332 1_555
Fe3 O19 1.909923 1_545
Fe3 O15 2.024063 1_545
Fe3 O43 2.607678 1_555
Fe4 O0 2.008393 1_455
Fe4 O5 2.010647 1_555
Fe4 O2 2.016967 1_555
Fe4 O26 2.084566 1_555
Fe4 O23 2.140039 1_555
Fe4 O25 2.146981 1_455
Fe5 O10 2.035342 1_555
Fe5 O7 2.047269 1_555
Fe5 O9 2.056723 1_555
Fe5 O18 2.068350 1_555
Fe5 O16 2.079480 1_555
Fe5 O21 2.116901 1_555
Fe6 O39 2.057420 1_555
Fe6 O36 2.065598 1_555
Fe6 O34 2.065968 1_655
Fe6 O20 2.160730 1_555
Fe6 O17 2.165296 1_555
Fe6 O19 2.207397 1_655
O0 V5 1.971624 1_555
O0 V2 2.040184 1_655
O0 Pb0 2.524847 1_555
O1 V4 1.990726 1_555
O1 V3 2.011216 1_565
O1 V12 2.062944 1_555
O1 Pb1 2.548775 1_555
O2 V0 2.005818 1_555
O2 V5 2.037367 1_555
O2 Pb0 2.532924 1_555
O3 V4 1.998981 1_655
O3 V1 2.009716 1_565
O3 V12 2.053619 1_555
O3 Pb1 2.516426 1_655
O4 V2 2.005508 1_655
O4 V0 2.007651 1_555
O4 V12 2.019380 1_555
O4 Pb0 2.521625 1_555
O5 V1 2.007761 1_455
O5 V3 2.033487 1_555
O5 Pb1 2.532839 1_545
O6 V10 2.016465 1_565
O6 V9 2.030628 1_556
O6 V13 2.052050 1_455
O6 Pb2 2.563411 1_555
O7 V8 1.989127 1_556
O7 V11 2.045270 1_556
O7 Pb3 2.540119 1_555
O8 V13 1.949153 1_555
O8 V10 2.060183 1_565
O8 V7 2.062590 1_555
O8 Pb2 2.666662 1_555
O9 V6 1.986469 1_556
O9 V11 2.021547 1_456
O9 Pb3 2.571999 1_455
O10 V9 2.016852 1_556
O10 V7 2.025288 1_555
O10 Pb2 2.515395 1_555
O11 V6 2.021219 1_656
O11 V8 2.022396 1_556
O11 V13 2.050066 1_545
O11 Pb3 2.574672 1_555
O12 V11 2.046310 1_455
O12 V6 2.052589 1_555
O12 V8 2.056023 1_455
O13 V9 2.039334 1_555
O13 V10 2.080962 1_564
O13 V7 2.094938 1_554
O14 V0 2.044702 1_555
O14 V5 2.045541 1_555
O14 V2 2.094517 1_655
O15 V1 2.054358 1_465
O15 V4 2.080486 1_555
O15 V3 2.111067 1_565
O16 V16 2.074875 1_555
O17 V13 2.002633 1_555
O18 V16 2.078823 1_555
O19 V13 1.922284 1_455
O20 V13 1.992096 1_555
O21 V16 2.052037 1_555
O22 V15 2.078898 1_555
O22 V12 2.079316 1_555
O23 V14 2.040047 1_555
O24 V15 2.048479 1_555
O24 V12 2.085853 1_555
O25 V14 2.021473 1_655
O26 V14 2.072005 1_555
O27 V12 2.082075 1_555
O27 V15 2.082652 1_555
O28 V8 1.879317 1_555
O28 V14 2.035250 1_655
O28 V10 2.036126 1_554
O29 V11 1.935659 1_455
O29 V9 1.952770 1_555
O29 V15 2.038895 1_555
O30 V6 1.875284 1_555
O30 V14 2.018873 1_555
O30 V10 2.030306 1_554
O31 V11 1.860787 1_555
O31 V7 2.027450 1_554
O31 V15 2.037900 1_555
O32 V6 1.956752 1_555
O32 V8 1.960563 1_555
O32 V15 2.018012 1_555
O33 V9 1.856396 1_555
O33 V7 2.015366 1_454
O33 V14 2.071807 1_565
O34 V4 1.840023 1_555
O34 V2 2.017644 1_555
O35 V5 1.866847 1_555
O35 V3 2.015723 1_555
O35 V16 2.060751 1_555
O36 V0 1.839113 1_555
O36 V4 1.995357 1_555
O37 V5 1.952917 1_455
O37 V1 1.964546 1_455
O37 V16 2.010463 1_555
O38 V0 1.949555 1_555
O38 V2 1.982959 1_555
O38 V16 1.983225 1_555
O39 V1 1.838361 1_565
O39 V3 2.013719 1_565
O40 V4 1.973118 1_555
O40 V0 1.974679 1_555
O40 V2 2.064079 1_555
O41 V5 1.973020 1_555
O41 V1 1.975712 1_555
O41 V3 2.067510 1_555
O42 V11 1.955311 1_556
O42 V9 1.980491 1_656
O42 V7 2.061698 1_555
O43 V8 1.956960 1_556
O43 V6 1.960370 1_556
O43 V10 2.051156 1_555
