# generated using pymatgen
data_Tb2Si3Ge
_symmetry_space_group_name_H-M   'P 1'
_cell_length_a   3.96826800
_cell_length_b   4.00145700
_cell_length_c   8.12957222
_cell_angle_alpha   75.75285750
_cell_angle_beta   75.87349538
_cell_angle_gamma   90.00000000
_symmetry_Int_Tables_number   1
_chemical_formula_structural   Tb2Si3Ge
_chemical_formula_sum   'Tb2 Si3 Ge1'
_cell_volume   121.08627953
_cell_formula_units_Z   1
loop_
 _symmetry_equiv_pos_site_id
 _symmetry_equiv_pos_as_xyz
  1  'x, y, z'
loop_
 _atom_site_type_symbol
 _atom_site_label
 _atom_site_symmetry_multiplicity
 _atom_site_fract_x
 _atom_site_fract_y
 _atom_site_fract_z
 _atom_site_occupancy
  Tb  Tb0  1  0.88039700  0.63039700  0.73920700  1
  Tb  Tb1  1  0.12172400  0.37172400  0.25655300  1
  Si  Si0  1  0.46151600  0.21151600  0.57696900  1
  Si  Si1  1  0.54237700  0.79237700  0.41524600  1
  Si  Si2  1  0.69991000  0.94991000  0.10017900  1
  Ge  Ge0  1  0.29407600  0.04407600  0.91184700  1
loop_
_geom_bond_atom_site_label_1
_geom_bond_atom_site_label_2
_geom_bond_distance
_geom_bond_site_symmetry_2
Si0 Si1 2.350274 1_555
Si0 Si1 2.350277 1_545
Si0 Tb0 3.077383 1_555
Si0 Tb0 3.077383 1_545
Si0 Tb0 3.077383 1_455
Si0 Tb0 3.077383 1_445
Si0 Tb1 3.147517 1_555
Si0 Tb1 3.147517 1_655
Si1 Si2 2.402585 1_555
Si1 Tb1 3.066612 1_555
Si1 Tb1 3.066615 1_565
Si1 Tb1 3.066615 1_655
Si1 Tb1 3.066618 1_665
Si1 Tb0 3.168547 1_455
Si1 Tb0 3.168549 1_555
Si2 Tb1 3.059675 1_555
Si2 Tb1 3.059680 1_655
Si2 Tb1 3.059680 1_565
Si2 Tb1 3.059685 1_665
Si2 Tb0 3.402928 1_554
Si2 Tb0 3.402933 1_564
Ge0 Si2 2.449350 1_546
Ge0 Si2 2.449350 1_446
Ge0 Si0 2.553656 1_555
Ge0 Tb0 3.110115 1_445
Ge0 Tb0 3.110120 1_455
Ge0 Tb0 3.110120 1_545
Ge0 Tb0 3.110125 1_555
Ge0 Tb1 3.303398 1_546
Ge0 Tb1 3.303403 1_556
