# generated using pymatgen
data_Na2SO5
_symmetry_space_group_name_H-M   'P 1'
_cell_length_a   6.24332800
_cell_length_b   6.09151516
_cell_length_c   7.78572700
_cell_angle_alpha   90.00000000
_cell_angle_beta   90.00000000
_cell_angle_gamma   120.82789575
_symmetry_Int_Tables_number   1
_chemical_formula_structural   Na2SO5
_chemical_formula_sum   'Na4 S2 O10'
_cell_volume   254.26549210
_cell_formula_units_Z   2
loop_
 _symmetry_equiv_pos_site_id
 _symmetry_equiv_pos_as_xyz
  1  'x, y, z'
loop_
 _atom_site_type_symbol
 _atom_site_label
 _atom_site_symmetry_multiplicity
 _atom_site_fract_x
 _atom_site_fract_y
 _atom_site_fract_z
 _atom_site_occupancy
  Na  Na0  1  0.00000000  0.00000000  0.50000000  1
  Na  Na1  1  0.00000000  0.00000000  0.00000000  1
  Na  Na2  1  0.65490000  0.30980000  0.75000000  1
  Na  Na3  1  0.34510000  0.69020000  0.25000000  1
  S  S0  1  0.21747300  0.43494700  0.75000000  1
  S  S1  1  0.78252700  0.56505300  0.25000000  1
  O  O0  1  0.92528800  0.85057500  0.25000000  1
  O  O1  1  0.07471200  0.14942500  0.75000000  1
  O  O2  1  0.97097300  0.39161100  0.94410300  1
  O  O3  1  0.57936200  0.60838900  0.05589700  1
  O  O4  1  0.97097300  0.39161100  0.55589700  1
  O  O5  1  0.57936200  0.60838900  0.44410300  1
  O  O6  1  0.02902700  0.60838900  0.05589700  1
  O  O7  1  0.42063800  0.39161100  0.94410300  1
  O  O8  1  0.02902700  0.60838900  0.44410300  1
  O  O9  1  0.42063800  0.39161100  0.55589700  1
loop_
_geom_bond_atom_site_label_1
_geom_bond_atom_site_label_2
_geom_bond_distance
_geom_bond_site_symmetry_2
Na0 O1 2.097505 1_555
Na0 O0 2.097505 1_445
Na0 O9 2.521103 1_555
Na0 O8 2.521103 1_545
Na0 O4 2.521103 1_455
Na0 O5 2.521103 1_445
Na1 O1 2.097505 1_554
Na1 O0 2.097505 1_445
Na1 O6 2.521103 1_545
Na1 O7 2.521103 1_554
Na1 O2 2.521103 1_454
Na1 O3 2.521103 1_445
Na2 O2 2.327735 1_555
Na2 O7 2.327735 1_555
Na2 O4 2.327735 1_555
Na2 O9 2.327735 1_555
Na3 O5 2.327735 1_555
Na3 O8 2.327735 1_555
Na3 O3 2.327735 1_555
Na3 O6 2.327735 1_555
O0 S1 1.493522 1_555
O1 S0 1.493522 1_555
O2 O6 1.463610 1_656
O2 S0 2.074990 1_655
O3 O7 1.463610 1_554
O3 S1 2.074994 1_555
O4 O8 1.463610 1_655
O4 S0 2.074990 1_655
O5 O9 1.463610 1_555
O5 S1 2.074994 1_555
O6 S1 2.074990 1_455
O7 S0 2.074994 1_555
O8 S1 2.074990 1_455
O9 S0 2.074994 1_555
