# generated using pymatgen
data_Li7Co5O12
_symmetry_space_group_name_H-M   'P 1'
_cell_length_a   2.99271300
_cell_length_b   5.06264900
_cell_length_c   14.21542785
_cell_angle_alpha   86.89925513
_cell_angle_beta   90.00000000
_cell_angle_gamma   90.00000000
_symmetry_Int_Tables_number   1
_chemical_formula_structural   Li7Co5O12
_chemical_formula_sum   'Li7 Co5 O12'
_cell_volume   215.06341449
_cell_formula_units_Z   1
loop_
 _symmetry_equiv_pos_site_id
 _symmetry_equiv_pos_as_xyz
  1  'x, y, z'
loop_
 _atom_site_type_symbol
 _atom_site_label
 _atom_site_symmetry_multiplicity
 _atom_site_fract_x
 _atom_site_fract_y
 _atom_site_fract_z
 _atom_site_occupancy
  Li  Li0  1  0.00000000  0.00000000  0.50000000  1
  Li  Li1  1  0.50000000  0.82998000  0.66703100  1
  Li  Li2  1  0.00000000  0.66947500  0.83227100  1
  Li  Li3  1  0.50000000  0.50000000  0.00000000  1
  Li  Li4  1  0.00000000  0.33052500  0.16772900  1
  Li  Li5  1  0.50000000  0.17002000  0.33296900  1
  Li  Li6  1  0.50000000  0.50000000  0.50000000  1
  Co  Co0  1  0.00000000  0.66675800  0.34095400  1
  Co  Co1  1  0.00000000  0.33324200  0.65904600  1
  Co  Co2  1  0.50000000  0.17859000  0.83223900  1
  Co  Co3  1  0.00000000  0.00000000  0.00000000  1
  Co  Co4  1  0.50000000  0.82141000  0.16776100  1
  O  O0  1  0.00000000  0.62880100  0.59299200  1
  O  O1  1  0.50000000  0.48263000  0.74971000  1
  O  O2  1  0.00000000  0.31898400  0.91791100  1
  O  O3  1  0.50000000  0.13957300  0.08478300  1
  O  O4  1  0.00000000  0.96121900  0.25263700  1
  O  O5  1  0.50000000  0.82603400  0.41100400  1
  O  O6  1  0.00000000  0.37119900  0.40700800  1
  O  O7  1  0.50000000  0.17396600  0.58899600  1
  O  O8  1  0.00000000  0.03878100  0.74736300  1
  O  O9  1  0.50000000  0.86042700  0.91521700  1
  O  O10  1  0.00000000  0.68101600  0.08208900  1
  O  O11  1  0.50000000  0.51737000  0.25029000  1
loop_
_geom_bond_atom_site_label_1
_geom_bond_atom_site_label_2
_geom_bond_distance
_geom_bond_site_symmetry_2
Li0 O7 2.176195 1_555
Li0 O5 2.176195 1_445
Li0 O7 2.176195 1_455
Li0 O5 2.176195 1_545
Li0 O0 2.238371 1_545
Li0 O6 2.238371 1_555
Li1 O7 2.013532 1_565
Li1 O1 2.061586 1_555
Li1 O0 2.121353 1_555
Li1 O0 2.121353 1_655
Li1 O8 2.188873 1_665
Li1 O8 2.188873 1_565
Li2 O2 2.096886 1_555
Li2 O1 2.152069 1_455
Li2 O1 2.152069 1_555
Li2 O9 2.165008 1_555
Li2 O9 2.165008 1_455
Li2 O8 2.169879 1_565
Li3 O3 2.131722 1_555
Li3 O9 2.131722 1_554
Li3 O10 2.134555 1_555
Li3 O2 2.134555 1_654
Li3 O10 2.134555 1_655
Li3 O2 2.134555 1_554
Li4 O10 2.096886 1_555
Li4 O11 2.152069 1_555
Li4 O11 2.152069 1_455
Li4 O3 2.165008 1_555
Li4 O3 2.165008 1_455
Li4 O4 2.169879 1_545
Li5 O5 2.013532 1_545
Li5 O11 2.061586 1_555
Li5 O6 2.121353 1_655
Li5 O6 2.121353 1_555
Li5 O4 2.188873 1_545
Li5 O4 2.188873 1_645
Li6 O7 2.024618 1_555
Li6 O5 2.024618 1_555
Li6 O0 2.122501 1_555
Li6 O0 2.122501 1_655
Li6 O6 2.122501 1_655
Li6 O6 2.122501 1_555
Co0 O6 1.722975 1_555
Co0 O4 1.896328 1_555
Co0 O5 1.991925 1_455
Co0 O5 1.991925 1_555
Co0 O11 2.139532 1_555
Co0 O11 2.139532 1_455
Co1 O0 1.722975 1_555
Co1 O8 1.896328 1_555
Co1 O7 1.991925 1_455
Co1 O7 1.991925 1_555
Co1 O1 2.139532 1_455
Co1 O1 2.139532 1_555
Co2 O1 1.884220 1_555
Co2 O9 1.944310 1_545
Co2 O8 2.070801 1_555
Co2 O8 2.070801 1_655
Co2 O2 2.078728 1_555
Co2 O2 2.078728 1_655
Co3 O2 1.940560 1_554
Co3 O10 1.940560 1_545
Co3 O3 2.069561 1_555
Co3 O3 2.069561 1_455
Co3 O9 2.069561 1_444
Co3 O9 2.069561 1_544
Co4 O11 1.884220 1_555
Co4 O3 1.944310 1_565
Co4 O4 2.070801 1_555
Co4 O4 2.070801 1_655
Co4 O10 2.078728 1_555
Co4 O10 2.078728 1_655
