# generated using pymatgen
data_Er5Bi3
_symmetry_space_group_name_H-M   'P 1'
_cell_length_a   8.20011559
_cell_length_b   9.35332025
_cell_length_c   11.89466938
_cell_angle_alpha   90.00000000
_cell_angle_beta   90.00000000
_cell_angle_gamma   90.00000000
_symmetry_Int_Tables_number   1
_chemical_formula_structural   Er5Bi3
_chemical_formula_sum   'Er20 Bi12'
_cell_volume   912.30100615
_cell_formula_units_Z   4
loop_
 _symmetry_equiv_pos_site_id
 _symmetry_equiv_pos_as_xyz
  1  'x, y, z'
loop_
 _atom_site_type_symbol
 _atom_site_label
 _atom_site_symmetry_multiplicity
 _atom_site_fract_x
 _atom_site_fract_y
 _atom_site_fract_z
 _atom_site_occupancy
  Er  Er0  1  0.68909163  0.93624399  0.43529172  1
  Er  Er1  1  0.81090837  0.56375601  0.93529072  1
  Er  Er2  1  0.31090153  0.43623079  0.56470740  1
  Er  Er3  1  0.18909847  0.06376921  0.06470840  1
  Er  Er4  1  0.31090153  0.06376921  0.56470740  1
  Er  Er5  1  0.18909847  0.43623079  0.06470840  1
  Er  Er6  1  0.68909163  0.56375601  0.43529172  1
  Er  Er7  1  0.81090837  0.93624399  0.93529072  1
  Er  Er8  1  0.32837331  0.75000000  0.27311994  1
  Er  Er9  1  0.17162669  0.75000000  0.77311994  1
  Er  Er10  1  0.67164101  0.25000000  0.72689578  1
  Er  Er11  1  0.82835899  0.25000000  0.22689578  1
  Er  Er12  1  0.01987817  0.75000000  0.49460772  1
  Er  Er13  1  0.48012183  0.75000000  0.99460772  1
  Er  Er14  1  0.98013498  0.25000000  0.50539491  1
  Er  Er15  1  0.51986502  0.25000000  0.00539491  1
  Er  Er16  1  0.83971730  0.75000000  0.20899734  1
  Er  Er17  1  0.66028270  0.75000000  0.70899734  1
  Er  Er18  1  0.16029938  0.25000000  0.79099129  1
  Er  Er19  1  0.33970062  0.25000000  0.29099129  1
  Bi  Bi0  1  0.10149879  0.75000000  0.02789006  1
  Bi  Bi1  1  0.39850121  0.75000000  0.52789006  1
  Bi  Bi2  1  0.89849392  0.25000000  0.97212029  1
  Bi  Bi3  1  0.60150608  0.25000000  0.47212029  1
  Bi  Bi4  1  0.56194350  0.99200410  0.17530692  1
  Bi  Bi5  1  0.93805650  0.50799590  0.67530692  1
  Bi  Bi6  1  0.43804045  0.49201348  0.82468579  1
  Bi  Bi7  1  0.06195955  0.00798652  0.32468579  1
  Bi  Bi8  1  0.43804045  0.00798652  0.82468579  1
  Bi  Bi9  1  0.06195955  0.49201348  0.32468579  1
  Bi  Bi10  1  0.56194350  0.50799590  0.17530692  1
  Bi  Bi11  1  0.93805650  0.99200410  0.67530692  1
loop_
_geom_bond_atom_site_label_1
_geom_bond_atom_site_label_2
_geom_bond_distance
_geom_bond_site_symmetry_2
Bi0 Er16 3.041165 1_455
Bi0 Er5 3.052989 1_555
Bi0 Er3 3.052989 1_565
Bi0 Er9 3.084486 1_554
Bi0 Er13 3.129890 1_554
Bi0 Er7 3.150527 1_454
Bi0 Er1 3.150527 1_454
Bi0 Er8 3.459704 1_555
Bi1 Er17 3.041165 1_555
Bi1 Er2 3.052988 1_555
Bi1 Er4 3.052988 1_565
Bi1 Er8 3.084486 1_555
Bi1 Er12 3.129890 1_555
Bi1 Er6 3.150523 1_555
Bi1 Er0 3.150523 1_555
Bi1 Er9 3.459704 1_555
Bi2 Er18 3.041486 1_655
Bi2 Er1 3.052863 1_555
Bi2 Er7 3.052863 1_545
Bi2 Er11 3.084559 1_556
Bi2 Er15 3.129926 1_556
Bi2 Er3 3.150500 1_656
Bi2 Er5 3.150500 1_656
Bi2 Er10 3.459554 1_555
Bi3 Er19 3.041486 1_555
Bi3 Er6 3.052861 1_555
Bi3 Er0 3.052861 1_545
Bi3 Er10 3.084559 1_555
Bi3 Er14 3.129926 1_555
Bi3 Er4 3.150496 1_555
Bi3 Er2 3.150496 1_555
Bi3 Er11 3.459554 1_555
Bi4 Er15 3.166517 1_565
Bi4 Er8 3.185221 1_555
Bi4 Er13 3.192731 1_554
Bi4 Er16 3.236121 1_555
Bi4 Er0 3.304879 1_555
Bi4 Er11 3.312450 1_565
Bi4 Er19 3.322318 1_565
Bi4 Er3 3.395397 1_565
Bi4 Er7 3.548299 1_554
Bi5 Er14 3.166517 1_555
Bi5 Er9 3.185221 1_655
Bi5 Er12 3.192731 1_655
Bi5 Er17 3.236121 1_555
Bi5 Er1 3.304868 1_555
Bi5 Er10 3.312450 1_555
Bi5 Er18 3.322318 1_655
Bi5 Er2 3.395401 1_655
Bi5 Er6 3.548289 1_555
Bi6 Er13 3.166528 1_555
Bi6 Er10 3.185333 1_555
Bi6 Er15 3.192877 1_556
Bi6 Er18 3.236000 1_555
Bi6 Er2 3.304817 1_555
Bi6 Er9 3.312326 1_555
Bi6 Er17 3.322271 1_555
Bi6 Er1 3.395553 1_555
Bi6 Er5 3.548283 1_556
Bi7 Er12 3.166528 1_545
Bi7 Er11 3.185333 1_455
Bi7 Er14 3.192877 1_455
Bi7 Er19 3.236000 1_555
Bi7 Er3 3.304806 1_555
Bi7 Er8 3.312326 1_545
Bi7 Er16 3.322271 1_445
Bi7 Er0 3.395558 1_445
Bi7 Er4 3.548274 1_555
Bi8 Er13 3.166528 1_545
Bi8 Er10 3.185333 1_555
Bi8 Er15 3.192877 1_556
Bi8 Er18 3.236000 1_555
Bi8 Er4 3.304817 1_555
Bi8 Er9 3.312326 1_545
Bi8 Er17 3.322271 1_545
Bi8 Er7 3.395553 1_545
Bi8 Er3 3.548283 1_556
Bi9 Er12 3.166528 1_555
Bi9 Er11 3.185333 1_455
Bi9 Er14 3.192877 1_455
Bi9 Er19 3.236000 1_555
Bi9 Er5 3.304806 1_555
Bi9 Er8 3.312326 1_555
Bi9 Er16 3.322271 1_455
Bi9 Er6 3.395558 1_455
Bi9 Er2 3.548274 1_555
Bi10 Er15 3.166517 1_555
Bi10 Er8 3.185221 1_555
Bi10 Er13 3.192731 1_554
Bi10 Er16 3.236121 1_555
Bi10 Er6 3.304879 1_555
Bi10 Er11 3.312450 1_555
Bi10 Er19 3.322318 1_555
Bi10 Er5 3.395397 1_555
Bi10 Er1 3.548299 1_554
Bi11 Er14 3.166517 1_565
Bi11 Er9 3.185221 1_655
Bi11 Er12 3.192731 1_655
Bi11 Er17 3.236121 1_555
Bi11 Er7 3.304868 1_555
Bi11 Er10 3.312450 1_565
Bi11 Er18 3.322318 1_665
Bi11 Er4 3.395401 1_665
Bi11 Er0 3.548289 1_555
