# generated using pymatgen
data_FePH3CO7
_symmetry_space_group_name_H-M   'P 1'
_cell_length_a   5.11322000
_cell_length_b   7.71844592
_cell_length_c   7.78950753
_cell_angle_alpha   96.67254145
_cell_angle_beta   107.91738729
_cell_angle_gamma   102.36712210
_symmetry_Int_Tables_number   1
_chemical_formula_structural   FePH3CO7
_chemical_formula_sum   'Fe2 P2 H6 C2 O14'
_cell_volume   280.18742372
_cell_formula_units_Z   2
loop_
 _symmetry_equiv_pos_site_id
 _symmetry_equiv_pos_as_xyz
  1  'x, y, z'
loop_
 _atom_site_type_symbol
 _atom_site_label
 _atom_site_symmetry_multiplicity
 _atom_site_fract_x
 _atom_site_fract_y
 _atom_site_fract_z
 _atom_site_occupancy
  Fe  Fe0  1  0.45116600  0.70820900  0.74063800  1
  Fe  Fe1  1  0.54883400  0.29179100  0.25936200  1
  P  P0  1  0.85319800  0.70427600  0.45902200  1
  P  P1  1  0.14680200  0.29572400  0.54097800  1
  H  H0  1  0.74913400  0.96307200  0.39571200  1
  H  H1  1  0.25086600  0.03692800  0.60428800  1
  H  H2  1  0.27455400  0.36367000  0.93421000  1
  H  H3  1  0.72544600  0.63633000  0.06579000  1
  H  H4  1  0.93318100  0.67715600  0.94801700  1
  H  H5  1  0.06681900  0.32284400  0.05198300  1
  C  C0  1  0.62059200  0.05246700  0.97189200  1
  C  C1  1  0.37940800  0.94753300  0.02810800  1
  O  O0  1  0.70435400  0.67627600  0.59722800  1
  O  O1  1  0.29564600  0.32372400  0.40277200  1
  O  O2  1  0.73229900  0.62278900  0.94023400  1
  O  O3  1  0.26770100  0.37721100  0.05976600  1
  O  O4  1  0.26244400  0.78548200  0.94526400  1
  O  O5  1  0.73755600  0.21451800  0.05473600  1
  O  O6  1  0.74171500  0.84075900  0.33395400  1
  O  O7  1  0.25828500  0.15924100  0.66604600  1
  O  O8  1  0.80497900  0.53388100  0.31596700  1
  O  O9  1  0.19502100  0.46611900  0.68403300  1
  O  O10  1  0.68361500  0.96824800  0.84692300  1
  O  O11  1  0.31638500  0.03175200  0.15307700  1
  O  O12  1  0.18126200  0.79549400  0.55461700  1
  O  O13  1  0.81873800  0.20450600  0.44538300  1
loop_
_geom_bond_atom_site_label_1
_geom_bond_atom_site_label_2
_geom_bond_distance
_geom_bond_site_symmetry_2
Fe0 O9 1.950953 1_555
Fe0 O12 1.962862 1_555
Fe0 O0 1.986750 1_555
Fe0 O10 2.028073 1_555
Fe0 O2 2.046309 1_555
Fe0 O4 2.190783 1_555
Fe1 O8 1.950953 1_555
Fe1 O13 1.962862 1_555
Fe1 O1 1.986750 1_555
Fe1 O11 2.028073 1_555
Fe1 O3 2.046309 1_555
Fe1 O5 2.190783 1_555
H0 O6 0.995998 1_555
H1 O7 0.995998 1_555
H2 O3 0.983653 1_556
H3 O2 0.983653 1_554
H4 O2 1.002972 1_555
H4 O4 1.719719 1_655
H5 O3 1.002972 1_555
H5 O5 1.719719 1_455
C0 O5 1.262182 1_556
C0 O10 1.268734 1_545
C1 O4 1.262182 1_554
C1 O11 1.268734 1_565
O0 P0 1.507533 1_555
O1 P1 1.507533 1_555
O6 P0 1.593046 1_555
O7 P1 1.593046 1_555
O8 P0 1.543925 1_555
O9 P1 1.543925 1_555
O12 P0 1.570916 1_455
O13 P1 1.570916 1_655
