# generated using pymatgen
data_LaAlCu4
_symmetry_space_group_name_H-M   'P 1'
_cell_length_a   5.33373165
_cell_length_b   5.33373165
_cell_length_c   4.02130000
_cell_angle_alpha   90.00000000
_cell_angle_beta   90.00000000
_cell_angle_gamma   119.99999561
_symmetry_Int_Tables_number   1
_chemical_formula_structural   LaAlCu4
_chemical_formula_sum   'La1 Al1 Cu4'
_cell_volume   99.07394299
_cell_formula_units_Z   1
loop_
 _symmetry_equiv_pos_site_id
 _symmetry_equiv_pos_as_xyz
  1  'x, y, z'
loop_
 _atom_site_type_symbol
 _atom_site_label
 _atom_site_symmetry_multiplicity
 _atom_site_fract_x
 _atom_site_fract_y
 _atom_site_fract_z
 _atom_site_occupancy
  La  La0  1  0.33333300  0.66666700  0.00000000  1
  Al  Al0  1  0.00000000  0.00000000  0.00000000  1
  Cu  Cu0  1  0.66666700  0.33333300  0.00000000  1
  Cu  Cu1  1  0.83223700  0.16776300  0.50000000  1
  Cu  Cu2  1  0.83223700  0.66447500  0.50000000  1
  Cu  Cu3  1  0.33552500  0.16776300  0.50000000  1
loop_
_geom_bond_atom_site_label_1
_geom_bond_atom_site_label_2
_geom_bond_distance
_geom_bond_site_symmetry_2
Al0 Cu3 2.538644 1_554
Al0 Cu3 2.538644 1_555
Al0 Cu2 2.538644 1_444
Al0 Cu2 2.538644 1_445
Al0 Cu1 2.538647 1_455
Al0 Cu1 2.538647 1_454
Al0 Cu0 3.079428 1_455
Al0 La0 3.079428 1_545
Al0 La0 3.079433 1_555
Al0 La0 3.079433 1_445
Al0 Cu0 3.079433 1_445
Al0 Cu0 3.079433 1_555
Cu0 Cu1 2.526330 1_555
Cu0 Cu1 2.526330 1_554
Cu0 Cu2 2.526335 1_554
Cu0 Cu2 2.526335 1_555
Cu0 Cu3 2.526335 1_554
Cu0 Cu3 2.526335 1_555
Cu0 La0 3.079428 1_545
Cu0 La0 3.079428 1_655
Cu0 La0 3.079437 1_555
Cu1 Cu2 2.649329 1_555
Cu1 Cu3 2.649329 1_555
Cu1 Cu3 2.684403 1_655
Cu1 Cu2 2.684403 1_545
Cu1 La0 3.339909 1_545
Cu1 La0 3.339909 1_546
Cu1 La0 3.339909 1_655
Cu1 La0 3.339909 1_656
Cu2 Cu3 2.649329 1_555
Cu2 Cu3 2.684403 1_665
Cu2 La0 3.339909 1_556
Cu2 La0 3.339909 1_555
Cu2 La0 3.339909 1_655
Cu2 La0 3.339909 1_656
Cu3 La0 3.339909 1_555
Cu3 La0 3.339909 1_556
Cu3 La0 3.339909 1_545
Cu3 La0 3.339909 1_546
