# generated using pymatgen
data_AgSO4
_symmetry_space_group_name_H-M   'P 1'
_cell_length_a   7.95022600
_cell_length_b   10.68654511
_cell_length_c   14.96241835
_cell_angle_alpha   89.71389077
_cell_angle_beta   90.00000000
_cell_angle_gamma   90.00000000
_symmetry_Int_Tables_number   1
_chemical_formula_structural   AgSO4
_chemical_formula_sum   'Ag16 S16 O64'
_cell_volume   1271.19792850
_cell_formula_units_Z   16
loop_
 _symmetry_equiv_pos_site_id
 _symmetry_equiv_pos_as_xyz
  1  'x, y, z'
loop_
 _atom_site_type_symbol
 _atom_site_label
 _atom_site_symmetry_multiplicity
 _atom_site_fract_x
 _atom_site_fract_y
 _atom_site_fract_z
 _atom_site_occupancy
  Ag  Ag0  1  0.47762900  0.67154000  0.11137600  1
  Ag  Ag1  1  0.97762900  0.82846000  0.88862400  1
  Ag  Ag2  1  0.52237100  0.32846000  0.88862400  1
  Ag  Ag3  1  0.02237100  0.17154000  0.11137600  1
  Ag  Ag4  1  0.00665200  0.66101300  0.10768500  1
  Ag  Ag5  1  0.50665200  0.83898700  0.89231500  1
  Ag  Ag6  1  0.99334800  0.33898700  0.89231500  1
  Ag  Ag7  1  0.49334800  0.16101300  0.10768500  1
  Ag  Ag8  1  0.51430400  0.41478700  0.39243500  1
  Ag  Ag9  1  0.01430400  0.08521300  0.60756500  1
  Ag  Ag10  1  0.48569600  0.58521300  0.60756500  1
  Ag  Ag11  1  0.98569600  0.91478700  0.39243500  1
  Ag  Ag12  1  0.98966500  0.41401600  0.38942500  1
  Ag  Ag13  1  0.48966500  0.08598400  0.61057500  1
  Ag  Ag14  1  0.01033500  0.58598400  0.61057500  1
  Ag  Ag15  1  0.51033500  0.91401600  0.38942500  1
  S  S0  1  0.75335700  0.66278200  0.29949300  1
  S  S1  1  0.25335700  0.83721800  0.70050700  1
  S  S2  1  0.24664300  0.33721800  0.70050700  1
  S  S3  1  0.74664300  0.16278200  0.29949300  1
  S  S4  1  0.25727800  0.41701800  0.20123500  1
  S  S5  1  0.75727800  0.08298200  0.79876500  1
  S  S6  1  0.74272200  0.58298200  0.79876500  1
  S  S7  1  0.24272200  0.91701800  0.20123500  1
  S  S8  1  0.75434600  0.40912100  0.07576500  1
  S  S9  1  0.25434600  0.09087900  0.92423500  1
  S  S10  1  0.24565400  0.59087900  0.92423500  1
  S  S11  1  0.74565400  0.90912100  0.07576500  1
  S  S12  1  0.25038500  0.66292500  0.42446300  1
  S  S13  1  0.75038500  0.83707500  0.57553700  1
  S  S14  1  0.74961500  0.33707500  0.57553700  1
  S  S15  1  0.24961500  0.16292500  0.42446300  1
  O  O0  1  0.75588500  0.55511600  0.36435400  1
  O  O1  1  0.25588500  0.94488400  0.63564600  1
  O  O2  1  0.24411500  0.44488400  0.63564600  1
  O  O3  1  0.74411500  0.05511600  0.36435400  1
  O  O4  1  0.75414400  0.78416900  0.35050100  1
  O  O5  1  0.25414400  0.71583100  0.64949900  1
  O  O6  1  0.24585600  0.21583100  0.64949900  1
  O  O7  1  0.74585600  0.28416900  0.35050100  1
  O  O8  1  0.59513800  0.65392500  0.24804500  1
  O  O9  1  0.09513800  0.84607500  0.75195500  1
  O  O10  1  0.40486200  0.34607500  0.75195500  1
  O  O11  1  0.90486200  0.15392500  0.24804500  1
  O  O12  1  0.90972200  0.65412100  0.24582200  1
  O  O13  1  0.40972200  0.84587900  0.75417800  1
  O  O14  1  0.09027800  0.34587900  0.75417800  1
  O  O15  1  0.59027800  0.15412100  0.24582200  1
  O  O16  1  0.26382400  0.31293200  0.13503900  1
  O  O17  1  0.76382400  0.18706800  0.86496100  1
  O  O18  1  0.73617600  0.68706800  0.86496100  1
  O  O19  1  0.23617600  0.81293200  0.13503900  1
  O  O20  1  0.09847100  0.40356300  0.25198200  1
  O  O21  1  0.59847100  0.09643700  0.74801800  1
  O  O22  1  0.90152900  0.59643700  0.74801800  1
  O  O23  1  0.40152900  0.90356300  0.25198200  1
  O  O24  1  0.25303500  0.54136900  0.15196300  1
  O  O25  1  0.75303500  0.95863100  0.84803700  1
  O  O26  1  0.74696500  0.45863100  0.84803700  1
  O  O27  1  0.24696500  0.04136900  0.15196300  1
  O  O28  1  0.41317000  0.41040700  0.25510600  1
  O  O29  1  0.91316900  0.08959300  0.74489400  1
  O  O30  1  0.58683100  0.58959300  0.74489400  1
  O  O31  1  0.08683100  0.91040700  0.25510600  1
  O  O32  1  0.75550500  0.38118900  0.17053300  1
  O  O33  1  0.25550500  0.11881100  0.82946700  1
  O  O34  1  0.24449500  0.61881100  0.82946700  1
  O  O35  1  0.74449500  0.88118900  0.17053300  1
  O  O36  1  0.75115200  0.54458900  0.05462200  1
  O  O37  1  0.25115200  0.95541100  0.94537800  1
  O  O38  1  0.24884800  0.45541100  0.94537800  1
  O  O39  1  0.74884800  0.04458900  0.05462200  1
  O  O40  1  0.91337400  0.35019800  0.03541900  1
  O  O41  1  0.41337400  0.14980200  0.96458100  1
  O  O42  1  0.08662600  0.64980200  0.96458100  1
  O  O43  1  0.58662600  0.85019800  0.03541900  1
  O  O44  1  0.60324100  0.34554100  0.03341900  1
  O  O45  1  0.10324100  0.15445900  0.96658100  1
  O  O46  1  0.39675900  0.65445900  0.96658100  1
  O  O47  1  0.89675900  0.84554100  0.03341900  1
  O  O48  1  0.24995700  0.63366000  0.33018200  1
  O  O49  1  0.74995700  0.86634000  0.66981800  1
  O  O50  1  0.75004300  0.36634000  0.66981800  1
  O  O51  1  0.25004300  0.13366000  0.33018200  1
  O  O52  1  0.09607600  0.60465900  0.46716700  1
  O  O53  1  0.59607600  0.89534100  0.53283300  1
  O  O54  1  0.90392400  0.39534100  0.53283300  1
  O  O55  1  0.40392400  0.10465900  0.46716700  1
  O  O56  1  0.40701800  0.60257400  0.46558100  1
  O  O57  1  0.90701800  0.89742600  0.53441900  1
  O  O58  1  0.59298200  0.39742600  0.53441900  1
  O  O59  1  0.09298200  0.10257400  0.46558100  1
  O  O60  1  0.25290300  0.79998200  0.44278100  1
  O  O61  1  0.75290300  0.70001800  0.55721900  1
  O  O62  1  0.74709700  0.20001800  0.55721900  1
  O  O63  1  0.24709700  0.29998200  0.44278100  1
loop_
_geom_bond_atom_site_label_1
_geom_bond_atom_site_label_2
_geom_bond_distance
_geom_bond_site_symmetry_2
Ag0 O8 2.255211 1_555
Ag0 O46 2.268102 1_554
Ag0 O24 2.341735 1_555
Ag0 O43 2.380348 1_555
Ag0 O19 2.469551 1_555
Ag0 O36 2.702204 1_555
Ag1 O9 2.255211 1_655
Ag1 O47 2.268102 1_556
Ag1 O25 2.341735 1_555
Ag1 O42 2.380348 1_655
Ag1 O18 2.469551 1_555
Ag1 O37 2.702204 1_655
Ag2 O10 2.255211 1_555
Ag2 O44 2.268102 1_556
Ag2 O26 2.341735 1_555
Ag2 O41 2.380348 1_555
Ag2 O17 2.469551 1_555
Ag2 O38 2.702204 1_555
Ag3 O11 2.255211 1_455
Ag3 O45 2.268102 1_554
Ag3 O27 2.341735 1_555
Ag3 O40 2.380348 1_455
Ag3 O16 2.469551 1_555
Ag3 O39 2.702204 1_455
Ag4 O12 2.206735 1_455
Ag4 O42 2.237372 1_554
Ag4 O47 2.421743 1_455
Ag4 O24 2.429429 1_555
Ag4 O19 2.477830 1_555
Ag4 O36 2.512826 1_455
Ag5 O13 2.206735 1_555
Ag5 O43 2.237372 1_556
Ag5 O46 2.421743 1_555
Ag5 O25 2.429429 1_555
Ag5 O18 2.477830 1_555
Ag5 O37 2.512826 1_555
Ag6 O14 2.206735 1_655
Ag6 O40 2.237372 1_556
Ag6 O45 2.421743 1_655
Ag6 O26 2.429429 1_555
Ag6 O17 2.477830 1_555
Ag6 O38 2.512826 1_655
Ag7 O15 2.206735 1_555
Ag7 O41 2.237372 1_554
Ag7 O44 2.421743 1_555
Ag7 O27 2.429429 1_555
Ag7 O16 2.477830 1_555
Ag7 O39 2.512826 1_555
Ag8 O28 2.207198 1_555
Ag8 O58 2.221468 1_555
Ag8 O7 2.395769 1_555
Ag8 O56 2.444275 1_555
Ag8 O0 2.471423 1_555
Ag8 O63 2.564434 1_555
Ag9 O29 2.207201 1_455
Ag9 O59 2.221468 1_555
Ag9 O6 2.395769 1_555
Ag9 O57 2.444275 1_445
Ag9 O1 2.471423 1_545
Ag9 O62 2.564434 1_455
Ag10 O30 2.207201 1_555
Ag10 O56 2.221468 1_555
Ag10 O5 2.395769 1_555
Ag10 O58 2.444275 1_555
Ag10 O2 2.471423 1_555
Ag10 O61 2.564434 1_555
Ag11 O31 2.207201 1_655
Ag11 O57 2.221468 1_555
Ag11 O4 2.395769 1_555
Ag11 O59 2.444275 1_665
Ag11 O3 2.471423 1_565
Ag11 O60 2.564434 1_655
Ag12 O20 2.234315 1_655
Ag12 O54 2.259286 1_555
Ag12 O0 2.421395 1_555
Ag12 O7 2.455582 1_555
Ag12 O52 2.498615 1_655
Ag12 O63 2.510264 1_655
Ag13 O21 2.234315 1_555
Ag13 O55 2.259286 1_555
Ag13 O1 2.421395 1_545
Ag13 O6 2.455582 1_555
Ag13 O53 2.498615 1_545
Ag13 O62 2.510264 1_555
Ag14 O22 2.234315 1_455
Ag14 O52 2.259286 1_555
Ag14 O2 2.421395 1_555
Ag14 O5 2.455582 1_555
Ag14 O54 2.498615 1_455
Ag14 O61 2.510264 1_455
Ag15 O23 2.234315 1_555
Ag15 O53 2.259286 1_555
Ag15 O3 2.421395 1_565
Ag15 O4 2.455582 1_555
Ag15 O55 2.498615 1_565
Ag15 O60 2.510264 1_555
O0 S0 1.501635 1_555
O1 S1 1.501635 1_555
O2 S2 1.501635 1_555
O3 S3 1.501635 1_555
O4 S0 1.508361 1_555
O5 S1 1.508361 1_555
O6 S2 1.508361 1_555
O7 S3 1.508361 1_555
O8 S0 1.478009 1_555
O9 S1 1.478009 1_555
O10 S2 1.478009 1_555
O11 S3 1.478009 1_555
O12 S0 1.483100 1_555
O13 S1 1.483100 1_555
O14 S2 1.483100 1_555
O15 S3 1.483100 1_555
O16 S4 1.493975 1_555
O17 S5 1.493975 1_555
O18 S6 1.493975 1_555
O19 S7 1.493975 1_555
O20 S4 1.479917 1_555
O21 S5 1.479917 1_555
O22 S6 1.479917 1_555
O23 S7 1.479917 1_555
O24 S4 1.516835 1_555
O25 S5 1.516835 1_565
O26 S6 1.516835 1_555
O27 S7 1.516835 1_545
O28 S4 1.479925 1_555
O29 S5 1.479918 1_555
O30 S6 1.479918 1_555
O31 S7 1.479918 1_555
O32 S8 1.447606 1_555
O33 S9 1.447606 1_555
O34 S10 1.447606 1_555
O35 S11 1.447606 1_555
O36 S8 1.480520 1_555
O37 S9 1.480520 1_565
O38 S10 1.480520 1_555
O39 S11 1.480520 1_545
O40 S8 1.537269 1_555
O41 S9 1.537269 1_555
O42 S10 1.537269 1_555
O43 S11 1.537269 1_555
O44 S8 1.520055 1_555
O45 S9 1.520055 1_555
O46 S10 1.520055 1_555
O47 S11 1.520055 1_555
O48 S12 1.446451 1_555
O49 S13 1.446451 1_555
O50 S14 1.446451 1_555
O51 S15 1.446451 1_555
O52 S12 1.515591 1_555
O53 S13 1.515591 1_555
O54 S14 1.515591 1_555
O55 S15 1.515591 1_555
O56 S12 1.530092 1_555
O57 S13 1.530092 1_555
O58 S14 1.530092 1_555
O59 S15 1.530092 1_555
O60 S12 1.491568 1_555
O61 S13 1.491568 1_555
O62 S14 1.491568 1_555
O63 S15 1.491568 1_555
