# generated using pymatgen
data_Sm(NiGe)3
_symmetry_space_group_name_H-M   'P 1'
_cell_length_a   12.91701964
_cell_length_b   12.91701964
_cell_length_c   12.91701964
_cell_angle_alpha   161.49767094
_cell_angle_beta   161.49767094
_cell_angle_gamma   26.28252650
_symmetry_Int_Tables_number   1
_chemical_formula_structural   Sm(NiGe)3
_chemical_formula_sum   'Sm2 Ni6 Ge6'
_cell_volume   216.96639538
_cell_formula_units_Z   2
loop_
 _symmetry_equiv_pos_site_id
 _symmetry_equiv_pos_as_xyz
  1  'x, y, z'
loop_
 _atom_site_type_symbol
 _atom_site_label
 _atom_site_symmetry_multiplicity
 _atom_site_fract_x
 _atom_site_fract_y
 _atom_site_fract_z
 _atom_site_occupancy
  Sm  Sm0  1  0.65303500  0.65303500  0.00000000  1
  Sm  Sm1  1  0.34696500  0.34696500  0.00000000  1
  Ni  Ni0  1  0.79684500  0.79684500  0.00000000  1
  Ni  Ni1  1  0.20315500  0.20315500  0.00000000  1
  Ni  Ni2  1  0.05440200  0.55440200  0.50000000  1
  Ni  Ni3  1  0.55440200  0.05440200  0.50000000  1
  Ni  Ni4  1  0.94559800  0.44559800  0.50000000  1
  Ni  Ni5  1  0.44559800  0.94559800  0.50000000  1
  Ge  Ge0  1  0.00000000  0.00000000  0.00000000  1
  Ge  Ge1  1  0.50000000  0.50000000  0.00000000  1
  Ge  Ge2  1  0.11057200  0.11057200  0.00000000  1
  Ge  Ge3  1  0.88942800  0.88942800  0.00000000  1
  Ge  Ge4  1  0.25000000  0.75000000  0.50000000  1
  Ge  Ge5  1  0.75000000  0.25000000  0.50000000  1
loop_
_geom_bond_atom_site_label_1
_geom_bond_atom_site_label_2
_geom_bond_distance
_geom_bond_site_symmetry_2
Ni0 Sm1 3.195962 1_554
Ni0 Sm1 3.195962 1_565
Ni0 Sm1 3.195962 1_655
Ni0 Sm1 3.195962 1_666
Ni1 Sm0 3.195962 1_556
Ni1 Sm0 3.195962 1_444
Ni1 Sm0 3.195962 1_455
Ni1 Sm0 3.195962 1_545
Ni2 Sm0 3.235631 1_455
Ni2 Sm0 3.235631 1_556
Ni3 Sm0 3.235631 1_545
Ni3 Sm0 3.235631 1_556
Ni4 Sm1 3.235631 1_555
Ni4 Sm1 3.235631 1_656
Ni5 Sm1 3.235631 1_555
Ni5 Sm1 3.235631 1_566
Ge0 Ni3 2.487022 1_555
Ge0 Ni3 2.487022 1_454
Ge0 Ni2 2.487022 1_544
Ge0 Ni2 2.487022 1_555
Ge0 Ni5 2.487022 1_444
Ge0 Ni4 2.487022 1_444
Ge0 Ni5 2.487022 1_545
Ge0 Ni4 2.487022 1_455
Ge1 Ni2 2.487022 1_554
Ge1 Ni3 2.487022 1_554
Ge1 Ni2 2.487022 1_655
Ge1 Ni3 2.487022 1_565
Ge1 Ni4 2.487022 1_555
Ge1 Ni5 2.487022 1_555
Ge1 Ni5 2.487022 1_544
Ge1 Ni4 2.487022 1_454
Ge2 Ni1 2.329158 1_555
Ge2 Ni2 2.511773 1_555
Ge2 Ni2 2.511773 1_544
Ge2 Ni3 2.511773 1_555
Ge2 Ni3 2.511773 1_454
Ge2 Sm0 3.124981 1_545
Ge2 Sm0 3.124981 1_444
Ge2 Sm0 3.124981 1_455
Ge2 Sm0 3.124981 1_556
Ge3 Ni0 2.329158 1_555
Ge3 Ni4 2.511773 1_554
Ge3 Ni5 2.511773 1_554
Ge3 Ni5 2.511773 1_655
Ge3 Ni4 2.511773 1_565
Ge3 Sm1 3.124981 1_666
Ge3 Sm1 3.124981 1_655
Ge3 Sm1 3.124981 1_554
Ge3 Sm1 3.124981 1_565
Ge4 Ni0 2.387683 1_455
Ge4 Ni0 2.387683 1_556
Ge4 Ni1 2.387683 1_555
Ge4 Ni1 2.387683 1_566
Ge4 Sm1 3.203564 1_555
Ge4 Sm1 3.203564 1_566
Ge4 Sm0 3.203564 1_455
Ge4 Sm0 3.203564 1_556
Ge5 Ni0 2.387683 1_545
Ge5 Ni0 2.387683 1_556
Ge5 Ni1 2.387683 1_656
Ge5 Ni1 2.387683 1_555
Ge5 Sm1 3.203564 1_555
Ge5 Sm1 3.203564 1_656
Ge5 Sm0 3.203564 1_545
Ge5 Sm0 3.203564 1_556
