# generated using pymatgen
data_NaNbO3
_symmetry_space_group_name_H-M   'P 1'
_cell_length_a   7.94730459
_cell_length_b   7.93582613
_cell_length_c   23.77232728
_cell_angle_alpha   90.00000000
_cell_angle_beta   90.00000000
_cell_angle_gamma   90.00000000
_symmetry_Int_Tables_number   1
_chemical_formula_structural   NaNbO3
_chemical_formula_sum   'Na24 Nb24 O72'
_cell_volume   1499.28329786
_cell_formula_units_Z   24
loop_
 _symmetry_equiv_pos_site_id
 _symmetry_equiv_pos_as_xyz
  1  'x, y, z'
loop_
 _atom_site_type_symbol
 _atom_site_label
 _atom_site_symmetry_multiplicity
 _atom_site_fract_x
 _atom_site_fract_y
 _atom_site_fract_z
 _atom_site_occupancy
  Na  Na0  1  0.25000000  0.25127603  0.41936189  1
  Na  Na1  1  0.25000000  0.25127603  0.08063811  1
  Na  Na2  1  0.75000000  0.74872397  0.58063811  1
  Na  Na3  1  0.75000000  0.74872397  0.91936189  1
  Na  Na4  1  0.25000000  0.75103289  0.41694173  1
  Na  Na5  1  0.25000000  0.75103289  0.08305827  1
  Na  Na6  1  0.75000000  0.24896711  0.58305827  1
  Na  Na7  1  0.75000000  0.24896711  0.91694173  1
  Na  Na8  1  0.25000000  0.23134363  0.25000000  1
  Na  Na9  1  0.75000000  0.76865637  0.75000000  1
  Na  Na10  1  0.25000000  0.74956170  0.25000000  1
  Na  Na11  1  0.75000000  0.25043830  0.75000000  1
  Na  Na12  1  0.25000000  0.25345662  0.91542967  1
  Na  Na13  1  0.25000000  0.25345662  0.58457033  1
  Na  Na14  1  0.75000000  0.74654338  0.08457033  1
  Na  Na15  1  0.75000000  0.74654338  0.41542967  1
  Na  Na16  1  0.25000000  0.74648070  0.91765292  1
  Na  Na17  1  0.25000000  0.74648070  0.58234708  1
  Na  Na18  1  0.75000000  0.25351930  0.08234708  1
  Na  Na19  1  0.75000000  0.25351930  0.41765292  1
  Na  Na20  1  0.25000000  0.24070447  0.75000000  1
  Na  Na21  1  0.75000000  0.75929553  0.25000000  1
  Na  Na22  1  0.25000000  0.73006159  0.75000000  1
  Na  Na23  1  0.75000000  0.26993841  0.25000000  1
  Nb  Nb0  1  0.50000000  0.00000000  0.50000000  1
  Nb  Nb1  1  0.00000000  0.00000000  0.50000000  1
  Nb  Nb2  1  0.50000000  0.00000000  0.00000000  1
  Nb  Nb3  1  0.00000000  0.00000000  -0.00000000  1
  Nb  Nb4  1  0.50000000  0.50000000  0.50000000  1
  Nb  Nb5  1  0.00000000  0.50000000  0.50000000  1
  Nb  Nb6  1  0.50000000  0.50000000  -0.00000000  1
  Nb  Nb7  1  0.00000000  0.50000000  0.00000000  1
  Nb  Nb8  1  0.50024499  0.00115653  0.33342102  1
  Nb  Nb9  1  0.99975501  0.00115653  0.33342102  1
  Nb  Nb10  1  0.50024499  0.00115653  0.16657898  1
  Nb  Nb11  1  0.99975501  0.00115653  0.16657898  1
  Nb  Nb12  1  0.49975501  0.99884347  0.66657898  1
  Nb  Nb13  1  0.00024499  0.99884347  0.66657898  1
  Nb  Nb14  1  0.49975501  0.99884347  0.83342102  1
  Nb  Nb15  1  0.00024499  0.99884347  0.83342102  1
  Nb  Nb16  1  0.49957167  0.50083469  0.33299699  1
  Nb  Nb17  1  0.00042833  0.50083469  0.33299699  1
  Nb  Nb18  1  0.49957167  0.50083469  0.16700301  1
  Nb  Nb19  1  0.00042833  0.50083469  0.16700301  1
  Nb  Nb20  1  0.50042833  0.49916531  0.66700301  1
  Nb  Nb21  1  0.99957167  0.49916531  0.66700301  1
  Nb  Nb22  1  0.50042833  0.49916531  0.83299699  1
  Nb  Nb23  1  0.99957167  0.49916531  0.83299699  1
  O  O0  1  0.46623164  0.25031884  0.51013054  1
  O  O1  1  0.03376836  0.25031884  0.51013054  1
  O  O2  1  0.46623164  0.25031884  0.98986946  1
  O  O3  1  0.03376836  0.25031884  0.98986946  1
  O  O4  1  0.53376836  0.74968116  0.48986946  1
  O  O5  1  0.96623164  0.74968116  0.48986946  1
  O  O6  1  0.53376836  0.74968116  0.01013054  1
  O  O7  1  0.96623164  0.74968116  0.01013054  1
  O  O8  1  0.51967729  0.25068025  0.32208102  1
  O  O9  1  0.98032271  0.25068025  0.32208102  1
  O  O10  1  0.51967729  0.25068025  0.17791898  1
  O  O11  1  0.98032271  0.25068025  0.17791898  1
  O  O12  1  0.48032271  0.74931975  0.67791898  1
  O  O13  1  0.01967729  0.74931975  0.67791898  1
  O  O14  1  0.48032271  0.74931975  0.82208102  1
  O  O15  1  0.01967729  0.74931975  0.82208102  1
  O  O16  1  0.48031856  0.75100259  0.34456921  1
  O  O17  1  0.01968144  0.75100259  0.34456921  1
  O  O18  1  0.48031856  0.75100259  0.15543079  1
  O  O19  1  0.01968144  0.75100259  0.15543079  1
  O  O20  1  0.51968144  0.24899741  0.65543079  1
  O  O21  1  0.98031856  0.24899741  0.65543079  1
  O  O22  1  0.51968144  0.24899741  0.84456921  1
  O  O23  1  0.98031856  0.24899741  0.84456921  1
  O  O24  1  0.52865413  0.03349903  0.41685389  1
  O  O25  1  0.97134587  0.03349903  0.41685389  1
  O  O26  1  0.52865413  0.03349903  0.08314611  1
  O  O27  1  0.97134587  0.03349903  0.08314611  1
  O  O28  1  0.47134587  0.96650097  0.58314611  1
  O  O29  1  0.02865413  0.96650097  0.58314611  1
  O  O30  1  0.47134587  0.96650097  0.91685389  1
  O  O31  1  0.02865413  0.96650097  0.91685389  1
  O  O32  1  0.47127404  0.46964410  0.41680736  1
  O  O33  1  0.02872596  0.46964410  0.41680736  1
  O  O34  1  0.47127404  0.46964410  0.08319264  1
  O  O35  1  0.02872596  0.46964410  0.08319264  1
  O  O36  1  0.52872596  0.53035590  0.58319264  1
  O  O37  1  0.97127404  0.53035590  0.58319264  1
  O  O38  1  0.52872596  0.53035590  0.91680736  1
  O  O39  1  0.97127404  0.53035590  0.91680736  1
  O  O40  1  0.46794097  0.97051707  0.25000000  1
  O  O41  1  0.03205903  0.97051707  0.25000000  1
  O  O42  1  0.53205903  0.02948293  0.75000000  1
  O  O43  1  0.96794097  0.02948293  0.75000000  1
  O  O44  1  0.53087581  0.53660802  0.25000000  1
  O  O45  1  0.96912419  0.53660802  0.25000000  1
  O  O46  1  0.46912419  0.46339198  0.75000000  1
  O  O47  1  0.03087581  0.46339198  0.75000000  1
  O  O48  1  0.25000000  0.96990575  0.48926750  1
  O  O49  1  0.25000000  0.96990575  0.01073250  1
  O  O50  1  0.75000000  0.03009425  0.51073250  1
  O  O51  1  0.75000000  0.03009425  0.98926750  1
  O  O52  1  0.25000000  0.53631393  0.50767925  1
  O  O53  1  0.25000000  0.53631393  0.99232075  1
  O  O54  1  0.75000000  0.46368607  0.49232075  1
  O  O55  1  0.75000000  0.46368607  0.00767925  1
  O  O56  1  0.25000000  0.02410979  0.34248963  1
  O  O57  1  0.25000000  0.02410979  0.15751037  1
  O  O58  1  0.75000000  0.97589021  0.65751037  1
  O  O59  1  0.75000000  0.97589021  0.84248963  1
  O  O60  1  0.25000000  0.48431093  0.32250446  1
  O  O61  1  0.25000000  0.48431093  0.17749554  1
  O  O62  1  0.75000000  0.51568907  0.67749554  1
  O  O63  1  0.75000000  0.51568907  0.82250446  1
  O  O64  1  0.25000000  0.02464698  0.82425645  1
  O  O65  1  0.25000000  0.02464698  0.67574355  1
  O  O66  1  0.75000000  0.97535302  0.17574355  1
  O  O67  1  0.75000000  0.97535302  0.32425645  1
  O  O68  1  0.25000000  0.48614976  0.84424957  1
  O  O69  1  0.25000000  0.48614976  0.65575043  1
  O  O70  1  0.75000000  0.51385024  0.15575043  1
  O  O71  1  0.75000000  0.51385024  0.34424957  1
loop_
_geom_bond_atom_site_label_1
_geom_bond_atom_site_label_2
_geom_bond_distance
_geom_bond_site_symmetry_2
Na0 O32 2.469650 1_555
Na0 O33 2.469650 1_555
Na0 O56 2.566987 1_555
Na0 O0 2.758474 1_555
Na0 O1 2.758474 1_555
Na0 O48 2.783435 1_545
Na0 O25 2.809733 1_455
Na0 O24 2.809733 1_555
Na0 O60 2.953240 1_555
Na1 O34 2.469650 1_555
Na1 O35 2.469650 1_555
Na1 O57 2.566987 1_555
Na1 O3 2.758474 1_554
Na1 O2 2.758474 1_554
Na1 O49 2.783435 1_545
Na1 O27 2.809733 1_455
Na1 O26 2.809733 1_555
Na1 O61 2.953240 1_555
Na2 O36 2.469650 1_555
Na2 O37 2.469650 1_555
Na2 O58 2.566987 1_555
Na2 O4 2.758474 1_555
Na2 O5 2.758474 1_555
Na2 O50 2.783435 1_565
Na2 O28 2.809733 1_555
Na2 O29 2.809733 1_655
Na2 O62 2.953240 1_555
Na3 O38 2.469650 1_555
Na3 O39 2.469650 1_555
Na3 O59 2.566987 1_555
Na3 O6 2.758474 1_556
Na3 O7 2.758474 1_556
Na3 O51 2.783435 1_565
Na3 O30 2.809733 1_555
Na3 O31 2.809733 1_655
Na3 O63 2.953240 1_555
Na4 O48 2.443997 1_555
Na4 O17 2.512051 1_555
Na4 O16 2.512051 1_555
Na4 O52 2.748882 1_555
Na4 O56 2.798004 1_565
Na4 O33 2.842353 1_555
Na4 O32 2.842353 1_555
Na4 O5 2.844573 1_455
Na4 O4 2.844573 1_555
Na5 O49 2.443997 1_555
Na5 O18 2.512051 1_555
Na5 O19 2.512051 1_555
Na5 O53 2.748882 1_554
Na5 O57 2.798004 1_565
Na5 O35 2.842353 1_555
Na5 O34 2.842353 1_555
Na5 O7 2.844573 1_455
Na5 O6 2.844573 1_555
Na6 O50 2.443997 1_555
Na6 O20 2.512051 1_555
Na6 O21 2.512051 1_555
Na6 O54 2.748882 1_555
Na6 O58 2.798004 1_545
Na6 O36 2.842353 1_555
Na6 O37 2.842353 1_555
Na6 O0 2.844573 1_555
Na6 O1 2.844573 1_655
Na7 O51 2.443997 1_555
Na7 O22 2.512051 1_555
Na7 O23 2.512051 1_555
Na7 O55 2.748882 1_556
Na7 O59 2.798004 1_545
Na7 O38 2.842353 1_555
Na7 O39 2.842353 1_555
Na7 O2 2.844573 1_555
Na7 O3 2.844573 1_655
Na8 O60 2.645916 1_555
Na8 O61 2.645916 1_555
Na8 O40 2.698954 1_545
Na8 O41 2.698954 1_545
Na8 O56 2.745700 1_555
Na8 O57 2.745700 1_555
Na8 O11 2.748287 1_455
Na8 O9 2.748287 1_455
Na8 O8 2.748287 1_555
Na8 O10 2.748287 1_555
Na9 O62 2.645916 1_555
Na9 O63 2.645916 1_555
Na9 O43 2.698954 1_565
Na9 O42 2.698954 1_565
Na9 O59 2.745700 1_555
Na9 O58 2.745700 1_555
Na9 O13 2.748287 1_655
Na9 O12 2.748287 1_555
Na9 O15 2.748287 1_655
Na9 O14 2.748287 1_555
Na10 O41 2.464672 1_555
Na10 O40 2.464672 1_555
Na10 O60 2.720616 1_555
Na10 O61 2.720616 1_555
Na10 O45 2.799771 1_455
Na10 O44 2.799771 1_555
Na10 O18 2.899074 1_555
Na10 O19 2.899074 1_555
Na10 O17 2.899074 1_555
Na10 O16 2.899074 1_555
Na11 O43 2.464672 1_555
Na11 O42 2.464672 1_555
Na11 O62 2.720616 1_555
Na11 O63 2.720616 1_555
Na11 O47 2.799771 1_655
Na11 O46 2.799771 1_555
Na11 O20 2.899074 1_555
Na11 O21 2.899074 1_555
Na11 O22 2.899074 1_555
Na11 O23 2.899074 1_555
Na12 O2 2.466826 1_555
Na12 O3 2.466826 1_555
Na12 O68 2.504643 1_555
Na12 O23 2.726231 1_455
Na12 O22 2.726231 1_555
Na12 O64 2.827495 1_555
Na12 O30 2.877736 1_545
Na12 O31 2.877736 1_545
Na12 O53 2.894797 1_555
Na13 O0 2.466826 1_555
Na13 O1 2.466826 1_555
Na13 O69 2.504643 1_555
Na13 O21 2.726231 1_455
Na13 O20 2.726231 1_555
Na13 O65 2.827495 1_555
Na13 O29 2.877736 1_545
Na13 O28 2.877736 1_545
Na13 O52 2.894797 1_555
Na14 O6 2.466826 1_555
Na14 O7 2.466826 1_555
Na14 O70 2.504643 1_555
Na14 O18 2.726231 1_555
Na14 O19 2.726231 1_655
Na14 O66 2.827495 1_555
Na14 O26 2.877736 1_565
Na14 O27 2.877736 1_565
Na14 O55 2.894797 1_555
Na15 O4 2.466826 1_555
Na15 O5 2.466826 1_555
Na15 O71 2.504643 1_555
Na15 O16 2.726231 1_555
Na15 O17 2.726231 1_655
Na15 O67 2.827495 1_555
Na15 O24 2.877736 1_565
Na15 O25 2.877736 1_565
Na15 O54 2.894797 1_555
Na16 O53 2.435660 1_555
Na16 O30 2.478602 1_555
Na16 O31 2.478602 1_555
Na16 O68 2.704261 1_555
Na16 O39 2.801576 1_455
Na16 O38 2.801576 1_555
Na16 O49 2.835467 1_556
Na16 O15 2.917682 1_555
Na16 O14 2.917682 1_555
Na17 O52 2.435660 1_555
Na17 O28 2.478602 1_555
Na17 O29 2.478602 1_555
Na17 O69 2.704261 1_555
Na17 O37 2.801576 1_455
Na17 O36 2.801576 1_555
Na17 O48 2.835467 1_555
Na17 O12 2.917682 1_555
Na17 O13 2.917682 1_555
Na18 O55 2.435660 1_555
Na18 O26 2.478602 1_555
Na18 O27 2.478602 1_555
Na18 O70 2.704261 1_555
Na18 O34 2.801576 1_555
Na18 O35 2.801576 1_655
Na18 O51 2.835467 1_554
Na18 O10 2.917682 1_555
Na18 O11 2.917682 1_555
Na19 O54 2.435660 1_555
Na19 O24 2.478602 1_555
Na19 O25 2.478602 1_555
Na19 O71 2.704261 1_555
Na19 O32 2.801576 1_555
Na19 O33 2.801576 1_655
Na19 O50 2.835467 1_555
Na19 O9 2.917682 1_555
Na19 O8 2.917682 1_555
Na20 O65 2.460881 1_555
Na20 O64 2.460881 1_555
Na20 O47 2.481061 1_555
Na20 O46 2.481061 1_555
Na20 O43 2.799021 1_455
Na20 O42 2.799021 1_555
Na21 O66 2.460881 1_555
Na21 O67 2.460881 1_555
Na21 O44 2.481061 1_555
Na21 O45 2.481061 1_555
Na21 O40 2.799021 1_555
Na21 O41 2.799021 1_655
Na22 O12 2.511988 1_555
Na22 O13 2.511988 1_555
Na22 O14 2.511988 1_555
Na22 O15 2.511988 1_555
Na22 O46 2.740643 1_555
Na22 O47 2.740643 1_555
Na22 O65 2.929387 1_565
Na22 O64 2.929387 1_565
Na22 O68 2.960860 1_555
Na22 O69 2.960860 1_555
Na23 O11 2.511988 1_555
Na23 O9 2.511988 1_555
Na23 O8 2.511988 1_555
Na23 O10 2.511988 1_555
Na23 O44 2.740643 1_555
Na23 O45 2.740643 1_555
Na23 O66 2.929387 1_545
Na23 O67 2.929387 1_545
Na23 O71 2.960860 1_555
Na23 O70 2.960860 1_555
Nb0 O24 2.007333 1_555
Nb0 O28 2.007333 1_545
Nb0 O50 2.017327 1_555
Nb0 O48 2.017327 1_545
Nb0 O4 2.018947 1_545
Nb0 O0 2.018947 1_555
Nb1 O25 2.007333 1_455
Nb1 O29 2.007333 1_545
Nb1 O50 2.017327 1_455
Nb1 O48 2.017327 1_545
Nb1 O5 2.018947 1_445
Nb1 O1 2.018947 1_555
Nb2 O30 2.007333 1_544
Nb2 O26 2.007333 1_555
Nb2 O49 2.017327 1_545
Nb2 O51 2.017327 1_554
Nb2 O6 2.018947 1_545
Nb2 O2 2.018947 1_554
Nb3 O31 2.007333 1_544
Nb3 O27 2.007333 1_455
Nb3 O49 2.017327 1_545
Nb3 O51 2.017327 1_454
Nb3 O7 2.018947 1_445
Nb3 O3 2.018947 1_554
Nb4 O32 2.005338 1_555
Nb4 O36 2.005338 1_555
Nb4 O4 2.013968 1_555
Nb4 O0 2.013968 1_555
Nb4 O54 2.015900 1_555
Nb4 O52 2.015900 1_555
Nb5 O33 2.005338 1_555
Nb5 O37 2.005338 1_455
Nb5 O1 2.013968 1_555
Nb5 O5 2.013968 1_455
Nb5 O54 2.015900 1_455
Nb5 O52 2.015900 1_555
Nb6 O38 2.005338 1_554
Nb6 O34 2.005338 1_555
Nb6 O6 2.013968 1_555
Nb6 O2 2.013968 1_554
Nb6 O53 2.015900 1_554
Nb6 O55 2.015900 1_555
Nb7 O39 2.005338 1_454
Nb7 O35 2.005338 1_555
Nb7 O7 2.013968 1_455
Nb7 O3 2.013968 1_554
Nb7 O53 2.015900 1_554
Nb7 O55 2.015900 1_455
Nb8 O8 2.004401 1_555
Nb8 O67 2.007272 1_545
Nb8 O56 2.008700 1_555
Nb8 O16 2.009041 1_545
Nb8 O24 2.012635 1_555
Nb8 O40 2.014389 1_545
Nb9 O9 2.004401 1_555
Nb9 O67 2.007272 1_545
Nb9 O56 2.008700 1_655
Nb9 O17 2.009041 1_645
Nb9 O25 2.012635 1_555
Nb9 O41 2.014389 1_645
Nb10 O10 2.004401 1_555
Nb10 O66 2.007272 1_545
Nb10 O57 2.008700 1_555
Nb10 O18 2.009041 1_545
Nb10 O26 2.012635 1_555
Nb10 O40 2.014389 1_545
Nb11 O11 2.004401 1_555
Nb11 O66 2.007272 1_545
Nb11 O57 2.008700 1_655
Nb11 O19 2.009041 1_645
Nb11 O27 2.012635 1_555
Nb11 O41 2.014389 1_645
Nb12 O12 2.004401 1_555
Nb12 O65 2.007272 1_565
Nb12 O58 2.008700 1_555
Nb12 O20 2.009041 1_565
Nb12 O28 2.012635 1_555
Nb12 O42 2.014389 1_565
Nb13 O13 2.004401 1_555
Nb13 O65 2.007272 1_565
Nb13 O58 2.008700 1_455
Nb13 O21 2.009041 1_465
Nb13 O29 2.012635 1_555
Nb13 O43 2.014389 1_465
Nb14 O14 2.004401 1_555
Nb14 O64 2.007272 1_565
Nb14 O59 2.008700 1_555
Nb14 O22 2.009041 1_565
Nb14 O30 2.012635 1_555
Nb14 O42 2.014389 1_565
Nb15 O15 2.004401 1_555
Nb15 O64 2.007272 1_565
Nb15 O59 2.008700 1_455
Nb15 O23 2.009041 1_465
Nb15 O31 2.012635 1_555
Nb15 O43 2.014389 1_465
Nb16 O60 2.003341 1_555
Nb16 O8 2.008437 1_555
Nb16 O44 2.008816 1_555
Nb16 O16 2.010090 1_555
Nb16 O71 2.010781 1_555
Nb16 O32 2.020240 1_555
Nb17 O60 2.003341 1_555
Nb17 O9 2.008437 1_455
Nb17 O45 2.008816 1_455
Nb17 O17 2.010090 1_555
Nb17 O71 2.010781 1_455
Nb17 O33 2.020240 1_555
Nb18 O61 2.003341 1_555
Nb18 O10 2.008437 1_555
Nb18 O44 2.008816 1_555
Nb18 O18 2.010090 1_555
Nb18 O70 2.010781 1_555
Nb18 O34 2.020240 1_555
Nb19 O61 2.003341 1_555
Nb19 O11 2.008437 1_455
Nb19 O45 2.008816 1_455
Nb19 O19 2.010090 1_555
Nb19 O70 2.010781 1_455
Nb19 O35 2.020240 1_555
Nb20 O62 2.003341 1_555
Nb20 O12 2.008437 1_555
Nb20 O46 2.008816 1_555
Nb20 O20 2.010090 1_555
Nb20 O69 2.010781 1_555
Nb20 O36 2.020240 1_555
Nb21 O62 2.003341 1_555
Nb21 O13 2.008437 1_655
Nb21 O47 2.008816 1_655
Nb21 O21 2.010090 1_555
Nb21 O69 2.010781 1_655
Nb21 O37 2.020240 1_555
Nb22 O63 2.003341 1_555
Nb22 O14 2.008437 1_555
Nb22 O46 2.008816 1_555
Nb22 O22 2.010090 1_555
Nb22 O68 2.010781 1_555
Nb22 O38 2.020240 1_555
Nb23 O63 2.003341 1_555
Nb23 O15 2.008437 1_655
Nb23 O47 2.008816 1_655
Nb23 O23 2.010090 1_555
Nb23 O68 2.010781 1_655
Nb23 O39 2.020240 1_555
