# generated using pymatgen
data_Li2TiVO4
_symmetry_space_group_name_H-M   'P 1'
_cell_length_a   6.02851541
_cell_length_b   7.86681932
_cell_length_c   7.86689162
_cell_angle_alpha   97.88026209
_cell_angle_beta   112.11101613
_cell_angle_gamma   112.11063724
_symmetry_Int_Tables_number   1
_chemical_formula_structural   Li2TiVO4
_chemical_formula_sum   'Li8 Ti4 V4 O16'
_cell_volume   302.86968130
_cell_formula_units_Z   4
loop_
 _symmetry_equiv_pos_site_id
 _symmetry_equiv_pos_as_xyz
  1  'x, y, z'
loop_
 _atom_site_type_symbol
 _atom_site_label
 _atom_site_symmetry_multiplicity
 _atom_site_fract_x
 _atom_site_fract_y
 _atom_site_fract_z
 _atom_site_occupancy
  Li  Li0  1  0.99998500  0.87582600  0.62411800  1
  Li  Li1  1  0.99999200  0.62416400  0.87586800  1
  Li  Li2  1  0.99999800  0.12577800  0.37415800  1
  Li  Li3  1  0.00001000  0.37422000  0.12583800  1
  Li  Li4  1  0.00155000  0.50200000  0.50203100  1
  Li  Li5  1  0.00000000  0.25000400  0.74998800  1
  Li  Li6  1  0.00000300  0.75000500  0.25000200  1
  Li  Li7  1  0.99844500  0.99800200  0.99796000  1
  Ti  Ti0  1  0.50001300  0.75007700  0.24998200  1
  Ti  Ti1  1  0.50238800  0.50852100  0.50806700  1
  Ti  Ti2  1  0.49760700  0.99147000  0.99195900  1
  Ti  Ti3  1  0.49998100  0.24990900  0.74999600  1
  V  V0  1  0.50005400  0.36955400  0.13041200  1
  V  V1  1  0.49995000  0.13043600  0.36962400  1
  V  V2  1  0.50002300  0.62176900  0.87831200  1
  V  V3  1  0.49996900  0.87822700  0.62167200  1
  O  O0  1  0.72987100  0.98954300  0.48088000  1
  O  O1  1  0.73515300  0.73819500  0.73817900  1
  O  O2  1  0.73245200  0.23493000  0.23492000  1
  O  O3  1  0.72972300  0.48085500  0.98956500  1
  O  O4  1  0.26755100  0.26513800  0.26501700  1
  O  O5  1  0.27019400  0.01911200  0.51046500  1
  O  O6  1  0.27019700  0.51042300  0.01913800  1
  O  O7  1  0.26483700  0.76180200  0.76180600  1
  O  O8  1  0.73162600  0.62419200  0.37568100  1
  O  O9  1  0.73133600  0.37557400  0.62435800  1
  O  O10  1  0.73465300  0.87395300  0.12492000  1
  O  O11  1  0.73408800  0.12483700  0.87373700  1
  O  O12  1  0.26542800  0.62605300  0.37511400  1
  O  O13  1  0.26598600  0.37518900  0.62625000  1
  O  O14  1  0.26829000  0.87575000  0.12430400  1
  O  O15  1  0.26863900  0.12446200  0.87565700  1
loop_
_geom_bond_atom_site_label_1
_geom_bond_atom_site_label_2
_geom_bond_distance
_geom_bond_site_symmetry_2
Li0 O8 2.122198 1_555
Li0 O15 2.122718 1_665
Li0 O7 2.137724 1_655
Li0 O1 2.137747 1_555
Li0 O0 2.171036 1_555
Li0 O5 2.171180 1_665
Li1 O14 2.121974 1_656
Li1 O9 2.122418 1_555
Li1 O1 2.137712 1_555
Li1 O7 2.137825 1_655
Li1 O6 2.171644 1_656
Li1 O3 2.171755 1_555
Li2 O0 2.113653 1_545
Li2 O5 2.113765 1_655
Li2 O2 2.123472 1_555
Li2 O4 2.123722 1_655
Li2 O10 2.125105 1_545
Li2 O13 2.127112 1_655
Li3 O6 2.113718 1_555
Li3 O3 2.113908 1_454
Li3 O4 2.122899 1_555
Li3 O2 2.123234 1_455
Li3 O12 2.125315 1_555
Li3 O11 2.127014 1_454
Li4 O12 2.184969 1_555
Li4 O8 2.186741 1_455
Li4 O13 2.187064 1_555
Li4 O9 2.189017 1_455
Li4 O7 2.200826 1_555
Li4 O2 2.262494 1_455
Li5 O11 2.176353 1_455
Li5 O13 2.176646 1_555
Li5 O15 2.200456 1_555
Li5 O9 2.200669 1_455
Li5 O0 2.244000 1_445
Li5 O6 2.244022 1_556
Li6 O10 2.174925 1_455
Li6 O12 2.175338 1_555
Li6 O14 2.200016 1_555
Li6 O8 2.200423 1_455
Li6 O5 2.244013 1_565
Li6 O3 2.244107 1_454
Li7 O10 2.184850 1_556
Li7 O14 2.186747 1_656
Li7 O11 2.186872 1_565
Li7 O15 2.188843 1_665
Li7 O1 2.200872 1_555
Li7 O4 2.262545 1_666
O0 Ti0 1.992541 1_555
O0 V3 2.102963 1_555
O0 V1 2.103576 1_565
O1 Ti1 1.947535 1_555
O1 V3 2.130292 1_555
O1 V2 2.130576 1_555
O2 Ti2 2.060027 1_544
O2 V0 2.061309 1_555
O2 V1 2.062272 1_555
O3 Ti3 1.993194 1_555
O3 V0 2.102311 1_556
O3 V2 2.102775 1_555
O4 Ti1 2.060078 1_555
O4 V0 2.061504 1_555
O4 V1 2.061986 1_555
O5 Ti3 1.992416 1_555
O5 V1 2.102682 1_555
O5 V3 2.102814 1_545
O6 Ti0 1.993148 1_555
O6 V2 2.102921 1_554
O6 V0 2.103183 1_555
O7 Ti2 1.947682 1_555
O7 V2 2.130305 1_555
O7 V3 2.130589 1_555
O8 Ti0 2.044067 1_555
O8 Ti1 2.054069 1_555
O8 V0 2.119392 1_555
O9 Ti3 2.041369 1_555
O9 Ti1 2.057735 1_555
O9 V1 2.119321 1_555
O10 Ti2 2.031093 1_554
O10 Ti0 2.047288 1_555
O10 V2 2.113450 1_554
O11 Ti2 2.034179 1_545
O11 Ti3 2.044814 1_555
O11 V3 2.113026 1_545
O12 Ti1 2.030814 1_555
O12 Ti0 2.047831 1_555
O12 V3 2.113210 1_555
O13 Ti1 2.033526 1_555
O13 Ti3 2.045678 1_555
O13 V2 2.112901 1_555
O14 Ti0 2.043125 1_555
O14 Ti2 2.054236 1_554
O14 V1 2.119801 1_565
O15 Ti3 2.040959 1_555
O15 Ti2 2.058132 1_545
O15 V0 2.119216 1_556
