# generated using pymatgen
data_Tb(CoB)4
_symmetry_space_group_name_H-M   'P 1'
_cell_length_a   5.00044100
_cell_length_b   5.00044100
_cell_length_c   6.97817200
_cell_angle_alpha   90.00000000
_cell_angle_beta   90.00000000
_cell_angle_gamma   90.00000000
_symmetry_Int_Tables_number   1
_chemical_formula_structural   Tb(CoB)4
_chemical_formula_sum   'Tb2 Co8 B8'
_cell_volume   174.48507510
_cell_formula_units_Z   2
loop_
 _symmetry_equiv_pos_site_id
 _symmetry_equiv_pos_as_xyz
  1  'x, y, z'
loop_
 _atom_site_type_symbol
 _atom_site_label
 _atom_site_symmetry_multiplicity
 _atom_site_fract_x
 _atom_site_fract_y
 _atom_site_fract_z
 _atom_site_occupancy
  Tb  Tb0  1  0.75000000  0.25000000  0.25000000  1
  Tb  Tb1  1  0.25000000  0.75000000  0.75000000  1
  Co  Co0  1  0.00445600  0.75000000  0.11311500  1
  Co  Co1  1  0.49554400  0.75000000  0.11311500  1
  Co  Co2  1  0.75000000  0.00445600  0.61311500  1
  Co  Co3  1  0.75000000  0.49554400  0.61311500  1
  Co  Co4  1  0.99554400  0.25000000  0.88688500  1
  Co  Co5  1  0.50445600  0.25000000  0.88688500  1
  Co  Co6  1  0.25000000  0.99554400  0.38688500  1
  Co  Co7  1  0.25000000  0.50445600  0.38688500  1
  B  B0  1  0.57566500  0.75000000  0.40800200  1
  B  B1  1  0.92433500  0.75000000  0.40800200  1
  B  B2  1  0.75000000  0.57566500  0.90800200  1
  B  B3  1  0.75000000  0.92433500  0.90800200  1
  B  B4  1  0.42433500  0.25000000  0.59199800  1
  B  B5  1  0.07566500  0.25000000  0.59199800  1
  B  B6  1  0.25000000  0.42433500  0.09199800  1
  B  B7  1  0.25000000  0.07566500  0.09199800  1
loop_
_geom_bond_atom_site_label_1
_geom_bond_atom_site_label_2
_geom_bond_distance
_geom_bond_site_symmetry_2
Co0 Tb1 2.815689 1_554
Co0 Tb0 2.963529 1_465
Co0 Tb0 2.963529 1_455
Co1 Tb1 2.815689 1_554
Co1 Tb0 2.963529 1_555
Co1 Tb0 2.963529 1_565
Co2 Tb0 2.815689 1_555
Co2 Tb1 2.963529 1_545
Co2 Tb1 2.963529 1_645
Co3 Tb0 2.815689 1_555
Co3 Tb1 2.963529 1_555
Co3 Tb1 2.963529 1_655
Co4 Tb0 2.815689 1_556
Co4 Tb1 2.963529 1_655
Co4 Tb1 2.963529 1_645
Co5 Tb0 2.815689 1_556
Co5 Tb1 2.963529 1_555
Co5 Tb1 2.963529 1_545
Co6 Tb1 2.815689 1_555
Co6 Tb0 2.963529 1_465
Co6 Tb0 2.963529 1_565
Co7 Tb1 2.815689 1_555
Co7 Tb0 2.963529 1_555
Co7 Tb0 2.963529 1_455
B0 B1 1.743504 1_555
B0 Co6 2.044795 1_555
B0 Co7 2.044795 1_555
B0 Co1 2.096411 1_555
B0 Co3 2.104185 1_555
B0 Co2 2.104185 1_565
B0 Tb0 2.868223 1_565
B0 Tb0 2.868223 1_555
B0 Tb1 2.889185 1_555
B1 Co6 2.044795 1_655
B1 Co7 2.044795 1_655
B1 Co0 2.096411 1_655
B1 Co2 2.104185 1_565
B1 Co3 2.104185 1_555
B1 Tb0 2.868223 1_555
B1 Tb0 2.868223 1_565
B1 Tb1 2.889185 1_655
B2 B3 1.743504 1_555
B2 Co4 2.044795 1_555
B2 Co5 2.044795 1_555
B2 Co3 2.096411 1_555
B2 Co1 2.104185 1_556
B2 Co0 2.104185 1_656
B2 Tb1 2.868223 1_655
B2 Tb1 2.868223 1_555
B2 Tb0 2.889185 1_556
B3 Co5 2.044795 1_565
B3 Co4 2.044795 1_565
B3 Co2 2.096411 1_565
B3 Co1 2.104185 1_556
B3 Co0 2.104185 1_656
B3 Tb1 2.868223 1_555
B3 Tb1 2.868223 1_655
B3 Tb0 2.889185 1_566
B4 B5 1.743504 1_555
B4 Co2 2.044795 1_555
B4 Co3 2.044795 1_555
B4 Co5 2.096411 1_555
B4 Co6 2.104185 1_545
B4 Co7 2.104185 1_555
B4 Tb1 2.868223 1_545
B4 Tb1 2.868223 1_555
B4 Tb0 2.889185 1_555
B5 Co2 2.044795 1_455
B5 Co3 2.044795 1_455
B5 Co4 2.096411 1_455
B5 Co6 2.104185 1_545
B5 Co7 2.104185 1_555
B5 Tb1 2.868223 1_545
B5 Tb1 2.868223 1_555
B5 Tb0 2.889185 1_455
B6 B7 1.743504 1_555
B6 Co0 2.044795 1_555
B6 Co1 2.044795 1_555
B6 Co7 2.096411 1_555
B6 Co4 2.104185 1_454
B6 Co5 2.104185 1_554
B6 Tb0 2.868223 1_555
B6 Tb0 2.868223 1_455
B6 Tb1 2.889185 1_554
B7 Co1 2.044795 1_545
B7 Co0 2.044795 1_545
B7 Co6 2.096411 1_545
B7 Co5 2.104185 1_554
B7 Co4 2.104185 1_454
B7 Tb0 2.868223 1_555
B7 Tb0 2.868223 1_455
B7 Tb1 2.889185 1_544
