# generated using pymatgen
data_TmRe2SiC
_symmetry_space_group_name_H-M   'P 1'
_cell_length_a   5.78828517
_cell_length_b   5.78828517
_cell_length_c   7.28333800
_cell_angle_alpha   90.00000000
_cell_angle_beta   90.00000000
_cell_angle_gamma   140.48183255
_symmetry_Int_Tables_number   1
_chemical_formula_structural   TmRe2SiC
_chemical_formula_sum   'Tm2 Re4 Si2 C2'
_cell_volume   155.27724820
_cell_formula_units_Z   2
loop_
 _symmetry_equiv_pos_site_id
 _symmetry_equiv_pos_as_xyz
  1  'x, y, z'
loop_
 _atom_site_type_symbol
 _atom_site_label
 _atom_site_symmetry_multiplicity
 _atom_site_fract_x
 _atom_site_fract_y
 _atom_site_fract_z
 _atom_site_occupancy
  Tm  Tm0  1  0.54327600  0.45672400  0.25000000  1
  Tm  Tm1  1  0.45672400  0.54327600  0.75000000  1
  Re  Re0  1  0.82650500  0.17349500  0.06056400  1
  Re  Re1  1  0.17349500  0.82650500  0.93943600  1
  Re  Re2  1  0.17349500  0.82650500  0.56056400  1
  Re  Re3  1  0.82650500  0.17349500  0.43943600  1
  Si  Si0  1  0.26503900  0.73496100  0.25000000  1
  Si  Si1  1  0.73496100  0.26503900  0.75000000  1
  C  C0  1  0.00000000  0.00000000  0.00000000  1
  C  C1  1  0.00000000  0.00000000  0.50000000  1
loop_
_geom_bond_atom_site_label_1
_geom_bond_atom_site_label_2
_geom_bond_distance
_geom_bond_site_symmetry_2
Re0 Si1 2.472070 1_554
Re0 Si0 2.486213 1_545
Re0 Si0 2.486213 1_655
Re1 Si0 2.472070 1_556
Re1 Si1 2.486213 1_455
Re1 Si1 2.486213 1_565
Re2 Si0 2.472070 1_555
Re2 Si1 2.486213 1_455
Re2 Si1 2.486213 1_565
Re3 Si1 2.472070 1_555
Re3 Si0 2.486213 1_545
Re3 Si0 2.486213 1_655
Si0 Tm0 3.031384 1_555
Si0 Tm0 3.109131 1_565
Si0 Tm0 3.109131 1_455
Si1 Tm1 3.031384 1_555
Si1 Tm1 3.109131 1_545
Si1 Tm1 3.109131 1_655
C0 Re0 1.941010 1_455
C0 Re1 1.941010 1_544
C0 Tm0 2.714202 1_555
C0 Tm1 2.714202 1_554
C0 Tm1 2.714202 1_444
C0 Tm0 2.714202 1_445
C1 Re2 1.941010 1_545
C1 Re3 1.941010 1_455
C1 Tm0 2.714202 1_555
C1 Tm1 2.714202 1_555
C1 Tm1 2.714202 1_445
C1 Tm0 2.714202 1_445
