# generated using pymatgen
data_BaP6H16(N2O9)2
_symmetry_space_group_name_H-M   'P 1'
_cell_length_a   11.23278957
_cell_length_b   11.23278957
_cell_length_c   9.13288100
_cell_angle_alpha   90.00000000
_cell_angle_beta   90.00000000
_cell_angle_gamma   119.99999747
_symmetry_Int_Tables_number   1
_chemical_formula_structural   BaP6H16(N2O9)2
_chemical_formula_sum   'Ba2 P12 H32 N8 O36'
_cell_volume   997.96127199
_cell_formula_units_Z   2
loop_
 _symmetry_equiv_pos_site_id
 _symmetry_equiv_pos_as_xyz
  1  'x, y, z'
loop_
 _atom_site_type_symbol
 _atom_site_label
 _atom_site_symmetry_multiplicity
 _atom_site_fract_x
 _atom_site_fract_y
 _atom_site_fract_z
 _atom_site_occupancy
  Ba  Ba0  1  0.33333300  0.66666700  0.24486600  1
  Ba  Ba1  1  0.66666700  0.33333300  0.74486600  1
  P  P0  1  0.99250600  0.44784900  0.01605500  1
  P  P1  1  0.45534200  0.00749400  0.01605500  1
  P  P2  1  0.55215100  0.54465800  0.01605500  1
  P  P3  1  0.44784900  0.99250600  0.51605500  1
  P  P4  1  0.00749400  0.45534200  0.51605500  1
  P  P5  1  0.54465800  0.55215100  0.51605500  1
  P  P6  1  0.01733000  0.29444600  0.26256600  1
  P  P7  1  0.27711600  0.98267000  0.26256600  1
  P  P8  1  0.70555400  0.72288400  0.26256600  1
  P  P9  1  0.29444600  0.01733000  0.76256600  1
  P  P10  1  0.98267000  0.27711600  0.76256600  1
  P  P11  1  0.72288400  0.70555400  0.76256600  1
  H  H0  1  0.33333300  0.66666700  0.87701100  1
  H  H1  1  0.66666700  0.33333300  0.37701100  1
  H  H2  1  0.23988800  0.58865600  0.72648000  1
  H  H3  1  0.34876800  0.76011200  0.72648000  1
  H  H4  1  0.41134400  0.65123200  0.72648000  1
  H  H5  1  0.58865600  0.23988800  0.22648000  1
  H  H6  1  0.76011200  0.34876800  0.22648000  1
  H  H7  1  0.65123200  0.41134400  0.22648000  1
  H  H8  1  0.84451400  0.05267100  0.06829900  1
  H  H9  1  0.20815600  0.15548600  0.06829900  1
  H  H10  1  0.94732900  0.79184400  0.06829900  1
  H  H11  1  0.05267100  0.84451400  0.56829900  1
  H  H12  1  0.15548600  0.20815600  0.56829900  1
  H  H13  1  0.79184400  0.94732900  0.56829900  1
  H  H14  1  0.74494200  0.07274700  0.94152600  1
  H  H15  1  0.32780500  0.25505800  0.94152600  1
  H  H16  1  0.92725300  0.67219500  0.94152600  1
  H  H17  1  0.07274700  0.74494200  0.44152600  1
  H  H18  1  0.25505800  0.32780500  0.44152600  1
  H  H19  1  0.67219500  0.92725300  0.44152600  1
  H  H20  1  0.68361100  0.92555500  0.03617000  1
  H  H21  1  0.24194400  0.31638900  0.03617000  1
  H  H22  1  0.07444500  0.75805600  0.03617000  1
  H  H23  1  0.92555500  0.68361100  0.53617000  1
  H  H24  1  0.31638900  0.24194400  0.53617000  1
  H  H25  1  0.75805600  0.07444500  0.53617000  1
  H  H26  1  0.80102100  0.96264200  0.90228100  1
  H  H27  1  0.16162100  0.19897900  0.90228100  1
  H  H28  1  0.03735800  0.83837900  0.90228100  1
  H  H29  1  0.96264200  0.80102100  0.40228100  1
  H  H30  1  0.19897900  0.16162100  0.40228100  1
  H  H31  1  0.83837900  0.03735800  0.40228100  1
  N  N0  1  0.33333300  0.66666700  0.76393800  1
  N  N1  1  0.66666700  0.33333300  0.26393800  1
  N  N2  1  0.77025000  0.00371300  0.98686800  1
  N  N3  1  0.23346300  0.22975000  0.98686800  1
  N  N4  1  0.99628700  0.76653700  0.98686800  1
  N  N5  1  0.00371300  0.77025000  0.48686800  1
  N  N6  1  0.22975000  0.23346300  0.48686800  1
  N  N7  1  0.76653700  0.99628700  0.48686800  1
  O  O0  1  0.87060200  0.45419400  0.95946800  1
  O  O1  1  0.58359300  0.12939800  0.95946800  1
  O  O2  1  0.54580600  0.41640700  0.95946800  1
  O  O3  1  0.45419400  0.87060200  0.45946800  1
  O  O4  1  0.12939800  0.58359300  0.45946800  1
  O  O5  1  0.41640700  0.54580600  0.45946800  1
  O  O6  1  0.12862700  0.57691800  0.02818200  1
  O  O7  1  0.44829000  0.87137300  0.02818200  1
  O  O8  1  0.42308200  0.55171000  0.02818200  1
  O  O9  1  0.57691800  0.12862700  0.52818200  1
  O  O10  1  0.87137300  0.44829000  0.52818200  1
  O  O11  1  0.55171000  0.42308200  0.52818200  1
  O  O12  1  0.94369500  0.36885500  0.17485100  1
  O  O13  1  0.42516000  0.05630500  0.17485100  1
  O  O14  1  0.63114500  0.57484000  0.17485100  1
  O  O15  1  0.36885500  0.94369500  0.67485100  1
  O  O16  1  0.05630500  0.42516000  0.67485100  1
  O  O17  1  0.57484000  0.63114500  0.67485100  1
  O  O18  1  0.93558100  0.14185200  0.23777900  1
  O  O19  1  0.20627100  0.06441900  0.23777900  1
  O  O20  1  0.85814800  0.79372900  0.23777900  1
  O  O21  1  0.14185200  0.93558100  0.73777900  1
  O  O22  1  0.06441900  0.20627100  0.73777900  1
  O  O23  1  0.79372900  0.85814800  0.73777900  1
  O  O24  1  0.16911300  0.37245700  0.23458600  1
  O  O25  1  0.20334300  0.83088700  0.23458600  1
  O  O26  1  0.62754300  0.79665700  0.23458600  1
  O  O27  1  0.37245700  0.16911300  0.73458600  1
  O  O28  1  0.83088700  0.20334300  0.73458600  1
  O  O29  1  0.79665700  0.62754300  0.73458600  1
  O  O30  1  0.98463500  0.31753000  0.42978400  1
  O  O31  1  0.33289500  0.01536500  0.42978400  1
  O  O32  1  0.68247000  0.66710500  0.42978400  1
  O  O33  1  0.31753000  0.98463500  0.92978400  1
  O  O34  1  0.01536500  0.33289500  0.92978400  1
  O  O35  1  0.66710500  0.68247000  0.92978400  1
loop_
_geom_bond_atom_site_label_1
_geom_bond_atom_site_label_2
_geom_bond_distance
_geom_bond_site_symmetry_2
Ba0 O5 2.796796 1_555
Ba0 O4 2.796796 1_555
Ba0 O3 2.796796 1_555
Ba0 O8 2.811011 1_555
Ba0 O6 2.811011 1_555
Ba0 O7 2.811011 1_555
Ba0 O25 2.870026 1_555
Ba0 O26 2.870026 1_555
Ba0 O24 2.870026 1_555
Ba1 O2 2.796796 1_555
Ba1 O1 2.796796 1_555
Ba1 O0 2.796796 1_555
Ba1 O11 2.811011 1_555
Ba1 O9 2.811011 1_555
Ba1 O10 2.811011 1_555
Ba1 O28 2.870026 1_555
Ba1 O29 2.870026 1_555
Ba1 O27 2.870026 1_555
H0 N0 1.032682 1_555
H1 N1 1.032682 1_555
H2 N0 1.032896 1_555
H3 N0 1.032893 1_555
H4 N0 1.032903 1_555
H5 N1 1.032896 1_555
H6 N1 1.032893 1_555
H7 N1 1.032903 1_555
H8 N2 1.045295 1_554
H9 N3 1.045294 1_554
H10 N4 1.045301 1_554
H11 N5 1.045295 1_555
H12 N6 1.045294 1_555
H13 N7 1.045301 1_555
H14 N2 1.036365 1_555
H15 N3 1.036365 1_555
H16 N4 1.036365 1_555
H17 N5 1.036365 1_555
H18 N6 1.036365 1_555
H19 N7 1.036365 1_555
H20 N2 1.032579 1_564
H21 N3 1.032579 1_554
H22 N4 1.032579 1_454
H23 N5 1.032579 1_655
H24 N6 1.032579 1_555
H25 N7 1.032579 1_545
H26 N2 1.043340 1_565
H27 N3 1.043340 1_555
H28 N4 1.043340 1_455
H29 N5 1.043340 1_655
H30 N6 1.043340 1_555
H31 N7 1.043340 1_545
O0 P0 1.498266 1_556
O1 P1 1.498278 1_556
O2 P2 1.498287 1_556
O3 P3 1.498266 1_555
O4 P4 1.498278 1_555
O5 P5 1.498287 1_555
O6 P0 1.495099 1_455
O7 P1 1.495099 1_565
O8 P2 1.495099 1_555
O9 P3 1.495099 1_545
O10 P4 1.495099 1_655
O11 P5 1.495099 1_555
O12 P0 1.644604 1_555
O12 P6 1.647971 1_655
O13 P1 1.644599 1_555
O13 P7 1.647971 1_545
O14 P2 1.644604 1_555
O14 P8 1.647971 1_555
O15 P3 1.644604 1_555
O15 P9 1.647971 1_565
O16 P4 1.644599 1_555
O16 P10 1.647971 1_455
O17 P5 1.644604 1_555
O17 P11 1.647971 1_555
O18 P6 1.502827 1_655
O19 P7 1.502827 1_545
O20 P8 1.502827 1_555
O21 P9 1.502827 1_565
O22 P10 1.502827 1_455
O23 P11 1.502827 1_555
O24 P6 1.498666 1_555
O25 P7 1.498665 1_555
O26 P8 1.498675 1_555
O27 P9 1.498666 1_555
O28 P10 1.498665 1_555
O29 P11 1.498675 1_555
O30 P6 1.621612 1_655
O30 P4 1.638775 1_655
O31 P7 1.621612 1_545
O31 P3 1.638785 1_545
O32 P8 1.621612 1_555
O32 P5 1.638778 1_555
O33 P9 1.621612 1_565
O33 P1 1.638775 1_566
O34 P10 1.621612 1_455
O34 P0 1.638785 1_456
O35 P11 1.621612 1_555
O35 P2 1.638778 1_556
