# generated using pymatgen
data_Sc2Be17
_symmetry_space_group_name_H-M   'P 1'
_cell_length_a   7.33355428
_cell_length_b   7.52839451
_cell_length_c   7.52839451
_cell_angle_alpha   119.99999833
_cell_angle_beta   90.00000000
_cell_angle_gamma   90.00000000
_symmetry_Int_Tables_number   1
_chemical_formula_structural   Sc2Be17
_chemical_formula_sum   'Sc4 Be34'
_cell_volume   359.95639065
_cell_formula_units_Z   2
loop_
 _symmetry_equiv_pos_site_id
 _symmetry_equiv_pos_as_xyz
  1  'x, y, z'
loop_
 _atom_site_type_symbol
 _atom_site_label
 _atom_site_symmetry_multiplicity
 _atom_site_fract_x
 _atom_site_fract_y
 _atom_site_fract_z
 _atom_site_occupancy
  Sc  Sc0  1  0.75000000  0.00000000  -0.00000000  1
  Sc  Sc1  1  0.25000000  0.00000000  -0.00000000  1
  Sc  Sc2  1  0.75000000  0.66666700  0.33333300  1
  Sc  Sc3  1  0.25000000  0.33333300  0.66666700  1
  Be  Be0  1  0.98807845  0.83422817  0.16577183  1
  Be  Be1  1  0.01192155  0.16577183  0.83422817  1
  Be  Be2  1  0.98807845  0.33154166  0.16577183  1
  Be  Be3  1  0.48807845  0.16577183  0.83422817  1
  Be  Be4  1  0.01192155  0.66845834  0.83422817  1
  Be  Be5  1  0.51192155  0.83422817  0.16577183  1
  Be  Be6  1  0.98807845  0.83422817  0.66845834  1
  Be  Be7  1  0.48807845  0.66845834  0.83422817  1
  Be  Be8  1  0.01192155  0.16577183  0.33154166  1
  Be  Be9  1  0.51192155  0.33154166  0.16577183  1
  Be  Be10  1  0.48807845  0.16577183  0.33154166  1
  Be  Be11  1  0.51192155  0.83422817  0.66845834  1
  Be  Be12  1  0.39434540  0.66666700  0.33333300  1
  Be  Be13  1  0.60565460  0.33333300  0.66666700  1
  Be  Be14  1  0.89434540  0.33333300  0.66666700  1
  Be  Be15  1  0.10565460  0.66666700  0.33333300  1
  Be  Be16  1  0.75000000  0.04641298  0.37789226  1
  Be  Be17  1  0.25000000  0.95358702  0.62210774  1
  Be  Be18  1  0.75000000  0.33147928  0.95358702  1
  Be  Be19  1  0.25000000  0.66852072  0.62210774  1
  Be  Be20  1  0.25000000  0.66852072  0.04641298  1
  Be  Be21  1  0.75000000  0.33147928  0.37789226  1
  Be  Be22  1  0.75000000  0.62210774  0.66852072  1
  Be  Be23  1  0.25000000  0.37789226  0.04641298  1
  Be  Be24  1  0.25000000  0.37789226  0.33147928  1
  Be  Be25  1  0.75000000  0.62210774  0.95358702  1
  Be  Be26  1  0.25000000  0.95358702  0.33147928  1
  Be  Be27  1  0.75000000  0.04641298  0.66852072  1
  Be  Be28  1  -0.00000000  0.50000000  0.50000000  1
  Be  Be29  1  -0.00000000  0.00000000  0.50000000  1
  Be  Be30  1  0.50000000  0.50000000  0.50000000  1
  Be  Be31  1  -0.00000000  0.50000000  -0.00000000  1
  Be  Be32  1  0.50000000  0.00000000  0.50000000  1
  Be  Be33  1  0.50000000  0.50000000  -0.00000000  1
loop_
_geom_bond_atom_site_label_1
_geom_bond_atom_site_label_2
_geom_bond_distance
_geom_bond_site_symmetry_2
Be0 Be8 2.168653 1_665
Be0 Be4 2.168653 1_654
Be0 Be29 2.180871 1_665
Be0 Be31 2.180871 1_655
Be0 Be26 2.220873 1_655
Be0 Be20 2.220873 1_655
Be0 Be15 2.348908 1_655
Be0 Be16 2.366290 1_565
Be0 Be25 2.366290 1_554
Be0 Sc0 2.778644 1_565
Be0 Sc2 2.796833 1_555
Be0 Sc1 2.891715 1_665
Be1 Be2 2.168653 1_456
Be1 Be6 2.168653 1_445
Be1 Be31 2.180871 1_556
Be1 Be29 2.180871 1_555
Be1 Be18 2.220873 1_455
Be1 Be27 2.220873 1_455
Be1 Be14 2.348908 1_455
Be1 Be23 2.366290 1_556
Be1 Be17 2.366290 1_545
Be1 Sc1 2.778644 1_556
Be1 Sc3 2.796833 1_555
Be1 Sc0 2.891715 1_456
Be2 Be8 2.168627 1_655
Be2 Be28 2.180871 1_655
Be2 Be31 2.180884 1_655
Be2 Be24 2.220871 1_655
Be2 Be23 2.220878 1_655
Be2 Be21 2.366285 1_555
Be2 Sc0 2.778634 1_555
Be2 Sc2 2.796848 1_555
Be2 Sc1 2.891705 1_655
Be3 Be9 2.168653 1_556
Be3 Be33 2.180871 1_556
Be3 Be32 2.180871 1_555
Be3 Sc1 2.778644 1_556
Be3 Sc3 2.796833 1_555
Be3 Sc0 2.891715 1_556
Be4 Be6 2.168627 1_455
Be4 Sc1 2.778634 1_566
Be4 Sc3 2.796848 1_555
Be4 Sc0 2.891705 1_466
Be5 Be7 2.168653 1_554
Be5 Sc0 2.778644 1_565
Be5 Sc2 2.796833 1_555
Be5 Sc1 2.891715 1_565
Be6 Sc0 2.778634 1_566
Be6 Sc2 2.796848 1_555
Be6 Sc1 2.891705 1_666
Be7 Sc1 2.778634 1_566
Be7 Sc3 2.796848 1_555
Be7 Sc0 2.891705 1_566
Be8 Sc1 2.778634 1_555
Be8 Sc3 2.796848 1_555
Be8 Sc0 2.891705 1_455
Be9 Sc0 2.778634 1_555
Be9 Sc2 2.796848 1_555
Be9 Sc1 2.891705 1_555
Be10 Be9 2.168627 1_555
Be10 Be5 2.168653 1_545
Be10 Be30 2.180871 1_555
Be10 Be32 2.180884 1_555
Be10 Be21 2.220871 1_555
Be10 Be16 2.220878 1_555
Be10 Be13 2.348927 1_555
Be10 Be24 2.366285 1_555
Be10 Be26 2.366295 1_545
Be10 Sc1 2.778634 1_555
Be10 Sc3 2.796848 1_555
Be10 Sc0 2.891705 1_555
Be11 Be7 2.168627 1_555
Be11 Be3 2.168653 1_565
Be11 Be30 2.180871 1_555
Be11 Be32 2.180884 1_565
Be11 Be19 2.220871 1_555
Be11 Be17 2.220878 1_555
Be11 Be12 2.348927 1_555
Be11 Be22 2.366285 1_555
Be11 Be27 2.366295 1_565
Be11 Sc0 2.778634 1_566
Be11 Sc2 2.796848 1_555
Be11 Sc1 2.891705 1_566
Be12 Be15 2.117130 1_555
Be12 Be32 2.307250 1_565
Be12 Be33 2.307250 1_555
Be12 Be30 2.307256 1_555
Be12 Be5 2.348908 1_555
Be12 Be9 2.348927 1_555
Be12 Be26 2.411784 1_555
Be12 Be20 2.411784 1_555
Be12 Be17 2.411788 1_555
Be12 Be23 2.411788 1_555
Be12 Be24 2.411791 1_555
Be12 Be19 2.411791 1_555
Be12 Sc2 2.608212 1_555
Be13 Be14 2.117130 1_555
Be13 Be32 2.307250 1_555
Be13 Be33 2.307250 1_556
Be13 Be30 2.307256 1_555
Be13 Be3 2.348908 1_555
Be13 Be7 2.348927 1_555
Be13 Be18 2.411784 1_555
Be13 Be27 2.411784 1_555
Be13 Be16 2.411788 1_555
Be13 Be25 2.411788 1_555
Be13 Be21 2.411791 1_555
Be13 Be22 2.411791 1_555
Be13 Sc3 2.608212 1_555
Be14 Be29 2.307250 1_655
Be14 Be31 2.307250 1_656
Be14 Be28 2.307256 1_655
Be14 Be8 2.348927 1_655
Be14 Be4 2.348927 1_655
Be14 Be18 2.411784 1_555
Be14 Be27 2.411784 1_555
Be14 Be16 2.411788 1_555
Be14 Be25 2.411788 1_555
Be14 Be21 2.411791 1_555
Be14 Be22 2.411791 1_555
Be14 Sc3 2.608212 1_655
Be15 Be29 2.307250 1_565
Be15 Be31 2.307250 1_555
Be15 Be28 2.307256 1_555
Be15 Be2 2.348927 1_455
Be15 Be6 2.348927 1_455
Be15 Be26 2.411784 1_555
Be15 Be20 2.411784 1_555
Be15 Be17 2.411788 1_555
Be15 Be23 2.411788 1_555
Be15 Be24 2.411791 1_555
Be15 Be19 2.411791 1_555
Be15 Sc2 2.608212 1_455
Be16 Be21 2.146092 1_555
Be16 Be29 2.156312 1_655
Be16 Be32 2.156312 1_555
Be16 Be27 2.187966 1_555
Be16 Be8 2.220878 1_655
Be16 Be5 2.366290 1_545
Be16 Sc0 2.687306 1_555
Be16 Sc2 2.706783 1_545
Be17 Be19 2.146092 1_555
Be17 Be32 2.156312 1_565
Be17 Be29 2.156312 1_565
Be17 Be26 2.187966 1_555
Be17 Be6 2.220878 1_455
Be17 Be3 2.366290 1_565
Be17 Sc1 2.687306 1_566
Be17 Sc3 2.706783 1_565
Be18 Be27 2.146092 1_555
Be18 Be31 2.156312 1_656
Be18 Be33 2.156312 1_556
Be18 Be25 2.187966 1_555
Be18 Be3 2.220873 1_555
Be18 Be9 2.366295 1_556
Be18 Be2 2.366295 1_556
Be18 Sc0 2.687306 1_556
Be18 Sc2 2.706786 1_556
Be19 Be28 2.156312 1_555
Be19 Be30 2.156312 1_555
Be19 Be24 2.187966 1_555
Be19 Be6 2.220871 1_455
Be19 Be7 2.366285 1_555
Be19 Be4 2.366285 1_555
Be19 Sc1 2.687306 1_566
Be19 Sc3 2.706791 1_555
Be20 Be26 2.146092 1_555
Be20 Be33 2.156312 1_555
Be20 Be31 2.156312 1_555
Be20 Be23 2.187966 1_555
Be20 Be5 2.220873 1_555
Be20 Be7 2.366295 1_554
Be20 Be4 2.366295 1_554
Be20 Sc1 2.687306 1_565
Be20 Sc3 2.706786 1_554
Be21 Be30 2.156312 1_555
Be21 Be28 2.156312 1_655
Be21 Be22 2.187966 1_555
Be21 Be8 2.220871 1_655
Be21 Be9 2.366285 1_555
Be21 Sc0 2.687306 1_555
Be21 Sc2 2.706791 1_555
Be22 Be25 2.146092 1_555
Be22 Be30 2.156312 1_555
Be22 Be28 2.156312 1_655
Be22 Be7 2.220871 1_555
Be22 Be4 2.220871 1_655
Be22 Be6 2.366285 1_555
Be22 Sc0 2.687306 1_566
Be22 Sc2 2.706791 1_555
Be23 Be24 2.146092 1_555
Be23 Be33 2.156312 1_555
Be23 Be31 2.156312 1_555
Be23 Be9 2.220878 1_555
Be23 Be3 2.366290 1_554
Be23 Sc1 2.687306 1_555
Be23 Sc3 2.706783 1_554
Be24 Be28 2.156312 1_555
Be24 Be30 2.156312 1_555
Be24 Be9 2.220871 1_555
Be24 Be8 2.366285 1_555
Be24 Sc1 2.687306 1_555
Be24 Sc3 2.706791 1_555
Be25 Be31 2.156312 1_656
Be25 Be33 2.156312 1_556
Be25 Be7 2.220878 1_555
Be25 Be4 2.220878 1_655
Be25 Be5 2.366290 1_556
Be25 Sc0 2.687306 1_566
Be25 Sc2 2.706783 1_556
Be26 Be32 2.156312 1_565
Be26 Be29 2.156312 1_565
Be26 Be5 2.220873 1_555
Be26 Be8 2.366295 1_565
Be26 Sc1 2.687306 1_565
Be26 Sc3 2.706786 1_565
Be27 Be29 2.156312 1_655
Be27 Be32 2.156312 1_555
Be27 Be3 2.220873 1_555
Be27 Be6 2.366295 1_545
Be27 Sc0 2.687306 1_556
Be27 Sc2 2.706786 1_545
Be28 Be4 2.180871 1_555
Be28 Be8 2.180871 1_555
Be28 Be6 2.180871 1_455
Be28 Sc3 2.843307 1_555
Be28 Sc2 2.843307 1_455
Be29 Be6 2.180884 1_445
Be29 Be8 2.180884 1_555
Be29 Sc3 2.843302 1_555
Be29 Sc2 2.843302 1_445
Be30 Be9 2.180871 1_555
Be30 Be7 2.180871 1_555
Be30 Sc3 2.843307 1_555
Be30 Sc2 2.843307 1_555
Be31 Be4 2.180884 1_554
Be31 Sc2 2.843302 1_455
Be31 Sc3 2.843302 1_554
Be32 Be5 2.180871 1_545
Be32 Sc2 2.843302 1_545
Be32 Sc3 2.843302 1_555
Be33 Be5 2.180871 1_555
Be33 Be9 2.180884 1_555
Be33 Be7 2.180884 1_554
Be33 Sc3 2.843302 1_554
Be33 Sc2 2.843302 1_555
