# generated using pymatgen
data_NdZn(BO2)5
_symmetry_space_group_name_H-M   'P 1'
_cell_length_a   7.69381800
_cell_length_b   8.78238400
_cell_length_c   12.64667219
_cell_angle_alpha   48.83035032
_cell_angle_beta   90.00000000
_cell_angle_gamma   90.00000000
_symmetry_Int_Tables_number   1
_chemical_formula_structural   NdZn(BO2)5
_chemical_formula_sum   'Nd4 Zn4 B20 O40'
_cell_volume   643.26403717
_cell_formula_units_Z   4
loop_
 _symmetry_equiv_pos_site_id
 _symmetry_equiv_pos_as_xyz
  1  'x, y, z'
loop_
 _atom_site_type_symbol
 _atom_site_label
 _atom_site_symmetry_multiplicity
 _atom_site_fract_x
 _atom_site_fract_y
 _atom_site_fract_z
 _atom_site_occupancy
  Nd  Nd0  1  0.18397000  0.94675600  0.23670900  1
  Nd  Nd1  1  0.68397000  0.05324400  0.26329100  1
  Nd  Nd2  1  0.81603000  0.05324400  0.76329100  1
  Nd  Nd3  1  0.31603000  0.94675600  0.73670900  1
  Zn  Zn0  1  0.41127500  0.48622100  0.12343400  1
  Zn  Zn1  1  0.91127500  0.51377900  0.37656600  1
  Zn  Zn2  1  0.58872500  0.51377900  0.87656600  1
  Zn  Zn3  1  0.08872500  0.48622100  0.62343400  1
  B  B0  1  0.57868100  0.65250500  0.26178800  1
  B  B1  1  0.18557100  0.51585000  0.91430500  1
  B  B2  1  0.68557100  0.48415000  0.58569500  1
  B  B3  1  0.81442900  0.48415000  0.08569500  1
  B  B4  1  0.31442900  0.51585000  0.41430500  1
  B  B5  1  0.90160000  0.84661300  0.50017900  1
  B  B6  1  0.40160000  0.15338700  0.99982100  1
  B  B7  1  0.09840000  0.15338700  0.49982100  1
  B  B8  1  0.59840000  0.84661300  0.00017900  1
  B  B9  1  0.07868100  0.34749500  0.23821200  1
  B  B10  1  0.42131900  0.34749500  0.73821200  1
  B  B11  1  0.92131900  0.65250500  0.76178800  1
  B  B12  1  0.32610600  0.09178800  0.39257200  1
  B  B13  1  0.82610600  0.90821200  0.10742800  1
  B  B14  1  0.67389400  0.90821200  0.60742800  1
  B  B15  1  0.17389400  0.09178800  0.89257200  1
  B  B16  1  0.53213400  0.27322700  0.44574000  1
  B  B17  1  0.03213400  0.72677300  0.05426000  1
  B  B18  1  0.46786600  0.72677300  0.55426000  1
  B  B19  1  0.96786600  0.27322700  0.94574000  1
  O  O0  1  0.21214600  0.20301700  0.26633000  1
  O  O1  1  0.65381300  0.43134900  0.06866200  1
  O  O2  1  0.15381300  0.56865100  0.43133800  1
  O  O3  1  0.34618700  0.56865100  0.93133800  1
  O  O4  1  0.84618700  0.43134900  0.56866200  1
  O  O5  1  0.45353300  0.11681100  0.11664000  1
  O  O6  1  0.95353300  0.88318900  0.38336000  1
  O  O7  1  0.54646700  0.88318900  0.88336000  1
  O  O8  1  0.71214600  0.79698300  0.23367000  1
  O  O9  1  0.04646700  0.11681100  0.61664000  1
  O  O10  1  0.28785400  0.20301700  0.76633000  1
  O  O11  1  0.78785400  0.79698300  0.73367000  1
  O  O12  1  0.53495900  0.68675300  0.13159800  1
  O  O13  1  0.03495900  0.31324700  0.36840200  1
  O  O14  1  0.46504100  0.31324700  0.86840200  1
  O  O15  1  0.96504100  0.68675300  0.63159800  1
  O  O16  1  0.41437000  0.67909900  0.30842500  1
  O  O17  1  0.91437000  0.32090100  0.19157500  1
  O  O18  1  0.58563000  0.32090100  0.69157500  1
  O  O19  1  0.08563000  0.67909900  0.80842500  1
  O  O20  1  0.65025400  0.44732100  0.36757400  1
  O  O21  1  0.15025400  0.55267900  0.13242600  1
  O  O22  1  0.34974600  0.55267900  0.63242600  1
  O  O23  1  0.84974600  0.44732100  0.86757400  1
  O  O24  1  0.47300800  0.23253600  0.35325900  1
  O  O25  1  0.97300800  0.76746400  0.14674100  1
  O  O26  1  0.52699200  0.76746400  0.64674100  1
  O  O27  1  0.02699200  0.23253600  0.85325900  1
  O  O28  1  0.39363600  0.91161900  0.41731700  1
  O  O29  1  0.89363600  0.08838100  0.08268300  1
  O  O30  1  0.60636400  0.08838100  0.58268300  1
  O  O31  1  0.12543000  0.32198700  0.99066600  1
  O  O32  1  0.22607600  0.02772200  0.51466100  1
  O  O33  1  0.72607600  0.97227800  0.98533900  1
  O  O34  1  0.77392400  0.97227800  0.48533900  1
  O  O35  1  0.27392400  0.02772200  0.01466100  1
  O  O36  1  0.37457000  0.32198700  0.49066600  1
  O  O37  1  0.87457000  0.67801300  0.00933400  1
  O  O38  1  0.62543000  0.67801300  0.50933400  1
  O  O39  1  0.10636400  0.91161900  0.91731700  1
loop_
_geom_bond_atom_site_label_1
_geom_bond_atom_site_label_2
_geom_bond_distance
_geom_bond_site_symmetry_2
Nd0 O6 2.351918 1_455
Nd0 O5 2.419058 1_565
Nd0 O35 2.498290 1_565
Nd0 O0 2.522387 1_565
Nd0 O2 2.525486 1_555
Nd0 O16 2.585267 1_555
Nd0 O28 2.643201 1_555
Nd0 O29 2.672328 1_465
Nd0 O31 2.691560 1_564
Nd0 O25 2.960948 1_455
Nd1 O5 2.351918 1_555
Nd1 O6 2.419058 1_545
Nd1 O34 2.498290 1_545
Nd1 O8 2.522387 1_545
Nd1 O1 2.525486 1_555
Nd1 O17 2.585267 1_555
Nd1 O29 2.643201 1_555
Nd1 O28 2.672328 1_545
Nd1 O38 2.691560 1_545
Nd1 O24 2.960948 1_555
Nd2 O9 2.351918 1_655
Nd2 O7 2.419058 1_545
Nd2 O33 2.498290 1_545
Nd2 O11 2.522387 1_545
Nd2 O4 2.525486 1_555
Nd2 O18 2.585267 1_555
Nd2 O30 2.643201 1_555
Nd2 O39 2.672328 1_645
Nd2 O37 2.691560 1_546
Nd2 O27 2.960948 1_655
Nd3 O7 2.351918 1_555
Nd3 O9 2.419058 1_565
Nd3 O32 2.498290 1_565
Nd3 O10 2.522387 1_565
Nd3 O3 2.525486 1_555
Nd3 O19 2.585267 1_555
Nd3 O39 2.643201 1_555
Nd3 O30 2.672328 1_565
Nd3 O36 2.691560 1_565
Nd3 O26 2.960948 1_555
B0 O20 1.471824 1_555
B0 O16 1.477136 1_555
B0 O8 1.482175 1_555
B0 O12 1.504157 1_555
B1 O31 1.371406 1_555
B1 O19 1.382835 1_555
B1 O3 1.385651 1_555
B2 O38 1.371406 1_555
B2 O18 1.382835 1_555
B2 O4 1.385651 1_555
B3 O37 1.371406 1_555
B3 O17 1.382835 1_555
B3 O1 1.385651 1_555
B4 O36 1.371406 1_555
B4 O16 1.382835 1_555
B4 O2 1.385651 1_555
B5 O6 1.349317 1_555
B5 O15 1.378231 1_555
B5 O34 1.394806 1_555
B6 O5 1.349317 1_556
B6 O14 1.378231 1_555
B6 O35 1.394806 1_556
B7 O9 1.349317 1_555
B7 O13 1.378231 1_555
B7 O32 1.394806 1_555
B8 O7 1.349317 1_554
B8 O12 1.378231 1_555
B8 O33 1.394806 1_554
B9 O21 1.471824 1_555
B9 O17 1.477136 1_455
B9 O0 1.482175 1_555
B9 O13 1.504157 1_555
B10 O22 1.471824 1_555
B10 O18 1.477136 1_555
B10 O10 1.482175 1_555
B10 O14 1.504157 1_555
B11 O23 1.471824 1_555
B11 O19 1.477136 1_655
B11 O11 1.482175 1_555
B11 O15 1.504157 1_555
B12 O32 1.465982 1_555
B12 O0 1.489503 1_555
B12 O28 1.489852 1_545
B12 O24 1.497815 1_555
B13 O33 1.465982 1_554
B13 O8 1.489503 1_555
B13 O29 1.489852 1_565
B13 O25 1.497815 1_555
B14 O34 1.465982 1_555
B14 O11 1.489503 1_555
B14 O30 1.489852 1_565
B14 O26 1.497815 1_555
B15 O35 1.465982 1_556
B15 O10 1.489503 1_555
B15 O39 1.489852 1_545
B15 O27 1.497815 1_555
B16 O20 1.466596 1_555
B16 O24 1.500947 1_555
B16 O30 1.503120 1_555
B16 O36 1.515294 1_555
B17 O21 1.466596 1_555
B17 O25 1.500947 1_455
B17 O39 1.503120 1_554
B17 O37 1.515294 1_455
B18 O22 1.466596 1_555
B18 O26 1.500947 1_555
B18 O28 1.503120 1_555
B18 O38 1.515294 1_555
B19 O23 1.466596 1_555
B19 O27 1.500947 1_655
B19 O29 1.503120 1_556
B19 O31 1.515294 1_655
O0 Zn0 2.425179 1_555
O1 Zn2 2.088359 1_554
O1 Zn0 2.152591 1_555
O2 Zn3 2.088359 1_555
O2 Zn1 2.152591 1_455
O3 Zn0 2.088359 1_556
O3 Zn2 2.152591 1_555
O4 Zn1 2.088359 1_555
O4 Zn3 2.152591 1_655
O8 Zn1 2.425179 1_555
O10 Zn3 2.425179 1_555
O11 Zn2 2.425179 1_555
O12 Zn0 2.063311 1_555
O13 Zn1 2.063311 1_455
O14 Zn2 2.063311 1_555
O15 Zn3 2.063311 1_655
O20 Zn1 2.115192 1_555
O21 Zn0 2.115192 1_555
O22 Zn3 2.115192 1_555
O23 Zn2 2.115192 1_555
O24 Zn0 2.260882 1_555
O25 Zn1 2.260882 1_555
O26 Zn2 2.260882 1_555
O27 Zn3 2.260882 1_555
