# generated using pymatgen
data_TeC6(I3N)2
_symmetry_space_group_name_H-M   'P 1'
_cell_length_a   12.52558600
_cell_length_b   12.52558600
_cell_length_c   12.52558600
_cell_angle_alpha   90.00000000
_cell_angle_beta   90.00000000
_cell_angle_gamma   90.00000000
_symmetry_Int_Tables_number   1
_chemical_formula_structural   TeC6(I3N)2
_chemical_formula_sum   'Te4 C24 I24 N8'
_cell_volume   1965.14300338
_cell_formula_units_Z   4
loop_
 _symmetry_equiv_pos_site_id
 _symmetry_equiv_pos_as_xyz
  1  'x, y, z'
loop_
 _atom_site_type_symbol
 _atom_site_label
 _atom_site_symmetry_multiplicity
 _atom_site_fract_x
 _atom_site_fract_y
 _atom_site_fract_z
 _atom_site_occupancy
  Te  Te0  1  0.50000000  0.50000000  0.00000000  1
  Te  Te1  1  0.50000000  0.00000000  0.50000000  1
  Te  Te2  1  0.00000000  0.50000000  0.50000000  1
  Te  Te3  1  0.00000000  0.00000000  0.00000000  1
  C  C0  1  0.35571800  0.64223500  0.27883800  1
  C  C1  1  0.64428200  0.14223500  0.22116200  1
  C  C2  1  0.14428200  0.35776500  0.77883800  1
  C  C3  1  0.85571800  0.85776500  0.72116200  1
  C  C4  1  0.27883800  0.35571800  0.64223500  1
  C  C5  1  0.22116200  0.64428200  0.14223500  1
  C  C6  1  0.77883800  0.14428200  0.35776500  1
  C  C7  1  0.72116200  0.85571800  0.85776500  1
  C  C8  1  0.64223500  0.27883800  0.35571800  1
  C  C9  1  0.14223500  0.22116200  0.64428200  1
  C  C10  1  0.35776500  0.77883800  0.14428200  1
  C  C11  1  0.85776500  0.72116200  0.85571800  1
  C  C12  1  0.64428200  0.35776500  0.72116200  1
  C  C13  1  0.35571800  0.85776500  0.77883800  1
  C  C14  1  0.85571800  0.64223500  0.22116200  1
  C  C15  1  0.14428200  0.14223500  0.27883800  1
  C  C16  1  0.72116200  0.64428200  0.35776500  1
  C  C17  1  0.77883800  0.35571800  0.85776500  1
  C  C18  1  0.22116200  0.85571800  0.64223500  1
  C  C19  1  0.27883800  0.14428200  0.14223500  1
  C  C20  1  0.35776500  0.72116200  0.64428200  1
  C  C21  1  0.85776500  0.77883800  0.35571800  1
  C  C22  1  0.64223500  0.22116200  0.85571800  1
  C  C23  1  0.14223500  0.27883800  0.14428200  1
  I  I0  1  0.26482000  0.53955700  0.98701800  1
  I  I1  1  0.73518000  0.03955700  0.51298200  1
  I  I2  1  0.23518000  0.46044300  0.48701800  1
  I  I3  1  0.76482000  0.96044300  0.01298200  1
  I  I4  1  0.98701800  0.26482000  0.53955700  1
  I  I5  1  0.51298200  0.73518000  0.03955700  1
  I  I6  1  0.48701800  0.23518000  0.46044300  1
  I  I7  1  0.01298200  0.76482000  0.96044300  1
  I  I8  1  0.53955700  0.98701800  0.26482000  1
  I  I9  1  0.03955700  0.51298200  0.73518000  1
  I  I10  1  0.46044300  0.48701800  0.23518000  1
  I  I11  1  0.96044300  0.01298200  0.76482000  1
  I  I12  1  0.73518000  0.46044300  0.01298200  1
  I  I13  1  0.26482000  0.96044300  0.48701800  1
  I  I14  1  0.76482000  0.53955700  0.51298200  1
  I  I15  1  0.23518000  0.03955700  0.98701800  1
  I  I16  1  0.01298200  0.73518000  0.46044300  1
  I  I17  1  0.48701800  0.26482000  0.96044300  1
  I  I18  1  0.51298200  0.76482000  0.53955700  1
  I  I19  1  0.98701800  0.23518000  0.03955700  1
  I  I20  1  0.46044300  0.01298200  0.73518000  1
  I  I21  1  0.96044300  0.48701800  0.26482000  1
  I  I22  1  0.53955700  0.51298200  0.76482000  1
  I  I23  1  0.03955700  0.98701800  0.23518000  1
  N  N0  1  0.31396400  0.68603600  0.18603600  1
  N  N1  1  0.68603600  0.18603600  0.31396400  1
  N  N2  1  0.18603600  0.31396400  0.68603600  1
  N  N3  1  0.81396400  0.81396400  0.81396400  1
  N  N4  1  0.68603600  0.31396400  0.81396400  1
  N  N5  1  0.31396400  0.81396400  0.68603600  1
  N  N6  1  0.81396400  0.68603600  0.31396400  1
  N  N7  1  0.18603600  0.18603600  0.18603600  1
loop_
_geom_bond_atom_site_label_1
_geom_bond_atom_site_label_2
_geom_bond_distance
_geom_bond_site_symmetry_2
C0 N0 1.387693 1_555
C0 I10 2.408226 1_555
C1 N1 1.387693 1_555
C1 I8 2.408226 1_545
C2 N2 1.387693 1_555
C2 I9 2.408226 1_555
C3 N3 1.387693 1_555
C3 I11 2.408226 1_565
C4 N2 1.387693 1_555
C4 I2 2.408226 1_555
C5 N0 1.387693 1_555
C5 I0 2.408226 1_554
C6 N1 1.387693 1_555
C6 I1 2.408226 1_555
C7 N3 1.387693 1_555
C7 I3 2.408226 1_556
C8 N1 1.387693 1_555
C8 I6 2.408226 1_555
C9 N2 1.387693 1_555
C9 I4 2.408226 1_455
C10 N0 1.387693 1_555
C10 I5 2.408226 1_555
C11 N3 1.387693 1_555
C11 I7 2.408226 1_655
C12 N4 1.387693 1_555
C12 I22 2.408226 1_555
C13 N5 1.387693 1_555
C13 I20 2.408226 1_565
C14 N6 1.387693 1_555
C14 I21 2.408226 1_555
C15 N7 1.387693 1_555
C15 I23 2.408226 1_545
C16 N6 1.387693 1_555
C16 I14 2.408226 1_555
C17 N4 1.387693 1_555
C17 I12 2.408226 1_556
C18 N5 1.387693 1_555
C18 I13 2.408226 1_555
C19 N7 1.387693 1_555
C19 I15 2.408226 1_554
C20 N5 1.387693 1_555
C20 I18 2.408226 1_555
C21 N6 1.387693 1_555
C21 I16 2.408226 1_655
C22 N4 1.387693 1_555
C22 I17 2.408226 1_555
C23 N7 1.387693 1_555
C23 I19 2.408226 1_455
I0 Te0 2.991568 1_556
I1 Te1 2.991568 1_555
I2 Te2 2.991568 1_555
I3 Te3 2.991568 1_665
I4 Te2 2.991568 1_655
I5 Te0 2.991568 1_555
I6 Te1 2.991568 1_555
I7 Te3 2.991568 1_566
I8 Te1 2.991568 1_565
I9 Te2 2.991568 1_555
I10 Te0 2.991568 1_555
I11 Te3 2.991568 1_656
I12 Te0 2.991568 1_555
I13 Te1 2.991568 1_565
I14 Te2 2.991568 1_655
I15 Te3 2.991568 1_556
I16 Te2 2.991568 1_555
I17 Te0 2.991568 1_556
I18 Te1 2.991568 1_565
I19 Te3 2.991568 1_655
I20 Te1 2.991568 1_555
I21 Te2 2.991568 1_655
I22 Te0 2.991568 1_556
I23 Te3 2.991568 1_565
