# generated using pymatgen
data_PrCrGe3
_symmetry_space_group_name_H-M   'P 1'
_cell_length_a   6.18380729
_cell_length_b   6.18380729
_cell_length_c   5.75780600
_cell_angle_alpha   90.00000000
_cell_angle_beta   90.00000000
_cell_angle_gamma   119.99999240
_symmetry_Int_Tables_number   1
_chemical_formula_structural   PrCrGe3
_chemical_formula_sum   'Pr2 Cr2 Ge6'
_cell_volume   190.67756037
_cell_formula_units_Z   2
loop_
 _symmetry_equiv_pos_site_id
 _symmetry_equiv_pos_as_xyz
  1  'x, y, z'
loop_
 _atom_site_type_symbol
 _atom_site_label
 _atom_site_symmetry_multiplicity
 _atom_site_fract_x
 _atom_site_fract_y
 _atom_site_fract_z
 _atom_site_occupancy
  Pr  Pr0  1  0.66666700  0.33333300  0.25000000  1
  Pr  Pr1  1  0.33333300  0.66666700  0.75000000  1
  Cr  Cr0  1  0.00000000  0.00000000  0.50000000  1
  Cr  Cr1  1  0.00000000  0.00000000  0.00000000  1
  Ge  Ge0  1  0.19198900  0.80801100  0.25000000  1
  Ge  Ge1  1  0.80801100  0.61602100  0.75000000  1
  Ge  Ge2  1  0.19198900  0.38397900  0.25000000  1
  Ge  Ge3  1  0.80801100  0.19198900  0.75000000  1
  Ge  Ge4  1  0.38397900  0.19198900  0.75000000  1
  Ge  Ge5  1  0.61602100  0.80801100  0.25000000  1
loop_
_geom_bond_atom_site_label_1
_geom_bond_atom_site_label_2
_geom_bond_distance
_geom_bond_site_symmetry_2
Cr0 Ge3 2.510083 1_455
Cr0 Ge0 2.510083 1_545
Cr0 Ge2 2.510087 1_555
Cr0 Ge4 2.510087 1_555
Cr0 Ge1 2.510087 1_445
Cr0 Ge5 2.510087 1_445
Cr1 Ge3 2.510083 1_454
Cr1 Ge0 2.510083 1_545
Cr1 Ge2 2.510087 1_555
Cr1 Ge4 2.510087 1_554
Cr1 Ge1 2.510087 1_444
Cr1 Ge5 2.510087 1_445
Ge0 Ge5 2.622132 1_555
Ge0 Ge2 2.622132 1_555
Ge0 Pr0 3.103776 1_455
Ge0 Pr0 3.103776 1_565
Ge0 Pr1 3.252682 1_555
Ge0 Pr1 3.252682 1_554
Ge1 Ge3 2.622132 1_555
Ge1 Ge4 2.622132 1_555
Ge1 Pr1 3.103771 1_655
Ge1 Pr1 3.103783 1_555
Ge1 Pr0 3.252682 1_555
Ge1 Pr0 3.252682 1_556
Ge2 Ge5 2.622132 1_555
Ge2 Pr0 3.103771 1_455
Ge2 Pr0 3.103783 1_555
Ge2 Pr1 3.252682 1_554
Ge2 Pr1 3.252682 1_555
Ge3 Ge4 2.622132 1_555
Ge3 Pr1 3.103776 1_545
Ge3 Pr1 3.103776 1_655
Ge3 Pr0 3.252682 1_555
Ge3 Pr0 3.252682 1_556
Ge4 Pr1 3.103771 1_545
Ge4 Pr1 3.103783 1_555
Ge4 Pr0 3.252682 1_555
Ge4 Pr0 3.252682 1_556
Ge5 Pr0 3.103771 1_565
Ge5 Pr0 3.103783 1_555
Ge5 Pr1 3.252682 1_555
Ge5 Pr1 3.252682 1_554
