# generated using pymatgen
data_Ba6Nd3TiCu6(MoO12)2
_symmetry_space_group_name_H-M   'P 1'
_cell_length_a   8.81029411
_cell_length_b   8.81029411
_cell_length_c   13.20933591
_cell_angle_alpha   66.41775145
_cell_angle_beta   66.41775145
_cell_angle_gamma   36.86442221
_symmetry_Int_Tables_number   1
_chemical_formula_structural   Ba6Nd3TiCu6(MoO12)2
_chemical_formula_sum   'Ba6 Nd3 Ti1 Cu6 Mo2 O24'
_cell_volume   557.74864094
_cell_formula_units_Z   1
loop_
 _symmetry_equiv_pos_site_id
 _symmetry_equiv_pos_as_xyz
  1  'x, y, z'
loop_
 _atom_site_type_symbol
 _atom_site_label
 _atom_site_symmetry_multiplicity
 _atom_site_fract_x
 _atom_site_fract_y
 _atom_site_fract_z
 _atom_site_occupancy
  Ba  Ba0  1  0.89945401  0.89945401  0.80655256  1
  Ba  Ba1  1  0.22955470  0.22955470  0.80655361  1
  Ba  Ba2  1  0.56444553  0.56444553  0.80655637  1
  Ba  Ba3  1  0.10054599  0.10054599  0.19344744  1
  Ba  Ba4  1  0.43555447  0.43555447  0.19344363  1
  Ba  Ba5  1  0.77044530  0.77044530  0.19344639  1
  Nd  Nd0  1  0.00000000  -0.00000000  0.50000000  1
  Nd  Nd1  1  0.33335670  0.33335670  0.49995289  1
  Nd  Nd2  1  0.66664330  0.66664330  0.50004711  1
  Ti  Ti0  1  0.00000000  -0.00000000  -0.00000000  1
  Cu  Cu0  1  0.11998896  0.11998896  0.64043113  1
  Cu  Cu1  1  0.45470612  0.45470612  0.63598669  1
  Cu  Cu2  1  0.78811650  0.78811650  0.63613782  1
  Cu  Cu3  1  0.21188350  0.21188350  0.36386218  1
  Cu  Cu4  1  0.54529388  0.54529388  0.36401331  1
  Cu  Cu5  1  0.88001104  0.88001104  0.35956887  1
  Mo  Mo0  1  0.66446592  0.66446592  0.99999895  1
  Mo  Mo1  1  0.33553408  0.33553408  0.00000105  1
  O  O0  1  0.79052591  0.29092378  0.62783188  1
  O  O1  1  0.12460460  0.62449261  0.62628765  1
  O  O2  1  0.45791639  0.95736864  0.62755941  1
  O  O3  1  0.29092378  0.79052591  0.62783188  1
  O  O4  1  0.62449261  0.12460460  0.62628765  1
  O  O5  1  0.95736864  0.45791639  0.62755941  1
  O  O6  1  0.87539540  0.37550739  0.37371235  1
  O  O7  1  0.20947409  0.70907622  0.37216812  1
  O  O8  1  0.54208361  0.04263136  0.37244059  1
  O  O9  1  0.37550739  0.87539540  0.37371235  1
  O  O10  1  0.70907622  0.20947409  0.37216812  1
  O  O11  1  0.04263136  0.54208361  0.37244059  1
  O  O12  1  0.00000000  0.50000000  -0.00000000  1
  O  O13  1  0.34091716  0.82955941  -0.00000758  1
  O  O14  1  0.65908284  0.17044059  0.00000758  1
  O  O15  1  0.50000000  -0.00000000  -0.00000000  1
  O  O16  1  0.82955941  0.34091716  -0.00000758  1
  O  O17  1  0.17044059  0.65908284  0.00000758  1
  O  O18  1  0.05287187  0.05287187  0.84145192  1
  O  O19  1  0.38266885  0.38266885  0.84254188  1
  O  O20  1  0.72228054  0.72228054  0.84252800  1
  O  O21  1  0.27771946  0.27771946  0.15747200  1
  O  O22  1  0.61733115  0.61733115  0.15745812  1
  O  O23  1  0.94712813  0.94712813  0.15854808  1
loop_
_geom_bond_atom_site_label_1
_geom_bond_atom_site_label_2
_geom_bond_distance
_geom_bond_site_symmetry_2
Ba0 O18 2.790516 1_665
Ba0 O20 2.794763 1_555
Ba0 O19 2.819953 1_565
Ba0 O19 2.819953 1_655
Ba0 O3 2.896774 1_655
Ba0 O0 2.896774 1_565
Ba0 O4 2.936037 1_565
Ba0 O1 2.936037 1_655
Ba0 O17 3.029230 1_656
Ba0 O14 3.029230 1_566
Ba0 O15 3.054028 1_566
Ba0 O12 3.054028 1_656
Ba1 O18 2.790626 1_555
Ba1 O19 2.793476 1_555
Ba1 O20 2.819888 1_455
Ba1 O20 2.819888 1_545
Ba1 O5 2.898139 1_455
Ba1 O2 2.898139 1_545
Ba1 O4 2.935357 1_555
Ba1 O1 2.935357 1_555
Ba1 O13 3.029720 1_546
Ba1 O16 3.029720 1_456
Ba1 O12 3.053344 1_556
Ba1 O15 3.053344 1_556
Ba2 O18 2.816841 1_655
Ba2 O18 2.816841 1_565
Ba2 O19 2.870780 1_555
Ba2 O20 2.871352 1_555
Ba2 O0 2.908125 1_555
Ba2 O3 2.908125 1_555
Ba2 O2 2.912533 1_555
Ba2 O5 2.912533 1_555
Ba2 O14 3.041552 1_556
Ba2 O17 3.041552 1_556
Ba2 O13 3.041638 1_556
Ba2 O16 3.041638 1_556
Ba3 O23 2.790516 1_445
Ba3 O21 2.794763 1_555
Ba3 O22 2.819953 1_545
Ba3 O22 2.819953 1_455
Ba3 O7 2.896774 1_545
Ba3 O10 2.896774 1_455
Ba3 O6 2.936037 1_455
Ba3 O9 2.936037 1_545
Ba3 O16 3.029230 1_455
Ba3 O13 3.029230 1_545
Ba3 O12 3.054028 1_555
Ba3 O15 3.054028 1_555
Ba4 O23 2.816841 1_545
Ba4 O23 2.816841 1_455
Ba4 O22 2.870780 1_555
Ba4 O21 2.871352 1_555
Ba4 O10 2.908125 1_555
Ba4 O7 2.908125 1_555
Ba4 O11 2.912533 1_555
Ba4 O8 2.912533 1_555
Ba4 O16 3.041552 1_555
Ba4 O13 3.041552 1_555
Ba4 O17 3.041638 1_555
Ba4 O14 3.041638 1_555
Ba5 O23 2.790626 1_555
Ba5 O22 2.793476 1_555
Ba5 O21 2.819888 1_565
Ba5 O21 2.819888 1_655
Ba5 O8 2.898139 1_565
Ba5 O11 2.898139 1_655
Ba5 O6 2.935357 1_555
Ba5 O9 2.935357 1_555
Ba5 O14 3.029720 1_565
Ba5 O17 3.029720 1_655
Ba5 O12 3.053344 1_655
Ba5 O15 3.053344 1_565
Nd0 O9 2.484163 1_545
Nd0 O6 2.484163 1_455
Nd0 O4 2.484163 1_455
Nd0 O1 2.484163 1_545
Nd0 O7 2.495464 1_545
Nd0 O10 2.495464 1_455
Nd0 O0 2.495464 1_455
Nd0 O3 2.495464 1_545
Nd1 O4 2.483408 1_555
Nd1 O1 2.483408 1_555
Nd1 O2 2.492842 1_545
Nd1 O5 2.492842 1_455
Nd1 O11 2.493215 1_555
Nd1 O8 2.493215 1_555
Nd1 O10 2.494032 1_555
Nd1 O7 2.494032 1_555
Nd2 O6 2.483408 1_555
Nd2 O9 2.483408 1_555
Nd2 O11 2.492842 1_655
Nd2 O8 2.492842 1_565
Nd2 O2 2.493215 1_555
Nd2 O5 2.493215 1_555
Nd2 O0 2.494032 1_555
Nd2 O3 2.494032 1_555
Cu0 O2 1.977382 1_545
Cu0 O5 1.977382 1_455
Cu0 O3 1.977991 1_545
Cu0 O0 1.977991 1_455
Cu0 O18 2.407703 1_555
Cu1 O0 1.971176 1_555
Cu1 O3 1.971176 1_555
Cu1 O4 1.973781 1_555
Cu1 O1 1.973781 1_555
Cu1 O19 2.474571 1_555
Cu2 O1 1.971502 1_655
Cu2 O4 1.971502 1_565
Cu2 O5 1.971507 1_555
Cu2 O2 1.971507 1_555
Cu2 O20 2.472501 1_555
Cu3 O6 1.971502 1_455
Cu3 O9 1.971502 1_545
Cu3 O11 1.971507 1_555
Cu3 O8 1.971507 1_555
Cu3 O21 2.472501 1_555
Cu4 O7 1.971176 1_555
Cu4 O10 1.971176 1_555
Cu4 O6 1.973781 1_555
Cu4 O9 1.973781 1_555
Cu4 O22 2.474571 1_555
Cu5 O8 1.977382 1_565
Cu5 O11 1.977382 1_655
Cu5 O7 1.977991 1_655
Cu5 O10 1.977991 1_565
Cu5 O23 2.407703 1_555
Mo0 O22 1.888055 1_556
Mo0 O20 1.888202 1_555
Mo0 O16 1.899216 1_556
Mo0 O13 1.899216 1_556
Mo0 O12 1.996106 1_656
Mo0 O15 1.996106 1_566
Mo1 O19 1.888055 1_554
Mo1 O21 1.888202 1_555
Mo1 O14 1.899216 1_555
Mo1 O17 1.899216 1_555
Mo1 O12 1.996106 1_555
Mo1 O15 1.996106 1_555
O13 Ti0 2.014776 1_565
O14 Ti0 2.014776 1_655
O16 Ti0 2.014776 1_655
O17 Ti0 2.014776 1_565
O18 Ti0 1.898991 1_556
O23 Ti0 1.898991 1_665
