# generated using pymatgen
data_Ba9Ge23O57
_symmetry_space_group_name_H-M   'P 1'
_cell_length_a   11.88670810
_cell_length_b   11.85920093
_cell_length_c   19.51114144
_cell_angle_alpha   90.00000000
_cell_angle_beta   90.00000000
_cell_angle_gamma   120.07676347
_symmetry_Int_Tables_number   1
_chemical_formula_structural   Ba9Ge23O57
_chemical_formula_sum   'Ba18 Ge46 O114'
_cell_volume   2380.09273641
_cell_formula_units_Z   2
loop_
 _symmetry_equiv_pos_site_id
 _symmetry_equiv_pos_as_xyz
  1  'x, y, z'
loop_
 _atom_site_type_symbol
 _atom_site_label
 _atom_site_symmetry_multiplicity
 _atom_site_fract_x
 _atom_site_fract_y
 _atom_site_fract_z
 _atom_site_occupancy
  Ba  Ba0  1  0.00053162  0.67861749  0.76202187  1
  Ba  Ba1  1  0.67783170  0.00000000  0.76218635  1
  Ba  Ba2  1  0.32191413  0.32138251  0.76202187  1
  Ba  Ba3  1  0.99946838  0.32138251  0.26202187  1
  Ba  Ba4  1  0.32216830  1.00000000  0.26218635  1
  Ba  Ba5  1  0.67808587  0.67861749  0.26202187  1
  Ba  Ba6  1  0.00002794  0.68347930  0.55173830  1
  Ba  Ba7  1  0.68372216  0.00000000  0.55170125  1
  Ba  Ba8  1  0.31654864  0.31652070  0.55173830  1
  Ba  Ba9  1  0.99997206  0.31652070  0.05173830  1
  Ba  Ba10  1  0.31627784  1.00000000  0.05170125  1
  Ba  Ba11  1  0.68345136  0.68347930  0.05173830  1
  Ba  Ba12  1  0.00039948  0.69549401  0.97043490  1
  Ba  Ba13  1  0.69460343  0.00000000  0.96976274  1
  Ba  Ba14  1  0.30490547  0.30450599  0.97043490  1
  Ba  Ba15  1  0.99960052  0.30450599  0.47043490  1
  Ba  Ba16  1  0.30539657  1.00000000  0.46976274  1
  Ba  Ba17  1  0.69509453  0.69549401  0.47043490  1
  Ge  Ge0  1  0.00020420  0.00000000  0.49813720  1
  Ge  Ge1  1  0.99979580  1.00000000  0.99813720  1
  Ge  Ge2  1  0.66677500  0.33337369  0.77263774  1
  Ge  Ge3  1  0.33340131  0.66662631  0.77263774  1
  Ge  Ge4  1  0.33322500  0.66662631  0.27263774  1
  Ge  Ge5  1  0.66659869  0.33337369  0.27263774  1
  Ge  Ge6  1  0.66683094  0.33334665  0.52288620  1
  Ge  Ge7  1  0.33348429  0.66665335  0.52288620  1
  Ge  Ge8  1  0.33316906  0.66665335  0.02288620  1
  Ge  Ge9  1  0.66651571  0.33334665  0.02288620  1
  Ge  Ge10  1  0.00004433  0.83771988  0.35407125  1
  Ge  Ge11  1  0.83780052  0.00000000  0.35458063  1
  Ge  Ge12  1  0.16232445  0.16228012  0.35407125  1
  Ge  Ge13  1  0.99995567  0.16228012  0.85407125  1
  Ge  Ge14  1  0.16219948  1.00000000  0.85458063  1
  Ge  Ge15  1  0.83767555  0.83771988  0.85407125  1
  Ge  Ge16  1  0.99897532  0.83343407  0.14390725  1
  Ge  Ge17  1  0.83319191  1.00000000  0.14266210  1
  Ge  Ge18  1  0.16554125  0.16656593  0.14390725  1
  Ge  Ge19  1  0.00102468  0.16656593  0.64390725  1
  Ge  Ge20  1  0.16680809  0.00000000  0.64266210  1
  Ge  Ge21  1  0.83445875  0.83343407  0.64390725  1
  Ge  Ge22  1  0.84809400  0.50991651  0.15030884  1
  Ge  Ge23  1  0.66199690  0.15189653  0.15002662  1
  Ge  Ge24  1  0.48875681  0.33702774  0.15004127  1
  Ge  Ge25  1  0.33817749  0.49008349  0.15030884  1
  Ge  Ge26  1  0.51010037  0.84810347  0.15002662  1
  Ge  Ge27  1  0.15172907  0.66297226  0.15004127  1
  Ge  Ge28  1  0.15190600  0.49008349  0.65030884  1
  Ge  Ge29  1  0.33800310  0.84810347  0.65002662  1
  Ge  Ge30  1  0.51124319  0.66297226  0.65004127  1
  Ge  Ge31  1  0.66182251  0.50991651  0.65030884  1
  Ge  Ge32  1  0.48989963  0.15189653  0.65002662  1
  Ge  Ge33  1  0.84827093  0.33702774  0.65004127  1
  Ge  Ge34  1  0.84537084  0.51495292  0.39123481  1
  Ge  Ge35  1  0.67002466  0.15500304  0.39112744  1
  Ge  Ge36  1  0.48497014  0.33008642  0.39126053  1
  Ge  Ge37  1  0.33041792  0.48504708  0.39123481  1
  Ge  Ge38  1  0.51502162  0.84499696  0.39112744  1
  Ge  Ge39  1  0.15488372  0.66991358  0.39126053  1
  Ge  Ge40  1  0.15462916  0.48504708  0.89123481  1
  Ge  Ge41  1  0.32997534  0.84499696  0.89112744  1
  Ge  Ge42  1  0.51502986  0.66991358  0.89126053  1
  Ge  Ge43  1  0.66958208  0.51495292  0.89123481  1
  Ge  Ge44  1  0.48497838  0.15500304  0.89112744  1
  Ge  Ge45  1  0.84511628  0.33008642  0.89126053  1
  O  O0  1  0.99983743  0.86795210  0.05091972  1
  O  O1  1  0.86670189  1.00000000  0.04962016  1
  O  O2  1  0.13188533  0.13204790  0.05091972  1
  O  O3  1  0.00016257  0.13204790  0.55091972  1
  O  O4  1  0.13329811  0.00000000  0.54962016  1
  O  O5  1  0.86811467  0.86795210  0.55091972  1
  O  O6  1  0.00012832  0.86523437  0.83197239  1
  O  O7  1  0.86563256  1.00000000  0.83088844  1
  O  O8  1  0.13489395  0.13476563  0.83197239  1
  O  O9  1  0.99987168  0.13476563  0.33197239  1
  O  O10  1  0.13436744  0.00000000  0.33088844  1
  O  O11  1  0.86510605  0.86523437  0.33197239  1
  O  O12  1  0.99943869  0.85823183  0.44805306  1
  O  O13  1  0.85826596  0.00000000  0.44845670  1
  O  O14  1  0.14120686  0.14176817  0.44805306  1
  O  O15  1  0.00056131  0.14176817  0.94805306  1
  O  O16  1  0.14173404  1.00000000  0.94845670  1
  O  O17  1  0.85879314  0.85823183  0.94805306  1
  O  O18  1  0.00142735  0.85589563  0.66110563  1
  O  O19  1  0.85634036  0.00000000  0.66438192  1
  O  O20  1  0.14553172  0.14410437  0.66110563  1
  O  O21  1  0.99857265  0.14410437  0.16110563  1
  O  O22  1  0.14365964  1.00000000  0.16438192  1
  O  O23  1  0.85446828  0.85589563  0.16110563  1
  O  O24  1  0.86104957  0.65964208  0.35697978  1
  O  O25  1  0.79930478  0.13966885  0.35767273  1
  O  O26  1  0.34007147  0.19994916  0.35850737  1
  O  O27  1  0.20140750  0.34035792  0.35697978  1
  O  O28  1  0.65963593  0.86033115  0.35767273  1
  O  O29  1  0.14012232  0.80005084  0.35850737  1
  O  O30  1  0.13895043  0.34035792  0.85697978  1
  O  O31  1  0.20069522  0.86033115  0.85767273  1
  O  O32  1  0.65992853  0.80005084  0.85850737  1
  O  O33  1  0.79859250  0.65964208  0.85697978  1
  O  O34  1  0.34036407  0.13966885  0.85767273  1
  O  O35  1  0.85987768  0.19994916  0.85850737  1
  O  O36  1  0.74691733  0.48368212  0.71668935  1
  O  O37  1  0.73580053  0.25286247  0.71621481  1
  O  O38  1  0.51694331  0.26404601  0.71628498  1
  O  O39  1  0.26323520  0.51631788  0.71668935  1
  O  O40  1  0.48293806  0.74713753  0.71621481  1
  O  O41  1  0.25289729  0.73595399  0.71628498  1
  O  O42  1  0.25308267  0.51631788  0.21668935  1
  O  O43  1  0.26419947  0.74713753  0.21621481  1
  O  O44  1  0.48305669  0.73595399  0.21628498  1
  O  O45  1  0.73676480  0.48368212  0.21668935  1
  O  O46  1  0.51706194  0.25286247  0.21621481  1
  O  O47  1  0.74710271  0.26404601  0.21628498  1
  O  O48  1  0.00640519  0.79670360  0.23771667  1
  O  O49  1  0.79574413  1.00000000  0.23765499  1
  O  O50  1  0.20970159  0.20329640  0.23771667  1
  O  O51  1  0.99359481  0.20329640  0.73771667  1
  O  O52  1  0.20425587  0.00000000  0.73765499  1
  O  O53  1  0.79029841  0.79670360  0.73771667  1
  O  O54  1  0.99994751  0.55010388  0.42947781  1
  O  O55  1  0.55049586  0.00000000  0.42948916  1
  O  O56  1  0.44984363  0.44989612  0.42947781  1
  O  O57  1  0.00005249  0.44989612  0.92947781  1
  O  O58  1  0.44950414  1.00000000  0.92948916  1
  O  O59  1  0.55015637  0.55010388  0.92947781  1
  O  O60  1  0.00006201  0.52975417  0.18245495  1
  O  O61  1  0.52953369  1.00000000  0.18249277  1
  O  O62  1  0.47030785  0.47024583  0.18245495  1
  O  O63  1  0.99993799  0.47024583  0.68245495  1
  O  O64  1  0.47046631  0.00000000  0.68249277  1
  O  O65  1  0.52969215  0.52975417  0.68245495  1
  O  O66  1  0.74866333  0.48931473  0.46619874  1
  O  O67  1  0.74069293  0.25197242  0.46616145  1
  O  O68  1  0.51162443  0.25966397  0.46625279  1
  O  O69  1  0.25934860  0.51068527  0.46619874  1
  O  O70  1  0.48872051  0.74802758  0.46616145  1
  O  O71  1  0.25196046  0.74033603  0.46625279  1
  O  O72  1  0.25133667  0.51068527  0.96619874  1
  O  O73  1  0.25930707  0.74802758  0.96616145  1
  O  O74  1  0.48837557  0.74033603  0.96625279  1
  O  O75  1  0.74065140  0.48931473  0.96619874  1
  O  O76  1  0.51127949  0.25197242  0.96616145  1
  O  O77  1  0.74803954  0.25966397  0.96625279  1
  O  O78  1  0.87107059  0.65680421  0.11536045  1
  O  O79  1  0.78473741  0.12864768  0.11436174  1
  O  O80  1  0.34284998  0.21444078  0.11386925  1
  O  O81  1  0.21426637  0.34319579  0.11536045  1
  O  O82  1  0.65608972  0.87135232  0.11436174  1
  O  O83  1  0.12840920  0.78555922  0.11386925  1
  O  O84  1  0.12892941  0.34319579  0.61536045  1
  O  O85  1  0.21526259  0.87135232  0.61436174  1
  O  O86  1  0.65715002  0.78555922  0.61386925  1
  O  O87  1  0.78573363  0.65680421  0.61536045  1
  O  O88  1  0.34391028  0.12864768  0.61436174  1
  O  O89  1  0.87159080  0.21444078  0.61386925  1
  O  O90  1  0.81721933  0.42422306  0.83111265  1
  O  O91  1  0.60683293  0.18273240  0.83102617  1
  O  O92  1  0.57580566  0.39279650  0.83108159  1
  O  O93  1  0.39299627  0.57577694  0.83111265  1
  O  O94  1  0.42410053  0.81726760  0.83102617  1
  O  O95  1  0.18300915  0.60720350  0.83108159  1
  O  O96  1  0.18278067  0.57577694  0.33111265  1
  O  O97  1  0.39316707  0.81726760  0.33102617  1
  O  O98  1  0.42419434  0.60720350  0.33108159  1
  O  O99  1  0.60700373  0.42422306  0.33111265  1
  O  O100  1  0.57589947  0.18273240  0.33102617  1
  O  O101  1  0.81699085  0.39279650  0.33108159  1
  O  O102  1  0.81994782  0.41488567  0.57907520  1
  O  O103  1  0.59491423  0.17983947  0.57879192  1
  O  O104  1  0.58530343  0.40542584  0.57877453  1
  O  O105  1  0.40506214  0.58511433  0.57907520  1
  O  O106  1  0.41507476  0.82016053  0.57879192  1
  O  O107  1  0.17987760  0.59457416  0.57877453  1
  O  O108  1  0.18005218  0.58511433  0.07907520  1
  O  O109  1  0.40508577  0.82016053  0.07879192  1
  O  O110  1  0.41469657  0.59457416  0.07877453  1
  O  O111  1  0.59493786  0.41488567  0.07907520  1
  O  O112  1  0.58492524  0.17983947  0.07879192  1
  O  O113  1  0.82012240  0.40542584  0.07877453  1
loop_
_geom_bond_atom_site_label_1
_geom_bond_atom_site_label_2
_geom_bond_distance
_geom_bond_site_symmetry_2
Ba0 O6 2.602174 1_555
Ba0 O41 2.865831 1_555
Ba0 O36 2.868683 1_455
Ba0 O18 2.876559 1_555
Ba0 O63 2.915319 1_455
Ba0 O31 2.940858 1_555
Ba0 O33 2.950209 1_455
Ba0 O90 3.012954 1_455
Ba0 O95 3.013123 1_555
Ba1 O7 2.603870 1_545
Ba1 O19 2.853751 1_555
Ba1 O40 2.863688 1_545
Ba1 O37 2.863688 1_555
Ba1 O64 2.914352 1_555
Ba1 O35 2.948585 1_555
Ba1 O32 2.948585 1_545
Ba1 O94 3.007580 1_545
Ba1 O91 3.007580 1_555
Ba2 O8 2.602173 1_555
Ba2 O38 2.865831 1_555
Ba2 O39 2.868684 1_555
Ba2 O20 2.876559 1_555
Ba2 O65 2.915319 1_555
Ba2 O34 2.940859 1_555
Ba2 O30 2.950209 1_555
Ba2 O93 3.012954 1_555
Ba2 O92 3.013123 1_555
Ba3 O9 2.602174 1_555
Ba3 O47 2.865831 1_555
Ba3 O42 2.868683 1_655
Ba3 O21 2.876559 1_555
Ba3 O60 2.915319 1_655
Ba3 O25 2.940858 1_555
Ba3 O27 2.950209 1_655
Ba3 O96 3.012954 1_655
Ba3 O101 3.013123 1_555
Ba4 O10 2.603870 1_565
Ba4 O22 2.853751 1_555
Ba4 O46 2.863688 1_565
Ba4 O43 2.863688 1_555
Ba4 O61 2.914352 1_555
Ba4 O29 2.948585 1_555
Ba4 O26 2.948585 1_565
Ba4 O100 3.007580 1_565
Ba4 O97 3.007580 1_555
Ba5 O11 2.602173 1_555
Ba5 O44 2.865831 1_555
Ba5 O45 2.868684 1_555
Ba5 O23 2.876559 1_555
Ba5 O62 2.915319 1_555
Ba5 O28 2.940859 1_555
Ba5 O24 2.950209 1_555
Ba5 O99 3.012954 1_555
Ba5 O98 3.013123 1_555
Ba6 O85 2.699837 1_555
Ba6 O87 2.705887 1_455
Ba6 O102 2.859808 1_455
Ba6 O54 2.861935 1_455
Ba6 O107 2.866951 1_555
Ba6 O12 2.898645 1_455
Ba6 O18 2.949663 1_555
Ba6 O66 3.181060 1_455
Ba6 O71 3.190709 1_555
Ba6 O4 3.262083 1_565
Ba6 O5 3.268525 1_455
Ba7 O89 2.689476 1_555
Ba7 O86 2.689476 1_545
Ba7 O55 2.862462 1_555
Ba7 O106 2.863391 1_545
Ba7 O103 2.863391 1_555
Ba7 O13 2.891795 1_555
Ba8 O88 2.699838 1_555
Ba8 O84 2.705887 1_555
Ba8 O105 2.859808 1_555
Ba8 O56 2.861935 1_555
Ba8 O104 2.866951 1_555
Ba8 O14 2.898645 1_555
Ba8 O20 2.949663 1_555
Ba8 O69 3.181060 1_555
Ba8 O68 3.190709 1_555
Ba8 O4 3.262083 1_555
Ba8 O3 3.268525 1_555
Ba9 O79 2.699837 1_555
Ba9 O81 2.705887 1_655
Ba9 O108 2.859808 1_655
Ba9 O57 2.861935 1_654
Ba9 O113 2.866951 1_555
Ba9 O15 2.898645 1_654
Ba9 O21 2.949663 1_555
Ba9 O72 3.181060 1_654
Ba9 O77 3.190709 1_554
Ba9 O1 3.262083 1_545
Ba9 O2 3.268525 1_655
Ba10 O83 2.689476 1_555
Ba10 O80 2.689476 1_565
Ba10 O58 2.862462 1_554
Ba10 O112 2.863391 1_565
Ba10 O109 2.863391 1_555
Ba10 O16 2.891795 1_554
Ba11 O82 2.699838 1_555
Ba11 O78 2.705887 1_555
Ba11 O111 2.859808 1_555
Ba11 O59 2.861935 1_554
Ba11 O110 2.866951 1_555
Ba11 O17 2.898645 1_554
Ba11 O23 2.949663 1_555
Ba11 O75 3.181060 1_554
Ba11 O74 3.190709 1_554
Ba11 O1 3.262083 1_555
Ba11 O0 3.268525 1_555
Ba12 O0 2.581210 1_456
Ba12 O73 2.818629 1_555
Ba12 O75 2.819835 1_455
Ba12 O57 3.018241 1_555
Ba12 O83 3.107913 1_556
Ba12 O31 3.108924 1_555
Ba12 O33 3.132575 1_455
Ba12 O78 3.140459 1_456
Ba12 O16 3.156921 1_555
Ba12 O17 3.163024 1_455
Ba12 O6 3.370023 1_555
Ba13 O1 2.571484 1_546
Ba13 O74 2.816093 1_545
Ba13 O77 2.816093 1_555
Ba13 O58 3.017531 1_545
Ba13 O35 3.086268 1_555
Ba13 O32 3.086268 1_545
Ba13 O79 3.129989 1_556
Ba13 O82 3.129989 1_546
Ba13 O15 3.178673 1_655
Ba13 O17 3.178673 1_545
Ba13 O7 3.387461 1_545
Ba14 O2 2.581210 1_556
Ba14 O76 2.818630 1_555
Ba14 O72 2.819835 1_555
Ba14 O59 3.018240 1_555
Ba14 O80 3.107913 1_556
Ba14 O34 3.108924 1_555
Ba14 O30 3.132575 1_555
Ba14 O81 3.140459 1_556
Ba14 O16 3.156921 1_545
Ba14 O15 3.163024 1_555
Ba14 O8 3.370023 1_555
Ba15 O3 2.581210 1_655
Ba15 O67 2.818629 1_555
Ba15 O69 2.819835 1_655
Ba15 O54 3.018241 1_555
Ba15 O89 3.107913 1_555
Ba15 O25 3.108924 1_555
Ba15 O27 3.132575 1_655
Ba15 O84 3.140459 1_655
Ba15 O13 3.156921 1_555
Ba15 O14 3.163024 1_655
Ba15 O9 3.370023 1_555
Ba16 O4 2.571484 1_565
Ba16 O68 2.816093 1_565
Ba16 O71 2.816093 1_555
Ba16 O55 3.017531 1_565
Ba16 O29 3.086268 1_555
Ba16 O26 3.086268 1_565
Ba16 O85 3.129989 1_555
Ba16 O88 3.129989 1_565
Ba16 O12 3.178673 1_455
Ba16 O14 3.178673 1_565
Ba16 O10 3.387461 1_565
Ba17 O5 2.581210 1_555
Ba17 O70 2.818630 1_555
Ba17 O66 2.819835 1_555
Ba17 O56 3.018240 1_555
Ba17 O86 3.107913 1_555
Ba17 O28 3.108924 1_555
Ba17 O24 3.132575 1_555
Ba17 O87 3.140459 1_555
Ba17 O13 3.156921 1_565
Ba17 O12 3.163024 1_555
Ba17 O11 3.370023 1_555
Ge0 O4 1.874001 1_555
Ge0 O5 1.874477 1_445
Ge0 O3 1.874477 1_555
Ge0 O14 1.940694 1_555
Ge0 O12 1.940694 1_445
Ge0 O13 1.945805 1_455
Ge1 O1 1.874001 1_556
Ge1 O2 1.874477 1_666
Ge1 O0 1.874477 1_556
Ge1 O17 1.940694 1_555
Ge1 O15 1.940694 1_665
Ge1 O16 1.945805 1_655
Ge2 O36 1.890644 1_555
Ge2 O37 1.892613 1_555
Ge2 O38 1.894511 1_555
Ge2 O91 1.929039 1_555
Ge2 O90 1.931133 1_555
Ge2 O92 1.931311 1_555
Ge3 O39 1.890644 1_555
Ge3 O40 1.892612 1_555
Ge3 O41 1.894512 1_555
Ge3 O94 1.929039 1_555
Ge3 O93 1.931133 1_555
Ge3 O95 1.931311 1_555
Ge4 O42 1.890644 1_555
Ge4 O43 1.892613 1_555
Ge4 O44 1.894511 1_555
Ge4 O97 1.929039 1_555
Ge4 O96 1.931133 1_555
Ge4 O98 1.931311 1_555
Ge5 O45 1.890644 1_555
Ge5 O46 1.892612 1_555
Ge5 O47 1.894512 1_555
Ge5 O100 1.929039 1_555
Ge5 O99 1.931133 1_555
Ge5 O101 1.931311 1_555
Ge6 O103 1.916992 1_555
Ge6 O102 1.919769 1_555
Ge6 O104 1.920730 1_555
Ge6 O68 1.942251 1_555
Ge6 O67 1.943271 1_555
Ge6 O66 1.946114 1_555
Ge7 O106 1.916992 1_555
Ge7 O105 1.919769 1_555
Ge7 O107 1.920730 1_555
Ge7 O71 1.942251 1_555
Ge7 O70 1.943270 1_555
Ge7 O69 1.946114 1_555
Ge8 O109 1.916992 1_555
Ge8 O108 1.919769 1_555
Ge8 O110 1.920730 1_555
Ge8 O74 1.942251 1_554
Ge8 O73 1.943271 1_554
Ge8 O72 1.946114 1_554
Ge9 O112 1.916992 1_555
Ge9 O111 1.919769 1_555
Ge9 O113 1.920730 1_555
Ge9 O77 1.942251 1_554
Ge9 O76 1.943270 1_554
Ge9 O75 1.946114 1_554
Ge10 O10 1.837865 1_565
Ge10 O11 1.841113 1_455
Ge10 O12 1.850245 1_455
Ge10 O24 1.922399 1_455
Ge10 O29 1.930039 1_555
Ge10 O48 2.330889 1_555
Ge11 O9 1.836886 1_555
Ge11 O11 1.836886 1_545
Ge11 O13 1.847713 1_555
Ge11 O28 1.927757 1_545
Ge11 O25 1.927757 1_555
Ge11 O49 2.335483 1_545
Ge12 O10 1.837865 1_555
Ge12 O9 1.841113 1_455
Ge12 O14 1.850245 1_555
Ge12 O27 1.922399 1_555
Ge12 O26 1.930039 1_555
Ge12 O50 2.330889 1_555
Ge13 O7 1.837865 1_545
Ge13 O8 1.841113 1_655
Ge13 O15 1.850245 1_655
Ge13 O30 1.922399 1_655
Ge13 O35 1.930039 1_555
Ge13 O51 2.330889 1_555
Ge14 O6 1.836886 1_555
Ge14 O8 1.836886 1_565
Ge14 O16 1.847713 1_555
Ge14 O34 1.927757 1_565
Ge14 O31 1.927757 1_555
Ge14 O52 2.335483 1_565
Ge15 O7 1.837865 1_555
Ge15 O6 1.841113 1_655
Ge15 O17 1.850245 1_555
Ge15 O33 1.922399 1_555
Ge15 O32 1.930039 1_555
Ge15 O53 2.330889 1_555
Ge16 O0 1.858798 1_555
Ge16 O48 1.893728 1_655
Ge16 O23 1.895446 1_555
Ge16 O22 1.901111 1_655
Ge16 O78 1.953812 1_555
Ge16 O83 1.976991 1_655
Ge17 O1 1.858541 1_555
Ge17 O21 1.883406 1_565
Ge17 O23 1.883406 1_555
Ge17 O49 1.906123 1_555
Ge17 O82 1.960874 1_555
Ge17 O79 1.960874 1_565
Ge18 O2 1.858798 1_555
Ge18 O50 1.893728 1_555
Ge18 O21 1.895446 1_455
Ge18 O22 1.901112 1_545
Ge18 O81 1.953812 1_555
Ge18 O80 1.976991 1_555
Ge19 O3 1.858798 1_555
Ge19 O51 1.893728 1_455
Ge19 O20 1.895446 1_555
Ge19 O19 1.901111 1_455
Ge19 O84 1.953812 1_555
Ge19 O89 1.976991 1_455
Ge20 O4 1.858541 1_555
Ge20 O18 1.883406 1_545
Ge20 O20 1.883406 1_555
Ge20 O52 1.906123 1_555
Ge20 O88 1.960874 1_555
Ge20 O85 1.960874 1_545
Ge21 O5 1.858798 1_555
Ge21 O53 1.893728 1_555
Ge21 O18 1.895446 1_655
Ge21 O19 1.901112 1_565
Ge21 O87 1.953812 1_555
Ge21 O86 1.976991 1_555
Ge22 O78 1.759874 1_555
Ge22 O45 1.764309 1_555
Ge22 O113 1.783581 1_555
Ge22 O60 1.812693 1_655
Ge23 O79 1.758425 1_555
Ge23 O47 1.764931 1_555
Ge23 O112 1.784695 1_555
Ge23 O61 1.811762 1_545
Ge24 O80 1.758504 1_555
Ge24 O46 1.764390 1_555
Ge24 O111 1.787363 1_555
Ge24 O62 1.814188 1_555
Ge25 O81 1.759874 1_555
Ge25 O42 1.764309 1_555
Ge25 O110 1.783581 1_555
Ge25 O62 1.812694 1_555
Ge26 O82 1.758425 1_555
Ge26 O44 1.764931 1_555
Ge26 O109 1.784695 1_555
Ge26 O61 1.811762 1_555
Ge27 O83 1.758504 1_555
Ge27 O43 1.764390 1_555
Ge27 O108 1.787363 1_555
Ge27 O60 1.814188 1_555
Ge28 O84 1.759874 1_555
Ge28 O39 1.764309 1_555
Ge28 O107 1.783581 1_555
Ge28 O63 1.812693 1_455
Ge29 O85 1.758425 1_555
Ge29 O41 1.764931 1_555
Ge29 O106 1.784695 1_555
Ge29 O64 1.811762 1_565
Ge30 O86 1.758504 1_555
Ge30 O40 1.764390 1_555
Ge30 O105 1.787363 1_555
Ge30 O65 1.814188 1_555
Ge31 O87 1.759874 1_555
Ge31 O36 1.764309 1_555
Ge31 O104 1.783581 1_555
Ge31 O65 1.812694 1_555
Ge32 O88 1.758425 1_555
Ge32 O38 1.764931 1_555
Ge32 O103 1.784695 1_555
Ge32 O64 1.811762 1_555
Ge33 O89 1.758504 1_555
Ge33 O37 1.764390 1_555
Ge33 O102 1.787363 1_555
Ge33 O63 1.814188 1_555
Ge34 O101 1.760711 1_555
Ge34 O24 1.762159 1_555
Ge34 O66 1.789648 1_555
Ge34 O54 1.827260 1_555
Ge35 O25 1.760890 1_555
Ge35 O100 1.761765 1_555
Ge35 O67 1.789729 1_555
Ge35 O55 1.827603 1_555
Ge36 O26 1.758536 1_555
Ge36 O99 1.761976 1_555
Ge36 O68 1.789969 1_555
Ge36 O56 1.828604 1_555
Ge37 O98 1.760711 1_555
Ge37 O27 1.762159 1_555
Ge37 O69 1.789648 1_555
Ge37 O56 1.827260 1_555
Ge38 O28 1.760890 1_555
Ge38 O97 1.761765 1_555
Ge38 O70 1.789729 1_555
Ge38 O55 1.827603 1_565
Ge39 O29 1.758536 1_555
Ge39 O96 1.761976 1_555
Ge39 O71 1.789969 1_555
Ge39 O54 1.828604 1_455
Ge40 O95 1.760711 1_555
Ge40 O30 1.762159 1_555
Ge40 O72 1.789648 1_555
Ge40 O57 1.827260 1_555
Ge41 O31 1.760890 1_555
Ge41 O94 1.761765 1_555
Ge41 O73 1.789729 1_555
Ge41 O58 1.827603 1_555
Ge42 O32 1.758536 1_555
Ge42 O93 1.761976 1_555
Ge42 O74 1.789969 1_555
Ge42 O59 1.828604 1_555
Ge43 O92 1.760711 1_555
Ge43 O33 1.762159 1_555
Ge43 O75 1.789648 1_555
Ge43 O59 1.827260 1_555
Ge44 O34 1.760890 1_555
Ge44 O91 1.761765 1_555
Ge44 O76 1.789729 1_555
Ge44 O58 1.827603 1_545
Ge45 O35 1.758536 1_555
Ge45 O90 1.761976 1_555
Ge45 O77 1.789969 1_555
Ge45 O57 1.828604 1_655
