# generated using pymatgen
data_Cu12Sb3AsS16
_symmetry_space_group_name_H-M   'P 1'
_cell_length_a   6.57436822
_cell_length_b   6.57436822
_cell_length_c   15.27552200
_cell_angle_alpha   90.00000000
_cell_angle_beta   90.00000000
_cell_angle_gamma   109.11719854
_symmetry_Int_Tables_number   1
_chemical_formula_structural   Cu12Sb3AsS16
_chemical_formula_sum   'Cu12 Sb3 As1 S16'
_cell_volume   623.83146259
_cell_formula_units_Z   1
loop_
 _symmetry_equiv_pos_site_id
 _symmetry_equiv_pos_as_xyz
  1  'x, y, z'
loop_
 _atom_site_type_symbol
 _atom_site_label
 _atom_site_symmetry_multiplicity
 _atom_site_fract_x
 _atom_site_fract_y
 _atom_site_fract_z
 _atom_site_occupancy
  Cu  Cu0  1  0.00050800  0.99949200  0.00000000  1
  Cu  Cu1  1  0.49961500  0.50038400  0.74832200  1
  Cu  Cu2  1  0.00311500  0.99688500  0.50000000  1
  Cu  Cu3  1  0.49961500  0.50038400  0.25167800  1
  Cu  Cu4  1  0.99988900  0.50022500  0.87497700  1
  Cu  Cu5  1  0.49725400  0.99741800  0.62336900  1
  Cu  Cu6  1  0.00258200  0.50274600  0.37663100  1
  Cu  Cu7  1  0.49977500  0.00011100  0.12502300  1
  Cu  Cu8  1  0.49977500  0.00011100  0.87497700  1
  Cu  Cu9  1  0.00258200  0.50274600  0.62336900  1
  Cu  Cu10  1  0.49725400  0.99741800  0.37663100  1
  Cu  Cu11  1  0.99988900  0.50022500  0.12502300  1
  Sb  Sb0  1  0.99999200  0.00000800  0.25034200  1
  Sb  Sb1  1  0.50014100  0.49985900  0.00000000  1
  Sb  Sb2  1  0.99999200  0.00000800  0.74965800  1
  As  As0  1  0.50003400  0.49996600  0.50000000  1
  S  S0  1  0.86660900  0.13339100  0.61809900  1
  S  S1  1  0.37281800  0.62718200  0.37601300  1
  S  S2  1  0.86661700  0.13338300  0.11785600  1
  S  S3  1  0.36646200  0.63353800  0.86708600  1
  S  S4  1  0.86660900  0.13339100  0.38190100  1
  S  S5  1  0.36646200  0.63353800  0.13291400  1
  S  S6  1  0.86661700  0.13338300  0.88214400  1
  S  S7  1  0.37281800  0.62718200  0.62398700  1
  S  S8  1  0.86920600  0.60172100  0.25052000  1
  S  S9  1  0.36820400  0.10114300  0.00000000  1
  S  S10  1  0.86920600  0.60172100  0.74948000  1
  S  S11  1  0.37489900  0.12395700  0.50000000  1
  S  S12  1  0.39827900  0.13079400  0.25052000  1
  S  S13  1  0.89885700  0.63179600  0.00000000  1
  S  S14  1  0.39827900  0.13079400  0.74948000  1
  S  S15  1  0.87604300  0.62510100  0.50000000  1
loop_
_geom_bond_atom_site_label_1
_geom_bond_atom_site_label_2
_geom_bond_distance
_geom_bond_site_symmetry_2
Cu0 S9 2.287384 1_565
Cu0 S13 2.287384 1_455
Cu0 S6 2.301808 1_464
Cu0 S2 2.301808 1_465
Cu1 S14 2.299538 1_555
Cu1 S10 2.299544 1_555
Cu1 S3 2.307781 1_555
Cu1 S7 2.335008 1_555
Cu2 S11 2.309710 1_565
Cu2 S15 2.309710 1_455
Cu2 S0 2.322249 1_465
Cu2 S4 2.322249 1_465
Cu3 S12 2.299538 1_555
Cu3 S8 2.299544 1_555
Cu3 S5 2.307781 1_555
Cu3 S1 2.335008 1_555
Cu4 S3 2.281931 1_655
Cu4 S6 2.283009 1_555
Cu4 S13 2.283209 1_556
Cu4 S10 2.287777 1_555
Cu5 S14 2.297191 1_565
Cu5 S0 2.297889 1_565
Cu5 S7 2.299945 1_555
Cu5 S11 2.308444 1_565
Cu6 S8 2.297191 1_455
Cu6 S4 2.297889 1_455
Cu6 S1 2.299945 1_555
Cu6 S15 2.308444 1_455
Cu7 S5 2.281931 1_545
Cu7 S2 2.283009 1_555
Cu7 S9 2.283209 1_555
Cu7 S12 2.287777 1_555
Cu8 S3 2.281931 1_545
Cu8 S6 2.283009 1_555
Cu8 S9 2.283209 1_556
Cu8 S14 2.287777 1_555
Cu9 S10 2.297191 1_455
Cu9 S0 2.297889 1_455
Cu9 S7 2.299945 1_555
Cu9 S15 2.308444 1_455
Cu10 S12 2.297191 1_565
Cu10 S4 2.297889 1_565
Cu10 S1 2.299945 1_555
Cu10 S11 2.308444 1_565
Cu11 S5 2.281931 1_655
Cu11 S2 2.283009 1_555
Cu11 S13 2.283209 1_555
Cu11 S8 2.287777 1_555
As0 S7 2.333302 1_555
As0 S1 2.333302 1_555
As0 S15 2.335728 1_555
As0 S11 2.335728 1_555
S0 Sb2 2.465814 1_555
S2 Sb0 2.477319 1_555
S3 Sb1 2.484538 1_556
S4 Sb0 2.465814 1_555
S5 Sb1 2.484538 1_555
S6 Sb2 2.477319 1_555
S8 Sb0 2.474080 1_565
S9 Sb1 2.476759 1_555
S10 Sb2 2.474080 1_565
S12 Sb0 2.474080 1_455
S13 Sb1 2.476759 1_555
S14 Sb2 2.474080 1_455
