# generated using pymatgen
data_Li2TiFeO4
_symmetry_space_group_name_H-M   'P 1'
_cell_length_a   6.00007934
_cell_length_b   8.60027877
_cell_length_c   5.99964733
_cell_angle_alpha   89.95787808
_cell_angle_beta   89.95747781
_cell_angle_gamma   90.00098422
_symmetry_Int_Tables_number   1
_chemical_formula_structural   Li2TiFeO4
_chemical_formula_sum   'Li8 Ti4 Fe4 O16'
_cell_volume   309.59576186
_cell_formula_units_Z   4
loop_
 _symmetry_equiv_pos_site_id
 _symmetry_equiv_pos_as_xyz
  1  'x, y, z'
loop_
 _atom_site_type_symbol
 _atom_site_label
 _atom_site_symmetry_multiplicity
 _atom_site_fract_x
 _atom_site_fract_y
 _atom_site_fract_z
 _atom_site_occupancy
  Li  Li0  1  0.24953400  0.24804100  0.74617100  1
  Li  Li1  1  0.75015300  0.74807500  0.24599200  1
  Li  Li2  1  0.25031900  0.24790300  0.24780300  1
  Li  Li3  1  0.74981500  0.74787400  0.74758700  1
  Li  Li4  1  0.50403300  0.48883300  0.99282200  1
  Li  Li5  1  0.99489200  0.00327600  0.50037100  1
  Li  Li6  1  0.49590000  0.98846300  0.49408900  1
  Li  Li7  1  0.00515500  0.50350400  0.99846000  1
  Ti  Ti0  1  0.47643200  0.50415600  0.49265600  1
  Ti  Ti1  1  0.02362500  0.99221400  0.00051600  1
  Ti  Ti2  1  0.52345500  0.00418900  0.99314300  1
  Ti  Ti3  1  0.97625800  0.49226000  0.49916300  1
  Fe  Fe0  1  0.25007600  0.74789100  0.24621200  1
  Fe  Fe1  1  0.75026200  0.24801700  0.24626000  1
  Fe  Fe2  1  0.74973600  0.24797900  0.74632800  1
  Fe  Fe3  1  0.24996700  0.74787600  0.74636700  1
  O  O0  1  0.49022100  0.22601700  0.99620900  1
  O  O1  1  0.01689900  0.72586000  0.49651800  1
  O  O2  1  0.50962900  0.72604100  0.49578900  1
  O  O3  1  0.98307400  0.22584400  0.99638200  1
  O  O4  1  0.51679200  0.27119700  0.49604500  1
  O  O5  1  0.99045100  0.77083200  0.99685100  1
  O  O6  1  0.48334300  0.77105500  0.99620300  1
  O  O7  1  0.00938800  0.27090100  0.49663200  1
  O  O8  1  0.24234500  0.00249700  0.76757800  1
  O  O9  1  0.75746000  0.50256800  0.26673600  1
  O  O10  1  0.24209800  0.00245200  0.22931200  1
  O  O11  1  0.75787900  0.50252200  0.72860700  1
  O  O12  1  0.74187200  0.99378700  0.76387200  1
  O  O13  1  0.25783500  0.49372300  0.26348700  1
  O  O14  1  0.74237600  0.99385000  0.22589800  1
  O  O15  1  0.25764600  0.49391000  0.72556900  1
loop_
_geom_bond_atom_site_label_1
_geom_bond_atom_site_label_2
_geom_bond_distance
_geom_bond_site_symmetry_2
Li0 O7 2.087835 1_555
Li0 O0 2.091566 1_555
Li0 O8 2.115992 1_555
Li0 O15 2.118617 1_555
Li0 O3 2.200474 1_455
Li0 O4 2.204331 1_555
Li1 O5 2.085132 1_554
Li1 O2 2.088319 1_555
Li1 O9 2.115459 1_555
Li1 O14 2.117597 1_555
Li1 O6 2.202489 1_554
Li1 O1 2.204646 1_655
Li2 O7 2.086826 1_555
Li2 O0 2.093587 1_554
Li2 O10 2.114518 1_555
Li2 O13 2.116764 1_555
Li2 O4 2.195143 1_555
Li2 O3 2.210556 1_454
Li3 O5 2.088967 1_555
Li3 O2 2.097136 1_555
Li3 O11 2.113802 1_555
Li3 O12 2.117783 1_555
Li3 O6 2.194967 1_555
Li3 O1 2.206761 1_655
Li4 O15 2.182152 1_555
Li4 O13 2.194877 1_556
Li4 O11 2.200606 1_555
Li4 O9 2.242952 1_556
Li4 O0 2.261884 1_555
Li4 O6 2.430461 1_555
Li5 O8 2.185884 1_655
Li5 O12 2.192473 1_545
Li5 O10 2.200284 1_655
Li5 O14 2.240045 1_545
Li5 O7 2.303383 1_655
Li5 O1 2.389636 1_645
Li6 O14 2.185091 1_555
Li6 O12 2.191749 1_555
Li6 O10 2.204622 1_565
Li6 O8 2.240092 1_565
Li6 O2 2.258422 1_555
Li6 O4 2.434855 1_565
Li7 O9 2.189964 1_456
Li7 O11 2.196858 1_455
Li7 O13 2.199395 1_556
Li7 O15 2.231376 1_555
Li7 O5 2.300802 1_455
Li7 O3 2.391666 1_455
Fe0 O6 2.060329 1_554
Fe0 O1 2.060346 1_555
Fe0 O2 2.169286 1_555
Fe0 O5 2.169530 1_454
Fe0 O13 2.188793 1_555
Fe0 O10 2.192093 1_565
Fe1 O3 2.057311 1_554
Fe1 O4 2.060410 1_555
Fe1 O7 2.171725 1_655
Fe1 O0 2.173653 1_554
Fe1 O14 2.189920 1_545
Fe1 O9 2.193170 1_555
Fe2 O3 2.061500 1_555
Fe2 O4 2.061772 1_555
Fe2 O0 2.168864 1_555
Fe2 O7 2.169418 1_655
Fe2 O12 2.189083 1_545
Fe2 O11 2.192185 1_555
Fe3 O1 2.059608 1_555
Fe3 O6 2.061756 1_555
Fe3 O5 2.172330 1_455
Fe3 O2 2.172488 1_555
Fe3 O15 2.188315 1_555
Fe3 O8 2.194075 1_565
O0 Ti2 1.918279 1_555
O1 Ti3 2.023815 1_455
O2 Ti0 1.918744 1_555
O3 Ti1 2.024101 1_646
O4 Ti0 2.018188 1_555
O5 Ti1 1.914464 1_656
O6 Ti2 2.019475 1_565
O7 Ti3 1.914173 1_455
O8 Ti1 1.918405 1_546
O8 Ti2 2.163325 1_555
O9 Ti3 1.917924 1_555
O9 Ti0 2.162702 1_555
O10 Ti1 1.900850 1_545
O10 Ti2 2.203232 1_554
O11 Ti3 1.901878 1_555
O11 Ti0 2.204411 1_555
O12 Ti2 1.901341 1_565
O12 Ti1 2.208489 1_656
O13 Ti0 1.903060 1_555
O13 Ti3 2.202331 1_455
O14 Ti2 1.919873 1_564
O14 Ti1 2.161719 1_655
O15 Ti0 1.918552 1_555
O15 Ti3 2.167785 1_455
