# generated using pymatgen
data_Ba4Sr4Co3(CuO4)5
_symmetry_space_group_name_H-M   'P 1'
_cell_length_a   11.28660032
_cell_length_b   11.24360642
_cell_length_c   17.92472156
_cell_angle_alpha   107.96897989
_cell_angle_beta   108.20460132
_cell_angle_gamma   90.46605523
_symmetry_Int_Tables_number   1
_chemical_formula_structural   Ba4Sr4Co3(CuO4)5
_chemical_formula_sum   'Ba16 Sr16 Co12 Cu20 O80'
_cell_volume   2041.63768996
_cell_formula_units_Z   4
loop_
 _symmetry_equiv_pos_site_id
 _symmetry_equiv_pos_as_xyz
  1  'x, y, z'
loop_
 _atom_site_type_symbol
 _atom_site_label
 _atom_site_symmetry_multiplicity
 _atom_site_fract_x
 _atom_site_fract_y
 _atom_site_fract_z
 _atom_site_occupancy
  Ba  Ba0  1  0.30909578  0.05367617  0.11871764  1
  Ba  Ba1  1  0.30028983  0.06095745  0.62082258  1
  Ba  Ba2  1  0.30658009  0.55229967  0.11930791  1
  Ba  Ba3  1  0.80445333  0.05737804  0.12038842  1
  Ba  Ba4  1  0.80595166  0.55173466  0.11857170  1
  Ba  Ba5  1  0.18456870  0.94956167  0.38492965  1
  Ba  Ba6  1  0.18354234  0.94568090  0.87581933  1
  Ba  Ba7  1  0.68348143  0.43779388  0.87304849  1
  Ba  Ba8  1  0.05621101  0.31627564  0.12113418  1
  Ba  Ba9  1  0.05873758  0.81182689  0.11764701  1
  Ba  Ba10  1  0.55730519  0.31360889  0.12196389  1
  Ba  Ba11  1  0.55394167  0.81305503  0.11954772  1
  Ba  Ba12  1  0.43737092  0.68837639  0.38077548  1
  Ba  Ba13  1  0.43465993  0.68527683  0.87412127  1
  Ba  Ba14  1  0.93918644  0.68730326  0.38346041  1
  Ba  Ba15  1  0.92855477  0.68756151  0.87198587  1
  Sr  Sr0  1  0.30666587  0.54509810  0.60973039  1
  Sr  Sr1  1  0.80588444  0.06231722  0.61198627  1
  Sr  Sr2  1  0.80287702  0.55909822  0.61180941  1
  Sr  Sr3  1  0.19293863  0.44238100  0.39006694  1
  Sr  Sr4  1  0.18616143  0.43155561  0.88349880  1
  Sr  Sr5  1  0.69448684  0.44996570  0.39110832  1
  Sr  Sr6  1  0.69419899  0.95259597  0.39089322  1
  Sr  Sr7  1  0.68910924  0.94160605  0.88279255  1
  Sr  Sr8  1  0.05369666  0.30695711  0.61058546  1
  Sr  Sr9  1  0.05191387  0.80000067  0.61009565  1
  Sr  Sr10  1  0.55494330  0.31190248  0.61325309  1
  Sr  Sr11  1  0.55183718  0.80002478  0.60945284  1
  Sr  Sr12  1  0.43928214  0.19413741  0.39028791  1
  Sr  Sr13  1  0.43042062  0.18959303  0.88582347  1
  Sr  Sr14  1  0.94548858  0.19147687  0.39209473  1
  Sr  Sr15  1  0.94644788  0.19618910  0.88740332  1
  Co  Co0  1  0.98997530  0.00204358  0.99377695  1
  Co  Co1  1  0.99670019  0.49132245  0.99054594  1
  Co  Co2  1  0.48656987  0.99631355  0.98574595  1
  Co  Co3  1  0.50147020  0.00654922  0.50525653  1
  Co  Co4  1  0.48860115  0.49132101  0.98791472  1
  Co  Co5  1  0.49908268  0.49716436  0.50101813  1
  Co  Co6  1  0.23560083  0.73782244  0.98197201  1
  Co  Co7  1  0.24935616  0.75466070  0.50778338  1
  Co  Co8  1  0.73750132  0.23855727  0.98307125  1
  Co  Co9  1  0.75227625  0.25232407  0.50126414  1
  Co  Co10  1  0.74433084  0.74895391  0.99645656  1
  Co  Co11  1  0.75301211  0.75350381  0.50485925  1
  Cu  Cu0  1  0.99702648  0.00259613  0.50459000  1
  Cu  Cu1  1  0.00234564  0.49911245  0.50267299  1
  Cu  Cu2  1  0.24465876  0.24623939  0.99561414  1
  Cu  Cu3  1  0.24976223  0.25116374  0.50339553  1
  Cu  Cu4  1  0.11894155  0.11079243  0.25005182  1
  Cu  Cu5  1  0.10570164  0.10005512  0.74403620  1
  Cu  Cu6  1  0.12324198  0.60619208  0.25377346  1
  Cu  Cu7  1  0.11710892  0.59405900  0.74342648  1
  Cu  Cu8  1  0.62572781  0.11654634  0.26055694  1
  Cu  Cu9  1  0.61934647  0.09578908  0.74783507  1
  Cu  Cu10  1  0.62459284  0.61174420  0.25661047  1
  Cu  Cu11  1  0.61596593  0.60649670  0.74348394  1
  Cu  Cu12  1  0.37454867  0.38904676  0.25669531  1
  Cu  Cu13  1  0.36410974  0.39183533  0.74873487  1
  Cu  Cu14  1  0.37669664  0.90341959  0.26093344  1
  Cu  Cu15  1  0.36994026  0.89781818  0.74614998  1
  Cu  Cu16  1  0.87434231  0.39235462  0.26124103  1
  Cu  Cu17  1  0.86867461  0.38972145  0.74359274  1
  Cu  Cu18  1  0.86739426  0.89847518  0.25388390  1
  Cu  Cu19  1  0.85828624  0.90615379  0.74767874  1
  O  O0  1  0.12033795  0.13175105  0.49873804  1
  O  O1  1  0.10858549  0.11472912  0.99498292  1
  O  O2  1  0.13766781  0.62715192  0.49896269  1
  O  O3  1  0.10484877  0.61159763  0.98948052  1
  O  O4  1  0.62609271  0.13968476  0.49638349  1
  O  O5  1  0.60984903  0.10772044  0.98894305  1
  O  O6  1  0.63090540  0.63652320  0.49834902  1
  O  O7  1  0.60626972  0.61062181  0.99324066  1
  O  O8  1  0.12354183  0.36953258  0.99727664  1
  O  O9  1  0.12662665  0.37435844  0.50464820  1
  O  O10  1  0.13260649  0.86037439  0.99704979  1
  O  O11  1  0.11962144  0.87609909  0.51076952  1
  O  O12  1  0.62844705  0.35644353  0.99531981  1
  O  O13  1  0.62076687  0.39220969  0.50756300  1
  O  O14  1  0.63319953  0.86214863  0.99824260  1
  O  O15  1  0.61936833  0.89445307  0.51111175  1
  O  O16  1  0.38147636  0.12045731  0.50070054  1
  O  O17  1  0.36728871  0.12442397  0.99314655  1
  O  O18  1  0.38297524  0.60661074  0.49507281  1
  O  O19  1  0.35166890  0.62510797  0.98961523  1
  O  O20  1  0.86888848  0.12123551  0.49497640  1
  O  O21  1  0.85888439  0.13318819  0.99487473  1
  O  O22  1  0.87303115  0.62177296  0.49969660  1
  O  O23  1  0.85398453  0.63373400  0.99244956  1
  O  O24  1  0.37918342  0.38204492  0.99902987  1
  O  O25  1  0.37796118  0.37238738  0.50615236  1
  O  O26  1  0.38314239  0.88133480  0.99699232  1
  O  O27  1  0.36953340  0.86832522  0.50900168  1
  O  O28  1  0.87865736  0.38637276  0.99683713  1
  O  O29  1  0.86855564  0.37559100  0.50949953  1
  O  O30  1  0.87781644  0.88571738  0.99811960  1
  O  O31  1  0.86338880  0.87468688  0.50769367  1
  O  O32  1  0.06477762  0.08250110  0.13640363  1
  O  O33  1  0.05311948  0.09090183  0.63387056  1
  O  O34  1  0.07161614  0.58554927  0.14160693  1
  O  O35  1  0.08283584  0.58406862  0.63363240  1
  O  O36  1  0.57412546  0.09007829  0.14875367  1
  O  O37  1  0.57802520  0.09777970  0.63987067  1
  O  O38  1  0.57523621  0.58633693  0.14451103  1
  O  O39  1  0.57281445  0.58927449  0.63302965  1
  O  O40  1  0.44509153  0.40627863  0.36737203  1
  O  O41  1  0.42860811  0.40403298  0.86082837  1
  O  O42  1  0.44104845  0.92639995  0.37292126  1
  O  O43  1  0.43209138  0.91565817  0.85974633  1
  O  O44  1  0.94311848  0.40979880  0.37264996  1
  O  O45  1  0.93609149  0.40786382  0.85581440  1
  O  O46  1  0.92567135  0.91620073  0.36518659  1
  O  O47  1  0.92530657  0.92848155  0.86224599  1
  O  O48  1  0.31694309  0.30434466  0.14465642  1
  O  O49  1  0.31590001  0.30994260  0.63698592  1
  O  O50  1  0.32890817  0.80428933  0.15249677  1
  O  O51  1  0.33316878  0.78789612  0.63780430  1
  O  O52  1  0.81912756  0.30505353  0.15057137  1
  O  O53  1  0.81875732  0.29528617  0.63355634  1
  O  O54  1  0.82009595  0.80561846  0.14096457  1
  O  O55  1  0.83148312  0.80092706  0.63947513  1
  O  O56  1  0.18826989  0.20530359  0.35950409  1
  O  O57  1  0.18160085  0.19234475  0.85628047  1
  O  O58  1  0.18081901  0.70088576  0.36383984  1
  O  O59  1  0.17650916  0.69266042  0.85548960  1
  O  O60  1  0.69471510  0.21524916  0.37022437  1
  O  O61  1  0.69977943  0.19121894  0.85938842  1
  O  O62  1  0.67903390  0.71338399  0.36599666  1
  O  O63  1  0.67450553  0.70108992  0.85521614  1
  O  O64  1  0.48386842  0.03920630  0.26510702  1
  O  O65  1  0.47093994  0.04453654  0.75973410  1
  O  O66  1  0.49098487  0.50717905  0.25250644  1
  O  O67  1  0.47235155  0.51393372  0.73930120  1
  O  O68  1  0.98335134  0.03212978  0.26246960  1
  O  O69  1  0.94808592  0.05802906  0.74990008  1
  O  O70  1  0.98910003  0.50694497  0.25245152  1
  O  O71  1  0.96361635  0.52319101  0.73457026  1
  O  O72  1  0.24137722  0.48512687  0.26356654  1
  O  O73  1  0.21261781  0.45402470  0.75049920  1
  O  O74  1  0.23407664  0.98819113  0.25173295  1
  O  O75  1  0.21299467  0.96929519  0.73369838  1
  O  O76  1  0.74211568  0.49023694  0.26696141  1
  O  O77  1  0.72511399  0.47577102  0.73964896  1
  O  O78  1  0.72773341  0.98179622  0.26041160  1
  O  O79  1  0.69613281  0.93790374  0.74388085  1
loop_
_geom_bond_atom_site_label_1
_geom_bond_atom_site_label_2
_geom_bond_distance
_geom_bond_site_symmetry_2
Ba0 O48 2.707246 1_555
Ba0 O10 2.781809 1_544
Ba0 O26 2.787648 1_544
Ba0 O64 2.799537 1_555
Ba0 O17 2.854869 1_554
Ba0 O36 2.871067 1_555
Ba0 O32 2.882155 1_555
Ba0 O1 2.887968 1_554
Ba0 O50 3.041744 1_545
Ba0 O74 3.046004 1_545
Ba1 O65 2.690086 1_555
Ba1 O11 2.693960 1_545
Ba1 O49 2.722457 1_555
Ba1 O27 2.765326 1_545
Ba1 O0 2.805613 1_555
Ba1 O16 2.834575 1_555
Ba1 O33 2.885294 1_555
Ba1 O75 2.939752 1_545
Ba1 O37 3.055681 1_555
Ba1 O51 3.190773 1_545
Ba2 O50 2.701775 1_555
Ba2 O24 2.750822 1_554
Ba2 O8 2.758510 1_554
Ba2 O34 2.813995 1_555
Ba2 O66 2.819436 1_555
Ba2 O19 2.870540 1_554
Ba2 O38 2.926332 1_555
Ba2 O3 2.952197 1_554
Ba2 O48 2.957404 1_555
Ba2 O72 3.191125 1_555
Ba3 O52 2.661198 1_555
Ba3 O14 2.769382 1_544
Ba3 O30 2.786401 1_544
Ba3 O36 2.806737 1_555
Ba3 O68 2.808194 1_555
Ba3 O21 2.864236 1_554
Ba3 O32 2.864356 1_655
Ba3 O5 2.881939 1_554
Ba3 O54 2.965061 1_545
Ba3 O78 3.230085 1_545
Ba4 O28 2.744459 1_554
Ba4 O54 2.753318 1_555
Ba4 O38 2.794583 1_555
Ba4 O12 2.808161 1_554
Ba4 O70 2.819317 1_555
Ba4 O23 2.880690 1_554
Ba4 O7 2.888437 1_554
Ba4 O34 2.901165 1_655
Ba4 O52 2.996480 1_555
Ba4 O76 3.224293 1_555
Ba5 O0 2.693164 1_565
Ba5 O58 2.701539 1_555
Ba5 O16 2.743397 1_565
Ba5 O74 2.769574 1_555
Ba5 O46 2.838764 1_455
Ba5 O11 2.912104 1_555
Ba5 O27 2.919227 1_555
Ba5 O42 2.976731 1_555
Ba5 O68 3.002448 1_465
Ba5 O56 3.048974 1_565
Ba6 O17 2.713302 1_565
Ba6 O1 2.746108 1_565
Ba6 O59 2.751536 1_555
Ba6 O75 2.759647 1_555
Ba6 O10 2.833741 1_555
Ba6 O47 2.847847 1_455
Ba6 O26 2.873131 1_555
Ba6 O57 2.900059 1_565
Ba6 O43 2.920086 1_555
Ba7 O61 2.719843 1_555
Ba7 O77 2.729371 1_555
Ba7 O23 2.754235 1_555
Ba7 O7 2.791873 1_555
Ba7 O28 2.805086 1_555
Ba7 O41 2.829211 1_555
Ba7 O12 2.846782 1_555
Ba7 O45 2.973093 1_555
Ba7 O63 3.073252 1_555
Ba7 O67 3.144636 1_555
Ba8 O32 2.724810 1_555
Ba8 O8 2.780642 1_554
Ba8 O28 2.814328 1_454
Ba8 O72 2.846244 1_555
Ba8 O48 2.849873 1_555
Ba8 O21 2.867281 1_454
Ba8 O1 2.879786 1_554
Ba8 O52 2.893508 1_455
Ba8 O34 2.932125 1_555
Ba8 O70 2.955856 1_455
Ba9 O34 2.705475 1_555
Ba9 O10 2.740911 1_554
Ba9 O74 2.765639 1_555
Ba9 O30 2.800446 1_454
Ba9 O54 2.855275 1_455
Ba9 O3 2.862162 1_554
Ba9 O23 2.880630 1_454
Ba9 O50 2.922733 1_555
Ba9 O32 2.954772 1_565
Ba9 O68 3.323429 1_465
Ba10 O36 2.697909 1_555
Ba10 O24 2.791555 1_554
Ba10 O12 2.799468 1_554
Ba10 O52 2.844816 1_555
Ba10 O48 2.871758 1_555
Ba10 O17 2.873480 1_554
Ba10 O76 2.900076 1_555
Ba10 O66 2.958228 1_555
Ba10 O38 2.963365 1_555
Ba10 O5 2.982614 1_554
Ba11 O38 2.720770 1_555
Ba11 O26 2.747730 1_554
Ba11 O78 2.776983 1_555
Ba11 O50 2.789003 1_555
Ba11 O14 2.789372 1_554
Ba11 O7 2.886694 1_554
Ba11 O54 2.912316 1_555
Ba11 O19 2.943547 1_554
Ba11 O36 2.989218 1_565
Ba12 O18 2.712625 1_555
Ba12 O42 2.723626 1_555
Ba12 O6 2.730422 1_555
Ba12 O66 2.793257 1_555
Ba12 O58 2.824920 1_555
Ba12 O62 2.841430 1_555
Ba12 O27 2.866720 1_555
Ba12 O72 2.929385 1_555
Ba12 O15 2.937739 1_555
Ba12 O40 3.110146 1_555
Ba13 O43 2.680549 1_555
Ba13 O67 2.741456 1_555
Ba13 O7 2.750160 1_555
Ba13 O19 2.772399 1_555
Ba13 O26 2.805993 1_555
Ba13 O14 2.829951 1_555
Ba13 O59 2.832102 1_555
Ba13 O63 2.842012 1_555
Ba13 O41 3.095536 1_555
Ba13 O73 3.289464 1_555
Ba14 O46 2.692480 1_555
Ba14 O22 2.711386 1_555
Ba14 O2 2.784391 1_655
Ba14 O70 2.801986 1_555
Ba14 O11 2.810332 1_655
Ba14 O58 2.865370 1_655
Ba14 O62 2.881288 1_555
Ba14 O76 2.894876 1_555
Ba14 O31 2.907659 1_555
Ba14 O44 3.067481 1_555
Ba15 O71 2.729726 1_555
Ba15 O3 2.764651 1_655
Ba15 O47 2.767469 1_555
Ba15 O23 2.769600 1_555
Ba15 O63 2.798566 1_555
Ba15 O10 2.849322 1_655
Ba15 O30 2.850492 1_555
Ba15 O59 2.906470 1_655
Ba15 O45 3.072198 1_555
Ba15 O77 3.097145 1_555
Co0 O1 1.826279 1_655
Co0 O30 1.848422 1_545
Co0 O21 2.097513 1_555
Co0 O47 2.118295 1_545
Co0 O10 2.274329 1_645
Co0 O32 2.297619 1_656
Co1 O3 1.822837 1_655
Co1 O28 1.824987 1_555
Co1 O8 1.991259 1_655
Co1 O45 2.177135 1_555
Co1 O23 2.280845 1_555
Co1 O34 2.440093 1_656
Co2 O26 1.832452 1_555
Co2 O5 1.840072 1_565
Co2 O17 1.982453 1_565
Co2 O43 2.039815 1_555
Co2 O14 2.254346 1_555
Co2 O36 2.627477 1_566
Co3 O15 1.841699 1_545
Co3 O16 1.872109 1_555
Co3 O4 2.120595 1_555
Co3 O42 2.136405 1_545
Co3 O27 2.174052 1_545
Co3 O37 2.185570 1_555
Co4 O24 1.831528 1_555
Co4 O7 1.839829 1_555
Co4 O41 2.063230 1_555
Co4 O19 2.165923 1_555
Co4 O12 2.200216 1_555
Co4 O38 2.528680 1_556
Co5 O18 1.806337 1_555
Co5 O13 1.817599 1_555
Co5 O25 1.993142 1_555
Co5 O39 2.146598 1_555
Co5 O40 2.172940 1_555
Co5 O6 2.173452 1_555
Co6 O10 1.820882 1_555
Co6 O19 1.833847 1_555
Co6 O59 2.045015 1_555
Co6 O3 2.101907 1_555
Co6 O26 2.203932 1_555
Co6 O50 2.752619 1_556
Co7 O2 1.837294 1_555
Co7 O27 1.846519 1_555
Co7 O11 2.011882 1_555
Co7 O51 2.132020 1_555
Co7 O18 2.262467 1_555
Co7 O58 2.324629 1_555
Co8 O21 1.823514 1_555
Co8 O12 1.826444 1_555
Co8 O61 2.014461 1_555
Co8 O5 2.099223 1_555
Co8 O28 2.195342 1_555
Co8 O52 2.701406 1_556
Co9 O29 1.840708 1_555
Co9 O4 1.861276 1_555
Co9 O20 1.984722 1_555
Co9 O60 2.133294 1_555
Co9 O53 2.143603 1_555
Co9 O13 2.173190 1_555
Co10 O14 1.794438 1_555
Co10 O23 1.799821 1_555
Co10 O30 2.131024 1_555
Co10 O7 2.167876 1_555
Co10 O63 2.286043 1_555
Co10 O54 2.331426 1_556
Co11 O31 1.816912 1_555
Co11 O6 1.848855 1_555
Co11 O22 2.015853 1_555
Co11 O55 2.180422 1_555
Co11 O15 2.198689 1_555
Co11 O62 2.258024 1_555
Cu0 O20 1.979441 1_555
Cu0 O11 1.995792 1_645
Cu0 O0 2.051617 1_655
Cu0 O33 2.100017 1_655
Cu0 O31 2.100696 1_545
Cu0 O46 2.251284 1_545
Cu1 O9 1.991982 1_555
Cu1 O22 2.016081 1_455
Cu1 O29 2.100049 1_455
Cu1 O44 2.111559 1_455
Cu1 O2 2.120482 1_555
Cu1 O35 2.125560 1_555
Cu2 O8 1.955015 1_555
Cu2 O17 1.955827 1_555
Cu2 O1 2.118279 1_555
Cu2 O24 2.118286 1_555
Cu2 O57 2.249421 1_555
Cu2 O48 2.404611 1_556
Cu3 O0 1.940665 1_555
Cu3 O25 1.958438 1_555
Cu3 O9 1.970348 1_555
Cu3 O16 2.099689 1_555
Cu3 O49 2.150963 1_555
Cu3 O56 2.335603 1_555
Cu4 O56 1.825238 1_555
Cu4 O32 1.855703 1_555
Cu4 O68 1.867100 1_455
Cu4 O74 1.902651 1_545
Cu5 O33 1.844876 1_555
Cu5 O57 1.865216 1_555
Cu5 O69 1.879568 1_455
Cu5 O75 1.914001 1_545
Cu6 O58 1.827531 1_555
Cu6 O34 1.847594 1_555
Cu6 O70 1.863273 1_455
Cu6 O72 1.921517 1_555
Cu7 O71 1.840928 1_455
Cu7 O35 1.850031 1_555
Cu7 O59 1.867049 1_555
Cu7 O73 1.929377 1_555
Cu8 O36 1.828627 1_555
Cu8 O60 1.840010 1_555
Cu8 O64 1.851777 1_555
Cu8 O78 1.910174 1_545
Cu9 O37 1.850971 1_555
Cu9 O65 1.861872 1_555
Cu9 O61 1.870786 1_555
Cu9 O79 1.973127 1_545
Cu10 O38 1.836648 1_555
Cu10 O62 1.838814 1_555
Cu10 O66 1.873537 1_555
Cu10 O76 1.921563 1_555
Cu11 O39 1.831388 1_555
Cu11 O63 1.851027 1_555
Cu11 O67 1.888020 1_555
Cu11 O77 1.924253 1_555
Cu12 O48 1.832171 1_555
Cu12 O40 1.838621 1_555
Cu12 O72 1.871189 1_555
Cu12 O66 1.895170 1_555
Cu13 O49 1.824565 1_555
Cu13 O73 1.858234 1_555
Cu13 O41 1.870898 1_555
Cu13 O67 1.910700 1_555
Cu14 O50 1.819247 1_555
Cu14 O42 1.841116 1_555
Cu14 O74 1.866243 1_555
Cu14 O64 1.908559 1_565
Cu15 O51 1.865061 1_555
Cu15 O43 1.879255 1_555
Cu15 O65 1.904790 1_565
Cu15 O75 1.928803 1_555
Cu16 O52 1.817477 1_555
Cu16 O44 1.848303 1_555
Cu16 O76 1.871271 1_555
Cu16 O70 1.894208 1_555
Cu17 O53 1.827254 1_555
Cu17 O45 1.858721 1_555
Cu17 O77 1.887488 1_555
Cu17 O71 1.912674 1_555
Cu18 O46 1.839910 1_555
Cu18 O78 1.856793 1_555
Cu18 O54 1.866476 1_555
Cu18 O68 1.922053 1_565
Cu19 O79 1.851847 1_555
Cu19 O55 1.861391 1_555
Cu19 O47 1.886968 1_555
Cu19 O69 1.962014 1_565
O0 Sr14 2.540875 1_455
O0 Sr8 2.644860 1_555
O1 Sr15 2.611188 1_455
O2 Sr3 2.606725 1_555
O2 Sr0 2.687762 1_555
O2 Sr9 2.743816 1_555
O3 Sr4 2.701070 1_555
O4 Sr12 2.582838 1_555
O4 Sr6 2.659241 1_545
O4 Sr10 2.712256 1_555
O4 Sr1 2.771624 1_555
O5 Sr7 2.609029 1_545
O5 Sr13 2.665790 1_555
O6 Sr5 2.647353 1_555
O6 Sr11 2.649578 1_555
O6 Sr2 2.704579 1_555
O8 Sr15 2.604066 1_455
O8 Sr4 2.629685 1_555
O9 Sr0 2.583862 1_555
O9 Sr8 2.590760 1_555
O9 Sr14 2.696844 1_455
O9 Sr3 2.698832 1_555
O11 Sr9 2.503048 1_555
O12 Sr13 2.699264 1_555
O13 Sr2 2.571266 1_555
O13 Sr10 2.623009 1_555
O13 Sr5 2.717372 1_555
O13 Sr12 2.814470 1_555
O14 Sr7 2.725118 1_555
O15 Sr1 2.591265 1_565
O15 Sr11 2.607005 1_555
O15 Sr6 2.789550 1_555
O16 Sr12 2.615048 1_555
O16 Sr10 2.705694 1_555
O17 Sr13 2.542260 1_555
O18 Sr3 2.611803 1_555
O18 Sr11 2.702801 1_555
O18 Sr0 2.723478 1_555
O19 Sr4 2.646354 1_555
O20 Sr6 2.534070 1_545
O20 Sr14 2.579861 1_555
O20 Sr1 2.669263 1_555
O20 Sr8 2.750274 1_655
O21 Sr7 2.684280 1_545
O21 Sr15 2.685073 1_555
O22 Sr5 2.597497 1_555
O22 Sr9 2.645563 1_655
O22 Sr2 2.649697 1_555
O24 Sr13 2.679307 1_555
O24 Sr4 2.693812 1_555
O25 Sr10 2.563132 1_555
O25 Sr0 2.569014 1_555
O25 Sr12 2.676092 1_555
O25 Sr3 2.762614 1_555
O27 Sr11 2.574768 1_555
O28 Sr15 2.716994 1_555
O29 Sr2 2.590253 1_555
O29 Sr8 2.601603 1_655
O29 Sr5 2.753035 1_555
O29 Sr14 2.819763 1_555
O30 Sr7 2.697552 1_555
O31 Sr1 2.591057 1_565
O31 Sr9 2.672387 1_655
O31 Sr6 2.730904 1_555
O33 Sr8 2.588916 1_555
O33 Sr1 2.695817 1_455
O33 Sr9 3.164714 1_545
O35 Sr9 2.597701 1_555
O35 Sr0 2.708523 1_555
O35 Sr8 3.015109 1_555
O35 Sr2 3.059671 1_455
O37 Sr10 2.594781 1_555
O37 Sr1 2.778418 1_555
O37 Sr11 3.217084 1_545
O39 Sr11 2.532609 1_555
O39 Sr2 2.748468 1_555
O39 Sr0 2.916933 1_555
O39 Sr10 3.025784 1_555
O40 Sr12 2.545812 1_555
O40 Sr5 2.728700 1_555
O40 Sr3 3.011639 1_555
O41 Sr13 2.583802 1_555
O41 Sr4 2.894778 1_555
O42 Sr6 2.776118 1_555
O42 Sr12 2.930201 1_565
O43 Sr7 2.798904 1_555
O43 Sr13 2.970438 1_565
O44 Sr14 2.582830 1_555
O44 Sr3 2.746734 1_655
O44 Sr5 2.949029 1_555
O45 Sr15 2.606388 1_555
O45 Sr4 2.704526 1_655
O46 Sr6 2.803274 1_555
O46 Sr14 2.977001 1_565
O47 Sr7 2.801888 1_555
O47 Sr15 2.898962 1_565
O49 Sr0 2.830180 1_555
O49 Sr8 2.845448 1_555
O49 Sr10 2.860512 1_555
O51 Sr0 2.615388 1_555
O51 Sr11 2.681221 1_555
O51 Sr9 3.066873 1_555
O53 Sr1 2.523043 1_555
O53 Sr8 2.815663 1_655
O53 Sr10 2.899511 1_555
O53 Sr2 3.108185 1_555
O55 Sr2 2.607107 1_555
O55 Sr9 2.698670 1_655
O55 Sr11 3.030919 1_555
O55 Sr1 3.127643 1_565
O56 Sr3 2.546961 1_555
O56 Sr12 2.723659 1_555
O56 Sr14 2.987187 1_455
O57 Sr4 2.578180 1_555
O57 Sr13 2.692659 1_555
O57 Sr15 2.875644 1_455
O58 Sr3 3.081715 1_555
O59 Sr4 3.124589 1_555
O60 Sr5 2.548715 1_555
O60 Sr14 2.760407 1_555
O60 Sr12 3.030934 1_555
O60 Sr6 3.087820 1_545
O61 Sr15 2.666991 1_555
O61 Sr7 2.969803 1_545
O62 Sr6 2.581983 1_555
O62 Sr5 3.128423 1_555
O63 Sr7 2.588755 1_555
O64 Sr12 2.574999 1_555
O64 Sr6 3.116953 1_545
O65 Sr13 2.522079 1_555
O66 Sr5 3.050617 1_555
O67 Sr0 2.610164 1_555
O67 Sr10 3.052456 1_555
O68 Sr14 2.618313 1_555
O69 Sr15 2.480893 1_555
O69 Sr1 2.507016 1_555
O70 Sr3 3.080709 1_655
O71 Sr2 2.522308 1_555
O71 Sr8 3.162577 1_655
O72 Sr3 2.667220 1_555
O73 Sr4 2.579054 1_555
O73 Sr8 2.612191 1_555
O74 Sr12 3.108787 1_565
O75 Sr9 2.581099 1_555
O76 Sr5 2.609815 1_555
O77 Sr10 2.620032 1_555
O77 Sr2 3.076836 1_555
O78 Sr6 2.597330 1_555
O78 Sr14 3.165038 1_565
O79 Sr11 2.462501 1_555
O79 Sr7 2.503461 1_555
