# generated using pymatgen
data_TmAlNi4
_symmetry_space_group_name_H-M   'P 1'
_cell_length_a   4.81998369
_cell_length_b   4.81998369
_cell_length_c   3.97376419
_cell_angle_alpha   90.00000000
_cell_angle_beta   90.00000000
_cell_angle_gamma   118.51210459
_symmetry_Int_Tables_number   1
_chemical_formula_structural   TmAlNi4
_chemical_formula_sum   'Tm1 Al1 Ni4'
_cell_volume   81.12260822
_cell_formula_units_Z   1
loop_
 _symmetry_equiv_pos_site_id
 _symmetry_equiv_pos_as_xyz
  1  'x, y, z'
loop_
 _atom_site_type_symbol
 _atom_site_label
 _atom_site_symmetry_multiplicity
 _atom_site_fract_x
 _atom_site_fract_y
 _atom_site_fract_z
 _atom_site_occupancy
  Tm  Tm0  1  0.50000000  0.50000000  0.00000000  1
  Al  Al0  1  0.00000000  -0.00000000  0.50000000  1
  Ni  Ni0  1  0.16834080  0.83165920  0.00000000  1
  Ni  Ni1  1  0.83165920  0.16834080  -0.00000000  1
  Ni  Ni2  1  0.00000000  0.50000000  0.50000000  1
  Ni  Ni3  1  0.50000000  -0.00000000  0.50000000  1
loop_
_geom_bond_atom_site_label_1
_geom_bond_atom_site_label_2
_geom_bond_distance
_geom_bond_site_symmetry_2
Al0 Ni2 2.409992 1_545
Al0 Ni3 2.409992 1_555
Al0 Ni3 2.409992 1_455
Al0 Ni2 2.409992 1_555
Al0 Ni0 2.427546 1_546
Al0 Ni1 2.427546 1_455
Al0 Ni0 2.427546 1_545
Al0 Ni1 2.427546 1_456
Al0 Tm0 3.165270 1_445
Al0 Tm0 3.165270 1_555
Al0 Tm0 3.165270 1_556
Al0 Tm0 3.165270 1_446
Ni0 Ni2 2.433771 1_555
Ni0 Ni2 2.433771 1_554
Ni0 Ni3 2.433771 1_564
Ni0 Ni3 2.433771 1_565
Ni0 Tm0 2.747853 1_555
Ni0 Ni1 2.789464 1_465
Ni0 Ni1 2.811079 1_455
Ni0 Ni1 2.811079 1_565
Ni0 Tm0 2.831344 1_455
Ni0 Tm0 2.831344 1_565
Ni1 Ni3 2.433771 1_554
Ni1 Ni3 2.433771 1_555
Ni1 Ni2 2.433771 1_654
Ni1 Ni2 2.433771 1_655
Ni1 Tm0 2.747853 1_555
Ni1 Tm0 2.831344 1_545
Ni1 Tm0 2.831344 1_655
Ni2 Ni3 2.463987 1_565
Ni2 Ni3 2.463987 1_455
Ni2 Tm0 3.123421 1_456
Ni2 Tm0 3.123421 1_455
Ni2 Tm0 3.123421 1_555
Ni2 Tm0 3.123421 1_556
Ni3 Tm0 3.123421 1_555
Ni3 Tm0 3.123421 1_556
Ni3 Tm0 3.123421 1_545
Ni3 Tm0 3.123421 1_546
