# generated using pymatgen
data_Ta2Mn(ReSe4)2
_symmetry_space_group_name_H-M   'P 1'
_cell_length_a   3.46487991
_cell_length_b   3.46487991
_cell_length_c   26.61074600
_cell_angle_alpha   90.00000000
_cell_angle_beta   90.00000000
_cell_angle_gamma   119.99999833
_symmetry_Int_Tables_number   1
_chemical_formula_structural   Ta2Mn(ReSe4)2
_chemical_formula_sum   'Ta2 Mn1 Re2 Se8'
_cell_volume   276.67126965
_cell_formula_units_Z   1
loop_
 _symmetry_equiv_pos_site_id
 _symmetry_equiv_pos_as_xyz
  1  'x, y, z'
loop_
 _atom_site_type_symbol
 _atom_site_label
 _atom_site_symmetry_multiplicity
 _atom_site_fract_x
 _atom_site_fract_y
 _atom_site_fract_z
 _atom_site_occupancy
  Ta  Ta0  1  0.00000000  0.00000000  0.37651500  1
  Ta  Ta1  1  0.00000000  0.00000000  0.87499900  1
  Mn  Mn0  1  0.00000000  0.00000000  0.24727500  1
  Re  Re0  1  0.00000000  0.00000000  0.12227900  1
  Re  Re1  1  0.00000000  0.00000000  0.62497900  1
  Se  Se0  1  0.66666700  0.33333300  0.31193200  1
  Se  Se1  1  0.66666700  0.33333300  0.81188600  1
  Se  Se2  1  0.33333300  0.66666700  0.18736300  1
  Se  Se3  1  0.33333300  0.66666700  0.68359900  1
  Se  Se4  1  0.33333300  0.66666700  0.06550300  1
  Se  Se5  1  0.33333300  0.66666700  0.56638500  1
  Se  Se6  1  0.66666700  0.33333300  0.43922000  1
  Se  Se7  1  0.66666700  0.33333300  0.93806500  1
loop_
_geom_bond_atom_site_label_1
_geom_bond_atom_site_label_2
_geom_bond_distance
_geom_bond_site_symmetry_2
Mn0 Se2 2.558044 1_545
Mn0 Se2 2.558047 1_445
Mn0 Se2 2.558047 1_555
Mn0 Se0 2.638589 1_455
Mn0 Se0 2.638592 1_445
Mn0 Se0 2.638592 1_555
Re0 Se4 2.506883 1_545
Re0 Se4 2.506885 1_445
Re0 Se4 2.506885 1_555
Re0 Se2 2.646013 1_545
Re0 Se2 2.646015 1_445
Re0 Se2 2.646015 1_555
Re1 Se5 2.536334 1_545
Re1 Se5 2.536336 1_445
Re1 Se5 2.536336 1_555
Re1 Se3 2.536759 1_545
Re1 Se3 2.536761 1_555
Re1 Se3 2.536761 1_445
Se0 Ta0 2.637306 1_655
Se0 Ta0 2.637308 1_555
Se0 Ta0 2.637308 1_665
Se1 Ta1 2.611983 1_655
Se1 Ta1 2.611986 1_555
Se1 Ta1 2.611986 1_665
Se6 Ta0 2.605015 1_655
Se6 Ta0 2.605018 1_555
Se6 Ta0 2.605018 1_665
Se7 Ta1 2.611179 1_655
Se7 Ta1 2.611181 1_555
Se7 Ta1 2.611181 1_665
