# generated using pymatgen
data_LaMgFeCuO6
_symmetry_space_group_name_H-M   'P 1'
_cell_length_a   5.39196302
_cell_length_b   5.22041270
_cell_length_c   8.06140383
_cell_angle_alpha   92.46795192
_cell_angle_beta   89.99119979
_cell_angle_gamma   89.99973500
_symmetry_Int_Tables_number   1
_chemical_formula_structural   LaMgFeCuO6
_chemical_formula_sum   'La2 Mg2 Fe2 Cu2 O12'
_cell_volume   226.70411521
_cell_formula_units_Z   2
loop_
 _symmetry_equiv_pos_site_id
 _symmetry_equiv_pos_as_xyz
  1  'x, y, z'
loop_
 _atom_site_type_symbol
 _atom_site_label
 _atom_site_symmetry_multiplicity
 _atom_site_fract_x
 _atom_site_fract_y
 _atom_site_fract_z
 _atom_site_occupancy
  La  La0  1  0.04113800  0.98430500  0.25505300  1
  La  La1  1  0.45898200  0.48426400  0.75501500  1
  Mg  Mg0  1  0.55676500  0.53573400  0.24509400  1
  Mg  Mg1  1  0.94332900  0.03580800  0.74509500  1
  Fe  Fe0  1  0.50610000  0.00554700  0.00416700  1
  Fe  Fe1  1  0.99393600  0.50540000  0.50419800  1
  Cu  Cu0  1  0.49730600  0.99000900  0.50508200  1
  Cu  Cu1  1  0.00241900  0.49052600  0.00444000  1
  O  O0  1  0.01844800  0.64303400  0.72421900  1
  O  O1  1  0.20078600  0.20168500  0.93254400  1
  O  O2  1  0.20529300  0.18783900  0.55786000  1
  O  O3  1  0.29466500  0.68819100  0.05771600  1
  O  O4  1  0.29924500  0.70134000  0.43269400  1
  O  O5  1  0.48149200  0.14308600  0.22409900  1
  O  O6  1  0.54466500  0.92545800  0.77322900  1
  O  O7  1  0.73052800  0.25415200  0.56639700  1
  O  O8  1  0.74679400  0.27195700  0.93673200  1
  O  O9  1  0.75323700  0.77179000  0.43686100  1
  O  O10  1  0.76947900  0.75440400  0.06631300  1
  O  O11  1  0.95539400  0.42546900  0.27318900  1
loop_
_geom_bond_atom_site_label_1
_geom_bond_atom_site_label_2
_geom_bond_distance
_geom_bond_site_symmetry_2
La0 O11 2.347375 1_465
La0 O10 2.396752 1_455
La0 O9 2.434751 1_455
La0 O4 2.520405 1_555
La0 O5 2.530739 1_565
La0 O3 2.564477 1_555
La0 O2 2.765579 1_565
La1 O6 2.347490 1_555
La1 O7 2.396006 1_555
La1 O8 2.433747 1_555
La1 O1 2.518669 1_555
La1 O0 2.531552 1_555
La1 O2 2.565274 1_555
La1 O3 2.765587 1_556
Mg0 O5 2.089293 1_555
Mg0 O10 2.199305 1_555
Mg0 O4 2.202115 1_555
Mg0 O9 2.206160 1_555
Mg0 O11 2.239174 1_555
Mg0 O3 2.239765 1_555
Mg1 O0 2.089724 1_645
Mg1 O7 2.198391 1_555
Mg1 O1 2.201897 1_655
Mg1 O8 2.205638 1_555
Mg1 O2 2.237365 1_655
Mg1 O6 2.239445 1_545
Fe0 O5 1.888605 1_555
Fe0 O6 1.901778 1_544
Fe0 O8 1.994742 1_554
Fe0 O10 2.010827 1_545
Fe0 O1 2.035458 1_554
Fe0 O3 2.071780 1_545
Fe1 O0 1.889437 1_655
Fe1 O11 1.902236 1_555
Fe1 O9 1.994547 1_555
Fe1 O7 2.011319 1_555
Fe1 O4 2.034475 1_655
Fe1 O2 2.072700 1_655
Cu0 O9 1.857506 1_555
Cu0 O7 1.915374 1_565
Cu0 O4 1.917408 1_555
Cu0 O2 1.920589 1_565
Cu0 O6 2.216836 1_555
Cu0 O5 2.435688 1_565
Cu1 O8 1.856401 1_454
Cu1 O10 1.914314 1_455
Cu1 O1 1.917846 1_554
Cu1 O3 1.922080 1_555
Cu1 O11 2.221831 1_455
Cu1 O0 2.428812 1_554
