# generated using pymatgen
data_Cr2Cu3(OF)12
_symmetry_space_group_name_H-M   'P 1'
_cell_length_a   7.74269752
_cell_length_b   7.79657462
_cell_length_c   7.89445032
_cell_angle_alpha   95.87463998
_cell_angle_beta   93.38823380
_cell_angle_gamma   96.59615744
_symmetry_Int_Tables_number   1
_chemical_formula_structural   Cr2Cu3(OF)12
_chemical_formula_sum   'Cr2 Cu3 O12 F12'
_cell_volume   469.70737126
_cell_formula_units_Z   1
loop_
 _symmetry_equiv_pos_site_id
 _symmetry_equiv_pos_as_xyz
  1  'x, y, z'
loop_
 _atom_site_type_symbol
 _atom_site_label
 _atom_site_symmetry_multiplicity
 _atom_site_fract_x
 _atom_site_fract_y
 _atom_site_fract_z
 _atom_site_occupancy
  Cr  Cr0  1  0.99882800  0.50083600  0.99925600  1
  Cr  Cr1  1  0.50113700  0.99759700  0.49795300  1
  Cu  Cu0  1  0.99997300  0.99997900  0.99790300  1
  Cu  Cu1  1  0.99775500  0.50009000  0.49829000  1
  Cu  Cu2  1  0.50945700  0.49819700  0.99686000  1
  O  O0  1  0.82766000  0.06873400  0.14981500  1
  O  O1  1  0.17148900  0.93115100  0.84673600  1
  O  O2  1  0.75711400  0.04357300  0.99633500  1
  O  O3  1  0.24154900  0.95664500  0.00047200  1
  O  O4  1  0.88072500  0.70454300  0.49990900  1
  O  O5  1  0.11462800  0.29640200  0.49789800  1
  O  O6  1  0.77383700  0.57610100  0.53519900  1
  O  O7  1  0.22167000  0.42513600  0.46329400  1
  O  O8  1  0.49707500  0.67425100  0.84890800  1
  O  O9  1  0.50570300  0.32453800  0.15071900  1
  O  O10  1  0.56695500  0.47389200  0.23015600  1
  O  O11  1  0.43571100  0.52503300  0.76900500  1
  F  F0  1  0.92817300  0.72449800  0.03971800  1
  F  F1  1  0.06684400  0.27649500  0.95806700  1
  F  F2  1  0.94159800  0.45374800  0.21960300  1
  F  F3  1  0.05254700  0.54629100  0.77820800  1
  F  F4  1  0.76892900  0.42152900  0.92186400  1
  F  F5  1  0.22639100  0.58010600  0.07737700  1
  F  F6  1  0.55980700  0.91018500  0.29050900  1
  F  F7  1  0.44134300  0.08445300  0.70357400  1
  F  F8  1  0.72217100  0.00095500  0.58226900  1
  F  F9  1  0.27865400  0.99460400  0.41191800  1
  F  F10  1  0.55538500  0.21693800  0.44765000  1
  F  F11  1  0.44608500  0.77804200  0.54685500  1
loop_
_geom_bond_atom_site_label_1
_geom_bond_atom_site_label_2
_geom_bond_distance
_geom_bond_site_symmetry_2
Cr0 F5 1.846657 1_656
Cr0 F4 1.861557 1_555
Cr0 F3 1.876786 1_655
Cr0 F2 1.881893 1_556
Cr0 F1 1.886220 1_655
Cr0 F0 1.888897 1_556
Cr1 F8 1.795584 1_565
Cr1 F7 1.801038 1_565
Cr1 F11 1.802223 1_555
Cr1 F10 1.803415 1_565
Cr1 F9 1.810661 1_555
Cr1 F6 1.811995 1_555
Cu0 O1 1.922408 1_655
Cu0 O0 1.930653 1_566
Cu0 O3 1.937845 1_656
Cu0 O2 1.948450 1_565
Cu0 F1 2.217290 1_665
Cu0 F0 2.218922 1_556
Cu1 O5 1.915807 1_655
Cu1 O7 1.918306 1_655
Cu1 O4 1.921252 1_555
Cu1 O6 1.924145 1_555
Cu1 F2 2.201833 1_555
Cu1 F3 2.209995 1_655
Cu2 O11 1.894344 1_555
Cu2 O8 1.898072 1_555
Cu2 O10 1.902637 1_556
Cu2 O9 1.908172 1_556
Cu2 F4 2.255661 1_555
Cu2 F5 2.453266 1_556
O0 O2 1.285848 1_554
O1 O3 1.286377 1_556
O4 O6 1.288145 1_555
O5 O7 1.288677 1_555
O10 O9 1.289426 1_555
O11 O8 1.290145 1_555
