# generated using pymatgen
data_Mg3Sn
_symmetry_space_group_name_H-M   'P 1'
_cell_length_a   6.63160800
_cell_length_b   10.37194800
_cell_length_c   10.88212000
_cell_angle_alpha   90.00000000
_cell_angle_beta   90.00000000
_cell_angle_gamma   90.00000000
_symmetry_Int_Tables_number   1
_chemical_formula_structural   Mg3Sn
_chemical_formula_sum   'Mg24 Sn8'
_cell_volume   748.50152277
_cell_formula_units_Z   8
loop_
 _symmetry_equiv_pos_site_id
 _symmetry_equiv_pos_as_xyz
  1  'x, y, z'
loop_
 _atom_site_type_symbol
 _atom_site_label
 _atom_site_symmetry_multiplicity
 _atom_site_fract_x
 _atom_site_fract_y
 _atom_site_fract_z
 _atom_site_occupancy
  Mg  Mg0_0  1  0.00000000  0.00000000  0.33349650  1
  Mg  Mg0_1  1  0.00000000  0.00000000  0.83349650  1
  Mg  Mg0_2  1  0.00000000  0.50000000  0.33349650  1
  Mg  Mg0_3  1  0.00000000  0.50000000  0.83349650  1
  Mg  Mg0_4  1  0.50000000  0.00000000  0.33349650  1
  Mg  Mg0_5  1  0.50000000  0.00000000  0.83349650  1
  Mg  Mg0_6  1  0.50000000  0.50000000  0.33349650  1
  Mg  Mg0_7  1  0.50000000  0.50000000  0.83349650  1
  Mg  Mg1_0  1  0.00000000  0.25000000  0.16676000  1
  Mg  Mg1_1  1  0.00000000  0.25000000  0.66676000  1
  Mg  Mg1_2  1  0.00000000  0.75000000  0.16676000  1
  Mg  Mg1_3  1  0.00000000  0.75000000  0.66676000  1
  Mg  Mg1_4  1  0.50000000  0.25000000  0.16676000  1
  Mg  Mg1_5  1  0.50000000  0.25000000  0.66676000  1
  Mg  Mg1_6  1  0.50000000  0.75000000  0.16676000  1
  Mg  Mg1_7  1  0.50000000  0.75000000  0.66676000  1
  Mg  Mg2_0  1  0.25000000  0.25000000  0.41658600  1
  Mg  Mg2_1  1  0.25000000  0.25000000  0.91658600  1
  Mg  Mg2_2  1  0.25000000  0.75000000  0.41658600  1
  Mg  Mg2_3  1  0.25000000  0.75000000  0.91658600  1
  Mg  Mg2_4  1  0.75000000  0.25000000  0.41658600  1
  Mg  Mg2_5  1  0.75000000  0.25000000  0.91658600  1
  Mg  Mg2_6  1  0.75000000  0.75000000  0.41658600  1
  Mg  Mg2_7  1  0.75000000  0.75000000  0.91658600  1
  Sn  Sn0_0  1  0.25000000  0.00000000  0.08315800  1
  Sn  Sn0_1  1  0.25000000  0.00000000  0.58315800  1
  Sn  Sn0_2  1  0.25000000  0.50000000  0.08315800  1
  Sn  Sn0_3  1  0.25000000  0.50000000  0.58315800  1
  Sn  Sn0_4  1  0.75000000  0.00000000  0.08315800  1
  Sn  Sn0_5  1  0.75000000  0.00000000  0.58315800  1
  Sn  Sn0_6  1  0.75000000  0.50000000  0.08315800  1
  Sn  Sn0_7  1  0.75000000  0.50000000  0.58315800  1
loop_
_geom_bond_atom_site_label_1
_geom_bond_atom_site_label_2
_geom_bond_distance
_geom_bond_site_symmetry_2
Mg0_0 Mg1_2 3.164775 1_545
Mg0_0 Mg1_0 3.164775 1_555
Mg0_0 Sn0_1 3.182749 1_555
Mg0_0 Sn0_5 3.182749 1_455
Mg0_0 Sn0_4 3.189040 1_455
Mg0_0 Sn0_0 3.189040 1_555
Mg0_0 Mg2_2 3.207769 1_545
Mg0_0 Mg2_6 3.207769 1_445
Mg0_0 Mg2_0 3.207769 1_555
Mg0_0 Mg2_4 3.207769 1_455
Mg0_0 Mg0_4 3.315804 1_455
Mg0_0 Mg0_4 3.315804 1_555
Mg0_1 Mg1_3 3.164775 1_545
Mg0_1 Mg1_1 3.164775 1_555
Mg0_1 Sn0_4 3.182749 1_456
Mg0_1 Sn0_0 3.182749 1_556
Mg0_1 Sn0_1 3.189040 1_555
Mg0_1 Sn0_5 3.189040 1_455
Mg0_1 Mg2_3 3.207769 1_545
Mg0_1 Mg2_7 3.207769 1_445
Mg0_1 Mg2_5 3.207769 1_455
Mg0_1 Mg2_1 3.207769 1_555
Mg0_1 Mg0_5 3.315804 1_455
Mg0_1 Mg0_5 3.315804 1_555
Mg0_2 Mg1_2 3.164775 1_555
Mg0_2 Mg1_0 3.164775 1_555
Mg0_2 Sn0_7 3.182749 1_455
Mg0_2 Sn0_3 3.182749 1_555
Mg0_2 Sn0_6 3.189040 1_455
Mg0_2 Sn0_2 3.189040 1_555
Mg0_2 Mg2_2 3.207769 1_555
Mg0_2 Mg2_0 3.207769 1_555
Mg0_2 Mg2_6 3.207769 1_455
Mg0_2 Mg2_4 3.207769 1_455
Mg0_2 Mg0_6 3.315804 1_555
Mg0_2 Mg0_6 3.315804 1_455
Mg0_3 Mg1_3 3.164775 1_555
Mg0_3 Mg1_1 3.164775 1_555
Mg0_3 Sn0_6 3.182749 1_456
Mg0_3 Sn0_2 3.182749 1_556
Mg0_3 Sn0_7 3.189040 1_455
Mg0_3 Sn0_3 3.189040 1_555
Mg0_3 Mg2_5 3.207769 1_455
Mg0_3 Mg2_3 3.207769 1_555
Mg0_3 Mg2_1 3.207769 1_555
Mg0_3 Mg2_7 3.207769 1_455
Mg0_3 Mg0_7 3.315804 1_455
Mg0_3 Mg0_7 3.315804 1_555
Mg0_4 Mg1_4 3.164775 1_555
Mg0_4 Mg1_6 3.164775 1_545
Mg0_4 Sn0_1 3.182749 1_555
Mg0_4 Sn0_5 3.182749 1_555
Mg0_4 Sn0_4 3.189040 1_555
Mg0_4 Sn0_0 3.189040 1_555
Mg0_4 Mg2_2 3.207769 1_545
Mg0_4 Mg2_0 3.207769 1_555
Mg0_4 Mg2_4 3.207769 1_555
Mg0_4 Mg2_6 3.207769 1_545
Mg0_5 Mg1_5 3.164775 1_555
Mg0_5 Mg1_7 3.164775 1_545
Mg0_5 Sn0_0 3.182749 1_556
Mg0_5 Sn0_4 3.182749 1_556
Mg0_5 Sn0_1 3.189040 1_555
Mg0_5 Sn0_5 3.189040 1_555
Mg0_5 Mg2_3 3.207769 1_545
Mg0_5 Mg2_1 3.207769 1_555
Mg0_5 Mg2_7 3.207769 1_545
Mg0_5 Mg2_5 3.207769 1_555
Mg0_6 Mg1_6 3.164775 1_555
Mg0_6 Mg1_4 3.164775 1_555
Mg0_6 Sn0_7 3.182749 1_555
Mg0_6 Sn0_3 3.182749 1_555
Mg0_6 Sn0_2 3.189040 1_555
Mg0_6 Sn0_6 3.189040 1_555
Mg0_6 Mg2_2 3.207769 1_555
Mg0_6 Mg2_6 3.207769 1_555
Mg0_6 Mg2_0 3.207769 1_555
Mg0_6 Mg2_4 3.207769 1_555
Mg0_7 Mg1_5 3.164775 1_555
Mg0_7 Mg1_7 3.164775 1_555
Mg0_7 Sn0_6 3.182749 1_556
Mg0_7 Sn0_2 3.182749 1_556
Mg0_7 Sn0_3 3.189040 1_555
Mg0_7 Sn0_7 3.189040 1_555
Mg0_7 Mg2_5 3.207769 1_555
Mg0_7 Mg2_1 3.207769 1_555
Mg0_7 Mg2_7 3.207769 1_555
Mg0_7 Mg2_3 3.207769 1_555
Mg1_0 Mg2_0 3.184278 1_555
Mg1_0 Mg2_4 3.184278 1_455
Mg1_0 Mg2_1 3.187511 1_554
Mg1_0 Mg2_5 3.187511 1_454
Mg1_0 Sn0_6 3.209345 1_455
Mg1_0 Sn0_2 3.209345 1_555
Mg1_0 Sn0_0 3.209345 1_555
Mg1_0 Sn0_4 3.209345 1_455
Mg1_0 Mg1_4 3.315804 1_555
Mg1_0 Mg1_4 3.315804 1_455
Mg1_1 Mg2_5 3.184278 1_455
Mg1_1 Mg2_1 3.184278 1_555
Mg1_1 Mg2_4 3.187511 1_455
Mg1_1 Mg2_0 3.187511 1_555
Mg1_1 Sn0_1 3.209345 1_555
Mg1_1 Sn0_5 3.209345 1_455
Mg1_1 Sn0_7 3.209345 1_455
Mg1_1 Sn0_3 3.209345 1_555
Mg1_1 Mg1_5 3.315804 1_455
Mg1_1 Mg1_5 3.315804 1_555
Mg1_2 Mg2_2 3.184278 1_555
Mg1_2 Mg2_6 3.184278 1_455
Mg1_2 Mg2_3 3.187511 1_554
Mg1_2 Mg2_7 3.187511 1_454
Mg1_2 Sn0_6 3.209345 1_455
Mg1_2 Sn0_4 3.209345 1_465
Mg1_2 Sn0_2 3.209345 1_555
Mg1_2 Sn0_0 3.209345 1_565
Mg1_2 Mg1_6 3.315804 1_455
Mg1_2 Mg1_6 3.315804 1_555
Mg1_3 Mg2_7 3.184278 1_455
Mg1_3 Mg2_3 3.184278 1_555
Mg1_3 Mg2_2 3.187511 1_555
Mg1_3 Mg2_6 3.187511 1_455
Mg1_3 Sn0_5 3.209345 1_465
Mg1_3 Sn0_7 3.209345 1_455
Mg1_3 Sn0_3 3.209345 1_555
Mg1_3 Sn0_1 3.209345 1_565
Mg1_3 Mg1_7 3.315804 1_555
Mg1_3 Mg1_7 3.315804 1_455
Mg1_4 Mg2_0 3.184278 1_555
Mg1_4 Mg2_4 3.184278 1_555
Mg1_4 Mg2_1 3.187511 1_554
Mg1_4 Mg2_5 3.187511 1_554
Mg1_4 Sn0_4 3.209345 1_555
Mg1_4 Sn0_2 3.209345 1_555
Mg1_4 Sn0_0 3.209345 1_555
Mg1_4 Sn0_6 3.209345 1_555
Mg1_5 Mg2_1 3.184278 1_555
Mg1_5 Mg2_5 3.184278 1_555
Mg1_5 Mg2_4 3.187511 1_555
Mg1_5 Mg2_0 3.187511 1_555
Mg1_5 Sn0_7 3.209345 1_555
Mg1_5 Sn0_1 3.209345 1_555
Mg1_5 Sn0_5 3.209345 1_555
Mg1_5 Sn0_3 3.209345 1_555
Mg1_6 Mg2_2 3.184278 1_555
Mg1_6 Mg2_6 3.184278 1_555
Mg1_6 Mg2_3 3.187511 1_554
Mg1_6 Mg2_7 3.187511 1_554
Mg1_6 Sn0_2 3.209345 1_555
Mg1_6 Sn0_0 3.209345 1_565
Mg1_6 Sn0_4 3.209345 1_565
Mg1_6 Sn0_6 3.209345 1_555
Mg1_7 Mg2_7 3.184278 1_555
Mg1_7 Mg2_3 3.184278 1_555
Mg1_7 Mg2_2 3.187511 1_555
Mg1_7 Mg2_6 3.187511 1_555
Mg1_7 Sn0_7 3.209345 1_555
Mg1_7 Sn0_5 3.209345 1_565
Mg1_7 Sn0_3 3.209345 1_555
Mg1_7 Sn0_1 3.209345 1_565
Mg2_0 Sn0_1 3.163749 1_555
Mg2_0 Sn0_3 3.163749 1_555
Mg2_0 Mg2_4 3.315804 1_455
Mg2_0 Mg2_4 3.315804 1_555
Mg2_1 Sn0_2 3.163749 1_556
Mg2_1 Sn0_0 3.163749 1_556
Mg2_1 Mg2_5 3.315804 1_455
Mg2_1 Mg2_5 3.315804 1_555
Mg2_2 Sn0_3 3.163749 1_555
Mg2_2 Sn0_1 3.163749 1_565
Mg2_2 Mg2_6 3.315804 1_555
Mg2_2 Mg2_6 3.315804 1_455
Mg2_3 Sn0_2 3.163749 1_556
Mg2_3 Sn0_0 3.163749 1_566
Mg2_3 Mg2_7 3.315804 1_555
Mg2_3 Mg2_7 3.315804 1_455
Mg2_4 Sn0_7 3.163749 1_555
Mg2_4 Sn0_5 3.163749 1_555
Mg2_5 Sn0_4 3.163749 1_556
Mg2_5 Sn0_6 3.163749 1_556
Mg2_6 Sn0_7 3.163749 1_555
Mg2_6 Sn0_5 3.163749 1_565
Mg2_7 Sn0_6 3.163749 1_556
Mg2_7 Sn0_4 3.163749 1_566
Sn0_0 Sn0_4 3.315804 1_455
Sn0_0 Sn0_4 3.315804 1_555
Sn0_1 Sn0_5 3.315804 1_555
Sn0_1 Sn0_5 3.315804 1_455
Sn0_2 Sn0_6 3.315804 1_555
Sn0_2 Sn0_6 3.315804 1_455
Sn0_3 Sn0_7 3.315804 1_555
Sn0_3 Sn0_7 3.315804 1_455
