# generated using pymatgen
data_Mg(GeN)4
_symmetry_space_group_name_H-M   'P 1'
_cell_length_a   5.87327900
_cell_length_b   11.43265700
_cell_length_c   7.15585500
_cell_angle_alpha   90.00000000
_cell_angle_beta   90.00000000
_cell_angle_gamma   90.00000000
_symmetry_Int_Tables_number   1
_chemical_formula_structural   Mg(GeN)4
_chemical_formula_sum   'Mg4 Ge16 N16'
_cell_volume   480.49551431
_cell_formula_units_Z   4
loop_
 _symmetry_equiv_pos_site_id
 _symmetry_equiv_pos_as_xyz
  1  'x, y, z'
loop_
 _atom_site_type_symbol
 _atom_site_label
 _atom_site_symmetry_multiplicity
 _atom_site_fract_x
 _atom_site_fract_y
 _atom_site_fract_z
 _atom_site_occupancy
  Mg  Mg0  1  0.82840900  0.25000000  0.75000000  1
  Mg  Mg1  1  0.67159100  0.75000000  0.75000000  1
  Mg  Mg2  1  0.17159100  0.75000000  0.25000000  1
  Mg  Mg3  1  0.32840900  0.25000000  0.25000000  1
  Ge  Ge0  1  0.32508200  0.35060200  0.66405500  1
  Ge  Ge1  1  0.17491800  0.64939800  0.66405500  1
  Ge  Ge2  1  0.32508200  0.14939800  0.83594500  1
  Ge  Ge3  1  0.17491800  0.85060200  0.83594500  1
  Ge  Ge4  1  0.67491800  0.64939800  0.33594500  1
  Ge  Ge5  1  0.82508200  0.35060200  0.33594500  1
  Ge  Ge6  1  0.67491800  0.85060200  0.16405500  1
  Ge  Ge7  1  0.82508200  0.14939800  0.16405500  1
  Ge  Ge8  1  0.75000000  0.50000000  0.08993900  1
  Ge  Ge9  1  0.75000000  0.00000000  0.41006100  1
  Ge  Ge10  1  0.25000000  0.50000000  0.91006100  1
  Ge  Ge11  1  0.25000000  0.00000000  0.58993900  1
  Ge  Ge12  1  0.75000000  0.50000000  0.70590100  1
  Ge  Ge13  1  0.75000000  0.00000000  0.79409900  1
  Ge  Ge14  1  0.25000000  0.50000000  0.29409900  1
  Ge  Ge15  1  0.25000000  0.00000000  0.20590100  1
  N  N0  1  0.64025000  0.36713600  0.56236500  1
  N  N1  1  0.85975000  0.63286400  0.56236500  1
  N  N2  1  0.64025000  0.13286400  0.93763500  1
  N  N3  1  0.85975000  0.86713600  0.93763500  1
  N  N4  1  0.35975000  0.63286400  0.43763500  1
  N  N5  1  0.14025000  0.36713600  0.43763500  1
  N  N6  1  0.35975000  0.86713600  0.06236500  1
  N  N7  1  0.14025000  0.13286400  0.06236500  1
  N  N8  1  0.91732000  0.08766600  0.61806400  1
  N  N9  1  0.58268000  0.91233400  0.61806400  1
  N  N10  1  0.91732000  0.41233400  0.88193600  1
  N  N11  1  0.58268000  0.58766600  0.88193600  1
  N  N12  1  0.08268000  0.91233400  0.38193600  1
  N  N13  1  0.41732000  0.08766600  0.38193600  1
  N  N14  1  0.08268000  0.58766600  0.11806400  1
  N  N15  1  0.41732000  0.41233400  0.11806400  1
loop_
_geom_bond_atom_site_label_1
_geom_bond_atom_site_label_2
_geom_bond_distance
_geom_bond_site_symmetry_2
Mg0 N10 2.146728 1_555
Mg0 N8 2.146728 1_555
Mg0 N0 2.194874 1_555
Mg0 N2 2.194874 1_555
Mg1 N11 2.146728 1_555
Mg1 N9 2.146728 1_555
Mg1 N3 2.194874 1_555
Mg1 N1 2.194874 1_555
Mg2 N12 2.146728 1_555
Mg2 N14 2.146728 1_555
Mg2 N6 2.194874 1_555
Mg2 N4 2.194874 1_555
Mg3 N13 2.146728 1_555
Mg3 N15 2.146728 1_555
Mg3 N5 2.194874 1_555
Mg3 N7 2.194874 1_555
Ge0 N5 1.959422 1_555
Ge0 N0 1.997926 1_555
Ge1 N4 1.959422 1_555
Ge1 N1 1.997926 1_455
Ge2 N7 1.959422 1_556
Ge2 N2 1.997926 1_555
Ge3 N6 1.959422 1_556
Ge3 N3 1.997926 1_455
Ge4 N1 1.959422 1_555
Ge4 N4 1.997926 1_555
Ge5 N0 1.959422 1_555
Ge5 N5 1.997926 1_655
Ge6 N3 1.959422 1_554
Ge6 N6 1.997926 1_555
Ge7 N2 1.959422 1_554
Ge7 N7 1.997926 1_655
Ge8 N11 2.045898 1_554
Ge8 N10 2.045898 1_554
Ge8 N15 2.205183 1_555
Ge8 N14 2.205183 1_655
Ge9 N9 2.045898 1_545
Ge9 N8 2.045898 1_555
Ge9 N13 2.205183 1_555
Ge9 N12 2.205183 1_645
Ge10 N14 2.045898 1_556
Ge10 N15 2.045898 1_556
Ge10 N10 2.205183 1_455
Ge10 N11 2.205183 1_555
Ge11 N12 2.045898 1_545
Ge11 N13 2.045898 1_555
Ge11 N8 2.205183 1_455
Ge11 N9 2.205183 1_545
Ge12 N11 1.886013 1_555
Ge12 N10 1.886013 1_555
Ge12 N1 1.943658 1_555
Ge12 N0 1.943658 1_555
Ge13 N9 1.886013 1_545
Ge13 N8 1.886013 1_555
Ge13 N2 1.943658 1_555
Ge13 N3 1.943658 1_545
Ge14 N15 1.886013 1_555
Ge14 N14 1.886013 1_555
Ge14 N4 1.943658 1_555
Ge14 N5 1.943658 1_555
Ge15 N13 1.886013 1_555
Ge15 N12 1.886013 1_545
Ge15 N7 1.943658 1_555
Ge15 N6 1.943658 1_545
