# generated using pymatgen
data_K2TeH6SO10
_symmetry_space_group_name_H-M   'P 1'
_cell_length_a   6.36272204
_cell_length_b   6.69932768
_cell_length_c   13.41224374
_cell_angle_alpha   102.30741613
_cell_angle_beta   90.51125644
_cell_angle_gamma   117.11871029
_symmetry_Int_Tables_number   1
_chemical_formula_structural   K2TeH6SO10
_chemical_formula_sum   'K4 Te2 H12 S2 O20'
_cell_volume   493.45026475
_cell_formula_units_Z   2
loop_
 _symmetry_equiv_pos_site_id
 _symmetry_equiv_pos_as_xyz
  1  'x, y, z'
loop_
 _atom_site_type_symbol
 _atom_site_label
 _atom_site_symmetry_multiplicity
 _atom_site_fract_x
 _atom_site_fract_y
 _atom_site_fract_z
 _atom_site_occupancy
  K  K0  1  0.57716300  0.22716100  0.34850800  1
  K  K1  1  0.42283700  0.77283900  0.65149200  1
  K  K2  1  0.19594600  0.26093800  0.84957800  1
  K  K3  1  0.80405400  0.73906200  0.15042200  1
  Te  Te0  1  0.00000000  0.00000000  0.50000000  1
  Te  Te1  1  0.50000000  0.00000000  0.00000000  1
  H  H0  1  0.13552000  0.70569800  0.42911900  1
  H  H1  1  0.86448000  0.29430200  0.57088100  1
  H  H2  1  0.28788300  0.15441800  0.12273400  1
  H  H3  1  0.71211700  0.84558200  0.87726600  1
  H  H4  1  0.28580100  0.64702600  0.06718900  1
  H  H5  1  0.71419900  0.35297400  0.93281100  1
  H  H6  1  0.38612200  0.25619500  0.60735500  1
  H  H7  1  0.61387800  0.74380500  0.39264500  1
  H  H8  1  0.07345600  0.19046700  0.35571200  1
  H  H9  1  0.92654400  0.80953300  0.64428800  1
  H  H10  1  0.84696200  0.26298800  0.13424800  1
  H  H11  1  0.15303800  0.73701200  0.86575200  1
  S  S0  1  0.25178400  0.53123700  0.25131300  1
  S  S1  1  0.74821600  0.46876300  0.74868700  1
  O  O0  1  0.17621700  0.82526300  0.49479400  1
  O  O1  1  0.82378300  0.17473700  0.50520600  1
  O  O2  1  0.06190300  0.03866500  0.36016100  1
  O  O3  1  0.93809700  0.96133500  0.63983900  1
  O  O4  1  0.29137200  0.28691700  0.55801400  1
  O  O5  1  0.70862800  0.71308300  0.44198600  1
  O  O6  1  0.36121600  0.37570500  0.21839700  1
  O  O7  1  0.63878400  0.62429500  0.78160300  1
  O  O8  1  0.55275900  0.23169900  0.70433900  1
  O  O9  1  0.44724000  0.76830100  0.29566100  1
  O  O10  1  0.08881600  0.44876700  0.33026300  1
  O  O11  1  0.91118400  0.55123300  0.66973700  1
  O  O12  1  0.69901300  0.11640800  0.13328900  1
  O  O13  1  0.30098700  0.88359100  0.86671100  1
  O  O14  1  0.23515300  0.00377300  0.06983200  1
  O  O15  1  0.76484700  0.99622700  0.93016800  1
  O  O16  1  0.39220900  0.68191500  0.01171800  1
  O  O17  1  0.60779100  0.31808500  0.98828200  1
  O  O18  1  0.10971800  0.53005300  0.16096100  1
  O  O19  1  0.89028200  0.46994700  0.83903900  1
loop_
_geom_bond_atom_site_label_1
_geom_bond_atom_site_label_2
_geom_bond_distance
_geom_bond_site_symmetry_2
K0 O9 2.716520 1_545
K0 O1 2.785843 1_555
K0 O6 2.804931 1_555
K0 O10 2.936854 1_655
K0 O5 2.937298 1_555
K0 O2 2.947253 1_555
K0 O12 3.022451 1_555
K1 O8 2.716521 1_565
K1 O0 2.785843 1_555
K1 O7 2.804931 1_555
K1 O11 2.936854 1_455
K1 O4 2.937298 1_555
K1 O3 2.947253 1_555
K1 O13 3.022450 1_555
K2 O15 2.876193 1_445
K2 O19 2.885345 1_455
K2 O16 2.892851 1_556
K2 O13 2.945397 1_545
K2 O3 3.023590 1_445
K2 O17 3.028027 1_555
K2 O8 3.051058 1_555
K2 O7 3.071622 1_555
K3 O14 2.876193 1_665
K3 O18 2.885345 1_655
K3 O17 2.892851 1_554
K3 O12 2.945390 1_565
K3 O2 3.023590 1_665
K3 O16 3.028027 1_555
K3 O9 3.051063 1_555
K3 O6 3.071622 1_555
H0 O0 0.995289 1_555
H1 O1 0.995289 1_555
H2 O14 1.008125 1_555
H2 O6 1.615389 1_555
H3 O15 1.008125 1_555
H3 O7 1.615389 1_555
H4 O16 1.002694 1_555
H5 O17 1.002694 1_555
H6 O4 1.003903 1_555
H7 O5 1.003903 1_555
H8 O2 1.000495 1_555
H9 O3 1.000495 1_555
H10 O12 1.001134 1_555
H11 O13 1.001130 1_555
O0 Te0 1.948205 1_565
O1 Te0 1.948205 1_655
O2 Te0 1.966525 1_555
O3 Te0 1.966525 1_665
O4 Te0 1.955765 1_555
O5 Te0 1.955765 1_665
O6 S0 1.495391 1_555
O7 S1 1.495391 1_555
O8 S1 1.485309 1_555
O9 S0 1.485307 1_555
O10 S0 1.499476 1_555
O11 S1 1.499476 1_555
O12 Te1 1.967858 1_555
O13 Te1 1.967858 1_566
O14 Te1 1.942806 1_555
O15 Te1 1.942806 1_566
O16 Te1 1.961720 1_565
O17 Te1 1.961720 1_556
O18 S0 1.501825 1_555
O19 S1 1.501825 1_555
