# generated using pymatgen
data_LiCrP2O7
_symmetry_space_group_name_H-M   'P 1'
_cell_length_a   8.33408800
_cell_length_b   6.67997600
_cell_length_c   9.14507605
_cell_angle_alpha   75.44465787
_cell_angle_beta   90.00000000
_cell_angle_gamma   90.00000000
_symmetry_Int_Tables_number   1
_chemical_formula_structural   LiCrP2O7
_chemical_formula_sum   'Li4 Cr4 P8 O28'
_cell_volume   492.78013715
_cell_formula_units_Z   4
loop_
 _symmetry_equiv_pos_site_id
 _symmetry_equiv_pos_as_xyz
  1  'x, y, z'
loop_
 _atom_site_type_symbol
 _atom_site_label
 _atom_site_symmetry_multiplicity
 _atom_site_fract_x
 _atom_site_fract_y
 _atom_site_fract_z
 _atom_site_occupancy
  Li  Li0  1  0.42223500  0.26069700  0.75168100  1
  Li  Li1  1  0.57776500  0.73930300  0.24831900  1
  Li  Li2  1  0.92223500  0.73930300  0.24831900  1
  Li  Li3  1  0.07776500  0.26069700  0.75168100  1
  Cr  Cr0  1  0.43380300  0.24950200  0.24996600  1
  Cr  Cr1  1  0.06619700  0.24950200  0.24996600  1
  Cr  Cr2  1  0.93380300  0.75049800  0.75003400  1
  Cr  Cr3  1  0.56619700  0.75049800  0.75003400  1
  P  P0  1  0.25000000  0.00302600  0.05344100  1
  P  P1  1  0.75000000  0.07984000  0.46972900  1
  P  P2  1  0.25000000  0.92016000  0.53027100  1
  P  P3  1  0.75000000  0.99697400  0.94655900  1
  P  P4  1  0.75000000  0.50084900  0.55533500  1
  P  P5  1  0.75000000  0.42183600  0.03201300  1
  P  P6  1  0.25000000  0.49915100  0.44466500  1
  P  P7  1  0.25000000  0.57816400  0.96798700  1
  O  O0  1  0.09481100  0.48217700  0.35387200  1
  O  O1  1  0.09494000  0.01728800  0.14513200  1
  O  O2  1  0.09875300  0.91949100  0.62183100  1
  O  O3  1  0.25000000  0.37025600  0.60548500  1
  O  O4  1  0.90124700  0.08050900  0.37816900  1
  O  O5  1  0.25000000  0.76319300  0.04680000  1
  O  O6  1  0.25000000  0.13641400  0.89395000  1
  O  O7  1  0.75000000  0.23680700  0.95320000  1
  O  O8  1  0.59494000  0.98271200  0.85486800  1
  O  O9  1  0.09842800  0.57557400  0.87673100  1
  O  O10  1  0.59842800  0.42442600  0.12326900  1
  O  O11  1  0.25000000  0.11490900  0.39092900  1
  O  O12  1  0.40506000  0.01728800  0.14513200  1
  O  O13  1  0.90506000  0.98271200  0.85486800  1
  O  O14  1  0.75000000  0.61343100  0.89047800  1
  O  O15  1  0.40124700  0.91949100  0.62183100  1
  O  O16  1  0.40157200  0.57557400  0.87673100  1
  O  O17  1  0.59875300  0.08050900  0.37816900  1
  O  O18  1  0.90518900  0.51782300  0.64612800  1
  O  O19  1  0.90157200  0.42442600  0.12326900  1
  O  O20  1  0.75000000  0.86358600  0.10605000  1
  O  O21  1  0.75000000  0.62974400  0.39451500  1
  O  O22  1  0.59481100  0.51782300  0.64612800  1
  O  O23  1  0.40518900  0.48217700  0.35387200  1
  O  O24  1  0.75000000  0.88509100  0.60907100  1
  O  O25  1  0.75000000  0.25921700  0.55452800  1
  O  O26  1  0.25000000  0.38656900  0.10952200  1
  O  O27  1  0.25000000  0.74078300  0.44547200  1
loop_
_geom_bond_atom_site_label_1
_geom_bond_atom_site_label_2
_geom_bond_distance
_geom_bond_site_symmetry_2
Li0 O3 1.972748 1_555
Li0 O6 1.974721 1_555
Li0 O22 2.262117 1_555
Li0 O8 2.351514 1_545
Li1 O21 1.972748 1_555
Li1 O20 1.974721 1_555
Li1 O23 2.262117 1_555
Li1 O12 2.351514 1_565
Li2 O21 1.972748 1_555
Li2 O20 1.974721 1_555
Li2 O0 2.262117 1_655
Li2 O1 2.351514 1_665
Li3 O3 1.972748 1_555
Li3 O6 1.974721 1_555
Li3 O18 2.262117 1_455
Li3 O13 2.351514 1_445
Cr0 O17 1.968124 1_555
Cr0 O10 1.977303 1_555
Cr0 O23 2.029255 1_555
Cr0 O12 2.032282 1_555
Cr0 O11 2.057696 1_555
Cr0 O26 2.059943 1_555
Cr1 O4 1.968124 1_455
Cr1 O19 1.977303 1_455
Cr1 O0 2.029255 1_555
Cr1 O1 2.032282 1_555
Cr1 O11 2.057696 1_555
Cr1 O26 2.059943 1_555
Cr2 O2 1.968124 1_655
Cr2 O9 1.977303 1_655
Cr2 O18 2.029255 1_555
Cr2 O13 2.032282 1_555
Cr2 O24 2.057696 1_555
Cr2 O14 2.059943 1_555
Cr3 O15 1.968124 1_555
Cr3 O16 1.977303 1_555
Cr3 O22 2.029255 1_555
Cr3 O8 2.032282 1_555
Cr3 O24 2.057696 1_555
Cr3 O14 2.059943 1_555
O0 P6 1.556395 1_555
O1 P0 1.556388 1_555
O2 P2 1.512655 1_555
O3 P6 1.505940 1_555
O4 P1 1.512655 1_555
O5 P7 1.579530 1_554
O5 P0 1.618410 1_565
O6 P0 1.506020 1_556
O7 P5 1.579530 1_556
O7 P3 1.618410 1_545
O8 P3 1.556388 1_555
O9 P7 1.516486 1_555
O10 P5 1.516486 1_555
O11 P2 1.575746 1_545
O12 P0 1.556388 1_555
O13 P3 1.556388 1_555
O14 P5 1.575027 1_556
O15 P2 1.512655 1_555
O16 P7 1.516486 1_555
O17 P1 1.512655 1_555
O18 P4 1.556395 1_555
O19 P5 1.516486 1_555
O20 P3 1.506020 1_554
O21 P4 1.505940 1_555
O22 P4 1.556395 1_555
O23 P6 1.556395 1_555
O24 P1 1.575746 1_565
O25 P1 1.582470 1_555
O25 P4 1.615966 1_555
O26 P7 1.575027 1_554
O27 P2 1.582470 1_555
O27 P6 1.615966 1_555
