# generated using pymatgen
data_BaSn4O7
_symmetry_space_group_name_H-M   'P 1'
_cell_length_a   7.18156325
_cell_length_b   7.18156325
_cell_length_c   13.00329300
_cell_angle_alpha   90.00000000
_cell_angle_beta   90.00000000
_cell_angle_gamma   119.99999312
_symmetry_Int_Tables_number   1
_chemical_formula_structural   BaSn4O7
_chemical_formula_sum   'Ba2 Sn8 O14'
_cell_volume   580.79382489
_cell_formula_units_Z   2
loop_
 _symmetry_equiv_pos_site_id
 _symmetry_equiv_pos_as_xyz
  1  'x, y, z'
loop_
 _atom_site_type_symbol
 _atom_site_label
 _atom_site_symmetry_multiplicity
 _atom_site_fract_x
 _atom_site_fract_y
 _atom_site_fract_z
 _atom_site_occupancy
  Ba  Ba0  1  0.66666700  0.33333300  0.42224200  1
  Ba  Ba1  1  0.33333300  0.66666700  0.92224200  1
  Sn  Sn0  1  0.83152800  0.16847200  0.19024500  1
  Sn  Sn1  1  0.66305700  0.83152800  0.69024500  1
  Sn  Sn2  1  0.16847200  0.33694300  0.69024500  1
  Sn  Sn3  1  0.83152800  0.66305700  0.19024500  1
  Sn  Sn4  1  0.33694300  0.16847200  0.19024500  1
  Sn  Sn5  1  0.16847200  0.83152800  0.69024500  1
  Sn  Sn6  1  0.00000000  0.00000000  0.46572500  1
  Sn  Sn7  1  0.00000000  0.00000000  0.96572500  1
  O  O0  1  0.84727100  0.15272900  0.03803800  1
  O  O1  1  0.69454200  0.84727100  0.53803800  1
  O  O2  1  0.15272900  0.30545800  0.53803800  1
  O  O3  1  0.84727100  0.69454200  0.03803800  1
  O  O4  1  0.30545800  0.15272900  0.03803800  1
  O  O5  1  0.15272900  0.84727100  0.53803800  1
  O  O6  1  0.00000000  0.00000000  0.72349400  1
  O  O7  1  0.00000000  0.00000000  0.22349400  1
  O  O8  1  0.53006900  0.46993100  0.25258100  1
  O  O9  1  0.06013800  0.53006900  0.75258100  1
  O  O10  1  0.46993100  0.93986200  0.75258100  1
  O  O11  1  0.53006900  0.06013800  0.25258100  1
  O  O12  1  0.46993100  0.53006900  0.75258100  1
  O  O13  1  0.93986200  0.46993100  0.25258100  1
loop_
_geom_bond_atom_site_label_1
_geom_bond_atom_site_label_2
_geom_bond_distance
_geom_bond_site_symmetry_2
Ba0 O11 2.784617 1_555
Ba0 O13 2.784617 1_555
Ba0 O8 2.784621 1_555
Ba1 O10 2.784617 1_555
Ba1 O9 2.784617 1_555
Ba1 O12 2.784621 1_555
O0 Sn0 1.988856 1_555
O0 Sn7 2.119742 1_654
O1 Sn1 1.988856 1_555
O1 Sn6 2.119742 1_665
O2 Sn2 1.988856 1_555
O2 Sn6 2.119742 1_555
O3 Sn3 1.988856 1_555
O3 Sn7 2.119742 1_664
O4 Sn4 1.988856 1_555
O4 Sn7 2.119742 1_554
O5 Sn5 1.988856 1_555
O5 Sn6 2.119742 1_565
O6 Sn2 2.139723 1_555
O6 Sn1 2.139723 1_445
O6 Sn5 2.139729 1_545
O7 Sn4 2.139723 1_555
O7 Sn3 2.139723 1_445
O7 Sn0 2.139729 1_455
O8 Sn3 2.065183 1_555
O8 Sn4 2.065183 1_555
O9 Sn5 2.065182 1_555
O9 Sn2 2.065188 1_555
O10 Sn5 2.065182 1_555
O10 Sn1 2.065188 1_555
O11 Sn0 2.065182 1_555
O11 Sn4 2.065188 1_555
O12 Sn1 2.065183 1_555
O12 Sn2 2.065183 1_555
O13 Sn0 2.065182 1_555
O13 Sn3 2.065188 1_555
