# generated using pymatgen
data_KMg14Ti
_symmetry_space_group_name_H-M   'P 1'
_cell_length_a   6.54425119
_cell_length_b   6.54425063
_cell_length_c   10.31473687
_cell_angle_alpha   90.00000000
_cell_angle_beta   90.00000000
_cell_angle_gamma   120.00000280
_symmetry_Int_Tables_number   1
_chemical_formula_structural   KMg14Ti
_chemical_formula_sum   'K1 Mg14 Ti1'
_cell_volume   382.56801431
_cell_formula_units_Z   1
loop_
 _symmetry_equiv_pos_site_id
 _symmetry_equiv_pos_as_xyz
  1  'x, y, z'
loop_
 _atom_site_type_symbol
 _atom_site_label
 _atom_site_symmetry_multiplicity
 _atom_site_fract_x
 _atom_site_fract_y
 _atom_site_fract_z
 _atom_site_occupancy
  K  K0  1  0.16666700  0.33333300  0.62500000  1
  Mg  Mg0  1  0.16705376  0.83352638  0.12500000  1
  Mg  Mg1  1  0.17448762  0.83724331  0.62500000  1
  Mg  Mg2  1  0.66647362  0.33294624  0.12500000  1
  Mg  Mg3  1  0.66275669  0.32551238  0.62500000  1
  Mg  Mg4  1  0.66647362  0.83352638  0.12500000  1
  Mg  Mg5  1  0.66275669  0.83724331  0.62500000  1
  Mg  Mg6  1  0.33431016  0.16568984  0.36028174  1
  Mg  Mg7  1  0.33431016  0.16568984  0.88971826  1
  Mg  Mg8  1  0.33431016  0.66862132  0.36028174  1
  Mg  Mg9  1  0.33431016  0.66862132  0.88971826  1
  Mg  Mg10  1  0.83137868  0.16568984  0.36028174  1
  Mg  Mg11  1  0.83137868  0.16568984  0.88971826  1
  Mg  Mg12  1  0.83333300  0.66666700  0.37821871  1
  Mg  Mg13  1  0.83333300  0.66666700  0.87178129  1
  Ti  Ti0  1  0.16666700  0.33333300  0.12500000  1
loop_
_geom_bond_atom_site_label_1
_geom_bond_atom_site_label_2
_geom_bond_distance
_geom_bond_site_symmetry_2
K0 Mg1 3.272425 1_555
K0 Mg5 3.272425 1_555
K0 Mg1 3.272425 1_545
K0 Mg5 3.272426 1_445
K0 Mg3 3.272426 1_555
K0 Mg3 3.272426 1_455
K0 Mg7 3.326636 1_555
K0 Mg6 3.326636 1_555
K0 Mg9 3.326642 1_555
K0 Mg8 3.326642 1_555
K0 Mg11 3.326642 1_455
K0 Mg10 3.326642 1_455
Mg0 Mg9 3.071423 1_554
Mg0 Mg8 3.071423 1_555
Mg0 Mg7 3.071430 1_564
Mg0 Mg6 3.071430 1_565
Mg0 Mg13 3.224775 1_454
Mg0 Mg12 3.224775 1_455
Mg0 Mg2 3.268329 1_565
Mg0 Mg4 3.268329 1_555
Mg0 Ti0 3.272126 1_555
Mg0 Ti0 3.272126 1_565
Mg0 Mg2 3.275922 1_455
Mg0 Mg4 3.275922 1_455
Mg1 Mg3 3.195355 1_565
Mg1 Mg5 3.195355 1_555
Mg1 Mg12 3.196540 1_455
Mg1 Mg13 3.196540 1_455
Mg1 Mg9 3.304765 1_555
Mg1 Mg8 3.304765 1_555
Mg1 Mg6 3.304771 1_565
Mg1 Mg7 3.304771 1_565
Mg1 Mg3 3.348895 1_455
Mg1 Mg5 3.348896 1_455
Mg2 Mg7 3.071430 1_554
Mg2 Mg6 3.071430 1_555
Mg2 Mg4 3.268329 1_545
Mg2 Ti0 3.272126 1_555
Mg2 Ti0 3.272126 1_655
Mg2 Mg4 3.275922 1_555
Mg3 Mg5 3.195355 1_545
Mg3 Mg6 3.304771 1_555
Mg3 Mg7 3.304771 1_555
Mg3 Mg5 3.348895 1_555
Mg4 Mg8 3.071430 1_555
Mg4 Mg9 3.071430 1_554
Mg4 Ti0 3.272126 1_555
Mg4 Ti0 3.272126 1_665
Mg5 Mg8 3.304771 1_555
Mg5 Mg9 3.304771 1_555
Mg6 Ti0 3.082300 1_555
Mg6 Mg8 3.252941 1_545
Mg6 Mg8 3.291310 1_555
Mg7 Ti0 3.082300 1_556
Mg7 Mg9 3.252941 1_545
Mg7 Mg9 3.291310 1_555
Mg8 Ti0 3.082307 1_555
Mg9 Ti0 3.082307 1_556
Mg10 Mg2 3.071423 1_555
Mg10 Mg4 3.071430 1_545
Mg10 Ti0 3.082307 1_655
Mg10 Mg8 3.252941 1_545
Mg10 Mg6 3.252941 1_555
Mg10 Mg12 3.277370 1_555
Mg10 Mg12 3.277370 1_545
Mg10 Mg8 3.291310 1_655
Mg10 Mg6 3.291310 1_655
Mg10 Mg3 3.304765 1_555
Mg10 Mg5 3.304771 1_545
Mg11 Mg2 3.071423 1_556
Mg11 Mg4 3.071430 1_546
Mg11 Ti0 3.082307 1_656
Mg11 Mg9 3.252941 1_545
Mg11 Mg7 3.252941 1_555
Mg11 Mg13 3.277370 1_555
Mg11 Mg13 3.277370 1_545
Mg11 Mg9 3.291310 1_655
Mg11 Mg7 3.291310 1_655
Mg11 Mg3 3.304765 1_555
Mg11 Mg5 3.304771 1_545
Mg12 Mg5 3.196534 1_555
Mg12 Mg3 3.196540 1_555
Mg12 Mg4 3.224769 1_555
Mg12 Mg2 3.224775 1_555
Mg12 Mg6 3.277370 1_555
Mg12 Mg6 3.277370 1_665
Mg12 Mg8 3.277371 1_555
Mg12 Mg8 3.277371 1_655
Mg13 Mg5 3.196534 1_555
Mg13 Mg3 3.196540 1_555
Mg13 Mg4 3.224769 1_556
Mg13 Mg2 3.224775 1_556
Mg13 Mg7 3.277370 1_555
Mg13 Mg7 3.277370 1_665
Mg13 Mg9 3.277371 1_555
Mg13 Mg9 3.277371 1_655
