# generated using pymatgen
data_Ba2Ti2CuF14
_symmetry_space_group_name_H-M   'P 1'
_cell_length_a   7.68933162
_cell_length_b   7.68933162
_cell_length_c   15.31314524
_cell_angle_alpha   88.88682401
_cell_angle_beta   88.88682401
_cell_angle_gamma   40.96096373
_symmetry_Int_Tables_number   1
_chemical_formula_structural   Ba2Ti2CuF14
_chemical_formula_sum   'Ba4 Ti4 Cu2 F28'
_cell_volume   593.40400729
_cell_formula_units_Z   2
loop_
 _symmetry_equiv_pos_site_id
 _symmetry_equiv_pos_as_xyz
  1  'x, y, z'
loop_
 _atom_site_type_symbol
 _atom_site_label
 _atom_site_symmetry_multiplicity
 _atom_site_fract_x
 _atom_site_fract_y
 _atom_site_fract_z
 _atom_site_occupancy
  Ba  Ba0  1  0.10587200  0.24921700  0.87649700  1
  Ba  Ba1  1  0.24921700  0.10587200  0.37649700  1
  Ba  Ba2  1  0.89412800  0.75078300  0.12350300  1
  Ba  Ba3  1  0.75078300  0.89412800  0.62350300  1
  Ti  Ti0  1  0.10077300  0.14249200  0.62872400  1
  Ti  Ti1  1  0.89922700  0.85750800  0.37127600  1
  Ti  Ti2  1  0.14249200  0.10077300  0.12872400  1
  Ti  Ti3  1  0.85750800  0.89922700  0.87127600  1
  Cu  Cu0  1  0.50000000  0.50000000  0.50000000  1
  Cu  Cu1  1  0.50000000  0.50000000  0.00000000  1
  F  F0  1  0.94098500  0.05943700  0.15139100  1
  F  F1  1  0.88723900  0.39752800  0.05068700  1
  F  F2  1  0.11276100  0.60247200  0.94931300  1
  F  F3  1  0.64302700  0.86478300  0.91163000  1
  F  F4  1  0.62562600  0.49854600  0.89668900  1
  F  F5  1  0.50145400  0.37437400  0.60331100  1
  F  F6  1  0.39752800  0.88723900  0.55068700  1
  F  F7  1  0.94056300  0.05901500  0.34860900  1
  F  F8  1  0.35714300  0.99062200  0.71657500  1
  F  F9  1  0.35697300  0.13521700  0.08837000  1
  F  F10  1  0.84632300  0.40528700  0.70622300  1
  F  F11  1  0.13521700  0.35697300  0.58837000  1
  F  F12  1  0.40528700  0.84632300  0.20622300  1
  F  F13  1  0.15367700  0.59471300  0.29377700  1
  F  F14  1  0.49854600  0.62562600  0.39668900  1
  F  F15  1  0.64285700  0.00937800  0.28342500  1
  F  F16  1  0.11924100  0.70929700  0.47577100  1
  F  F17  1  0.05901500  0.94056300  0.84860900  1
  F  F18  1  0.88075900  0.29070300  0.52422900  1
  F  F19  1  0.70929700  0.11924100  0.97577100  1
  F  F20  1  0.60247200  0.11276100  0.44931300  1
  F  F21  1  0.59471300  0.15367700  0.79377700  1
  F  F22  1  0.99062200  0.35714300  0.21657500  1
  F  F23  1  0.29070300  0.88075900  0.02422900  1
  F  F24  1  0.37437400  0.50145400  0.10331100  1
  F  F25  1  0.05943700  0.94098500  0.65139100  1
  F  F26  1  0.00937800  0.64285700  0.78342500  1
  F  F27  1  0.86478300  0.64302700  0.41163000  1
loop_
_geom_bond_atom_site_label_1
_geom_bond_atom_site_label_2
_geom_bond_distance
_geom_bond_site_symmetry_2
Ba0 F4 2.587248 1_455
Ba0 F17 2.698480 1_545
Ba0 F3 2.769814 1_545
Ba0 F8 2.808378 1_545
Ba0 F26 2.867935 1_555
Ba0 F1 2.879267 1_456
Ba0 F10 2.947074 1_455
Ba0 F23 2.993170 1_546
Ba0 F2 2.993606 1_555
Ba0 F3 3.153112 1_455
Ba1 F14 2.587248 1_545
Ba1 F7 2.698480 1_455
Ba1 F27 2.769814 1_455
Ba1 F22 2.808378 1_455
Ba1 F15 2.867935 1_555
Ba1 F6 2.879267 1_545
Ba1 F12 2.947074 1_545
Ba1 F18 2.993170 1_455
Ba1 F20 2.993606 1_555
Ba1 F27 3.153112 1_545
Ba2 F24 2.587248 1_655
Ba2 F0 2.698480 1_565
Ba2 F9 2.769814 1_565
Ba2 F15 2.808378 1_565
Ba2 F22 2.867935 1_555
Ba2 F2 2.879267 1_654
Ba2 F13 2.947074 1_655
Ba2 F19 2.993170 1_564
Ba2 F1 2.993606 1_555
Ba2 F9 3.153112 1_655
Ba3 F5 2.587248 1_565
Ba3 F25 2.698480 1_655
Ba3 F11 2.769814 1_655
Ba3 F26 2.808378 1_655
Ba3 F8 2.867935 1_555
Ba3 F20 2.879267 1_565
Ba3 F21 2.947074 1_565
Ba3 F16 2.993170 1_655
Ba3 F6 2.993606 1_555
Ba3 F11 3.153112 1_565
Cu0 F5 1.833307 1_555
Cu0 F14 1.833307 1_555
Cu0 F18 2.049937 1_555
Cu0 F16 2.049937 1_555
Cu1 F24 1.833307 1_555
Cu1 F4 1.833307 1_554
Cu1 F23 2.049937 1_555
Cu1 F19 2.049937 1_554
F0 Ti2 1.827825 1_655
F1 Ti2 1.925658 1_655
F2 Ti3 1.925658 1_455
F3 Ti3 1.945677 1_555
F6 Ti0 1.925658 1_565
F7 Ti1 1.827825 1_545
F8 Ti0 1.903871 1_565
F9 Ti2 1.945677 1_555
F10 Ti0 1.830712 1_655
F11 Ti0 1.945677 1_555
F12 Ti2 1.830712 1_565
F13 Ti1 1.830712 1_455
F15 Ti1 1.903871 1_545
F16 Ti1 1.960548 1_455
F17 Ti3 1.827825 1_455
F18 Ti0 1.960548 1_655
F19 Ti3 1.960548 1_545
F20 Ti1 1.925658 1_545
F21 Ti3 1.830712 1_545
F22 Ti2 1.903871 1_655
F23 Ti2 1.960548 1_565
F25 Ti0 1.827825 1_565
F26 Ti3 1.903871 1_455
F27 Ti1 1.945677 1_555
