# generated using pymatgen
data_CrBiO4
_symmetry_space_group_name_H-M   'P 1'
_cell_length_a   6.07701682
_cell_length_b   10.88998447
_cell_length_c   6.08858109
_cell_angle_alpha   90.00592546
_cell_angle_beta   114.50689116
_cell_angle_gamma   89.96719832
_symmetry_Int_Tables_number   1
_chemical_formula_structural   CrBiO4
_chemical_formula_sum   'Cr4 Bi4 O16'
_cell_volume   366.63406835
_cell_formula_units_Z   4
loop_
 _symmetry_equiv_pos_site_id
 _symmetry_equiv_pos_as_xyz
  1  'x, y, z'
loop_
 _atom_site_type_symbol
 _atom_site_label
 _atom_site_symmetry_multiplicity
 _atom_site_fract_x
 _atom_site_fract_y
 _atom_site_fract_z
 _atom_site_occupancy
  Cr  Cr0  1  0.75025200  0.87260400  0.50014400  1
  Cr  Cr1  1  0.75011400  0.62739000  0.99990700  1
  Cr  Cr2  1  0.24976300  0.37483600  0.99985800  1
  Cr  Cr3  1  0.24984500  0.12508900  0.49992800  1
  Bi  Bi0  1  0.74977100  0.14562500  0.99976900  1
  Bi  Bi1  1  0.25002600  0.59261700  0.50007600  1
  Bi  Bi2  1  0.74973700  0.35437400  0.49991300  1
  Bi  Bi3  1  0.25015200  0.90736600  0.00004400  1
  O  O0  1  0.16421100  0.45890200  0.72073400  1
  O  O1  1  0.66131200  0.96043900  0.24768300  1
  O  O2  1  0.52586200  0.28783200  0.09400600  1
  O  O3  1  0.98995900  0.78865400  0.54128500  1
  O  O4  1  0.97384000  0.28786700  0.90581900  1
  O  O5  1  0.51070700  0.78867300  0.45898700  1
  O  O6  1  0.33561600  0.45883800  0.27919000  1
  O  O7  1  0.83881400  0.96047900  0.75260500  1
  O  O8  1  0.16416500  0.04109700  0.22064700  1
  O  O9  1  0.66136000  0.53954700  0.74754800  1
  O  O10  1  0.52572100  0.21211100  0.59395700  1
  O  O11  1  0.98974500  0.71132200  0.04124300  1
  O  O12  1  0.97385800  0.21212900  0.40584600  1
  O  O13  1  0.51066100  0.71145200  0.95889300  1
  O  O14  1  0.33568500  0.04112800  0.77929400  1
  O  O15  1  0.83882300  0.53963000  0.25262500  1
loop_
_geom_bond_atom_site_label_1
_geom_bond_atom_site_label_2
_geom_bond_distance
_geom_bond_site_symmetry_2
Cr0 O5 1.648081 1_555
Cr0 O3 1.648128 1_555
Cr0 O1 1.697146 1_555
Cr0 O7 1.697693 1_555
Cr1 O13 1.647704 1_555
Cr1 O11 1.648282 1_556
Cr1 O9 1.696949 1_555
Cr1 O15 1.697979 1_556
Cr2 O4 1.800461 1_455
Cr2 O2 1.800523 1_556
Cr2 O0 1.806479 1_555
Cr2 O6 1.807103 1_556
Cr3 O12 1.800213 1_455
Cr3 O10 1.800541 1_555
Cr3 O8 1.806900 1_555
Cr3 O14 1.806931 1_555
Bi0 O2 2.285623 1_556
Bi0 O4 2.286828 1_555
Bi0 O10 2.385649 1_555
Bi0 O12 2.387347 1_556
Bi0 O14 2.574849 1_555
Bi0 O8 2.575557 1_656
Bi0 O7 2.701177 1_545
Bi0 O1 2.703591 1_546
Bi1 O0 2.186286 1_555
Bi1 O6 2.186484 1_555
Bi1 O15 2.392785 1_455
Bi1 O9 2.393036 1_555
Bi1 O3 2.728233 1_455
Bi1 O5 2.731914 1_555
Bi2 O12 2.286289 1_555
Bi2 O10 2.287042 1_555
Bi2 O4 2.386221 1_555
Bi2 O2 2.386464 1_555
Bi2 O6 2.573876 1_555
Bi2 O0 2.577037 1_655
Bi2 O9 2.701491 1_555
Bi2 O15 2.703362 1_555
Bi3 O8 2.186095 1_565
Bi3 O14 2.186181 1_564
Bi3 O1 2.393032 1_555
Bi3 O7 2.393129 1_454
Bi3 O13 2.728726 1_554
Bi3 O11 2.731005 1_455
