# generated using pymatgen
data_Y2ZnCd
_symmetry_space_group_name_H-M   'P 1'
_cell_length_a   12.60573297
_cell_length_b   12.60573297
_cell_length_c   12.60573297
_cell_angle_alpha   121.15903774
_cell_angle_beta   119.65731602
_cell_angle_gamma   89.29943988
_symmetry_Int_Tables_number   1
_chemical_formula_structural   Y2ZnCd
_chemical_formula_sum   'Y2 Zn1 Cd1'
_cell_volume   1407.25152969
_cell_formula_units_Z   1
loop_
 _symmetry_equiv_pos_site_id
 _symmetry_equiv_pos_as_xyz
  1  'x, y, z'
loop_
 _atom_site_type_symbol
 _atom_site_label
 _atom_site_symmetry_multiplicity
 _atom_site_fract_x
 _atom_site_fract_y
 _atom_site_fract_z
 _atom_site_occupancy
  Y  Y0  1  0.00000000  0.24256300  0.24256300  1
  Y  Y1  1  0.00000000  0.75743700  0.75743700  1
  Zn  Zn0  1  0.00000000  0.00000000  0.00000000  1
  Cd  Cd0  1  0.00000000  0.50000000  0.50000000  1
loop_
_geom_bond_atom_site_label_1
_geom_bond_atom_site_label_2
_geom_bond_distance
_geom_bond_site_symmetry_2
Y0 Zn0 3.003962 1_555
Y1 Zn0 3.003962 1_566
Cd0 Y1 3.188165 1_555
Cd0 Y0 3.188165 1_555
