# generated using pymatgen
data_Ca3Co2(SiO4)3
_symmetry_space_group_name_H-M   'P 1'
_cell_length_a   10.51898704
_cell_length_b   10.51898704
_cell_length_c   10.51898704
_cell_angle_alpha   109.47122063
_cell_angle_beta   109.47122063
_cell_angle_gamma   109.47122063
_symmetry_Int_Tables_number   1
_chemical_formula_structural   Ca3Co2(SiO4)3
_chemical_formula_sum   'Ca12 Co8 Si12 O48'
_cell_volume   895.98320613
_cell_formula_units_Z   4
loop_
 _symmetry_equiv_pos_site_id
 _symmetry_equiv_pos_as_xyz
  1  'x, y, z'
loop_
 _atom_site_type_symbol
 _atom_site_label
 _atom_site_symmetry_multiplicity
 _atom_site_fract_x
 _atom_site_fract_y
 _atom_site_fract_z
 _atom_site_occupancy
  Ca  Ca0  1  0.25000000  0.37500000  0.12500000  1
  Ca  Ca1  1  0.75000000  0.12500000  0.37500000  1
  Ca  Ca2  1  0.37500000  0.12500000  0.25000000  1
  Ca  Ca3  1  0.12500000  0.37500000  0.75000000  1
  Ca  Ca4  1  0.25000000  0.87500000  0.62500000  1
  Ca  Ca5  1  0.12500000  0.25000000  0.37500000  1
  Ca  Ca6  1  0.62500000  0.25000000  0.87500000  1
  Ca  Ca7  1  0.75000000  0.62500000  0.87500000  1
  Ca  Ca8  1  0.87500000  0.75000000  0.62500000  1
  Ca  Ca9  1  0.87500000  0.62500000  0.25000000  1
  Ca  Ca10  1  0.62500000  0.87500000  0.75000000  1
  Ca  Ca11  1  0.37500000  0.75000000  0.12500000  1
  Co  Co0  1  0.50000000  0.00000000  0.00000000  1
  Co  Co1  1  0.50000000  0.50000000  0.00000000  1
  Co  Co2  1  0.00000000  0.50000000  0.50000000  1
  Co  Co3  1  0.00000000  0.00000000  0.50000000  1
  Co  Co4  1  0.50000000  0.50000000  0.50000000  1
  Co  Co5  1  0.00000000  0.50000000  0.00000000  1
  Co  Co6  1  0.50000000  0.00000000  0.50000000  1
  Co  Co7  1  0.00000000  0.00000000  0.00000000  1
  Si  Si0  1  0.12500000  0.75000000  0.87500000  1
  Si  Si1  1  0.87500000  0.25000000  0.12500000  1
  Si  Si2  1  0.75000000  0.37500000  0.62500000  1
  Si  Si3  1  0.12500000  0.87500000  0.25000000  1
  Si  Si4  1  0.25000000  0.12500000  0.87500000  1
  Si  Si5  1  0.37500000  0.62500000  0.75000000  1
  Si  Si6  1  0.37500000  0.25000000  0.62500000  1
  Si  Si7  1  0.87500000  0.12500000  0.75000000  1
  Si  Si8  1  0.62500000  0.37500000  0.25000000  1
  Si  Si9  1  0.75000000  0.87500000  0.12500000  1
  Si  Si10  1  0.25000000  0.62500000  0.37500000  1
  Si  Si11  1  0.62500000  0.75000000  0.37500000  1
  O  O0  1  0.58740600  0.89329100  0.38405100  1
  O  O1  1  0.38405100  0.58740600  0.89329100  1
  O  O2  1  0.29664500  0.30588400  0.91259400  1
  O  O3  1  0.49076100  0.60670900  0.19411600  1
  O  O4  1  0.30588400  0.89329100  0.00923900  1
  O  O5  1  0.11594900  0.00923900  0.20335500  1
  O  O6  1  0.38405100  0.29664500  0.49076100  1
  O  O7  1  0.89329100  0.38405100  0.58740600  1
  O  O8  1  0.19411600  0.20335500  0.58740600  1
  O  O9  1  0.49076100  0.38405100  0.29664500  1
  O  O10  1  0.89329100  0.00923900  0.30588400  1
  O  O11  1  0.60670900  0.91259400  0.11594900  1
  O  O12  1  0.91259400  0.11594900  0.60670900  1
  O  O13  1  0.29664500  0.49076100  0.38405100  1
  O  O14  1  0.58740600  0.19411600  0.20335500  1
  O  O15  1  0.20335500  0.58740600  0.19411600  1
  O  O16  1  0.00923900  0.30588400  0.89329100  1
  O  O17  1  0.91259400  0.29664500  0.30588400  1
  O  O18  1  0.00923900  0.20335500  0.11594900  1
  O  O19  1  0.80588400  0.79664500  0.41259400  1
  O  O20  1  0.19411600  0.49076100  0.60670900  1
  O  O21  1  0.60670900  0.19411600  0.49076100  1
  O  O22  1  0.20335500  0.11594900  0.00923900  1
  O  O23  1  0.11594900  0.60670900  0.91259400  1
  O  O24  1  0.41259400  0.10670900  0.61594900  1
  O  O25  1  0.61594900  0.41259400  0.10670900  1
  O  O26  1  0.70335500  0.69411600  0.08740600  1
  O  O27  1  0.50923900  0.39329100  0.80588400  1
  O  O28  1  0.69411600  0.10670900  0.99076100  1
  O  O29  1  0.88405100  0.99076100  0.79664500  1
  O  O30  1  0.61594900  0.70335500  0.50923900  1
  O  O31  1  0.10670900  0.61594900  0.41259400  1
  O  O32  1  0.88405100  0.39329100  0.08740600  1
  O  O33  1  0.79664500  0.88405100  0.99076100  1
  O  O34  1  0.39329100  0.80588400  0.50923900  1
  O  O35  1  0.69411600  0.08740600  0.70335500  1
  O  O36  1  0.80588400  0.50923900  0.39329100  1
  O  O37  1  0.99076100  0.79664500  0.88405100  1
  O  O38  1  0.08740600  0.70335500  0.69411600  1
  O  O39  1  0.99076100  0.69411600  0.10670900  1
  O  O40  1  0.79664500  0.41259400  0.80588400  1
  O  O41  1  0.41259400  0.80588400  0.79664500  1
  O  O42  1  0.70335500  0.50923900  0.61594900  1
  O  O43  1  0.08740600  0.88405100  0.39329100  1
  O  O44  1  0.39329100  0.08740600  0.88405100  1
  O  O45  1  0.10670900  0.99076100  0.69411600  1
  O  O46  1  0.50923900  0.61594900  0.70335500  1
  O  O47  1  0.30588400  0.91259400  0.29664500  1
loop_
_geom_bond_atom_site_label_1
_geom_bond_atom_site_label_2
_geom_bond_distance
_geom_bond_site_symmetry_2
Ca0 O15 2.376369 1_555
Ca0 O2 2.376369 1_554
Ca0 O13 2.376369 1_555
Ca0 O22 2.376369 1_555
Ca0 O3 2.521724 1_555
Ca0 O16 2.521724 1_554
Ca0 O18 2.521729 1_555
Ca0 O9 2.521729 1_555
Ca1 O7 2.376368 1_555
Ca1 O11 2.376368 1_545
Ca1 O10 2.376378 1_555
Ca1 O21 2.376378 1_555
Ca1 O0 2.521721 1_545
Ca1 O12 2.521721 1_555
Ca1 O17 2.521729 1_555
Ca1 O14 2.521729 1_555
Ca2 O14 2.376369 1_555
Ca2 O47 2.376369 1_545
Ca2 O9 2.376369 1_555
Ca2 O5 2.376369 1_555
Ca2 O21 2.521724 1_555
Ca2 O4 2.521724 1_545
Ca2 O22 2.521729 1_555
Ca2 O6 2.521729 1_555
Ca3 O1 2.376368 1_555
Ca3 O12 2.376368 1_455
Ca3 O20 2.376378 1_555
Ca3 O16 2.376378 1_555
Ca3 O7 2.521721 1_455
Ca3 O23 2.521721 1_555
Ca3 O2 2.521729 1_555
Ca3 O8 2.521729 1_555
Ca4 O31 2.376368 1_555
Ca4 O44 2.376368 1_565
Ca4 O34 2.376378 1_555
Ca4 O45 2.376378 1_555
Ca4 O43 2.521721 1_555
Ca4 O24 2.521721 1_565
Ca4 O38 2.521729 1_555
Ca4 O41 2.521729 1_555
Ca5 O6 2.376369 1_555
Ca5 O17 2.376369 1_455
Ca5 O8 2.376369 1_555
Ca5 O18 2.376369 1_555
Ca5 O10 2.521724 1_455
Ca5 O20 2.521724 1_555
Ca5 O13 2.521729 1_555
Ca5 O5 2.521729 1_555
Ca6 O24 2.376368 1_555
Ca6 O32 2.376368 1_556
Ca6 O28 2.376378 1_555
Ca6 O27 2.376378 1_555
Ca6 O25 2.521721 1_556
Ca6 O44 2.521721 1_555
Ca6 O35 2.521729 1_555
Ca6 O40 2.521729 1_555
Ca7 O42 2.376369 1_555
Ca7 O33 2.376369 1_555
Ca7 O40 2.376369 1_555
Ca7 O26 2.376369 1_556
Ca7 O39 2.521724 1_556
Ca7 O27 2.521724 1_555
Ca7 O46 2.521729 1_555
Ca7 O37 2.521729 1_555
Ca8 O30 2.376369 1_555
Ca8 O37 2.376369 1_555
Ca8 O19 2.376369 1_555
Ca8 O38 2.376369 1_655
Ca8 O45 2.521724 1_655
Ca8 O36 2.521724 1_555
Ca8 O42 2.521729 1_555
Ca8 O29 2.521729 1_555
Ca9 O25 2.376368 1_555
Ca9 O43 2.376368 1_655
Ca9 O39 2.376378 1_555
Ca9 O36 2.376378 1_555
Ca9 O31 2.521721 1_655
Ca9 O32 2.521721 1_555
Ca9 O26 2.521729 1_555
Ca9 O19 2.521729 1_555
Ca10 O29 2.376369 1_555
Ca10 O46 2.376369 1_555
Ca10 O41 2.376369 1_555
Ca10 O35 2.376369 1_565
Ca10 O28 2.521724 1_565
Ca10 O34 2.521724 1_555
Ca10 O30 2.521729 1_555
Ca10 O33 2.521729 1_555
Ca11 O0 2.376368 1_555
Ca11 O23 2.376368 1_554
Ca11 O3 2.376378 1_555
Ca11 O4 2.376378 1_555
Ca11 O1 2.521721 1_554
Ca11 O11 2.521721 1_555
Ca11 O47 2.521729 1_555
Ca11 O15 2.521729 1_555
Co0 O44 2.028738 1_554
Co0 O11 2.028738 1_545
Co0 O28 2.028741 1_554
Co0 O4 2.028741 1_545
Co0 O41 2.028744 1_544
Co0 O14 2.028744 1_555
Co1 O25 2.028738 1_555
Co1 O1 2.028738 1_554
Co1 O27 2.028741 1_554
Co1 O3 2.028741 1_555
Co1 O26 2.028744 1_555
Co1 O2 2.028744 1_554
Co2 O31 2.028738 1_555
Co2 O7 2.028738 1_455
Co2 O36 2.028741 1_455
Co2 O20 2.028741 1_555
Co2 O38 2.028744 1_555
Co2 O17 2.028744 1_455
Co3 O43 2.028738 1_545
Co3 O12 2.028738 1_455
Co3 O45 2.028741 1_545
Co3 O10 2.028741 1_455
Co3 O19 2.028744 1_445
Co3 O8 2.028744 1_555
Co4 O42 2.028744 1_555
Co4 O30 2.028744 1_555
Co4 O46 2.028744 1_555
Co4 O6 2.028744 1_555
Co4 O9 2.028744 1_555
Co4 O13 2.028744 1_555
Co5 O32 2.028738 1_455
Co5 O23 2.028738 1_554
Co5 O39 2.028741 1_455
Co5 O16 2.028741 1_554
Co5 O40 2.028744 1_454
Co5 O15 2.028744 1_555
Co6 O24 2.028738 1_555
Co6 O0 2.028738 1_545
Co6 O34 2.028741 1_545
Co6 O21 2.028741 1_555
Co6 O35 2.028744 1_555
Co6 O47 2.028744 1_545
Co7 O33 2.028744 1_444
Co7 O37 2.028744 1_444
Co7 O29 2.028744 1_444
Co7 O5 2.028744 1_555
Co7 O18 2.028744 1_555
Co7 O22 2.028744 1_555
O0 Si11 1.662566 1_555
O1 Si5 1.662566 1_555
O2 Si4 1.662556 1_555
O3 Si11 1.662559 1_555
O4 Si0 1.662559 1_554
O5 Si3 1.662556 1_545
O6 Si6 1.662556 1_555
O7 Si2 1.662566 1_555
O8 Si6 1.662556 1_555
O9 Si8 1.662556 1_555
O10 Si9 1.662559 1_545
O11 Si9 1.662566 1_555
O12 Si7 1.662566 1_555
O13 Si10 1.662556 1_555
O14 Si8 1.662556 1_555
O15 Si10 1.662556 1_555
O16 Si7 1.662559 1_455
O17 Si1 1.662556 1_555
O18 Si1 1.662556 1_455
O19 Si11 1.662556 1_555
O20 Si5 1.662559 1_555
O21 Si2 1.662559 1_555
O22 Si4 1.662556 1_554
O23 Si0 1.662566 1_555
O24 Si6 1.662566 1_555
O25 Si8 1.662566 1_555
O26 Si9 1.662556 1_555
O27 Si6 1.662559 1_555
O28 Si1 1.662559 1_556
O29 Si7 1.662556 1_565
O30 Si11 1.662556 1_555
O31 Si10 1.662566 1_555
O32 Si1 1.662566 1_555
O33 Si9 1.662556 1_556
O34 Si10 1.662559 1_555
O35 Si7 1.662556 1_555
O36 Si8 1.662559 1_555
O37 Si0 1.662556 1_655
O38 Si0 1.662556 1_555
O39 Si3 1.662559 1_655
O40 Si2 1.662556 1_555
O41 Si5 1.662556 1_555
O42 Si2 1.662556 1_555
O43 Si3 1.662566 1_555
O44 Si4 1.662566 1_555
O45 Si4 1.662559 1_565
O46 Si5 1.662556 1_555
O47 Si3 1.662556 1_555
