# generated using pymatgen
data_Ca9Y3(CoO6)4
_symmetry_space_group_name_H-M   'P 1'
_cell_length_a   6.30745500
_cell_length_b   8.85095130
_cell_length_c   9.04140826
_cell_angle_alpha   89.74304905
_cell_angle_beta   88.75097792
_cell_angle_gamma   89.87428640
_symmetry_Int_Tables_number   1
_chemical_formula_structural   Ca9Y3(CoO6)4
_chemical_formula_sum   'Ca9 Y3 Co4 O24'
_cell_volume   504.62837740
_cell_formula_units_Z   1
loop_
 _symmetry_equiv_pos_site_id
 _symmetry_equiv_pos_as_xyz
  1  'x, y, z'
loop_
 _atom_site_type_symbol
 _atom_site_label
 _atom_site_symmetry_multiplicity
 _atom_site_fract_x
 _atom_site_fract_y
 _atom_site_fract_z
 _atom_site_occupancy
  Ca  Ca0  1  0.10972000  0.32010600  0.07083900  1
  Ca  Ca1  1  0.74762000  0.85869200  0.25013200  1
  Ca  Ca2  1  0.74997200  0.35908800  0.74975500  1
  Ca  Ca3  1  0.89164000  0.17717400  0.42919900  1
  Ca  Ca4  1  0.89028700  0.67869400  0.92857100  1
  Ca  Ca5  1  0.25211200  0.14514100  0.75157100  1
  Ca  Ca6  1  0.25018500  0.64057500  0.24928600  1
  Ca  Ca7  1  0.60892500  0.67813700  0.57072200  1
  Ca  Ca8  1  0.60676000  0.17862700  0.07247700  1
  Y  Y0  1  0.39212600  0.32072700  0.42933300  1
  Y  Y1  1  0.39206300  0.82143700  0.92905100  1
  Y  Y2  1  0.10708700  0.82213400  0.56963900  1
  Co  Co0  1  0.50249600  0.99894200  0.50283100  1
  Co  Co1  1  0.50202100  0.49909400  0.00248100  1
  Co  Co2  1  0.99550700  0.00075500  0.99805700  1
  Co  Co3  1  0.99667400  0.49897800  0.49836200  1
  O  O0  1  0.43172500  0.89027600  0.67883700  1
  O  O1  1  0.43400700  0.39389400  0.18081400  1
  O  O2  1  0.78622300  0.92899900  0.50576200  1
  O  O3  1  0.77550000  0.43262400  0.00537100  1
  O  O4  1  0.56697000  0.17595700  0.60680100  1
  O  O5  1  0.56647800  0.67696000  0.10742900  1
  O  O6  1  0.93480100  0.10037500  0.17485500  1
  O  O7  1  0.93864600  0.60850700  0.67260400  1
  O  O8  1  0.07997100  0.32984100  0.60510100  1
  O  O9  1  0.07875800  0.82989800  0.10064000  1
  O  O10  1  0.28205300  0.56734600  0.50259400  1
  O  O11  1  0.28298100  0.06353700  0.00014500  1
  O  O12  1  0.56104200  0.10835800  0.32801500  1
  O  O13  1  0.56322400  0.60957700  0.82686200  1
  O  O14  1  0.21911300  0.06875600  0.49860000  1
  O  O15  1  0.22607800  0.57277100  0.99365800  1
  O  O16  1  0.41911300  0.82922400  0.39729400  1
  O  O17  1  0.42578000  0.33031000  0.89396400  1
  O  O18  1  0.07009400  0.88867700  0.81839600  1
  O  O19  1  0.07031200  0.39156300  0.32601600  1
  O  O20  1  0.93476900  0.67484800  0.39220200  1
  O  O21  1  0.92898700  0.16741000  0.89176800  1
  O  O22  1  0.71455100  0.43152400  0.49484500  1
  O  O23  1  0.71362600  0.93046600  0.99511800  1
loop_
_geom_bond_atom_site_label_1
_geom_bond_atom_site_label_2
_geom_bond_distance
_geom_bond_site_symmetry_2
Ca0 O1 2.387329 1_555
Ca0 O19 2.402535 1_555
Ca0 O3 2.413724 1_455
Ca0 O6 2.414920 1_455
Ca0 O21 2.419560 1_454
Ca0 O15 2.449006 1_554
Ca0 O17 2.529878 1_554
Ca0 O11 2.594495 1_555
Ca1 O5 2.376624 1_555
Ca1 O20 2.393760 1_555
Ca1 O23 2.402820 1_554
Ca1 O2 2.413819 1_555
Ca1 O16 2.451698 1_555
Ca1 O9 2.476270 1_655
Ca1 O6 2.529027 1_565
Ca1 O12 2.594291 1_565
Ca2 O4 2.392118 1_555
Ca2 O22 2.404449 1_555
Ca2 O3 2.412683 1_556
Ca2 O17 2.414394 1_555
Ca2 O21 2.416002 1_555
Ca2 O8 2.447855 1_655
Ca2 O7 2.595729 1_555
Ca2 O13 2.599129 1_555
Ca3 O14 2.371361 1_655
Ca3 O12 2.376943 1_555
Ca3 O19 2.385109 1_655
Ca3 O2 2.391441 1_545
Ca3 O6 2.410471 1_555
Ca3 O8 2.423842 1_655
Ca3 O4 2.574657 1_555
Ca3 O22 2.576830 1_555
Ca4 O13 2.359847 1_555
Ca4 O18 2.382462 1_655
Ca4 O3 2.391920 1_556
Ca4 O9 2.393920 1_656
Ca4 O15 2.398289 1_655
Ca4 O7 2.411688 1_555
Ca4 O23 2.557617 1_555
Ca4 O5 2.577345 1_556
Ca5 O11 2.369506 1_556
Ca5 O4 2.370134 1_555
Ca5 O17 2.373129 1_555
Ca5 O8 2.374997 1_555
Ca5 O21 2.384804 1_455
Ca5 O14 2.401457 1_555
Ca5 O0 2.602722 1_545
Ca5 O18 2.608579 1_545
Ca6 O20 2.368227 1_455
Ca6 O5 2.369883 1_555
Ca6 O10 2.389974 1_555
Ca6 O15 2.398594 1_554
Ca6 O16 2.409163 1_555
Ca6 O9 2.412163 1_555
Ca6 O1 2.542514 1_555
Ca6 O19 2.566905 1_555
Ca7 O7 2.371982 1_555
Ca7 O10 2.379369 1_555
Ca7 O22 2.380351 1_555
Ca7 O0 2.385344 1_555
Ca7 O16 2.395073 1_555
Ca7 O13 2.402836 1_555
Ca7 O2 2.548754 1_555
Ca7 O20 2.585663 1_555
Ca8 O6 2.385196 1_555
Ca8 O11 2.389425 1_555
Ca8 O1 2.395431 1_555
Ca8 O23 2.398901 1_544
Ca8 O17 2.400973 1_554
Ca8 O12 2.401433 1_555
Ca8 O3 2.554415 1_555
Ca8 O21 2.581850 1_554
Co0 O16 1.865962 1_555
Co0 O12 1.880125 1_565
Co0 O4 1.880538 1_565
Co0 O14 1.891058 1_565
Co0 O2 1.893053 1_555
Co0 O0 1.901019 1_555
Co1 O3 1.821992 1_555
Co1 O15 1.860525 1_554
Co1 O17 1.860780 1_554
Co1 O5 1.891310 1_555
Co1 O13 1.894076 1_554
Co1 O1 1.899718 1_555
Co2 O21 1.810387 1_555
Co2 O9 1.851496 1_646
Co2 O6 1.861116 1_556
Co2 O23 1.885714 1_545
Co2 O11 1.898143 1_656
Co2 O18 1.955278 1_645
Co3 O8 1.858540 1_655
Co3 O20 1.870046 1_555
Co3 O19 1.878178 1_655
Co3 O22 1.879175 1_555
Co3 O7 1.882189 1_555
Co3 O10 1.901494 1_655
O0 Y1 2.348487 1_555
O0 Y2 2.372814 1_555
O1 Y0 2.345170 1_555
O2 Y2 2.315548 1_655
O4 Y0 2.342049 1_555
O5 Y1 2.345046 1_554
O7 Y2 2.349569 1_655
O8 Y0 2.504528 1_555
O9 Y1 2.486846 1_554
O10 Y0 2.381537 1_555
O10 Y2 2.577420 1_555
O11 Y1 2.337697 1_544
O12 Y0 2.339137 1_555
O13 Y1 2.344903 1_555
O14 Y2 2.377187 1_545
O14 Y0 2.554440 1_555
O15 Y1 2.500664 1_555
O16 Y2 2.484230 1_555
O18 Y2 2.334146 1_555
O18 Y1 2.357381 1_555
O19 Y0 2.336175 1_555
O20 Y2 2.357003 1_655
O22 Y0 2.348376 1_555
O23 Y1 2.338463 1_555
