# generated using pymatgen
data_HoSbIr
_symmetry_space_group_name_H-M   'P 1'
_cell_length_a   4.50436455
_cell_length_b   7.13511281
_cell_length_c   7.82620387
_cell_angle_alpha   90.00139905
_cell_angle_beta   90.00000000
_cell_angle_gamma   90.00000000
_symmetry_Int_Tables_number   1
_chemical_formula_structural   HoSbIr
_chemical_formula_sum   'Ho4 Sb4 Ir4'
_cell_volume   251.52753382
_cell_formula_units_Z   4
loop_
 _symmetry_equiv_pos_site_id
 _symmetry_equiv_pos_as_xyz
  1  'x, y, z'
loop_
 _atom_site_type_symbol
 _atom_site_label
 _atom_site_symmetry_multiplicity
 _atom_site_fract_x
 _atom_site_fract_y
 _atom_site_fract_z
 _atom_site_occupancy
  Ho  Ho0  1  0.25000000  0.51240860  0.19360359  1
  Ho  Ho1  1  0.75000000  0.48760714  0.80638740  1
  Ho  Ho2  1  0.75000000  0.98758814  0.69360206  1
  Ho  Ho3  1  0.25000000  0.01242024  0.30640176  1
  Sb  Sb0  1  0.25000000  0.67863975  0.58856833  1
  Sb  Sb1  1  0.75000000  0.32136294  0.41140972  1
  Sb  Sb2  1  0.75000000  0.82131224  0.08860728  1
  Sb  Sb3  1  0.25000000  0.17864464  0.91141193  1
  Ir  Ir0  1  0.25000000  0.79169912  0.91314494  1
  Ir  Ir1  1  0.75000000  0.20830044  0.08684695  1
  Ir  Ir2  1  0.75000000  0.70832136  0.41317334  1
  Ir  Ir3  1  0.25000000  0.29169339  0.58684270  1
loop_
_geom_bond_atom_site_label_1
_geom_bond_atom_site_label_2
_geom_bond_distance
_geom_bond_site_symmetry_2
Ho0 Ir0 2.964633 1_554
Ho0 Sb1 3.136274 1_555
Ho0 Sb1 3.136274 1_455
Ho0 Ir2 3.158973 1_555
Ho0 Ir2 3.158973 1_455
Ho0 Ir1 3.237055 1_555
Ho0 Ir1 3.237055 1_455
Ho0 Sb3 3.247837 1_554
Ho0 Sb2 3.256614 1_555
Ho0 Sb2 3.256614 1_455
Ho0 Sb0 3.310792 1_555
Ho0 Ir3 3.457131 1_555
Ho1 Ir1 2.964715 1_556
Ho1 Sb0 3.136288 1_655
Ho1 Sb0 3.136288 1_555
Ho1 Ir3 3.158869 1_655
Ho1 Ir3 3.158869 1_555
Ho1 Ir0 3.236980 1_555
Ho1 Ir0 3.236980 1_655
Ho1 Sb2 3.247679 1_556
Ho1 Sb3 3.256954 1_555
Ho1 Sb3 3.256954 1_655
Ho1 Sb1 3.310920 1_555
Ho1 Ir2 3.456953 1_555
Ho2 Ir2 2.964273 1_555
Ho2 Sb3 3.136287 1_565
Ho2 Sb3 3.136287 1_665
Ho2 Ir0 3.158821 1_555
Ho2 Ir0 3.158821 1_655
Ho2 Ir3 3.237074 1_565
Ho2 Ir3 3.237074 1_665
Ho2 Sb1 3.247976 1_565
Ho2 Sb0 3.256876 1_555
Ho2 Sb0 3.256876 1_655
Ho2 Sb2 3.311256 1_556
Ho2 Ir1 3.457093 1_566
Ho3 Ir3 2.964375 1_555
Ho3 Sb2 3.136381 1_445
Ho3 Sb2 3.136381 1_545
Ho3 Ir1 3.158844 1_455
Ho3 Ir1 3.158844 1_555
Ho3 Ir2 3.237068 1_445
Ho3 Ir2 3.237068 1_545
Ho3 Sb0 3.247869 1_545
Ho3 Sb1 3.256798 1_455
Ho3 Sb1 3.256798 1_555
Ho3 Sb3 3.311012 1_554
Ho3 Ir0 3.457205 1_544
Ir0 Sb2 2.646251 1_456
Ir0 Sb2 2.646251 1_556
Ir0 Sb0 2.665198 1_555
Ir0 Sb3 2.760934 1_565
Ir1 Sb3 2.646164 1_654
Ir1 Sb3 2.646164 1_554
Ir1 Sb1 2.665102 1_555
Ir1 Sb2 2.761239 1_545
Ir2 Sb0 2.646022 1_655
Ir2 Sb0 2.646022 1_555
Ir2 Sb2 2.665009 1_555
Ir2 Sb1 2.761026 1_555
Ir3 Sb1 2.646169 1_455
Ir3 Sb1 2.646169 1_555
Ir3 Sb3 2.665158 1_555
Ir3 Sb0 2.760939 1_555
