# generated using pymatgen
data_LaY(Co4B)2
_symmetry_space_group_name_H-M   'P 1'
_cell_length_a   5.04324363
_cell_length_b   5.04324363
_cell_length_c   6.86372000
_cell_angle_alpha   90.00000000
_cell_angle_beta   90.00000000
_cell_angle_gamma   119.99999521
_symmetry_Int_Tables_number   1
_chemical_formula_structural   LaY(Co4B)2
_chemical_formula_sum   'La1 Y1 Co8 B2'
_cell_volume   151.18548912
_cell_formula_units_Z   1
loop_
 _symmetry_equiv_pos_site_id
 _symmetry_equiv_pos_as_xyz
  1  'x, y, z'
loop_
 _atom_site_type_symbol
 _atom_site_label
 _atom_site_symmetry_multiplicity
 _atom_site_fract_x
 _atom_site_fract_y
 _atom_site_fract_z
 _atom_site_occupancy
  La  La0  1  0.00000000  0.00000000  0.00000000  1
  Y  Y0  1  0.00000000  0.00000000  0.50000000  1
  Co  Co0  1  0.50000000  0.50000000  0.70908400  1
  Co  Co1  1  0.50000000  0.00000000  0.70908400  1
  Co  Co2  1  0.00000000  0.50000000  0.70908400  1
  Co  Co3  1  0.50000000  0.50000000  0.29091600  1
  Co  Co4  1  0.50000000  0.00000000  0.29091600  1
  Co  Co5  1  0.00000000  0.50000000  0.29091600  1
  Co  Co6  1  0.66666700  0.33333300  0.00000000  1
  Co  Co7  1  0.33333300  0.66666700  0.00000000  1
  B  B0  1  0.66666700  0.33333300  0.50000000  1
  B  B1  1  0.33333300  0.66666700  0.50000000  1
loop_
_geom_bond_atom_site_label_1
_geom_bond_atom_site_label_2
_geom_bond_distance
_geom_bond_site_symmetry_2
La0 Y0 3.431860 1_555
La0 Y0 3.431860 1_554
Co0 Co6 2.471155 1_556
Co0 Co7 2.471155 1_556
Co0 Y0 2.901391 1_665
Co0 Y0 2.901391 1_555
Co1 Co7 2.471153 1_546
Co1 Co6 2.471153 1_556
Co1 Y0 2.901391 1_655
Co1 Y0 2.901391 1_555
Co2 Co6 2.471153 1_456
Co2 Co7 2.471153 1_556
Co2 Y0 2.901391 1_565
Co2 Y0 2.901391 1_555
Co3 Co6 2.471155 1_555
Co3 Co7 2.471155 1_555
Co3 Y0 2.901391 1_665
Co3 Y0 2.901391 1_555
Co4 Co6 2.471153 1_555
Co4 Co7 2.471153 1_545
Co4 Y0 2.901391 1_555
Co4 Y0 2.901391 1_655
Co5 Co7 2.471153 1_555
Co5 Co6 2.471153 1_455
Co5 Y0 2.901391 1_565
Co5 Y0 2.901391 1_555
Co6 La0 2.911715 1_655
Co6 La0 2.911720 1_665
Co6 La0 2.911720 1_555
Co7 La0 2.911715 1_565
Co7 La0 2.911720 1_665
Co7 La0 2.911720 1_555
B0 Co5 2.044264 1_655
B0 Co4 2.044264 1_555
B0 Co1 2.044264 1_555
B0 Co2 2.044264 1_655
B0 Co3 2.044267 1_555
B0 Co0 2.044267 1_555
B0 Y0 2.911715 1_655
B0 Y0 2.911720 1_665
B0 Y0 2.911720 1_555
B1 Co1 2.044264 1_565
B1 Co4 2.044264 1_565
B1 Co5 2.044264 1_555
B1 Co2 2.044264 1_555
B1 Co3 2.044267 1_555
B1 Co0 2.044267 1_555
B1 Y0 2.911715 1_565
B1 Y0 2.911720 1_665
B1 Y0 2.911720 1_555
