# generated using pymatgen
data_MgScS3
_symmetry_space_group_name_H-M   'P 1'
_cell_length_a   6.45091000
_cell_length_b   6.45091005
_cell_length_c   17.54988000
_cell_angle_alpha   90.00000000
_cell_angle_beta   90.00000000
_cell_angle_gamma   119.99999972
_symmetry_Int_Tables_number   1
_chemical_formula_structural   MgScS3
_chemical_formula_sum   'Mg6 Sc6 S18'
_cell_volume   632.47993672
_cell_formula_units_Z   6
loop_
 _symmetry_equiv_pos_site_id
 _symmetry_equiv_pos_as_xyz
  1  'x, y, z'
loop_
 _atom_site_type_symbol
 _atom_site_label
 _atom_site_symmetry_multiplicity
 _atom_site_fract_x
 _atom_site_fract_y
 _atom_site_fract_z
 _atom_site_occupancy
  Mg  Mg0  1  0.00000000  0.00000000  0.15029300  1
  Mg  Mg1  1  0.00000000  0.00000000  0.84970700  1
  Mg  Mg2  1  0.66666700  0.33333300  0.48362600  1
  Mg  Mg3  1  0.66666700  0.33333300  0.18304000  1
  Mg  Mg4  1  0.33333300  0.66666700  0.81696000  1
  Mg  Mg5  1  0.33333300  0.66666700  0.51637400  1
  Sc  Sc0  1  0.00000000  0.00000000  0.34119400  1
  Sc  Sc1  1  0.00000000  0.00000000  0.65880600  1
  Sc  Sc2  1  0.66666700  0.33333300  0.67452700  1
  Sc  Sc3  1  0.66666700  0.33333300  0.99213900  1
  Sc  Sc4  1  0.33333300  0.66666700  0.00786100  1
  Sc  Sc5  1  0.33333300  0.66666700  0.32547300  1
  S  S0  1  0.97698300  0.32559400  0.58296100  1
  S  S1  1  0.02301700  0.67440600  0.41703900  1
  S  S2  1  0.67440600  0.65138900  0.58296100  1
  S  S3  1  0.32559400  0.34861100  0.41703900  1
  S  S4  1  0.34861100  0.02301700  0.58296100  1
  S  S5  1  0.65138900  0.97698300  0.41703900  1
  S  S6  1  0.64365000  0.65892700  0.91629400  1
  S  S7  1  0.68968400  0.00773900  0.75037200  1
  S  S8  1  0.34107300  0.98472200  0.91629400  1
  S  S9  1  0.99226100  0.68194400  0.75037200  1
  S  S10  1  0.01527800  0.35635000  0.91629400  1
  S  S11  1  0.31805600  0.31031600  0.75037200  1
  S  S12  1  0.31031600  0.99226100  0.24962800  1
  S  S13  1  0.35635000  0.34107300  0.08370600  1
  S  S14  1  0.00773900  0.31805600  0.24962800  1
  S  S15  1  0.65892700  0.01527800  0.08370600  1
  S  S16  1  0.68194400  0.68968400  0.24962800  1
  S  S17  1  0.98472200  0.64365000  0.08370600  1
loop_
_geom_bond_atom_site_label_1
_geom_bond_atom_site_label_2
_geom_bond_distance
_geom_bond_site_symmetry_2
Mg0 S17 2.536368 1_445
Mg0 S13 2.536371 1_555
Mg0 S15 2.536374 1_455
Mg0 S12 2.673737 1_545
Mg0 S16 2.673740 1_445
Mg0 S14 2.673742 1_555
Mg1 S10 2.536368 1_555
Mg1 S6 2.536371 1_445
Mg1 S8 2.536374 1_545
Mg1 S7 2.673737 1_455
Mg1 S11 2.673740 1_555
Mg1 S9 2.673742 1_445
Mg2 S5 2.536368 1_545
Mg2 S1 2.536371 1_655
Mg2 S3 2.536374 1_555
Mg2 S0 2.673737 1_555
Mg2 S4 2.673740 1_555
Mg2 S2 2.673742 1_555
Mg3 S14 2.536373 1_655
Mg3 S12 2.536379 1_545
Mg3 S16 2.536384 1_555
Mg3 S15 2.673724 1_555
Mg3 S17 2.673728 1_555
Mg3 S13 2.673733 1_555
Mg4 S9 2.536373 1_455
Mg4 S7 2.536379 1_565
Mg4 S11 2.536384 1_555
Mg4 S8 2.673724 1_555
Mg4 S10 2.673728 1_555
Mg4 S6 2.673733 1_555
Mg5 S4 2.536368 1_565
Mg5 S0 2.536371 1_455
Mg5 S2 2.536374 1_555
Mg5 S1 2.673737 1_555
Mg5 S5 2.673740 1_555
Mg5 S3 2.673742 1_555
S0 Sc1 2.552890 1_655
S0 Sc2 2.586905 1_555
S1 Sc0 2.552890 1_565
S1 Sc5 2.586905 1_555
S2 Sc1 2.552890 1_665
S2 Sc2 2.586910 1_555
S3 Sc0 2.552890 1_555
S3 Sc5 2.586910 1_555
S4 Sc1 2.552890 1_555
S4 Sc2 2.586907 1_555
S5 Sc0 2.552890 1_665
S5 Sc5 2.586907 1_555
S6 Sc3 2.552890 1_555
S6 Sc4 2.586923 1_556
S7 Sc2 2.552890 1_555
S7 Sc1 2.586905 1_655
S8 Sc3 2.552890 1_565
S8 Sc4 2.586913 1_556
S9 Sc2 2.552890 1_555
S9 Sc1 2.586910 1_665
S10 Sc3 2.552890 1_455
S10 Sc4 2.586918 1_556
S11 Sc2 2.552890 1_555
S11 Sc1 2.586907 1_555
S12 Sc5 2.552890 1_555
S12 Sc0 2.586905 1_565
S13 Sc4 2.552890 1_555
S13 Sc3 2.586923 1_554
S14 Sc5 2.552890 1_555
S14 Sc0 2.586910 1_555
S15 Sc4 2.552890 1_545
S15 Sc3 2.586913 1_554
S16 Sc5 2.552890 1_555
S16 Sc0 2.586907 1_665
S17 Sc4 2.552890 1_655
S17 Sc3 2.586918 1_554
