# generated using pymatgen
data_Pu2Re3Si5
_symmetry_space_group_name_H-M   'P 1'
_cell_length_a   10.93999700
_cell_length_b   10.93999700
_cell_length_c   5.40608800
_cell_angle_alpha   90.00000000
_cell_angle_beta   90.00000000
_cell_angle_gamma   90.00000000
_symmetry_Int_Tables_number   1
_chemical_formula_structural   Pu2Re3Si5
_chemical_formula_sum   'Pu8 Re12 Si20'
_cell_volume   647.01971890
_cell_formula_units_Z   4
loop_
 _symmetry_equiv_pos_site_id
 _symmetry_equiv_pos_as_xyz
  1  'x, y, z'
loop_
 _atom_site_type_symbol
 _atom_site_label
 _atom_site_symmetry_multiplicity
 _atom_site_fract_x
 _atom_site_fract_y
 _atom_site_fract_z
 _atom_site_occupancy
  Pu  Pu0  1  0.57561600  0.73416100  0.50000000  1
  Pu  Pu1  1  0.42438400  0.26583900  0.50000000  1
  Pu  Pu2  1  0.07561600  0.76583900  0.00000000  1
  Pu  Pu3  1  0.92438400  0.23416100  0.00000000  1
  Pu  Pu4  1  0.26583900  0.57561600  0.50000000  1
  Pu  Pu5  1  0.73416100  0.42438400  0.50000000  1
  Pu  Pu6  1  0.23416100  0.07561600  0.00000000  1
  Pu  Pu7  1  0.76583900  0.92438400  0.00000000  1
  Re  Re0  1  0.87758800  0.85795100  0.50000000  1
  Re  Re1  1  0.12241200  0.14204900  0.50000000  1
  Re  Re2  1  0.37758800  0.64204900  0.00000000  1
  Re  Re3  1  0.62241200  0.35795100  0.00000000  1
  Re  Re4  1  0.14204900  0.87758800  0.50000000  1
  Re  Re5  1  0.85795100  0.12241200  0.50000000  1
  Re  Re6  1  0.35795100  0.37758800  0.00000000  1
  Re  Re7  1  0.64204900  0.62241200  0.00000000  1
  Re  Re8  1  0.50000000  0.00000000  0.25000000  1
  Re  Re9  1  0.00000000  0.50000000  0.75000000  1
  Re  Re10  1  0.00000000  0.50000000  0.25000000  1
  Re  Re11  1  0.50000000  0.00000000  0.75000000  1
  Si  Si0  1  0.67469800  0.17469800  0.25000000  1
  Si  Si1  1  0.32530200  0.82530200  0.25000000  1
  Si  Si2  1  0.17469800  0.32530200  0.75000000  1
  Si  Si3  1  0.82530200  0.67469800  0.75000000  1
  Si  Si4  1  0.82530200  0.67469800  0.25000000  1
  Si  Si5  1  0.17469800  0.32530200  0.25000000  1
  Si  Si6  1  0.67469800  0.17469800  0.75000000  1
  Si  Si7  1  0.32530200  0.82530200  0.75000000  1
  Si  Si8  1  0.50000000  0.50000000  0.27637300  1
  Si  Si9  1  0.00000000  0.00000000  0.77637300  1
  Si  Si10  1  0.50000000  0.50000000  0.72362700  1
  Si  Si11  1  0.00000000  0.00000000  0.22362700  1
  Si  Si12  1  0.68573100  0.97281000  0.50000000  1
  Si  Si13  1  0.31426900  0.02719000  0.50000000  1
  Si  Si14  1  0.18573100  0.52719000  0.00000000  1
  Si  Si15  1  0.81426900  0.47281000  0.00000000  1
  Si  Si16  1  0.02719000  0.68573100  0.50000000  1
  Si  Si17  1  0.97281000  0.31426900  0.50000000  1
  Si  Si18  1  0.47281000  0.18573100  0.00000000  1
  Si  Si19  1  0.52719000  0.81426900  0.00000000  1
loop_
_geom_bond_atom_site_label_1
_geom_bond_atom_site_label_2
_geom_bond_distance
_geom_bond_site_symmetry_2
Pu0 Si12 2.875340 1_555
Pu0 Si19 2.890529 1_555
Pu0 Si19 2.890529 1_556
Pu0 Si8 2.950981 1_555
Pu0 Si10 2.950981 1_555
Pu0 Re7 3.054380 1_555
Pu0 Re7 3.054380 1_556
Pu0 Si4 3.116286 1_555
Pu0 Si3 3.116286 1_555
Pu0 Si7 3.212446 1_555
Pu0 Si1 3.212446 1_555
Pu0 Re8 3.311950 1_565
Pu0 Re11 3.311950 1_565
Pu1 Si13 2.875340 1_555
Pu1 Si18 2.890529 1_556
Pu1 Si18 2.890529 1_555
Pu1 Si10 2.950981 1_555
Pu1 Si8 2.950981 1_555
Pu1 Re6 3.054380 1_556
Pu1 Re6 3.054380 1_555
Pu1 Si5 3.116286 1_555
Pu1 Si2 3.116286 1_555
Pu1 Si6 3.212446 1_555
Pu1 Si0 3.212446 1_555
Pu1 Re11 3.311950 1_555
Pu1 Re8 3.311950 1_555
Pu2 Si14 2.875340 1_555
Pu2 Si16 2.890529 1_555
Pu2 Si16 2.890529 1_554
Pu2 Si11 2.950981 1_565
Pu2 Si9 2.950981 1_564
Pu2 Re4 3.054380 1_554
Pu2 Re4 3.054380 1_555
Pu2 Si1 3.116286 1_555
Pu2 Si7 3.116286 1_554
Pu2 Si3 3.212446 1_454
Pu2 Si4 3.212446 1_455
Pu2 Re10 3.311950 1_555
Pu2 Re9 3.311950 1_554
Pu3 Si15 2.875340 1_555
Pu3 Si17 2.890529 1_555
Pu3 Si17 2.890529 1_554
Pu3 Si9 2.950981 1_654
Pu3 Si11 2.950981 1_655
Pu3 Re5 3.054380 1_555
Pu3 Re5 3.054380 1_554
Pu3 Si6 3.116286 1_554
Pu3 Si0 3.116286 1_555
Pu3 Si2 3.212446 1_654
Pu3 Si5 3.212446 1_655
Pu3 Re9 3.311950 1_654
Pu3 Re10 3.311950 1_655
Pu4 Si16 2.875340 1_555
Pu4 Si14 2.890529 1_556
Pu4 Si14 2.890529 1_555
Pu4 Si8 2.950981 1_555
Pu4 Si10 2.950981 1_555
Pu4 Re2 3.054380 1_556
Pu4 Re2 3.054380 1_555
Pu4 Si1 3.116286 1_555
Pu4 Si7 3.116286 1_555
Pu4 Si5 3.212446 1_555
Pu4 Si2 3.212446 1_555
Pu4 Re10 3.311950 1_555
Pu4 Re9 3.311950 1_555
Pu5 Si17 2.875340 1_555
Pu5 Si15 2.890529 1_556
Pu5 Si15 2.890529 1_555
Pu5 Si8 2.950981 1_555
Pu5 Si10 2.950981 1_555
Pu5 Re3 3.054380 1_555
Pu5 Re3 3.054380 1_556
Pu5 Si6 3.116286 1_555
Pu5 Si0 3.116286 1_555
Pu5 Si3 3.212446 1_555
Pu5 Si4 3.212446 1_555
Pu5 Re9 3.311950 1_655
Pu5 Re10 3.311950 1_655
Pu6 Si18 2.875340 1_555
Pu6 Si13 2.890529 1_555
Pu6 Si13 2.890529 1_554
Pu6 Si11 2.950981 1_555
Pu6 Si9 2.950981 1_554
Pu6 Re1 3.054380 1_555
Pu6 Re1 3.054380 1_554
Pu6 Si2 3.116286 1_554
Pu6 Si5 3.116286 1_555
Pu6 Si1 3.212446 1_545
Pu6 Si7 3.212446 1_544
Pu6 Re11 3.311950 1_554
Pu6 Re8 3.311950 1_555
Pu7 Si19 2.875340 1_555
Pu7 Si12 2.890529 1_555
Pu7 Si12 2.890529 1_554
Pu7 Si11 2.950981 1_665
Pu7 Si9 2.950981 1_664
Pu7 Re0 3.054380 1_555
Pu7 Re0 3.054380 1_554
Pu7 Si4 3.116286 1_555
Pu7 Si3 3.116286 1_554
Pu7 Si6 3.212446 1_564
Pu7 Si0 3.212446 1_565
Pu7 Re8 3.311950 1_565
Pu7 Re11 3.311950 1_564
Re0 Si12 2.446299 1_555
Re0 Si3 2.484548 1_555
Re0 Si4 2.484548 1_555
Re0 Si16 2.495674 1_655
Re0 Si9 2.537856 1_665
Re0 Si11 2.537856 1_665
Re1 Si13 2.446299 1_555
Re1 Si5 2.484548 1_555
Re1 Si2 2.484548 1_555
Re1 Si17 2.495674 1_455
Re1 Si9 2.537856 1_555
Re1 Si11 2.537856 1_555
Re2 Si14 2.446299 1_555
Re2 Si7 2.484548 1_554
Re2 Si1 2.484548 1_555
Re2 Si19 2.495674 1_555
Re2 Si8 2.537856 1_555
Re2 Si10 2.537856 1_554
Re3 Si15 2.446299 1_555
Re3 Si6 2.484548 1_554
Re3 Si0 2.484548 1_555
Re3 Si18 2.495674 1_555
Re3 Si8 2.537856 1_555
Re3 Si10 2.537856 1_554
Re4 Si16 2.446299 1_555
Re4 Si7 2.484548 1_555
Re4 Si1 2.484548 1_555
Re4 Si13 2.495674 1_565
Re4 Si9 2.537856 1_565
Re4 Si11 2.537856 1_565
Re5 Si17 2.446299 1_555
Re5 Si6 2.484548 1_555
Re5 Si0 2.484548 1_555
Re5 Si12 2.495674 1_545
Re5 Si9 2.537856 1_655
Re5 Si11 2.537856 1_655
Re6 Si18 2.446299 1_555
Re6 Si5 2.484548 1_555
Re6 Si2 2.484548 1_554
Re6 Si14 2.495674 1_555
Re6 Si8 2.537856 1_555
Re6 Si10 2.537856 1_554
Re7 Si19 2.446299 1_555
Re7 Si3 2.484548 1_554
Re7 Si4 2.484548 1_555
Re7 Si15 2.495674 1_555
Re7 Si8 2.537856 1_555
Re7 Si10 2.537856 1_554
Re8 Si12 2.458393 1_545
Re8 Si19 2.458393 1_545
Re8 Si13 2.458393 1_555
Re8 Si18 2.458393 1_555
Re8 Si0 2.702839 1_555
Re8 Si1 2.702839 1_545
Re9 Si15 2.458393 1_456
Re9 Si17 2.458393 1_455
Re9 Si16 2.458393 1_555
Re9 Si14 2.458393 1_556
Re9 Si2 2.702839 1_555
Re9 Si3 2.702839 1_455
Re10 Si15 2.458393 1_455
Re10 Si17 2.458393 1_455
Re10 Si16 2.458393 1_555
Re10 Si14 2.458393 1_555
Re10 Si5 2.702839 1_555
Re10 Si4 2.702839 1_455
Re10 Re9 2.703044 1_555
Re10 Re9 2.703044 1_554
Re11 Si19 2.458393 1_546
Re11 Si12 2.458393 1_545
Re11 Si13 2.458393 1_555
Re11 Si18 2.458393 1_556
Re11 Si6 2.702839 1_555
Re11 Si7 2.702839 1_545
Re11 Re8 2.703044 1_556
Re11 Re8 2.703044 1_555
Si0 Si12 2.592168 1_545
Si0 Si18 2.592168 1_555
Si0 Si6 2.703044 1_555
Si0 Si6 2.703044 1_554
Si1 Si19 2.592168 1_555
Si1 Si13 2.592168 1_565
Si1 Si7 2.703044 1_554
Si1 Si7 2.703044 1_555
Si2 Si5 2.703044 1_555
Si2 Si5 2.703044 1_556
Si3 Si4 2.703044 1_555
Si3 Si4 2.703044 1_556
Si10 Si8 2.417894 1_555
Si11 Si9 2.417894 1_554
Si12 Si6 2.592168 1_565
Si13 Si7 2.592168 1_545
Si14 Si2 2.592168 1_554
Si14 Si5 2.592168 1_555
Si15 Si4 2.592168 1_555
Si15 Si3 2.592168 1_554
Si16 Si3 2.592168 1_455
Si16 Si4 2.592168 1_455
Si17 Si5 2.592168 1_655
Si17 Si2 2.592168 1_655
Si18 Si6 2.592168 1_554
Si19 Si7 2.592168 1_554
