# generated using pymatgen
data_CsW3Br7
_symmetry_space_group_name_H-M   'P 1'
_cell_length_a   10.31802640
_cell_length_b   10.31840879
_cell_length_c   15.62753093
_cell_angle_alpha   89.99966506
_cell_angle_beta   89.99878257
_cell_angle_gamma   120.00017056
_symmetry_Int_Tables_number   1
_chemical_formula_structural   CsW3Br7
_chemical_formula_sum   'Cs4 W12 Br28'
_cell_volume   1440.88598419
_cell_formula_units_Z   4
loop_
 _symmetry_equiv_pos_site_id
 _symmetry_equiv_pos_as_xyz
  1  'x, y, z'
loop_
 _atom_site_type_symbol
 _atom_site_label
 _atom_site_symmetry_multiplicity
 _atom_site_fract_x
 _atom_site_fract_y
 _atom_site_fract_z
 _atom_site_occupancy
  Cs  Cs0  1  0.00001548  0.00001764  0.50017009  1
  Cs  Cs1  1  0.00001792  -0.00000688  0.00017065  1
  Cs  Cs2  1  0.66667131  0.33335050  0.74208981  1
  Cs  Cs3  1  0.33332710  0.66666650  0.24208245  1
  W  W0  1  0.47982566  0.66489035  0.68127619  1
  W  W1  1  0.33507568  0.81492332  0.68129220  1
  W  W2  1  0.18501470  0.52014621  0.68129284  1
  W  W3  1  0.66490278  0.47985050  0.18129337  1
  W  W4  1  0.52017681  0.18505569  0.18127883  1
  W  W5  1  0.81497981  0.33512316  0.18130138  1
  W  W6  1  0.51934286  0.33362311  0.31837615  1
  W  W7  1  0.66638835  0.18573414  0.31837697  1
  W  W8  1  0.81427309  0.48065379  0.31838064  1
  W  W9  1  0.33361950  0.51935060  0.81837561  1
  W  W10  1  0.48063432  0.81426480  0.81836515  1
  W  W11  1  0.18570742  0.66637380  0.81836813  1
  Br  Br0  1  0.33326133  0.66659122  0.54350928  1
  Br  Br1  1  0.66675176  0.33337944  0.04351078  1
  Br  Br2  1  0.66666638  0.33333221  0.45629280  1
  Br  Br3  1  0.33333699  0.66667456  0.95629404  1
  Br  Br4  1  0.63355466  0.96060237  0.67851724  1
  Br  Br5  1  0.03936345  0.67294813  0.67851826  1
  Br  Br6  1  0.32704648  0.36644435  0.67852154  1
  Br  Br7  1  0.96062522  0.63358560  0.17853966  1
  Br  Br8  1  0.36643381  0.32703948  0.17852442  1
  Br  Br9  1  0.67296932  0.03939588  0.17853226  1
  Br  Br10  1  0.36802007  0.03770352  0.32108677  1
  Br  Br11  1  0.96231087  0.33034424  0.32111082  1
  Br  Br12  1  0.66966881  0.63196998  0.32109472  1
  Br  Br13  1  0.03767755  0.36801965  0.82109757  1
  Br  Br14  1  0.63196663  0.66966872  0.82108125  1
  Br  Br15  1  0.33030966  0.96228559  0.82109412  1
  Br  Br16  1  0.68561966  0.65281902  0.58967424  1
  Br  Br17  1  0.34723733  0.03283612  0.58969812  1
  Br  Br18  1  0.96714637  0.31438490  0.58970014  1
  Br  Br19  1  0.65278894  0.68561295  0.08969778  1
  Br  Br20  1  0.31441717  0.96721855  0.08969116  1
  Br  Br21  1  0.03284074  0.34716454  0.08970674  1
  Br  Br22  1  0.31224496  0.34385896  0.40927865  1
  Br  Br23  1  0.65614308  0.96835486  0.40925179  1
  Br  Br24  1  0.03164849  0.68779467  0.40924394  1
  Br  Br25  1  0.34387730  0.31222933  0.90924387  1
  Br  Br26  1  0.68782151  0.03162238  0.90922552  1
  Br  Br27  1  0.96827665  0.65610156  0.90922806  1
loop_
_geom_bond_atom_site_label_1
_geom_bond_atom_site_label_2
_geom_bond_distance
_geom_bond_site_symmetry_2
Br0 W2 2.635880 1_555
Br0 W0 2.636119 1_555
Br0 W1 2.636404 1_555
Br1 W5 2.636075 1_555
Br1 W3 2.636225 1_555
Br1 W4 2.636296 1_555
Br2 W8 2.638178 1_555
Br2 W7 2.638254 1_555
Br2 W6 2.638310 1_555
Br3 W10 2.638271 1_555
Br3 W9 2.638324 1_555
Br3 W11 2.638490 1_555
Br4 W0 2.643523 1_555
Br4 W1 2.667710 1_555
Br4 W10 2.676417 1_555
Br4 Cs2 3.818716 1_565
Br5 W1 2.643435 1_555
Br5 W2 2.667541 1_555
Br5 W11 2.676502 1_555
Br5 Cs2 3.818125 1_455
Br6 W2 2.643673 1_555
Br6 W0 2.667510 1_555
Br6 W9 2.676503 1_555
Br6 Cs2 3.818386 1_555
Br7 W3 2.643520 1_555
Br7 W5 2.667663 1_555
Br7 W8 2.676409 1_555
Br7 Cs3 3.818160 1_655
Br8 W4 2.643614 1_555
Br8 W3 2.667625 1_555
Br8 W6 2.676445 1_555
Br8 Cs3 3.818542 1_555
Br9 W5 2.643662 1_555
Br9 W4 2.667521 1_555
Br9 W7 2.676435 1_555
Br9 Cs3 3.818465 1_545
Br10 W6 2.644899 1_555
Br10 W7 2.666478 1_555
Br10 W4 2.676353 1_555
Br10 Cs3 3.865176 1_545
Br11 W7 2.644834 1_555
Br11 W8 2.666354 1_555
Br11 W5 2.676214 1_555
Br11 Cs3 3.864957 1_655
Br12 W8 2.644868 1_555
Br12 W6 2.666390 1_555
Br12 W3 2.676219 1_555
Br12 Cs3 3.865101 1_555
Br13 W9 2.645005 1_555
Br13 W11 2.666456 1_555
Br13 W2 2.676178 1_555
Br13 Cs2 3.864870 1_455
Br14 W10 2.644938 1_555
Br14 W9 2.666291 1_555
Br14 W0 2.676344 1_555
Br14 Cs2 3.864909 1_555
Br15 W11 2.644836 1_555
Br15 W10 2.666336 1_555
Br15 W1 2.676276 1_555
Br15 Cs2 3.865299 1_565
Br16 W0 2.614933 1_555
Br16 Cs0 3.700315 1_665
Br16 Cs2 3.991651 1_555
Br17 W1 2.615002 1_545
Br17 Cs0 3.700609 1_555
Br17 Cs2 3.991255 1_555
Br18 W2 2.614819 1_655
Br18 Cs0 3.700646 1_655
Br18 Cs2 3.990996 1_555
Br19 W3 2.614888 1_555
Br19 Cs1 3.700528 1_665
Br19 Cs3 3.991185 1_555
Br20 W4 2.614630 1_565
Br20 Cs1 3.700294 1_565
Br20 Cs3 3.991515 1_555
Br21 W5 2.614944 1_455
Br21 Cs1 3.700267 1_555
Br21 Cs3 3.991317 1_555
Br22 W6 2.611678 1_555
Br22 Cs0 3.681521 1_555
Br22 Cs3 4.152629 1_555
Br23 W7 2.611882 1_565
Br23 Cs0 3.681768 1_665
Br23 Cs3 4.152278 1_555
Br24 W8 2.611792 1_455
Br24 Cs0 3.681871 1_565
Br24 Cs3 4.151999 1_555
Br25 W9 2.611774 1_555
Br25 Cs1 3.681835 1_556
Br25 Cs2 4.151837 1_555
Br26 W10 2.611876 1_545
Br26 Cs1 3.681631 1_656
Br26 Cs2 4.152357 1_555
Br27 W11 2.612004 1_655
Br27 Cs1 3.681885 1_666
Br27 Cs2 4.151398 1_555
