# generated using pymatgen
data_Na5Ho4Si4O16F
_symmetry_space_group_name_H-M   'P 1'
_cell_length_a   8.55598818
_cell_length_b   8.55598818
_cell_length_c   8.55598818
_cell_angle_alpha   95.67402258
_cell_angle_beta   95.67402258
_cell_angle_gamma   143.34673233
_symmetry_Int_Tables_number   1
_chemical_formula_structural   Na5Ho4Si4O16F
_chemical_formula_sum   'Na5 Ho4 Si4 O16 F1'
_cell_volume   354.94235090
_cell_formula_units_Z   1
loop_
 _symmetry_equiv_pos_site_id
 _symmetry_equiv_pos_as_xyz
  1  'x, y, z'
loop_
 _atom_site_type_symbol
 _atom_site_label
 _atom_site_symmetry_multiplicity
 _atom_site_fract_x
 _atom_site_fract_y
 _atom_site_fract_z
 _atom_site_occupancy
  Na  Na0  1  0.40145423  0.88464431  0.30561992  1
  Na  Na1  1  0.57902440  0.09583431  0.69438008  1
  Na  Na2  1  0.90416569  0.59854577  0.48319008  1
  Na  Na3  1  0.11535569  0.42097560  0.51680992  1
  Na  Na4  1  -0.00000000  -0.00000000  -0.00000000  1
  Ho  Ho0  1  0.36132096  0.29457740  0.70289875  1
  Ho  Ho1  1  0.59167865  0.65842221  0.29710125  1
  Ho  Ho2  1  0.34157779  0.63867904  0.93325544  1
  Ho  Ho3  1  0.70542260  0.40832135  0.06674456  1
  Si  Si0  1  0.25809051  0.11497908  0.35078116  1
  Si  Si1  1  0.76419693  0.90730935  0.64921884  1
  Si  Si2  1  0.09269065  0.74190949  0.85688857  1
  Si  Si3  1  0.88502092  0.23580207  0.14311143  1
  O  O0  1  0.37163952  0.09320996  0.49771753  1
  O  O1  1  0.59549243  0.87392100  0.50228247  1
  O  O2  1  0.12607900  0.62836048  0.72157044  1
  O  O3  1  0.90679004  0.40450757  0.27842956  1
  O  O4  1  0.95204225  0.81498395  0.23376817  1
  O  O5  1  0.58121578  0.71827408  0.76623183  1
  O  O6  1  0.28172592  0.04795775  0.86294170  1
  O  O7  1  0.18501605  0.41878422  0.13705830  1
  O  O8  1  0.46466309  0.29199136  0.23920966  1
  O  O9  1  0.05278170  0.22545343  0.76079034  1
  O  O10  1  0.77454657  0.53533691  0.82732828  1
  O  O11  1  0.70800864  0.94721830  0.17267172  1
  O  O12  1  0.27083914  0.30440912  0.44070958  1
  O  O13  1  0.86369954  0.83012957  0.55929042  1
  O  O14  1  0.16987043  0.72916086  0.03357097  1
  O  O15  1  0.69559088  0.13630046  0.96642903  1
  F  F0  1  0.50000000  0.50000000  -0.00000000  1
loop_
_geom_bond_atom_site_label_1
_geom_bond_atom_site_label_2
_geom_bond_distance
_geom_bond_site_symmetry_2
Na0 O1 2.306182 1_555
Na0 O14 2.315181 1_555
Na0 O0 2.486802 1_565
Na0 O3 2.561615 1_455
Na0 O11 2.630069 1_555
Na0 O7 2.808637 1_555
Na0 O3 2.842284 1_565
Na1 O0 2.306177 1_555
Na1 O15 2.315180 1_555
Na1 O1 2.486808 1_545
Na1 O2 2.561613 1_545
Na1 O10 2.630069 1_555
Na1 O6 2.808637 1_555
Na1 O2 2.842287 1_655
Na2 O3 2.306177 1_555
Na2 O13 2.315188 1_555
Na2 O2 2.486807 1_655
Na2 O0 2.561615 1_665
Na2 O8 2.630069 1_555
Na2 O4 2.808637 1_555
Na2 O0 2.842284 1_555
Na3 O2 2.306171 1_555
Na3 O12 2.315188 1_555
Na3 O3 2.486802 1_455
Na3 O1 2.561613 1_555
Na3 O9 2.630069 1_555
Na3 O5 2.808637 1_555
Na3 O1 2.842288 1_445
Na4 O4 2.533941 1_445
Na4 O5 2.533941 1_444
Na4 O7 2.533941 1_555
Na4 O6 2.533941 1_554
Na4 O11 2.771183 1_445
Na4 O10 2.771184 1_444
Na4 O8 2.771184 1_555
Na4 O9 2.771184 1_554
Ho0 O10 2.239011 1_555
Ho0 O6 2.289387 1_555
Ho0 O9 2.318480 1_555
Ho0 O12 2.331768 1_555
Ho0 O5 2.332699 1_555
Ho0 O0 2.394719 1_555
Ho0 O13 2.506276 1_445
Ho1 O11 2.239011 1_555
Ho1 O7 2.289387 1_555
Ho1 O8 2.318480 1_555
Ho1 O13 2.331768 1_555
Ho1 O4 2.332699 1_555
Ho1 O1 2.394713 1_555
Ho1 O12 2.506276 1_555
Ho2 O9 2.239008 1_555
Ho2 O5 2.289381 1_555
Ho2 O11 2.318486 1_556
Ho2 O14 2.331775 1_556
Ho2 O7 2.332707 1_556
Ho2 O2 2.394708 1_555
Ho2 O15 2.506276 1_565
Ho3 O8 2.239005 1_555
Ho3 O4 2.289384 1_555
Ho3 O10 2.318488 1_554
Ho3 O15 2.331772 1_554
Ho3 O6 2.332703 1_554
Ho3 O3 2.394713 1_555
Ho3 O14 2.506276 1_655
O0 Si0 1.629171 1_555
O1 Si1 1.629160 1_555
O2 Si2 1.629177 1_555
O3 Si3 1.629171 1_555
O4 Si0 1.623742 1_665
O5 Si1 1.623740 1_555
O6 Si2 1.623742 1_545
O7 Si3 1.623742 1_455
O8 Si0 1.628910 1_555
O9 Si1 1.628911 1_445
O10 Si2 1.628910 1_655
O11 Si3 1.628910 1_565
O12 Si0 1.638272 1_555
O13 Si1 1.638280 1_555
O14 Si2 1.638280 1_554
O15 Si3 1.638279 1_556
F0 Ho1 2.476434 1_555
F0 Ho0 2.476434 1_554
F0 Ho3 2.476436 1_555
F0 Ho2 2.476436 1_554
F0 Na4 2.690292 1_665
F0 Na4 2.690292 1_555
