# generated using pymatgen
data_ThGaIr
_symmetry_space_group_name_H-M   'P 1'
_cell_length_a   7.23211436
_cell_length_b   7.23211436
_cell_length_c   4.09048859
_cell_angle_alpha   90.00000000
_cell_angle_beta   90.00000000
_cell_angle_gamma   119.99999838
_symmetry_Int_Tables_number   1
_chemical_formula_structural   ThGaIr
_chemical_formula_sum   'Th3 Ga3 Ir3'
_cell_volume   185.28335010
_cell_formula_units_Z   3
loop_
 _symmetry_equiv_pos_site_id
 _symmetry_equiv_pos_as_xyz
  1  'x, y, z'
loop_
 _atom_site_type_symbol
 _atom_site_label
 _atom_site_symmetry_multiplicity
 _atom_site_fract_x
 _atom_site_fract_y
 _atom_site_fract_z
 _atom_site_occupancy
  Th  Th0  1  0.41527318  0.41527318  0.50000000  1
  Th  Th1  1  0.58472682  -0.00000000  0.50000000  1
  Th  Th2  1  -0.00000000  0.58472682  0.50000000  1
  Ga  Ga0  1  0.76723560  0.76723560  0.00000000  1
  Ga  Ga1  1  0.23276440  -0.00000000  0.00000000  1
  Ga  Ga2  1  -0.00000000  0.23276440  -0.00000000  1
  Ir  Ir0  1  0.66666700  0.33333300  0.00000000  1
  Ir  Ir1  1  0.33333300  0.66666700  -0.00000000  1
  Ir  Ir2  1  -0.00000000  0.00000000  0.50000000  1
loop_
_geom_bond_atom_site_label_1
_geom_bond_atom_site_label_2
_geom_bond_distance
_geom_bond_site_symmetry_2
Ga0 Ir2 2.648922 1_664
Ga0 Ir2 2.648922 1_665
Ga0 Ir1 2.844976 1_555
Ga0 Ir0 2.844976 1_555
Ga0 Ga1 2.915698 1_665
Ga0 Ga2 2.915698 1_665
Ga0 Th0 3.265310 1_555
Ga0 Th0 3.265310 1_554
Ga0 Th1 3.313747 1_565
Ga0 Th1 3.313747 1_564
Ga0 Th2 3.313747 1_655
Ga0 Th2 3.313747 1_654
Ga1 Ir2 2.648922 1_555
Ga1 Ir2 2.648922 1_554
Ga1 Ir1 2.844969 1_545
Ga1 Ir0 2.844974 1_555
Ga1 Ga2 2.915698 1_555
Ga1 Th1 3.265310 1_555
Ga1 Th1 3.265310 1_554
Ga1 Th0 3.313747 1_555
Ga1 Th0 3.313747 1_554
Ga1 Th2 3.313747 1_544
Ga1 Th2 3.313747 1_545
Ga2 Ir2 2.648922 1_555
Ga2 Ir2 2.648922 1_554
Ga2 Ir0 2.844969 1_455
Ga2 Ir1 2.844974 1_555
Ga2 Th2 3.265310 1_555
Ga2 Th2 3.265310 1_554
Ga2 Th0 3.313747 1_554
Ga2 Th0 3.313747 1_555
Ga2 Th1 3.313747 1_454
Ga2 Th1 3.313747 1_455
Ir0 Th1 2.986152 1_555
Ir0 Th1 2.986152 1_554
Ir0 Th2 2.986153 1_655
Ir0 Th2 2.986153 1_654
Ir0 Th0 2.986157 1_554
Ir0 Th0 2.986157 1_555
Ir1 Th2 2.986152 1_555
Ir1 Th2 2.986152 1_554
Ir1 Th1 2.986153 1_564
Ir1 Th1 2.986153 1_565
Ir1 Th0 2.986157 1_554
Ir1 Th0 2.986157 1_555
Ir2 Th2 3.003303 1_545
Ir2 Th1 3.003303 1_455
Ir2 Th0 3.003303 1_555
