# generated using pymatgen
data_K5Ag(S2O3)3
_symmetry_space_group_name_H-M   'P 1'
_cell_length_a   10.94618700
_cell_length_b   10.87193100
_cell_length_c   14.18695417
_cell_angle_alpha   86.90740408
_cell_angle_beta   90.00000000
_cell_angle_gamma   90.00000000
_symmetry_Int_Tables_number   1
_chemical_formula_structural   K5Ag(S2O3)3
_chemical_formula_sum   'K20 Ag4 S24 O36'
_cell_volume   1685.87655320
_cell_formula_units_Z   4
loop_
 _symmetry_equiv_pos_site_id
 _symmetry_equiv_pos_as_xyz
  1  'x, y, z'
loop_
 _atom_site_type_symbol
 _atom_site_label
 _atom_site_symmetry_multiplicity
 _atom_site_fract_x
 _atom_site_fract_y
 _atom_site_fract_z
 _atom_site_occupancy
  K  K0  1  0.04132100  0.89449700  0.82826900  1
  K  K1  1  0.54132100  0.10550300  0.67173100  1
  K  K2  1  0.95867900  0.10550300  0.17173100  1
  K  K3  1  0.45867900  0.89449700  0.32826900  1
  K  K4  1  0.91401300  0.45594500  0.83763400  1
  K  K5  1  0.41401300  0.54405500  0.66236600  1
  K  K6  1  0.08598700  0.54405500  0.16236600  1
  K  K7  1  0.58598700  0.45594500  0.33763400  1
  K  K8  1  0.74983600  0.39887800  0.59970400  1
  K  K9  1  0.24983600  0.60112200  0.90029600  1
  K  K10  1  0.25016400  0.60112200  0.40029600  1
  K  K11  1  0.75016400  0.39887800  0.09970400  1
  K  K12  1  0.81080800  0.74786900  0.26470000  1
  K  K13  1  0.31080800  0.25213100  0.23530000  1
  K  K14  1  0.18919200  0.25213100  0.73530000  1
  K  K15  1  0.68919200  0.74786900  0.76470000  1
  K  K16  1  0.72960600  0.13502900  0.41905300  1
  K  K17  1  0.22960600  0.86497100  0.08094700  1
  K  K18  1  0.27039400  0.86497100  0.58094700  1
  K  K19  1  0.77039400  0.13502900  0.91905300  1
  Ag  Ag0  1  0.90517200  0.84447400  0.54147700  1
  Ag  Ag1  1  0.40517200  0.15552600  0.95852300  1
  Ag  Ag2  1  0.09482800  0.15552600  0.45852300  1
  Ag  Ag3  1  0.59482800  0.84447400  0.04147700  1
  S  S0  1  0.97358500  0.95735000  0.38169300  1
  S  S1  1  0.47358500  0.04265000  0.11830700  1
  S  S2  1  0.02641500  0.04265000  0.61830700  1
  S  S3  1  0.52641500  0.95735000  0.88169300  1
  S  S4  1  0.66423400  0.87697200  0.54317800  1
  S  S5  1  0.16423400  0.12302800  0.95682200  1
  S  S6  1  0.33576600  0.12302800  0.45682200  1
  S  S7  1  0.83576600  0.87697200  0.04317800  1
  S  S8  1  0.92956300  0.63564300  0.62687600  1
  S  S9  1  0.42956300  0.36435700  0.87312400  1
  S  S10  1  0.07043700  0.36435700  0.37312400  1
  S  S11  1  0.57043700  0.63564300  0.12687600  1
  S  S12  1  0.12124400  0.88047800  0.31677800  1
  S  S13  1  0.62124400  0.11952200  0.18322200  1
  S  S14  1  0.87875600  0.11952200  0.68322200  1
  S  S15  1  0.37875600  0.88047800  0.81677800  1
  S  S16  1  0.59007000  0.71684100  0.49893600  1
  S  S17  1  0.09007000  0.28315900  0.00106400  1
  S  S18  1  0.40993000  0.28315900  0.50106400  1
  S  S19  1  0.90993000  0.71684100  0.99893600  1
  S  S20  1  0.10785400  0.61782400  0.66737300  1
  S  S21  1  0.60785400  0.38217600  0.83262700  1
  S  S22  1  0.89214600  0.38217600  0.33262700  1
  S  S23  1  0.39214600  0.61782400  0.16737300  1
  O  O0  1  0.16481700  0.97403300  0.24418100  1
  O  O1  1  0.66481700  0.02596700  0.25581900  1
  O  O2  1  0.83518300  0.02596700  0.75581900  1
  O  O3  1  0.33518300  0.97403300  0.74418100  1
  O  O4  1  0.07831300  0.76691200  0.27313600  1
  O  O5  1  0.57831300  0.23308800  0.22686400  1
  O  O6  1  0.92168700  0.23308800  0.72686400  1
  O  O7  1  0.42168700  0.76691200  0.77313600  1
  O  O8  1  0.21556300  0.85272000  0.38970900  1
  O  O9  1  0.71556300  0.14728000  0.11029100  1
  O  O10  1  0.78443700  0.14728000  0.61029100  1
  O  O11  1  0.28443700  0.85272000  0.88970900  1
  O  O12  1  0.45438000  0.73138200  0.49958400  1
  O  O13  1  0.95438000  0.26861800  0.00041600  1
  O  O14  1  0.54562000  0.26861800  0.50041600  1
  O  O15  1  0.04562000  0.73138200  0.99958400  1
  O  O16  1  0.63308400  0.69774400  0.40164900  1
  O  O17  1  0.13308400  0.30225600  0.09835100  1
  O  O18  1  0.36691600  0.30225600  0.59835100  1
  O  O19  1  0.86691600  0.69774400  0.90164900  1
  O  O20  1  0.62684600  0.61460300  0.56658500  1
  O  O21  1  0.12684600  0.38539700  0.93341500  1
  O  O22  1  0.37315400  0.38539700  0.43341500  1
  O  O23  1  0.87315400  0.61460300  0.06658500  1
  O  O24  1  0.12112600  0.49864200  0.72348100  1
  O  O25  1  0.62112600  0.50135800  0.77651900  1
  O  O26  1  0.87887400  0.50135800  0.27651900  1
  O  O27  1  0.37887400  0.49864200  0.22348100  1
  O  O28  1  0.18756500  0.62071400  0.58267500  1
  O  O29  1  0.68756500  0.37928600  0.91732500  1
  O  O30  1  0.81243500  0.37928600  0.41732500  1
  O  O31  1  0.31243500  0.62071400  0.08267500  1
  O  O32  1  0.13925400  0.72170400  0.72671800  1
  O  O33  1  0.63925400  0.27829600  0.77328200  1
  O  O34  1  0.86074600  0.27829600  0.27328200  1
  O  O35  1  0.36074600  0.72170400  0.22671800  1
loop_
_geom_bond_atom_site_label_1
_geom_bond_atom_site_label_2
_geom_bond_distance
_geom_bond_site_symmetry_2
K0 O32 2.654416 1_555
K0 O11 2.829363 1_555
K0 O2 2.834148 1_465
K0 O15 2.930708 1_555
K0 O19 3.010600 1_455
K0 S2 3.313020 1_565
K0 S5 3.434875 1_565
K1 O33 2.654416 1_555
K1 O10 2.829363 1_555
K1 O3 2.834148 1_545
K1 O14 2.930708 1_555
K1 O18 3.010600 1_555
K1 S3 3.313020 1_545
K1 S4 3.434875 1_545
K2 O34 2.654416 1_555
K2 O9 2.829363 1_555
K2 O0 2.834148 1_645
K2 O13 2.930708 1_555
K2 O17 3.010600 1_655
K2 S0 3.313020 1_545
K2 S7 3.434875 1_545
K3 O35 2.654416 1_555
K3 O8 2.829363 1_555
K3 O1 2.834148 1_565
K3 O12 2.930708 1_555
K3 O16 3.010600 1_555
K3 S1 3.313020 1_565
K3 S6 3.434875 1_565
K4 O21 2.783850 1_655
K4 O24 2.810129 1_655
K4 O29 2.831130 1_555
K4 O19 2.873825 1_555
K4 O6 2.959365 1_555
K4 O13 3.027997 1_556
K4 O25 3.350782 1_555
K4 S8 3.486498 1_555
K5 O20 2.783850 1_555
K5 O25 2.810129 1_555
K5 O28 2.831130 1_555
K5 O18 2.873825 1_555
K5 O7 2.959365 1_555
K5 O12 3.027997 1_555
K5 O24 3.350782 1_555
K5 S9 3.486498 1_555
K6 O23 2.783850 1_455
K6 O26 2.810129 1_455
K6 O31 2.831130 1_555
K6 O17 2.873825 1_555
K6 O4 2.959365 1_555
K6 O15 3.027997 1_554
K6 O27 3.350782 1_555
K6 S10 3.486498 1_555
K7 O22 2.783850 1_555
K7 O27 2.810129 1_555
K7 O30 2.831130 1_555
K7 O16 2.873825 1_555
K7 O5 2.959365 1_555
K7 O14 3.027997 1_555
K7 O26 3.350782 1_555
K7 S11 3.486498 1_555
K8 O30 2.696111 1_555
K8 O20 2.723043 1_555
K8 O10 2.757509 1_555
K8 O33 2.983219 1_555
K8 O14 3.033462 1_555
K8 O6 3.113045 1_555
K8 O25 3.133729 1_555
K8 S8 3.279023 1_555
K9 O31 2.696111 1_556
K9 O21 2.723043 1_555
K9 O11 2.757509 1_555
K9 O32 2.983219 1_555
K9 O15 3.033462 1_555
K9 O7 3.113045 1_555
K9 O24 3.133729 1_555
K9 S9 3.279023 1_555
K10 O28 2.696111 1_555
K10 O22 2.723043 1_555
K10 O8 2.757509 1_555
K10 O35 2.983219 1_555
K10 O12 3.033462 1_555
K10 O4 3.113045 1_555
K10 O27 3.133729 1_555
K10 S10 3.279023 1_555
K11 O29 2.696111 1_554
K11 O23 2.723043 1_555
K11 O9 2.757509 1_555
K11 O34 2.983219 1_555
K11 O13 3.033462 1_555
K11 O5 3.113045 1_555
K11 O26 3.133729 1_555
K11 S11 3.279023 1_555
K12 O26 2.778024 1_555
K12 O16 2.782469 1_555
K12 O4 2.938363 1_655
K12 S7 3.383116 1_555
K12 S0 3.394749 1_555
K12 S11 3.534435 1_555
K13 O27 2.778024 1_555
K13 O17 2.782469 1_555
K13 O5 2.938363 1_555
K13 S6 3.383116 1_555
K13 S1 3.394749 1_555
K13 S10 3.534435 1_555
K14 O24 2.778024 1_555
K14 O18 2.782469 1_555
K14 O6 2.938363 1_455
K14 S5 3.383116 1_555
K14 S2 3.394749 1_555
K14 S9 3.534435 1_555
K15 O25 2.778024 1_555
K15 O19 2.782469 1_555
K15 O7 2.938363 1_555
K15 S4 3.383116 1_555
K15 S3 3.394749 1_555
K15 S8 3.534435 1_555
K16 O1 2.751009 1_555
K16 O14 2.771035 1_555
K16 O10 2.788869 1_555
K16 O30 2.804912 1_555
K16 O34 2.901025 1_555
K16 S4 3.309260 1_545
K16 O5 3.316585 1_555
K16 S0 3.354882 1_545
K17 O0 2.751009 1_555
K17 O15 2.771035 1_554
K17 O11 2.788869 1_554
K17 O31 2.804912 1_555
K17 O35 2.901025 1_555
K17 S5 3.309260 1_564
K17 O4 3.316585 1_555
K17 S1 3.354882 1_565
K18 O3 2.751009 1_555
K18 O12 2.771035 1_555
K18 O8 2.788869 1_555
K18 O28 2.804912 1_555
K18 O32 2.901025 1_555
K18 S6 3.309260 1_565
K18 O7 3.316585 1_555
K18 S2 3.354882 1_565
K19 O2 2.751009 1_555
K19 O13 2.771035 1_556
K19 O9 2.788869 1_556
K19 O29 2.804912 1_555
K19 O33 2.901025 1_555
K19 S7 3.309260 1_546
K19 O6 3.316585 1_555
K19 S3 3.354882 1_545
Ag0 S8 2.529237 1_555
Ag0 S0 2.627776 1_555
Ag0 S4 2.661196 1_555
Ag0 S2 2.800874 1_665
Ag1 S9 2.529237 1_555
Ag1 S1 2.627776 1_556
Ag1 S5 2.661196 1_555
Ag1 S3 2.800874 1_545
Ag2 S10 2.529237 1_555
Ag2 S2 2.627776 1_555
Ag2 S6 2.661196 1_555
Ag2 S0 2.800874 1_445
Ag3 S11 2.529237 1_555
Ag3 S3 2.627776 1_554
Ag3 S7 2.661196 1_555
Ag3 S1 2.800874 1_565
S0 S12 2.059635 1_655
S1 S13 2.059635 1_555
S10 S22 2.040679 1_455
S11 S23 2.040679 1_555
S14 S2 2.059635 1_655
S15 S3 2.059635 1_555
S16 S4 2.049817 1_555
S17 S5 2.049817 1_554
S18 S6 2.049817 1_555
S19 S7 2.049817 1_556
S20 S8 2.040679 1_455
S21 S9 2.040679 1_555
O0 S12 1.486524 1_555
O1 S13 1.486524 1_555
O2 S14 1.486524 1_555
O3 S15 1.486524 1_555
O4 S12 1.486977 1_555
O5 S13 1.486977 1_555
O6 S14 1.486977 1_555
O7 S15 1.486977 1_555
O8 S12 1.481162 1_555
O9 S13 1.481162 1_555
O10 S14 1.481162 1_555
O11 S15 1.481162 1_555
O12 S16 1.493758 1_555
O13 S17 1.493758 1_655
O14 S18 1.493758 1_555
O15 S19 1.493758 1_455
O16 S16 1.483471 1_555
O17 S17 1.483471 1_555
O18 S18 1.483471 1_555
O19 S19 1.483471 1_555
O20 S16 1.484427 1_555
O21 S17 1.484427 1_556
O22 S18 1.484427 1_555
O23 S19 1.484427 1_554
O24 S20 1.490763 1_555
O25 S21 1.490763 1_555
O26 S22 1.490763 1_555
O27 S23 1.490763 1_555
O28 S20 1.483942 1_555
O29 S21 1.483942 1_555
O30 S22 1.483942 1_555
O31 S23 1.483942 1_555
O32 S20 1.484945 1_555
O33 S21 1.484945 1_555
O34 S22 1.484945 1_555
O35 S23 1.484945 1_555
