# generated using pymatgen
data_BaSm2(MoO4)4
_symmetry_space_group_name_H-M   'P 1'
_cell_length_a   6.98871949
_cell_length_b   6.98871949
_cell_length_c   19.68761773
_cell_angle_alpha   89.50143321
_cell_angle_beta   89.50143321
_cell_angle_gamma   134.54365389
_symmetry_Int_Tables_number   1
_chemical_formula_structural   BaSm2(MoO4)4
_chemical_formula_sum   'Ba2 Sm4 Mo8 O32'
_cell_volume   685.16450289
_cell_formula_units_Z   2
loop_
 _symmetry_equiv_pos_site_id
 _symmetry_equiv_pos_as_xyz
  1  'x, y, z'
loop_
 _atom_site_type_symbol
 _atom_site_label
 _atom_site_symmetry_multiplicity
 _atom_site_fract_x
 _atom_site_fract_y
 _atom_site_fract_z
 _atom_site_occupancy
  Ba  Ba0  1  0.53194500  0.46805500  0.25000000  1
  Ba  Ba1  1  0.46805500  0.53194500  0.75000000  1
  Sm  Sm0  1  0.64544600  0.34910800  0.46717100  1
  Sm  Sm1  1  0.35455400  0.65089200  0.53282900  1
  Sm  Sm2  1  0.65089200  0.35455400  0.03282900  1
  Sm  Sm3  1  0.34910800  0.64544600  0.96717100  1
  Mo  Mo0  1  0.93189800  0.04740000  0.09113800  1
  Mo  Mo1  1  0.06810200  0.95260000  0.90886200  1
  Mo  Mo2  1  0.95260000  0.06810200  0.40886200  1
  Mo  Mo3  1  0.04740000  0.93189800  0.59113800  1
  Mo  Mo4  1  0.24318400  0.76401400  0.14996000  1
  Mo  Mo5  1  0.75681600  0.23598600  0.85004000  1
  Mo  Mo6  1  0.23598600  0.75681600  0.35004000  1
  Mo  Mo7  1  0.76401400  0.24318400  0.64996000  1
  O  O0  1  0.67982800  0.02015700  0.04614100  1
  O  O1  1  0.32017200  0.97984300  0.95385900  1
  O  O2  1  0.97984300  0.32017200  0.45385900  1
  O  O3  1  0.02015700  0.67982800  0.54614100  1
  O  O4  1  0.41742800  0.90175500  0.43221700  1
  O  O5  1  0.58257200  0.09824500  0.56778300  1
  O  O6  1  0.09824500  0.58257200  0.06778300  1
  O  O7  1  0.90175500  0.41742800  0.93221700  1
  O  O8  1  0.80098700  0.96458200  0.33021300  1
  O  O9  1  0.19901300  0.03541800  0.66978700  1
  O  O10  1  0.03541800  0.19901300  0.16978700  1
  O  O11  1  0.96458200  0.80098700  0.83021300  1
  O  O12  1  0.72285600  0.81434400  0.60319000  1
  O  O13  1  0.27714400  0.18565600  0.39681000  1
  O  O14  1  0.18565600  0.27714400  0.89681000  1
  O  O15  1  0.81434400  0.72285600  0.10319000  1
  O  O16  1  0.40936200  0.11181200  0.13532000  1
  O  O17  1  0.59063800  0.88818800  0.86468000  1
  O  O18  1  0.88818800  0.59063800  0.36468000  1
  O  O19  1  0.11181200  0.40936200  0.63532000  1
  O  O20  1  0.72960500  0.76276400  0.46430300  1
  O  O21  1  0.27039500  0.23723600  0.53569700  1
  O  O22  1  0.23723600  0.27039500  0.03569700  1
  O  O23  1  0.76276400  0.72960500  0.96430300  1
  O  O24  1  0.48377900  0.76244700  0.17512300  1
  O  O25  1  0.51622100  0.23755300  0.82487700  1
  O  O26  1  0.23755300  0.51622100  0.32487700  1
  O  O27  1  0.76244700  0.48377900  0.67512300  1
  O  O28  1  0.40325800  0.01497300  0.28810400  1
  O  O29  1  0.59674200  0.98502700  0.71189600  1
  O  O30  1  0.98502700  0.59674200  0.21189600  1
  O  O31  1  0.01497300  0.40325800  0.78810400  1
loop_
_geom_bond_atom_site_label_1
_geom_bond_atom_site_label_2
_geom_bond_distance
_geom_bond_site_symmetry_2
Ba0 O28 2.711061 1_555
Ba0 O30 2.711061 1_555
Ba0 O24 2.728897 1_555
Ba0 O26 2.728897 1_555
Ba0 O10 3.010702 1_555
Ba0 O8 3.010702 1_555
Ba0 O16 3.028073 1_555
Ba0 O18 3.028073 1_555
Ba0 O13 3.209499 1_555
Ba0 O15 3.209499 1_555
Ba1 O29 2.711061 1_555
Ba1 O31 2.711061 1_555
Ba1 O27 2.728897 1_555
Ba1 O25 2.728897 1_555
Ba1 O9 3.010702 1_555
Ba1 O11 3.010702 1_555
Ba1 O17 3.028073 1_555
Ba1 O19 3.028073 1_555
Ba1 O12 3.209499 1_555
Ba1 O14 3.209499 1_555
Mo0 O10 1.736754 1_655
Mo0 O15 1.802444 1_545
Mo0 O22 1.854214 1_655
Mo0 O0 1.866545 1_555
Mo1 O11 1.736754 1_455
Mo1 O14 1.802444 1_565
Mo1 O23 1.854214 1_455
Mo1 O1 1.866545 1_555
Mo2 O8 1.736754 1_545
Mo2 O13 1.802444 1_655
Mo2 O20 1.854214 1_545
Mo2 O2 1.866545 1_555
Mo3 O9 1.736754 1_565
Mo3 O12 1.802444 1_455
Mo3 O21 1.854214 1_565
Mo3 O3 1.866545 1_555
Mo4 O30 1.756862 1_455
Mo4 O24 1.764385 1_555
Mo4 O16 1.833493 1_565
Mo4 O6 1.874499 1_555
Mo5 O31 1.756862 1_655
Mo5 O25 1.764385 1_555
Mo5 O17 1.833493 1_545
Mo5 O7 1.874499 1_555
Mo6 O28 1.756862 1_565
Mo6 O26 1.764385 1_555
Mo6 O18 1.833493 1_455
Mo6 O4 1.874499 1_555
Mo7 O29 1.756862 1_545
Mo7 O27 1.764385 1_555
Mo7 O19 1.833493 1_655
Mo7 O5 1.874499 1_555
O0 Sm2 2.494887 1_555
O0 Sm3 2.501832 1_544
O1 Sm3 2.494887 1_555
O1 Sm2 2.501832 1_566
O2 Sm0 2.494887 1_555
O2 Sm1 2.501832 1_655
O3 Sm1 2.494887 1_555
O3 Sm0 2.501832 1_455
O4 Sm0 2.419626 1_565
O4 Sm1 2.456439 1_555
O5 Sm1 2.419626 1_545
O5 Sm0 2.456439 1_555
O6 Sm2 2.419626 1_455
O6 Sm3 2.456439 1_554
O7 Sm3 2.419626 1_655
O7 Sm2 2.456439 1_556
O12 Sm1 2.411162 1_555
O13 Sm0 2.411162 1_555
O14 Sm3 2.411162 1_555
O15 Sm2 2.411162 1_555
O16 Sm2 2.379620 1_555
O17 Sm3 2.379620 1_555
O18 Sm0 2.379620 1_555
O19 Sm1 2.379620 1_555
O20 Sm0 2.513513 1_555
O20 Sm1 2.519287 1_555
O21 Sm1 2.513513 1_555
O21 Sm0 2.519287 1_555
O22 Sm2 2.513513 1_555
O22 Sm3 2.519287 1_554
O23 Sm3 2.513513 1_555
O23 Sm2 2.519287 1_556
