# generated using pymatgen
data_Li4MnCo2O7
_symmetry_space_group_name_H-M   'P 1'
_cell_length_a   5.13149392
_cell_length_b   7.74670648
_cell_length_c   7.66963985
_cell_angle_alpha   119.38281022
_cell_angle_beta   108.66666905
_cell_angle_gamma   83.75339265
_symmetry_Int_Tables_number   1
_chemical_formula_structural   Li4MnCo2O7
_chemical_formula_sum   'Li8 Mn2 Co4 O14'
_cell_volume   251.26007039
_cell_formula_units_Z   2
loop_
 _symmetry_equiv_pos_site_id
 _symmetry_equiv_pos_as_xyz
  1  'x, y, z'
loop_
 _atom_site_type_symbol
 _atom_site_label
 _atom_site_symmetry_multiplicity
 _atom_site_fract_x
 _atom_site_fract_y
 _atom_site_fract_z
 _atom_site_occupancy
  Li  Li0  1  0.49873500  0.21812800  0.07461900  1
  Li  Li1  1  0.50653600  0.50690100  0.50411800  1
  Li  Li2  1  0.49346800  0.63595500  0.21016500  1
  Li  Li3  1  0.50126200  0.92472900  0.63966700  1
  Li  Li4  1  0.50000100  0.07142700  0.35714600  1
  Li  Li5  1  0.49212100  0.36821300  0.78755800  1
  Li  Li6  1  0.50787500  0.77464300  0.92672600  1
  Li  Li7  1  0.99999900  0.57142900  0.85714100  1
  Mn  Mn0  1  0.99420800  0.99682500  0.99843300  1
  Mn  Mn1  1  0.00580900  0.14603300  0.71585800  1
  Co  Co0  1  0.99549300  0.29364800  0.43314300  1
  Co  Co1  1  0.00452100  0.84922400  0.28116300  1
  Co  Co2  1  0.99226200  0.43865000  0.13744700  1
  Co  Co3  1  0.00771500  0.70421000  0.57683800  1
  O  O0  1  0.21957600  0.97282200  0.82416100  1
  O  O1  1  0.21048300  0.24160600  0.23950100  1
  O  O2  1  0.22714100  0.37310700  0.94956300  1
  O  O3  1  0.23826700  0.67293800  0.38288200  1
  O  O4  1  0.22362200  0.83966900  0.11384500  1
  O  O5  1  0.22967000  0.10860400  0.54334800  1
  O  O6  1  0.24174500  0.53969000  0.66474800  1
  O  O7  1  0.76172200  0.46992000  0.33141700  1
  O  O8  1  0.77286100  0.76975500  0.76471700  1
  O  O9  1  0.78952800  0.90125900  0.47479500  1
  O  O10  1  0.78041800  0.17003900  0.89013100  1
  O  O11  1  0.77636800  0.30319000  0.60042300  1
  O  O12  1  0.75827300  0.60314800  0.04951800  1
  O  O13  1  0.77032100  0.03424000  0.17093200  1
loop_
_geom_bond_atom_site_label_1
_geom_bond_atom_site_label_2
_geom_bond_distance
_geom_bond_site_symmetry_2
Li0 O2 2.052766 1_554
Li0 O13 2.111573 1_555
Li0 O0 2.145253 1_544
Li0 O7 2.146298 1_555
Li0 O1 2.175617 1_555
Li0 O10 2.214725 1_554
Li1 O6 2.029265 1_555
Li1 O7 2.051233 1_555
Li1 O3 2.093561 1_555
Li1 O8 2.207315 1_555
Li1 O11 2.228628 1_555
Li1 O1 2.294220 1_555
Li2 O12 2.029391 1_555
Li2 O3 2.051389 1_555
Li2 O7 2.093581 1_555
Li2 O2 2.207300 1_554
Li2 O4 2.228733 1_555
Li2 O9 2.294298 1_555
Li3 O8 2.052724 1_555
Li3 O5 2.111531 1_565
Li3 O10 2.145273 1_565
Li3 O3 2.146285 1_555
Li3 O9 2.175638 1_555
Li3 O0 2.214766 1_555
Li4 O11 2.071010 1_555
Li4 O4 2.071068 1_545
Li4 O9 2.154564 1_545
Li4 O1 2.154590 1_555
Li4 O5 2.196438 1_555
Li4 O13 2.196444 1_555
Li5 O6 2.093858 1_555
Li5 O12 2.100121 1_556
Li5 O2 2.101962 1_555
Li5 O5 2.155198 1_555
Li5 O11 2.216306 1_555
Li5 O10 2.260579 1_555
Li6 O12 2.093935 1_556
Li6 O6 2.100181 1_555
Li6 O8 2.102028 1_555
Li6 O13 2.155126 1_566
Li6 O4 2.216237 1_556
Li6 O0 2.260585 1_555
Li7 O2 2.090802 1_655
Li7 O8 2.090829 1_555
Li7 O12 2.127311 1_556
Li7 O6 2.127449 1_655
Li7 O4 2.137559 1_656
Li7 O11 2.137598 1_555
Mn0 O8 1.906536 1_555
Mn0 O13 1.917936 1_566
Mn0 O4 1.931350 1_656
Mn0 O0 1.964003 1_655
Mn0 O10 1.970808 1_565
Mn0 O1 1.987460 1_666
Mn1 O2 1.906497 1_555
Mn1 O5 1.917870 1_555
Mn1 O11 1.931511 1_455
Mn1 O10 1.964097 1_455
Mn1 O0 1.970753 1_545
Mn1 O9 1.987430 1_445
Co0 O11 1.930847 1_555
Co0 O1 1.987417 1_655
Co0 O7 2.000568 1_555
Co0 O6 2.037146 1_655
Co0 O5 2.092184 1_655
Co0 O13 2.114220 1_555
Co1 O4 1.930957 1_555
Co1 O9 1.987378 1_455
Co1 O3 2.000576 1_555
Co1 O12 2.037354 1_455
Co1 O13 2.092160 1_465
Co1 O5 2.113999 1_565
Co2 O12 1.874134 1_555
Co2 O2 2.011871 1_654
Co2 O3 2.013958 1_655
Co2 O7 2.093319 1_555
Co2 O10 2.099715 1_554
Co2 O1 2.106182 1_655
Co3 O6 1.874292 1_555
Co3 O8 2.011736 1_455
Co3 O7 2.013908 1_455
Co3 O3 2.093273 1_555
Co3 O0 2.099763 1_555
Co3 O9 2.106110 1_455
