# generated using pymatgen
data_NaInH12(SeO7)2
_symmetry_space_group_name_H-M   'P 1'
_cell_length_a   7.27136000
_cell_length_b   7.32281120
_cell_length_c   12.72956214
_cell_angle_alpha   93.58076121
_cell_angle_beta   93.59710997
_cell_angle_gamma   107.09246243
_symmetry_Int_Tables_number   1
_chemical_formula_structural   NaInH12(SeO7)2
_chemical_formula_sum   'Na2 In2 H24 Se4 O28'
_cell_volume   644.26529389
_cell_formula_units_Z   2
loop_
 _symmetry_equiv_pos_site_id
 _symmetry_equiv_pos_as_xyz
  1  'x, y, z'
loop_
 _atom_site_type_symbol
 _atom_site_label
 _atom_site_symmetry_multiplicity
 _atom_site_fract_x
 _atom_site_fract_y
 _atom_site_fract_z
 _atom_site_occupancy
  Na  Na0  1  0.91385300  0.58662100  0.74703800  1
  Na  Na1  1  0.08614700  0.41337900  0.25296200  1
  In  In0  1  0.50000000  0.00000000  0.50000000  1
  In  In1  1  0.50000000  0.00000000  0.00000000  1
  H  H0  1  0.91284200  0.66868100  0.51105100  1
  H  H1  1  0.08715800  0.33131900  0.48894900  1
  H  H2  1  0.77795300  0.21122000  0.87783200  1
  H  H3  1  0.22204700  0.78878000  0.12216800  1
  H  H4  1  0.78423000  0.98479200  0.16799600  1
  H  H5  1  0.21577000  0.01520800  0.83200400  1
  H  H6  1  0.74340300  0.67998200  0.57571800  1
  H  H7  1  0.25659700  0.32001800  0.42428200  1
  H  H8  1  0.51136400  0.71906100  0.33291400  1
  H  H9  1  0.48863600  0.28093900  0.66708600  1
  H  H10  1  0.29060300  0.72195800  0.62305300  1
  H  H11  1  0.70939700  0.27804200  0.37694700  1
  H  H12  1  0.88677200  0.23695800  0.99745600  1
  H  H13  1  0.11322800  0.76304200  0.00254400  1
  H  H14  1  0.81616600  0.74521200  0.91805500  1
  H  H15  1  0.18383400  0.25478800  0.08194500  1
  H  H16  1  0.72925900  0.82725400  0.38014900  1
  H  H17  1  0.27074100  0.17274600  0.61985100  1
  H  H18  1  0.83572600  0.58954300  0.99024700  1
  H  H19  1  0.16427400  0.41045700  0.00975300  1
  H  H20  1  0.73615900  0.38648200  0.49563900  1
  H  H21  1  0.26384100  0.61351800  0.50436100  1
  H  H22  1  0.66196200  0.77263200  0.12381100  1
  H  H23  1  0.33803800  0.22736800  0.87618900  1
  Se  Se0  1  0.41635000  0.60113300  0.81354000  1
  Se  Se1  1  0.58365000  0.39886700  0.18646000  1
  Se  Se2  1  0.89857200  0.08603700  0.68607000  1
  Se  Se3  1  0.10142800  0.91396300  0.31393000  1
  O  O0  1  0.55695600  0.52283400  0.73572800  1
  O  O1  1  0.44304400  0.47716600  0.26427200  1
  O  O2  1  0.65838200  0.91013300  0.12927200  1
  O  O3  1  0.34161800  0.08986700  0.87072800  1
  O  O4  1  0.25981900  0.68789800  0.74710500  1
  O  O5  1  0.74018100  0.31210200  0.25289500  1
  O  O6  1  0.71468900  0.93307100  0.60428800  1
  O  O7  1  0.28531100  0.06692900  0.39571200  1
  O  O8  1  0.81073000  0.24162300  0.75223700  1
  O  O9  1  0.18927000  0.75837700  0.24776300  1
  O  O10  1  0.59163400  0.83561100  0.37602400  1
  O  O11  1  0.40836600  0.16438900  0.62397600  1
  O  O12  1  0.97969400  0.94763800  0.76369300  1
  O  O13  1  0.02030600  0.05236200  0.23630700  1
  O  O14  1  0.93131000  0.79201300  0.38705300  1
  O  O15  1  0.06869000  0.20798700  0.61294700  1
  O  O16  1  0.75733100  0.21094800  0.95557200  1
  O  O17  1  0.24266900  0.78905200  0.04442800  1
  O  O18  1  0.29476200  0.42885000  0.88514700  1
  O  O19  1  0.70523800  0.57115000  0.11485300  1
  O  O20  1  0.82409000  0.59587500  0.56002200  1
  O  O21  1  0.17591000  0.40412500  0.43997800  1
  O  O22  1  0.56855500  0.78457100  0.89618900  1
  O  O23  1  0.43144500  0.21542900  0.10381100  1
  O  O24  1  0.90352600  0.66888800  0.93607400  1
  O  O25  1  0.09647400  0.33111200  0.06392600  1
  O  O26  1  0.28887900  0.74268100  0.54520800  1
  O  O27  1  0.71112100  0.25731900  0.45479200  1
loop_
_geom_bond_atom_site_label_1
_geom_bond_atom_site_label_2
_geom_bond_distance
_geom_bond_site_symmetry_2
Na0 O4 2.404460 1_655
Na0 O8 2.421293 1_555
Na0 O20 2.439096 1_555
Na0 O24 2.455044 1_555
Na0 O0 2.491135 1_555
Na0 O12 2.536996 1_555
Na1 O5 2.404460 1_455
Na1 O9 2.421293 1_555
Na1 O21 2.439096 1_555
Na1 O25 2.455044 1_555
Na1 O1 2.491135 1_555
Na1 O13 2.536996 1_555
In0 O7 2.170373 1_555
In0 O6 2.170373 1_545
In0 O11 2.179403 1_555
In0 O10 2.179403 1_545
In0 O26 2.187308 1_545
In0 O27 2.187308 1_555
In1 O16 2.179466 1_554
In1 O17 2.179466 1_545
In1 O22 2.183562 1_544
In1 O23 2.183562 1_555
In1 O3 2.193231 1_554
In1 O2 2.193231 1_545
H0 O20 0.989476 1_555
H1 O21 0.989476 1_555
H2 O16 1.010188 1_555
H2 O8 1.650308 1_555
H3 O17 1.010188 1_555
H3 O9 1.650308 1_555
H4 O2 0.997456 1_555
H4 O13 1.790904 1_665
H5 O3 0.997456 1_555
H5 O12 1.790904 1_445
H6 O20 0.987535 1_555
H7 O21 0.987535 1_555
H8 O10 0.989302 1_555
H9 O11 0.989302 1_555
H10 O26 1.011670 1_555
H10 O4 1.633000 1_555
H11 O27 1.011670 1_555
H11 O5 1.633000 1_555
H12 O16 1.012615 1_555
H12 O25 1.632061 1_656
H13 O17 1.012615 1_555
H13 O24 1.632061 1_454
H14 O24 0.987385 1_555
H15 O25 0.987385 1_555
H16 O10 1.018701 1_555
H16 O14 1.562795 1_555
H17 O11 1.018701 1_555
H17 O15 1.562795 1_555
H18 O24 0.990209 1_555
H19 O25 0.990209 1_555
H20 O27 1.011722 1_555
H20 O20 1.622534 1_555
H21 O26 1.011722 1_555
H21 O21 1.622534 1_555
H22 O2 1.013033 1_555
H22 O19 1.595392 1_555
H23 O3 1.013033 1_555
H23 O18 1.595392 1_555
O0 Se0 1.660086 1_555
O1 Se1 1.660086 1_555
O4 Se0 1.669070 1_555
O5 Se1 1.669070 1_555
O6 Se2 1.710425 1_565
O7 Se3 1.710425 1_545
O8 Se2 1.670595 1_555
O9 Se3 1.670595 1_555
O12 Se2 1.659754 1_565
O13 Se3 1.659754 1_545
O14 Se3 1.671233 1_655
O15 Se2 1.671233 1_455
O18 Se0 1.671306 1_555
O19 Se1 1.671306 1_555
O22 Se0 1.714532 1_555
O23 Se1 1.714532 1_555
