# generated using pymatgen
data_U(NiAs)2
_symmetry_space_group_name_H-M   'P 1'
_cell_length_a   4.15761300
_cell_length_b   4.15761300
_cell_length_c   9.22864900
_cell_angle_alpha   90.00000000
_cell_angle_beta   90.00000000
_cell_angle_gamma   90.00000000
_symmetry_Int_Tables_number   1
_chemical_formula_structural   U(NiAs)2
_chemical_formula_sum   'U2 Ni4 As4'
_cell_volume   159.52408122
_cell_formula_units_Z   2
loop_
 _symmetry_equiv_pos_site_id
 _symmetry_equiv_pos_as_xyz
  1  'x, y, z'
loop_
 _atom_site_type_symbol
 _atom_site_label
 _atom_site_symmetry_multiplicity
 _atom_site_fract_x
 _atom_site_fract_y
 _atom_site_fract_z
 _atom_site_occupancy
  U  U0  1  0.00000000  0.50000000  0.24819200  1
  U  U1  1  0.50000000  0.00000000  0.75180800  1
  Ni  Ni0  1  0.00000000  0.00000000  0.00000000  1
  Ni  Ni1  1  0.50000000  0.50000000  0.00000000  1
  Ni  Ni2  1  0.00000000  0.50000000  0.61910800  1
  Ni  Ni3  1  0.50000000  0.00000000  0.38089200  1
  As  As0  1  0.00000000  0.00000000  0.50000000  1
  As  As1  1  0.50000000  0.50000000  0.50000000  1
  As  As2  1  0.00000000  0.50000000  0.86885500  1
  As  As3  1  0.50000000  0.00000000  0.13114500  1
loop_
_geom_bond_atom_site_label_1
_geom_bond_atom_site_label_2
_geom_bond_distance
_geom_bond_site_symmetry_2
Ni0 U1 3.093173 1_454
Ni0 U0 3.093173 1_545
Ni0 U0 3.093173 1_555
Ni0 U1 3.093173 1_554
Ni1 U1 3.093173 1_564
Ni1 U0 3.093173 1_555
Ni1 U1 3.093173 1_554
Ni1 U0 3.093173 1_655
Ni2 U1 3.184748 1_465
Ni2 U1 3.184748 1_555
Ni2 U1 3.184748 1_455
Ni2 U1 3.184748 1_565
Ni3 U0 3.184748 1_555
Ni3 U0 3.184748 1_645
Ni3 U0 3.184748 1_545
Ni3 U0 3.184748 1_655
As0 Ni3 2.351529 1_455
As0 Ni2 2.351529 1_555
As0 Ni2 2.351529 1_545
As0 Ni3 2.351529 1_555
As0 U0 3.117965 1_555
As0 U1 3.117965 1_555
As0 U0 3.117965 1_545
As0 U1 3.117965 1_455
As1 Ni3 2.351529 1_565
As1 Ni2 2.351529 1_555
As1 Ni3 2.351529 1_555
As1 Ni2 2.351529 1_655
As1 U0 3.117965 1_555
As1 U1 3.117965 1_555
As1 U0 3.117965 1_655
As1 U1 3.117965 1_565
As2 Ni2 2.304827 1_555
As2 Ni1 2.405461 1_456
As2 Ni1 2.405461 1_556
As2 Ni0 2.405461 1_556
As2 Ni0 2.405461 1_566
As2 U1 3.132040 1_555
As2 U1 3.132040 1_565
As2 U1 3.132040 1_465
As2 U1 3.132040 1_455
As3 Ni3 2.304827 1_555
As3 Ni1 2.405461 1_555
As3 Ni0 2.405461 1_655
As3 Ni1 2.405461 1_545
As3 Ni0 2.405461 1_555
As3 U0 3.132040 1_545
As3 U0 3.132040 1_645
As3 U0 3.132040 1_655
As3 U0 3.132040 1_555
