# generated using pymatgen
data_Zr9CoMo4
_symmetry_space_group_name_H-M   'P 1'
_cell_length_a   8.80690212
_cell_length_b   8.80690212
_cell_length_c   8.44427900
_cell_angle_alpha   90.00000000
_cell_angle_beta   90.00000000
_cell_angle_gamma   120.00000091
_symmetry_Int_Tables_number   1
_chemical_formula_structural   Zr9CoMo4
_chemical_formula_sum   'Zr18 Co2 Mo8'
_cell_volume   567.20433455
_cell_formula_units_Z   2
loop_
 _symmetry_equiv_pos_site_id
 _symmetry_equiv_pos_as_xyz
  1  'x, y, z'
loop_
 _atom_site_type_symbol
 _atom_site_label
 _atom_site_symmetry_multiplicity
 _atom_site_fract_x
 _atom_site_fract_y
 _atom_site_fract_z
 _atom_site_occupancy
  Zr  Zr0  1  0.54245700  0.08491400  0.25000000  1
  Zr  Zr1  1  0.45754300  0.91508600  0.75000000  1
  Zr  Zr2  1  0.91508600  0.45754300  0.25000000  1
  Zr  Zr3  1  0.54245700  0.45754300  0.25000000  1
  Zr  Zr4  1  0.45754300  0.54245700  0.75000000  1
  Zr  Zr5  1  0.08491400  0.54245700  0.75000000  1
  Zr  Zr6  1  0.20094000  0.40187900  0.05777700  1
  Zr  Zr7  1  0.79906000  0.59812100  0.55777700  1
  Zr  Zr8  1  0.59812100  0.79906000  0.05777700  1
  Zr  Zr9  1  0.20094000  0.79906000  0.05777700  1
  Zr  Zr10  1  0.79906000  0.20094000  0.55777700  1
  Zr  Zr11  1  0.40187900  0.20094000  0.55777700  1
  Zr  Zr12  1  0.79906000  0.59812100  0.94222300  1
  Zr  Zr13  1  0.79906000  0.20094000  0.94222300  1
  Zr  Zr14  1  0.40187900  0.20094000  0.94222300  1
  Zr  Zr15  1  0.59812100  0.79906000  0.44222300  1
  Zr  Zr16  1  0.20094000  0.79906000  0.44222300  1
  Zr  Zr17  1  0.20094000  0.40187900  0.44222300  1
  Co  Co0  1  0.33333300  0.66666700  0.25000000  1
  Co  Co1  1  0.66666700  0.33333300  0.75000000  1
  Mo  Mo0  1  0.00000000  0.00000000  0.00000000  1
  Mo  Mo1  1  0.00000000  0.00000000  0.50000000  1
  Mo  Mo2  1  0.88952200  0.77904500  0.25000000  1
  Mo  Mo3  1  0.11047800  0.22095500  0.75000000  1
  Mo  Mo4  1  0.22095500  0.11047800  0.25000000  1
  Mo  Mo5  1  0.88952200  0.11047800  0.25000000  1
  Mo  Mo6  1  0.11047800  0.88952200  0.75000000  1
  Mo  Mo7  1  0.77904500  0.88952200  0.75000000  1
loop_
_geom_bond_atom_site_label_1
_geom_bond_atom_site_label_2
_geom_bond_distance
_geom_bond_site_symmetry_2
Co0 Zr16 2.590985 1_555
Co0 Zr9 2.590985 1_555
Co0 Zr17 2.590997 1_555
Co0 Zr15 2.590997 1_555
Co0 Zr8 2.590997 1_555
Co0 Zr6 2.590997 1_555
Co1 Zr13 2.590985 1_555
Co1 Zr10 2.590985 1_555
Co1 Zr14 2.590997 1_555
Co1 Zr12 2.590997 1_555
Co1 Zr7 2.590997 1_555
Co1 Zr11 2.590997 1_555
Mo0 Mo4 2.701221 1_555
Mo0 Mo3 2.701221 1_554
Mo0 Mo7 2.701221 1_444
Mo0 Mo2 2.701221 1_445
Mo0 Mo6 2.701226 1_544
Mo0 Mo5 2.701226 1_455
Mo0 Zr6 3.103718 1_555
Mo0 Zr8 3.103718 1_445
Mo0 Zr12 3.103718 1_444
Mo0 Zr14 3.103718 1_554
Mo0 Zr9 3.103725 1_545
Mo0 Zr13 3.103725 1_454
Mo1 Mo3 2.701221 1_555
Mo1 Mo4 2.701221 1_555
Mo1 Mo7 2.701221 1_445
Mo1 Mo2 2.701221 1_445
Mo1 Mo6 2.701226 1_545
Mo1 Mo5 2.701226 1_455
Mo1 Zr7 3.103718 1_445
Mo1 Zr17 3.103718 1_555
Mo1 Zr15 3.103718 1_445
Mo1 Zr11 3.103718 1_555
Mo1 Zr16 3.103725 1_545
Mo1 Zr10 3.103725 1_455
Mo2 Mo4 2.918898 1_665
Mo2 Mo5 2.918898 1_565
Mo2 Zr7 2.942569 1_555
Mo2 Zr12 2.942569 1_554
Mo2 Zr3 2.950451 1_555
Mo2 Zr2 2.950456 1_555
Mo2 Zr15 3.115168 1_555
Mo2 Zr8 3.115168 1_555
Mo2 Zr16 3.115183 1_655
Mo2 Zr9 3.115183 1_655
Mo3 Mo7 2.918898 1_445
Mo3 Mo6 2.918898 1_545
Mo3 Zr6 2.942569 1_556
Mo3 Zr17 2.942569 1_555
Mo3 Zr4 2.950451 1_555
Mo3 Zr5 2.950456 1_555
Mo3 Zr14 3.115168 1_555
Mo3 Zr11 3.115168 1_555
Mo3 Zr13 3.115183 1_455
Mo3 Zr10 3.115183 1_455
Mo4 Mo5 2.918898 1_455
Mo4 Zr11 2.942569 1_555
Mo4 Zr14 2.942569 1_554
Mo4 Zr3 2.950451 1_555
Mo4 Zr0 2.950456 1_555
Mo4 Zr17 3.115168 1_555
Mo4 Zr6 3.115168 1_555
Mo4 Zr16 3.115183 1_545
Mo4 Zr9 3.115183 1_545
Mo5 Zr10 2.942569 1_555
Mo5 Zr13 2.942569 1_554
Mo5 Zr0 2.950447 1_555
Mo5 Zr2 2.950447 1_555
Mo5 Zr15 3.115176 1_545
Mo5 Zr8 3.115176 1_545
Mo5 Zr17 3.115176 1_655
Mo5 Zr6 3.115176 1_655
Mo6 Mo7 2.918898 1_455
Mo6 Zr9 2.942569 1_556
Mo6 Zr16 2.942569 1_555
Mo6 Zr5 2.950447 1_555
Mo6 Zr1 2.950447 1_555
Mo6 Zr12 3.115176 1_455
Mo6 Zr7 3.115176 1_455
Mo6 Zr14 3.115176 1_565
Mo6 Zr11 3.115176 1_565
Mo7 Zr8 2.942569 1_556
Mo7 Zr15 2.942569 1_555
Mo7 Zr4 2.950451 1_555
Mo7 Zr1 2.950456 1_555
Mo7 Zr12 3.115168 1_555
Mo7 Zr7 3.115168 1_555
Mo7 Zr13 3.115183 1_565
Mo7 Zr10 3.115183 1_565
