# generated using pymatgen
data_Mg2Al3MoS8
_symmetry_space_group_name_H-M   'P 1'
_cell_length_a   7.24131855
_cell_length_b   7.33493001
_cell_length_c   7.24141300
_cell_angle_alpha   60.42131504
_cell_angle_beta   59.99830968
_cell_angle_gamma   60.42136685
_symmetry_Int_Tables_number   1
_chemical_formula_structural   Mg2Al3MoS8
_chemical_formula_sum   'Mg2 Al3 Mo1 S8'
_cell_volume   273.68626406
_cell_formula_units_Z   1
loop_
 _symmetry_equiv_pos_site_id
 _symmetry_equiv_pos_as_xyz
  1  'x, y, z'
loop_
 _atom_site_type_symbol
 _atom_site_label
 _atom_site_symmetry_multiplicity
 _atom_site_fract_x
 _atom_site_fract_y
 _atom_site_fract_z
 _atom_site_occupancy
  Mg  Mg0  1  0.87382700  0.87851700  0.87383200  1
  Mg  Mg1  1  0.12617600  0.12148400  0.12616700  1
  Al  Al0  1  0.50000100  0.50001000  0.49998800  1
  Al  Al1  1  0.50000100  0.49999400  0.00000000  1
  Al  Al2  1  0.99999900  0.49999300  0.50001000  1
  Mo  Mo0  1  0.50000000  0.99999900  0.50000400  1
  S  S0  1  0.74176500  0.73043500  0.74177300  1
  S  S1  1  0.25821600  0.26957800  0.71398900  1
  S  S2  1  0.26197900  0.71406800  0.26198100  1
  S  S3  1  0.71398900  0.26958000  0.25821100  1
  S  S4  1  0.73801700  0.28593200  0.73801200  1
  S  S5  1  0.28601200  0.73041800  0.74178700  1
  S  S6  1  0.25823400  0.26956000  0.25823600  1
  S  S7  1  0.74178800  0.73042700  0.28601200  1
loop_
_geom_bond_atom_site_label_1
_geom_bond_atom_site_label_2
_geom_bond_distance
_geom_bond_site_symmetry_2
Mg0 S7 2.444073 1_556
Mg0 S5 2.444075 1_655
Mg0 S0 2.444223 1_555
Mg0 S4 2.455420 1_565
Mg1 S1 2.444063 1_554
Mg1 S3 2.444086 1_455
Mg1 S6 2.444221 1_555
Mg1 S2 2.455426 1_545
Al0 S7 2.438388 1_555
Al0 S5 2.438418 1_555
Al0 S3 2.438419 1_555
Al0 S1 2.438447 1_555
Al0 S2 2.456426 1_555
Al0 S4 2.456477 1_555
Al1 S6 2.438375 1_555
Al1 S0 2.438390 1_554
Al1 S3 2.438437 1_555
Al1 S5 2.438453 1_554
Al1 S4 2.456473 1_554
Al1 S2 2.456495 1_555
Al2 S0 2.438409 1_555
Al2 S6 2.438420 1_655
Al2 S1 2.438421 1_655
Al2 S7 2.438482 1_555
Al2 S4 2.456416 1_555
Al2 S2 2.456474 1_655
Mo0 S6 2.503974 1_565
Mo0 S0 2.503976 1_555
Mo0 S7 2.504063 1_555
Mo0 S1 2.504068 1_565
Mo0 S5 2.504078 1_555
Mo0 S3 2.504083 1_565
