# generated using pymatgen
data_SmAlNi
_symmetry_space_group_name_H-M   'P 1'
_cell_length_a   5.50453836
_cell_length_b   5.36097595
_cell_length_c   8.73934500
_cell_angle_alpha   90.00000000
_cell_angle_beta   90.00000000
_cell_angle_gamma   120.89934847
_symmetry_Int_Tables_number   1
_chemical_formula_structural   SmAlNi
_chemical_formula_sum   'Sm4 Al4 Ni4'
_cell_volume   221.29252373
_cell_formula_units_Z   4
loop_
 _symmetry_equiv_pos_site_id
 _symmetry_equiv_pos_as_xyz
  1  'x, y, z'
loop_
 _atom_site_type_symbol
 _atom_site_label
 _atom_site_symmetry_multiplicity
 _atom_site_fract_x
 _atom_site_fract_y
 _atom_site_fract_z
 _atom_site_occupancy
  Sm  Sm0  1  0.65692600  0.31397700  0.53801400  1
  Sm  Sm1  1  0.33007200  0.65993100  0.43371600  1
  Sm  Sm2  1  0.33007200  0.65993100  0.06628400  1
  Sm  Sm3  1  0.65692600  0.31397700  0.96198600  1
  Al  Al0  1  0.15941600  0.31883500  0.75000000  1
  Al  Al1  1  0.15856900  0.82598100  0.75000000  1
  Al  Al2  1  0.66726400  0.82587300  0.75000000  1
  Al  Al3  1  0.86695100  0.73379400  0.25000000  1
  Ni  Ni0  1  0.85349400  0.18826900  0.25000000  1
  Ni  Ni1  1  0.33500700  0.18825400  0.25000000  1
  Ni  Ni2  1  0.99265200  0.98558900  0.51265700  1
  Ni  Ni3  1  0.99265200  0.98558900  0.98734300  1
loop_
_geom_bond_atom_site_label_1
_geom_bond_atom_site_label_2
_geom_bond_distance
_geom_bond_site_symmetry_2
Sm0 Sm1 3.143716 1_545
Sm0 Sm1 3.306775 1_555
Sm0 Sm1 3.307886 1_655
Sm0 Sm3 3.705238 1_555
Sm1 Sm2 3.211115 1_555
Sm2 Sm3 3.143716 1_564
Sm2 Sm3 3.306775 1_554
Sm2 Sm3 3.307886 1_454
Al0 Ni3 2.579220 1_445
Al0 Ni2 2.579220 1_445
Al0 Al1 2.639787 1_545
Al0 Al2 2.640086 1_445
Al0 Al2 2.720114 1_555
Al0 Al1 2.721195 1_555
Al0 Sm1 3.178416 1_555
Al0 Sm2 3.178416 1_556
Al0 Sm3 3.317507 1_555
Al0 Sm0 3.317507 1_555
Al0 Sm3 3.318058 1_455
Al0 Sm0 3.318058 1_455
Al1 Ni3 2.582880 1_455
Al1 Ni2 2.582880 1_455
Al1 Al2 2.704110 1_455
Al1 Al2 2.800429 1_555
Al1 Sm1 3.191726 1_555
Al1 Sm2 3.191726 1_556
Al1 Sm0 3.229671 1_565
Al1 Sm3 3.229671 1_565
Al1 Sm3 3.287357 1_455
Al1 Sm0 3.287357 1_455
Al2 Ni2 2.582344 1_555
Al2 Ni3 2.582344 1_555
Al2 Sm2 3.190755 1_556
Al2 Sm1 3.190755 1_555
Al2 Sm0 3.230412 1_565
Al2 Sm3 3.230412 1_565
Al2 Sm3 3.287251 1_555
Al2 Sm0 3.287251 1_555
Al3 Ni1 2.475244 1_665
Al3 Ni0 2.475285 1_565
Al3 Ni3 2.571130 1_554
Al3 Ni2 2.571130 1_555
Al3 Ni1 2.886498 1_555
Al3 Ni0 2.887207 1_555
Al3 Sm3 3.172552 1_554
Al3 Sm0 3.172552 1_555
Al3 Sm2 3.204114 1_555
Al3 Sm1 3.204114 1_555
Al3 Sm1 3.204707 1_655
Al3 Sm2 3.204707 1_655
Ni0 Ni1 2.650548 1_655
Ni0 Ni2 2.809146 1_545
Ni0 Ni3 2.809146 1_544
Ni0 Ni1 2.853990 1_555
Ni0 Sm3 2.951170 1_554
Ni0 Sm0 2.951170 1_555
Ni0 Sm2 3.006756 1_655
Ni0 Sm1 3.006756 1_655
Ni0 Sm1 3.243465 1_545
Ni0 Sm2 3.243465 1_545
Ni1 Ni2 2.810339 1_445
Ni1 Ni3 2.810339 1_444
Ni1 Sm3 2.950121 1_554
Ni1 Sm0 2.950121 1_555
Ni1 Sm1 3.007186 1_555
Ni1 Sm2 3.007186 1_555
Ni1 Sm1 3.243703 1_545
Ni1 Sm2 3.243703 1_545
Ni2 Sm0 3.097418 1_555
Ni2 Sm0 3.147222 1_565
Ni2 Sm0 3.147555 1_665
Ni2 Sm1 3.177829 1_665
Ni2 Sm1 3.207212 1_555
Ni2 Sm1 3.209989 1_655
Ni3 Sm3 3.097418 1_555
Ni3 Sm3 3.147222 1_565
Ni3 Sm3 3.147555 1_665
Ni3 Sm2 3.177829 1_666
Ni3 Sm2 3.207212 1_556
Ni3 Sm2 3.209989 1_656
