# generated using pymatgen
data_EuAgSn
_symmetry_space_group_name_H-M   'P 1'
_cell_length_a   6.15111872
_cell_length_b   6.15111872
_cell_length_c   7.80644781
_cell_angle_alpha   51.63506934
_cell_angle_beta   51.63506934
_cell_angle_gamma   46.24904368
_symmetry_Int_Tables_number   1
_chemical_formula_structural   EuAgSn
_chemical_formula_sum   'Eu2 Ag2 Sn2'
_cell_volume   157.44081987
_cell_formula_units_Z   2
loop_
 _symmetry_equiv_pos_site_id
 _symmetry_equiv_pos_as_xyz
  1  'x, y, z'
loop_
 _atom_site_type_symbol
 _atom_site_label
 _atom_site_symmetry_multiplicity
 _atom_site_fract_x
 _atom_site_fract_y
 _atom_site_fract_z
 _atom_site_occupancy
  Eu  Eu0  1  0.53934524  0.53934524  0.70310315  1
  Eu  Eu1  1  0.46065476  0.46065476  0.29689685  1
  Ag  Ag0  1  0.16331467  0.16331467  0.28747398  1
  Ag  Ag1  1  0.83668533  0.83668533  0.71252602  1
  Sn  Sn0  1  0.83467454  0.83467454  0.11298592  1
  Sn  Sn1  1  0.16532546  0.16532546  0.88701408  1
loop_
_geom_bond_atom_site_label_1
_geom_bond_atom_site_label_2
_geom_bond_distance
_geom_bond_site_symmetry_2
Eu0 Sn0 3.381578 1_456
Eu0 Sn0 3.381578 1_546
Eu0 Sn0 3.407294 1_555
Eu0 Sn1 3.430338 1_555
Eu0 Sn1 3.562384 1_655
Eu0 Sn1 3.562384 1_565
Eu1 Sn1 3.381578 1_564
Eu1 Sn1 3.381578 1_654
Eu1 Sn1 3.407294 1_555
Eu1 Sn0 3.430338 1_555
Eu1 Sn0 3.562384 1_455
Eu1 Sn0 3.562384 1_545
Ag0 Sn0 2.808082 1_455
Ag0 Sn0 2.808082 1_545
Ag0 Ag1 2.848721 1_445
Ag0 Sn1 3.110861 1_554
Ag0 Eu1 3.297074 1_455
Ag0 Eu1 3.297074 1_545
Ag0 Eu1 3.414121 1_555
Ag0 Eu0 3.491099 1_455
Ag0 Eu0 3.491099 1_545
Ag0 Eu0 3.565628 1_554
Ag1 Sn1 2.808082 1_565
Ag1 Sn1 2.808082 1_655
Ag1 Sn0 3.110861 1_556
Ag1 Eu0 3.297074 1_565
Ag1 Eu0 3.297074 1_655
Ag1 Eu0 3.414121 1_555
Ag1 Eu1 3.491099 1_565
Ag1 Eu1 3.491099 1_655
Ag1 Eu1 3.565628 1_556
Sn0 Sn1 2.863370 1_664
