# generated using pymatgen
data_SmCuSi
_symmetry_space_group_name_H-M   'P 1'
_cell_length_a   4.09804245
_cell_length_b   4.09804245
_cell_length_c   4.08900600
_cell_angle_alpha   90.00000000
_cell_angle_beta   90.00000000
_cell_angle_gamma   120.00000730
_symmetry_Int_Tables_number   1
_chemical_formula_structural   SmCuSi
_chemical_formula_sum   'Sm1 Cu1 Si1'
_cell_volume   59.47045395
_cell_formula_units_Z   1
loop_
 _symmetry_equiv_pos_site_id
 _symmetry_equiv_pos_as_xyz
  1  'x, y, z'
loop_
 _atom_site_type_symbol
 _atom_site_label
 _atom_site_symmetry_multiplicity
 _atom_site_fract_x
 _atom_site_fract_y
 _atom_site_fract_z
 _atom_site_occupancy
  Sm  Sm0  1  0.33333300  0.66666700  0.00000000  1
  Cu  Cu0  1  0.66666700  0.33333300  0.50000000  1
  Si  Si0  1  0.00000000  0.00000000  0.50000000  1
loop_
_geom_bond_atom_site_label_1
_geom_bond_atom_site_label_2
_geom_bond_distance
_geom_bond_site_symmetry_2
Cu0 Si0 2.366004 1_655
Cu0 Si0 2.366007 1_665
Cu0 Si0 2.366007 1_555
Cu0 Sm0 3.126974 1_546
Cu0 Sm0 3.126974 1_545
Cu0 Sm0 3.126974 1_656
Cu0 Sm0 3.126974 1_655
Cu0 Sm0 3.126979 1_556
Cu0 Sm0 3.126979 1_555
Si0 Sm0 3.126974 1_545
Si0 Sm0 3.126974 1_546
Si0 Sm0 3.126976 1_556
Si0 Sm0 3.126976 1_555
Si0 Sm0 3.126976 1_446
Si0 Sm0 3.126976 1_445
