# generated using pymatgen
data_CsRbMg6
_symmetry_space_group_name_H-M   'P 1'
_cell_length_a   8.94807290
_cell_length_b   8.94807290
_cell_length_c   5.54926900
_cell_angle_alpha   90.00000000
_cell_angle_beta   90.00000000
_cell_angle_gamma   138.28837247
_symmetry_Int_Tables_number   1
_chemical_formula_structural   CsRbMg6
_chemical_formula_sum   'Cs1 Rb1 Mg6'
_cell_volume   295.64174943
_cell_formula_units_Z   1
loop_
 _symmetry_equiv_pos_site_id
 _symmetry_equiv_pos_as_xyz
  1  'x, y, z'
loop_
 _atom_site_type_symbol
 _atom_site_label
 _atom_site_symmetry_multiplicity
 _atom_site_fract_x
 _atom_site_fract_y
 _atom_site_fract_z
 _atom_site_occupancy
  Cs  Cs0  1  0.31456400  0.68543600  0.50000000  1
  Rb  Rb0  1  0.81568800  0.18431200  0.50000000  1
  Mg  Mg0  1  0.32339700  0.17444100  0.50000000  1
  Mg  Mg1  1  0.82555900  0.67660300  0.50000000  1
  Mg  Mg2  1  0.22059200  0.27217100  0.00000000  1
  Mg  Mg3  1  0.72782900  0.77940800  0.00000000  1
  Mg  Mg4  1  0.63846600  0.36153400  0.00000000  1
  Mg  Mg5  1  0.13390800  0.86609200  0.00000000  1
loop_
_geom_bond_atom_site_label_1
_geom_bond_atom_site_label_2
_geom_bond_distance
_geom_bond_site_symmetry_2
Cs0 Rb0 3.185725 1_455
Cs0 Rb0 3.185725 1_565
Cs0 Mg5 4.101992 1_556
Cs0 Mg5 4.101992 1_555
Cs0 Mg2 4.175865 1_555
Cs0 Mg2 4.175865 1_556
Cs0 Mg3 4.175865 1_556
Cs0 Mg3 4.175865 1_555
Mg0 Mg1 3.171895 1_445
Mg0 Mg1 3.199445 1_555
Mg0 Mg2 3.242009 1_555
Mg0 Mg2 3.242009 1_556
Mg0 Mg5 3.346883 1_546
Mg0 Mg5 3.346883 1_545
Mg0 Mg4 3.376809 1_555
Mg0 Mg4 3.376809 1_556
Mg1 Mg3 3.242009 1_556
Mg1 Mg3 3.242009 1_555
Mg1 Mg5 3.346883 1_655
Mg1 Mg5 3.346883 1_656
Mg1 Mg4 3.376809 1_556
Mg1 Mg4 3.376809 1_555
Mg2 Mg5 3.097890 1_545
Mg2 Mg3 3.139561 1_445
Mg2 Mg4 3.186970 1_555
Mg2 Mg3 3.231779 1_555
Mg2 Rb0 4.146196 1_455
Mg2 Rb0 4.146196 1_454
Mg3 Mg5 3.097890 1_655
Mg3 Mg4 3.186970 1_555
Mg3 Rb0 4.146196 1_564
Mg3 Rb0 4.146196 1_565
Mg4 Mg5 3.186582 1_545
Mg4 Mg5 3.186582 1_655
Mg4 Rb0 4.059880 1_554
Mg4 Rb0 4.059880 1_555
