# generated using pymatgen
data_Sr2ErCu2(BiO4)2
_symmetry_space_group_name_H-M   'P 1'
_cell_length_a   15.46020447
_cell_length_b   15.46020447
_cell_length_c   15.46020447
_cell_angle_alpha   165.95452037
_cell_angle_beta   165.95452037
_cell_angle_gamma   19.91368840
_symmetry_Int_Tables_number   1
_chemical_formula_structural   Sr2ErCu2(BiO4)2
_chemical_formula_sum   'Sr2 Er1 Cu2 Bi2 O8'
_cell_volume   217.62392875
_cell_formula_units_Z   1
loop_
 _symmetry_equiv_pos_site_id
 _symmetry_equiv_pos_as_xyz
  1  'x, y, z'
loop_
 _atom_site_type_symbol
 _atom_site_label
 _atom_site_symmetry_multiplicity
 _atom_site_fract_x
 _atom_site_fract_y
 _atom_site_fract_z
 _atom_site_occupancy
  Sr  Sr0  1  0.11459500  0.11459500  0.00000000  1
  Sr  Sr1  1  0.88540500  0.88540500  0.00000000  1
  Er  Er0  1  0.00000000  0.00000000  0.00000000  1
  Cu  Cu0  1  0.44780400  0.44780400  0.00000000  1
  Cu  Cu1  1  0.55219600  0.55219600  0.00000000  1
  Bi  Bi0  1  0.29557300  0.29557300  0.00000000  1
  Bi  Bi1  1  0.70442700  0.70442700  0.00000000  1
  O  O0  1  0.54781200  0.04781200  0.50000000  1
  O  O1  1  0.45218800  0.95218800  0.50000000  1
  O  O2  1  0.04781200  0.54781200  0.50000000  1
  O  O3  1  0.95218800  0.45218800  0.50000000  1
  O  O4  1  0.20246100  0.20246100  0.00000000  1
  O  O5  1  0.79753900  0.79753900  0.00000000  1
  O  O6  1  0.36546800  0.36546800  0.00000000  1
  O  O7  1  0.63453200  0.63453200  0.00000000  1
loop_
_geom_bond_atom_site_label_1
_geom_bond_atom_site_label_2
_geom_bond_distance
_geom_bond_site_symmetry_2
Er0 O0 2.386030 1_454
Er0 O2 2.386030 1_555
Er0 O0 2.386030 1_555
Er0 O2 2.386030 1_544
Er0 O1 2.386030 1_444
Er0 O3 2.386030 1_444
Er0 O1 2.386030 1_545
Er0 O3 2.386030 1_455
Cu0 O3 1.894924 1_555
Cu0 O1 1.894924 1_555
Cu0 O1 1.894924 1_544
Cu0 O3 1.894924 1_454
Cu0 O6 2.507518 1_555
Cu1 O0 1.894924 1_554
Cu1 O0 1.894924 1_565
Cu1 O2 1.894924 1_554
Cu1 O2 1.894924 1_655
Cu1 O7 2.507518 1_555
Bi0 O6 2.128631 1_555
Bi0 O5 2.673838 1_556
Bi0 O5 2.673838 1_444
Bi0 O5 2.673838 1_545
Bi0 O5 2.673838 1_455
Bi0 O4 2.835697 1_555
Bi1 O7 2.128631 1_555
Bi1 O4 2.673838 1_655
Bi1 O4 2.673838 1_554
Bi1 O4 2.673838 1_565
Bi1 O4 2.673838 1_666
Bi1 O5 2.835697 1_555
O0 Sr0 2.776595 1_555
O0 Sr0 2.776595 1_656
O1 Sr1 2.776595 1_556
O1 Sr1 2.776595 1_455
O2 Sr0 2.776595 1_555
O2 Sr0 2.776595 1_566
O3 Sr1 2.776595 1_556
O3 Sr1 2.776595 1_545
O4 Sr0 2.675932 1_555
O5 Sr1 2.675932 1_555
O6 Sr1 2.741257 1_556
O6 Sr1 2.741257 1_444
O6 Sr1 2.741257 1_545
O6 Sr1 2.741257 1_455
O7 Sr0 2.741257 1_666
O7 Sr0 2.741257 1_565
O7 Sr0 2.741257 1_655
O7 Sr0 2.741257 1_554
