# generated using pymatgen
data_NaMg14Mn
_symmetry_space_group_name_H-M   'P 1'
_cell_length_a   6.40057289
_cell_length_b   6.42435675
_cell_length_c   10.23911776
_cell_angle_alpha   90.00000000
_cell_angle_beta   90.00000000
_cell_angle_gamma   120.12300261
_symmetry_Int_Tables_number   1
_chemical_formula_structural   NaMg14Mn
_chemical_formula_sum   'Na1 Mg14 Mn1'
_cell_volume   364.16821951
_cell_formula_units_Z   1
loop_
 _symmetry_equiv_pos_site_id
 _symmetry_equiv_pos_as_xyz
  1  'x, y, z'
loop_
 _atom_site_type_symbol
 _atom_site_label
 _atom_site_symmetry_multiplicity
 _atom_site_fract_x
 _atom_site_fract_y
 _atom_site_fract_z
 _atom_site_occupancy
  Na  Na0  1  0.16664213  0.83332057  0.12500000  1
  Mg  Mg0  1  0.16684896  0.33342398  0.62500000  1
  Mg  Mg1  1  0.16742495  0.83371197  0.62500000  1
  Mg  Mg2  1  0.66471599  0.33316739  0.12500000  1
  Mg  Mg3  1  0.66613551  0.33276114  0.62500000  1
  Mg  Mg4  1  0.66471599  0.83154760  0.12500000  1
  Mg  Mg5  1  0.66613551  0.83337337  0.62500000  1
  Mg  Mg6  1  0.33189555  0.17177568  0.37362846  1
  Mg  Mg7  1  0.33189555  0.17177568  0.87637154  1
  Mg  Mg8  1  0.33189555  0.66012087  0.37362846  1
  Mg  Mg9  1  0.33189555  0.66012087  0.87637154  1
  Mg  Mg10  1  0.83867772  0.16933936  0.37012762  1
  Mg  Mg11  1  0.83867772  0.16933936  0.87987238  1
  Mg  Mg12  1  0.83078463  0.66539282  0.37882432  1
  Mg  Mg13  1  0.83078463  0.66539282  0.87117568  1
  Mn  Mn0  1  0.17087404  0.33543652  0.12500000  1
loop_
_geom_bond_atom_site_label_1
_geom_bond_atom_site_label_2
_geom_bond_distance
_geom_bond_site_symmetry_2
Mg0 Mg7 3.149621 1_555
Mg0 Mg6 3.149621 1_555
Mg0 Mg9 3.149627 1_555
Mg0 Mg8 3.149627 1_555
Mg0 Mg11 3.179808 1_455
Mg0 Mg10 3.179808 1_455
Mg0 Mg5 3.197859 1_555
Mg0 Mg3 3.197859 1_555
Mg0 Mg5 3.202718 1_445
Mg0 Mg3 3.202718 1_455
Mg0 Mg1 3.212180 1_555
Mg0 Mg1 3.212180 1_545
Mg1 Mg12 3.134791 1_455
Mg1 Mg13 3.134791 1_455
Mg1 Mg9 3.186660 1_555
Mg1 Mg8 3.186660 1_555
Mg1 Mg6 3.186667 1_565
Mg1 Mg7 3.186667 1_565
Mg1 Mg3 3.193125 1_565
Mg1 Mg5 3.193126 1_555
Mg1 Mg3 3.207448 1_455
Mg1 Mg5 3.207448 1_455
Mg2 Mg6 3.142739 1_555
Mg2 Mg7 3.142739 1_554
Mg2 Mn0 3.168212 1_555
Mg2 Na0 3.193689 1_545
Mg2 Mg4 3.201772 1_555
Mg2 Na0 3.206913 1_655
Mg2 Mg4 3.222584 1_545
Mg2 Mn0 3.232410 1_655
Mg3 Mg7 3.170195 1_555
Mg3 Mg6 3.170195 1_555
Mg3 Mg5 3.208245 1_545
Mg3 Mg5 3.216112 1_555
Mg4 Mg9 3.142739 1_554
Mg4 Mg8 3.142739 1_555
Mg4 Mn0 3.168212 1_555
Mg4 Na0 3.193689 1_555
Mg4 Na0 3.206914 1_655
Mg4 Mn0 3.232410 1_665
Mg5 Mg9 3.170195 1_555
Mg5 Mg8 3.170195 1_555
Mg6 Mn0 3.120271 1_555
Mg6 Mg8 3.137304 1_555
Mg6 Na0 3.165275 1_545
Mg6 Mg8 3.287053 1_545
Mg7 Mn0 3.120271 1_556
Mg7 Mg9 3.137304 1_555
Mg7 Na0 3.165275 1_546
Mg7 Mg9 3.287053 1_545
Mg8 Mn0 3.120278 1_555
Mg8 Na0 3.165268 1_555
Mg9 Mn0 3.120278 1_556
Mg9 Na0 3.165268 1_556
Mg10 Mn0 3.111564 1_655
Mg10 Mg2 3.134218 1_555
Mg10 Mg4 3.134224 1_545
Mg10 Mg8 3.149255 1_655
Mg10 Mg6 3.149255 1_655
Mg10 Mg3 3.208740 1_555
Mg10 Mg5 3.208746 1_545
Mg10 Mg12 3.213709 1_545
Mg10 Mg12 3.213710 1_555
Mg10 Mg8 3.251777 1_545
Mg10 Mg6 3.251777 1_555
Mg11 Mn0 3.111564 1_656
Mg11 Mg2 3.134218 1_556
Mg11 Mg4 3.134224 1_546
Mg11 Mg9 3.149255 1_655
Mg11 Mg7 3.149255 1_655
Mg11 Mg3 3.208740 1_555
Mg11 Mg5 3.208746 1_545
Mg11 Mg13 3.213709 1_545
Mg11 Mg13 3.213710 1_555
Mg11 Mg9 3.251777 1_545
Mg11 Mg7 3.251777 1_555
Mg12 Mg5 3.125738 1_555
Mg12 Mg3 3.125744 1_555
Mg12 Mg6 3.176759 1_555
Mg12 Mg8 3.176759 1_555
Mg12 Mg4 3.187877 1_555
Mg12 Mg2 3.187883 1_555
Mg12 Na0 3.195578 1_655
Mg12 Mg6 3.224966 1_665
Mg12 Mg8 3.224966 1_655
Mg13 Mg5 3.125738 1_555
Mg13 Mg3 3.125744 1_555
Mg13 Mg7 3.176759 1_555
Mg13 Mg9 3.176759 1_555
Mg13 Mg4 3.187877 1_556
Mg13 Mg2 3.187883 1_556
Mg13 Na0 3.195578 1_656
Mg13 Mg7 3.224966 1_665
Mg13 Mg9 3.224966 1_655
Mn0 Na0 3.212264 1_545
Mn0 Na0 3.212264 1_555
