# generated using pymatgen
data_Y7(CuTe4)3
_symmetry_space_group_name_H-M   'P 1'
_cell_length_a   7.53534100
_cell_length_b   7.54848004
_cell_length_c   14.30550654
_cell_angle_alpha   84.67557785
_cell_angle_beta   79.69451362
_cell_angle_gamma   60.05246877
_symmetry_Int_Tables_number   1
_chemical_formula_structural   Y7(CuTe4)3
_chemical_formula_sum   'Y7 Cu3 Te12'
_cell_volume   693.67944621
_cell_formula_units_Z   1
loop_
 _symmetry_equiv_pos_site_id
 _symmetry_equiv_pos_as_xyz
  1  'x, y, z'
loop_
 _atom_site_type_symbol
 _atom_site_label
 _atom_site_symmetry_multiplicity
 _atom_site_fract_x
 _atom_site_fract_y
 _atom_site_fract_z
 _atom_site_occupancy
  Y  Y0  1  0.57758000  0.99541900  0.25409000  1
  Y  Y1  1  0.33267300  0.66717300  0.00201500  1
  Y  Y2  1  0.08845100  0.33327000  0.74816500  1
  Y  Y3  1  0.24744900  0.33815800  0.25392800  1
  Y  Y4  1  0.74877400  0.67032500  0.74810200  1
  Y  Y5  1  0.92024200  0.66548700  0.25390500  1
  Y  Y6  1  0.41531400  0.99752700  0.74785300  1
  Cu  Cu0  1  0.85887700  0.33472200  0.42786000  1
  Cu  Cu1  1  0.81055500  0.99874200  0.56915300  1
  Cu  Cu2  1  0.47552300  0.33365500  0.56939900  1
  Te  Te0  1  0.12745900  0.99758600  0.61786700  1
  Te  Te1  1  0.29250700  0.00052700  0.12497900  1
  Te  Te2  1  0.79839900  0.33819700  0.61945000  1
  Te  Te3  1  0.95781300  0.33299000  0.12527100  1
  Te  Te4  1  0.45887700  0.66718900  0.61723800  1
  Te  Te5  1  0.62541300  0.66725900  0.12496000  1
  Te  Te6  1  0.37614200  0.33348900  0.87412700  1
  Te  Te7  1  0.53626200  0.33243900  0.38021800  1
  Te  Te8  1  0.04097600  0.66509000  0.87441900  1
  Te  Te9  1  0.20729400  0.66742600  0.38060800  1
  Te  Te10  1  0.70793700  0.00038700  0.87419100  1
  Te  Te11  1  0.87285000  0.99627700  0.38010500  1
loop_
_geom_bond_atom_site_label_1
_geom_bond_atom_site_label_2
_geom_bond_distance
_geom_bond_site_symmetry_2
Y0 Y5 2.539290 1_555
Y0 Y3 2.541065 1_565
Y2 Y6 2.501068 1_545
Y2 Y4 2.554054 1_455
Y3 Y5 2.470216 1_455
Y4 Y6 2.493875 1_555
Cu0 Te7 2.647912 1_555
Cu0 Te11 2.652192 1_545
Cu0 Te2 2.697188 1_555
Cu0 Y3 3.496028 1_655
Cu0 Y5 3.496893 1_555
Cu1 Cu2 2.528038 1_565
Cu1 Te0 2.600316 1_655
Cu1 Te11 2.661020 1_555
Cu1 Te2 2.678823 1_565
Cu1 Y4 3.530418 1_555
Cu1 Y6 3.564291 1_555
Cu2 Te4 2.607015 1_555
Cu2 Te7 2.662897 1_555
Cu2 Te2 2.672893 1_555
Cu2 Y2 3.519309 1_555
Cu2 Y6 3.562789 1_545
Te0 Te4 2.496892 1_555
Te0 Te2 2.526846 1_465
Te0 Y6 3.099153 1_555
Te0 Y2 3.149348 1_565
Te1 Te5 2.514090 1_545
Te1 Te3 2.517471 1_455
Te1 Y0 3.057937 1_545
Te1 Y1 3.064043 1_545
Te1 Y3 3.130172 1_555
Te2 Te4 2.526783 1_555
Te2 Y4 3.080010 1_555
Te2 Y2 3.084637 1_655
Te3 Te5 2.516412 1_555
Te3 Y3 3.112533 1_655
Te3 Y5 3.118821 1_555
Te4 Y6 3.105624 1_555
Te4 Y4 3.130527 1_555
Te5 Y1 3.057629 1_555
Te5 Y0 3.065612 1_555
Te5 Y5 3.125780 1_555
Te6 Te8 2.516045 1_555
Te6 Y2 3.057515 1_555
Te6 Y1 3.100942 1_556
Te6 Y6 3.113457 1_545
Te7 Te9 2.505661 1_555
Te7 Y3 3.049691 1_555
Te7 Y0 3.111992 1_545
Te8 Y2 3.062281 1_555
Te8 Y4 3.072211 1_455
Te8 Y1 3.104637 1_556
Te9 Y5 3.066524 1_455
Te9 Y3 3.072810 1_555
Te10 Te6 2.509398 1_555
Te10 Te8 2.522618 1_645
Te10 Y4 3.070124 1_545
Te10 Y6 3.099941 1_545
Te11 Te9 2.504079 1_655
Te11 Te7 2.538782 1_565
Te11 Y5 3.055702 1_555
Te11 Y0 3.106749 1_555
