# generated using pymatgen
data_Mg5(Si4O15)2
_symmetry_space_group_name_H-M   'P 1'
_cell_length_a   5.28147491
_cell_length_b   13.42337507
_cell_length_c   18.47089005
_cell_angle_alpha   90.00000000
_cell_angle_beta   90.00000000
_cell_angle_gamma   90.00000000
_symmetry_Int_Tables_number   1
_chemical_formula_structural   Mg5(Si4O15)2
_chemical_formula_sum   'Mg10 Si16 O60'
_cell_volume   1309.49778857
_cell_formula_units_Z   2
loop_
 _symmetry_equiv_pos_site_id
 _symmetry_equiv_pos_as_xyz
  1  'x, y, z'
loop_
 _atom_site_type_symbol
 _atom_site_label
 _atom_site_symmetry_multiplicity
 _atom_site_fract_x
 _atom_site_fract_y
 _atom_site_fract_z
 _atom_site_occupancy
  Mg  Mg0  1  0.00000000  0.50000000  0.50000000  1
  Mg  Mg1  1  0.00000000  -0.00000000  0.00000000  1
  Mg  Mg2  1  0.50000000  0.50000000  0.60160213  1
  Mg  Mg3  1  0.50000000  0.00000000  0.89839787  1
  Mg  Mg4  1  0.50000000  0.50000000  0.39839787  1
  Mg  Mg5  1  0.50000000  -0.00000000  0.10160213  1
  Mg  Mg6  1  0.00000000  0.50000000  0.66660065  1
  Mg  Mg7  1  0.00000000  0.00000000  0.83339935  1
  Mg  Mg8  1  0.00000000  0.50000000  0.33339935  1
  Mg  Mg9  1  0.00000000  -0.00000000  0.16660065  1
  Si  Si0  1  0.82541066  0.29066292  0.58441594  1
  Si  Si1  1  0.17458934  0.70933708  0.58441594  1
  Si  Si2  1  0.82541066  0.20933708  0.91558406  1
  Si  Si3  1  0.17458934  0.79066292  0.91558406  1
  Si  Si4  1  0.17458934  0.70933708  0.41558406  1
  Si  Si5  1  0.82541066  0.29066292  0.41558406  1
  Si  Si6  1  0.17458934  0.79066292  0.08441594  1
  Si  Si7  1  0.82541066  0.20933708  0.08441594  1
  Si  Si8  1  0.31662281  0.28926870  0.66710566  1
  Si  Si9  1  0.68337719  0.71073130  0.66710566  1
  Si  Si10  1  0.31662281  0.21073130  0.83289434  1
  Si  Si11  1  0.68337719  0.78926870  0.83289434  1
  Si  Si12  1  0.68337719  0.71073130  0.33289434  1
  Si  Si13  1  0.31662281  0.28926870  0.33289434  1
  Si  Si14  1  0.68337719  0.78926870  0.16710566  1
  Si  Si15  1  0.31662281  0.21073130  0.16710566  1
  O  O0  1  0.40928384  0.45466651  0.50000000  1
  O  O1  1  0.59071616  0.54533349  0.50000000  1
  O  O2  1  0.40928384  0.04533349  0.00000000  1
  O  O3  1  0.59071616  0.95466651  0.00000000  1
  O  O4  1  0.84015447  0.41328484  0.58879943  1
  O  O5  1  0.15984553  0.58671516  0.58879943  1
  O  O6  1  0.84015447  0.08671516  0.91120057  1
  O  O7  1  0.15984553  0.91328484  0.91120057  1
  O  O8  1  0.15984553  0.58671516  0.41120057  1
  O  O9  1  0.84015447  0.41328484  0.41120057  1
  O  O10  1  0.15984553  0.91328484  0.08879943  1
  O  O11  1  0.84015447  0.08671516  0.08879943  1
  O  O12  1  0.29863663  0.41033931  0.66590366  1
  O  O13  1  0.70136337  0.58966069  0.66590366  1
  O  O14  1  0.29863663  0.08966069  0.83409634  1
  O  O15  1  0.70136337  0.91033931  0.83409634  1
  O  O16  1  0.70136337  0.58966069  0.33409634  1
  O  O17  1  0.29863663  0.41033931  0.33409634  1
  O  O18  1  0.70136337  0.91033931  0.16590366  1
  O  O19  1  0.29863663  0.08966069  0.16590366  1
  O  O20  1  0.68563152  0.46059695  0.77848708  1
  O  O21  1  0.31436848  0.53940305  0.77848708  1
  O  O22  1  0.68563152  0.03940305  0.72151292  1
  O  O23  1  0.31436848  0.96059695  0.72151292  1
  O  O24  1  0.31436848  0.53940305  0.22151292  1
  O  O25  1  0.68563152  0.46059695  0.22151292  1
  O  O26  1  0.31436848  0.96059695  0.27848708  1
  O  O27  1  0.68563152  0.03940305  0.27848708  1
  O  O28  1  0.83092195  0.25470201  0.50000000  1
  O  O29  1  0.16907805  0.74529799  0.50000000  1
  O  O30  1  0.83092195  0.24529799  0.00000000  1
  O  O31  1  0.16907805  0.75470201  0.00000000  1
  O  O32  1  0.32658047  0.25000000  0.75000000  1
  O  O33  1  0.67341953  0.75000000  0.75000000  1
  O  O34  1  0.67341953  0.75000000  0.25000000  1
  O  O35  1  0.32658047  0.25000000  0.25000000  1
  O  O36  1  0.56903900  0.25087816  0.62417557  1
  O  O37  1  0.43096100  0.74912184  0.62417557  1
  O  O38  1  0.56903900  0.24912184  0.87582443  1
  O  O39  1  0.43096100  0.75087816  0.87582443  1
  O  O40  1  0.43096100  0.74912184  0.37582443  1
  O  O41  1  0.56903900  0.25087816  0.37582443  1
  O  O42  1  0.43096100  0.75087816  0.12417557  1
  O  O43  1  0.56903900  0.24912184  0.12417557  1
  O  O44  1  0.06757593  0.24170769  0.62678653  1
  O  O45  1  0.93242407  0.75829231  0.62678653  1
  O  O46  1  0.06757593  0.25829231  0.87321347  1
  O  O47  1  0.93242407  0.74170769  0.87321347  1
  O  O48  1  0.93242407  0.75829231  0.37321347  1
  O  O49  1  0.06757593  0.24170769  0.37321347  1
  O  O50  1  0.93242407  0.74170769  0.12678653  1
  O  O51  1  0.06757593  0.25829231  0.12678653  1
  O  O52  1  0.50000000  0.50000000  0.81443053  1
  O  O53  1  0.50000000  0.00000000  0.68556947  1
  O  O54  1  0.50000000  0.50000000  0.18556947  1
  O  O55  1  0.50000000  -0.00000000  0.31443053  1
  O  O56  1  0.00000000  0.50000000  0.90202128  1
  O  O57  1  0.00000000  -0.00000000  0.59797872  1
  O  O58  1  0.00000000  0.50000000  0.09797872  1
  O  O59  1  0.00000000  0.00000000  0.40202128  1
loop_
_geom_bond_atom_site_label_1
_geom_bond_atom_site_label_2
_geom_bond_distance
_geom_bond_site_symmetry_2
Mg0 O4 2.181261 1_455
Mg0 O8 2.181261 1_555
Mg0 O5 2.181261 1_555
Mg0 O9 2.181261 1_455
Mg0 O1 2.245644 1_455
Mg0 O0 2.245644 1_555
Mg1 O11 2.181261 1_455
Mg1 O10 2.181261 1_545
Mg1 O6 2.181261 1_454
Mg1 O7 2.181261 1_544
Mg1 O3 2.245644 1_445
Mg1 O2 2.245644 1_555
Mg2 O12 1.997548 1_555
Mg2 O13 1.997548 1_555
Mg2 O1 2.030220 1_555
Mg2 O0 2.030220 1_555
Mg2 O5 2.153675 1_555
Mg2 O4 2.153675 1_555
Mg3 O15 1.997548 1_545
Mg3 O14 1.997548 1_555
Mg3 O3 2.030220 1_546
Mg3 O2 2.030220 1_556
Mg3 O6 2.153675 1_555
Mg3 O7 2.153675 1_545
Mg4 O16 1.997548 1_555
Mg4 O17 1.997548 1_555
Mg4 O0 2.030220 1_555
Mg4 O1 2.030220 1_555
Mg4 O9 2.153675 1_555
Mg4 O8 2.153675 1_555
Mg5 O18 1.997548 1_545
Mg5 O19 1.997548 1_555
Mg5 O3 2.030220 1_545
Mg5 O2 2.030220 1_555
Mg5 O10 2.153675 1_545
Mg5 O11 2.153675 1_555
Mg6 O13 1.984033 1_455
Mg6 O12 1.984033 1_555
Mg6 O4 2.032920 1_455
Mg6 O5 2.032920 1_555
Mg6 O21 2.703231 1_555
Mg6 O20 2.703231 1_455
Mg7 O15 1.984033 1_445
Mg7 O14 1.984033 1_555
Mg7 O6 2.032920 1_455
Mg7 O7 2.032920 1_545
Mg7 O22 2.703231 1_455
Mg7 O23 2.703231 1_545
Mg8 O16 1.984033 1_455
Mg8 O17 1.984033 1_555
Mg8 O8 2.032920 1_555
Mg8 O9 2.032920 1_455
Mg8 O25 2.703231 1_455
Mg8 O24 2.703231 1_555
Mg9 O18 1.984033 1_445
Mg9 O19 1.984033 1_555
Mg9 O11 2.032920 1_455
Mg9 O10 2.032920 1_545
Mg9 O26 2.703231 1_545
Mg9 O27 2.703231 1_455
O0 O1 1.549010 1_555
O2 O3 1.549010 1_545
O4 Si0 1.649829 1_555
O5 Si1 1.649829 1_555
O6 Si2 1.649829 1_555
O7 Si3 1.649829 1_555
O8 Si4 1.649829 1_555
O9 Si5 1.649829 1_555
O10 Si6 1.649829 1_555
O11 Si7 1.649829 1_555
O12 Si8 1.628101 1_555
O13 Si9 1.628101 1_555
O14 Si10 1.628101 1_555
O15 Si11 1.628101 1_555
O16 Si12 1.628101 1_555
O17 Si13 1.628101 1_555
O18 Si14 1.628101 1_555
O19 Si15 1.628101 1_555
O20 O52 1.296816 1_555
O21 O52 1.296816 1_555
O22 O53 1.296816 1_555
O23 O53 1.296816 1_565
O24 O54 1.296816 1_555
O25 O54 1.296816 1_555
O26 O55 1.296816 1_565
O27 O55 1.296816 1_555
O28 Si0 1.632509 1_555
O28 Si5 1.632509 1_555
O29 Si1 1.632509 1_555
O29 Si4 1.632509 1_555
O30 Si2 1.632509 1_554
O30 Si7 1.632509 1_555
O31 Si3 1.632509 1_554
O31 Si6 1.632509 1_555
O32 Si10 1.620181 1_555
O32 Si8 1.620181 1_555
O33 Si9 1.620181 1_555
O33 Si11 1.620181 1_555
O34 Si12 1.620181 1_555
O34 Si14 1.620181 1_555
O35 Si13 1.620181 1_555
O35 Si15 1.620181 1_555
O36 Si0 1.630311 1_555
O36 Si8 1.634497 1_555
O37 Si1 1.630311 1_555
O37 Si9 1.634497 1_555
O38 Si2 1.630311 1_555
O38 Si10 1.634497 1_555
O39 Si3 1.630311 1_555
O39 Si11 1.634497 1_555
O40 Si4 1.630311 1_555
O40 Si12 1.634497 1_555
O41 Si5 1.630311 1_555
O41 Si13 1.634497 1_555
O42 Si6 1.630311 1_555
O42 Si14 1.634497 1_555
O43 Si7 1.630311 1_555
O43 Si15 1.634497 1_555
O44 Si0 1.637117 1_455
O44 Si8 1.640829 1_555
O45 Si1 1.637117 1_655
O45 Si9 1.640829 1_555
O46 Si2 1.637117 1_455
O46 Si10 1.640829 1_555
O47 Si3 1.637117 1_655
O47 Si11 1.640829 1_555
O48 Si4 1.637117 1_655
O48 Si12 1.640829 1_555
O49 Si5 1.637117 1_455
O49 Si13 1.640829 1_555
O50 Si6 1.637117 1_655
O50 Si14 1.640829 1_555
O51 Si7 1.637117 1_455
O51 Si15 1.640829 1_555
