# generated using pymatgen
data_CrB6P2(H17C3)2
_symmetry_space_group_name_H-M   'P 1'
_cell_length_a   14.60560709
_cell_length_b   17.14419249
_cell_length_c   17.44504702
_cell_angle_alpha   90.00000000
_cell_angle_beta   90.00000000
_cell_angle_gamma   90.00000000
_symmetry_Int_Tables_number   1
_chemical_formula_structural   CrB6P2(H17C3)2
_chemical_formula_sum   'Cr8 B48 P16 H272 C48'
_cell_volume   4368.26313943
_cell_formula_units_Z   8
loop_
 _symmetry_equiv_pos_site_id
 _symmetry_equiv_pos_as_xyz
  1  'x, y, z'
loop_
 _atom_site_type_symbol
 _atom_site_label
 _atom_site_symmetry_multiplicity
 _atom_site_fract_x
 _atom_site_fract_y
 _atom_site_fract_z
 _atom_site_occupancy
  Cr  Cr0  1  0.66491844  0.32646800  0.89394916  1
  Cr  Cr1  1  0.83508156  0.82646800  0.10605084  1
  Cr  Cr2  1  0.16491844  0.67353200  0.60605084  1
  Cr  Cr3  1  0.33508156  0.17353200  0.39394916  1
  Cr  Cr4  1  0.33508156  0.67353200  0.10605084  1
  Cr  Cr5  1  0.16491844  0.17353200  0.89394916  1
  Cr  Cr6  1  0.83508156  0.32646800  0.39394916  1
  Cr  Cr7  1  0.66491844  0.82646800  0.60605084  1
  B  B0  1  0.62669847  0.36127759  0.75590820  1
  B  B1  1  0.87330153  0.86127759  0.24409180  1
  B  B2  1  0.12669847  0.63872241  0.74409180  1
  B  B3  1  0.37330153  0.13872241  0.25590820  1
  B  B4  1  0.37330153  0.63872241  0.24409180  1
  B  B5  1  0.12669847  0.13872241  0.75590820  1
  B  B6  1  0.87330153  0.36127759  0.25590820  1
  B  B7  1  0.62669847  0.86127759  0.74409180  1
  B  B8  1  0.54105220  0.40829414  0.81152903  1
  B  B9  1  0.95894780  0.90829414  0.18847097  1
  B  B10  1  0.04105220  0.59170586  0.68847097  1
  B  B11  1  0.45894780  0.09170586  0.31152903  1
  B  B12  1  0.45894780  0.59170586  0.18847097  1
  B  B13  1  0.04105220  0.09170586  0.81152903  1
  B  B14  1  0.95894780  0.40829414  0.31152903  1
  B  B15  1  0.54105220  0.90829414  0.68847097  1
  B  B16  1  0.50771792  0.34332894  0.73607448  1
  B  B17  1  0.99228208  0.84332894  0.26392552  1
  B  B18  1  0.00771792  0.65667106  0.76392552  1
  B  B19  1  0.49228208  0.15667106  0.23607448  1
  B  B20  1  0.49228208  0.65667106  0.26392552  1
  B  B21  1  0.00771792  0.15667106  0.73607448  1
  B  B22  1  0.99228208  0.34332894  0.23607448  1
  B  B23  1  0.50771792  0.84332894  0.76392552  1
  B  B24  1  0.62986193  0.18394469  0.90312590  1
  B  B25  1  0.87013807  0.68394469  0.09687410  1
  B  B26  1  0.12986193  0.81605531  0.59687410  1
  B  B27  1  0.37013807  0.31605531  0.40312590  1
  B  B28  1  0.37013807  0.81605531  0.09687410  1
  B  B29  1  0.12986193  0.31605531  0.90312590  1
  B  B30  1  0.87013807  0.18394469  0.40312590  1
  B  B31  1  0.62986193  0.68394469  0.59687410  1
  B  B32  1  0.75103019  0.18981024  0.90048523  1
  B  B33  1  0.74896981  0.68981024  0.09951477  1
  B  B34  1  0.25103019  0.81018976  0.59951477  1
  B  B35  1  0.24896981  0.31018976  0.40048523  1
  B  B36  1  0.24896981  0.81018976  0.09951477  1
  B  B37  1  0.25103019  0.31018976  0.90048523  1
  B  B38  1  0.74896981  0.18981024  0.40048523  1
  B  B39  1  0.75103019  0.68981024  0.59951477  1
  B  B40  1  0.69252269  0.13096189  0.83101724  1
  B  B41  1  0.80747731  0.63096189  0.16898276  1
  B  B42  1  0.19252269  0.86903811  0.66898276  1
  B  B43  1  0.30747731  0.36903811  0.33101724  1
  B  B44  1  0.30747731  0.86903811  0.16898276  1
  B  B45  1  0.19252269  0.36903811  0.83101724  1
  B  B46  1  0.80747731  0.13096189  0.33101724  1
  B  B47  1  0.69252269  0.63096189  0.66898276  1
  P  P0  1  0.78546919  0.42868507  0.89605728  1
  P  P1  1  0.71453081  0.92868507  0.10394272  1
  P  P2  1  0.28546919  0.57131493  0.60394272  1
  P  P3  1  0.21453081  0.07131493  0.39605728  1
  P  P4  1  0.21453081  0.57131493  0.10394272  1
  P  P5  1  0.28546919  0.07131493  0.89605728  1
  P  P6  1  0.71453081  0.42868507  0.39605728  1
  P  P7  1  0.78546919  0.92868507  0.60394272  1
  P  P8  1  0.62041197  0.33886042  0.02931850  1
  P  P9  1  0.87958803  0.83886042  0.97068150  1
  P  P10  1  0.12041197  0.66113958  0.47068150  1
  P  P11  1  0.37958803  0.16113958  0.52931850  1
  P  P12  1  0.37958803  0.66113958  0.97068150  1
  P  P13  1  0.12041197  0.16113958  0.02931850  1
  P  P14  1  0.87958803  0.33886042  0.52931850  1
  P  P15  1  0.62041197  0.83886042  0.47068150  1
  H  H0  1  0.67478720  0.31090123  0.78885490  1
  H  H1  1  0.82521280  0.81090123  0.21114510  1
  H  H2  1  0.17478720  0.68909877  0.71114510  1
  H  H3  1  0.32521280  0.18909877  0.28885490  1
  H  H4  1  0.32521280  0.68909877  0.21114510  1
  H  H5  1  0.17478720  0.18909877  0.78885490  1
  H  H6  1  0.82521280  0.31090123  0.28885490  1
  H  H7  1  0.67478720  0.81090123  0.71114510  1
  H  H8  1  0.67330470  0.40686961  0.72091122  1
  H  H9  1  0.82669530  0.90686961  0.27908878  1
  H  H10  1  0.17330470  0.59313039  0.77908878  1
  H  H11  1  0.32669530  0.09313039  0.22091122  1
  H  H12  1  0.32669530  0.59313039  0.27908878  1
  H  H13  1  0.17330470  0.09313039  0.72091122  1
  H  H14  1  0.82669530  0.40686961  0.22091122  1
  H  H15  1  0.67330470  0.90686961  0.77908878  1
  H  H16  1  0.59600596  0.31472504  0.70579973  1
  H  H17  1  0.90399404  0.81472504  0.29420027  1
  H  H18  1  0.09600596  0.68527496  0.79420027  1
  H  H19  1  0.40399404  0.18527496  0.20579973  1
  H  H20  1  0.40399404  0.68527496  0.29420027  1
  H  H21  1  0.09600596  0.18527496  0.70579973  1
  H  H22  1  0.90399404  0.31472504  0.20579973  1
  H  H23  1  0.59600596  0.81472504  0.79420027  1
  H  H24  1  0.53795677  0.38595611  0.87869700  1
  H  H25  1  0.96204323  0.88595611  0.12130300  1
  H  H26  1  0.03795677  0.61404389  0.62130300  1
  H  H27  1  0.46204323  0.11404389  0.37869700  1
  H  H28  1  0.46204323  0.61404389  0.12130300  1
  H  H29  1  0.03795677  0.11404389  0.87869700  1
  H  H30  1  0.96204323  0.38595611  0.37869700  1
  H  H31  1  0.53795677  0.88595611  0.62130300  1
  H  H32  1  0.54338608  0.47806962  0.80334056  1
  H  H33  1  0.95661392  0.97806962  0.19665944  1
  H  H34  1  0.04338608  0.52193038  0.69665944  1
  H  H35  1  0.45661392  0.02193038  0.30334056  1
  H  H36  1  0.45661392  0.52193038  0.19665944  1
  H  H37  1  0.04338608  0.02193038  0.80334056  1
  H  H38  1  0.95661392  0.47806962  0.30334056  1
  H  H39  1  0.54338608  0.97806962  0.69665944  1
  H  H40  1  0.46001599  0.38960879  0.79142721  1
  H  H41  1  0.03998401  0.88960879  0.20857279  1
  H  H42  1  0.96001599  0.61039121  0.70857279  1
  H  H43  1  0.53998401  0.11039121  0.29142721  1
  H  H44  1  0.53998401  0.61039121  0.20857279  1
  H  H45  1  0.96001599  0.11039121  0.79142721  1
  H  H46  1  0.03998401  0.38960879  0.29142721  1
  H  H47  1  0.46001599  0.88960879  0.70857279  1
  H  H48  1  0.47617188  0.28057389  0.75277229  1
  H  H49  1  0.02382812  0.78057389  0.24722771  1
  H  H50  1  0.97617188  0.71942611  0.74722771  1
  H  H51  1  0.52382812  0.21942611  0.25277229  1
  H  H52  1  0.52382812  0.71942611  0.24722771  1
  H  H53  1  0.97617188  0.21942611  0.75277229  1
  H  H54  1  0.02382812  0.28057389  0.25277229  1
  H  H55  1  0.47617188  0.78057389  0.74722771  1
  H  H56  1  0.47868639  0.37202514  0.67767662  1
  H  H57  1  0.02131361  0.87202514  0.32232338  1
  H  H58  1  0.97868639  0.62797486  0.82232338  1
  H  H59  1  0.52131361  0.12797486  0.17767662  1
  H  H60  1  0.52131361  0.62797486  0.32232338  1
  H  H61  1  0.97868639  0.12797486  0.67767662  1
  H  H62  1  0.02131361  0.37202514  0.17767662  1
  H  H63  1  0.47868639  0.87202514  0.82232338  1
  H  H64  1  0.58490568  0.24338612  0.88414284  1
  H  H65  1  0.91509432  0.74338612  0.11585716  1
  H  H66  1  0.08490568  0.75661388  0.61585716  1
  H  H67  1  0.41509432  0.25661388  0.38414284  1
  H  H68  1  0.41509432  0.75661388  0.11585716  1
  H  H69  1  0.08490568  0.25661388  0.88414284  1
  H  H70  1  0.91509432  0.24338612  0.38414284  1
  H  H71  1  0.58490568  0.74338612  0.61585716  1
  H  H72  1  0.60204614  0.15668797  0.96235180  1
  H  H73  1  0.89795386  0.65668797  0.03764820  1
  H  H74  1  0.10204614  0.84331203  0.53764820  1
  H  H75  1  0.39795386  0.34331203  0.46235180  1
  H  H76  1  0.39795386  0.84331203  0.03764820  1
  H  H77  1  0.10204614  0.34331203  0.96235180  1
  H  H78  1  0.89795386  0.15668797  0.46235180  1
  H  H79  1  0.60204614  0.65668797  0.53764820  1
  H  H80  1  0.59550481  0.14102089  0.85176729  1
  H  H81  1  0.90449519  0.64102089  0.14823271  1
  H  H82  1  0.09550481  0.85897911  0.64823271  1
  H  H83  1  0.40449519  0.35897911  0.35176729  1
  H  H84  1  0.40449519  0.85897911  0.14823271  1
  H  H85  1  0.09550481  0.35897911  0.85176729  1
  H  H86  1  0.90449519  0.14102089  0.35176729  1
  H  H87  1  0.59550481  0.64102089  0.64823271  1
  H  H88  1  0.78128899  0.25431560  0.88210341  1
  H  H89  1  0.71871101  0.75431560  0.11789659  1
  H  H90  1  0.28128899  0.74568440  0.61789659  1
  H  H91  1  0.21871101  0.24568440  0.38210341  1
  H  H92  1  0.21871101  0.74568440  0.11789659  1
  H  H93  1  0.28128899  0.24568440  0.88210341  1
  H  H94  1  0.71871101  0.25431560  0.38210341  1
  H  H95  1  0.78128899  0.75431560  0.61789659  1
  H  H96  1  0.78579478  0.16287639  0.95730457  1
  H  H97  1  0.71420522  0.66287639  0.04269543  1
  H  H98  1  0.28579478  0.83712361  0.54269543  1
  H  H99  1  0.21420522  0.33712361  0.45730457  1
  H  H100  1  0.21420522  0.83712361  0.04269543  1
  H  H101  1  0.28579478  0.33712361  0.95730457  1
  H  H102  1  0.71420522  0.16287639  0.45730457  1
  H  H103  1  0.78579478  0.66287639  0.54269543  1
  H  H104  1  0.78565319  0.14956558  0.84618716  1
  H  H105  1  0.71434681  0.64956558  0.15381284  1
  H  H106  1  0.28565319  0.85043442  0.65381284  1
  H  H107  1  0.21434681  0.35043442  0.34618716  1
  H  H108  1  0.21434681  0.85043442  0.15381284  1
  H  H109  1  0.28565319  0.35043442  0.84618716  1
  H  H110  1  0.71434681  0.14956558  0.34618716  1
  H  H111  1  0.78565319  0.64956558  0.65381284  1
  H  H112  1  0.69534060  0.06104988  0.83861689  1
  H  H113  1  0.80465940  0.56104988  0.16138311  1
  H  H114  1  0.19534060  0.93895012  0.66138311  1
  H  H115  1  0.30465940  0.43895012  0.33861689  1
  H  H116  1  0.30465940  0.93895012  0.16138311  1
  H  H117  1  0.19534060  0.43895012  0.83861689  1
  H  H118  1  0.80465940  0.06104988  0.33861689  1
  H  H119  1  0.69534060  0.56104988  0.66138311  1
  H  H120  1  0.68730875  0.15465859  0.76618171  1
  H  H121  1  0.81269125  0.65465859  0.23381829  1
  H  H122  1  0.18730875  0.84534141  0.73381829  1
  H  H123  1  0.31269125  0.34534141  0.26618171  1
  H  H124  1  0.31269125  0.84534141  0.23381829  1
  H  H125  1  0.18730875  0.34534141  0.76618171  1
  H  H126  1  0.81269125  0.15465859  0.26618171  1
  H  H127  1  0.68730875  0.65465859  0.73381829  1
  H  H128  1  0.91908588  0.46483324  0.82287853  1
  H  H129  1  0.58091412  0.96483324  0.17712147  1
  H  H130  1  0.41908588  0.53516676  0.67712147  1
  H  H131  1  0.08091412  0.03516676  0.32287853  1
  H  H132  1  0.08091412  0.53516676  0.17712147  1
  H  H133  1  0.41908588  0.03516676  0.82287853  1
  H  H134  1  0.58091412  0.46483324  0.32287853  1
  H  H135  1  0.91908588  0.96483324  0.67712147  1
  H  H136  1  0.89668655  0.36242785  0.81458599  1
  H  H137  1  0.60331345  0.86242785  0.18541401  1
  H  H138  1  0.39668655  0.63757215  0.68541401  1
  H  H139  1  0.10331345  0.13757215  0.31458599  1
  H  H140  1  0.10331345  0.63757215  0.18541401  1
  H  H141  1  0.39668655  0.13757215  0.81458599  1
  H  H142  1  0.60331345  0.36242785  0.31458599  1
  H  H143  1  0.89668655  0.86242785  0.68541401  1
  H  H144  1  0.82913696  0.43103244  0.76166749  1
  H  H145  1  0.67086304  0.93103244  0.23833251  1
  H  H146  1  0.32913696  0.56896756  0.73833251  1
  H  H147  1  0.17086304  0.06896756  0.26166749  1
  H  H148  1  0.17086304  0.56896756  0.23833251  1
  H  H149  1  0.32913696  0.06896756  0.76166749  1
  H  H150  1  0.67086304  0.43103244  0.26166749  1
  H  H151  1  0.82913696  0.93103244  0.73833251  1
  H  H152  1  0.81322780  0.56691785  0.88669942  1
  H  H153  1  0.68677220  0.06691785  0.11330058  1
  H  H154  1  0.31322780  0.43308215  0.61330058  1
  H  H155  1  0.18677220  0.93308215  0.38669942  1
  H  H156  1  0.18677220  0.43308215  0.11330058  1
  H  H157  1  0.31322780  0.93308215  0.88669942  1
  H  H158  1  0.68677220  0.56691785  0.38669942  1
  H  H159  1  0.81322780  0.06691785  0.61330058  1
  H  H160  1  0.70899695  0.54063183  0.83921922  1
  H  H161  1  0.79100305  0.04063183  0.16078078  1
  H  H162  1  0.20899695  0.45936817  0.66078078  1
  H  H163  1  0.29100305  0.95936817  0.33921922  1
  H  H164  1  0.29100305  0.45936817  0.16078078  1
  H  H165  1  0.20899695  0.95936817  0.83921922  1
  H  H166  1  0.79100305  0.54063183  0.33921922  1
  H  H167  1  0.70899695  0.04063183  0.66078078  1
  H  H168  1  0.71262256  0.54775798  0.94169693  1
  H  H169  1  0.78737744  0.04775798  0.05830307  1
  H  H170  1  0.21262256  0.45224202  0.55830307  1
  H  H171  1  0.28737744  0.95224202  0.44169693  1
  H  H172  1  0.28737744  0.45224202  0.05830307  1
  H  H173  1  0.21262256  0.95224202  0.94169693  1
  H  H174  1  0.78737744  0.54775798  0.44169693  1
  H  H175  1  0.71262256  0.04775798  0.55830307  1
  H  H176  1  0.92077505  0.47132622  0.96310884  1
  H  H177  1  0.57922495  0.97132622  0.03689116  1
  H  H178  1  0.42077505  0.52867378  0.53689116  1
  H  H179  1  0.07922495  0.02867378  0.46310884  1
  H  H180  1  0.07922495  0.52867378  0.03689116  1
  H  H181  1  0.42077505  0.02867378  0.96310884  1
  H  H182  1  0.57922495  0.47132622  0.46310884  1
  H  H183  1  0.92077505  0.97132622  0.53689116  1
  H  H184  1  0.83196504  0.44946264  0.02971207  1
  H  H185  1  0.66803496  0.94946264  0.97028793  1
  H  H186  1  0.33196504  0.55053736  0.47028793  1
  H  H187  1  0.16803496  0.05053736  0.52971207  1
  H  H188  1  0.16803496  0.55053736  0.97028793  1
  H  H189  1  0.33196504  0.05053736  0.02971207  1
  H  H190  1  0.66803496  0.44946264  0.52971207  1
  H  H191  1  0.83196504  0.94946264  0.47028793  1
  H  H192  1  0.89520464  0.37203660  0.98580372  1
  H  H193  1  0.60479536  0.87203660  0.01419628  1
  H  H194  1  0.39520464  0.62796340  0.51419628  1
  H  H195  1  0.10479536  0.12796340  0.48580372  1
  H  H196  1  0.10479536  0.62796340  0.01419628  1
  H  H197  1  0.39520464  0.12796340  0.98580372  1
  H  H198  1  0.60479536  0.37203660  0.48580372  1
  H  H199  1  0.89520464  0.87203660  0.51419628  1
  H  H200  1  0.58385898  0.43494993  0.12608468  1
  H  H201  1  0.91614102  0.93494993  0.87391532  1
  H  H202  1  0.08385898  0.56505007  0.37391532  1
  H  H203  1  0.41614102  0.06505007  0.62608468  1
  H  H204  1  0.41614102  0.56505007  0.87391532  1
  H  H205  1  0.08385898  0.06505007  0.12608468  1
  H  H206  1  0.91614102  0.43494993  0.62608468  1
  H  H207  1  0.58385898  0.93494993  0.37391532  1
  H  H208  1  0.68749530  0.45962754  0.07793320  1
  H  H209  1  0.81250470  0.95962754  0.92206680  1
  H  H210  1  0.18749530  0.54037246  0.42206680  1
  H  H211  1  0.31250470  0.04037246  0.57793320  1
  H  H212  1  0.31250470  0.54037246  0.92206680  1
  H  H213  1  0.18749530  0.04037246  0.07793320  1
  H  H214  1  0.81250470  0.45962754  0.57793320  1
  H  H215  1  0.68749530  0.95962754  0.42206680  1
  H  H216  1  0.57997740  0.47685233  0.03245295  1
  H  H217  1  0.92002260  0.97685233  0.96754705  1
  H  H218  1  0.07997740  0.52314767  0.46754705  1
  H  H219  1  0.42002260  0.02314767  0.53245295  1
  H  H220  1  0.42002260  0.52314767  0.96754705  1
  H  H221  1  0.07997740  0.02314767  0.03245295  1
  H  H222  1  0.92002260  0.47685233  0.53245295  1
  H  H223  1  0.57997740  0.97685233  0.46754705  1
  H  H224  1  0.48802975  0.31978229  0.10960722  1
  H  H225  1  0.01197025  0.81978229  0.89039278  1
  H  H226  1  0.98802975  0.68021771  0.39039278  1
  H  H227  1  0.51197025  0.18021771  0.60960722  1
  H  H228  1  0.51197025  0.68021771  0.89039278  1
  H  H229  1  0.98802975  0.18021771  0.10960722  1
  H  H230  1  0.01197025  0.31978229  0.60960722  1
  H  H231  1  0.48802975  0.81978229  0.39039278  1
  H  H232  1  0.45431856  0.33487934  0.01176747  1
  H  H233  1  0.04568144  0.83487934  0.98823253  1
  H  H234  1  0.95431856  0.66512066  0.48823253  1
  H  H235  1  0.54568144  0.16512066  0.51176747  1
  H  H236  1  0.54568144  0.66512066  0.98823253  1
  H  H237  1  0.95431856  0.16512066  0.01176747  1
  H  H238  1  0.04568144  0.33487934  0.51176747  1
  H  H239  1  0.45431856  0.83487934  0.48823253  1
  H  H240  1  0.49885083  0.24267529  0.04114217  1
  H  H241  1  0.00114917  0.74267529  0.95885783  1
  H  H242  1  0.99885083  0.75732471  0.45885783  1
  H  H243  1  0.50114917  0.25732471  0.54114217  1
  H  H244  1  0.50114917  0.75732471  0.95885783  1
  H  H245  1  0.99885083  0.25732471  0.04114217  1
  H  H246  1  0.00114917  0.24267529  0.54114217  1
  H  H247  1  0.49885083  0.74267529  0.45885783  1
  H  H248  1  0.65751540  0.29280748  0.15687077  1
  H  H249  1  0.84248460  0.79280748  0.84312923  1
  H  H250  1  0.15751540  0.70719252  0.34312923  1
  H  H251  1  0.34248460  0.20719252  0.65687077  1
  H  H252  1  0.34248460  0.70719252  0.84312923  1
  H  H253  1  0.15751540  0.20719252  0.15687077  1
  H  H254  1  0.84248460  0.29280748  0.65687077  1
  H  H255  1  0.65751540  0.79280748  0.34312923  1
  H  H256  1  0.68839725  0.22302452  0.08481221  1
  H  H257  1  0.81160275  0.72302452  0.91518779  1
  H  H258  1  0.18839725  0.77697548  0.41518779  1
  H  H259  1  0.31160275  0.27697548  0.58481221  1
  H  H260  1  0.31160275  0.77697548  0.91518779  1
  H  H261  1  0.18839725  0.27697548  0.08481221  1
  H  H262  1  0.81160275  0.22302452  0.58481221  1
  H  H263  1  0.68839725  0.72302452  0.41518779  1
  H  H264  1  0.75826684  0.30684051  0.10049178  1
  H  H265  1  0.74173316  0.80684051  0.89950822  1
  H  H266  1  0.25826684  0.69315949  0.39950822  1
  H  H267  1  0.24173316  0.19315949  0.60049178  1
  H  H268  1  0.24173316  0.69315949  0.89950822  1
  H  H269  1  0.25826684  0.19315949  0.10049178  1
  H  H270  1  0.74173316  0.30684051  0.60049178  1
  H  H271  1  0.75826684  0.80684051  0.39950822  1
  C  C0  1  0.86555291  0.42063351  0.81571466  1
  C  C1  1  0.63444709  0.92063351  0.18428534  1
  C  C2  1  0.36555291  0.57936649  0.68428534  1
  C  C3  1  0.13444709  0.07936649  0.31571466  1
  C  C4  1  0.13444709  0.57936649  0.18428534  1
  C  C5  1  0.36555291  0.07936649  0.81571466  1
  C  C6  1  0.63444709  0.42063351  0.31571466  1
  C  C7  1  0.86555291  0.92063351  0.68428534  1
  C  C8  1  0.75130849  0.53102923  0.89031644  1
  C  C9  1  0.74869151  0.03102923  0.10968356  1
  C  C10  1  0.25130849  0.46897077  0.60968356  1
  C  C11  1  0.24869151  0.96897077  0.39031644  1
  C  C12  1  0.24869151  0.46897077  0.10968356  1
  C  C13  1  0.25130849  0.96897077  0.89031644  1
  C  C14  1  0.74869151  0.53102923  0.39031644  1
  C  C15  1  0.75130849  0.03102923  0.60968356  1
  C  C16  1  0.86563437  0.43010147  0.97696428  1
  C  C17  1  0.63436563  0.93010147  0.02303572  1
  C  C18  1  0.36563437  0.56989853  0.52303572  1
  C  C19  1  0.13436563  0.06989853  0.47696428  1
  C  C20  1  0.13436563  0.56989853  0.02303572  1
  C  C21  1  0.36563437  0.06989853  0.97696428  1
  C  C22  1  0.63436563  0.43010147  0.47696428  1
  C  C23  1  0.86563437  0.93010147  0.52303572  1
  C  C24  1  0.61795276  0.43709138  0.07015490  1
  C  C25  1  0.88204724  0.93709138  0.92984510  1
  C  C26  1  0.11795276  0.56290862  0.42984510  1
  C  C27  1  0.38204724  0.06290862  0.57015490  1
  C  C28  1  0.38204724  0.56290862  0.92984510  1
  C  C29  1  0.11795276  0.06290862  0.07015490  1
  C  C30  1  0.88204724  0.43709138  0.57015490  1
  C  C31  1  0.61795276  0.93709138  0.42984510  1
  C  C32  1  0.50364824  0.30578974  0.04955680  1
  C  C33  1  0.99635176  0.80578974  0.95044320  1
  C  C34  1  0.00364824  0.69421026  0.45044320  1
  C  C35  1  0.49635176  0.19421026  0.54955680  1
  C  C36  1  0.49635176  0.69421026  0.95044320  1
  C  C37  1  0.00364824  0.19421026  0.04955680  1
  C  C38  1  0.99635176  0.30578974  0.54955680  1
  C  C39  1  0.50364824  0.80578974  0.45044320  1
  C  C40  1  0.68786495  0.28498432  0.09971727  1
  C  C41  1  0.81213505  0.78498432  0.90028273  1
  C  C42  1  0.18786495  0.71501568  0.40028273  1
  C  C43  1  0.31213505  0.21501568  0.59971727  1
  C  C44  1  0.31213505  0.71501568  0.90028273  1
  C  C45  1  0.18786495  0.21501568  0.09971727  1
  C  C46  1  0.81213505  0.28498432  0.59971727  1
  C  C47  1  0.68786495  0.78498432  0.40028273  1
loop_
_geom_bond_atom_site_label_1
_geom_bond_atom_site_label_2
_geom_bond_distance
_geom_bond_site_symmetry_2
Cr0 H64 1.850353 1_555
Cr0 H0 1.858296 1_555
Cr0 H88 2.112277 1_555
Cr0 H24 2.132971 1_555
Cr0 P8 2.458555 1_556
Cr0 P0 2.484448 1_555
Cr1 H65 1.850353 1_555
Cr1 H1 1.858296 1_555
Cr1 H89 2.112277 1_555
Cr1 H25 2.132971 1_555
Cr1 P9 2.458555 1_554
Cr1 P1 2.484448 1_555
Cr2 H66 1.850353 1_555
Cr2 H2 1.858296 1_555
Cr2 H90 2.112277 1_555
Cr2 H26 2.132971 1_555
Cr2 P10 2.458555 1_555
Cr2 P2 2.484448 1_555
Cr3 H67 1.850353 1_555
Cr3 H3 1.858296 1_555
Cr3 H91 2.112277 1_555
Cr3 H27 2.132971 1_555
Cr3 P11 2.458555 1_555
Cr3 P3 2.484448 1_555
Cr4 H68 1.850353 1_555
Cr4 H4 1.858296 1_555
Cr4 H92 2.112277 1_555
Cr4 H28 2.132971 1_555
Cr4 P12 2.458555 1_554
Cr4 P4 2.484448 1_555
Cr5 H69 1.850353 1_555
Cr5 H5 1.858296 1_555
Cr5 H93 2.112277 1_555
Cr5 H29 2.132971 1_555
Cr5 P13 2.458555 1_556
Cr5 P5 2.484448 1_555
Cr6 H70 1.850353 1_555
Cr6 H6 1.858296 1_555
Cr6 H94 2.112277 1_555
Cr6 H30 2.132971 1_555
Cr6 P14 2.458555 1_555
Cr6 P6 2.484448 1_555
Cr7 H71 1.850353 1_555
Cr7 H7 1.858296 1_555
Cr7 H95 2.112277 1_555
Cr7 H31 2.132971 1_555
Cr7 P15 2.458555 1_555
Cr7 P7 2.484448 1_555
B0 H8 1.202941 1_555
B0 H0 1.252826 1_555
B0 H16 1.265725 1_555
B1 H9 1.202941 1_555
B1 H1 1.252826 1_555
B1 H17 1.265725 1_555
B2 H10 1.202941 1_555
B2 H2 1.252826 1_555
B2 H18 1.265725 1_555
B3 H11 1.202941 1_555
B3 H3 1.252826 1_555
B3 H19 1.265725 1_555
B4 H12 1.202941 1_555
B4 H4 1.252826 1_555
B4 H20 1.265725 1_555
B5 H13 1.202941 1_555
B5 H5 1.252826 1_555
B5 H21 1.265725 1_555
B6 H14 1.202941 1_555
B6 H6 1.252826 1_555
B6 H22 1.265725 1_555
B7 H15 1.202941 1_555
B7 H7 1.252826 1_555
B7 H23 1.265725 1_555
B8 H32 1.205225 1_555
B8 H24 1.233573 1_555
B8 H40 1.275329 1_555
B9 H33 1.205225 1_555
B9 H25 1.233573 1_555
B9 H41 1.275329 1_655
B10 H34 1.205225 1_555
B10 H26 1.233573 1_555
B10 H42 1.275329 1_455
B11 H35 1.205225 1_555
B11 H27 1.233573 1_555
B11 H43 1.275329 1_555
B12 H36 1.205225 1_555
B12 H28 1.233573 1_555
B12 H44 1.275329 1_555
B13 H37 1.205225 1_555
B13 H29 1.233573 1_555
B13 H45 1.275329 1_455
B14 H38 1.205225 1_555
B14 H30 1.233573 1_555
B14 H46 1.275329 1_655
B15 H39 1.205225 1_555
B15 H31 1.233573 1_555
B15 H47 1.275329 1_555
B16 H48 1.206097 1_555
B16 H56 1.208177 1_555
B16 H40 1.430870 1_555
B16 H16 1.477238 1_555
B17 H49 1.206097 1_655
B17 H57 1.208177 1_655
B17 H41 1.430870 1_655
B17 H17 1.477238 1_555
B18 H50 1.206097 1_455
B18 H58 1.208177 1_455
B18 H42 1.430870 1_455
B18 H18 1.477238 1_555
B19 H51 1.206097 1_555
B19 H59 1.208177 1_555
B19 H43 1.430870 1_555
B19 H19 1.477238 1_555
B20 H52 1.206097 1_555
B20 H60 1.208177 1_555
B20 H44 1.430870 1_555
B20 H20 1.477238 1_555
B21 H53 1.206097 1_455
B21 H61 1.208177 1_455
B21 H45 1.430870 1_455
B21 H21 1.477238 1_555
B22 H54 1.206097 1_655
B22 H62 1.208177 1_655
B22 H46 1.430870 1_655
B22 H22 1.477238 1_555
B23 H55 1.206097 1_555
B23 H63 1.208177 1_555
B23 H47 1.430870 1_555
B23 H23 1.477238 1_555
B24 H72 1.204540 1_555
B24 H64 1.256711 1_555
B24 H80 1.263361 1_555
B25 H73 1.204540 1_555
B25 H65 1.256711 1_555
B25 H81 1.263361 1_555
B26 H74 1.204540 1_555
B26 H66 1.256711 1_555
B26 H82 1.263361 1_555
B27 H75 1.204540 1_555
B27 H67 1.256711 1_555
B27 H83 1.263361 1_555
B28 H76 1.204540 1_555
B28 H68 1.256711 1_555
B28 H84 1.263361 1_555
B29 H77 1.204540 1_555
B29 H69 1.256711 1_555
B29 H85 1.263361 1_555
B30 H78 1.204540 1_555
B30 H70 1.256711 1_555
B30 H86 1.263361 1_555
B31 H79 1.204540 1_555
B31 H71 1.256711 1_555
B31 H87 1.263361 1_555
B32 H96 1.205632 1_555
B32 H88 1.233348 1_555
B32 H104 1.276330 1_555
B33 H97 1.205632 1_555
B33 H89 1.233348 1_555
B33 H105 1.276330 1_555
B34 H98 1.205632 1_555
B34 H90 1.233348 1_555
B34 H106 1.276330 1_555
B35 H99 1.205632 1_555
B35 H91 1.233348 1_555
B35 H107 1.276330 1_555
B36 H100 1.205632 1_555
B36 H92 1.233348 1_555
B36 H108 1.276330 1_555
B37 H101 1.205632 1_555
B37 H93 1.233348 1_555
B37 H109 1.276330 1_555
B38 H102 1.205632 1_555
B38 H94 1.233348 1_555
B38 H110 1.276330 1_555
B39 H103 1.205632 1_555
B39 H95 1.233348 1_555
B39 H111 1.276330 1_555
B40 H120 1.204218 1_555
B40 H112 1.206597 1_555
B40 H104 1.421963 1_555
B40 H80 1.472643 1_555
B41 H121 1.204218 1_555
B41 H113 1.206597 1_555
B41 H105 1.421963 1_555
B41 H81 1.472643 1_555
B42 H122 1.204218 1_555
B42 H114 1.206597 1_555
B42 H106 1.421963 1_555
B42 H82 1.472643 1_555
B43 H123 1.204218 1_555
B43 H115 1.206597 1_555
B43 H107 1.421963 1_555
B43 H83 1.472643 1_555
B44 H124 1.204218 1_555
B44 H116 1.206597 1_555
B44 H108 1.421963 1_555
B44 H84 1.472643 1_555
B45 H125 1.204218 1_555
B45 H117 1.206597 1_555
B45 H109 1.421963 1_555
B45 H85 1.472643 1_555
B46 H126 1.204218 1_555
B46 H118 1.206597 1_555
B46 H110 1.421963 1_555
B46 H86 1.472643 1_555
B47 H127 1.204218 1_555
B47 H119 1.206597 1_555
B47 H111 1.421963 1_555
B47 H87 1.472643 1_555
C0 H128 1.095979 1_555
C0 H136 1.096789 1_555
C0 H144 1.097112 1_555
C0 P0 1.830741 1_555
C1 H129 1.095979 1_555
C1 H137 1.096789 1_555
C1 H145 1.097112 1_555
C1 P1 1.830741 1_555
C2 H130 1.095979 1_555
C2 H138 1.096789 1_555
C2 H146 1.097112 1_555
C2 P2 1.830741 1_555
C3 H131 1.095979 1_555
C3 H139 1.096789 1_555
C3 H147 1.097112 1_555
C3 P3 1.830741 1_555
C4 H132 1.095979 1_555
C4 H140 1.096789 1_555
C4 H148 1.097112 1_555
C4 P4 1.830741 1_555
C5 H133 1.095979 1_555
C5 H141 1.096789 1_555
C5 H149 1.097112 1_555
C5 P5 1.830741 1_555
C6 H134 1.095979 1_555
C6 H142 1.096789 1_555
C6 H150 1.097112 1_555
C6 P6 1.830741 1_555
C7 H135 1.095979 1_555
C7 H143 1.096789 1_555
C7 H151 1.097112 1_555
C7 P7 1.830741 1_555
C8 H152 1.095644 1_555
C8 H160 1.097083 1_555
C8 H168 1.097694 1_555
C8 P0 1.826915 1_555
C9 H153 1.095644 1_555
C9 H161 1.097083 1_555
C9 H169 1.097694 1_555
C9 P1 1.826915 1_545
C10 H154 1.095644 1_555
C10 H162 1.097083 1_555
C10 H170 1.097694 1_555
C10 P2 1.826915 1_555
C11 H155 1.095644 1_555
C11 H163 1.097083 1_555
C11 H171 1.097694 1_555
C11 P3 1.826915 1_565
C12 H156 1.095644 1_555
C12 H164 1.097083 1_555
C12 H172 1.097694 1_555
C12 P4 1.826915 1_555
C13 H157 1.095644 1_555
C13 H165 1.097083 1_555
C13 H173 1.097694 1_555
C13 P5 1.826915 1_565
C14 H158 1.095644 1_555
C14 H166 1.097083 1_555
C14 H174 1.097694 1_555
C14 P6 1.826915 1_555
C15 H159 1.095644 1_555
C15 H167 1.097083 1_555
C15 H175 1.097694 1_555
C15 P7 1.826915 1_545
C16 H184 1.094876 1_556
C16 H192 1.096029 1_555
C16 H176 1.098431 1_555
C16 P0 1.834020 1_555
C17 H185 1.094876 1_554
C17 H193 1.096029 1_555
C17 H177 1.098431 1_555
C17 P1 1.834020 1_555
C18 H186 1.094876 1_555
C18 H194 1.096029 1_555
C18 H178 1.098431 1_555
C18 P2 1.834020 1_555
C19 H187 1.094876 1_555
C19 H195 1.096029 1_555
C19 H179 1.098431 1_555
C19 P3 1.834020 1_555
C20 H188 1.094876 1_554
C20 H196 1.096029 1_555
C20 H180 1.098431 1_555
C20 P4 1.834020 1_555
C21 H189 1.094876 1_556
C21 H197 1.096029 1_555
C21 H181 1.098431 1_555
C21 P5 1.834020 1_555
C22 H190 1.094876 1_555
C22 H198 1.096029 1_555
C22 H182 1.098431 1_555
C22 P6 1.834020 1_555
C23 H191 1.094876 1_555
C23 H199 1.096029 1_555
C23 H183 1.098431 1_555
C23 P7 1.834020 1_555
C24 H208 1.095152 1_555
C24 H200 1.096038 1_555
C24 H216 1.097679 1_555
C24 P8 1.828922 1_555
C25 H209 1.095152 1_555
C25 H201 1.096038 1_555
C25 H217 1.097679 1_555
C25 P9 1.828922 1_555
C26 H210 1.095152 1_555
C26 H202 1.096038 1_555
C26 H218 1.097679 1_555
C26 P10 1.828922 1_555
C27 H211 1.095152 1_555
C27 H203 1.096038 1_555
C27 H219 1.097679 1_555
C27 P11 1.828922 1_555
C28 H212 1.095152 1_555
C28 H204 1.096038 1_555
C28 H220 1.097679 1_555
C28 P12 1.828922 1_555
C29 H213 1.095152 1_555
C29 H205 1.096038 1_555
C29 H221 1.097679 1_555
C29 P13 1.828922 1_555
C30 H214 1.095152 1_555
C30 H206 1.096038 1_555
C30 H222 1.097679 1_555
C30 P14 1.828922 1_555
C31 H215 1.095152 1_555
C31 H207 1.096038 1_555
C31 H223 1.097679 1_555
C31 P15 1.828922 1_555
C32 H240 1.094204 1_555
C32 H232 1.096548 1_555
C32 H224 1.098642 1_555
C32 P8 1.831533 1_555
C33 H241 1.094204 1_655
C33 H233 1.096548 1_655
C33 H225 1.098642 1_655
C33 P9 1.831533 1_555
C34 H242 1.094204 1_455
C34 H234 1.096548 1_455
C34 H226 1.098642 1_455
C34 P10 1.831533 1_555
C35 H243 1.094204 1_555
C35 H235 1.096548 1_555
C35 H227 1.098642 1_555
C35 P11 1.831533 1_555
C36 H244 1.094204 1_555
C36 H236 1.096548 1_555
C36 H228 1.098642 1_555
C36 P12 1.831533 1_555
C37 H245 1.094204 1_455
C37 H237 1.096548 1_455
C37 H229 1.098642 1_455
C37 P13 1.831533 1_555
C38 H246 1.094204 1_655
C38 H238 1.096548 1_655
C38 H230 1.098642 1_655
C38 P14 1.831533 1_555
C39 H247 1.094204 1_555
C39 H239 1.096548 1_555
C39 H231 1.098642 1_555
C39 P15 1.831533 1_555
C40 H256 1.093639 1_555
C40 H264 1.094491 1_555
C40 H248 1.099354 1_555
C40 P8 1.825379 1_555
C41 H257 1.093639 1_555
C41 H265 1.094491 1_555
C41 H249 1.099354 1_555
C41 P9 1.825379 1_555
C42 H258 1.093639 1_555
C42 H266 1.094491 1_555
C42 H250 1.099354 1_555
C42 P10 1.825379 1_555
C43 H259 1.093639 1_555
C43 H267 1.094491 1_555
C43 H251 1.099354 1_555
C43 P11 1.825379 1_555
C44 H260 1.093639 1_555
C44 H268 1.094491 1_555
C44 H252 1.099354 1_555
C44 P12 1.825379 1_555
C45 H261 1.093639 1_555
C45 H269 1.094491 1_555
C45 H253 1.099354 1_555
C45 P13 1.825379 1_555
C46 H262 1.093639 1_555
C46 H270 1.094491 1_555
C46 H254 1.099354 1_555
C46 P14 1.825379 1_555
C47 H263 1.093639 1_555
C47 H271 1.094491 1_555
C47 H255 1.099354 1_555
C47 P15 1.825379 1_555
