# generated using pymatgen
data_Ba7Sr(Cu2O5)4
_symmetry_space_group_name_H-M   'P 1'
_cell_length_a   11.35643350
_cell_length_b   11.34413732
_cell_length_c   18.78132848
_cell_angle_alpha   107.58613773
_cell_angle_beta   107.61118020
_cell_angle_gamma   90.02230949
_symmetry_Int_Tables_number   1
_chemical_formula_structural   Ba7Sr(Cu2O5)4
_chemical_formula_sum   'Ba28 Sr4 Cu32 O80'
_cell_volume   2187.14448460
_cell_formula_units_Z   4
loop_
 _symmetry_equiv_pos_site_id
 _symmetry_equiv_pos_as_xyz
  1  'x, y, z'
loop_
 _atom_site_type_symbol
 _atom_site_label
 _atom_site_symmetry_multiplicity
 _atom_site_fract_x
 _atom_site_fract_y
 _atom_site_fract_z
 _atom_site_occupancy
  Ba  Ba0  1  0.30696800  0.05588900  0.11258300  1
  Ba  Ba1  1  0.30779600  0.05789600  0.61609000  1
  Ba  Ba2  1  0.30663100  0.55411100  0.11212000  1
  Ba  Ba3  1  0.80536400  0.05615600  0.11281000  1
  Ba  Ba4  1  0.80710400  0.05800300  0.61485200  1
  Ba  Ba5  1  0.80545900  0.55414600  0.11239500  1
  Ba  Ba6  1  0.80666900  0.55543400  0.61360000  1
  Ba  Ba7  1  0.19424000  0.44389800  0.38860300  1
  Ba  Ba8  1  0.19273100  0.44200700  0.88447600  1
  Ba  Ba9  1  0.19467600  0.94736800  0.38934800  1
  Ba  Ba10  1  0.19271600  0.94379500  0.88527400  1
  Ba  Ba11  1  0.69433000  0.44385900  0.38845300  1
  Ba  Ba12  1  0.69195800  0.44277600  0.88452400  1
  Ba  Ba13  1  0.69409600  0.94699700  0.38862700  1
  Ba  Ba14  1  0.69205100  0.94309400  0.88572000  1
  Ba  Ba15  1  0.05636700  0.30784700  0.11300700  1
  Ba  Ba16  1  0.05651200  0.80735800  0.11346900  1
  Ba  Ba17  1  0.05709400  0.80620500  0.61357600  1
  Ba  Ba18  1  0.55612000  0.30737700  0.11274000  1
  Ba  Ba19  1  0.55600200  0.80731900  0.11275200  1
  Ba  Ba20  1  0.55627300  0.80728900  0.61362700  1
  Ba  Ba21  1  0.44346300  0.19362800  0.38816400  1
  Ba  Ba22  1  0.44298800  0.69237600  0.38783900  1
  Ba  Ba23  1  0.44345100  0.69220800  0.88576000  1
  Ba  Ba24  1  0.94501200  0.19392100  0.38848000  1
  Ba  Ba25  1  0.94293500  0.19278400  0.88645900  1
  Ba  Ba26  1  0.94459300  0.69247200  0.38811300  1
  Ba  Ba27  1  0.94388700  0.69308900  0.88693700  1
  Sr  Sr0  1  0.30628500  0.55478300  0.60746300  1
  Sr  Sr1  1  0.05579900  0.30248300  0.60668900  1
  Sr  Sr2  1  0.55402800  0.30137700  0.60628600  1
  Sr  Sr3  1  0.44876300  0.19844300  0.89267400  1
  Cu  Cu0  1  0.00038700  0.99950000  0.99906400  1
  Cu  Cu1  1  0.00299700  0.00260300  0.50416300  1
  Cu  Cu2  1  0.00044800  0.49951000  0.99913600  1
  Cu  Cu3  1  0.00590100  0.50314100  0.50772200  1
  Cu  Cu4  1  0.49842100  0.99817400  0.99559300  1
  Cu  Cu5  1  0.50227800  0.00217800  0.50347700  1
  Cu  Cu6  1  0.49991400  0.49897400  0.99809800  1
  Cu  Cu7  1  0.50432100  0.50332600  0.50801800  1
  Cu  Cu8  1  0.24988900  0.24790200  0.99606700  1
  Cu  Cu9  1  0.25684000  0.25563800  0.51065000  1
  Cu  Cu10  1  0.25091300  0.74913400  0.99938800  1
  Cu  Cu11  1  0.25221600  0.75116300  0.50281000  1
  Cu  Cu12  1  0.74826700  0.24777700  0.99553200  1
  Cu  Cu13  1  0.75542100  0.25375300  0.50767600  1
  Cu  Cu14  1  0.75080600  0.74942200  0.00005200  1
  Cu  Cu15  1  0.75175600  0.75100600  0.50202900  1
  Cu  Cu16  1  0.11572700  0.09816000  0.25015300  1
  Cu  Cu17  1  0.11866000  0.10110300  0.75000100  1
  Cu  Cu18  1  0.11589000  0.59793000  0.25048800  1
  Cu  Cu19  1  0.11555400  0.58929500  0.74648100  1
  Cu  Cu20  1  0.61579900  0.09846900  0.25021800  1
  Cu  Cu21  1  0.61277700  0.10177300  0.75203600  1
  Cu  Cu22  1  0.61583900  0.59774100  0.25059100  1
  Cu  Cu23  1  0.60724500  0.58776400  0.74446100  1
  Cu  Cu24  1  0.36568000  0.40166700  0.25036800  1
  Cu  Cu25  1  0.36004900  0.40228700  0.74461400  1
  Cu  Cu26  1  0.36564100  0.90238400  0.25033400  1
  Cu  Cu27  1  0.36600800  0.90498300  0.75184900  1
  Cu  Cu28  1  0.86578800  0.40172500  0.25033900  1
  Cu  Cu29  1  0.86102400  0.40318900  0.74658900  1
  Cu  Cu30  1  0.86542100  0.90246700  0.25025200  1
  Cu  Cu31  1  0.86472600  0.90458400  0.74979300  1
  O  O0  1  0.12391200  0.12950900  0.50289000  1
  O  O1  1  0.12361200  0.12471000  0.99752900  1
  O  O2  1  0.12839000  0.62456800  0.50207800  1
  O  O3  1  0.12302200  0.62460200  0.99782000  1
  O  O4  1  0.62326000  0.12886000  0.50245900  1
  O  O5  1  0.61940400  0.12555500  0.99485700  1
  O  O6  1  0.62377200  0.62544800  0.49953100  1
  O  O7  1  0.62236300  0.62355800  0.99705400  1
  O  O8  1  0.12437000  0.37424200  0.99975200  1
  O  O9  1  0.13064200  0.37885900  0.50891600  1
  O  O10  1  0.12506400  0.87428100  0.00094000  1
  O  O11  1  0.12605600  0.87581300  0.50346100  1
  O  O12  1  0.62030200  0.37222100  0.99789400  1
  O  O13  1  0.62527600  0.37464700  0.50588000  1
  O  O14  1  0.62488100  0.87434100  0.00042200  1
  O  O15  1  0.62503000  0.87647100  0.50259100  1
  O  O16  1  0.37795200  0.12770300  0.50235300  1
  O  O17  1  0.37459800  0.12405100  0.99443600  1
  O  O18  1  0.37226500  0.62322500  0.50153400  1
  O  O19  1  0.37302200  0.62172600  0.99686700  1
  O  O20  1  0.87753800  0.12705200  0.50177000  1
  O  O21  1  0.87272800  0.12280900  0.99763200  1
  O  O22  1  0.87420700  0.62342900  0.49968800  1
  O  O23  1  0.87275600  0.62325800  0.99778700  1
  O  O24  1  0.37631600  0.37337900  0.99787200  1
  O  O25  1  0.37872200  0.38009300  0.50862400  1
  O  O26  1  0.37377000  0.87652500  0.00053800  1
  O  O27  1  0.37569400  0.87822200  0.50379100  1
  O  O28  1  0.87434000  0.37685300  0.00055500  1
  O  O29  1  0.88087600  0.37665900  0.50618100  1
  O  O30  1  0.87370100  0.87629200  0.00099600  1
  O  O31  1  0.87558500  0.87830400  0.50294400  1
  O  O32  1  0.07420100  0.08548600  0.14524900  1
  O  O33  1  0.07461900  0.09637100  0.64614800  1
  O  O34  1  0.07451100  0.58491800  0.14548500  1
  O  O35  1  0.08000000  0.58002300  0.64192600  1
  O  O36  1  0.57389400  0.08602900  0.14548900  1
  O  O37  1  0.57267100  0.09641300  0.64821500  1
  O  O38  1  0.57421200  0.58473100  0.14568300  1
  O  O39  1  0.56625100  0.57969800  0.63920900  1
  O  O40  1  0.42880500  0.41361000  0.35496100  1
  O  O41  1  0.42567200  0.40617400  0.84807200  1
  O  O42  1  0.42923900  0.91508300  0.35515900  1
  O  O43  1  0.42931700  0.91696100  0.85699100  1
  O  O44  1  0.92993700  0.41369300  0.35490100  1
  O  O45  1  0.92358700  0.41400700  0.85125700  1
  O  O46  1  0.92954500  0.91502000  0.35497300  1
  O  O47  1  0.92782300  0.91512200  0.85417500  1
  O  O48  1  0.32440300  0.30981700  0.14543900  1
  O  O49  1  0.32651800  0.30966600  0.63894100  1
  O  O50  1  0.32428700  0.80914600  0.14554100  1
  O  O51  1  0.32845300  0.80427600  0.64885700  1
  O  O52  1  0.82326300  0.30991900  0.14539000  1
  O  O53  1  0.82760200  0.31028500  0.64127900  1
  O  O54  1  0.82372200  0.80905600  0.14551600  1
  O  O55  1  0.82345500  0.80977100  0.64543800  1
  O  O56  1  0.17884000  0.19081600  0.35468300  1
  O  O57  1  0.18808900  0.18876900  0.85569500  1
  O  O58  1  0.17909300  0.69116300  0.35532500  1
  O  O59  1  0.17955000  0.68479000  0.85072900  1
  O  O60  1  0.67951600  0.19075200  0.35506000  1
  O  O61  1  0.67716700  0.19113500  0.85852300  1
  O  O62  1  0.67954500  0.69142400  0.35532400  1
  O  O63  1  0.67500200  0.68233700  0.84856400  1
  O  O64  1  0.46564400  0.03698900  0.25046300  1
  O  O65  1  0.46269100  0.04790000  0.75747600  1
  O  O66  1  0.46557800  0.53646400  0.25035400  1
  O  O67  1  0.44964300  0.54376500  0.74298300  1
  O  O68  1  0.96547000  0.03676800  0.25015800  1
  O  O69  1  0.96901600  0.03638500  0.75037000  1
  O  O70  1  0.96550300  0.53630700  0.25010600  1
  O  O71  1  0.96317900  0.53902800  0.75015600  1
  O  O72  1  0.21556800  0.46362100  0.25094000  1
  O  O73  1  0.20211600  0.44338500  0.74156000  1
  O  O74  1  0.21557300  0.96418300  0.25079600  1
  O  O75  1  0.21391000  0.96300100  0.74720800  1
  O  O76  1  0.71563600  0.46369700  0.25085200  1
  O  O77  1  0.70171500  0.44761000  0.73972300  1
  O  O78  1  0.71497100  0.96371100  0.25014200  1
  O  O79  1  0.71461100  0.96834600  0.74932400  1
loop_
_geom_bond_atom_site_label_1
_geom_bond_atom_site_label_2
_geom_bond_distance
_geom_bond_site_symmetry_2
Ba0 O64 2.740646 1_555
Ba0 O26 2.742951 1_545
Ba0 O48 2.751236 1_555
Ba0 O10 2.770137 1_545
Ba0 O1 2.812953 1_554
Ba0 O17 2.859922 1_554
Ba0 O32 2.886913 1_555
Ba0 O36 2.902701 1_555
Ba0 O50 3.038169 1_545
Ba1 O65 2.741166 1_555
Ba1 O27 2.754087 1_545
Ba1 O49 2.755066 1_555
Ba1 O11 2.777677 1_545
Ba1 O16 2.806507 1_555
Ba1 O0 2.810582 1_555
Ba1 O33 2.877152 1_555
Ba1 O37 2.888716 1_555
Ba1 O51 3.113609 1_545
Ba2 O66 2.741766 1_555
Ba2 O50 2.762344 1_555
Ba2 O8 2.766379 1_554
Ba2 O24 2.793625 1_554
Ba2 O19 2.798701 1_554
Ba2 O3 2.815254 1_554
Ba2 O34 2.886441 1_555
Ba2 O38 2.908586 1_555
Ba2 O48 3.014037 1_555
Ba3 O68 2.741091 1_555
Ba3 O52 2.750024 1_555
Ba3 O30 2.752042 1_545
Ba3 O14 2.767405 1_545
Ba3 O21 2.797445 1_554
Ba3 O5 2.865577 1_554
Ba3 O36 2.872757 1_555
Ba3 O32 2.924731 1_655
Ba3 O54 3.040033 1_545
Ba4 O69 2.732182 1_555
Ba4 O53 2.749971 1_555
Ba4 O31 2.753029 1_545
Ba4 O15 2.774270 1_545
Ba4 O20 2.792271 1_555
Ba4 O4 2.796558 1_555
Ba4 O37 2.918189 1_555
Ba4 O33 2.920327 1_655
Ba4 O55 3.034396 1_545
Ba5 O70 2.739678 1_555
Ba5 O28 2.740755 1_555
Ba5 O54 2.761625 1_555
Ba5 O23 2.801201 1_554
Ba5 O12 2.807799 1_554
Ba5 O7 2.818272 1_554
Ba5 O38 2.875934 1_555
Ba5 O34 2.926264 1_655
Ba5 O52 3.010466 1_555
Ba6 O71 2.702179 1_555
Ba6 O29 2.729664 1_555
Ba6 O13 2.740477 1_555
Ba6 O55 2.757994 1_555
Ba6 O22 2.783888 1_555
Ba6 O6 2.805638 1_555
Ba6 O39 2.911494 1_555
Ba6 O53 2.976588 1_555
Ba6 O35 2.984367 1_655
Ba7 O56 2.739712 1_555
Ba7 O18 2.742105 1_555
Ba7 O72 2.742620 1_555
Ba7 O2 2.761890 1_555
Ba7 O25 2.850229 1_555
Ba7 O9 2.857718 1_555
Ba7 O44 2.871550 1_455
Ba7 O40 2.915686 1_555
Ba7 O58 3.046801 1_555
Ba8 O73 2.723002 1_555
Ba8 O19 2.754148 1_555
Ba8 O57 2.755365 1_555
Ba8 O24 2.793724 1_555
Ba8 O3 2.793813 1_555
Ba8 O8 2.811293 1_555
Ba8 O45 2.925407 1_455
Ba8 O41 2.925420 1_555
Ba8 O59 3.001216 1_555
Ba9 O74 2.745486 1_555
Ba9 O58 2.774139 1_555
Ba9 O16 2.778776 1_565
Ba9 O27 2.794190 1_555
Ba9 O0 2.799693 1_565
Ba9 O11 2.814401 1_555
Ba9 O46 2.880443 1_455
Ba9 O42 2.921634 1_555
Ba9 O56 3.016502 1_565
Ba10 O75 2.747434 1_555
Ba10 O17 2.748094 1_565
Ba10 O1 2.767780 1_565
Ba10 O26 2.793293 1_556
Ba10 O59 2.804509 1_555
Ba10 O10 2.824163 1_556
Ba10 O47 2.884038 1_455
Ba10 O43 2.891554 1_555
Ba10 O57 2.991602 1_565
Ba11 O60 2.741077 1_555
Ba11 O76 2.741848 1_555
Ba11 O22 2.744041 1_555
Ba11 O6 2.766526 1_555
Ba11 O29 2.853671 1_555
Ba11 O13 2.861438 1_555
Ba11 O40 2.885683 1_555
Ba11 O44 2.926430 1_555
Ba11 O62 3.048866 1_555
Ba12 O61 2.742868 1_555
Ba12 O23 2.766711 1_555
Ba12 O77 2.771953 1_555
Ba12 O7 2.773106 1_555
Ba12 O28 2.802306 1_556
Ba12 O12 2.813229 1_555
Ba12 O45 2.878935 1_555
Ba12 O41 2.891455 1_555
Ba12 O63 2.984869 1_555
Ba13 O78 2.743733 1_555
Ba13 O62 2.768661 1_555
Ba13 O20 2.778967 1_565
Ba13 O31 2.792761 1_555
Ba13 O4 2.801930 1_565
Ba13 O15 2.808334 1_555
Ba13 O42 2.879377 1_555
Ba13 O46 2.926689 1_555
Ba13 O60 3.010274 1_565
Ba14 O79 2.747821 1_555
Ba14 O21 2.753529 1_565
Ba14 O5 2.761747 1_565
Ba14 O30 2.794150 1_556
Ba14 O14 2.800041 1_556
Ba14 O63 2.818691 1_555
Ba14 O43 2.865324 1_555
Ba14 O47 2.909952 1_555
Ba14 O61 3.003941 1_565
Ba15 O72 2.738531 1_555
Ba15 O32 2.760416 1_555
Ba15 O8 2.765835 1_554
Ba15 O28 2.775793 1_455
Ba15 O1 2.807816 1_554
Ba15 O21 2.822125 1_454
Ba15 O52 2.888588 1_455
Ba15 O48 2.916647 1_555
Ba15 O34 3.009767 1_555
Ba16 O74 2.736007 1_555
Ba16 O34 2.759304 1_555
Ba16 O10 2.759309 1_555
Ba16 O30 2.780212 1_455
Ba16 O3 2.803443 1_554
Ba16 O23 2.819227 1_454
Ba16 O54 2.882269 1_455
Ba16 O50 2.914600 1_555
Ba16 O32 3.023306 1_565
Ba17 O75 2.688803 1_555
Ba17 O11 2.735025 1_555
Ba17 O31 2.769798 1_455
Ba17 O35 2.770734 1_555
Ba17 O2 2.776029 1_555
Ba17 O22 2.795794 1_455
Ba17 O55 2.888944 1_455
Ba17 O51 2.951174 1_555
Ba17 O33 3.155633 1_565
Ba18 O76 2.743948 1_555
Ba18 O36 2.753675 1_555
Ba18 O12 2.763069 1_554
Ba18 O24 2.774165 1_554
Ba18 O5 2.806624 1_554
Ba18 O17 2.818552 1_554
Ba18 O48 2.875811 1_555
Ba18 O52 2.905904 1_555
Ba18 O38 3.011764 1_555
Ba19 O78 2.734474 1_555
Ba19 O14 2.758296 1_555
Ba19 O38 2.769114 1_555
Ba19 O26 2.775384 1_555
Ba19 O7 2.808953 1_554
Ba19 O19 2.824649 1_554
Ba19 O50 2.877002 1_555
Ba19 O54 2.912606 1_555
Ba19 O36 3.027379 1_565
Ba20 O79 2.734470 1_555
Ba20 O15 2.747433 1_555
Ba20 O27 2.748256 1_555
Ba20 O39 2.761589 1_555
Ba20 O6 2.785467 1_555
Ba20 O18 2.799462 1_555
Ba20 O51 2.860449 1_555
Ba20 O55 2.908116 1_555
Ba20 O37 3.138949 1_565
Ba21 O40 2.742629 1_555
Ba21 O64 2.743537 1_555
Ba21 O4 2.760241 1_555
Ba21 O16 2.765217 1_555
Ba21 O13 2.803387 1_555
Ba21 O25 2.872165 1_555
Ba21 O56 2.876077 1_555
Ba21 O60 2.927496 1_555
Ba21 O42 3.024964 1_545
Ba22 O66 2.739164 1_555
Ba22 O6 2.747639 1_555
Ba22 O42 2.768254 1_555
Ba22 O15 2.803737 1_555
Ba22 O18 2.805288 1_555
Ba22 O27 2.829357 1_555
Ba22 O58 2.870893 1_555
Ba22 O62 2.928954 1_555
Ba22 O40 3.027736 1_555
Ba23 O67 2.723387 1_555
Ba23 O7 2.742053 1_555
Ba23 O43 2.756559 1_555
Ba23 O19 2.766070 1_555
Ba23 O14 2.788336 1_556
Ba23 O26 2.820448 1_556
Ba23 O59 2.862690 1_555
Ba23 O63 2.912024 1_555
Ba23 O41 3.097692 1_555
Ba24 O44 2.743687 1_555
Ba24 O68 2.747373 1_555
Ba24 O0 2.754465 1_655
Ba24 O20 2.766100 1_555
Ba24 O29 2.814400 1_555
Ba24 O9 2.864518 1_655
Ba24 O60 2.885677 1_555
Ba24 O56 2.908967 1_655
Ba24 O46 3.027642 1_545
Ba25 O69 2.736162 1_555
Ba25 O1 2.746391 1_655
Ba25 O21 2.762949 1_555
Ba25 O45 2.774623 1_555
Ba25 O8 2.776208 1_655
Ba25 O28 2.804714 1_556
Ba25 O61 2.901864 1_555
Ba25 O57 3.007420 1_655
Ba25 O47 3.016801 1_545
Ba26 O70 2.740635 1_555
Ba26 O22 2.765593 1_555
Ba26 O46 2.770522 1_555
Ba26 O2 2.797435 1_655
Ba26 O11 2.799684 1_655
Ba26 O31 2.825985 1_555
Ba26 O62 2.883293 1_555
Ba26 O58 2.908315 1_655
Ba26 O44 3.027039 1_555
Ba27 O71 2.707334 1_555
Ba27 O3 2.737591 1_655
Ba27 O47 2.761354 1_555
Ba27 O23 2.761914 1_555
Ba27 O10 2.777458 1_656
Ba27 O30 2.808505 1_556
Ba27 O63 2.910931 1_555
Ba27 O59 2.949006 1_655
Ba27 O45 3.024789 1_555
Cu0 O1 2.006062 1_565
Cu0 O10 2.006346 1_556
Cu0 O21 2.014934 1_465
Cu0 O30 2.021232 1_456
Cu0 O47 2.463483 1_455
Cu0 O32 2.486077 1_566
Cu1 O0 1.999459 1_555
Cu1 O11 2.005802 1_545
Cu1 O20 2.006546 1_455
Cu1 O31 2.010303 1_445
Cu1 O33 2.424240 1_555
Cu1 O46 2.537096 1_445
Cu2 O3 1.998122 1_555
Cu2 O8 2.000426 1_555
Cu2 O28 2.007929 1_456
Cu2 O23 2.018675 1_455
Cu2 O34 2.488436 1_556
Cu2 O45 2.514154 1_455
Cu3 O9 1.999118 1_555
Cu3 O2 2.004908 1_555
Cu3 O29 2.005983 1_455
Cu3 O22 2.027560 1_455
Cu3 O35 2.282419 1_555
Cu3 O44 2.598639 1_455
Cu4 O5 1.999503 1_565
Cu4 O17 2.004681 1_565
Cu4 O14 2.010934 1_556
Cu4 O26 2.018022 1_556
Cu4 O43 2.356905 1_555
Cu4 O36 2.548976 1_566
Cu5 O15 1.994595 1_545
Cu5 O4 1.996057 1_555
Cu5 O16 2.005817 1_555
Cu5 O27 2.013071 1_545
Cu5 O37 2.469766 1_555
Cu5 O42 2.522282 1_545
Cu6 O12 1.984472 1_555
Cu6 O7 1.990787 1_555
Cu6 O24 1.997835 1_555
Cu6 O19 2.004268 1_555
Cu6 O38 2.509209 1_556
Cu6 O41 2.554953 1_555
Cu7 O25 2.001708 1_555
Cu7 O13 2.004702 1_555
Cu7 O6 2.011881 1_555
Cu7 O18 2.026096 1_555
Cu7 O39 2.230969 1_555
Cu7 O40 2.602759 1_555
Cu8 O17 1.995613 1_555
Cu8 O24 2.007112 1_555
Cu8 O1 2.013890 1_555
Cu8 O8 2.022908 1_555
Cu8 O57 2.388377 1_555
Cu8 O48 2.540084 1_556
Cu9 O25 1.993337 1_555
Cu9 O9 2.002443 1_555
Cu9 O16 2.004221 1_555
Cu9 O0 2.021517 1_555
Cu9 O49 2.181949 1_555
Cu9 O56 2.652119 1_555
Cu10 O26 1.999216 1_556
Cu10 O19 2.003539 1_555
Cu10 O3 2.013310 1_555
Cu10 O10 2.015127 1_556
Cu10 O50 2.485722 1_556
Cu10 O59 2.526611 1_555
Cu11 O18 1.991466 1_555
Cu11 O27 2.002750 1_555
Cu11 O2 2.003712 1_555
Cu11 O11 2.013484 1_555
Cu11 O51 2.490042 1_555
Cu11 O58 2.508775 1_555
Cu12 O21 2.002675 1_555
Cu12 O28 2.008977 1_556
Cu12 O5 2.010158 1_555
Cu12 O12 2.027196 1_555
Cu12 O61 2.330122 1_555
Cu12 O52 2.548330 1_556
Cu13 O20 1.999930 1_555
Cu13 O29 2.005219 1_555
Cu13 O13 2.016378 1_555
Cu13 O4 2.023619 1_555
Cu13 O53 2.272017 1_555
Cu13 O60 2.595422 1_555
Cu14 O23 1.992135 1_554
Cu14 O30 1.996892 1_555
Cu14 O14 2.013684 1_555
Cu14 O7 2.017327 1_554
Cu14 O54 2.474068 1_555
Cu14 O63 2.573733 1_554
Cu15 O22 2.007578 1_555
Cu15 O31 2.007993 1_555
Cu15 O6 2.014995 1_555
Cu15 O15 2.024537 1_555
Cu15 O55 2.439134 1_555
Cu15 O62 2.495605 1_555
Cu16 O56 1.836773 1_555
Cu16 O32 1.841586 1_555
Cu16 O68 1.842820 1_455
Cu16 O74 1.897357 1_545
Cu17 O33 1.844958 1_555
Cu17 O57 1.846774 1_555
Cu17 O69 1.853731 1_455
Cu17 O75 1.900844 1_545
Cu18 O70 1.842321 1_455
Cu18 O34 1.842564 1_555
Cu18 O58 1.842961 1_555
Cu18 O72 1.899007 1_555
Cu19 O59 1.841693 1_555
Cu19 O71 1.849225 1_455
Cu19 O35 1.850816 1_555
Cu19 O73 1.917933 1_555
Cu20 O36 1.838770 1_555
Cu20 O60 1.840754 1_555
Cu20 O64 1.843907 1_555
Cu20 O78 1.899047 1_545
Cu21 O37 1.845039 1_555
Cu21 O65 1.852391 1_555
Cu21 O61 1.857842 1_555
Cu21 O79 1.903015 1_545
Cu22 O66 1.840582 1_555
Cu22 O38 1.840650 1_555
Cu22 O62 1.843121 1_555
Cu22 O76 1.897163 1_555
Cu23 O63 1.840464 1_555
Cu23 O67 1.847740 1_555
Cu23 O39 1.861862 1_555
Cu23 O77 1.913211 1_555
Cu24 O40 1.837956 1_555
Cu24 O48 1.840896 1_555
Cu24 O72 1.845981 1_555
Cu24 O66 1.903798 1_555
Cu25 O73 1.841753 1_555
Cu25 O41 1.845222 1_555
Cu25 O49 1.862848 1_555
Cu25 O67 1.912937 1_555
Cu26 O42 1.840242 1_555
Cu26 O50 1.842628 1_555
Cu26 O74 1.844501 1_555
Cu26 O64 1.901625 1_565
Cu27 O75 1.835418 1_555
Cu27 O51 1.842208 1_555
Cu27 O43 1.847571 1_555
Cu27 O65 1.915749 1_565
Cu28 O44 1.838157 1_555
Cu28 O52 1.840153 1_555
Cu28 O76 1.846290 1_555
Cu28 O70 1.902345 1_555
Cu29 O45 1.842076 1_555
Cu29 O77 1.855399 1_555
Cu29 O53 1.858103 1_555
Cu29 O71 1.901095 1_555
Cu30 O46 1.839260 1_555
Cu30 O54 1.841984 1_555
Cu30 O78 1.844338 1_555
Cu30 O68 1.900943 1_565
Cu31 O47 1.838292 1_555
Cu31 O55 1.840582 1_555
Cu31 O79 1.850742 1_555
Cu31 O69 1.902479 1_565
O0 Sr1 2.617498 1_555
O2 Sr0 2.674717 1_555
O4 Sr2 2.621754 1_555
O5 Sr3 2.613774 1_555
O9 Sr1 2.598153 1_555
O9 Sr0 2.630225 1_555
O12 Sr3 2.626762 1_555
O13 Sr2 2.602220 1_555
O16 Sr2 2.646020 1_555
O17 Sr3 2.650003 1_555
O18 Sr0 2.637676 1_555
O20 Sr1 2.674884 1_655
O24 Sr3 2.671020 1_555
O25 Sr0 2.598497 1_555
O25 Sr2 2.628062 1_555
O29 Sr1 2.628614 1_655
O33 Sr1 2.648309 1_555
O35 Sr0 2.828398 1_555
O35 Sr1 3.009390 1_555
O37 Sr2 2.660294 1_555
O39 Sr0 2.825552 1_555
O39 Sr2 3.022950 1_555
O41 Sr3 2.717376 1_555
O43 Sr3 3.051392 1_565
O49 Sr2 2.825721 1_555
O49 Sr1 2.944249 1_555
O49 Sr0 3.007649 1_555
O51 Sr0 2.688804 1_555
O53 Sr1 2.851305 1_655
O53 Sr2 2.969609 1_555
O57 Sr3 2.822679 1_555
O61 Sr3 2.849756 1_555
O65 Sr3 2.648002 1_555
O67 Sr0 2.613305 1_555
O73 Sr1 2.595515 1_555
O77 Sr2 2.605327 1_555
