# generated using pymatgen
data_Mo3Pd
_symmetry_space_group_name_H-M   'P 1'
_cell_length_a   3.96929500
_cell_length_b   3.96929500
_cell_length_c   3.96929500
_cell_angle_alpha   90.00000000
_cell_angle_beta   90.00000000
_cell_angle_gamma   90.00000000
_symmetry_Int_Tables_number   1
_chemical_formula_structural   Mo3Pd
_chemical_formula_sum   'Mo3 Pd1'
_cell_volume   62.53744462
_cell_formula_units_Z   1
loop_
 _symmetry_equiv_pos_site_id
 _symmetry_equiv_pos_as_xyz
  1  'x, y, z'
loop_
 _atom_site_type_symbol
 _atom_site_label
 _atom_site_symmetry_multiplicity
 _atom_site_fract_x
 _atom_site_fract_y
 _atom_site_fract_z
 _atom_site_occupancy
  Mo  Mo0  1  0.00000000  0.50000000  0.50000000  1
  Mo  Mo1  1  0.50000000  0.50000000  0.00000000  1
  Mo  Mo2  1  0.50000000  0.00000000  0.50000000  1
  Pd  Pd0  1  0.00000000  0.00000000  0.00000000  1
loop_
_geom_bond_atom_site_label_1
_geom_bond_atom_site_label_2
_geom_bond_distance
_geom_bond_site_symmetry_2
Mo0 Mo2 2.806715 1_465
Mo0 Mo1 2.806715 1_455
Mo0 Mo1 2.806715 1_555
Mo0 Pd0 2.806715 1_555
Mo0 Mo1 2.806715 1_556
Mo0 Pd0 2.806715 1_556
Mo0 Pd0 2.806715 1_566
Mo0 Mo2 2.806715 1_565
Mo0 Pd0 2.806715 1_565
Mo0 Mo2 2.806715 1_455
Mo0 Mo1 2.806715 1_456
Mo0 Mo2 2.806715 1_555
Mo1 Pd0 2.806715 1_665
Mo1 Mo2 2.806715 1_564
Mo1 Pd0 2.806715 1_555
Mo1 Mo2 2.806715 1_554
Mo1 Mo2 2.806715 1_565
Mo1 Pd0 2.806715 1_565
Mo1 Pd0 2.806715 1_655
Mo1 Mo2 2.806715 1_555
Mo2 Pd0 2.806715 1_555
Mo2 Pd0 2.806715 1_556
Mo2 Pd0 2.806715 1_656
Mo2 Pd0 2.806715 1_655
