# generated using pymatgen
data_YbTlCu4
_symmetry_space_group_name_H-M   'P 1'
_cell_length_a   5.10846183
_cell_length_b   5.10846183
_cell_length_c   5.10846183
_cell_angle_alpha   60.00000000
_cell_angle_beta   60.00000000
_cell_angle_gamma   60.00000000
_symmetry_Int_Tables_number   1
_chemical_formula_structural   YbTlCu4
_chemical_formula_sum   'Yb1 Tl1 Cu4'
_cell_volume   94.26608265
_cell_formula_units_Z   1
loop_
 _symmetry_equiv_pos_site_id
 _symmetry_equiv_pos_as_xyz
  1  'x, y, z'
loop_
 _atom_site_type_symbol
 _atom_site_label
 _atom_site_symmetry_multiplicity
 _atom_site_fract_x
 _atom_site_fract_y
 _atom_site_fract_z
 _atom_site_occupancy
  Yb  Yb0  1  0.25000000  0.25000000  0.25000000  1
  Tl  Tl0  1  0.00000000  0.00000000  0.00000000  1
  Cu  Cu0  1  0.62485100  0.62485100  0.62485100  1
  Cu  Cu1  1  0.62485100  0.62485100  0.12544600  1
  Cu  Cu2  1  0.62485100  0.12544600  0.62485100  1
  Cu  Cu3  1  0.12544600  0.62485100  0.62485100  1
loop_
_geom_bond_atom_site_label_1
_geom_bond_atom_site_label_2
_geom_bond_distance
_geom_bond_site_symmetry_2
Tl0 Yb0 3.128281 1_455
Tl0 Yb0 3.128281 1_545
Tl0 Yb0 3.128281 1_554
Tl0 Yb0 3.128281 1_555
Cu0 Cu3 2.551191 1_555
Cu0 Cu1 2.551191 1_555
Cu0 Cu2 2.551191 1_555
Cu0 Cu3 2.557270 1_655
Cu0 Cu1 2.557270 1_556
Cu0 Cu2 2.557270 1_565
Cu0 Yb0 2.994777 1_655
Cu0 Yb0 2.994777 1_565
Cu0 Yb0 2.994777 1_556
Cu0 Tl0 2.995426 1_566
Cu0 Tl0 2.995426 1_665
Cu0 Tl0 2.995426 1_656
Cu1 Cu3 2.551191 1_555
Cu1 Cu2 2.551191 1_555
Cu1 Cu2 2.557270 1_564
Cu1 Cu3 2.557270 1_654
Cu1 Yb0 2.994775 1_555
Cu1 Yb0 2.994779 1_655
Cu1 Yb0 2.994779 1_565
Cu1 Tl0 2.995424 1_655
Cu1 Tl0 2.995424 1_565
Cu1 Tl0 2.995429 1_665
Cu2 Cu3 2.551191 1_555
Cu2 Cu3 2.557270 1_645
Cu2 Yb0 2.994775 1_555
Cu2 Yb0 2.994779 1_556
Cu2 Yb0 2.994779 1_655
Cu2 Tl0 2.995424 1_655
Cu2 Tl0 2.995424 1_556
Cu2 Tl0 2.995429 1_656
Cu3 Yb0 2.994775 1_555
Cu3 Yb0 2.994779 1_556
Cu3 Yb0 2.994779 1_565
Cu3 Tl0 2.995424 1_556
Cu3 Tl0 2.995424 1_565
Cu3 Tl0 2.995429 1_566
