# generated using pymatgen
data_Er4MgZr4O14
_symmetry_space_group_name_H-M   'P 1'
_cell_length_a   3.47523886
_cell_length_b   15.36448021
_cell_length_c   13.26055704
_cell_angle_alpha   30.33742931
_cell_angle_beta   58.38916757
_cell_angle_gamma   63.10394705
_symmetry_Int_Tables_number   1
_chemical_formula_structural   Er4MgZr4O14
_chemical_formula_sum   'Er4 Mg1 Zr4 O14'
_cell_volume   304.56798697
_cell_formula_units_Z   1
loop_
 _symmetry_equiv_pos_site_id
 _symmetry_equiv_pos_as_xyz
  1  'x, y, z'
loop_
 _atom_site_type_symbol
 _atom_site_label
 _atom_site_symmetry_multiplicity
 _atom_site_fract_x
 _atom_site_fract_y
 _atom_site_fract_z
 _atom_site_occupancy
  Er  Er0  1  0.99129100  0.22804300  0.02631200  1
  Er  Er1  1  0.94230500  0.00000000  0.52884700  1
  Er  Er2  1  0.99129100  0.77195700  0.48239700  1
  Er  Er3  1  0.97827500  0.50000000  0.51086300  1
  Mg  Mg0  1  0.63096600  0.50000000  0.18451700  1
  Zr  Zr0  1  0.96913200  0.00000000  0.01543400  1
  Zr  Zr1  1  0.13372500  0.50000000  0.93313700  1
  Zr  Zr2  1  0.94464900  0.21417200  0.56350300  1
  Zr  Zr3  1  0.94464900  0.78582800  0.99184800  1
  O  O0  1  0.24979200  0.00000000  0.12510400  1
  O  O1  1  0.21217700  0.23085900  0.16305300  1
  O  O2  1  0.19458700  0.00000000  0.65270600  1
  O  O3  1  0.41607800  0.50000000  0.04196100  1
  O  O4  1  0.19139900  0.24408100  0.66021900  1
  O  O5  1  0.19139900  0.75591900  0.14838200  1
  O  O6  1  0.66375500  0.25175500  0.41636800  1
  O  O7  1  0.71391900  0.00000000  0.89304100  1
  O  O8  1  0.91920800  0.50000000  0.29039700  1
  O  O9  1  0.72968400  0.27617100  0.85898600  1
  O  O10  1  0.72968400  0.72382900  0.41133000  1
  O  O11  1  0.21217700  0.76914100  0.62477000  1
  O  O12  1  0.88610400  0.50000000  0.80694800  1
  O  O13  1  0.66375500  0.74824500  0.91987700  1
loop_
_geom_bond_atom_site_label_1
_geom_bond_atom_site_label_2
_geom_bond_distance
_geom_bond_site_symmetry_2
Er0 O12 2.192494 1_554
Er0 O9 2.229528 1_654
Er0 O9 2.229545 1_554
Er0 O0 2.294005 1_655
Er0 O1 2.345987 1_555
Er0 O1 2.345987 1_655
Er1 O2 2.230653 1_555
Er1 O2 2.230654 1_655
Er1 O1 2.351976 1_655
Er1 O11 2.351984 1_645
Er1 O13 2.508170 1_545
Er1 O6 2.508177 1_555
Er2 O12 2.192497 1_555
Er2 O10 2.229508 1_555
Er2 O10 2.229524 1_655
Er2 O0 2.293998 1_665
Er2 O11 2.345987 1_555
Er2 O11 2.345987 1_655
Er3 O9 2.233269 1_555
Er3 O10 2.233283 1_555
Er3 O5 2.322197 1_655
Er3 O4 2.322203 1_655
Mg0 O6 1.935373 1_555
Mg0 O13 1.935374 1_554
Mg0 O8 2.109269 1_455
Mg0 O8 2.109281 1_555
Mg0 O3 2.368771 1_655
Mg0 O3 2.368772 1_555
O0 Zr0 2.133829 1_555
O0 Zr0 2.133830 1_455
O1 Zr1 2.135117 1_554
O2 Zr2 2.180416 1_455
O2 Zr3 2.180423 1_445
O3 Zr1 2.128295 1_654
O3 Zr1 2.128301 1_554
O4 Zr2 2.262310 1_555
O4 Zr2 2.262311 1_455
O4 Zr0 2.272237 1_456
O5 Zr3 2.262310 1_554
O5 Zr3 2.262311 1_454
O5 Zr0 2.272231 1_465
O6 Zr2 2.152899 1_555
O6 Zr2 2.152909 1_455
O7 Zr3 2.111834 1_545
O7 Zr2 2.111841 1_555
O7 Zr0 2.220307 1_556
O7 Zr0 2.220312 1_456
O8 Zr3 2.222807 1_554
O8 Zr2 2.222807 1_555
O9 Zr0 2.534045 1_556
O10 Zr0 2.534057 1_565
O11 Zr1 2.135119 1_555
O12 Zr1 2.247244 1_655
O12 Zr1 2.247249 1_555
O13 Zr3 2.152911 1_455
O13 Zr3 2.152923 1_555
