# generated using pymatgen
data_CeZnAgAs2
_symmetry_space_group_name_H-M   'P 1'
_cell_length_a   4.33049776
_cell_length_b   4.33049776
_cell_length_c   6.91345500
_cell_angle_alpha   90.00000000
_cell_angle_beta   90.00000000
_cell_angle_gamma   119.99999631
_symmetry_Int_Tables_number   1
_chemical_formula_structural   CeZnAgAs2
_chemical_formula_sum   'Ce1 Zn1 Ag1 As2'
_cell_volume   112.27974676
_cell_formula_units_Z   1
loop_
 _symmetry_equiv_pos_site_id
 _symmetry_equiv_pos_as_xyz
  1  'x, y, z'
loop_
 _atom_site_type_symbol
 _atom_site_label
 _atom_site_symmetry_multiplicity
 _atom_site_fract_x
 _atom_site_fract_y
 _atom_site_fract_z
 _atom_site_occupancy
  Ce  Ce0  1  0.33333300  0.66666700  0.99157600  1
  Zn  Zn0  1  0.00000000  0.00000000  0.37198000  1
  Ag  Ag0  1  0.66666700  0.33333300  0.63731300  1
  As  As0  1  0.66666700  0.33333300  0.24348200  1
  As  As1  1  0.00000000  0.00000000  0.75565000  1
loop_
_geom_bond_atom_site_label_1
_geom_bond_atom_site_label_2
_geom_bond_distance
_geom_bond_site_symmetry_2
Ag0 As1 2.630660 1_655
Ag0 As1 2.630664 1_555
Ag0 As1 2.630664 1_665
Ag0 As0 2.722733 1_555
Ag0 Zn0 3.100962 1_655
Ag0 Zn0 3.100965 1_665
Ag0 Zn0 3.100965 1_555
Ag0 Ce0 3.499935 1_545
Ag0 Ce0 3.499935 1_655
Ag0 Ce0 3.499941 1_555
As0 Zn0 2.653347 1_655
As0 Zn0 2.653351 1_555
As0 Zn0 2.653351 1_665
As0 Ce0 3.046969 1_544
As0 Ce0 3.046969 1_654
As0 Ce0 3.046975 1_554
As1 Zn0 2.652485 1_555
As1 Ce0 2.985201 1_545
As1 Ce0 2.985205 1_445
As1 Ce0 2.985205 1_555
