# generated using pymatgen
data_Sr3(MoN2)2
_symmetry_space_group_name_H-M   'P 1'
_cell_length_a   6.00089658
_cell_length_b   10.56397962
_cell_length_c   9.81565319
_cell_angle_alpha   90.00000000
_cell_angle_beta   90.00000000
_cell_angle_gamma   90.00000000
_symmetry_Int_Tables_number   1
_chemical_formula_structural   Sr3(MoN2)2
_chemical_formula_sum   'Sr12 Mo8 N16'
_cell_volume   622.24713003
_cell_formula_units_Z   4
loop_
 _symmetry_equiv_pos_site_id
 _symmetry_equiv_pos_as_xyz
  1  'x, y, z'
loop_
 _atom_site_type_symbol
 _atom_site_label
 _atom_site_symmetry_multiplicity
 _atom_site_fract_x
 _atom_site_fract_y
 _atom_site_fract_z
 _atom_site_occupancy
  Sr  Sr0  1  0.62157909  0.15844316  0.41945541  1
  Sr  Sr1  1  0.87842091  0.84155684  0.41945541  1
  Sr  Sr2  1  0.62157909  0.34155684  0.08054459  1
  Sr  Sr3  1  0.87842091  0.65844316  0.08054459  1
  Sr  Sr4  1  0.37842091  0.84155684  0.58054459  1
  Sr  Sr5  1  0.12157909  0.15844316  0.58054459  1
  Sr  Sr6  1  0.37842091  0.65844316  0.91945541  1
  Sr  Sr7  1  0.12157909  0.34155684  0.91945541  1
  Sr  Sr8  1  0.75000000  0.50000000  0.39970981  1
  Sr  Sr9  1  0.75000000  -0.00000000  0.10029019  1
  Sr  Sr10  1  0.25000000  0.50000000  0.60029019  1
  Sr  Sr11  1  0.25000000  0.00000000  0.89970981  1
  Mo  Mo0  1  0.75000000  0.50000000  0.73667169  1
  Mo  Mo1  1  0.75000000  -0.00000000  0.76332831  1
  Mo  Mo2  1  0.25000000  0.50000000  0.26332831  1
  Mo  Mo3  1  0.25000000  -0.00000000  0.23667169  1
  Mo  Mo4  1  0.63629839  0.25000000  0.75000000  1
  Mo  Mo5  1  0.86370161  0.75000000  0.75000000  1
  Mo  Mo6  1  0.36370161  0.75000000  0.25000000  1
  Mo  Mo7  1  0.13629839  0.25000000  0.25000000  1
  N  N0  1  0.84773064  0.34921644  0.62670634  1
  N  N1  1  0.65226936  0.65078356  0.62670634  1
  N  N2  1  0.84773064  0.15078356  0.87329366  1
  N  N3  1  0.65226936  0.84921644  0.87329366  1
  N  N4  1  0.15226936  0.65078356  0.37329366  1
  N  N5  1  0.34773064  0.34921644  0.37329366  1
  N  N6  1  0.15226936  0.84921644  0.12670634  1
  N  N7  1  0.34773064  0.15078356  0.12670634  1
  N  N8  1  0.50877557  0.41655040  0.83901695  1
  N  N9  1  0.99122443  0.58344960  0.83901695  1
  N  N10  1  0.50877557  0.08344960  0.66098305  1
  N  N11  1  0.99122443  0.91655040  0.66098305  1
  N  N12  1  0.49122443  0.58344960  0.16098305  1
  N  N13  1  0.00877557  0.41655040  0.16098305  1
  N  N14  1  0.49122443  0.91655040  0.33901695  1
  N  N15  1  0.00877557  0.08344960  0.33901695  1
loop_
_geom_bond_atom_site_label_1
_geom_bond_atom_site_label_2
_geom_bond_distance
_geom_bond_site_symmetry_2
Mo0 N8 1.970223 1_555
Mo0 N9 1.970223 1_555
Mo0 N0 2.011532 1_555
Mo0 N1 2.011532 1_555
Mo1 N10 1.970223 1_555
Mo1 N11 1.970223 1_545
Mo1 N3 2.011532 1_545
Mo1 N2 2.011532 1_555
Mo2 N13 1.970223 1_555
Mo2 N12 1.970223 1_555
Mo2 N5 2.011532 1_555
Mo2 N4 2.011532 1_555
Mo3 N15 1.970223 1_555
Mo3 N14 1.970223 1_545
Mo3 N6 2.011532 1_545
Mo3 N7 2.011532 1_555
Mo4 N0 2.042785 1_555
Mo4 N2 2.042785 1_555
Mo4 N10 2.108240 1_555
Mo4 N8 2.108240 1_555
Mo5 N1 2.042785 1_555
Mo5 N3 2.042785 1_555
Mo5 N9 2.108240 1_555
Mo5 N11 2.108240 1_555
Mo6 N4 2.042785 1_555
Mo6 N6 2.042785 1_555
Mo6 N12 2.108240 1_555
Mo6 N14 2.108240 1_555
Mo7 N7 2.042785 1_555
Mo7 N5 2.042785 1_555
Mo7 N13 2.108240 1_555
Mo7 N15 2.108240 1_555
N0 Sr5 2.639582 1_655
N0 Sr8 2.801020 1_555
N0 Sr10 2.903750 1_655
N0 Sr0 3.168861 1_555
N0 Sr7 3.311229 1_655
N1 Sr4 2.639582 1_555
N1 Sr8 2.801020 1_555
N1 Sr10 2.903750 1_555
N1 Sr1 3.168861 1_555
N1 Sr6 3.311229 1_555
N2 Sr7 2.639582 1_655
N2 Sr9 2.801020 1_556
N2 Sr11 2.903750 1_655
N2 Sr2 3.168861 1_556
N2 Sr5 3.311229 1_655
N3 Sr6 2.639582 1_555
N3 Sr9 2.801020 1_566
N3 Sr11 2.903750 1_565
N3 Sr3 3.168861 1_556
N3 Sr4 3.311229 1_555
N4 Sr1 2.639582 1_455
N4 Sr10 2.801020 1_555
N4 Sr8 2.903750 1_455
N4 Sr4 3.168861 1_555
N4 Sr3 3.311229 1_455
N5 Sr0 2.639582 1_555
N5 Sr10 2.801020 1_555
N5 Sr8 2.903750 1_555
N5 Sr5 3.168861 1_555
N5 Sr2 3.311229 1_555
N6 Sr3 2.639582 1_455
N6 Sr11 2.801020 1_564
N6 Sr9 2.903750 1_465
N6 Sr6 3.168861 1_554
N6 Sr1 3.311229 1_455
N7 Sr2 2.639582 1_555
N7 Sr11 2.801020 1_554
N7 Sr9 2.903750 1_555
N7 Sr7 3.168861 1_554
N7 Sr0 3.311229 1_555
N8 Sr7 2.578721 1_555
N8 Sr2 2.589656 1_556
N8 Sr6 2.786597 1_555
N8 Sr10 2.946093 1_555
N9 Sr6 2.578721 1_655
N9 Sr3 2.589656 1_556
N9 Sr7 2.786597 1_655
N9 Sr10 2.946093 1_655
N10 Sr5 2.578721 1_555
N10 Sr0 2.589656 1_555
N10 Sr4 2.786597 1_545
N10 Sr11 2.946093 1_555
N11 Sr4 2.578721 1_655
N11 Sr1 2.589656 1_555
N11 Sr5 2.786597 1_665
N11 Sr11 2.946093 1_665
N12 Sr3 2.578721 1_555
N12 Sr6 2.589656 1_554
N12 Sr2 2.786597 1_555
N12 Sr8 2.946093 1_555
N13 Sr2 2.578721 1_455
N13 Sr7 2.589656 1_554
N13 Sr3 2.786597 1_455
N13 Sr8 2.946093 1_455
N14 Sr1 2.578721 1_555
N14 Sr4 2.589656 1_555
N14 Sr0 2.786597 1_565
N14 Sr9 2.946093 1_565
N15 Sr0 2.578721 1_455
N15 Sr5 2.589656 1_555
N15 Sr1 2.786597 1_445
N15 Sr9 2.946093 1_455
