# generated using pymatgen
data_Li4Mn2Fe3Sn(PO4)6
_symmetry_space_group_name_H-M   'P 1'
_cell_length_a   8.58928000
_cell_length_b   8.67178212
_cell_length_c   8.69216645
_cell_angle_alpha   62.84918351
_cell_angle_beta   63.34249557
_cell_angle_gamma   63.38517803
_symmetry_Int_Tables_number   1
_chemical_formula_structural   Li4Mn2Fe3Sn(PO4)6
_chemical_formula_sum   'Li4 Mn2 Fe3 Sn1 P6 O24'
_cell_volume   490.17450799
_cell_formula_units_Z   1
loop_
 _symmetry_equiv_pos_site_id
 _symmetry_equiv_pos_as_xyz
  1  'x, y, z'
loop_
 _atom_site_type_symbol
 _atom_site_label
 _atom_site_symmetry_multiplicity
 _atom_site_fract_x
 _atom_site_fract_y
 _atom_site_fract_z
 _atom_site_occupancy
  Li  Li0  1  0.25428000  0.64936000  0.84809700  1
  Li  Li1  1  0.70793100  0.35571700  0.15155600  1
  Li  Li2  1  0.35769500  0.15074100  0.71235800  1
  Li  Li3  1  0.14984500  0.70645700  0.35843500  1
  Mn  Mn0  1  0.97976300  0.00039100  0.99411500  1
  Mn  Mn1  1  0.51450600  0.50101800  0.49620000  1
  Fe  Fe0  1  0.84946800  0.85232000  0.84903300  1
  Fe  Fe1  1  0.65173500  0.64950500  0.64474400  1
  Fe  Fe2  1  0.34789900  0.34363400  0.35138700  1
  Sn  Sn0  1  0.14848200  0.14816700  0.15398900  1
  P  P0  1  0.75379900  0.05022400  0.45059300  1
  P  P1  1  0.44169600  0.75067900  0.05098300  1
  P  P2  1  0.05788300  0.45075600  0.75604500  1
  P  P3  1  0.94708800  0.55746400  0.25328100  1
  P  P4  1  0.55556400  0.25573400  0.94548600  1
  P  P5  1  0.25485100  0.94464900  0.55851800  1
  O  O0  1  0.89365200  0.48998100  0.70573400  1
  O  O1  1  0.69218500  0.89913800  0.47762500  1
  O  O2  1  0.94875600  0.73413400  0.08694100  1
  O  O3  1  0.44811900  0.69724900  0.90247900  1
  O  O4  1  0.98895700  0.39296900  0.19248100  1
  O  O5  1  0.75788200  0.57180000  0.39745300  1
  O  O6  1  0.73933000  0.10322400  0.92267800  1
  O  O7  1  0.54665500  0.41584000  0.76526000  1
  O  O8  1  0.82863100  0.01419000  0.59495300  1
  O  O9  1  0.39930700  0.75307300  0.57450400  1
  O  O10  1  0.90466500  0.08063600  0.24838200  1
  O  O11  1  0.59983600  0.81418200  0.00318000  1
  O  O12  1  0.39395300  0.18597300  0.99035900  1
  O  O13  1  0.10331200  0.92301600  0.74623200  1
  O  O14  1  0.60363100  0.24438000  0.42610400  1
  O  O15  1  0.19089700  0.98520000  0.39748200  1
  O  O16  1  0.42558500  0.59748000  0.24358700  1
  O  O17  1  0.24384100  0.90482800  0.08773300  1
  O  O18  1  0.24778600  0.42128600  0.60206600  1
  O  O19  1  0.04460100  0.59395800  0.82091300  1
  O  O20  1  0.52751100  0.31703400  0.09945200  1
  O  O21  1  0.07975900  0.24957800  0.90907000  1
  O  O22  1  0.32128800  0.09664800  0.52792500  1
  O  O23  1  0.09737300  0.52438500  0.32559200  1
loop_
_geom_bond_atom_site_label_1
_geom_bond_atom_site_label_2
_geom_bond_distance
_geom_bond_site_symmetry_2
Li0 O9 2.099909 1_555
Li0 O13 2.110071 1_555
Li0 O3 2.161660 1_555
Li0 O19 2.188820 1_555
Li0 O7 2.465269 1_555
Li0 O2 2.552032 1_456
Li1 O20 1.988301 1_555
Li1 O14 2.045358 1_555
Li1 O10 2.255282 1_555
Li1 O16 2.480123 1_555
Li2 O18 2.022230 1_555
Li2 O22 2.038483 1_555
Li2 O21 2.280084 1_555
Li2 O14 2.507834 1_555
Li3 O23 1.985426 1_555
Li3 O16 2.057442 1_555
Li3 O17 2.234530 1_555
Li3 O18 2.502548 1_555
Mn0 O6 2.107339 1_555
Mn0 O2 2.170470 1_546
Mn0 O13 2.201956 1_645
Mn0 O10 2.346750 1_556
Mn0 O21 2.364094 1_655
Mn0 O17 2.418768 1_646
Mn1 O5 2.131232 1_555
Mn1 O7 2.216203 1_555
Mn1 O9 2.244007 1_555
Mn1 O14 2.280945 1_555
Mn1 O16 2.315269 1_555
Mn1 O18 2.349490 1_555
Fe0 O11 2.038406 1_556
Fe0 O8 2.044540 1_565
Fe0 O19 2.157829 1_655
Fe0 O13 2.208536 1_655
Fe0 O2 2.217900 1_556
Fe0 O6 2.218628 1_565
Fe1 O0 2.063012 1_555
Fe1 O1 2.065933 1_555
Fe1 O9 2.196134 1_555
Fe1 O7 2.206989 1_555
Fe1 O5 2.217791 1_555
Fe1 O3 2.220584 1_555
Fe2 O22 2.029434 1_555
Fe2 O23 2.056134 1_555
Fe2 O20 2.083134 1_555
Fe2 O16 2.245321 1_555
Fe2 O14 2.250204 1_555
Fe2 O18 2.253821 1_555
O0 P2 1.511513 1_655
O1 P0 1.510157 1_565
O2 P3 1.554759 1_555
O3 P1 1.530682 1_556
O4 P3 1.581545 1_555
O4 Sn0 2.031417 1_655
O5 P3 1.536455 1_555
O6 P4 1.538810 1_555
O7 P4 1.554003 1_555
O8 P0 1.507049 1_555
O9 P5 1.554315 1_555
O10 P0 1.636298 1_555
O10 Sn0 2.126111 1_655
O11 P1 1.508585 1_555
O12 P4 1.579937 1_555
O12 Sn0 2.019591 1_556
O13 P5 1.557363 1_555
O14 P0 1.586586 1_555
O15 P5 1.566000 1_555
O15 Sn0 2.027351 1_565
O16 P1 1.585498 1_555
O17 P1 1.626097 1_555
O17 Sn0 2.143056 1_565
O18 P2 1.580183 1_555
O19 P2 1.525592 1_555
O20 P4 1.541701 1_554
O21 P2 1.631188 1_555
O21 Sn0 2.146565 1_556
O22 P5 1.533496 1_545
O23 P3 1.541209 1_455
