# generated using pymatgen
data_CaLa2Co2Sb2(PbO6)2
_symmetry_space_group_name_H-M   'P 1'
_cell_length_a   5.72089711
_cell_length_b   5.96947881
_cell_length_c   9.74625231
_cell_angle_alpha   102.04824925
_cell_angle_beta   92.17787482
_cell_angle_gamma   88.46830420
_symmetry_Int_Tables_number   1
_chemical_formula_structural   CaLa2Co2Sb2(PbO6)2
_chemical_formula_sum   'Ca1 La2 Co2 Sb2 Pb2 O12'
_cell_volume   325.21496657
_cell_formula_units_Z   1
loop_
 _symmetry_equiv_pos_site_id
 _symmetry_equiv_pos_as_xyz
  1  'x, y, z'
loop_
 _atom_site_type_symbol
 _atom_site_label
 _atom_site_symmetry_multiplicity
 _atom_site_fract_x
 _atom_site_fract_y
 _atom_site_fract_z
 _atom_site_occupancy
  Ca  Ca0  1  0.05230200  0.15539000  0.62011700  1
  La  La0  1  0.49684900  0.57567300  0.65575100  1
  La  La1  1  0.01092200  0.97155800  0.24951000  1
  Co  Co0  1  0.01042700  0.55463300  0.46291700  1
  Co  Co1  1  0.47927200  0.91991700  0.04733000  1
  Sb  Sb0  1  0.99604400  0.39513400  0.04174300  1
  Sb  Sb1  1  0.52161300  0.02601300  0.46728300  1
  Pb  Pb0  1  0.52122500  0.43866500  0.25876200  1
  Pb  Pb1  1  0.98276200  0.85462200  0.85175700  1
  O  O0  1  0.55206900  0.89806900  0.26208500  1
  O  O1  1  0.07984800  0.54306100  0.67662300  1
  O  O2  1  0.47376800  0.18782400  0.66546600  1
  O  O3  1  0.97427200  0.56272800  0.24445700  1
  O  O4  1  0.26771800  0.81100000  0.49042300  1
  O  O5  1  0.62864600  0.73494300  0.88047500  1
  O  O6  1  0.76590600  0.26813000  0.45569800  1
  O  O7  1  0.26624200  0.20603800  0.09297000  1
  O  O8  1  0.25819300  0.24706500  0.41967100  1
  O  O9  1  0.77165700  0.15320100  0.10045400  1
  O  O10  1  0.76809500  0.82243400  0.53086500  1
  O  O11  1  0.16978800  0.73640300  0.03397500  1
loop_
_geom_bond_atom_site_label_1
_geom_bond_atom_site_label_2
_geom_bond_distance
_geom_bond_site_symmetry_2
Ca0 O1 2.272546 1_555
Ca0 O6 2.428385 1_455
Ca0 O2 2.440242 1_555
Ca0 O8 2.481755 1_555
Ca0 O4 2.498209 1_545
Ca0 O10 2.587321 1_445
Ca0 Pb1 3.205825 1_445
La0 O5 2.304992 1_555
La0 O2 2.344275 1_555
La0 O1 2.418410 1_555
La0 O4 2.640846 1_555
La0 O10 2.659620 1_555
La0 O6 2.850260 1_555
La0 O8 3.004389 1_555
La0 O1 3.336706 1_655
La1 O9 2.363674 1_465
La1 O3 2.445165 1_455
La1 O11 2.460725 1_555
La1 O8 2.502749 1_565
La1 O0 2.684553 1_455
La1 O7 2.755112 1_565
La1 O6 2.780930 1_465
La1 O4 3.031836 1_555
La1 O0 3.116527 1_555
Co0 O10 2.103687 1_455
Co0 O1 2.120476 1_555
Co0 O4 2.121244 1_555
Co0 O3 2.141825 1_455
Co0 O6 2.226440 1_455
Co0 O8 2.267374 1_555
Co1 O5 1.974745 1_554
Co1 O7 2.052593 1_565
Co1 O11 2.092471 1_555
Co1 O0 2.148521 1_555
Co1 O9 2.182431 1_565
O0 Sb1 1.998759 1_565
O0 Pb0 2.746145 1_555
O1 Pb1 2.317887 1_455
O2 Sb1 1.996485 1_555
O3 Sb0 2.026495 1_555
O3 Pb0 2.731064 1_555
O4 Sb1 2.013321 1_565
O5 Pb1 2.212871 1_555
O6 Sb1 2.059854 1_555
O6 Pb0 2.686102 1_555
O7 Sb0 1.999058 1_455
O7 Pb0 2.379001 1_555
O8 Sb1 2.079375 1_555
O8 Pb0 2.655589 1_555
O9 Sb0 2.135647 1_555
O9 Pb0 2.505376 1_555
O10 Sb1 2.001402 1_565
O11 Pb1 2.266104 1_454
O11 Sb0 2.307000 1_455
