# generated using pymatgen
data_Zn3Co4(SbO6)2
_symmetry_space_group_name_H-M   'P 1'
_cell_length_a   6.14803757
_cell_length_b   8.51769651
_cell_length_c   10.28400926
_cell_angle_alpha   113.09651038
_cell_angle_beta   105.80122817
_cell_angle_gamma   92.70058446
_symmetry_Int_Tables_number   1
_chemical_formula_structural   Zn3Co4(SbO6)2
_chemical_formula_sum   'Zn6 Co8 Sb4 O24'
_cell_volume   469.39346155
_cell_formula_units_Z   2
loop_
 _symmetry_equiv_pos_site_id
 _symmetry_equiv_pos_as_xyz
  1  'x, y, z'
loop_
 _atom_site_type_symbol
 _atom_site_label
 _atom_site_symmetry_multiplicity
 _atom_site_fract_x
 _atom_site_fract_y
 _atom_site_fract_z
 _atom_site_occupancy
  Zn  Zn0  1  0.88543958  0.79817390  0.82145354  1
  Zn  Zn1  1  0.55741959  0.45648555  0.16536900  1
  Zn  Zn2  1  0.22554719  0.14018046  0.49539057  1
  Zn  Zn3  1  0.44258041  0.54351445  0.83463100  1
  Zn  Zn4  1  0.11456042  0.20182610  0.17854646  1
  Zn  Zn5  1  0.77445281  0.85981954  0.50460943  1
  Co  Co0  1  0.66617659  0.16843713  0.33129700  1
  Co  Co1  1  0.33382341  0.83156287  0.66870300  1
  Co  Co2  1  0.83117510  0.32560279  0.65258118  1
  Co  Co3  1  0.50000000  0.00000000  0.00000000  1
  Co  Co4  1  0.16882490  0.67439721  0.34741882  1
  Co  Co5  1  0.65553196  0.15219090  0.82435287  1
  Co  Co6  1  0.34446804  0.84780910  0.17564713  1
  Co  Co7  1  0.00000000  0.50000000  0.50000000  1
  Sb  Sb0  1  0.00000000  0.50000000  0.00000000  1
  Sb  Sb1  1  0.16554349  0.15867252  0.82721487  1
  Sb  Sb2  1  0.83445651  0.84132748  0.17278513  1
  Sb  Sb3  1  0.50000000  0.50000000  0.50000000  1
  O  O0  1  0.47177457  0.24124532  0.98056437  1
  O  O1  1  0.14513173  0.90412969  0.31884256  1
  O  O2  1  0.81019771  0.56947198  0.65265620  1
  O  O3  1  0.32259366  0.09237299  0.67647197  1
  O  O4  1  -0.00542876  0.74146576  0.00972322  1
  O  O5  1  0.66289869  0.42588912  0.34733704  1
  O  O6  1  0.63633583  0.92579412  0.83370477  1
  O  O7  1  0.29642308  0.59148828  0.15963464  1
  O  O8  1  0.97109226  0.26619492  0.49131215  1
  O  O9  1  0.16826415  0.93454678  0.83809899  1
  O  O10  1  0.84344366  0.58990436  0.15891942  1
  O  O11  1  0.50493584  0.26433874  0.49625889  1
  O  O12  1  0.85486827  0.09587031  0.68115744  1
  O  O13  1  0.52822543  0.75875468  0.01943563  1
  O  O14  1  0.18980229  0.43052802  0.34734380  1
  O  O15  1  0.00542876  0.25853424  0.99027678  1
  O  O16  1  0.67740634  0.90762701  0.32352803  1
  O  O17  1  0.33710131  0.57411088  0.65266296  1
  O  O18  1  0.70357692  0.40851172  0.84036536  1
  O  O19  1  0.36366417  0.07420588  0.16629523  1
  O  O20  1  0.02890774  0.73380508  0.50868785  1
  O  O21  1  0.15655634  0.41009564  0.84108058  1
  O  O22  1  0.83173585  0.06545322  0.16190101  1
  O  O23  1  0.49506416  0.73566126  0.50374111  1
loop_
_geom_bond_atom_site_label_1
_geom_bond_atom_site_label_2
_geom_bond_distance
_geom_bond_site_symmetry_2
Co0 O8 2.003350 1_555
Co0 O19 2.013636 1_555
Co0 O11 2.105452 1_555
Co0 O5 2.135086 1_555
Co0 O22 2.165924 1_555
Co0 O16 2.196457 1_545
Co1 O20 2.003350 1_555
Co1 O6 2.013636 1_555
Co1 O23 2.105452 1_555
Co1 O17 2.135086 1_555
Co1 O9 2.165924 1_555
Co1 O3 2.196457 1_565
Co2 O8 1.976405 1_555
Co2 O2 2.086972 1_555
Co2 O11 2.089704 1_555
Co2 O12 2.095551 1_555
Co2 O18 2.156579 1_555
Co2 O21 2.221598 1_655
Co3 O19 2.002331 1_555
Co3 O6 2.002331 1_544
Co3 O22 2.134924 1_555
Co3 O9 2.134924 1_544
Co3 O13 2.151612 1_545
Co3 O0 2.151612 1_554
Co4 O20 1.976405 1_555
Co4 O14 2.086972 1_555
Co4 O23 2.089704 1_555
Co4 O1 2.095551 1_555
Co4 O7 2.156579 1_555
Co4 O10 2.221598 1_455
Co5 O6 1.967757 1_545
Co5 O3 2.088251 1_555
Co5 O12 2.093963 1_555
Co5 O18 2.124070 1_555
Co5 O0 2.132041 1_555
Co5 O15 2.228093 1_655
Co6 O19 1.967757 1_565
Co6 O16 2.088251 1_555
Co6 O1 2.093963 1_555
Co6 O7 2.124070 1_555
Co6 O13 2.132041 1_555
Co6 O4 2.228093 1_555
Co7 O20 1.955496 1_555
Co7 O8 1.955496 1_455
Co7 O5 2.117966 1_455
Co7 O17 2.117966 1_555
Co7 O14 2.123768 1_555
Co7 O2 2.123768 1_455
O0 Zn1 1.969976 1_556
O0 Sb1 1.978480 1_555
O1 Sb2 1.975210 1_455
O1 Zn2 2.033933 1_565
O2 Zn0 1.961336 1_555
O2 Sb3 1.996529 1_555
O3 Sb1 1.958101 1_555
O3 Zn2 2.000623 1_555
O4 Sb0 2.021928 1_555
O4 Sb2 2.088887 1_455
O4 Zn0 2.118731 1_454
O5 Zn1 1.930828 1_555
O5 Sb3 2.001172 1_555
O6 Zn0 1.922891 1_555
O7 Sb0 1.963852 1_555
O7 Zn1 2.018939 1_555
O8 Zn2 1.938816 1_655
O9 Sb1 1.956236 1_565
O9 Zn0 1.973226 1_455
O10 Sb0 2.031779 1_655
O10 Zn1 2.079055 1_555
O10 Sb2 2.094149 1_555
O11 Zn2 1.970279 1_555
O11 Sb3 1.994343 1_555
O12 Sb1 1.975210 1_655
O12 Zn5 2.033933 1_545
O13 Zn3 1.969976 1_554
O13 Sb2 1.978480 1_555
O14 Zn4 1.961336 1_555
O14 Sb3 1.996529 1_555
O15 Sb0 2.021928 1_556
O15 Sb1 2.088887 1_555
O15 Zn4 2.118731 1_556
O16 Sb2 1.958101 1_555
O16 Zn5 2.000623 1_555
O17 Zn3 1.930828 1_555
O17 Sb3 2.001172 1_555
O18 Sb0 1.963852 1_656
O18 Zn3 2.018939 1_555
O19 Zn4 1.922891 1_555
O20 Zn5 1.938816 1_455
O21 Sb0 2.031779 1_556
O21 Zn3 2.079055 1_555
O21 Sb1 2.094149 1_555
O22 Sb2 1.956236 1_545
O22 Zn4 1.973226 1_655
O23 Zn5 1.970279 1_555
O23 Sb3 1.994343 1_555
