# generated using pymatgen
data_Ba2SrV2O8
_symmetry_space_group_name_H-M   'P 1'
_cell_length_a   7.81954417
_cell_length_b   7.81954417
_cell_length_c   7.81954461
_cell_angle_alpha   43.91679323
_cell_angle_beta   43.91679323
_cell_angle_gamma   43.91679990
_symmetry_Int_Tables_number   1
_chemical_formula_structural   Ba2SrV2O8
_chemical_formula_sum   'Ba2 Sr1 V2 O8'
_cell_volume   208.89082175
_cell_formula_units_Z   1
loop_
 _symmetry_equiv_pos_site_id
 _symmetry_equiv_pos_as_xyz
  1  'x, y, z'
loop_
 _atom_site_type_symbol
 _atom_site_label
 _atom_site_symmetry_multiplicity
 _atom_site_fract_x
 _atom_site_fract_y
 _atom_site_fract_z
 _atom_site_occupancy
  Ba  Ba0  1  0.20391600  0.20391600  0.20391600  1
  Ba  Ba1  1  0.00023100  0.00023100  0.00023100  1
  Sr  Sr0  1  0.79502000  0.79502000  0.79502000  1
  V  V0  1  0.59274600  0.59274600  0.59274600  1
  V  V1  1  0.40807000  0.40807000  0.40807000  1
  O  O0  1  0.67530700  0.67530700  0.67530700  1
  O  O1  1  0.32661700  0.32661700  0.32661700  1
  O  O2  1  0.23975900  0.72621100  0.72621100  1
  O  O3  1  0.72621100  0.72621100  0.23975900  1
  O  O4  1  0.72621100  0.23975900  0.72621100  1
  O  O5  1  0.76114400  0.27238400  0.27238400  1
  O  O6  1  0.27238400  0.27238400  0.76114400  1
  O  O7  1  0.27238400  0.76114400  0.27238400  1
loop_
_geom_bond_atom_site_label_1
_geom_bond_atom_site_label_2
_geom_bond_distance
_geom_bond_site_symmetry_2
Ba0 O1 2.596253 1_555
Ba0 O5 2.762692 1_455
Ba0 O7 2.762692 1_545
Ba0 O6 2.762692 1_554
Ba0 O4 2.978863 1_554
Ba0 O2 2.978863 1_554
Ba0 O2 2.978863 1_545
Ba0 O4 2.978863 1_455
Ba0 O3 2.978863 1_455
Ba0 O3 2.978863 1_545
Ba1 O6 2.759295 1_554
Ba1 O7 2.759296 1_545
Ba1 O5 2.759296 1_455
Ba1 O3 2.782303 1_445
Ba1 O4 2.782303 1_454
Ba1 O2 2.782303 1_544
O0 V0 1.746923 1_555
O0 Sr0 2.533029 1_555
O1 V1 1.723479 1_555
O2 V0 1.750988 1_555
O2 Sr0 2.774637 1_455
O3 V0 1.750988 1_555
O3 Sr0 2.774637 1_554
O4 V0 1.750988 1_555
O4 Sr0 2.774637 1_545
O5 V1 1.747934 1_555
O5 Sr0 2.977041 1_554
O5 Sr0 2.977041 1_545
O6 V1 1.747934 1_555
O6 Sr0 2.977041 1_455
O6 Sr0 2.977041 1_545
O7 V1 1.747934 1_555
O7 Sr0 2.977041 1_554
O7 Sr0 2.977041 1_455
