# generated using pymatgen
data_KZnSi3(H11C4)3
_symmetry_space_group_name_H-M   'P 1'
_cell_length_a   11.73361800
_cell_length_b   19.81537400
_cell_length_c   11.86887430
_cell_angle_alpha   90.00000000
_cell_angle_beta   113.89410449
_cell_angle_gamma   90.00000000
_symmetry_Int_Tables_number   1
_chemical_formula_structural   KZnSi3(H11C4)3
_chemical_formula_sum   'K4 Zn4 Si12 H132 C48'
_cell_volume   2523.07637513
_cell_formula_units_Z   4
loop_
 _symmetry_equiv_pos_site_id
 _symmetry_equiv_pos_as_xyz
  1  'x, y, z'
loop_
 _atom_site_type_symbol
 _atom_site_label
 _atom_site_symmetry_multiplicity
 _atom_site_fract_x
 _atom_site_fract_y
 _atom_site_fract_z
 _atom_site_occupancy
  K  K0  1  0.43471100  0.37410700  0.70446300  1
  K  K1  1  0.56528900  0.87410700  0.79553700  1
  K  K2  1  0.56528900  0.62589300  0.29553700  1
  K  K3  1  0.43471100  0.12589300  0.20446300  1
  Zn  Zn0  1  0.41975200  0.62550600  0.85285100  1
  Zn  Zn1  1  0.58024800  0.12550600  0.64714900  1
  Zn  Zn2  1  0.58024800  0.37449400  0.14714900  1
  Zn  Zn3  1  0.41975200  0.87449400  0.35285100  1
  Si  Si0  1  0.29287500  0.56192700  0.56674000  1
  Si  Si1  1  0.70712500  0.06192700  0.93326000  1
  Si  Si2  1  0.70712500  0.43807300  0.43326000  1
  Si  Si3  1  0.29287500  0.93807300  0.06674000  1
  Si  Si4  1  0.19613300  0.62229800  0.96479000  1
  Si  Si5  1  0.80386700  0.12229800  0.53521000  1
  Si  Si6  1  0.80386700  0.37770200  0.03521000  1
  Si  Si7  1  0.19613300  0.87770200  0.46479000  1
  Si  Si8  1  0.69577100  0.69416300  0.93594400  1
  Si  Si9  1  0.30422900  0.19416300  0.56405600  1
  Si  Si10  1  0.30422900  0.30583700  0.06405600  1
  Si  Si11  1  0.69577100  0.80583700  0.43594400  1
  H  H0  1  0.33747400  0.50791400  0.77015500  1
  H  H1  1  0.66252600  0.00791400  0.72984500  1
  H  H2  1  0.66252600  0.49208600  0.22984500  1
  H  H3  1  0.33747400  0.99208600  0.27015500  1
  H  H4  1  0.47832300  0.52584200  0.74947800  1
  H  H5  1  0.52167700  0.02584200  0.75052200  1
  H  H6  1  0.52167700  0.47415800  0.25052200  1
  H  H7  1  0.47832300  0.97415800  0.24947800  1
  H  H8  1  0.18221500  0.44964300  0.49334300  1
  H  H9  1  0.81778500  0.94964300  0.00665700  1
  H  H10  1  0.81778500  0.55035700  0.50665700  1
  H  H11  1  0.18221500  0.05035700  0.99334300  1
  H  H12  1  0.17439300  0.50150400  0.36973300  1
  H  H13  1  0.82560700  0.00150400  0.13026700  1
  H  H14  1  0.82560700  0.49849600  0.63026700  1
  H  H15  1  0.17439300  0.99849600  0.86973300  1
  H  H16  1  0.31256800  0.45633900  0.45223300  1
  H  H17  1  0.68743200  0.95633900  0.04776700  1
  H  H18  1  0.68743200  0.54366100  0.54776700  1
  H  H19  1  0.31256800  0.04366100  0.95223300  1
  H  H20  1  0.16756500  0.65977000  0.58903500  1
  H  H21  1  0.83243500  0.15977000  0.91096500  1
  H  H22  1  0.83243500  0.34023000  0.41096500  1
  H  H23  1  0.16756500  0.84023000  0.08903500  1
  H  H24  1  0.09623200  0.62339400  0.43988400  1
  H  H25  1  0.90376800  0.12339400  0.06011600  1
  H  H26  1  0.90376800  0.37660600  0.56011600  1
  H  H27  1  0.09623200  0.87660600  0.93988400  1
  H  H28  1  0.08267600  0.58342400  0.56771700  1
  H  H29  1  0.91732400  0.08342400  0.93228300  1
  H  H30  1  0.91732400  0.41657600  0.43228300  1
  H  H31  1  0.08267600  0.91657600  0.06771700  1
  H  H32  1  0.40964500  0.66752600  0.05436800  1
  H  H33  1  0.59035500  0.16752600  0.44563200  1
  H  H34  1  0.59035500  0.33247400  0.94563200  1
  H  H35  1  0.40964500  0.83247400  0.55436800  1
  H  H36  1  0.40881100  0.57631600  0.04945100  1
  H  H37  1  0.59118900  0.07631600  0.45054900  1
  H  H38  1  0.59118900  0.42368400  0.95054900  1
  H  H39  1  0.40881100  0.92368400  0.54945100  1
  H  H40  1  0.11898000  0.69206000  0.77185500  1
  H  H41  1  0.88102000  0.19206000  0.72814500  1
  H  H42  1  0.88102000  0.30794000  0.22814500  1
  H  H43  1  0.11898000  0.80794000  0.27185500  1
  H  H44  1  0.01404300  0.69627600  0.84537200  1
  H  H45  1  0.98595700  0.19627600  0.65462800  1
  H  H46  1  0.98595700  0.30372400  0.15462800  1
  H  H47  1  0.01404300  0.80372400  0.34537200  1
  H  H48  1  0.15415700  0.74382400  0.90393000  1
  H  H49  1  0.84584300  0.24382400  0.59607000  1
  H  H50  1  0.84584300  0.25617600  0.09607000  1
  H  H51  1  0.15415700  0.75617600  0.40393000  1
  H  H52  1  0.20221700  0.67608800  0.16079000  1
  H  H53  1  0.79778300  0.17608800  0.33921000  1
  H  H54  1  0.79778300  0.32391200  0.83921000  1
  H  H55  1  0.20221700  0.82391200  0.66079000  1
  H  H56  1  0.06050600  0.63219400  0.08093800  1
  H  H57  1  0.93949400  0.13219400  0.41906200  1
  H  H58  1  0.93949400  0.36780600  0.91906200  1
  H  H59  1  0.06050600  0.86780600  0.58093800  1
  H  H60  1  0.19709800  0.58640100  0.16930700  1
  H  H61  1  0.80290200  0.08640100  0.33069300  1
  H  H62  1  0.80290200  0.41359900  0.83069300  1
  H  H63  1  0.19709800  0.91359900  0.66930700  1
  H  H64  1  0.16059600  0.49735400  0.94818200  1
  H  H65  1  0.83940400  0.99735400  0.55181800  1
  H  H66  1  0.83940400  0.50264600  0.05181800  1
  H  H67  1  0.16059600  0.00264600  0.44818200  1
  H  H68  1  0.01946300  0.54173200  0.86839800  1
  H  H69  1  0.98053700  0.04173200  0.63160200  1
  H  H70  1  0.98053700  0.45826800  0.13160200  1
  H  H71  1  0.01946300  0.95826800  0.36839800  1
  H  H72  1  0.12896600  0.53259200  0.80083000  1
  H  H73  1  0.87103400  0.03259200  0.69917000  1
  H  H74  1  0.87103400  0.46740800  0.19917000  1
  H  H75  1  0.12896600  0.96740800  0.30083000  1
  H  H76  1  0.48958300  0.74872900  0.89393800  1
  H  H77  1  0.51041700  0.24872900  0.60606200  1
  H  H78  1  0.51041700  0.25127100  0.10606200  1
  H  H79  1  0.48958300  0.75127100  0.39393800  1
  H  H80  1  0.50161300  0.72195900  0.75355200  1
  H  H81  1  0.49838700  0.22196000  0.74644800  1
  H  H82  1  0.49838700  0.27804100  0.24644800  1
  H  H83  1  0.50161300  0.77804100  0.25355200  1
  H  H84  1  0.73783100  0.65376500  0.75674400  1
  H  H85  1  0.26216900  0.15376500  0.74325600  1
  H  H86  1  0.26216900  0.34623500  0.24325600  1
  H  H87  1  0.73783100  0.84623500  0.25674400  1
  H  H88  1  0.84873400  0.61928100  0.89564200  1
  H  H89  1  0.15126600  0.11928100  0.60435800  1
  H  H90  1  0.15126600  0.38071900  0.10435800  1
  H  H91  1  0.84873400  0.88071900  0.39564200  1
  H  H92  1  0.69483300  0.58583200  0.82854200  1
  H  H93  1  0.30516700  0.08583200  0.67145800  1
  H  H94  1  0.30516700  0.41416800  0.17145800  1
  H  H95  1  0.69483300  0.91416800  0.32854200  1
  H  H96  1  0.33760700  0.62283100  0.40426600  1
  H  H97  1  0.66239300  0.12283100  0.09573400  1
  H  H98  1  0.66239300  0.37716900  0.59573400  1
  H  H99  1  0.33760700  0.87716900  0.90426600  1
  H  H100  1  0.42655800  0.65818900  0.55220100  1
  H  H101  1  0.57344200  0.15818900  0.94779900  1
  H  H102  1  0.57344200  0.34181100  0.44779900  1
  H  H103  1  0.42655800  0.84181100  0.05220100  1
  H  H104  1  0.47359200  0.58011400  0.51042400  1
  H  H105  1  0.52640800  0.08011400  0.98957600  1
  H  H106  1  0.52640800  0.41988600  0.48957600  1
  H  H107  1  0.47359200  0.91988600  0.01042400  1
  H  H108  1  0.90104300  0.75146700  0.02305700  1
  H  H109  1  0.09895700  0.25146700  0.47694300  1
  H  H110  1  0.09895700  0.24853300  0.97694300  1
  H  H111  1  0.90104300  0.74853300  0.52305700  1
  H  H112  1  0.80712000  0.79422800  0.88750000  1
  H  H113  1  0.19288000  0.29422800  0.61250000  1
  H  H114  1  0.19288000  0.20577200  0.11250000  1
  H  H115  1  0.80712000  0.70577200  0.38750000  1
  H  H116  1  0.78791400  0.80830300  0.02802000  1
  H  H117  1  0.21208600  0.30830300  0.47198000  1
  H  H118  1  0.21208600  0.19169700  0.97198000  1
  H  H119  1  0.78791400  0.69169700  0.52802000  1
  H  H120  1  0.68172500  0.60974600  0.08748400  1
  H  H121  1  0.31827500  0.10974600  0.41251600  1
  H  H122  1  0.31827500  0.39025400  0.91251600  1
  H  H123  1  0.68172500  0.89025400  0.58748400  1
  H  H124  1  0.69838700  0.69410900  0.14672500  1
  H  H125  1  0.30161300  0.19410900  0.35327500  1
  H  H126  1  0.30161300  0.30589100  0.85327500  1
  H  H127  1  0.69838700  0.80589100  0.64672500  1
  H  H128  1  0.83042600  0.64981600  0.14746600  1
  H  H129  1  0.16957400  0.14981600  0.35253400  1
  H  H130  1  0.16957400  0.35018400  0.85253400  1
  H  H131  1  0.83042600  0.85018400  0.64746600  1
  C  C0  1  0.38416900  0.54450400  0.73298200  1
  C  C1  1  0.61583100  0.04450400  0.76701800  1
  C  C2  1  0.61583100  0.45549600  0.26701800  1
  C  C3  1  0.38416900  0.95549600  0.23298200  1
  C  C4  1  0.39210400  0.61074200  0.50210900  1
  C  C5  1  0.60789600  0.11074200  0.99789100  1
  C  C6  1  0.60789600  0.38925800  0.49789100  1
  C  C7  1  0.39210400  0.88925800  0.00210900  1
  C  C8  1  0.23686800  0.48477300  0.46288400  1
  C  C9  1  0.76313200  0.98477300  0.03711600  1
  C  C10  1  0.76313200  0.51522700  0.53711600  1
  C  C11  1  0.23686800  0.01522700  0.96288400  1
  C  C12  1  0.14663200  0.61175700  0.53841500  1
  C  C13  1  0.85336800  0.11175700  0.96158500  1
  C  C14  1  0.85336800  0.38824300  0.46158500  1
  C  C15  1  0.14663200  0.88824300  0.03841500  1
  C  C16  1  0.36557000  0.62271800  0.99799400  1
  C  C17  1  0.63443000  0.12271800  0.50200600  1
  C  C18  1  0.63443000  0.37728200  0.00200600  1
  C  C19  1  0.36557000  0.87728200  0.49799400  1
  C  C20  1  0.11337600  0.69531900  0.86187300  1
  C  C21  1  0.88662400  0.19531900  0.63812700  1
  C  C22  1  0.88662400  0.30468100  0.13812700  1
  C  C23  1  0.11337600  0.80468100  0.36187300  1
  C  C24  1  0.16196600  0.63008600  0.10765000  1
  C  C25  1  0.83803400  0.13008600  0.39235000  1
  C  C26  1  0.83803400  0.36991400  0.89235000  1
  C  C27  1  0.16196600  0.86991400  0.60765000  1
  C  C28  1  0.11962700  0.54098300  0.88815600  1
  C  C29  1  0.88037300  0.04098300  0.61184400  1
  C  C30  1  0.88037300  0.45901700  0.11184400  1
  C  C31  1  0.11962700  0.95901700  0.38815600  1
  C  C32  1  0.52618100  0.70964700  0.85141900  1
  C  C33  1  0.47381900  0.20964700  0.64858100  1
  C  C34  1  0.47381900  0.29035300  0.14858100  1
  C  C35  1  0.52618100  0.79035300  0.35141900  1
  C  C36  1  0.74967200  0.63263800  0.84630600  1
  C  C37  1  0.25032800  0.13263800  0.65369400  1
  C  C38  1  0.25032800  0.36736200  0.15369400  1
  C  C39  1  0.74967200  0.86736200  0.34630600  1
  C  C40  1  0.80529900  0.76974500  0.97003000  1
  C  C41  1  0.19470100  0.26974500  0.52997000  1
  C  C42  1  0.19470100  0.23025500  0.02997000  1
  C  C43  1  0.80529900  0.73025500  0.47003000  1
  C  C44  1  0.72990500  0.65815400  0.09462200  1
  C  C45  1  0.27009500  0.15815400  0.40537800  1
  C  C46  1  0.27009500  0.34184600  0.90537800  1
  C  C47  1  0.72990500  0.84184600  0.59462200  1
loop_
_geom_bond_atom_site_label_1
_geom_bond_atom_site_label_2
_geom_bond_distance
_geom_bond_site_symmetry_2
H0 K0 3.108122 1_555
H1 K1 3.108122 1_545
H2 K2 3.108122 1_555
H3 K3 3.108122 1_565
H4 K0 3.060391 1_555
H5 K1 3.060391 1_545
H6 K2 3.060391 1_555
H7 K3 3.060391 1_565
H32 K2 2.823900 1_555
H33 K3 2.823900 1_555
H34 K0 2.823900 1_555
H35 K1 2.823900 1_555
H36 K2 2.919376 1_555
H37 K3 2.919376 1_555
H38 K0 2.919376 1_555
H39 K1 2.919376 1_555
H76 K1 3.027514 1_555
H77 K0 3.027514 1_555
H78 K3 3.027514 1_555
H79 K2 3.027514 1_555
H80 K1 3.097479 1_555
H81 K0 3.097460 1_555
H82 K3 3.097479 1_555
H83 K2 3.097479 1_555
H112 K1 3.039641 1_555
H113 K0 3.039641 1_555
H114 K3 3.039641 1_555
H115 K2 3.039641 1_555
H124 K2 3.101651 1_555
H125 K3 3.101651 1_555
H126 K0 3.101651 1_555
H127 K1 3.101651 1_555
C0 H0 1.102893 1_555
C0 H4 1.104702 1_555
C0 Si0 1.856772 1_555
C0 Zn0 2.072081 1_555
C1 H1 1.102893 1_555
C1 H5 1.104702 1_555
C1 Si1 1.856772 1_555
C1 Zn1 2.072081 1_555
C2 H2 1.102893 1_555
C2 H6 1.104702 1_555
C2 Si2 1.856772 1_555
C2 Zn2 2.072081 1_555
C3 H3 1.102893 1_555
C3 H7 1.104702 1_555
C3 Si3 1.856772 1_555
C3 Zn3 2.072081 1_555
C4 H100 1.098243 1_555
C4 H96 1.101499 1_555
C4 H104 1.102657 1_555
C4 Si0 1.898221 1_555
C5 H101 1.098243 1_555
C5 H97 1.101499 1_556
C5 H105 1.102657 1_555
C5 Si1 1.898221 1_555
C6 H102 1.098243 1_555
C6 H98 1.101499 1_555
C6 H106 1.102657 1_555
C6 Si2 1.898221 1_555
C7 H103 1.098243 1_555
C7 H99 1.101499 1_554
C7 H107 1.102657 1_555
C7 Si3 1.898221 1_555
C8 H12 1.101398 1_555
C8 H16 1.101526 1_555
C8 H8 1.101957 1_555
C8 Si0 1.905890 1_555
C9 H13 1.101398 1_565
C9 H17 1.101526 1_555
C9 H9 1.101957 1_555
C9 Si1 1.905890 1_564
C10 H14 1.101398 1_555
C10 H18 1.101526 1_555
C10 H10 1.101957 1_555
C10 Si2 1.905890 1_555
C11 H15 1.101398 1_545
C11 H19 1.101526 1_555
C11 H11 1.101957 1_555
C11 Si3 1.905890 1_546
C12 H20 1.098591 1_555
C12 H24 1.100121 1_555
C12 H28 1.100333 1_555
C12 Si0 1.888165 1_555
C13 H21 1.098591 1_555
C13 H25 1.100121 1_556
C13 H29 1.100333 1_555
C13 Si1 1.888165 1_555
C14 H22 1.098591 1_555
C14 H26 1.100121 1_555
C14 H30 1.100333 1_555
C14 Si2 1.888165 1_555
C15 H23 1.098591 1_555
C15 H27 1.100121 1_554
C15 H31 1.100333 1_555
C15 Si3 1.888165 1_555
C16 H32 1.105970 1_556
C16 H36 1.106721 1_556
C16 Si4 1.863665 1_555
C16 Zn0 2.064482 1_555
C17 H33 1.105970 1_555
C17 H37 1.106721 1_555
C17 Si5 1.863665 1_555
C17 Zn1 2.064482 1_555
C18 H34 1.105970 1_554
C18 H38 1.106721 1_554
C18 Si6 1.863665 1_555
C18 Zn2 2.064482 1_555
C19 H35 1.105970 1_555
C19 H39 1.106721 1_555
C19 Si7 1.863665 1_555
C19 Zn3 2.064482 1_555
C20 H40 1.098595 1_555
C20 H48 1.099292 1_555
C20 H44 1.101031 1_555
C20 Si4 1.888849 1_555
C21 H41 1.098595 1_555
C21 H49 1.099292 1_555
C21 H45 1.101031 1_555
C21 Si5 1.888849 1_555
C22 H42 1.098595 1_555
C22 H50 1.099292 1_555
C22 H46 1.101031 1_555
C22 Si6 1.888849 1_555
C23 H43 1.098595 1_555
C23 H51 1.099292 1_555
C23 H47 1.101031 1_555
C23 Si7 1.888849 1_555
C24 H60 1.100184 1_555
C24 H52 1.100210 1_555
C24 H56 1.101714 1_555
C24 Si4 1.900060 1_554
C25 H61 1.100184 1_555
C25 H53 1.100210 1_555
C25 H57 1.101714 1_555
C25 Si5 1.900060 1_555
C26 H62 1.100184 1_555
C26 H54 1.100210 1_555
C26 H58 1.101714 1_555
C26 Si6 1.900060 1_556
C27 H63 1.100184 1_555
C27 H55 1.100210 1_555
C27 H59 1.101714 1_555
C27 Si7 1.900060 1_555
C28 H72 1.098141 1_555
C28 H64 1.099373 1_555
C28 H68 1.101472 1_555
C28 Si4 1.888902 1_555
C29 H73 1.098141 1_555
C29 H65 1.099373 1_545
C29 H69 1.101472 1_555
C29 Si5 1.888902 1_555
C30 H74 1.098141 1_555
C30 H66 1.099373 1_555
C30 H70 1.101472 1_555
C30 Si6 1.888902 1_555
C31 H75 1.098141 1_555
C31 H67 1.099373 1_565
C31 H71 1.101472 1_555
C31 Si7 1.888902 1_555
C32 H76 1.101985 1_555
C32 H80 1.104812 1_555
C32 Si8 1.855561 1_555
C32 Zn0 2.087299 1_555
C33 H77 1.101985 1_555
C33 H81 1.104816 1_555
C33 Si9 1.855561 1_555
C33 Zn1 2.087299 1_555
C34 H78 1.101985 1_555
C34 H82 1.104812 1_555
C34 Si10 1.855561 1_555
C34 Zn2 2.087299 1_555
C35 H79 1.101985 1_555
C35 H83 1.104812 1_555
C35 Si11 1.855561 1_555
C35 Zn3 2.087299 1_555
C36 H84 1.097674 1_555
C36 H92 1.099458 1_555
C36 H88 1.101195 1_555
C36 Si8 1.887665 1_555
C37 H85 1.097674 1_555
C37 H93 1.099458 1_555
C37 H89 1.101195 1_555
C37 Si9 1.887665 1_555
C38 H86 1.097674 1_555
C38 H94 1.099458 1_555
C38 H90 1.101195 1_555
C38 Si10 1.887665 1_555
C39 H87 1.097674 1_555
C39 H95 1.099458 1_555
C39 H91 1.101195 1_555
C39 Si11 1.887665 1_555
C40 H112 1.101030 1_555
C40 H116 1.101287 1_556
C40 H108 1.102991 1_556
C40 Si8 1.907139 1_555
C41 H113 1.101030 1_555
C41 H117 1.101287 1_555
C41 H109 1.102991 1_555
C41 Si9 1.907139 1_555
C42 H114 1.101030 1_555
C42 H118 1.101287 1_554
C42 H110 1.102991 1_554
C42 Si10 1.907139 1_555
C43 H115 1.101030 1_555
C43 H119 1.101287 1_555
C43 H111 1.102991 1_555
C43 Si11 1.907139 1_555
C44 H120 1.099127 1_555
C44 H124 1.100936 1_555
C44 H128 1.101162 1_555
C44 Si8 1.898792 1_554
C45 H121 1.099127 1_555
C45 H125 1.100936 1_555
C45 H129 1.101162 1_555
C45 Si9 1.898792 1_555
C46 H122 1.099127 1_555
C46 H126 1.100936 1_555
C46 H130 1.101162 1_555
C46 Si10 1.898792 1_556
C47 H123 1.099127 1_555
C47 H127 1.100936 1_555
C47 H131 1.101162 1_555
C47 Si11 1.898792 1_555
