# generated using pymatgen
data_SrCu3(SnO3)4
_symmetry_space_group_name_H-M   'P 1'
_cell_length_a   6.75532551
_cell_length_b   6.75532551
_cell_length_c   6.75532551
_cell_angle_alpha   109.47122063
_cell_angle_beta   109.47122063
_cell_angle_gamma   109.47122063
_symmetry_Int_Tables_number   1
_chemical_formula_structural   SrCu3(SnO3)4
_chemical_formula_sum   'Sr1 Cu3 Sn4 O12'
_cell_volume   237.31049795
_cell_formula_units_Z   1
loop_
 _symmetry_equiv_pos_site_id
 _symmetry_equiv_pos_as_xyz
  1  'x, y, z'
loop_
 _atom_site_type_symbol
 _atom_site_label
 _atom_site_symmetry_multiplicity
 _atom_site_fract_x
 _atom_site_fract_y
 _atom_site_fract_z
 _atom_site_occupancy
  Sr  Sr0  1  0.00000000  0.00000000  0.00000000  1
  Cu  Cu0  1  0.00000000  0.50000000  0.50000000  1
  Cu  Cu1  1  0.50000000  0.50000000  0.00000000  1
  Cu  Cu2  1  0.50000000  0.00000000  0.50000000  1
  Sn  Sn0  1  0.50000000  0.50000000  0.50000000  1
  Sn  Sn1  1  0.50000000  0.00000000  0.00000000  1
  Sn  Sn2  1  0.00000000  0.50000000  0.00000000  1
  Sn  Sn3  1  0.00000000  0.00000000  0.50000000  1
  O  O0  1  0.30935900  0.13798600  0.82862700  1
  O  O1  1  0.69064100  0.86201400  0.17137300  1
  O  O2  1  0.69064100  0.51926800  0.82862700  1
  O  O3  1  0.48073200  0.17137300  0.30935900  1
  O  O4  1  0.17137300  0.30935900  0.48073200  1
  O  O5  1  0.82862700  0.30935900  0.13798600  1
  O  O6  1  0.86201400  0.17137300  0.69064100  1
  O  O7  1  0.82862700  0.69064100  0.51926800  1
  O  O8  1  0.30935900  0.48073200  0.17137300  1
  O  O9  1  0.51926800  0.82862700  0.69064100  1
  O  O10  1  0.17137300  0.69064100  0.86201400  1
  O  O11  1  0.13798600  0.82862700  0.30935900  1
loop_
_geom_bond_atom_site_label_1
_geom_bond_atom_site_label_2
_geom_bond_distance
_geom_bond_site_symmetry_2
Cu0 O10 1.999587 1_555
Cu0 O7 1.999587 1_455
Cu0 O5 1.999587 1_455
Cu0 O4 1.999587 1_555
Cu1 O1 1.999587 1_555
Cu1 O2 1.999587 1_554
Cu1 O0 1.999587 1_554
Cu1 O8 1.999587 1_555
Cu2 O9 1.999587 1_545
Cu2 O6 1.999587 1_555
Cu2 O11 1.999587 1_545
Cu2 O3 1.999587 1_555
O0 Sn3 2.096049 1_555
O0 Sn1 2.096049 1_556
O0 Sr0 2.758641 1_556
O1 Sn1 2.096049 1_565
O1 Sn3 2.096049 1_665
O1 Sr0 2.758641 1_665
O2 Sn0 2.096049 1_555
O2 Sn2 2.096049 1_656
O2 Sr0 2.758641 1_666
O3 Sn0 2.096049 1_555
O3 Sn1 2.096049 1_555
O3 Sr0 2.758641 1_555
O4 Sn3 2.096049 1_555
O4 Sn0 2.096049 1_555
O4 Sr0 2.758641 1_555
O5 Sn2 2.096049 1_655
O5 Sn1 2.096049 1_555
O5 Sr0 2.758641 1_655
O6 Sn3 2.096049 1_655
O6 Sn2 2.096049 1_656
O6 Sr0 2.758641 1_656
O7 Sn3 2.096049 1_665
O7 Sn0 2.096049 1_555
O7 Sr0 2.758641 1_666
O8 Sn0 2.096049 1_555
O8 Sn2 2.096049 1_555
O8 Sr0 2.758641 1_555
O9 Sn1 2.096049 1_566
O9 Sn0 2.096049 1_555
O9 Sr0 2.758641 1_666
O10 Sn1 2.096049 1_566
O10 Sn2 2.096049 1_556
O10 Sr0 2.758641 1_566
O11 Sn2 2.096049 1_555
O11 Sn3 2.096049 1_565
O11 Sr0 2.758641 1_565
