# generated using pymatgen
data_ErCoNi
_symmetry_space_group_name_H-M   'P 1'
_cell_length_a   5.01563671
_cell_length_b   5.01563671
_cell_length_c   5.01563671
_cell_angle_alpha   120.48075508
_cell_angle_beta   120.29288967
_cell_angle_gamma   89.33137759
_symmetry_Int_Tables_number   1
_chemical_formula_structural   ErCoNi
_chemical_formula_sum   'Er2 Co2 Ni2'
_cell_volume   88.69170233
_cell_formula_units_Z   2
loop_
 _symmetry_equiv_pos_site_id
 _symmetry_equiv_pos_as_xyz
  1  'x, y, z'
loop_
 _atom_site_type_symbol
 _atom_site_label
 _atom_site_symmetry_multiplicity
 _atom_site_fract_x
 _atom_site_fract_y
 _atom_site_fract_z
 _atom_site_occupancy
  Er  Er0  1  0.37697400  0.12697400  0.25000000  1
  Er  Er1  1  0.62302600  0.87302600  0.75000000  1
  Co  Co0  1  0.50000000  0.50000000  0.00000000  1
  Co  Co1  1  0.00000000  0.50000000  0.50000000  1
  Ni  Ni0  1  0.00000000  0.50000000  0.00000000  1
  Ni  Ni1  1  0.00000000  0.00000000  0.50000000  1
loop_
_geom_bond_atom_site_label_1
_geom_bond_atom_site_label_2
_geom_bond_distance
_geom_bond_site_symmetry_2
Er0 Ni0 2.924627 1_555
Er0 Ni1 2.924627 1_554
Er0 Ni1 2.924627 1_655
Er0 Ni0 2.924627 1_656
Er0 Ni1 2.963598 1_555
Er0 Ni0 2.963598 1_545
Er1 Ni1 2.924627 1_565
Er1 Ni0 2.924627 1_656
Er1 Ni1 2.924627 1_666
Er1 Ni0 2.924627 1_555
Er1 Ni1 2.963598 1_665
Er1 Ni0 2.963598 1_666
Co0 Co1 2.496708 1_554
Co0 Co1 2.496708 1_655
Co0 Ni1 2.507818 1_665
Co0 Ni0 2.507818 1_655
Co0 Ni1 2.507818 1_554
Co0 Ni0 2.507818 1_555
Co0 Er0 2.928651 1_554
Co0 Er0 2.928651 1_565
Co0 Er1 2.928651 1_555
Co0 Er1 2.928651 1_544
Co0 Er0 2.939573 1_555
Co0 Er1 2.939573 1_554
Co1 Ni1 2.507818 1_555
Co1 Ni1 2.507818 1_565
Co1 Ni0 2.507818 1_555
Co1 Ni0 2.507818 1_556
Co1 Er0 2.928651 1_555
Co1 Er0 2.928651 1_566
Co1 Er1 2.928651 1_444
Co1 Er1 2.928651 1_455
Co1 Er1 2.939573 1_555
Co1 Er0 2.939573 1_455
Ni0 Ni1 2.489573 1_565
Ni0 Ni1 2.489573 1_554
