# generated using pymatgen
data_NiH24C6S6(BrN6)2
_symmetry_space_group_name_H-M   'P 1'
_cell_length_a   9.06439400
_cell_length_b   12.67928346
_cell_length_c   13.20249034
_cell_angle_alpha   80.92997773
_cell_angle_beta   69.92295103
_cell_angle_gamma   69.05638815
_symmetry_Int_Tables_number   1
_chemical_formula_structural   NiH24C6S6(BrN6)2
_chemical_formula_sum   'Ni2 H48 C12 S12 Br4 N24'
_cell_volume   1329.94294950
_cell_formula_units_Z   2
loop_
 _symmetry_equiv_pos_site_id
 _symmetry_equiv_pos_as_xyz
  1  'x, y, z'
loop_
 _atom_site_type_symbol
 _atom_site_label
 _atom_site_symmetry_multiplicity
 _atom_site_fract_x
 _atom_site_fract_y
 _atom_site_fract_z
 _atom_site_occupancy
  Ni  Ni0  1  0.50000000  0.50000000  0.00000000  1
  Ni  Ni1  1  0.00000000  0.00000000  0.50000000  1
  H  H0  1  0.83195100  0.58170700  0.23703700  1
  H  H1  1  0.34930500  0.08170700  0.73703700  1
  H  H2  1  0.16804900  0.41829300  0.76296300  1
  H  H3  1  0.65069500  0.91829300  0.26296300  1
  H  H4  1  0.88404700  0.54670300  0.10252600  1
  H  H5  1  0.46672400  0.04670300  0.60252600  1
  H  H6  1  0.11595300  0.45329700  0.89747400  1
  H  H7  1  0.53327600  0.95329700  0.39747400  1
  H  H8  1  0.01327000  0.61245200  0.29845700  1
  H  H9  1  0.07582100  0.11245200  0.79845700  1
  H  H10  1  0.98673000  0.38754800  0.70154300  1
  H  H11  1  0.92417900  0.88754800  0.20154300  1
  H  H12  1  0.21281400  0.60952800  0.21103700  1
  H  H13  1  0.96662100  0.10952800  0.71103700  1
  H  H14  1  0.78718600  0.39047200  0.78896300  1
  H  H15  1  0.03337900  0.89047200  0.28896300  1
  H  H16  1  0.49419400  0.13281100  0.88976400  1
  H  H17  1  0.48323100  0.63281100  0.38976400  1
  H  H18  1  0.50580600  0.86718900  0.11023600  1
  H  H19  1  0.51676900  0.36718900  0.61023600  1
  H  H20  1  0.65765500  0.04056300  0.93528900  1
  H  H21  1  0.36649400  0.54056300  0.43528900  1
  H  H22  1  0.34234500  0.95943700  0.06471100  1
  H  H23  1  0.63350600  0.45943700  0.56471100  1
  H  H24  1  0.79402200  0.25146900  0.97531300  1
  H  H25  1  0.97919700  0.75146900  0.47531300  1
  H  H26  1  0.20597800  0.74853100  0.02468700  1
  H  H27  1  0.02080300  0.24853100  0.52468700  1
  H  H28  1  0.82286100  0.10525900  0.98456200  1
  H  H29  1  0.08731700  0.60525900  0.48456200  1
  H  H30  1  0.17713900  0.89474100  0.01543800  1
  H  H31  1  0.91268300  0.39474100  0.51543800  1
  H  H32  1  0.21910300  0.24040500  0.15593000  1
  H  H33  1  0.38456200  0.74040500  0.65593000  1
  H  H34  1  0.78089700  0.75959500  0.84407000  1
  H  H35  1  0.61543800  0.25959500  0.34407000  1
  H  H36  1  0.33154100  0.31510000  0.05422100  1
  H  H37  1  0.29913700  0.81510000  0.55422100  1
  H  H38  1  0.66845900  0.68490000  0.94577900  1
  H  H39  1  0.70086300  0.18490000  0.44577900  1
  H  H40  1  0.31805900  0.30142100  0.36781500  1
  H  H41  1  0.01270500  0.80142100  0.86781500  1
  H  H42  1  0.68194100  0.69857900  0.63218500  1
  H  H43  1  0.98729500  0.19857900  0.13218500  1
  H  H44  1  0.22349600  0.22559500  0.32629800  1
  H  H45  1  0.22461200  0.72559500  0.82629800  1
  H  H46  1  0.77650400  0.77440500  0.67370200  1
  H  H47  1  0.77538800  0.27440500  0.17370200  1
  C  C0  1  0.06527500  0.57645000  0.14214800  1
  C  C1  1  0.21612700  0.07645000  0.64214800  1
  C  C2  1  0.93472500  0.42355000  0.85785200  1
  C  C3  1  0.78387300  0.92355000  0.35785200  1
  C  C4  1  0.63679700  0.20741800  0.92431000  1
  C  C5  1  0.23147400  0.70741800  0.42431000  1
  C  C6  1  0.36320300  0.79258200  0.07569000  1
  C  C7  1  0.76852600  0.29258200  0.57569000  1
  C  C8  1  0.34787800  0.31413300  0.20527400  1
  C  C9  1  0.13271500  0.81413300  0.70527400  1
  C  C10  1  0.65212200  0.68586700  0.79472600  1
  C  C11  1  0.86728500  0.18586700  0.29472600  1
  S  S0  1  0.20412200  0.55881800  0.01357700  1
  S  S1  1  0.22348300  0.05881800  0.51357700  1
  S  S2  1  0.79587800  0.44118200  0.98642300  1
  S  S3  1  0.77651700  0.94118200  0.48642300  1
  S  S4  1  0.52520900  0.34255500  0.89231700  1
  S  S5  1  0.23991900  0.84255500  0.39231700  1
  S  S6  1  0.47479100  0.65744500  0.10768300  1
  S  S7  1  0.76008100  0.15744500  0.60768300  1
  S  S8  1  0.47749100  0.39356200  0.17305300  1
  S  S9  1  0.95589400  0.89356200  0.67305300  1
  S  S10  1  0.52250900  0.60643800  0.82694700  1
  S  S11  1  0.04410600  0.10643800  0.32694700  1
  Br  Br0  1  0.19616200  0.10610500  0.95146900  1
  Br  Br1  1  0.74626300  0.60610500  0.45146900  1
  Br  Br2  1  0.80383800  0.89389500  0.04853100  1
  Br  Br3  1  0.25373700  0.39389500  0.54853100  1
  N  N0  1  0.91617700  0.56613100  0.16200000  1
  N  N1  1  0.35569200  0.06613100  0.66200000  1
  N  N2  1  0.08382300  0.43386900  0.83800000  1
  N  N3  1  0.64430800  0.93386900  0.33800000  1
  N  N4  1  0.09912700  0.60292700  0.22326100  1
  N  N5  1  0.07468400  0.10292700  0.72326100  1
  N  N6  1  0.90087300  0.39707300  0.77673900  1
  N  N7  1  0.92531600  0.89707300  0.27673900  1
  N  N8  1  0.59894900  0.11981600  0.90859900  1
  N  N9  1  0.37263700  0.61981600  0.40859900  1
  N  N10  1  0.40105100  0.88018400  0.09140100  1
  N  N11  1  0.62736300  0.38018400  0.59140100  1
  N  N12  1  0.76399300  0.18588800  0.96182000  1
  N  N13  1  0.08829800  0.68588800  0.46182000  1
  N  N14  1  0.23600700  0.81411200  0.03818000  1
  N  N15  1  0.91170200  0.31411200  0.53818000  1
  N  N16  1  0.29036400  0.29136200  0.13379600  1
  N  N17  1  0.28447700  0.79136200  0.63379600  1
  N  N18  1  0.70963600  0.70863800  0.86620400  1
  N  N19  1  0.71552300  0.20863800  0.36620400  1
  N  N20  1  0.30267100  0.27140500  0.30623000  1
  N  N21  1  0.11969400  0.77140500  0.80623000  1
  N  N22  1  0.69732900  0.72859500  0.69377000  1
  N  N23  1  0.88030600  0.22859500  0.19377000  1
loop_
_geom_bond_atom_site_label_1
_geom_bond_atom_site_label_2
_geom_bond_distance
_geom_bond_site_symmetry_2
Ni0 S8 2.446956 1_555
Ni0 S10 2.446956 1_554
Ni0 S0 2.462395 1_555
Ni0 S2 2.462395 1_554
Ni0 S4 2.530657 1_554
Ni0 S6 2.530657 1_555
Ni1 S9 2.446956 1_445
Ni1 S11 2.446956 1_555
Ni1 S1 2.462395 1_555
Ni1 S3 2.462395 1_445
Ni1 S5 2.530657 1_545
Ni1 S7 2.530657 1_455
H0 N0 1.018787 1_555
H1 N1 1.018787 1_555
H2 N2 1.018787 1_555
H3 N3 1.018787 1_555
H4 N0 1.015541 1_555
H5 N1 1.015541 1_555
H6 N2 1.015541 1_555
H7 N3 1.015541 1_555
H8 N4 1.022742 1_555
H9 N5 1.022746 1_555
H10 N6 1.022742 1_555
H11 N7 1.022746 1_555
H12 N4 1.018924 1_555
H13 N5 1.018915 1_655
H14 N6 1.018924 1_555
H15 N7 1.018915 1_455
H16 N8 1.013883 1_555
H17 N9 1.013874 1_555
H18 N10 1.013883 1_555
H19 N11 1.013874 1_555
H20 N8 1.025634 1_555
H21 N9 1.025634 1_555
H22 N10 1.025634 1_555
H23 N11 1.025634 1_555
H24 N12 1.019338 1_555
H25 N13 1.019327 1_655
H26 N14 1.019338 1_555
H27 N15 1.019327 1_455
H28 N12 1.021397 1_555
H29 N13 1.021397 1_555
H30 N14 1.021397 1_555
H31 N15 1.021397 1_555
H32 N16 1.014547 1_555
H33 N17 1.014554 1_555
H34 N18 1.014547 1_555
H35 N19 1.014554 1_555
H36 N16 1.022268 1_555
H37 N17 1.022268 1_555
H38 N18 1.022268 1_555
H39 N19 1.022268 1_555
H40 N20 1.019198 1_555
H41 N21 1.019198 1_555
H42 N22 1.019198 1_555
H43 N23 1.019198 1_555
H44 N20 1.020571 1_555
H45 N21 1.020578 1_555
H46 N22 1.020571 1_555
H47 N23 1.020578 1_555
C0 N4 1.329010 1_555
C0 N0 1.335936 1_455
C0 S0 1.722518 1_555
C1 N5 1.329015 1_555
C1 N1 1.335936 1_555
C1 S1 1.722518 1_555
C2 N6 1.329010 1_555
C2 N2 1.335936 1_655
C2 S2 1.722518 1_555
C3 N7 1.329015 1_555
C3 N3 1.335936 1_555
C3 S3 1.722518 1_555
C4 N12 1.331711 1_555
C4 N8 1.337294 1_555
C4 S4 1.721489 1_555
C5 N13 1.331711 1_555
C5 N9 1.337305 1_555
C5 S5 1.721492 1_555
C6 N14 1.331711 1_555
C6 N10 1.337294 1_555
C6 S6 1.721489 1_555
C7 N15 1.331711 1_555
C7 N11 1.337305 1_555
C7 S7 1.721492 1_555
C8 N16 1.333030 1_555
C8 N20 1.339410 1_555
C8 S8 1.715572 1_555
C9 N17 1.333024 1_555
C9 N21 1.339410 1_555
C9 S9 1.715572 1_455
C10 N18 1.333030 1_555
C10 N22 1.339410 1_555
C10 S10 1.715572 1_555
C11 N19 1.333024 1_555
C11 N23 1.339410 1_555
C11 S11 1.715572 1_655
