# generated using pymatgen
data_Li4MnCo2O7
_symmetry_space_group_name_H-M   'P 1'
_cell_length_a   10.56020250
_cell_length_b   10.56020250
_cell_length_c   8.50683253
_cell_angle_alpha   78.44102973
_cell_angle_beta   78.44102973
_cell_angle_gamma   15.58558729
_symmetry_Int_Tables_number   1
_chemical_formula_structural   Li4MnCo2O7
_chemical_formula_sum   'Li8 Mn2 Co4 O14'
_cell_volume   249.61751672
_cell_formula_units_Z   2
loop_
 _symmetry_equiv_pos_site_id
 _symmetry_equiv_pos_as_xyz
  1  'x, y, z'
loop_
 _atom_site_type_symbol
 _atom_site_label
 _atom_site_symmetry_multiplicity
 _atom_site_fract_x
 _atom_site_fract_y
 _atom_site_fract_z
 _atom_site_occupancy
  Li  Li0  1  0.57432500  0.57432500  0.22792500  1
  Li  Li1  1  0.71072700  0.71072700  0.63423900  1
  Li  Li2  1  0.85593200  0.85593200  0.07341600  1
  Li  Li3  1  0.00087000  0.00087000  0.49853200  1
  Li  Li4  1  0.14305700  0.14305700  0.92311500  1
  Li  Li5  1  0.28139100  0.28139100  0.36060300  1
  Li  Li6  1  0.42939200  0.42939200  0.78120300  1
  Li  Li7  1  0.14544800  0.14544800  0.42653800  1
  Mn  Mn0  1  0.00057000  0.00057000  0.99594900  1
  Mn  Mn1  1  0.71437300  0.71437300  0.15480400  1
  Co  Co0  1  0.28571000  0.28571000  0.85919200  1
  Co  Co1  1  0.42822200  0.42822200  0.28711400  1
  Co  Co2  1  0.57592000  0.57592000  0.68049100  1
  Co  Co3  1  0.85575500  0.85575500  0.57238300  1
  O  O0  1  0.56313200  0.56313200  0.97855600  1
  O  O1  1  0.71509600  0.71509600  0.36916700  1
  O  O2  1  0.84927600  0.84927600  0.82717000  1
  O  O3  1  0.99221600  0.99221600  0.23918300  1
  O  O4  1  0.14018700  0.14018700  0.68570200  1
  O  O5  1  0.27964200  0.27964200  0.11239600  1
  O  O6  1  0.42002000  0.42002000  0.54076600  1
  O  O7  1  0.56750300  0.56750300  0.47499000  1
  O  O8  1  0.72229800  0.72229800  0.90635100  1
  O  O9  1  0.86574500  0.86574500  0.31668500  1
  O  O10  1  0.00399500  0.00399500  0.77133800  1
  O  O11  1  0.15112500  0.15112500  0.16922400  1
  O  O12  1  0.29227500  0.29227500  0.60485900  1
  O  O13  1  0.43579900  0.43579900  0.02811000  1
loop_
_geom_bond_atom_site_label_1
_geom_bond_atom_site_label_2
_geom_bond_distance
_geom_bond_site_symmetry_2
Li0 O7 2.077579 1_555
Li0 O11 2.134869 1_565
Li0 O11 2.134869 1_655
Li0 O0 2.180806 1_554
Li0 O3 2.223721 1_545
Li0 O3 2.223721 1_455
Li1 O4 2.039440 1_655
Li1 O4 2.039440 1_565
Li1 O12 2.202743 1_655
Li1 O12 2.202743 1_565
Li1 O1 2.238225 1_555
Li1 O8 2.375644 1_555
Li2 O5 2.120038 1_655
Li2 O5 2.120038 1_565
Li2 O9 2.120534 1_555
Li2 O2 2.127319 1_554
Li2 O13 2.175158 1_655
Li2 O13 2.175158 1_565
Li3 O7 1.980286 1_455
Li3 O7 1.980286 1_545
Li3 O6 2.189910 1_455
Li3 O6 2.189910 1_545
Li3 O3 2.249863 1_445
Li3 O10 2.334818 1_555
Li4 O4 2.032630 1_555
Li4 O11 2.134166 1_556
Li4 O8 2.173565 1_455
Li4 O8 2.173565 1_545
Li4 O0 2.179621 1_545
Li4 O0 2.179621 1_455
Li5 O1 1.984723 1_455
Li5 O1 1.984723 1_545
Li5 O5 2.119160 1_555
Li5 O12 2.135586 1_555
Li5 O9 2.244725 1_545
Li5 O9 2.244725 1_455
Li6 O6 2.093847 1_555
Li6 O10 2.107442 1_565
Li6 O10 2.107442 1_655
Li6 O13 2.131559 1_556
Li6 O2 2.179104 1_545
Li6 O2 2.179104 1_455
Li7 O1 2.030953 1_455
Li7 O1 2.030953 1_545
Li7 O7 2.146732 1_455
Li7 O7 2.146732 1_545
Li7 O11 2.168026 1_555
Li7 O4 2.185061 1_555
Mn0 O10 1.897532 1_555
Mn0 O0 1.925517 1_455
Mn0 O0 1.925517 1_545
Mn0 O13 1.952460 1_456
Mn0 O13 1.952460 1_546
Mn0 O3 2.040989 1_446
Mn1 O1 1.826670 1_555
Mn1 O11 1.936812 1_655
Mn1 O11 1.936812 1_565
Mn1 O5 1.961235 1_655
Mn1 O5 1.961235 1_565
Mn1 O8 2.086340 1_554
Co0 O2 1.935760 1_545
Co0 O2 1.935760 1_455
Co0 O8 1.938190 1_545
Co0 O8 1.938190 1_455
Co0 O5 2.131914 1_556
Co0 O12 2.140018 1_555
Co1 O9 1.920853 1_455
Co1 O9 1.920853 1_545
Co1 O3 1.946491 1_545
Co1 O3 1.946491 1_455
Co1 O6 2.129707 1_555
Co1 O13 2.176783 1_555
Co2 O7 1.792104 1_555
Co2 O4 1.970999 1_565
Co2 O4 1.970999 1_655
Co2 O10 2.107656 1_565
Co2 O10 2.107656 1_655
Co2 O0 2.495270 1_555
Co3 O12 1.934586 1_655
Co3 O12 1.934586 1_565
Co3 O6 1.945427 1_565
Co3 O6 1.945427 1_655
Co3 O9 2.142705 1_555
Co3 O2 2.144126 1_555
