# generated using pymatgen
data_ThSiOs2C
_symmetry_space_group_name_H-M   'P 1'
_cell_length_a   5.96367601
_cell_length_b   5.96367601
_cell_length_c   7.19352500
_cell_angle_alpha   90.00000000
_cell_angle_beta   90.00000000
_cell_angle_gamma   140.86062325
_symmetry_Int_Tables_number   1
_chemical_formula_structural   ThSiOs2C
_chemical_formula_sum   'Th2 Si2 Os4 C2'
_cell_volume   161.48902875
_cell_formula_units_Z   2
loop_
 _symmetry_equiv_pos_site_id
 _symmetry_equiv_pos_as_xyz
  1  'x, y, z'
loop_
 _atom_site_type_symbol
 _atom_site_label
 _atom_site_symmetry_multiplicity
 _atom_site_fract_x
 _atom_site_fract_y
 _atom_site_fract_z
 _atom_site_occupancy
  Th  Th0  1  0.55338200  0.44661800  0.25000000  1
  Th  Th1  1  0.44661800  0.55338200  0.75000000  1
  Si  Si0  1  0.27248100  0.72751900  0.25000000  1
  Si  Si1  1  0.72751900  0.27248100  0.75000000  1
  Os  Os0  1  0.83444900  0.16555100  0.05623000  1
  Os  Os1  1  0.16555100  0.83444900  0.94377000  1
  Os  Os2  1  0.16555100  0.83444900  0.55623000  1
  Os  Os3  1  0.83444900  0.16555100  0.44377000  1
  C  C0  1  0.00000000  0.00000000  0.00000000  1
  C  C1  1  0.00000000  0.00000000  0.50000000  1
loop_
_geom_bond_atom_site_label_1
_geom_bond_atom_site_label_2
_geom_bond_distance
_geom_bond_site_symmetry_2
Si0 Th0 3.156868 1_555
Si0 Th0 3.170679 1_455
Si0 Th0 3.170679 1_565
Si1 Th1 3.156868 1_555
Si1 Th1 3.170679 1_655
Si1 Th1 3.170679 1_545
Os0 Si1 2.509338 1_554
Os0 Si0 2.533405 1_655
Os0 Si0 2.533405 1_545
Os1 Si0 2.509338 1_556
Os1 Si1 2.533405 1_565
Os1 Si1 2.533405 1_455
Os2 Si0 2.509338 1_555
Os2 Si1 2.533405 1_565
Os2 Si1 2.533405 1_455
Os3 Si1 2.509338 1_555
Os3 Si0 2.533405 1_655
Os3 Si0 2.533405 1_545
C0 Os1 1.903985 1_544
C0 Os0 1.903985 1_455
C0 Th1 2.753961 1_554
C0 Th1 2.753961 1_444
C0 Th0 2.753961 1_555
C0 Th0 2.753961 1_445
C1 Os2 1.903985 1_545
C1 Os3 1.903985 1_455
C1 Th1 2.753961 1_445
C1 Th0 2.753961 1_445
C1 Th1 2.753961 1_555
C1 Th0 2.753961 1_555
