# generated using pymatgen
data_Mg14TiGa
_symmetry_space_group_name_H-M   'P 1'
_cell_length_a   6.32098056
_cell_length_b   6.21249461
_cell_length_c   10.18506786
_cell_angle_alpha   90.00000000
_cell_angle_beta   90.00000000
_cell_angle_gamma   119.43386883
_symmetry_Int_Tables_number   1
_chemical_formula_structural   Mg14TiGa
_chemical_formula_sum   'Mg14 Ti1 Ga1'
_cell_volume   348.33282627
_cell_formula_units_Z   1
loop_
 _symmetry_equiv_pos_site_id
 _symmetry_equiv_pos_as_xyz
  1  'x, y, z'
loop_
 _atom_site_type_symbol
 _atom_site_label
 _atom_site_symmetry_multiplicity
 _atom_site_fract_x
 _atom_site_fract_y
 _atom_site_fract_z
 _atom_site_occupancy
  Mg  Mg0  1  0.16704765  0.33352333  0.62500000  1
  Mg  Mg1  1  0.16631555  0.83315728  0.62500000  1
  Mg  Mg2  1  0.66518616  0.33053094  0.12500000  1
  Mg  Mg3  1  0.66538634  0.33356600  0.62500000  1
  Mg  Mg4  1  0.66518616  0.83465422  0.12500000  1
  Mg  Mg5  1  0.66538634  0.83181934  0.62500000  1
  Mg  Mg6  1  0.33097933  0.16765674  0.36905543  1
  Mg  Mg7  1  0.33097933  0.16765674  0.88094457  1
  Mg  Mg8  1  0.33097933  0.66332359  0.36905543  1
  Mg  Mg9  1  0.33097933  0.66332359  0.88094457  1
  Mg  Mg10  1  0.83908365  0.16954233  0.37253670  1
  Mg  Mg11  1  0.83908365  0.16954233  0.87746330  1
  Mg  Mg12  1  0.83616760  0.66808430  0.37129950  1
  Mg  Mg13  1  0.83616760  0.66808430  0.87870050  1
  Ti  Ti0  1  0.16171577  0.33085738  0.12500000  1
  Ga  Ga0  1  0.16935618  0.83467759  0.12500000  1
loop_
_geom_bond_atom_site_label_1
_geom_bond_atom_site_label_2
_geom_bond_distance
_geom_bond_site_symmetry_2
Mg0 Mg1 3.106250 1_545
Mg0 Mg1 3.106250 1_555
Mg0 Mg11 3.141910 1_455
Mg0 Mg10 3.141910 1_455
Mg0 Mg5 3.149859 1_555
Mg0 Mg3 3.149859 1_555
Mg0 Mg7 3.159185 1_555
Mg0 Mg6 3.159185 1_555
Mg0 Mg8 3.159191 1_555
Mg0 Mg9 3.159191 1_555
Mg0 Mg5 3.171121 1_445
Mg0 Mg3 3.171122 1_455
Mg1 Mg3 3.158709 1_565
Mg1 Mg5 3.158710 1_555
Mg1 Mg12 3.159133 1_455
Mg1 Mg13 3.159133 1_455
Mg1 Mg3 3.162287 1_455
Mg1 Mg5 3.162287 1_455
Mg1 Mg8 3.173541 1_555
Mg1 Mg9 3.173541 1_555
Mg1 Mg6 3.173547 1_565
Mg1 Mg7 3.173547 1_565
Mg2 Mg4 3.080631 1_545
Mg2 Mg7 3.092654 1_554
Mg2 Mg6 3.092654 1_555
Mg2 Mg4 3.131863 1_555
Mg2 Ti0 3.137558 1_655
Mg2 Ti0 3.183424 1_555
Mg3 Mg5 3.095396 1_555
Mg3 Mg5 3.117098 1_545
Mg3 Mg7 3.191332 1_555
Mg3 Mg6 3.191332 1_555
Mg4 Mg9 3.092654 1_554
Mg4 Mg8 3.092654 1_555
Mg4 Ti0 3.137558 1_665
Mg4 Ti0 3.183423 1_555
Mg5 Mg8 3.191332 1_555
Mg5 Mg9 3.191332 1_555
Mg6 Ti0 3.068815 1_555
Mg6 Mg8 3.079328 1_555
Mg6 Mg8 3.133167 1_545
Mg7 Ti0 3.068815 1_556
Mg7 Mg9 3.079328 1_555
Mg7 Mg9 3.133167 1_545
Mg8 Ti0 3.068821 1_555
Mg9 Ti0 3.068821 1_556
Mg10 Ti0 3.083981 1_655
Mg10 Mg2 3.105697 1_555
Mg10 Mg4 3.105704 1_545
Mg10 Mg12 3.106314 1_555
Mg10 Mg12 3.106314 1_545
Mg10 Mg8 3.115238 1_655
Mg10 Mg6 3.115238 1_655
Mg10 Mg3 3.155199 1_555
Mg10 Mg5 3.155205 1_545
Mg10 Mg8 3.206173 1_545
Mg10 Mg6 3.206173 1_555
Mg11 Ti0 3.083981 1_656
Mg11 Mg2 3.105697 1_556
Mg11 Mg4 3.105704 1_546
Mg11 Mg13 3.106314 1_555
Mg11 Mg13 3.106314 1_545
Mg11 Mg9 3.115238 1_655
Mg11 Mg7 3.115238 1_655
Mg11 Mg3 3.155199 1_555
Mg11 Mg5 3.155205 1_545
Mg11 Mg9 3.206173 1_545
Mg11 Mg7 3.206173 1_555
Mg12 Mg4 3.103396 1_555
Mg12 Mg2 3.103402 1_555
Mg12 Mg6 3.142418 1_665
Mg12 Mg8 3.142418 1_655
Mg12 Mg5 3.155328 1_555
Mg12 Mg3 3.155334 1_555
Mg12 Mg6 3.178937 1_555
Mg12 Mg8 3.178938 1_555
Mg13 Mg4 3.103396 1_556
Mg13 Mg2 3.103402 1_556
Mg13 Mg7 3.142418 1_665
Mg13 Mg9 3.142418 1_655
Mg13 Mg5 3.155328 1_555
Mg13 Mg3 3.155334 1_555
Mg13 Mg7 3.178937 1_555
Mg13 Mg9 3.178938 1_555
Ga0 Mg8 3.069956 1_555
Ga0 Mg9 3.069956 1_554
Ga0 Mg7 3.069962 1_564
Ga0 Mg6 3.069962 1_565
Ga0 Ti0 3.106532 1_565
Ga0 Ti0 3.106532 1_555
Ga0 Mg12 3.107631 1_455
Ga0 Mg13 3.107631 1_454
Ga0 Mg2 3.134203 1_565
Ga0 Mg4 3.134203 1_555
Ga0 Mg2 3.186777 1_455
Ga0 Mg4 3.186778 1_455
