# generated using pymatgen
data_Pr3Cr
_symmetry_space_group_name_H-M   'P 1'
_cell_length_a   6.24800287
_cell_length_b   6.24800287
_cell_length_c   6.24800287
_cell_angle_alpha   134.19819934
_cell_angle_beta   134.19819934
_cell_angle_gamma   66.77860225
_symmetry_Int_Tables_number   1
_chemical_formula_structural   Pr3Cr
_chemical_formula_sum   'Pr3 Cr1'
_cell_volume   123.35384458
_cell_formula_units_Z   1
loop_
 _symmetry_equiv_pos_site_id
 _symmetry_equiv_pos_as_xyz
  1  'x, y, z'
loop_
 _atom_site_type_symbol
 _atom_site_label
 _atom_site_symmetry_multiplicity
 _atom_site_fract_x
 _atom_site_fract_y
 _atom_site_fract_z
 _atom_site_occupancy
  Pr  Pr0  1  0.75000000  0.25000000  0.50000000  1
  Pr  Pr1  1  0.25000000  0.75000000  0.50000000  1
  Pr  Pr2  1  0.50000000  0.50000000  0.00000000  1
  Cr  Cr0  1  0.00000000  0.00000000  0.00000000  1
loop_
_geom_bond_atom_site_label_1
_geom_bond_atom_site_label_2
_geom_bond_distance
_geom_bond_site_symmetry_2
Pr0 Pr1 3.438431 1_555
Pr0 Pr1 3.438431 1_645
Pr0 Pr1 3.438431 1_544
Pr0 Pr1 3.438431 1_656
Pr0 Pr2 3.565822 1_556
Pr0 Pr2 3.565822 1_656
Pr0 Pr2 3.565822 1_545
Pr0 Pr2 3.565822 1_555
Pr1 Pr2 3.565822 1_556
Pr1 Pr2 3.565822 1_566
Pr1 Pr2 3.565822 1_555
Pr1 Pr2 3.565822 1_455
Cr0 Pr2 3.438431 1_556
Cr0 Pr2 3.438431 1_444
Cr0 Pr2 3.438431 1_455
Cr0 Pr2 3.438431 1_545
Cr0 Pr1 3.565822 1_444
Cr0 Pr0 3.565822 1_455
Cr0 Pr1 3.565822 1_545
Cr0 Pr1 3.565822 1_544
Cr0 Pr1 3.565822 1_555
Cr0 Pr0 3.565822 1_454
Cr0 Pr0 3.565822 1_555
Cr0 Pr0 3.565822 1_444
