# generated using pymatgen
data_SrCo(PO4)2
_symmetry_space_group_name_H-M   'P 1'
_cell_length_a   6.01721500
_cell_length_b   7.16816059
_cell_length_c   8.93814833
_cell_angle_alpha   109.59100246
_cell_angle_beta   102.80686075
_cell_angle_gamma   101.80885547
_symmetry_Int_Tables_number   1
_chemical_formula_structural   SrCo(PO4)2
_chemical_formula_sum   'Sr2 Co2 P4 O16'
_cell_volume   337.44526625
_cell_formula_units_Z   2
loop_
 _symmetry_equiv_pos_site_id
 _symmetry_equiv_pos_as_xyz
  1  'x, y, z'
loop_
 _atom_site_type_symbol
 _atom_site_label
 _atom_site_symmetry_multiplicity
 _atom_site_fract_x
 _atom_site_fract_y
 _atom_site_fract_z
 _atom_site_occupancy
  Sr  Sr0  1  0.25452700  0.77514000  0.04306600  1
  Sr  Sr1  1  0.74547300  0.22486000  0.95693400  1
  Co  Co0  1  0.69843300  0.82362200  0.54729800  1
  Co  Co1  1  0.30156700  0.17637800  0.45270200  1
  P  P0  1  0.40382900  0.42304600  0.23236200  1
  P  P1  1  0.59617100  0.57695400  0.76763800  1
  P  P2  1  0.84879700  0.02693700  0.30613600  1
  P  P3  1  0.15120300  0.97306300  0.69386400  1
  O  O0  1  0.81972300  0.56763000  0.88404700  1
  O  O1  1  0.62219300  0.45116300  0.17596400  1
  O  O2  1  0.65125500  0.78821000  0.74104700  1
  O  O3  1  0.94422500  0.08042200  0.69849500  1
  O  O4  1  0.37780700  0.54883700  0.82403600  1
  O  O5  1  0.98699100  0.74958500  0.56144400  1
  O  O6  1  0.01300900  0.25041500  0.43855600  1
  O  O7  1  0.27945300  0.98815000  0.86589000  1
  O  O8  1  0.34874500  0.21179000  0.25895300  1
  O  O9  1  0.72054700  0.01185000  0.13411000  1
  O  O10  1  0.18027700  0.43237000  0.11595300  1
  O  O11  1  0.44017500  0.60370200  0.40634300  1
  O  O12  1  0.55982500  0.39629800  0.59365700  1
  O  O13  1  0.65392000  0.93245300  0.37281200  1
  O  O14  1  0.05577500  0.91957800  0.30150500  1
  O  O15  1  0.34608000  0.06754700  0.62718800  1
loop_
_geom_bond_atom_site_label_1
_geom_bond_atom_site_label_2
_geom_bond_distance
_geom_bond_site_symmetry_2
Co0 O11 1.812391 1_555
Co0 O2 1.904534 1_555
Co0 O5 1.907160 1_555
Co0 O3 1.932244 1_565
Co0 O13 1.956745 1_555
Co1 O12 1.812391 1_555
Co1 O8 1.904534 1_555
Co1 O6 1.907160 1_555
Co1 O14 1.932244 1_545
Co1 O15 1.956745 1_555
O0 P1 1.536055 1_555
O0 Sr0 2.533496 1_656
O0 Sr1 2.722903 1_555
O1 P0 1.508165 1_555
O1 Sr1 2.453783 1_554
O2 P1 1.590709 1_555
O2 Sr1 2.929181 1_565
O3 P3 1.593368 1_645
O3 Sr1 2.822382 1_555
O4 P1 1.508165 1_555
O4 Sr0 2.453783 1_556
O5 P3 1.582900 1_655
O6 P2 1.582900 1_455
O7 P3 1.516479 1_555
O7 Sr0 2.548503 1_556
O7 Sr1 2.742162 1_565
O8 P0 1.590709 1_555
O8 Sr0 2.929181 1_545
O9 P2 1.516479 1_555
O9 Sr1 2.548503 1_554
O9 Sr0 2.742162 1_545
O10 P0 1.536055 1_555
O10 Sr1 2.533496 1_454
O10 Sr0 2.722903 1_555
O11 P0 1.589301 1_555
O12 P1 1.589301 1_555
O13 P2 1.563437 1_565
O13 Sr0 3.042315 1_555
O14 P2 1.593368 1_465
O14 Sr0 2.822382 1_555
O15 P3 1.563437 1_545
O15 Sr1 3.042315 1_555
