# generated using pymatgen
data_CaTi4O8
_symmetry_space_group_name_H-M   'P 1'
_cell_length_a   7.36767501
_cell_length_b   7.36767501
_cell_length_c   9.75326629
_cell_angle_alpha   49.21563850
_cell_angle_beta   49.21563850
_cell_angle_gamma   23.68524431
_symmetry_Int_Tables_number   1
_chemical_formula_structural   CaTi4O8
_chemical_formula_sum   'Ca1 Ti4 O8'
_cell_volume   158.37853387
_cell_formula_units_Z   1
loop_
 _symmetry_equiv_pos_site_id
 _symmetry_equiv_pos_as_xyz
  1  'x, y, z'
loop_
 _atom_site_type_symbol
 _atom_site_label
 _atom_site_symmetry_multiplicity
 _atom_site_fract_x
 _atom_site_fract_y
 _atom_site_fract_z
 _atom_site_occupancy
  Ca  Ca0  1  0.62209500  0.62209500  0.85525200  1
  Ti  Ti0  1  0.36884700  0.36884700  0.43835300  1
  Ti  Ti1  1  0.85946000  0.85946000  0.79036100  1
  Ti  Ti2  1  0.16644500  0.16644500  0.15826400  1
  Ti  Ti3  1  0.65657600  0.65657600  0.49638900  1
  O  O0  1  0.14633300  0.14633300  0.37337500  1
  O  O1  1  0.54494000  0.54494000  0.23516900  1
  O  O2  1  0.47338300  0.47338300  0.70973300  1
  O  O3  1  0.85356200  0.85356200  0.59189200  1
  O  O4  1  0.83676800  0.83676800  0.33741800  1
  O  O5  1  0.21883100  0.21883100  0.90256400  1
  O  O6  1  0.16580900  0.16580900  0.63915500  1
  O  O7  1  0.79038000  0.79038000  0.04143000  1
loop_
_geom_bond_atom_site_label_1
_geom_bond_atom_site_label_2
_geom_bond_distance
_geom_bond_site_symmetry_2
Ca0 O5 2.303209 1_565
Ca0 O5 2.303209 1_655
Ca0 O6 2.313486 1_565
Ca0 O6 2.313486 1_655
Ca0 O3 2.509093 1_555
O0 Ti2 1.916660 1_555
O0 Ti3 1.996024 1_455
O0 Ti3 1.996024 1_545
O1 Ti0 1.912781 1_555
O1 Ti2 2.040822 1_565
O1 Ti2 2.040822 1_655
O2 Ti1 1.969603 1_545
O2 Ti1 1.969603 1_455
O2 Ti3 1.992871 1_555
O3 Ti1 1.993498 1_555
O3 Ti0 2.033888 1_655
O3 Ti0 2.033888 1_565
O4 Ti3 1.943907 1_555
O4 Ti0 2.019238 1_565
O4 Ti0 2.019238 1_655
O5 Ti2 2.067689 1_556
O5 Ti1 2.152772 1_455
O5 Ti1 2.152772 1_545
O6 Ti3 2.119037 1_455
O6 Ti3 2.119037 1_545
O6 Ti0 2.180547 1_555
O7 Ti1 1.931950 1_554
O7 Ti2 2.015108 1_655
O7 Ti2 2.015108 1_565
