# generated using pymatgen
data_Tm2NiRuO6
_symmetry_space_group_name_H-M   'P 1'
_cell_length_a   5.67565000
_cell_length_b   5.23522200
_cell_length_c   9.21999587
_cell_angle_alpha   55.88323457
_cell_angle_beta   90.00000000
_cell_angle_gamma   90.00000000
_symmetry_Int_Tables_number   1
_chemical_formula_structural   Tm2NiRuO6
_chemical_formula_sum   'Tm4 Ni2 Ru2 O12'
_cell_volume   226.80746801
_cell_formula_units_Z   2
loop_
 _symmetry_equiv_pos_site_id
 _symmetry_equiv_pos_as_xyz
  1  'x, y, z'
loop_
 _atom_site_type_symbol
 _atom_site_label
 _atom_site_symmetry_multiplicity
 _atom_site_fract_x
 _atom_site_fract_y
 _atom_site_fract_z
 _atom_site_occupancy
  Tm  Tm0  1  0.07921800  0.72060900  0.75260600  1
  Tm  Tm1  1  0.92078200  0.27939100  0.24739400  1
  Tm  Tm2  1  0.57921800  0.27939100  0.74739400  1
  Tm  Tm3  1  0.42078200  0.72060900  0.25260600  1
  Ni  Ni0  1  0.50000000  0.50000000  0.00000000  1
  Ni  Ni1  1  0.00000000  0.50000000  0.50000000  1
  Ru  Ru0  1  0.50000000  0.00000000  0.50000000  1
  Ru  Ru1  1  0.00000000  0.00000000  0.00000000  1
  O  O0  1  0.44807200  0.88531700  0.74675200  1
  O  O1  1  0.55192800  0.11468300  0.25324800  1
  O  O2  1  0.94807200  0.11468300  0.75324800  1
  O  O3  1  0.05192800  0.88531700  0.24675200  1
  O  O4  1  0.80324000  0.74984900  0.57006000  1
  O  O5  1  0.19676000  0.25015100  0.42994000  1
  O  O6  1  0.30324000  0.25015100  0.92994000  1
  O  O7  1  0.69676000  0.74984900  0.07006000  1
  O  O8  1  0.31280700  0.62671900  0.55983100  1
  O  O9  1  0.68719300  0.37328100  0.44016900  1
  O  O10  1  0.81280700  0.37328100  0.94016900  1
  O  O11  1  0.18719300  0.62671900  0.05983100  1
loop_
_geom_bond_atom_site_label_1
_geom_bond_atom_site_label_2
_geom_bond_distance
_geom_bond_site_symmetry_2
Ni0 O11 2.075311 1_555
Ni0 O10 2.075311 1_554
Ni0 O6 2.079198 1_554
Ni0 O7 2.079198 1_555
Ni0 O0 2.079519 1_554
Ni0 O1 2.079519 1_555
Ni1 O8 2.075311 1_555
Ni1 O9 2.075311 1_455
Ni1 O4 2.079198 1_455
Ni1 O5 2.079198 1_555
Ni1 O2 2.079519 1_455
Ni1 O3 2.079519 1_555
O0 Ru0 2.022611 1_565
O0 Tm2 2.196363 1_565
O0 Tm0 2.253203 1_555
O1 Ru0 2.022611 1_555
O1 Tm3 2.196363 1_545
O1 Tm1 2.253203 1_555
O2 Ru1 2.022611 1_656
O2 Tm0 2.196363 1_645
O2 Tm2 2.253203 1_555
O3 Ru1 2.022611 1_565
O3 Tm1 2.196363 1_465
O3 Tm3 2.253203 1_555
O4 Ru0 2.036047 1_565
O4 Tm0 2.240675 1_655
O4 Tm2 2.416350 1_555
O4 Tm1 2.780174 1_565
O5 Ru0 2.036047 1_555
O5 Tm1 2.240675 1_455
O5 Tm3 2.416350 1_555
O5 Tm0 2.780174 1_545
O6 Ru1 2.036047 1_556
O6 Tm2 2.240675 1_555
O6 Tm0 2.416350 1_555
O6 Tm3 2.780174 1_546
O7 Ru1 2.036047 1_665
O7 Tm3 2.240675 1_555
O7 Tm1 2.416350 1_555
O7 Tm2 2.780174 1_564
O8 Ru0 2.010656 1_565
O8 Tm2 2.248524 1_555
O8 Tm0 2.477578 1_555
O8 Tm3 2.660639 1_555
O9 Ru0 2.010656 1_555
O9 Tm3 2.248524 1_555
O9 Tm1 2.477578 1_555
O9 Tm2 2.660639 1_555
O10 Ru1 2.010656 1_656
O10 Tm0 2.248524 1_655
O10 Tm2 2.477578 1_555
O10 Tm1 2.660639 1_556
O11 Ru1 2.010656 1_565
O11 Tm1 2.248524 1_455
O11 Tm3 2.477578 1_555
O11 Tm0 2.660639 1_554
