# generated using pymatgen
data_SrNiO3
_symmetry_space_group_name_H-M   'P 1'
_cell_length_a   3.89340266
_cell_length_b   11.12972517
_cell_length_c   5.48377977
_cell_angle_alpha   89.98498803
_cell_angle_beta   89.97147250
_cell_angle_gamma   90.03248363
_symmetry_Int_Tables_number   1
_chemical_formula_structural   SrNiO3
_chemical_formula_sum   'Sr4 Ni4 O12'
_cell_volume   237.62582014
_cell_formula_units_Z   4
loop_
 _symmetry_equiv_pos_site_id
 _symmetry_equiv_pos_as_xyz
  1  'x, y, z'
loop_
 _atom_site_type_symbol
 _atom_site_label
 _atom_site_symmetry_multiplicity
 _atom_site_fract_x
 _atom_site_fract_y
 _atom_site_fract_z
 _atom_site_occupancy
  Sr  Sr0  1  0.00001800  0.12416400  0.25001400  1
  Sr  Sr1  1  0.99996900  0.37634200  0.75000400  1
  Sr  Sr2  1  0.99997000  0.62285400  0.24994900  1
  Sr  Sr3  1  0.00002700  0.87660800  0.75004900  1
  Ni  Ni0  1  0.49995900  0.62602500  0.74990200  1
  Ni  Ni1  1  0.50004200  0.87397100  0.25011200  1
  Ni  Ni2  1  0.50002700  0.12744600  0.75014800  1
  Ni  Ni3  1  0.49998600  0.37267800  0.24983300  1
  O  O0  1  0.50000500  0.24993700  0.99992200  1
  O  O1  1  0.50001200  0.50593100  0.49965100  1
  O  O2  1  0.50000600  0.75003400  0.99997700  1
  O  O3  1  0.49997900  0.99406300  0.50032900  1
  O  O4  1  0.49999700  0.24994300  0.50005400  1
  O  O5  1  0.50003300  0.50578000  0.99980800  1
  O  O6  1  0.50000000  0.75004100  0.50002200  1
  O  O7  1  0.49996600  0.99420800  0.00021800  1
  O  O8  1  0.00003300  0.13002200  0.75014500  1
  O  O9  1  0.99997000  0.36990100  0.24986000  1
  O  O10  1  0.99994600  0.63277300  0.75007500  1
  O  O11  1  0.00005200  0.86727800  0.24993000  1
loop_
_geom_bond_atom_site_label_1
_geom_bond_atom_site_label_2
_geom_bond_distance
_geom_bond_site_symmetry_2
Ni0 O5 1.915241 1_555
Ni0 O1 1.915923 1_555
Ni0 O6 1.944691 1_555
Ni0 O2 1.945899 1_555
Ni0 O10 1.948057 1_555
Ni0 O10 1.948242 1_455
Ni1 O7 1.915131 1_555
Ni1 O3 1.915774 1_555
Ni1 O6 1.944128 1_555
Ni1 O2 1.945563 1_554
Ni1 O11 1.948046 1_555
Ni1 O11 1.948207 1_655
Ni2 O0 1.932779 1_555
Ni2 O4 1.933564 1_555
Ni2 O8 1.946905 1_555
Ni2 O8 1.946920 1_655
Ni2 O7 2.019524 1_546
Ni2 O3 2.020303 1_545
Ni3 O0 1.935275 1_554
Ni3 O4 1.935925 1_555
Ni3 O9 1.946902 1_555
Ni3 O9 1.946991 1_455
Ni3 O5 2.018245 1_554
Ni3 O1 2.019236 1_555
O0 Sr0 2.760989 1_556
O0 Sr0 2.763142 1_656
O0 Sr1 2.764023 1_555
O0 Sr1 2.766304 1_455
O1 Sr2 2.711272 1_555
O1 Sr2 2.713545 1_455
O1 Sr1 2.783598 1_455
O1 Sr1 2.785463 1_555
O2 Sr3 2.765163 1_655
O2 Sr3 2.767132 1_555
O2 Sr2 2.768762 1_456
O2 Sr2 2.770652 1_556
O3 Sr3 2.714149 1_555
O3 Sr3 2.716457 1_655
O3 Sr0 2.786438 1_665
O3 Sr0 2.788327 1_565
O4 Sr0 2.762186 1_555
O4 Sr0 2.762458 1_655
O4 Sr1 2.765424 1_555
O4 Sr1 2.765739 1_455
O5 Sr2 2.714560 1_556
O5 Sr2 2.714991 1_456
O5 Sr1 2.782469 1_555
O5 Sr1 2.782629 1_455
O6 Sr3 2.766735 1_655
O6 Sr3 2.766750 1_555
O6 Sr2 2.770386 1_455
O6 Sr2 2.770390 1_555
O7 Sr3 2.717456 1_554
O7 Sr3 2.717881 1_654
O7 Sr0 2.785472 1_565
O7 Sr0 2.785563 1_665
O8 Sr1 2.741474 1_455
O8 Sr0 2.741930 1_556
O8 Sr0 2.743400 1_555
O8 Sr3 2.820428 1_545
O9 Sr0 2.734985 1_655
O9 Sr1 2.742019 1_554
O9 Sr1 2.743635 1_555
O9 Sr2 2.815298 1_555
O10 Sr3 2.713816 1_655
O10 Sr2 2.743392 1_556
O10 Sr2 2.744831 1_555
O10 Sr1 2.854007 1_555
O11 Sr2 2.720372 1_455
O11 Sr3 2.743176 1_554
O11 Sr3 2.744535 1_555
O11 Sr0 2.859071 1_565
