# generated using pymatgen
data_FeCu4BiPbS6
_symmetry_space_group_name_H-M   'P 1'
_cell_length_a   3.88687600
_cell_length_b   10.82936400
_cell_length_c   12.11926300
_cell_angle_alpha   90.00000000
_cell_angle_beta   90.00000000
_cell_angle_gamma   90.00000000
_symmetry_Int_Tables_number   1
_chemical_formula_structural   FeCu4BiPbS6
_chemical_formula_sum   'Fe2 Cu8 Bi2 Pb2 S12'
_cell_volume   510.12880563
_cell_formula_units_Z   2
loop_
 _symmetry_equiv_pos_site_id
 _symmetry_equiv_pos_as_xyz
  1  'x, y, z'
loop_
 _atom_site_type_symbol
 _atom_site_label
 _atom_site_symmetry_multiplicity
 _atom_site_fract_x
 _atom_site_fract_y
 _atom_site_fract_z
 _atom_site_occupancy
  Fe  Fe0  1  0.00000000  0.70749000  0.18006900  1
  Fe  Fe1  1  0.00000000  0.29251000  0.68006900  1
  Cu  Cu0  1  0.50000000  0.97933700  0.77510800  1
  Cu  Cu1  1  0.50000000  0.02066300  0.27510800  1
  Cu  Cu2  1  0.00000000  0.51477300  0.57459100  1
  Cu  Cu3  1  0.00000000  0.48522700  0.07459100  1
  Cu  Cu4  1  0.50000000  0.62189500  0.33714300  1
  Cu  Cu5  1  0.50000000  0.37810500  0.83714300  1
  Cu  Cu6  1  0.50000000  0.78687600  0.04225200  1
  Cu  Cu7  1  0.50000000  0.21312400  0.54225200  1
  Bi  Bi0  1  0.00000000  0.84808300  0.49339100  1
  Bi  Bi1  1  0.00000000  0.15191700  0.99339100  1
  Pb  Pb0  1  0.50000000  0.69258800  0.77646000  1
  Pb  Pb1  1  0.50000000  0.30741200  0.27646000  1
  S  S0  1  0.50000000  0.81055600  0.23626200  1
  S  S1  1  0.50000000  0.18944400  0.73626200  1
  S  S2  1  0.50000000  0.97907600  0.96291300  1
  S  S3  1  0.50000000  0.02092400  0.46291300  1
  S  S4  1  0.00000000  0.52385400  0.26797100  1
  S  S5  1  0.00000000  0.47614600  0.76797100  1
  S  S6  1  0.00000000  0.68029500  0.99288900  1
  S  S7  1  0.00000000  0.31970500  0.49288900  1
  S  S8  1  0.00000000  0.88803100  0.70786000  1
  S  S9  1  0.00000000  0.11196900  0.20786000  1
  S  S10  1  0.50000000  0.63156200  0.53009100  1
  S  S11  1  0.50000000  0.36843800  0.03009100  1
loop_
_geom_bond_atom_site_label_1
_geom_bond_atom_site_label_2
_geom_bond_distance
_geom_bond_site_symmetry_2
Fe0 S4 2.256026 1_555
Fe0 S6 2.287521 1_554
Fe0 S0 2.342329 1_555
Fe0 S0 2.342329 1_455
Fe1 S5 2.256026 1_555
Fe1 S7 2.287521 1_555
Fe1 S1 2.342329 1_555
Fe1 S1 2.342329 1_455
Cu0 S2 2.276060 1_555
Cu0 S1 2.323520 1_565
Cu0 S8 2.327846 1_655
Cu0 S8 2.327846 1_555
Cu0 Pb0 3.105353 1_555
Cu1 S3 2.276060 1_555
Cu1 S0 2.323520 1_545
Cu1 S9 2.327846 1_555
Cu1 S9 2.327846 1_655
Cu1 Pb1 3.105353 1_555
Cu2 S7 2.333009 1_555
Cu2 S10 2.380630 1_455
Cu2 S10 2.380630 1_555
Cu2 S5 2.380661 1_555
Cu3 S6 2.333009 1_554
Cu3 S11 2.380630 1_555
Cu3 S11 2.380630 1_455
Cu3 S4 2.380661 1_555
Cu4 S10 2.340730 1_555
Cu4 S4 2.367905 1_655
Cu4 S4 2.367905 1_555
Cu4 S0 2.380951 1_555
Cu5 S11 2.340730 1_556
Cu5 S5 2.367905 1_655
Cu5 S5 2.367905 1_555
Cu5 S1 2.380951 1_555
Cu6 S2 2.292767 1_554
Cu6 S6 2.338169 1_654
Cu6 S6 2.338169 1_554
Cu6 S0 2.365201 1_555
Cu7 S3 2.292767 1_555
Cu7 S7 2.338169 1_655
Cu7 S7 2.338169 1_555
Cu7 S1 2.365201 1_555
Bi0 S8 2.634962 1_555
Bi0 S3 2.723392 1_465
Bi0 S3 2.723392 1_565
Bi0 S10 3.077790 1_555
Bi0 S10 3.077790 1_455
Bi1 S9 2.634962 1_556
Bi1 S2 2.723392 1_545
Bi1 S2 2.723392 1_445
Bi1 S11 3.077790 1_556
Bi1 S11 3.077790 1_456
Pb0 S8 2.991290 1_555
Pb0 S8 2.991290 1_655
Pb0 S5 3.046562 1_555
Pb0 S5 3.046562 1_655
Pb0 S10 3.058074 1_555
Pb1 S9 2.991290 1_555
Pb1 S9 2.991290 1_655
Pb1 S4 3.046562 1_555
Pb1 S4 3.046562 1_655
Pb1 S11 3.058074 1_555
