# generated using pymatgen
data_Cs2MnCl4
_symmetry_space_group_name_H-M   'P 1'
_cell_length_a   5.14018026
_cell_length_b   5.14018852
_cell_length_c   9.24014350
_cell_angle_alpha   106.14948845
_cell_angle_beta   106.14946179
_cell_angle_gamma   90.00000000
_symmetry_Int_Tables_number   1
_chemical_formula_structural   Cs2MnCl4
_chemical_formula_sum   'Cs2 Mn1 Cl4'
_cell_volume   224.45757031
_cell_formula_units_Z   1
loop_
 _symmetry_equiv_pos_site_id
 _symmetry_equiv_pos_as_xyz
  1  'x, y, z'
loop_
 _atom_site_type_symbol
 _atom_site_label
 _atom_site_symmetry_multiplicity
 _atom_site_fract_x
 _atom_site_fract_y
 _atom_site_fract_z
 _atom_site_occupancy
  Cs  Cs0  1  0.35680187  0.35680187  0.71360474  1
  Cs  Cs1  1  0.64319813  0.64319813  0.28639526  1
  Mn  Mn0  1  0.00000000  0.00000000  0.00000000  1
  Cl  Cl0  1  0.14851631  0.14851631  0.29703162  1
  Cl  Cl1  1  0.85148369  0.85148369  0.70296838  1
  Cl  Cl2  1  0.00000000  0.50000000  -0.00000000  1
  Cl  Cl3  1  0.50000000  0.00000000  -0.00000000  1
loop_
_geom_bond_atom_site_label_1
_geom_bond_atom_site_label_2
_geom_bond_distance
_geom_bond_site_symmetry_2
Cl0 Mn0 2.523362 1_555
Cl0 Cs0 3.538898 1_555
Cl0 Cs1 3.635782 1_545
Cl0 Cs1 3.635782 1_445
Cl0 Cs1 3.635782 1_555
Cl0 Cs1 3.635782 1_455
Cl1 Mn0 2.523362 1_666
Cl1 Cs1 3.538898 1_555
Cl1 Cs0 3.635782 1_555
Cl1 Cs0 3.635782 1_655
Cl1 Cs0 3.635782 1_665
Cl1 Cs0 3.635782 1_565
Cl2 Mn0 2.570094 1_565
Cl2 Mn0 2.570094 1_555
Cl2 Cs1 3.539047 1_455
Cl2 Cs0 3.539047 1_554
Cl2 Cs1 3.539051 1_555
Cl2 Cs0 3.539051 1_454
Cl3 Mn0 2.570090 1_655
Cl3 Mn0 2.570090 1_555
Cl3 Cs1 3.539050 1_545
Cl3 Cs0 3.539050 1_554
Cl3 Cs1 3.539054 1_555
Cl3 Cs0 3.539054 1_544
