# generated using pymatgen
data_Na2Ge2Se5
_symmetry_space_group_name_H-M   'P 1'
_cell_length_a   6.19714026
_cell_length_b   11.21003368
_cell_length_c   14.08299227
_cell_angle_alpha   90.00000000
_cell_angle_beta   90.00000000
_cell_angle_gamma   90.00000000
_symmetry_Int_Tables_number   1
_chemical_formula_structural   Na2Ge2Se5
_chemical_formula_sum   'Na8 Ge8 Se20'
_cell_volume   978.34760001
_cell_formula_units_Z   4
loop_
 _symmetry_equiv_pos_site_id
 _symmetry_equiv_pos_as_xyz
  1  'x, y, z'
loop_
 _atom_site_type_symbol
 _atom_site_label
 _atom_site_symmetry_multiplicity
 _atom_site_fract_x
 _atom_site_fract_y
 _atom_site_fract_z
 _atom_site_occupancy
  Na  Na0  1  0.99105922  0.49421929  0.05776562  1
  Na  Na1  1  0.00894078  0.99421929  0.94223438  1
  Na  Na2  1  0.50894078  0.49421929  0.55776562  1
  Na  Na3  1  0.49105922  0.99421929  0.44223438  1
  Na  Na4  1  0.99948994  0.24893346  0.46239536  1
  Na  Na5  1  0.00051006  0.74893346  0.53760464  1
  Na  Na6  1  0.50051006  0.24893346  0.96239536  1
  Na  Na7  1  0.49948994  0.74893346  0.03760464  1
  Ge  Ge0  1  0.53395516  0.39362137  0.20567572  1
  Ge  Ge1  1  0.46604484  0.89362137  0.79432428  1
  Ge  Ge2  1  0.96604484  0.39362137  0.70567572  1
  Ge  Ge3  1  0.03395516  0.89362137  0.29432428  1
  Ge  Ge4  1  0.04149021  0.20131649  0.15468397  1
  Ge  Ge5  1  0.95850979  0.70131649  0.84531603  1
  Ge  Ge6  1  0.45850979  0.20131649  0.65468397  1
  Ge  Ge7  1  0.54149021  0.70131649  0.34531603  1
  Se  Se0  1  0.39426689  0.50462242  0.33664277  1
  Se  Se1  1  0.60573311  0.00462242  0.66335723  1
  Se  Se2  1  0.10573311  0.50462242  0.83664277  1
  Se  Se3  1  0.89426689  0.00462242  0.16335723  1
  Se  Se4  1  0.90111896  0.69255124  0.28525639  1
  Se  Se5  1  0.09888104  0.19255124  0.71474361  1
  Se  Se6  1  0.59888104  0.69255124  0.78525639  1
  Se  Se7  1  0.40111896  0.19255124  0.21474361  1
  Se  Se8  1  0.39861741  0.85394279  0.24318697  1
  Se  Se9  1  0.60138259  0.35394279  0.75681303  1
  Se  Se10  1  0.10138259  0.85394279  0.74318697  1
  Se  Se11  1  0.89861741  0.35394279  0.25681303  1
  Se  Se12  1  0.50051706  0.74470366  0.50341401  1
  Se  Se13  1  0.49948294  0.24470366  0.49658599  1
  Se  Se14  1  0.99948294  0.74470366  0.00341401  1
  Se  Se15  1  0.00051706  0.24470366  0.99658599  1
  Se  Se16  1  0.49616785  0.48328928  0.06082389  1
  Se  Se17  1  0.50383215  0.98328928  0.93917611  1
  Se  Se18  1  0.00383215  0.48328928  0.56082389  1
  Se  Se19  1  0.99616785  0.98328928  0.43917611  1
loop_
_geom_bond_atom_site_label_1
_geom_bond_atom_site_label_2
_geom_bond_distance
_geom_bond_site_symmetry_2
Na0 Se14 2.910864 1_555
Na0 Se15 2.927358 1_654
Na0 Se16 3.069660 1_555
Na0 Se16 3.132922 1_655
Na0 Se2 3.196258 1_654
Na0 Se11 3.264780 1_555
Na1 Se15 2.910864 1_565
Na1 Se14 2.927358 1_456
Na1 Se17 3.069660 1_555
Na1 Se17 3.132922 1_455
Na1 Se3 3.196258 1_466
Na1 Se10 3.264780 1_555
Na2 Se12 2.910864 1_555
Na2 Se13 2.927358 1_555
Na2 Se18 3.069660 1_655
Na2 Se18 3.132922 1_555
Na2 Se0 3.196258 1_555
Na2 Se9 3.264780 1_555
Na3 Se13 2.910864 1_565
Na3 Se12 2.927358 1_555
Na3 Se19 3.069660 1_455
Na3 Se19 3.132922 1_555
Na3 Se1 3.196258 1_565
Na3 Se8 3.264780 1_555
Na4 Se18 2.970527 1_655
Na4 Se19 2.995851 1_545
Na4 Se13 3.136075 1_655
Na4 Se13 3.136160 1_555
Na4 Se11 3.187278 1_555
Na5 Se19 2.970527 1_455
Na5 Se18 2.995851 1_555
Na5 Se12 3.136075 1_455
Na5 Se12 3.136160 1_555
Na5 Se10 3.187278 1_555
Na6 Se16 2.970527 1_556
Na6 Se17 2.995851 1_545
Na6 Se15 3.136075 1_555
Na6 Se15 3.136160 1_655
Na6 Se9 3.187278 1_555
Na7 Se17 2.970527 1_554
Na7 Se16 2.995851 1_555
Na7 Se14 3.136075 1_555
Na7 Se14 3.136160 1_455
Na7 Se8 3.187278 1_555
Ge0 Se16 2.286178 1_555
Ge0 Se0 2.387377 1_555
Ge0 Se7 2.403020 1_555
Ge0 Se11 2.413186 1_555
Ge1 Se17 2.286178 1_555
Ge1 Se1 2.387377 1_565
Ge1 Se6 2.403020 1_555
Ge1 Se10 2.413186 1_555
Ge2 Se18 2.286178 1_655
Ge2 Se2 2.387377 1_655
Ge2 Se5 2.403020 1_655
Ge2 Se9 2.413186 1_555
Ge3 Se19 2.286178 1_455
Ge3 Se3 2.387377 1_465
Ge3 Se4 2.403020 1_455
Ge3 Se8 2.413186 1_555
Ge4 Se15 2.293098 1_554
Ge4 Se7 2.385798 1_555
Ge4 Se3 2.389376 1_455
Ge4 Se11 2.404149 1_455
Ge5 Se14 2.293098 1_556
Ge5 Se6 2.385798 1_555
Ge5 Se2 2.389376 1_655
Ge5 Se10 2.404149 1_655
Ge6 Se13 2.293098 1_555
Ge6 Se5 2.385798 1_555
Ge6 Se1 2.389376 1_555
Ge6 Se9 2.404149 1_555
Ge7 Se12 2.293098 1_555
Ge7 Se4 2.385798 1_555
Ge7 Se0 2.389376 1_555
Ge7 Se8 2.404149 1_555
