# generated using pymatgen
data_LaPrCr2O6
_symmetry_space_group_name_H-M   'P 1'
_cell_length_a   5.56844900
_cell_length_b   5.59880700
_cell_length_c   7.88302900
_cell_angle_alpha   90.00000000
_cell_angle_beta   90.00000000
_cell_angle_gamma   90.00000000
_symmetry_Int_Tables_number   1
_chemical_formula_structural   LaPrCr2O6
_chemical_formula_sum   'La2 Pr2 Cr4 O12'
_cell_volume   245.76660351
_cell_formula_units_Z   2
loop_
 _symmetry_equiv_pos_site_id
 _symmetry_equiv_pos_as_xyz
  1  'x, y, z'
loop_
 _atom_site_type_symbol
 _atom_site_label
 _atom_site_symmetry_multiplicity
 _atom_site_fract_x
 _atom_site_fract_y
 _atom_site_fract_z
 _atom_site_occupancy
  La  La0  1  0.24221100  0.46703100  0.50000000  1
  La  La1  1  0.75778900  0.96703100  0.50000000  1
  Pr  Pr0  1  0.25987500  0.54010800  0.00000000  1
  Pr  Pr1  1  0.74012500  0.04010800  0.00000000  1
  Cr  Cr0  1  0.75045300  0.50034000  0.75099400  1
  Cr  Cr1  1  0.24954700  0.00034000  0.24900600  1
  Cr  Cr2  1  0.75045300  0.50034000  0.24900600  1
  Cr  Cr3  1  0.24954700  0.00034000  0.75099400  1
  O  O0  1  0.16559300  0.97957000  0.00000000  1
  O  O1  1  0.83440700  0.47957000  0.00000000  1
  O  O2  1  0.33050700  0.01721600  0.50000000  1
  O  O3  1  0.66949300  0.51721600  0.50000000  1
  O  O4  1  0.03729400  0.71281600  0.29255800  1
  O  O5  1  0.96270600  0.21281600  0.70744200  1
  O  O6  1  0.46509700  0.28488000  0.79645100  1
  O  O7  1  0.53490300  0.78488000  0.20354900  1
  O  O8  1  0.46509700  0.28488000  0.20354900  1
  O  O9  1  0.53490300  0.78488000  0.79645100  1
  O  O10  1  0.03729400  0.71281600  0.70744200  1
  O  O11  1  0.96270600  0.21281600  0.29255800  1
loop_
_geom_bond_atom_site_label_1
_geom_bond_atom_site_label_2
_geom_bond_distance
_geom_bond_site_symmetry_2
La0 O3 2.395831 1_555
La0 O4 2.422769 1_555
La0 O10 2.422769 1_555
La0 O2 2.565973 1_555
La0 O5 2.668765 1_455
La0 O11 2.668765 1_455
La0 O6 2.835790 1_555
La0 O8 2.835790 1_555
La1 O2 2.395831 1_565
La1 O11 2.422769 1_565
La1 O5 2.422769 1_565
La1 O3 2.565973 1_555
La1 O10 2.668765 1_655
La1 O4 2.668765 1_655
La1 O9 2.835790 1_555
La1 O7 2.835790 1_555
Cr0 O10 2.020961 1_655
Cr0 O1 2.021171 1_556
Cr0 O5 2.026384 1_555
Cr0 O9 2.026572 1_555
Cr0 O6 2.026944 1_555
Cr0 O3 2.031501 1_555
Cr1 O11 2.020961 1_455
Cr1 O0 2.021171 1_545
Cr1 O4 2.026384 1_545
Cr1 O8 2.026572 1_555
Cr1 O7 2.026944 1_545
Cr1 O2 2.031501 1_555
Cr2 O4 2.020961 1_655
Cr2 O1 2.021171 1_555
Cr2 O11 2.026384 1_555
Cr2 O7 2.026572 1_555
Cr2 O8 2.026944 1_555
Cr2 O3 2.031501 1_555
Cr3 O5 2.020961 1_455
Cr3 O0 2.021171 1_546
Cr3 O10 2.026384 1_545
Cr3 O6 2.026572 1_555
Cr3 O9 2.026944 1_545
Cr3 O2 2.031501 1_555
O0 Pr1 2.393319 1_465
O0 Pr0 2.515851 1_555
O1 Pr0 2.393319 1_655
O1 Pr1 2.515851 1_555
O4 Pr0 2.791049 1_555
O5 Pr1 2.791049 1_556
O6 Pr0 2.433632 1_556
O6 Pr1 2.607335 1_556
O7 Pr1 2.433632 1_565
O7 Pr0 2.607335 1_555
O8 Pr0 2.433632 1_555
O8 Pr1 2.607335 1_555
O9 Pr1 2.433632 1_566
O9 Pr0 2.607335 1_556
O10 Pr0 2.791049 1_556
O11 Pr1 2.791049 1_555
