# generated using pymatgen
data_Nd3Co4Sn13
_symmetry_space_group_name_H-M   'P 1'
_cell_length_a   9.58099701
_cell_length_b   9.58099701
_cell_length_c   9.58099701
_cell_angle_alpha   90.00000000
_cell_angle_beta   90.00000000
_cell_angle_gamma   90.00000000
_symmetry_Int_Tables_number   1
_chemical_formula_structural   Nd3Co4Sn13
_chemical_formula_sum   'Nd6 Co8 Sn26'
_cell_volume   879.49244654
_cell_formula_units_Z   2
loop_
 _symmetry_equiv_pos_site_id
 _symmetry_equiv_pos_as_xyz
  1  'x, y, z'
loop_
 _atom_site_type_symbol
 _atom_site_label
 _atom_site_symmetry_multiplicity
 _atom_site_fract_x
 _atom_site_fract_y
 _atom_site_fract_z
 _atom_site_occupancy
  Nd  Nd0  1  -0.00000000  0.50000000  0.75000000  1
  Nd  Nd1  1  0.50000000  0.25000000  -0.00000000  1
  Nd  Nd2  1  0.75000000  0.00000000  0.50000000  1
  Nd  Nd3  1  -0.00000000  0.50000000  0.25000000  1
  Nd  Nd4  1  0.50000000  0.75000000  -0.00000000  1
  Nd  Nd5  1  0.25000000  0.00000000  0.50000000  1
  Co  Co0  1  0.75000000  0.25000000  0.75000000  1
  Co  Co1  1  0.25000000  0.75000000  0.25000000  1
  Co  Co2  1  0.75000000  0.75000000  0.25000000  1
  Co  Co3  1  0.25000000  0.25000000  0.75000000  1
  Co  Co4  1  0.25000000  0.75000000  0.75000000  1
  Co  Co5  1  0.75000000  0.25000000  0.25000000  1
  Co  Co6  1  0.25000000  0.25000000  0.25000000  1
  Co  Co7  1  0.75000000  0.75000000  0.75000000  1
  Sn  Sn0  1  0.50000000  0.50000000  0.50000000  1
  Sn  Sn1  1  -0.00000000  0.00000000  -0.00000000  1
  Sn  Sn2  1  0.80223260  0.34186548  0.50000000  1
  Sn  Sn3  1  0.65813452  0.50000000  0.80223260  1
  Sn  Sn4  1  0.50000000  0.19776740  0.65813452  1
  Sn  Sn5  1  0.19776740  0.65813452  0.50000000  1
  Sn  Sn6  1  0.34186548  0.50000000  0.19776740  1
  Sn  Sn7  1  0.50000000  0.80223260  0.34186548  1
  Sn  Sn8  1  0.80223260  0.65813452  0.50000000  1
  Sn  Sn9  1  0.65813452  0.50000000  0.19776740  1
  Sn  Sn10  1  0.19776740  0.34186548  0.50000000  1
  Sn  Sn11  1  0.34186548  0.50000000  0.80223260  1
  Sn  Sn12  1  0.50000000  0.80223260  0.65813452  1
  Sn  Sn13  1  0.50000000  0.19776740  0.34186548  1
  Sn  Sn14  1  0.30223260  0.00000000  0.84186548  1
  Sn  Sn15  1  0.15813452  0.30223260  -0.00000000  1
  Sn  Sn16  1  -0.00000000  0.15813452  0.69776740  1
  Sn  Sn17  1  0.69776740  0.00000000  0.15813452  1
  Sn  Sn18  1  0.84186548  0.69776740  -0.00000000  1
  Sn  Sn19  1  -0.00000000  0.84186548  0.30223260  1
  Sn  Sn20  1  0.30223260  0.00000000  0.15813452  1
  Sn  Sn21  1  0.15813452  0.69776740  -0.00000000  1
  Sn  Sn22  1  0.69776740  0.00000000  0.84186548  1
  Sn  Sn23  1  0.84186548  0.30223260  -0.00000000  1
  Sn  Sn24  1  -0.00000000  0.15813452  0.30223260  1
  Sn  Sn25  1  -0.00000000  0.84186548  0.69776740  1
loop_
_geom_bond_atom_site_label_1
_geom_bond_atom_site_label_2
_geom_bond_distance
_geom_bond_site_symmetry_2
Nd0 Sn16 3.313422 1_555
Nd0 Sn11 3.313422 1_555
Nd0 Sn3 3.313422 1_455
Nd0 Sn25 3.313422 1_555
Nd0 Sn5 3.409253 1_555
Nd0 Sn21 3.409253 1_556
Nd0 Sn23 3.409253 1_456
Nd0 Sn2 3.409253 1_455
Nd0 Sn8 3.409253 1_455
Nd0 Sn18 3.409253 1_456
Nd0 Sn10 3.409253 1_555
Nd0 Sn15 3.409253 1_556
Nd1 Sn15 3.313422 1_555
Nd1 Sn13 3.313422 1_555
Nd1 Sn23 3.313422 1_555
Nd1 Sn4 3.313422 1_554
Nd1 Sn22 3.409253 1_554
Nd1 Sn9 3.409253 1_555
Nd1 Sn20 3.409253 1_555
Nd1 Sn14 3.409253 1_554
Nd1 Sn6 3.409253 1_555
Nd1 Sn3 3.409253 1_554
Nd1 Sn11 3.409253 1_554
Nd1 Sn17 3.409253 1_555
Nd2 Sn17 3.313422 1_555
Nd2 Sn2 3.313422 1_555
Nd2 Sn8 3.313422 1_545
Nd2 Sn22 3.313422 1_555
Nd2 Sn25 3.409253 1_645
Nd2 Sn12 3.409253 1_545
Nd2 Sn24 3.409253 1_655
Nd2 Sn13 3.409253 1_555
Nd2 Sn4 3.409253 1_555
Nd2 Sn19 3.409253 1_645
Nd2 Sn7 3.409253 1_545
Nd2 Sn16 3.409253 1_655
Nd3 Sn6 3.313422 1_555
Nd3 Sn24 3.313422 1_555
Nd3 Sn19 3.313422 1_555
Nd3 Sn9 3.313422 1_455
Nd3 Sn5 3.409253 1_555
Nd3 Sn21 3.409253 1_555
Nd3 Sn15 3.409253 1_555
Nd3 Sn18 3.409253 1_455
Nd3 Sn8 3.409253 1_455
Nd3 Sn10 3.409253 1_555
Nd3 Sn23 3.409253 1_455
Nd3 Sn2 3.409253 1_455
Nd4 Sn7 3.313422 1_555
Nd4 Sn21 3.313422 1_555
Nd4 Sn12 3.313422 1_554
Nd4 Sn18 3.313422 1_555
Nd4 Sn9 3.409253 1_555
Nd4 Sn14 3.409253 1_564
Nd4 Sn20 3.409253 1_565
Nd4 Sn6 3.409253 1_555
Nd4 Sn22 3.409253 1_564
Nd4 Sn3 3.409253 1_554
Nd4 Sn11 3.409253 1_554
Nd4 Sn17 3.409253 1_565
Nd5 Sn20 3.313422 1_555
Nd5 Sn10 3.313422 1_555
Nd5 Sn14 3.313422 1_555
Nd5 Sn5 3.313422 1_545
Nd5 Sn24 3.409253 1_555
Nd5 Sn12 3.409253 1_545
Nd5 Sn13 3.409253 1_555
Nd5 Sn25 3.409253 1_545
Nd5 Sn19 3.409253 1_545
Nd5 Sn4 3.409253 1_555
Nd5 Sn16 3.409253 1_555
Nd5 Sn7 3.409253 1_545
Co0 Sn16 2.600451 1_655
Co0 Sn3 2.600451 1_555
Co0 Sn22 2.600451 1_555
Co0 Sn4 2.600451 1_555
Co0 Sn2 2.600451 1_555
Co0 Sn23 2.600451 1_556
Co0 Nd1 3.387394 1_556
Co0 Nd0 3.387394 1_655
Co0 Nd2 3.387394 1_555
Co1 Sn21 2.600451 1_555
Co1 Sn19 2.600451 1_555
Co1 Sn7 2.600451 1_555
Co1 Sn6 2.600451 1_555
Co1 Sn20 2.600451 1_565
Co1 Sn5 2.600451 1_555
Co1 Nd4 3.387394 1_555
Co1 Nd3 3.387394 1_555
Co1 Nd5 3.387394 1_565
Co2 Sn9 2.600451 1_555
Co2 Sn18 2.600451 1_555
Co2 Sn7 2.600451 1_555
Co2 Sn19 2.600451 1_655
Co2 Sn17 2.600451 1_565
Co2 Sn8 2.600451 1_555
Co2 Nd3 3.387394 1_655
Co2 Nd4 3.387394 1_555
Co2 Nd2 3.387394 1_565
Co3 Sn11 2.600451 1_555
Co3 Sn15 2.600451 1_556
Co3 Sn4 2.600451 1_555
Co3 Sn16 2.600451 1_555
Co3 Sn10 2.600451 1_555
Co3 Sn14 2.600451 1_555
Co3 Nd1 3.387394 1_556
Co3 Nd5 3.387394 1_555
Co3 Nd0 3.387394 1_555
Co4 Sn11 2.600451 1_555
Co4 Sn12 2.600451 1_555
Co4 Sn25 2.600451 1_555
Co4 Sn21 2.600451 1_556
Co4 Sn14 2.600451 1_565
Co4 Sn5 2.600451 1_555
Co4 Nd4 3.387394 1_556
Co4 Nd0 3.387394 1_555
Co4 Nd5 3.387394 1_565
Co5 Sn9 2.600451 1_555
Co5 Sn24 2.600451 1_655
Co5 Sn13 2.600451 1_555
Co5 Sn17 2.600451 1_555
Co5 Sn2 2.600451 1_555
Co5 Sn23 2.600451 1_555
Co5 Nd1 3.387394 1_555
Co5 Nd3 3.387394 1_655
Co5 Nd2 3.387394 1_555
Co6 Sn15 2.600451 1_555
Co6 Sn13 2.600451 1_555
Co6 Sn20 2.600451 1_555
Co6 Sn6 2.600451 1_555
Co6 Sn10 2.600451 1_555
Co6 Sn24 2.600451 1_555
Co6 Nd1 3.387394 1_555
Co6 Nd5 3.387394 1_555
Co6 Nd3 3.387394 1_555
Co7 Sn12 2.600451 1_555
Co7 Sn22 2.600451 1_565
Co7 Sn25 2.600451 1_655
Co7 Sn3 2.600451 1_555
Co7 Sn18 2.600451 1_556
Co7 Sn8 2.600451 1_555
Co7 Nd4 3.387394 1_556
Co7 Nd0 3.387394 1_655
Co7 Nd2 3.387394 1_565
Sn0 Sn8 3.268104 1_555
Sn0 Sn9 3.268104 1_555
Sn0 Sn12 3.268104 1_555
Sn0 Sn3 3.268104 1_555
Sn0 Sn4 3.268104 1_555
Sn0 Sn5 3.268104 1_555
Sn0 Sn6 3.268104 1_555
Sn0 Sn10 3.268104 1_555
Sn0 Sn7 3.268104 1_555
Sn0 Sn11 3.268104 1_555
Sn0 Sn2 3.268104 1_555
Sn0 Sn13 3.268104 1_555
Sn1 Sn22 3.268104 1_454
Sn1 Sn18 3.268104 1_445
Sn1 Sn25 3.268104 1_544
Sn1 Sn19 3.268104 1_545
Sn1 Sn23 3.268104 1_455
Sn1 Sn17 3.268104 1_455
Sn1 Sn16 3.268104 1_554
Sn1 Sn21 3.268104 1_545
Sn1 Sn14 3.268104 1_554
Sn1 Sn15 3.268104 1_555
Sn1 Sn20 3.268104 1_555
Sn1 Sn24 3.268104 1_555
Sn2 Sn8 3.030173 1_555
Sn2 Sn24 3.206142 1_655
Sn6 Sn9 3.030173 1_555
Sn10 Sn5 3.030173 1_555
Sn10 Sn16 3.206142 1_555
Sn10 Sn24 3.206142 1_555
Sn11 Sn3 3.030173 1_555
Sn11 Sn15 3.206142 1_556
Sn11 Sn21 3.206142 1_556
Sn12 Sn7 3.030173 1_555
Sn12 Sn22 3.206142 1_565
Sn12 Sn14 3.206142 1_565
Sn13 Sn4 3.030173 1_555
Sn13 Sn20 3.206142 1_555
Sn13 Sn17 3.206142 1_555
Sn14 Sn20 3.030173 1_556
Sn14 Sn4 3.206142 1_555
Sn15 Sn23 3.030173 1_455
Sn15 Sn6 3.206142 1_555
Sn16 Sn25 3.030173 1_545
Sn16 Sn2 3.206142 1_455
Sn17 Sn22 3.030173 1_554
Sn17 Sn7 3.206142 1_545
Sn18 Sn21 3.030173 1_655
Sn18 Sn3 3.206142 1_554
Sn18 Sn9 3.206142 1_555
Sn19 Sn24 3.030173 1_565
Sn19 Sn8 3.206142 1_455
Sn19 Sn5 3.206142 1_555
Sn20 Sn7 3.206142 1_545
Sn21 Sn6 3.206142 1_555
Sn22 Sn4 3.206142 1_555
Sn23 Sn3 3.206142 1_554
Sn23 Sn9 3.206142 1_555
Sn25 Sn8 3.206142 1_455
Sn25 Sn5 3.206142 1_555
