# generated using pymatgen
data_NbFeSi
_symmetry_space_group_name_H-M   'P 1'
_cell_length_a   4.89682100
_cell_length_b   12.78502200
_cell_length_c   15.51798000
_cell_angle_alpha   90.00000000
_cell_angle_beta   90.00000000
_cell_angle_gamma   90.00000000
_symmetry_Int_Tables_number   1
_chemical_formula_structural   NbFeSi
_chemical_formula_sum   'Nb24 Fe24 Si24'
_cell_volume   971.51810057
_cell_formula_units_Z   24
loop_
 _symmetry_equiv_pos_site_id
 _symmetry_equiv_pos_as_xyz
  1  'x, y, z'
loop_
 _atom_site_type_symbol
 _atom_site_label
 _atom_site_symmetry_multiplicity
 _atom_site_fract_x
 _atom_site_fract_y
 _atom_site_fract_z
 _atom_site_occupancy
  Nb  Nb0  1  0.00000000  0.97478100  0.30478100  1
  Nb  Nb1  1  0.50000000  0.47478100  0.69521900  1
  Nb  Nb2  1  0.00000000  0.29579200  0.10069200  1
  Nb  Nb3  1  0.50000000  0.79579200  0.89930800  1
  Nb  Nb4  1  0.00000000  0.76944700  0.46135000  1
  Nb  Nb5  1  0.50000000  0.26944700  0.53865000  1
  Nb  Nb6  1  0.00000000  0.48356900  0.97895000  1
  Nb  Nb7  1  0.50000000  0.98356900  0.02105000  1
  Nb  Nb8  1  0.00000000  0.41237200  0.58019100  1
  Nb  Nb9  1  0.50000000  0.91237200  0.41981000  1
  Nb  Nb10  1  0.00000000  0.79693300  0.79114300  1
  Nb  Nb11  1  0.50000000  0.29693300  0.20885700  1
  Nb  Nb12  1  0.00000000  0.40858700  0.80251800  1
  Nb  Nb13  1  0.50000000  0.90858700  0.19748200  1
  Nb  Nb14  1  0.00000000  0.11012400  0.99274800  1
  Nb  Nb15  1  0.50000000  0.61012400  0.00725200  1
  Nb  Nb16  1  0.00000000  0.13724600  0.59629900  1
  Nb  Nb17  1  0.50000000  0.63724600  0.40370100  1
  Nb  Nb18  1  0.00000000  0.17851700  0.81163400  1
  Nb  Nb19  1  0.50000000  0.67851700  0.18836600  1
  Nb  Nb20  1  0.00000000  0.20409400  0.29225000  1
  Nb  Nb21  1  0.50000000  0.70409400  0.70775000  1
  Nb  Nb22  1  0.00000000  0.60209700  0.28731900  1
  Nb  Nb23  1  0.50000000  0.10209700  0.71268100  1
  Fe  Fe0  1  0.75053700  0.61136800  0.57156900  1
  Fe  Fe1  1  0.74946300  0.11136800  0.42843100  1
  Fe  Fe2  1  0.25053700  0.11136800  0.42843100  1
  Fe  Fe3  1  0.24946300  0.61136800  0.57156900  1
  Fe  Fe4  1  0.74850300  0.99123800  0.85653400  1
  Fe  Fe5  1  0.75149700  0.49123800  0.14346600  1
  Fe  Fe6  1  0.24850300  0.49123800  0.14346600  1
  Fe  Fe7  1  0.25149700  0.99123800  0.85653400  1
  Fe  Fe8  1  0.74735200  0.91029300  0.61139100  1
  Fe  Fe9  1  0.75264800  0.41029300  0.38860900  1
  Fe  Fe10  1  0.24735200  0.41029300  0.38860900  1
  Fe  Fe11  1  0.25264800  0.91029300  0.61139100  1
  Fe  Fe12  1  0.75166900  0.60817800  0.83995700  1
  Fe  Fe13  1  0.74833100  0.10817800  0.16004300  1
  Fe  Fe14  1  0.25166900  0.10817800  0.16004300  1
  Fe  Fe15  1  0.24833100  0.60817800  0.83995700  1
  Fe  Fe16  1  0.00000000  0.79440200  0.19097700  1
  Fe  Fe17  1  0.50000000  0.29440200  0.80902300  1
  Fe  Fe18  1  0.76035900  0.29748300  0.94002600  1
  Fe  Fe19  1  0.73964100  0.79748300  0.05997400  1
  Fe  Fe20  1  0.26035900  0.79748300  0.05997400  1
  Fe  Fe21  1  0.23964100  0.29748300  0.94002600  1
  Fe  Fe22  1  0.00000000  0.70069200  0.95071100  1
  Fe  Fe23  1  0.50000000  0.20069200  0.04928900  1
  Si  Si0  1  0.74764200  0.78530900  0.31308600  1
  Si  Si1  1  0.75235800  0.28530900  0.68691400  1
  Si  Si2  1  0.24764200  0.28530900  0.68691400  1
  Si  Si3  1  0.25235800  0.78530900  0.31308600  1
  Si  Si4  1  0.00000000  0.64146800  0.10364900  1
  Si  Si5  1  0.50000000  0.14146800  0.89635100  1
  Si  Si6  1  0.00000000  0.55573600  0.45184800  1
  Si  Si7  1  0.50000000  0.05573600  0.54815200  1
  Si  Si8  1  0.00000000  0.57889000  0.70452800  1
  Si  Si9  1  0.50000000  0.07889000  0.29547200  1
  Si  Si10  1  0.00000000  0.89184200  0.95303300  1
  Si  Si11  1  0.50000000  0.39184200  0.04696700  1
  Si  Si12  1  0.00000000  0.97365300  0.48471200  1
  Si  Si13  1  0.50000000  0.47365300  0.51528800  1
  Si  Si14  1  0.00000000  0.39983900  0.24978300  1
  Si  Si15  1  0.50000000  0.89983900  0.75021700  1
  Si  Si16  1  0.00000000  0.26618900  0.45840500  1
  Si  Si17  1  0.50000000  0.76618900  0.54159500  1
  Si  Si18  1  0.00000000  0.95570100  0.11855200  1
  Si  Si19  1  0.50000000  0.45570100  0.88144800  1
  Si  Si20  1  0.00000000  0.75095800  0.62925700  1
  Si  Si21  1  0.50000000  0.25095800  0.37074300  1
  Si  Si22  1  0.00000000  0.99883200  0.72483800  1
  Si  Si23  1  0.50000000  0.49883200  0.27516200  1
loop_
_geom_bond_atom_site_label_1
_geom_bond_atom_site_label_2
_geom_bond_distance
_geom_bond_site_symmetry_2
Nb0 Si3 2.722450 1_555
Nb0 Si0 2.722450 1_455
Nb0 Si9 2.790562 1_465
Nb0 Si9 2.790562 1_565
Nb0 Si12 2.792203 1_555
Nb0 Si18 2.900175 1_555
Nb0 Nb20 2.938214 1_565
Nb0 Nb13 3.079507 1_455
Nb0 Nb13 3.079507 1_555
Nb0 Nb9 3.133313 1_555
Nb0 Nb9 3.133313 1_455
Nb1 Si2 2.722450 1_555
Nb1 Si1 2.722450 1_555
Nb1 Si8 2.790562 1_555
Nb1 Si8 2.790562 1_655
Nb1 Si13 2.792203 1_555
Nb1 Si19 2.900175 1_555
Nb1 Nb21 2.938214 1_555
Nb1 Nb12 3.079507 1_555
Nb1 Nb12 3.079507 1_655
Nb1 Nb8 3.133304 1_655
Nb1 Nb8 3.133304 1_555
Nb2 Si14 2.668755 1_555
Nb2 Si11 2.863174 1_555
Nb2 Si11 2.863174 1_455
Nb2 Nb6 3.054924 1_554
Nb3 Si15 2.668755 1_555
Nb3 Si10 2.863174 1_655
Nb3 Si10 2.863174 1_555
Nb3 Nb7 3.054924 1_556
Nb4 Si20 2.616278 1_555
Nb4 Si0 2.619484 1_455
Nb4 Si3 2.619484 1_555
Nb4 Si12 2.635828 1_555
Nb4 Si6 2.736276 1_555
Nb4 Si17 2.747194 1_555
Nb4 Si17 2.747194 1_455
Nb5 Si21 2.616278 1_555
Nb5 Si2 2.619484 1_555
Nb5 Si1 2.619484 1_555
Nb5 Si13 2.635828 1_555
Nb5 Si7 2.736276 1_555
Nb5 Si16 2.747194 1_655
Nb5 Si16 2.747194 1_555
Nb6 Si4 2.796398 1_556
Nb6 Si19 2.900160 1_455
Nb6 Si19 2.900160 1_555
Nb6 Si11 2.912742 1_456
Nb6 Si11 2.912742 1_556
Nb7 Si5 2.796398 1_564
Nb7 Si18 2.900160 1_555
Nb7 Si18 2.900160 1_655
Nb7 Si10 2.912742 1_554
Nb7 Si10 2.912742 1_654
Nb8 Si2 2.617690 1_555
Nb8 Si1 2.617690 1_455
Nb8 Si16 2.657932 1_555
Nb8 Si6 2.706683 1_555
Nb8 Si13 2.760966 1_555
Nb8 Si13 2.760966 1_455
Nb8 Si8 2.873183 1_555
Nb9 Si0 2.617700 1_555
Nb9 Si3 2.617700 1_555
Nb9 Si17 2.657921 1_555
Nb9 Si7 2.706672 1_565
Nb9 Si12 2.760960 1_555
Nb9 Si12 2.760960 1_655
Nb9 Si9 2.873194 1_565
Nb10 Si20 2.579993 1_555
Nb10 Si22 2.778794 1_555
Nb10 Si10 2.789902 1_555
Nb10 Si15 2.851140 1_555
Nb10 Si15 2.851140 1_455
Nb10 Si8 3.094796 1_555
Nb11 Si21 2.579993 1_555
Nb11 Si23 2.778794 1_555
Nb11 Si11 2.789902 1_555
Nb11 Si14 2.851140 1_555
Nb11 Si14 2.851140 1_655
Nb11 Si9 3.094796 1_555
Nb12 Si8 2.655749 1_555
Nb12 Si2 2.678226 1_555
Nb12 Si1 2.678226 1_455
Nb12 Si19 2.803170 1_555
Nb12 Si19 2.803170 1_455
Nb12 Nb6 2.900849 1_555
Nb13 Si9 2.655749 1_565
Nb13 Si0 2.678226 1_555
Nb13 Si3 2.678226 1_555
Nb13 Si18 2.803170 1_555
Nb13 Si18 2.803170 1_655
Nb13 Nb7 2.900849 1_555
Nb14 Si18 2.776517 1_546
Nb14 Si10 2.857980 1_545
Nb14 Si5 2.897064 1_455
Nb14 Si5 2.897064 1_555
Nb14 Nb2 2.905280 1_556
Nb14 Nb18 2.943404 1_555
Nb14 Nb7 2.967415 1_446
Nb14 Nb7 2.967415 1_546
Nb15 Si19 2.776517 1_554
Nb15 Si11 2.857980 1_555
Nb15 Si4 2.897064 1_655
Nb15 Si4 2.897064 1_555
Nb15 Nb3 2.905280 1_554
Nb15 Nb19 2.943404 1_555
Nb15 Nb6 2.967415 1_554
Nb15 Nb6 2.967415 1_654
Nb16 Si2 2.651648 1_555
Nb16 Si1 2.651648 1_455
Nb16 Si22 2.666508 1_545
Nb16 Si16 2.701218 1_555
Nb16 Si12 2.715326 1_545
Nb16 Si7 2.763861 1_455
Nb16 Si7 2.763861 1_555
Nb17 Si0 2.651648 1_555
Nb17 Si3 2.651648 1_555
Nb17 Si23 2.666508 1_555
Nb17 Si17 2.701218 1_555
Nb17 Si13 2.715326 1_555
Nb17 Si6 2.763861 1_655
Nb17 Si6 2.763861 1_555
Nb18 Si1 2.660916 1_455
Nb18 Si2 2.660916 1_555
Nb18 Si22 2.663009 1_545
Nb18 Si5 2.819104 1_555
Nb18 Si5 2.819104 1_455
Nb19 Si0 2.660916 1_555
Nb19 Si3 2.660916 1_555
Nb19 Si23 2.663009 1_555
Nb19 Si4 2.819104 1_655
Nb19 Si4 2.819104 1_555
Nb20 Si14 2.587916 1_555
Nb20 Si16 2.697842 1_555
Nb20 Si21 2.799528 1_455
Nb20 Si21 2.799528 1_555
Nb20 Si9 2.925674 1_455
Nb20 Si9 2.925674 1_555
Nb21 Si15 2.587916 1_555
Nb21 Si17 2.697842 1_555
Nb21 Si20 2.799528 1_555
Nb21 Si20 2.799528 1_655
Nb21 Si8 2.925674 1_555
Nb21 Si8 2.925674 1_655
Nb22 Si6 2.621057 1_555
Nb22 Si14 2.650665 1_555
Nb22 Si3 2.678369 1_555
Nb22 Si0 2.678369 1_455
Nb22 Si23 2.788073 1_555
Nb22 Si23 2.788073 1_455
Nb22 Si4 2.894294 1_555
Nb23 Si7 2.621057 1_555
Nb23 Si15 2.650665 1_545
Nb23 Si1 2.678369 1_555
Nb23 Si2 2.678369 1_555
Nb23 Si22 2.788073 1_545
Nb23 Si22 2.788073 1_645
Nb23 Si5 2.894294 1_555
Fe0 Si13 2.316877 1_555
Fe0 Si6 2.334450 1_655
Fe0 Si20 2.340651 1_655
Fe0 Si17 2.374755 1_555
Fe0 Si8 2.433452 1_655
Fe0 Fe3 2.443151 1_655
Fe0 Fe3 2.453670 1_555
Fe0 Nb21 2.715950 1_555
Fe0 Nb8 2.825410 1_655
Fe0 Nb1 2.869906 1_555
Fe0 Nb17 2.898356 1_555
Fe0 Nb4 2.915862 1_655
Fe1 Si12 2.316877 1_645
Fe1 Si7 2.334450 1_555
Fe1 Si21 2.340651 1_555
Fe1 Si16 2.374755 1_655
Fe1 Si9 2.433452 1_555
Fe1 Fe2 2.443151 1_555
Fe1 Fe2 2.453670 1_655
Fe1 Nb20 2.715950 1_655
Fe1 Nb9 2.825409 1_545
Fe1 Nb0 2.869906 1_645
Fe1 Nb16 2.898356 1_655
Fe1 Nb5 2.915862 1_555
Fe2 Si12 2.316877 1_545
Fe2 Si7 2.334450 1_555
Fe2 Si21 2.340651 1_555
Fe2 Si16 2.374755 1_555
Fe2 Si9 2.433452 1_555
Fe2 Nb20 2.715950 1_555
Fe2 Nb9 2.825409 1_545
Fe2 Nb0 2.869906 1_545
Fe2 Nb16 2.898356 1_555
Fe2 Nb5 2.915862 1_555
Fe3 Si13 2.316877 1_555
Fe3 Si6 2.334450 1_555
Fe3 Si20 2.340651 1_555
Fe3 Si17 2.374755 1_555
Fe3 Si8 2.433452 1_555
Fe3 Nb21 2.715950 1_555
Fe3 Nb8 2.825410 1_555
Fe3 Nb1 2.869906 1_555
Fe3 Nb17 2.898356 1_555
Fe3 Nb4 2.915862 1_555
Fe4 Si10 2.318184 1_655
Fe4 Si5 2.356188 1_565
Fe4 Si15 2.359701 1_555
Fe4 Si22 2.388019 1_655
Fe4 Fe7 2.433749 1_555
Fe4 Fe7 2.463072 1_655
Fe4 Nb18 2.781212 1_665
Fe4 Nb7 2.829838 1_556
Fe4 Nb3 2.857495 1_555
Fe4 Nb14 2.880098 1_665
Fe4 Nb23 2.910811 1_565
Fe4 Nb10 2.952556 1_655
Fe5 Si11 2.318184 1_555
Fe5 Si4 2.356188 1_655
Fe5 Si14 2.359701 1_655
Fe5 Si23 2.388019 1_555
Fe5 Fe6 2.433749 1_655
Fe5 Fe6 2.463072 1_555
Fe5 Nb19 2.781212 1_555
Fe5 Nb6 2.829838 1_654
Fe5 Nb2 2.857495 1_655
Fe5 Nb15 2.880098 1_555
Fe5 Nb22 2.910811 1_655
Fe5 Nb11 2.952556 1_555
Fe6 Si11 2.318184 1_555
Fe6 Si4 2.356188 1_555
Fe6 Si14 2.359701 1_555
Fe6 Si23 2.388019 1_555
Fe6 Nb19 2.781212 1_555
Fe6 Nb6 2.829838 1_554
Fe6 Nb2 2.857495 1_555
Fe6 Nb15 2.880098 1_555
Fe6 Nb22 2.910811 1_555
Fe6 Nb11 2.952556 1_555
Fe7 Si10 2.318184 1_555
Fe7 Si5 2.356188 1_565
Fe7 Si15 2.359701 1_555
Fe7 Si22 2.388019 1_555
Fe7 Nb18 2.781212 1_565
Fe7 Nb7 2.829838 1_556
Fe7 Nb3 2.857495 1_555
Fe7 Nb14 2.880098 1_565
Fe7 Nb23 2.910811 1_565
Fe7 Nb10 2.952556 1_555
Fe8 Si20 2.399425 1_655
Fe8 Si7 2.426487 1_565
Fe8 Si22 2.431297 1_655
Fe8 Si17 2.456527 1_555
Fe8 Si12 2.459912 1_655
Fe8 Si15 2.475069 1_555
Fe9 Si21 2.399425 1_555
Fe9 Si6 2.426487 1_655
Fe9 Si23 2.431297 1_555
Fe9 Si16 2.456527 1_655
Fe9 Si13 2.459912 1_555
Fe9 Si14 2.475069 1_655
Fe10 Si21 2.399425 1_555
Fe10 Fe9 2.422477 1_455
Fe10 Si6 2.426487 1_555
Fe10 Si23 2.431297 1_555
Fe10 Si16 2.456527 1_555
Fe10 Si13 2.459912 1_555
Fe10 Fe9 2.474344 1_555
Fe10 Si14 2.475069 1_555
Fe11 Si20 2.399425 1_555
Fe11 Fe8 2.422477 1_555
Fe11 Si7 2.426487 1_565
Fe11 Si22 2.431297 1_555
Fe11 Si17 2.456527 1_555
Fe11 Si12 2.459912 1_555
Fe11 Fe8 2.474344 1_455
Fe11 Si15 2.475069 1_555
Fe12 Si19 2.394484 1_555
Fe12 Fe22 2.414869 1_655
Fe12 Fe15 2.432065 1_655
Fe12 Si8 2.456747 1_655
Fe12 Fe15 2.464756 1_555
Fe12 Nb21 2.689153 1_555
Fe12 Nb10 2.806465 1_655
Fe12 Nb3 2.849654 1_555
Fe12 Nb15 2.873849 1_556
Fe12 Nb12 2.885798 1_655
Fe12 Nb6 2.944312 1_655
Fe12 Nb1 3.077683 1_555
Fe13 Si18 2.394484 1_645
Fe13 Fe23 2.414869 1_555
Fe13 Fe14 2.432065 1_555
Fe13 Si9 2.456747 1_555
Fe13 Fe14 2.464756 1_655
Fe13 Nb20 2.689153 1_655
Fe13 Nb11 2.806465 1_555
Fe13 Nb2 2.849654 1_655
Fe13 Nb14 2.873849 1_654
Fe13 Nb13 2.885798 1_545
Fe13 Nb7 2.944312 1_545
Fe13 Nb0 3.077683 1_645
Fe14 Si18 2.394484 1_545
Fe14 Fe23 2.414869 1_555
Fe14 Si9 2.456747 1_555
Fe14 Nb20 2.689153 1_555
Fe14 Nb11 2.806465 1_555
Fe14 Nb2 2.849654 1_555
Fe14 Nb14 2.873849 1_554
Fe14 Nb13 2.885798 1_545
Fe14 Nb7 2.944312 1_545
Fe14 Nb0 3.077683 1_545
Fe15 Si19 2.394484 1_555
Fe15 Fe22 2.414869 1_555
Fe15 Si8 2.456747 1_555
Fe15 Nb21 2.689153 1_555
Fe15 Nb10 2.806465 1_555
Fe15 Nb3 2.849654 1_555
Fe15 Nb15 2.873849 1_556
Fe15 Nb12 2.885798 1_555
Fe15 Nb6 2.944312 1_555
Fe15 Nb1 3.077683 1_555
Fe16 Si0 2.265212 1_455
Fe16 Si3 2.265212 1_555
Fe16 Si18 2.348583 1_555
Fe16 Si4 2.378971 1_555
Fe16 Fe20 2.399936 1_555
Fe16 Fe19 2.399936 1_455
Fe16 Nb13 2.852383 1_455
Fe16 Nb13 2.852383 1_555
Fe16 Nb19 2.862075 1_455
Fe16 Nb19 2.862075 1_555
Fe16 Nb22 2.877491 1_555
Fe16 Nb0 2.904670 1_555
Fe17 Si2 2.265212 1_555
Fe17 Si1 2.265212 1_555
Fe17 Si19 2.348583 1_555
Fe17 Si5 2.378971 1_555
Fe17 Fe21 2.399936 1_555
Fe17 Fe18 2.399936 1_555
Fe17 Nb12 2.852383 1_555
Fe17 Nb12 2.852383 1_655
Fe17 Nb18 2.862075 1_655
Fe17 Nb18 2.862075 1_555
Fe17 Nb23 2.877491 1_555
Fe17 Nb1 2.904670 1_555
Fe18 Fe21 2.346958 1_655
Fe18 Si11 2.415528 1_556
Fe18 Fe23 2.455943 1_556
Fe18 Si5 2.462406 1_555
Fe18 Fe21 2.549863 1_555
Fe18 Si19 2.558038 1_555
Fe18 Nb6 2.720676 1_655
Fe18 Nb2 2.755653 1_656
Fe18 Nb18 2.767677 1_655
Fe18 Nb14 2.790035 1_655
Fe18 Nb12 2.819234 1_655
Fe19 Fe20 2.346958 1_555
Fe19 Si10 2.415528 1_654
Fe19 Fe22 2.455943 1_654
Fe19 Si4 2.462406 1_655
Fe19 Fe20 2.549863 1_655
Fe19 Si18 2.558038 1_655
Fe19 Nb7 2.720676 1_555
Fe19 Nb3 2.755653 1_554
Fe19 Nb19 2.767677 1_555
Fe19 Nb15 2.790035 1_555
Fe19 Nb13 2.819234 1_555
Fe20 Si10 2.415528 1_554
Fe20 Fe22 2.455943 1_554
Fe20 Si4 2.462406 1_555
Fe20 Si18 2.558038 1_555
Fe20 Nb7 2.720676 1_555
Fe20 Nb3 2.755653 1_554
Fe20 Nb19 2.767677 1_555
Fe20 Nb15 2.790035 1_555
Fe20 Nb13 2.819234 1_555
Fe21 Si11 2.415528 1_556
Fe21 Fe23 2.455943 1_556
Fe21 Si5 2.462406 1_555
Fe21 Si19 2.558038 1_555
Fe21 Nb6 2.720676 1_555
Fe21 Nb2 2.755653 1_556
Fe21 Nb18 2.767677 1_555
Fe21 Nb14 2.790035 1_555
Fe21 Nb12 2.819234 1_555
Fe22 Si10 2.444123 1_555
Fe22 Si4 2.491149 1_556
Fe22 Nb10 2.765036 1_555
Fe22 Nb6 2.810298 1_555
Fe22 Nb15 2.846983 1_456
Fe22 Nb15 2.846983 1_556
Fe22 Nb3 2.847683 1_455
Fe22 Nb3 2.847683 1_555
Fe23 Si11 2.444123 1_555
Fe23 Si5 2.491149 1_554
Fe23 Nb11 2.765036 1_555
Fe23 Nb7 2.810298 1_545
Fe23 Nb14 2.846983 1_554
Fe23 Nb14 2.846983 1_654
Fe23 Nb2 2.847683 1_655
Fe23 Nb2 2.847683 1_555
Si0 Si3 2.425317 1_555
Si0 Si3 2.471504 1_655
Si1 Si2 2.425317 1_655
Si1 Si2 2.471504 1_555
Si10 Si18 2.695157 1_556
Si11 Si19 2.695157 1_554
Si20 Si8 2.490759 1_555
Si21 Si9 2.490759 1_555
