# generated using pymatgen
data_CeMg
_symmetry_space_group_name_H-M   'P 1'
_cell_length_a   11.70926610
_cell_length_b   11.70926610
_cell_length_c   11.88740015
_cell_angle_alpha   69.44607109
_cell_angle_beta   69.44607109
_cell_angle_gamma   33.60782411
_symmetry_Int_Tables_number   1
_chemical_formula_structural   CeMg
_chemical_formula_sum   'Ce16 Mg16'
_cell_volume   839.26730684
_cell_formula_units_Z   16
loop_
 _symmetry_equiv_pos_site_id
 _symmetry_equiv_pos_as_xyz
  1  'x, y, z'
loop_
 _atom_site_type_symbol
 _atom_site_label
 _atom_site_symmetry_multiplicity
 _atom_site_fract_x
 _atom_site_fract_y
 _atom_site_fract_z
 _atom_site_occupancy
  Ce  Ce0_0  1  0.07151420  0.07151420  0.27766095  1
  Ce  Ce0_1  1  0.07151420  0.07151420  0.77766095  1
  Ce  Ce0_2  1  0.07151420  0.57151420  0.27766096  1
  Ce  Ce0_3  1  0.07151420  0.57151420  0.77766096  1
  Ce  Ce0_4  1  0.57151420  0.07151420  0.27766096  1
  Ce  Ce0_5  1  0.57151420  0.07151420  0.77766096  1
  Ce  Ce0_6  1  0.57151420  0.57151420  0.27766095  1
  Ce  Ce0_7  1  0.57151420  0.57151420  0.77766096  1
  Ce  Ce1_0  1  0.42848581  0.42848581  0.22233905  1
  Ce  Ce1_1  1  0.42848581  0.42848581  0.72233905  1
  Ce  Ce1_2  1  0.42848581  0.92848581  0.22233905  1
  Ce  Ce1_3  1  0.42848581  0.92848580  0.72233905  1
  Ce  Ce1_4  1  0.92848581  0.42848581  0.22233905  1
  Ce  Ce1_5  1  0.92848580  0.42848581  0.72233905  1
  Ce  Ce1_6  1  0.92848581  0.92848581  0.22233905  1
  Ce  Ce1_7  1  0.92848580  0.92848580  0.72233905  1
  Mg  Mg0_0  1  0.18550060  0.18550060  0.46709583  1
  Mg  Mg0_1  1  0.18550060  0.18550060  0.96709583  1
  Mg  Mg0_2  1  0.18550059  0.68550060  0.46709583  1
  Mg  Mg0_3  1  0.18550060  0.68550060  0.96709583  1
  Mg  Mg0_4  1  0.68550060  0.18550059  0.46709583  1
  Mg  Mg0_5  1  0.68550060  0.18550060  0.96709583  1
  Mg  Mg0_6  1  0.68550059  0.68550059  0.46709583  1
  Mg  Mg0_7  1  0.68550060  0.68550060  0.96709583  1
  Mg  Mg1_0  1  0.31449941  0.31449941  0.03290418  1
  Mg  Mg1_1  1  0.31449941  0.31449941  0.53290418  1
  Mg  Mg1_2  1  0.31449941  0.81449941  0.03290418  1
  Mg  Mg1_3  1  0.31449941  0.81449941  0.53290418  1
  Mg  Mg1_4  1  0.81449941  0.31449941  0.03290418  1
  Mg  Mg1_5  1  0.81449941  0.31449941  0.53290418  1
  Mg  Mg1_6  1  0.81449941  0.81449941  0.03290418  1
  Mg  Mg1_7  1  0.81449940  0.81449940  0.53290418  1
loop_
_geom_bond_atom_site_label_1
_geom_bond_atom_site_label_2
_geom_bond_distance
_geom_bond_site_symmetry_2
Ce0_0 Ce1_4 2.809190 1_455
Ce0_0 Ce1_2 2.809190 1_545
Ce0_0 Mg1_2 3.419125 1_545
Ce0_0 Mg1_4 3.419125 1_455
Ce0_0 Mg1_5 3.427204 1_455
Ce0_0 Mg1_3 3.427204 1_545
Ce0_0 Mg0_2 3.492415 1_545
Ce0_0 Mg0_4 3.492415 1_455
Ce0_1 Ce1_3 2.809190 1_545
Ce0_1 Ce1_5 2.809190 1_455
Ce0_1 Mg1_5 3.419125 1_455
Ce0_1 Mg1_3 3.419125 1_545
Ce0_1 Mg1_2 3.427204 1_546
Ce0_1 Mg1_4 3.427204 1_456
Ce0_1 Mg0_5 3.492415 1_455
Ce0_1 Mg0_3 3.492415 1_545
Ce0_2 Ce1_0 2.809190 1_555
Ce0_2 Ce1_6 2.809190 1_455
Ce0_2 Mg1_6 3.419125 1_455
Ce0_2 Mg1_0 3.419125 1_555
Ce0_2 Mg1_7 3.427204 1_455
Ce0_2 Mg1_1 3.427204 1_555
Ce0_2 Mg0_0 3.492415 1_555
Ce0_2 Mg0_6 3.492415 1_455
Ce0_3 Ce1_7 2.809190 1_455
Ce0_3 Ce1_1 2.809190 1_555
Ce0_3 Mg1_1 3.419125 1_555
Ce0_3 Mg1_7 3.419125 1_455
Ce0_3 Mg1_6 3.427204 1_456
Ce0_3 Mg1_0 3.427204 1_556
Ce0_3 Mg0_7 3.492415 1_455
Ce0_3 Mg0_1 3.492415 1_555
Ce0_4 Ce1_0 2.809190 1_555
Ce0_4 Ce1_6 2.809190 1_545
Ce0_4 Mg1_6 3.419125 1_545
Ce0_4 Mg1_0 3.419125 1_555
Ce0_4 Mg1_7 3.427204 1_545
Ce0_4 Mg1_1 3.427204 1_555
Ce0_4 Mg0_0 3.492415 1_555
Ce0_4 Mg0_6 3.492415 1_545
Ce0_5 Ce1_7 2.809190 1_545
Ce0_5 Ce1_1 2.809190 1_555
Ce0_5 Mg1_1 3.419125 1_555
Ce0_5 Mg1_7 3.419125 1_545
Ce0_5 Mg1_6 3.427204 1_546
Ce0_5 Mg1_0 3.427204 1_556
Ce0_5 Mg0_7 3.492415 1_545
Ce0_5 Mg0_1 3.492415 1_555
Ce0_6 Ce1_4 2.809190 1_555
Ce0_6 Ce1_2 2.809190 1_555
Ce0_6 Mg1_4 3.419125 1_555
Ce0_6 Mg1_2 3.419125 1_555
Ce0_6 Mg1_5 3.427204 1_555
Ce0_6 Mg1_3 3.427204 1_555
Ce0_6 Mg0_2 3.492415 1_555
Ce0_6 Mg0_4 3.492415 1_555
Ce0_7 Ce1_5 2.809190 1_555
Ce0_7 Ce1_3 2.809190 1_555
Ce0_7 Mg1_5 3.419125 1_555
Ce0_7 Mg1_3 3.419125 1_555
Ce0_7 Mg1_4 3.427204 1_556
Ce0_7 Mg1_2 3.427204 1_556
Ce0_7 Mg0_5 3.492415 1_555
Ce0_7 Mg0_3 3.492415 1_555
Ce1_0 Mg0_2 3.419125 1_555
Ce1_0 Mg0_4 3.419125 1_555
Ce1_0 Mg0_5 3.427204 1_554
Ce1_0 Mg0_3 3.427204 1_554
Ce1_0 Mg1_4 3.492415 1_555
Ce1_0 Mg1_2 3.492415 1_555
Ce1_1 Mg0_5 3.419125 1_555
Ce1_1 Mg0_3 3.419125 1_555
Ce1_1 Mg0_2 3.427204 1_555
Ce1_1 Mg0_4 3.427204 1_555
Ce1_1 Mg1_5 3.492415 1_555
Ce1_1 Mg1_3 3.492415 1_555
Ce1_2 Mg0_6 3.419125 1_555
Ce1_2 Mg0_0 3.419125 1_565
Ce1_2 Mg0_1 3.427204 1_564
Ce1_2 Mg0_7 3.427204 1_554
Ce1_2 Mg1_0 3.492415 1_565
Ce1_2 Mg1_6 3.492415 1_555
Ce1_3 Mg0_7 3.419125 1_555
Ce1_3 Mg0_1 3.419125 1_565
Ce1_3 Mg0_6 3.427204 1_555
Ce1_3 Mg0_0 3.427204 1_565
Ce1_3 Mg1_7 3.492415 1_555
Ce1_3 Mg1_1 3.492415 1_565
Ce1_4 Mg0_6 3.419125 1_555
Ce1_4 Mg0_0 3.419125 1_655
Ce1_4 Mg0_1 3.427204 1_654
Ce1_4 Mg0_7 3.427204 1_554
Ce1_4 Mg1_0 3.492415 1_655
Ce1_4 Mg1_6 3.492415 1_555
Ce1_5 Mg0_7 3.419125 1_555
Ce1_5 Mg0_1 3.419125 1_655
Ce1_5 Mg0_0 3.427204 1_655
Ce1_5 Mg0_6 3.427204 1_555
Ce1_5 Mg1_7 3.492415 1_555
Ce1_5 Mg1_1 3.492415 1_655
Ce1_6 Mg0_4 3.419125 1_565
Ce1_6 Mg0_2 3.419125 1_655
Ce1_6 Mg0_5 3.427204 1_564
Ce1_6 Mg0_3 3.427204 1_654
Ce1_6 Mg1_2 3.492415 1_655
Ce1_6 Mg1_4 3.492415 1_565
Ce1_7 Mg0_5 3.419125 1_565
Ce1_7 Mg0_3 3.419125 1_655
Ce1_7 Mg0_4 3.427204 1_565
Ce1_7 Mg0_2 3.427204 1_655
Ce1_7 Mg1_3 3.492415 1_655
Ce1_7 Mg1_5 3.492415 1_565
Mg0_0 Mg1_5 3.046106 1_455
Mg0_0 Mg1_3 3.046106 1_545
Mg0_0 Mg1_1 3.261117 1_555
Mg0_0 Mg0_6 3.385116 1_455
Mg0_0 Mg0_6 3.385116 1_545
Mg0_1 Mg1_4 3.046106 1_456
Mg0_1 Mg1_2 3.046106 1_546
Mg0_1 Mg1_0 3.261117 1_556
Mg0_1 Mg0_7 3.385116 1_455
Mg0_1 Mg0_7 3.385116 1_545
Mg0_2 Mg1_1 3.046106 1_555
Mg0_2 Mg1_7 3.046106 1_455
Mg0_2 Mg1_3 3.261117 1_555
Mg0_2 Mg0_4 3.385116 1_465
Mg0_2 Mg0_4 3.385116 1_555
Mg0_3 Mg1_6 3.046106 1_456
Mg0_3 Mg1_0 3.046106 1_556
Mg0_3 Mg1_2 3.261117 1_556
Mg0_3 Mg0_5 3.385116 1_465
Mg0_3 Mg0_5 3.385116 1_555
Mg0_4 Mg1_1 3.046106 1_555
Mg0_4 Mg1_7 3.046106 1_545
Mg0_4 Mg1_5 3.261117 1_555
Mg0_5 Mg1_6 3.046106 1_546
Mg0_5 Mg1_0 3.046106 1_556
Mg0_5 Mg1_4 3.261117 1_556
Mg0_6 Mg1_5 3.046106 1_555
Mg0_6 Mg1_3 3.046106 1_555
Mg0_6 Mg1_7 3.261117 1_555
Mg0_7 Mg1_4 3.046106 1_556
Mg0_7 Mg1_2 3.046106 1_556
Mg0_7 Mg1_6 3.261117 1_556
Mg1_0 Mg1_6 3.385116 1_545
Mg1_0 Mg1_6 3.385116 1_455
Mg1_1 Mg1_7 3.385116 1_545
Mg1_1 Mg1_7 3.385116 1_455
Mg1_2 Mg1_4 3.385116 1_555
Mg1_2 Mg1_4 3.385116 1_465
Mg1_3 Mg1_5 3.385116 1_555
Mg1_3 Mg1_5 3.385116 1_465
