# generated using pymatgen
data_Te2Mo3W(Se2S)2
_symmetry_space_group_name_H-M   'P 1'
_cell_length_a   3.34699861
_cell_length_b   3.34699861
_cell_length_c   38.08762500
_cell_angle_alpha   90.00000000
_cell_angle_beta   90.00000000
_cell_angle_gamma   120.00001208
_symmetry_Int_Tables_number   1
_chemical_formula_structural   Te2Mo3W(Se2S)2
_chemical_formula_sum   'Te2 Mo3 W1 Se4 S2'
_cell_volume   369.50943803
_cell_formula_units_Z   1
loop_
 _symmetry_equiv_pos_site_id
 _symmetry_equiv_pos_as_xyz
  1  'x, y, z'
loop_
 _atom_site_type_symbol
 _atom_site_label
 _atom_site_symmetry_multiplicity
 _atom_site_fract_x
 _atom_site_fract_y
 _atom_site_fract_z
 _atom_site_occupancy
  Te  Te0  1  0.33333300  0.66666700  0.33185200  1
  Te  Te1  1  0.33333300  0.66666700  0.23165200  1
  Mo  Mo0  1  0.33333300  0.66666700  0.09391200  1
  Mo  Mo1  1  0.33333300  0.66666700  0.46970700  1
  Mo  Mo2  1  0.66666700  0.33333300  0.65753600  1
  W  W0  1  0.66666700  0.33333300  0.28177200  1
  Se  Se0  1  0.33333300  0.66666700  0.70132800  1
  Se  Se1  1  0.66666700  0.33333300  0.42591900  1
  Se  Se2  1  0.66666700  0.33333300  0.51347800  1
  Se  Se3  1  0.33333300  0.66666700  0.61374300  1
  S  S0  1  0.66666700  0.33333300  0.05407900  1
  S  S1  1  0.66666700  0.33333300  0.13376800  1
loop_
_geom_bond_atom_site_label_1
_geom_bond_atom_site_label_2
_geom_bond_distance
_geom_bond_site_symmetry_2
Te0 W0 2.715218 1_455
Te0 W0 2.715218 1_565
Te0 W0 2.715222 1_555
Te1 W0 2.716288 1_455
Te1 W0 2.716288 1_565
Te1 W0 2.716293 1_555
Mo0 S0 2.456797 1_455
Mo0 S0 2.456797 1_565
Mo0 S0 2.456802 1_555
Mo0 S1 2.457338 1_455
Mo0 S1 2.457338 1_565
Mo0 S1 2.457343 1_555
Mo1 Se2 2.552148 1_455
Mo1 Se2 2.552148 1_565
Mo1 Se2 2.552153 1_555
Mo1 Se1 2.552571 1_455
Mo1 Se1 2.552571 1_565
Mo1 Se1 2.552576 1_555
Mo2 Se0 2.552670 1_545
Mo2 Se0 2.552670 1_655
Mo2 Se0 2.552675 1_555
Mo2 Se3 2.552695 1_545
Mo2 Se3 2.552695 1_655
Mo2 Se3 2.552700 1_555
