# generated using pymatgen
data_Mg30CoCuO32
_symmetry_space_group_name_H-M   'P 1'
_cell_length_a   8.39889349
_cell_length_b   8.39889349
_cell_length_c   8.40015579
_cell_angle_alpha   90.00000000
_cell_angle_beta   90.00000000
_cell_angle_gamma   90.00000000
_symmetry_Int_Tables_number   1
_chemical_formula_structural   Mg30CoCuO32
_chemical_formula_sum   'Mg30 Co1 Cu1 O32'
_cell_volume   592.55884924
_cell_formula_units_Z   1
loop_
 _symmetry_equiv_pos_site_id
 _symmetry_equiv_pos_as_xyz
  1  'x, y, z'
loop_
 _atom_site_type_symbol
 _atom_site_label
 _atom_site_symmetry_multiplicity
 _atom_site_fract_x
 _atom_site_fract_y
 _atom_site_fract_z
 _atom_site_occupancy
  Mg  Mg0  1  -0.00000000  0.50000000  0.00000000  1
  Mg  Mg1  1  0.50000000  0.00000000  0.00000000  1
  Mg  Mg2  1  -0.00000000  0.00000000  0.50000000  1
  Mg  Mg3  1  -0.00000000  0.50000000  0.50000000  1
  Mg  Mg4  1  0.50000000  0.00000000  0.50000000  1
  Mg  Mg5  1  0.50000000  0.50000000  0.50000000  1
  Mg  Mg6  1  0.25007271  0.25007271  0.00000000  1
  Mg  Mg7  1  0.25007271  0.74992729  0.00000000  1
  Mg  Mg8  1  0.74992729  0.25007271  0.00000000  1
  Mg  Mg9  1  0.74992729  0.74992729  0.00000000  1
  Mg  Mg10  1  0.24953767  0.24953767  0.50000000  1
  Mg  Mg11  1  0.24953767  0.75046233  0.50000000  1
  Mg  Mg12  1  0.75046233  0.24953767  0.50000000  1
  Mg  Mg13  1  0.75046233  0.75046233  0.50000000  1
  Mg  Mg14  1  -0.00000000  0.25114203  0.24723997  1
  Mg  Mg15  1  -0.00000000  0.74885797  0.24723997  1
  Mg  Mg16  1  0.50000000  0.25279003  0.24955800  1
  Mg  Mg17  1  0.50000000  0.74720997  0.24955800  1
  Mg  Mg18  1  -0.00000000  0.25114203  0.75276003  1
  Mg  Mg19  1  -0.00000000  0.74885797  0.75276003  1
  Mg  Mg20  1  0.50000000  0.25279003  0.75044200  1
  Mg  Mg21  1  0.50000000  0.74720997  0.75044200  1
  Mg  Mg22  1  0.25114203  0.00000000  0.24723997  1
  Mg  Mg23  1  0.25279003  0.50000000  0.24955800  1
  Mg  Mg24  1  0.74885797  0.00000000  0.24723997  1
  Mg  Mg25  1  0.74720997  0.50000000  0.24955800  1
  Mg  Mg26  1  0.25114203  0.00000000  0.75276003  1
  Mg  Mg27  1  0.25279003  0.50000000  0.75044200  1
  Mg  Mg28  1  0.74885797  0.00000000  0.75276003  1
  Mg  Mg29  1  0.74720997  0.50000000  0.75044200  1
  Co  Co0  1  0.50000000  0.50000000  0.00000000  1
  Cu  Cu0  1  -0.00000000  0.00000000  0.00000000  1
  O  O0  1  -0.00000000  0.00000000  0.24639457  1
  O  O1  1  -0.00000000  0.50000000  0.24903111  1
  O  O2  1  0.50000000  0.00000000  0.24903111  1
  O  O3  1  0.50000000  0.50000000  0.25585523  1
  O  O4  1  -0.00000000  0.00000000  0.75360543  1
  O  O5  1  -0.00000000  0.50000000  0.75096889  1
  O  O6  1  0.50000000  0.00000000  0.75096889  1
  O  O7  1  0.50000000  0.50000000  0.74414477  1
  O  O8  1  0.25026475  0.25026475  0.24897747  1
  O  O9  1  0.25026475  0.74973525  0.24897747  1
  O  O10  1  0.74973525  0.25026475  0.24897747  1
  O  O11  1  0.74973525  0.74973525  0.24897747  1
  O  O12  1  0.25026475  0.25026475  0.75102253  1
  O  O13  1  0.25026475  0.74973525  0.75102253  1
  O  O14  1  0.74973525  0.25026475  0.75102253  1
  O  O15  1  0.74973525  0.74973525  0.75102253  1
  O  O16  1  -0.00000000  0.26000988  0.00000000  1
  O  O17  1  -0.00000000  0.73999012  0.00000000  1
  O  O18  1  0.50000000  0.25852335  0.00000000  1
  O  O19  1  0.50000000  0.74147665  0.00000000  1
  O  O20  1  -0.00000000  0.24912693  0.50000000  1
  O  O21  1  -0.00000000  0.75087307  0.50000000  1
  O  O22  1  0.50000000  0.24937879  0.50000000  1
  O  O23  1  0.50000000  0.75062121  0.50000000  1
  O  O24  1  0.26000988  0.00000000  0.00000000  1
  O  O25  1  0.25852335  0.50000000  0.00000000  1
  O  O26  1  0.73999012  0.00000000  0.00000000  1
  O  O27  1  0.74147665  0.50000000  0.00000000  1
  O  O28  1  0.24912693  0.00000000  0.50000000  1
  O  O29  1  0.24937879  0.50000000  0.50000000  1
  O  O30  1  0.75087307  0.00000000  0.50000000  1
  O  O31  1  0.75062121  0.50000000  0.50000000  1
loop_
_geom_bond_atom_site_label_1
_geom_bond_atom_site_label_2
_geom_bond_distance
_geom_bond_site_symmetry_2
Mg0 O17 2.015651 1_555
Mg0 O16 2.015651 1_555
Mg0 O1 2.091900 1_555
Mg0 O5 2.091900 1_554
Mg0 O27 2.171310 1_455
Mg0 O25 2.171310 1_555
Mg1 O24 2.015651 1_555
Mg1 O26 2.015651 1_555
Mg1 O6 2.091900 1_554
Mg1 O2 2.091900 1_555
Mg1 O19 2.171310 1_545
Mg1 O18 2.171310 1_555
Mg2 O21 2.092391 1_545
Mg2 O30 2.092391 1_455
Mg2 O28 2.092391 1_555
Mg2 O20 2.092391 1_555
Mg2 O0 2.130325 1_555
Mg2 O4 2.130325 1_555
Mg3 O31 2.094506 1_455
Mg3 O29 2.094506 1_555
Mg3 O21 2.107056 1_555
Mg3 O20 2.107056 1_555
Mg3 O1 2.108178 1_555
Mg3 O5 2.108178 1_555
Mg4 O23 2.094506 1_545
Mg4 O22 2.094506 1_555
Mg4 O30 2.107056 1_555
Mg4 O28 2.107056 1_555
Mg4 O2 2.108178 1_555
Mg4 O6 2.108178 1_555
Mg5 O3 2.050854 1_555
Mg5 O7 2.050854 1_555
Mg5 O22 2.104941 1_555
Mg5 O29 2.104941 1_555
Mg5 O31 2.104941 1_555
Mg5 O23 2.104941 1_555
Mg6 O8 2.091451 1_555
Mg6 O12 2.091451 1_554
Mg6 O25 2.100312 1_555
Mg6 O18 2.100312 1_555
Mg6 O16 2.101992 1_555
Mg6 O24 2.101992 1_555
Mg7 O9 2.091451 1_555
Mg7 O13 2.091451 1_554
Mg7 O19 2.100312 1_555
Mg7 O25 2.100312 1_555
Mg7 O24 2.101992 1_565
Mg7 O17 2.101992 1_555
Mg8 O10 2.091451 1_555
Mg8 O14 2.091451 1_554
Mg8 O27 2.100312 1_555
Mg8 O18 2.100312 1_555
Mg8 O16 2.101992 1_655
Mg8 O26 2.101992 1_555
Mg9 O15 2.091451 1_554
Mg9 O11 2.091451 1_555
Mg9 O19 2.100312 1_555
Mg9 O27 2.100312 1_555
Mg9 O26 2.101992 1_565
Mg9 O17 2.101992 1_655
Mg10 O28 2.095843 1_555
Mg10 O20 2.095843 1_555
Mg10 O22 2.103607 1_555
Mg10 O29 2.103607 1_555
Mg10 O8 2.108646 1_555
Mg10 O12 2.108646 1_555
Mg11 O28 2.095843 1_565
Mg11 O21 2.095843 1_555
Mg11 O23 2.103607 1_555
Mg11 O29 2.103607 1_555
Mg11 O9 2.108646 1_555
Mg11 O13 2.108646 1_555
Mg12 O20 2.095843 1_655
Mg12 O30 2.095843 1_555
Mg12 O31 2.103607 1_555
Mg12 O22 2.103607 1_555
Mg12 O14 2.108646 1_555
Mg12 O10 2.108646 1_555
Mg13 O30 2.095843 1_565
Mg13 O21 2.095843 1_655
Mg13 O23 2.103607 1_555
Mg13 O31 2.103607 1_555
Mg13 O15 2.108646 1_555
Mg13 O11 2.108646 1_555
Mg14 O16 2.078189 1_555
Mg14 O1 2.090186 1_555
Mg14 O8 2.102011 1_555
Mg14 O10 2.102011 1_455
Mg14 O0 2.109327 1_555
Mg14 O20 2.123291 1_555
Mg15 O17 2.078189 1_555
Mg15 O1 2.090186 1_555
Mg15 O9 2.102011 1_555
Mg15 O11 2.102011 1_455
Mg15 O0 2.109327 1_565
Mg15 O21 2.123291 1_555
Mg16 O3 2.076964 1_555
Mg16 O18 2.096879 1_555
Mg16 O10 2.097613 1_555
Mg16 O8 2.097613 1_555
Mg16 O22 2.103947 1_555
Mg16 O2 2.123161 1_555
Mg17 O3 2.076964 1_555
Mg17 O19 2.096879 1_555
Mg17 O11 2.097613 1_555
Mg17 O9 2.097613 1_555
Mg17 O23 2.103947 1_555
Mg17 O2 2.123161 1_565
Mg18 O16 2.078189 1_556
Mg18 O5 2.090186 1_555
Mg18 O12 2.102011 1_555
Mg18 O14 2.102011 1_455
Mg18 O4 2.109327 1_555
Mg18 O20 2.123291 1_555
Mg19 O17 2.078189 1_556
Mg19 O5 2.090186 1_555
Mg19 O13 2.102011 1_555
Mg19 O15 2.102011 1_455
Mg19 O4 2.109327 1_565
Mg19 O21 2.123291 1_555
Mg20 O7 2.076964 1_555
Mg20 O18 2.096879 1_556
Mg20 O14 2.097613 1_555
Mg20 O12 2.097613 1_555
Mg20 O22 2.103947 1_555
Mg20 O6 2.123161 1_555
Mg21 O7 2.076964 1_555
Mg21 O19 2.096879 1_556
Mg21 O15 2.097613 1_555
Mg21 O13 2.097613 1_555
Mg21 O23 2.103947 1_555
Mg21 O6 2.123161 1_565
Mg22 O24 2.078189 1_555
Mg22 O2 2.090186 1_555
Mg22 O8 2.102011 1_555
Mg22 O9 2.102011 1_545
Mg22 O0 2.109327 1_555
Mg22 O28 2.123291 1_555
Mg23 O3 2.076964 1_555
Mg23 O25 2.096879 1_555
Mg23 O9 2.097613 1_555
Mg23 O8 2.097613 1_555
Mg23 O29 2.103947 1_555
Mg23 O1 2.123161 1_555
Mg24 O26 2.078189 1_555
Mg24 O2 2.090186 1_555
Mg24 O10 2.102011 1_555
Mg24 O11 2.102011 1_545
Mg24 O0 2.109327 1_655
Mg24 O30 2.123291 1_555
Mg25 O3 2.076964 1_555
Mg25 O27 2.096879 1_555
Mg25 O11 2.097613 1_555
Mg25 O10 2.097613 1_555
Mg25 O31 2.103947 1_555
Mg25 O1 2.123161 1_655
Mg26 O24 2.078189 1_556
Mg26 O6 2.090186 1_555
Mg26 O12 2.102011 1_555
Mg26 O13 2.102011 1_545
Mg26 O4 2.109327 1_555
Mg26 O28 2.123291 1_555
Mg27 O7 2.076964 1_555
Mg27 O25 2.096879 1_556
Mg27 O13 2.097613 1_555
Mg27 O12 2.097613 1_555
Mg27 O29 2.103947 1_555
Mg27 O5 2.123161 1_555
Mg28 O26 2.078189 1_556
Mg28 O6 2.090186 1_555
Mg28 O14 2.102011 1_555
Mg28 O15 2.102011 1_545
Mg28 O4 2.109327 1_655
Mg28 O30 2.123291 1_555
Mg29 O7 2.076964 1_555
Mg29 O27 2.096879 1_556
Mg29 O15 2.097613 1_555
Mg29 O14 2.097613 1_555
Mg29 O31 2.103947 1_555
Mg29 O5 2.123161 1_655
Co0 O25 2.028137 1_555
Co0 O18 2.028137 1_555
Co0 O27 2.028137 1_555
Co0 O19 2.028137 1_555
Co0 O3 2.149224 1_555
Co0 O7 2.149224 1_554
Cu0 O4 2.069753 1_554
Cu0 O0 2.069753 1_555
Cu0 O24 2.183795 1_555
Cu0 O16 2.183795 1_555
Cu0 O26 2.183795 1_455
Cu0 O17 2.183795 1_545
