# generated using pymatgen
data_Cs2Mn2Cr3O12
_symmetry_space_group_name_H-M   'P 1'
_cell_length_a   10.85157800
_cell_length_b   10.85157800
_cell_length_c   10.85157800
_cell_angle_alpha   90.00000000
_cell_angle_beta   90.00000000
_cell_angle_gamma   90.00000000
_symmetry_Int_Tables_number   1
_chemical_formula_structural   Cs2Mn2Cr3O12
_chemical_formula_sum   'Cs8 Mn8 Cr12 O48'
_cell_volume   1277.84650437
_cell_formula_units_Z   4
loop_
 _symmetry_equiv_pos_site_id
 _symmetry_equiv_pos_as_xyz
  1  'x, y, z'
loop_
 _atom_site_type_symbol
 _atom_site_label
 _atom_site_symmetry_multiplicity
 _atom_site_fract_x
 _atom_site_fract_y
 _atom_site_fract_z
 _atom_site_occupancy
  Cs  Cs0  1  0.05023200  0.05023200  0.05023200  1
  Cs  Cs1  1  0.44976800  0.94976800  0.55023200  1
  Cs  Cs2  1  0.94976800  0.55023200  0.44976800  1
  Cs  Cs3  1  0.55023200  0.44976800  0.94976800  1
  Cs  Cs4  1  0.81830700  0.81830700  0.81830700  1
  Cs  Cs5  1  0.68169300  0.18169300  0.31830700  1
  Cs  Cs6  1  0.18169300  0.31830700  0.68169300  1
  Cs  Cs7  1  0.31830700  0.68169300  0.18169300  1
  Mn  Mn0  1  0.33634300  0.33634300  0.33634300  1
  Mn  Mn1  1  0.16365700  0.66365700  0.83634300  1
  Mn  Mn2  1  0.66365700  0.83634300  0.16365700  1
  Mn  Mn3  1  0.83634300  0.16365700  0.66365700  1
  Mn  Mn4  1  0.60110300  0.60110300  0.60110300  1
  Mn  Mn5  1  0.89889700  0.39889700  0.10110300  1
  Mn  Mn6  1  0.39889700  0.10110300  0.89889700  1
  Mn  Mn7  1  0.10110300  0.89889700  0.39889700  1
  Cr  Cr0  1  0.01991200  0.21435600  0.37671100  1
  Cr  Cr1  1  0.48008800  0.78564400  0.87671100  1
  Cr  Cr2  1  0.98008800  0.71435600  0.12328900  1
  Cr  Cr3  1  0.37671100  0.01991200  0.21435600  1
  Cr  Cr4  1  0.51991200  0.28564400  0.62328900  1
  Cr  Cr5  1  0.87671100  0.48008800  0.78564400  1
  Cr  Cr6  1  0.12328900  0.98008800  0.71435600  1
  Cr  Cr7  1  0.62328900  0.51991200  0.28564400  1
  Cr  Cr8  1  0.21435600  0.37671100  0.01991200  1
  Cr  Cr9  1  0.71435600  0.12328900  0.98008800  1
  Cr  Cr10  1  0.28564400  0.62328900  0.51991200  1
  Cr  Cr11  1  0.78564400  0.87671100  0.48008800  1
  O  O0  1  0.01723500  0.06677700  0.33289900  1
  O  O1  1  0.48276500  0.93322300  0.83289900  1
  O  O2  1  0.98276500  0.56677700  0.16710100  1
  O  O3  1  0.33289900  0.01723500  0.06677700  1
  O  O4  1  0.51723500  0.43322300  0.66710100  1
  O  O5  1  0.83289900  0.48276500  0.93322300  1
  O  O6  1  0.16710100  0.98276500  0.56677700  1
  O  O7  1  0.66710100  0.51723500  0.43322300  1
  O  O8  1  0.06677700  0.33289900  0.01723500  1
  O  O9  1  0.56677700  0.16710100  0.98276500  1
  O  O10  1  0.43322300  0.66710100  0.51723500  1
  O  O11  1  0.93322300  0.83289900  0.48276500  1
  O  O12  1  0.26860700  0.49318300  0.43878900  1
  O  O13  1  0.23139300  0.50681700  0.93878900  1
  O  O14  1  0.73139300  0.99318300  0.06121100  1
  O  O15  1  0.43878900  0.26860700  0.49318300  1
  O  O16  1  0.76860700  0.00681700  0.56121100  1
  O  O17  1  0.93878900  0.23139300  0.50681700  1
  O  O18  1  0.06121100  0.73139300  0.99318300  1
  O  O19  1  0.56121100  0.76860700  0.00681700  1
  O  O20  1  0.49318300  0.43878900  0.26860700  1
  O  O21  1  0.99318300  0.06121100  0.73139300  1
  O  O22  1  0.00681700  0.56121100  0.76860700  1
  O  O23  1  0.50681700  0.93878900  0.23139300  1
  O  O24  1  0.04491600  0.80176900  0.23220800  1
  O  O25  1  0.45508400  0.19823100  0.73220800  1
  O  O26  1  0.95508400  0.30176900  0.26779200  1
  O  O27  1  0.23220800  0.04491600  0.80176900  1
  O  O28  1  0.54491600  0.69823100  0.76779200  1
  O  O29  1  0.73220800  0.45508400  0.19823100  1
  O  O30  1  0.26779200  0.95508400  0.30176900  1
  O  O31  1  0.76779200  0.54491600  0.69823100  1
  O  O32  1  0.80176900  0.23220800  0.04491600  1
  O  O33  1  0.30176900  0.26779200  0.95508400  1
  O  O34  1  0.69823100  0.76779200  0.54491600  1
  O  O35  1  0.19823100  0.73220800  0.45508400  1
  O  O36  1  0.16436100  0.26026400  0.39952500  1
  O  O37  1  0.33563900  0.73973600  0.89952500  1
  O  O38  1  0.83563900  0.76026400  0.10047500  1
  O  O39  1  0.39952500  0.16436100  0.26026400  1
  O  O40  1  0.66436100  0.23973600  0.60047500  1
  O  O41  1  0.89952500  0.33563900  0.73973600  1
  O  O42  1  0.10047500  0.83563900  0.76026400  1
  O  O43  1  0.60047500  0.66436100  0.23973600  1
  O  O44  1  0.26026400  0.39952500  0.16436100  1
  O  O45  1  0.76026400  0.10047500  0.83563900  1
  O  O46  1  0.23973600  0.60047500  0.66436100  1
  O  O47  1  0.73973600  0.89952500  0.33563900  1
loop_
_geom_bond_atom_site_label_1
_geom_bond_atom_site_label_2
_geom_bond_distance
_geom_bond_site_symmetry_2
Cs0 O3 3.093426 1_555
Cs0 O0 3.093426 1_555
Cs0 O8 3.093426 1_555
Cs0 O24 3.342522 1_545
Cs0 O27 3.342522 1_554
Cs0 O32 3.342522 1_455
Cs0 O21 3.516873 1_454
Cs0 O14 3.516873 1_445
Cs0 O18 3.516873 1_544
Cs1 O1 3.093426 1_555
Cs1 O10 3.093426 1_555
Cs1 O6 3.093426 1_555
Cs1 O25 3.342522 1_565
Cs1 O34 3.342522 1_555
Cs1 O30 3.342522 1_555
Cs1 O16 3.516873 1_565
Cs1 O15 3.516873 1_565
Cs1 O23 3.516873 1_555
Cs2 O11 3.093426 1_555
Cs2 O7 3.093426 1_555
Cs2 O2 3.093426 1_555
Cs2 O31 3.342522 1_555
Cs2 O35 3.342522 1_655
Cs2 O26 3.342522 1_555
Cs2 O22 3.516873 1_655
Cs2 O12 3.516873 1_655
Cs2 O17 3.516873 1_555
Cs3 O4 3.093426 1_555
Cs3 O5 3.093426 1_555
Cs3 O9 3.093426 1_555
Cs3 O28 3.342522 1_555
Cs3 O29 3.342522 1_556
Cs3 O33 3.342522 1_555
Cs3 O19 3.516873 1_556
Cs3 O20 3.516873 1_556
Cs3 O13 3.516873 1_555
Cs4 O45 3.131732 1_565
Cs4 O42 3.131732 1_655
Cs4 O38 3.131732 1_556
Cs4 O34 3.286302 1_555
Cs4 O31 3.286302 1_555
Cs4 O28 3.286302 1_555
Cs4 O14 3.382108 1_556
Cs4 O21 3.382108 1_565
Cs4 O18 3.382108 1_655
Cs4 O16 3.501286 1_565
Cs4 O19 3.501286 1_556
Cs4 O22 3.501286 1_655
Cs5 O39 3.131732 1_555
Cs5 O47 3.131732 1_545
Cs5 O40 3.131732 1_555
Cs5 O29 3.286302 1_555
Cs5 O32 3.286302 1_555
Cs5 O26 3.286302 1_555
Cs5 O15 3.382108 1_555
Cs5 O16 3.382108 1_555
Cs5 O23 3.382108 1_545
Cs5 O14 3.501286 1_545
Cs5 O17 3.501286 1_555
Cs5 O20 3.501286 1_555
Cs6 O41 3.131732 1_455
Cs6 O36 3.131732 1_555
Cs6 O46 3.131732 1_555
Cs6 O27 3.286302 1_555
Cs6 O25 3.286302 1_555
Cs6 O33 3.286302 1_555
Cs6 O12 3.382108 1_555
Cs6 O22 3.382108 1_555
Cs6 O17 3.382108 1_455
Cs6 O13 3.501286 1_555
Cs6 O21 3.501286 1_455
Cs6 O15 3.501286 1_555
Cs7 O44 3.131732 1_555
Cs7 O37 3.131732 1_554
Cs7 O43 3.131732 1_555
Cs7 O24 3.286302 1_555
Cs7 O35 3.286302 1_555
Cs7 O30 3.286302 1_555
Cs7 O20 3.382108 1_555
Cs7 O13 3.382108 1_554
Cs7 O19 3.382108 1_555
Cs7 O18 3.501286 1_554
Cs7 O23 3.501286 1_555
Cs7 O12 3.501286 1_555
Mn0 O44 2.152823 1_555
Mn0 O39 2.152823 1_555
Mn0 O36 2.152823 1_555
Mn0 O15 2.161675 1_555
Mn0 O12 2.161675 1_555
Mn0 O20 2.161675 1_555
Mn1 O42 2.152823 1_555
Mn1 O46 2.152823 1_555
Mn1 O37 2.152823 1_555
Mn1 O22 2.161675 1_555
Mn1 O18 2.161675 1_555
Mn1 O13 2.161675 1_555
Mn2 O38 2.152823 1_555
Mn2 O43 2.152823 1_555
Mn2 O47 2.152823 1_555
Mn2 O19 2.161675 1_555
Mn2 O14 2.161675 1_555
Mn2 O23 2.161675 1_555
Mn3 O45 2.152823 1_555
Mn3 O41 2.152823 1_555
Mn3 O40 2.152823 1_555
Mn3 O16 2.161675 1_555
Mn3 O21 2.161675 1_555
Mn3 O17 2.161675 1_555
Mn4 O7 2.158708 1_555
Mn4 O4 2.158708 1_555
Mn4 O10 2.158708 1_555
Mn4 O28 2.180494 1_555
Mn4 O34 2.180494 1_555
Mn4 O31 2.180494 1_555
Mn5 O2 2.158708 1_555
Mn5 O5 2.158708 1_554
Mn5 O8 2.158708 1_655
Mn5 O29 2.180494 1_555
Mn5 O32 2.180494 1_555
Mn5 O26 2.180494 1_555
Mn6 O9 2.158708 1_555
Mn6 O1 2.158708 1_545
Mn6 O3 2.158708 1_556
Mn6 O27 2.180494 1_555
Mn6 O33 2.180494 1_555
Mn6 O25 2.180494 1_555
Mn7 O6 2.158708 1_555
Mn7 O11 2.158708 1_455
Mn7 O0 2.158708 1_565
Mn7 O35 2.180494 1_555
Mn7 O30 2.180494 1_555
Mn7 O24 2.180494 1_555
Cr0 O36 1.663287 1_555
Cr0 O0 1.670798 1_555
Cr0 O26 1.670828 1_455
Cr0 O17 1.674057 1_455
Cr1 O37 1.663287 1_555
Cr1 O1 1.670798 1_555
Cr1 O28 1.670828 1_555
Cr1 O19 1.674057 1_556
Cr2 O38 1.663287 1_555
Cr2 O2 1.670798 1_555
Cr2 O24 1.670828 1_655
Cr2 O18 1.674057 1_654
Cr3 O39 1.663287 1_555
Cr3 O3 1.670798 1_555
Cr3 O30 1.670828 1_545
Cr3 O23 1.674057 1_545
Cr4 O40 1.663287 1_555
Cr4 O4 1.670798 1_555
Cr4 O25 1.670828 1_555
Cr4 O15 1.674057 1_555
Cr5 O41 1.663287 1_555
Cr5 O5 1.670798 1_555
Cr5 O31 1.670828 1_555
Cr5 O22 1.674057 1_655
Cr6 O42 1.663287 1_555
Cr6 O6 1.670798 1_555
Cr6 O27 1.670828 1_565
Cr6 O21 1.674057 1_465
Cr7 O43 1.663287 1_555
Cr7 O7 1.670798 1_555
Cr7 O29 1.670828 1_555
Cr7 O20 1.674057 1_555
Cr8 O44 1.663287 1_555
Cr8 O8 1.670798 1_555
Cr8 O33 1.670828 1_554
Cr8 O13 1.674057 1_554
Cr9 O45 1.663287 1_555
Cr9 O9 1.670798 1_555
Cr9 O32 1.670828 1_556
Cr9 O14 1.674057 1_546
Cr10 O46 1.663287 1_555
Cr10 O10 1.670798 1_555
Cr10 O35 1.670828 1_555
Cr10 O12 1.674057 1_555
Cr11 O47 1.663287 1_555
Cr11 O11 1.670798 1_555
Cr11 O34 1.670828 1_555
Cr11 O16 1.674057 1_565
