# generated using pymatgen
data_Ba2MgCr2CuF14
_symmetry_space_group_name_H-M   'P 1'
_cell_length_a   7.45461838
_cell_length_b   7.45461838
_cell_length_c   14.60776748
_cell_angle_alpha   88.27743391
_cell_angle_beta   88.27743391
_cell_angle_gamma   41.18635009
_symmetry_Int_Tables_number   1
_chemical_formula_structural   Ba2MgCr2CuF14
_chemical_formula_sum   'Ba4 Mg2 Cr4 Cu2 F28'
_cell_volume   534.28520389
_cell_formula_units_Z   2
loop_
 _symmetry_equiv_pos_site_id
 _symmetry_equiv_pos_as_xyz
  1  'x, y, z'
loop_
 _atom_site_type_symbol
 _atom_site_label
 _atom_site_symmetry_multiplicity
 _atom_site_fract_x
 _atom_site_fract_y
 _atom_site_fract_z
 _atom_site_occupancy
  Ba  Ba0  1  0.73839700  0.89046100  0.12343400  1
  Ba  Ba1  1  0.89046100  0.73839700  0.62343400  1
  Ba  Ba2  1  0.26160300  0.10953900  0.87656600  1
  Ba  Ba3  1  0.10953900  0.26160300  0.37656600  1
  Mg  Mg0  1  0.43048800  0.56951200  0.25000000  1
  Mg  Mg1  1  0.56951200  0.43048800  0.75000000  1
  Cr  Cr0  1  0.86065700  0.90349300  0.37322500  1
  Cr  Cr1  1  0.13934300  0.09650700  0.62677500  1
  Cr  Cr2  1  0.90349300  0.86065700  0.87322500  1
  Cr  Cr3  1  0.09650700  0.13934300  0.12677500  1
  Cu  Cu0  1  0.50000000  0.50000000  0.50000000  1
  Cu  Cu1  1  0.50000000  0.50000000  0.00000000  1
  F  F0  1  0.90732600  0.11085800  0.83936100  1
  F  F1  1  0.59214800  0.13301600  0.95510600  1
  F  F2  1  0.40785200  0.86698400  0.04489400  1
  F  F3  1  0.15156000  0.35202300  0.09667700  1
  F  F4  1  0.51199300  0.39318200  0.12318300  1
  F  F5  1  0.60681800  0.48800700  0.37681700  1
  F  F6  1  0.13301600  0.59214800  0.45510600  1
  F  F7  1  0.88914200  0.09267400  0.66063900  1
  F  F8  1  0.03965400  0.64012400  0.27523000  1
  F  F9  1  0.84844000  0.64797700  0.90332300  1
  F  F10  1  0.57894900  0.20113300  0.28888500  1
  F  F11  1  0.64797700  0.84844000  0.40332300  1
  F  F12  1  0.20113300  0.57894900  0.78888500  1
  F  F13  1  0.42105100  0.79886700  0.71111500  1
  F  F14  1  0.39318200  0.51199300  0.62318300  1
  F  F15  1  0.96034600  0.35987600  0.72477000  1
  F  F16  1  0.28675200  0.88058000  0.51635800  1
  F  F17  1  0.09267400  0.88914200  0.16063900  1
  F  F18  1  0.71324800  0.11942000  0.48364200  1
  F  F19  1  0.88058000  0.28675200  0.01635800  1
  F  F20  1  0.86698400  0.40785200  0.54489400  1
  F  F21  1  0.79886700  0.42105100  0.21111500  1
  F  F22  1  0.64012400  0.03965400  0.77523000  1
  F  F23  1  0.11942000  0.71324800  0.98364200  1
  F  F24  1  0.48800700  0.60681800  0.87681700  1
  F  F25  1  0.11085800  0.90732600  0.33936100  1
  F  F26  1  0.35987600  0.96034600  0.22477000  1
  F  F27  1  0.35202300  0.15156000  0.59667700  1
loop_
_geom_bond_atom_site_label_1
_geom_bond_atom_site_label_2
_geom_bond_distance
_geom_bond_site_symmetry_2
Ba0 F3 2.676664 1_655
Ba0 F8 2.680574 1_655
Ba0 F17 2.705039 1_655
Ba0 F4 2.715229 1_565
Ba0 F1 2.725981 1_564
Ba0 F26 2.829748 1_555
Ba0 F23 2.854582 1_654
Ba0 F2 2.872239 1_555
Ba0 F3 2.914703 1_565
Ba0 F10 2.939071 1_565
Ba1 F27 2.676664 1_565
Ba1 F22 2.680574 1_565
Ba1 F7 2.705039 1_565
Ba1 F14 2.715229 1_655
Ba1 F6 2.725981 1_655
Ba1 F15 2.829748 1_555
Ba1 F18 2.854582 1_565
Ba1 F20 2.872239 1_555
Ba1 F27 2.914703 1_655
Ba1 F12 2.939071 1_655
Ba2 F9 2.676664 1_455
Ba2 F15 2.680574 1_455
Ba2 F0 2.705039 1_455
Ba2 F24 2.715229 1_545
Ba2 F2 2.725981 1_546
Ba2 F22 2.829748 1_555
Ba2 F19 2.854582 1_456
Ba2 F1 2.872239 1_555
Ba2 F9 2.914703 1_545
Ba2 F13 2.939071 1_545
Ba3 F11 2.676664 1_545
Ba3 F26 2.680574 1_545
Ba3 F25 2.705039 1_545
Ba3 F5 2.715229 1_455
Ba3 F20 2.725981 1_455
Ba3 F8 2.829748 1_555
Ba3 F16 2.854582 1_545
Ba3 F6 2.872239 1_555
Ba3 F11 2.914703 1_455
Ba3 F21 2.939071 1_455
Cr0 F25 1.936030 1_655
Cr0 F18 1.946105 1_565
Cr0 F8 1.948149 1_655
Cr0 F11 1.949864 1_555
Cr0 F6 1.956051 1_655
Cr0 F10 1.956776 1_565
Cr1 F7 1.936030 1_455
Cr1 F16 1.946105 1_545
Cr1 F15 1.948149 1_455
Cr1 F27 1.949864 1_555
Cr1 F20 1.956051 1_455
Cr1 F13 1.956776 1_545
Cr2 F0 1.936030 1_565
Cr2 F23 1.946105 1_655
Cr2 F22 1.948149 1_565
Cr2 F9 1.949864 1_555
Cr2 F1 1.956051 1_565
Cr2 F12 1.956776 1_655
Cr3 F17 1.936030 1_545
Cr3 F19 1.946105 1_455
Cr3 F26 1.948149 1_545
Cr3 F3 1.949864 1_555
Cr3 F2 1.956051 1_545
Cr3 F21 1.956776 1_455
Cu0 F14 1.922599 1_555
Cu0 F5 1.922599 1_555
Cu0 F16 1.965412 1_555
Cu0 F18 1.965412 1_555
Cu0 F20 2.374528 1_555
Cu0 F6 2.374528 1_555
Cu1 F24 1.922599 1_554
Cu1 F4 1.922599 1_555
Cu1 F19 1.965412 1_555
Cu1 F23 1.965412 1_554
Cu1 F2 2.374528 1_555
Cu1 F1 2.374528 1_554
F0 Mg1 2.168478 1_555
F4 Mg0 2.098914 1_555
F5 Mg0 2.098914 1_555
F7 Mg1 2.168478 1_555
F8 Mg0 2.557395 1_555
F10 Mg0 2.111463 1_555
F12 Mg1 2.111463 1_555
F13 Mg1 2.111463 1_555
F14 Mg1 2.098914 1_555
F15 Mg1 2.557395 1_555
F17 Mg0 2.168478 1_555
F21 Mg0 2.111463 1_555
F22 Mg1 2.557395 1_555
F24 Mg1 2.098914 1_555
F25 Mg0 2.168478 1_555
F26 Mg0 2.557395 1_555
