# generated using pymatgen
data_ScRu(NF)6
_symmetry_space_group_name_H-M   'P 1'
_cell_length_a   8.92098900
_cell_length_b   8.92098900
_cell_length_c   8.92098900
_cell_angle_alpha   90.00000000
_cell_angle_beta   90.00000000
_cell_angle_gamma   90.00000000
_symmetry_Int_Tables_number   1
_chemical_formula_structural   ScRu(NF)6
_chemical_formula_sum   'Sc4 Ru4 N24 F24'
_cell_volume   709.96838768
_cell_formula_units_Z   4
loop_
 _symmetry_equiv_pos_site_id
 _symmetry_equiv_pos_as_xyz
  1  'x, y, z'
loop_
 _atom_site_type_symbol
 _atom_site_label
 _atom_site_symmetry_multiplicity
 _atom_site_fract_x
 _atom_site_fract_y
 _atom_site_fract_z
 _atom_site_occupancy
  Sc  Sc0  1  0.50000000  0.50000000  0.50000000  1
  Sc  Sc1  1  0.00000000  0.50000000  0.00000000  1
  Sc  Sc2  1  0.50000000  0.00000000  0.00000000  1
  Sc  Sc3  1  0.00000000  0.00000000  0.50000000  1
  Ru  Ru0  1  0.00000000  0.00000000  0.00000000  1
  Ru  Ru1  1  0.50000000  0.00000000  0.50000000  1
  Ru  Ru2  1  0.00000000  0.50000000  0.50000000  1
  Ru  Ru3  1  0.50000000  0.50000000  0.00000000  1
  N  N0  1  0.22368500  0.48493800  0.48020300  1
  N  N1  1  0.77631500  0.51506200  0.51979700  1
  N  N2  1  0.27631500  0.51506200  0.98020300  1
  N  N3  1  0.77631500  0.98493800  0.01979700  1
  N  N4  1  0.48020300  0.22368500  0.48493800  1
  N  N5  1  0.72368500  0.48493800  0.01979700  1
  N  N6  1  0.22368500  0.01506200  0.98020300  1
  N  N7  1  0.51979700  0.77631500  0.51506200  1
  N  N8  1  0.72368500  0.01506200  0.51979700  1
  N  N9  1  0.98020300  0.27631500  0.51506200  1
  N  N10  1  0.27631500  0.98493800  0.48020300  1
  N  N11  1  0.01979700  0.72368500  0.48493800  1
  N  N12  1  0.01979700  0.77631500  0.98493800  1
  N  N13  1  0.98020300  0.22368500  0.01506200  1
  N  N14  1  0.51979700  0.72368500  0.01506200  1
  N  N15  1  0.48020300  0.27631500  0.98493800  1
  N  N16  1  0.48493800  0.48020300  0.22368500  1
  N  N17  1  0.51506200  0.51979700  0.77631500  1
  N  N18  1  0.98493800  0.01979700  0.77631500  1
  N  N19  1  0.01506200  0.98020300  0.22368500  1
  N  N20  1  0.01506200  0.51979700  0.72368500  1
  N  N21  1  0.98493800  0.48020300  0.27631500  1
  N  N22  1  0.51506200  0.98020300  0.27631500  1
  N  N23  1  0.48493800  0.01979700  0.72368500  1
  F  F0  1  0.12536500  0.28793200  0.06015100  1
  F  F1  1  0.87463500  0.71206800  0.93984900  1
  F  F2  1  0.37463500  0.71206800  0.56015100  1
  F  F3  1  0.87463500  0.78793200  0.43984900  1
  F  F4  1  0.06015100  0.12536500  0.28793200  1
  F  F5  1  0.62536500  0.28793200  0.43984900  1
  F  F6  1  0.12536500  0.21206800  0.56015100  1
  F  F7  1  0.93984900  0.87463500  0.71206800  1
  F  F8  1  0.62536500  0.21206800  0.93984900  1
  F  F9  1  0.56015100  0.37463500  0.71206800  1
  F  F10  1  0.37463500  0.78793200  0.06015100  1
  F  F11  1  0.43984900  0.62536500  0.28793200  1
  F  F12  1  0.43984900  0.87463500  0.78793200  1
  F  F13  1  0.56015100  0.12536500  0.21206800  1
  F  F14  1  0.93984900  0.62536500  0.21206800  1
  F  F15  1  0.06015100  0.37463500  0.78793200  1
  F  F16  1  0.28793200  0.06015100  0.12536500  1
  F  F17  1  0.71206800  0.93984900  0.87463500  1
  F  F18  1  0.78793200  0.43984900  0.87463500  1
  F  F19  1  0.21206800  0.56015100  0.12536500  1
  F  F20  1  0.21206800  0.93984900  0.62536500  1
  F  F21  1  0.78793200  0.06015100  0.37463500  1
  F  F22  1  0.71206800  0.56015100  0.37463500  1
  F  F23  1  0.28793200  0.43984900  0.62536500  1
loop_
_geom_bond_atom_site_label_1
_geom_bond_atom_site_label_2
_geom_bond_distance
_geom_bond_site_symmetry_2
N0 Ru2 2.007793 1_555
N0 Sc0 2.474972 1_555
N1 Ru2 2.007793 1_655
N1 Sc0 2.474972 1_555
N2 Ru3 2.007793 1_556
N2 Sc1 2.474972 1_556
N3 Ru0 2.007793 1_665
N3 Sc2 2.474972 1_565
N4 Ru1 2.007793 1_555
N4 Sc0 2.474972 1_555
N5 Ru3 2.007793 1_555
N5 Sc1 2.474972 1_655
N6 Ru0 2.007793 1_556
N6 Sc2 2.474972 1_556
N7 Ru1 2.007793 1_565
N7 Sc0 2.474972 1_555
N8 Ru1 2.007793 1_555
N8 Sc3 2.474972 1_655
N9 Ru2 2.007793 1_655
N9 Sc3 2.474972 1_655
N10 Ru1 2.007793 1_565
N10 Sc3 2.474972 1_565
N11 Ru2 2.007793 1_555
N11 Sc3 2.474972 1_565
N12 Ru0 2.007793 1_566
N12 Sc1 2.474972 1_556
N13 Ru0 2.007793 1_655
N13 Sc1 2.474972 1_655
N14 Ru3 2.007793 1_555
N14 Sc2 2.474972 1_565
N15 Ru3 2.007793 1_556
N15 Sc2 2.474972 1_556
N16 Ru3 2.007793 1_555
N16 Sc0 2.474972 1_555
N17 Ru3 2.007793 1_556
N17 Sc0 2.474972 1_555
N18 Ru0 2.007793 1_656
N18 Sc3 2.474972 1_655
N19 Ru0 2.007793 1_565
N19 Sc3 2.474972 1_565
N20 Ru2 2.007793 1_555
N20 Sc1 2.474972 1_556
N21 Ru2 2.007793 1_655
N21 Sc1 2.474972 1_655
N22 Ru1 2.007793 1_565
N22 Sc2 2.474972 1_565
N23 Ru1 2.007793 1_555
N23 Sc2 2.474972 1_556
F0 N13 1.472171 1_455
F0 Sc1 2.262264 1_555
F1 N12 1.472171 1_655
F1 Sc1 2.262264 1_656
F2 N7 1.472171 1_555
F2 Sc0 2.262264 1_555
F3 N11 1.472171 1_655
F3 Sc3 2.262264 1_665
F4 N19 1.472171 1_545
F4 Sc3 2.262264 1_555
F5 N4 1.472171 1_555
F5 Sc0 2.262264 1_555
F6 N9 1.472171 1_455
F6 Sc3 2.262264 1_555
F7 N18 1.472171 1_565
F7 Sc3 2.262264 1_665
F8 N15 1.472171 1_555
F8 Sc2 2.262264 1_556
F9 N17 1.472171 1_555
F9 Sc0 2.262264 1_555
F10 N14 1.472171 1_555
F10 Sc2 2.262264 1_565
F11 N16 1.472171 1_555
F11 Sc0 2.262264 1_555
F12 N23 1.472171 1_565
F12 Sc2 2.262264 1_566
F13 N22 1.472171 1_545
F13 Sc2 2.262264 1_555
F14 N21 1.472171 1_555
F14 Sc1 2.262264 1_655
F15 N20 1.472171 1_555
F15 Sc1 2.262264 1_556
F16 N6 1.472171 1_554
F16 Sc2 2.262264 1_555
F17 N3 1.472171 1_556
F17 Sc2 2.262264 1_566
F18 N5 1.472171 1_556
F18 Sc1 2.262264 1_656
F19 N2 1.472171 1_554
F19 Sc1 2.262264 1_555
F20 N10 1.472171 1_555
F20 Sc3 2.262264 1_565
F21 N8 1.472171 1_555
F21 Sc3 2.262264 1_655
F22 N1 1.472171 1_555
F22 Sc0 2.262264 1_555
F23 N0 1.472171 1_555
F23 Sc0 2.262264 1_555
