# generated using pymatgen
data_Pr(In2Pd)2
_symmetry_space_group_name_H-M   'P 1'
_cell_length_a   4.63393402
_cell_length_b   10.05027690
_cell_length_c   33.59232833
_cell_angle_alpha   90.00000000
_cell_angle_beta   90.00000000
_cell_angle_gamma   90.00000000
_symmetry_Int_Tables_number   1
_chemical_formula_structural   Pr(In2Pd)2
_chemical_formula_sum   'Pr10 In40 Pd20'
_cell_volume   1564.47266578
_cell_formula_units_Z   10
loop_
 _symmetry_equiv_pos_site_id
 _symmetry_equiv_pos_as_xyz
  1  'x, y, z'
loop_
 _atom_site_type_symbol
 _atom_site_label
 _atom_site_symmetry_multiplicity
 _atom_site_fract_x
 _atom_site_fract_y
 _atom_site_fract_z
 _atom_site_occupancy
  Pr  Pr0  1  0.50000000  0.95826302  0.63881324  1
  Pr  Pr1  1  0.50000000  0.04173698  0.13881324  1
  Pr  Pr2  1  0.50000000  0.82641559  0.33755671  1
  Pr  Pr3  1  0.50000000  0.17358441  0.83755671  1
  Pr  Pr4  1  0.50000000  0.78383775  0.93811216  1
  Pr  Pr5  1  0.50000000  0.21616225  0.43811216  1
  Pr  Pr6  1  -0.00000000  0.70197649  0.49971968  1
  Pr  Pr7  1  -0.00000000  0.29802351  0.99971968  1
  Pr  Pr8  1  -0.00000000  0.45594177  0.69873907  1
  Pr  Pr9  1  -0.00000000  0.54405823  0.19873907  1
  In  In0  1  0.50000000  0.96641371  0.75017568  1
  In  In1  1  0.50000000  0.03358629  0.25017568  1
  In  In2  1  0.50000000  0.87977601  0.43952398  1
  In  In3  1  0.50000000  0.12022399  0.93952398  1
  In  In4  1  0.50000000  0.82457069  0.83294279  1
  In  In5  1  0.50000000  0.17542931  0.33294279  1
  In  In6  1  0.50000000  0.80664399  0.05173281  1
  In  In7  1  0.50000000  0.19335601  0.55173281  1
  In  In8  1  0.50000000  0.71290001  0.56776829  1
  In  In9  1  0.50000000  0.28709999  0.06776829  1
  In  In10  1  0.50000000  0.61718362  0.65133725  1
  In  In11  1  0.50000000  0.38281638  0.15133725  1
  In  In12  1  0.50000000  0.52743480  0.86136597  1
  In  In13  1  0.50000000  0.47256520  0.36136597  1
  In  In14  1  0.50000000  0.46935474  0.50880420  1
  In  In15  1  0.50000000  0.53064526  0.00880420  1
  In  In16  1  0.50000000  0.44640023  0.77099771  1
  In  In17  1  0.50000000  0.55359977  0.27099771  1
  In  In18  1  0.50000000  0.30854566  0.63971515  1
  In  In19  1  0.50000000  0.69145434  0.13971515  1
  In  In20  1  0.00000000  0.97933244  0.89049059  1
  In  In21  1  0.00000000  0.02066756  0.39049059  1
  In  In22  1  0.00000000  0.95167951  0.57006003  1
  In  In23  1  -0.00000000  0.04832049  0.07006003  1
  In  In24  1  0.00000000  0.94714607  0.98611053  1
  In  In25  1  -0.00000000  0.05285393  0.48611053  1
  In  In26  1  -0.00000000  0.87772004  0.18372113  1
  In  In27  1  -0.00000000  0.12227996  0.68372113  1
  In  In28  1  -0.00000000  0.80897829  0.69568378  1
  In  In29  1  -0.00000000  0.19102171  0.19568378  1
  In  In30  1  0.00000000  0.79661496  0.26931894  1
  In  In31  1  -0.00000000  0.20338504  0.76931894  1
  In  In32  1  -0.00000000  0.67268744  0.78127496  1
  In  In33  1  -0.00000000  0.32731256  0.28127496  1
  In  In34  1  0.00000000  0.56145803  0.93629262  1
  In  In35  1  -0.00000000  0.43854197  0.43629262  1
  In  In36  1  -0.00000000  0.46663570  0.58330608  1
  In  In37  1  -0.00000000  0.53336430  0.08330608  1
  In  In38  1  -0.00000000  0.29910108  0.89494001  1
  In  In39  1  0.00000000  0.70089892  0.39494001  1
  Pd  Pd0  1  0.50000000  0.93880523  0.51967897  1
  Pd  Pd1  1  0.50000000  0.06119477  0.01967897  1
  Pd  Pd2  1  0.50000000  0.77663815  0.22021257  1
  Pd  Pd3  1  0.50000000  0.22336185  0.72021257  1
  Pd  Pd4  1  0.50000000  0.69722790  0.73103572  1
  Pd  Pd5  1  0.50000000  0.30277210  0.23103572  1
  Pd  Pd6  1  0.50000000  0.39371199  0.93426973  1
  Pd  Pd7  1  0.50000000  0.60628801  0.43426973  1
  Pd  Pd8  1  -0.00000000  0.95339271  0.80593068  1
  Pd  Pd9  1  -0.00000000  0.04660729  0.30593068  1
  Pd  Pd10  1  -0.00000000  0.79702715  0.10416922  1
  Pd  Pd11  1  -0.00000000  0.20297285  0.60416922  1
  Pd  Pd12  1  -0.00000000  0.71642273  0.61577831  1
  Pd  Pd13  1  -0.00000000  0.28357727  0.11577831  1
  Pd  Pd14  1  -0.00000000  0.70821515  0.86536917  1
  Pd  Pd15  1  0.00000000  0.29178485  0.36536917  1
  Pd  Pd16  1  -0.00000000  0.68321537  0.01260523  1
  Pd  Pd17  1  -0.00000000  0.31678463  0.51260523  1
  Pd  Pd18  1  -0.00000000  0.42264362  0.81998706  1
  Pd  Pd19  1  -0.00000000  0.57735638  0.31998706  1
loop_
_geom_bond_atom_site_label_1
_geom_bond_atom_site_label_2
_geom_bond_distance
_geom_bond_site_symmetry_2
In0 Pd3 2.771623 1_565
In0 Pd4 2.780744 1_555
In0 Pd8 2.982175 1_655
In0 Pd8 2.982175 1_555
In0 In4 3.124503 1_555
In0 In28 3.350027 1_655
In0 In28 3.350027 1_555
In0 In31 3.384379 1_565
In0 In31 3.384379 1_665
In0 Pr3 3.598807 1_565
In0 Pr0 3.741820 1_555
In1 Pd2 2.771623 1_545
In1 Pd5 2.780744 1_555
In1 Pd9 2.982175 1_655
In1 Pd9 2.982175 1_555
In1 In5 3.124503 1_555
In1 In29 3.350027 1_555
In1 In29 3.350027 1_655
In1 In30 3.384379 1_645
In1 In30 3.384379 1_545
In1 Pr2 3.598807 1_545
In1 Pr1 3.741820 1_555
In2 Pd7 2.754291 1_555
In2 Pd0 2.757175 1_555
In2 In21 3.175922 1_665
In2 In21 3.175922 1_565
In2 In25 3.292902 1_565
In2 In25 3.292902 1_665
In2 In39 3.292922 1_655
In2 In39 3.292922 1_555
In2 Pr5 3.381107 1_565
In2 Pr2 3.467046 1_555
In2 Pr6 3.556742 1_655
In2 Pr6 3.556742 1_555
In3 Pd6 2.754291 1_555
In3 Pd1 2.757175 1_556
In3 In38 3.292922 1_655
In3 In38 3.292922 1_555
In3 Pr4 3.381107 1_545
In3 Pr3 3.467046 1_555
In3 Pr7 3.556742 1_655
In3 Pr7 3.556742 1_555
In4 Pd8 2.804987 1_655
In4 Pd8 2.804987 1_555
In4 Pd14 2.814671 1_555
In4 Pd14 2.814671 1_655
In4 Pr3 3.511107 1_565
In4 Pr4 3.556523 1_555
In5 Pd9 2.804987 1_655
In5 Pd9 2.804987 1_555
In5 Pd15 2.814671 1_655
In5 Pd15 2.814671 1_555
In5 Pr2 3.511107 1_545
In5 Pr5 3.556523 1_555
In6 Pd1 2.775671 1_565
In6 Pd10 2.912117 1_555
In6 Pd10 2.912117 1_655
In6 Pd16 2.938498 1_555
In6 Pd16 2.938498 1_655
In6 Pr1 3.760264 1_565
In6 Pr4 3.823658 1_554
In7 Pd0 2.775671 1_545
In7 Pd11 2.912117 1_555
In7 Pd11 2.912117 1_655
In7 Pd17 2.938498 1_655
In7 Pd17 2.938498 1_555
In7 Pr0 3.760264 1_545
In7 Pr5 3.823658 1_555
In8 Pd0 2.786464 1_555
In8 Pd12 2.823227 1_555
In8 Pd12 2.823227 1_655
In8 Pr6 3.256651 1_555
In8 Pr6 3.256651 1_655
In8 Pr0 3.431717 1_555
In9 Pd1 2.786464 1_555
In9 Pd13 2.823227 1_655
In9 Pd13 2.823227 1_555
In9 Pr7 3.256651 1_654
In9 Pr7 3.256651 1_554
In9 Pr1 3.431717 1_555
In10 Pd12 2.791049 1_555
In10 Pd12 2.791049 1_655
In10 Pd4 2.795510 1_555
In10 In8 2.967524 1_555
In10 In18 3.126370 1_555
In10 Pr8 3.244993 1_655
In10 Pr8 3.244993 1_555
In10 In28 3.362016 1_655
In10 In28 3.362016 1_555
In10 Pr0 3.453663 1_555
In11 Pd13 2.791049 1_555
In11 Pd13 2.791049 1_655
In11 Pd5 2.795510 1_555
In11 In9 2.967524 1_555
In11 In19 3.126370 1_555
In11 Pr9 3.244993 1_555
In11 Pr9 3.244993 1_655
In11 In29 3.362016 1_655
In11 In29 3.362016 1_555
In11 Pr1 3.453663 1_555
In12 Pd6 2.793535 1_555
In12 Pd18 2.899942 1_555
In12 Pd18 2.899942 1_655
In12 Pd14 2.947460 1_555
In12 Pd14 2.947460 1_655
In12 In4 3.135223 1_555
In12 In16 3.143029 1_555
In12 In34 3.438074 1_555
In12 In34 3.438074 1_655
In12 In38 3.450583 1_655
In12 In38 3.450583 1_555
In12 Pr3 3.645123 1_555
In12 Pr4 3.645138 1_555
In13 Pd7 2.793535 1_555
In13 Pd19 2.899942 1_555
In13 Pd19 2.899942 1_655
In13 Pd15 2.947460 1_555
In13 Pd15 2.947460 1_655
In13 In5 3.135223 1_555
In13 In17 3.143029 1_555
In13 In35 3.438074 1_555
In13 In35 3.438074 1_655
In13 In39 3.450583 1_555
In13 In39 3.450583 1_655
In13 Pr2 3.645123 1_555
In13 Pr5 3.645138 1_555
In14 Pd17 2.781343 1_555
In14 Pd17 2.781343 1_655
In14 Pd7 2.857082 1_555
In14 In7 3.126322 1_555
In14 In8 3.148739 1_555
In14 Pr6 3.305647 1_555
In14 Pr6 3.305647 1_655
In14 In35 3.376021 1_555
In14 In35 3.376021 1_655
In14 In36 3.410652 1_655
In14 In36 3.410652 1_555
In14 Pr5 3.480591 1_555
In15 Pd16 2.781343 1_555
In15 Pd16 2.781343 1_655
In15 Pd6 2.857082 1_554
In15 In6 3.126322 1_555
In15 In9 3.148739 1_555
In15 Pr7 3.305647 1_554
In15 Pr7 3.305647 1_654
In15 In34 3.376021 1_654
In15 In34 3.376021 1_554
In15 In37 3.410652 1_655
In15 In37 3.410652 1_555
In15 Pr4 3.480591 1_554
In16 Pd3 2.816942 1_555
In16 Pd18 2.851940 1_555
In16 Pd18 2.851940 1_655
In16 Pd4 2.856038 1_555
In16 In32 3.264925 1_655
In16 In32 3.264925 1_555
In16 Pr8 3.357006 1_555
In16 Pr8 3.357006 1_655
In16 In31 3.367000 1_655
In16 In31 3.367000 1_555
In16 Pr3 3.537937 1_555
In17 Pd2 2.816942 1_555
In17 Pd19 2.851940 1_555
In17 Pd19 2.851940 1_655
In17 Pd5 2.856038 1_555
In17 In33 3.264925 1_555
In17 In33 3.264925 1_655
In17 Pr9 3.357006 1_555
In17 Pr9 3.357006 1_655
In17 In30 3.367000 1_555
In17 In30 3.367000 1_655
In17 Pr2 3.537937 1_555
In18 Pd11 2.814238 1_555
In18 Pd11 2.814238 1_655
In18 Pd3 2.836384 1_555
In18 In7 3.174178 1_555
In18 In27 3.325367 1_555
In18 In27 3.325367 1_655
In18 In36 3.388727 1_655
In18 In36 3.388727 1_555
In18 Pr8 3.390295 1_655
In18 Pr8 3.390295 1_555
In18 Pr0 3.520568 1_545
In19 Pd10 2.814238 1_655
In19 Pd10 2.814238 1_555
In19 Pd2 2.836384 1_555
In19 In6 3.174178 1_555
In19 In26 3.325367 1_655
In19 In26 3.325367 1_555
In19 In37 3.388727 1_555
In19 In37 3.388727 1_655
In19 Pr9 3.390295 1_555
In19 Pr9 3.390295 1_655
In19 Pr1 3.520568 1_565
In20 Pd14 2.852490 1_555
In20 Pd8 2.852503 1_555
In20 In3 3.175922 1_565
In20 In3 3.175922 1_465
In20 In38 3.217237 1_565
In20 In24 3.228344 1_555
In20 In4 3.394809 1_455
In20 In4 3.394809 1_555
In20 Pr4 3.433334 1_555
In20 Pr4 3.433334 1_455
In20 Pr3 3.513069 1_565
In20 Pr3 3.513069 1_465
In21 Pd15 2.852490 1_555
In21 Pd9 2.852503 1_555
In21 In39 3.217237 1_545
In21 In25 3.228344 1_555
In21 In5 3.394809 1_555
In21 In5 3.394809 1_455
In21 Pr5 3.433334 1_455
In21 Pr5 3.433334 1_555
In21 Pr2 3.513069 1_445
In21 Pr2 3.513069 1_545
In22 Pd11 2.773331 1_565
In22 Pd12 2.819397 1_555
In22 Pd0 2.872169 1_455
In22 Pd0 2.872169 1_555
In22 In25 2.997779 1_565
In22 Pr0 3.272136 1_555
In22 Pr0 3.272136 1_455
In22 In8 3.336660 1_555
In22 In8 3.336660 1_455
In22 In7 3.412770 1_565
In22 In7 3.412770 1_465
In22 Pr6 3.446925 1_555
In23 Pd10 2.773331 1_545
In23 Pd13 2.819397 1_555
In23 Pd1 2.872169 1_455
In23 Pd1 2.872169 1_555
In23 In24 2.997779 1_544
In23 Pr1 3.272136 1_555
In23 Pr1 3.272136 1_455
In23 In9 3.336660 1_555
In23 In9 3.336660 1_455
In23 In6 3.412770 1_545
In23 In6 3.412770 1_445
In23 Pr7 3.446925 1_554
In24 Pd16 2.797909 1_556
In24 Pd1 2.820237 1_466
In24 Pd1 2.820237 1_566
In24 Pr4 3.265263 1_555
In24 Pr4 3.265263 1_455
In24 In3 3.292902 1_465
In24 In3 3.292902 1_565
In24 In6 3.495958 1_556
In24 In6 3.495958 1_456
In24 Pr7 3.555925 1_565
In25 Pd17 2.797909 1_555
In25 Pd0 2.820237 1_445
In25 Pd0 2.820237 1_545
In25 Pr5 3.265263 1_555
In25 Pr5 3.265263 1_455
In25 In7 3.495958 1_455
In25 In7 3.495958 1_555
In25 Pr6 3.555925 1_545
In26 Pd10 2.792681 1_555
In26 Pd2 2.811237 1_455
In26 Pd2 2.811237 1_555
In26 In30 2.988734 1_555
In26 In29 3.174308 1_565
In26 Pr1 3.218907 1_465
In26 Pr1 3.218907 1_565
In26 Pr9 3.391129 1_555
In27 Pd11 2.792681 1_555
In27 Pd3 2.811237 1_455
In27 Pd3 2.811237 1_555
In27 In31 2.988734 1_555
In27 In28 3.174308 1_545
In27 Pr0 3.218907 1_545
In27 Pr0 3.218907 1_445
In27 Pr8 3.391129 1_555
In28 Pd4 2.835494 1_555
In28 Pd4 2.835494 1_455
In28 Pd12 2.840823 1_555
In28 In32 3.184817 1_555
In28 Pr0 3.356944 1_555
In28 Pr0 3.356944 1_455
In28 Pr8 3.549599 1_555
In29 Pd5 2.835494 1_455
In29 Pd5 2.835494 1_555
In29 Pd13 2.840823 1_555
In29 In33 3.184817 1_555
In29 Pr1 3.356944 1_455
In29 Pr1 3.356944 1_555
In29 Pr9 3.549599 1_555
In30 Pd19 2.784404 1_555
In30 Pd9 2.797357 1_565
In30 Pd2 2.851283 1_455
In30 Pd2 2.851283 1_555
In30 Pr2 3.272999 1_555
In30 Pr2 3.272999 1_455
In30 Pr9 3.473349 1_555
In31 Pd18 2.784404 1_555
In31 Pd8 2.797357 1_545
In31 Pd3 2.851283 1_455
In31 Pd3 2.851283 1_555
In31 Pr3 3.272999 1_555
In31 Pr3 3.272999 1_455
In31 Pr8 3.473349 1_555
In32 Pd18 2.829547 1_555
In32 Pd14 2.847397 1_555
In32 Pd4 2.877037 1_555
In32 Pd4 2.877037 1_455
In32 Pd8 2.940232 1_555
In32 In4 3.272751 1_455
In32 In4 3.272751 1_555
In32 Pr8 3.525959 1_555
In33 Pd19 2.829547 1_555
In33 Pd15 2.847397 1_555
In33 Pd5 2.877037 1_455
In33 Pd5 2.877037 1_555
In33 Pd9 2.940232 1_555
In33 In5 3.272751 1_455
In33 In5 3.272751 1_555
In33 Pr9 3.525959 1_555
In34 Pd14 2.802090 1_555
In34 Pd16 2.840608 1_556
In34 Pd6 2.866216 1_555
In34 Pd6 2.866216 1_455
In34 In38 2.980300 1_555
In34 Pr4 3.219813 1_455
In34 Pr4 3.219813 1_555
In34 Pr7 3.398449 1_555
In35 Pd15 2.802090 1_555
In35 Pd17 2.840608 1_555
In35 Pd7 2.866216 1_455
In35 Pd7 2.866216 1_555
In35 In39 2.980300 1_555
In35 Pr5 3.219813 1_555
In35 Pr5 3.219813 1_455
In35 Pr6 3.398449 1_555
In36 Pd12 2.737177 1_555
In36 Pd11 2.740998 1_555
In36 Pd17 2.812263 1_555
In36 In8 3.430235 1_455
In36 In8 3.430235 1_555
In36 Pr6 3.671301 1_555
In37 Pd13 2.737177 1_555
In37 Pd10 2.740998 1_555
In37 Pd16 2.812263 1_555
In37 In9 3.430235 1_455
In37 In9 3.430235 1_555
In37 Pr7 3.671301 1_554
In38 Pd18 2.807348 1_555
In38 Pd6 2.831606 1_455
In38 Pd6 2.831606 1_555
In38 Pr3 3.267331 1_455
In38 Pr3 3.267331 1_555
In38 Pr7 3.519810 1_555
In39 Pd19 2.807348 1_555
In39 Pd7 2.831606 1_455
In39 Pd7 2.831606 1_555
In39 Pr2 3.267331 1_455
In39 Pr2 3.267331 1_555
In39 Pr6 3.519810 1_555
Pd0 Pr6 3.388688 1_655
Pd0 Pr6 3.388688 1_555
Pd1 Pr7 3.388688 1_654
Pd1 Pr7 3.388688 1_554
Pd2 Pr9 3.369354 1_555
Pd2 Pr9 3.369354 1_655
Pd3 Pr8 3.369354 1_655
Pd3 Pr8 3.369354 1_555
Pd4 Pr8 3.525050 1_655
Pd4 Pr8 3.525050 1_555
Pd5 Pr9 3.525050 1_655
Pd5 Pr9 3.525050 1_555
Pd6 Pr7 3.335732 1_655
Pd6 Pr7 3.335732 1_555
Pd7 Pr6 3.335732 1_555
Pd7 Pr6 3.335732 1_655
Pd8 Pr3 3.375548 1_465
Pd8 Pr3 3.375548 1_565
Pd9 Pr2 3.375548 1_445
Pd9 Pr2 3.375548 1_545
Pd10 Pr1 3.573704 1_565
Pd10 Pr1 3.573704 1_465
Pd11 Pr0 3.573704 1_445
Pd11 Pr0 3.573704 1_545
Pd12 Pr0 3.445973 1_555
Pd12 Pr0 3.445973 1_455
Pd13 Pr1 3.445973 1_455
Pd13 Pr1 3.445973 1_555
Pd14 Pd8 3.171517 1_555
Pd14 Pd18 3.249829 1_555
Pd14 Pr4 3.452128 1_455
Pd14 Pr4 3.452128 1_555
Pd15 Pd9 3.171517 1_555
Pd15 Pd19 3.249829 1_555
Pd15 Pr5 3.452128 1_455
Pd15 Pr5 3.452128 1_555
Pd16 Pr4 3.557107 1_554
Pd16 Pr4 3.557107 1_454
Pd17 Pr5 3.557107 1_455
Pd17 Pr5 3.557107 1_555
Pd18 Pr3 3.461540 1_555
Pd18 Pr3 3.461540 1_455
Pd19 Pr2 3.461540 1_455
Pd19 Pr2 3.461540 1_555
