# generated using pymatgen
data_Th3(SbAs)2
_symmetry_space_group_name_H-M   'P 1'
_cell_length_a   7.94968539
_cell_length_b   7.94968539
_cell_length_c   7.94968539
_cell_angle_alpha   109.47122063
_cell_angle_beta   109.47122063
_cell_angle_gamma   109.47122063
_symmetry_Int_Tables_number   1
_chemical_formula_structural   Th3(SbAs)2
_chemical_formula_sum   'Th6 Sb4 As4'
_cell_volume   386.74787351
_cell_formula_units_Z   2
loop_
 _symmetry_equiv_pos_site_id
 _symmetry_equiv_pos_as_xyz
  1  'x, y, z'
loop_
 _atom_site_type_symbol
 _atom_site_label
 _atom_site_symmetry_multiplicity
 _atom_site_fract_x
 _atom_site_fract_y
 _atom_site_fract_z
 _atom_site_occupancy
  Th  Th0  1  0.75000000  0.39009300  0.64009300  1
  Th  Th1  1  0.25000000  0.10990700  0.85990700  1
  Th  Th2  1  0.10990700  0.85990700  0.25000000  1
  Th  Th3  1  0.39009300  0.64009300  0.75000000  1
  Th  Th4  1  0.64009300  0.75000000  0.39009300  1
  Th  Th5  1  0.85990700  0.25000000  0.10990700  1
  Sb  Sb0  1  0.17003400  0.50000000  0.00000000  1
  Sb  Sb1  1  0.32996600  0.32996600  0.32996600  1
  Sb  Sb2  1  0.00000000  0.17003400  0.50000000  1
  Sb  Sb3  1  0.50000000  0.00000000  0.17003400  1
  As  As0  1  0.84887100  0.84887100  0.84887100  1
  As  As1  1  0.65112900  0.50000000  0.00000000  1
  As  As2  1  0.00000000  0.65112900  0.50000000  1
  As  As3  1  0.50000000  0.00000000  0.65112900  1
loop_
_geom_bond_atom_site_label_1
_geom_bond_atom_site_label_2
_geom_bond_distance
_geom_bond_site_symmetry_2
Sb0 Th2 3.180984 1_555
Sb0 Th0 3.180984 1_454
Sb0 Th5 3.180984 1_455
Sb0 Th4 3.277979 1_555
Sb0 Th3 3.277979 1_554
Sb0 Th1 3.277979 1_554
Sb1 Th3 3.180984 1_555
Sb1 Th4 3.180984 1_555
Sb1 Th0 3.180984 1_555
Sb1 Th2 3.277979 1_545
Sb1 Th5 3.277979 1_455
Sb1 Th1 3.277979 1_554
Sb2 Th1 3.180984 1_555
Sb2 Th4 3.180984 1_445
Sb2 Th2 3.180984 1_545
Sb2 Th3 3.277979 1_555
Sb2 Th5 3.277979 1_455
Sb2 Th0 3.277979 1_455
Sb3 Th3 3.180984 1_544
Sb3 Th5 3.180984 1_555
Sb3 Th1 3.180984 1_554
Sb3 Th4 3.277979 1_545
Sb3 Th2 3.277979 1_545
Sb3 Th0 3.277979 1_555
As0 Th2 3.124623 1_656
As0 Th5 3.124623 1_566
As0 Th1 3.124623 1_665
As0 Th4 3.139718 1_555
As0 Th3 3.139718 1_555
As0 Th0 3.139718 1_555
As1 Th3 3.124623 1_554
As1 Th1 3.124623 1_554
As1 Th4 3.124623 1_555
As1 Th5 3.139718 1_555
As1 Th2 3.139718 1_655
As1 Th0 3.139718 1_554
As2 Th3 3.124623 1_555
As2 Th5 3.124623 1_455
As2 Th0 3.124623 1_455
As2 Th4 3.139718 1_455
As2 Th1 3.139718 1_565
As2 Th2 3.139718 1_555
As3 Th0 3.124623 1_555
As3 Th4 3.124623 1_545
As3 Th2 3.124623 1_545
As3 Th3 3.139718 1_545
As3 Th1 3.139718 1_555
As3 Th5 3.139718 1_556
