# generated using pymatgen
data_Sc(AlFe)6
_symmetry_space_group_name_H-M   'P 1'
_cell_length_a   6.48506098
_cell_length_b   6.49910509
_cell_length_c   6.49931315
_cell_angle_alpha   135.44491498
_cell_angle_beta   98.58295434
_cell_angle_gamma   97.94724552
_symmetry_Int_Tables_number   1
_chemical_formula_structural   Sc(AlFe)6
_chemical_formula_sum   'Sc1 Al6 Fe6'
_cell_volume   177.82894031
_cell_formula_units_Z   1
loop_
 _symmetry_equiv_pos_site_id
 _symmetry_equiv_pos_as_xyz
  1  'x, y, z'
loop_
 _atom_site_type_symbol
 _atom_site_label
 _atom_site_symmetry_multiplicity
 _atom_site_fract_x
 _atom_site_fract_y
 _atom_site_fract_z
 _atom_site_occupancy
  Sc  Sc0  1  0.00000000  -0.00000000  0.00000000  1
  Al  Al0  1  0.34381673  0.34373266  -0.00013560  1
  Al  Al1  1  0.65618327  0.65626734  0.00013560  1
  Al  Al2  1  0.66619792  0.99994885  0.66639527  1
  Al  Al3  1  0.33380208  0.00005115  0.33360473  1
  Al  Al4  1  0.81476071  0.31467872  0.49996780  1
  Al  Al5  1  0.18523929  0.68532128  0.50003220  1
  Fe  Fe0  1  0.50000000  -0.00000000  0.00000000  1
  Fe  Fe1  1  0.50000000  0.50000000  0.50000000  1
  Fe  Fe2  1  0.00000000  -0.00000000  0.50000000  1
  Fe  Fe3  1  0.00000000  0.50000000  0.00000000  1
  Fe  Fe4  1  0.24063651  0.50004628  0.74065480  1
  Fe  Fe5  1  0.75936349  0.49995372  0.25934520  1
loop_
_geom_bond_atom_site_label_1
_geom_bond_atom_site_label_2
_geom_bond_distance
_geom_bond_site_symmetry_2
Al0 Fe5 2.565895 1_555
Al0 Fe4 2.570710 1_554
Al0 Fe3 2.574560 1_555
Al0 Fe2 2.575626 1_554
Al0 Fe0 2.577723 1_555
Al0 Fe1 2.579030 1_555
Al0 Al1 2.661828 1_555
Al0 Al5 2.810057 1_544
Al0 Al5 2.810272 1_555
Al0 Sc0 2.930534 1_555
Al1 Fe4 2.565895 1_554
Al1 Fe5 2.570710 1_555
Al1 Fe3 2.574560 1_655
Al1 Fe2 2.575626 1_665
Al1 Fe0 2.577723 1_565
Al1 Fe1 2.579030 1_554
Al1 Al4 2.810057 1_565
Al1 Al4 2.810272 1_554
Al1 Sc0 2.930534 1_665
Al2 Fe2 2.560208 1_665
Al2 Fe0 2.561123 1_566
Al2 Fe3 2.561323 1_666
Al2 Fe1 2.562131 1_555
Al2 Fe5 2.586712 1_566
Al2 Fe5 2.586821 1_555
Al2 Al3 2.817025 1_565
Al2 Sc0 2.825769 1_666
Al3 Fe2 2.560208 1_555
Al3 Fe0 2.561123 1_555
Al3 Fe3 2.561323 1_545
Al3 Fe1 2.562131 1_555
Al3 Fe4 2.586712 1_544
Al3 Fe4 2.586821 1_555
Al3 Sc0 2.825769 1_555
Al4 Fe1 2.509364 1_555
Al4 Fe0 2.510587 1_555
Al4 Fe2 2.511084 1_655
Al4 Fe3 2.512297 1_656
Al4 Fe4 2.575021 1_655
Al4 Fe5 2.580762 1_555
Al4 Sc0 2.925429 1_655
Al4 Sc0 2.927280 1_666
Al5 Fe1 2.509364 1_555
Al5 Fe0 2.510587 1_566
Al5 Fe2 2.511084 1_565
Al5 Fe3 2.512297 1_555
Al5 Fe5 2.575021 1_455
Al5 Fe4 2.580762 1_555
Al5 Sc0 2.925429 1_566
Al5 Sc0 2.927280 1_555
Fe0 Fe5 2.462734 1_555
Fe0 Fe4 2.462734 1_544
Fe0 Fe1 2.463808 1_544
Fe0 Fe1 2.463808 1_555
Fe1 Fe4 2.461742 1_555
Fe1 Fe5 2.461742 1_555
Fe2 Fe4 2.463359 1_555
Fe2 Fe5 2.463359 1_445
Fe2 Fe3 2.463808 1_545
Fe2 Fe3 2.463808 1_556
Fe3 Fe5 2.462142 1_455
Fe3 Fe4 2.462142 1_554
