# generated using pymatgen
data_Li2Mn3WO8
_symmetry_space_group_name_H-M   'P 1'
_cell_length_a   6.09707105
_cell_length_b   6.21734542
_cell_length_c   8.70644757
_cell_angle_alpha   88.31813266
_cell_angle_beta   90.00471890
_cell_angle_gamma   89.99461340
_symmetry_Int_Tables_number   1
_chemical_formula_structural   Li2Mn3WO8
_chemical_formula_sum   'Li4 Mn6 W2 O16'
_cell_volume   329.89831888
_cell_formula_units_Z   2
loop_
 _symmetry_equiv_pos_site_id
 _symmetry_equiv_pos_as_xyz
  1  'x, y, z'
loop_
 _atom_site_type_symbol
 _atom_site_label
 _atom_site_symmetry_multiplicity
 _atom_site_fract_x
 _atom_site_fract_y
 _atom_site_fract_z
 _atom_site_occupancy
  Li  Li0  1  0.99999500  0.26976700  0.13496200  1
  Li  Li1  1  0.49999700  0.76974400  0.63498300  1
  Li  Li2  1  0.99999800  0.73023400  0.86504000  1
  Li  Li3  1  0.49999800  0.23025300  0.36501700  1
  Mn  Mn0  1  0.00004400  0.50001200  0.49999200  1
  Mn  Mn1  1  0.50001600  0.00001500  0.99996400  1
  Mn  Mn2  1  0.25013100  0.75035200  0.25009500  1
  Mn  Mn3  1  0.74985700  0.24964300  0.74991300  1
  Mn  Mn4  1  0.74987500  0.75033800  0.25011100  1
  Mn  Mn5  1  0.25014300  0.24963500  0.74992700  1
  W  W0  1  0.49999800  0.50000800  0.99999700  1
  W  W1  1  0.00000500  0.00000300  0.49999600  1
  O  O0  1  0.00001100  0.54614300  0.27352200  1
  O  O1  1  0.50002000  0.04603000  0.77347600  1
  O  O2  1  0.99997200  0.45384600  0.72647900  1
  O  O3  1  0.49998700  0.95397700  0.22652300  1
  O  O4  1  0.22437000  0.77286300  0.49877600  1
  O  O5  1  0.72438300  0.27284700  0.99874200  1
  O  O6  1  0.77564200  0.77283800  0.49872600  1
  O  O7  1  0.27563500  0.27282200  0.99869800  1
  O  O8  1  0.00001500  0.99779100  0.27426000  1
  O  O9  1  0.50001900  0.49774100  0.77424800  1
  O  O10  1  0.99997400  0.00220200  0.72573900  1
  O  O11  1  0.49998000  0.50225500  0.22574900  1
  O  O12  1  0.22434800  0.22716400  0.50127500  1
  O  O13  1  0.72435800  0.72718200  0.00130500  1
  O  O14  1  0.77561900  0.22713600  0.50123100  1
  O  O15  1  0.27561400  0.72715500  0.00125400  1
loop_
_geom_bond_atom_site_label_1
_geom_bond_atom_site_label_2
_geom_bond_distance
_geom_bond_site_symmetry_2
Li0 O8 2.051793 1_645
Li0 O5 2.056480 1_554
Li0 O7 2.057004 1_654
Li0 O0 2.128295 1_655
Li1 O9 2.051766 1_555
Li1 O4 2.056487 1_555
Li1 O6 2.056992 1_555
Li1 O1 2.127489 1_565
Li2 O10 2.051768 1_565
Li2 O15 2.056469 1_656
Li2 O13 2.057009 1_556
Li2 O2 2.128361 1_555
Li3 O11 2.051776 1_555
Li3 O14 2.056493 1_555
Li3 O12 2.057022 1_555
Li3 O3 2.127443 1_545
Mn0 O0 1.984152 1_555
Mn0 O2 1.984324 1_455
Mn0 O12 2.178678 1_555
Mn0 O6 2.178949 1_455
Mn0 O4 2.178988 1_555
Mn0 O14 2.179485 1_455
Mn1 O1 1.984224 1_555
Mn1 O3 1.984852 1_546
Mn1 O13 2.178742 1_546
Mn1 O7 2.178777 1_555
Mn1 O5 2.179052 1_555
Mn1 O15 2.179311 1_546
Mn2 O3 1.987655 1_555
Mn2 O0 1.991085 1_555
Mn2 O4 2.179421 1_555
Mn2 O8 2.180629 1_555
Mn2 O15 2.181089 1_555
Mn2 O11 2.182577 1_555
Mn3 O1 1.987512 1_555
Mn3 O2 1.991043 1_555
Mn3 O14 2.179428 1_555
Mn3 O10 2.180651 1_555
Mn3 O5 2.180985 1_555
Mn3 O9 2.182523 1_555
Mn4 O3 1.987663 1_555
Mn4 O0 1.990884 1_655
Mn4 O6 2.178822 1_555
Mn4 O13 2.180752 1_555
Mn4 O8 2.180954 1_655
Mn4 O11 2.182905 1_555
Mn5 O1 1.987449 1_555
Mn5 O2 1.991138 1_455
Mn5 O12 2.179138 1_555
Mn5 O7 2.180457 1_555
Mn5 O10 2.181030 1_455
Mn5 O9 2.182884 1_555
O4 W1 1.966292 1_565
O5 W0 1.966479 1_555
O6 W1 1.966590 1_665
O7 W0 1.966691 1_555
O8 W1 1.965810 1_565
O9 W0 1.965936 1_555
O10 W1 1.965868 1_655
O11 W0 1.965958 1_554
O12 W1 1.966489 1_555
O13 W0 1.966626 1_554
O14 W1 1.966353 1_655
O15 W0 1.966412 1_554
