# generated using pymatgen
data_Li2PtF6
_symmetry_space_group_name_H-M   'P 1'
_cell_length_a   4.60683555
_cell_length_b   4.61196479
_cell_length_c   10.18009060
_cell_angle_alpha   63.10192439
_cell_angle_beta   90.00000000
_cell_angle_gamma   90.00000000
_symmetry_Int_Tables_number   1
_chemical_formula_structural   Li2PtF6
_chemical_formula_sum   'Li4 Pt2 F12'
_cell_volume   192.89190422
_cell_formula_units_Z   2
loop_
 _symmetry_equiv_pos_site_id
 _symmetry_equiv_pos_as_xyz
  1  'x, y, z'
loop_
 _atom_site_type_symbol
 _atom_site_label
 _atom_site_symmetry_multiplicity
 _atom_site_fract_x
 _atom_site_fract_y
 _atom_site_fract_z
 _atom_site_occupancy
  Li  Li0  1  0.49849434  0.66390293  0.83680394  1
  Li  Li1  1  0.99849434  0.33609707  0.66319606  1
  Li  Li2  1  0.50150566  0.33609707  0.16319606  1
  Li  Li3  1  0.00150566  0.66390293  0.33680394  1
  Pt  Pt0  1  0.50000000  0.00000000  0.50000000  1
  Pt  Pt1  1  0.00000000  0.00000000  -0.00000000  1
  F  F0  1  0.80022572  0.29885548  0.49984604  1
  F  F1  1  0.30022572  0.70114452  0.00015396  1
  F  F2  1  0.19977428  0.70114452  0.50015396  1
  F  F3  1  0.69977428  0.29885548  0.99984604  1
  F  F4  1  0.69309596  0.64065825  0.66390056  1
  F  F5  1  0.19309596  0.35934175  0.83609944  1
  F  F6  1  0.30690404  0.35934175  0.33609944  1
  F  F7  1  0.80690404  0.64065825  0.16390056  1
  F  F8  1  0.30478681  0.03215454  0.66338290  1
  F  F9  1  0.80478681  0.96784546  0.83661710  1
  F  F10  1  0.69521319  0.96784546  0.33661710  1
  F  F11  1  0.19521319  0.03215454  0.16338290  1
loop_
_geom_bond_atom_site_label_1
_geom_bond_atom_site_label_2
_geom_bond_distance
_geom_bond_site_symmetry_2
F0 Pt0 1.952109 1_555
F0 Li1 1.971677 1_555
F0 Li3 1.980094 1_655
F1 Pt1 1.952109 1_565
F1 Li0 1.971677 1_554
F1 Li2 1.980094 1_555
F2 Pt0 1.952109 1_565
F2 Li3 1.971677 1_555
F2 Li1 1.980094 1_455
F3 Pt1 1.952109 1_656
F3 Li2 1.971677 1_556
F3 Li0 1.980094 1_555
F4 Pt0 1.954446 1_565
F4 Li1 1.990368 1_555
F4 Li0 2.020926 1_555
F5 Pt1 1.954446 1_556
F5 Li0 1.990368 1_555
F5 Li1 2.020926 1_455
F6 Pt0 1.954446 1_555
F6 Li3 1.990368 1_555
F6 Li2 2.020926 1_555
F7 Pt1 1.954446 1_665
F7 Li2 1.990368 1_555
F7 Li3 2.020926 1_655
F8 Pt0 1.954570 1_555
F8 Li1 1.988363 1_455
F8 Li0 2.021044 1_545
F9 Pt1 1.954570 1_666
F9 Li0 1.988363 1_555
F9 Li1 2.021044 1_565
F10 Pt0 1.954570 1_565
F10 Li3 1.988363 1_655
F10 Li2 2.021044 1_565
F11 Pt1 1.954570 1_555
F11 Li2 1.988363 1_555
F11 Li3 2.021044 1_545
