# generated using pymatgen
data_Mg6CuSi
_symmetry_space_group_name_H-M   'P 1'
_cell_length_a   6.05598030
_cell_length_b   6.05598030
_cell_length_c   4.95535800
_cell_angle_alpha   90.00000000
_cell_angle_beta   90.00000000
_cell_angle_gamma   120.33813950
_symmetry_Int_Tables_number   1
_chemical_formula_structural   Mg6CuSi
_chemical_formula_sum   'Mg6 Cu1 Si1'
_cell_volume   156.85005944
_cell_formula_units_Z   1
loop_
 _symmetry_equiv_pos_site_id
 _symmetry_equiv_pos_as_xyz
  1  'x, y, z'
loop_
 _atom_site_type_symbol
 _atom_site_label
 _atom_site_symmetry_multiplicity
 _atom_site_fract_x
 _atom_site_fract_y
 _atom_site_fract_z
 _atom_site_occupancy
  Mg  Mg0  1  0.16733300  0.34149500  0.00000000  1
  Mg  Mg1  1  0.65850500  0.83266700  0.00000000  1
  Mg  Mg2  1  0.66659700  0.33340300  0.00000000  1
  Mg  Mg3  1  0.32981600  0.15113500  0.50000000  1
  Mg  Mg4  1  0.84886500  0.67018400  0.50000000  1
  Mg  Mg5  1  0.83262700  0.16737300  0.50000000  1
  Cu  Cu0  1  0.16365700  0.83634300  0.00000000  1
  Si  Si0  1  0.33259900  0.66740100  0.50000000  1
loop_
_geom_bond_atom_site_label_1
_geom_bond_atom_site_label_2
_geom_bond_distance
_geom_bond_site_symmetry_2
Mg0 Mg1 2.959312 1_555
Mg0 Si0 3.006741 1_555
Mg0 Si0 3.006741 1_554
Mg0 Mg2 3.007992 1_455
Mg0 Mg5 3.033188 1_455
Mg0 Mg5 3.033188 1_454
Mg0 Mg2 3.048579 1_555
Mg0 Mg1 3.065690 1_445
Mg0 Mg3 3.095491 1_555
Mg0 Mg3 3.095491 1_554
Mg1 Si0 3.006741 1_555
Mg1 Si0 3.006741 1_554
Mg1 Mg2 3.007992 1_565
Mg1 Mg5 3.033188 1_564
Mg1 Mg5 3.033188 1_565
Mg1 Mg2 3.048579 1_555
Mg1 Mg4 3.095491 1_554
Mg1 Mg4 3.095491 1_555
Mg2 Mg5 3.030206 1_554
Mg2 Mg5 3.030206 1_555
Mg2 Mg4 3.040193 1_555
Mg2 Mg3 3.040193 1_555
Mg2 Mg3 3.040193 1_554
Mg2 Mg4 3.040193 1_554
Mg3 Mg4 2.897731 1_445
Mg3 Si0 2.938032 1_545
Mg3 Mg5 2.996545 1_555
Mg3 Mg5 3.061814 1_455
Mg3 Si0 3.118018 1_555
Mg3 Mg4 3.127271 1_555
Mg4 Si0 2.938032 1_655
Mg4 Mg5 2.996545 1_555
Mg4 Mg5 3.061814 1_565
Mg4 Si0 3.118018 1_555
Mg5 Si0 3.012501 1_545
Mg5 Si0 3.012501 1_655
Cu0 Mg4 2.974530 1_455
Cu0 Mg3 2.974530 1_564
Cu0 Mg4 2.974530 1_454
Cu0 Mg3 2.974530 1_565
Cu0 Mg0 3.008096 1_555
Cu0 Mg1 3.008096 1_555
Cu0 Mg2 3.012659 1_455
Cu0 Mg2 3.012659 1_565
Cu0 Mg1 3.048007 1_455
Cu0 Mg0 3.048007 1_565
