# generated using pymatgen
data_CsCe
_symmetry_space_group_name_H-M   'P 1'
_cell_length_a   7.52125303
_cell_length_b   7.44635473
_cell_length_c   15.08691714
_cell_angle_alpha   90.48175200
_cell_angle_beta   89.57576957
_cell_angle_gamma   120.97413379
_symmetry_Int_Tables_number   1
_chemical_formula_structural   CsCe
_chemical_formula_sum   'Cs8 Ce8'
_cell_volume   724.43532304
_cell_formula_units_Z   8
loop_
 _symmetry_equiv_pos_site_id
 _symmetry_equiv_pos_as_xyz
  1  'x, y, z'
loop_
 _atom_site_type_symbol
 _atom_site_label
 _atom_site_symmetry_multiplicity
 _atom_site_fract_x
 _atom_site_fract_y
 _atom_site_fract_z
 _atom_site_occupancy
  Cs  Cs0_0  1  0.16669250  0.33325150  0.12498350  1
  Cs  Cs0_1  1  0.16669250  0.33325150  0.62498350  1
  Cs  Cs0_2  1  0.16669250  0.83325150  0.12498350  1
  Cs  Cs0_3  1  0.16669250  0.83325150  0.62498350  1
  Cs  Cs0_4  1  0.66669250  0.33325150  0.12498350  1
  Cs  Cs0_5  1  0.66669250  0.33325150  0.62498350  1
  Cs  Cs0_6  1  0.66669250  0.83325150  0.12498350  1
  Cs  Cs0_7  1  0.66669250  0.83325150  0.62498350  1
  Ce  Ce0_0  1  0.33330900  0.16674950  0.37501650  1
  Ce  Ce0_1  1  0.33330900  0.16674950  0.87501650  1
  Ce  Ce0_2  1  0.33330900  0.66674950  0.37501650  1
  Ce  Ce0_3  1  0.33330900  0.66674950  0.87501650  1
  Ce  Ce0_4  1  0.83330900  0.16674950  0.37501650  1
  Ce  Ce0_5  1  0.83330900  0.16674950  0.87501650  1
  Ce  Ce0_6  1  0.83330900  0.66674950  0.37501650  1
  Ce  Ce0_7  1  0.83330900  0.66674950  0.87501650  1
loop_
_geom_bond_atom_site_label_1
_geom_bond_atom_site_label_2
_geom_bond_distance
_geom_bond_site_symmetry_2
Cs0_0 Cs0_6 3.686816 1_445
Cs0_0 Cs0_6 3.686816 1_555
Cs0_0 Cs0_2 3.723177 1_555
Cs0_0 Cs0_2 3.723177 1_545
Cs0_0 Cs0_4 3.760627 1_455
Cs0_0 Cs0_4 3.760627 1_555
Cs0_1 Cs0_7 3.686816 1_445
Cs0_1 Cs0_7 3.686816 1_555
Cs0_1 Cs0_3 3.723177 1_555
Cs0_1 Cs0_3 3.723177 1_545
Cs0_1 Cs0_5 3.760627 1_555
Cs0_1 Cs0_5 3.760627 1_455
Cs0_2 Cs0_4 3.686816 1_565
Cs0_2 Cs0_4 3.686816 1_455
Cs0_2 Cs0_6 3.760627 1_555
Cs0_2 Cs0_6 3.760627 1_455
Cs0_3 Cs0_5 3.686816 1_565
Cs0_3 Cs0_5 3.686816 1_455
Cs0_3 Cs0_7 3.760627 1_455
Cs0_3 Cs0_7 3.760627 1_555
Cs0_4 Cs0_6 3.723177 1_545
Cs0_4 Cs0_6 3.723177 1_555
Cs0_5 Cs0_7 3.723177 1_555
Cs0_5 Cs0_7 3.723177 1_545
Ce0_0 Ce0_6 3.686816 1_445
Ce0_0 Ce0_6 3.686816 1_555
Ce0_0 Ce0_2 3.723177 1_555
Ce0_0 Ce0_2 3.723177 1_545
Ce0_0 Ce0_4 3.760627 1_455
Ce0_0 Ce0_4 3.760627 1_555
Ce0_0 Cs0_2 4.321616 1_545
Ce0_0 Cs0_1 4.333639 1_555
Ce0_0 Cs0_4 4.335078 1_555
Ce0_0 Cs0_3 4.340954 1_545
Ce0_0 Cs0_5 4.348357 1_555
Ce0_0 Cs0_0 4.368661 1_555
Ce0_1 Ce0_7 3.686816 1_445
Ce0_1 Ce0_7 3.686816 1_555
Ce0_1 Ce0_3 3.723177 1_555
Ce0_1 Ce0_3 3.723177 1_545
Ce0_1 Ce0_5 3.760627 1_455
Ce0_1 Ce0_5 3.760627 1_555
Ce0_1 Cs0_3 4.321616 1_545
Ce0_1 Cs0_0 4.333639 1_556
Ce0_1 Cs0_5 4.335078 1_555
Ce0_1 Cs0_2 4.340954 1_546
Ce0_1 Cs0_4 4.348357 1_556
Ce0_1 Cs0_1 4.368661 1_555
Ce0_2 Ce0_4 3.686816 1_455
Ce0_2 Ce0_4 3.686816 1_565
Ce0_2 Ce0_6 3.760627 1_455
Ce0_2 Ce0_6 3.760627 1_555
Ce0_2 Cs0_0 4.321616 1_555
Ce0_2 Cs0_3 4.333639 1_555
Ce0_2 Cs0_6 4.335078 1_555
Ce0_2 Cs0_1 4.340954 1_555
Ce0_2 Cs0_7 4.348357 1_555
Ce0_2 Cs0_2 4.368661 1_555
Ce0_3 Ce0_5 3.686816 1_565
Ce0_3 Ce0_5 3.686816 1_455
Ce0_3 Ce0_7 3.760627 1_555
Ce0_3 Ce0_7 3.760627 1_455
Ce0_3 Cs0_1 4.321616 1_555
Ce0_3 Cs0_2 4.333639 1_556
Ce0_3 Cs0_7 4.335078 1_555
Ce0_3 Cs0_0 4.340954 1_556
Ce0_3 Cs0_6 4.348357 1_556
Ce0_3 Cs0_3 4.368661 1_555
Ce0_4 Ce0_6 3.723177 1_555
Ce0_4 Ce0_6 3.723177 1_545
Ce0_4 Cs0_6 4.321616 1_545
Ce0_4 Cs0_5 4.333639 1_555
Ce0_4 Cs0_0 4.335078 1_655
Ce0_4 Cs0_7 4.340954 1_545
Ce0_4 Cs0_1 4.348357 1_655
Ce0_4 Cs0_4 4.368661 1_555
Ce0_5 Ce0_7 3.723177 1_555
Ce0_5 Ce0_7 3.723177 1_545
Ce0_5 Cs0_7 4.321616 1_545
Ce0_5 Cs0_4 4.333639 1_556
Ce0_5 Cs0_1 4.335078 1_655
Ce0_5 Cs0_6 4.340954 1_546
Ce0_5 Cs0_0 4.348357 1_656
Ce0_5 Cs0_5 4.368661 1_555
Ce0_6 Cs0_4 4.321616 1_555
Ce0_6 Cs0_7 4.333639 1_555
Ce0_6 Cs0_2 4.335078 1_655
Ce0_6 Cs0_5 4.340954 1_555
Ce0_6 Cs0_3 4.348357 1_655
Ce0_6 Cs0_6 4.368661 1_555
Ce0_7 Cs0_5 4.321616 1_555
Ce0_7 Cs0_6 4.333639 1_556
Ce0_7 Cs0_3 4.335078 1_655
Ce0_7 Cs0_4 4.340954 1_556
Ce0_7 Cs0_2 4.348357 1_656
Ce0_7 Cs0_7 4.368661 1_555
