# generated using pymatgen
data_HfTiOs2
_symmetry_space_group_name_H-M   'P 1'
_cell_length_a   10.66537609
_cell_length_b   10.66537609
_cell_length_c   10.66537609
_cell_angle_alpha   127.89387333
_cell_angle_beta   117.63364649
_cell_angle_gamma   85.52539715
_symmetry_Int_Tables_number   1
_chemical_formula_structural   HfTiOs2
_chemical_formula_sum   'Hf1 Ti1 Os2'
_cell_volume   810.20289270
_cell_formula_units_Z   1
loop_
 _symmetry_equiv_pos_site_id
 _symmetry_equiv_pos_as_xyz
  1  'x, y, z'
loop_
 _atom_site_type_symbol
 _atom_site_label
 _atom_site_symmetry_multiplicity
 _atom_site_fract_x
 _atom_site_fract_y
 _atom_site_fract_z
 _atom_site_occupancy
  Hf  Hf0  1  0.00000000  0.50000000  0.50000000  1
  Ti  Ti0  1  0.00000000  0.00000000  0.00000000  1
  Os  Os0  1  0.00000000  0.24041200  0.24041200  1
  Os  Os1  1  0.00000000  0.75958800  0.75958800  1
loop_
_geom_bond_atom_site_label_1
_geom_bond_atom_site_label_2
_geom_bond_distance
_geom_bond_site_symmetry_2
Hf0 Os1 2.431960 1_555
Hf0 Os0 2.431960 1_555
Os0 Ti0 2.252309 1_555
Os1 Ti0 2.252309 1_566
