# generated using pymatgen
data_Er(Al5Fe)2
_symmetry_space_group_name_H-M   'P 1'
_cell_length_a   6.69268843
_cell_length_b   6.69268843
_cell_length_c   8.85937910
_cell_angle_alpha   90.00000000
_cell_angle_beta   90.00000000
_cell_angle_gamma   97.39386680
_symmetry_Int_Tables_number   1
_chemical_formula_structural   Er(Al5Fe)2
_chemical_formula_sum   'Er2 Al20 Fe4'
_cell_volume   393.53033966
_cell_formula_units_Z   2
loop_
 _symmetry_equiv_pos_site_id
 _symmetry_equiv_pos_as_xyz
  1  'x, y, z'
loop_
 _atom_site_type_symbol
 _atom_site_label
 _atom_site_symmetry_multiplicity
 _atom_site_fract_x
 _atom_site_fract_y
 _atom_site_fract_z
 _atom_site_occupancy
  Er  Er0  1  0.87405931  0.12594069  0.75000000  1
  Er  Er1  1  0.12594069  0.87405931  0.25000000  1
  Al  Al0  1  0.62546398  0.37453602  0.54964623  1
  Al  Al1  1  0.37453602  0.62546398  0.45035377  1
  Al  Al2  1  0.37453602  0.62546398  0.04964623  1
  Al  Al3  1  0.62546398  0.37453602  0.95035377  1
  Al  Al4  1  0.22747829  0.22747829  0.50000000  1
  Al  Al5  1  0.77252171  0.77252171  0.50000000  1
  Al  Al6  1  0.77252171  0.77252171  0.00000000  1
  Al  Al7  1  0.22747829  0.22747829  0.00000000  1
  Al  Al8  1  0.84161637  0.15838363  0.09675810  1
  Al  Al9  1  0.15838363  0.84161637  0.90324190  1
  Al  Al10  1  0.15838363  0.84161637  0.59675810  1
  Al  Al11  1  0.84161637  0.15838363  0.40324190  1
  Al  Al12  1  0.86619776  0.58627214  0.75000000  1
  Al  Al13  1  0.13380224  0.41372786  0.25000000  1
  Al  Al14  1  0.41372786  0.13380224  0.75000000  1
  Al  Al15  1  0.58627214  0.86619776  0.25000000  1
  Al  Al16  1  0.21904811  0.47851813  0.75000000  1
  Al  Al17  1  0.78095189  0.52148187  0.25000000  1
  Al  Al18  1  0.52148187  0.78095189  0.75000000  1
  Al  Al19  1  0.47851813  0.21904811  0.25000000  1
  Fe  Fe0  1  -0.00000000  0.50000000  0.50000000  1
  Fe  Fe1  1  -0.00000000  0.50000000  0.00000000  1
  Fe  Fe2  1  0.50000000  0.00000000  0.00000000  1
  Fe  Fe3  1  0.50000000  0.00000000  0.50000000  1
loop_
_geom_bond_atom_site_label_1
_geom_bond_atom_site_label_2
_geom_bond_distance
_geom_bond_site_symmetry_2
Er0 Fe1 3.367523 1_656
Er0 Fe2 3.367523 1_556
Er0 Fe0 3.367523 1_655
Er0 Fe3 3.367523 1_555
Er1 Fe1 3.367523 1_555
Er1 Fe2 3.367523 1_565
Er1 Fe3 3.367523 1_565
Er1 Fe0 3.367523 1_555
Al0 Al11 2.531109 1_555
Al0 Fe0 2.576841 1_655
Al0 Fe3 2.576841 1_555
Al0 Al1 2.672146 1_555
Al0 Al14 2.677121 1_555
Al0 Al12 2.677121 1_555
Al0 Al5 2.753567 1_555
Al0 Al4 2.753567 1_555
Al0 Al17 2.972210 1_555
Al0 Al19 2.972210 1_555
Al0 Er0 3.065842 1_555
Al1 Al10 2.531109 1_555
Al1 Fe3 2.576841 1_565
Al1 Fe0 2.576841 1_555
Al1 Al15 2.677121 1_555
Al1 Al13 2.677121 1_555
Al1 Al5 2.753567 1_555
Al1 Al4 2.753567 1_555
Al1 Al18 2.972210 1_555
Al1 Al16 2.972210 1_555
Al1 Er1 3.065842 1_555
Al2 Al9 2.531109 1_554
Al2 Fe2 2.576841 1_565
Al2 Fe1 2.576841 1_555
Al2 Al3 2.672146 1_554
Al2 Al6 2.753567 1_555
Al2 Al7 2.753567 1_555
Al2 Er1 3.065842 1_555
Al3 Al8 2.531109 1_556
Al3 Fe1 2.576841 1_656
Al3 Fe2 2.576841 1_556
Al3 Al7 2.753567 1_556
Al3 Al6 2.753567 1_556
Al3 Er0 3.065842 1_555
Al4 Fe0 2.521733 1_555
Al4 Fe3 2.521733 1_555
Al4 Er1 3.247828 1_545
Al4 Er0 3.247828 1_455
Al5 Fe0 2.521733 1_655
Al5 Fe3 2.521733 1_565
Al5 Er1 3.247828 1_655
Al5 Er0 3.247828 1_565
Al6 Fe2 2.521733 1_565
Al6 Fe1 2.521733 1_655
Al6 Al9 2.703769 1_654
Al6 Al8 2.703769 1_565
Al6 Er0 3.247828 1_564
Al6 Er1 3.247828 1_655
Al7 Fe1 2.521733 1_555
Al7 Fe2 2.521733 1_555
Al7 Al9 2.703769 1_544
Al7 Al8 2.703769 1_455
Al7 Er1 3.247828 1_545
Al7 Er0 3.247828 1_454
Al8 Fe1 2.542045 1_655
Al8 Fe2 2.542045 1_555
Al8 Er0 3.089334 1_554
Al8 Er1 3.164986 1_645
Al9 Fe1 2.542045 1_556
Al9 Fe2 2.542045 1_566
Al9 Er1 3.089334 1_556
Al9 Er0 3.164986 1_465
Al10 Fe3 2.542045 1_565
Al10 Fe0 2.542045 1_555
Al10 Al5 2.703769 1_455
Al10 Al4 2.703769 1_565
Al10 Al9 2.715256 1_555
Al10 Al12 2.779842 1_455
Al10 Al14 2.779842 1_565
Al10 Al18 2.857856 1_555
Al10 Al16 2.857856 1_555
Al10 Er1 3.089334 1_555
Al10 Er0 3.164986 1_465
Al11 Fe3 2.542045 1_555
Al11 Fe0 2.542045 1_655
Al11 Al5 2.703769 1_545
Al11 Al4 2.703769 1_655
Al11 Al8 2.715256 1_555
Al11 Al15 2.779842 1_545
Al11 Al13 2.779842 1_655
Al11 Al19 2.857856 1_555
Al11 Al17 2.857856 1_555
Al11 Er0 3.089334 1_555
Al11 Er1 3.164986 1_645
Al12 Fe1 2.484736 1_656
Al12 Fe0 2.484736 1_655
Al12 Al16 2.556398 1_655
Al12 Al6 2.655847 1_556
Al12 Al5 2.655847 1_555
Al12 Al3 2.677121 1_555
Al12 Al9 2.779842 1_655
Al12 Al18 2.791756 1_555
Al12 Er0 3.088067 1_555
Al12 Er0 3.605440 1_565
Al13 Fe0 2.484736 1_555
Al13 Fe1 2.484736 1_555
Al13 Al17 2.556398 1_455
Al13 Al4 2.655847 1_555
Al13 Al7 2.655847 1_555
Al13 Al2 2.677121 1_555
Al13 Al8 2.779842 1_455
Al13 Al19 2.791756 1_555
Al13 Er1 3.088067 1_555
Al13 Er1 3.605440 1_545
Al14 Fe2 2.484736 1_556
Al14 Fe3 2.484736 1_555
Al14 Al18 2.556398 1_545
Al14 Al4 2.655847 1_555
Al14 Al7 2.655847 1_556
Al14 Al3 2.677121 1_555
Al14 Al9 2.779842 1_545
Al14 Al16 2.791756 1_555
Al14 Er0 3.088067 1_555
Al14 Er0 3.605440 1_455
Al15 Fe2 2.484736 1_565
Al15 Fe3 2.484736 1_565
Al15 Al19 2.556398 1_565
Al15 Al6 2.655847 1_555
Al15 Al5 2.655847 1_555
Al15 Al2 2.677121 1_555
Al15 Al8 2.779842 1_565
Al15 Al17 2.791756 1_555
Al15 Er1 3.088067 1_555
Al15 Er1 3.605440 1_655
Al16 Fe0 2.670145 1_555
Al16 Fe1 2.670145 1_556
Al16 Al18 2.671975 1_555
Al16 Al7 2.784952 1_556
Al16 Al4 2.784952 1_555
Al16 Al9 2.857856 1_555
Al16 Al2 2.972210 1_556
Al16 Er0 3.081703 1_455
Al17 Fe1 2.670145 1_655
Al17 Fe0 2.670145 1_655
Al17 Al19 2.671975 1_555
Al17 Al6 2.784952 1_555
Al17 Al5 2.784952 1_555
Al17 Al8 2.857856 1_555
Al17 Al3 2.972210 1_554
Al17 Er1 3.081703 1_655
Al18 Fe2 2.670145 1_566
Al18 Fe3 2.670145 1_565
Al18 Al6 2.784952 1_556
Al18 Al5 2.784952 1_555
Al18 Al9 2.857856 1_555
Al18 Al2 2.972210 1_556
Al18 Er0 3.081703 1_565
Al19 Fe3 2.670145 1_555
Al19 Fe2 2.670145 1_555
Al19 Al7 2.784952 1_555
Al19 Al4 2.784952 1_555
Al19 Al8 2.857856 1_555
Al19 Al3 2.972210 1_554
Al19 Er1 3.081703 1_545
