# generated using pymatgen
data_CaSiO3
_symmetry_space_group_name_H-M   'P 1'
_cell_length_a   6.90945175
_cell_length_b   6.90945175
_cell_length_c   10.61770469
_cell_angle_alpha   71.70554429
_cell_angle_beta   71.70554429
_cell_angle_gamma   60.25371636
_symmetry_Int_Tables_number   1
_chemical_formula_structural   CaSiO3
_chemical_formula_sum   'Ca6 Si6 O18'
_cell_volume   410.09472876
_cell_formula_units_Z   6
loop_
 _symmetry_equiv_pos_site_id
 _symmetry_equiv_pos_as_xyz
  1  'x, y, z'
loop_
 _atom_site_type_symbol
 _atom_site_label
 _atom_site_symmetry_multiplicity
 _atom_site_fract_x
 _atom_site_fract_y
 _atom_site_fract_z
 _atom_site_occupancy
  Ca  Ca0  1  0.00000000  0.50000000  0.50000000  1
  Ca  Ca1  1  0.50000000  0.00000000  0.00000000  1
  Ca  Ca2  1  0.15072000  0.67372700  0.99900100  1
  Ca  Ca3  1  0.32627300  0.84928000  0.50099900  1
  Ca  Ca4  1  0.84928000  0.32627300  0.00099900  1
  Ca  Ca5  1  0.67372700  0.15072000  0.49900100  1
  Si  Si0  1  0.83959900  0.16040100  0.75000000  1
  Si  Si1  1  0.16040100  0.83959900  0.25000000  1
  Si  Si2  1  0.32511600  0.41921900  0.74467700  1
  Si  Si3  1  0.58078100  0.67488400  0.75532300  1
  Si  Si4  1  0.67488400  0.58078100  0.25532300  1
  Si  Si5  1  0.41921900  0.32511600  0.24467700  1
  O  O0  1  0.35793600  0.64206400  0.75000000  1
  O  O1  1  0.64206400  0.35793600  0.25000000  1
  O  O2  1  0.89337900  0.00686400  0.89473100  1
  O  O3  1  0.99313600  0.10662100  0.60526900  1
  O  O4  1  0.10662100  0.99313600  0.10526900  1
  O  O5  1  0.00686400  0.89337900  0.39473100  1
  O  O6  1  0.58211500  0.19489800  0.74751300  1
  O  O7  1  0.80510200  0.41788500  0.75248700  1
  O  O8  1  0.41788500  0.80510200  0.25248700  1
  O  O9  1  0.19489800  0.58211500  0.24751300  1
  O  O10  1  0.17074000  0.37190800  0.88796800  1
  O  O11  1  0.62809200  0.82926000  0.61203200  1
  O  O12  1  0.46778300  0.27566200  0.09661700  1
  O  O13  1  0.72433800  0.53221700  0.40338300  1
  O  O14  1  0.53221700  0.72433800  0.90338300  1
  O  O15  1  0.27566200  0.46778300  0.59661700  1
  O  O16  1  0.37190800  0.17074000  0.38796800  1
  O  O17  1  0.82926000  0.62809200  0.11203200  1
loop_
_geom_bond_atom_site_label_1
_geom_bond_atom_site_label_2
_geom_bond_distance
_geom_bond_site_symmetry_2
Ca0 O15 2.322128 1_555
Ca0 O13 2.322128 1_455
Ca0 O5 2.612781 1_555
Ca0 O3 2.612781 1_455
Ca0 O7 2.618978 1_455
Ca0 O9 2.618978 1_555
Ca0 O16 2.678185 1_555
Ca0 O11 2.678185 1_455
Ca1 O12 2.322128 1_555
Ca1 O14 2.322128 1_544
Ca1 O2 2.612781 1_554
Ca1 O4 2.612781 1_545
Ca1 O8 2.618978 1_545
Ca1 O6 2.618978 1_554
Ca1 O17 2.678185 1_545
Ca1 O10 2.678185 1_554
Ca2 O17 2.292812 1_456
Ca2 O2 2.293507 1_465
Ca2 O9 2.592596 1_556
Ca2 O0 2.600661 1_555
Ca2 O10 2.629204 1_555
Ca2 O4 2.629967 1_556
Ca2 O12 2.663643 1_556
Ca2 O14 2.667002 1_555
Ca3 O16 2.292812 1_565
Ca3 O3 2.293507 1_465
Ca3 O8 2.592596 1_555
Ca3 O0 2.600661 1_555
Ca3 O11 2.629204 1_555
Ca3 O5 2.629967 1_555
Ca3 O13 2.663643 1_555
Ca3 O15 2.667002 1_555
Ca4 O10 2.292812 1_654
Ca4 O4 2.293507 1_645
Ca4 O7 2.592596 1_554
Ca4 O1 2.600661 1_555
Ca4 O17 2.629204 1_555
Ca4 O2 2.629967 1_554
Ca4 O14 2.663643 1_554
Ca4 O12 2.667002 1_555
Ca5 O11 2.292812 1_545
Ca5 O5 2.293507 1_645
Ca5 O6 2.592596 1_555
Ca5 O1 2.600661 1_555
Ca5 O16 2.629204 1_555
Ca5 O3 2.629967 1_555
Ca5 O15 2.663643 1_555
Ca5 O13 2.667002 1_555
O0 Si3 1.683618 1_555
O0 Si2 1.683618 1_555
O1 Si4 1.683618 1_555
O1 Si5 1.683618 1_555
O2 Si0 1.602757 1_555
O3 Si0 1.602757 1_555
O4 Si1 1.602757 1_555
O5 Si1 1.602757 1_555
O6 Si0 1.681475 1_555
O6 Si2 1.682125 1_555
O7 Si0 1.681475 1_555
O7 Si3 1.682125 1_555
O8 Si1 1.681475 1_555
O8 Si4 1.682125 1_555
O9 Si1 1.681475 1_555
O9 Si5 1.682125 1_555
O10 Si2 1.604459 1_555
O11 Si3 1.604459 1_555
O12 Si5 1.610282 1_555
O13 Si4 1.610282 1_555
O14 Si3 1.610282 1_555
O15 Si2 1.610282 1_555
O16 Si5 1.604459 1_555
O17 Si4 1.604459 1_555
