# generated using pymatgen
data_Ta2NbTeI7
_symmetry_space_group_name_H-M   'P 1'
_cell_length_a   7.69750932
_cell_length_b   7.69750932
_cell_length_c   14.60532624
_cell_angle_alpha   89.88947005
_cell_angle_beta   89.88947005
_cell_angle_gamma   60.02427940
_symmetry_Int_Tables_number   1
_chemical_formula_structural   Ta2NbTeI7
_chemical_formula_sum   'Ta4 Nb2 Te2 I14'
_cell_volume   749.63087138
_cell_formula_units_Z   2
loop_
 _symmetry_equiv_pos_site_id
 _symmetry_equiv_pos_as_xyz
  1  'x, y, z'
loop_
 _atom_site_type_symbol
 _atom_site_label
 _atom_site_symmetry_multiplicity
 _atom_site_fract_x
 _atom_site_fract_y
 _atom_site_fract_z
 _atom_site_occupancy
  Ta  Ta0  1  0.13060500  0.13060500  0.75054100  1
  Ta  Ta1  1  0.13059200  0.73883900  0.75063900  1
  Ta  Ta2  1  0.73883900  0.13059200  0.75063900  1
  Ta  Ta3  1  0.86799200  0.86799200  0.25086000  1
  Nb  Nb0  1  0.86856200  0.26346200  0.25008100  1
  Nb  Nb1  1  0.26346200  0.86856200  0.25008100  1
  Te  Te0  1  0.99979600  0.99979600  0.89484700  1
  Te  Te1  1  0.99925900  0.99925900  0.39355400  1
  I  I0  1  0.50088200  0.50088200  0.85484400  1
  I  I1  1  0.50065200  0.99790600  0.85489300  1
  I  I2  1  0.99790600  0.50065200  0.85489300  1
  I  I3  1  0.49948700  0.49948700  0.35680700  1
  I  I4  1  0.50070200  0.00239700  0.35570800  1
  I  I5  1  0.00239700  0.50070200  0.35570800  1
  I  I6  1  0.16715600  0.16715600  0.12226800  1
  I  I7  1  0.16486800  0.66531700  0.12323300  1
  I  I8  1  0.66531700  0.16486800  0.12323300  1
  I  I9  1  0.83312500  0.83312500  0.62318200  1
  I  I10  1  0.83325700  0.33421200  0.62292200  1
  I  I11  1  0.33421200  0.83325700  0.62292200  1
  I  I12  1  0.66741500  0.66741500  0.15013500  1
  I  I13  1  0.33351700  0.33351700  0.65101100  1
loop_
_geom_bond_atom_site_label_1
_geom_bond_atom_site_label_2
_geom_bond_distance
_geom_bond_site_symmetry_2
Ta0 Te0 2.732503 1_445
Ta1 Te0 2.733486 1_455
Ta2 Te0 2.733486 1_545
Ta3 Te1 2.724306 1_555
Nb0 Te1 2.736105 1_545
Nb1 Te1 2.736105 1_455
I0 Ta2 2.929949 1_555
I0 Ta1 2.929949 1_555
I1 Ta2 2.928761 1_565
I1 Ta0 2.929706 1_565
I2 Ta1 2.928761 1_655
I2 Ta0 2.929706 1_655
I3 Nb1 2.939004 1_555
I3 Nb0 2.939004 1_555
I4 Ta3 2.911200 1_545
I4 Nb1 2.945004 1_545
I5 Ta3 2.911200 1_455
I5 Nb0 2.945004 1_455
I6 Nb1 2.757401 1_545
I6 Nb0 2.757401 1_455
I7 Ta3 2.750081 1_455
I7 Nb1 2.767485 1_555
I8 Ta3 2.750081 1_545
I8 Nb0 2.767485 1_555
I9 Ta2 2.754217 1_565
I9 Ta1 2.754217 1_655
I10 Ta2 2.754300 1_555
I10 Ta0 2.754977 1_655
I11 Ta1 2.754300 1_555
I11 Ta0 2.754977 1_565
I12 Ta3 3.054711 1_555
I12 Nb1 3.062199 1_555
I12 Nb0 3.062199 1_555
I13 Ta0 3.067995 1_555
I13 Ta2 3.070880 1_555
I13 Ta1 3.070880 1_555
