# generated using pymatgen
data_Mg14CdW
_symmetry_space_group_name_H-M   'P 1'
_cell_length_a   6.27967290
_cell_length_b   6.31543613
_cell_length_c   9.96792771
_cell_angle_alpha   90.00000000
_cell_angle_beta   90.00000000
_cell_angle_gamma   120.18857635
_symmetry_Int_Tables_number   1
_chemical_formula_structural   Mg14CdW
_chemical_formula_sum   'Mg14 Cd1 W1'
_cell_volume   341.70197236
_cell_formula_units_Z   1
loop_
 _symmetry_equiv_pos_site_id
 _symmetry_equiv_pos_as_xyz
  1  'x, y, z'
loop_
 _atom_site_type_symbol
 _atom_site_label
 _atom_site_symmetry_multiplicity
 _atom_site_fract_x
 _atom_site_fract_y
 _atom_site_fract_z
 _atom_site_occupancy
  Mg  Mg0  1  0.16701346  0.33350623  0.62500000  1
  Mg  Mg1  1  0.16876914  0.83438407  0.62500000  1
  Mg  Mg2  1  0.66807421  0.33273569  0.12500000  1
  Mg  Mg3  1  0.66597100  0.33152304  0.62500000  1
  Mg  Mg4  1  0.66807421  0.83533752  0.12500000  1
  Mg  Mg5  1  0.66597100  0.83444696  0.62500000  1
  Mg  Mg6  1  0.32734409  0.17163355  0.36453710  1
  Mg  Mg7  1  0.32734409  0.17163355  0.88546290  1
  Mg  Mg8  1  0.32734409  0.65571153  0.36453710  1
  Mg  Mg9  1  0.32734409  0.65571153  0.88546290  1
  Mg  Mg10  1  0.84437986  0.17219043  0.36689593  1
  Mg  Mg11  1  0.84437986  0.17219043  0.88310407  1
  Mg  Mg12  1  0.83338460  0.66669280  0.37437866  1
  Mg  Mg13  1  0.83338460  0.66669280  0.87562134  1
  Cd  Cd0  1  0.16481458  0.83240679  0.12500000  1
  W  W0  1  0.16640711  0.33320306  0.12500000  1
loop_
_geom_bond_atom_site_label_1
_geom_bond_atom_site_label_2
_geom_bond_distance
_geom_bond_site_symmetry_2
Mg0 Mg10 3.112233 1_455
Mg0 Mg11 3.112233 1_455
Mg0 Mg7 3.136011 1_555
Mg0 Mg6 3.136011 1_555
Mg0 Mg8 3.136017 1_555
Mg0 Mg9 3.136017 1_555
Mg0 Mg5 3.139607 1_555
Mg0 Mg3 3.139607 1_555
Mg0 Mg5 3.140103 1_445
Mg0 Mg3 3.140103 1_455
Mg0 Mg1 3.157732 1_555
Mg0 Mg1 3.157732 1_545
Mg1 Mg12 3.091112 1_455
Mg1 Mg13 3.091112 1_455
Mg1 Mg3 3.122065 1_565
Mg1 Mg5 3.122065 1_555
Mg1 Mg3 3.157607 1_455
Mg1 Mg5 3.157608 1_455
Mg1 Mg8 3.183644 1_555
Mg1 Mg9 3.183644 1_555
Mg1 Mg6 3.183651 1_565
Mg1 Mg7 3.183651 1_565
Mg2 Mg7 3.020771 1_554
Mg2 Mg6 3.020771 1_555
Mg2 W0 3.127884 1_655
Mg2 Mg4 3.141286 1_545
Mg2 W0 3.151791 1_555
Mg2 Mg4 3.174150 1_555
Mg3 Mg5 3.139252 1_545
Mg3 Mg5 3.176184 1_555
Mg3 Mg7 3.181614 1_555
Mg3 Mg6 3.181614 1_555
Mg4 Mg9 3.020771 1_554
Mg4 Mg8 3.020771 1_555
Mg4 W0 3.127884 1_665
Mg4 W0 3.151790 1_555
Mg5 Mg9 3.181614 1_555
Mg5 Mg8 3.181614 1_555
Mg6 W0 2.966600 1_555
Mg7 W0 2.966600 1_556
Mg8 W0 2.966606 1_555
Mg9 W0 2.966606 1_556
Mg10 W0 2.978130 1_655
Mg10 Mg2 3.032592 1_555
Mg10 Mg4 3.032598 1_545
Mg10 Mg12 3.159163 1_545
Mg10 Mg12 3.159163 1_555
Mg10 Mg3 3.165536 1_555
Mg10 Mg5 3.165542 1_545
Mg11 W0 2.978130 1_656
Mg11 Mg2 3.032592 1_556
Mg11 Mg4 3.032598 1_546
Mg11 Mg13 3.159163 1_545
Mg11 Mg13 3.159163 1_555
Mg11 Mg3 3.165536 1_555
Mg11 Mg5 3.165542 1_545
Mg12 Mg4 3.082707 1_555
Mg12 Mg2 3.082714 1_555
Mg12 Mg5 3.096557 1_555
Mg12 Mg3 3.096564 1_555
Mg12 Mg6 3.138883 1_665
Mg12 Mg8 3.138883 1_655
Mg12 Mg6 3.144997 1_555
Mg12 Mg8 3.144998 1_555
Mg13 Mg4 3.082707 1_556
Mg13 Mg2 3.082714 1_556
Mg13 Mg5 3.096557 1_555
Mg13 Mg3 3.096564 1_555
Mg13 Mg7 3.138883 1_665
Mg13 Mg9 3.138883 1_655
Mg13 Mg7 3.144997 1_555
Mg13 Mg9 3.144998 1_555
Cd0 Mg9 3.022154 1_554
Cd0 Mg8 3.022154 1_555
Cd0 Mg6 3.022161 1_565
Cd0 Mg7 3.022161 1_564
Cd0 Mg13 3.068476 1_454
Cd0 Mg12 3.068476 1_455
Cd0 Mg2 3.128715 1_455
Cd0 Mg4 3.128715 1_455
Cd0 Mg2 3.151039 1_565
Cd0 Mg4 3.151039 1_555
Cd0 W0 3.157730 1_555
Cd0 W0 3.157730 1_565
