# generated using pymatgen
data_Sr6Co4O13
_symmetry_space_group_name_H-M   'P 1'
_cell_length_a   10.47795009
_cell_length_b   10.47795009
_cell_length_c   5.49242100
_cell_angle_alpha   90.00000000
_cell_angle_beta   90.00000000
_cell_angle_gamma   149.64593124
_symmetry_Int_Tables_number   1
_chemical_formula_structural   Sr6Co4O13
_chemical_formula_sum   'Sr6 Co4 O13'
_cell_volume   304.72073513
_cell_formula_units_Z   1
loop_
 _symmetry_equiv_pos_site_id
 _symmetry_equiv_pos_as_xyz
  1  'x, y, z'
loop_
 _atom_site_type_symbol
 _atom_site_label
 _atom_site_symmetry_multiplicity
 _atom_site_fract_x
 _atom_site_fract_y
 _atom_site_fract_z
 _atom_site_occupancy
  Sr  Sr0  1  0.50000000  0.50000000  0.00000000  1
  Sr  Sr1  1  0.00000000  0.00000000  0.50000000  1
  Sr  Sr2  1  0.17934100  0.82065900  0.50000000  1
  Sr  Sr3  1  0.68158200  0.31841800  0.00000000  1
  Sr  Sr4  1  0.31841800  0.68158200  0.00000000  1
  Sr  Sr5  1  0.82065900  0.17934100  0.50000000  1
  Co  Co0  1  0.39330000  0.60670000  0.50000000  1
  Co  Co1  1  0.90627000  0.09373000  0.00000000  1
  Co  Co2  1  0.09373000  0.90627000  0.00000000  1
  Co  Co3  1  0.60670000  0.39330000  0.50000000  1
  O  O0  1  0.64881700  0.82884100  0.73911300  1
  O  O1  1  0.17115900  0.35118300  0.26088700  1
  O  O2  1  0.82884100  0.64881700  0.73911300  1
  O  O3  1  0.35118300  0.17115900  0.26088700  1
  O  O4  1  0.17115900  0.35118300  0.73911300  1
  O  O5  1  0.64881700  0.82884100  0.26088700  1
  O  O6  1  0.35118300  0.17115900  0.73911300  1
  O  O7  1  0.82884100  0.64881700  0.26088700  1
  O  O8  1  0.30208800  0.69791200  0.50000000  1
  O  O9  1  0.80812900  0.19187100  0.00000000  1
  O  O10  1  0.19187100  0.80812900  0.00000000  1
  O  O11  1  0.69791200  0.30208800  0.50000000  1
  O  O12  1  0.00000000  0.00000000  0.00000000  1
loop_
_geom_bond_atom_site_label_1
_geom_bond_atom_site_label_2
_geom_bond_distance
_geom_bond_site_symmetry_2
Co0 O8 1.844762 1_555
Co0 O1 1.885617 1_555
Co0 O4 1.885617 1_555
Co0 O5 1.885617 1_555
Co0 O0 1.885617 1_555
Co1 O12 1.895688 1_655
Co1 O9 1.984901 1_555
Co1 O0 2.027796 1_544
Co1 O5 2.027796 1_545
Co1 O4 2.027796 1_654
Co1 O1 2.027796 1_655
Co2 O12 1.895688 1_565
Co2 O10 1.984901 1_555
Co2 O7 2.027796 1_455
Co2 O2 2.027796 1_454
Co2 O3 2.027796 1_565
Co2 O6 2.027796 1_564
Co3 O11 1.844762 1_555
Co3 O6 1.885617 1_555
Co3 O3 1.885617 1_555
Co3 O7 1.885617 1_555
Co3 O2 1.885617 1_555
O0 Sr5 2.653670 1_565
O0 Sr0 2.661626 1_556
O0 Sr1 2.663094 1_665
O0 Sr4 2.683277 1_556
O1 Sr5 2.653670 1_455
O1 Sr0 2.661626 1_555
O1 Sr1 2.663094 1_555
O1 Sr4 2.683277 1_555
O2 Sr2 2.653670 1_655
O2 Sr0 2.661626 1_556
O2 Sr1 2.663094 1_665
O2 Sr3 2.683277 1_556
O3 Sr2 2.653670 1_545
O3 Sr0 2.661626 1_555
O3 Sr1 2.663094 1_555
O3 Sr3 2.683277 1_555
O4 Sr5 2.653670 1_455
O4 Sr0 2.661626 1_556
O4 Sr1 2.663094 1_555
O4 Sr4 2.683277 1_556
O5 Sr5 2.653670 1_565
O5 Sr0 2.661626 1_555
O5 Sr1 2.663094 1_665
O5 Sr4 2.683277 1_555
O6 Sr2 2.653670 1_545
O6 Sr0 2.661626 1_556
O6 Sr1 2.663094 1_555
O6 Sr3 2.683277 1_556
O7 Sr2 2.653670 1_655
O7 Sr0 2.661626 1_555
O7 Sr1 2.663094 1_665
O7 Sr3 2.683277 1_555
O8 Sr2 2.482557 1_555
O8 Sr4 2.765999 1_556
O8 Sr4 2.765999 1_555
O8 Sr5 2.768746 1_455
O8 Sr5 2.768746 1_565
O9 Sr3 2.559412 1_555
O9 Sr4 2.751034 1_655
O9 Sr4 2.751034 1_545
O9 Sr5 2.757878 1_555
O9 Sr5 2.757878 1_554
O10 Sr4 2.559412 1_555
O10 Sr3 2.751034 1_565
O10 Sr3 2.751034 1_455
O10 Sr2 2.757878 1_555
O10 Sr2 2.757878 1_554
O11 Sr5 2.482557 1_555
O11 Sr3 2.765999 1_555
O11 Sr3 2.765999 1_556
O11 Sr2 2.768746 1_545
O11 Sr2 2.768746 1_655
O12 Sr0 2.743152 1_445
O12 Sr0 2.743152 1_555
O12 Sr1 2.746211 1_554
O12 Sr1 2.746211 1_555
