# generated using pymatgen
data_CeAl2Pt
_symmetry_space_group_name_H-M   'P 1'
_cell_length_a   5.73193471
_cell_length_b   5.73193471
_cell_length_c   7.04025900
_cell_angle_alpha   90.00000000
_cell_angle_beta   90.00000000
_cell_angle_gamma   136.20794238
_symmetry_Int_Tables_number   1
_chemical_formula_structural   CeAl2Pt
_chemical_formula_sum   'Ce2 Al4 Pt2'
_cell_volume   160.07527615
_cell_formula_units_Z   2
loop_
 _symmetry_equiv_pos_site_id
 _symmetry_equiv_pos_as_xyz
  1  'x, y, z'
loop_
 _atom_site_type_symbol
 _atom_site_label
 _atom_site_symmetry_multiplicity
 _atom_site_fract_x
 _atom_site_fract_y
 _atom_site_fract_z
 _atom_site_occupancy
  Ce  Ce0  1  0.56566500  0.43433500  0.25000000  1
  Ce  Ce1  1  0.43433500  0.56566500  0.75000000  1
  Al  Al0  1  0.84804800  0.15195200  0.44480700  1
  Al  Al1  1  0.15195200  0.84804800  0.55519300  1
  Al  Al2  1  0.84804800  0.15195200  0.05519300  1
  Al  Al3  1  0.15195200  0.84804800  0.94480700  1
  Pt  Pt0  1  0.28555900  0.71444100  0.25000000  1
  Pt  Pt1  1  0.71444100  0.28555900  0.75000000  1
loop_
_geom_bond_atom_site_label_1
_geom_bond_atom_site_label_2
_geom_bond_distance
_geom_bond_site_symmetry_2
Ce0 Pt0 2.979457 1_555
Ce0 Pt0 3.168609 1_545
Ce0 Pt0 3.168609 1_655
Ce0 Ce1 3.787184 1_554
Ce0 Ce1 3.787184 1_555
Ce1 Pt1 2.979457 1_555
Ce1 Pt1 3.168609 1_455
Ce1 Pt1 3.168609 1_565
Al0 Pt1 2.576111 1_555
Al0 Pt0 2.625265 1_545
Al0 Pt0 2.625265 1_655
Al0 Al2 2.742983 1_555
Al0 Al1 3.086090 1_655
Al0 Al1 3.086090 1_545
Al0 Ce1 3.166744 1_545
Al0 Ce1 3.166744 1_655
Al0 Ce0 3.301979 1_555
Al0 Ce0 3.436329 1_545
Al0 Ce0 3.436329 1_655
Al1 Pt0 2.576111 1_555
Al1 Pt1 2.625265 1_455
Al1 Pt1 2.625265 1_565
Al1 Al3 2.742983 1_555
Al1 Ce0 3.166744 1_565
Al1 Ce0 3.166744 1_455
Al1 Ce1 3.301979 1_555
Al1 Ce1 3.436329 1_455
Al1 Ce1 3.436329 1_565
Al2 Pt1 2.576111 1_554
Al2 Pt0 2.625265 1_545
Al2 Pt0 2.625265 1_655
Al2 Al3 3.086090 1_544
Al2 Al3 3.086090 1_654
Al2 Ce1 3.166744 1_544
Al2 Ce1 3.166744 1_654
Al2 Ce0 3.301979 1_555
Al2 Ce0 3.436329 1_545
Al2 Ce0 3.436329 1_655
Al3 Pt0 2.576111 1_556
Al3 Pt1 2.625265 1_455
Al3 Pt1 2.625265 1_565
Al3 Ce0 3.166744 1_456
Al3 Ce0 3.166744 1_566
Al3 Ce1 3.301979 1_555
Al3 Ce1 3.436329 1_455
Al3 Ce1 3.436329 1_565
