# generated using pymatgen
data_Tb4MgCo
_symmetry_space_group_name_H-M   'P 1'
_cell_length_a   9.56896751
_cell_length_b   9.56904036
_cell_length_c   9.56899201
_cell_angle_alpha   59.99933482
_cell_angle_beta   59.99902591
_cell_angle_gamma   59.99920851
_symmetry_Int_Tables_number   1
_chemical_formula_structural   Tb4MgCo
_chemical_formula_sum   'Tb16 Mg4 Co4'
_cell_volume   619.55045798
_cell_formula_units_Z   4
loop_
 _symmetry_equiv_pos_site_id
 _symmetry_equiv_pos_as_xyz
  1  'x, y, z'
loop_
 _atom_site_type_symbol
 _atom_site_label
 _atom_site_symmetry_multiplicity
 _atom_site_fract_x
 _atom_site_fract_y
 _atom_site_fract_z
 _atom_site_occupancy
  Tb  Tb0  1  0.81361013  0.18639076  0.18639410  1
  Tb  Tb1  1  0.18639001  0.81361042  0.81361227  1
  Tb  Tb2  1  0.18639093  0.81361060  0.18639003  1
  Tb  Tb3  1  0.81361056  0.18638948  0.81360863  1
  Tb  Tb4  1  0.18639386  0.18639001  0.81360974  1
  Tb  Tb5  1  0.81361237  0.81360965  0.18638962  1
  Tb  Tb6  1  0.93808526  0.56191305  0.56191336  1
  Tb  Tb7  1  0.56191695  0.93808362  0.93808014  1
  Tb  Tb8  1  0.56191674  0.93808308  0.56191891  1
  Tb  Tb9  1  0.93808523  0.56191368  0.93808651  1
  Tb  Tb10  1  0.56191462  0.56191588  0.93808393  1
  Tb  Tb11  1  0.93808097  0.93808542  0.56191678  1
  Tb  Tb12  1  0.34390731  0.34390589  0.34390784  1
  Tb  Tb13  1  0.34390645  0.34390457  0.96828025  1
  Tb  Tb14  1  0.34390682  0.96827635  0.34390725  1
  Tb  Tb15  1  0.96828036  0.34390435  0.34390650  1
  Mg  Mg0  1  0.57867679  0.57867462  0.57867655  1
  Mg  Mg1  1  0.57868535  0.57868430  0.26395342  1
  Mg  Mg2  1  0.57868264  0.26395838  0.57868368  1
  Mg  Mg3  1  0.26395584  0.57868227  0.57868500  1
  Co  Co0  1  0.14052880  0.14053251  0.14052921  1
  Co  Co1  1  0.14052679  0.14053436  0.57840772  1
  Co  Co2  1  0.14052756  0.57840944  0.14053232  1
  Co  Co3  1  0.57840668  0.14053229  0.14052923  1
loop_
_geom_bond_atom_site_label_1
_geom_bond_atom_site_label_2
_geom_bond_distance
_geom_bond_site_symmetry_2
Tb0 Tb11 3.590030 1_545
Tb0 Tb8 3.590053 1_545
Tb0 Tb9 3.590062 1_554
Tb0 Tb10 3.590087 1_554
Tb1 Tb10 3.590040 1_555
Tb1 Tb8 3.590055 1_555
Tb1 Tb9 3.590105 1_455
Tb1 Tb11 3.590121 1_455
Tb2 Tb7 3.590051 1_554
Tb2 Tb6 3.590059 1_455
Tb3 Tb6 3.590065 1_555
Tb3 Tb7 3.590097 1_545
Tb4 Tb7 3.590022 1_545
Tb4 Tb8 3.590024 1_545
Tb4 Tb9 3.590071 1_455
Tb4 Tb6 3.590078 1_455
Tb5 Tb6 3.590049 1_555
Tb5 Tb8 3.590083 1_555
Tb5 Tb9 3.590092 1_554
Tb5 Tb7 3.590127 1_554
Tb6 Tb8 3.599522 1_555
Tb6 Tb9 3.599601 1_555
Tb7 Tb8 3.599487 1_555
Tb7 Tb9 3.599521 1_555
Tb10 Tb12 3.454486 1_556
Tb10 Tb13 3.454546 1_555
Tb10 Tb2 3.590041 1_556
Tb10 Tb3 3.590085 1_555
Tb10 Tb8 3.599503 1_555
Tb10 Tb6 3.599516 1_555
Tb10 Tb7 3.599557 1_555
Tb10 Tb9 3.599566 1_555
Tb11 Tb14 3.454494 1_655
Tb11 Tb15 3.454500 1_565
Tb11 Tb2 3.590070 1_655
Tb11 Tb3 3.590074 1_565
Tb11 Tb7 3.599450 1_555
Tb11 Tb8 3.599504 1_555
Tb11 Tb9 3.599548 1_555
Tb11 Tb6 3.599604 1_555
Tb12 Tb6 3.454451 1_455
Tb12 Tb8 3.454507 1_545
Tb13 Tb9 3.454472 1_455
Tb13 Tb7 3.454514 1_545
Tb14 Tb7 3.454518 1_554
Tb14 Tb8 3.454572 1_555
Tb15 Tb9 3.454479 1_554
Tb15 Tb6 3.454522 1_555
Mg0 Mg2 3.011470 1_555
Mg0 Mg3 3.011478 1_555
Mg0 Mg1 3.011496 1_555
Mg0 Tb6 3.286602 1_555
Mg0 Tb10 3.286617 1_555
Mg0 Tb8 3.286659 1_555
Mg0 Tb15 3.505488 1_555
Mg0 Tb13 3.505498 1_555
Mg0 Tb14 3.505499 1_555
Mg0 Tb3 3.517756 1_555
Mg0 Tb1 3.517763 1_555
Mg0 Tb5 3.517768 1_555
Mg1 Mg3 3.011606 1_555
Mg1 Mg2 3.011608 1_555
Mg1 Tb9 3.286444 1_554
Mg1 Tb7 3.286499 1_554
Mg1 Tb10 3.286559 1_554
Mg1 Tb14 3.505501 1_555
Mg1 Tb15 3.505504 1_555
Mg1 Tb12 3.505606 1_555
Mg1 Tb5 3.517751 1_555
Mg1 Tb0 3.517752 1_555
Mg1 Tb2 3.517757 1_555
Mg2 Mg3 3.011572 1_555
Mg2 Tb11 3.286478 1_545
Mg2 Tb7 3.286487 1_545
Mg2 Tb8 3.286585 1_545
Mg2 Tb13 3.505487 1_555
Mg2 Tb15 3.505490 1_555
Mg2 Tb12 3.505585 1_555
Mg2 Tb4 3.517724 1_555
Mg2 Tb3 3.517728 1_555
Mg2 Tb0 3.517733 1_555
Mg3 Tb9 3.286471 1_455
Mg3 Tb11 3.286517 1_455
Mg3 Tb6 3.286571 1_455
Mg3 Tb13 3.505507 1_555
Mg3 Tb14 3.505511 1_555
Mg3 Tb12 3.505597 1_555
Mg3 Tb4 3.517757 1_555
Mg3 Tb1 3.517770 1_555
Mg3 Tb2 3.517779 1_555
Co0 Tb0 2.760093 1_455
Co0 Tb4 2.760111 1_554
Co0 Tb2 2.760150 1_545
Co0 Tb15 2.768247 1_455
Co0 Tb13 2.768251 1_554
Co0 Tb14 2.768288 1_545
Co0 Tb9 3.448803 1_454
Co0 Tb7 3.448842 1_544
Co0 Tb11 3.448843 1_445
Co1 Tb3 2.760070 1_455
Co1 Tb1 2.760158 1_545
Co1 Tb4 2.760182 1_555
Co1 Tb15 2.768235 1_455
Co1 Tb12 2.768254 1_555
Co1 Tb14 2.768296 1_545
Co1 Tb6 3.448797 1_455
Co1 Tb8 3.448876 1_545
Co1 Tb11 3.448893 1_445
Co2 Tb5 2.760071 1_455
Co2 Tb1 2.760114 1_554
Co2 Tb2 2.760173 1_555
Co2 Tb15 2.768269 1_455
Co2 Tb12 2.768281 1_555
Co2 Tb13 2.768295 1_554
Co2 Tb6 3.448787 1_455
Co2 Tb10 3.448834 1_554
Co2 Tb9 3.448861 1_454
Co3 Tb3 2.760112 1_554
Co3 Tb5 2.760148 1_545
Co3 Tb0 2.760195 1_555
Co3 Tb13 2.768241 1_554
Co3 Tb12 2.768251 1_555
Co3 Tb14 2.768279 1_545
Co3 Tb10 3.448847 1_554
Co3 Tb8 3.448884 1_545
Co3 Tb7 3.448913 1_544
