# generated using pymatgen
data_KP(HO2)2
_symmetry_space_group_name_H-M   'P 1'
_cell_length_a   7.59053607
_cell_length_b   7.59053607
_cell_length_c   4.59755400
_cell_angle_alpha   90.00000000
_cell_angle_beta   90.00000000
_cell_angle_gamma   132.44055538
_symmetry_Int_Tables_number   1
_chemical_formula_structural   KP(HO2)2
_chemical_formula_sum   'K2 P2 H4 O8'
_cell_volume   195.48573538
_cell_formula_units_Z   2
loop_
 _symmetry_equiv_pos_site_id
 _symmetry_equiv_pos_as_xyz
  1  'x, y, z'
loop_
 _atom_site_type_symbol
 _atom_site_label
 _atom_site_symmetry_multiplicity
 _atom_site_fract_x
 _atom_site_fract_y
 _atom_site_fract_z
 _atom_site_occupancy
  K  K0  1  0.87652900  0.12347100  0.25000000  1
  K  K1  1  0.12347100  0.87652900  0.75000000  1
  P  P0  1  0.62984900  0.37015100  0.25000000  1
  P  P1  1  0.37015100  0.62984900  0.75000000  1
  H  H0  1  0.32109700  0.32109700  0.00000000  1
  H  H1  1  0.67890300  0.67890300  0.50000000  1
  H  H2  1  0.69197900  0.30802100  0.75000000  1
  H  H3  1  0.30802100  0.69197900  0.25000000  1
  O  O0  1  0.36539600  0.23399800  0.17002200  1
  O  O1  1  0.23399800  0.36539600  0.82997800  1
  O  O2  1  0.63460400  0.76600200  0.67002200  1
  O  O3  1  0.76600200  0.63460400  0.32997800  1
  O  O4  1  0.62411900  0.23333400  0.50649200  1
  O  O5  1  0.23333400  0.62411900  0.49350800  1
  O  O6  1  0.37588100  0.76666600  0.00649200  1
  O  O7  1  0.76666600  0.37588100  0.99350800  1
loop_
_geom_bond_atom_site_label_1
_geom_bond_atom_site_label_2
_geom_bond_distance
_geom_bond_site_symmetry_2
K0 O1 2.781859 1_654
K0 O2 2.781859 1_545
K0 O4 2.813036 1_555
K0 O7 2.813036 1_554
K0 O5 3.023084 1_655
K0 O6 3.023084 1_545
K0 O3 3.226006 1_545
K0 O0 3.226006 1_655
K0 O1 3.334638 1_655
K0 O2 3.334638 1_544
K1 O0 2.781859 1_566
K1 O3 2.781859 1_455
K1 O6 2.813036 1_556
K1 O5 2.813036 1_555
K1 O4 3.023084 1_565
K1 O7 3.023084 1_455
K1 O2 3.226006 1_455
K1 O1 3.226006 1_565
K1 O0 3.334638 1_565
K1 O3 3.334638 1_456
H0 O0 1.208811 1_555
H0 O1 1.208811 1_554
H0 K0 2.850730 1_455
H0 K1 2.850730 1_544
H1 O2 1.208811 1_555
H1 O3 1.208811 1_555
H1 K0 2.850730 1_565
H1 K1 2.850730 1_655
H2 O7 1.202485 1_555
H2 O4 1.202485 1_555
H3 O5 1.202485 1_555
H3 O6 1.202485 1_555
O0 P0 1.559742 1_555
O1 P1 1.559742 1_555
O2 P1 1.559742 1_555
O3 P0 1.559742 1_555
O4 P0 1.552430 1_555
O5 P1 1.552430 1_555
O6 P1 1.552430 1_554
O7 P0 1.552430 1_556
