# generated using pymatgen
data_Sm2V(Fe8N)2
_symmetry_space_group_name_H-M   'P 1'
_cell_length_a   6.49710683
_cell_length_b   6.49710722
_cell_length_c   6.56568646
_cell_angle_alpha   83.57514324
_cell_angle_beta   83.57513902
_cell_angle_gamma   82.77565033
_symmetry_Int_Tables_number   1
_chemical_formula_structural   Sm2V(Fe8N)2
_chemical_formula_sum   'Sm2 V1 Fe16 N2'
_cell_volume   271.87768703
_cell_formula_units_Z   1
loop_
 _symmetry_equiv_pos_site_id
 _symmetry_equiv_pos_as_xyz
  1  'x, y, z'
loop_
 _atom_site_type_symbol
 _atom_site_label
 _atom_site_symmetry_multiplicity
 _atom_site_fract_x
 _atom_site_fract_y
 _atom_site_fract_z
 _atom_site_occupancy
  Sm  Sm0  1  0.65865900  0.65865900  0.65848400  1
  Sm  Sm1  1  0.34687000  0.34687000  0.34709800  1
  V  V0  1  0.09134900  0.09134900  0.09246200  1
  Fe  Fe0  1  0.71443800  0.00069600  0.28107600  1
  Fe  Fe1  1  0.99621600  0.28211300  0.71538400  1
  Fe  Fe2  1  0.29163300  0.70779600  0.99932600  1
  Fe  Fe3  1  0.00069600  0.71443800  0.28107600  1
  Fe  Fe4  1  0.70779600  0.29163300  0.99932600  1
  Fe  Fe5  1  0.28211300  0.99621600  0.71538400  1
  Fe  Fe6  1  0.34416100  0.85640800  0.33908300  1
  Fe  Fe7  1  0.85640800  0.34416100  0.33908300  1
  Fe  Fe8  1  0.34284400  0.34284400  0.85512800  1
  Fe  Fe9  1  0.65506600  0.14547000  0.66112200  1
  Fe  Fe10  1  0.14547000  0.65506600  0.66112200  1
  Fe  Fe11  1  0.65757700  0.65757700  0.14383200  1
  Fe  Fe12  1  0.00090100  0.49969800  0.99961200  1
  Fe  Fe13  1  0.49969800  0.00090100  0.99961200  1
  Fe  Fe14  1  0.99902100  0.99902100  0.50096500  1
  Fe  Fe15  1  0.90859900  0.90859900  0.90964800  1
  N  N0  1  0.50041000  0.00007200  0.50058800  1
  N  N1  1  0.00007200  0.50041000  0.50058800  1
loop_
_geom_bond_atom_site_label_1
_geom_bond_atom_site_label_2
_geom_bond_distance
_geom_bond_site_symmetry_2
Sm1 V0 3.200439 1_555
Fe0 N0 1.887447 1_555
Fe0 Fe13 2.436736 1_554
Fe0 Fe14 2.468190 1_545
Fe0 Fe4 2.492338 1_554
Fe0 Fe11 2.578636 1_545
Fe0 V0 2.719942 1_655
Fe1 N1 1.885333 1_655
Fe1 Fe14 2.435267 1_545
Fe1 Fe12 2.468982 1_655
Fe1 Fe4 2.491114 1_555
Fe1 Fe8 2.614640 1_655
Fe1 V0 2.740568 1_656
Fe2 Fe5 2.491114 1_555
Fe2 Fe3 2.492337 1_556
Fe2 Fe6 2.600047 1_556
Fe2 Fe8 2.619696 1_555
Fe2 V0 2.761267 1_566
Fe2 Sm0 3.093610 1_555
Fe2 Sm1 3.100783 1_556
Fe3 N1 1.887447 1_555
Fe3 V0 2.719943 1_565
Fe4 Fe9 2.583407 1_555
Fe4 Fe7 2.600047 1_556
Fe4 Fe8 2.619696 1_555
Fe4 V0 2.761267 1_656
Fe4 Sm0 3.093610 1_555
Fe4 Sm1 3.100783 1_556
Fe5 N0 1.885333 1_565
Fe5 Fe8 2.614641 1_565
Fe5 V0 2.740568 1_566
Fe6 N0 1.930537 1_565
Fe6 V0 2.657325 1_565
Fe7 N1 1.930537 1_655
Fe7 V0 2.657325 1_655
Fe8 Fe9 2.552444 1_555
Fe8 V0 2.701826 1_556
Fe8 Sm0 3.156031 1_555
Fe8 Sm1 3.236208 1_556
Fe8 Sm1 3.329938 1_555
Fe9 N0 1.926551 1_555
Fe10 N1 1.926551 1_555
Fe10 Fe12 2.471758 1_555
Fe10 Fe14 2.483595 1_455
Fe10 Fe8 2.552444 1_555
Fe10 Fe2 2.583407 1_555
Fe11 Fe12 2.468529 1_654
Fe11 Fe13 2.468529 1_564
Fe11 Fe6 2.565841 1_555
Fe11 Fe7 2.565841 1_555
Fe11 Fe3 2.578636 1_655
Fe11 Fe2 2.626780 1_554
Fe11 Fe4 2.626780 1_554
Fe11 Fe15 2.688956 1_554
Fe11 Sm1 3.122568 1_555
Fe11 Sm0 3.185087 1_554
Fe11 Sm0 3.380633 1_555
Fe12 Fe3 2.436736 1_556
Fe12 Fe2 2.457025 1_555
Fe12 Fe8 2.459556 1_555
Fe12 Fe4 2.470374 1_455
Fe12 Fe7 2.477210 1_456
Fe12 V0 2.661189 1_556
Fe12 Fe15 2.663423 1_455
Fe12 Sm0 3.323658 1_455
Fe12 Sm1 3.364977 1_556
Fe13 Fe4 2.457025 1_555
Fe13 Fe8 2.459556 1_555
Fe13 Fe5 2.468982 1_545
Fe13 Fe2 2.470374 1_545
Fe13 Fe9 2.471758 1_555
Fe13 Fe6 2.477210 1_546
Fe13 V0 2.661188 1_556
Fe13 Fe15 2.663423 1_545
Fe13 Sm0 3.323658 1_545
Fe13 Sm1 3.364977 1_556
Fe14 Fe5 2.435267 1_655
Fe14 Fe3 2.468190 1_655
Fe14 Fe9 2.483595 1_565
Fe14 Fe6 2.486173 1_655
Fe14 Fe7 2.486173 1_565
Fe14 Fe15 2.696572 1_555
Fe14 V0 2.698835 1_665
Fe14 Sm0 3.325079 1_555
Fe14 Sm1 3.390956 1_665
Fe15 V0 2.291895 1_666
Fe15 Fe2 2.753432 1_655
Fe15 Fe4 2.753432 1_565
N0 Sm0 2.490489 1_545
N0 Sm1 2.497811 1_555
N1 Sm0 2.490489 1_455
N1 Sm1 2.497811 1_555
