# generated using pymatgen
data_Mg5Si6
_symmetry_space_group_name_H-M   'P 1'
_cell_length_a   3.95204000
_cell_length_b   6.84460741
_cell_length_c   15.69730924
_cell_angle_alpha   101.05301665
_cell_angle_beta   97.11583289
_cell_angle_gamma   89.54018785
_symmetry_Int_Tables_number   1
_chemical_formula_structural   Mg5Si6
_chemical_formula_sum   'Mg10 Si12'
_cell_volume   413.47451855
_cell_formula_units_Z   2
loop_
 _symmetry_equiv_pos_site_id
 _symmetry_equiv_pos_as_xyz
  1  'x, y, z'
loop_
 _atom_site_type_symbol
 _atom_site_label
 _atom_site_symmetry_multiplicity
 _atom_site_fract_x
 _atom_site_fract_y
 _atom_site_fract_z
 _atom_site_occupancy
  Mg  Mg0  1  0.97412100  0.05520200  0.01344600  1
  Mg  Mg1  1  0.70213400  0.87753300  0.47625200  1
  Mg  Mg2  1  0.79035500  0.98620700  0.68120000  1
  Mg  Mg3  1  0.13209300  0.01254900  0.33713900  1
  Mg  Mg4  1  0.54536300  0.93324000  0.15691800  1
  Mg  Mg5  1  0.39673300  0.14197900  0.86305300  1
  Mg  Mg6  1  0.23899100  0.20346200  0.55508600  1
  Mg  Mg7  1  0.16831900  0.53513900  0.40956100  1
  Mg  Mg8  1  0.50627900  0.39997600  0.08024900  1
  Mg  Mg9  1  0.43532000  0.71600400  0.93377500  1
  Si  Si0  1  0.93947000  0.40477900  0.95014600  1
  Si  Si1  1  0.99888000  0.69756900  0.06205200  1
  Si  Si2  1  0.67822600  0.24280800  0.43301800  1
  Si  Si3  1  0.74309600  0.54421200  0.54604400  1
  Si  Si4  1  0.88769200  0.86418100  0.83895900  1
  Si  Si5  1  0.06259800  0.24941100  0.19278900  1
  Si  Si6  1  0.61290400  0.69336000  0.29821900  1
  Si  Si7  1  0.34127400  0.36660900  0.72915300  1
  Si  Si8  1  0.87709700  0.50781600  0.80783700  1
  Si  Si9  1  0.06879600  0.61820600  0.20389600  1
  Si  Si10  1  0.60847200  0.32155300  0.28831100  1
  Si  Si11  1  0.28815800  0.62820500  0.63926800  1
loop_
_geom_bond_atom_site_label_1
_geom_bond_atom_site_label_2
_geom_bond_distance
_geom_bond_site_symmetry_2
Mg0 Si1 2.697687 1_545
Mg0 Si0 2.757501 1_554
Mg0 Si4 2.780357 1_544
Mg0 Si5 2.853650 1_655
Mg1 Si3 2.709235 1_555
Mg1 Si2 2.711317 1_565
Mg1 Si6 2.817025 1_555
Mg2 Si4 2.744082 1_555
Mg2 Si11 3.084257 1_555
Mg2 Si11 3.151675 1_655
Mg2 Si7 3.162445 1_565
Mg3 Si2 2.771343 1_455
Mg3 Si2 2.783480 1_555
Mg3 Si6 2.909667 1_545
Mg3 Si6 2.933593 1_445
Mg3 Si5 3.014196 1_555
Mg3 Si9 3.072301 1_545
Mg3 Si10 3.082437 1_455
Mg3 Si10 3.106153 1_555
Mg4 Si1 2.779524 1_555
Mg4 Si1 2.796788 1_455
Mg4 Si5 2.893615 1_565
Mg4 Si5 2.915018 1_665
Mg4 Si6 2.988214 1_555
Mg4 Si10 3.026815 1_565
Mg4 Si9 3.103668 1_655
Mg4 Si9 3.124033 1_555
Mg5 Si4 2.714777 1_545
Mg5 Si4 2.720794 1_445
Mg5 Si7 2.819466 1_555
Mg5 Si0 2.826175 1_455
Mg5 Si0 2.845657 1_555
Mg6 Si7 2.727629 1_555
Mg6 Si2 2.790485 1_555
Mg6 Si2 2.791365 1_455
Mg6 Si11 2.950961 1_555
Mg6 Si3 3.047167 1_455
Mg6 Si3 3.114541 1_555
Mg7 Si2 2.869497 1_555
Mg7 Si3 2.873530 1_455
Mg7 Si2 2.900343 1_455
Mg7 Si10 2.915159 1_555
Mg7 Si3 2.915347 1_555
Mg7 Si10 2.932025 1_455
Mg7 Si6 2.963571 1_455
Mg7 Si6 2.971820 1_555
Mg8 Si0 2.827668 1_554
Mg8 Si0 2.842696 1_454
Mg8 Si1 2.875288 1_455
Mg8 Si1 2.906035 1_555
Mg8 Si9 2.943791 1_555
Mg8 Si5 2.952303 1_655
Mg8 Si5 2.958363 1_555
Mg8 Si9 2.968687 1_655
Mg9 Si4 2.770076 1_455
Mg9 Si4 2.776179 1_555
Mg9 Si1 2.829654 1_456
Mg9 Si1 2.830690 1_556
Mg9 Si0 2.930617 1_555
Mg9 Si8 2.948795 1_455
Mg9 Si8 2.953285 1_555
Mg9 Si0 2.974158 1_455
Si0 Si1 2.390095 1_556
Si0 Si8 2.452176 1_555
Si1 Si9 2.374439 1_655
Si2 Si3 2.441685 1_555
Si4 Si8 2.393674 1_555
Si5 Si9 2.496809 1_555
Si6 Si9 2.453101 1_555
Si6 Si9 2.461091 1_655
Si7 Si8 2.423016 1_555
Si7 Si8 2.428998 1_455
Si10 Si2 2.416230 1_555
Si10 Si5 2.465347 1_555
Si10 Si5 2.466125 1_655
Si10 Si6 2.519752 1_555
Si11 Si3 2.452995 1_555
Si11 Si3 2.455290 1_455
Si11 Si7 2.475903 1_555
