# generated using pymatgen
data_Y2GaN3
_symmetry_space_group_name_H-M   'P 1'
_cell_length_a   6.52862678
_cell_length_b   6.39855377
_cell_length_c   5.13644200
_cell_angle_alpha   90.00000000
_cell_angle_beta   90.00000000
_cell_angle_gamma   119.34309201
_symmetry_Int_Tables_number   1
_chemical_formula_structural   Y2GaN3
_chemical_formula_sum   'Y4 Ga2 N6'
_cell_volume   187.03960639
_cell_formula_units_Z   2
loop_
 _symmetry_equiv_pos_site_id
 _symmetry_equiv_pos_as_xyz
  1  'x, y, z'
loop_
 _atom_site_type_symbol
 _atom_site_label
 _atom_site_symmetry_multiplicity
 _atom_site_fract_x
 _atom_site_fract_y
 _atom_site_fract_z
 _atom_site_occupancy
  Y  Y0  1  0.31888500  0.34114000  0.45293400  1
  Y  Y1  1  0.68111500  0.02225500  0.45293400  1
  Y  Y2  1  0.68111500  0.65886000  0.95293400  1
  Y  Y3  1  0.31888500  0.97774500  0.95293400  1
  Ga  Ga0  1  0.00000000  0.66174300  0.47858100  1
  Ga  Ga1  1  0.00000000  0.33825700  0.97858100  1
  N  N0  1  0.30582600  0.33080300  0.91436100  1
  N  N1  1  0.69417400  0.02497800  0.91436100  1
  N  N2  1  0.69417400  0.66919700  0.41436100  1
  N  N3  1  0.30582600  0.97502200  0.41436100  1
  N  N4  1  0.00000000  0.62689500  0.85882900  1
  N  N5  1  0.00000000  0.37310500  0.35882900  1
loop_
_geom_bond_atom_site_label_1
_geom_bond_atom_site_label_2
_geom_bond_distance
_geom_bond_site_symmetry_2
Ga0 N5 1.946602 1_555
Ga0 N4 1.965809 1_555
Ga0 N3 2.047171 1_555
Ga0 N2 2.047174 1_455
Ga1 N4 1.946602 1_555
Ga1 N5 1.965809 1_556
Ga1 N1 2.047171 1_455
Ga1 N0 2.047174 1_555
N0 Y3 2.310550 1_545
N0 Y2 2.325505 1_555
N0 Y0 2.371383 1_555
N0 Y0 2.767454 1_556
N1 Y2 2.310557 1_545
N1 Y3 2.325502 1_545
N1 Y1 2.371383 1_555
N1 Y1 2.767454 1_556
N2 Y1 2.310550 1_565
N2 Y0 2.325505 1_555
N2 Y2 2.371383 1_554
N2 Y2 2.767454 1_555
N3 Y0 2.310557 1_565
N3 Y1 2.325502 1_565
N3 Y3 2.371383 1_554
N3 Y3 2.767454 1_555
N4 Y2 2.242103 1_455
N4 Y3 2.242103 1_555
N5 Y0 2.242103 1_555
N5 Y1 2.242103 1_455
