# generated using pymatgen
data_Sn2PbSe3
_symmetry_space_group_name_H-M   'P 1'
_cell_length_a   4.29641506
_cell_length_b   4.29641506
_cell_length_c   10.52740970
_cell_angle_alpha   90.00000000
_cell_angle_beta   90.00000000
_cell_angle_gamma   119.99998988
_symmetry_Int_Tables_number   1
_chemical_formula_structural   Sn2PbSe3
_chemical_formula_sum   'Sn2 Pb1 Se3'
_cell_volume   168.29246123
_cell_formula_units_Z   1
loop_
 _symmetry_equiv_pos_site_id
 _symmetry_equiv_pos_as_xyz
  1  'x, y, z'
loop_
 _atom_site_type_symbol
 _atom_site_label
 _atom_site_symmetry_multiplicity
 _atom_site_fract_x
 _atom_site_fract_y
 _atom_site_fract_z
 _atom_site_occupancy
  Sn  Sn0  1  0.33333300  0.66666700  0.66380772  1
  Sn  Sn1  1  0.66666700  0.33333300  0.33619228  1
  Pb  Pb0  1  0.00000000  0.00000000  -0.00000000  1
  Se  Se0  1  0.33333300  0.66666700  0.17323813  1
  Se  Se1  1  0.66666700  0.33333300  0.82676187  1
  Se  Se2  1  0.00000000  0.00000000  0.50000000  1
loop_
_geom_bond_atom_site_label_1
_geom_bond_atom_site_label_2
_geom_bond_distance
_geom_bond_site_symmetry_2
Pb0 Se1 3.078816 1_454
Pb0 Se0 3.078816 1_545
Pb0 Se0 3.078819 1_445
Pb0 Se1 3.078819 1_554
Pb0 Se1 3.078819 1_444
Pb0 Se0 3.078819 1_555
Se0 Sn1 3.015947 1_455
Se0 Sn1 3.015947 1_565
Se0 Sn1 3.015953 1_555
Se1 Sn0 3.015947 1_545
Se1 Sn0 3.015947 1_655
Se1 Sn0 3.015953 1_555
Se2 Sn1 3.021067 1_455
Se2 Sn0 3.021067 1_545
Se2 Sn1 3.021071 1_555
Se2 Sn1 3.021071 1_445
Se2 Sn0 3.021071 1_445
Se2 Sn0 3.021071 1_555
