# generated using pymatgen
data_Eu2Mn(GeO3)4
_symmetry_space_group_name_H-M   'P 1'
_cell_length_a   10.16535309
_cell_length_b   10.16535309
_cell_length_c   5.03374800
_cell_angle_alpha   90.00000000
_cell_angle_beta   90.00000000
_cell_angle_gamma   90.14932957
_symmetry_Int_Tables_number   1
_chemical_formula_structural   Eu2Mn(GeO3)4
_chemical_formula_sum   'Eu4 Mn2 Ge8 O24'
_cell_volume   520.15758004
_cell_formula_units_Z   2
loop_
 _symmetry_equiv_pos_site_id
 _symmetry_equiv_pos_as_xyz
  1  'x, y, z'
loop_
 _atom_site_type_symbol
 _atom_site_label
 _atom_site_symmetry_multiplicity
 _atom_site_fract_x
 _atom_site_fract_y
 _atom_site_fract_z
 _atom_site_occupancy
  Eu  Eu0  1  0.00000000  0.50000000  0.50000000  1
  Eu  Eu1  1  0.50000000  0.00000000  0.50000000  1
  Eu  Eu2  1  0.75000000  0.75000000  0.50000000  1
  Eu  Eu3  1  0.25000000  0.25000000  0.50000000  1
  Mn  Mn0  1  0.50000000  0.50000000  0.50000000  1
  Mn  Mn1  1  0.00000000  0.00000000  0.50000000  1
  Ge  Ge0  1  0.74392500  0.47345300  0.99238200  1
  Ge  Ge1  1  0.25607500  0.52654700  0.00761800  1
  Ge  Ge2  1  0.24392500  0.97345300  0.00761800  1
  Ge  Ge3  1  0.75607500  0.02654700  0.99238200  1
  Ge  Ge4  1  0.47345300  0.74392500  0.00761800  1
  Ge  Ge5  1  0.52654700  0.25607500  0.99238200  1
  Ge  Ge6  1  0.97345300  0.24392500  0.99238200  1
  Ge  Ge7  1  0.02654700  0.75607500  0.00761800  1
  O  O0  1  0.54984900  0.65900500  0.27227700  1
  O  O1  1  0.06538700  0.32407100  0.23595100  1
  O  O2  1  0.43461300  0.17592900  0.23595100  1
  O  O3  1  0.95015100  0.84099500  0.27227700  1
  O  O4  1  0.45015100  0.34099500  0.72772300  1
  O  O5  1  0.93461300  0.67592900  0.76404900  1
  O  O6  1  0.56538700  0.82407100  0.76404900  1
  O  O7  1  0.04984900  0.15900500  0.72772300  1
  O  O8  1  0.65900500  0.54984900  0.72772300  1
  O  O9  1  0.32407100  0.06538700  0.76404900  1
  O  O10  1  0.17592900  0.43461300  0.76404900  1
  O  O11  1  0.84099500  0.95015100  0.72772300  1
  O  O12  1  0.34099500  0.45015100  0.27227700  1
  O  O13  1  0.67592900  0.93461300  0.23595100  1
  O  O14  1  0.82407100  0.56538700  0.23595100  1
  O  O15  1  0.15900500  0.04984900  0.27227700  1
  O  O16  1  0.36975100  0.63024900  0.82774900  1
  O  O17  1  0.86816400  0.36816400  0.83519400  1
  O  O18  1  0.63183600  0.13183600  0.83519400  1
  O  O19  1  0.13024900  0.86975100  0.82774900  1
  O  O20  1  0.63024900  0.36975100  0.17225100  1
  O  O21  1  0.13183600  0.63183600  0.16480600  1
  O  O22  1  0.36816400  0.86816400  0.16480600  1
  O  O23  1  0.86975100  0.13024900  0.17225100  1
loop_
_geom_bond_atom_site_label_1
_geom_bond_atom_site_label_2
_geom_bond_distance
_geom_bond_site_symmetry_2
Eu0 O14 2.326577 1_455
Eu0 O10 2.326577 1_555
Eu0 O5 2.326577 1_455
Eu0 O1 2.326577 1_555
Eu0 O17 2.535668 1_455
Eu0 O21 2.535668 1_555
Eu1 O6 2.326577 1_545
Eu1 O13 2.326577 1_545
Eu1 O2 2.326577 1_555
Eu1 O9 2.326577 1_555
Eu1 O22 2.535668 1_545
Eu1 O18 2.535668 1_555
Eu2 O6 2.421323 1_555
Eu2 O13 2.421323 1_555
Eu2 O14 2.421323 1_555
Eu2 O5 2.421323 1_555
Eu2 O8 2.509867 1_555
Eu2 O11 2.509867 1_555
Eu2 O3 2.509867 1_555
Eu2 O0 2.509867 1_555
Eu3 O1 2.421323 1_555
Eu3 O9 2.421323 1_555
Eu3 O10 2.421323 1_555
Eu3 O2 2.421323 1_555
Eu3 O7 2.509867 1_555
Eu3 O15 2.509867 1_555
Eu3 O12 2.509867 1_555
Eu3 O4 2.509867 1_555
Mn0 O0 2.044278 1_555
Mn0 O8 2.044278 1_555
Mn0 O12 2.044278 1_555
Mn0 O4 2.044278 1_555
Mn0 O16 2.497417 1_555
Mn0 O20 2.497417 1_555
Mn1 O11 2.044278 1_445
Mn1 O7 2.044278 1_555
Mn1 O3 2.044278 1_445
Mn1 O15 2.044278 1_555
Mn1 O19 2.497417 1_545
Mn1 O23 2.497417 1_455
Ge0 O14 1.742524 1_556
Ge0 O8 1.768221 1_555
Ge0 O20 1.805549 1_556
Ge0 O17 1.836752 1_555
Ge1 O10 1.742524 1_554
Ge1 O12 1.768221 1_555
Ge1 O16 1.805549 1_554
Ge1 O21 1.836752 1_555
Ge2 O9 1.742524 1_564
Ge2 O15 1.768221 1_565
Ge2 O19 1.805549 1_554
Ge2 O22 1.836752 1_555
Ge3 O13 1.742524 1_546
Ge3 O11 1.768221 1_545
Ge3 O23 1.805549 1_556
Ge3 O18 1.836752 1_555
Ge4 O6 1.742524 1_554
Ge4 O0 1.768221 1_555
Ge4 O16 1.805549 1_554
Ge4 O22 1.836752 1_555
Ge5 O2 1.742524 1_556
Ge5 O4 1.768221 1_555
Ge5 O20 1.805549 1_556
Ge5 O18 1.836752 1_555
Ge6 O1 1.742524 1_656
Ge6 O7 1.768221 1_655
Ge6 O23 1.805549 1_556
Ge6 O17 1.836752 1_555
Ge7 O5 1.742524 1_454
Ge7 O3 1.768221 1_455
Ge7 O19 1.805549 1_554
Ge7 O21 1.836752 1_555
