# generated using pymatgen
data_NaFe2PbF9
_symmetry_space_group_name_H-M   'P 1'
_cell_length_a   7.29744912
_cell_length_b   7.29744912
_cell_length_c   7.74486499
_cell_angle_alpha   88.29483092
_cell_angle_beta   88.29483092
_cell_angle_gamma   118.72637030
_symmetry_Int_Tables_number   1
_chemical_formula_structural   NaFe2PbF9
_chemical_formula_sum   'Na2 Fe4 Pb2 F18'
_cell_volume   361.05786703
_cell_formula_units_Z   2
loop_
 _symmetry_equiv_pos_site_id
 _symmetry_equiv_pos_as_xyz
  1  'x, y, z'
loop_
 _atom_site_type_symbol
 _atom_site_label
 _atom_site_symmetry_multiplicity
 _atom_site_fract_x
 _atom_site_fract_y
 _atom_site_fract_z
 _atom_site_occupancy
  Na  Na0  1  0.50000000  0.00000000  0.00000000  1
  Na  Na1  1  0.00000000  0.50000000  0.50000000  1
  Fe  Fe0  1  0.00000000  0.00000000  0.50000000  1
  Fe  Fe1  1  0.00000000  0.00000000  0.00000000  1
  Fe  Fe2  1  0.50000000  0.00000000  0.50000000  1
  Fe  Fe3  1  0.00000000  0.50000000  0.00000000  1
  Pb  Pb0  1  0.47326000  0.52674000  0.75000000  1
  Pb  Pb1  1  0.52674000  0.47326000  0.25000000  1
  F  F0  1  0.19358400  0.88989500  0.53835900  1
  F  F1  1  0.80641600  0.11010500  0.46164100  1
  F  F2  1  0.11010500  0.80641600  0.96164100  1
  F  F3  1  0.88989500  0.19358400  0.03835900  1
  F  F4  1  0.97463100  0.02536900  0.75000000  1
  F  F5  1  0.02536900  0.97463100  0.25000000  1
  F  F6  1  0.51361000  0.89413400  0.73012100  1
  F  F7  1  0.48639000  0.10586600  0.26987900  1
  F  F8  1  0.10586600  0.48639000  0.76987900  1
  F  F9  1  0.89413400  0.51361000  0.23012100  1
  F  F10  1  0.56918800  0.27569600  0.57851000  1
  F  F11  1  0.43081200  0.72430400  0.42149000  1
  F  F12  1  0.72430400  0.43081200  0.92149000  1
  F  F13  1  0.27569600  0.56918800  0.07851000  1
  F  F14  1  0.70852700  0.78478900  0.02368100  1
  F  F15  1  0.29147300  0.21521100  0.97631900  1
  F  F16  1  0.21521100  0.29147300  0.47631900  1
  F  F17  1  0.78478900  0.70852700  0.52368100  1
loop_
_geom_bond_atom_site_label_1
_geom_bond_atom_site_label_2
_geom_bond_distance
_geom_bond_site_symmetry_2
F0 Fe0 1.957380 1_565
F0 Fe2 1.988222 1_565
F0 Na1 2.528025 1_555
F1 Fe0 1.957380 1_655
F1 Fe2 1.988222 1_555
F1 Na1 2.528025 1_655
F2 Fe1 1.957380 1_566
F2 Fe3 1.988222 1_556
F2 Na0 2.528025 1_566
F3 Fe1 1.957380 1_655
F3 Fe3 1.988222 1_655
F3 Na0 2.528025 1_555
F4 Fe0 1.962250 1_655
F4 Fe1 1.962250 1_656
F5 Fe1 1.962250 1_565
F5 Fe0 1.962250 1_565
F6 Fe2 1.945632 1_565
F6 Na0 2.265621 1_566
F6 Pb0 2.551914 1_555
F7 Fe2 1.945632 1_555
F7 Na0 2.265621 1_555
F7 Pb1 2.551914 1_555
F8 Fe3 1.945632 1_556
F8 Na1 2.265621 1_555
F8 Pb0 2.551914 1_555
F9 Fe3 1.945632 1_655
F9 Na1 2.265621 1_655
F9 Pb1 2.551914 1_555
F10 Fe2 1.946006 1_555
F10 Pb0 2.632954 1_555
F10 Na1 2.795187 1_655
F11 Fe2 1.946006 1_565
F11 Pb1 2.632954 1_555
F11 Na1 2.795187 1_555
F12 Fe3 1.946006 1_656
F12 Pb0 2.632954 1_555
F12 Na0 2.795187 1_556
F13 Fe3 1.946006 1_555
F13 Pb1 2.632954 1_555
F13 Na0 2.795187 1_565
F14 Fe1 1.942388 1_665
F14 Pb1 2.593429 1_555
F14 Na0 2.666910 1_565
F15 Fe1 1.942388 1_556
F15 Pb0 2.593429 1_555
F15 Na0 2.666910 1_556
F16 Fe0 1.942388 1_555
F16 Pb1 2.593429 1_555
F16 Na1 2.666910 1_555
F17 Fe0 1.942388 1_665
F17 Pb0 2.593429 1_555
F17 Na1 2.666910 1_655
