# generated using pymatgen
data_Zr
_symmetry_space_group_name_H-M   'P 1'
_cell_length_a   6.47846200
_cell_length_b   6.47846365
_cell_length_c   10.34444000
_cell_angle_alpha   90.00000000
_cell_angle_beta   90.00000000
_cell_angle_gamma   120.00000178
_symmetry_Int_Tables_number   1
_chemical_formula_structural   Zr
_chemical_formula_sum   Zr16
_cell_volume   375.99455100
_cell_formula_units_Z   16
loop_
 _symmetry_equiv_pos_site_id
 _symmetry_equiv_pos_as_xyz
  1  'x, y, z'
loop_
 _atom_site_type_symbol
 _atom_site_label
 _atom_site_symmetry_multiplicity
 _atom_site_fract_x
 _atom_site_fract_y
 _atom_site_fract_z
 _atom_site_occupancy
  Zr  Zr0_0  1  0.16666650  0.33333350  0.12500000  1
  Zr  Zr0_1  1  0.16666650  0.33333350  0.62500000  1
  Zr  Zr0_2  1  0.16666650  0.83333350  0.12500000  1
  Zr  Zr0_3  1  0.16666650  0.83333350  0.62500000  1
  Zr  Zr0_4  1  0.66666650  0.33333350  0.12500000  1
  Zr  Zr0_5  1  0.66666650  0.33333350  0.62500000  1
  Zr  Zr0_6  1  0.66666650  0.83333350  0.12500000  1
  Zr  Zr0_7  1  0.66666650  0.83333350  0.62500000  1
  Zr  Zr1_0  1  0.33333350  0.16666650  0.37500000  1
  Zr  Zr1_1  1  0.33333350  0.16666650  0.87500000  1
  Zr  Zr1_2  1  0.33333350  0.66666650  0.37500000  1
  Zr  Zr1_3  1  0.33333350  0.66666650  0.87500000  1
  Zr  Zr1_4  1  0.83333350  0.16666650  0.37500000  1
  Zr  Zr1_5  1  0.83333350  0.16666650  0.87500000  1
  Zr  Zr1_6  1  0.83333350  0.66666650  0.37500000  1
  Zr  Zr1_7  1  0.83333350  0.66666650  0.87500000  1
loop_
_geom_bond_atom_site_label_1
_geom_bond_atom_site_label_2
_geom_bond_distance
_geom_bond_site_symmetry_2
Zr0_0 Zr1_5 3.191473 1_454
Zr0_0 Zr1_4 3.191473 1_455
Zr0_0 Zr1_2 3.191473 1_555
Zr0_0 Zr1_3 3.191473 1_554
Zr0_0 Zr1_1 3.191476 1_554
Zr0_0 Zr1_0 3.191476 1_555
Zr0_0 Zr0_4 3.239231 1_455
Zr0_0 Zr0_4 3.239231 1_555
Zr0_0 Zr0_6 3.239231 1_445
Zr0_0 Zr0_6 3.239231 1_555
Zr0_0 Zr0_2 3.239232 1_555
Zr0_0 Zr0_2 3.239232 1_545
Zr0_1 Zr1_4 3.191473 1_455
Zr0_1 Zr1_5 3.191473 1_455
Zr0_1 Zr1_2 3.191473 1_555
Zr0_1 Zr1_3 3.191473 1_555
Zr0_1 Zr1_0 3.191476 1_555
Zr0_1 Zr1_1 3.191476 1_555
Zr0_1 Zr0_5 3.239231 1_455
Zr0_1 Zr0_5 3.239231 1_555
Zr0_1 Zr0_7 3.239231 1_445
Zr0_1 Zr0_7 3.239231 1_555
Zr0_1 Zr0_3 3.239232 1_555
Zr0_1 Zr0_3 3.239232 1_545
Zr0_2 Zr1_7 3.191473 1_454
Zr0_2 Zr1_6 3.191473 1_455
Zr0_2 Zr1_1 3.191473 1_564
Zr0_2 Zr1_0 3.191473 1_565
Zr0_2 Zr1_3 3.191476 1_554
Zr0_2 Zr1_2 3.191476 1_555
Zr0_2 Zr0_6 3.239231 1_455
Zr0_2 Zr0_6 3.239231 1_555
Zr0_2 Zr0_4 3.239231 1_455
Zr0_2 Zr0_4 3.239231 1_565
Zr0_3 Zr1_6 3.191473 1_455
Zr0_3 Zr1_7 3.191473 1_455
Zr0_3 Zr1_0 3.191473 1_565
Zr0_3 Zr1_1 3.191473 1_565
Zr0_3 Zr1_2 3.191476 1_555
Zr0_3 Zr1_3 3.191476 1_555
Zr0_3 Zr0_7 3.239231 1_555
Zr0_3 Zr0_7 3.239231 1_455
Zr0_3 Zr0_5 3.239231 1_565
Zr0_3 Zr0_5 3.239231 1_455
Zr0_4 Zr1_1 3.191473 1_554
Zr0_4 Zr1_0 3.191473 1_555
Zr0_4 Zr1_6 3.191473 1_555
Zr0_4 Zr1_7 3.191473 1_554
Zr0_4 Zr1_5 3.191476 1_554
Zr0_4 Zr1_4 3.191476 1_555
Zr0_4 Zr0_6 3.239232 1_545
Zr0_4 Zr0_6 3.239232 1_555
Zr0_5 Zr1_0 3.191473 1_555
Zr0_5 Zr1_1 3.191473 1_555
Zr0_5 Zr1_6 3.191473 1_555
Zr0_5 Zr1_7 3.191473 1_555
Zr0_5 Zr1_4 3.191476 1_555
Zr0_5 Zr1_5 3.191476 1_555
Zr0_5 Zr0_7 3.239232 1_555
Zr0_5 Zr0_7 3.239232 1_545
Zr0_6 Zr1_3 3.191473 1_554
Zr0_6 Zr1_2 3.191473 1_555
Zr0_6 Zr1_5 3.191473 1_564
Zr0_6 Zr1_4 3.191473 1_565
Zr0_6 Zr1_7 3.191476 1_554
Zr0_6 Zr1_6 3.191476 1_555
Zr0_7 Zr1_3 3.191473 1_555
Zr0_7 Zr1_2 3.191473 1_555
Zr0_7 Zr1_4 3.191473 1_565
Zr0_7 Zr1_5 3.191473 1_565
Zr0_7 Zr1_6 3.191476 1_555
Zr0_7 Zr1_7 3.191476 1_555
Zr1_0 Zr1_4 3.239231 1_455
Zr1_0 Zr1_4 3.239231 1_555
Zr1_0 Zr1_6 3.239231 1_445
Zr1_0 Zr1_6 3.239231 1_555
Zr1_0 Zr1_2 3.239232 1_555
Zr1_0 Zr1_2 3.239232 1_545
Zr1_1 Zr1_5 3.239231 1_455
Zr1_1 Zr1_5 3.239231 1_555
Zr1_1 Zr1_7 3.239231 1_445
Zr1_1 Zr1_7 3.239231 1_555
Zr1_1 Zr1_3 3.239232 1_545
Zr1_1 Zr1_3 3.239232 1_555
Zr1_2 Zr1_6 3.239231 1_455
Zr1_2 Zr1_6 3.239231 1_555
Zr1_2 Zr1_4 3.239231 1_565
Zr1_2 Zr1_4 3.239231 1_455
Zr1_3 Zr1_7 3.239231 1_455
Zr1_3 Zr1_7 3.239231 1_555
Zr1_3 Zr1_5 3.239231 1_455
Zr1_3 Zr1_5 3.239231 1_565
Zr1_4 Zr1_6 3.239232 1_545
Zr1_4 Zr1_6 3.239232 1_555
Zr1_5 Zr1_7 3.239232 1_545
Zr1_5 Zr1_7 3.239232 1_555
