# generated using pymatgen
data_Cs2Ti(CuSe2)2
_symmetry_space_group_name_H-M   'P 1'
_cell_length_a   5.91354300
_cell_length_b   5.91354300
_cell_length_c   14.54037900
_cell_angle_alpha   90.00000000
_cell_angle_beta   90.00000000
_cell_angle_gamma   90.00000000
_symmetry_Int_Tables_number   1
_chemical_formula_structural   Cs2Ti(CuSe2)2
_chemical_formula_sum   'Cs4 Ti2 Cu4 Se8'
_cell_volume   508.47692005
_cell_formula_units_Z   2
loop_
 _symmetry_equiv_pos_site_id
 _symmetry_equiv_pos_as_xyz
  1  'x, y, z'
loop_
 _atom_site_type_symbol
 _atom_site_label
 _atom_site_symmetry_multiplicity
 _atom_site_fract_x
 _atom_site_fract_y
 _atom_site_fract_z
 _atom_site_occupancy
  Cs  Cs0  1  0.75743100  0.75743100  0.00000000  1
  Cs  Cs1  1  0.24256900  0.75743100  0.50000000  1
  Cs  Cs2  1  0.75743100  0.24256900  0.50000000  1
  Cs  Cs3  1  0.24256900  0.24256900  0.00000000  1
  Ti  Ti0  1  0.50000000  0.50000000  0.25000000  1
  Ti  Ti1  1  0.50000000  0.50000000  0.75000000  1
  Cu  Cu0  1  0.00000000  0.50000000  0.75000000  1
  Cu  Cu1  1  0.50000000  0.00000000  0.75000000  1
  Cu  Cu2  1  0.50000000  0.00000000  0.25000000  1
  Cu  Cu3  1  0.00000000  0.50000000  0.25000000  1
  Se  Se0  1  0.73986700  0.26013300  0.15682300  1
  Se  Se1  1  0.73986700  0.73986700  0.34317700  1
  Se  Se2  1  0.26013300  0.26013300  0.65682300  1
  Se  Se3  1  0.73986700  0.73986700  0.65682300  1
  Se  Se4  1  0.26013300  0.26013300  0.34317700  1
  Se  Se5  1  0.73986700  0.26013300  0.84317700  1
  Se  Se6  1  0.26013300  0.73986700  0.84317700  1
  Se  Se7  1  0.26013300  0.73986700  0.15682300  1
loop_
_geom_bond_atom_site_label_1
_geom_bond_atom_site_label_2
_geom_bond_distance
_geom_bond_site_symmetry_2
Cs0 Se7 3.722723 1_555
Cs0 Se0 3.722723 1_555
Cs0 Se5 3.722723 1_554
Cs0 Se6 3.722723 1_554
Cs0 Se7 3.748018 1_655
Cs0 Se0 3.748018 1_565
Cs0 Se5 3.748018 1_564
Cs0 Se6 3.748018 1_654
Cs1 Se4 3.722723 1_555
Cs1 Se1 3.722723 1_555
Cs1 Se2 3.722723 1_555
Cs1 Se3 3.722723 1_555
Cs1 Se4 3.748018 1_565
Cs1 Se1 3.748018 1_455
Cs1 Se2 3.748018 1_565
Cs1 Se3 3.748018 1_455
Cs2 Se4 3.722723 1_555
Cs2 Se1 3.722723 1_555
Cs2 Se2 3.722723 1_555
Cs2 Se3 3.722723 1_555
Cs2 Se1 3.748018 1_545
Cs2 Se4 3.748018 1_655
Cs2 Se2 3.748018 1_655
Cs2 Se3 3.748018 1_545
Cs3 Se0 3.722723 1_555
Cs3 Se7 3.722723 1_555
Cs3 Se6 3.722723 1_554
Cs3 Se5 3.722723 1_554
Cs3 Se0 3.748018 1_455
Cs3 Se7 3.748018 1_545
Cs3 Se5 3.748018 1_454
Cs3 Se6 3.748018 1_544
Cu0 Se5 2.492788 1_455
Cu0 Se3 2.492788 1_455
Cu0 Se2 2.492788 1_555
Cu0 Se6 2.492788 1_555
Cu1 Se2 2.492788 1_555
Cu1 Se3 2.492788 1_545
Cu1 Se6 2.492788 1_545
Cu1 Se5 2.492788 1_555
Cu2 Se1 2.492788 1_545
Cu2 Se7 2.492788 1_545
Cu2 Se4 2.492788 1_555
Cu2 Se0 2.492788 1_555
Cu3 Se0 2.492788 1_455
Cu3 Se7 2.492788 1_555
Cu3 Se1 2.492788 1_455
Cu3 Se4 2.492788 1_555
Se0 Ti0 2.420669 1_555
Se1 Ti0 2.420669 1_555
Se2 Ti1 2.420669 1_555
Se3 Ti1 2.420669 1_555
Se4 Ti0 2.420669 1_555
Se5 Ti1 2.420669 1_555
Se6 Ti1 2.420669 1_555
Se7 Ti0 2.420669 1_555
