# generated using pymatgen
data_TbSiPd2
_symmetry_space_group_name_H-M   'P 1'
_cell_length_a   5.53885301
_cell_length_b   6.92624471
_cell_length_c   7.33677406
_cell_angle_alpha   90.00000000
_cell_angle_beta   90.00000000
_cell_angle_gamma   90.00000000
_symmetry_Int_Tables_number   1
_chemical_formula_structural   TbSiPd2
_chemical_formula_sum   'Tb4 Si4 Pd8'
_cell_volume   281.46397479
_cell_formula_units_Z   4
loop_
 _symmetry_equiv_pos_site_id
 _symmetry_equiv_pos_as_xyz
  1  'x, y, z'
loop_
 _atom_site_type_symbol
 _atom_site_label
 _atom_site_symmetry_multiplicity
 _atom_site_fract_x
 _atom_site_fract_y
 _atom_site_fract_z
 _atom_site_occupancy
  Tb  Tb0  1  0.14310085  0.75000000  0.52878197  1
  Tb  Tb1  1  0.85689915  0.25000000  0.47121803  1
  Tb  Tb2  1  0.64310085  0.25000000  0.97121803  1
  Tb  Tb3  1  0.35689915  0.75000000  0.02878197  1
  Si  Si0  1  0.85655581  0.75000000  0.87683235  1
  Si  Si1  1  0.14344419  0.25000000  0.12316765  1
  Si  Si2  1  0.35655581  0.25000000  0.62316765  1
  Si  Si3  1  0.64344419  0.75000000  0.37683235  1
  Pd  Pd0  1  0.59338074  0.55201563  0.67691776  1
  Pd  Pd1  1  0.40661926  0.44798437  0.32308224  1
  Pd  Pd2  1  0.09338074  0.44798437  0.82308224  1
  Pd  Pd3  1  0.40661926  0.05201563  0.32308224  1
  Pd  Pd4  1  0.90661926  0.55201563  0.17691776  1
  Pd  Pd5  1  0.59338074  0.94798437  0.67691776  1
  Pd  Pd6  1  0.90661926  0.94798437  0.17691776  1
  Pd  Pd7  1  0.09338074  0.05201563  0.82308224  1
loop_
_geom_bond_atom_site_label_1
_geom_bond_atom_site_label_2
_geom_bond_distance
_geom_bond_site_symmetry_2
Si0 Tb3 2.983625 1_556
Si0 Tb3 2.987153 1_656
Si0 Tb0 3.006608 1_655
Si1 Tb2 2.983625 1_554
Si1 Tb2 2.987153 1_454
Si1 Tb1 3.006608 1_455
Si2 Tb1 2.983625 1_455
Si2 Tb1 2.987153 1_555
Si2 Tb2 3.006608 1_555
Si3 Tb0 2.983625 1_655
Si3 Tb0 2.987153 1_555
Si3 Tb3 3.006608 1_555
Pd0 Si0 2.481245 1_555
Pd0 Si2 2.500388 1_555
Pd0 Si3 2.608568 1_555
Pd0 Pd5 2.742576 1_555
Pd0 Pd1 2.885920 1_555
Pd0 Tb1 2.963743 1_555
Pd0 Tb2 3.018910 1_555
Pd0 Tb0 3.046614 1_555
Pd0 Pd2 3.055961 1_555
Pd0 Pd2 3.055961 1_655
Pd0 Tb3 3.203201 1_556
Pd0 Tb0 3.511776 1_655
Pd1 Si1 2.481245 1_555
Pd1 Si3 2.500388 1_555
Pd1 Si2 2.608568 1_555
Pd1 Pd3 2.742576 1_555
Pd1 Tb0 2.963743 1_555
Pd1 Tb3 3.018910 1_555
Pd1 Tb1 3.046614 1_555
Pd1 Pd4 3.055961 1_455
Pd1 Pd4 3.055961 1_555
Pd1 Tb2 3.203201 1_554
Pd1 Tb1 3.511776 1_455
Pd2 Si2 2.481245 1_555
Pd2 Si0 2.500388 1_455
Pd2 Si1 2.608568 1_556
Pd2 Pd7 2.742576 1_555
Pd2 Pd4 2.885920 1_456
Pd2 Tb3 2.963743 1_556
Pd2 Tb0 3.018910 1_555
Pd2 Tb2 3.046614 1_455
Pd2 Tb1 3.203201 1_455
Pd2 Tb2 3.511776 1_555
Pd3 Si1 2.481245 1_555
Pd3 Si3 2.500388 1_545
Pd3 Si2 2.608568 1_555
Pd3 Pd5 2.885920 1_545
Pd3 Tb0 2.963743 1_545
Pd3 Tb3 3.018910 1_545
Pd3 Tb1 3.046614 1_555
Pd3 Pd6 3.055961 1_445
Pd3 Pd6 3.055961 1_545
Pd3 Tb2 3.203201 1_554
Pd3 Tb1 3.511776 1_455
Pd4 Si3 2.481245 1_555
Pd4 Si1 2.500388 1_655
Pd4 Si0 2.608568 1_554
Pd4 Pd6 2.742576 1_555
Pd4 Tb2 2.963743 1_554
Pd4 Tb1 3.018910 1_555
Pd4 Tb3 3.046614 1_655
Pd4 Tb0 3.203201 1_655
Pd4 Tb3 3.511776 1_555
Pd5 Si0 2.481245 1_555
Pd5 Si2 2.500388 1_565
Pd5 Si3 2.608568 1_555
Pd5 Tb1 2.963743 1_565
Pd5 Tb2 3.018910 1_565
Pd5 Tb0 3.046614 1_555
Pd5 Pd7 3.055961 1_565
Pd5 Pd7 3.055961 1_665
Pd5 Tb3 3.203201 1_556
Pd5 Tb0 3.511776 1_655
Pd6 Si3 2.481245 1_555
Pd6 Si1 2.500388 1_665
Pd6 Si0 2.608568 1_554
Pd6 Pd7 2.885920 1_664
Pd6 Tb2 2.963743 1_564
Pd6 Tb1 3.018910 1_565
Pd6 Tb3 3.046614 1_655
Pd6 Tb0 3.203201 1_655
Pd6 Tb3 3.511776 1_555
Pd7 Si2 2.481245 1_555
Pd7 Si0 2.500388 1_445
Pd7 Si1 2.608568 1_556
Pd7 Tb3 2.963743 1_546
Pd7 Tb0 3.018910 1_545
Pd7 Tb2 3.046614 1_455
Pd7 Tb1 3.203201 1_455
Pd7 Tb2 3.511776 1_555
