# generated using pymatgen
data_Cs3Sm7Se12
_symmetry_space_group_name_H-M   'P 1'
_cell_length_a   4.26144220
_cell_length_b   13.05817583
_cell_length_c   26.76286729
_cell_angle_alpha   90.00000000
_cell_angle_beta   90.00000000
_cell_angle_gamma   90.00000000
_symmetry_Int_Tables_number   1
_chemical_formula_structural   Cs3Sm7Se12
_chemical_formula_sum   'Cs6 Sm14 Se24'
_cell_volume   1489.26421785
_cell_formula_units_Z   2
loop_
 _symmetry_equiv_pos_site_id
 _symmetry_equiv_pos_as_xyz
  1  'x, y, z'
loop_
 _atom_site_type_symbol
 _atom_site_label
 _atom_site_symmetry_multiplicity
 _atom_site_fract_x
 _atom_site_fract_y
 _atom_site_fract_z
 _atom_site_occupancy
  Cs  Cs0  1  0.50000000  0.53329695  0.12925321  1
  Cs  Cs1  1  0.50000000  0.96005927  0.86322989  1
  Cs  Cs2  1  -0.00000000  0.03994073  0.36322989  1
  Cs  Cs3  1  -0.00000000  0.46670305  0.62925321  1
  Cs  Cs4  1  0.50000000  0.80507209  0.47300743  1
  Cs  Cs5  1  0.00000000  0.19492791  0.97300743  1
  Sm  Sm0  1  0.50000000  0.46587678  0.41800851  1
  Sm  Sm1  1  0.50000000  0.03086578  0.58453246  1
  Sm  Sm2  1  0.00000000  0.96913422  0.08453246  1
  Sm  Sm3  1  -0.00000000  0.53412322  0.91800851  1
  Sm  Sm4  1  0.00000000  0.24554945  0.49942707  1
  Sm  Sm5  1  0.50000000  0.75445055  0.99942707  1
  Sm  Sm6  1  0.50000000  0.33027685  0.81728455  1
  Sm  Sm7  1  0.50000000  0.17409245  0.18185520  1
  Sm  Sm8  1  0.00000000  0.82590755  0.68185520  1
  Sm  Sm9  1  0.00000000  0.66972315  0.31728455  1
  Sm  Sm10  1  0.50000000  0.65652753  0.78800263  1
  Sm  Sm11  1  0.50000000  0.84219766  0.21198493  1
  Sm  Sm12  1  0.00000000  0.15780234  0.71198493  1
  Sm  Sm13  1  0.00000000  0.34347247  0.28800263  1
  Se  Se0  1  0.50000000  0.39484253  0.51848861  1
  Se  Se1  1  0.50000000  0.09248709  0.48088129  1
  Se  Se2  1  0.00000000  0.90751291  0.98088129  1
  Se  Se3  1  0.00000000  0.60515747  0.01848861  1
  Se  Se4  1  0.50000000  0.30387264  0.71105146  1
  Se  Se5  1  0.50000000  0.19740143  0.28851680  1
  Se  Se6  1  0.00000000  0.80259857  0.78851680  1
  Se  Se7  1  0.00000000  0.69612736  0.21105146  1
  Se  Se8  1  0.50000000  0.67787737  0.67979404  1
  Se  Se9  1  0.50000000  0.81979651  0.32242137  1
  Se  Se10  1  -0.00000000  0.18020349  0.82242137  1
  Se  Se11  1  0.00000000  0.32212263  0.17979404  1
  Se  Se12  1  0.50000000  0.38258627  0.92219754  1
  Se  Se13  1  0.50000000  0.12077674  0.07725148  1
  Se  Se14  1  0.00000000  0.87922326  0.57725148  1
  Se  Se15  1  -0.00000000  0.61741373  0.42219754  1
  Se  Se16  1  0.50000000  0.50468802  0.30434883  1
  Se  Se17  1  0.50000000  0.99466004  0.69664527  1
  Se  Se18  1  -0.00000000  0.00533996  0.19664527  1
  Se  Se19  1  0.00000000  0.49531198  0.80434883  1
  Se  Se20  1  0.50000000  0.68251192  0.89666495  1
  Se  Se21  1  0.50000000  0.81947695  0.10361448  1
  Se  Se22  1  0.00000000  0.18052305  0.60361448  1
  Se  Se23  1  -0.00000000  0.31748808  0.39666495  1
loop_
_geom_bond_atom_site_label_1
_geom_bond_atom_site_label_2
_geom_bond_distance
_geom_bond_site_symmetry_2
Cs0 Se7 3.722014 1_655
Cs0 Se7 3.722014 1_555
Cs0 Se11 3.738133 1_655
Cs0 Se11 3.738133 1_555
Cs0 Se3 3.769356 1_655
Cs0 Se3 3.769356 1_555
Cs0 Se21 3.799462 1_555
Cs1 Se6 3.572936 1_555
Cs1 Se6 3.572936 1_655
Cs1 Se20 3.733092 1_555
Cs1 Se10 3.741199 1_665
Cs1 Se10 3.741199 1_565
Cs1 Se2 3.863292 1_655
Cs1 Se2 3.863292 1_555
Cs2 Se5 3.572936 1_555
Cs2 Se5 3.572936 1_455
Cs2 Se23 3.733092 1_555
Cs2 Se9 3.741199 1_445
Cs2 Se9 3.741199 1_545
Cs2 Se1 3.863292 1_455
Cs2 Se1 3.863292 1_555
Cs3 Se4 3.722014 1_555
Cs3 Se4 3.722014 1_455
Cs3 Se8 3.738133 1_455
Cs3 Se8 3.738133 1_555
Cs3 Se0 3.769356 1_455
Cs3 Se0 3.769356 1_555
Cs3 Se22 3.799462 1_555
Cs4 Se15 3.520499 1_655
Cs4 Se15 3.520499 1_555
Cs4 Se14 3.641553 1_655
Cs4 Se14 3.641553 1_555
Cs4 Se1 3.759027 1_565
Cs4 Se9 4.034699 1_555
Cs5 Se12 3.520499 1_455
Cs5 Se12 3.520499 1_555
Cs5 Se13 3.641553 1_456
Cs5 Se13 3.641553 1_556
Cs5 Se2 3.759027 1_545
Cs5 Se10 4.034699 1_555
Se0 Sm0 2.844618 1_555
Se0 Sm4 2.932703 1_555
Se0 Sm4 2.932703 1_655
Se1 Sm1 2.888351 1_555
Se1 Sm4 2.963307 1_555
Se1 Sm4 2.963307 1_655
Se2 Sm2 2.888351 1_556
Se2 Sm5 2.963307 1_455
Se2 Sm5 2.963307 1_555
Se3 Sm3 2.844618 1_554
Se3 Sm5 2.932703 1_554
Se3 Sm5 2.932703 1_454
Se4 Sm12 2.859863 1_655
Se4 Sm12 2.859863 1_555
Se4 Sm6 2.863933 1_555
Se5 Sm13 2.859793 1_555
Se5 Sm13 2.859793 1_655
Se5 Sm7 2.870751 1_555
Se6 Sm10 2.859793 1_455
Se6 Sm10 2.859793 1_555
Se6 Sm8 2.870751 1_555
Se7 Sm11 2.859863 1_455
Se7 Sm11 2.859863 1_555
Se7 Sm9 2.863933 1_555
Se8 Sm8 2.877416 1_555
Se8 Sm8 2.877416 1_655
Se8 Sm10 2.909360 1_555
Se9 Sm9 2.898143 1_555
Se9 Sm9 2.898143 1_655
Se9 Sm11 2.970036 1_555
Se10 Sm6 2.898143 1_455
Se10 Sm6 2.898143 1_555
Se10 Sm12 2.970036 1_555
Se11 Sm7 2.877416 1_555
Se11 Sm7 2.877416 1_455
Se11 Sm13 2.909360 1_555
Se12 Sm6 2.889665 1_555
Se12 Sm3 2.910013 1_655
Se12 Sm3 2.910013 1_555
Se13 Sm7 2.884766 1_555
Se13 Sm2 2.915310 1_645
Se13 Sm2 2.915310 1_545
Se14 Sm8 2.884766 1_555
Se14 Sm1 2.915310 1_465
Se14 Sm1 2.915310 1_565
Se15 Sm9 2.889665 1_555
Se15 Sm0 2.910013 1_555
Se15 Sm0 2.910013 1_455
Se16 Sm13 3.027068 1_655
Se16 Sm13 3.027068 1_555
Se16 Sm9 3.050262 1_655
Se16 Sm9 3.050262 1_555
Se16 Sm0 3.083789 1_555
Se17 Sm1 3.037480 1_565
Se17 Sm12 3.040865 1_665
Se17 Sm12 3.040865 1_565
Se17 Sm8 3.090712 1_555
Se17 Sm8 3.090712 1_655
Se18 Sm2 3.037480 1_545
Se18 Sm11 3.040865 1_545
Se18 Sm11 3.040865 1_445
Se18 Sm7 3.090712 1_455
Se18 Sm7 3.090712 1_555
Se19 Sm10 3.027068 1_455
Se19 Sm10 3.027068 1_555
Se19 Sm6 3.050262 1_455
Se19 Sm6 3.050262 1_555
Se19 Sm3 3.083789 1_555
Se20 Sm5 2.906217 1_555
Se20 Sm10 2.927843 1_555
Se20 Sm3 2.936134 1_555
Se20 Sm3 2.936134 1_655
Se21 Sm5 2.914778 1_554
Se21 Sm11 2.915440 1_555
Se21 Sm2 2.935962 1_555
Se21 Sm2 2.935962 1_655
Se22 Sm4 2.914778 1_555
Se22 Sm12 2.915440 1_555
Se22 Sm1 2.935962 1_455
Se22 Sm1 2.935962 1_555
Se23 Sm4 2.906217 1_555
Se23 Sm13 2.927843 1_555
Se23 Sm0 2.936134 1_455
Se23 Sm0 2.936134 1_555
