# generated using pymatgen
data_TbInCu
_symmetry_space_group_name_H-M   'P 1'
_cell_length_a   7.43484380
_cell_length_b   7.43484380
_cell_length_c   3.94234608
_cell_angle_alpha   90.00000000
_cell_angle_beta   90.00000000
_cell_angle_gamma   120.00000073
_symmetry_Int_Tables_number   1
_chemical_formula_structural   TbInCu
_chemical_formula_sum   'Tb3 In3 Cu3'
_cell_volume   188.72484294
_cell_formula_units_Z   3
loop_
 _symmetry_equiv_pos_site_id
 _symmetry_equiv_pos_as_xyz
  1  'x, y, z'
loop_
 _atom_site_type_symbol
 _atom_site_label
 _atom_site_symmetry_multiplicity
 _atom_site_fract_x
 _atom_site_fract_y
 _atom_site_fract_z
 _atom_site_occupancy
  Tb  Tb0  1  0.00000000  0.58918199  0.50000000  1
  Tb  Tb1  1  0.41081801  0.41081801  0.50000000  1
  Tb  Tb2  1  0.58918199  0.00000000  0.50000000  1
  In  In0  1  0.74721529  0.74721529  0.00000000  1
  In  In1  1  0.00000000  0.25278471  -0.00000000  1
  In  In2  1  0.25278471  0.00000000  0.00000000  1
  Cu  Cu0  1  0.33333300  0.66666700  -0.00000000  1
  Cu  Cu1  1  -0.00000000  -0.00000000  0.50000000  1
  Cu  Cu2  1  0.66666700  0.33333300  -0.00000000  1
loop_
_geom_bond_atom_site_label_1
_geom_bond_atom_site_label_2
_geom_bond_distance
_geom_bond_site_symmetry_2
In0 Tb1 3.184467 1_555
In0 Tb1 3.184467 1_554
In0 Tb0 3.317599 1_655
In0 Tb0 3.317599 1_654
In0 Tb2 3.317599 1_564
In0 Tb2 3.317599 1_565
In1 Tb0 3.184467 1_555
In1 Tb0 3.184467 1_554
In1 Tb2 3.317599 1_454
In1 Tb2 3.317599 1_455
In1 Tb1 3.317599 1_554
In1 Tb1 3.317599 1_555
In2 Tb2 3.184467 1_555
In2 Tb2 3.184467 1_554
In2 Tb0 3.317599 1_544
In2 Tb0 3.317599 1_545
In2 Tb1 3.317599 1_554
In2 Tb1 3.317599 1_555
Cu0 In2 2.825713 1_565
Cu0 In1 2.825718 1_555
Cu0 In0 2.825721 1_555
Cu0 Tb0 2.988571 1_555
Cu0 Tb0 2.988571 1_554
Cu0 Tb2 2.988573 1_565
Cu0 Tb2 2.988573 1_564
Cu0 Tb1 2.988577 1_554
Cu0 Tb1 2.988577 1_555
Cu1 In0 2.723550 1_445
Cu1 In0 2.723550 1_446
Cu1 In2 2.723550 1_556
Cu1 In2 2.723550 1_555
Cu1 In1 2.723550 1_555
Cu1 In1 2.723550 1_556
Cu1 Tb1 3.054368 1_555
Cu1 Tb0 3.054368 1_545
Cu1 Tb2 3.054368 1_455
Cu2 In1 2.825713 1_655
Cu2 In2 2.825718 1_555
Cu2 In0 2.825721 1_555
Cu2 Tb2 2.988571 1_555
Cu2 Tb2 2.988571 1_554
Cu2 Tb0 2.988573 1_655
Cu2 Tb0 2.988573 1_654
Cu2 Tb1 2.988577 1_554
Cu2 Tb1 2.988577 1_555
