# generated using pymatgen
data_KSrNdWO6
_symmetry_space_group_name_H-M   'P 1'
_cell_length_a   8.51217813
_cell_length_b   8.49592874
_cell_length_c   8.51154882
_cell_angle_alpha   90.00000000
_cell_angle_beta   90.00000000
_cell_angle_gamma   90.00000000
_symmetry_Int_Tables_number   1
_chemical_formula_structural   KSrNdWO6
_chemical_formula_sum   'K4 Sr4 Nd4 W4 O24'
_cell_volume   615.54549741
_cell_formula_units_Z   4
loop_
 _symmetry_equiv_pos_site_id
 _symmetry_equiv_pos_as_xyz
  1  'x, y, z'
loop_
 _atom_site_type_symbol
 _atom_site_label
 _atom_site_symmetry_multiplicity
 _atom_site_fract_x
 _atom_site_fract_y
 _atom_site_fract_z
 _atom_site_occupancy
  K  K0  1  0.00000000  0.50000000  0.50000000  1
  K  K1  1  0.50000000  0.00000000  0.50000000  1
  K  K2  1  0.50000000  -0.00000000  0.00000000  1
  K  K3  1  0.00000000  0.50000000  0.00000000  1
  Sr  Sr0  1  0.50000000  0.50000000  -0.00000000  1
  Sr  Sr1  1  0.00000000  -0.00000000  0.50000000  1
  Sr  Sr2  1  0.00000000  -0.00000000  -0.00000000  1
  Sr  Sr3  1  0.50000000  0.50000000  0.50000000  1
  Nd  Nd0  1  0.75000000  0.75000000  0.75000000  1
  Nd  Nd1  1  0.25000000  0.25000000  0.75000000  1
  Nd  Nd2  1  0.25000000  0.75000000  0.25000000  1
  Nd  Nd3  1  0.75000000  0.25000000  0.25000000  1
  W  W0  1  0.25000000  0.25000000  0.25000000  1
  W  W1  1  0.75000000  0.75000000  0.25000000  1
  W  W2  1  0.75000000  0.25000000  0.75000000  1
  W  W3  1  0.25000000  0.75000000  0.75000000  1
  O  O0  1  0.02197452  0.21237049  0.27465502  1
  O  O1  1  0.97802548  0.78762951  0.27465502  1
  O  O2  1  0.97802548  0.21237049  0.72534498  1
  O  O3  1  0.02197452  0.78762951  0.72534498  1
  O  O4  1  0.26839450  0.02332184  0.22142528  1
  O  O5  1  0.26839450  0.97667816  0.77857472  1
  O  O6  1  0.73160550  0.97667816  0.22142528  1
  O  O7  1  0.73160550  0.02332184  0.77857472  1
  O  O8  1  0.22262142  0.27286874  0.02263257  1
  O  O9  1  0.77737858  0.27286874  0.97736743  1
  O  O10  1  0.22262142  0.72713126  0.97736743  1
  O  O11  1  0.77737858  0.72713126  0.02263257  1
  O  O12  1  0.47802548  0.28762951  0.22534498  1
  O  O13  1  0.52197452  0.71237049  0.22534498  1
  O  O14  1  0.52197452  0.28762951  0.77465502  1
  O  O15  1  0.47802548  0.71237049  0.77465502  1
  O  O16  1  0.23160550  0.47667816  0.27857472  1
  O  O17  1  0.23160550  0.52332184  0.72142528  1
  O  O18  1  0.76839450  0.52332184  0.27857472  1
  O  O19  1  0.76839450  0.47667816  0.72142528  1
  O  O20  1  0.27737858  0.22713126  0.47736743  1
  O  O21  1  0.72262142  0.22713126  0.52263257  1
  O  O22  1  0.27737858  0.77286874  0.52263257  1
  O  O23  1  0.72262142  0.77286874  0.47736743  1
loop_
_geom_bond_atom_site_label_1
_geom_bond_atom_site_label_2
_geom_bond_distance
_geom_bond_site_symmetry_2
K0 O17 2.734581 1_555
K0 O16 2.734581 1_555
K0 O18 2.734581 1_455
K0 O19 2.734581 1_455
K0 O1 3.112140 1_455
K0 O0 3.112140 1_555
K0 O2 3.112140 1_455
K0 O3 3.112140 1_555
K0 O20 3.314555 1_555
K0 O22 3.314555 1_555
K0 O21 3.314555 1_455
K0 O23 3.314555 1_455
K1 O23 2.711423 1_545
K1 O22 2.711423 1_545
K1 O21 2.711423 1_555
K1 O20 2.711423 1_555
K1 O4 3.089995 1_555
K1 O6 3.089995 1_545
K1 O5 3.089995 1_545
K1 O7 3.089995 1_555
K2 O7 2.734581 1_554
K2 O5 2.734581 1_544
K2 O6 2.734581 1_545
K2 O4 2.734581 1_555
K2 O14 3.112140 1_554
K2 O12 3.112140 1_555
K2 O15 3.112140 1_544
K2 O13 3.112140 1_545
K2 O9 3.314555 1_554
K2 O10 3.314555 1_544
K2 O8 3.314555 1_555
K2 O11 3.314555 1_545
K3 O10 2.711423 1_554
K3 O11 2.711423 1_455
K3 O8 2.711423 1_555
K3 O9 2.711423 1_454
K3 O17 3.089995 1_554
K3 O18 3.089995 1_455
K3 O16 3.089995 1_555
K3 O19 3.089995 1_454
Nd0 O7 2.340069 1_565
Nd0 O19 2.340069 1_555
Nd0 O23 2.340278 1_555
Nd0 O11 2.340278 1_556
Nd0 O15 2.346468 1_555
Nd0 O3 2.346468 1_655
Nd1 O17 2.340069 1_555
Nd1 O5 2.340069 1_545
Nd1 O20 2.340278 1_555
Nd1 O8 2.340278 1_556
Nd1 O14 2.346468 1_555
Nd1 O2 2.346468 1_455
Nd2 O4 2.340069 1_565
Nd2 O16 2.340069 1_555
Nd2 O22 2.340278 1_555
Nd2 O10 2.340278 1_554
Nd2 O1 2.346468 1_455
Nd2 O13 2.346468 1_555
Nd3 O6 2.340069 1_545
Nd3 O18 2.340069 1_555
Nd3 O21 2.340278 1_555
Nd3 O9 2.340278 1_554
Nd3 O12 2.346468 1_555
Nd3 O0 2.346468 1_655
O0 W0 1.978307 1_555
O0 Sr1 2.639941 1_555
O0 Sr2 2.958962 1_555
O1 W1 1.978307 1_555
O1 Sr1 2.639941 1_665
O1 Sr2 2.958962 1_665
O2 W2 1.978307 1_555
O2 Sr1 2.639941 1_655
O2 Sr2 2.958962 1_656
O3 W3 1.978307 1_555
O3 Sr1 2.639941 1_565
O3 Sr2 2.958962 1_566
O4 W0 1.947443 1_555
O4 Sr2 2.968290 1_555
O5 W3 1.947443 1_555
O5 Sr2 2.968290 1_566
O6 W1 1.947443 1_555
O6 Sr2 2.968290 1_665
O7 W2 1.947443 1_555
O7 Sr2 2.968290 1_656
O8 W0 1.958890 1_555
O8 Sr2 3.000417 1_555
O8 Sr0 3.055420 1_555
O9 W2 1.958890 1_555
O9 Sr2 3.000417 1_656
O9 Sr0 3.055420 1_556
O10 W3 1.958890 1_555
O10 Sr2 3.000417 1_566
O10 Sr0 3.055420 1_556
O11 W1 1.958890 1_555
O11 Sr2 3.000417 1_665
O11 Sr0 3.055420 1_555
O12 W0 1.978307 1_555
O12 Sr0 2.639941 1_555
O12 Sr3 2.958962 1_555
O13 W1 1.978307 1_555
O13 Sr0 2.639941 1_555
O13 Sr3 2.958962 1_555
O14 W2 1.978307 1_555
O14 Sr0 2.639941 1_556
O14 Sr3 2.958962 1_555
O15 W3 1.978307 1_555
O15 Sr0 2.639941 1_556
O15 Sr3 2.958962 1_555
O16 W0 1.947443 1_555
O16 Sr3 2.968290 1_555
O17 W3 1.947443 1_555
O17 Sr3 2.968290 1_555
O18 W1 1.947443 1_555
O18 Sr3 2.968290 1_555
O19 W2 1.947443 1_555
O19 Sr3 2.968290 1_555
O20 W0 1.958890 1_555
O20 Sr3 3.000417 1_555
O20 Sr1 3.055420 1_555
O21 W2 1.958890 1_555
O21 Sr3 3.000417 1_555
O21 Sr1 3.055420 1_655
O22 W3 1.958890 1_555
O22 Sr3 3.000417 1_555
O22 Sr1 3.055420 1_565
O23 W1 1.958890 1_555
O23 Sr3 3.000417 1_555
O23 Sr1 3.055420 1_665
