# generated using pymatgen
data_RbMg14Zn
_symmetry_space_group_name_H-M   'P 1'
_cell_length_a   6.56556059
_cell_length_b   6.52609991
_cell_length_c   10.61398322
_cell_angle_alpha   90.00000000
_cell_angle_beta   90.00000000
_cell_angle_gamma   119.80138653
_symmetry_Int_Tables_number   1
_chemical_formula_structural   RbMg14Zn
_chemical_formula_sum   'Rb1 Mg14 Zn1'
_cell_volume   394.63923989
_cell_formula_units_Z   1
loop_
 _symmetry_equiv_pos_site_id
 _symmetry_equiv_pos_as_xyz
  1  'x, y, z'
loop_
 _atom_site_type_symbol
 _atom_site_label
 _atom_site_symmetry_multiplicity
 _atom_site_fract_x
 _atom_site_fract_y
 _atom_site_fract_z
 _atom_site_occupancy
  Rb  Rb0  1  0.15839010  0.82919455  0.12500000  1
  Mg  Mg0  1  0.16354155  0.33177028  0.62500000  1
  Mg  Mg1  1  0.16701500  0.83350700  0.62500000  1
  Mg  Mg2  1  0.65303671  0.33604293  0.12500000  1
  Mg  Mg3  1  0.66640988  0.32958105  0.62500000  1
  Mg  Mg4  1  0.65303671  0.81699278  0.12500000  1
  Mg  Mg5  1  0.66640988  0.83682783  0.62500000  1
  Mg  Mg6  1  0.33846382  0.17925215  0.38941692  1
  Mg  Mg7  1  0.33846382  0.17925215  0.86058308  1
  Mg  Mg8  1  0.33846382  0.65921267  0.38941692  1
  Mg  Mg9  1  0.33846382  0.65921267  0.86058308  1
  Mg  Mg10  1  0.83962375  0.16981237  0.36354788  1
  Mg  Mg11  1  0.83962375  0.16981237  0.88645212  1
  Mg  Mg12  1  0.82062874  0.66031487  0.39288709  1
  Mg  Mg13  1  0.82062874  0.66031487  0.85711291  1
  Zn  Zn0  1  0.19779990  0.34889945  0.12500000  1
loop_
_geom_bond_atom_site_label_1
_geom_bond_atom_site_label_2
_geom_bond_distance
_geom_bond_site_symmetry_2
Rb0 Zn0 3.270766 1_565
Rb0 Zn0 3.270766 1_555
Mg0 Mg6 3.114211 1_555
Mg0 Mg7 3.114211 1_555
Mg0 Mg8 3.114217 1_555
Mg0 Mg9 3.114217 1_555
Mg0 Mg5 3.256871 1_445
Mg0 Mg3 3.256871 1_455
Mg0 Mg1 3.263110 1_555
Mg0 Mg1 3.263110 1_545
Mg0 Mg5 3.308736 1_555
Mg0 Mg3 3.308736 1_555
Mg0 Mg10 3.332655 1_455
Mg0 Mg11 3.332655 1_455
Mg1 Mg12 3.156594 1_455
Mg1 Mg13 3.156594 1_455
Mg1 Mg8 3.175846 1_555
Mg1 Mg9 3.175846 1_555
Mg1 Mg6 3.175853 1_565
Mg1 Mg7 3.175853 1_565
Mg1 Mg3 3.268090 1_565
Mg1 Mg5 3.268091 1_555
Mg1 Mg3 3.297577 1_455
Mg1 Mg5 3.297578 1_455
Mg2 Zn0 3.031459 1_555
Mg2 Mg4 3.138727 1_555
Mg2 Rb0 3.279080 1_655
Mg2 Rb0 3.287934 1_545
Mg2 Mg7 3.329951 1_554
Mg2 Mg6 3.329951 1_555
Mg2 Mg4 3.387373 1_545
Mg3 Mg6 3.122696 1_555
Mg3 Mg7 3.122696 1_555
Mg3 Mg5 3.215757 1_545
Mg3 Mg5 3.310343 1_555
Mg4 Zn0 3.031458 1_555
Mg4 Rb0 3.279081 1_655
Mg4 Rb0 3.287934 1_555
Mg4 Mg9 3.329951 1_554
Mg4 Mg8 3.329951 1_555
Mg5 Mg8 3.122696 1_555
Mg5 Mg9 3.122696 1_555
Mg6 Mg8 3.132270 1_555
Mg6 Zn0 3.312332 1_555
Mg6 Mg8 3.393830 1_545
Mg6 Rb0 3.436366 1_545
Mg7 Mg9 3.132270 1_555
Mg7 Zn0 3.312332 1_556
Mg7 Mg9 3.393830 1_545
Mg7 Rb0 3.436366 1_546
Mg8 Zn0 3.312338 1_555
Mg8 Rb0 3.436360 1_555
Mg9 Zn0 3.312338 1_556
Mg9 Rb0 3.436360 1_556
Mg10 Mg2 3.226351 1_555
Mg10 Mg4 3.226358 1_545
Mg10 Zn0 3.251910 1_655
Mg10 Mg8 3.256583 1_655
Mg10 Mg6 3.256583 1_655
Mg10 Mg12 3.279662 1_545
Mg10 Mg12 3.279662 1_555
Mg10 Mg8 3.332773 1_545
Mg10 Mg6 3.332773 1_555
Mg10 Mg3 3.355595 1_555
Mg10 Mg5 3.355601 1_545
Mg11 Mg2 3.226351 1_556
Mg11 Mg4 3.226358 1_546
Mg11 Zn0 3.251910 1_656
Mg11 Mg9 3.256583 1_655
Mg11 Mg7 3.256583 1_655
Mg11 Mg13 3.279662 1_545
Mg11 Mg13 3.279662 1_555
Mg11 Mg9 3.332773 1_545
Mg11 Mg7 3.332773 1_555
Mg11 Mg3 3.355595 1_555
Mg11 Mg5 3.355601 1_545
Mg12 Mg5 3.095334 1_555
Mg12 Mg3 3.095341 1_555
Mg12 Mg6 3.162328 1_555
Mg12 Mg8 3.162329 1_555
Mg12 Mg4 3.385143 1_555
Mg12 Mg2 3.385149 1_555
Mg12 Mg6 3.403657 1_665
Mg12 Mg8 3.403658 1_655
Mg12 Rb0 3.433316 1_655
Mg13 Mg5 3.095334 1_555
Mg13 Mg3 3.095341 1_555
Mg13 Mg7 3.162328 1_555
Mg13 Mg9 3.162329 1_555
Mg13 Mg4 3.385143 1_556
Mg13 Mg2 3.385149 1_556
Mg13 Mg7 3.403657 1_665
Mg13 Mg9 3.403658 1_655
Mg13 Rb0 3.433316 1_656
