# generated using pymatgen
data_KPSO2
_symmetry_space_group_name_H-M   'P 1'
_cell_length_a   8.19049400
_cell_length_b   11.34433300
_cell_length_c   13.86995600
_cell_angle_alpha   90.00000000
_cell_angle_beta   90.00000000
_cell_angle_gamma   90.00000000
_symmetry_Int_Tables_number   1
_chemical_formula_structural   KPSO2
_chemical_formula_sum   'K12 P12 S12 O24'
_cell_volume   1288.73655102
_cell_formula_units_Z   12
loop_
 _symmetry_equiv_pos_site_id
 _symmetry_equiv_pos_as_xyz
  1  'x, y, z'
loop_
 _atom_site_type_symbol
 _atom_site_label
 _atom_site_symmetry_multiplicity
 _atom_site_fract_x
 _atom_site_fract_y
 _atom_site_fract_z
 _atom_site_occupancy
  K  K0  1  0.32439700  0.91831300  0.17394700  1
  K  K1  1  0.67560300  0.08168700  0.67394700  1
  K  K2  1  0.82439700  0.58168700  0.67394700  1
  K  K3  1  0.17560300  0.41831300  0.17394700  1
  K  K4  1  0.31503900  0.92196800  0.83003000  1
  K  K5  1  0.68496100  0.07803200  0.33003000  1
  K  K6  1  0.81503900  0.57803200  0.33003000  1
  K  K7  1  0.18496100  0.42196800  0.83003000  1
  K  K8  1  0.18786300  0.00520300  0.50293400  1
  K  K9  1  0.81213700  0.99479700  0.00293400  1
  K  K10  1  0.68786300  0.49479700  0.00293400  1
  K  K11  1  0.31213700  0.50520300  0.50293400  1
  P  P0  1  0.48174800  0.79279100  0.39479600  1
  P  P1  1  0.51825200  0.20720900  0.89479600  1
  P  P2  1  0.98174800  0.70720900  0.89479600  1
  P  P3  1  0.01825200  0.29279100  0.39479600  1
  P  P4  1  0.29393900  0.66302600  0.00240200  1
  P  P5  1  0.70606100  0.33697400  0.50240200  1
  P  P6  1  0.79393900  0.83697400  0.50240200  1
  P  P7  1  0.20606100  0.16302600  0.00240200  1
  P  P8  1  0.48380500  0.79091800  0.61119600  1
  P  P9  1  0.51619500  0.20908200  0.11119600  1
  P  P10  1  0.98380500  0.70908200  0.11119600  1
  P  P11  1  0.01619500  0.29091800  0.61119600  1
  S  S0  1  0.49769000  0.75321100  0.00022800  1
  S  S1  1  0.50231000  0.24678900  0.50022800  1
  S  S2  1  0.99769000  0.74678900  0.50022800  1
  S  S3  1  0.00231000  0.25321100  0.00022800  1
  S  S4  1  0.43160200  0.66148400  0.69910900  1
  S  S5  1  0.56839800  0.33851600  0.19910900  1
  S  S6  1  0.93160200  0.83851600  0.19910900  1
  S  S7  1  0.06839800  0.16148400  0.69910900  1
  S  S8  1  0.42676900  0.66495700  0.30598400  1
  S  S9  1  0.57323100  0.33504300  0.80598400  1
  S  S10  1  0.92676900  0.83504300  0.80598400  1
  S  S11  1  0.07323100  0.16495700  0.30598400  1
  O  O0  1  0.41759300  0.75516200  0.50293500  1
  O  O1  1  0.58240700  0.24483800  0.00293500  1
  O  O2  1  0.91759300  0.74483800  0.00293500  1
  O  O3  1  0.08240700  0.25516200  0.50293500  1
  O  O4  1  0.07175500  0.41667200  0.37174000  1
  O  O5  1  0.92824500  0.58332800  0.87174000  1
  O  O6  1  0.57175500  0.08332800  0.87174000  1
  O  O7  1  0.42824500  0.91667200  0.37174000  1
  O  O8  1  0.42935100  0.91435300  0.63518900  1
  O  O9  1  0.57064900  0.08564700  0.13518900  1
  O  O10  1  0.92935100  0.58564700  0.13518900  1
  O  O11  1  0.07064900  0.41435300  0.63518900  1
  O  O12  1  0.19872600  0.03077100  0.00339400  1
  O  O13  1  0.80127400  0.96922900  0.50339400  1
  O  O14  1  0.69872600  0.46922900  0.50339400  1
  O  O15  1  0.30127400  0.53077100  0.00339400  1
  O  O16  1  0.31944900  0.20904400  0.91160600  1
  O  O17  1  0.68055100  0.79095600  0.41160600  1
  O  O18  1  0.81944900  0.29095600  0.41160600  1
  O  O19  1  0.18055100  0.70904400  0.91160600  1
  O  O20  1  0.31735400  0.21017200  0.09381000  1
  O  O21  1  0.68264600  0.78982800  0.59381000  1
  O  O22  1  0.81735400  0.28982800  0.59381000  1
  O  O23  1  0.18264600  0.71017200  0.09381000  1
loop_
_geom_bond_atom_site_label_1
_geom_bond_atom_site_label_2
_geom_bond_distance
_geom_bond_site_symmetry_2
K0 O9 2.821433 1_565
K0 O23 2.856350 1_555
K0 O7 2.872272 1_555
K0 O12 2.878007 1_565
K1 O8 2.821433 1_545
K1 O22 2.856350 1_555
K1 O6 2.872272 1_555
K1 O13 2.878007 1_545
K2 O11 2.821433 1_655
K2 O21 2.856350 1_555
K2 O5 2.872272 1_555
K2 O14 2.878007 1_555
K3 O10 2.821433 1_455
K3 O20 2.856350 1_555
K3 O4 2.872272 1_555
K3 O15 2.878007 1_555
K4 O6 2.847200 1_565
K4 O8 2.861333 1_555
K4 O12 2.865819 1_566
K4 O19 2.885843 1_555
K5 O7 2.847200 1_545
K5 O9 2.861333 1_555
K5 O13 2.865819 1_545
K5 O18 2.885843 1_555
K6 O4 2.847200 1_655
K6 O10 2.861333 1_555
K6 O14 2.865819 1_555
K6 O17 2.885843 1_555
K7 O5 2.847200 1_455
K7 O11 2.861333 1_555
K7 O15 2.865819 1_556
K7 O16 2.885843 1_555
K8 O7 2.862896 1_545
K8 O8 2.887773 1_545
K8 O3 2.964249 1_555
K8 O13 3.192552 1_445
K8 S2 3.319858 1_445
K8 S7 3.391771 1_555
K8 S11 3.409997 1_555
K9 O6 2.862896 1_564
K9 O9 2.887773 1_565
K9 O2 2.964249 1_555
K9 O12 3.192552 1_665
K9 S3 3.319858 1_665
K9 S6 3.391771 1_555
K9 S10 3.409997 1_554
K10 O5 2.862896 1_554
K10 O10 2.887773 1_555
K10 O1 2.964249 1_555
K10 O15 3.192552 1_555
K10 S0 3.319858 1_555
K10 S5 3.391771 1_555
K10 S9 3.409997 1_554
K11 O4 2.862896 1_555
K11 O11 2.887773 1_555
K11 O0 2.964249 1_555
K11 O14 3.192552 1_555
K11 S1 3.319858 1_555
K11 S4 3.391771 1_555
K11 S8 3.409997 1_555
P0 S8 1.955302 1_555
P1 S9 1.955302 1_555
P2 S10 1.955302 1_555
P3 S11 1.955302 1_555
P4 S0 1.957699 1_555
P5 S1 1.957699 1_555
P6 S2 1.957699 1_555
P7 S3 1.957699 1_555
P8 S4 1.955929 1_555
P9 S5 1.955929 1_555
P10 S6 1.955929 1_555
P11 S7 1.955929 1_555
O0 P0 1.645595 1_555
O0 P8 1.647228 1_555
O1 P1 1.645595 1_554
O1 P9 1.647228 1_555
O2 P2 1.645595 1_554
O2 P10 1.647228 1_555
O3 P3 1.645595 1_555
O3 P11 1.647228 1_555
O4 P3 1.506419 1_555
O5 P2 1.506419 1_555
O6 P1 1.506419 1_555
O7 P0 1.506419 1_555
O8 P8 1.506808 1_555
O9 P9 1.506808 1_555
O10 P10 1.506808 1_555
O11 P11 1.506808 1_555
O12 P7 1.501610 1_555
O13 P6 1.501610 1_555
O14 P5 1.501610 1_555
O15 P4 1.501610 1_555
O16 P1 1.645034 1_555
O16 P7 1.649530 1_556
O17 P0 1.645034 1_555
O17 P6 1.649530 1_555
O18 P3 1.645034 1_655
O18 P5 1.649530 1_555
O19 P2 1.645034 1_455
O19 P4 1.649530 1_556
O20 P9 1.646408 1_555
O20 P7 1.650560 1_555
O21 P8 1.646408 1_555
O21 P6 1.650560 1_555
O22 P11 1.646408 1_655
O22 P5 1.650560 1_555
O23 P10 1.646408 1_455
O23 P4 1.650560 1_555
