# generated using pymatgen
data_LiCoPO4
_symmetry_space_group_name_H-M   'P 1'
_cell_length_a   4.96747479
_cell_length_b   8.65101599
_cell_length_c   8.71963213
_cell_angle_alpha   110.61450047
_cell_angle_beta   91.32865147
_cell_angle_gamma   91.18755166
_symmetry_Int_Tables_number   1
_chemical_formula_structural   LiCoPO4
_chemical_formula_sum   'Li4 Co4 P4 O16'
_cell_volume   350.46062717
_cell_formula_units_Z   4
loop_
 _symmetry_equiv_pos_site_id
 _symmetry_equiv_pos_as_xyz
  1  'x, y, z'
loop_
 _atom_site_type_symbol
 _atom_site_label
 _atom_site_symmetry_multiplicity
 _atom_site_fract_x
 _atom_site_fract_y
 _atom_site_fract_z
 _atom_site_occupancy
  Li  Li0  1  0.03110400  0.50433800  0.46594100  1
  Li  Li1  1  0.53111800  0.50430600  0.96594900  1
  Li  Li2  1  0.96239000  0.00431000  0.03473700  1
  Li  Li3  1  0.46241400  0.00432400  0.53471100  1
  Co  Co0  1  0.97422600  0.24897100  0.77944200  1
  Co  Co1  1  0.03167700  0.74906600  0.22186800  1
  Co  Co2  1  0.47417300  0.24899600  0.27943800  1
  Co  Co3  1  0.53167700  0.74905700  0.72187700  1
  P  P0  1  0.97339900  0.12637900  0.40403800  1
  P  P1  1  0.47342200  0.12636700  0.90403500  1
  P  P2  1  0.52956700  0.62634900  0.34787700  1
  P  P3  1  0.02955800  0.62633200  0.84786600  1
  O  O0  1  0.29718200  0.15847400  0.05673100  1
  O  O1  1  0.79721800  0.15844500  0.55673900  1
  O  O2  1  0.65453700  0.65834600  0.19942100  1
  O  O3  1  0.15451500  0.65832500  0.69940900  1
  O  O4  1  0.78083500  0.09618000  0.25221000  1
  O  O5  1  0.28094500  0.09618300  0.75219800  1
  O  O6  1  0.22067300  0.59624000  0.31247200  1
  O  O7  1  0.72065500  0.59621400  0.81245700  1
  O  O8  1  0.16729000  0.27803700  0.43049600  1
  O  O9  1  0.66736500  0.27800400  0.93052000  1
  O  O10  1  0.09050300  0.77804100  0.00736700  1
  O  O11  1  0.59052000  0.77805200  0.50739200  1
  O  O12  1  0.64988400  0.47276300  0.37451400  1
  O  O13  1  0.14986300  0.47274900  0.87450700  1
  O  O14  1  0.15025000  0.97279000  0.37412900  1
  O  O15  1  0.65020400  0.97275600  0.87417700  1
loop_
_geom_bond_atom_site_label_1
_geom_bond_atom_site_label_2
_geom_bond_distance
_geom_bond_site_symmetry_2
Li0 O8 2.006097 1_555
Li0 O12 2.012826 1_455
Li0 O6 2.021434 1_555
Li0 O3 2.072048 1_555
Li1 O9 2.006240 1_555
Li1 O13 2.013034 1_555
Li1 O7 2.021553 1_555
Li1 O2 2.072218 1_556
Li2 O10 2.005822 1_645
Li2 O15 2.012995 1_544
Li2 O4 2.022054 1_555
Li2 O0 2.072304 1_655
Li3 O11 2.005931 1_545
Li3 O14 2.013055 1_545
Li3 O5 2.021943 1_555
Li3 O1 2.072084 1_555
Co0 O13 1.990612 1_655
Co0 O1 1.994690 1_555
Co0 O9 1.999513 1_555
Co0 O5 2.001021 1_655
Co1 O14 1.990632 1_555
Co1 O2 1.994464 1_455
Co1 O10 1.999737 1_555
Co1 O6 2.001514 1_555
Co2 O12 1.990691 1_555
Co2 O0 1.994683 1_555
Co2 O8 1.999482 1_555
Co2 O4 2.000968 1_555
Co3 O15 1.990522 1_555
Co3 O3 1.994590 1_555
Co3 O11 1.999692 1_555
Co3 O7 2.001461 1_555
O0 P1 1.555662 1_554
O1 P0 1.555564 1_555
O2 P2 1.555679 1_555
O3 P3 1.555644 1_555
O4 P0 1.556693 1_555
O5 P1 1.556517 1_555
O6 P2 1.556422 1_555
O7 P3 1.556476 1_655
O8 P0 1.557688 1_455
O9 P1 1.557663 1_555
O10 P3 1.557925 1_554
O11 P2 1.557976 1_555
O12 P2 1.555738 1_555
O13 P3 1.555706 1_555
O14 P0 1.555710 1_465
O15 P1 1.555716 1_565
