# generated using pymatgen
data_Li4Mn3O7
_symmetry_space_group_name_H-M   'P 1'
_cell_length_a   2.99786400
_cell_length_b   9.77679660
_cell_length_c   9.95167051
_cell_angle_alpha   115.73998040
_cell_angle_beta   94.31499673
_cell_angle_gamma   96.10159007
_symmetry_Int_Tables_number   1
_chemical_formula_structural   Li4Mn3O7
_chemical_formula_sum   'Li8 Mn6 O14'
_cell_volume   258.83721619
_cell_formula_units_Z   2
loop_
 _symmetry_equiv_pos_site_id
 _symmetry_equiv_pos_as_xyz
  1  'x, y, z'
loop_
 _atom_site_type_symbol
 _atom_site_label
 _atom_site_symmetry_multiplicity
 _atom_site_fract_x
 _atom_site_fract_y
 _atom_site_fract_z
 _atom_site_occupancy
  Li  Li0  1  0.85452600  0.72774400  0.94000300  1
  Li  Li1  1  0.14547400  0.27225600  0.05999700  1
  Li  Li2  1  0.44236900  0.86115500  0.20570300  1
  Li  Li3  1  0.70936600  0.42611500  0.35743000  1
  Li  Li4  1  0.00000000  0.00000000  0.50000000  1
  Li  Li5  1  0.29063400  0.57388500  0.64257000  1
  Li  Li6  1  0.55763100  0.13884500  0.79429700  1
  Li  Li7  1  0.50000000  0.00000000  0.00000000  1
  Mn  Mn0  1  0.92577900  0.86414100  0.72518300  1
  Mn  Mn1  1  0.07422100  0.13585900  0.27481700  1
  Mn  Mn2  1  0.21535600  0.42814700  0.85596300  1
  Mn  Mn3  1  0.78464400  0.57185300  0.14403700  1
  Mn  Mn4  1  0.34806900  0.71201700  0.43128100  1
  Mn  Mn5  1  0.65193100  0.28798300  0.56871900  1
  O  O0  1  0.42197400  0.79708800  0.80704200  1
  O  O1  1  0.64808900  0.36693500  0.96934100  1
  O  O2  1  0.96354500  0.94170300  0.12183300  1
  O  O3  1  0.21760300  0.50889400  0.25391000  1
  O  O4  1  0.57214400  0.08595100  0.38546300  1
  O  O5  1  0.79165500  0.65591700  0.54222300  1
  O  O6  1  0.08282900  0.22355700  0.67732400  1
  O  O7  1  0.35191100  0.63306500  0.03065900  1
  O  O8  1  0.57802600  0.20291200  0.19295800  1
  O  O9  1  0.91717100  0.77644300  0.32267600  1
  O  O10  1  0.20834500  0.34408300  0.45777700  1
  O  O11  1  0.42785600  0.91404900  0.61453700  1
  O  O12  1  0.78239700  0.49110600  0.74609000  1
  O  O13  1  0.03645500  0.05829700  0.87816700  1
loop_
_geom_bond_atom_site_label_1
_geom_bond_atom_site_label_2
_geom_bond_distance
_geom_bond_site_symmetry_2
Li0 O2 2.057877 1_556
Li0 O7 2.138817 1_556
Li0 O0 2.144721 1_555
Li0 O7 2.170361 1_656
Li0 O12 2.253064 1_555
Li0 O0 2.444793 1_655
Li1 O13 2.057877 1_554
Li1 O1 2.138817 1_554
Li1 O8 2.144721 1_555
Li1 O1 2.170361 1_454
Li1 O3 2.253064 1_555
Li1 O8 2.444793 1_455
Li2 O2 2.002056 1_455
Li2 O2 2.064826 1_555
Li2 O4 2.116695 1_565
Li2 O7 2.123012 1_555
Li2 O9 2.214887 1_555
Li2 O9 2.314295 1_455
Li3 O8 2.052827 1_555
Li3 O10 2.135818 1_555
Li3 O10 2.145691 1_655
Li3 O3 2.153821 1_555
Li3 O5 2.171577 1_555
Li3 O3 2.176228 1_655
Li4 O9 2.102731 1_445
Li4 O6 2.102731 1_555
Li4 O11 2.119351 1_545
Li4 O4 2.119351 1_455
Li4 O4 2.401470 1_555
Li4 O11 2.401470 1_445
Li5 O0 2.052827 1_555
Li5 O5 2.135818 1_555
Li5 O5 2.145691 1_455
Li5 O12 2.153821 1_555
Li5 O10 2.171577 1_555
Li5 O12 2.176228 1_455
Li6 O13 2.002056 1_655
Li6 O13 2.064826 1_555
Li6 O11 2.116695 1_545
Li6 O1 2.123012 1_555
Li6 O6 2.214887 1_555
Li6 O6 2.314295 1_655
Li7 O0 2.050032 1_544
Li7 O8 2.050032 1_555
Li7 O13 2.059378 1_554
Li7 O2 2.059378 1_545
Li7 O13 2.253889 1_654
Li7 O2 2.253889 1_445
Mn0 O13 1.819656 1_665
Mn0 O0 1.948059 1_655
Mn0 O0 1.952699 1_555
Mn0 O11 2.013175 1_555
Mn0 O5 2.029162 1_555
Mn0 O11 2.067843 1_655
Mn1 O2 1.819656 1_445
Mn1 O8 1.948059 1_455
Mn1 O8 1.952699 1_555
Mn1 O4 2.013175 1_555
Mn1 O10 2.029162 1_555
Mn1 O4 2.067843 1_455
Mn2 O12 1.949359 1_455
Mn2 O1 1.960973 1_555
Mn2 O7 1.974106 1_556
Mn2 O6 1.988816 1_555
Mn2 O12 2.259646 1_555
Mn2 O1 2.276422 1_455
Mn3 O3 1.949359 1_655
Mn3 O7 1.960973 1_555
Mn3 O1 1.974106 1_554
Mn3 O9 1.988816 1_555
Mn3 O3 2.259646 1_555
Mn3 O7 2.276422 1_655
Mn4 O5 1.936042 1_555
Mn4 O9 1.946212 1_455
Mn4 O3 1.974529 1_555
Mn4 O11 1.997434 1_555
Mn4 O5 2.216028 1_455
Mn4 O9 2.261848 1_555
Mn5 O10 1.936042 1_555
Mn5 O6 1.946212 1_655
Mn5 O12 1.974529 1_555
Mn5 O4 1.997434 1_555
Mn5 O10 2.216028 1_655
Mn5 O6 2.261848 1_555
