# generated using pymatgen
data_Nb2Co4O9
_symmetry_space_group_name_H-M   'P 1'
_cell_length_a   5.21538870
_cell_length_b   5.22624763
_cell_length_c   14.31858748
_cell_angle_alpha   89.95136189
_cell_angle_beta   89.64674681
_cell_angle_gamma   59.95610690
_symmetry_Int_Tables_number   1
_chemical_formula_structural   Nb2Co4O9
_chemical_formula_sum   'Nb4 Co8 O18'
_cell_volume   337.83567753
_cell_formula_units_Z   2
loop_
 _symmetry_equiv_pos_site_id
 _symmetry_equiv_pos_as_xyz
  1  'x, y, z'
loop_
 _atom_site_type_symbol
 _atom_site_label
 _atom_site_symmetry_multiplicity
 _atom_site_fract_x
 _atom_site_fract_y
 _atom_site_fract_z
 _atom_site_occupancy
  Nb  Nb0  1  0.99679100  0.00106900  0.64159400  1
  Nb  Nb1  1  0.00346200  0.00118200  0.85751700  1
  Nb  Nb2  1  0.00236600  0.99724300  0.35877900  1
  Nb  Nb3  1  0.99803000  0.00242600  0.14295100  1
  Co  Co0  1  0.33486500  0.33466200  0.01537100  1
  Co  Co1  1  0.66921500  0.66639800  0.98490300  1
  Co  Co2  1  0.66631400  0.66749800  0.69445300  1
  Co  Co3  1  0.33126500  0.33415400  0.30545100  1
  Co  Co4  1  0.66629600  0.66840100  0.48778700  1
  Co  Co5  1  0.33256200  0.33286800  0.51404500  1
  Co  Co6  1  0.32876100  0.33608300  0.81039300  1
  Co  Co7  1  0.66305600  0.66345000  0.18845300  1
  O  O0  1  0.71127700  0.29104300  0.25046000  1
  O  O1  1  0.99686400  0.71103300  0.24947600  1
  O  O2  1  0.29069000  0.99921600  0.25013200  1
  O  O3  1  0.28838000  0.70936100  0.74945300  1
  O  O4  1  0.00145800  0.28769100  0.74940500  1
  O  O5  1  0.70516800  0.00260000  0.75055400  1
  O  O6  1  0.34284400  0.97759000  0.58367700  1
  O  O7  1  0.67807100  0.34310000  0.58329100  1
  O  O8  1  0.97711300  0.67825100  0.58414400  1
  O  O9  1  0.32201900  0.02136100  0.91706200  1
  O  O10  1  0.02556400  0.65369200  0.91504600  1
  O  O11  1  0.65930000  0.32197900  0.91592700  1
  O  O12  1  0.65816900  0.01972000  0.41650900  1
  O  O13  1  0.32359300  0.65513400  0.41602000  1
  O  O14  1  0.02198500  0.32124500  0.41588800  1
  O  O15  1  0.67961900  0.97978100  0.08351400  1
  O  O16  1  0.97871100  0.34323300  0.08344600  1
  O  O17  1  0.34619200  0.67853700  0.08429900  1
loop_
_geom_bond_atom_site_label_1
_geom_bond_atom_site_label_2
_geom_bond_distance
_geom_bond_site_symmetry_2
Nb0 O7 1.922131 1_555
Nb0 O8 1.926234 1_545
Nb0 O6 1.928742 1_645
Nb0 O4 2.160644 1_655
Nb0 O5 2.169317 1_555
Nb0 O3 2.173817 1_645
Nb1 O9 1.921291 1_555
Nb1 O11 1.924240 1_455
Nb1 O10 1.943951 1_545
Nb1 O4 2.149221 1_555
Nb1 O3 2.152829 1_545
Nb1 O5 2.187192 1_455
Nb2 O12 1.921005 1_465
Nb2 O13 1.921016 1_555
Nb2 O14 1.929592 1_565
Nb2 O2 2.160568 1_555
Nb2 O1 2.176049 1_455
Nb2 O0 2.181464 1_465
Nb3 O15 1.926242 1_545
Nb3 O16 1.930635 1_555
Nb3 O17 1.942580 1_645
Nb3 O0 2.144351 1_555
Nb3 O1 2.156607 1_545
Nb3 O2 2.165277 1_645
Co0 O16 2.072870 1_455
Co0 O15 2.074645 1_545
Co0 O17 2.077846 1_555
Co0 O11 2.180154 1_554
Co0 O10 2.185648 1_554
Co0 O9 2.186760 1_554
Co1 O10 2.076667 1_655
Co1 O11 2.077264 1_555
Co1 O9 2.078202 1_565
Co1 O17 2.175156 1_556
Co1 O16 2.177870 1_556
Co1 O15 2.184698 1_556
Co2 O3 2.025468 1_555
Co2 O5 2.028110 1_565
Co2 O4 2.038270 1_655
Co2 O8 2.277018 1_555
Co2 O6 2.297677 1_555
Co2 O7 2.304523 1_555
Co3 O2 2.027724 1_545
Co3 O0 2.032891 1_555
Co3 O1 2.034315 1_455
Co3 O14 2.276888 1_555
Co3 O13 2.293184 1_555
Co3 O12 2.315064 1_555
Co4 O12 2.081835 1_565
Co4 O13 2.098137 1_555
Co4 O14 2.098176 1_655
Co4 O6 2.141890 1_555
Co4 O8 2.155275 1_555
Co4 O7 2.157933 1_555
Co5 O8 2.081284 1_455
Co5 O6 2.083833 1_545
Co5 O7 2.086055 1_555
Co5 O12 2.168957 1_555
Co5 O13 2.174121 1_555
Co5 O14 2.174732 1_555
Co6 O5 2.044828 1_555
Co6 O4 2.047312 1_555
Co6 O3 2.049270 1_555
Co6 O10 2.201805 1_555
Co6 O9 2.256642 1_555
Co6 O11 2.272738 1_555
Co7 O0 2.036977 1_555
Co7 O2 2.049355 1_555
Co7 O1 2.075767 1_555
Co7 O17 2.204769 1_555
Co7 O16 2.233066 1_555
Co7 O15 2.266172 1_555
