# generated using pymatgen
data_DyNbO4
_symmetry_space_group_name_H-M   'P 1'
_cell_length_a   5.43877340
_cell_length_b   5.12420212
_cell_length_c   5.32909843
_cell_angle_alpha   84.42352727
_cell_angle_beta   90.00000000
_cell_angle_gamma   90.00000000
_symmetry_Int_Tables_number   1
_chemical_formula_structural   DyNbO4
_chemical_formula_sum   'Dy2 Nb2 O8'
_cell_volume   147.81575671
_cell_formula_units_Z   2
loop_
 _symmetry_equiv_pos_site_id
 _symmetry_equiv_pos_as_xyz
  1  'x, y, z'
loop_
 _atom_site_type_symbol
 _atom_site_label
 _atom_site_symmetry_multiplicity
 _atom_site_fract_x
 _atom_site_fract_y
 _atom_site_fract_z
 _atom_site_occupancy
  Dy  Dy0  1  0.24099003  0.00000000  0.75000000  1
  Dy  Dy1  1  0.75900997  0.00000000  0.25000000  1
  Nb  Nb0  1  0.70568133  0.50000000  0.75000000  1
  Nb  Nb1  1  0.29431867  0.50000000  0.25000000  1
  O  O0  1  0.92418236  0.25142384  0.90821487  1
  O  O1  1  0.44091940  0.26200746  0.01901586  1
  O  O2  1  0.44091940  0.73799254  0.48098414  1
  O  O3  1  0.92418236  0.74857616  0.59178513  1
  O  O4  1  0.07581764  0.25142384  0.40821487  1
  O  O5  1  0.55908060  0.26200746  0.51901586  1
  O  O6  1  0.55908060  0.73799254  0.98098414  1
  O  O7  1  0.07581764  0.74857616  0.09178513  1
loop_
_geom_bond_atom_site_label_1
_geom_bond_atom_site_label_2
_geom_bond_distance
_geom_bond_site_symmetry_2
Dy0 O4 2.308312 1_555
Dy0 O7 2.308312 1_546
Dy0 O2 2.326845 1_545
Dy0 O1 2.326845 1_556
Dy0 O0 2.355997 1_455
Dy0 O3 2.355997 1_445
Dy0 O6 2.447349 1_545
Dy0 O5 2.447349 1_555
Dy1 O3 2.308312 1_545
Dy1 O0 2.308312 1_554
Dy1 O6 2.326845 1_544
Dy1 O5 2.326845 1_555
Dy1 O7 2.355997 1_645
Dy1 O4 2.355997 1_655
Dy1 O2 2.447349 1_545
Dy1 O1 2.447349 1_555
Nb0 O0 1.880654 1_555
Nb0 O3 1.880654 1_555
Nb0 O5 1.982402 1_555
Nb0 O6 1.982402 1_555
Nb0 O2 2.297006 1_555
Nb0 O1 2.297006 1_556
Nb1 O4 1.880654 1_555
Nb1 O7 1.880654 1_555
Nb1 O1 1.982402 1_555
Nb1 O2 1.982402 1_555
Nb1 O5 2.297006 1_555
Nb1 O6 2.297006 1_554
