# generated using pymatgen
data_CaLaFeWO6
_symmetry_space_group_name_H-M   'P 1'
_cell_length_a   5.62629000
_cell_length_b   8.00600861
_cell_length_c   5.77948690
_cell_angle_alpha   89.72228699
_cell_angle_beta   91.64669371
_cell_angle_gamma   89.33359390
_symmetry_Int_Tables_number   1
_chemical_formula_structural   CaLaFeWO6
_chemical_formula_sum   'Ca2 La2 Fe2 W2 O12'
_cell_volume   260.20332979
_cell_formula_units_Z   2
loop_
 _symmetry_equiv_pos_site_id
 _symmetry_equiv_pos_as_xyz
  1  'x, y, z'
loop_
 _atom_site_type_symbol
 _atom_site_label
 _atom_site_symmetry_multiplicity
 _atom_site_fract_x
 _atom_site_fract_y
 _atom_site_fract_z
 _atom_site_occupancy
  Ca  Ca0  1  0.52386500  0.25284500  0.55270000  1
  Ca  Ca1  1  0.01757000  0.75298600  0.94783900  1
  La  La0  1  0.98500100  0.24608600  0.04711500  1
  La  La1  1  0.47653800  0.74657700  0.45150200  1
  Fe  Fe0  1  0.49867800  0.50026800  0.00039400  1
  Fe  Fe1  1  0.99836800  0.00097000  0.50091100  1
  W  W0  1  0.99943600  0.49905900  0.50312500  1
  W  W1  1  0.50103200  0.99847000  0.99688400  1
  O  O0  1  0.60645600  0.76669900  0.03013400  1
  O  O1  1  0.10578700  0.26726900  0.46971000  1
  O  O2  1  0.21310700  0.94876100  0.19339200  1
  O  O3  1  0.70557800  0.44944700  0.29972500  1
  O  O4  1  0.19156100  0.56070700  0.21849700  1
  O  O5  1  0.69980200  0.05911900  0.28936900  1
  O  O6  1  0.89996700  0.73335900  0.53712000  1
  O  O7  1  0.40125400  0.23312300  0.96279400  1
  O  O8  1  0.29097800  0.55152900  0.70816200  1
  O  O9  1  0.78539500  0.05157300  0.79841400  1
  O  O10  1  0.29645900  0.94112600  0.70858800  1
  O  O11  1  0.80316700  0.44002900  0.78362600  1
loop_
_geom_bond_atom_site_label_1
_geom_bond_atom_site_label_2
_geom_bond_distance
_geom_bond_site_symmetry_2
Ca0 O1 2.388445 1_555
Ca0 O3 2.400287 1_555
Ca0 O5 2.403196 1_555
Ca0 O7 2.492232 1_555
Ca0 O11 2.539700 1_555
Ca0 O9 2.565339 1_555
Ca0 O8 2.873657 1_555
Ca0 O10 2.965735 1_545
Ca1 O4 2.372451 1_556
Ca1 O0 2.376191 1_456
Ca1 O2 2.377600 1_556
Ca1 O6 2.452127 1_455
Ca1 O10 2.608136 1_555
Ca1 O8 2.640613 1_555
Ca1 O9 2.830042 1_465
Ca1 O11 2.942982 1_455
La0 O11 2.372160 1_554
La0 O9 2.392058 1_554
La0 O7 2.406963 1_654
La0 O1 2.523316 1_655
La0 O5 2.634451 1_555
La0 O3 2.710936 1_555
La0 O2 2.806263 1_645
La0 O4 2.949998 1_655
La1 O10 2.394252 1_555
La1 O8 2.415215 1_555
La1 O6 2.420216 1_555
La1 O4 2.559188 1_555
La1 O0 2.567515 1_555
La1 O2 2.614555 1_555
La1 O3 2.846537 1_555
La1 O5 2.972385 1_565
Fe0 O8 2.062827 1_554
Fe0 O3 2.092815 1_555
Fe0 O11 2.201582 1_554
Fe0 O4 2.218206 1_555
Fe0 O7 2.224168 1_554
Fe0 O0 2.230426 1_555
Fe1 O10 2.083998 1_645
Fe1 O5 2.095600 1_555
Fe1 O9 2.161061 1_555
Fe1 O2 2.216323 1_645
Fe1 O6 2.229461 1_545
Fe1 O1 2.230623 1_655
O0 W1 1.948396 1_554
O1 W0 1.955323 1_455
O2 W1 2.046661 1_554
O3 W0 2.044817 1_555
O4 W0 2.055438 1_455
O5 W1 2.062978 1_544
O6 W0 1.963652 1_555
O7 W1 1.961824 1_545
O8 W0 2.044611 1_455
O9 W1 2.042733 1_545
O10 W1 2.054571 1_555
O11 W0 2.044134 1_555
