# generated using pymatgen
data_HfZr2UC4
_symmetry_space_group_name_H-M   'P 1'
_cell_length_a   11.25456643
_cell_length_b   11.25456643
_cell_length_c   11.25456638
_cell_angle_alpha   17.17058552
_cell_angle_beta   17.17058552
_cell_angle_gamma   17.17058602
_symmetry_Int_Tables_number   1
_chemical_formula_structural   HfZr2UC4
_chemical_formula_sum   'Hf1 Zr2 U1 C4'
_cell_volume   108.40246517
_cell_formula_units_Z   1
loop_
 _symmetry_equiv_pos_site_id
 _symmetry_equiv_pos_as_xyz
  1  'x, y, z'
loop_
 _atom_site_type_symbol
 _atom_site_label
 _atom_site_symmetry_multiplicity
 _atom_site_fract_x
 _atom_site_fract_y
 _atom_site_fract_z
 _atom_site_occupancy
  Hf  Hf0  1  0.99646600  0.99646600  0.99646600  1
  Zr  Zr0  1  0.50346800  0.50346800  0.50346800  1
  Zr  Zr1  1  0.25034700  0.25034700  0.25034700  1
  U  U0  1  0.74959200  0.74959200  0.74959200  1
  C  C0  1  0.87591600  0.87591600  0.87591600  1
  C  C1  1  0.62555400  0.62555400  0.62555400  1
  C  C2  1  0.37266600  0.37266600  0.37266600  1
  C  C3  1  0.12599100  0.12599100  0.12599100  1
loop_
_geom_bond_atom_site_label_1
_geom_bond_atom_site_label_2
_geom_bond_distance
_geom_bond_site_symmetry_2
C0 Zr0 2.335798 1_556
C0 Zr0 2.335798 1_565
C0 Zr0 2.335798 1_655
C0 Zr1 2.373161 1_665
C0 Zr1 2.373161 1_656
C0 Zr1 2.373161 1_566
C1 Hf0 2.307737 1_554
C1 Hf0 2.307737 1_545
C1 Hf0 2.307737 1_455
C1 Zr1 2.388118 1_556
C1 Zr1 2.388118 1_565
C1 Zr1 2.388118 1_655
C2 Hf0 2.407527 1_445
C2 Hf0 2.407527 1_454
C2 Hf0 2.407527 1_544
C2 U0 2.421903 1_554
C2 U0 2.421903 1_455
C2 U0 2.421903 1_545
C3 U0 2.411452 1_445
C3 U0 2.411452 1_454
C3 U0 2.411452 1_544
C3 Zr0 2.432918 1_554
C3 Zr0 2.432918 1_455
C3 Zr0 2.432918 1_545
