# generated using pymatgen
data_Li2CoCuO4
_symmetry_space_group_name_H-M   'P 1'
_cell_length_a   5.05670154
_cell_length_b   5.91273256
_cell_length_c   5.06161593
_cell_angle_alpha   89.92204888
_cell_angle_beta   71.49775958
_cell_angle_gamma   90.58525579
_symmetry_Int_Tables_number   1
_chemical_formula_structural   Li2CoCuO4
_chemical_formula_sum   'Li4 Co2 Cu2 O8'
_cell_volume   143.50527818
_cell_formula_units_Z   2
loop_
 _symmetry_equiv_pos_site_id
 _symmetry_equiv_pos_as_xyz
  1  'x, y, z'
loop_
 _atom_site_type_symbol
 _atom_site_label
 _atom_site_symmetry_multiplicity
 _atom_site_fract_x
 _atom_site_fract_y
 _atom_site_fract_z
 _atom_site_occupancy
  Li  Li0  1  0.50103400  0.25540100  0.00220800  1
  Li  Li1  1  0.00282200  0.74565000  0.49773200  1
  Li  Li2  1  0.49738700  0.99961000  0.50318000  1
  Li  Li3  1  0.00400800  0.49974600  0.99652100  1
  Co  Co0  1  0.50085500  0.49933100  0.50281400  1
  Co  Co1  1  0.99970800  0.99959600  0.99985000  1
  Cu  Cu0  1  0.99492600  0.25444700  0.49148400  1
  Cu  Cu1  1  0.50482500  0.74663100  0.00612600  1
  O  O0  1  0.76036800  0.25096600  0.26864500  1
  O  O1  1  0.27804200  0.74987100  0.77068700  1
  O  O2  1  0.23570900  0.25548900  0.71598500  1
  O  O3  1  0.72478400  0.74272500  0.24558700  1
  O  O4  1  0.20283100  0.02824900  0.25217100  1
  O  O5  1  0.76204900  0.47334400  0.71410600  1
  O  O6  1  0.74917200  0.97273100  0.79677500  1
  O  O7  1  0.28148000  0.52621200  0.23612900  1
loop_
_geom_bond_atom_site_label_1
_geom_bond_atom_site_label_2
_geom_bond_distance
_geom_bond_site_symmetry_2
Li0 O5 2.065850 1_554
Li0 O7 2.098953 1_555
Li0 O4 2.102764 1_555
Li0 O0 2.159207 1_555
Li0 O6 2.160684 1_544
Li0 O2 2.265531 1_554
Li1 O7 2.068848 1_555
Li1 O5 2.093562 1_455
Li1 O4 2.126447 1_565
Li1 O6 2.132492 1_455
Li1 O3 2.178134 1_455
Li1 O1 2.250778 1_555
Li2 O1 2.062035 1_555
Li2 O0 2.083110 1_565
Li2 O2 2.083477 1_565
Li2 O3 2.102085 1_555
Li2 O6 2.249231 1_555
Li2 O4 2.251016 1_565
Li3 O1 2.088600 1_555
Li3 O2 2.111651 1_555
Li3 O0 2.111691 1_456
Li3 O7 2.130753 1_556
Li3 O3 2.136248 1_456
Li3 O5 2.161369 1_455
Co0 O5 1.952453 1_555
Co0 O7 2.007824 1_555
Co0 O3 2.018500 1_555
Co0 O2 2.019573 1_555
Co0 O0 2.083363 1_555
Co0 O1 2.091003 1_555
Co1 O6 1.873396 1_555
Co1 O4 1.882667 1_666
Co1 O1 2.125453 1_655
Co1 O0 2.126505 1_566
Co1 O3 2.154254 1_556
Co1 O2 2.155640 1_665
Cu0 O5 1.877374 1_555
Cu0 O0 1.878325 1_555
Cu0 O4 1.893723 1_655
Cu0 O2 1.910960 1_655
Cu0 O7 2.260615 1_655
Cu0 O6 2.332097 1_545
Cu1 O7 1.860294 1_555
Cu1 O3 1.887550 1_555
Cu1 O6 1.888962 1_554
Cu1 O1 1.898253 1_554
Cu1 O5 2.305831 1_554
Cu1 O4 2.346529 1_565
