# generated using pymatgen
data_Sm12Al5Fe14
_symmetry_space_group_name_H-M   'P 1'
_cell_length_a   8.79784264
_cell_length_b   9.36363642
_cell_length_c   9.42718738
_cell_angle_alpha   119.80532970
_cell_angle_beta   89.55864339
_cell_angle_gamma   90.02236321
_symmetry_Int_Tables_number   1
_chemical_formula_structural   Sm12Al5Fe14
_chemical_formula_sum   'Sm12 Al5 Fe14'
_cell_volume   673.85397319
_cell_formula_units_Z   1
loop_
 _symmetry_equiv_pos_site_id
 _symmetry_equiv_pos_as_xyz
  1  'x, y, z'
loop_
 _atom_site_type_symbol
 _atom_site_label
 _atom_site_symmetry_multiplicity
 _atom_site_fract_x
 _atom_site_fract_y
 _atom_site_fract_z
 _atom_site_occupancy
  Sm  Sm0  1  0.12111000  0.34627400  0.17346300  1
  Sm  Sm1  1  0.12188900  0.82760300  0.17458100  1
  Sm  Sm2  1  0.12569800  0.82524800  0.65084400  1
  Sm  Sm3  1  0.87889000  0.65372600  0.82653700  1
  Sm  Sm4  1  0.87811100  0.17239700  0.82541900  1
  Sm  Sm5  1  0.87430200  0.17475200  0.34915600  1
  Sm  Sm6  1  0.66704900  0.54246100  0.46198800  1
  Sm  Sm7  1  0.66695900  0.53821400  0.07841300  1
  Sm  Sm8  1  0.66654600  0.92053000  0.45768800  1
  Sm  Sm9  1  0.33295100  0.45753900  0.53801200  1
  Sm  Sm10  1  0.33304100  0.46178600  0.92158700  1
  Sm  Sm11  1  0.33345400  0.07947000  0.54231200  1
  Al  Al0  1  0.38754100  0.66511200  0.33108100  1
  Al  Al1  1  0.61245900  0.33488800  0.66891900  1
  Al  Al2  1  0.00000000  0.50000000  0.50000000  1
  Al  Al3  1  0.00000000  0.50000000  0.00000000  1
  Al  Al4  1  0.00000000  0.00000000  0.50000000  1
  Fe  Fe0  1  0.50000000  0.00000000  0.00000000  1
  Fe  Fe1  1  0.46681000  0.31304300  0.15778300  1
  Fe  Fe2  1  0.46662400  0.84327200  0.15461500  1
  Fe  Fe3  1  0.46594500  0.84336200  0.68643200  1
  Fe  Fe4  1  0.53319000  0.68695700  0.84221700  1
  Fe  Fe5  1  0.53337600  0.15672800  0.84538500  1
  Fe  Fe6  1  0.53405500  0.15663800  0.31356800  1
  Fe  Fe7  1  0.00000000  0.00000000  0.00000000  1
  Fe  Fe8  1  0.28620600  0.09488500  0.18976100  1
  Fe  Fe9  1  0.28151100  0.81726000  0.90878500  1
  Fe  Fe10  1  0.28154900  0.09121600  0.90960500  1
  Fe  Fe11  1  0.71379400  0.90511500  0.81023900  1
  Fe  Fe12  1  0.71848900  0.18274000  0.09121500  1
  Fe  Fe13  1  0.71845100  0.90878400  0.09039500  1
loop_
_geom_bond_atom_site_label_1
_geom_bond_atom_site_label_2
_geom_bond_distance
_geom_bond_site_symmetry_2
Sm0 Sm9 3.592696 1_555
Sm1 Sm11 3.607309 1_565
Sm2 Sm9 3.556016 1_555
Sm3 Sm6 3.592696 1_555
Sm4 Sm8 3.607309 1_545
Sm5 Sm8 3.527494 1_545
Sm5 Sm6 3.556016 1_555
Sm6 Sm9 3.212156 1_555
Sm6 Sm8 3.560428 1_555
Sm6 Sm7 3.596439 1_555
Sm7 Sm8 3.588182 1_555
Sm10 Sm11 3.588182 1_555
Sm10 Sm9 3.596439 1_555
Sm11 Sm8 3.197846 1_545
Sm11 Sm2 3.527494 1_545
Sm11 Sm9 3.560428 1_555
Al0 Fe1 2.941675 1_555
Al0 Fe2 2.962210 1_555
Al0 Fe3 2.993352 1_555
Al0 Sm7 3.197988 1_555
Al0 Sm6 3.216651 1_555
Al0 Sm8 3.220652 1_555
Al0 Sm10 3.388005 1_554
Al0 Sm11 3.398769 1_565
Al0 Sm9 3.401181 1_555
Al0 Sm2 3.470514 1_555
Al0 Sm1 3.498775 1_555
Al0 Sm0 3.500518 1_555
Al1 Fe4 2.941675 1_555
Al1 Fe5 2.962210 1_555
Al1 Fe6 2.993352 1_555
Al1 Sm10 3.197988 1_555
Al1 Sm9 3.216651 1_555
Al1 Sm11 3.220652 1_555
Al1 Sm7 3.388005 1_556
Al1 Sm8 3.398769 1_545
Al1 Sm6 3.401181 1_555
Al1 Sm5 3.470514 1_555
Al1 Sm4 3.498775 1_555
Al1 Sm3 3.500518 1_555
Al2 Sm3 2.868638 1_455
Al2 Sm0 2.868638 1_555
Al2 Sm2 2.869935 1_555
Al2 Sm5 2.869935 1_455
Al2 Sm9 3.004283 1_555
Al2 Sm6 3.004283 1_455
Al3 Sm3 2.872179 1_454
Al3 Sm0 2.872179 1_555
Al3 Sm1 2.876507 1_555
Al3 Sm4 2.876507 1_454
Al3 Sm7 2.994015 1_455
Al3 Sm10 2.994015 1_554
Al4 Sm1 2.862645 1_545
Al4 Sm4 2.862645 1_455
Al4 Sm2 2.874280 1_545
Al4 Sm5 2.874280 1_455
Al4 Sm11 3.006749 1_555
Al4 Sm8 3.006749 1_445
Fe0 Fe11 2.428354 1_544
Fe0 Fe8 2.428354 1_555
Fe0 Fe10 2.428883 1_554
Fe0 Fe13 2.428883 1_545
Fe0 Fe12 2.433616 1_555
Fe0 Fe9 2.433616 1_544
Fe0 Fe2 2.546370 1_545
Fe0 Fe5 2.546370 1_554
Fe0 Fe1 2.559188 1_555
Fe0 Fe4 2.559188 1_544
Fe0 Fe6 2.585048 1_555
Fe0 Fe3 2.585048 1_544
Fe1 Fe12 2.450478 1_555
Fe1 Fe6 2.608420 1_555
Fe1 Fe5 2.616765 1_554
Fe1 Fe8 2.718579 1_555
Fe1 Fe10 2.769450 1_554
Fe1 Sm0 3.052370 1_555
Fe1 Sm7 3.106620 1_555
Fe1 Sm6 3.145323 1_555
Fe1 Sm9 3.343806 1_555
Fe1 Sm10 3.377503 1_554
Fe2 Fe4 2.616765 1_554
Fe2 Fe6 2.616966 1_565
Fe2 Fe8 2.720085 1_565
Fe2 Fe9 2.753014 1_554
Fe2 Sm1 3.045307 1_555
Fe2 Sm7 3.118711 1_555
Fe2 Sm8 3.130795 1_555
Fe2 Sm10 3.347019 1_554
Fe2 Sm11 3.394502 1_565
Fe3 Fe4 2.608420 1_555
Fe3 Fe5 2.616966 1_565
Fe3 Fe9 2.746476 1_555
Fe3 Sm2 3.010069 1_555
Fe3 Sm6 3.092821 1_555
Fe3 Sm8 3.126708 1_555
Fe3 Sm11 3.332393 1_565
Fe3 Sm9 3.372723 1_555
Fe4 Fe9 2.450478 1_555
Fe4 Sm3 3.052370 1_555
Fe4 Sm10 3.106620 1_555
Fe4 Sm9 3.145323 1_555
Fe4 Sm6 3.343806 1_555
Fe4 Sm7 3.377503 1_556
Fe5 Sm4 3.045307 1_555
Fe5 Sm10 3.118711 1_555
Fe5 Sm11 3.130795 1_555
Fe5 Sm7 3.347019 1_556
Fe5 Sm8 3.394502 1_545
Fe6 Fe8 2.412188 1_555
Fe6 Sm5 3.010069 1_555
Fe6 Sm9 3.092821 1_555
Fe6 Sm11 3.126708 1_555
Fe6 Sm8 3.332393 1_545
Fe6 Sm6 3.372723 1_555
Fe7 Fe9 2.882551 1_544
Fe7 Fe8 2.969428 1_555
Fe7 Sm0 3.012586 1_555
Fe7 Sm3 3.012586 1_444
Fe7 Sm4 3.022274 1_454
Fe7 Sm1 3.022274 1_545
Fe7 Sm5 3.053829 1_455
Fe7 Sm2 3.053829 1_544
Fe8 Fe9 2.632887 1_544
Fe8 Sm1 2.831665 1_545
Fe8 Sm0 2.835470 1_555
Fe8 Sm9 3.378697 1_555
Fe8 Sm11 3.426067 1_555
Fe8 Sm5 3.840667 1_455
Fe9 Sm1 2.822188 1_556
Fe9 Sm2 2.833715 1_555
Fe9 Sm10 3.420609 1_555
Fe9 Sm9 3.469941 1_555
Fe9 Sm3 3.788261 1_455
Fe10 Fe5 2.449261 1_555
Fe10 Fe9 2.561391 1_545
Fe10 Fe8 2.624813 1_556
Fe10 Fe3 2.746040 1_545
Fe10 Sm0 2.815391 1_556
Fe10 Sm2 2.835919 1_545
Fe10 Fe7 2.877628 1_556
Fe10 Sm11 3.436118 1_555
Fe10 Sm10 3.444996 1_555
Fe10 Sm4 3.801453 1_455
Fe11 Fe3 2.412188 1_555
Fe11 Fe13 2.624813 1_556
Fe11 Fe12 2.632887 1_566
Fe11 Fe4 2.718579 1_555
Fe11 Fe5 2.720085 1_565
Fe11 Sm4 2.831665 1_565
Fe11 Sm3 2.835470 1_555
Fe11 Fe7 2.969428 1_666
Fe11 Sm6 3.378697 1_555
Fe11 Sm8 3.426067 1_555
Fe11 Sm2 3.840667 1_655
Fe12 Fe13 2.561391 1_545
Fe12 Fe6 2.746476 1_555
Fe12 Fe5 2.753014 1_554
Fe12 Sm4 2.822188 1_554
Fe12 Sm5 2.833715 1_555
Fe12 Fe7 2.882551 1_655
Fe12 Sm7 3.420609 1_555
Fe12 Sm6 3.469941 1_555
Fe12 Sm0 3.788261 1_655
Fe13 Fe2 2.449261 1_555
Fe13 Fe6 2.746040 1_565
Fe13 Fe4 2.769450 1_554
Fe13 Sm3 2.815391 1_554
Fe13 Sm5 2.835919 1_565
Fe13 Fe7 2.877628 1_665
Fe13 Sm8 3.436118 1_555
Fe13 Sm7 3.444996 1_555
Fe13 Sm1 3.801453 1_655
