# generated using pymatgen
data_AlPt3
_symmetry_space_group_name_H-M   'P 1'
_cell_length_a   6.57842700
_cell_length_b   6.57842700
_cell_length_c   5.76098300
_cell_angle_alpha   90.00000000
_cell_angle_beta   90.00000000
_cell_angle_gamma   90.00000000
_symmetry_Int_Tables_number   1
_chemical_formula_structural   AlPt3
_chemical_formula_sum   'Al4 Pt12'
_cell_volume   249.31058235
_cell_formula_units_Z   4
loop_
 _symmetry_equiv_pos_site_id
 _symmetry_equiv_pos_as_xyz
  1  'x, y, z'
loop_
 _atom_site_type_symbol
 _atom_site_label
 _atom_site_symmetry_multiplicity
 _atom_site_fract_x
 _atom_site_fract_y
 _atom_site_fract_z
 _atom_site_occupancy
  Al  Al0  1  0.00000000  0.50000000  0.24490500  1
  Al  Al1  1  0.50000000  0.00000000  0.75509500  1
  Al  Al2  1  0.50000000  0.00000000  0.24490500  1
  Al  Al3  1  0.00000000  0.50000000  0.75509500  1
  Pt  Pt0  1  0.73682300  0.23682300  0.00000000  1
  Pt  Pt1  1  0.00000000  0.00000000  0.25112900  1
  Pt  Pt2  1  0.22221100  0.72221100  0.50000000  1
  Pt  Pt3  1  0.27778900  0.22221100  0.50000000  1
  Pt  Pt4  1  0.26317700  0.76317700  0.00000000  1
  Pt  Pt5  1  0.72221100  0.77778900  0.50000000  1
  Pt  Pt6  1  0.77778900  0.27778900  0.50000000  1
  Pt  Pt7  1  0.76317700  0.73682300  0.00000000  1
  Pt  Pt8  1  0.50000000  0.50000000  0.25112900  1
  Pt  Pt9  1  0.00000000  0.00000000  0.74887100  1
  Pt  Pt10  1  0.23682300  0.26317700  0.00000000  1
  Pt  Pt11  1  0.50000000  0.50000000  0.74887100  1
loop_
_geom_bond_atom_site_label_1
_geom_bond_atom_site_label_2
_geom_bond_distance
_geom_bond_site_symmetry_2
Al0 Pt2 2.536421 1_555
Al0 Pt6 2.536421 1_455
Al0 Pt10 2.616270 1_555
Al0 Pt7 2.616270 1_455
Al0 Pt4 2.825837 1_555
Al0 Pt0 2.825837 1_455
Al0 Pt3 2.972979 1_555
Al0 Pt5 2.972979 1_455
Al0 Pt1 3.289409 1_555
Al0 Pt8 3.289409 1_455
Al0 Pt1 3.289409 1_565
Al0 Pt8 3.289409 1_555
Al1 Pt5 2.536421 1_545
Al1 Pt3 2.536421 1_555
Al1 Pt0 2.616270 1_556
Al1 Pt4 2.616270 1_546
Al1 Pt7 2.825837 1_546
Al1 Pt10 2.825837 1_556
Al1 Pt6 2.972979 1_555
Al1 Pt2 2.972979 1_545
Al1 Pt9 3.289409 1_655
Al1 Pt11 3.289409 1_545
Al1 Pt11 3.289409 1_555
Al1 Pt9 3.289409 1_555
Al2 Pt5 2.536421 1_545
Al2 Pt3 2.536421 1_555
Al2 Pt0 2.616270 1_555
Al2 Pt4 2.616270 1_545
Al2 Pt7 2.825837 1_545
Al2 Pt10 2.825837 1_555
Al2 Pt6 2.972979 1_555
Al2 Pt2 2.972979 1_545
Al2 Pt1 3.289409 1_555
Al2 Pt1 3.289409 1_655
Al2 Pt8 3.289409 1_545
Al2 Pt8 3.289409 1_555
Al3 Pt2 2.536421 1_555
Al3 Pt6 2.536421 1_455
Al3 Pt10 2.616270 1_556
Al3 Pt7 2.616270 1_456
Al3 Pt4 2.825837 1_556
Al3 Pt0 2.825837 1_456
Al3 Pt3 2.972979 1_555
Al3 Pt5 2.972979 1_455
Al3 Pt9 3.289409 1_565
Al3 Pt11 3.289409 1_455
Al3 Pt11 3.289409 1_555
Al3 Pt9 3.289409 1_555
Pt0 Pt9 2.741820 1_654
Pt0 Pt1 2.741820 1_655
Pt0 Pt8 2.741820 1_555
Pt0 Pt11 2.741820 1_554
Pt1 Pt10 2.741820 1_555
Pt1 Pt7 2.741820 1_445
Pt1 Pt4 2.741820 1_545
Pt1 Pt6 2.744433 1_455
Pt1 Pt3 2.744433 1_555
Pt1 Pt5 2.744433 1_445
Pt1 Pt2 2.744433 1_545
Pt1 Pt9 2.867483 1_555
Pt1 Pt9 2.893500 1_554
Pt2 Pt8 2.744433 1_555
Pt2 Pt9 2.744433 1_565
Pt3 Pt9 2.744433 1_555
Pt3 Pt8 2.744433 1_555
Pt4 Pt9 2.741820 1_564
Pt4 Pt8 2.741820 1_555
Pt5 Pt8 2.744433 1_555
Pt5 Pt9 2.744433 1_665
Pt6 Pt8 2.744433 1_555
Pt6 Pt9 2.744433 1_655
Pt7 Pt9 2.741820 1_664
Pt7 Pt8 2.741820 1_555
Pt10 Pt9 2.741820 1_554
Pt10 Pt8 2.741820 1_555
Pt10 Pt11 2.741820 1_554
Pt11 Pt7 2.741820 1_556
Pt11 Pt4 2.741820 1_556
Pt11 Pt2 2.744433 1_555
Pt11 Pt5 2.744433 1_555
Pt11 Pt6 2.744433 1_555
Pt11 Pt3 2.744433 1_555
Pt11 Pt8 2.867483 1_555
Pt11 Pt8 2.893500 1_556
