# generated using pymatgen
data_Te2MoW3(Se2S)2
_symmetry_space_group_name_H-M   'P 1'
_cell_length_a   3.34483828
_cell_length_b   3.34483828
_cell_length_c   38.12653800
_cell_angle_alpha   90.00000000
_cell_angle_beta   90.00000000
_cell_angle_gamma   120.00000549
_symmetry_Int_Tables_number   1
_chemical_formula_structural   Te2MoW3(Se2S)2
_chemical_formula_sum   'Te2 Mo1 W3 Se4 S2'
_cell_volume   369.40964352
_cell_formula_units_Z   1
loop_
 _symmetry_equiv_pos_site_id
 _symmetry_equiv_pos_as_xyz
  1  'x, y, z'
loop_
 _atom_site_type_symbol
 _atom_site_label
 _atom_site_symmetry_multiplicity
 _atom_site_fract_x
 _atom_site_fract_y
 _atom_site_fract_z
 _atom_site_occupancy
  Te  Te0  1  0.00000000  0.00000000  0.33175400  1
  Te  Te1  1  0.00000000  0.00000000  0.23172100  1
  Mo  Mo0  1  0.00000000  0.00000000  0.09392400  1
  W  W0  1  0.00000000  0.00000000  0.46972500  1
  W  W1  1  0.33333300  0.66666700  0.28177900  1
  W  W2  1  0.33333300  0.66666700  0.65754100  1
  Se  Se0  1  0.00000000  0.00000000  0.70148600  1
  Se  Se1  1  0.33333300  0.66666700  0.42574800  1
  Se  Se2  1  0.33333300  0.66666700  0.51364600  1
  Se  Se3  1  0.00000000  0.00000000  0.61358700  1
  S  S0  1  0.33333300  0.66666700  0.05414700  1
  S  S1  1  0.33333300  0.66666700  0.13368900  1
loop_
_geom_bond_atom_site_label_1
_geom_bond_atom_site_label_2
_geom_bond_distance
_geom_bond_site_symmetry_2
Te0 W1 2.712887 1_545
Te0 W1 2.712889 1_555
Te0 W1 2.712889 1_445
Te1 W1 2.715111 1_545
Te1 W1 2.715113 1_555
Te1 W1 2.715113 1_445
Mo0 S1 2.455172 1_545
Mo0 S1 2.455175 1_555
Mo0 S1 2.455175 1_445
Mo0 S0 2.455455 1_545
Mo0 S0 2.455457 1_555
Mo0 S0 2.455457 1_445
Se0 W2 2.556660 1_545
Se0 W2 2.556662 1_445
Se0 W2 2.556662 1_555
Se1 W0 2.557459 1_565
Se1 W0 2.557462 1_665
Se1 W0 2.557462 1_555
Se2 W0 2.556060 1_565
Se2 W0 2.556062 1_555
Se2 W0 2.556062 1_665
Se3 W2 2.556885 1_545
Se3 W2 2.556887 1_445
Se3 W2 2.556887 1_555
