# generated using pymatgen
data_Li2Mn3CoO8
_symmetry_space_group_name_H-M   'P 1'
_cell_length_a   8.35215400
_cell_length_b   8.35215400
_cell_length_c   8.35215400
_cell_angle_alpha   90.00000000
_cell_angle_beta   90.00000000
_cell_angle_gamma   90.00000000
_symmetry_Int_Tables_number   1
_chemical_formula_structural   Li2Mn3CoO8
_chemical_formula_sum   'Li8 Mn12 Co4 O32'
_cell_volume   582.63353803
_cell_formula_units_Z   4
loop_
 _symmetry_equiv_pos_site_id
 _symmetry_equiv_pos_as_xyz
  1  'x, y, z'
loop_
 _atom_site_type_symbol
 _atom_site_label
 _atom_site_symmetry_multiplicity
 _atom_site_fract_x
 _atom_site_fract_y
 _atom_site_fract_z
 _atom_site_occupancy
  Li  Li0  1  0.50460900  0.50460900  0.50460900  1
  Li  Li1  1  0.74539100  0.74539100  0.74539100  1
  Li  Li2  1  0.75460900  0.25460900  0.24539100  1
  Li  Li3  1  0.99539100  0.49539100  0.00460900  1
  Li  Li4  1  0.00460900  0.99539100  0.49539100  1
  Li  Li5  1  0.24539100  0.75460900  0.25460900  1
  Li  Li6  1  0.25460900  0.24539100  0.75460900  1
  Li  Li7  1  0.49539100  0.00460900  0.99539100  1
  Mn  Mn0  1  0.61962900  0.63037100  0.12500000  1
  Mn  Mn1  1  0.62500000  0.88037100  0.36962900  1
  Mn  Mn2  1  0.63037100  0.12500000  0.61962900  1
  Mn  Mn3  1  0.86962900  0.87500000  0.11962900  1
  Mn  Mn4  1  0.87500000  0.11962900  0.86962900  1
  Mn  Mn5  1  0.88037100  0.36962900  0.62500000  1
  Mn  Mn6  1  0.11962900  0.86962900  0.87500000  1
  Mn  Mn7  1  0.12500000  0.61962900  0.63037100  1
  Mn  Mn8  1  0.13037100  0.37500000  0.38037100  1
  Mn  Mn9  1  0.36962900  0.62500000  0.88037100  1
  Mn  Mn10  1  0.37500000  0.38037100  0.13037100  1
  Mn  Mn11  1  0.38037100  0.13037100  0.37500000  1
  Co  Co0  1  0.62500000  0.37500000  0.87500000  1
  Co  Co1  1  0.87500000  0.62500000  0.37500000  1
  Co  Co2  1  0.12500000  0.12500000  0.12500000  1
  Co  Co3  1  0.37500000  0.87500000  0.62500000  1
  O  O0  1  0.59908400  0.62601600  0.89359400  1
  O  O1  1  0.60640600  0.40091600  0.12601600  1
  O  O2  1  0.61563700  0.11563700  0.38436300  1
  O  O3  1  0.62398400  0.65091600  0.35640600  1
  O  O4  1  0.62601600  0.89359400  0.59908400  1
  O  O5  1  0.63436300  0.86563700  0.13436300  1
  O  O6  1  0.64359400  0.12398400  0.84908400  1
  O  O7  1  0.65091600  0.35640600  0.62398400  1
  O  O8  1  0.84908400  0.64359400  0.12398400  1
  O  O9  1  0.85640600  0.87601600  0.34908400  1
  O  O10  1  0.86563700  0.13436300  0.63436300  1
  O  O11  1  0.87398400  0.10640600  0.09908400  1
  O  O12  1  0.87601600  0.34908400  0.85640600  1
  O  O13  1  0.88436300  0.88436300  0.88436300  1
  O  O14  1  0.89359400  0.59908400  0.62601600  1
  O  O15  1  0.90091600  0.37398400  0.39359400  1
  O  O16  1  0.09908400  0.87398400  0.10640600  1
  O  O17  1  0.10640600  0.09908400  0.87398400  1
  O  O18  1  0.11563700  0.38436300  0.61563700  1
  O  O19  1  0.12398400  0.84908400  0.64359400  1
  O  O20  1  0.12601600  0.60640600  0.40091600  1
  O  O21  1  0.13436300  0.63436300  0.86563700  1
  O  O22  1  0.14359400  0.37601600  0.15091600  1
  O  O23  1  0.15091600  0.14359400  0.37601600  1
  O  O24  1  0.34908400  0.85640600  0.87601600  1
  O  O25  1  0.35640600  0.62398400  0.65091600  1
  O  O26  1  0.36563700  0.36563700  0.36563700  1
  O  O27  1  0.37398400  0.39359400  0.90091600  1
  O  O28  1  0.37601600  0.15091600  0.14359400  1
  O  O29  1  0.38436300  0.61563700  0.11563700  1
  O  O30  1  0.39359400  0.90091600  0.37398400  1
  O  O31  1  0.40091600  0.12601600  0.60640600  1
loop_
_geom_bond_atom_site_label_1
_geom_bond_atom_site_label_2
_geom_bond_distance
_geom_bond_site_symmetry_2
Li0 O25 2.004869 1_555
Li0 O7 2.004869 1_555
Li0 O3 2.004869 1_555
Li0 O26 2.010418 1_555
Li1 O4 2.004869 1_555
Li1 O0 2.004869 1_555
Li1 O14 2.004869 1_555
Li1 O13 2.010418 1_555
Li2 O11 2.004869 1_555
Li2 O1 2.004869 1_555
Li2 O15 2.004869 1_555
Li2 O2 2.010418 1_555
Li3 O22 2.004869 1_655
Li3 O8 2.004869 1_555
Li3 O12 2.004869 1_554
Li3 O21 2.010418 1_654
Li4 O23 2.004869 1_565
Li4 O9 2.004869 1_455
Li4 O19 2.004869 1_555
Li4 O10 2.010418 1_465
Li5 O16 2.004869 1_555
Li5 O20 2.004869 1_555
Li5 O30 2.004869 1_555
Li5 O29 2.010418 1_555
Li6 O17 2.004869 1_555
Li6 O27 2.004869 1_555
Li6 O31 2.004869 1_555
Li6 O18 2.010418 1_555
Li7 O28 2.004869 1_556
Li7 O6 2.004869 1_555
Li7 O24 2.004869 1_545
Li7 O5 2.010418 1_546
Mn0 O8 1.919642 1_555
Mn0 O1 1.919642 1_555
Mn0 O0 1.940682 1_554
Mn0 O3 1.940682 1_555
Mn0 O29 1.970380 1_555
Mn0 O5 1.970380 1_555
Mn1 O4 1.919642 1_555
Mn1 O3 1.919642 1_555
Mn1 O9 1.940682 1_555
Mn1 O30 1.940682 1_555
Mn1 O2 1.970380 1_565
Mn1 O5 1.970380 1_555
Mn2 O6 1.919642 1_555
Mn2 O31 1.919642 1_555
Mn2 O7 1.940682 1_555
Mn2 O4 1.940682 1_545
Mn2 O10 1.970380 1_555
Mn2 O2 1.970380 1_555
Mn3 O16 1.919642 1_655
Mn3 O9 1.919642 1_555
Mn3 O8 1.940682 1_555
Mn3 O11 1.940682 1_565
Mn3 O13 1.970380 1_554
Mn3 O5 1.970380 1_555
Mn4 O11 1.919642 1_556
Mn4 O12 1.919642 1_555
Mn4 O6 1.940682 1_555
Mn4 O17 1.940682 1_655
Mn4 O10 1.970380 1_555
Mn4 O13 1.970380 1_545
Mn5 O7 1.919642 1_555
Mn5 O14 1.919642 1_555
Mn5 O12 1.940682 1_555
Mn5 O15 1.940682 1_555
Mn5 O10 1.970380 1_555
Mn5 O18 1.970380 1_655
Mn6 O17 1.919642 1_565
Mn6 O24 1.919642 1_555
Mn6 O19 1.940682 1_555
Mn6 O16 1.940682 1_556
Mn6 O13 1.970380 1_455
Mn6 O21 1.970380 1_555
Mn7 O19 1.919642 1_555
Mn7 O20 1.919642 1_555
Mn7 O14 1.940682 1_455
Mn7 O25 1.940682 1_555
Mn7 O21 1.970380 1_555
Mn7 O18 1.970380 1_555
Mn8 O15 1.919642 1_455
Mn8 O22 1.919642 1_555
Mn8 O23 1.940682 1_555
Mn8 O20 1.940682 1_555
Mn8 O18 1.970380 1_555
Mn8 O26 1.970380 1_555
Mn9 O0 1.919642 1_555
Mn9 O25 1.919642 1_555
Mn9 O24 1.940682 1_555
Mn9 O27 1.940682 1_555
Mn9 O29 1.970380 1_556
Mn9 O21 1.970380 1_555
Mn10 O27 1.919642 1_554
Mn10 O28 1.919642 1_555
Mn10 O1 1.940682 1_555
Mn10 O22 1.940682 1_555
Mn10 O29 1.970380 1_555
Mn10 O26 1.970380 1_555
Mn11 O30 1.919642 1_545
Mn11 O23 1.919642 1_555
Mn11 O28 1.940682 1_555
Mn11 O31 1.940682 1_555
Mn11 O2 1.970380 1_555
Mn11 O26 1.970380 1_555
Co0 O1 2.113382 1_556
Co0 O27 2.113382 1_555
Co0 O12 2.113382 1_555
Co0 O6 2.113382 1_555
Co0 O7 2.113382 1_555
Co0 O0 2.113382 1_555
Co1 O20 2.113382 1_655
Co1 O9 2.113382 1_555
Co1 O15 2.113382 1_555
Co1 O3 2.113382 1_555
Co1 O14 2.113382 1_555
Co1 O8 2.113382 1_555
Co2 O28 2.113382 1_555
Co2 O22 2.113382 1_555
Co2 O16 2.113382 1_545
Co2 O11 2.113382 1_455
Co2 O23 2.113382 1_555
Co2 O17 2.113382 1_554
Co3 O31 2.113382 1_565
Co3 O30 2.113382 1_555
Co3 O25 2.113382 1_555
Co3 O19 2.113382 1_555
Co3 O24 2.113382 1_555
Co3 O4 2.113382 1_555
