# generated using pymatgen
data_Li4MnCo2O7
_symmetry_space_group_name_H-M   'P 1'
_cell_length_a   2.90385600
_cell_length_b   9.76518627
_cell_length_c   9.80750404
_cell_angle_alpha   114.09908110
_cell_angle_beta   92.09478938
_cell_angle_gamma   97.44236516
_symmetry_Int_Tables_number   1
_chemical_formula_structural   Li4MnCo2O7
_chemical_formula_sum   'Li8 Mn2 Co4 O14'
_cell_volume   250.49801080
_cell_formula_units_Z   2
loop_
 _symmetry_equiv_pos_site_id
 _symmetry_equiv_pos_as_xyz
  1  'x, y, z'
loop_
 _atom_site_type_symbol
 _atom_site_label
 _atom_site_symmetry_multiplicity
 _atom_site_fract_x
 _atom_site_fract_y
 _atom_site_fract_z
 _atom_site_occupancy
  Li  Li0  1  0.85922500  0.72741100  0.93920100  1
  Li  Li1  1  0.14077500  0.27258900  0.06079900  1
  Li  Li2  1  0.43958000  0.85916600  0.20752600  1
  Li  Li3  1  0.71048000  0.42695400  0.35628300  1
  Li  Li4  1  0.00000000  0.00000000  0.50000000  1
  Li  Li5  1  0.28952000  0.57304600  0.64371700  1
  Li  Li6  1  0.56042000  0.14083400  0.79247400  1
  Li  Li7  1  0.50000000  0.00000000  0.00000000  1
  Mn  Mn0  1  0.92865200  0.86652800  0.72451200  1
  Mn  Mn1  1  0.07134800  0.13347200  0.27548800  1
  Co  Co0  1  0.21542500  0.42875700  0.85681100  1
  Co  Co1  1  0.78457500  0.57124300  0.14318900  1
  Co  Co2  1  0.34740500  0.71280600  0.42885900  1
  Co  Co3  1  0.65259500  0.28719400  0.57114100  1
  O  O0  1  0.40494200  0.79335300  0.80829300  1
  O  O1  1  0.66482600  0.36384500  0.96020800  1
  O  O2  1  0.97084400  0.94438100  0.12362600  1
  O  O3  1  0.23625300  0.50675800  0.24594900  1
  O  O4  1  0.55824400  0.08117600  0.38466000  1
  O  O5  1  0.80523500  0.65642800  0.53803000  1
  O  O6  1  0.09891300  0.22179600  0.67115900  1
  O  O7  1  0.33517400  0.63615500  0.03979200  1
  O  O8  1  0.59505800  0.20664700  0.19170700  1
  O  O9  1  0.90108700  0.77820400  0.32884100  1
  O  O10  1  0.19476500  0.34357200  0.46197000  1
  O  O11  1  0.44175600  0.91882400  0.61534000  1
  O  O12  1  0.76374700  0.49324200  0.75405100  1
  O  O13  1  0.02915600  0.05561900  0.87637400  1
loop_
_geom_bond_atom_site_label_1
_geom_bond_atom_site_label_2
_geom_bond_distance
_geom_bond_site_symmetry_2
Li0 O2 2.124949 1_556
Li0 O7 2.135311 1_556
Li0 O0 2.138832 1_555
Li0 O7 2.148226 1_656
Li0 O12 2.238584 1_555
Li0 O0 2.265778 1_655
Li1 O13 2.124949 1_554
Li1 O1 2.135311 1_554
Li1 O8 2.138832 1_555
Li1 O1 2.148226 1_454
Li1 O3 2.238584 1_555
Li1 O8 2.265778 1_455
Li2 O2 1.998239 1_455
Li2 O2 2.017154 1_555
Li2 O7 2.099427 1_555
Li2 O4 2.126941 1_565
Li2 O9 2.182377 1_555
Li2 O9 2.251617 1_455
Li3 O8 2.069736 1_555
Li3 O10 2.113499 1_555
Li3 O3 2.128931 1_555
Li3 O10 2.143439 1_655
Li3 O3 2.147202 1_655
Li3 O5 2.194755 1_555
Li4 O9 2.103784 1_445
Li4 O6 2.103784 1_555
Li4 O4 2.107881 1_455
Li4 O11 2.107881 1_545
Li4 O4 2.251500 1_555
Li4 O11 2.251500 1_445
Li5 O0 2.069736 1_555
Li5 O5 2.113499 1_555
Li5 O12 2.128931 1_555
Li5 O5 2.143439 1_455
Li5 O12 2.147202 1_455
Li5 O10 2.194755 1_555
Li6 O13 1.998239 1_655
Li6 O13 2.017154 1_555
Li6 O1 2.099427 1_555
Li6 O11 2.126941 1_545
Li6 O6 2.182377 1_555
Li6 O6 2.251617 1_655
Li7 O13 2.059957 1_554
Li7 O2 2.059957 1_545
Li7 O8 2.098267 1_555
Li7 O0 2.098267 1_544
Li7 O13 2.141015 1_654
Li7 O2 2.141015 1_445
Mn0 O13 1.815431 1_665
Mn0 O0 1.936776 1_655
Mn0 O0 1.946241 1_555
Mn0 O11 1.982209 1_555
Mn0 O11 1.998319 1_655
Mn0 O5 2.092858 1_555
Mn1 O2 1.815431 1_445
Mn1 O8 1.936776 1_455
Mn1 O8 1.946241 1_555
Mn1 O4 1.982209 1_555
Mn1 O4 1.998319 1_455
Mn1 O10 2.092858 1_555
Co0 O12 1.941168 1_455
Co0 O1 1.943096 1_555
Co0 O7 2.060843 1_556
Co0 O6 2.070502 1_555
Co0 O12 2.079258 1_555
Co0 O1 2.089831 1_455
Co1 O3 1.941168 1_655
Co1 O7 1.943096 1_555
Co1 O1 2.060843 1_554
Co1 O9 2.070502 1_555
Co1 O3 2.079258 1_555
Co1 O7 2.089831 1_655
Co2 O9 1.919072 1_455
Co2 O5 1.945226 1_555
Co2 O3 2.052454 1_555
Co2 O11 2.069588 1_555
Co2 O5 2.075628 1_455
Co2 O9 2.077497 1_555
Co3 O6 1.919072 1_655
Co3 O10 1.945226 1_555
Co3 O12 2.052454 1_555
Co3 O4 2.069588 1_555
Co3 O10 2.075628 1_655
Co3 O6 2.077497 1_555
