# generated using pymatgen
data_Li3Co(NiO3)2
_symmetry_space_group_name_H-M   'P 1'
_cell_length_a   2.90879667
_cell_length_b   2.90879667
_cell_length_c   14.38526500
_cell_angle_alpha   90.00000000
_cell_angle_beta   90.00000000
_cell_angle_gamma   120.00001516
_symmetry_Int_Tables_number   1
_chemical_formula_structural   Li3Co(NiO3)2
_chemical_formula_sum   'Li3 Co1 Ni2 O6'
_cell_volume   105.40838508
_cell_formula_units_Z   1
loop_
 _symmetry_equiv_pos_site_id
 _symmetry_equiv_pos_as_xyz
  1  'x, y, z'
loop_
 _atom_site_type_symbol
 _atom_site_label
 _atom_site_symmetry_multiplicity
 _atom_site_fract_x
 _atom_site_fract_y
 _atom_site_fract_z
 _atom_site_occupancy
  Li  Li0  1  0.66666700  0.33333300  0.16998700  1
  Li  Li1  1  0.00000000  0.00000000  0.50000000  1
  Li  Li2  1  0.33333300  0.66666700  0.83001300  1
  Co  Co0  1  0.00000000  0.00000000  0.00000000  1
  Ni  Ni0  1  0.33333300  0.66666700  0.33254600  1
  Ni  Ni1  1  0.66666700  0.33333300  0.66745400  1
  O  O0  1  0.33333300  0.66666700  0.07407100  1
  O  O1  1  0.66666700  0.33333300  0.40742300  1
  O  O2  1  0.00000000  0.00000000  0.74368200  1
  O  O3  1  0.00000000  0.00000000  0.25631800  1
  O  O4  1  0.33333300  0.66666700  0.59257700  1
  O  O5  1  0.66666700  0.33333300  0.92592900  1
loop_
_geom_bond_atom_site_label_1
_geom_bond_atom_site_label_2
_geom_bond_distance
_geom_bond_site_symmetry_2
Li0 O3 2.088699 1_655
Li0 O3 2.088700 1_665
Li0 O3 2.088700 1_555
Li0 O0 2.173510 1_545
Li0 O0 2.173510 1_655
Li0 O0 2.173514 1_555
Li1 O1 2.143340 1_455
Li1 O4 2.143340 1_545
Li1 O1 2.143341 1_445
Li1 O4 2.143341 1_445
Li1 O1 2.143341 1_555
Li1 O4 2.143341 1_555
Li2 O2 2.088699 1_565
Li2 O2 2.088700 1_665
Li2 O2 2.088700 1_555
Li2 O5 2.173510 1_565
Li2 O5 2.173510 1_455
Li2 O5 2.173514 1_555
Co0 O0 1.988898 1_545
Co0 O5 1.988898 1_454
Co0 O5 1.988900 1_554
Co0 O5 1.988900 1_444
Co0 O0 1.988900 1_555
Co0 O0 1.988900 1_445
Ni0 O1 1.995134 1_455
Ni0 O1 1.995134 1_565
Ni0 O1 1.995138 1_555
Ni0 O3 2.005693 1_565
Ni0 O3 2.005695 1_665
Ni0 O3 2.005695 1_555
Ni1 O4 1.995134 1_545
Ni1 O4 1.995134 1_655
Ni1 O4 1.995138 1_555
Ni1 O2 2.005693 1_655
Ni1 O2 2.005695 1_665
Ni1 O2 2.005695 1_555
