# generated using pymatgen
data_KInI3
_symmetry_space_group_name_H-M   'P 1'
_cell_length_a   8.72025437
_cell_length_b   8.72025437
_cell_length_c   8.72025437
_cell_angle_alpha   60.00000000
_cell_angle_beta   60.00000000
_cell_angle_gamma   60.00000000
_symmetry_Int_Tables_number   1
_chemical_formula_structural   KInI3
_chemical_formula_sum   'K2 In2 I6'
_cell_volume   468.89161115
_cell_formula_units_Z   2
loop_
 _symmetry_equiv_pos_site_id
 _symmetry_equiv_pos_as_xyz
  1  'x, y, z'
loop_
 _atom_site_type_symbol
 _atom_site_label
 _atom_site_symmetry_multiplicity
 _atom_site_fract_x
 _atom_site_fract_y
 _atom_site_fract_z
 _atom_site_occupancy
  K  K0  1  0.75000000  0.75000000  0.75000000  1
  K  K1  1  0.25000000  0.25000000  0.25000000  1
  In  In0  1  0.50000000  0.50000000  0.50000000  1
  In  In1  1  0.00000000  0.00000000  0.00000000  1
  I  I0  1  0.75871700  0.24128300  0.24128300  1
  I  I1  1  0.24128300  0.24128300  0.75871700  1
  I  I2  1  0.24128300  0.75871700  0.75871700  1
  I  I3  1  0.24128300  0.75871700  0.24128300  1
  I  I4  1  0.75871700  0.24128300  0.75871700  1
  I  I5  1  0.75871700  0.75871700  0.24128300  1
loop_
_geom_bond_atom_site_label_1
_geom_bond_atom_site_label_2
_geom_bond_distance
_geom_bond_site_symmetry_2
I0 In1 2.975575 1_655
I0 In0 3.190576 1_555
I1 In1 2.975575 1_556
I1 In0 3.190576 1_555
I2 In1 2.975575 1_566
I2 In0 3.190576 1_555
I3 In1 2.975575 1_565
I3 In0 3.190576 1_555
I4 In1 2.975575 1_656
I4 In0 3.190576 1_555
I5 In1 2.975575 1_665
I5 In0 3.190576 1_555
