# generated using pymatgen
data_BaMgAl3P2(HO7)2
_symmetry_space_group_name_H-M   'P 1'
_cell_length_a   7.22778018
_cell_length_b   7.23021837
_cell_length_c   7.64957173
_cell_angle_alpha   61.56512085
_cell_angle_beta   118.45942415
_cell_angle_gamma   125.24306914
_symmetry_Int_Tables_number   1
_chemical_formula_structural   BaMgAl3P2(HO7)2
_chemical_formula_sum   'Ba1 Mg1 Al3 P2 H2 O14'
_cell_volume   275.53352810
_cell_formula_units_Z   1
loop_
 _symmetry_equiv_pos_site_id
 _symmetry_equiv_pos_as_xyz
  1  'x, y, z'
loop_
 _atom_site_type_symbol
 _atom_site_label
 _atom_site_symmetry_multiplicity
 _atom_site_fract_x
 _atom_site_fract_y
 _atom_site_fract_z
 _atom_site_occupancy
  Ba  Ba0  1  0.94333100  0.05757800  0.97402100  1
  Mg  Mg0  1  0.23793900  0.76082000  0.15054800  1
  Al  Al0  1  0.99044300  0.00935200  0.51461400  1
  Al  Al1  1  0.50402700  0.00803100  0.49265800  1
  Al  Al2  1  0.99137400  0.49564400  0.49247700  1
  P  P0  1  0.27976300  0.72015500  0.85735600  1
  P  P1  1  0.71656200  0.28271200  0.11287500  1
  H  H0  1  0.39273600  0.60697000  0.54457500  1
  H  H1  1  0.66048400  0.33887000  0.62082600  1
  O  O0  1  0.36629500  0.63316200  0.09364100  1
  O  O1  1  0.65590500  0.34321100  0.88246800  1
  O  O2  1  0.14363700  0.85622100  0.80988400  1
  O  O3  1  0.86008500  0.13959000  0.22581300  1
  O  O4  1  0.11293000  0.50800100  0.76705800  1
  O  O5  1  0.49218400  0.88676000  0.76743500  1
  O  O6  1  0.48474100  0.11866600  0.19493400  1
  O  O7  1  0.88066800  0.51458500  0.19487800  1
  O  O8  1  0.30263900  0.69697000  0.45109800  1
  O  O9  1  0.68620700  0.31316700  0.52026900  1
  O  O10  1  0.74182000  0.92494900  0.58746500  1
  O  O11  1  0.07477900  0.25802500  0.58739700  1
  O  O12  1  0.97412500  0.79421300  0.40937800  1
  O  O13  1  0.20531300  0.02509800  0.40976000  1
loop_
_geom_bond_atom_site_label_1
_geom_bond_atom_site_label_2
_geom_bond_distance
_geom_bond_site_symmetry_2
Ba0 O4 2.635766 1_655
Ba0 O5 2.637256 1_545
Ba0 O3 2.650929 1_556
Ba0 O13 2.916049 1_656
Ba0 O12 2.917168 1_546
Mg0 O0 1.912557 1_555
Mg0 O8 1.982744 1_555
Mg0 O2 2.206628 1_554
Mg0 O7 2.215094 1_455
Mg0 O6 2.219082 1_565
Al0 O10 1.810281 1_545
Al0 O11 1.810858 1_655
Al0 O3 1.927181 1_555
Al0 O13 1.991085 1_655
Al0 O12 1.992940 1_545
Al0 O2 2.050181 1_645
Al1 O10 1.851880 1_545
Al1 O9 1.863276 1_555
Al1 O5 1.877221 1_545
Al1 O8 1.933839 1_545
Al1 O6 1.984271 1_555
Al1 O13 2.001721 1_555
Al2 O11 1.852674 1_655
Al2 O9 1.863390 1_555
Al2 O4 1.876434 1_655
Al2 O8 1.934148 1_655
Al2 O7 1.983675 1_555
Al2 O12 2.001987 1_555
H0 O8 0.980277 1_555
H1 O9 0.986463 1_555
O0 P0 1.532219 1_554
O1 P1 1.496888 1_556
O2 P0 1.582432 1_555
O3 P1 1.557770 1_555
O4 P0 1.537721 1_555
O5 P0 1.537677 1_555
O6 P1 1.614962 1_555
O7 P1 1.615065 1_555
O12 O13 1.536103 1_665
