# generated using pymatgen
data_YZr3F15
_symmetry_space_group_name_H-M   'P 1'
_cell_length_a   8.08592664
_cell_length_b   8.08592904
_cell_length_c   8.08027707
_cell_angle_alpha   79.88410002
_cell_angle_beta   79.88402068
_cell_angle_gamma   100.03017026
_symmetry_Int_Tables_number   1
_chemical_formula_structural   YZr3F15
_chemical_formula_sum   'Y2 Zr6 F30'
_cell_volume   500.42111994
_cell_formula_units_Z   2
loop_
 _symmetry_equiv_pos_site_id
 _symmetry_equiv_pos_as_xyz
  1  'x, y, z'
loop_
 _atom_site_type_symbol
 _atom_site_label
 _atom_site_symmetry_multiplicity
 _atom_site_fract_x
 _atom_site_fract_y
 _atom_site_fract_z
 _atom_site_occupancy
  Y  Y0  1  0.17769086  0.82230939  0.24999953  1
  Y  Y1  1  0.82230848  0.17769034  0.74999989  1
  Zr  Zr0  1  0.75253778  0.24746122  0.24999889  1
  Zr  Zr1  1  0.24746213  0.75253829  0.74999874  1
  Zr  Zr2  1  0.74695694  0.67781839  0.67488482  1
  Zr  Zr3  1  0.32218116  0.25304425  0.82511564  1
  Zr  Zr4  1  0.25304369  0.32218126  0.32511615  1
  Zr  Zr5  1  0.67781852  0.74695584  0.17488511  1
  F  F0  1  0.31800149  0.35185157  0.05280858  1
  F  F1  1  0.93694231  0.81250067  0.14739953  1
  F  F2  1  0.84507093  0.46197023  0.68122445  1
  F  F3  1  0.46197004  0.84507062  0.18122454  1
  F  F4  1  0.81250109  0.93694301  0.64739879  1
  F  F5  1  0.35185185  0.31800163  0.55280844  1
  F  F6  1  0.68199867  0.64814852  0.94719191  1
  F  F7  1  0.06305682  0.18749930  0.85260096  1
  F  F8  1  0.15492958  0.53803031  0.31877375  1
  F  F9  1  0.53802974  0.15492938  0.81877392  1
  F  F10  1  0.18749666  0.06305671  0.35260495  1
  F  F11  1  0.64814848  0.68199864  0.44719222  1
  F  F12  1  0.77349376  0.28287642  0.99610339  1
  F  F13  1  0.00995035  0.27430641  0.21997468  1
  F  F14  1  0.77702749  0.50620071  0.22476261  1
  F  F15  1  0.50620088  0.77702736  0.72476237  1
  F  F16  1  0.27430627  0.00995043  0.71997480  1
  F  F17  1  0.28287624  0.77349353  0.49610362  1
  F  F18  1  0.22650567  0.71712552  0.00389568  1
  F  F19  1  0.99004982  0.72569385  0.78002408  1
  F  F20  1  0.22297293  0.49379941  0.77523728  1
  F  F21  1  0.49379911  0.22297258  0.27523714  1
  F  F22  1  0.72569370  0.99004985  0.28002413  1
  F  F23  1  0.71712589  0.22650566  0.50389532  1
  F  F24  1  0.46736456  0.53263478  0.25000049  1
  F  F25  1  0.74730253  0.95332885  0.97066923  1
  F  F26  1  0.04666933  0.25269671  0.52933293  1
  F  F27  1  0.25269651  0.04666961  0.02933309  1
  F  F28  1  0.95333145  0.74730403  0.47066730  1
  F  F29  1  0.53263526  0.46736473  0.75000005  1
loop_
_geom_bond_atom_site_label_1
_geom_bond_atom_site_label_2
_geom_bond_distance
_geom_bond_site_symmetry_2
F0 Zr3 2.127986 1_554
F0 Zr4 2.130620 1_555
F1 Zr5 2.031917 1_555
F1 Y0 2.240396 1_655
F2 Zr2 2.035532 1_555
F2 Y1 2.234846 1_555
F3 Zr5 2.035538 1_555
F3 Y0 2.234841 1_555
F4 Zr2 2.031924 1_555
F4 Y1 2.240392 1_565
F5 Zr4 2.127986 1_555
F5 Zr3 2.130617 1_555
F6 Zr5 2.127988 1_556
F6 Zr2 2.130617 1_555
F7 Zr3 2.031922 1_555
F7 Y1 2.240399 1_455
F8 Zr4 2.035538 1_555
F8 Y0 2.234841 1_555
F9 Zr3 2.035538 1_555
F9 Y1 2.234837 1_555
F10 Zr4 2.031922 1_555
F10 Y0 2.240411 1_545
F11 Zr2 2.127989 1_555
F11 Zr5 2.130617 1_555
F12 Zr0 1.993531 1_556
F12 Y1 2.295432 1_555
F13 Zr0 2.021143 1_455
F13 Zr4 2.274302 1_555
F14 Zr0 2.037038 1_555
F14 Zr5 2.231063 1_555
F15 Zr1 2.037031 1_555
F15 Zr2 2.231069 1_555
F16 Zr1 2.021141 1_545
F16 Zr3 2.274302 1_555
F17 Zr1 1.993529 1_555
F17 Y0 2.295436 1_555
F18 Zr1 1.993543 1_554
F18 Y0 2.295425 1_555
F19 Zr1 2.021140 1_655
F19 Zr2 2.274289 1_555
F20 Zr1 2.037031 1_555
F20 Zr3 2.231061 1_555
F21 Zr0 2.037029 1_555
F21 Zr4 2.231064 1_555
F22 Zr0 2.021134 1_565
F22 Zr5 2.274295 1_555
F23 Zr0 1.993540 1_555
F23 Y1 2.295426 1_555
F24 Zr4 2.123177 1_555
F24 Zr5 2.123180 1_555
F25 Zr5 2.050279 1_556
F25 Y1 2.222368 1_565
F26 Zr4 2.050289 1_555
F26 Y1 2.222352 1_455
F27 Zr3 2.050295 1_554
F27 Y0 2.222348 1_545
F28 Zr2 2.050294 1_555
F28 Y0 2.222348 1_655
F29 Zr3 2.123178 1_555
F29 Zr2 2.123182 1_555
