# generated using pymatgen
data_Ba7Ge39
_symmetry_space_group_name_H-M   'P 1'
_cell_length_a   11.38647775
_cell_length_b   13.10779681
_cell_length_c   15.91668668
_cell_angle_alpha   90.00000000
_cell_angle_beta   110.95839558
_cell_angle_gamma   90.00000000
_symmetry_Int_Tables_number   1
_chemical_formula_structural   Ba7Ge39
_chemical_formula_sum   'Ba14 Ge78'
_cell_volume   2218.42336042
_cell_formula_units_Z   2
loop_
 _symmetry_equiv_pos_site_id
 _symmetry_equiv_pos_as_xyz
  1  'x, y, z'
loop_
 _atom_site_type_symbol
 _atom_site_label
 _atom_site_symmetry_multiplicity
 _atom_site_fract_x
 _atom_site_fract_y
 _atom_site_fract_z
 _atom_site_occupancy
  Ba  Ba0  1  0.71208514  0.74723390  0.00000000  1
  Ba  Ba1  1  0.28791486  0.24723390  0.00000000  1
  Ba  Ba2  1  0.14073804  0.75895634  0.85761207  1
  Ba  Ba3  1  0.28312597  0.75895634  0.14238793  1
  Ba  Ba4  1  0.85926196  0.25895634  0.14238793  1
  Ba  Ba5  1  0.71687403  0.25895634  0.85761207  1
  Ba  Ba6  1  0.85062137  0.77040263  0.28471267  1
  Ba  Ba7  1  0.56590870  0.77040263  0.71528733  1
  Ba  Ba8  1  0.14937863  0.27040263  0.71528733  1
  Ba  Ba9  1  0.43409130  0.27040263  0.28471267  1
  Ba  Ba10  1  0.99247812  0.75453311  0.57225026  1
  Ba  Ba11  1  0.42022786  0.75453311  0.42774974  1
  Ba  Ba12  1  0.00752188  0.25453311  0.42774974  1
  Ba  Ba13  1  0.57977214  0.25453311  0.57225026  1
  Ge  Ge0  1  0.43364028  0.85482268  0.00000000  1
  Ge  Ge1  1  0.56635972  0.35482268  0.00000000  1
  Ge  Ge2  1  0.96871714  0.41852290  0.00000000  1
  Ge  Ge3  1  0.03128286  0.91852290  0.00000000  1
  Ge  Ge4  1  0.41947097  0.65401401  0.00000000  1
  Ge  Ge5  1  0.58052903  0.15401401  0.00000000  1
  Ge  Ge6  1  0.74977175  0.47611839  0.00000000  1
  Ge  Ge7  1  0.25022825  0.97611839  0.00000000  1
  Ge  Ge8  1  0.95175839  0.10046136  0.00000000  1
  Ge  Ge9  1  0.04824161  0.60046136  0.00000000  1
  Ge  Ge10  1  0.00130481  0.85760375  0.14419273  1
  Ge  Ge11  1  0.85711208  0.85760375  0.85580727  1
  Ge  Ge12  1  0.99869519  0.35760375  0.85580727  1
  Ge  Ge13  1  0.14288792  0.35760375  0.14419273  1
  Ge  Ge14  1  0.27338815  0.86261567  0.71233062  1
  Ge  Ge15  1  0.56105754  0.86261567  0.28766938  1
  Ge  Ge16  1  0.72661185  0.36261567  0.28766938  1
  Ge  Ge17  1  0.43894246  0.36261567  0.71233062  1
  Ge  Ge18  1  0.10742680  0.54397597  0.71753937  1
  Ge  Ge19  1  0.38988743  0.54397597  0.28246063  1
  Ge  Ge20  1  0.89257320  0.04397597  0.28246063  1
  Ge  Ge21  1  0.61011257  0.04397597  0.71753937  1
  Ge  Ge22  1  0.39509033  0.41738937  0.85618703  1
  Ge  Ge23  1  0.53890330  0.41738937  0.14381297  1
  Ge  Ge24  1  0.60490967  0.91738937  0.14381297  1
  Ge  Ge25  1  0.46109670  0.91738937  0.85618703  1
  Ge  Ge26  1  0.14248560  0.85776697  0.42730223  1
  Ge  Ge27  1  0.71518337  0.85776697  0.57269777  1
  Ge  Ge28  1  0.85751440  0.35776697  0.57269777  1
  Ge  Ge29  1  0.28481663  0.35776697  0.42730223  1
  Ge  Ge30  1  0.99876426  0.65732098  0.14181697  1
  Ge  Ge31  1  0.85694729  0.65732098  0.85818303  1
  Ge  Ge32  1  0.00123574  0.15732098  0.85818303  1
  Ge  Ge33  1  0.14305271  0.15732098  0.14181697  1
  Ge  Ge34  1  0.11271000  0.09833647  0.28549513  1
  Ge  Ge35  1  0.82721487  0.09833647  0.71450487  1
  Ge  Ge36  1  0.88729000  0.59833647  0.71450487  1
  Ge  Ge37  1  0.17278513  0.59833647  0.28549513  1
  Ge  Ge38  1  0.39544184  0.09994007  0.85694831  1
  Ge  Ge39  1  0.53849353  0.09994007  0.14305169  1
  Ge  Ge40  1  0.60455816  0.59994007  0.14305169  1
  Ge  Ge41  1  0.46150647  0.59994007  0.85694831  1
  Ge  Ge42  1  0.09711715  0.41594858  0.28641013  1
  Ge  Ge43  1  0.81070702  0.41594858  0.71358987  1
  Ge  Ge44  1  0.90288285  0.91594858  0.71358987  1
  Ge  Ge45  1  0.18929298  0.91594858  0.28641013  1
  Ge  Ge46  1  0.25388165  0.41785800  0.57099197  1
  Ge  Ge47  1  0.68288968  0.41785800  0.42900803  1
  Ge  Ge48  1  0.74611835  0.91785800  0.42900803  1
  Ge  Ge49  1  0.31711032  0.91785800  0.57099197  1
  Ge  Ge50  1  0.28847708  0.66179924  0.71397459  1
  Ge  Ge51  1  0.57450249  0.66179924  0.28602541  1
  Ge  Ge52  1  0.71152292  0.16179924  0.28602541  1
  Ge  Ge53  1  0.42549751  0.16179924  0.71397459  1
  Ge  Ge54  1  0.13834835  0.65760846  0.42865415  1
  Ge  Ge55  1  0.70969420  0.65760846  0.57134585  1
  Ge  Ge56  1  0.86165165  0.15760846  0.57134585  1
  Ge  Ge57  1  0.29030580  0.15760846  0.42865415  1
  Ge  Ge58  1  0.24891586  0.10010864  0.57298227  1
  Ge  Ge59  1  0.67593359  0.10010864  0.42701773  1
  Ge  Ge60  1  0.75108414  0.60010864  0.42701773  1
  Ge  Ge61  1  0.32406641  0.60010864  0.57298227  1
  Ge  Ge62  1  0.02656969  0.47517929  0.55345122  1
  Ge  Ge63  1  0.47311847  0.47517929  0.44654878  1
  Ge  Ge64  1  0.97343031  0.97517929  0.44654878  1
  Ge  Ge65  1  0.52688153  0.97517929  0.55345122  1
  Ge  Ge66  1  0.83521844  0.53478117  0.17143391  1
  Ge  Ge67  1  0.66378453  0.53478117  0.82856609  1
  Ge  Ge68  1  0.16478156  0.03478117  0.82856609  1
  Ge  Ge69  1  0.33621547  0.03478117  0.17143391  1
  Ge  Ge70  1  0.94215737  0.52845594  0.38115002  1
  Ge  Ge71  1  0.56100735  0.52845594  0.61884998  1
  Ge  Ge72  1  0.05784263  0.02845594  0.61884998  1
  Ge  Ge73  1  0.43899265  0.02845594  0.38115002  1
  Ge  Ge74  1  0.19188023  0.48253273  0.88490042  1
  Ge  Ge75  1  0.30697982  0.48253273  0.11509958  1
  Ge  Ge76  1  0.80811977  0.98253273  0.11509958  1
  Ge  Ge77  1  0.69302018  0.98253273  0.88490042  1
loop_
_geom_bond_atom_site_label_1
_geom_bond_atom_site_label_2
_geom_bond_distance
_geom_bond_site_symmetry_2
Ba0 Ge31 3.445071 1_554
Ba0 Ge30 3.445071 1_555
Ba0 Ge0 3.470003 1_555
Ba0 Ge40 3.522108 1_555
Ba0 Ge41 3.522108 1_554
Ba0 Ge4 3.548837 1_555
Ba0 Ge77 3.554076 1_554
Ba0 Ge76 3.554076 1_555
Ba0 Ge11 3.577500 1_554
Ba0 Ge10 3.577500 1_655
Ba0 Ge6 3.579542 1_555
Ba0 Ge24 3.701590 1_555
Ba0 Ge25 3.701590 1_554
Ba0 Ge67 3.798622 1_554
Ba0 Ge66 3.798622 1_555
Ba1 Ge33 3.445071 1_555
Ba1 Ge32 3.445071 1_554
Ba1 Ge1 3.470003 1_555
Ba1 Ge38 3.522108 1_554
Ba1 Ge39 3.522108 1_555
Ba1 Ge5 3.548837 1_555
Ba1 Ge75 3.554076 1_555
Ba1 Ge74 3.554076 1_554
Ba1 Ge13 3.577500 1_555
Ba1 Ge12 3.577500 1_454
Ba1 Ge7 3.579542 1_545
Ba1 Ge22 3.701590 1_554
Ba1 Ge23 3.701590 1_555
Ba1 Ge69 3.798622 1_555
Ba1 Ge68 3.798622 1_554
Ba2 Ge4 3.457710 1_556
Ba2 Ge14 3.460251 1_555
Ba2 Ge11 3.469310 1_455
Ba2 Ge31 3.498241 1_455
Ba2 Ge9 3.502744 1_556
Ba2 Ge44 3.518975 1_455
Ba2 Ge50 3.525609 1_555
Ba2 Ge0 3.525788 1_556
Ba2 Ge18 3.528487 1_555
Ba2 Ge7 3.573789 1_556
Ba2 Ge3 3.617304 1_556
Ba2 Ge36 3.639606 1_455
Ba2 Ge68 3.667527 1_565
Ba2 Ge74 3.670852 1_555
Ba3 Ge4 3.457710 1_555
Ba3 Ge15 3.460252 1_555
Ba3 Ge10 3.469310 1_555
Ba3 Ge30 3.498241 1_455
Ba3 Ge9 3.502744 1_555
Ba3 Ge45 3.518975 1_555
Ba3 Ge51 3.525609 1_555
Ba3 Ge0 3.525788 1_555
Ba3 Ge19 3.528487 1_555
Ba3 Ge7 3.573789 1_555
Ba3 Ge3 3.617304 1_555
Ba3 Ge37 3.639606 1_555
Ba3 Ge69 3.667527 1_565
Ba3 Ge75 3.670852 1_555
Ba4 Ge5 3.457710 1_555
Ba4 Ge16 3.460251 1_555
Ba4 Ge13 3.469310 1_655
Ba4 Ge33 3.498241 1_655
Ba4 Ge8 3.502744 1_555
Ba4 Ge42 3.518975 1_655
Ba4 Ge52 3.525609 1_555
Ba4 Ge1 3.525788 1_555
Ba4 Ge20 3.528487 1_555
Ba4 Ge6 3.573789 1_555
Ba4 Ge2 3.617304 1_555
Ba4 Ge34 3.639606 1_655
Ba4 Ge66 3.667527 1_555
Ba4 Ge76 3.670852 1_545
Ba5 Ge5 3.457710 1_556
Ba5 Ge17 3.460252 1_555
Ba5 Ge12 3.469310 1_555
Ba5 Ge32 3.498241 1_655
Ba5 Ge8 3.502744 1_556
Ba5 Ge43 3.518975 1_555
Ba5 Ge53 3.525609 1_555
Ba5 Ge1 3.525788 1_556
Ba5 Ge21 3.528487 1_555
Ba5 Ge6 3.573789 1_556
Ba5 Ge2 3.617304 1_556
Ba5 Ge35 3.639606 1_555
Ba5 Ge67 3.667527 1_555
Ba5 Ge77 3.670852 1_545
Ba6 Ge51 3.458150 1_555
Ba6 Ge10 3.463810 1_655
Ba6 Ge24 3.475711 1_555
Ba6 Ge26 3.480074 1_655
Ba6 Ge70 3.515060 1_555
Ba6 Ge48 3.518749 1_555
Ba6 Ge15 3.527768 1_555
Ba6 Ge66 3.548821 1_555
Ba6 Ge54 3.577533 1_655
Ba6 Ge30 3.600009 1_555
Ba6 Ge20 3.619490 1_565
Ba6 Ge64 3.635739 1_555
Ba6 Ge60 3.637854 1_555
Ba6 Ge40 3.661583 1_555
Ba6 Ge76 3.784089 1_555
Ba7 Ge50 3.458150 1_555
Ba7 Ge11 3.463810 1_555
Ba7 Ge25 3.475711 1_555
Ba7 Ge27 3.480074 1_555
Ba7 Ge71 3.515060 1_555
Ba7 Ge49 3.518749 1_555
Ba7 Ge14 3.527768 1_555
Ba7 Ge67 3.548821 1_555
Ba7 Ge55 3.577533 1_555
Ba7 Ge31 3.600009 1_555
Ba7 Ge21 3.619490 1_565
Ba7 Ge65 3.635739 1_555
Ba7 Ge61 3.637854 1_555
Ba7 Ge41 3.661583 1_555
Ba7 Ge77 3.784089 1_555
Ba8 Ge53 3.458150 1_555
Ba8 Ge12 3.463810 1_455
Ba8 Ge22 3.475711 1_555
Ba8 Ge28 3.480074 1_455
Ba8 Ge72 3.515060 1_555
Ba8 Ge46 3.518749 1_555
Ba8 Ge17 3.527768 1_555
Ba8 Ge68 3.548821 1_555
Ba8 Ge56 3.577533 1_455
Ba8 Ge32 3.600009 1_555
Ba8 Ge18 3.619490 1_555
Ba8 Ge62 3.635739 1_555
Ba8 Ge58 3.637854 1_555
Ba8 Ge38 3.661583 1_555
Ba8 Ge74 3.784089 1_555
Ba9 Ge52 3.458150 1_555
Ba9 Ge13 3.463810 1_555
Ba9 Ge23 3.475711 1_555
Ba9 Ge29 3.480074 1_555
Ba9 Ge73 3.515060 1_555
Ba9 Ge47 3.518749 1_555
Ba9 Ge16 3.527768 1_555
Ba9 Ge69 3.548821 1_555
Ba9 Ge57 3.577533 1_555
Ba9 Ge33 3.600009 1_555
Ba9 Ge19 3.619490 1_555
Ba9 Ge63 3.635739 1_555
Ba9 Ge59 3.637854 1_555
Ba9 Ge39 3.661583 1_555
Ba9 Ge75 3.784089 1_555
Ba10 Ge27 3.437506 1_555
Ba10 Ge55 3.456729 1_555
Ba10 Ge64 3.479131 1_555
Ba10 Ge14 3.479566 1_655
Ba10 Ge44 3.495735 1_555
Ba10 Ge54 3.508907 1_655
Ba10 Ge60 3.528515 1_555
Ba10 Ge50 3.533646 1_655
Ba10 Ge18 3.537351 1_655
Ba10 Ge36 3.562739 1_555
Ba10 Ge26 3.590300 1_655
Ba10 Ge48 3.615932 1_555
Ba10 Ge72 3.687958 1_665
Ba10 Ge62 3.705598 1_655
Ba11 Ge26 3.437506 1_555
Ba11 Ge54 3.456729 1_555
Ba11 Ge65 3.479131 1_555
Ba11 Ge15 3.479566 1_555
Ba11 Ge45 3.495735 1_555
Ba11 Ge55 3.508907 1_555
Ba11 Ge61 3.528515 1_555
Ba11 Ge51 3.533646 1_555
Ba11 Ge19 3.537351 1_555
Ba11 Ge37 3.562739 1_555
Ba11 Ge27 3.590300 1_555
Ba11 Ge49 3.615932 1_555
Ba11 Ge73 3.687958 1_565
Ba11 Ge63 3.705598 1_555
Ba12 Ge29 3.437506 1_555
Ba12 Ge57 3.456729 1_555
Ba12 Ge62 3.479131 1_555
Ba12 Ge16 3.479566 1_455
Ba12 Ge42 3.495735 1_555
Ba12 Ge56 3.508907 1_455
Ba12 Ge58 3.528515 1_555
Ba12 Ge52 3.533646 1_455
Ba12 Ge20 3.537351 1_455
Ba12 Ge34 3.562739 1_555
Ba12 Ge28 3.590300 1_455
Ba12 Ge46 3.615932 1_555
Ba12 Ge70 3.687958 1_455
Ba12 Ge64 3.705598 1_445
Ba13 Ge28 3.437506 1_555
Ba13 Ge56 3.456729 1_555
Ba13 Ge63 3.479131 1_555
Ba13 Ge17 3.479566 1_555
Ba13 Ge43 3.495735 1_555
Ba13 Ge57 3.508907 1_555
Ba13 Ge59 3.528515 1_555
Ba13 Ge53 3.533646 1_555
Ba13 Ge21 3.537351 1_555
Ba13 Ge35 3.562739 1_555
Ba13 Ge29 3.590300 1_555
Ba13 Ge47 3.615932 1_555
Ba13 Ge71 3.687958 1_555
Ba13 Ge65 3.705598 1_545
Ge0 Ge25 2.553802 1_554
Ge0 Ge24 2.553802 1_555
Ge0 Ge7 2.624753 1_555
Ge0 Ge4 2.637099 1_555
Ge1 Ge23 2.553802 1_555
Ge1 Ge22 2.553802 1_554
Ge1 Ge6 2.624753 1_555
Ge1 Ge5 2.637099 1_555
Ge2 Ge9 2.550934 1_655
Ge2 Ge6 2.604819 1_555
Ge3 Ge8 2.550934 1_465
Ge3 Ge7 2.604819 1_555
Ge4 Ge41 2.587551 1_554
Ge4 Ge40 2.587551 1_555
Ge6 Ge66 2.661627 1_555
Ge6 Ge67 2.661627 1_554
Ge10 Ge3 2.565527 1_555
Ge10 Ge45 2.612368 1_555
Ge10 Ge30 2.625549 1_455
Ge10 Ge76 2.646877 1_455
Ge11 Ge3 2.565527 1_656
Ge11 Ge44 2.612368 1_555
Ge11 Ge31 2.625549 1_555
Ge11 Ge77 2.646877 1_555
Ge12 Ge2 2.565527 1_556
Ge12 Ge43 2.612368 1_555
Ge12 Ge32 2.625549 1_655
Ge12 Ge74 2.646877 1_655
Ge13 Ge2 2.565527 1_455
Ge13 Ge42 2.612368 1_555
Ge13 Ge33 2.625549 1_555
Ge13 Ge75 2.646877 1_555
Ge14 Ge49 2.575708 1_555
Ge14 Ge25 2.612565 1_555
Ge14 Ge50 2.637382 1_555
Ge15 Ge48 2.575707 1_555
Ge15 Ge24 2.612565 1_555
Ge15 Ge51 2.637382 1_555
Ge16 Ge47 2.575708 1_555
Ge16 Ge23 2.612565 1_555
Ge16 Ge52 2.637382 1_555
Ge17 Ge46 2.575707 1_555
Ge17 Ge22 2.612565 1_555
Ge17 Ge53 2.637382 1_555
Ge18 Ge36 2.589673 1_455
Ge18 Ge50 2.592675 1_555
Ge18 Ge62 2.600355 1_555
Ge18 Ge74 2.614738 1_555
Ge19 Ge37 2.589673 1_555
Ge19 Ge51 2.592675 1_555
Ge19 Ge63 2.600355 1_555
Ge19 Ge75 2.614738 1_555
Ge20 Ge34 2.589673 1_655
Ge20 Ge52 2.592675 1_555
Ge20 Ge64 2.600355 1_545
Ge20 Ge76 2.614738 1_545
Ge21 Ge35 2.589673 1_555
Ge21 Ge53 2.592675 1_555
Ge21 Ge65 2.600355 1_545
Ge21 Ge77 2.614738 1_545
Ge22 Ge41 2.508221 1_555
Ge22 Ge74 2.654878 1_555
Ge23 Ge40 2.508221 1_555
Ge23 Ge75 2.654878 1_555
Ge24 Ge39 2.508221 1_565
Ge24 Ge76 2.654878 1_555
Ge25 Ge38 2.508221 1_565
Ge25 Ge77 2.654878 1_555
Ge26 Ge49 2.559581 1_555
Ge26 Ge64 2.567037 1_455
Ge26 Ge45 2.598011 1_555
Ge26 Ge54 2.624286 1_555
Ge27 Ge48 2.559581 1_555
Ge27 Ge65 2.567037 1_555
Ge27 Ge44 2.598011 1_555
Ge27 Ge55 2.624286 1_555
Ge28 Ge47 2.559581 1_555
Ge28 Ge62 2.567037 1_655
Ge28 Ge43 2.598011 1_555
Ge28 Ge56 2.624286 1_555
Ge29 Ge46 2.559581 1_555
Ge29 Ge63 2.567037 1_555
Ge29 Ge42 2.598011 1_555
Ge29 Ge57 2.624286 1_555
Ge30 Ge37 2.551899 1_655
Ge30 Ge9 2.622557 1_655
Ge30 Ge66 2.626407 1_555
Ge31 Ge36 2.551899 1_555
Ge31 Ge9 2.622557 1_656
Ge31 Ge67 2.626407 1_555
Ge32 Ge35 2.551899 1_455
Ge32 Ge8 2.622557 1_456
Ge32 Ge68 2.626407 1_555
Ge33 Ge34 2.551899 1_555
Ge33 Ge8 2.622557 1_455
Ge33 Ge69 2.626407 1_555
Ge34 Ge45 2.543028 1_545
Ge34 Ge57 2.566834 1_555
Ge35 Ge44 2.543028 1_545
Ge35 Ge56 2.566834 1_555
Ge36 Ge43 2.543028 1_555
Ge36 Ge55 2.566834 1_555
Ge37 Ge42 2.543028 1_555
Ge37 Ge54 2.566834 1_555
Ge38 Ge53 2.551544 1_555
Ge38 Ge5 2.587551 1_556
Ge38 Ge68 2.642495 1_555
Ge39 Ge52 2.551544 1_555
Ge39 Ge5 2.587551 1_555
Ge39 Ge69 2.642495 1_555
Ge40 Ge51 2.551544 1_555
Ge40 Ge66 2.642495 1_555
Ge41 Ge50 2.551544 1_555
Ge41 Ge67 2.642495 1_555
Ge42 Ge70 3.076586 1_455
Ge43 Ge71 3.076586 1_555
Ge44 Ge72 3.076586 1_665
Ge45 Ge73 3.076586 1_565
Ge46 Ge61 2.515633 1_555
Ge46 Ge62 2.612420 1_555
Ge47 Ge60 2.515633 1_555
Ge47 Ge63 2.612420 1_555
Ge48 Ge59 2.515633 1_565
Ge48 Ge64 2.612420 1_555
Ge49 Ge58 2.515633 1_565
Ge49 Ge65 2.612420 1_555
Ge50 Ge61 2.550449 1_555
Ge51 Ge60 2.550449 1_555
Ge52 Ge59 2.550449 1_555
Ge53 Ge58 2.550449 1_555
Ge54 Ge61 2.615706 1_555
Ge54 Ge70 2.686951 1_455
Ge55 Ge60 2.615706 1_555
Ge55 Ge71 2.686951 1_555
Ge56 Ge59 2.615706 1_555
Ge56 Ge72 2.686951 1_655
Ge57 Ge58 2.615706 1_555
Ge57 Ge73 2.686951 1_555
Ge58 Ge72 2.699045 1_555
Ge59 Ge73 2.699045 1_555
Ge60 Ge70 2.699045 1_555
Ge61 Ge71 2.699045 1_555
Ge62 Ge70 2.654602 1_455
Ge63 Ge71 2.654602 1_555
Ge64 Ge72 2.654602 1_665
Ge65 Ge73 2.654602 1_565
Ge66 Ge70 3.118338 1_555
Ge67 Ge71 3.118338 1_555
Ge68 Ge7 2.661627 1_546
Ge68 Ge72 3.118338 1_555
Ge69 Ge7 2.661627 1_545
Ge69 Ge73 3.118338 1_555
