# generated using pymatgen
data_MgP(CO3)2
_symmetry_space_group_name_H-M   'P 1'
_cell_length_a   8.38956900
_cell_length_b   10.48846600
_cell_length_c   12.19492900
_cell_angle_alpha   90.00000000
_cell_angle_beta   90.00000000
_cell_angle_gamma   90.00000000
_symmetry_Int_Tables_number   1
_chemical_formula_structural   MgP(CO3)2
_chemical_formula_sum   'Mg8 P8 C16 O48'
_cell_volume   1073.07703628
_cell_formula_units_Z   8
loop_
 _symmetry_equiv_pos_site_id
 _symmetry_equiv_pos_as_xyz
  1  'x, y, z'
loop_
 _atom_site_type_symbol
 _atom_site_label
 _atom_site_symmetry_multiplicity
 _atom_site_fract_x
 _atom_site_fract_y
 _atom_site_fract_z
 _atom_site_occupancy
  Mg  Mg0  1  0.64466200  0.05456700  0.43996600  1
  Mg  Mg1  1  0.14466200  0.44543300  0.56003400  1
  Mg  Mg2  1  0.35533800  0.55456700  0.06003400  1
  Mg  Mg3  1  0.85533800  0.94543300  0.93996600  1
  Mg  Mg4  1  0.35533800  0.94543300  0.56003400  1
  Mg  Mg5  1  0.85533800  0.55456700  0.43996600  1
  Mg  Mg6  1  0.64466200  0.44543300  0.93996600  1
  Mg  Mg7  1  0.14466200  0.05456700  0.06003400  1
  P  P0  1  0.77341100  0.30945900  0.56704900  1
  P  P1  1  0.27341100  0.19054100  0.43295100  1
  P  P2  1  0.22658900  0.80945900  0.93295100  1
  P  P3  1  0.72658900  0.69054100  0.06704900  1
  P  P4  1  0.22658900  0.69054100  0.43295100  1
  P  P5  1  0.72658900  0.80945900  0.56704900  1
  P  P6  1  0.77341100  0.19054100  0.06704900  1
  P  P7  1  0.27341100  0.30945900  0.93295100  1
  C  C0  1  0.80463000  0.17347100  0.22502900  1
  C  C1  1  0.30463000  0.32652900  0.77497100  1
  C  C2  1  0.19537000  0.67347100  0.27497100  1
  C  C3  1  0.69537000  0.82652900  0.72502900  1
  C  C4  1  0.19537000  0.82652900  0.77497100  1
  C  C5  1  0.69537000  0.67347100  0.22502900  1
  C  C6  1  0.80463000  0.32652900  0.72502900  1
  C  C7  1  0.30463000  0.17347100  0.27497100  1
  C  C8  1  0.89970300  0.03432000  0.26471800  1
  C  C9  1  0.39970300  0.46568000  0.73528200  1
  C  C10  1  0.10029700  0.53432000  0.23528200  1
  C  C11  1  0.60029700  0.96568000  0.76471800  1
  C  C12  1  0.10029700  0.96568000  0.73528200  1
  C  C13  1  0.60029700  0.53432000  0.26471800  1
  C  C14  1  0.89970300  0.46568000  0.76471800  1
  C  C15  1  0.39970300  0.03432000  0.23528200  1
  O  O0  1  0.91532000  0.38465200  0.51663800  1
  O  O1  1  0.41532000  0.11534800  0.48336200  1
  O  O2  1  0.08468000  0.88465200  0.98336200  1
  O  O3  1  0.58468000  0.61534800  0.01663800  1
  O  O4  1  0.08468000  0.61534800  0.48336200  1
  O  O5  1  0.58468000  0.88465200  0.51663800  1
  O  O6  1  0.91532000  0.11534800  0.01663800  1
  O  O7  1  0.41532000  0.38465200  0.98336200  1
  O  O8  1  0.62182700  0.38406700  0.57624100  1
  O  O9  1  0.12182700  0.11593300  0.42375900  1
  O  O10  1  0.37817300  0.88406700  0.92375900  1
  O  O11  1  0.87817300  0.61593300  0.07624100  1
  O  O12  1  0.37817300  0.61593300  0.42375900  1
  O  O13  1  0.87817300  0.88406700  0.57624100  1
  O  O14  1  0.62182700  0.11593300  0.07624100  1
  O  O15  1  0.12182700  0.38406700  0.92375900  1
  O  O16  1  0.76856800  0.16989900  0.53851100  1
  O  O17  1  0.26856800  0.33010100  0.46148900  1
  O  O18  1  0.23143200  0.66989900  0.96148900  1
  O  O19  1  0.73143200  0.83010100  0.03851100  1
  O  O20  1  0.23143200  0.83010100  0.46148900  1
  O  O21  1  0.73143200  0.66989900  0.53851100  1
  O  O22  1  0.76856800  0.33010100  0.03851100  1
  O  O23  1  0.26856800  0.16989900  0.96148900  1
  O  O24  1  0.51402600  0.00360300  0.29290200  1
  O  O25  1  0.01402600  0.49639700  0.70709800  1
  O  O26  1  0.48597400  0.50360300  0.20709800  1
  O  O27  1  0.98597400  0.99639700  0.79290200  1
  O  O28  1  0.48597400  0.99639700  0.70709800  1
  O  O29  1  0.98597400  0.50360300  0.29290200  1
  O  O30  1  0.51402600  0.49639700  0.79290200  1
  O  O31  1  0.01402600  0.00360300  0.20709800  1
  O  O32  1  0.83087300  0.98932100  0.34507000  1
  O  O33  1  0.33087300  0.51067900  0.65493000  1
  O  O34  1  0.16912700  0.48932100  0.15493000  1
  O  O35  1  0.66912700  0.01067900  0.84507000  1
  O  O36  1  0.16912700  0.01067900  0.65493000  1
  O  O37  1  0.66912700  0.48932100  0.34507000  1
  O  O38  1  0.83087300  0.51067900  0.84507000  1
  O  O39  1  0.33087300  0.98932100  0.15493000  1
  O  O40  1  0.73547800  0.23171100  0.29430900  1
  O  O41  1  0.23547800  0.26828900  0.70569100  1
  O  O42  1  0.26452200  0.73171100  0.20569100  1
  O  O43  1  0.76452200  0.76828900  0.79430900  1
  O  O44  1  0.26452200  0.76828900  0.70569100  1
  O  O45  1  0.76452200  0.73171100  0.29430900  1
  O  O46  1  0.73547800  0.26828900  0.79430900  1
  O  O47  1  0.23547800  0.23171100  0.20569100  1
loop_
_geom_bond_atom_site_label_1
_geom_bond_atom_site_label_2
_geom_bond_distance
_geom_bond_site_symmetry_2
Mg0 O16 1.997014 1_555
Mg0 O32 2.061092 1_545
Mg0 O5 2.074494 1_545
Mg0 O1 2.094888 1_555
Mg0 O24 2.168711 1_555
Mg1 O17 1.997014 1_555
Mg1 O33 2.061092 1_555
Mg1 O4 2.074494 1_555
Mg1 O0 2.094888 1_455
Mg1 O25 2.168711 1_555
Mg2 O18 1.997014 1_554
Mg2 O34 2.061092 1_555
Mg2 O7 2.074494 1_554
Mg2 O3 2.094888 1_555
Mg2 O26 2.168711 1_555
Mg3 O19 1.997014 1_556
Mg3 O35 2.061092 1_565
Mg3 O6 2.074494 1_566
Mg3 O2 2.094888 1_655
Mg3 O27 2.168711 1_555
Mg4 O20 1.997014 1_555
Mg4 O36 2.061092 1_565
Mg4 O1 2.074494 1_565
Mg4 O5 2.094888 1_555
Mg4 O28 2.168711 1_555
Mg5 O21 1.997014 1_555
Mg5 O37 2.061092 1_555
Mg5 O0 2.074494 1_555
Mg5 O4 2.094888 1_655
Mg5 O29 2.168711 1_555
Mg6 O22 1.997014 1_556
Mg6 O38 2.061092 1_555
Mg6 O3 2.074494 1_556
Mg6 O7 2.094888 1_555
Mg6 O30 2.168711 1_555
Mg7 O23 1.997014 1_554
Mg7 O39 2.061092 1_545
Mg7 O2 2.074494 1_544
Mg7 O6 2.094888 1_455
Mg7 O31 2.168711 1_555
C0 O40 1.193110 1_555
C0 P6 1.952503 1_555
C1 O41 1.193110 1_555
C1 P7 1.952503 1_555
C2 O42 1.193110 1_555
C2 P4 1.952503 1_555
C3 O43 1.193110 1_555
C3 P5 1.952503 1_555
C4 O44 1.193110 1_555
C4 P2 1.952503 1_555
C5 O45 1.193110 1_555
C5 P3 1.952503 1_555
C6 O46 1.193110 1_555
C6 P0 1.952503 1_555
C7 O47 1.193110 1_555
C7 P1 1.952503 1_555
C8 O32 1.231417 1_545
C8 O31 1.231851 1_655
C9 O33 1.231417 1_555
C9 O30 1.231851 1_555
C10 O34 1.231417 1_555
C10 O29 1.231851 1_455
C11 O35 1.231417 1_565
C11 O28 1.231851 1_555
C12 O36 1.231417 1_565
C12 O27 1.231851 1_455
C13 O37 1.231417 1_555
C13 O26 1.231851 1_555
C14 O38 1.231417 1_555
C14 O25 1.231851 1_655
C15 O39 1.231417 1_545
C15 O24 1.231851 1_555
O0 P0 1.554778 1_555
O1 P1 1.554778 1_555
O2 P2 1.554778 1_555
O3 P3 1.554778 1_555
O4 P4 1.554778 1_555
O5 P5 1.554778 1_555
O6 P6 1.554778 1_555
O7 P7 1.554778 1_555
O8 P0 1.497395 1_555
O9 P1 1.497395 1_555
O10 P2 1.497395 1_555
O11 P3 1.497395 1_555
O12 P4 1.497395 1_555
O13 P5 1.497395 1_555
O14 P6 1.497395 1_555
O15 P7 1.497395 1_555
O16 P0 1.505122 1_555
O17 P1 1.505122 1_555
O18 P2 1.505122 1_555
O19 P3 1.505122 1_555
O20 P4 1.505122 1_555
O21 P5 1.505122 1_555
O22 P6 1.505122 1_555
O23 P7 1.505122 1_555
