# generated using pymatgen
data_Cr2CuAgS4
_symmetry_space_group_name_H-M   'P 1'
_cell_length_a   3.53899512
_cell_length_b   6.77075019
_cell_length_c   6.14110028
_cell_angle_alpha   72.34340344
_cell_angle_beta   90.00001329
_cell_angle_gamma   89.99999890
_symmetry_Int_Tables_number   1
_chemical_formula_structural   Cr2CuAgS4
_chemical_formula_sum   'Cr2 Cu1 Ag1 S4'
_cell_volume   140.21885190
_cell_formula_units_Z   1
loop_
 _symmetry_equiv_pos_site_id
 _symmetry_equiv_pos_as_xyz
  1  'x, y, z'
loop_
 _atom_site_type_symbol
 _atom_site_label
 _atom_site_symmetry_multiplicity
 _atom_site_fract_x
 _atom_site_fract_y
 _atom_site_fract_z
 _atom_site_occupancy
  Cr  Cr0  1  0.00000000  0.99367100  0.00346400  1
  Cr  Cr1  1  0.50000000  0.99828200  0.49830500  1
  Cu  Cu0  1  0.50000000  0.44134200  0.35323300  1
  Ag  Ag0  1  0.00000000  0.45047000  0.84925600  1
  S  S0  1  0.50000000  0.79390600  0.23576200  1
  S  S1  1  0.00000000  0.81794100  0.72667800  1
  S  S2  1  0.50000000  0.20355000  0.75757300  1
  S  S3  1  0.00000000  0.21883800  0.26972900  1
loop_
_geom_bond_atom_site_label_1
_geom_bond_atom_site_label_2
_geom_bond_distance
_geom_bond_site_symmetry_2
Cr0 S1 2.351968 1_554
Cr0 S0 2.413532 1_555
Cr0 S0 2.413533 1_455
Cr0 S2 2.475679 1_464
Cr0 S2 2.475680 1_564
Cr0 S3 2.551517 1_565
Cr1 S1 2.355875 1_655
Cr1 S1 2.355875 1_555
Cr1 S2 2.410194 1_565
Cr1 S0 2.422351 1_555
Cr1 S3 2.461696 1_565
Cr1 S3 2.461697 1_665
Cu0 S0 2.274671 1_555
Cu0 S3 2.476356 1_555
Cu0 S3 2.476356 1_655
Cu0 S2 2.516497 1_555
Ag0 S1 2.370847 1_555
Ag0 S3 2.582750 1_556
Ag0 S2 2.610397 1_455
Ag0 S2 2.610397 1_555
