# generated using pymatgen
data_Ba2Zn3(PO)2
_symmetry_space_group_name_H-M   'P 1'
_cell_length_a   4.16128780
_cell_length_b   4.16128782
_cell_length_c   10.31175671
_cell_angle_alpha   101.64072204
_cell_angle_beta   101.64072281
_cell_angle_gamma   89.99999051
_symmetry_Int_Tables_number   1
_chemical_formula_structural   Ba2Zn3(PO)2
_chemical_formula_sum   'Ba2 Zn3 P2 O2'
_cell_volume   171.13756392
_cell_formula_units_Z   1
loop_
 _symmetry_equiv_pos_site_id
 _symmetry_equiv_pos_as_xyz
  1  'x, y, z'
loop_
 _atom_site_type_symbol
 _atom_site_label
 _atom_site_symmetry_multiplicity
 _atom_site_fract_x
 _atom_site_fract_y
 _atom_site_fract_z
 _atom_site_occupancy
  Ba  Ba0  1  0.59201000  0.59201000  0.18402000  1
  Ba  Ba1  1  0.40799000  0.40799000  0.81598000  1
  Zn  Zn0  1  0.00000000  0.00000000  0.00000000  1
  Zn  Zn1  1  0.75000000  0.25000000  0.50000000  1
  Zn  Zn2  1  0.25000000  0.75000000  0.50000000  1
  P  P0  1  0.17870400  0.17870400  0.35740800  1
  P  P1  1  0.82129600  0.82129600  0.64259200  1
  O  O0  1  0.00000000  0.50000000  0.00000000  1
  O  O1  1  0.50000000  0.00000000  0.00000000  1
loop_
_geom_bond_atom_site_label_1
_geom_bond_atom_site_label_2
_geom_bond_distance
_geom_bond_site_symmetry_2
Ba0 O0 2.763450 1_555
Ba0 O1 2.763450 1_555
Ba0 O1 2.763450 1_565
Ba0 O0 2.763450 1_655
Ba0 P0 3.405081 1_655
Ba0 P0 3.405081 1_565
Ba0 P0 3.405081 1_665
Ba0 P0 3.405081 1_555
Ba1 O0 2.763450 1_656
Ba1 O1 2.763450 1_566
Ba1 O1 2.763450 1_556
Ba1 O0 2.763450 1_556
Ba1 P1 3.405081 1_455
Ba1 P1 3.405081 1_545
Ba1 P1 3.405081 1_445
Ba1 P1 3.405081 1_555
P0 Zn1 2.512974 1_555
P0 Zn2 2.512974 1_555
P0 Zn2 2.512974 1_545
P0 Zn1 2.512974 1_455
P1 Zn2 2.512974 1_555
P1 Zn1 2.512974 1_555
P1 Zn1 2.512974 1_565
P1 Zn2 2.512974 1_655
O0 Zn0 2.080644 1_555
O0 Zn0 2.080644 1_565
O1 Zn0 2.080644 1_655
O1 Zn0 2.080644 1_555
