# generated using pymatgen
data_Rb3SmCl6
_symmetry_space_group_name_H-M   'P 1'
_cell_length_a   13.59351853
_cell_length_b   13.59351853
_cell_length_c   12.92348875
_cell_angle_alpha   81.16712163
_cell_angle_beta   81.16712163
_cell_angle_gamma   34.23219511
_symmetry_Int_Tables_number   1
_chemical_formula_structural   Rb3SmCl6
_chemical_formula_sum   'Rb12 Sm4 Cl24'
_cell_volume   1325.94033732
_cell_formula_units_Z   4
loop_
 _symmetry_equiv_pos_site_id
 _symmetry_equiv_pos_as_xyz
  1  'x, y, z'
loop_
 _atom_site_type_symbol
 _atom_site_label
 _atom_site_symmetry_multiplicity
 _atom_site_fract_x
 _atom_site_fract_y
 _atom_site_fract_z
 _atom_site_occupancy
  Rb  Rb0  1  0.29896768  0.80621426  0.06332316  1
  Rb  Rb1  1  0.70103232  0.19378574  0.93667684  1
  Rb  Rb2  1  0.19378574  0.70103232  0.43667684  1
  Rb  Rb3  1  0.80621426  0.29896768  0.56332316  1
  Rb  Rb4  1  0.47021212  0.83745740  0.35489607  1
  Rb  Rb5  1  0.52978788  0.16254260  0.64510393  1
  Rb  Rb6  1  0.16254260  0.52978788  0.14510393  1
  Rb  Rb7  1  0.83745740  0.47021212  0.85489607  1
  Rb  Rb8  1  0.65478078  0.02025279  0.30303701  1
  Rb  Rb9  1  0.34521922  0.97974721  0.69696299  1
  Rb  Rb10  1  0.97974721  0.34521922  0.19696299  1
  Rb  Rb11  1  0.02025279  0.65478078  0.80303701  1
  Sm  Sm0  1  0.79843782  0.20156218  0.25000000  1
  Sm  Sm1  1  0.20156218  0.79843782  0.75000000  1
  Sm  Sm2  1  0.50000000  0.00000000  -0.00000000  1
  Sm  Sm3  1  0.00000000  0.50000000  0.50000000  1
  Cl  Cl0  1  0.62580815  0.71437960  0.07813474  1
  Cl  Cl1  1  0.37419185  0.28562040  0.92186526  1
  Cl  Cl2  1  0.28562040  0.37419185  0.42186526  1
  Cl  Cl3  1  0.71437960  0.62580815  0.57813474  1
  Cl  Cl4  1  0.51224388  0.36079551  0.17746941  1
  Cl  Cl5  1  0.48775612  0.63920449  0.82253059  1
  Cl  Cl6  1  0.63920449  0.48775612  0.32253059  1
  Cl  Cl7  1  0.36079551  0.51224388  0.67746941  1
  Cl  Cl8  1  0.79084049  0.85912380  0.03354642  1
  Cl  Cl9  1  0.20915951  0.14087620  0.96645358  1
  Cl  Cl10  1  0.14087620  0.20915951  0.46645358  1
  Cl  Cl11  1  0.85912380  0.79084049  0.53354642  1
  Cl  Cl12  1  0.88390010  0.99092127  0.70837050  1
  Cl  Cl13  1  0.11609990  0.00907873  0.29162950  1
  Cl  Cl14  1  0.00907873  0.11609990  0.79162950  1
  Cl  Cl15  1  0.99092127  0.88390010  0.20837050  1
  Cl  Cl16  1  0.72951277  0.15836543  0.44259724  1
  Cl  Cl17  1  0.27048723  0.84163457  0.55740276  1
  Cl  Cl18  1  0.84163457  0.27048723  0.05740276  1
  Cl  Cl19  1  0.15836543  0.72951277  0.94259724  1
  Cl  Cl20  1  0.36187275  0.13866030  0.19200398  1
  Cl  Cl21  1  0.63812725  0.86133970  0.80799602  1
  Cl  Cl22  1  0.86133970  0.63812725  0.30799602  1
  Cl  Cl23  1  0.13866030  0.36187275  0.69200398  1
loop_
_geom_bond_atom_site_label_1
_geom_bond_atom_site_label_2
_geom_bond_distance
_geom_bond_site_symmetry_2
Cl0 Sm2 2.714012 1_565
Cl0 Rb10 3.266295 1_555
Cl0 Rb7 3.495558 1_554
Cl0 Rb0 3.514437 1_555
Cl0 Rb4 3.705245 1_555
Cl1 Sm2 2.714012 1_556
Cl1 Rb11 3.266295 1_555
Cl1 Rb6 3.495558 1_556
Cl1 Rb1 3.514437 1_555
Cl1 Rb5 3.705245 1_555
Cl2 Sm3 2.714012 1_555
Cl2 Rb8 3.266295 1_555
Cl2 Rb5 3.495558 1_555
Cl2 Rb2 3.514437 1_555
Cl2 Rb6 3.705245 1_555
Cl3 Sm3 2.714012 1_655
Cl3 Rb9 3.266295 1_555
Cl3 Rb4 3.495558 1_555
Cl3 Rb3 3.514437 1_555
Cl3 Rb7 3.705245 1_555
Cl4 Sm0 2.696582 1_555
Cl4 Rb6 3.210647 1_555
Cl4 Rb1 3.392212 1_554
Cl4 Rb8 3.412377 1_555
Cl5 Sm1 2.696582 1_555
Cl5 Rb7 3.210647 1_555
Cl5 Rb0 3.392212 1_556
Cl5 Rb9 3.412377 1_555
Cl6 Sm0 2.696582 1_555
Cl6 Rb4 3.210647 1_555
Cl6 Rb3 3.392212 1_555
Cl6 Rb10 3.412377 1_555
Cl7 Sm1 2.696582 1_555
Cl7 Rb5 3.210647 1_555
Cl7 Rb2 3.392212 1_555
Cl7 Rb11 3.412377 1_555
Cl8 Sm2 2.690385 1_565
Cl8 Rb6 3.240749 1_655
Cl8 Rb11 3.417602 1_654
Cl8 Rb1 3.645572 1_564
Cl8 Rb8 3.743501 1_565
Cl9 Sm2 2.690385 1_556
Cl9 Rb7 3.240749 1_455
Cl9 Rb10 3.417602 1_456
Cl9 Rb0 3.645572 1_546
Cl9 Rb9 3.743501 1_545
Cl10 Sm3 2.690385 1_555
Cl10 Rb4 3.240749 1_545
Cl10 Rb9 3.417602 1_545
Cl10 Rb3 3.645572 1_455
Cl10 Rb10 3.743501 1_455
Cl11 Sm3 2.690385 1_655
Cl11 Rb5 3.240749 1_565
Cl11 Rb8 3.417602 1_565
Cl11 Rb2 3.645572 1_655
Cl11 Rb11 3.743501 1_655
Cl12 Sm1 2.716746 1_655
Cl12 Rb11 3.284268 1_655
Cl12 Rb5 3.366909 1_565
Cl12 Rb1 3.376505 1_565
Cl12 Rb3 3.612337 1_565
Cl13 Sm0 2.716746 1_455
Cl13 Rb10 3.284268 1_455
Cl13 Rb4 3.366909 1_545
Cl13 Rb0 3.376505 1_545
Cl13 Rb2 3.612337 1_545
Cl14 Sm1 2.716746 1_545
Cl14 Rb9 3.284268 1_545
Cl14 Rb7 3.366909 1_455
Cl14 Rb3 3.376505 1_455
Cl14 Rb1 3.612337 1_455
Cl15 Sm0 2.716746 1_565
Cl15 Rb8 3.284268 1_565
Cl15 Rb6 3.366909 1_655
Cl15 Rb2 3.376505 1_655
Cl15 Rb0 3.612337 1_655
Cl16 Sm0 2.676300 1_555
Cl16 Rb5 3.439778 1_555
Cl16 Rb3 3.447434 1_555
Cl16 Rb8 3.544857 1_555
Cl16 Rb2 3.688658 1_645
Cl17 Sm1 2.676300 1_555
Cl17 Rb4 3.439778 1_555
Cl17 Rb2 3.447434 1_555
Cl17 Rb9 3.544857 1_555
Cl17 Rb3 3.688658 1_465
Cl18 Sm0 2.676300 1_555
Cl18 Rb7 3.439778 1_554
Cl18 Rb1 3.447434 1_554
Cl18 Rb10 3.544857 1_555
Cl18 Rb0 3.688658 1_645
Cl19 Sm1 2.676300 1_555
Cl19 Rb6 3.439778 1_556
Cl19 Rb0 3.447434 1_556
Cl19 Rb11 3.544857 1_555
Cl19 Rb1 3.688658 1_465
Cl20 Sm2 2.718259 1_555
Cl20 Rb10 3.272034 1_455
Cl20 Rb8 3.309312 1_555
Cl20 Rb6 3.416279 1_555
Cl20 Rb4 3.420399 1_545
Cl21 Sm2 2.718259 1_566
Cl21 Rb11 3.272034 1_655
Cl21 Rb9 3.309312 1_555
Cl21 Rb7 3.416279 1_555
Cl21 Rb5 3.420399 1_565
Cl22 Sm3 2.718259 1_655
Cl22 Rb8 3.272034 1_565
Cl22 Rb10 3.309312 1_555
Cl22 Rb4 3.416279 1_555
Cl22 Rb6 3.420399 1_655
Cl23 Sm3 2.718259 1_555
Cl23 Rb9 3.272034 1_545
Cl23 Rb11 3.309312 1_555
Cl23 Rb5 3.416279 1_555
Cl23 Rb7 3.420399 1_455
