# generated using pymatgen
data_GdNiAs
_symmetry_space_group_name_H-M   'P 1'
_cell_length_a   4.03626843
_cell_length_b   4.03626843
_cell_length_c   3.96424257
_cell_angle_alpha   90.00000000
_cell_angle_beta   90.00000000
_cell_angle_gamma   120.00000372
_symmetry_Int_Tables_number   1
_chemical_formula_structural   GdNiAs
_chemical_formula_sum   'Gd1 Ni1 As1'
_cell_volume   55.93078539
_cell_formula_units_Z   1
loop_
 _symmetry_equiv_pos_site_id
 _symmetry_equiv_pos_as_xyz
  1  'x, y, z'
loop_
 _atom_site_type_symbol
 _atom_site_label
 _atom_site_symmetry_multiplicity
 _atom_site_fract_x
 _atom_site_fract_y
 _atom_site_fract_z
 _atom_site_occupancy
  Gd  Gd0  1  0.33333300  0.66666700  0.50000000  1
  Ni  Ni0  1  0.66666700  0.33333300  -0.00000000  1
  As  As0  1  -0.00000000  -0.00000000  0.00000000  1
loop_
_geom_bond_atom_site_label_1
_geom_bond_atom_site_label_2
_geom_bond_distance
_geom_bond_site_symmetry_2
Gd0 Ni0 3.059294 1_456
Gd0 Ni0 3.059294 1_455
Gd0 Ni0 3.059294 1_566
Gd0 Ni0 3.059294 1_565
Gd0 Ni0 3.059300 1_556
Gd0 Ni0 3.059300 1_555
As0 Ni0 2.330338 1_455
As0 Ni0 2.330342 1_555
As0 Ni0 2.330342 1_445
As0 Gd0 3.059294 1_544
As0 Gd0 3.059294 1_545
As0 Gd0 3.059297 1_554
As0 Gd0 3.059297 1_555
As0 Gd0 3.059297 1_444
As0 Gd0 3.059297 1_445
