# generated using pymatgen
data_CaC4(SO)4
_symmetry_space_group_name_H-M   'P 1'
_cell_length_a   8.93397272
_cell_length_b   10.20604550
_cell_length_c   10.52998000
_cell_angle_alpha   90.00000000
_cell_angle_beta   90.00000000
_cell_angle_gamma   121.84503063
_symmetry_Int_Tables_number   1
_chemical_formula_structural   CaC4(SO)4
_chemical_formula_sum   'Ca4 C16 S16 O16'
_cell_volume   815.60888304
_cell_formula_units_Z   4
loop_
 _symmetry_equiv_pos_site_id
 _symmetry_equiv_pos_as_xyz
  1  'x, y, z'
loop_
 _atom_site_type_symbol
 _atom_site_label
 _atom_site_symmetry_multiplicity
 _atom_site_fract_x
 _atom_site_fract_y
 _atom_site_fract_z
 _atom_site_occupancy
  Ca  Ca0  1  0.70534300  0.78789300  0.75000000  1
  Ca  Ca1  1  0.29465700  0.21210700  0.25000000  1
  Ca  Ca2  1  0.17808100  0.80525000  0.75000000  1
  Ca  Ca3  1  0.82191900  0.19475000  0.25000000  1
  C  C0  1  0.63282900  0.34834300  0.82221000  1
  C  C1  1  0.36717100  0.65165700  0.17779000  1
  C  C2  1  0.36717100  0.65165700  0.32221000  1
  C  C3  1  0.63282900  0.34834300  0.67779000  1
  C  C4  1  0.88312700  0.81606000  0.31891100  1
  C  C5  1  0.11687300  0.18394000  0.68108900  1
  C  C6  1  0.11687300  0.18394000  0.81891100  1
  C  C7  1  0.88312700  0.81606000  0.18108900  1
  C  C8  1  0.89366900  0.68044100  0.32147700  1
  C  C9  1  0.10633100  0.31955900  0.67852300  1
  C  C10  1  0.10633100  0.31955900  0.82147700  1
  C  C11  1  0.89366900  0.68044100  0.17852300  1
  C  C12  1  0.64791600  0.21319600  0.81858000  1
  C  C13  1  0.35208400  0.78680400  0.18142000  1
  C  C14  1  0.35208400  0.78680400  0.31858000  1
  C  C15  1  0.64791600  0.21319600  0.68142000  1
  S  S0  1  0.84246000  0.91687600  0.42718500  1
  S  S1  1  0.15754000  0.08312400  0.57281500  1
  S  S2  1  0.15754000  0.08312400  0.92718500  1
  S  S3  1  0.84246000  0.91687600  0.07281500  1
  S  S4  1  0.62521200  0.47037200  0.91775600  1
  S  S5  1  0.37478800  0.52962800  0.08224400  1
  S  S6  1  0.37478800  0.52962800  0.41775600  1
  S  S7  1  0.62521200  0.47037200  0.58224400  1
  S  S8  1  0.84037100  0.50759500  0.37598800  1
  S  S9  1  0.15962900  0.49240500  0.62401200  1
  S  S10  1  0.15962900  0.49240500  0.87598800  1
  S  S11  1  0.84037100  0.50759500  0.12401200  1
  S  S12  1  0.31763900  0.89762000  0.41754400  1
  S  S13  1  0.68236100  0.10238000  0.58245600  1
  S  S14  1  0.68236100  0.10238000  0.91754400  1
  S  S15  1  0.31763900  0.89762000  0.08245600  1
  O  O0  1  0.24580200  0.79204700  0.96030000  1
  O  O1  1  0.75419800  0.20795300  0.03970000  1
  O  O2  1  0.75419800  0.20795300  0.46030000  1
  O  O3  1  0.24580200  0.79204700  0.53970000  1
  O  O4  1  0.03811400  0.50987300  0.75000000  1
  O  O5  1  0.96188600  0.49012700  0.25000000  1
  O  O6  1  0.74301600  0.79719800  0.96816800  1
  O  O7  1  0.25698400  0.20280200  0.03183200  1
  O  O8  1  0.25698400  0.20280200  0.46816800  1
  O  O9  1  0.74301600  0.79719800  0.53183200  1
  O  O10  1  0.33703900  0.62462800  0.75000000  1
  O  O11  1  0.66296100  0.37537200  0.25000000  1
  O  O12  1  0.00366100  0.89289700  0.75000000  1
  O  O13  1  0.99633900  0.10710300  0.25000000  1
  O  O14  1  0.66294800  0.99605300  0.75000000  1
  O  O15  1  0.33705200  0.00394700  0.25000000  1
loop_
_geom_bond_atom_site_label_1
_geom_bond_atom_site_label_2
_geom_bond_distance
_geom_bond_site_symmetry_2
Ca0 O12 2.288581 1_655
Ca0 O6 2.316501 1_555
Ca0 O9 2.316501 1_555
Ca0 O14 2.346494 1_555
Ca0 O10 2.796010 1_555
Ca1 O13 2.288581 1_455
Ca1 O8 2.316501 1_555
Ca1 O7 2.316501 1_555
Ca1 O15 2.346494 1_555
Ca1 O11 2.796010 1_555
Ca2 O12 2.167785 1_555
Ca2 O0 2.318199 1_555
Ca2 O3 2.318199 1_555
Ca2 O4 2.583353 1_555
Ca2 O10 2.859644 1_555
Ca3 O13 2.167785 1_555
Ca3 O1 2.318199 1_555
Ca3 O2 2.318199 1_555
Ca3 O5 2.583353 1_555
Ca3 O11 2.859644 1_555
C0 C12 1.455447 1_555
C0 C3 1.520740 1_555
C0 S4 1.630154 1_555
C1 C13 1.455447 1_555
C1 C2 1.520740 1_555
C1 S5 1.630154 1_555
C2 S6 1.630154 1_555
C3 S7 1.630154 1_555
C4 C8 1.436311 1_555
C4 C7 1.451263 1_555
C4 S0 1.698548 1_555
C5 C9 1.436311 1_555
C5 C6 1.451263 1_555
C5 S1 1.698548 1_555
C6 S2 1.698548 1_555
C7 S3 1.698548 1_555
C8 S8 1.667864 1_555
C9 S9 1.667864 1_555
C10 C6 1.436311 1_555
C10 C9 1.505303 1_555
C10 S10 1.667864 1_555
C11 C7 1.436311 1_555
C11 C8 1.505303 1_555
C11 S11 1.667864 1_555
C12 C15 1.444292 1_555
C12 S14 1.681387 1_555
C13 C14 1.444292 1_555
C13 S15 1.681387 1_555
C14 C2 1.455447 1_555
C14 S12 1.681387 1_555
C15 C3 1.455447 1_555
C15 S13 1.681387 1_555
O0 S15 1.580414 1_556
O1 S14 1.580414 1_554
O2 S13 1.580414 1_555
O3 S12 1.580414 1_555
O4 S10 1.781733 1_555
O4 S9 1.781733 1_555
O5 S11 1.781733 1_555
O5 S8 1.781733 1_555
O6 S3 1.533088 1_556
O7 S2 1.533088 1_554
O8 S1 1.533088 1_555
O9 S0 1.533088 1_555
O10 S10 1.958617 1_555
O10 S9 1.958617 1_555
O11 S8 1.958617 1_555
O11 S11 1.958617 1_555
O14 S13 2.030175 1_565
O14 S14 2.030175 1_565
O15 S15 2.030175 1_545
O15 S12 2.030175 1_545
