# generated using pymatgen
data_CsTlBr3
_symmetry_space_group_name_H-M   'P 1'
_cell_length_a   5.79561890
_cell_length_b   5.79561890
_cell_length_c   5.80463853
_cell_angle_alpha   89.93695998
_cell_angle_beta   89.93695998
_cell_angle_gamma   89.80279513
_symmetry_Int_Tables_number   1
_chemical_formula_structural   CsTlBr3
_chemical_formula_sum   'Cs1 Tl1 Br3'
_cell_volume   194.97176534
_cell_formula_units_Z   1
loop_
 _symmetry_equiv_pos_site_id
 _symmetry_equiv_pos_as_xyz
  1  'x, y, z'
loop_
 _atom_site_type_symbol
 _atom_site_label
 _atom_site_symmetry_multiplicity
 _atom_site_fract_x
 _atom_site_fract_y
 _atom_site_fract_z
 _atom_site_occupancy
  Cs  Cs0  1  0.00174072  0.00174072  0.99230129  1
  Tl  Tl0  1  0.50130556  0.50130556  0.48528007  1
  Br  Br0  1  0.50412563  0.00181968  0.48654850  1
  Br  Br1  1  0.49809541  0.49809541  0.98640763  1
  Br  Br2  1  0.00181968  0.50412563  0.48654850  1
loop_
_geom_bond_atom_site_label_1
_geom_bond_atom_site_label_2
_geom_bond_distance
_geom_bond_site_symmetry_2
Br0 Tl0 2.894821 1_555
Br0 Tl0 2.900909 1_545
Br0 Cs0 4.065699 1_654
Br0 Cs0 4.089833 1_554
Br0 Cs0 4.117573 1_655
Br0 Cs0 4.132457 1_555
Br1 Tl0 2.895935 1_556
Br1 Tl0 2.908943 1_555
Br1 Cs0 4.075329 1_555
Br1 Cs0 4.091316 1_565
Br1 Cs0 4.091316 1_655
Br1 Cs0 4.135292 1_665
Br2 Tl0 2.894821 1_555
Br2 Tl0 2.900909 1_455
Br2 Cs0 4.065699 1_564
Br2 Cs0 4.089833 1_554
Br2 Cs0 4.117573 1_565
Br2 Cs0 4.132457 1_555
