# generated using pymatgen
data_Mn3(ZnN)8
_symmetry_space_group_name_H-M   'P 1'
_cell_length_a   9.67298008
_cell_length_b   3.58845180
_cell_length_c   7.76956423
_cell_angle_alpha   89.99999542
_cell_angle_beta   76.66024887
_cell_angle_gamma   79.31038605
_symmetry_Int_Tables_number   1
_chemical_formula_structural   Mn3(ZnN)8
_chemical_formula_sum   'Mn3 Zn8 N8'
_cell_volume   257.60079893
_cell_formula_units_Z   1
loop_
 _symmetry_equiv_pos_site_id
 _symmetry_equiv_pos_as_xyz
  1  'x, y, z'
loop_
 _atom_site_type_symbol
 _atom_site_label
 _atom_site_symmetry_multiplicity
 _atom_site_fract_x
 _atom_site_fract_y
 _atom_site_fract_z
 _atom_site_occupancy
  Mn  Mn0  1  -0.00000000  0.50000000  0.50000000  1
  Mn  Mn1  1  0.38915618  0.80542141  0.78107675  1
  Mn  Mn2  1  0.61084382  0.19457859  0.21892325  1
  Zn  Zn0  1  0.94573646  0.02713127  0.79517850  1
  Zn  Zn1  1  0.05426354  0.97286873  0.20482150  1
  Zn  Zn2  1  0.67816585  0.66091707  0.50769727  1
  Zn  Zn3  1  0.32183415  0.33908293  0.49230273  1
  Zn  Zn4  1  0.82521255  0.58739423  0.11160917  1
  Zn  Zn5  1  0.17478745  0.41260577  0.88839083  1
  Zn  Zn6  1  0.37243393  0.81378303  0.14897933  1
  Zn  Zn7  1  0.62756607  0.18621697  0.85102067  1
  N  N0  1  0.23303884  0.88348108  0.98233073  1
  N  N1  1  0.76696116  0.11651892  0.01766927  1
  N  N2  1  0.33666238  0.83166881  0.58548596  1
  N  N3  1  0.66333762  0.16833119  0.41451404  1
  N  N4  1  0.58336838  0.70831531  0.77384048  1
  N  N5  1  0.41663162  0.29168469  0.22615952  1
  N  N6  1  0.97190434  0.51404833  0.26145225  1
  N  N7  1  0.02809566  0.48595167  0.73854775  1
loop_
_geom_bond_atom_site_label_1
_geom_bond_atom_site_label_2
_geom_bond_distance
_geom_bond_site_symmetry_2
Mn0 N7 1.933620 1_555
Mn0 N6 1.933620 1_455
Mn1 N2 1.707157 1_555
Mn1 N4 1.833624 1_555
Mn1 N0 1.886106 1_555
Mn2 N3 1.707157 1_555
Mn2 N5 1.833624 1_555
Mn2 N1 1.886106 1_555
N0 Zn6 2.058551 1_556
N0 Zn5 2.061138 1_565
N0 Zn5 2.061144 1_555
N0 Zn1 2.120465 1_556
N1 Zn7 2.058551 1_554
N1 Zn4 2.061138 1_545
N1 Zn4 2.061144 1_555
N1 Zn0 2.120465 1_554
N2 Zn3 1.952229 1_565
N2 Zn3 1.952229 1_555
N3 Zn2 1.952229 1_545
N3 Zn2 1.952229 1_555
N4 Zn7 1.968150 1_555
N4 Zn7 1.968154 1_565
N4 Zn2 2.052512 1_555
N5 Zn6 1.968150 1_555
N5 Zn6 1.968154 1_545
N5 Zn3 2.052512 1_555
N6 Zn1 1.965686 1_645
N6 Zn1 1.965686 1_655
N6 Zn4 2.015398 1_555
N7 Zn0 1.965686 1_465
N7 Zn0 1.965686 1_455
N7 Zn5 2.015398 1_555
