# generated using pymatgen
data_ZrSi2
_symmetry_space_group_name_H-M   'P 1'
_cell_length_a   3.67325121
_cell_length_b   3.68348421
_cell_length_c   7.66026731
_cell_angle_alpha   103.91180170
_cell_angle_beta   90.00000000
_cell_angle_gamma   90.00000000
_symmetry_Int_Tables_number   1
_chemical_formula_structural   ZrSi2
_chemical_formula_sum   'Zr2 Si4'
_cell_volume   100.60594016
_cell_formula_units_Z   2
loop_
 _symmetry_equiv_pos_site_id
 _symmetry_equiv_pos_as_xyz
  1  'x, y, z'
loop_
 _atom_site_type_symbol
 _atom_site_label
 _atom_site_symmetry_multiplicity
 _atom_site_fract_x
 _atom_site_fract_y
 _atom_site_fract_z
 _atom_site_occupancy
  Zr  Zr0  1  0.75000000  0.10591187  0.21182374  1
  Zr  Zr1  1  0.25000000  0.89408813  0.78817626  1
  Si  Si0  1  0.25000000  0.55146092  0.10292284  1
  Si  Si1  1  0.75000000  0.44853908  0.89707716  1
  Si  Si2  1  0.75000000  0.74975047  0.49950195  1
  Si  Si3  1  0.25000000  0.25024953  0.50049805  1
loop_
_geom_bond_atom_site_label_1
_geom_bond_atom_site_label_2
_geom_bond_distance
_geom_bond_site_symmetry_2
Si0 Si1 2.390788 1_554
Si0 Si1 2.390788 1_454
Si0 Zr0 2.724129 1_455
Si0 Zr0 2.724129 1_555
Si0 Zr0 2.724132 1_565
Si0 Zr0 2.724132 1_465
Si0 Zr1 2.978104 1_544
Si0 Zr1 2.978106 1_554
Si1 Zr1 2.724129 1_655
Si1 Zr1 2.724129 1_555
Si1 Zr1 2.724132 1_545
Si1 Zr1 2.724132 1_645
Si1 Zr0 2.978104 1_566
Si1 Zr0 2.978106 1_556
Si2 Si3 2.601009 1_555
Si2 Si3 2.601009 1_655
Si2 Si3 2.601014 1_565
Si2 Si3 2.601014 1_665
Si2 Zr0 2.822684 1_555
Si2 Zr0 2.822687 1_565
Si2 Zr1 2.824973 1_555
Si2 Zr1 2.824973 1_655
Si3 Zr1 2.822684 1_555
Si3 Zr1 2.822687 1_545
Si3 Zr0 2.824973 1_555
Si3 Zr0 2.824973 1_455
