# generated using pymatgen
data_La3BeCrS7
_symmetry_space_group_name_H-M   'P 1'
_cell_length_a   10.16956060
_cell_length_b   10.16956060
_cell_length_c   5.97545600
_cell_angle_alpha   90.00000000
_cell_angle_beta   90.00000000
_cell_angle_gamma   120.00000391
_symmetry_Int_Tables_number   1
_chemical_formula_structural   La3BeCrS7
_chemical_formula_sum   'La6 Be2 Cr2 S14'
_cell_volume   535.18760276
_cell_formula_units_Z   2
loop_
 _symmetry_equiv_pos_site_id
 _symmetry_equiv_pos_as_xyz
  1  'x, y, z'
loop_
 _atom_site_type_symbol
 _atom_site_label
 _atom_site_symmetry_multiplicity
 _atom_site_fract_x
 _atom_site_fract_y
 _atom_site_fract_z
 _atom_site_occupancy
  La  La0  1  0.86331700  0.25260300  0.25226700  1
  La  La1  1  0.74739700  0.61071400  0.25226700  1
  La  La2  1  0.38928600  0.13668300  0.25226700  1
  La  La3  1  0.13668300  0.74739700  0.75226700  1
  La  La4  1  0.25260300  0.38928600  0.75226700  1
  La  La5  1  0.61071400  0.86331700  0.75226700  1
  Be  Be0  1  0.66666700  0.33333300  0.83883900  1
  Be  Be1  1  0.33333300  0.66666700  0.33883900  1
  Cr  Cr0  1  0.00000000  0.00000000  0.48259700  1
  Cr  Cr1  1  0.00000000  0.00000000  0.98259700  1
  S  S0  1  0.92537400  0.14116500  0.73264700  1
  S  S1  1  0.85883500  0.78420900  0.73264700  1
  S  S2  1  0.21579100  0.07462600  0.73264700  1
  S  S3  1  0.07462600  0.85883500  0.23264700  1
  S  S4  1  0.14116500  0.21579100  0.23264700  1
  S  S5  1  0.78420900  0.92537400  0.23264700  1
  S  S6  1  0.59395000  0.11267700  0.96817700  1
  S  S7  1  0.88732300  0.48127400  0.96817700  1
  S  S8  1  0.51872600  0.40605000  0.96817700  1
  S  S9  1  0.40605000  0.88732300  0.46817700  1
  S  S10  1  0.11267700  0.51872600  0.46817700  1
  S  S11  1  0.48127400  0.59395000  0.46817700  1
  S  S12  1  0.66666700  0.33333300  0.48740900  1
  S  S13  1  0.33333300  0.66666700  0.98740900  1
loop_
_geom_bond_atom_site_label_1
_geom_bond_atom_site_label_2
_geom_bond_distance
_geom_bond_site_symmetry_2
La0 S7 2.789532 1_554
La0 S12 2.879149 1_555
La0 S6 2.917633 1_554
La0 S10 2.925161 1_655
La0 S5 3.009629 1_545
La0 S4 3.032434 1_655
La0 S0 3.261519 1_555
La0 S0 3.469670 1_554
La1 S8 2.789528 1_554
La1 S12 2.879158 1_555
La1 S7 2.917626 1_554
La1 S11 2.925157 1_555
La1 S3 3.009629 1_655
La1 S5 3.032434 1_555
La1 S1 3.261518 1_555
La1 S1 3.469670 1_554
La2 S6 2.789524 1_554
La2 S12 2.879155 1_555
La2 S8 2.917633 1_554
La2 S9 2.925166 1_545
La2 S4 3.009629 1_555
La2 S3 3.032434 1_545
La2 S2 3.261518 1_555
La2 S2 3.469670 1_554
La3 S10 2.789532 1_555
La3 S13 2.879149 1_555
La3 S9 2.917633 1_555
La3 S7 2.925161 1_455
La3 S2 3.009629 1_565
La3 S1 3.032434 1_455
La3 S3 3.261519 1_556
La3 S3 3.469670 1_555
La4 S11 2.789528 1_555
La4 S13 2.879158 1_555
La4 S10 2.917626 1_555
La4 S8 2.925157 1_555
La4 S0 3.009629 1_455
La4 S2 3.032434 1_555
La4 S4 3.261518 1_556
La4 S4 3.469670 1_555
La5 S9 2.789524 1_555
La5 S13 2.879155 1_555
La5 S11 2.917633 1_555
La5 S6 2.925166 1_565
La5 S1 3.009629 1_555
La5 S0 3.032434 1_565
La5 S5 3.261518 1_556
La5 S5 3.469670 1_555
Be0 S12 2.099955 1_555
Be0 S6 2.126068 1_555
Be0 S7 2.126072 1_555
Be0 S8 2.126086 1_555
Be1 S13 2.099955 1_554
Be1 S9 2.126068 1_555
Be1 S10 2.126072 1_555
Be1 S11 2.126086 1_555
Cr0 S4 2.440713 1_555
Cr0 S5 2.440713 1_445
Cr0 S3 2.440713 1_545
Cr0 S1 2.441079 1_445
Cr0 S2 2.441079 1_555
Cr0 S0 2.441079 1_455
Cr1 S1 2.440713 1_445
Cr1 S2 2.440713 1_555
Cr1 S0 2.440713 1_455
Cr1 S4 2.441079 1_556
Cr1 S5 2.441079 1_446
Cr1 S3 2.441079 1_546
