# generated using pymatgen
data_NaCa2Rh
_symmetry_space_group_name_H-M   'P 1'
_cell_length_a   12.02425125
_cell_length_b   12.54079003
_cell_length_c   12.54079015
_cell_angle_alpha   61.30859843
_cell_angle_beta   61.35340872
_cell_angle_gamma   61.35340433
_symmetry_Int_Tables_number   1
_chemical_formula_structural   NaCa2Rh
_chemical_formula_sum   'Na1 Ca2 Rh1'
_cell_volume   1377.41000846
_cell_formula_units_Z   1
loop_
 _symmetry_equiv_pos_site_id
 _symmetry_equiv_pos_as_xyz
  1  'x, y, z'
loop_
 _atom_site_type_symbol
 _atom_site_label
 _atom_site_symmetry_multiplicity
 _atom_site_fract_x
 _atom_site_fract_y
 _atom_site_fract_z
 _atom_site_occupancy
  Na  Na0  1  -0.00000000  0.00000000  0.00000000  1
  Ca  Ca0  1  0.69678445  1.00000000  0.00000000  1
  Ca  Ca1  1  0.30321555  0.00000000  1.00000000  1
  Rh  Rh0  1  0.50000000  0.00000000  0.00000000  1
loop_
_geom_bond_atom_site_label_1
_geom_bond_atom_site_label_2
_geom_bond_distance
_geom_bond_site_symmetry_2
Ca0 Rh0 2.366186 1_565
Ca0 Na0 3.645940 1_665
Ca1 Rh0 2.366186 1_556
Ca1 Na0 3.645940 1_556
