# generated using pymatgen
data_Na3VPCO7
_symmetry_space_group_name_H-M   'P 1'
_cell_length_a   8.65396197
_cell_length_b   8.65331306
_cell_length_c   8.91588626
_cell_angle_alpha   90.93666856
_cell_angle_beta   89.06392541
_cell_angle_gamma   76.90727805
_symmetry_Int_Tables_number   1
_chemical_formula_structural   Na3VPCO7
_chemical_formula_sum   'Na12 V4 P4 C4 O28'
_cell_volume   650.08925695
_cell_formula_units_Z   4
loop_
 _symmetry_equiv_pos_site_id
 _symmetry_equiv_pos_as_xyz
  1  'x, y, z'
loop_
 _atom_site_type_symbol
 _atom_site_label
 _atom_site_symmetry_multiplicity
 _atom_site_fract_x
 _atom_site_fract_y
 _atom_site_fract_z
 _atom_site_occupancy
  Na  Na0  1  0.74370200  0.74297300  0.00021000  1
  Na  Na1  1  0.24368400  0.24295900  0.00016000  1
  Na  Na2  1  0.49300800  0.49372500  0.99983400  1
  Na  Na3  1  0.99292100  0.99367400  0.99978100  1
  Na  Na4  1  0.33908900  0.89507000  0.16185800  1
  Na  Na5  1  0.83909800  0.39509200  0.16189400  1
  Na  Na6  1  0.64509400  0.08908200  0.83815200  1
  Na  Na7  1  0.14507000  0.58911600  0.83810300  1
  Na  Na8  1  0.49095100  0.99460100  0.49918000  1
  Na  Na9  1  0.99104300  0.49455500  0.49924400  1
  Na  Na10  1  0.74457900  0.24100800  0.50078500  1
  Na  Na11  1  0.24455600  0.74101800  0.50078600  1
  V  V0  1  0.89331500  0.84334500  0.27964800  1
  V  V1  1  0.09337300  0.14325800  0.72042300  1
  V  V2  1  0.39326900  0.34347500  0.27963300  1
  V  V3  1  0.59349600  0.64330100  0.72033300  1
  P  P0  1  0.61085900  0.62588000  0.34348500  1
  P  P1  1  0.11085100  0.12588800  0.34345400  1
  P  P2  1  0.37591600  0.36092200  0.65651300  1
  P  P3  1  0.87592500  0.86086500  0.65654400  1
  C  C0  1  0.61883700  0.11805100  0.16382800  1
  C  C1  1  0.11885500  0.61802200  0.16382100  1
  C  C2  1  0.36804200  0.86886800  0.83617700  1
  C  C3  1  0.86805800  0.36885100  0.83617000  1
  O  O0  1  0.52615600  0.21077000  0.07004600  1
  O  O1  1  0.02614900  0.71076400  0.07008200  1
  O  O2  1  0.46077000  0.77619000  0.92995100  1
  O  O3  1  0.96079600  0.27615500  0.92992000  1
  O  O4  1  0.73298600  0.00352900  0.11283900  1
  O  O5  1  0.23300100  0.50353900  0.11279100  1
  O  O6  1  0.25351000  0.98299900  0.88717900  1
  O  O7  1  0.75356900  0.48300000  0.88719600  1
  O  O8  1  0.06677600  0.98714200  0.24935100  1
  O  O9  1  0.56673600  0.48715900  0.24940400  1
  O  O10  1  0.73714800  0.81676000  0.75054800  1
  O  O11  1  0.23714100  0.31678800  0.75051100  1
  O  O12  1  0.25025300  0.16919400  0.24979300  1
  O  O13  1  0.75021700  0.66924500  0.24984000  1
  O  O14  1  0.91923800  0.00021600  0.75025200  1
  O  O15  1  0.41924400  0.50024400  0.75028200  1
  O  O16  1  0.59310900  0.14427200  0.30558700  1
  O  O17  1  0.09310500  0.64420900  0.30559100  1
  O  O18  1  0.39425400  0.84315000  0.69441400  1
  O  O19  1  0.89425200  0.34308800  0.69440600  1
  O  O20  1  0.46792700  0.76909500  0.35807300  1
  O  O21  1  0.96788500  0.26909300  0.35811500  1
  O  O22  1  0.51907300  0.21791600  0.64190000  1
  O  O23  1  0.01910400  0.71788700  0.64191900  1
  O  O24  1  0.17372800  0.06269400  0.49811700  1
  O  O25  1  0.67374900  0.56271700  0.49814400  1
  O  O26  1  0.81284600  0.92388700  0.50190700  1
  O  O27  1  0.31288600  0.42389700  0.50182400  1
loop_
_geom_bond_atom_site_label_1
_geom_bond_atom_site_label_2
_geom_bond_distance
_geom_bond_site_symmetry_2
Na0 O13 2.323372 1_555
Na0 O10 2.323785 1_554
Na0 O7 2.432995 1_554
Na0 O4 2.434902 1_565
Na0 O1 2.487386 1_655
Na0 O2 2.491433 1_554
Na1 O12 2.323479 1_555
Na1 O11 2.323779 1_554
Na1 O6 2.432840 1_544
Na1 O5 2.435149 1_555
Na1 O0 2.487646 1_555
Na1 O3 2.491040 1_454
Na2 O15 2.322799 1_555
Na2 O9 2.322855 1_556
Na2 O5 2.433307 1_556
Na2 O7 2.435123 1_555
Na2 O2 2.487362 1_555
Na2 O0 2.491400 1_556
Na3 O14 2.322397 1_565
Na3 O8 2.323175 1_656
Na3 O4 2.433035 1_566
Na3 O6 2.435294 1_655
Na3 O3 2.487547 1_565
Na3 O1 2.491168 1_656
Na4 O20 2.251087 1_555
Na4 O2 2.410569 1_554
Na4 O8 2.421936 1_555
Na4 O12 2.434293 1_565
Na4 O6 2.643849 1_554
Na5 O21 2.251033 1_555
Na5 O3 2.411276 1_554
Na5 O9 2.422356 1_555
Na5 O13 2.434583 1_555
Na5 O7 2.643865 1_554
Na6 O22 2.251486 1_555
Na6 O0 2.410647 1_556
Na6 O10 2.422130 1_545
Na6 O14 2.434538 1_555
Na6 O4 2.643788 1_556
Na7 O23 2.250605 1_555
Na7 O1 2.411127 1_556
Na7 O11 2.422160 1_555
Na7 O15 2.434564 1_555
Na7 O5 2.643925 1_556
Na8 O20 2.352539 1_555
Na8 O22 2.356997 1_565
Na8 O18 2.443693 1_555
Na8 O16 2.445452 1_565
Na8 O24 2.674282 1_565
Na8 O26 2.713927 1_555
Na9 O21 2.352648 1_555
Na9 O23 2.356751 1_655
Na9 O19 2.443688 1_555
Na9 O17 2.445349 1_655
Na9 O25 2.674883 1_555
Na9 O27 2.713453 1_655
Na10 O22 2.352872 1_555
Na10 O21 2.356729 1_555
Na10 O16 2.443736 1_555
Na10 O19 2.445336 1_555
Na10 O26 2.673213 1_545
Na10 O25 2.712124 1_555
Na11 O23 2.352659 1_555
Na11 O20 2.357381 1_555
Na11 O17 2.443900 1_555
Na11 O18 2.445726 1_555
Na11 O27 2.673189 1_555
Na11 O24 2.711853 1_565
C0 O16 1.287268 1_555
C0 O4 1.300636 1_555
C0 O0 1.318511 1_555
C1 O17 1.287350 1_555
C1 O5 1.300542 1_555
C1 O1 1.318460 1_555
C2 O18 1.287283 1_555
C2 O6 1.300634 1_555
C2 O2 1.318489 1_555
C3 O19 1.287319 1_555
C3 O7 1.300577 1_555
C3 O3 1.318466 1_555
O0 V2 2.322579 1_555
O1 V0 2.321866 1_455
O2 V3 2.322871 1_555
O3 V1 2.321570 1_655
O4 V0 2.306914 1_545
O5 V2 2.306365 1_555
O6 V1 2.306118 1_565
O7 V3 2.306662 1_555
O8 P1 1.573496 1_565
O8 V0 2.172250 1_455
O9 P0 1.573394 1_555
O9 V2 2.171503 1_555
O10 P3 1.573430 1_555
O10 V3 2.171201 1_555
O11 P2 1.573494 1_555
O11 V1 2.172301 1_555
O12 P1 1.573295 1_555
O12 V2 2.172611 1_555
O13 P0 1.573126 1_555
O13 V0 2.171808 1_555
O14 P3 1.573111 1_545
O14 V1 2.171754 1_655
O15 P2 1.573246 1_555
O15 V3 2.172809 1_555
O16 V2 2.165937 1_555
O17 V0 2.165298 1_455
O18 V3 2.166152 1_555
O19 V1 2.165520 1_655
O20 P0 1.541984 1_555
O21 P1 1.542151 1_655
O22 P2 1.542083 1_555
O23 P3 1.542057 1_455
O24 P1 1.552740 1_555
O24 V1 2.142026 1_555
O25 P0 1.552663 1_555
O25 V3 2.140904 1_555
O26 P3 1.552604 1_555
O26 V0 2.141830 1_555
O27 P2 1.552783 1_555
O27 V2 2.140854 1_555
