# generated using pymatgen
data_Li2Fe3SnO8
_symmetry_space_group_name_H-M   'P 1'
_cell_length_a   5.95927740
_cell_length_b   10.18866983
_cell_length_c   6.09707992
_cell_angle_alpha   106.07311969
_cell_angle_beta   60.51775118
_cell_angle_gamma   89.37611233
_symmetry_Int_Tables_number   1
_chemical_formula_structural   Li2Fe3SnO8
_chemical_formula_sum   'Li4 Fe6 Sn2 O16'
_cell_volume   304.83318304
_cell_formula_units_Z   2
loop_
 _symmetry_equiv_pos_site_id
 _symmetry_equiv_pos_as_xyz
  1  'x, y, z'
loop_
 _atom_site_type_symbol
 _atom_site_label
 _atom_site_symmetry_multiplicity
 _atom_site_fract_x
 _atom_site_fract_y
 _atom_site_fract_z
 _atom_site_occupancy
  Li  Li0  1  0.31325200  0.56423600  0.36494300  1
  Li  Li1  1  0.82126900  0.06394600  0.36323000  1
  Li  Li2  1  0.18708300  0.93585600  0.63427400  1
  Li  Li3  1  0.67866300  0.43606100  0.63738500  1
  Fe  Fe0  1  0.25022900  0.75028100  0.99973100  1
  Fe  Fe1  1  0.75003900  0.74997800  0.99955000  1
  Fe  Fe2  1  0.99361700  0.49914400  0.00107300  1
  Fe  Fe3  1  0.74994800  0.24993400  0.00023500  1
  Fe  Fe4  1  0.24976400  0.25011300  0.00051300  1
  Fe  Fe5  1  0.50622300  0.00073600  0.99919700  1
  Sn  Sn0  1  0.74999800  0.74972200  0.49993300  1
  Sn  Sn1  1  0.24992500  0.25028900  0.50028500  1
  O  O0  1  0.08680900  0.63394300  0.79806600  1
  O  O1  1  0.60445100  0.13449300  0.80245100  1
  O  O2  1  0.41314500  0.86658800  0.20138200  1
  O  O3  1  0.89578000  0.36475400  0.19800800  1
  O  O4  1  0.87547300  0.85957100  0.22639000  1
  O  O5  1  0.40645300  0.36123500  0.23148500  1
  O  O6  1  0.11040700  0.62208900  0.22544600  1
  O  O7  1  0.62297100  0.12770800  0.21972400  1
  O  O8  1  0.65187700  0.63167000  0.22618900  1
  O  O9  1  0.16108400  0.12925300  0.22682700  1
  O  O10  1  0.84891800  0.86776600  0.77265700  1
  O  O11  1  0.33796300  0.37147500  0.77459200  1
  O  O12  1  0.38937400  0.87721800  0.77386800  1
  O  O13  1  0.87713200  0.37267700  0.78020400  1
  O  O14  1  0.62415700  0.64037500  0.77378200  1
  O  O15  1  0.09399600  0.13889200  0.76858100  1
loop_
_geom_bond_atom_site_label_1
_geom_bond_atom_site_label_2
_geom_bond_distance
_geom_bond_site_symmetry_2
Li0 O6 1.950932 1_555
Li0 O5 1.961305 1_555
Li0 O8 1.982821 1_555
Li0 O0 2.175334 1_555
Li1 O4 1.973456 1_545
Li1 O7 1.974798 1_555
Li1 O9 1.978201 1_655
Li1 O1 2.205831 1_555
Li2 O12 1.952023 1_555
Li2 O15 1.961516 1_565
Li2 O10 1.983738 1_455
Li2 O2 2.174215 1_555
Li3 O13 1.970446 1_555
Li3 O14 1.972641 1_555
Li3 O11 1.979182 1_555
Li3 O3 2.206482 1_555
Fe0 O12 2.035253 1_555
Fe0 O6 2.045588 1_556
Fe0 O14 2.046240 1_555
Fe0 O4 2.047715 1_456
Fe0 O2 2.061961 1_556
Fe0 O0 2.064464 1_555
Fe1 O0 1.910993 1_655
Fe1 O2 1.913955 1_556
Fe1 O10 1.957945 1_555
Fe1 O8 1.961297 1_556
Fe1 O14 1.971825 1_555
Fe1 O4 1.974605 1_556
Fe2 O3 1.973633 1_555
Fe2 O6 1.982995 1_655
Fe2 O13 1.983542 1_554
Fe2 O11 1.991948 1_654
Fe2 O0 2.002012 1_654
Fe2 O8 2.004259 1_555
Fe3 O5 1.920238 1_555
Fe3 O15 1.921666 1_654
Fe3 O3 1.962240 1_555
Fe3 O1 1.963521 1_554
Fe3 O7 1.964913 1_555
Fe3 O13 1.971541 1_554
Fe4 O3 1.982797 1_455
Fe4 O9 1.984164 1_555
Fe4 O11 1.986777 1_554
Fe4 O1 1.989795 1_554
Fe4 O5 2.138084 1_555
Fe4 O15 2.138494 1_554
Fe5 O1 1.967309 1_555
Fe5 O7 1.985629 1_556
Fe5 O12 1.989845 1_545
Fe5 O2 1.992954 1_546
Fe5 O9 1.999102 1_556
Fe5 O10 2.010212 1_545
O4 Sn0 2.101827 1_555
O5 Sn1 2.092344 1_555
O6 Sn0 2.073857 1_455
O7 Sn1 2.107487 1_555
O8 Sn0 2.106807 1_555
O9 Sn1 2.079783 1_555
O10 Sn0 2.105200 1_555
O11 Sn1 2.081171 1_555
O12 Sn0 2.073706 1_555
O13 Sn1 2.105307 1_655
O14 Sn0 2.099330 1_555
O15 Sn1 2.093422 1_555
