# generated using pymatgen
data_Cr2Se3
_symmetry_space_group_name_H-M   'P 1'
_cell_length_a   6.96195359
_cell_length_b   7.30631797
_cell_length_c   8.60537999
_cell_angle_alpha   89.54792080
_cell_angle_beta   104.11491877
_cell_angle_gamma   106.18322290
_symmetry_Int_Tables_number   1
_chemical_formula_structural   Cr2Se3
_chemical_formula_sum   'Cr8 Se12'
_cell_volume   406.83785680
_cell_formula_units_Z   4
loop_
 _symmetry_equiv_pos_site_id
 _symmetry_equiv_pos_as_xyz
  1  'x, y, z'
loop_
 _atom_site_type_symbol
 _atom_site_label
 _atom_site_symmetry_multiplicity
 _atom_site_fract_x
 _atom_site_fract_y
 _atom_site_fract_z
 _atom_site_occupancy
  Cr  Cr0  1  0.83071026  0.32996359  0.33016611  1
  Cr  Cr1  1  0.16928974  0.67003641  0.66983389  1
  Cr  Cr2  1  0.52692749  0.74970587  0.49815041  1
  Cr  Cr3  1  0.84347164  0.07483443  0.84251130  1
  Cr  Cr4  1  0.18012892  0.40707676  0.15301036  1
  Cr  Cr5  1  0.47307251  0.25029413  0.50184959  1
  Cr  Cr6  1  0.81987108  0.59292324  0.84698964  1
  Cr  Cr7  1  0.15652836  0.92516557  0.15748870  1
  Se  Se0  1  0.54259934  0.02276382  0.31152518  1
  Se  Se1  1  0.87593343  0.34876054  0.64045955  1
  Se  Se2  1  0.20855729  0.68217232  0.97169809  1
  Se  Se3  1  0.45740066  0.97723618  0.68847482  1
  Se  Se4  1  0.79144271  0.31782768  0.02830191  1
  Se  Se5  1  0.12406657  0.65123946  0.35954045  1
  Se  Se6  1  0.44307976  0.49408129  0.69350537  1
  Se  Se7  1  0.78139277  0.82367669  0.03135173  1
  Se  Se8  1  0.10402836  0.15235642  0.35281094  1
  Se  Se9  1  0.55692024  0.50591871  0.30649463  1
  Se  Se10  1  0.89597164  0.84764358  0.64718906  1
  Se  Se11  1  0.21860723  0.17632331  0.96864827  1
loop_
_geom_bond_atom_site_label_1
_geom_bond_atom_site_label_2
_geom_bond_distance
_geom_bond_site_symmetry_2
Cr0 Se0 2.534959 1_555
Cr0 Se4 2.544440 1_555
Cr0 Se9 2.549494 1_555
Cr0 Se8 2.556204 1_655
Cr0 Se1 2.611430 1_555
Cr0 Se5 2.613486 1_655
Cr1 Se3 2.534959 1_555
Cr1 Se2 2.544440 1_555
Cr1 Se6 2.549494 1_555
Cr1 Se10 2.556204 1_455
Cr1 Se5 2.611430 1_555
Cr1 Se1 2.613486 1_455
Cr2 Se10 2.478018 1_555
Cr2 Se9 2.521500 1_555
Cr2 Se6 2.544884 1_555
Cr2 Se0 2.546539 1_565
Cr2 Se3 2.560958 1_555
Cr2 Se5 2.657777 1_555
Cr3 Se7 2.459336 1_546
Cr3 Se11 2.469708 1_655
Cr3 Se10 2.529026 1_545
Cr3 Se4 2.554423 1_556
Cr3 Se3 2.588186 1_545
Cr3 Se1 2.639024 1_555
Cr4 Se11 2.435666 1_554
Cr4 Se2 2.528401 1_554
Cr4 Se9 2.533068 1_555
Cr4 Se4 2.551564 1_455
Cr4 Se8 2.558251 1_555
Cr4 Se5 2.696277 1_555
Cr5 Se8 2.478018 1_555
Cr5 Se6 2.521500 1_555
Cr5 Se9 2.544884 1_555
Cr5 Se3 2.546539 1_545
Cr5 Se0 2.560958 1_555
Cr5 Se1 2.657777 1_555
Cr6 Se7 2.435666 1_556
Cr6 Se4 2.528401 1_556
Cr6 Se6 2.533068 1_555
Cr6 Se2 2.551564 1_655
Cr6 Se10 2.558251 1_555
Cr6 Se1 2.696277 1_555
Cr7 Se11 2.459336 1_564
Cr7 Se7 2.469708 1_455
Cr7 Se8 2.529026 1_565
Cr7 Se2 2.554423 1_554
Cr7 Se0 2.588186 1_565
Cr7 Se5 2.639024 1_555
