# generated using pymatgen
data_GaCuGeSe4
_symmetry_space_group_name_H-M   'P 1'
_cell_length_a   6.66163546
_cell_length_b   6.66163546
_cell_length_c   6.66163546
_cell_angle_alpha   131.17639874
_cell_angle_beta   131.17639874
_cell_angle_gamma   71.53296793
_symmetry_Int_Tables_number   1
_chemical_formula_structural   GaCuGeSe4
_chemical_formula_sum   'Ga1 Cu1 Ge1 Se4'
_cell_volume   163.89084272
_cell_formula_units_Z   1
loop_
 _symmetry_equiv_pos_site_id
 _symmetry_equiv_pos_as_xyz
  1  'x, y, z'
loop_
 _atom_site_type_symbol
 _atom_site_label
 _atom_site_symmetry_multiplicity
 _atom_site_fract_x
 _atom_site_fract_y
 _atom_site_fract_z
 _atom_site_occupancy
  Ga  Ga0  1  0.50000000  0.50000000  0.00000000  1
  Cu  Cu0  1  0.25000000  0.75000000  0.50000000  1
  Ge  Ge0  1  0.75000000  0.25000000  0.50000000  1
  Se  Se0  1  0.11400482  0.11832218  0.47142440  1
  Se  Se1  1  0.64689778  0.64258042  0.52857560  1
  Se  Se2  1  0.35741958  0.88599518  0.00431736  1
  Se  Se3  1  0.88167782  0.35310222  -0.00431736  1
loop_
_geom_bond_atom_site_label_1
_geom_bond_atom_site_label_2
_geom_bond_distance
_geom_bond_site_symmetry_2
Ga0 Se1 2.430269 1_555
Ga0 Se0 2.430269 1_554
Ga0 Se2 2.430269 1_555
Ga0 Se3 2.430269 1_555
Cu0 Se3 2.420121 1_455
Cu0 Se2 2.420121 1_556
Cu0 Se1 2.420121 1_555
Cu0 Se0 2.420121 1_565
Ge0 Se3 2.392924 1_556
Ge0 Se2 2.392924 1_545
Ge0 Se0 2.392924 1_655
Ge0 Se1 2.392924 1_555
