# generated using pymatgen
data_Be4AlCu
_symmetry_space_group_name_H-M   'P 1'
_cell_length_a   4.30832101
_cell_length_b   4.30832101
_cell_length_c   4.30832101
_cell_angle_alpha   60.00000000
_cell_angle_beta   60.00000000
_cell_angle_gamma   60.00000000
_symmetry_Int_Tables_number   1
_chemical_formula_structural   Be4AlCu
_chemical_formula_sum   'Be4 Al1 Cu1'
_cell_volume   56.54694749
_cell_formula_units_Z   1
loop_
 _symmetry_equiv_pos_site_id
 _symmetry_equiv_pos_as_xyz
  1  'x, y, z'
loop_
 _atom_site_type_symbol
 _atom_site_label
 _atom_site_symmetry_multiplicity
 _atom_site_fract_x
 _atom_site_fract_y
 _atom_site_fract_z
 _atom_site_occupancy
  Be  Be0  1  0.62510800  0.62510800  0.12467600  1
  Be  Be1  1  0.62510800  0.12467600  0.62510800  1
  Be  Be2  1  0.12467600  0.62510800  0.62510800  1
  Be  Be3  1  0.62510800  0.62510800  0.62510800  1
  Al  Al0  1  0.25000000  0.25000000  0.25000000  1
  Cu  Cu0  1  0.00000000  0.00000000  0.00000000  1
loop_
_geom_bond_atom_site_label_1
_geom_bond_atom_site_label_2
_geom_bond_distance
_geom_bond_site_symmetry_2
Be0 Be3 2.152299 1_554
Be0 Be1 2.152299 1_564
Be0 Be2 2.152299 1_654
Be0 Be3 2.156022 1_555
Be0 Be2 2.156022 1_555
Be0 Be1 2.156022 1_555
Be0 Cu0 2.525779 1_655
Be0 Cu0 2.525779 1_565
Be0 Cu0 2.525779 1_665
Be1 Be2 2.152299 1_645
Be1 Be3 2.152299 1_545
Be1 Be3 2.156022 1_555
Be1 Be2 2.156022 1_555
Be1 Cu0 2.525779 1_556
Be1 Cu0 2.525779 1_655
Be1 Cu0 2.525779 1_656
Be2 Be3 2.152299 1_455
Be2 Be3 2.156022 1_555
Be2 Cu0 2.525779 1_565
Be2 Cu0 2.525779 1_566
Be2 Cu0 2.525779 1_556
Be3 Cu0 2.525779 1_656
Be3 Cu0 2.525779 1_665
Be3 Cu0 2.525779 1_566
Al0 Be3 2.526176 1_554
Al0 Be0 2.526176 1_555
Al0 Be1 2.526176 1_555
Al0 Be2 2.526176 1_554
Al0 Be2 2.526176 1_545
Al0 Be3 2.526176 1_545
Al0 Be1 2.526176 1_554
Al0 Be2 2.526176 1_555
Al0 Be1 2.526176 1_455
Al0 Be0 2.526176 1_455
Al0 Be3 2.526176 1_455
Al0 Be0 2.526176 1_545
Al0 Cu0 2.638297 1_565
Al0 Cu0 2.638297 1_555
Al0 Cu0 2.638297 1_556
Al0 Cu0 2.638297 1_655
