# generated using pymatgen
data_U(H2O3)2
_symmetry_space_group_name_H-M   'P 1'
_cell_length_a   6.71738300
_cell_length_b   8.48081600
_cell_length_c   8.87395600
_cell_angle_alpha   90.00000000
_cell_angle_beta   90.00000000
_cell_angle_gamma   90.00000000
_symmetry_Int_Tables_number   1
_chemical_formula_structural   U(H2O3)2
_chemical_formula_sum   'U4 H16 O24'
_cell_volume   505.53941635
_cell_formula_units_Z   4
loop_
 _symmetry_equiv_pos_site_id
 _symmetry_equiv_pos_as_xyz
  1  'x, y, z'
loop_
 _atom_site_type_symbol
 _atom_site_label
 _atom_site_symmetry_multiplicity
 _atom_site_fract_x
 _atom_site_fract_y
 _atom_site_fract_z
 _atom_site_occupancy
  U  U0  1  0.74791800  0.65118100  0.25000000  1
  U  U1  1  0.75208200  0.15118100  0.25000000  1
  U  U2  1  0.25208200  0.34881900  0.75000000  1
  U  U3  1  0.24791800  0.84881900  0.75000000  1
  H  H0  1  0.61338400  0.62810500  0.58302400  1
  H  H1  1  0.88661600  0.12810500  0.91697600  1
  H  H2  1  0.38661600  0.37189500  0.08302400  1
  H  H3  1  0.11338400  0.87189500  0.41697600  1
  H  H4  1  0.38661600  0.37189500  0.41697600  1
  H  H5  1  0.11338400  0.87189500  0.08302400  1
  H  H6  1  0.61338400  0.62810500  0.91697600  1
  H  H7  1  0.88661600  0.12810500  0.58302400  1
  H  H8  1  0.83691700  0.68885000  0.59749700  1
  H  H9  1  0.66308300  0.18885000  0.90250300  1
  H  H10  1  0.16308300  0.31115000  0.09749700  1
  H  H11  1  0.33691700  0.81115000  0.40250300  1
  H  H12  1  0.16308300  0.31115000  0.40250300  1
  H  H13  1  0.33691700  0.81115000  0.09749700  1
  H  H14  1  0.83691700  0.68885000  0.90250300  1
  H  H15  1  0.66308300  0.18885000  0.59749700  1
  O  O0  1  0.12101400  0.09966800  0.83176100  1
  O  O1  1  0.37898600  0.59966800  0.66823900  1
  O  O2  1  0.87898600  0.90033200  0.33176100  1
  O  O3  1  0.62101400  0.40033200  0.16823900  1
  O  O4  1  0.87898600  0.90033200  0.16823900  1
  O  O5  1  0.62101400  0.40033200  0.33176100  1
  O  O6  1  0.12101400  0.09966800  0.66823900  1
  O  O7  1  0.37898600  0.59966800  0.83176100  1
  O  O8  1  0.73673900  0.65057800  0.97532900  1
  O  O9  1  0.76326100  0.15057800  0.52467100  1
  O  O10  1  0.26326100  0.34942200  0.47532900  1
  O  O11  1  0.23673900  0.84942200  0.02467100  1
  O  O12  1  0.26326100  0.34942200  0.02467100  1
  O  O13  1  0.23673900  0.84942200  0.47532900  1
  O  O14  1  0.73673900  0.65057800  0.52467100  1
  O  O15  1  0.76326100  0.15057800  0.97532900  1
  O  O16  1  0.48985400  0.72578900  0.25000000  1
  O  O17  1  0.01014600  0.22578900  0.25000000  1
  O  O18  1  0.51014600  0.27421100  0.75000000  1
  O  O19  1  0.98985400  0.77421100  0.75000000  1
  O  O20  1  0.00201700  0.58248200  0.25000000  1
  O  O21  1  0.49798300  0.08248200  0.25000000  1
  O  O22  1  0.99798300  0.41751800  0.75000000  1
  O  O23  1  0.50201700  0.91751800  0.75000000  1
loop_
_geom_bond_atom_site_label_1
_geom_bond_atom_site_label_2
_geom_bond_distance
_geom_bond_site_symmetry_2
H0 O14 0.995530 1_555
H0 O1 1.763284 1_555
H1 O15 0.995530 1_555
H1 O0 1.763284 1_655
H2 O12 0.995530 1_555
H2 O3 1.763284 1_555
H3 O13 0.995530 1_555
H3 O2 1.763284 1_455
H4 O10 0.995530 1_555
H4 O5 1.763284 1_555
H5 O11 0.995530 1_555
H5 O4 1.763284 1_455
H6 O8 0.995530 1_555
H6 O7 1.763284 1_555
H7 O9 0.995530 1_555
H7 O6 1.763284 1_655
H8 O14 0.987844 1_555
H9 O15 0.987844 1_555
H10 O12 0.987844 1_555
H11 O13 0.987844 1_555
H12 O10 0.987844 1_555
H13 O11 0.987844 1_555
H14 O8 0.987844 1_555
H15 O9 0.987844 1_555
O0 O6 1.451087 1_555
O0 U2 2.401325 1_555
O0 U3 2.403946 1_545
O1 O7 1.451087 1_555
O1 U3 2.401325 1_555
O1 U2 2.403946 1_555
O2 O4 1.451087 1_555
O2 U0 2.401325 1_555
O2 U1 2.403946 1_565
O3 O5 1.451087 1_555
O3 U1 2.401325 1_555
O3 U0 2.403946 1_555
O4 U0 2.401325 1_555
O4 U1 2.403946 1_565
O5 U1 2.401325 1_555
O5 U0 2.403946 1_555
O6 U2 2.401325 1_555
O6 U3 2.403946 1_545
O7 U3 2.401325 1_555
O7 U2 2.403946 1_555
O8 U0 2.438580 1_556
O9 U1 2.438580 1_555
O10 U2 2.438580 1_555
O11 U3 2.438580 1_554
O12 U2 2.438580 1_554
O13 U3 2.438580 1_555
O14 U0 2.438580 1_555
O15 U1 2.438580 1_556
O16 U0 1.845380 1_555
O17 U1 1.845380 1_455
O18 U2 1.845380 1_555
O19 U3 1.845380 1_655
O20 U0 1.803577 1_455
O21 U1 1.803577 1_555
O22 U2 1.803577 1_655
O23 U3 1.803577 1_555
