# generated using pymatgen
data_Mg2Si3
_symmetry_space_group_name_H-M   'P 1'
_cell_length_a   3.61442800
_cell_length_b   6.03049903
_cell_length_c   17.84751606
_cell_angle_alpha   81.54988999
_cell_angle_beta   85.10287056
_cell_angle_gamma   74.29411516
_symmetry_Int_Tables_number   1
_chemical_formula_structural   Mg2Si3
_chemical_formula_sum   'Mg8 Si12'
_cell_volume   370.00417614
_cell_formula_units_Z   4
loop_
 _symmetry_equiv_pos_site_id
 _symmetry_equiv_pos_as_xyz
  1  'x, y, z'
loop_
 _atom_site_type_symbol
 _atom_site_label
 _atom_site_symmetry_multiplicity
 _atom_site_fract_x
 _atom_site_fract_y
 _atom_site_fract_z
 _atom_site_occupancy
  Mg  Mg0  1  0.84451700  0.12836900  0.20718700  1
  Mg  Mg1  1  0.66211000  0.85989000  0.76210000  1
  Mg  Mg2  1  0.01928400  0.90207400  0.05965600  1
  Mg  Mg3  1  0.42464000  0.22486800  0.94479500  1
  Mg  Mg4  1  0.41177000  0.39939400  0.74112600  1
  Mg  Mg5  1  0.10896100  0.47764500  0.29236200  1
  Mg  Mg6  1  0.54292900  0.35717000  0.56237800  1
  Mg  Mg7  1  0.94646000  0.69426900  0.44066400  1
  Si  Si0  1  0.80525300  0.37383800  0.05468900  1
  Si  Si1  1  0.65184900  0.70620800  0.95748400  1
  Si  Si2  1  0.22291100  0.47119000  0.13953300  1
  Si  Si3  1  0.19330700  0.68929100  0.87058300  1
  Si  Si4  1  0.12980200  0.05598200  0.65588000  1
  Si  Si5  1  0.39910300  0.86015200  0.31671600  1
  Si  Si6  1  0.32877400  0.86769500  0.54072200  1
  Si  Si7  1  0.15254500  0.22071900  0.44764400  1
  Si  Si8  1  0.86338300  0.70815900  0.62559100  1
  Si  Si9  1  0.73903100  0.13329900  0.35957700  1
  Si  Si10  1  0.54505600  0.75366800  0.18635300  1
  Si  Si11  1  0.00817500  0.11617000  0.83485300  1
loop_
_geom_bond_atom_site_label_1
_geom_bond_atom_site_label_2
_geom_bond_distance
_geom_bond_site_symmetry_2
Mg0 Si9 2.717361 1_555
Mg0 Si2 2.827489 1_555
Mg0 Si10 2.838230 1_545
Mg0 Si2 2.849171 1_655
Mg0 Si0 2.896076 1_555
Mg0 Si5 2.905173 1_645
Mg0 Si10 2.940076 1_645
Mg0 Si5 2.995435 1_545
Mg1 Si8 2.700825 1_555
Mg1 Si4 2.725094 1_565
Mg1 Si3 2.733728 1_655
Mg1 Si3 2.734325 1_555
Mg1 Si11 2.748237 1_665
Mg1 Si4 2.779593 1_665
Mg1 Si11 2.783750 1_565
Mg2 Si2 2.716801 1_555
Mg2 Si0 2.728777 1_465
Mg2 Si1 2.894807 1_454
Mg2 Si1 2.899469 1_554
Mg2 Si10 2.902779 1_455
Mg2 Si10 2.956960 1_555
Mg3 Si11 2.766096 1_655
Mg3 Si11 2.821749 1_555
Mg3 Si3 2.851033 1_555
Mg3 Si0 2.862526 1_556
Mg3 Si0 2.888791 1_456
Mg3 Si1 2.990256 1_545
Mg4 Si11 2.817097 1_555
Mg4 Si11 2.853937 1_655
Mg4 Si3 3.024301 1_555
Mg4 Si8 3.036276 1_455
Mg4 Si8 3.213392 1_555
Mg5 Si2 2.727961 1_555
Mg5 Si9 2.834838 1_455
Mg5 Si9 2.848078 1_555
Mg5 Si5 2.879541 1_555
Mg5 Si10 2.898388 1_455
Mg5 Si7 2.964201 1_555
Mg5 Si10 2.969958 1_555
Mg5 Si5 2.998810 1_455
Mg6 Si4 2.865488 1_655
Mg6 Si4 2.909574 1_555
Mg6 Si7 2.910075 1_655
Mg6 Si7 2.911761 1_555
Mg6 Si6 2.939085 1_555
Mg6 Si8 3.033122 1_455
Mg6 Si8 3.057249 1_555
Mg7 Si7 2.735921 1_655
Mg7 Si9 2.765976 1_565
Mg7 Si6 2.805586 1_555
Mg7 Si6 2.818682 1_655
Mg7 Si5 2.861608 1_655
Mg7 Si5 2.972162 1_555
Si0 Si1 2.423888 1_554
Si0 Si2 2.459244 1_655
Si0 Si2 2.473063 1_555
Si1 Si3 2.380371 1_655
Si1 Si3 2.395765 1_555
Si4 Si6 2.453993 1_545
Si4 Si8 2.671118 1_445
Si5 Si9 2.536640 1_565
Si5 Si9 2.630880 1_465
Si6 Si8 2.453299 1_555
Si6 Si8 2.462178 1_455
Si6 Si7 2.470774 1_565
Si7 Si9 2.460385 1_455
Si7 Si9 2.512298 1_555
Si10 Si5 2.479943 1_555
Si10 Si2 2.571809 1_555
Si10 Si2 2.722519 1_655
Si11 Si3 2.477738 1_545
