# generated using pymatgen
data_Pr(Ga4Co)2
_symmetry_space_group_name_H-M   'P 1'
_cell_length_a   4.06827800
_cell_length_b   12.62084400
_cell_length_c   14.29364800
_cell_angle_alpha   90.00000000
_cell_angle_beta   90.00000000
_cell_angle_gamma   90.00000000
_symmetry_Int_Tables_number   1
_chemical_formula_structural   Pr(Ga4Co)2
_chemical_formula_sum   'Pr4 Ga32 Co8'
_cell_volume   733.90881432
_cell_formula_units_Z   4
loop_
 _symmetry_equiv_pos_site_id
 _symmetry_equiv_pos_as_xyz
  1  'x, y, z'
loop_
 _atom_site_type_symbol
 _atom_site_label
 _atom_site_symmetry_multiplicity
 _atom_site_fract_x
 _atom_site_fract_y
 _atom_site_fract_z
 _atom_site_occupancy
  Pr  Pr0  1  0.50000000  0.65814100  0.81998000  1
  Pr  Pr1  1  0.50000000  0.34185900  0.18002000  1
  Pr  Pr2  1  0.50000000  0.84185900  0.31998000  1
  Pr  Pr3  1  0.50000000  0.15814100  0.68002000  1
  Ga  Ga0  1  0.00000000  0.50000000  0.50000000  1
  Ga  Ga1  1  0.00000000  0.00000000  0.00000000  1
  Ga  Ga2  1  0.50000000  0.00000000  0.50000000  1
  Ga  Ga3  1  0.50000000  0.50000000  0.00000000  1
  Ga  Ga4  1  0.00000000  0.66248900  0.38013600  1
  Ga  Ga5  1  0.00000000  0.33751100  0.61986400  1
  Ga  Ga6  1  0.00000000  0.83751100  0.88013600  1
  Ga  Ga7  1  0.00000000  0.16248900  0.11986400  1
  Ga  Ga8  1  0.00000000  0.95080600  0.17981300  1
  Ga  Ga9  1  0.00000000  0.04919400  0.82018700  1
  Ga  Ga10  1  0.00000000  0.54919400  0.67981300  1
  Ga  Ga11  1  0.00000000  0.45080600  0.32018700  1
  Ga  Ga12  1  0.00000000  0.73738100  0.17441200  1
  Ga  Ga13  1  0.00000000  0.26261900  0.82558800  1
  Ga  Ga14  1  0.00000000  0.76261900  0.67441200  1
  Ga  Ga15  1  0.00000000  0.23738100  0.32558800  1
  Ga  Ga16  1  0.00000000  0.83150000  0.49051200  1
  Ga  Ga17  1  0.00000000  0.16850000  0.50948800  1
  Ga  Ga18  1  0.00000000  0.66850000  0.99051200  1
  Ga  Ga19  1  0.00000000  0.33150000  0.00948800  1
  Ga  Ga20  1  0.00000000  0.52252200  0.13297100  1
  Ga  Ga21  1  0.00000000  0.47747800  0.86702900  1
  Ga  Ga22  1  0.00000000  0.97747800  0.63297100  1
  Ga  Ga23  1  0.00000000  0.02252200  0.36702900  1
  Ga  Ga24  1  0.50000000  0.66136800  0.54529900  1
  Ga  Ga25  1  0.50000000  0.33863200  0.45470100  1
  Ga  Ga26  1  0.50000000  0.83863200  0.04529900  1
  Ga  Ga27  1  0.50000000  0.16136800  0.95470100  1
  Ga  Ga28  1  0.50000000  0.90269300  0.75392300  1
  Ga  Ga29  1  0.50000000  0.09730700  0.24607700  1
  Ga  Ga30  1  0.50000000  0.59730700  0.25392300  1
  Ga  Ga31  1  0.50000000  0.40269300  0.74607700  1
  Co  Co0  1  0.50000000  0.84680200  0.59624400  1
  Co  Co1  1  0.50000000  0.15319800  0.40375600  1
  Co  Co2  1  0.50000000  0.65319800  0.09624400  1
  Co  Co3  1  0.50000000  0.34680200  0.90375600  1
  Co  Co4  1  0.50000000  0.96424000  0.90690100  1
  Co  Co5  1  0.50000000  0.03576000  0.09309900  1
  Co  Co6  1  0.50000000  0.53576000  0.40690100  1
  Co  Co7  1  0.50000000  0.46424000  0.59309900  1
loop_
_geom_bond_atom_site_label_1
_geom_bond_atom_site_label_2
_geom_bond_distance
_geom_bond_site_symmetry_2
Ga0 Ga10 2.644111 1_555
Ga0 Ga11 2.644111 1_555
Ga0 Ga5 2.672255 1_555
Ga0 Ga4 2.672255 1_555
Ga0 Ga24 2.950373 1_455
Ga0 Ga24 2.950373 1_555
Ga0 Ga25 2.950373 1_555
Ga0 Ga25 2.950373 1_455
Ga1 Ga9 2.644111 1_554
Ga1 Ga8 2.644111 1_545
Ga1 Ga7 2.672255 1_555
Ga1 Ga6 2.672255 1_544
Ga1 Ga27 2.950373 1_554
Ga1 Ga27 2.950373 1_454
Ga1 Ga26 2.950373 1_445
Ga1 Ga26 2.950373 1_545
Ga2 Ga22 2.798384 1_645
Ga2 Ga22 2.798384 1_545
Ga2 Ga23 2.798384 1_555
Ga2 Ga23 2.798384 1_655
Ga2 Pr3 3.256466 1_555
Ga2 Pr2 3.256466 1_545
Ga3 Pr0 3.256466 1_554
Ga3 Pr1 3.256466 1_555
Ga4 Pr2 3.162571 1_455
Ga4 Pr2 3.162571 1_555
Ga5 Pr3 3.162571 1_455
Ga5 Pr3 3.162571 1_555
Ga6 Ga9 2.805673 1_565
Ga6 Pr0 3.162571 1_555
Ga6 Pr0 3.162571 1_455
Ga7 Ga8 2.805673 1_545
Ga7 Pr1 3.162571 1_455
Ga7 Pr1 3.162571 1_555
Ga8 Pr2 3.168968 1_555
Ga8 Pr2 3.168968 1_455
Ga9 Pr3 3.168968 1_455
Ga9 Pr3 3.168968 1_555
Ga10 Ga14 2.694710 1_555
Ga10 Ga5 2.805673 1_555
Ga10 Ga21 2.824926 1_555
Ga10 Ga31 2.907490 1_455
Ga10 Ga31 2.907490 1_555
Ga10 Pr0 3.168968 1_455
Ga10 Pr0 3.168968 1_555
Ga11 Ga15 2.694710 1_555
Ga11 Ga4 2.805673 1_555
Ga11 Ga20 2.824926 1_555
Ga11 Ga30 2.907490 1_555
Ga11 Ga30 2.907490 1_455
Ga11 Pr1 3.168968 1_455
Ga11 Pr1 3.168968 1_555
Ga12 Ga8 2.694710 1_555
Ga12 Ga18 2.768627 1_554
Ga12 Ga20 2.775644 1_555
Ga12 Ga30 2.924835 1_455
Ga12 Ga30 2.924835 1_555
Ga12 Ga26 3.029280 1_455
Ga12 Ga26 3.029280 1_555
Ga12 Ga4 3.088724 1_555
Ga12 Pr2 3.194641 1_455
Ga12 Pr2 3.194641 1_555
Ga13 Ga9 2.694710 1_555
Ga13 Ga19 2.768627 1_556
Ga13 Ga21 2.775644 1_555
Ga13 Ga31 2.924835 1_455
Ga13 Ga31 2.924835 1_555
Ga13 Ga27 3.029280 1_455
Ga13 Ga27 3.029280 1_555
Ga13 Ga5 3.088724 1_555
Ga13 Pr3 3.194641 1_455
Ga13 Pr3 3.194641 1_555
Ga14 Ga16 2.768627 1_555
Ga14 Ga22 2.775644 1_555
Ga14 Ga28 2.924835 1_455
Ga14 Ga28 2.924835 1_555
Ga14 Ga24 3.029280 1_555
Ga14 Ga24 3.029280 1_455
Ga14 Ga6 3.088724 1_555
Ga14 Pr0 3.194641 1_555
Ga14 Pr0 3.194641 1_455
Ga15 Ga17 2.768627 1_555
Ga15 Ga23 2.775644 1_555
Ga15 Ga29 2.924835 1_455
Ga15 Ga29 2.924835 1_555
Ga15 Ga25 3.029280 1_455
Ga15 Ga25 3.029280 1_555
Ga15 Ga7 3.088724 1_555
Ga15 Pr1 3.194641 1_555
Ga15 Pr1 3.194641 1_455
Ga16 Ga4 2.653114 1_555
Ga16 Ga22 2.746026 1_555
Ga16 Ga2 2.945945 1_565
Ga16 Ga2 2.945945 1_465
Ga16 Ga23 2.987900 1_565
Ga16 Ga24 3.059654 1_455
Ga16 Ga24 3.059654 1_555
Ga16 Pr2 3.177474 1_455
Ga16 Pr2 3.177474 1_555
Ga17 Ga5 2.653114 1_555
Ga17 Ga23 2.746026 1_555
Ga17 Ga2 2.945945 1_455
Ga17 Ga2 2.945945 1_555
Ga17 Ga22 2.987900 1_545
Ga17 Ga25 3.059654 1_555
Ga17 Ga25 3.059654 1_455
Ga17 Pr3 3.177474 1_455
Ga17 Pr3 3.177474 1_555
Ga18 Ga6 2.653114 1_555
Ga18 Ga20 2.746026 1_556
Ga18 Ga3 2.945945 1_556
Ga18 Ga3 2.945945 1_456
Ga18 Ga21 2.987900 1_555
Ga18 Ga26 3.059654 1_456
Ga18 Ga26 3.059654 1_556
Ga18 Pr0 3.177474 1_455
Ga18 Pr0 3.177474 1_555
Ga19 Ga7 2.653114 1_555
Ga19 Ga21 2.746026 1_554
Ga19 Ga3 2.945945 1_455
Ga19 Ga3 2.945945 1_555
Ga19 Ga20 2.987900 1_555
Ga19 Ga27 3.059654 1_454
Ga19 Ga27 3.059654 1_554
Ga19 Pr1 3.177474 1_455
Ga19 Pr1 3.177474 1_555
Ga20 Ga3 2.798384 1_555
Ga20 Ga3 2.798384 1_455
Ga20 Ga30 2.831516 1_455
Ga20 Ga30 2.831516 1_555
Ga20 Pr1 3.128726 1_555
Ga20 Pr1 3.128726 1_455
Ga21 Ga3 2.798384 1_556
Ga21 Ga3 2.798384 1_456
Ga21 Ga31 2.831516 1_555
Ga21 Ga31 2.831516 1_455
Ga21 Pr0 3.128726 1_555
Ga21 Pr0 3.128726 1_455
Ga22 Ga9 2.824926 1_565
Ga22 Ga28 2.831516 1_555
Ga22 Ga28 2.831516 1_455
Ga22 Pr3 3.128726 1_465
Ga22 Pr3 3.128726 1_565
Ga23 Ga8 2.824926 1_545
Ga23 Ga29 2.831516 1_555
Ga23 Ga29 2.831516 1_455
Ga23 Pr2 3.128726 1_445
Ga23 Pr2 3.128726 1_545
Ga24 Ga4 3.116282 1_555
Ga24 Ga4 3.116282 1_655
Ga25 Ga5 3.116282 1_655
Ga25 Ga5 3.116282 1_555
Ga26 Ga6 3.116282 1_654
Ga26 Ga6 3.116282 1_554
Ga27 Ga7 3.116282 1_556
Ga27 Ga7 3.116282 1_656
Ga28 Ga6 2.840608 1_555
Ga28 Ga6 2.840608 1_655
Ga28 Ga9 2.907490 1_565
Ga28 Ga9 2.907490 1_665
Ga28 Pr0 3.227645 1_555
Ga28 Pr3 3.392616 1_565
Ga29 Ga7 2.840608 1_655
Ga29 Ga7 2.840608 1_555
Ga29 Ga8 2.907490 1_545
Ga29 Ga8 2.907490 1_645
Ga29 Pr1 3.227645 1_555
Ga29 Pr2 3.392616 1_545
Ga30 Ga4 2.840608 1_555
Ga30 Ga4 2.840608 1_655
Ga30 Pr2 3.227645 1_555
Ga30 Pr1 3.392616 1_555
Ga31 Ga5 2.840608 1_655
Ga31 Ga5 2.840608 1_555
Ga31 Pr3 3.227645 1_555
Ga31 Pr0 3.392616 1_555
Co0 Ga28 2.361616 1_555
Co0 Ga2 2.372945 1_565
Co0 Ga24 2.451004 1_555
Co0 Ga16 2.541463 1_555
Co0 Ga16 2.541463 1_655
Co0 Ga14 2.552433 1_555
Co0 Ga14 2.552433 1_655
Co0 Ga22 2.670825 1_655
Co0 Ga22 2.670825 1_555
Co1 Ga29 2.361616 1_555
Co1 Ga2 2.372945 1_555
Co1 Ga25 2.451004 1_555
Co1 Ga17 2.541463 1_655
Co1 Ga17 2.541463 1_555
Co1 Ga15 2.552433 1_655
Co1 Ga15 2.552433 1_555
Co1 Ga23 2.670825 1_655
Co1 Ga23 2.670825 1_555
Co2 Ga30 2.361616 1_555
Co2 Ga3 2.372945 1_555
Co2 Ga26 2.451004 1_555
Co2 Ga18 2.541463 1_654
Co2 Ga18 2.541463 1_554
Co2 Ga12 2.552433 1_655
Co2 Ga12 2.552433 1_555
Co2 Ga20 2.670825 1_555
Co2 Ga20 2.670825 1_655
Co3 Ga31 2.361616 1_555
Co3 Ga3 2.372945 1_556
Co3 Ga27 2.451004 1_555
Co3 Ga19 2.541463 1_556
Co3 Ga19 2.541463 1_656
Co3 Ga13 2.552433 1_655
Co3 Ga13 2.552433 1_555
Co3 Ga21 2.670825 1_555
Co3 Ga21 2.670825 1_655
Co4 Ga28 2.320487 1_555
Co4 Ga1 2.472294 1_666
Co4 Ga1 2.472294 1_566
Co4 Ga26 2.535041 1_556
Co4 Ga27 2.580032 1_565
Co4 Ga9 2.612197 1_565
Co4 Ga9 2.612197 1_665
Co4 Ga6 2.615769 1_655
Co4 Ga6 2.615769 1_555
Co5 Ga29 2.320487 1_555
Co5 Ga1 2.472294 1_655
Co5 Ga1 2.472294 1_555
Co5 Ga27 2.535041 1_554
Co5 Ga26 2.580032 1_545
Co5 Ga8 2.612197 1_545
Co5 Ga8 2.612197 1_645
Co5 Ga7 2.615769 1_555
Co5 Ga7 2.615769 1_655
Co6 Ga30 2.320487 1_555
Co6 Ga0 2.472294 1_655
Co6 Ga0 2.472294 1_555
Co6 Ga24 2.535041 1_555
Co6 Ga25 2.580032 1_555
Co6 Ga11 2.612197 1_655
Co6 Ga11 2.612197 1_555
Co6 Ga4 2.615769 1_655
Co6 Ga4 2.615769 1_555
Co7 Ga31 2.320487 1_555
Co7 Ga0 2.472294 1_555
Co7 Ga0 2.472294 1_655
Co7 Ga25 2.535041 1_555
Co7 Ga24 2.580032 1_555
Co7 Ga10 2.612197 1_655
Co7 Ga10 2.612197 1_555
Co7 Ga5 2.615769 1_655
Co7 Ga5 2.615769 1_555
