# generated using pymatgen
data_Cd(CoN)2
_symmetry_space_group_name_H-M   'P 1'
_cell_length_a   6.13092022
_cell_length_b   6.12844830
_cell_length_c   17.93611808
_cell_angle_alpha   90.00000069
_cell_angle_beta   70.84655249
_cell_angle_gamma   119.98667272
_symmetry_Int_Tables_number   1
_chemical_formula_structural   Cd(CoN)2
_chemical_formula_sum   'Cd8 Co16 N16'
_cell_volume   540.20536095
_cell_formula_units_Z   8
loop_
 _symmetry_equiv_pos_site_id
 _symmetry_equiv_pos_as_xyz
  1  'x, y, z'
loop_
 _atom_site_type_symbol
 _atom_site_label
 _atom_site_symmetry_multiplicity
 _atom_site_fract_x
 _atom_site_fract_y
 _atom_site_fract_z
 _atom_site_occupancy
  Cd  Cd0_0  1  0.00000000  0.00000000  0.25000000  1
  Cd  Cd0_1  1  1.00000000  1.00000000  0.75000000  1
  Cd  Cd0_2  1  0.00000000  0.50000000  0.25000000  1
  Cd  Cd0_3  1  1.00000000  0.50000000  0.75000000  1
  Cd  Cd0_4  1  0.50000000  0.00000000  0.25000000  1
  Cd  Cd0_5  1  0.50000000  0.00000000  0.75000000  1
  Cd  Cd0_6  1  0.50000000  0.50000000  0.25000000  1
  Cd  Cd0_7  1  0.50000000  0.50000000  0.75000000  1
  Co  Co0_0  1  0.26753450  0.13376750  0.05161750  1
  Co  Co0_1  1  0.26753450  0.13376750  0.55161750  1
  Co  Co0_2  1  0.26753450  0.63376750  0.05161750  1
  Co  Co0_3  1  0.26753450  0.63376750  0.55161750  1
  Co  Co0_4  1  0.76753450  0.13376750  0.05161750  1
  Co  Co0_5  1  0.76753450  0.13376750  0.55161750  1
  Co  Co0_6  1  0.76753450  0.63376750  0.05161750  1
  Co  Co0_7  1  0.76753450  0.63376750  0.55161750  1
  Co  Co1_0  1  0.23246550  0.36623250  0.44838250  1
  Co  Co1_1  1  0.23246550  0.36623250  0.94838250  1
  Co  Co1_2  1  0.23246550  0.86623250  0.44838250  1
  Co  Co1_3  1  0.23246550  0.86623250  0.94838250  1
  Co  Co1_4  1  0.73246550  0.36623250  0.44838250  1
  Co  Co1_5  1  0.73246550  0.36623250  0.94838250  1
  Co  Co1_6  1  0.73246550  0.86623250  0.44838250  1
  Co  Co1_7  1  0.73246550  0.86623250  0.94838250  1
  N  N0_0  1  0.43065800  0.21532900  0.42378350  1
  N  N0_1  1  0.43065800  0.21532900  0.92378350  1
  N  N0_2  1  0.43065800  0.71532900  0.42378350  1
  N  N0_3  1  0.43065800  0.71532900  0.92378350  1
  N  N0_4  1  0.93065800  0.21532900  0.42378350  1
  N  N0_5  1  0.93065800  0.21532900  0.92378350  1
  N  N0_6  1  0.93065800  0.71532900  0.42378350  1
  N  N0_7  1  0.93065800  0.71532900  0.92378350  1
  N  N1_0  1  0.06934200  0.28467100  0.07621650  1
  N  N1_1  1  0.06934200  0.28467100  0.57621650  1
  N  N1_2  1  0.06934200  0.78467100  0.07621650  1
  N  N1_3  1  0.06934200  0.78467100  0.57621650  1
  N  N1_4  1  0.56934200  0.28467100  0.07621650  1
  N  N1_5  1  0.56934200  0.28467100  0.57621650  1
  N  N1_6  1  0.56934200  0.78467100  0.07621650  1
  N  N1_7  1  0.56934200  0.78467100  0.57621650  1
loop_
_geom_bond_atom_site_label_1
_geom_bond_atom_site_label_2
_geom_bond_distance
_geom_bond_site_symmetry_2
Cd0_0 Cd0_2 3.064224 1_545
Cd0_0 Cd0_2 3.064224 1_555
Cd0_0 Cd0_6 3.065460 1_555
Cd0_0 Cd0_6 3.065460 1_445
Cd0_0 Cd0_4 3.065460 1_555
Cd0_0 Cd0_4 3.065460 1_455
Cd0_0 Co0_0 3.293846 1_555
Cd0_0 Co1_6 3.293846 1_445
Cd0_1 Cd0_3 3.064224 1_565
Cd0_1 Cd0_3 3.064224 1_555
Cd0_1 Cd0_7 3.065460 1_555
Cd0_1 Cd0_7 3.065460 1_665
Cd0_1 Cd0_5 3.065460 1_665
Cd0_1 Cd0_5 3.065460 1_565
Cd0_1 Co0_1 3.293846 1_665
Cd0_1 Co1_7 3.293846 1_555
Cd0_2 Cd0_4 3.065460 1_455
Cd0_2 Cd0_4 3.065460 1_565
Cd0_2 Cd0_6 3.065460 1_455
Cd0_2 Cd0_6 3.065460 1_555
Cd0_2 Co0_2 3.293846 1_555
Cd0_2 Co1_4 3.293846 1_455
Cd0_3 Cd0_5 3.065460 1_555
Cd0_3 Cd0_5 3.065460 1_665
Cd0_3 Cd0_7 3.065460 1_555
Cd0_3 Cd0_7 3.065460 1_655
Cd0_3 Co0_3 3.293846 1_655
Cd0_3 Co1_5 3.293846 1_555
Cd0_4 Cd0_6 3.064224 1_555
Cd0_4 Cd0_6 3.064224 1_545
Cd0_4 Co0_4 3.293846 1_555
Cd0_4 Co1_2 3.293846 1_545
Cd0_5 Cd0_7 3.064224 1_555
Cd0_5 Cd0_7 3.064224 1_545
Cd0_5 Co0_5 3.293846 1_555
Cd0_5 Co1_3 3.293846 1_545
Cd0_6 Co1_0 3.293846 1_555
Cd0_6 Co0_6 3.293846 1_555
Cd0_7 Co0_7 3.293846 1_555
Cd0_7 Co1_1 3.293846 1_555
Co0_0 N1_0 1.816008 1_555
Co0_0 N1_2 1.816010 1_545
Co0_0 N1_4 1.816299 1_555
Co0_0 N0_1 2.121976 1_554
Co0_1 N1_1 1.816008 1_555
Co0_1 N1_3 1.816010 1_545
Co0_1 N1_5 1.816299 1_555
Co0_1 N0_0 2.121976 1_555
Co0_2 N1_2 1.816008 1_555
Co0_2 N1_0 1.816010 1_555
Co0_2 N1_6 1.816299 1_555
Co0_2 N0_3 2.121976 1_554
Co0_3 N1_3 1.816008 1_555
Co0_3 N1_1 1.816010 1_555
Co0_3 N1_7 1.816299 1_555
Co0_3 N0_2 2.121976 1_555
Co0_4 N1_4 1.816008 1_555
Co0_4 N1_6 1.816010 1_545
Co0_4 N1_0 1.816299 1_655
Co0_4 N0_5 2.121976 1_554
Co0_5 N1_5 1.816008 1_555
Co0_5 N1_7 1.816010 1_545
Co0_5 N1_1 1.816299 1_655
Co0_5 N0_4 2.121976 1_555
Co0_6 N1_6 1.816008 1_555
Co0_6 N1_4 1.816010 1_555
Co0_6 N1_2 1.816299 1_655
Co0_6 N0_7 2.121976 1_554
Co0_7 N1_7 1.816008 1_555
Co0_7 N1_5 1.816010 1_555
Co0_7 N1_3 1.816299 1_655
Co0_7 N0_6 2.121976 1_555
Co1_0 N0_0 1.816008 1_555
Co1_0 N0_2 1.816010 1_555
Co1_0 N0_4 1.816299 1_455
Co1_0 N1_1 2.121976 1_555
Co1_1 N0_1 1.816008 1_555
Co1_1 N0_3 1.816010 1_555
Co1_1 N0_5 1.816299 1_455
Co1_1 N1_0 2.121976 1_556
Co1_2 N0_2 1.816008 1_555
Co1_2 N0_0 1.816010 1_565
Co1_2 N0_6 1.816299 1_455
Co1_2 N1_3 2.121976 1_555
Co1_3 N0_3 1.816008 1_555
Co1_3 N0_1 1.816010 1_565
Co1_3 N0_7 1.816299 1_455
Co1_3 N1_2 2.121976 1_556
Co1_4 N0_4 1.816008 1_555
Co1_4 N0_6 1.816010 1_555
Co1_4 N0_0 1.816299 1_555
Co1_4 N1_5 2.121976 1_555
Co1_5 N0_5 1.816008 1_555
Co1_5 N0_7 1.816010 1_555
Co1_5 N0_1 1.816299 1_555
Co1_5 N1_4 2.121976 1_556
Co1_6 N0_6 1.816008 1_555
Co1_6 N0_4 1.816010 1_565
Co1_6 N0_2 1.816299 1_555
Co1_6 N1_7 2.121976 1_555
Co1_7 N0_7 1.816008 1_555
Co1_7 N0_5 1.816010 1_565
Co1_7 N0_3 1.816299 1_555
Co1_7 N1_6 2.121976 1_556
