# generated using pymatgen
data_BaNaPO4
_symmetry_space_group_name_H-M   'P 1'
_cell_length_a   5.53433000
_cell_length_b   7.72701800
_cell_length_c   10.26096800
_cell_angle_alpha   90.00000000
_cell_angle_beta   90.00000000
_cell_angle_gamma   90.00000000
_symmetry_Int_Tables_number   1
_chemical_formula_structural   BaNaPO4
_chemical_formula_sum   'Ba4 Na4 P4 O16'
_cell_volume   438.79867626
_cell_formula_units_Z   4
loop_
 _symmetry_equiv_pos_site_id
 _symmetry_equiv_pos_as_xyz
  1  'x, y, z'
loop_
 _atom_site_type_symbol
 _atom_site_label
 _atom_site_symmetry_multiplicity
 _atom_site_fract_x
 _atom_site_fract_y
 _atom_site_fract_z
 _atom_site_occupancy
  Ba  Ba0  1  0.25000000  0.99211300  0.19598000  1
  Ba  Ba1  1  0.75000000  0.00788700  0.80402000  1
  Ba  Ba2  1  0.75000000  0.50788700  0.69598000  1
  Ba  Ba3  1  0.25000000  0.49211300  0.30402000  1
  Na  Na0  1  0.25000000  0.66833900  0.94729500  1
  Na  Na1  1  0.75000000  0.33166100  0.05270500  1
  Na  Na2  1  0.75000000  0.83166100  0.44729500  1
  Na  Na3  1  0.25000000  0.16833900  0.55270500  1
  P  P0  1  0.25000000  0.73707900  0.57672900  1
  P  P1  1  0.75000000  0.26292100  0.42327100  1
  P  P2  1  0.75000000  0.76292100  0.07672900  1
  P  P3  1  0.25000000  0.23707900  0.92327100  1
  O  O0  1  0.01853000  0.80787700  0.64365900  1
  O  O1  1  0.98147000  0.19212300  0.35634100  1
  O  O2  1  0.98147000  0.69212300  0.14365900  1
  O  O3  1  0.51853000  0.19212300  0.35634100  1
  O  O4  1  0.01853000  0.30787700  0.85634100  1
  O  O5  1  0.48147000  0.80787700  0.64365900  1
  O  O6  1  0.48147000  0.30787700  0.85634100  1
  O  O7  1  0.51853000  0.69212300  0.14365900  1
  O  O8  1  0.25000000  0.53545800  0.58212800  1
  O  O9  1  0.75000000  0.46454200  0.41787200  1
  O  O10  1  0.75000000  0.96454200  0.08212800  1
  O  O11  1  0.25000000  0.03545800  0.91787200  1
  O  O12  1  0.25000000  0.30004800  0.06860000  1
  O  O13  1  0.75000000  0.69995200  0.93140000  1
  O  O14  1  0.75000000  0.19995200  0.56860000  1
  O  O15  1  0.25000000  0.80004800  0.43140000  1
loop_
_geom_bond_atom_site_label_1
_geom_bond_atom_site_label_2
_geom_bond_distance
_geom_bond_site_symmetry_2
Ba0 O1 2.702710 1_465
Ba0 O3 2.702710 1_565
Ba0 O12 2.714774 1_565
Ba0 O2 2.805365 1_455
Ba0 O7 2.805365 1_555
Ba0 O15 2.835106 1_555
Ba0 O11 2.873245 1_564
Ba0 O10 3.011205 1_555
Ba0 O10 3.011205 1_455
Ba1 O0 2.702710 1_645
Ba1 O5 2.702710 1_545
Ba1 O13 2.714774 1_545
Ba1 O6 2.805365 1_555
Ba1 O4 2.805365 1_655
Ba1 O14 2.835106 1_555
Ba1 O10 2.873245 1_546
Ba1 O11 3.011205 1_555
Ba1 O11 3.011205 1_655
Ba2 O6 2.702710 1_555
Ba2 O4 2.702710 1_655
Ba2 O14 2.714774 1_555
Ba2 O5 2.805365 1_555
Ba2 O0 2.805365 1_655
Ba2 O13 2.835106 1_555
Ba2 O9 2.873245 1_555
Ba2 O8 3.011205 1_555
Ba2 O8 3.011205 1_655
Ba3 O2 2.702710 1_455
Ba3 O7 2.702710 1_555
Ba3 O15 2.714774 1_555
Ba3 O1 2.805365 1_455
Ba3 O3 2.805365 1_555
Ba3 O12 2.835106 1_555
Ba3 O8 2.873245 1_555
Ba3 O9 3.011205 1_555
Ba3 O9 3.011205 1_455
Na0 O2 2.510404 1_456
Na0 O7 2.510404 1_556
Na0 O13 2.782710 1_555
Na0 O13 2.782710 1_455
Na0 O11 2.852756 1_565
Na1 O4 2.510404 1_654
Na1 O6 2.510404 1_554
Na1 O12 2.782710 1_555
Na1 O12 2.782710 1_655
Na1 O10 2.852756 1_545
Na2 O0 2.510404 1_655
Na2 O5 2.510404 1_555
Na2 O15 2.782710 1_555
Na2 O15 2.782710 1_655
Na2 O9 2.852756 1_555
Na3 O1 2.510404 1_455
Na3 O3 2.510404 1_555
Na3 O14 2.782710 1_455
Na3 O14 2.782710 1_555
Na3 O8 2.852756 1_555
O0 P0 1.553049 1_555
O1 P1 1.553049 1_555
O2 P2 1.553049 1_555
O3 P1 1.553049 1_555
O4 P3 1.553049 1_555
O5 P0 1.553049 1_555
O6 P3 1.553049 1_555
O7 P2 1.553049 1_555
O8 P0 1.558914 1_555
O9 P1 1.558914 1_555
O10 P2 1.558914 1_555
O11 P3 1.558914 1_555
O12 P3 1.568588 1_554
O13 P2 1.568588 1_556
O14 P1 1.568588 1_555
O15 P0 1.568588 1_555
