# generated using pymatgen
data_Ti3Zn22
_symmetry_space_group_name_H-M   'P 1'
_cell_length_a   11.52731300
_cell_length_b   11.52731300
_cell_length_c   11.46028800
_cell_angle_alpha   90.00000000
_cell_angle_beta   90.00000000
_cell_angle_gamma   90.00000000
_symmetry_Int_Tables_number   1
_chemical_formula_structural   Ti3Zn22
_chemical_formula_sum   'Ti12 Zn88'
_cell_volume   1522.83097884
_cell_formula_units_Z   4
loop_
 _symmetry_equiv_pos_site_id
 _symmetry_equiv_pos_as_xyz
  1  'x, y, z'
loop_
 _atom_site_type_symbol
 _atom_site_label
 _atom_site_symmetry_multiplicity
 _atom_site_fract_x
 _atom_site_fract_y
 _atom_site_fract_z
 _atom_site_occupancy
  Ti  Ti0  1  0.08928700  0.34435700  0.00000000  1
  Ti  Ti1  1  0.91071300  0.65564300  0.00000000  1
  Ti  Ti2  1  0.34435700  0.91071300  0.50000000  1
  Ti  Ti3  1  0.58928700  0.15564300  0.00000000  1
  Ti  Ti4  1  0.65564300  0.08928700  0.50000000  1
  Ti  Ti5  1  0.41071300  0.84435700  0.00000000  1
  Ti  Ti6  1  0.84435700  0.58928700  0.50000000  1
  Ti  Ti7  1  0.15564300  0.41071300  0.50000000  1
  Ti  Ti8  1  0.00000000  0.00000000  0.25000000  1
  Ti  Ti9  1  0.00000000  0.00000000  0.75000000  1
  Ti  Ti10  1  0.50000000  0.50000000  0.75000000  1
  Ti  Ti11  1  0.50000000  0.50000000  0.25000000  1
  Zn  Zn0  1  0.23484100  0.04328500  0.31764000  1
  Zn  Zn1  1  0.76515900  0.95671500  0.68236000  1
  Zn  Zn2  1  0.76515900  0.95671500  0.31764000  1
  Zn  Zn3  1  0.04328500  0.76515900  0.81764000  1
  Zn  Zn4  1  0.73484100  0.45671500  0.68236000  1
  Zn  Zn5  1  0.23484100  0.04328500  0.68236000  1
  Zn  Zn6  1  0.95671500  0.23484100  0.18236000  1
  Zn  Zn7  1  0.26515900  0.54328500  0.31764000  1
  Zn  Zn8  1  0.95671500  0.23484100  0.81764000  1
  Zn  Zn9  1  0.26515900  0.54328500  0.68236000  1
  Zn  Zn10  1  0.04328500  0.76515900  0.18236000  1
  Zn  Zn11  1  0.73484100  0.45671500  0.31764000  1
  Zn  Zn12  1  0.54328500  0.73484100  0.18236000  1
  Zn  Zn13  1  0.45671500  0.26515900  0.81764000  1
  Zn  Zn14  1  0.45671500  0.26515900  0.18236000  1
  Zn  Zn15  1  0.54328500  0.73484100  0.81764000  1
  Zn  Zn16  1  0.32064300  0.24111600  0.00000000  1
  Zn  Zn17  1  0.67935700  0.75888400  0.00000000  1
  Zn  Zn18  1  0.24111600  0.67935700  0.50000000  1
  Zn  Zn19  1  0.82064300  0.25888400  0.00000000  1
  Zn  Zn20  1  0.75888400  0.32064300  0.50000000  1
  Zn  Zn21  1  0.17935700  0.74111600  0.00000000  1
  Zn  Zn22  1  0.74111600  0.82064300  0.50000000  1
  Zn  Zn23  1  0.25888400  0.17935700  0.50000000  1
  Zn  Zn24  1  0.39742500  0.05902100  0.11728200  1
  Zn  Zn25  1  0.60257500  0.94097900  0.88271800  1
  Zn  Zn26  1  0.60257500  0.94097900  0.11728200  1
  Zn  Zn27  1  0.05902100  0.60257500  0.61728200  1
  Zn  Zn28  1  0.89742500  0.44097900  0.88271800  1
  Zn  Zn29  1  0.39742500  0.05902100  0.88271800  1
  Zn  Zn30  1  0.94097900  0.39742500  0.38271800  1
  Zn  Zn31  1  0.10257500  0.55902100  0.11728200  1
  Zn  Zn32  1  0.94097900  0.39742500  0.61728200  1
  Zn  Zn33  1  0.10257500  0.55902100  0.88271800  1
  Zn  Zn34  1  0.05902100  0.60257500  0.38271800  1
  Zn  Zn35  1  0.89742500  0.44097900  0.11728200  1
  Zn  Zn36  1  0.55902100  0.89742500  0.38271800  1
  Zn  Zn37  1  0.44097900  0.10257500  0.61728200  1
  Zn  Zn38  1  0.44097900  0.10257500  0.38271800  1
  Zn  Zn39  1  0.55902100  0.89742500  0.61728200  1
  Zn  Zn40  1  0.17177100  0.17322400  0.15154100  1
  Zn  Zn41  1  0.82822900  0.82677600  0.84845900  1
  Zn  Zn42  1  0.82822900  0.82677600  0.15154100  1
  Zn  Zn43  1  0.17322400  0.82822900  0.65154100  1
  Zn  Zn44  1  0.67177100  0.32677600  0.84845900  1
  Zn  Zn45  1  0.17177100  0.17322400  0.84845900  1
  Zn  Zn46  1  0.82677600  0.17177100  0.34845900  1
  Zn  Zn47  1  0.32822900  0.67322400  0.15154100  1
  Zn  Zn48  1  0.82677600  0.17177100  0.65154100  1
  Zn  Zn49  1  0.32822900  0.67322400  0.84845900  1
  Zn  Zn50  1  0.17322400  0.82822900  0.34845900  1
  Zn  Zn51  1  0.67177100  0.32677600  0.15154100  1
  Zn  Zn52  1  0.67322400  0.67177100  0.34845900  1
  Zn  Zn53  1  0.32677600  0.32822900  0.65154100  1
  Zn  Zn54  1  0.32677600  0.32822900  0.34845900  1
  Zn  Zn55  1  0.67322400  0.67177100  0.65154100  1
  Zn  Zn56  1  0.61989600  0.11989600  0.25000000  1
  Zn  Zn57  1  0.38010400  0.88010400  0.75000000  1
  Zn  Zn58  1  0.38010400  0.88010400  0.25000000  1
  Zn  Zn59  1  0.11989600  0.38010400  0.75000000  1
  Zn  Zn60  1  0.61989600  0.11989600  0.75000000  1
  Zn  Zn61  1  0.88010400  0.61989600  0.25000000  1
  Zn  Zn62  1  0.88010400  0.61989600  0.75000000  1
  Zn  Zn63  1  0.11989600  0.38010400  0.25000000  1
  Zn  Zn64  1  0.01157400  0.10496200  0.00000000  1
  Zn  Zn65  1  0.98842600  0.89503800  0.00000000  1
  Zn  Zn66  1  0.10496200  0.98842600  0.50000000  1
  Zn  Zn67  1  0.51157400  0.39503800  0.00000000  1
  Zn  Zn68  1  0.89503800  0.01157400  0.50000000  1
  Zn  Zn69  1  0.48842600  0.60496200  0.00000000  1
  Zn  Zn70  1  0.60496200  0.51157400  0.50000000  1
  Zn  Zn71  1  0.39503800  0.48842600  0.50000000  1
  Zn  Zn72  1  0.06375000  0.19997500  0.38398900  1
  Zn  Zn73  1  0.93625000  0.80002500  0.61601100  1
  Zn  Zn74  1  0.93625000  0.80002500  0.38398900  1
  Zn  Zn75  1  0.19997500  0.93625000  0.88398900  1
  Zn  Zn76  1  0.56375000  0.30002500  0.61601100  1
  Zn  Zn77  1  0.06375000  0.19997500  0.61601100  1
  Zn  Zn78  1  0.80002500  0.06375000  0.11601100  1
  Zn  Zn79  1  0.43625000  0.69997500  0.38398900  1
  Zn  Zn80  1  0.80002500  0.06375000  0.88398900  1
  Zn  Zn81  1  0.43625000  0.69997500  0.61601100  1
  Zn  Zn82  1  0.19997500  0.93625000  0.11601100  1
  Zn  Zn83  1  0.56375000  0.30002500  0.38398900  1
  Zn  Zn84  1  0.69997500  0.56375000  0.11601100  1
  Zn  Zn85  1  0.30002500  0.43625000  0.88398900  1
  Zn  Zn86  1  0.30002500  0.43625000  0.11601100  1
  Zn  Zn87  1  0.69997500  0.56375000  0.88398900  1
loop_
_geom_bond_atom_site_label_1
_geom_bond_atom_site_label_2
_geom_bond_distance
_geom_bond_site_symmetry_2
Ti0 Zn40 2.794952 1_555
Ti0 Zn45 2.794952 1_554
Ti0 Zn35 2.817536 1_455
Ti0 Zn28 2.817536 1_454
Ti0 Zn33 2.820137 1_554
Ti0 Zn31 2.820137 1_555
Ti0 Zn8 2.880414 1_454
Ti0 Zn6 2.880414 1_455
Ti0 Zn64 2.901342 1_555
Ti0 Zn63 2.915979 1_555
Ti0 Zn59 2.915979 1_554
Ti0 Zn16 2.920401 1_555
Ti0 Zn86 2.964948 1_555
Ti0 Zn85 2.964948 1_554
Ti0 Zn19 3.249705 1_455
Ti1 Zn42 2.794952 1_555
Ti1 Zn41 2.794952 1_554
Ti1 Zn31 2.817536 1_655
Ti1 Zn33 2.817536 1_654
Ti1 Zn35 2.820137 1_555
Ti1 Zn28 2.820137 1_554
Ti1 Zn3 2.880414 1_654
Ti1 Zn10 2.880414 1_655
Ti1 Zn65 2.901342 1_555
Ti1 Zn62 2.915979 1_554
Ti1 Zn61 2.915979 1_555
Ti1 Zn17 2.920401 1_555
Ti1 Zn84 2.964948 1_555
Ti1 Zn87 2.964948 1_554
Ti1 Zn21 3.249705 1_655
Ti2 Zn43 2.794952 1_555
Ti2 Zn50 2.794952 1_555
Ti2 Zn38 2.817536 1_565
Ti2 Zn37 2.817536 1_565
Ti2 Zn39 2.820137 1_555
Ti2 Zn36 2.820137 1_555
Ti2 Zn0 2.880414 1_565
Ti2 Zn5 2.880414 1_565
Ti2 Zn66 2.901342 1_555
Ti2 Zn58 2.915979 1_555
Ti2 Zn57 2.915979 1_555
Ti2 Zn18 2.920401 1_555
Ti2 Zn81 2.964948 1_555
Ti2 Zn79 2.964948 1_555
Ti2 Zn23 3.249705 1_565
Ti3 Zn51 2.794952 1_555
Ti3 Zn44 2.794952 1_554
Ti3 Zn29 2.817536 1_554
Ti3 Zn24 2.817536 1_555
Ti3 Zn25 2.820137 1_544
Ti3 Zn26 2.820137 1_545
Ti3 Zn13 2.880414 1_554
Ti3 Zn14 2.880414 1_555
Ti3 Zn67 2.901342 1_555
Ti3 Zn56 2.915979 1_555
Ti3 Zn60 2.915979 1_554
Ti3 Zn19 2.920401 1_555
Ti3 Zn78 2.964948 1_555
Ti3 Zn80 2.964948 1_554
Ti3 Zn16 3.249705 1_555
Ti4 Zn48 2.794952 1_555
Ti4 Zn46 2.794952 1_555
Ti4 Zn39 2.817536 1_545
Ti4 Zn36 2.817536 1_545
Ti4 Zn37 2.820137 1_555
Ti4 Zn38 2.820137 1_555
Ti4 Zn2 2.880414 1_545
Ti4 Zn1 2.880414 1_545
Ti4 Zn68 2.901342 1_555
Ti4 Zn60 2.915979 1_555
Ti4 Zn56 2.915979 1_555
Ti4 Zn20 2.920401 1_555
Ti4 Zn76 2.964948 1_555
Ti4 Zn83 2.964948 1_555
Ti4 Zn22 3.249705 1_545
Ti5 Zn47 2.794952 1_555
Ti5 Zn49 2.794952 1_554
Ti5 Zn26 2.817536 1_555
Ti5 Zn25 2.817536 1_554
Ti5 Zn24 2.820137 1_565
Ti5 Zn29 2.820137 1_564
Ti5 Zn15 2.880414 1_554
Ti5 Zn12 2.880414 1_555
Ti5 Zn69 2.901342 1_555
Ti5 Zn58 2.915979 1_555
Ti5 Zn57 2.915979 1_554
Ti5 Zn21 2.920401 1_555
Ti5 Zn82 2.964948 1_555
Ti5 Zn75 2.964948 1_554
Ti5 Zn17 3.249705 1_555
Ti6 Zn55 2.794952 1_555
Ti6 Zn52 2.794952 1_555
Ti6 Zn30 2.817536 1_555
Ti6 Zn32 2.817536 1_555
Ti6 Zn34 2.820137 1_655
Ti6 Zn27 2.820137 1_655
Ti6 Zn11 2.880414 1_555
Ti6 Zn4 2.880414 1_555
Ti6 Zn70 2.901342 1_555
Ti6 Zn61 2.915979 1_555
Ti6 Zn62 2.915979 1_555
Ti6 Zn22 2.920401 1_555
Ti6 Zn73 2.964948 1_555
Ti6 Zn74 2.964948 1_555
Ti6 Zn20 3.249705 1_555
Ti7 Zn53 2.794952 1_555
Ti7 Zn54 2.794952 1_555
Ti7 Zn27 2.817536 1_555
Ti7 Zn34 2.817536 1_555
Ti7 Zn30 2.820137 1_455
Ti7 Zn32 2.820137 1_455
Ti7 Zn7 2.880414 1_555
Ti7 Zn9 2.880414 1_555
Ti7 Zn71 2.901342 1_555
Ti7 Zn59 2.915979 1_555
Ti7 Zn63 2.915979 1_555
Ti7 Zn23 2.920401 1_555
Ti7 Zn77 2.964948 1_555
Ti7 Zn72 2.964948 1_555
Ti7 Zn18 3.249705 1_555
Ti8 Zn6 2.859750 1_455
Ti8 Zn0 2.859750 1_555
Ti8 Zn10 2.859750 1_545
Ti8 Zn2 2.859750 1_445
Ti8 Zn72 2.865620 1_555
Ti8 Zn74 2.865620 1_445
Ti8 Zn82 2.865620 1_545
Ti8 Zn78 2.865620 1_455
Ti8 Zn46 3.030030 1_455
Ti8 Zn50 3.030030 1_545
Ti8 Zn40 3.030030 1_555
Ti8 Zn42 3.030030 1_445
Ti8 Zn64 3.112936 1_555
Ti8 Zn68 3.112936 1_455
Ti8 Zn65 3.112936 1_445
Ti8 Zn66 3.112936 1_545
Ti9 Zn5 2.859750 1_555
Ti9 Zn8 2.859750 1_455
Ti9 Zn1 2.859750 1_445
Ti9 Zn3 2.859750 1_545
Ti9 Zn75 2.865620 1_545
Ti9 Zn77 2.865620 1_555
Ti9 Zn80 2.865620 1_455
Ti9 Zn73 2.865620 1_445
Ti9 Zn45 3.030030 1_555
Ti9 Zn48 3.030030 1_455
Ti9 Zn41 3.030030 1_445
Ti9 Zn43 3.030030 1_545
Ti9 Zn64 3.112936 1_556
Ti9 Zn68 3.112936 1_455
Ti9 Zn65 3.112936 1_446
Ti9 Zn66 3.112936 1_545
Ti10 Zn4 2.859750 1_555
Ti10 Zn15 2.859750 1_555
Ti10 Zn9 2.859750 1_555
Ti10 Zn13 2.859750 1_555
Ti10 Zn85 2.865620 1_555
Ti10 Zn87 2.865620 1_555
Ti10 Zn81 2.865620 1_555
Ti10 Zn76 2.865620 1_555
Ti10 Zn49 3.030030 1_555
Ti10 Zn55 3.030030 1_555
Ti10 Zn44 3.030030 1_555
Ti10 Zn53 3.030030 1_555
Ti10 Zn70 3.112936 1_555
Ti10 Zn67 3.112936 1_556
Ti10 Zn69 3.112936 1_556
Ti10 Zn71 3.112936 1_555
Ti11 Zn12 2.859750 1_555
Ti11 Zn11 2.859750 1_555
Ti11 Zn14 2.859750 1_555
Ti11 Zn7 2.859750 1_555
Ti11 Zn79 2.865620 1_555
Ti11 Zn83 2.865620 1_555
Ti11 Zn86 2.865620 1_555
Ti11 Zn84 2.865620 1_555
Ti11 Zn52 3.030030 1_555
Ti11 Zn54 3.030030 1_555
Ti11 Zn47 3.030030 1_555
Ti11 Zn51 3.030030 1_555
Ti11 Zn70 3.112936 1_555
Ti11 Zn67 3.112936 1_555
Ti11 Zn69 3.112936 1_555
Ti11 Zn71 3.112936 1_555
Zn0 Zn40 2.528950 1_555
Zn0 Zn38 2.582587 1_555
Zn0 Zn50 2.602839 1_545
Zn0 Zn23 2.627702 1_555
Zn0 Zn58 2.634981 1_545
Zn0 Zn66 2.647461 1_545
Zn0 Zn82 2.650154 1_545
Zn0 Zn72 2.780330 1_555
Zn0 Zn24 2.969464 1_555
Zn1 Zn41 2.528950 1_555
Zn1 Zn39 2.582587 1_555
Zn1 Zn48 2.602839 1_565
Zn1 Zn22 2.627702 1_555
Zn1 Zn60 2.634981 1_565
Zn1 Zn68 2.647461 1_565
Zn1 Zn80 2.650154 1_565
Zn1 Zn73 2.780330 1_555
Zn1 Zn25 2.969464 1_555
Zn2 Zn42 2.528950 1_555
Zn2 Zn36 2.582587 1_555
Zn2 Zn46 2.602839 1_565
Zn2 Zn22 2.627702 1_555
Zn2 Zn56 2.634981 1_565
Zn2 Zn68 2.647461 1_565
Zn2 Zn78 2.650154 1_565
Zn2 Zn74 2.780330 1_555
Zn2 Zn26 2.969464 1_555
Zn3 Zn43 2.528950 1_555
Zn3 Zn33 2.582587 1_555
Zn3 Zn41 2.602839 1_455
Zn3 Zn62 2.634981 1_455
Zn3 Zn65 2.647461 1_456
Zn3 Zn73 2.650154 1_455
Zn3 Zn75 2.780330 1_555
Zn4 Zn44 2.528950 1_555
Zn4 Zn55 2.602839 1_555
Zn4 Zn62 2.634981 1_555
Zn4 Zn70 2.647461 1_555
Zn4 Zn87 2.650154 1_555
Zn4 Zn76 2.780330 1_555
Zn5 Zn57 2.634981 1_545
Zn5 Zn66 2.647461 1_545
Zn5 Zn75 2.650154 1_545
Zn5 Zn77 2.780330 1_555
Zn6 Zn63 2.634981 1_655
Zn6 Zn64 2.647461 1_655
Zn6 Zn72 2.650154 1_655
Zn6 Zn78 2.780330 1_555
Zn7 Zn71 2.647461 1_555
Zn7 Zn86 2.650154 1_555
Zn7 Zn79 2.780330 1_555
Zn8 Zn80 2.780330 1_555
Zn10 Zn50 2.528950 1_555
Zn10 Zn31 2.582587 1_555
Zn10 Zn42 2.602839 1_455
Zn10 Zn21 2.627702 1_555
Zn10 Zn61 2.634981 1_455
Zn10 Zn65 2.647461 1_455
Zn10 Zn74 2.650154 1_455
Zn10 Zn82 2.780330 1_555
Zn10 Zn34 2.969464 1_555
Zn11 Zn51 2.528950 1_555
Zn11 Zn30 2.582587 1_555
Zn11 Zn52 2.602839 1_555
Zn11 Zn20 2.627702 1_555
Zn11 Zn61 2.634981 1_555
Zn11 Zn70 2.647461 1_555
Zn11 Zn84 2.650154 1_555
Zn11 Zn83 2.780330 1_555
Zn11 Zn35 2.969464 1_555
Zn12 Zn52 2.528950 1_555
Zn12 Zn26 2.582587 1_555
Zn12 Zn47 2.602839 1_555
Zn12 Zn17 2.627702 1_555
Zn12 Zn58 2.634981 1_555
Zn12 Zn69 2.647461 1_555
Zn12 Zn79 2.650154 1_555
Zn12 Zn84 2.780330 1_555
Zn12 Zn36 2.969464 1_555
Zn13 Zn53 2.528950 1_555
Zn13 Zn29 2.582587 1_555
Zn13 Zn44 2.602839 1_555
Zn13 Zn16 2.627702 1_556
Zn13 Zn60 2.634981 1_555
Zn13 Zn67 2.647461 1_556
Zn13 Zn76 2.650154 1_555
Zn13 Zn85 2.780330 1_555
Zn13 Zn37 2.969464 1_555
Zn14 Zn54 2.528950 1_555
Zn14 Zn24 2.582587 1_555
Zn14 Zn51 2.602839 1_555
Zn14 Zn16 2.627702 1_555
Zn14 Zn56 2.634981 1_555
Zn14 Zn67 2.647461 1_555
Zn14 Zn83 2.650154 1_555
Zn14 Zn86 2.780330 1_555
Zn14 Zn38 2.969464 1_555
Zn15 Zn55 2.528950 1_555
Zn15 Zn25 2.582587 1_555
Zn15 Zn49 2.602839 1_555
Zn15 Zn17 2.627702 1_556
Zn15 Zn57 2.634981 1_555
Zn15 Zn69 2.647461 1_556
Zn15 Zn81 2.650154 1_555
Zn15 Zn87 2.780330 1_555
Zn15 Zn39 2.969464 1_555
Zn16 Zn40 2.563903 1_555
Zn16 Zn45 2.563903 1_554
Zn16 Zn86 2.623695 1_555
Zn16 Zn85 2.623695 1_554
Zn16 Zn29 2.645001 1_554
Zn16 Zn24 2.645001 1_555
Zn16 Zn67 2.827052 1_555
Zn17 Zn42 2.563903 1_555
Zn17 Zn41 2.563903 1_554
Zn17 Zn84 2.623695 1_555
Zn17 Zn87 2.623695 1_554
Zn17 Zn25 2.645001 1_554
Zn17 Zn26 2.645001 1_555
Zn17 Zn69 2.827052 1_555
Zn18 Zn43 2.563903 1_555
Zn18 Zn50 2.563903 1_555
Zn18 Zn81 2.623695 1_555
Zn18 Zn79 2.623695 1_555
Zn18 Zn7 2.627702 1_555
Zn18 Zn9 2.627702 1_555
Zn18 Zn27 2.645001 1_555
Zn18 Zn34 2.645001 1_555
Zn18 Zn71 2.827052 1_555
Zn19 Zn51 2.563903 1_555
Zn19 Zn44 2.563903 1_554
Zn19 Zn78 2.623695 1_555
Zn19 Zn80 2.623695 1_554
Zn19 Zn8 2.627702 1_554
Zn19 Zn6 2.627702 1_555
Zn19 Zn35 2.645001 1_555
Zn19 Zn28 2.645001 1_554
Zn19 Zn64 2.827052 1_655
Zn20 Zn48 2.563903 1_555
Zn20 Zn46 2.563903 1_555
Zn20 Zn76 2.623695 1_555
Zn20 Zn83 2.623695 1_555
Zn20 Zn4 2.627702 1_555
Zn20 Zn30 2.645001 1_555
Zn20 Zn32 2.645001 1_555
Zn20 Zn70 2.827052 1_555
Zn21 Zn47 2.563903 1_555
Zn21 Zn49 2.563903 1_554
Zn21 Zn82 2.623695 1_555
Zn21 Zn75 2.623695 1_554
Zn21 Zn3 2.627702 1_554
Zn21 Zn33 2.645001 1_554
Zn21 Zn31 2.645001 1_555
Zn21 Zn65 2.827052 1_455
Zn22 Zn55 2.563903 1_555
Zn22 Zn52 2.563903 1_555
Zn22 Zn73 2.623695 1_555
Zn22 Zn74 2.623695 1_555
Zn22 Zn39 2.645001 1_555
Zn22 Zn36 2.645001 1_555
Zn22 Zn68 2.827052 1_565
Zn23 Zn53 2.563903 1_555
Zn23 Zn54 2.563903 1_555
Zn23 Zn77 2.623695 1_555
Zn23 Zn72 2.623695 1_555
Zn23 Zn5 2.627702 1_555
Zn23 Zn38 2.645001 1_555
Zn23 Zn37 2.645001 1_555
Zn23 Zn66 2.827052 1_545
Zn24 Zn58 2.570388 1_545
Zn24 Zn82 2.680214 1_545
Zn24 Zn29 2.688171 1_554
Zn24 Zn26 2.728358 1_545
Zn24 Zn40 2.941659 1_555
Zn24 Zn56 3.063077 1_555
Zn24 Zn38 3.123736 1_555
Zn25 Zn60 2.570388 1_565
Zn25 Zn80 2.680214 1_565
Zn25 Zn26 2.688171 1_556
Zn25 Zn29 2.728358 1_565
Zn25 Zn41 2.941659 1_555
Zn25 Zn57 3.063077 1_555
Zn25 Zn39 3.123736 1_555
Zn26 Zn56 2.570388 1_565
Zn26 Zn78 2.680214 1_565
Zn26 Zn42 2.941659 1_555
Zn26 Zn58 3.063077 1_555
Zn26 Zn36 3.123736 1_555
Zn27 Zn62 2.570388 1_455
Zn27 Zn9 2.582587 1_555
Zn27 Zn73 2.680214 1_455
Zn27 Zn34 2.688171 1_555
Zn27 Zn32 2.728358 1_455
Zn27 Zn43 2.941659 1_555
Zn27 Zn3 2.969464 1_555
Zn27 Zn59 3.063077 1_555
Zn27 Zn33 3.123736 1_555
Zn28 Zn62 2.570388 1_555
Zn28 Zn8 2.582587 1_555
Zn28 Zn87 2.680214 1_555
Zn28 Zn35 2.688171 1_556
Zn28 Zn33 2.728358 1_655
Zn28 Zn44 2.941659 1_555
Zn28 Zn4 2.969464 1_555
Zn28 Zn59 3.063077 1_655
Zn28 Zn32 3.123736 1_555
Zn29 Zn57 2.570388 1_545
Zn29 Zn75 2.680214 1_545
Zn29 Zn45 2.941659 1_555
Zn29 Zn5 2.969464 1_555
Zn29 Zn60 3.063077 1_555
Zn29 Zn37 3.123736 1_555
Zn30 Zn63 2.570388 1_655
Zn30 Zn72 2.680214 1_655
Zn30 Zn32 2.688171 1_555
Zn30 Zn34 2.728358 1_655
Zn30 Zn46 2.941659 1_555
Zn30 Zn6 2.969464 1_555
Zn30 Zn61 3.063077 1_555
Zn30 Zn35 3.123736 1_555
Zn31 Zn63 2.570388 1_555
Zn31 Zn86 2.680214 1_555
Zn31 Zn33 2.688171 1_554
Zn31 Zn35 2.728358 1_455
Zn31 Zn47 2.941659 1_555
Zn31 Zn7 2.969464 1_555
Zn31 Zn61 3.063077 1_455
Zn31 Zn34 3.123736 1_555
Zn32 Zn59 2.570388 1_655
Zn32 Zn4 2.582587 1_555
Zn32 Zn77 2.680214 1_655
Zn32 Zn48 2.941659 1_555
Zn32 Zn8 2.969464 1_555
Zn32 Zn62 3.063077 1_555
Zn33 Zn59 2.570388 1_555
Zn33 Zn85 2.680214 1_555
Zn33 Zn49 2.941659 1_555
Zn33 Zn9 2.969464 1_555
Zn33 Zn62 3.063077 1_455
Zn34 Zn61 2.570388 1_455
Zn34 Zn7 2.582587 1_555
Zn34 Zn74 2.680214 1_455
Zn34 Zn50 2.941659 1_555
Zn34 Zn63 3.063077 1_555
Zn35 Zn61 2.570388 1_555
Zn35 Zn6 2.582587 1_555
Zn35 Zn84 2.680214 1_555
Zn35 Zn51 2.941659 1_555
Zn35 Zn63 3.063077 1_655
Zn36 Zn58 2.570388 1_555
Zn36 Zn79 2.680214 1_555
Zn36 Zn39 2.688171 1_555
Zn36 Zn38 2.728358 1_565
Zn36 Zn52 2.941659 1_555
Zn36 Zn56 3.063077 1_565
Zn37 Zn60 2.570388 1_555
Zn37 Zn5 2.582587 1_555
Zn37 Zn76 2.680214 1_555
Zn37 Zn38 2.688171 1_555
Zn37 Zn39 2.728358 1_545
Zn37 Zn53 2.941659 1_555
Zn37 Zn57 3.063077 1_545
Zn38 Zn56 2.570388 1_555
Zn38 Zn83 2.680214 1_555
Zn38 Zn54 2.941659 1_555
Zn38 Zn58 3.063077 1_545
Zn39 Zn57 2.570388 1_555
Zn39 Zn81 2.680214 1_555
Zn39 Zn55 2.941659 1_555
Zn39 Zn60 3.063077 1_565
Zn40 Zn6 2.602839 1_455
Zn40 Zn64 2.654317 1_555
Zn40 Zn63 2.705166 1_555
Zn40 Zn82 2.780924 1_545
Zn40 Zn72 2.956699 1_555
Zn41 Zn65 2.654317 1_556
Zn41 Zn62 2.705166 1_555
Zn41 Zn80 2.780924 1_565
Zn41 Zn73 2.956699 1_555
Zn42 Zn65 2.654317 1_555
Zn42 Zn61 2.705166 1_555
Zn42 Zn78 2.780924 1_565
Zn42 Zn74 2.956699 1_555
Zn43 Zn5 2.602839 1_565
Zn43 Zn66 2.654317 1_555
Zn43 Zn57 2.705166 1_555
Zn43 Zn73 2.780924 1_455
Zn43 Zn75 2.956699 1_555
Zn44 Zn67 2.654317 1_556
Zn44 Zn60 2.705166 1_555
Zn44 Zn87 2.780924 1_555
Zn44 Zn76 2.956699 1_555
Zn45 Zn5 2.528950 1_555
Zn45 Zn8 2.602839 1_455
Zn45 Zn64 2.654317 1_556
Zn45 Zn59 2.705166 1_555
Zn45 Zn75 2.780924 1_545
Zn45 Zn77 2.956699 1_555
Zn46 Zn6 2.528950 1_555
Zn46 Zn68 2.654317 1_555
Zn46 Zn56 2.705166 1_555
Zn46 Zn72 2.780924 1_655
Zn46 Zn78 2.956699 1_555
Zn47 Zn7 2.528950 1_555
Zn47 Zn69 2.654317 1_555
Zn47 Zn58 2.705166 1_555
Zn47 Zn86 2.780924 1_555
Zn47 Zn79 2.956699 1_555
Zn48 Zn8 2.528950 1_555
Zn48 Zn68 2.654317 1_555
Zn48 Zn60 2.705166 1_555
Zn48 Zn77 2.780924 1_655
Zn48 Zn80 2.956699 1_555
Zn49 Zn9 2.528950 1_555
Zn49 Zn69 2.654317 1_556
Zn49 Zn57 2.705166 1_555
Zn49 Zn85 2.780924 1_555
Zn49 Zn81 2.956699 1_555
Zn50 Zn66 2.654317 1_555
Zn50 Zn58 2.705166 1_555
Zn50 Zn74 2.780924 1_455
Zn50 Zn82 2.956699 1_555
Zn51 Zn67 2.654317 1_555
Zn51 Zn56 2.705166 1_555
Zn51 Zn84 2.780924 1_555
Zn51 Zn83 2.956699 1_555
Zn52 Zn70 2.654317 1_555
Zn52 Zn61 2.705166 1_555
Zn52 Zn79 2.780924 1_555
Zn52 Zn84 2.956699 1_555
Zn53 Zn9 2.602839 1_555
Zn53 Zn71 2.654317 1_555
Zn53 Zn59 2.705166 1_555
Zn53 Zn76 2.780924 1_555
Zn53 Zn85 2.956699 1_555
Zn54 Zn7 2.602839 1_555
Zn54 Zn71 2.654317 1_555
Zn54 Zn63 2.705166 1_555
Zn54 Zn83 2.780924 1_555
Zn54 Zn86 2.956699 1_555
Zn55 Zn70 2.654317 1_555
Zn55 Zn62 2.705166 1_555
Zn55 Zn81 2.780924 1_555
Zn55 Zn87 2.956699 1_555
Zn56 Zn83 2.662378 1_555
Zn56 Zn78 2.662378 1_555
Zn57 Zn81 2.662378 1_555
Zn57 Zn75 2.662378 1_555
Zn58 Zn79 2.662378 1_555
Zn58 Zn82 2.662378 1_555
Zn59 Zn8 2.634981 1_455
Zn59 Zn9 2.634981 1_555
Zn59 Zn85 2.662378 1_555
Zn59 Zn77 2.662378 1_555
Zn60 Zn80 2.662378 1_555
Zn60 Zn76 2.662378 1_555
Zn61 Zn74 2.662378 1_555
Zn61 Zn84 2.662378 1_555
Zn62 Zn87 2.662378 1_555
Zn62 Zn73 2.662378 1_555
Zn63 Zn7 2.634981 1_555
Zn63 Zn72 2.662378 1_555
Zn63 Zn86 2.662378 1_555
Zn64 Zn65 2.434527 1_445
Zn64 Zn8 2.647461 1_454
Zn64 Zn78 2.817807 1_455
Zn64 Zn80 2.817807 1_454
Zn65 Zn82 2.817807 1_655
Zn65 Zn75 2.817807 1_654
Zn66 Zn68 2.434527 1_465
Zn66 Zn77 2.817807 1_565
Zn66 Zn72 2.817807 1_565
Zn67 Zn69 2.434527 1_555
Zn67 Zn86 2.817807 1_555
Zn67 Zn85 2.817807 1_554
Zn68 Zn73 2.817807 1_545
Zn68 Zn74 2.817807 1_545
Zn69 Zn84 2.817807 1_555
Zn69 Zn87 2.817807 1_554
Zn70 Zn71 2.434527 1_555
Zn70 Zn76 2.817807 1_555
Zn70 Zn83 2.817807 1_555
Zn71 Zn9 2.647461 1_555
Zn71 Zn81 2.817807 1_555
Zn71 Zn79 2.817807 1_555
Zn72 Zn77 2.659039 1_555
Zn73 Zn74 2.659039 1_555
Zn75 Zn82 2.659039 1_556
Zn76 Zn83 2.659039 1_555
Zn77 Zn8 2.650154 1_455
Zn78 Zn80 2.659039 1_554
Zn79 Zn81 2.659039 1_555
Zn81 Zn9 2.780330 1_555
Zn84 Zn87 2.659039 1_554
Zn85 Zn9 2.650154 1_555
Zn85 Zn86 2.659039 1_556
