# generated using pymatgen
data_La3SiI3
_symmetry_space_group_name_H-M   'P 1'
_cell_length_a   11.02053693
_cell_length_b   11.01854766
_cell_length_c   11.01951120
_cell_angle_alpha   109.46575222
_cell_angle_beta   109.47348150
_cell_angle_gamma   109.46864749
_symmetry_Int_Tables_number   1
_chemical_formula_structural   La3SiI3
_chemical_formula_sum   'La12 Si4 I12'
_cell_volume   1030.14539738
_cell_formula_units_Z   4
loop_
 _symmetry_equiv_pos_site_id
 _symmetry_equiv_pos_as_xyz
  1  'x, y, z'
loop_
 _atom_site_type_symbol
 _atom_site_label
 _atom_site_symmetry_multiplicity
 _atom_site_fract_x
 _atom_site_fract_y
 _atom_site_fract_z
 _atom_site_occupancy
  La  La0  1  0.46873542  0.48439098  0.23440452  1
  La  La1  1  0.74999737  0.23436218  0.26568367  1
  La  La2  1  0.75000425  0.01565652  0.48439288  1
  La  La3  1  0.23434876  0.46869228  0.48435310  1
  La  La4  1  0.26564913  0.75000998  0.23436879  1
  La  La5  1  0.03110902  0.26556011  0.01557855  1
  La  La6  1  0.01563251  0.03126626  0.26563688  1
  La  La7  1  0.48444381  0.75000714  0.01556430  1
  La  La8  1  0.48445941  0.23445095  0.46891281  1
  La  La9  1  0.01568105  0.48437188  0.75001908  1
  La  La10  1  0.26563007  0.01562341  0.03128826  1
  La  La11  1  0.23444484  0.26556307  0.75002092  1
  Si  Si0  1  0.25001741  0.25001777  0.25002350  1
  Si  Si1  1  0.50001442  0.00001017  0.25001405  1
  Si  Si2  1  0.00000301  0.25002900  0.50001655  1
  Si  Si3  1  0.24999924  0.50001456  0.00001173  1
  I  I0  1  0.25000540  0.75862731  0.74145052  1
  I  I1  1  0.51712445  0.50865198  0.75853262  1
  I  I2  1  0.98282243  0.74154848  0.99140037  1
  I  I3  1  0.74145633  0.24998707  0.75852695  1
  I  I4  1  0.99130935  0.98282404  0.74134147  1
  I  I5  1  0.24999398  0.99150062  0.50863172  1
  I  I6  1  0.75861661  0.51719621  0.50868089  1
  I  I7  1  0.50856089  0.25002700  0.99145564  1
  I  I8  1  0.75846759  0.74138707  0.24985433  1
  I  I9  1  0.74151149  0.99130832  0.98287668  1
  I  I10  1  0.99132480  0.50846033  0.24982614  1
  I  I11  1  0.50863695  0.75845529  0.51713307  1
loop_
_geom_bond_atom_site_label_1
_geom_bond_atom_site_label_2
_geom_bond_distance
_geom_bond_site_symmetry_2
La0 Si0 2.988682 1_555
La0 Si3 2.988906 1_555
La1 Si1 2.988491 1_555
La1 Si2 2.988501 1_655
La2 Si1 2.988787 1_555
La2 Si2 2.988992 1_655
La3 Si0 2.988487 1_555
La3 Si2 2.988527 1_555
La4 Si3 2.988637 1_555
La4 Si1 2.988777 1_565
La5 Si0 2.989730 1_555
La5 Si3 2.989900 1_555
La6 Si0 2.988976 1_555
La6 Si2 2.989084 1_555
La7 Si1 2.989707 1_565
La7 Si3 2.989745 1_555
La8 Si1 2.989773 1_555
La8 Si0 2.989790 1_555
La9 Si3 2.988441 1_556
La9 Si2 2.988460 1_555
La10 Si1 2.988745 1_555
La10 Si0 2.988880 1_555
La11 Si3 2.989757 1_556
La11 Si2 2.989896 1_555
I0 La7 3.310541 1_556
I0 La9 3.310651 1_555
I0 La10 3.395526 1_566
I0 La3 3.396536 1_555
I1 La3 3.309820 1_555
I1 La11 3.311146 1_555
I1 La7 3.394511 1_556
I1 La8 3.394964 1_555
I2 La10 3.309802 1_666
I2 La4 3.311806 1_656
I2 La6 3.395002 1_666
I2 La9 3.396878 1_655
I3 La2 3.309735 1_555
I3 La9 3.310490 1_655
I3 La8 3.394424 1_555
I3 La5 3.394840 1_656
I4 La11 3.310667 1_665
I4 La5 3.310708 1_666
I4 La2 3.394633 1_565
I4 La10 3.397134 1_666
I5 La6 3.310284 1_565
I5 La8 3.310368 1_565
I5 La11 3.393992 1_565
I5 La4 3.396746 1_555
I6 La8 3.310508 1_555
I6 La1 3.310978 1_555
I6 La9 3.395576 1_655
I6 La0 3.396425 1_555
I7 La0 3.310540 1_556
I7 La10 3.310721 1_556
I7 La11 3.394553 1_555
I7 La1 3.396165 1_556
I8 La7 3.309160 1_555
I8 La2 3.311217 1_565
I8 La6 3.395786 1_665
I8 La0 3.395898 1_555
I9 La6 3.309355 1_666
I9 La1 3.311965 1_566
I9 La7 3.394500 1_556
I9 La5 3.394991 1_666
I10 La5 3.309195 1_655
I10 La3 3.311518 1_655
I10 La1 3.395966 1_555
I10 La4 3.396238 1_655
I11 La0 3.309072 1_555
I11 La4 3.311483 1_555
I11 La3 3.395831 1_555
I11 La2 3.396110 1_565
