# generated using pymatgen
data_Sr2FeCu2O7
_symmetry_space_group_name_H-M   'P 1'
_cell_length_a   13.18413681
_cell_length_b   13.18413681
_cell_length_c   13.18413681
_cell_angle_alpha   157.55865834
_cell_angle_beta   157.37861009
_cell_angle_gamma   32.07674665
_symmetry_Int_Tables_number   1
_chemical_formula_structural   Sr2FeCu2O7
_chemical_formula_sum   'Sr4 Fe2 Cu4 O14'
_cell_volume   336.22657596
_cell_formula_units_Z   2
loop_
 _symmetry_equiv_pos_site_id
 _symmetry_equiv_pos_as_xyz
  1  'x, y, z'
loop_
 _atom_site_type_symbol
 _atom_site_label
 _atom_site_symmetry_multiplicity
 _atom_site_fract_x
 _atom_site_fract_y
 _atom_site_fract_z
 _atom_site_occupancy
  Sr  Sr0  1  0.64560400  0.62647600  0.97440800  1
  Sr  Sr1  1  0.35439600  0.32880400  0.98087200  1
  Sr  Sr2  1  0.15206900  0.12647600  0.98087200  1
  Sr  Sr3  1  0.84793100  0.82880400  0.97440800  1
  Fe  Fe0  1  0.18439700  0.77746600  0.46186300  1
  Fe  Fe1  1  0.81560300  0.27746600  0.59306800  1
  Cu  Cu0  1  0.56096900  0.03789700  0.47948800  1
  Cu  Cu1  1  0.43903100  0.91852000  0.47692800  1
  Cu  Cu2  1  0.05840900  0.53789700  0.47692800  1
  Cu  Cu3  1  0.94159100  0.41852000  0.47948800  1
  O  O0  1  0.83593400  0.65397100  0.98990500  1
  O  O1  1  0.16406600  0.15397100  0.81803700  1
  O  O2  1  0.32648400  0.30445800  0.47992400  1
  O  O3  1  0.67351600  0.15344100  0.97797400  1
  O  O4  1  0.32453400  0.80445800  0.97797400  1
  O  O5  1  0.67546600  0.65344100  0.47992400  1
  O  O6  1  0.82618000  0.80421300  0.47772600  1
  O  O7  1  0.17382000  0.65154600  0.97803300  1
  O  O8  1  0.82648600  0.30421300  0.97803300  1
  O  O9  1  0.17351400  0.15154600  0.47772600  1
  O  O10  1  0.19573700  0.65140400  0.48588000  1
  O  O11  1  0.80426300  0.29014300  0.45566800  1
  O  O12  1  0.66552400  0.15140400  0.45566800  1
  O  O13  1  0.33447600  0.79014300  0.48588000  1
loop_
_geom_bond_atom_site_label_1
_geom_bond_atom_site_label_2
_geom_bond_distance
_geom_bond_site_symmetry_2
Fe0 O13 1.830096 1_555
Fe0 O10 1.830096 1_555
Fe0 O0 1.910261 1_454
Fe0 O1 1.934690 1_565
Fe1 O11 1.830069 1_555
Fe1 O12 1.830118 1_555
Fe1 O1 1.910263 1_655
Fe1 O0 1.934692 1_555
Cu0 O8 1.864285 1_555
Cu0 O6 1.865511 1_545
Cu0 O2 1.868577 1_555
Cu0 O4 1.870370 1_544
Cu1 O9 1.864281 1_565
Cu1 O7 1.865514 1_554
Cu1 O3 1.868577 1_565
Cu1 O5 1.870370 1_555
Cu2 O6 1.864288 1_455
Cu2 O8 1.865509 1_454
Cu2 O4 1.868577 1_555
Cu2 O2 1.870370 1_555
Cu3 O7 1.864291 1_655
Cu3 O9 1.865518 1_655
Cu3 O5 1.868577 1_555
Cu3 O3 1.870370 1_554
O0 Sr3 2.632104 1_555
O0 Sr0 2.632116 1_555
O1 Sr2 2.632104 1_555
O1 Sr1 2.632116 1_555
O2 Sr0 2.587879 1_555
O2 Sr2 2.599493 1_554
O3 Sr1 2.587886 1_555
O3 Sr3 2.599502 1_545
O4 Sr2 2.587886 1_565
O4 Sr0 2.599484 1_555
O5 Sr3 2.587897 1_555
O5 Sr1 2.599493 1_554
O6 Sr2 2.595255 1_665
O6 Sr0 2.595659 1_554
O7 Sr3 2.595257 1_455
O7 Sr1 2.595659 1_555
O8 Sr0 2.595252 1_555
O8 Sr2 2.595682 1_655
O9 Sr1 2.595255 1_555
O9 Sr3 2.595677 1_444
O10 Sr0 2.618264 1_555
O10 Sr2 2.656147 1_554
O10 Sr2 2.723350 1_565
O10 Sr0 2.799329 1_454
O11 Sr1 2.618270 1_554
O11 Sr3 2.656148 1_544
O11 Sr3 2.723356 1_555
O11 Sr1 2.799330 1_655
O12 Sr2 2.618256 1_554
O12 Sr0 2.656147 1_544
O12 Sr0 2.723350 1_555
O12 Sr2 2.799322 1_655
O13 Sr3 2.618257 1_555
O13 Sr1 2.656149 1_554
O13 Sr1 2.723356 1_565
O13 Sr3 2.799328 1_454
