# generated using pymatgen
data_Ba2FeMoO6
_symmetry_space_group_name_H-M   'P 1'
_cell_length_a   5.80002902
_cell_length_b   8.18456460
_cell_length_c   5.79968030
_cell_angle_alpha   89.99713573
_cell_angle_beta   89.98531459
_cell_angle_gamma   90.00546234
_symmetry_Int_Tables_number   1
_chemical_formula_structural   Ba2FeMoO6
_chemical_formula_sum   'Ba4 Fe2 Mo2 O12'
_cell_volume   275.31494367
_cell_formula_units_Z   2
loop_
 _symmetry_equiv_pos_site_id
 _symmetry_equiv_pos_as_xyz
  1  'x, y, z'
loop_
 _atom_site_type_symbol
 _atom_site_label
 _atom_site_symmetry_multiplicity
 _atom_site_fract_x
 _atom_site_fract_y
 _atom_site_fract_z
 _atom_site_occupancy
  Ba  Ba0  1  0.00028200  0.24996300  0.49943600  1
  Ba  Ba1  1  0.49966500  0.75000200  0.00052700  1
  Ba  Ba2  1  0.50035300  0.25000000  0.99946100  1
  Ba  Ba3  1  0.99973300  0.75003900  0.50056800  1
  Fe  Fe0  1  0.50003100  0.50000800  0.49997100  1
  Fe  Fe1  1  0.99989500  0.99998300  0.00006900  1
  Mo  Mo0  1  0.00000100  0.50000000  0.99999900  1
  Mo  Mo1  1  0.50003400  0.00000300  0.50001400  1
  O  O0  1  0.50038700  0.25035500  0.49904000  1
  O  O1  1  0.99972000  0.75040000  0.00067500  1
  O  O2  1  0.00028400  0.24959900  0.99932900  1
  O  O3  1  0.49961600  0.74964700  0.50095000  1
  O  O4  1  0.73755500  0.00003600  0.73772600  1
  O  O5  1  0.25130800  0.50017100  0.25164200  1
  O  O6  1  0.75141400  0.00011300  0.24846600  1
  O  O7  1  0.23774200  0.49950500  0.76242300  1
  O  O8  1  0.26243700  0.99996000  0.26225900  1
  O  O9  1  0.74869700  0.49983100  0.74834700  1
  O  O10  1  0.24859000  0.99988800  0.75153000  1
  O  O11  1  0.76225700  0.50049600  0.23756600  1
loop_
_geom_bond_atom_site_label_1
_geom_bond_atom_site_label_2
_geom_bond_distance
_geom_bond_site_symmetry_2
Ba0 O5 2.894283 1_555
Ba0 O6 2.895621 1_455
Ba0 O8 2.896667 1_545
Ba0 O9 2.897467 1_455
Ba0 O7 2.897493 1_555
Ba0 O10 2.898679 1_545
Ba0 O2 2.899221 1_555
Ba0 O0 2.899409 1_455
Ba0 O2 2.900462 1_554
Ba0 O0 2.900625 1_555
Ba0 O4 2.900737 1_455
Ba0 O11 2.901453 1_455
Ba1 O5 2.893983 1_555
Ba1 O11 2.895020 1_555
Ba1 O8 2.895247 1_555
Ba1 O10 2.896602 1_554
Ba1 O6 2.896723 1_565
Ba1 O3 2.897389 1_554
Ba1 O1 2.899698 1_455
Ba1 O1 2.900335 1_555
Ba1 O4 2.900472 1_564
Ba1 O9 2.901304 1_554
Ba1 O7 2.901539 1_554
Ba1 O3 2.902295 1_555
Ba2 O9 2.893943 1_555
Ba2 O7 2.895070 1_555
Ba2 O4 2.895219 1_555
Ba2 O6 2.896590 1_556
Ba2 O10 2.896747 1_545
Ba2 O0 2.897400 1_556
Ba2 O2 2.899616 1_655
Ba2 O2 2.900417 1_555
Ba2 O8 2.900569 1_546
Ba2 O5 2.901345 1_556
Ba2 O11 2.901479 1_556
Ba2 O0 2.902283 1_555
Ba3 O9 2.894269 1_555
Ba3 O10 2.895560 1_655
Ba3 O4 2.896650 1_565
Ba3 O5 2.897481 1_655
Ba3 O11 2.897588 1_555
Ba3 O6 2.898728 1_565
Ba3 O1 2.899221 1_555
Ba3 O3 2.899339 1_655
Ba3 O1 2.900462 1_556
Ba3 O8 2.900684 1_655
Ba3 O3 2.900695 1_555
Ba3 O7 2.901369 1_655
Fe0 O9 2.038689 1_555
Fe0 O5 2.038731 1_555
Fe0 O3 2.043196 1_555
Fe0 O0 2.043310 1_555
Fe0 O11 2.151301 1_555
Fe0 O7 2.151752 1_555
Fe1 O6 2.037494 1_565
Fe1 O10 2.038954 1_654
Fe1 O1 2.042731 1_555
Fe1 O2 2.043004 1_664
Fe1 O4 2.152062 1_564
Fe1 O8 2.152263 1_655
Mo0 O11 1.949061 1_456
Mo0 O7 1.949085 1_555
Mo0 O1 2.049420 1_456
Mo0 O2 2.049428 1_555
Mo0 O5 2.062922 1_556
Mo0 O9 2.062946 1_455
Mo1 O4 1.949236 1_555
Mo1 O8 1.949724 1_545
Mo1 O0 2.049030 1_555
Mo1 O3 2.049063 1_545
Mo1 O6 2.062302 1_555
Mo1 O10 2.062433 1_545
