# generated using pymatgen
data_Te4Mo2WSe2
_symmetry_space_group_name_H-M   'P 1'
_cell_length_a   3.47766728
_cell_length_b   3.47766728
_cell_length_c   31.96467000
_cell_angle_alpha   90.00000000
_cell_angle_beta   90.00000000
_cell_angle_gamma   119.99998626
_symmetry_Int_Tables_number   1
_chemical_formula_structural   Te4Mo2WSe2
_chemical_formula_sum   'Te4 Mo2 W1 Se2'
_cell_volume   334.79346714
_cell_formula_units_Z   1
loop_
 _symmetry_equiv_pos_site_id
 _symmetry_equiv_pos_as_xyz
  1  'x, y, z'
loop_
 _atom_site_type_symbol
 _atom_site_label
 _atom_site_symmetry_multiplicity
 _atom_site_fract_x
 _atom_site_fract_y
 _atom_site_fract_z
 _atom_site_occupancy
  Te  Te0  1  0.00000000  0.00000000  0.40446800  1
  Te  Te1  1  0.33333300  0.66666700  0.52052100  1
  Te  Te2  1  0.33333300  0.66666700  0.63615000  1
  Te  Te3  1  0.00000000  0.00000000  0.28944800  1
  Mo  Mo0  1  0.00000000  0.00000000  0.11564200  1
  Mo  Mo1  1  0.33333300  0.66666700  0.34692900  1
  W  W0  1  0.00000000  0.00000000  0.57836600  1
  Se  Se0  1  0.33333300  0.66666700  0.06491900  1
  Se  Se1  1  0.33333300  0.66666700  0.16639800  1
loop_
_geom_bond_atom_site_label_1
_geom_bond_atom_site_label_2
_geom_bond_distance
_geom_bond_site_symmetry_2
Te1 W0 2.729500 1_565
Te1 W0 2.729502 1_555
Te1 W0 2.729502 1_665
Te2 W0 2.728179 1_565
Te2 W0 2.728182 1_665
Te2 W0 2.728182 1_555
Mo0 Se0 2.580724 1_545
Mo0 Se0 2.580727 1_445
Mo0 Se0 2.580727 1_555
Mo0 Se1 2.581387 1_545
Mo0 Se1 2.581390 1_445
Mo0 Se1 2.581390 1_555
Mo1 Te3 2.721631 1_565
Mo1 Te3 2.721634 1_665
Mo1 Te3 2.721634 1_555
Mo1 Te0 2.722883 1_565
Mo1 Te0 2.722886 1_555
Mo1 Te0 2.722886 1_665
