# generated using pymatgen
data_Zr3TiMn8
_symmetry_space_group_name_H-M   'P 1'
_cell_length_a   4.86834127
_cell_length_b   4.86834127
_cell_length_c   8.16050400
_cell_angle_alpha   90.00000000
_cell_angle_beta   90.00000000
_cell_angle_gamma   119.99999004
_symmetry_Int_Tables_number   1
_chemical_formula_structural   Zr3TiMn8
_chemical_formula_sum   'Zr3 Ti1 Mn8'
_cell_volume   167.49802323
_cell_formula_units_Z   1
loop_
 _symmetry_equiv_pos_site_id
 _symmetry_equiv_pos_as_xyz
  1  'x, y, z'
loop_
 _atom_site_type_symbol
 _atom_site_label
 _atom_site_symmetry_multiplicity
 _atom_site_fract_x
 _atom_site_fract_y
 _atom_site_fract_z
 _atom_site_occupancy
  Zr  Zr0  1  0.66666700  0.33333300  0.44179700  1
  Zr  Zr1  1  0.66666700  0.33333300  0.06367500  1
  Zr  Zr2  1  0.00000000  0.00000000  0.93120800  1
  Ti  Ti0  1  0.00000000  0.00000000  0.56355400  1
  Mn  Mn0  1  0.33333300  0.66666700  0.50138600  1
  Mn  Mn1  1  0.33333300  0.66666700  0.99990700  1
  Mn  Mn2  1  0.50250800  0.00501600  0.74581700  1
  Mn  Mn3  1  0.50250800  0.49749200  0.74581700  1
  Mn  Mn4  1  0.99498400  0.49749200  0.74581700  1
  Mn  Mn5  1  0.16293400  0.32586900  0.25366900  1
  Mn  Mn6  1  0.16293400  0.83706600  0.25366900  1
  Mn  Mn7  1  0.67413100  0.83706600  0.25366900  1
loop_
_geom_bond_atom_site_label_1
_geom_bond_atom_site_label_2
_geom_bond_distance
_geom_bond_site_symmetry_2
Zr0 Zr1 3.085666 1_555
Zr1 Zr2 3.011443 1_654
Zr1 Zr2 3.011447 1_664
Zr1 Zr2 3.011447 1_554
Ti0 Zr0 2.981186 1_455
Ti0 Zr0 2.981190 1_445
Ti0 Zr0 2.981190 1_555
Ti0 Zr2 3.000242 1_555
Mn0 Mn2 2.452284 1_565
Mn0 Mn4 2.452284 1_455
Mn0 Mn3 2.452286 1_555
Mn0 Mn6 2.480112 1_555
Mn0 Mn7 2.480112 1_555
Mn0 Mn5 2.480112 1_555
Mn0 Zr0 2.852490 1_455
Mn0 Zr0 2.852490 1_565
Mn0 Zr0 2.852498 1_555
Mn0 Ti0 2.856153 1_565
Mn0 Ti0 2.856157 1_665
Mn0 Ti0 2.856157 1_555
Mn1 Mn2 2.516815 1_565
Mn1 Mn4 2.516815 1_455
Mn1 Mn3 2.516818 1_555
Mn1 Mn6 2.520482 1_556
Mn1 Mn5 2.520482 1_556
Mn1 Mn7 2.520482 1_556
Mn1 Zr1 2.858501 1_456
Mn1 Zr1 2.858501 1_566
Mn1 Zr1 2.858509 1_556
Mn1 Zr2 2.866099 1_565
Mn1 Zr2 2.866104 1_665
Mn1 Zr2 2.866104 1_555
Mn2 Mn3 2.397541 1_555
Mn2 Mn4 2.397542 1_555
Mn2 Mn3 2.470800 1_545
Mn2 Mn4 2.470800 1_445
Mn2 Zr0 2.840987 1_555
Mn2 Ti0 2.852695 1_655
Mn2 Ti0 2.852695 1_555
Mn2 Zr2 2.866087 1_655
Mn2 Zr2 2.866087 1_555
Mn2 Zr1 2.940117 1_556
Mn3 Mn4 2.397541 1_555
Mn3 Mn4 2.470800 1_455
Mn3 Zr0 2.840989 1_555
Mn3 Ti0 2.852695 1_555
Mn3 Ti0 2.852695 1_665
Mn3 Zr2 2.866087 1_555
Mn3 Zr2 2.866087 1_665
Mn3 Zr1 2.940118 1_556
Mn4 Zr0 2.840987 1_555
Mn4 Ti0 2.852695 1_655
Mn4 Ti0 2.852695 1_665
Mn4 Zr2 2.866087 1_655
Mn4 Zr2 2.866087 1_665
Mn4 Zr1 2.940117 1_556
Mn5 Mn6 2.379660 1_545
Mn5 Mn7 2.379660 1_445
Mn5 Mn6 2.488681 1_555
Mn5 Mn7 2.488682 1_555
Mn5 Ti0 2.877936 1_555
Mn5 Zr0 2.878029 1_455
Mn5 Zr0 2.878037 1_555
Mn5 Zr1 2.886181 1_455
Mn5 Zr1 2.886189 1_555
Mn5 Zr2 2.968518 1_554
Mn6 Mn7 2.379660 1_455
Mn6 Mn7 2.488681 1_555
Mn6 Ti0 2.877934 1_565
Mn6 Zr0 2.878034 1_455
Mn6 Zr0 2.878034 1_565
Mn6 Zr1 2.886185 1_455
Mn6 Zr1 2.886185 1_565
Mn6 Zr2 2.968516 1_564
Mn7 Ti0 2.877936 1_665
Mn7 Zr0 2.878029 1_565
Mn7 Zr0 2.878037 1_555
Mn7 Zr1 2.886181 1_565
Mn7 Zr1 2.886189 1_555
Mn7 Zr2 2.968518 1_664
