# generated using pymatgen
data_Li9Mn2Co5O16
_symmetry_space_group_name_H-M   'P 1'
_cell_length_a   11.56063900
_cell_length_b   5.07929400
_cell_length_c   5.14495017
_cell_angle_alpha   69.43507728
_cell_angle_beta   90.00000000
_cell_angle_gamma   90.00000000
_symmetry_Int_Tables_number   1
_chemical_formula_structural   Li9Mn2Co5O16
_chemical_formula_sum   'Li9 Mn2 Co5 O16'
_cell_volume   282.85879135
_cell_formula_units_Z   1
loop_
 _symmetry_equiv_pos_site_id
 _symmetry_equiv_pos_as_xyz
  1  'x, y, z'
loop_
 _atom_site_type_symbol
 _atom_site_label
 _atom_site_symmetry_multiplicity
 _atom_site_fract_x
 _atom_site_fract_y
 _atom_site_fract_z
 _atom_site_occupancy
  Li  Li0  1  0.87669000  0.00000000  0.50000000  1
  Li  Li1  1  0.75354000  0.50000000  0.50000000  1
  Li  Li2  1  0.62645700  0.00000000  0.50000000  1
  Li  Li3  1  0.50213800  0.50000000  0.50000000  1
  Li  Li4  1  0.37267000  0.00000000  0.50000000  1
  Li  Li5  1  0.24093100  0.50000000  0.50000000  1
  Li  Li6  1  0.12657500  0.00000000  0.50000000  1
  Li  Li7  1  0.00319200  0.50000000  0.50000000  1
  Li  Li8  1  0.12452200  0.50000000  0.00000000  1
  Mn  Mn0  1  0.00301000  0.00000000  0.00000000  1
  Mn  Mn1  1  0.36875700  0.50000000  0.00000000  1
  Co  Co0  1  0.87828200  0.50000000  0.00000000  1
  Co  Co1  1  0.75451800  0.00000000  0.00000000  1
  Co  Co2  1  0.62609400  0.50000000  0.00000000  1
  Co  Co3  1  0.50078200  0.00000000  0.00000000  1
  Co  Co4  1  0.24760000  0.00000000  0.00000000  1
  O  O0  1  0.87914600  0.77331600  0.23736900  1
  O  O1  1  0.75234200  0.26718700  0.22365000  1
  O  O2  1  0.62399100  0.76254200  0.23397700  1
  O  O3  1  0.49634800  0.26435900  0.22876900  1
  O  O4  1  0.37098200  0.74839400  0.21778800  1
  O  O5  1  0.25770500  0.24655500  0.22150600  1
  O  O6  1  0.12410000  0.78157000  0.23054600  1
  O  O7  1  0.99250700  0.25037800  0.21402900  1
  O  O8  1  0.87914600  0.22668400  0.76263100  1
  O  O9  1  0.75234200  0.73281300  0.77635000  1
  O  O10  1  0.62399100  0.23745800  0.76602300  1
  O  O11  1  0.49634800  0.73564100  0.77123100  1
  O  O12  1  0.37098200  0.25160600  0.78221200  1
  O  O13  1  0.25770500  0.75344500  0.77849400  1
  O  O14  1  0.12410000  0.21843000  0.76945400  1
  O  O15  1  0.99250700  0.74962200  0.78597100  1
loop_
_geom_bond_atom_site_label_1
_geom_bond_atom_site_label_2
_geom_bond_distance
_geom_bond_site_symmetry_2
Li0 O8 2.060418 1_555
Li0 O0 2.060418 1_545
Li0 O7 2.064036 1_555
Li0 O15 2.064036 1_545
Li0 O9 2.138750 1_545
Li0 O1 2.138750 1_555
Li1 O8 2.131609 1_555
Li1 O0 2.131609 1_555
Li1 O1 2.145061 1_555
Li1 O9 2.145061 1_555
Li1 O10 2.147635 1_555
Li1 O2 2.147635 1_555
Li2 O10 2.118619 1_555
Li2 O2 2.118619 1_545
Li2 O1 2.150733 1_555
Li2 O9 2.150733 1_545
Li2 O11 2.167114 1_545
Li2 O3 2.167114 1_555
Li3 O10 2.086565 1_555
Li3 O2 2.086565 1_555
Li3 O3 2.134890 1_555
Li3 O11 2.134890 1_555
Li3 O4 2.170723 1_555
Li3 O12 2.170723 1_555
Li4 O5 2.031539 1_555
Li4 O13 2.031539 1_545
Li4 O11 2.116189 1_545
Li4 O3 2.116189 1_555
Li4 O4 2.246206 1_545
Li4 O12 2.246206 1_555
Li5 O14 2.097290 1_555
Li5 O6 2.097290 1_555
Li5 O12 2.161819 1_555
Li5 O4 2.161819 1_555
Li5 O5 2.245812 1_555
Li5 O13 2.245812 1_555
Li6 O6 2.057720 1_545
Li6 O14 2.057720 1_555
Li6 O13 2.158430 1_545
Li6 O5 2.158430 1_555
Li6 O7 2.206755 1_455
Li6 O15 2.206755 1_445
Li7 O8 2.119364 1_455
Li7 O0 2.119364 1_455
Li7 O14 2.127949 1_555
Li7 O6 2.127949 1_555
Li7 O15 2.257907 1_455
Li7 O7 2.257907 1_455
Li8 O15 2.041692 1_454
Li8 O7 2.041692 1_455
Li8 O13 2.072657 1_554
Li8 O5 2.072657 1_555
Li8 O6 2.155031 1_555
Li8 O14 2.155031 1_554
Mn0 O6 1.916505 1_545
Mn0 O14 1.916505 1_554
Mn0 O15 1.956651 1_444
Mn0 O7 1.956651 1_455
Mn0 O8 1.969713 1_454
Mn0 O0 1.969713 1_445
Mn1 O5 1.890375 1_555
Mn1 O13 1.890375 1_554
Mn1 O12 1.959894 1_554
Mn1 O4 1.959894 1_555
Mn1 O3 2.000978 1_555
Mn1 O11 2.000978 1_554
Co0 O15 1.892893 1_554
Co0 O7 1.892893 1_555
Co0 O1 1.971357 1_555
Co0 O9 1.971357 1_554
Co0 O8 2.147064 1_554
Co0 O0 2.147064 1_555
Co1 O8 1.976143 1_554
Co1 O0 1.976143 1_545
Co1 O10 2.039812 1_554
Co1 O2 2.039812 1_545
Co1 O9 2.064831 1_544
Co1 O1 2.064831 1_555
Co2 O1 1.973988 1_555
Co2 O9 1.973988 1_554
Co2 O11 2.019413 1_554
Co2 O3 2.019413 1_555
Co2 O10 2.087057 1_554
Co2 O2 2.087057 1_555
Co3 O10 1.978047 1_554
Co3 O2 1.978047 1_545
Co3 O12 2.033338 1_554
Co3 O4 2.033338 1_545
Co3 O3 2.073952 1_555
Co3 O11 2.073952 1_544
Co4 O6 1.936949 1_545
Co4 O14 1.936949 1_554
Co4 O13 1.970634 1_544
Co4 O5 1.970634 1_555
Co4 O12 1.979216 1_554
Co4 O4 1.979216 1_545
