# generated using pymatgen
data_CsYb(WO4)2
_symmetry_space_group_name_H-M   'P 1'
_cell_length_a   7.77709784
_cell_length_b   7.77709784
_cell_length_c   7.52335755
_cell_angle_alpha   63.12818988
_cell_angle_beta   63.12818988
_cell_angle_gamma   89.51812645
_symmetry_Int_Tables_number   1
_chemical_formula_structural   CsYb(WO4)2
_chemical_formula_sum   'Cs2 Yb2 W4 O16'
_cell_volume   350.92925248
_cell_formula_units_Z   2
loop_
 _symmetry_equiv_pos_site_id
 _symmetry_equiv_pos_as_xyz
  1  'x, y, z'
loop_
 _atom_site_type_symbol
 _atom_site_label
 _atom_site_symmetry_multiplicity
 _atom_site_fract_x
 _atom_site_fract_y
 _atom_site_fract_z
 _atom_site_occupancy
  Cs  Cs0  1  0.19778900  0.80221100  0.75000000  1
  Cs  Cs1  1  0.80221100  0.19778900  0.25000000  1
  Yb  Yb0  1  0.77551500  0.22448500  0.75000000  1
  Yb  Yb1  1  0.22448500  0.77551500  0.25000000  1
  W  W0  1  0.69751300  0.68431300  0.78709500  1
  W  W1  1  0.30248700  0.31568700  0.21290500  1
  W  W2  1  0.31568700  0.30248700  0.71290500  1
  W  W3  1  0.68431300  0.69751300  0.28709500  1
  O  O0  1  0.61984800  0.74633300  0.56396500  1
  O  O1  1  0.38015200  0.25366700  0.43603500  1
  O  O2  1  0.25366700  0.38015200  0.93603500  1
  O  O3  1  0.74633300  0.61984800  0.06396500  1
  O  O4  1  0.37343500  0.06846700  0.86778600  1
  O  O5  1  0.62656500  0.93153300  0.13221400  1
  O  O6  1  0.93153300  0.62656500  0.63221400  1
  O  O7  1  0.06846700  0.37343500  0.36778600  1
  O  O8  1  0.58782600  0.37291100  0.96704000  1
  O  O9  1  0.41217400  0.62708900  0.03296000  1
  O  O10  1  0.62708900  0.41217400  0.53296000  1
  O  O11  1  0.37291100  0.58782600  0.46704000  1
  O  O12  1  0.77843200  0.94326600  0.70124500  1
  O  O13  1  0.22156800  0.05673400  0.29875500  1
  O  O14  1  0.05673400  0.22156800  0.79875500  1
  O  O15  1  0.94326600  0.77843200  0.20124500  1
loop_
_geom_bond_atom_site_label_1
_geom_bond_atom_site_label_2
_geom_bond_distance
_geom_bond_site_symmetry_2
Cs0 O13 2.973451 1_565
Cs0 O15 2.973451 1_456
Cs0 O0 3.048722 1_555
Cs0 O2 3.048722 1_555
Cs0 O3 3.078374 1_456
Cs0 O1 3.078374 1_565
Cs0 O11 3.117052 1_555
Cs0 O9 3.117052 1_556
Cs0 O6 3.120845 1_455
Cs0 O4 3.120845 1_565
Cs1 O12 2.973451 1_545
Cs1 O14 2.973451 1_654
Cs1 O3 3.048722 1_555
Cs1 O1 3.048722 1_555
Cs1 O0 3.078374 1_545
Cs1 O2 3.078374 1_654
Cs1 O8 3.117052 1_554
Cs1 O10 3.117052 1_555
Cs1 O5 3.120845 1_545
Cs1 O7 3.120845 1_655
O0 W0 1.896102 1_555
O0 W3 2.121804 1_555
O1 W1 1.896102 1_555
O1 W2 2.121804 1_555
O2 W2 1.896102 1_555
O2 W1 2.121804 1_556
O3 W3 1.896102 1_555
O3 W0 2.121804 1_554
O4 W2 1.847718 1_555
O4 Yb1 2.431480 1_546
O5 W3 1.847718 1_555
O5 Yb0 2.431480 1_564
O6 W0 1.847718 1_555
O6 Yb1 2.431480 1_655
O7 W1 1.847718 1_555
O7 Yb0 2.431480 1_455
O8 W1 2.026275 1_556
O8 W0 2.110097 1_555
O8 Yb0 2.377037 1_555
O9 W0 2.026275 1_554
O9 W1 2.110097 1_555
O9 Yb1 2.377037 1_555
O10 W3 2.026275 1_555
O10 W2 2.110097 1_555
O10 Yb0 2.377037 1_555
O11 W2 2.026275 1_555
O11 W3 2.110097 1_555
O11 Yb1 2.377037 1_555
O12 W0 1.829487 1_555
O12 Yb0 2.373850 1_565
O13 W1 1.829487 1_555
O13 Yb1 2.373850 1_545
O14 W2 1.829487 1_555
O14 Yb0 2.373850 1_455
O15 W3 1.829487 1_555
O15 Yb1 2.373850 1_655
