# generated using pymatgen
data_Fe4Co3(PO4)6
_symmetry_space_group_name_H-M   'P 1'
_cell_length_a   6.41213934
_cell_length_b   7.95518940
_cell_length_c   9.41112466
_cell_angle_alpha   104.46657768
_cell_angle_beta   108.38713010
_cell_angle_gamma   101.41292635
_symmetry_Int_Tables_number   1
_chemical_formula_structural   Fe4Co3(PO4)6
_chemical_formula_sum   'Fe4 Co3 P6 O24'
_cell_volume   420.63472542
_cell_formula_units_Z   1
loop_
 _symmetry_equiv_pos_site_id
 _symmetry_equiv_pos_as_xyz
  1  'x, y, z'
loop_
 _atom_site_type_symbol
 _atom_site_label
 _atom_site_symmetry_multiplicity
 _atom_site_fract_x
 _atom_site_fract_y
 _atom_site_fract_z
 _atom_site_occupancy
  Fe  Fe0  1  0.61589300  0.54955300  0.88648100  1
  Fe  Fe1  1  0.04615400  0.72416100  0.52663100  1
  Fe  Fe2  1  0.38410800  0.45044800  0.11351900  1
  Fe  Fe3  1  0.95384600  0.27583900  0.47336900  1
  Co  Co0  1  0.29284300  0.80574100  0.29005700  1
  Co  Co1  1  0.70715700  0.19425900  0.70994300  1
  Co  Co2  1  0.00000000  0.00000000  0.00000000  1
  P  P0  1  0.77383700  0.85162600  0.22917100  1
  P  P1  1  0.22616300  0.14837500  0.77083000  1
  P  P2  1  0.60662500  0.77649800  0.63276600  1
  P  P3  1  0.39337400  0.22350200  0.36723400  1
  P  P4  1  0.08908800  0.59595300  0.83251100  1
  P  P5  1  0.91091200  0.40404700  0.16748900  1
  O  O0  1  0.78951900  0.05001100  0.29430200  1
  O  O1  1  0.21048200  0.94999000  0.70569900  1
  O  O2  1  0.77435400  0.80464800  0.05663900  1
  O  O3  1  0.22564800  0.19535300  0.94336200  1
  O  O4  1  0.62813100  0.22689700  0.49028700  1
  O  O5  1  0.37187100  0.77310400  0.50971400  1
  O  O6  1  0.01717000  0.19179400  0.66328500  1
  O  O7  1  0.98283100  0.80820600  0.33671500  1
  O  O8  1  0.87537500  0.46455300  0.83800300  1
  O  O9  1  0.12462400  0.53544700  0.16199700  1
  O  O10  1  0.89049500  0.21011100  0.08478500  1
  O  O11  1  0.10950500  0.78988900  0.91521600  1
  O  O12  1  0.93757200  0.44974700  0.34599100  1
  O  O13  1  0.27081700  0.03262600  0.23566500  1
  O  O14  1  0.72918300  0.96737500  0.76433600  1
  O  O15  1  0.30798800  0.54155900  0.91611700  1
  O  O16  1  0.69201100  0.45844000  0.08388200  1
  O  O17  1  0.24796400  0.27195200  0.46322800  1
  O  O18  1  0.06242800  0.55025200  0.65400900  1
  O  O19  1  0.44798800  0.36337200  0.28711300  1
  O  O20  1  0.55201200  0.63662900  0.71288800  1
  O  O21  1  0.45469400  0.26856300  0.77568000  1
  O  O22  1  0.54530600  0.73143800  0.22432000  1
  O  O23  1  0.75203500  0.72804800  0.53677200  1
loop_
_geom_bond_atom_site_label_1
_geom_bond_atom_site_label_2
_geom_bond_distance
_geom_bond_site_symmetry_2
Fe0 O20 1.890016 1_555
Fe0 O8 2.050302 1_555
Fe0 O2 2.061262 1_556
Fe0 O15 2.070357 1_555
Fe0 O21 2.096061 1_555
Fe0 O16 2.110836 1_556
Fe1 O23 1.924048 1_455
Fe1 O1 1.948249 1_555
Fe1 O7 2.013222 1_455
Fe1 O18 2.041763 1_555
Fe1 O5 2.111368 1_555
Fe1 O12 2.222148 1_455
Fe2 O19 1.890024 1_555
Fe2 O9 2.050311 1_555
Fe2 O3 2.061258 1_554
Fe2 O16 2.070350 1_555
Fe2 O22 2.096060 1_555
Fe2 O15 2.110835 1_554
Fe3 O17 1.924041 1_655
Fe3 O0 1.948239 1_555
Fe3 O6 2.013222 1_655
Fe3 O12 2.041756 1_555
Fe3 O4 2.111360 1_555
Fe3 O18 2.222143 1_655
Co0 O13 2.014096 1_565
Co0 O22 2.044637 1_555
Co0 O9 2.051026 1_555
Co0 O5 2.063239 1_555
Co0 O7 2.169447 1_455
Co1 O14 2.014092 1_545
Co1 O21 2.044640 1_555
Co1 O8 2.051026 1_555
Co1 O4 2.063234 1_555
Co1 O6 2.169453 1_655
Co2 O11 2.018687 1_544
Co2 O10 2.018690 1_455
Co2 O2 2.191629 1_445
Co2 O3 2.191636 1_554
Co2 O14 2.259667 1_444
Co2 O13 2.259671 1_555
O0 P0 1.513770 1_545
O1 P1 1.513771 1_565
O2 P0 1.573800 1_555
O3 P1 1.573795 1_555
O4 P3 1.573623 1_555
O5 P2 1.573608 1_555
O6 P1 1.562600 1_555
O7 P0 1.562605 1_555
O8 P4 1.574167 1_655
O9 P5 1.574163 1_455
O10 P5 1.502994 1_555
O11 P4 1.502996 1_555
O12 P5 1.572439 1_555
O13 P3 1.559143 1_555
O14 P2 1.559153 1_555
O15 P4 1.578044 1_555
O16 P5 1.578047 1_555
O17 P3 1.527649 1_555
O18 P4 1.572439 1_555
O19 P3 1.536504 1_555
O20 P2 1.536503 1_555
O21 P1 1.563675 1_555
O22 P0 1.563671 1_555
O23 P2 1.527649 1_555
