# generated using pymatgen
data_BaSrSmNbO6
_symmetry_space_group_name_H-M   'P 1'
_cell_length_a   8.53086563
_cell_length_b   8.53705733
_cell_length_c   8.53943871
_cell_angle_alpha   90.00000000
_cell_angle_beta   90.00000000
_cell_angle_gamma   90.00000000
_symmetry_Int_Tables_number   1
_chemical_formula_structural   BaSrSmNbO6
_chemical_formula_sum   'Ba4 Sr4 Sm4 Nb4 O24'
_cell_volume   621.91441780
_cell_formula_units_Z   4
loop_
 _symmetry_equiv_pos_site_id
 _symmetry_equiv_pos_as_xyz
  1  'x, y, z'
loop_
 _atom_site_type_symbol
 _atom_site_label
 _atom_site_symmetry_multiplicity
 _atom_site_fract_x
 _atom_site_fract_y
 _atom_site_fract_z
 _atom_site_occupancy
  Ba  Ba0  1  0.00000000  0.00000000  0.00000000  1
  Ba  Ba1  1  0.50000000  0.50000000  0.50000000  1
  Ba  Ba2  1  0.00000000  0.50000000  -0.00000000  1
  Ba  Ba3  1  0.00000000  0.00000000  0.50000000  1
  Sr  Sr0  1  0.00000000  0.50000000  0.50000000  1
  Sr  Sr1  1  0.50000000  0.00000000  0.50000000  1
  Sr  Sr2  1  0.50000000  0.50000000  0.00000000  1
  Sr  Sr3  1  0.50000000  0.00000000  -0.00000000  1
  Sm  Sm0  1  0.25164996  0.25044355  0.25199274  1
  Sm  Sm1  1  0.74835004  0.74955645  0.25199274  1
  Sm  Sm2  1  0.74835004  0.25044355  0.74800726  1
  Sm  Sm3  1  0.25164996  0.74955645  0.74800726  1
  Nb  Nb0  1  0.74650100  0.74910672  0.75009849  1
  Nb  Nb1  1  0.25349900  0.25089328  0.75009849  1
  Nb  Nb2  1  0.25349900  0.74910672  0.24990151  1
  Nb  Nb3  1  0.74650100  0.25089328  0.24990151  1
  O  O0  1  0.98220094  0.22163774  0.27358011  1
  O  O1  1  0.01779906  0.77836226  0.27358011  1
  O  O2  1  0.01779906  0.22163774  0.72641989  1
  O  O3  1  0.98220094  0.77836226  0.72641989  1
  O  O4  1  0.28517932  0.98314945  0.21764972  1
  O  O5  1  0.28517932  0.01685055  0.78235028  1
  O  O6  1  0.71482068  0.01685055  0.21764972  1
  O  O7  1  0.71482068  0.98314945  0.78235028  1
  O  O8  1  0.22532050  0.27781467  0.98423620  1
  O  O9  1  0.77467950  0.27781467  0.01576380  1
  O  O10  1  0.22532050  0.72218533  0.01576380  1
  O  O11  1  0.77467950  0.72218533  0.98423620  1
  O  O12  1  0.51654259  0.29388103  0.21737569  1
  O  O13  1  0.48345741  0.70611897  0.21737569  1
  O  O14  1  0.48345741  0.29388103  0.78262431  1
  O  O15  1  0.51654259  0.70611897  0.78262431  1
  O  O16  1  0.21950942  0.51734208  0.29103500  1
  O  O17  1  0.21950942  0.48265792  0.70896500  1
  O  O18  1  0.78049058  0.48265792  0.29103500  1
  O  O19  1  0.78049058  0.51734208  0.70896500  1
  O  O20  1  0.28961701  0.21351835  0.51887105  1
  O  O21  1  0.71038299  0.21351835  0.48112895  1
  O  O22  1  0.28961701  0.78648165  0.48112895  1
  O  O23  1  0.71038299  0.78648165  0.51887105  1
loop_
_geom_bond_atom_site_label_1
_geom_bond_atom_site_label_2
_geom_bond_distance
_geom_bond_site_symmetry_2
Ba0 O2 3.010175 1_554
Ba0 O1 3.010175 1_545
Ba0 O0 3.010175 1_455
Ba0 O3 3.010175 1_444
Ba0 O10 3.055806 1_545
Ba0 O8 3.055806 1_554
Ba0 O11 3.055806 1_444
Ba0 O9 3.055806 1_455
Ba0 O7 3.064924 1_444
Ba0 O5 3.064924 1_554
Ba0 O6 3.064924 1_455
Ba0 O4 3.064924 1_545
Ba1 O17 2.988609 1_555
Ba1 O18 2.988609 1_555
Ba1 O19 2.988609 1_555
Ba1 O16 2.988609 1_555
Ba1 O14 2.990157 1_555
Ba1 O15 2.990157 1_555
Ba1 O12 2.990157 1_555
Ba1 O13 2.990157 1_555
Ba1 O20 3.037860 1_555
Ba1 O22 3.037860 1_555
Ba1 O23 3.037860 1_555
Ba1 O21 3.037860 1_555
Ba2 O10 2.703845 1_555
Ba2 O8 2.703845 1_554
Ba2 O9 2.703845 1_455
Ba2 O11 2.703845 1_454
Ba2 O18 3.115311 1_455
Ba2 O19 3.115311 1_454
Ba2 O16 3.115311 1_555
Ba2 O17 3.115311 1_554
Ba2 O2 3.335901 1_554
Ba2 O3 3.335901 1_454
Ba2 O0 3.335901 1_455
Ba2 O1 3.335901 1_555
Ba3 O0 2.709547 1_455
Ba3 O1 2.709547 1_545
Ba3 O2 2.709547 1_555
Ba3 O3 2.709547 1_445
Ba3 O23 3.074559 1_445
Ba3 O21 3.074559 1_455
Ba3 O20 3.074559 1_555
Ba3 O22 3.074559 1_545
Nb0 O15 2.015011 1_555
Nb0 O23 2.023759 1_555
Nb0 O11 2.026876 1_555
Nb0 O19 2.030337 1_555
Nb0 O7 2.034955 1_555
Nb0 O3 2.036241 1_555
Nb1 O14 2.015011 1_555
Nb1 O20 2.023759 1_555
Nb1 O8 2.026876 1_555
Nb1 O17 2.030337 1_555
Nb1 O5 2.034955 1_555
Nb1 O2 2.036241 1_555
Nb2 O13 2.015011 1_555
Nb2 O22 2.023759 1_555
Nb2 O10 2.026876 1_555
Nb2 O16 2.030337 1_555
Nb2 O4 2.034955 1_555
Nb2 O1 2.036241 1_555
Nb3 O12 2.015011 1_555
Nb3 O21 2.023759 1_555
Nb3 O9 2.026876 1_555
Nb3 O18 2.030337 1_555
Nb3 O6 2.034955 1_555
Nb3 O0 2.036241 1_555
O0 Sm0 2.319089 1_655
O0 Sr0 3.067364 1_655
O1 Sm1 2.319089 1_455
O1 Sr0 3.067364 1_555
O2 Sm2 2.319089 1_455
O2 Sr0 3.067364 1_555
O3 Sm3 2.319089 1_655
O3 Sr0 3.067364 1_655
O4 Sm0 2.318386 1_565
O4 Sr3 2.614107 1_565
O4 Sr1 3.031931 1_565
O5 Sm3 2.318386 1_545
O5 Sr3 2.614107 1_556
O5 Sr1 3.031931 1_555
O6 Sm1 2.318386 1_545
O6 Sr3 2.614107 1_555
O6 Sr1 3.031931 1_555
O7 Sm2 2.318386 1_565
O7 Sr3 2.614107 1_566
O7 Sr1 3.031931 1_565
O8 Sm0 2.309349 1_556
O8 Sr2 3.017755 1_556
O9 Sm2 2.309349 1_554
O9 Sr2 3.017755 1_555
O10 Sm3 2.309349 1_554
O10 Sr2 3.017755 1_555
O11 Sm1 2.309349 1_556
O11 Sr2 3.017755 1_556
O12 Sm0 2.308989 1_555
O12 Sr2 2.561641 1_555
O12 Sr3 3.124118 1_555
O13 Sm1 2.308989 1_555
O13 Sr2 2.561641 1_555
O13 Sr3 3.124118 1_565
O14 Sm2 2.308989 1_555
O14 Sr2 2.561641 1_556
O14 Sr3 3.124118 1_556
O15 Sm3 2.308989 1_555
O15 Sr2 2.561641 1_556
O15 Sr3 3.124118 1_566
O16 Sm0 2.319057 1_555
O16 Sr0 2.590909 1_555
O17 Sm3 2.319057 1_555
O17 Sr0 2.590909 1_555
O18 Sm1 2.319057 1_555
O18 Sr0 2.590909 1_655
O19 Sm2 2.319057 1_555
O19 Sr0 2.590909 1_655
O20 Sm0 2.323376 1_555
O20 Sr1 2.563154 1_555
O21 Sm2 2.323376 1_555
O21 Sr1 2.563154 1_555
O22 Sm3 2.323376 1_555
O22 Sr1 2.563154 1_565
O23 Sm1 2.323376 1_555
O23 Sr1 2.563154 1_565
