# generated using pymatgen
data_ZrH12N5F4
_symmetry_space_group_name_H-M   'P 1'
_cell_length_a   9.16279300
_cell_length_b   9.16279300
_cell_length_c   10.85002500
_cell_angle_alpha   90.00000000
_cell_angle_beta   90.00000000
_cell_angle_gamma   90.00000000
_symmetry_Int_Tables_number   1
_chemical_formula_structural   ZrH12N5F4
_chemical_formula_sum   'Zr4 H48 N20 F16'
_cell_volume   910.93311375
_cell_formula_units_Z   4
loop_
 _symmetry_equiv_pos_site_id
 _symmetry_equiv_pos_as_xyz
  1  'x, y, z'
loop_
 _atom_site_type_symbol
 _atom_site_label
 _atom_site_symmetry_multiplicity
 _atom_site_fract_x
 _atom_site_fract_y
 _atom_site_fract_z
 _atom_site_occupancy
  Zr  Zr0  1  0.00000000  0.00000000  0.25000000  1
  Zr  Zr1  1  0.00000000  0.00000000  0.75000000  1
  Zr  Zr2  1  0.50000000  0.50000000  0.75000000  1
  Zr  Zr3  1  0.50000000  0.50000000  0.25000000  1
  H  H0  1  0.76792000  0.79908400  0.35285300  1
  H  H1  1  0.23208000  0.79908400  0.85285300  1
  H  H2  1  0.76792000  0.20091600  0.85285300  1
  H  H3  1  0.23208000  0.20091600  0.35285300  1
  H  H4  1  0.29908400  0.26792000  0.85285300  1
  H  H5  1  0.70091600  0.26792000  0.35285300  1
  H  H6  1  0.29908400  0.73208000  0.35285300  1
  H  H7  1  0.70091600  0.73208000  0.85285300  1
  H  H8  1  0.73208000  0.70091600  0.64714700  1
  H  H9  1  0.26792000  0.70091600  0.14714700  1
  H  H10  1  0.73208000  0.29908400  0.14714700  1
  H  H11  1  0.26792000  0.29908400  0.64714700  1
  H  H12  1  0.20091600  0.23208000  0.14714700  1
  H  H13  1  0.79908400  0.23208000  0.64714700  1
  H  H14  1  0.20091600  0.76792000  0.64714700  1
  H  H15  1  0.79908400  0.76792000  0.14714700  1
  H  H16  1  0.69807200  0.96253500  0.32404500  1
  H  H17  1  0.30192800  0.96253500  0.82404500  1
  H  H18  1  0.69807200  0.03746500  0.82404500  1
  H  H19  1  0.30192800  0.03746500  0.32404500  1
  H  H20  1  0.46253500  0.19807200  0.82404500  1
  H  H21  1  0.53746500  0.19807200  0.32404500  1
  H  H22  1  0.46253500  0.80192800  0.32404500  1
  H  H23  1  0.53746500  0.80192800  0.82404500  1
  H  H24  1  0.80192800  0.53746500  0.67595500  1
  H  H25  1  0.19807200  0.53746500  0.17595500  1
  H  H26  1  0.80192800  0.46253500  0.17595500  1
  H  H27  1  0.19807200  0.46253500  0.67595500  1
  H  H28  1  0.03746500  0.30192800  0.17595500  1
  H  H29  1  0.96253500  0.30192800  0.67595500  1
  H  H30  1  0.03746500  0.69807200  0.67595500  1
  H  H31  1  0.96253500  0.69807200  0.17595500  1
  H  H32  1  0.79851900  0.93469400  0.45035400  1
  H  H33  1  0.20148100  0.93469400  0.95035400  1
  H  H34  1  0.79851900  0.06530600  0.95035400  1
  H  H35  1  0.20148100  0.06530600  0.45035400  1
  H  H36  1  0.43469400  0.29851900  0.95035400  1
  H  H37  1  0.56530600  0.29851900  0.45035400  1
  H  H38  1  0.43469400  0.70148100  0.45035400  1
  H  H39  1  0.56530600  0.70148100  0.95035400  1
  H  H40  1  0.70148100  0.56530600  0.54964600  1
  H  H41  1  0.29851900  0.56530600  0.04964600  1
  H  H42  1  0.70148100  0.43469400  0.04964600  1
  H  H43  1  0.29851900  0.43469400  0.54964600  1
  H  H44  1  0.06530600  0.20148100  0.04964600  1
  H  H45  1  0.93469400  0.20148100  0.54964600  1
  H  H46  1  0.06530600  0.79851900  0.54964600  1
  H  H47  1  0.93469400  0.79851900  0.04964600  1
  N  N0  1  0.78663700  0.90910100  0.35867700  1
  N  N1  1  0.21336300  0.90910100  0.85867700  1
  N  N2  1  0.78663700  0.09089900  0.85867700  1
  N  N3  1  0.21336300  0.09089900  0.35867700  1
  N  N4  1  0.40910100  0.28663700  0.85867700  1
  N  N5  1  0.59089900  0.28663700  0.35867700  1
  N  N6  1  0.40910100  0.71336300  0.35867700  1
  N  N7  1  0.59089900  0.71336300  0.85867700  1
  N  N8  1  0.71336300  0.59089900  0.64132300  1
  N  N9  1  0.28663700  0.59089900  0.14132300  1
  N  N10  1  0.71336300  0.40910100  0.14132300  1
  N  N11  1  0.28663700  0.40910100  0.64132300  1
  N  N12  1  0.09089900  0.21336300  0.14132300  1
  N  N13  1  0.90910100  0.21336300  0.64132300  1
  N  N14  1  0.09089900  0.78663700  0.64132300  1
  N  N15  1  0.90910100  0.78663700  0.14132300  1
  N  N16  1  0.00000000  0.50000000  0.33458700  1
  N  N17  1  0.00000000  0.50000000  0.83458700  1
  N  N18  1  0.50000000  0.00000000  0.66541300  1
  N  N19  1  0.50000000  0.00000000  0.16541300  1
  F  F0  1  0.92872500  0.16482500  0.36670300  1
  F  F1  1  0.07127500  0.16482500  0.86670300  1
  F  F2  1  0.92872500  0.83517500  0.86670300  1
  F  F3  1  0.07127500  0.83517500  0.36670300  1
  F  F4  1  0.66482500  0.42872500  0.86670300  1
  F  F5  1  0.33517500  0.42872500  0.36670300  1
  F  F6  1  0.66482500  0.57127500  0.36670300  1
  F  F7  1  0.33517500  0.57127500  0.86670300  1
  F  F8  1  0.57127500  0.33517500  0.63329700  1
  F  F9  1  0.42872500  0.33517500  0.13329700  1
  F  F10  1  0.57127500  0.66482500  0.13329700  1
  F  F11  1  0.42872500  0.66482500  0.63329700  1
  F  F12  1  0.83517500  0.07127500  0.13329700  1
  F  F13  1  0.16482500  0.07127500  0.63329700  1
  F  F14  1  0.83517500  0.92872500  0.63329700  1
  F  F15  1  0.16482500  0.92872500  0.13329700  1
loop_
_geom_bond_atom_site_label_1
_geom_bond_atom_site_label_2
_geom_bond_distance
_geom_bond_site_symmetry_2
H0 N0 1.024498 1_555
H1 N1 1.024498 1_555
H2 N2 1.024498 1_555
H3 N3 1.024498 1_555
H4 N4 1.024498 1_555
H5 N5 1.024498 1_555
H6 N6 1.024498 1_555
H7 N7 1.024498 1_555
H8 N8 1.024498 1_555
H9 N9 1.024498 1_555
H10 N10 1.024498 1_555
H11 N11 1.024498 1_555
H12 N12 1.024498 1_555
H13 N13 1.024498 1_555
H14 N14 1.024498 1_555
H15 N15 1.024498 1_555
H16 N0 1.019531 1_555
H17 N1 1.019531 1_555
H18 N2 1.019531 1_555
H19 N3 1.019531 1_555
H20 N4 1.019531 1_555
H21 N5 1.019531 1_555
H22 N6 1.019531 1_555
H23 N7 1.019531 1_555
H24 N8 1.019531 1_555
H25 N9 1.019531 1_555
H26 N10 1.019531 1_555
H27 N11 1.019531 1_555
H28 N12 1.019531 1_555
H29 N13 1.019531 1_555
H30 N14 1.019531 1_555
H31 N15 1.019531 1_555
H32 N0 1.027749 1_555
H33 N1 1.027749 1_555
H34 N2 1.027749 1_555
H35 N3 1.027749 1_555
H36 N4 1.027749 1_555
H37 N5 1.027749 1_555
H38 N6 1.027749 1_555
H39 N7 1.027749 1_555
H40 N8 1.027749 1_555
H41 N9 1.027749 1_555
H42 N10 1.027749 1_555
H43 N11 1.027749 1_555
H44 N12 1.027749 1_555
H45 N13 1.027749 1_555
H46 N14 1.027749 1_555
H47 N15 1.027749 1_555
N0 Zr0 2.430252 1_665
N1 Zr1 2.430252 1_565
N2 Zr1 2.430252 1_655
N3 Zr0 2.430252 1_555
N4 Zr2 2.430252 1_555
N5 Zr3 2.430252 1_555
N6 Zr3 2.430252 1_555
N7 Zr2 2.430252 1_555
N8 Zr2 2.430252 1_555
N9 Zr3 2.430252 1_555
N10 Zr3 2.430252 1_555
N11 Zr2 2.430252 1_555
N12 Zr0 2.430252 1_555
N13 Zr1 2.430252 1_655
N14 Zr1 2.430252 1_565
N15 Zr0 2.430252 1_665
F0 Zr0 2.076229 1_655
F1 Zr1 2.076229 1_555
F2 Zr1 2.076229 1_665
F3 Zr0 2.076229 1_565
F4 Zr2 2.076229 1_555
F5 Zr3 2.076229 1_555
F6 Zr3 2.076229 1_555
F7 Zr2 2.076229 1_555
F8 Zr2 2.076229 1_555
F9 Zr3 2.076229 1_555
F10 Zr3 2.076229 1_555
F11 Zr2 2.076229 1_555
F12 Zr0 2.076229 1_655
F13 Zr1 2.076229 1_555
F14 Zr1 2.076229 1_665
F15 Zr0 2.076229 1_565
