# generated using pymatgen
data_ScSnPt
_symmetry_space_group_name_H-M   'P 1'
_cell_length_a   7.39407923
_cell_length_b   7.39407826
_cell_length_c   7.43650923
_cell_angle_alpha   90.00000000
_cell_angle_beta   90.00000000
_cell_angle_gamma   119.99999983
_symmetry_Int_Tables_number   1
_chemical_formula_structural   ScSnPt
_chemical_formula_sum   'Sc6 Sn6 Pt6'
_cell_volume   352.10151717
_cell_formula_units_Z   6
loop_
 _symmetry_equiv_pos_site_id
 _symmetry_equiv_pos_as_xyz
  1  'x, y, z'
loop_
 _atom_site_type_symbol
 _atom_site_label
 _atom_site_symmetry_multiplicity
 _atom_site_fract_x
 _atom_site_fract_y
 _atom_site_fract_z
 _atom_site_occupancy
  Sc  Sc0  1  0.40491029  0.01785541  0.25000000  1
  Sc  Sc1  1  0.61294612  0.59508971  0.25000000  1
  Sc  Sc2  1  0.98214459  0.38705388  0.25000000  1
  Sc  Sc3  1  0.38705388  0.98214459  0.75000000  1
  Sc  Sc4  1  0.59508971  0.61294612  0.75000000  1
  Sc  Sc5  1  0.01785541  0.40491029  0.75000000  1
  Sn  Sn0  1  0.27188989  0.27188989  0.00000000  1
  Sn  Sn1  1  -0.00000000  0.72811011  0.00000000  1
  Sn  Sn2  1  -0.00000000  0.72811011  0.50000000  1
  Sn  Sn3  1  0.72811011  0.00000000  0.50000000  1
  Sn  Sn4  1  0.27188989  0.27188989  0.50000000  1
  Sn  Sn5  1  0.72811011  0.00000000  0.00000000  1
  Pt  Pt0  1  0.00000000  0.00000000  0.75000000  1
  Pt  Pt1  1  0.00000000  0.00000000  0.25000000  1
  Pt  Pt2  1  0.66666700  0.33333300  0.96404495  1
  Pt  Pt3  1  0.33333300  0.66666700  0.46404495  1
  Pt  Pt4  1  0.33333300  0.66666700  0.03595505  1
  Pt  Pt5  1  0.66666700  0.33333300  0.53595505  1
loop_
_geom_bond_atom_site_label_1
_geom_bond_atom_site_label_2
_geom_bond_distance
_geom_bond_site_symmetry_2
Sc0 Sn5 3.082251 1_555
Sc0 Sn3 3.082251 1_555
Sc0 Sn4 3.130404 1_555
Sc0 Sn0 3.130404 1_555
Sc0 Sn1 3.255102 1_545
Sc0 Sn2 3.255102 1_545
Sc1 Sn4 3.082254 1_555
Sc1 Sn0 3.082254 1_555
Sc1 Sn1 3.130399 1_655
Sc1 Sn2 3.130399 1_655
Sc1 Sn5 3.255103 1_565
Sc1 Sn3 3.255103 1_565
Sc2 Sn1 3.082256 1_655
Sc2 Sn2 3.082256 1_655
Sc2 Sn5 3.130400 1_555
Sc2 Sn3 3.130400 1_555
Sc2 Sn4 3.255097 1_655
Sc2 Sn0 3.255097 1_655
Sc3 Sn3 3.082257 1_565
Sc3 Sn5 3.082257 1_566
Sc3 Sn1 3.130400 1_556
Sc3 Sn2 3.130400 1_555
Sc3 Sn4 3.255097 1_565
Sc3 Sn0 3.255097 1_566
Sc4 Sn0 3.082254 1_556
Sc4 Sn4 3.082254 1_555
Sc4 Sn5 3.130398 1_566
Sc4 Sn3 3.130398 1_565
Sc4 Sn1 3.255103 1_656
Sc4 Sn2 3.255103 1_655
Sc5 Sn2 3.082250 1_555
Sc5 Sn1 3.082250 1_556
Sc5 Sn4 3.130404 1_555
Sc5 Sn0 3.130404 1_556
Sc5 Sn5 3.255101 1_456
Sc5 Sn3 3.255101 1_455
Pt0 Sn1 2.738241 1_546
Pt0 Sn2 2.738241 1_545
Pt0 Sn0 2.738241 1_556
Pt0 Sn4 2.738241 1_555
Pt0 Sn5 2.738241 1_456
Pt0 Sn3 2.738241 1_455
Pt0 Sc3 2.930151 1_545
Pt0 Sc4 2.930155 1_445
Pt0 Sc5 2.930158 1_555
Pt1 Sn1 2.738241 1_545
Pt1 Sn2 2.738241 1_545
Pt1 Sn0 2.738241 1_555
Pt1 Sn4 2.738241 1_555
Pt1 Sn5 2.738241 1_455
Pt1 Sn3 2.738241 1_455
Pt1 Sc2 2.930150 1_455
Pt1 Sc1 2.930155 1_445
Pt1 Sc0 2.930158 1_555
Pt2 Sn5 2.733558 1_556
Pt2 Sn1 2.733563 1_656
Pt2 Sn0 2.733566 1_556
Pt2 Sc5 2.860487 1_655
Pt2 Sc3 2.860491 1_545
Pt2 Sc4 2.860499 1_555
Pt2 Sc1 3.032255 1_556
Pt2 Sc0 3.032255 1_556
Pt2 Sc2 3.032255 1_556
Pt2 Pt5 3.183494 1_555
Pt3 Sn2 2.733558 1_555
Pt3 Sn3 2.733563 1_565
Pt3 Sn4 2.733565 1_555
Pt3 Sc0 2.860487 1_565
Pt3 Sc2 2.860491 1_455
Pt3 Sc1 2.860499 1_555
Pt3 Sc3 3.032255 1_555
Pt3 Sc5 3.032255 1_555
Pt3 Sc4 3.032255 1_555
Pt3 Pt4 3.183494 1_555
Pt4 Sn1 2.733558 1_555
Pt4 Sn5 2.733563 1_565
Pt4 Sn0 2.733565 1_555
Pt4 Sc0 2.860487 1_565
Pt4 Sc2 2.860491 1_455
Pt4 Sc1 2.860499 1_555
Pt4 Sc3 3.032255 1_554
Pt4 Sc5 3.032255 1_554
Pt4 Sc4 3.032255 1_554
Pt5 Sn3 2.733558 1_555
Pt5 Sn2 2.733563 1_655
Pt5 Sn4 2.733566 1_555
Pt5 Sc5 2.860487 1_655
Pt5 Sc3 2.860491 1_545
Pt5 Sc4 2.860499 1_555
Pt5 Sc1 3.032255 1_555
Pt5 Sc0 3.032255 1_555
Pt5 Sc2 3.032255 1_555
