# generated using pymatgen
data_Li4MnCo2NiO8
_symmetry_space_group_name_H-M   'P 1'
_cell_length_a   19.28689944
_cell_length_b   19.28689944
_cell_length_c   19.28690007
_cell_angle_alpha   8.70243703
_cell_angle_beta   8.70243703
_cell_angle_gamma   8.70243570
_symmetry_Int_Tables_number   1
_chemical_formula_structural   Li4MnCo2NiO8
_chemical_formula_sum   'Li4 Mn1 Co2 Ni1 O8'
_cell_volume   142.51029958
_cell_formula_units_Z   1
loop_
 _symmetry_equiv_pos_site_id
 _symmetry_equiv_pos_as_xyz
  1  'x, y, z'
loop_
 _atom_site_type_symbol
 _atom_site_label
 _atom_site_symmetry_multiplicity
 _atom_site_fract_x
 _atom_site_fract_y
 _atom_site_fract_z
 _atom_site_occupancy
  Li  Li0  1  0.00031500  0.00031500  0.00031500  1
  Li  Li1  1  0.25249800  0.25249800  0.25249800  1
  Li  Li2  1  0.49859600  0.49859600  0.49859600  1
  Li  Li3  1  0.74860600  0.74860600  0.74860600  1
  Mn  Mn0  1  0.87483300  0.87483300  0.87483300  1
  Co  Co0  1  0.12460600  0.12460600  0.12460600  1
  Co  Co1  1  0.37533000  0.37533000  0.37533000  1
  Ni  Ni0  1  0.62526400  0.62526400  0.62526400  1
  O  O0  1  0.31069600  0.31069600  0.31069600  1
  O  O1  1  0.56042100  0.56042100  0.56042100  1
  O  O2  1  0.81082700  0.81082700  0.81082700  1
  O  O3  1  0.05952800  0.05952800  0.05952800  1
  O  O4  1  0.93912000  0.93912000  0.93912000  1
  O  O5  1  0.18886700  0.18886700  0.18886700  1
  O  O6  1  0.43905000  0.43905000  0.43905000  1
  O  O7  1  0.69144000  0.69144000  0.69144000  1
loop_
_geom_bond_atom_site_label_1
_geom_bond_atom_site_label_2
_geom_bond_distance
_geom_bond_site_symmetry_2
Li0 O0 2.145959 1_455
Li0 O0 2.145959 1_545
Li0 O0 2.145960 1_554
Li0 O7 2.200533 1_544
Li0 O7 2.200533 1_454
Li0 O7 2.200533 1_445
Li1 O4 2.043998 1_454
Li1 O4 2.043998 1_544
Li1 O4 2.043999 1_445
Li1 O1 2.236082 1_455
Li1 O1 2.236082 1_545
Li1 O1 2.236083 1_554
Li2 O2 2.081917 1_545
Li2 O2 2.081917 1_455
Li2 O2 2.081918 1_554
Li2 O5 2.169328 1_655
Li2 O5 2.169328 1_565
Li2 O5 2.169329 1_556
Li3 O3 2.126878 1_656
Li3 O3 2.126878 1_566
Li3 O3 2.126878 1_665
Li3 O6 2.175596 1_565
Li3 O6 2.175596 1_655
Li3 O6 2.175596 1_556
Mn0 O1 2.011065 1_655
Mn0 O1 2.011065 1_565
Mn0 O1 2.011066 1_556
Mn0 O5 2.022963 1_566
Mn0 O5 2.022963 1_656
Mn0 O5 2.022964 1_665
Co0 O6 2.010066 1_455
Co0 O6 2.010066 1_545
Co0 O6 2.010066 1_554
Co0 O2 2.031082 1_544
Co0 O2 2.031082 1_454
Co0 O2 2.031083 1_445
Co1 O7 1.959717 1_455
Co1 O7 1.959717 1_545
Co1 O7 1.959717 1_554
Co1 O3 1.968769 1_565
Co1 O3 1.968769 1_655
Co1 O3 1.968770 1_556
Ni0 O0 2.006203 1_655
Ni0 O0 2.006203 1_565
Ni0 O0 2.006204 1_556
Ni0 O4 2.028623 1_455
Ni0 O4 2.028623 1_545
Ni0 O4 2.028623 1_554
