# generated using pymatgen
data_NiTeO3
_symmetry_space_group_name_H-M   'P 1'
_cell_length_a   5.26689000
_cell_length_b   5.99931700
_cell_length_c   7.58228900
_cell_angle_alpha   90.00000000
_cell_angle_beta   90.00000000
_cell_angle_gamma   90.00000000
_symmetry_Int_Tables_number   1
_chemical_formula_structural   NiTeO3
_chemical_formula_sum   'Ni4 Te4 O12'
_cell_volume   239.58321701
_cell_formula_units_Z   4
loop_
 _symmetry_equiv_pos_site_id
 _symmetry_equiv_pos_as_xyz
  1  'x, y, z'
loop_
 _atom_site_type_symbol
 _atom_site_label
 _atom_site_symmetry_multiplicity
 _atom_site_fract_x
 _atom_site_fract_y
 _atom_site_fract_z
 _atom_site_occupancy
  Ni  Ni0  1  0.00000000  0.00000000  0.00000000  1
  Ni  Ni1  1  0.50000000  0.50000000  0.00000000  1
  Ni  Ni2  1  0.00000000  0.00000000  0.50000000  1
  Ni  Ni3  1  0.50000000  0.50000000  0.50000000  1
  Te  Te0  1  0.51482400  0.98553900  0.25000000  1
  Te  Te1  1  0.48517600  0.01446100  0.75000000  1
  Te  Te2  1  0.01482400  0.51446100  0.75000000  1
  Te  Te3  1  0.98517600  0.48553900  0.25000000  1
  O  O0  1  0.15731300  0.06087600  0.25000000  1
  O  O1  1  0.84268700  0.93912400  0.75000000  1
  O  O2  1  0.65731300  0.43912400  0.75000000  1
  O  O3  1  0.34268700  0.56087600  0.25000000  1
  O  O4  1  0.64500100  0.18292000  0.06422300  1
  O  O5  1  0.35499900  0.81708000  0.93577700  1
  O  O6  1  0.14500100  0.31708000  0.93577700  1
  O  O7  1  0.35499900  0.81708000  0.56422300  1
  O  O8  1  0.85499900  0.68292000  0.06422300  1
  O  O9  1  0.64500100  0.18292000  0.43577700  1
  O  O10  1  0.85499900  0.68292000  0.43577700  1
  O  O11  1  0.14500100  0.31708000  0.56422300  1
loop_
_geom_bond_atom_site_label_1
_geom_bond_atom_site_label_2
_geom_bond_distance
_geom_bond_site_symmetry_2
Ni0 O0 2.100731 1_555
Ni0 O1 2.100731 1_444
Ni0 O8 2.106888 1_445
Ni0 O6 2.106888 1_554
Ni0 O5 2.222011 1_544
Ni0 O4 2.222011 1_455
Ni1 O2 2.100731 1_554
Ni1 O3 2.100731 1_555
Ni1 O4 2.106888 1_555
Ni1 O5 2.106888 1_554
Ni1 O8 2.222011 1_555
Ni1 O6 2.222011 1_554
Ni2 O0 2.100731 1_555
Ni2 O1 2.100731 1_445
Ni2 O11 2.106888 1_555
Ni2 O10 2.106888 1_445
Ni2 O7 2.222011 1_545
Ni2 O9 2.222011 1_455
Ni3 O2 2.100731 1_555
Ni3 O3 2.100731 1_555
Ni3 O7 2.106888 1_555
Ni3 O9 2.106888 1_555
Ni3 O11 2.222011 1_555
Ni3 O10 2.222011 1_555
O0 Te0 1.936455 1_545
O1 Te1 1.936455 1_565
O2 Te2 1.936455 1_655
O3 Te3 1.936455 1_455
O4 Te0 1.963796 1_545
O5 Te1 1.963796 1_565
O6 Te2 1.963796 1_555
O7 Te1 1.963796 1_565
O8 Te3 1.963796 1_555
O9 Te0 1.963796 1_545
O10 Te3 1.963796 1_555
O11 Te2 1.963796 1_555
