# generated using pymatgen
data_Na2Al2Si3O10
_symmetry_space_group_name_H-M   'P 1'
_cell_length_a   8.80026587
_cell_length_b   8.80026587
_cell_length_c   11.72473151
_cell_angle_alpha   50.27070754
_cell_angle_beta   50.27070754
_cell_angle_gamma   43.33027530
_symmetry_Int_Tables_number   1
_chemical_formula_structural   Na2Al2Si3O10
_chemical_formula_sum   'Na4 Al4 Si6 O20'
_cell_volume   452.32957124
_cell_formula_units_Z   2
loop_
 _symmetry_equiv_pos_site_id
 _symmetry_equiv_pos_as_xyz
  1  'x, y, z'
loop_
 _atom_site_type_symbol
 _atom_site_label
 _atom_site_symmetry_multiplicity
 _atom_site_fract_x
 _atom_site_fract_y
 _atom_site_fract_z
 _atom_site_occupancy
  Na  Na0  1  0.38937100  0.09852900  0.63723400  1
  Na  Na1  1  0.90147100  0.61062900  0.36276600  1
  Na  Na2  1  0.76316000  0.96740500  0.85521500  1
  Na  Na3  1  0.03259500  0.23684000  0.14478500  1
  Al  Al0  1  0.74636800  0.51602500  0.78681500  1
  Al  Al1  1  0.48397500  0.25363200  0.21318500  1
  Al  Al2  1  0.28084300  0.53643300  0.71683300  1
  Al  Al3  1  0.46356700  0.71915700  0.28316700  1
  Si  Si0  1  0.99575900  0.00424100  0.00000000  1
  Si  Si1  1  0.75360300  0.24639700  0.50000000  1
  Si  Si2  1  0.99835000  0.74557800  0.53007100  1
  Si  Si3  1  0.25442200  0.00165000  0.46992900  1
  Si  Si4  1  0.46020700  0.71997000  0.04003600  1
  Si  Si5  1  0.28003000  0.53979300  0.95996400  1
  O  O0  1  0.98150000  0.24390600  0.85555900  1
  O  O1  1  0.75609400  0.01850000  0.14444100  1
  O  O2  1  0.52578300  0.28339500  0.65948800  1
  O  O3  1  0.71660500  0.47421700  0.34051200  1
  O  O4  1  0.85752800  0.64380800  0.57956000  1
  O  O5  1  0.35619200  0.14247200  0.42044000  1
  O  O6  1  0.52685100  0.81228000  0.07868500  1
  O  O7  1  0.18772000  0.47314900  0.92131500  1
  O  O8  1  0.57122800  0.74995900  0.85537400  1
  O  O9  1  0.25004100  0.42877200  0.14462600  1
  O  O10  1  0.24730100  0.65474600  0.39321500  1
  O  O11  1  0.34525400  0.75269900  0.60678500  1
  O  O12  1  0.55350700  0.44560000  0.14961000  1
  O  O13  1  0.55440000  0.44649300  0.85039000  1
  O  O14  1  0.03332300  0.66732500  0.68449200  1
  O  O15  1  0.33267500  0.96667700  0.31550800  1
  O  O16  1  0.16967400  0.89466600  0.08212700  1
  O  O17  1  0.10533400  0.83032600  0.91787300  1
  O  O18  1  0.82921000  0.03994300  0.46556900  1
  O  O19  1  0.96005700  0.17079000  0.53443100  1
loop_
_geom_bond_atom_site_label_1
_geom_bond_atom_site_label_2
_geom_bond_distance
_geom_bond_site_symmetry_2
Na0 O5 2.494744 1_555
Na0 O8 2.563905 1_545
Na0 O0 2.614062 1_455
Na0 O18 2.786301 1_555
Na0 O2 2.817834 1_555
Na1 O4 2.494744 1_555
Na1 O9 2.563905 1_655
Na1 O1 2.614062 1_565
Na1 O19 2.786301 1_555
Na1 O3 2.817834 1_555
Na2 O6 2.376093 1_556
Na2 O2 2.623436 1_565
Na2 O17 2.733628 1_655
Na2 O19 2.815580 1_565
Na2 O14 2.858778 1_655
Na3 O7 2.376093 1_554
Na3 O3 2.623436 1_455
Na3 O16 2.733628 1_545
Na3 O18 2.815580 1_455
Na3 O15 2.858778 1_545
Al0 O13 1.759291 1_555
Al0 O0 1.766834 1_555
Al0 O8 1.781959 1_555
Al0 O4 1.787441 1_555
Al1 O12 1.759291 1_555
Al1 O1 1.766834 1_555
Al1 O9 1.781959 1_555
Al1 O5 1.787441 1_555
Al2 O14 1.750028 1_555
Al2 O11 1.761728 1_555
Al2 O2 1.770657 1_555
Al2 O7 1.781934 1_555
Al3 O15 1.750028 1_555
Al3 O10 1.761728 1_555
Al3 O3 1.770657 1_555
Al3 O6 1.781934 1_555
O0 Si0 1.628745 1_556
O1 Si0 1.628745 1_555
O2 Si1 1.630471 1_555
O3 Si1 1.630471 1_555
O4 Si2 1.644919 1_555
O5 Si3 1.644919 1_555
O6 Si4 1.647014 1_555
O7 Si5 1.647014 1_555
O8 Si4 1.628654 1_556
O9 Si5 1.628654 1_554
O10 Si2 1.616015 1_455
O11 Si3 1.616015 1_565
O12 Si4 1.628964 1_555
O13 Si5 1.628964 1_555
O14 Si2 1.630082 1_455
O15 Si3 1.630082 1_565
O16 Si0 1.658119 1_465
O16 Si4 1.668100 1_555
O17 Si0 1.658119 1_466
O17 Si5 1.668100 1_555
O18 Si1 1.655949 1_555
O18 Si2 1.680223 1_545
O19 Si1 1.655949 1_555
O19 Si3 1.680223 1_655
