# generated using pymatgen
data_Na3P3N3O7
_symmetry_space_group_name_H-M   'P 1'
_cell_length_a   7.94045698
_cell_length_b   7.94045698
_cell_length_c   7.74239869
_cell_angle_alpha   78.83092302
_cell_angle_beta   78.83092302
_cell_angle_gamma   100.42786373
_symmetry_Int_Tables_number   1
_chemical_formula_structural   Na3P3N3O7
_chemical_formula_sum   'Na6 P6 N6 O14'
_cell_volume   457.57850767
_cell_formula_units_Z   2
loop_
 _symmetry_equiv_pos_site_id
 _symmetry_equiv_pos_as_xyz
  1  'x, y, z'
loop_
 _atom_site_type_symbol
 _atom_site_label
 _atom_site_symmetry_multiplicity
 _atom_site_fract_x
 _atom_site_fract_y
 _atom_site_fract_z
 _atom_site_occupancy
  Na  Na0  1  0.72404900  0.00668200  0.37718600  1
  Na  Na1  1  0.99331800  0.27595100  0.62281400  1
  Na  Na2  1  0.35779800  0.07101600  0.57807600  1
  Na  Na3  1  0.92898400  0.64220200  0.42192400  1
  Na  Na4  1  0.01715100  0.98284900  0.00000000  1
  Na  Na5  1  0.68403300  0.31596700  0.00000000  1
  P  P0  1  0.61512500  0.66927500  0.17469500  1
  P  P1  1  0.33072500  0.38487500  0.82530500  1
  P  P2  1  0.36748200  0.90268800  0.19389500  1
  P  P3  1  0.09731200  0.63251800  0.80610500  1
  P  P4  1  0.07114400  0.38394200  0.15139400  1
  P  P5  1  0.61605800  0.92885600  0.84860600  1
  N  N0  1  0.02389000  0.55878900  0.02967500  1
  N  N1  1  0.44121100  0.97611000  0.97032500  1
  N  N2  1  0.43131700  0.72040900  0.27216100  1
  N  N3  1  0.27959100  0.56868300  0.72784000  1
  N  N4  1  0.25431700  0.33493600  0.05049800  1
  N  N5  1  0.66506400  0.74568300  0.94950200  1
  O  O0  1  0.67720400  0.32279600  0.50000000  1
  O  O1  1  0.92349400  0.22694100  0.15685700  1
  O  O2  1  0.77305900  0.07650600  0.84314300  1
  O  O3  1  0.57524600  0.91266900  0.66885300  1
  O  O4  1  0.08733100  0.42475400  0.33114700  1
  O  O5  1  0.46636200  0.04112400  0.27341000  1
  O  O6  1  0.95887600  0.53363800  0.72659000  1
  O  O7  1  0.00481000  0.99519000  0.50000000  1
  O  O8  1  0.16715100  0.86976200  0.23669200  1
  O  O9  1  0.13023800  0.83284900  0.76330800  1
  O  O10  1  0.76271800  0.77760700  0.23690800  1
  O  O11  1  0.22239300  0.23728200  0.76309200  1
  O  O12  1  0.52854900  0.40520000  0.78360200  1
  O  O13  1  0.59480000  0.47145100  0.21639800  1
loop_
_geom_bond_atom_site_label_1
_geom_bond_atom_site_label_2
_geom_bond_distance
_geom_bond_site_symmetry_2
Na0 O3 2.246503 1_545
Na0 O1 2.296043 1_555
Na0 O10 2.328264 1_545
Na0 O5 2.379383 1_555
Na0 O7 2.596895 1_645
Na0 O0 2.910103 1_555
Na1 O4 2.246503 1_655
Na1 O2 2.296043 1_555
Na1 O11 2.328264 1_655
Na1 O6 2.379383 1_555
Na1 O7 2.596895 1_645
Na1 O0 2.910103 1_555
Na2 O11 2.366603 1_555
Na2 O9 2.367818 1_545
Na2 O5 2.422151 1_555
Na2 O3 2.443324 1_545
Na2 O0 2.810196 1_555
Na2 O7 2.961520 1_545
Na3 O10 2.366603 1_555
Na3 O8 2.367818 1_655
Na3 O6 2.422151 1_555
Na3 O4 2.443324 1_655
Na3 O0 2.810196 1_555
Na3 O7 2.961520 1_655
Na4 O9 2.485665 1_554
Na4 O8 2.485665 1_555
Na4 O11 2.513258 1_564
Na4 O10 2.513258 1_455
Na4 O2 2.620756 1_464
Na4 O1 2.620756 1_465
Na5 O12 2.343404 1_554
Na5 O13 2.343404 1_555
Na5 O2 2.576552 1_554
Na5 O1 2.576552 1_555
Na5 O6 2.767413 1_554
Na5 O5 2.767413 1_555
N0 P3 1.664866 1_554
N0 P4 1.665876 1_555
N1 P2 1.664866 1_556
N1 P5 1.665876 1_555
N2 P2 1.662472 1_555
N2 P0 1.664645 1_555
N3 P3 1.662470 1_555
N3 P1 1.664642 1_555
N4 P4 1.661215 1_555
N4 P1 1.673471 1_554
N5 P5 1.661215 1_555
N5 P0 1.673471 1_556
O1 P4 1.536803 1_655
O2 P5 1.536803 1_545
O3 P5 1.512405 1_555
O4 P4 1.512405 1_555
O5 P2 1.529974 1_545
O6 P3 1.529974 1_655
O8 P2 1.523229 1_555
O9 P3 1.523229 1_555
O10 P0 1.536140 1_555
O11 P1 1.536140 1_555
O12 P1 1.513045 1_555
O13 P0 1.513045 1_555
