# generated using pymatgen
data_Gd2Fe14C
_symmetry_space_group_name_H-M   'P 1'
_cell_length_a   8.63720900
_cell_length_b   8.63720900
_cell_length_c   11.60581200
_cell_angle_alpha   90.00000000
_cell_angle_beta   90.00000000
_cell_angle_gamma   90.00000000
_symmetry_Int_Tables_number   1
_chemical_formula_structural   Gd2Fe14C
_chemical_formula_sum   'Gd8 Fe56 C4'
_cell_volume   865.80958321
_cell_formula_units_Z   4
loop_
 _symmetry_equiv_pos_site_id
 _symmetry_equiv_pos_as_xyz
  1  'x, y, z'
loop_
 _atom_site_type_symbol
 _atom_site_label
 _atom_site_symmetry_multiplicity
 _atom_site_fract_x
 _atom_site_fract_y
 _atom_site_fract_z
 _atom_site_occupancy
  Gd  Gd0  1  0.23863700  0.76136300  0.50000000  1
  Gd  Gd1  1  0.76136300  0.23863700  0.50000000  1
  Gd  Gd2  1  0.26136300  0.26136300  0.00000000  1
  Gd  Gd3  1  0.73863700  0.73863700  0.00000000  1
  Gd  Gd4  1  0.64232300  0.64232300  0.50000000  1
  Gd  Gd5  1  0.35767700  0.35767700  0.50000000  1
  Gd  Gd6  1  0.85767700  0.14232300  0.00000000  1
  Gd  Gd7  1  0.14232300  0.85767700  0.00000000  1
  Fe  Fe0  1  0.00000000  0.50000000  0.50000000  1
  Fe  Fe1  1  0.50000000  0.00000000  0.00000000  1
  Fe  Fe2  1  0.50000000  0.00000000  0.50000000  1
  Fe  Fe3  1  0.00000000  0.50000000  0.00000000  1
  Fe  Fe4  1  0.50000000  0.50000000  0.10821300  1
  Fe  Fe5  1  0.00000000  0.00000000  0.60821300  1
  Fe  Fe6  1  0.50000000  0.50000000  0.89178700  1
  Fe  Fe7  1  0.00000000  0.00000000  0.39178700  1
  Fe  Fe8  1  0.18462800  0.81537200  0.25494400  1
  Fe  Fe9  1  0.81537200  0.18462800  0.25494400  1
  Fe  Fe10  1  0.31537200  0.31537200  0.75494400  1
  Fe  Fe11  1  0.68462800  0.68462800  0.75494400  1
  Fe  Fe12  1  0.81537200  0.18462800  0.74505600  1
  Fe  Fe13  1  0.18462800  0.81537200  0.74505600  1
  Fe  Fe14  1  0.68462800  0.68462800  0.24505600  1
  Fe  Fe15  1  0.31537200  0.31537200  0.24505600  1
  Fe  Fe16  1  0.40476900  0.59523100  0.29326100  1
  Fe  Fe17  1  0.59523100  0.40476900  0.29326100  1
  Fe  Fe18  1  0.09523100  0.09523100  0.79326100  1
  Fe  Fe19  1  0.90476900  0.90476900  0.79326100  1
  Fe  Fe20  1  0.59523100  0.40476900  0.70673900  1
  Fe  Fe21  1  0.40476900  0.59523100  0.70673900  1
  Fe  Fe22  1  0.90476900  0.90476900  0.20673900  1
  Fe  Fe23  1  0.09523100  0.09523100  0.20673900  1
  Fe  Fe24  1  0.14545100  0.53328100  0.31936000  1
  Fe  Fe25  1  0.85454900  0.46671900  0.31936000  1
  Fe  Fe26  1  0.35454900  0.03328100  0.81936000  1
  Fe  Fe27  1  0.64545100  0.96671900  0.81936000  1
  Fe  Fe28  1  0.85454900  0.46671900  0.68064000  1
  Fe  Fe29  1  0.14545100  0.53328100  0.68064000  1
  Fe  Fe30  1  0.64545100  0.96671900  0.18064000  1
  Fe  Fe31  1  0.35454900  0.03328100  0.18064000  1
  Fe  Fe32  1  0.53328100  0.14545100  0.31936000  1
  Fe  Fe33  1  0.46671900  0.85454900  0.31936000  1
  Fe  Fe34  1  0.03328100  0.35454900  0.81936000  1
  Fe  Fe35  1  0.96671900  0.64545100  0.81936000  1
  Fe  Fe36  1  0.46671900  0.85454900  0.68064000  1
  Fe  Fe37  1  0.53328100  0.14545100  0.68064000  1
  Fe  Fe38  1  0.96671900  0.64545100  0.18064000  1
  Fe  Fe39  1  0.03328100  0.35454900  0.18064000  1
  Fe  Fe40  1  0.93410300  0.72687000  0.37637200  1
  Fe  Fe41  1  0.06589700  0.27313000  0.37637200  1
  Fe  Fe42  1  0.56589700  0.22687000  0.87637200  1
  Fe  Fe43  1  0.43410300  0.77313000  0.87637200  1
  Fe  Fe44  1  0.06589700  0.27313000  0.62362800  1
  Fe  Fe45  1  0.93410300  0.72687000  0.62362800  1
  Fe  Fe46  1  0.43410300  0.77313000  0.12362800  1
  Fe  Fe47  1  0.56589700  0.22687000  0.12362800  1
  Fe  Fe48  1  0.72687000  0.93410300  0.37637200  1
  Fe  Fe49  1  0.27313000  0.06589700  0.37637200  1
  Fe  Fe50  1  0.22687000  0.56589700  0.87637200  1
  Fe  Fe51  1  0.77313000  0.43410300  0.87637200  1
  Fe  Fe52  1  0.27313000  0.06589700  0.62362800  1
  Fe  Fe53  1  0.72687000  0.93410300  0.62362800  1
  Fe  Fe54  1  0.77313000  0.43410300  0.12362800  1
  Fe  Fe55  1  0.22687000  0.56589700  0.12362800  1
  C  C0  1  0.87240600  0.87240600  0.50000000  1
  C  C1  1  0.12759400  0.12759400  0.50000000  1
  C  C2  1  0.62759400  0.37240600  0.00000000  1
  C  C3  1  0.37240600  0.62759400  0.00000000  1
loop_
_geom_bond_atom_site_label_1
_geom_bond_atom_site_label_2
_geom_bond_distance
_geom_bond_site_symmetry_2
Fe0 Fe24 2.460914 1_555
Fe0 Fe25 2.460914 1_455
Fe0 Fe29 2.460914 1_555
Fe0 Fe28 2.460914 1_455
Fe0 Fe44 2.494463 1_555
Fe0 Fe41 2.494463 1_555
Fe0 Fe45 2.494463 1_455
Fe0 Fe40 2.494463 1_455
Fe0 Gd0 3.056867 1_555
Fe0 Gd1 3.056867 1_455
Fe0 Gd5 3.324918 1_555
Fe0 Gd4 3.324918 1_455
Fe1 Fe26 2.460914 1_554
Fe1 Fe27 2.460914 1_544
Fe1 Fe31 2.460914 1_555
Fe1 Fe30 2.460914 1_545
Fe1 Fe47 2.494463 1_555
Fe1 Fe46 2.494463 1_545
Fe1 Fe42 2.494463 1_554
Fe1 Fe43 2.494463 1_544
Fe1 Gd3 3.056867 1_545
Fe1 Gd2 3.056867 1_555
Fe1 Gd6 3.324918 1_555
Fe1 Gd7 3.324918 1_545
Fe2 Fe33 2.460914 1_545
Fe2 Fe32 2.460914 1_555
Fe2 Fe37 2.460914 1_555
Fe2 Fe36 2.460914 1_545
Fe2 Fe52 2.494463 1_555
Fe2 Fe49 2.494463 1_555
Fe2 Fe53 2.494463 1_545
Fe2 Fe48 2.494463 1_545
Fe2 Gd0 3.056867 1_545
Fe2 Gd1 3.056867 1_555
Fe2 Gd5 3.324918 1_555
Fe2 Gd4 3.324918 1_545
Fe3 Fe34 2.460914 1_554
Fe3 Fe35 2.460914 1_454
Fe3 Fe39 2.460914 1_555
Fe3 Fe38 2.460914 1_455
Fe3 Fe55 2.494463 1_555
Fe3 Fe54 2.494463 1_455
Fe3 Fe50 2.494463 1_554
Fe3 Fe51 2.494463 1_454
Fe3 Gd3 3.056867 1_455
Fe3 Gd2 3.056867 1_555
Fe3 Gd7 3.324918 1_555
Fe3 Gd6 3.324918 1_455
Fe4 Gd2 3.173961 1_555
Fe4 Gd3 3.173961 1_555
Fe5 Gd0 3.173961 1_545
Fe5 Gd1 3.173961 1_455
Fe6 Gd3 3.173961 1_556
Fe6 Gd2 3.173961 1_556
Fe7 Fe9 2.758305 1_455
Fe7 Fe8 2.758305 1_545
Fe7 Gd0 3.173961 1_545
Fe7 Gd1 3.173961 1_455
Fe8 Gd0 2.919585 1_555
Fe8 Gd7 3.003617 1_555
Fe9 Gd1 2.919585 1_555
Fe9 Gd6 3.003617 1_555
Fe10 Fe29 2.537722 1_555
Fe10 Fe37 2.537722 1_555
Fe10 Fe26 2.570960 1_555
Fe10 Fe34 2.570960 1_555
Fe10 Fe20 2.598471 1_555
Fe10 Fe21 2.598471 1_555
Fe10 Fe52 2.664358 1_555
Fe10 Fe44 2.664358 1_555
Fe10 Fe42 2.693057 1_555
Fe10 Fe50 2.693057 1_555
Fe10 Fe18 2.725515 1_555
Fe10 Fe6 2.758305 1_555
Fe10 Gd2 2.919585 1_556
Fe10 Gd5 3.003617 1_555
Fe11 Fe36 2.537722 1_555
Fe11 Fe28 2.537722 1_555
Fe11 Fe35 2.570960 1_555
Fe11 Fe27 2.570960 1_555
Fe11 Fe20 2.598471 1_555
Fe11 Fe21 2.598471 1_555
Fe11 Fe45 2.664358 1_555
Fe11 Fe53 2.664358 1_555
Fe11 Fe51 2.693057 1_555
Fe11 Fe43 2.693057 1_555
Fe11 Fe19 2.725515 1_555
Fe11 Fe6 2.758305 1_555
Fe11 Gd3 2.919585 1_556
Fe11 Gd4 3.003617 1_555
Fe12 Fe34 2.537722 1_655
Fe12 Fe27 2.537722 1_545
Fe12 Fe37 2.570960 1_555
Fe12 Fe28 2.570960 1_555
Fe12 Fe18 2.598471 1_655
Fe12 Fe19 2.598471 1_545
Fe12 Fe51 2.664358 1_555
Fe12 Fe42 2.664358 1_555
Fe12 Fe44 2.693057 1_655
Fe12 Fe53 2.693057 1_545
Fe12 Fe20 2.725515 1_555
Fe12 Fe5 2.758305 1_655
Fe12 Gd1 2.919585 1_555
Fe12 Gd6 3.003617 1_556
Fe13 Fe26 2.537722 1_565
Fe13 Fe35 2.537722 1_455
Fe13 Fe29 2.570960 1_555
Fe13 Fe36 2.570960 1_555
Fe13 Fe18 2.598471 1_565
Fe13 Fe19 2.598471 1_455
Fe13 Fe43 2.664358 1_555
Fe13 Fe50 2.664358 1_555
Fe13 Fe52 2.693057 1_565
Fe13 Fe45 2.693057 1_455
Fe13 Fe21 2.725515 1_555
Fe13 Fe5 2.758305 1_565
Fe13 Gd0 2.919585 1_555
Fe13 Gd7 3.003617 1_556
Fe14 Fe25 2.537722 1_555
Fe14 Fe33 2.537722 1_555
Fe14 Fe30 2.570960 1_555
Fe14 Fe38 2.570960 1_555
Fe14 Fe17 2.598471 1_555
Fe14 Fe16 2.598471 1_555
Fe14 Fe48 2.664358 1_555
Fe14 Fe40 2.664358 1_555
Fe14 Fe54 2.693057 1_555
Fe14 Fe46 2.693057 1_555
Fe14 Fe22 2.725515 1_555
Fe14 Fe4 2.758305 1_555
Fe14 Gd3 2.919585 1_555
Fe14 Gd4 3.003617 1_555
Fe15 Fe32 2.537722 1_555
Fe15 Fe24 2.537722 1_555
Fe15 Fe39 2.570960 1_555
Fe15 Fe31 2.570960 1_555
Fe15 Fe17 2.598471 1_555
Fe15 Fe16 2.598471 1_555
Fe15 Fe49 2.664358 1_555
Fe15 Fe41 2.664358 1_555
Fe15 Fe55 2.693057 1_555
Fe15 Fe47 2.693057 1_555
Fe15 Fe23 2.725515 1_555
Fe15 Fe4 2.758305 1_555
Fe15 Gd2 2.919585 1_555
Fe15 Gd5 3.003617 1_555
Fe16 Fe24 2.322646 1_555
Fe16 Fe33 2.322646 1_555
Fe16 Fe17 2.326466 1_555
Fe16 Fe4 2.442424 1_555
Fe16 Fe55 2.510194 1_555
Fe16 Fe46 2.510194 1_555
Fe16 Fe8 2.725515 1_555
Fe16 Gd0 3.142446 1_555
Fe16 Gd4 3.183133 1_555
Fe16 Gd5 3.183133 1_555
Fe17 Fe32 2.322646 1_555
Fe17 Fe25 2.322646 1_555
Fe17 Fe4 2.442424 1_555
Fe17 Fe47 2.510194 1_555
Fe17 Fe54 2.510194 1_555
Fe17 Fe9 2.725515 1_555
Fe17 Gd1 3.142446 1_555
Fe17 Gd4 3.183133 1_555
Fe17 Gd5 3.183133 1_555
Fe18 Fe34 2.322646 1_555
Fe18 Fe26 2.322646 1_555
Fe18 Fe19 2.326466 1_445
Fe18 Fe5 2.442424 1_555
Fe18 Fe44 2.510194 1_555
Fe18 Fe52 2.510194 1_555
Fe18 Gd2 3.142446 1_556
Fe18 Gd7 3.183133 1_546
Fe18 Gd6 3.183133 1_456
Fe19 Fe35 2.322646 1_555
Fe19 Fe27 2.322646 1_555
Fe19 Fe5 2.442424 1_665
Fe19 Fe53 2.510194 1_555
Fe19 Fe45 2.510194 1_555
Fe19 Gd3 3.142446 1_556
Fe19 Gd7 3.183133 1_656
Fe19 Gd6 3.183133 1_566
Fe20 Fe37 2.322646 1_555
Fe20 Fe28 2.322646 1_555
Fe20 Fe21 2.326466 1_555
Fe20 Fe6 2.442424 1_555
Fe20 Fe51 2.510194 1_555
Fe20 Fe42 2.510194 1_555
Fe20 Gd1 3.142446 1_555
Fe20 Gd4 3.183133 1_555
Fe20 Gd5 3.183133 1_555
Fe21 Fe29 2.322646 1_555
Fe21 Fe36 2.322646 1_555
Fe21 Fe6 2.442424 1_555
Fe21 Fe50 2.510194 1_555
Fe21 Fe43 2.510194 1_555
Fe21 Gd0 3.142446 1_555
Fe21 Gd4 3.183133 1_555
Fe21 Gd5 3.183133 1_555
Fe22 Fe30 2.322646 1_555
Fe22 Fe38 2.322646 1_555
Fe22 Fe23 2.326466 1_665
Fe22 Fe7 2.442424 1_665
Fe22 Fe48 2.510194 1_555
Fe22 Fe40 2.510194 1_555
Fe22 Fe8 2.598471 1_655
Fe22 Fe9 2.598471 1_565
Fe22 Gd3 3.142446 1_555
Fe22 Gd6 3.183133 1_565
Fe22 Gd7 3.183133 1_655
Fe23 Fe39 2.322646 1_555
Fe23 Fe31 2.322646 1_555
Fe23 Fe7 2.442424 1_555
Fe23 Fe41 2.510194 1_555
Fe23 Fe49 2.510194 1_555
Fe23 Fe8 2.598471 1_545
Fe23 Fe9 2.598471 1_455
Fe23 Gd2 3.142446 1_555
Fe23 Gd7 3.183133 1_545
Fe23 Gd6 3.183133 1_455
Fe24 Fe55 2.394618 1_555
Fe24 Fe38 2.431822 1_455
Fe24 Fe39 2.431822 1_555
Fe24 Fe41 2.441078 1_555
Fe24 Fe40 2.562404 1_455
Fe24 Fe8 2.570960 1_555
Fe24 Fe25 2.577516 1_455
Fe24 Gd0 2.987287 1_555
Fe24 Gd5 3.171073 1_555
Fe25 Fe54 2.394618 1_555
Fe25 Fe39 2.431822 1_655
Fe25 Fe38 2.431822 1_555
Fe25 Fe40 2.441078 1_555
Fe25 Fe41 2.562404 1_655
Fe25 Fe9 2.570960 1_555
Fe25 Gd1 2.987287 1_555
Fe25 Gd4 3.171073 1_555
Fe26 Fe52 2.394618 1_555
Fe26 Fe36 2.431822 1_545
Fe26 Fe37 2.431822 1_555
Fe26 Fe43 2.441078 1_545
Fe26 Fe42 2.562404 1_555
Fe26 Fe27 2.577516 1_545
Fe26 Gd2 2.987287 1_556
Fe26 Gd7 3.171073 1_546
Fe27 Fe53 2.394618 1_555
Fe27 Fe36 2.431822 1_555
Fe27 Fe37 2.431822 1_565
Fe27 Fe42 2.441078 1_565
Fe27 Fe43 2.562404 1_555
Fe27 Gd3 2.987287 1_556
Fe27 Gd6 3.171073 1_566
Fe28 Fe51 2.394618 1_555
Fe28 Fe34 2.431822 1_655
Fe28 Fe35 2.431822 1_555
Fe28 Fe45 2.441078 1_555
Fe28 Fe44 2.562404 1_655
Fe28 Fe29 2.577516 1_655
Fe28 Gd1 2.987287 1_555
Fe28 Gd4 3.171073 1_555
Fe29 Fe50 2.394618 1_555
Fe29 Fe34 2.431822 1_555
Fe29 Fe35 2.431822 1_455
Fe29 Fe44 2.441078 1_555
Fe29 Fe45 2.562404 1_455
Fe29 Gd0 2.987287 1_555
Fe29 Gd5 3.171073 1_555
Fe30 Fe48 2.394618 1_555
Fe30 Fe33 2.431822 1_555
Fe30 Fe32 2.431822 1_565
Fe30 Fe47 2.441078 1_565
Fe30 Fe9 2.537722 1_565
Fe30 Fe46 2.562404 1_555
Fe30 Fe31 2.577516 1_565
Fe30 Gd3 2.987287 1_555
Fe30 Gd6 3.171073 1_565
Fe31 Fe49 2.394618 1_555
Fe31 Fe33 2.431822 1_545
Fe31 Fe32 2.431822 1_555
Fe31 Fe46 2.441078 1_545
Fe31 Fe8 2.537722 1_545
Fe31 Fe47 2.562404 1_555
Fe31 Gd2 2.987287 1_555
Fe31 Gd7 3.171073 1_545
Fe32 Fe47 2.394618 1_555
Fe32 Fe49 2.441078 1_555
Fe32 Fe48 2.562404 1_545
Fe32 Fe9 2.570960 1_555
Fe32 Fe33 2.577516 1_545
Fe32 Gd1 2.987287 1_555
Fe32 Gd5 3.171073 1_555
Fe33 Fe46 2.394618 1_555
Fe33 Fe48 2.441078 1_555
Fe33 Fe49 2.562404 1_565
Fe33 Fe8 2.570960 1_555
Fe33 Gd0 2.987287 1_555
Fe33 Gd4 3.171073 1_555
Fe34 Fe44 2.394618 1_555
Fe34 Fe51 2.441078 1_455
Fe34 Fe50 2.562404 1_555
Fe34 Fe35 2.577516 1_455
Fe34 Gd2 2.987287 1_556
Fe34 Gd6 3.171073 1_456
Fe35 Fe45 2.394618 1_555
Fe35 Fe50 2.441078 1_655
Fe35 Fe51 2.562404 1_555
Fe35 Gd3 2.987287 1_556
Fe35 Gd7 3.171073 1_656
Fe36 Fe43 2.394618 1_555
Fe36 Fe53 2.441078 1_555
Fe36 Fe52 2.562404 1_565
Fe36 Fe37 2.577516 1_565
Fe36 Gd0 2.987287 1_555
Fe36 Gd4 3.171073 1_555
Fe37 Fe42 2.394618 1_555
Fe37 Fe52 2.441078 1_555
Fe37 Fe53 2.562404 1_545
Fe37 Gd1 2.987287 1_555
Fe37 Gd5 3.171073 1_555
Fe38 Fe40 2.394618 1_555
Fe38 Fe55 2.441078 1_655
Fe38 Fe8 2.537722 1_655
Fe38 Fe54 2.562404 1_555
Fe38 Fe39 2.577516 1_655
Fe38 Gd3 2.987287 1_555
Fe38 Gd7 3.171073 1_655
Fe39 Fe41 2.394618 1_555
Fe39 Fe54 2.441078 1_455
Fe39 Fe9 2.537722 1_455
Fe39 Fe55 2.562404 1_555
Fe39 Gd2 2.987287 1_555
Fe39 Gd6 3.171073 1_455
Fe40 Fe8 2.693057 1_655
Fe40 Gd4 2.990511 1_555
Fe40 Gd0 3.010984 1_655
Fe41 Fe9 2.693057 1_455
Fe41 Gd5 2.990511 1_555
Fe41 Gd1 3.010984 1_455
Fe42 Gd6 2.990511 1_556
Fe42 Gd2 3.010984 1_556
Fe43 Gd7 2.990511 1_556
Fe43 Gd3 3.010984 1_556
Fe44 Gd5 2.990511 1_555
Fe44 Gd1 3.010984 1_455
Fe45 Gd4 2.990511 1_555
Fe45 Gd0 3.010984 1_655
Fe46 Fe8 2.664358 1_555
Fe46 Gd7 2.990511 1_555
Fe46 Gd3 3.010984 1_555
Fe47 Fe9 2.664358 1_555
Fe47 Gd6 2.990511 1_555
Fe47 Gd2 3.010984 1_555
Fe48 Fe9 2.693057 1_565
Fe48 Gd4 2.990511 1_555
Fe48 Gd1 3.010984 1_565
Fe49 Fe8 2.693057 1_545
Fe49 Gd5 2.990511 1_555
Fe49 Gd0 3.010984 1_545
Fe50 Gd7 2.990511 1_556
Fe50 Gd2 3.010984 1_556
Fe51 Gd6 2.990511 1_556
Fe51 Gd3 3.010984 1_556
Fe52 Gd5 2.990511 1_555
Fe52 Gd0 3.010984 1_545
Fe53 Gd4 2.990511 1_555
Fe53 Gd1 3.010984 1_565
Fe54 Fe9 2.664358 1_555
Fe54 Gd6 2.990511 1_555
Fe54 Gd3 3.010984 1_555
Fe55 Fe8 2.664358 1_555
Fe55 Gd7 2.990511 1_555
Fe55 Gd2 3.010984 1_555
C0 Fe45 1.980592 1_555
C0 Fe53 1.980592 1_555
C0 Fe48 1.980592 1_555
C0 Fe40 1.980592 1_555
C0 Fe7 2.001584 1_665
C0 Fe5 2.001584 1_665
C0 Gd4 2.810431 1_555
C1 Fe52 1.980592 1_555
C1 Fe44 1.980592 1_555
C1 Fe41 1.980592 1_555
C1 Fe49 1.980592 1_555
C1 Fe7 2.001584 1_555
C1 Fe5 2.001584 1_555
C1 Gd5 2.810431 1_555
C2 Fe47 1.980592 1_555
C2 Fe54 1.980592 1_555
C2 Fe42 1.980592 1_554
C2 Fe51 1.980592 1_554
C2 Fe4 2.001584 1_555
C2 Fe6 2.001584 1_554
C2 Gd6 2.810431 1_555
C3 Fe55 1.980592 1_555
C3 Fe46 1.980592 1_555
C3 Fe50 1.980592 1_554
C3 Fe43 1.980592 1_554
C3 Fe4 2.001584 1_555
C3 Fe6 2.001584 1_554
C3 Gd7 2.810431 1_555
