# generated using pymatgen
data_Ba2Mn3(SbO)2
_symmetry_space_group_name_H-M   'P 1'
_cell_length_a   6.27214235
_cell_length_b   11.10398482
_cell_length_c   6.27050737
_cell_angle_alpha   89.99992753
_cell_angle_beta   89.99998486
_cell_angle_gamma   73.60327064
_symmetry_Int_Tables_number   1
_chemical_formula_structural   Ba2Mn3(SbO)2
_chemical_formula_sum   'Ba4 Mn6 Sb4 O4'
_cell_volume   418.95320291
_cell_formula_units_Z   2
loop_
 _symmetry_equiv_pos_site_id
 _symmetry_equiv_pos_as_xyz
  1  'x, y, z'
loop_
 _atom_site_type_symbol
 _atom_site_label
 _atom_site_symmetry_multiplicity
 _atom_site_fract_x
 _atom_site_fract_y
 _atom_site_fract_z
 _atom_site_occupancy
  Ba  Ba0  1  0.41825200  0.16351000  0.00000400  1
  Ba  Ba1  1  0.91825200  0.16351000  0.49999700  1
  Ba  Ba2  1  0.08174800  0.83649000  0.49999700  1
  Ba  Ba3  1  0.58174800  0.83649000  0.00000400  1
  Mn  Mn0  1  0.50000100  0.99999900  0.49999700  1
  Mn  Mn1  1  0.00000000  0.50000100  0.24998400  1
  Mn  Mn2  1  0.50000000  0.50000100  0.75003700  1
  Mn  Mn3  1  0.00000000  0.00000000  0.00000100  1
  Mn  Mn4  1  0.49999900  0.50000000  0.25001400  1
  Mn  Mn5  1  0.00000200  0.50000000  0.74996500  1
  Sb  Sb0  1  0.33228800  0.33548400  0.50000100  1
  Sb  Sb1  1  0.83228700  0.33548600  0.99999900  1
  Sb  Sb2  1  0.16771400  0.66451200  0.99999900  1
  Sb  Sb3  1  0.66771200  0.66451500  0.50000200  1
  O  O0  1  0.25000300  0.00000100  0.25000400  1
  O  O1  1  0.74999600  0.00000000  0.74999600  1
  O  O2  1  0.74999600  0.00000100  0.25000400  1
  O  O3  1  0.25000300  0.00000100  0.74999700  1
loop_
_geom_bond_atom_site_label_1
_geom_bond_atom_site_label_2
_geom_bond_distance
_geom_bond_site_symmetry_2
Ba0 O0 2.819429 1_555
Ba0 O3 2.819456 1_554
Ba0 O2 2.819665 1_555
Ba0 O1 2.819700 1_554
Ba0 Sb0 3.631211 1_555
Ba0 Sb0 3.631239 1_554
Ba0 Sb1 3.631834 1_554
Ba0 Sb1 3.632049 1_454
Ba1 O2 2.819432 1_555
Ba1 O1 2.819458 1_555
Ba1 O0 2.819667 1_655
Ba1 O3 2.819690 1_655
Ba1 Sb1 3.631223 1_554
Ba1 Sb1 3.631249 1_555
Ba1 Sb0 3.631823 1_655
Ba1 Sb0 3.632039 1_555
Ba2 O0 2.819442 1_565
Ba2 O3 2.819469 1_565
Ba2 O2 2.819678 1_465
Ba2 O1 2.819696 1_465
Ba2 Sb2 3.631238 1_554
Ba2 Sb2 3.631256 1_555
Ba2 Sb3 3.631831 1_455
Ba2 Sb3 3.632041 1_555
Ba3 O2 2.819445 1_565
Ba3 O1 2.819462 1_564
Ba3 O0 2.819680 1_565
Ba3 O3 2.819703 1_564
Ba3 Sb3 3.631218 1_555
Ba3 Sb3 3.631243 1_554
Ba3 Sb2 3.631845 1_554
Ba3 Sb2 3.632060 1_654
Mn0 O2 2.217199 1_565
Mn0 O0 2.217204 1_565
Mn0 O1 2.217224 1_565
Mn0 O3 2.217235 1_565
Mn0 Sb3 3.573705 1_555
Mn0 Sb0 3.573716 1_565
Mn1 Sb2 2.825864 1_554
Mn1 Sb1 2.825897 1_454
Mn1 Sb3 2.826501 1_455
Mn1 Sb0 2.826510 1_555
Mn2 Sb3 2.826056 1_555
Mn2 Sb0 2.826087 1_555
Mn2 Sb2 2.826284 1_555
Mn2 Sb1 2.826305 1_555
Mn3 O2 2.217277 1_455
Mn3 O0 2.217277 1_555
Mn3 O3 2.217281 1_554
Mn3 O1 2.217288 1_454
Mn3 Sb1 3.573727 1_454
Mn3 Sb2 3.573748 1_544
Mn4 Sb0 2.825902 1_555
Mn4 Sb3 2.825907 1_555
Mn4 Sb2 2.826468 1_554
Mn4 Sb1 2.826490 1_554
Mn5 Sb2 2.826039 1_555
Mn5 Sb1 2.826063 1_455
Mn5 Sb0 2.826316 1_555
Mn5 Sb3 2.826319 1_455
