# generated using pymatgen
data_LiTi2O4
_symmetry_space_group_name_H-M   'P 1'
_cell_length_a   3.78924710
_cell_length_b   8.11398663
_cell_length_c   9.04870677
_cell_angle_alpha   89.99863841
_cell_angle_beta   90.00006670
_cell_angle_gamma   90.00011012
_symmetry_Int_Tables_number   1
_chemical_formula_structural   LiTi2O4
_chemical_formula_sum   'Li4 Ti8 O16'
_cell_volume   278.21063623
_cell_formula_units_Z   4
loop_
 _symmetry_equiv_pos_site_id
 _symmetry_equiv_pos_as_xyz
  1  'x, y, z'
loop_
 _atom_site_type_symbol
 _atom_site_label
 _atom_site_symmetry_multiplicity
 _atom_site_fract_x
 _atom_site_fract_y
 _atom_site_fract_z
 _atom_site_occupancy
  Li  Li0  1  0.99994849  0.00067836  0.95961389  1
  Li  Li1  1  0.49999812  0.74924262  0.45968237  1
  Li  Li2  1  0.50000285  0.50068638  0.79038807  1
  Li  Li3  1  0.99997832  0.24932274  0.29014054  1
  Ti  Ti0  1  0.00001015  0.00890181  0.51815224  1
  Ti  Ti1  1  0.49999712  0.74109490  0.01820362  1
  Ti  Ti2  1  0.49999815  0.50894646  0.23181832  1
  Ti  Ti3  1  0.00001187  0.24112303  0.73184196  1
  Ti  Ti4  1  0.00001022  0.48885251  0.50982379  1
  Ti  Ti5  1  0.49999344  0.26115371  0.00992890  1
  Ti  Ti6  1  0.49999343  0.98886063  0.24008300  1
  Ti  Ti7  1  0.00001069  0.76111530  0.74019859  1
  O  O0  1  0.00000266  0.99806436  0.73992215  1
  O  O1  1  0.00000632  0.50167100  0.72229073  1
  O  O2  1  0.50000263  0.75193920  0.23990795  1
  O  O3  1  0.49999500  0.24830484  0.22232699  1
  O  O4  1  0.50000373  0.98955125  0.47383776  1
  O  O5  1  0.50000522  0.51069544  0.47032287  1
  O  O6  1  -0.00000075  0.76044560  0.97399446  1
  O  O7  1  -0.00000276  0.23932718  0.97049083  1
  O  O8  1  0.00000803  0.74829460  0.52774817  1
  O  O9  1  0.00000376  0.25191268  0.51006593  1
  O  O10  1  0.49999381  0.00167044  0.02769386  1
  O  O11  1  0.50000396  0.49809674  0.01011529  1
  O  O12  1  0.50000516  0.73930948  0.77973033  1
  O  O13  1  0.50000438  0.26043940  0.77618235  1
  O  O14  1  -0.00000216  0.01068468  0.27953749  1
  O  O15  1  0.00000019  0.48961367  0.27603752  1
loop_
_geom_bond_atom_site_label_1
_geom_bond_atom_site_label_2
_geom_bond_distance
_geom_bond_site_symmetry_2
Li0 O7 1.938895 1_655
Li0 O6 1.953581 1_645
Li0 O0 1.988040 1_645
Li0 O10 1.992113 1_556
Li0 O10 1.992439 1_656
Li1 O5 1.937960 1_555
Li1 O4 1.954067 1_555
Li1 O2 1.988794 1_555
Li1 O8 1.992200 1_555
Li1 O8 1.992270 1_655
Li2 O12 1.938583 1_555
Li2 O13 1.953597 1_555
Li2 O11 1.988358 1_556
Li2 O1 1.992311 1_555
Li2 O1 1.992337 1_655
Li3 O14 1.938684 1_655
Li3 O15 1.953886 1_655
Li3 O9 1.990152 1_655
Li3 O3 1.991472 1_555
Li3 O3 1.991594 1_655
O0 Ti7 1.922603 1_555
O0 Ti3 1.973528 1_565
O0 Ti0 2.008655 1_565
O1 Ti4 1.925365 1_555
O1 Ti7 2.111359 1_555
O1 Ti3 2.115847 1_555
O2 Ti6 1.922378 1_555
O2 Ti2 1.973000 1_555
O2 Ti1 2.008068 1_555
O3 Ti5 1.924751 1_555
O3 Ti6 2.111245 1_545
O3 Ti2 2.116588 1_555
O4 Ti0 1.942925 1_565
O4 Ti0 1.942971 1_665
O4 Ti6 2.115186 1_555
O5 Ti4 1.936154 1_555
O5 Ti4 1.936191 1_655
O5 Ti2 2.158205 1_555
O6 Ti1 1.942742 1_556
O6 Ti1 1.942758 1_456
O6 Ti7 2.115557 1_555
O7 Ti5 1.936042 1_556
O7 Ti5 1.936072 1_456
O7 Ti3 2.159512 1_555
O8 Ti7 1.925217 1_555
O8 Ti4 2.111352 1_555
O8 Ti0 2.116343 1_565
O9 Ti4 1.922528 1_555
O9 Ti0 1.973142 1_555
O9 Ti3 2.008693 1_555
O10 Ti6 1.924653 1_545
O10 Ti5 2.111568 1_555
O10 Ti1 2.116052 1_545
O11 Ti5 1.922553 1_555
O11 Ti1 1.973043 1_555
O11 Ti2 2.008058 1_555
O12 Ti7 1.936176 1_555
O12 Ti7 1.936217 1_655
O12 Ti1 2.157924 1_556
O13 Ti3 1.942945 1_555
O13 Ti3 1.943002 1_655
O13 Ti5 2.115112 1_556
O14 Ti6 1.936067 1_545
O14 Ti6 1.936098 1_445
O14 Ti0 2.159203 1_555
O15 Ti2 1.942749 1_555
O15 Ti2 1.942764 1_455
O15 Ti4 2.115472 1_555
