# generated using pymatgen
data_Sr2NdMn2O7
_symmetry_space_group_name_H-M   'P 1'
_cell_length_a   10.42498209
_cell_length_b   10.42498209
_cell_length_c   10.42498209
_cell_angle_alpha   158.35422854
_cell_angle_beta   158.35422854
_cell_angle_gamma   30.79951664
_symmetry_Int_Tables_number   1
_chemical_formula_structural   Sr2NdMn2O7
_chemical_formula_sum   'Sr2 Nd1 Mn2 O7'
_cell_volume   154.05499533
_cell_formula_units_Z   1
loop_
 _symmetry_equiv_pos_site_id
 _symmetry_equiv_pos_as_xyz
  1  'x, y, z'
loop_
 _atom_site_type_symbol
 _atom_site_label
 _atom_site_symmetry_multiplicity
 _atom_site_fract_x
 _atom_site_fract_y
 _atom_site_fract_z
 _atom_site_occupancy
  Sr  Sr0  1  0.31712800  0.31712800  0.00000000  1
  Sr  Sr1  1  0.68287200  0.68287200  0.00000000  1
  Nd  Nd0  1  0.50000000  0.50000000  0.00000000  1
  Mn  Mn0  1  0.90260500  0.90260500  0.00000000  1
  Mn  Mn1  1  0.09739500  0.09739500  0.00000000  1
  O  O0  1  0.80629100  0.80629100  0.00000000  1
  O  O1  1  0.19370900  0.19370900  0.00000000  1
  O  O2  1  0.90988500  0.40988500  0.50000000  1
  O  O3  1  0.40988500  0.90988500  0.50000000  1
  O  O4  1  0.09011500  0.59011500  0.50000000  1
  O  O5  1  0.59011500  0.09011500  0.50000000  1
  O  O6  1  0.00000000  0.00000000  0.00000000  1
loop_
_geom_bond_atom_site_label_1
_geom_bond_atom_site_label_2
_geom_bond_distance
_geom_bond_site_symmetry_2
Nd0 O5 2.667068 1_565
Nd0 O4 2.667068 1_554
Nd0 O5 2.667068 1_554
Nd0 O4 2.667068 1_655
Nd0 O3 2.667068 1_555
Nd0 O2 2.667068 1_555
Nd0 O3 2.667068 1_544
Nd0 O2 2.667068 1_454
Nd0 O6 2.768375 1_554
Nd0 O6 2.768375 1_565
Nd0 O6 2.768375 1_655
Nd0 O6 2.768375 1_666
Mn0 O0 1.936044 1_555
Mn0 O6 1.957774 1_665
Mn0 O2 1.962999 1_554
Mn0 O3 1.962999 1_554
Mn0 O3 1.962999 1_655
Mn0 O2 1.962999 1_565
Mn1 O1 1.936044 1_555
Mn1 O6 1.957774 1_555
Mn1 O5 1.962999 1_454
Mn1 O5 1.962999 1_555
Mn1 O4 1.962999 1_544
Mn1 O4 1.962999 1_555
O0 Sr1 2.480892 1_555
O0 Sr0 2.776933 1_666
O0 Sr0 2.776933 1_655
O0 Sr0 2.776933 1_554
O0 Sr0 2.776933 1_565
O1 Sr0 2.480892 1_555
O1 Sr1 2.776933 1_444
O1 Sr1 2.776933 1_545
O1 Sr1 2.776933 1_455
O1 Sr1 2.776933 1_556
O2 Sr0 2.703419 1_555
O2 Sr0 2.703419 1_656
O3 Sr0 2.703419 1_555
O3 Sr0 2.703419 1_566
O4 Sr1 2.703419 1_455
O4 Sr1 2.703419 1_556
O5 Sr1 2.703419 1_545
O5 Sr1 2.703419 1_556
