# generated using pymatgen
data_Mg14TiMnO16
_symmetry_space_group_name_H-M   'P 1'
_cell_length_a   8.60874600
_cell_length_b   8.60874600
_cell_length_c   4.27420900
_cell_angle_alpha   90.00000000
_cell_angle_beta   90.00000000
_cell_angle_gamma   90.00000000
_symmetry_Int_Tables_number   1
_chemical_formula_structural   Mg14TiMnO16
_chemical_formula_sum   'Mg14 Ti1 Mn1 O16'
_cell_volume   316.76379897
_cell_formula_units_Z   1
loop_
 _symmetry_equiv_pos_site_id
 _symmetry_equiv_pos_as_xyz
  1  'x, y, z'
loop_
 _atom_site_type_symbol
 _atom_site_label
 _atom_site_symmetry_multiplicity
 _atom_site_fract_x
 _atom_site_fract_y
 _atom_site_fract_z
 _atom_site_occupancy
  Mg  Mg0  1  0.50000000  0.00000000  0.00000000  1
  Mg  Mg1  1  0.00000000  0.50000000  0.00000000  1
  Mg  Mg2  1  0.25177200  0.00000000  0.50000000  1
  Mg  Mg3  1  0.74822800  0.00000000  0.50000000  1
  Mg  Mg4  1  0.24688700  0.50000000  0.50000000  1
  Mg  Mg5  1  0.75311300  0.50000000  0.50000000  1
  Mg  Mg6  1  0.00000000  0.25177200  0.50000000  1
  Mg  Mg7  1  0.50000000  0.24688700  0.50000000  1
  Mg  Mg8  1  0.00000000  0.74822800  0.50000000  1
  Mg  Mg9  1  0.50000000  0.75311300  0.50000000  1
  Mg  Mg10  1  0.25039400  0.25039400  0.00000000  1
  Mg  Mg11  1  0.74960600  0.25039400  0.00000000  1
  Mg  Mg12  1  0.25039400  0.74960600  0.00000000  1
  Mg  Mg13  1  0.74960600  0.74960600  0.00000000  1
  Ti  Ti0  1  0.50000000  0.50000000  0.00000000  1
  Mn  Mn0  1  0.00000000  0.00000000  0.00000000  1
  O  O0  1  0.00000000  0.25671100  0.00000000  1
  O  O1  1  0.50000000  0.24427600  0.00000000  1
  O  O2  1  0.00000000  0.74328900  0.00000000  1
  O  O3  1  0.50000000  0.75572400  0.00000000  1
  O  O4  1  0.25011500  0.25011500  0.50000000  1
  O  O5  1  0.74988500  0.25011500  0.50000000  1
  O  O6  1  0.25011500  0.74988500  0.50000000  1
  O  O7  1  0.74988500  0.74988500  0.50000000  1
  O  O8  1  0.00000000  0.00000000  0.50000000  1
  O  O9  1  0.50000000  0.00000000  0.50000000  1
  O  O10  1  0.00000000  0.50000000  0.50000000  1
  O  O11  1  0.50000000  0.50000000  0.50000000  1
  O  O12  1  0.25671100  0.00000000  0.00000000  1
  O  O13  1  0.74328900  0.00000000  0.00000000  1
  O  O14  1  0.24427600  0.50000000  0.00000000  1
  O  O15  1  0.75572400  0.50000000  0.00000000  1
loop_
_geom_bond_atom_site_label_1
_geom_bond_atom_site_label_2
_geom_bond_distance
_geom_bond_site_symmetry_2
Mg0 O13 2.094413 1_555
Mg0 O12 2.094413 1_555
Mg0 O1 2.102910 1_555
Mg0 O3 2.102910 1_545
Mg0 O9 2.137104 1_554
Mg0 O9 2.137104 1_555
Mg1 O2 2.094413 1_555
Mg1 O0 2.094413 1_555
Mg1 O14 2.102910 1_555
Mg1 O15 2.102910 1_455
Mg1 O10 2.137104 1_554
Mg1 O10 2.137104 1_555
Mg2 O9 2.136932 1_555
Mg2 O12 2.137527 1_555
Mg2 O12 2.137527 1_556
Mg2 O4 2.153224 1_555
Mg2 O6 2.153224 1_545
Mg2 O8 2.167441 1_555
Mg3 O9 2.136932 1_555
Mg3 O13 2.137527 1_555
Mg3 O13 2.137527 1_556
Mg3 O5 2.153224 1_555
Mg3 O7 2.153224 1_545
Mg3 O8 2.167441 1_655
Mg4 O10 2.125387 1_555
Mg4 O14 2.137223 1_555
Mg4 O14 2.137223 1_556
Mg4 O6 2.151376 1_555
Mg4 O4 2.151376 1_555
Mg4 O11 2.178986 1_555
Mg5 O10 2.125387 1_655
Mg5 O15 2.137223 1_556
Mg5 O15 2.137223 1_555
Mg5 O7 2.151376 1_555
Mg5 O5 2.151376 1_555
Mg5 O11 2.178986 1_555
Mg6 O10 2.136932 1_555
Mg6 O0 2.137527 1_555
Mg6 O0 2.137527 1_556
Mg6 O4 2.153224 1_555
Mg6 O5 2.153224 1_455
Mg6 O8 2.167441 1_555
Mg7 O9 2.125387 1_555
Mg7 O1 2.137223 1_556
Mg7 O1 2.137223 1_555
Mg7 O5 2.151376 1_555
Mg7 O4 2.151376 1_555
Mg7 O11 2.178986 1_555
Mg8 O10 2.136932 1_555
Mg8 O2 2.137527 1_555
Mg8 O2 2.137527 1_556
Mg8 O6 2.153224 1_555
Mg8 O7 2.153224 1_455
Mg8 O8 2.167441 1_565
Mg9 O9 2.125387 1_565
Mg9 O3 2.137223 1_556
Mg9 O3 2.137223 1_555
Mg9 O7 2.151376 1_555
Mg9 O6 2.151376 1_555
Mg9 O11 2.178986 1_555
Mg10 O4 2.137107 1_554
Mg10 O4 2.137107 1_555
Mg10 O1 2.149440 1_555
Mg10 O14 2.149440 1_555
Mg10 O0 2.156264 1_555
Mg10 O12 2.156264 1_555
Mg11 O5 2.137107 1_554
Mg11 O5 2.137107 1_555
Mg11 O1 2.149440 1_555
Mg11 O15 2.149440 1_555
Mg11 O13 2.156264 1_555
Mg11 O0 2.156264 1_655
Mg12 O6 2.137107 1_555
Mg12 O6 2.137107 1_554
Mg12 O3 2.149440 1_555
Mg12 O14 2.149440 1_555
Mg12 O12 2.156264 1_565
Mg12 O2 2.156264 1_555
Mg13 O7 2.137107 1_555
Mg13 O7 2.137107 1_554
Mg13 O3 2.149440 1_555
Mg13 O15 2.149440 1_555
Mg13 O13 2.156264 1_565
Mg13 O2 2.156264 1_655
Mn0 O8 2.137104 1_555
Mn0 O8 2.137104 1_554
Mn0 O12 2.209960 1_555
Mn0 O0 2.209960 1_555
Mn0 O13 2.209960 1_455
Mn0 O2 2.209960 1_545
O1 Ti0 2.201463 1_555
O3 Ti0 2.201463 1_555
O11 Ti0 2.137104 1_555
O11 Ti0 2.137104 1_556
O14 Ti0 2.201463 1_555
O15 Ti0 2.201463 1_555
