# generated using pymatgen
data_BiBPbO4
_symmetry_space_group_name_H-M   'P 1'
_cell_length_a   7.71329799
_cell_length_b   7.71329799
_cell_length_c   7.57766300
_cell_angle_alpha   90.00000000
_cell_angle_beta   90.00000000
_cell_angle_gamma   92.82030895
_symmetry_Int_Tables_number   1
_chemical_formula_structural   BiBPbO4
_chemical_formula_sum   'Bi4 B4 Pb4 O16'
_cell_volume   450.28673476
_cell_formula_units_Z   4
loop_
 _symmetry_equiv_pos_site_id
 _symmetry_equiv_pos_as_xyz
  1  'x, y, z'
loop_
 _atom_site_type_symbol
 _atom_site_label
 _atom_site_symmetry_multiplicity
 _atom_site_fract_x
 _atom_site_fract_y
 _atom_site_fract_z
 _atom_site_occupancy
  Bi  Bi0  1  0.65831200  0.34168800  0.50000000  1
  Bi  Bi1  1  0.15831200  0.84168800  0.00000000  1
  Bi  Bi2  1  0.34168800  0.65831200  0.50000000  1
  Bi  Bi3  1  0.84168800  0.15831200  0.00000000  1
  B  B0  1  0.51201000  0.01201000  0.25000000  1
  B  B1  1  0.98799000  0.48799000  0.75000000  1
  B  B2  1  0.48799000  0.98799000  0.75000000  1
  B  B3  1  0.01201000  0.51201000  0.25000000  1
  Pb  Pb0  1  0.18321500  0.18321500  0.39119700  1
  Pb  Pb1  1  0.81678500  0.81678500  0.60880300  1
  Pb  Pb2  1  0.31678500  0.31678500  0.89119700  1
  Pb  Pb3  1  0.68321500  0.68321500  0.10880300  1
  O  O0  1  0.47458500  0.18237300  0.29438400  1
  O  O1  1  0.81762700  0.52541500  0.70561600  1
  O  O2  1  0.31762700  0.02541500  0.79438400  1
  O  O3  1  0.97458500  0.68237300  0.20561600  1
  O  O4  1  0.52541500  0.81762700  0.70561600  1
  O  O5  1  0.18237300  0.47458500  0.29438400  1
  O  O6  1  0.68237300  0.97458500  0.20561600  1
  O  O7  1  0.02541500  0.31762700  0.79438400  1
  O  O8  1  0.39853300  0.39853300  0.60567800  1
  O  O9  1  0.60146700  0.60146700  0.39432200  1
  O  O10  1  0.10146700  0.10146700  0.10567800  1
  O  O11  1  0.89853300  0.89853300  0.89432200  1
  O  O12  1  0.38255900  0.88255900  0.25000000  1
  O  O13  1  0.11744100  0.61744100  0.75000000  1
  O  O14  1  0.61744100  0.11744100  0.75000000  1
  O  O15  1  0.88255900  0.38255900  0.25000000  1
loop_
_geom_bond_atom_site_label_1
_geom_bond_atom_site_label_2
_geom_bond_distance
_geom_bond_site_symmetry_2
Bi0 O9 2.221486 1_555
Bi0 O8 2.221486 1_555
Bi0 O1 2.403043 1_555
Bi0 O0 2.403043 1_555
Bi0 O15 2.574168 1_555
Bi0 O14 2.574168 1_555
Bi1 O10 2.221486 1_565
Bi1 O11 2.221486 1_454
Bi1 O3 2.403043 1_455
Bi1 O2 2.403043 1_564
Bi1 O13 2.574168 1_554
Bi1 O12 2.574168 1_555
Bi2 O9 2.221486 1_555
Bi2 O8 2.221486 1_555
Bi2 O4 2.403043 1_555
Bi2 O5 2.403043 1_555
Bi2 O12 2.574168 1_555
Bi2 O13 2.574168 1_555
Bi3 O10 2.221486 1_655
Bi3 O11 2.221486 1_544
Bi3 O6 2.403043 1_545
Bi3 O7 2.403043 1_654
Bi3 O14 2.574168 1_554
Bi3 O15 2.574168 1_555
B0 O12 1.376906 1_545
B0 O0 1.400189 1_555
B0 O6 1.400189 1_545
B1 O13 1.376906 1_655
B1 O1 1.400189 1_555
B1 O7 1.400189 1_655
B2 O14 1.376906 1_565
B2 O2 1.400189 1_565
B2 O4 1.400189 1_555
B3 O15 1.376906 1_455
B3 O5 1.400189 1_555
B3 O3 1.400189 1_455
O0 Pb0 2.364442 1_555
O1 Pb1 2.364442 1_555
O2 Pb2 2.364442 1_555
O3 Pb3 2.364442 1_555
O4 Pb1 2.364442 1_555
O5 Pb0 2.364442 1_555
O6 Pb3 2.364442 1_555
O7 Pb2 2.364442 1_555
O8 Pb2 2.331753 1_555
O9 Pb3 2.331753 1_555
O10 Pb0 2.331753 1_555
O11 Pb1 2.331753 1_555
