# generated using pymatgen
data_U(NF2)4
_symmetry_space_group_name_H-M   'P 1'
_cell_length_a   8.11124905
_cell_length_b   8.11124905
_cell_length_c   13.34093804
_cell_angle_alpha   69.39424264
_cell_angle_beta   69.39424264
_cell_angle_gamma   53.04290126
_symmetry_Int_Tables_number   1
_chemical_formula_structural   U(NF2)4
_chemical_formula_sum   'U2 N8 F16'
_cell_volume   644.85083006
_cell_formula_units_Z   2
loop_
 _symmetry_equiv_pos_site_id
 _symmetry_equiv_pos_as_xyz
  1  'x, y, z'
loop_
 _atom_site_type_symbol
 _atom_site_label
 _atom_site_symmetry_multiplicity
 _atom_site_fract_x
 _atom_site_fract_y
 _atom_site_fract_z
 _atom_site_occupancy
  U  U0  1  0.01744000  0.98256000  0.75000000  1
  U  U1  1  0.98256000  0.01744000  0.25000000  1
  N  N0  1  0.33095000  0.19858600  0.88771000  1
  N  N1  1  0.80141400  0.66905000  0.61229000  1
  N  N2  1  0.66905000  0.80141400  0.11229000  1
  N  N3  1  0.19858600  0.33095000  0.38771000  1
  N  N4  1  0.45417300  0.30597100  0.58529900  1
  N  N5  1  0.69402900  0.54582700  0.91470100  1
  N  N6  1  0.54582700  0.69402900  0.41470100  1
  N  N7  1  0.30597100  0.45417300  0.08529900  1
  F  F0  1  0.60386400  0.83114200  0.60539600  1
  F  F1  1  0.16885800  0.39613600  0.89460400  1
  F  F2  1  0.39613600  0.16885800  0.39460400  1
  F  F3  1  0.83114200  0.60386400  0.10539600  1
  F  F4  1  0.19553300  0.76596200  0.86432900  1
  F  F5  1  0.23403800  0.80446700  0.63567100  1
  F  F6  1  0.80446700  0.23403800  0.13567100  1
  F  F7  1  0.76596200  0.19553300  0.36432900  1
  F  F8  1  0.16097600  0.13570600  0.71951300  1
  F  F9  1  0.86429400  0.83902400  0.78048700  1
  F  F10  1  0.83902400  0.86429400  0.28048700  1
  F  F11  1  0.13570600  0.16097600  0.21951300  1
  F  F12  1  0.79532300  0.15231400  0.86621600  1
  F  F13  1  0.84768600  0.20467700  0.63378400  1
  F  F14  1  0.20467700  0.84768600  0.13378400  1
  F  F15  1  0.15231400  0.79532300  0.36621600  1
loop_
_geom_bond_atom_site_label_1
_geom_bond_atom_site_label_2
_geom_bond_distance
_geom_bond_site_symmetry_2
F0 N1 1.337936 1_555
F1 N0 1.337936 1_555
F2 N3 1.337936 1_555
F3 N2 1.337936 1_555
F4 U0 2.028004 1_555
F5 U0 2.028004 1_555
F6 U1 2.028004 1_555
F7 U1 2.028004 1_555
F8 U0 2.028319 1_545
F9 U0 2.028319 1_655
F10 U1 2.028319 1_565
F11 U1 2.028319 1_455
F12 U0 2.024662 1_645
F13 U0 2.024662 1_645
F14 U1 2.024662 1_465
F15 U1 2.024662 1_465
