# generated using pymatgen
data_NaMg14W
_symmetry_space_group_name_H-M   'P 1'
_cell_length_a   6.31116603
_cell_length_b   6.48748307
_cell_length_c   10.05844878
_cell_angle_alpha   90.00000000
_cell_angle_beta   90.00000000
_cell_angle_gamma   120.92854898
_symmetry_Int_Tables_number   1
_chemical_formula_structural   NaMg14W
_chemical_formula_sum   'Na1 Mg14 W1'
_cell_volume   353.27052768
_cell_formula_units_Z   1
loop_
 _symmetry_equiv_pos_site_id
 _symmetry_equiv_pos_as_xyz
  1  'x, y, z'
loop_
 _atom_site_type_symbol
 _atom_site_label
 _atom_site_symmetry_multiplicity
 _atom_site_fract_x
 _atom_site_fract_y
 _atom_site_fract_z
 _atom_site_occupancy
  Na  Na0  1  0.16782087  0.33390994  0.12500000  1
  Mg  Mg0  1  0.17048406  0.33524153  0.62500000  1
  Mg  Mg1  1  0.16803415  0.83401658  0.62500000  1
  Mg  Mg2  1  0.66710037  0.33411402  0.12500000  1
  Mg  Mg3  1  0.66665894  0.33572765  0.62500000  1
  Mg  Mg4  1  0.66710037  0.83298535  0.12500000  1
  Mg  Mg5  1  0.66665894  0.83093029  0.62500000  1
  Mg  Mg6  1  0.32503324  0.14971186  0.36675958  1
  Mg  Mg7  1  0.32503324  0.14971186  0.88324042  1
  Mg  Mg8  1  0.32503324  0.67532238  0.36675958  1
  Mg  Mg9  1  0.32503324  0.67532238  0.88324042  1
  Mg  Mg10  1  0.82782538  0.16391319  0.37865492  1
  Mg  Mg11  1  0.82782538  0.16391319  0.87134508  1
  Mg  Mg12  1  0.84528596  0.67264348  0.36426918  1
  Mg  Mg13  1  0.84528596  0.67264348  0.88573082  1
  W  W0  1  0.17978667  0.83989283  0.12500000  1
loop_
_geom_bond_atom_site_label_1
_geom_bond_atom_site_label_2
_geom_bond_distance
_geom_bond_site_symmetry_2
Na0 W0 3.244388 1_555
Na0 W0 3.244388 1_545
Mg0 Mg10 3.095327 1_455
Mg0 Mg11 3.095327 1_455
Mg0 Mg5 3.129822 1_555
Mg0 Mg3 3.129822 1_555
Mg0 Mg5 3.181346 1_445
Mg0 Mg3 3.181346 1_455
Mg0 Mg6 3.217743 1_555
Mg0 Mg7 3.217743 1_555
Mg0 Mg8 3.217749 1_555
Mg0 Mg9 3.217749 1_555
Mg0 Mg1 3.243769 1_545
Mg0 Mg1 3.243769 1_555
Mg1 Mg8 3.136447 1_555
Mg1 Mg9 3.136447 1_555
Mg1 Mg6 3.136453 1_565
Mg1 Mg7 3.136453 1_565
Mg1 Mg12 3.151311 1_455
Mg1 Mg13 3.151311 1_455
Mg1 Mg3 3.154018 1_455
Mg1 Mg5 3.154018 1_455
Mg1 Mg3 3.157241 1_565
Mg1 Mg5 3.157241 1_555
Mg2 Mg7 3.057818 1_554
Mg2 Mg6 3.057818 1_555
Mg2 W0 3.098788 1_545
Mg2 Na0 3.150356 1_555
Mg2 Na0 3.160811 1_655
Mg2 W0 3.212846 1_655
Mg2 Mg4 3.236419 1_555
Mg2 Mg4 3.251064 1_545
Mg3 Mg6 3.190191 1_555
Mg3 Mg7 3.190191 1_555
Mg3 Mg5 3.212619 1_555
Mg3 Mg5 3.274864 1_545
Mg4 Mg9 3.057819 1_554
Mg4 Mg8 3.057819 1_555
Mg4 W0 3.098788 1_555
Mg4 Na0 3.150355 1_555
Mg4 Na0 3.160811 1_665
Mg4 W0 3.212846 1_655
Mg5 Mg8 3.190191 1_555
Mg5 Mg9 3.190191 1_555
Mg6 W0 2.983207 1_545
Mg6 Na0 3.089417 1_555
Mg7 W0 2.983207 1_546
Mg7 Na0 3.089417 1_556
Mg8 W0 2.983201 1_555
Mg8 Na0 3.089424 1_555
Mg9 W0 2.983201 1_556
Mg9 Na0 3.089424 1_556
Mg10 Mg3 3.095511 1_555
Mg10 Mg5 3.095518 1_545
Mg10 Mg8 3.129139 1_545
Mg10 Mg6 3.129140 1_555
Mg10 Na0 3.146036 1_655
Mg10 Mg2 3.147852 1_555
Mg10 Mg4 3.147859 1_545
Mg10 Mg8 3.188539 1_655
Mg10 Mg6 3.188540 1_655
Mg10 Mg12 3.248343 1_555
Mg10 Mg12 3.248343 1_545
Mg11 Mg3 3.095511 1_555
Mg11 Mg5 3.095518 1_545
Mg11 Mg9 3.129139 1_545
Mg11 Mg7 3.129140 1_555
Mg11 Na0 3.146036 1_656
Mg11 Mg2 3.147852 1_556
Mg11 Mg4 3.147859 1_546
Mg11 Mg9 3.188539 1_655
Mg11 Mg7 3.188540 1_655
Mg11 Mg13 3.248343 1_555
Mg11 Mg13 3.248343 1_545
Mg12 W0 3.011892 1_655
Mg12 Mg4 3.056344 1_555
Mg12 Mg2 3.056351 1_555
Mg12 Mg5 3.223840 1_555
Mg12 Mg3 3.223846 1_555
Mg13 W0 3.011892 1_656
Mg13 Mg4 3.056344 1_556
Mg13 Mg2 3.056351 1_556
Mg13 Mg5 3.223840 1_555
Mg13 Mg3 3.223846 1_555
