# generated using pymatgen
data_Li4FeO3F
_symmetry_space_group_name_H-M   'P 1'
_cell_length_a   5.28221800
_cell_length_b   5.35723801
_cell_length_c   7.82918234
_cell_angle_alpha   109.59256290
_cell_angle_beta   83.30448356
_cell_angle_gamma   113.25263317
_symmetry_Int_Tables_number   1
_chemical_formula_structural   Li4FeO3F
_chemical_formula_sum   'Li8 Fe2 O6 F2'
_cell_volume   191.73752125
_cell_formula_units_Z   2
loop_
 _symmetry_equiv_pos_site_id
 _symmetry_equiv_pos_as_xyz
  1  'x, y, z'
loop_
 _atom_site_type_symbol
 _atom_site_label
 _atom_site_symmetry_multiplicity
 _atom_site_fract_x
 _atom_site_fract_y
 _atom_site_fract_z
 _atom_site_occupancy
  Li  Li0  1  0.76061800  0.04945700  0.92156900  1
  Li  Li1  1  0.25666200  0.49383200  0.91690300  1
  Li  Li2  1  0.21640500  0.17598700  0.71487800  1
  Li  Li3  1  0.74669900  0.25816400  0.50425000  1
  Li  Li4  1  0.23770900  0.76307900  0.50035200  1
  Li  Li5  1  0.78488400  0.81331400  0.27915300  1
  Li  Li6  1  0.74373800  0.51673600  0.08174600  1
  Li  Li7  1  0.26033100  0.92955600  0.05186200  1
  Fe  Fe0  1  0.78084500  0.59489700  0.73799300  1
  Fe  Fe1  1  0.23501500  0.40617500  0.28899700  1
  O  O0  1  0.97096900  0.82574700  0.87880600  1
  O  O1  1  0.50683500  0.30428900  0.89661100  1
  O  O2  1  0.00206000  0.42493300  0.69761700  1
  O  O3  1  0.34281700  0.16876000  0.49192500  1
  O  O4  1  0.99806300  0.57824400  0.30657200  1
  O  O5  1  0.48876100  0.68749800  0.11031000  1
  F  F0  1  0.65746800  0.83099100  0.49908800  1
  F  F1  1  0.01012100  0.17834400  0.12136600  1
loop_
_geom_bond_atom_site_label_1
_geom_bond_atom_site_label_2
_geom_bond_distance
_geom_bond_site_symmetry_2
Li0 O0 1.865096 1_545
Li0 O1 2.320336 1_555
Li1 O5 1.802029 1_556
Li1 O1 1.924826 1_555
Li1 O2 2.147992 1_555
Li2 O3 1.788176 1_555
Li2 O1 1.967461 1_555
Li2 O2 2.104195 1_555
Li3 O2 1.878064 1_655
Li3 O3 2.000074 1_555
Li3 O4 2.569339 1_555
Li4 O4 1.826264 1_455
Li4 O3 2.042268 1_565
Li5 O5 1.923687 1_555
Li5 O4 2.063331 1_555
Li6 O1 1.776023 1_554
Li6 O5 1.861796 1_555
Li6 O4 2.196479 1_555
Li7 O0 1.946186 1_454
Li7 O5 2.260327 1_555
Li7 O1 2.531116 1_564
Fe0 O0 1.454844 1_555
Fe0 O2 1.689769 1_655
Fe0 Li3 2.059562 1_555
Fe0 O1 2.271390 1_555
Fe1 O4 1.794720 1_455
Fe1 O5 2.325261 1_555
Fe1 O3 2.569853 1_555
F0 Li5 1.760014 1_555
F0 Li4 2.099776 1_555
F0 Li3 2.133454 1_565
F1 Fe1 1.663666 1_555
F1 Li0 1.923128 1_454
F1 Li7 2.134491 1_545
