# generated using pymatgen
data_MgB3O13
_symmetry_space_group_name_H-M   'P 1'
_cell_length_a   5.69692400
_cell_length_b   9.09327014
_cell_length_c   10.14918652
_cell_angle_alpha   109.12398830
_cell_angle_beta   102.87329051
_cell_angle_gamma   93.41541483
_symmetry_Int_Tables_number   1
_chemical_formula_structural   MgB3O13
_chemical_formula_sum   'Mg2 B6 O26'
_cell_volume   479.22138941
_cell_formula_units_Z   2
loop_
 _symmetry_equiv_pos_site_id
 _symmetry_equiv_pos_as_xyz
  1  'x, y, z'
loop_
 _atom_site_type_symbol
 _atom_site_label
 _atom_site_symmetry_multiplicity
 _atom_site_fract_x
 _atom_site_fract_y
 _atom_site_fract_z
 _atom_site_occupancy
  Mg  Mg0  1  0.62862900  0.38087400  0.90359400  1
  Mg  Mg1  1  0.37137100  0.61912600  0.09640600  1
  B  B0  1  0.09473600  0.52284200  0.80998400  1
  B  B1  1  0.90526400  0.47715800  0.19001600  1
  B  B2  1  0.05032000  0.69117100  0.65552400  1
  B  B3  1  0.94968000  0.30882900  0.34447600  1
  B  B4  1  0.17331300  0.82311300  0.91110600  1
  B  B5  1  0.82668700  0.17688700  0.08889400  1
  O  O0  1  0.52071300  0.54813400  0.56135600  1
  O  O1  1  0.47928700  0.45186600  0.43864400  1
  O  O2  1  0.27927300  0.00050300  0.48853200  1
  O  O3  1  0.72072700  0.99949700  0.51146800  1
  O  O4  1  0.54464800  0.12504900  0.79642100  1
  O  O5  1  0.45535200  0.87495100  0.20357900  1
  O  O6  1  0.65299800  0.62347100  0.96104600  1
  O  O7  1  0.34700200  0.37652900  0.03895400  1
  O  O8  1  0.29947900  0.43515700  0.83332800  1
  O  O9  1  0.70052100  0.56484300  0.16667200  1
  O  O10  1  0.88504500  0.44091100  0.82322100  1
  O  O11  1  0.11495500  0.55908900  0.17677900  1
  O  O12  1  0.16831600  0.68549600  0.93717700  1
  O  O13  1  0.83168400  0.31450400  0.06282300  1
  O  O14  1  0.06819400  0.54959100  0.67330400  1
  O  O15  1  0.93180600  0.45040900  0.32669600  1
  O  O16  1  0.98064200  0.70916800  0.52475100  1
  O  O17  1  0.01935800  0.29083200  0.47524900  1
  O  O18  1  0.36746200  0.88025800  0.48630100  1
  O  O19  1  0.63253800  0.11974200  0.51369900  1
  O  O20  1  0.10445000  0.83214300  0.77615700  1
  O  O21  1  0.89555000  0.16785700  0.22384300  1
  O  O22  1  0.25144000  0.97307200  0.01938900  1
  O  O23  1  0.74856000  0.02692800  0.98061100  1
  O  O24  1  0.66338400  0.01936300  0.82063300  1
  O  O25  1  0.33661600  0.98063700  0.17936700  1
loop_
_geom_bond_atom_site_label_1
_geom_bond_atom_site_label_2
_geom_bond_distance
_geom_bond_site_symmetry_2
Mg0 O10 1.955776 1_555
Mg0 O8 2.003360 1_555
Mg0 O13 2.050180 1_556
Mg0 O6 2.076133 1_555
Mg0 O4 2.191162 1_555
Mg0 O7 2.339476 1_556
Mg0 O9 2.568997 1_556
Mg1 O11 1.955776 1_555
Mg1 O9 2.003360 1_555
Mg1 O12 2.050180 1_554
Mg1 O7 2.076133 1_555
Mg1 O5 2.191162 1_555
Mg1 O6 2.339476 1_554
Mg1 O8 2.568997 1_554
B0 O10 1.425205 1_455
B0 O14 1.462302 1_555
B0 O8 1.471000 1_555
B0 O12 1.569626 1_555
B1 O11 1.425205 1_655
B1 O15 1.462302 1_555
B1 O9 1.471000 1_555
B1 O13 1.569626 1_555
B2 O14 1.363836 1_555
B2 O16 1.364264 1_455
B2 O20 1.411964 1_555
B3 O15 1.363836 1_555
B3 O17 1.364264 1_655
B3 O21 1.411964 1_555
B4 O12 1.361200 1_555
B4 O20 1.369167 1_555
B4 O22 1.411782 1_556
B5 O13 1.361200 1_555
B5 O21 1.369167 1_555
B5 O23 1.411782 1_554
O0 O1 1.226033 1_555
O18 O2 1.225885 1_565
O19 O3 1.225885 1_545
O22 O25 1.564671 1_555
O23 O24 1.564671 1_555
O24 O4 1.264772 1_555
O25 O5 1.264772 1_555
