# generated using pymatgen
data_DyTiFe11N
_symmetry_space_group_name_H-M   'P 1'
_cell_length_a   4.80384500
_cell_length_b   6.52626611
_cell_length_c   6.52626611
_cell_angle_alpha   97.41592742
_cell_angle_beta   111.59474268
_cell_angle_gamma   68.40525732
_symmetry_Int_Tables_number   1
_chemical_formula_structural   DyTiFe11N
_chemical_formula_sum   'Dy1 Ti1 Fe11 N1'
_cell_volume   176.88678112
_cell_formula_units_Z   1
loop_
 _symmetry_equiv_pos_site_id
 _symmetry_equiv_pos_as_xyz
  1  'x, y, z'
loop_
 _atom_site_type_symbol
 _atom_site_label
 _atom_site_symmetry_multiplicity
 _atom_site_fract_x
 _atom_site_fract_y
 _atom_site_fract_z
 _atom_site_occupancy
  Dy  Dy0  1  0.00696300  0.99303700  0.00696300  1
  Ti  Ti0  1  0.63427200  0.36572800  0.63427200  1
  Fe  Fe0  1  0.72613700  0.77386300  0.22613700  1
  Fe  Fe1  1  0.27715100  0.22284900  0.77715100  1
  Fe  Fe2  1  0.49730800  0.77996700  0.77458300  1
  Fe  Fe3  1  0.49730800  0.22541700  0.22003300  1
  Fe  Fe4  1  0.50013700  0.99731300  0.49841900  1
  Fe  Fe5  1  0.00096900  0.99731300  0.49841900  1
  Fe  Fe6  1  0.50013700  0.50158100  0.00268700  1
  Fe  Fe7  1  0.00096900  0.50158100  0.00268700  1
  Fe  Fe8  1  0.35745400  0.64254600  0.35745400  1
  Fe  Fe9  1  0.99990200  0.35956900  0.35937400  1
  Fe  Fe10  1  0.99990200  0.64062600  0.64043100  1
  N  N0  1  0.50139100  0.99860900  0.00139100  1
loop_
_geom_bond_atom_site_label_1
_geom_bond_atom_site_label_2
_geom_bond_distance
_geom_bond_site_symmetry_2
Dy0 N0 2.402395 1_555
Dy0 N0 2.402395 1_455
Dy0 Fe9 3.096835 1_465
Dy0 Fe10 3.096835 1_454
Dy0 Ti0 3.186502 1_464
Dy0 Fe5 3.214519 1_555
Dy0 Fe7 3.214519 1_555
Dy0 Fe4 3.214519 1_555
Dy0 Fe6 3.214519 1_555
Dy0 Fe7 3.312044 1_565
Dy0 Fe5 3.312044 1_554
Dy0 Fe6 3.312044 1_465
Dy0 Fe4 3.312044 1_454
Fe0 N0 1.921575 1_555
Fe0 Fe6 2.459412 1_555
Fe0 Fe4 2.459412 1_555
Fe0 Fe5 2.459412 1_655
Fe0 Fe7 2.459412 1_655
Fe0 Fe9 2.635137 1_555
Fe0 Fe10 2.635137 1_555
Fe1 N0 1.917248 1_546
Fe1 Fe6 2.491098 1_556
Fe1 Fe4 2.491098 1_545
Fe1 Fe5 2.491098 1_545
Fe1 Fe7 2.491098 1_556
Fe1 Fe10 2.661624 1_455
Fe1 Fe9 2.661624 1_455
Fe1 Ti0 2.694730 1_555
Fe1 Ti0 2.694730 1_455
Fe2 N0 1.918722 1_556
Fe2 Fe4 2.439821 1_555
Fe2 Fe5 2.439821 1_555
Fe2 Fe6 2.486417 1_556
Fe2 Fe7 2.486418 1_656
Fe2 Ti0 2.659911 1_555
Fe3 N0 1.918722 1_545
Fe3 Fe6 2.439821 1_555
Fe3 Fe7 2.439821 1_555
Fe3 Fe4 2.486417 1_545
Fe3 Fe5 2.486418 1_645
Fe3 Ti0 2.659911 1_555
Fe3 Fe9 2.675262 1_555
Fe3 Fe9 2.675266 1_455
Fe4 Fe5 2.397926 1_555
Fe4 Fe5 2.405919 1_655
Fe4 Fe8 2.613605 1_555
Fe4 Fe9 2.637101 1_465
Fe4 Ti0 2.674301 1_565
Fe5 Fe8 2.613605 1_555
Fe5 Fe9 2.637099 1_465
Fe5 Ti0 2.674301 1_465
Fe6 Fe7 2.397926 1_555
Fe6 Fe7 2.405919 1_655
Fe6 Fe8 2.613605 1_555
Fe6 Fe9 2.616680 1_555
Fe6 Ti0 2.674301 1_554
Fe7 Fe8 2.613605 1_555
Fe7 Fe9 2.616682 1_455
Fe7 Ti0 2.674301 1_454
Fe8 Ti0 2.366789 1_555
Fe8 Fe9 2.952574 1_555
Fe8 Fe9 2.952578 1_455
Fe9 Ti0 2.924757 1_555
Fe9 Ti0 2.924761 1_655
Fe10 Fe9 2.420837 1_555
Fe10 Fe4 2.616680 1_555
Fe10 Fe5 2.616682 1_655
Fe10 Fe7 2.637099 1_656
Fe10 Fe6 2.637101 1_656
Fe10 Fe2 2.675262 1_555
Fe10 Fe2 2.675266 1_655
Fe10 Ti0 2.924757 1_555
Fe10 Ti0 2.924761 1_655
Fe10 Fe8 2.952574 1_555
Fe10 Fe8 2.952578 1_655
