# generated using pymatgen
data_Tm2Si3Pd
_symmetry_space_group_name_H-M   'P 1'
_cell_length_a   8.16371785
_cell_length_b   8.16371785
_cell_length_c   7.73860600
_cell_angle_alpha   90.00000000
_cell_angle_beta   90.00000000
_cell_angle_gamma   119.99999876
_symmetry_Int_Tables_number   1
_chemical_formula_structural   Tm2Si3Pd
_chemical_formula_sum   'Tm8 Si12 Pd4'
_cell_volume   446.65206419
_cell_formula_units_Z   4
loop_
 _symmetry_equiv_pos_site_id
 _symmetry_equiv_pos_as_xyz
  1  'x, y, z'
loop_
 _atom_site_type_symbol
 _atom_site_label
 _atom_site_symmetry_multiplicity
 _atom_site_fract_x
 _atom_site_fract_y
 _atom_site_fract_z
 _atom_site_occupancy
  Tm  Tm0  1  0.51251000  0.02501900  0.25000000  1
  Tm  Tm1  1  0.48749000  0.97498100  0.75000000  1
  Tm  Tm2  1  0.97498100  0.48749000  0.25000000  1
  Tm  Tm3  1  0.02501900  0.51251000  0.75000000  1
  Tm  Tm4  1  0.51251000  0.48749000  0.25000000  1
  Tm  Tm5  1  0.48749000  0.51251000  0.75000000  1
  Tm  Tm6  1  0.00000000  0.00000000  0.25000000  1
  Tm  Tm7  1  0.00000000  0.00000000  0.75000000  1
  Si  Si0  1  0.16575500  0.33151000  0.00204500  1
  Si  Si1  1  0.83424500  0.66849000  0.99795500  1
  Si  Si2  1  0.66849000  0.83424500  0.00204500  1
  Si  Si3  1  0.83424500  0.66849000  0.50204500  1
  Si  Si4  1  0.33151000  0.16575500  0.99795500  1
  Si  Si5  1  0.16575500  0.33151000  0.49795500  1
  Si  Si6  1  0.16575500  0.83424500  0.00204500  1
  Si  Si7  1  0.33151000  0.16575500  0.50204500  1
  Si  Si8  1  0.83424500  0.16575500  0.99795500  1
  Si  Si9  1  0.66849000  0.83424500  0.49795500  1
  Si  Si10  1  0.83424500  0.16575500  0.50204500  1
  Si  Si11  1  0.16575500  0.83424500  0.49795500  1
  Pd  Pd0  1  0.33333300  0.66666700  0.04555500  1
  Pd  Pd1  1  0.66666700  0.33333300  0.95444500  1
  Pd  Pd2  1  0.66666700  0.33333300  0.54555500  1
  Pd  Pd3  1  0.33333300  0.66666700  0.45444500  1
loop_
_geom_bond_atom_site_label_1
_geom_bond_atom_site_label_2
_geom_bond_distance
_geom_bond_site_symmetry_2
Si0 Si4 2.343985 1_554
Si0 Si8 2.343985 1_454
Si0 Tm5 3.000910 1_554
Si0 Tm3 3.000915 1_554
Si0 Tm6 3.029052 1_555
Si0 Tm7 3.049201 1_554
Si0 Tm2 3.116431 1_455
Si0 Tm4 3.116437 1_555
Si1 Si2 2.343985 1_556
Si1 Si6 2.343985 1_656
Si1 Tm4 3.000910 1_556
Si1 Tm2 3.000915 1_556
Si1 Tm7 3.029052 1_665
Si1 Tm6 3.049201 1_666
Si1 Tm3 3.116431 1_655
Si1 Tm5 3.116437 1_555
Si2 Si8 2.343985 1_564
Si2 Tm5 3.000910 1_554
Si2 Tm1 3.000915 1_554
Si2 Tm6 3.029052 1_665
Si2 Tm7 3.049201 1_664
Si2 Tm0 3.116431 1_565
Si2 Tm4 3.116437 1_555
Si3 Si9 2.343985 1_555
Si3 Tm4 3.000910 1_555
Si3 Tm2 3.000915 1_555
Si3 Tm7 3.029052 1_665
Si3 Tm6 3.049201 1_665
Si3 Tm3 3.116431 1_655
Si3 Tm5 3.116437 1_555
Si4 Si6 2.343985 1_546
Si4 Tm4 3.000910 1_556
Si4 Tm0 3.000915 1_556
Si4 Tm7 3.029052 1_555
Si4 Tm6 3.049201 1_556
Si4 Tm1 3.116431 1_545
Si4 Tm5 3.116437 1_555
Si5 Si7 2.343985 1_555
Si5 Tm5 3.000910 1_555
Si5 Tm3 3.000915 1_555
Si5 Tm6 3.029052 1_555
Si5 Tm7 3.049201 1_555
Si5 Tm2 3.116431 1_455
Si5 Tm4 3.116437 1_555
Si6 Tm3 3.000910 1_554
Si6 Tm1 3.000910 1_554
Si6 Tm6 3.029052 1_565
Si6 Tm7 3.049201 1_564
Si6 Tm2 3.116437 1_455
Si6 Tm0 3.116437 1_565
Si7 Tm4 3.000910 1_555
Si7 Tm0 3.000915 1_555
Si7 Tm7 3.029052 1_555
Si7 Tm6 3.049201 1_555
Si7 Tm1 3.116431 1_545
Si7 Tm5 3.116437 1_555
Si8 Tm0 3.000910 1_556
Si8 Tm2 3.000910 1_556
Si8 Tm7 3.029052 1_655
Si8 Tm6 3.049201 1_656
Si8 Tm1 3.116437 1_545
Si8 Tm3 3.116437 1_655
Si9 Tm5 3.000910 1_555
Si9 Tm1 3.000915 1_555
Si9 Tm6 3.029052 1_665
Si9 Tm7 3.049201 1_665
Si9 Tm0 3.116431 1_565
Si9 Tm4 3.116437 1_555
Si10 Si9 2.343985 1_545
Si10 Si5 2.343985 1_655
Si10 Tm0 3.000910 1_555
Si10 Tm2 3.000910 1_555
Si10 Tm7 3.029052 1_655
Si10 Tm6 3.049201 1_655
Si10 Tm1 3.116437 1_545
Si10 Tm3 3.116437 1_655
Si11 Si3 2.343985 1_455
Si11 Si7 2.343985 1_565
Si11 Tm3 3.000910 1_555
Si11 Tm1 3.000910 1_555
Si11 Tm6 3.029052 1_565
Si11 Tm7 3.049201 1_565
Si11 Tm2 3.116437 1_455
Si11 Tm0 3.116437 1_565
Pd0 Si6 2.393352 1_555
Pd0 Si0 2.393359 1_555
Pd0 Si2 2.393359 1_555
Pd0 Tm0 2.986963 1_565
Pd0 Tm2 2.986963 1_455
Pd0 Tm4 2.986975 1_555
Pd0 Tm5 3.159530 1_554
Pd0 Tm3 3.159530 1_554
Pd0 Tm1 3.159530 1_554
Pd1 Si8 2.393352 1_555
Pd1 Si4 2.393359 1_555
Pd1 Si1 2.393359 1_555
Pd1 Tm3 2.986963 1_655
Pd1 Tm1 2.986963 1_545
Pd1 Tm5 2.986975 1_555
Pd1 Tm4 3.159530 1_556
Pd1 Tm2 3.159530 1_556
Pd1 Tm0 3.159530 1_556
Pd2 Si10 2.393352 1_555
Pd2 Si3 2.393359 1_555
Pd2 Si7 2.393359 1_555
Pd2 Tm3 2.986963 1_655
Pd2 Tm1 2.986963 1_545
Pd2 Tm5 2.986975 1_555
Pd2 Tm4 3.159530 1_555
Pd2 Tm0 3.159530 1_555
Pd2 Tm2 3.159530 1_555
Pd3 Si11 2.393352 1_555
Pd3 Si5 2.393359 1_555
Pd3 Si9 2.393359 1_555
Pd3 Tm0 2.986963 1_565
Pd3 Tm2 2.986963 1_455
Pd3 Tm4 2.986975 1_555
Pd3 Tm5 3.159530 1_555
Pd3 Tm1 3.159530 1_555
Pd3 Tm3 3.159530 1_555
