# generated using pymatgen
data_Nd2Cu4Sn5
_symmetry_space_group_name_H-M   'P 1'
_cell_length_a   4.51944938
_cell_length_b   4.51944938
_cell_length_c   12.63154541
_cell_angle_alpha   100.30542347
_cell_angle_beta   100.30542347
_cell_angle_gamma   90.00000000
_symmetry_Int_Tables_number   1
_chemical_formula_structural   Nd2Cu4Sn5
_chemical_formula_sum   'Nd2 Cu4 Sn5'
_cell_volume   249.61105748
_cell_formula_units_Z   1
loop_
 _symmetry_equiv_pos_site_id
 _symmetry_equiv_pos_as_xyz
  1  'x, y, z'
loop_
 _atom_site_type_symbol
 _atom_site_label
 _atom_site_symmetry_multiplicity
 _atom_site_fract_x
 _atom_site_fract_y
 _atom_site_fract_z
 _atom_site_occupancy
  Nd  Nd0  1  0.99915687  0.99915687  0.99831375  1
  Nd  Nd1  1  0.68118466  0.68118466  0.36236932  1
  Cu  Cu0  1  0.09100951  0.59100951  0.18201903  1
  Cu  Cu1  1  0.59100951  0.09100951  0.18201903  1
  Cu  Cu2  1  0.12990510  0.12990510  0.25981020  1
  Cu  Cu3  1  0.22656163  0.22656163  0.45312325  1
  Sn  Sn0  1  0.28478786  0.78478786  0.56957571  1
  Sn  Sn1  1  0.78478786  0.28478786  0.56957571  1
  Sn  Sn2  1  0.40303313  0.90303313  0.80606627  1
  Sn  Sn3  1  0.90303313  0.40303313  0.80606627  1
  Sn  Sn4  1  0.53153073  0.53153073  0.06306146  1
loop_
_geom_bond_atom_site_label_1
_geom_bond_atom_site_label_2
_geom_bond_distance
_geom_bond_site_symmetry_2
Nd0 Sn3 3.259746 1_555
Nd0 Sn2 3.259746 1_555
Nd0 Sn3 3.259746 1_565
Nd0 Sn2 3.259746 1_655
Nd0 Sn4 3.292233 1_556
Nd0 Sn4 3.292233 1_656
Nd0 Sn4 3.292233 1_566
Nd0 Sn4 3.292233 1_666
Nd1 Sn1 3.393867 1_555
Nd1 Sn0 3.393867 1_555
Nd1 Sn1 3.393867 1_565
Nd1 Sn0 3.393867 1_655
Cu0 Cu2 2.451551 1_555
Cu0 Cu2 2.451551 1_565
Cu0 Sn4 2.686949 1_455
Cu0 Sn4 2.686949 1_555
Cu0 Nd1 3.156569 1_455
Cu0 Nd1 3.156569 1_555
Cu0 Nd0 3.185331 1_454
Cu0 Nd0 3.185331 1_444
Cu1 Cu2 2.451551 1_555
Cu1 Cu2 2.451551 1_655
Cu1 Sn4 2.686949 1_545
Cu1 Sn4 2.686949 1_555
Cu1 Nd1 3.156569 1_545
Cu1 Nd1 3.156569 1_555
Cu1 Nd0 3.185331 1_544
Cu1 Nd0 3.185331 1_444
Cu2 Cu3 2.362403 1_555
Cu2 Nd0 3.195645 1_444
Cu2 Nd1 3.432719 1_555
Cu2 Nd1 3.432719 1_545
Cu2 Nd1 3.432719 1_455
Cu2 Nd1 3.432719 1_445
Cu3 Sn1 2.670510 1_555
Cu3 Sn1 2.670510 1_455
Cu3 Sn0 2.670510 1_555
Cu3 Sn0 2.670510 1_545
Cu3 Nd1 3.382712 1_555
Cu3 Nd1 3.382712 1_455
Cu3 Nd1 3.382712 1_545
Cu3 Nd1 3.382712 1_445
Sn0 Sn2 2.890058 1_555
Sn0 Sn1 3.195733 1_565
Sn0 Sn1 3.195733 1_555
Sn0 Sn1 3.195733 1_465
Sn0 Sn1 3.195733 1_455
Sn1 Sn3 2.890058 1_555
Sn2 Sn3 3.195733 1_465
Sn2 Sn3 3.195733 1_455
Sn2 Sn3 3.195733 1_555
Sn2 Sn3 3.195733 1_565
