# generated using pymatgen
data_Ca5(GeO5)2
_symmetry_space_group_name_H-M   'P 1'
_cell_length_a   5.26491600
_cell_length_b   9.03763500
_cell_length_c   11.69503283
_cell_angle_alpha   71.06703576
_cell_angle_beta   90.00000000
_cell_angle_gamma   90.00000000
_symmetry_Int_Tables_number   1
_chemical_formula_structural   Ca5(GeO5)2
_chemical_formula_sum   'Ca10 Ge4 O20'
_cell_volume   526.37151958
_cell_formula_units_Z   2
loop_
 _symmetry_equiv_pos_site_id
 _symmetry_equiv_pos_as_xyz
  1  'x, y, z'
loop_
 _atom_site_type_symbol
 _atom_site_label
 _atom_site_symmetry_multiplicity
 _atom_site_fract_x
 _atom_site_fract_y
 _atom_site_fract_z
 _atom_site_occupancy
  Ca  Ca0  1  0.50000000  0.00000000  0.50000000  1
  Ca  Ca1  1  0.00000000  0.00000000  0.00000000  1
  Ca  Ca2  1  0.49966500  0.80915000  0.82932700  1
  Ca  Ca3  1  0.99966500  0.19085000  0.67067300  1
  Ca  Ca4  1  0.50033500  0.19085000  0.17067300  1
  Ca  Ca5  1  0.00033500  0.80915000  0.32932700  1
  Ca  Ca6  1  0.50573200  0.57954100  0.61793700  1
  Ca  Ca7  1  0.00573200  0.42045900  0.88206300  1
  Ca  Ca8  1  0.49426800  0.42045900  0.38206300  1
  Ca  Ca9  1  0.99426800  0.57954100  0.11793700  1
  Ge  Ge0  1  0.06820400  0.79940200  0.64461600  1
  Ge  Ge1  1  0.56820400  0.20059800  0.85538400  1
  Ge  Ge2  1  0.93179600  0.20059800  0.35538400  1
  Ge  Ge3  1  0.43179600  0.79940200  0.14461600  1
  O  O0  1  0.21574700  0.79327400  0.50734300  1
  O  O1  1  0.71574700  0.20672600  0.99265700  1
  O  O2  1  0.78425300  0.20672600  0.49265700  1
  O  O3  1  0.28425300  0.79327400  0.00734300  1
  O  O4  1  0.21627600  0.96618800  0.66849300  1
  O  O5  1  0.71627600  0.03381200  0.83150700  1
  O  O6  1  0.78372400  0.03381200  0.33150700  1
  O  O7  1  0.28372400  0.96618800  0.16849300  1
  O  O8  1  0.21344800  0.63716600  0.75775300  1
  O  O9  1  0.71344800  0.36283400  0.74224700  1
  O  O10  1  0.78655200  0.36283400  0.24224700  1
  O  O11  1  0.28655200  0.63716600  0.25775300  1
  O  O12  1  0.73402800  0.79862500  0.64671200  1
  O  O13  1  0.23402800  0.20137500  0.85328800  1
  O  O14  1  0.26597200  0.20137500  0.35328800  1
  O  O15  1  0.76597200  0.79862500  0.14671200  1
  O  O16  1  0.76416000  0.60372800  0.93994000  1
  O  O17  1  0.26416000  0.39627200  0.56006000  1
  O  O18  1  0.23584000  0.39627200  0.06006000  1
  O  O19  1  0.73584000  0.60372800  0.43994000  1
loop_
_geom_bond_atom_site_label_1
_geom_bond_atom_site_label_2
_geom_bond_distance
_geom_bond_site_symmetry_2
Ca0 O2 2.373515 1_555
Ca0 O0 2.373515 1_545
Ca0 O14 2.397497 1_555
Ca0 O12 2.397497 1_545
Ca0 O4 2.411847 1_545
Ca0 O6 2.411847 1_555
Ca1 O1 2.373515 1_454
Ca1 O3 2.373515 1_545
Ca1 O15 2.397497 1_445
Ca1 O13 2.397497 1_554
Ca1 O7 2.411847 1_545
Ca1 O5 2.411847 1_454
Ca2 O3 2.333946 1_556
Ca2 O5 2.336112 1_565
Ca2 O16 2.345390 1_555
Ca2 O4 2.458875 1_555
Ca2 O12 2.494906 1_555
Ca2 O8 2.496332 1_555
Ca3 O2 2.333946 1_555
Ca3 O4 2.336112 1_645
Ca3 O17 2.345390 1_655
Ca3 O5 2.458875 1_555
Ca3 O13 2.494906 1_655
Ca3 O9 2.496332 1_555
Ca4 O1 2.333946 1_554
Ca4 O7 2.336112 1_545
Ca4 O18 2.345390 1_555
Ca4 O6 2.458875 1_555
Ca4 O14 2.494906 1_555
Ca4 O10 2.496332 1_555
Ca5 O0 2.333946 1_555
Ca5 O6 2.336112 1_465
Ca5 O19 2.345390 1_455
Ca5 O7 2.458875 1_555
Ca5 O15 2.494906 1_455
Ca5 O11 2.496332 1_555
Ca6 O9 2.301662 1_555
Ca6 O17 2.355140 1_555
Ca6 O19 2.356612 1_555
Ca6 O8 2.421904 1_555
Ca6 O12 2.431203 1_555
Ca6 O0 2.472613 1_555
Ca7 O8 2.301662 1_555
Ca7 O16 2.355140 1_455
Ca7 O18 2.356612 1_556
Ca7 O9 2.421904 1_455
Ca7 O13 2.431203 1_555
Ca7 O1 2.472613 1_455
Ca8 O11 2.301662 1_555
Ca8 O19 2.355140 1_555
Ca8 O17 2.356612 1_555
Ca8 O10 2.421904 1_555
Ca8 O14 2.431203 1_555
Ca8 O2 2.472613 1_555
Ca9 O10 2.301662 1_555
Ca9 O18 2.355140 1_655
Ca9 O16 2.356612 1_554
Ca9 O11 2.421904 1_655
Ca9 O15 2.431203 1_555
Ca9 O3 2.472613 1_655
Ge0 O12 1.759562 1_455
Ge0 O8 1.796208 1_555
Ge0 O4 1.797493 1_555
Ge0 O0 1.800426 1_555
Ge1 O13 1.759562 1_555
Ge1 O9 1.796208 1_555
Ge1 O5 1.797493 1_555
Ge1 O1 1.800426 1_555
Ge2 O14 1.759562 1_655
Ge2 O10 1.796208 1_555
Ge2 O6 1.797493 1_555
Ge2 O2 1.800426 1_555
Ge3 O15 1.759562 1_555
Ge3 O11 1.796208 1_555
Ge3 O7 1.797493 1_555
Ge3 O3 1.800426 1_555
