# generated using pymatgen
data_LiPdN
_symmetry_space_group_name_H-M   'P 1'
_cell_length_a   3.06613239
_cell_length_b   3.06613239
_cell_length_c   3.82894200
_cell_angle_alpha   90.00000000
_cell_angle_beta   90.00000000
_cell_angle_gamma   89.99540171
_symmetry_Int_Tables_number   1
_chemical_formula_structural   LiPdN
_chemical_formula_sum   'Li1 Pd1 N1'
_cell_volume   35.99652614
_cell_formula_units_Z   1
loop_
 _symmetry_equiv_pos_site_id
 _symmetry_equiv_pos_as_xyz
  1  'x, y, z'
loop_
 _atom_site_type_symbol
 _atom_site_label
 _atom_site_symmetry_multiplicity
 _atom_site_fract_x
 _atom_site_fract_y
 _atom_site_fract_z
 _atom_site_occupancy
  Li  Li0  1  0.00000000  0.50000000  0.50000000  1
  Pd  Pd0  1  0.50000000  0.00000000  0.00000000  1
  N  N0  1  0.50000000  0.00000000  0.50000000  1
loop_
_geom_bond_atom_site_label_1
_geom_bond_atom_site_label_2
_geom_bond_distance
_geom_bond_site_symmetry_2
Li0 N0 2.167996 1_555
Li0 N0 2.167996 1_465
Li0 N0 2.168170 1_455
Li0 N0 2.168170 1_565
N0 Pd0 1.914471 1_555
N0 Pd0 1.914471 1_556
