# generated using pymatgen
data_LaCrTeO6
_symmetry_space_group_name_H-M   'P 1'
_cell_length_a   5.49465000
_cell_length_b   5.50627492
_cell_length_c   5.51286208
_cell_angle_alpha   119.85133909
_cell_angle_beta   90.40895155
_cell_angle_gamma   119.47168735
_symmetry_Int_Tables_number   1
_chemical_formula_structural   LaCrTeO6
_chemical_formula_sum   'La1 Cr1 Te1 O6'
_cell_volume   118.72017195
_cell_formula_units_Z   1
loop_
 _symmetry_equiv_pos_site_id
 _symmetry_equiv_pos_as_xyz
  1  'x, y, z'
loop_
 _atom_site_type_symbol
 _atom_site_label
 _atom_site_symmetry_multiplicity
 _atom_site_fract_x
 _atom_site_fract_y
 _atom_site_fract_z
 _atom_site_occupancy
  La  La0  1  0.99834800  0.23840900  0.74272100  1
  Cr  Cr0  1  0.50642100  0.99816800  0.48947000  1
  Te  Te0  1  0.50817200  0.49735100  0.99070500  1
  O  O0  1  0.42667800  0.66504400  0.75029000  1
  O  O1  1  0.99861400  0.78408700  0.70150500  1
  O  O2  1  0.01910800  0.22694200  0.28924600  1
  O  O3  1  0.53227200  0.79276000  0.18561300  1
  O  O4  1  0.50714900  0.21604400  0.78223000  1
  O  O5  1  0.58482500  0.32095700  0.22681100  1
loop_
_geom_bond_atom_site_label_1
_geom_bond_atom_site_label_2
_geom_bond_distance
_geom_bond_site_symmetry_2
La0 O0 2.349497 1_655
La0 O1 2.397392 1_545
La0 O2 2.474014 1_655
La0 O2 3.047332 1_656
Cr0 O4 1.453185 1_565
Cr0 O3 1.542992 1_555
Cr0 O5 2.694227 1_565
O0 Te0 2.103901 1_555
O3 Te0 1.365291 1_554
O4 Te0 1.392591 1_555
O5 Te0 2.113819 1_554
