# generated using pymatgen
data_NaCaCeBiO6
_symmetry_space_group_name_H-M   'P 1'
_cell_length_a   6.07820338
_cell_length_b   6.07820338
_cell_length_c   6.07820338
_cell_angle_alpha   60.00000000
_cell_angle_beta   60.00000000
_cell_angle_gamma   60.00000000
_symmetry_Int_Tables_number   1
_chemical_formula_structural   NaCaCeBiO6
_chemical_formula_sum   'Na1 Ca1 Ce1 Bi1 O6'
_cell_volume   158.78544339
_cell_formula_units_Z   1
loop_
 _symmetry_equiv_pos_site_id
 _symmetry_equiv_pos_as_xyz
  1  'x, y, z'
loop_
 _atom_site_type_symbol
 _atom_site_label
 _atom_site_symmetry_multiplicity
 _atom_site_fract_x
 _atom_site_fract_y
 _atom_site_fract_z
 _atom_site_occupancy
  Na  Na0  1  0.75000000  0.75000000  0.75000000  1
  Ca  Ca0  1  0.25000000  0.25000000  0.25000000  1
  Ce  Ce0  1  0.50000000  0.50000000  0.50000000  1
  Bi  Bi0  1  0.00000000  -0.00000000  -0.00000000  1
  O  O0  1  0.75488571  0.24511429  0.24511429  1
  O  O1  1  0.24511429  0.75488571  0.75488571  1
  O  O2  1  0.75488571  0.24511429  0.75488571  1
  O  O3  1  0.24511429  0.75488571  0.24511429  1
  O  O4  1  0.75488571  0.75488571  0.24511429  1
  O  O5  1  0.24511429  0.24511429  0.75488571  1
loop_
_geom_bond_atom_site_label_1
_geom_bond_atom_site_label_2
_geom_bond_distance
_geom_bond_site_symmetry_2
Na0 O2 3.039392 1_555
Na0 O4 3.039392 1_555
Na0 O1 3.039392 1_555
Na0 O5 3.039392 1_565
Na0 O3 3.039392 1_556
Na0 O0 3.039392 1_556
Na0 O0 3.039392 1_565
Na0 O3 3.039392 1_655
Na0 O5 3.039392 1_655
Na0 O1 3.039392 1_655
Na0 O2 3.039392 1_565
Na0 O4 3.039392 1_556
Ca0 O3 3.039392 1_545
Ca0 O5 3.039392 1_554
Ca0 O0 3.039392 1_455
Ca0 O1 3.039392 1_554
Ca0 O2 3.039392 1_455
Ca0 O2 3.039392 1_554
Ca0 O4 3.039392 1_545
Ca0 O1 3.039392 1_545
Ca0 O3 3.039392 1_555
Ca0 O0 3.039392 1_555
Ca0 O4 3.039392 1_455
Ca0 O5 3.039392 1_555
Ce0 O5 2.190966 1_555
Ce0 O3 2.190966 1_555
Ce0 O0 2.190966 1_555
Ce0 O2 2.190966 1_555
Ce0 O4 2.190966 1_555
Ce0 O1 2.190966 1_555
Bi0 O2 2.106972 1_454
Bi0 O4 2.106972 1_445
Bi0 O1 2.106972 1_544
Bi0 O3 2.106972 1_545
Bi0 O5 2.106972 1_554
Bi0 O0 2.106972 1_455
