# generated using pymatgen
data_CsNa5(FeO3)2
_symmetry_space_group_name_H-M   'P 1'
_cell_length_a   12.12887861
_cell_length_b   12.10470115
_cell_length_c   9.31787699
_cell_angle_alpha   67.52443616
_cell_angle_beta   67.24995853
_cell_angle_gamma   45.22560530
_symmetry_Int_Tables_number   1
_chemical_formula_structural   CsNa5(FeO3)2
_chemical_formula_sum   'Cs4 Na20 Fe8 O24'
_cell_volume   882.86746651
_cell_formula_units_Z   4
loop_
 _symmetry_equiv_pos_site_id
 _symmetry_equiv_pos_as_xyz
  1  'x, y, z'
loop_
 _atom_site_type_symbol
 _atom_site_label
 _atom_site_symmetry_multiplicity
 _atom_site_fract_x
 _atom_site_fract_y
 _atom_site_fract_z
 _atom_site_occupancy
  Cs  Cs0  1  0.62816600  0.12112000  0.08648800  1
  Cs  Cs1  1  0.12112000  0.62816600  0.16422600  1
  Cs  Cs2  1  0.16351200  0.08577400  0.62183400  1
  Cs  Cs3  1  0.08577400  0.16351200  0.12888000  1
  Na  Na0  1  0.98754900  0.98754900  0.51245100  1
  Na  Na1  1  0.25733200  0.25733200  0.74266800  1
  Na  Na2  1  0.50733200  0.50733200  0.99266800  1
  Na  Na3  1  0.73754900  0.73754900  0.26245100  1
  Na  Na4  1  0.22501400  0.74990300  0.75956900  1
  Na  Na5  1  0.51451300  0.99875800  0.49061500  1
  Na  Na6  1  0.74990300  0.22501400  0.26551400  1
  Na  Na7  1  0.99875800  0.51451300  0.99611500  1
  Na  Na8  1  0.25388500  0.75938500  0.25124200  1
  Na  Na9  1  0.49043100  0.98448600  0.02498600  1
  Na  Na10  1  0.75938500  0.25388500  0.73548700  1
  Na  Na11  1  0.98448600  0.49043100  0.50009700  1
  Na  Na12  1  0.25180100  0.25180100  0.24819900  1
  Na  Na13  1  0.00180100  0.00180100  0.99819900  1
  Na  Na14  1  0.49555500  0.49555500  0.50444500  1
  Na  Na15  1  0.74555500  0.74555500  0.75444500  1
  Na  Na16  1  0.63140800  0.55727800  0.15350000  1
  Na  Na17  1  0.55727800  0.63140800  0.65781300  1
  Na  Na18  1  0.09650000  0.59218700  0.61859200  1
  Na  Na19  1  0.59218700  0.09650000  0.69272200  1
  Fe  Fe0  1  0.41708500  0.82544200  0.33886100  1
  Fe  Fe1  1  0.42561500  0.83385800  0.91199400  1
  Fe  Fe2  1  0.82544200  0.41708500  0.41861200  1
  Fe  Fe3  1  0.83385800  0.42561500  0.82853300  1
  Fe  Fe4  1  0.42146700  0.33800600  0.41614200  1
  Fe  Fe5  1  0.91113900  0.83138800  0.83291500  1
  Fe  Fe6  1  0.33800600  0.42146700  0.82438500  1
  Fe  Fe7  1  0.83138800  0.91113900  0.42455800  1
  O  O0  1  0.61715800  0.61715800  0.38284200  1
  O  O1  1  0.62673600  0.62673600  0.87326400  1
  O  O2  1  0.37673600  0.37673600  0.62326400  1
  O  O3  1  0.86715800  0.86715800  0.63284200  1
  O  O4  1  0.40811600  0.83479000  0.12818800  1
  O  O5  1  0.83479000  0.40811600  0.62890500  1
  O  O6  1  0.62109500  0.12181200  0.41521000  1
  O  O7  1  0.12181200  0.62109500  0.84188400  1
  O  O8  1  0.82662000  0.27904000  0.98975500  1
  O  O9  1  0.97616200  0.42695100  0.27016700  1
  O  O10  1  0.27904000  0.82662000  0.90458500  1
  O  O11  1  0.42695100  0.97616200  0.32672100  1
  O  O12  1  0.92327900  0.97983300  0.82304900  1
  O  O13  1  0.26024500  0.34541500  0.42338000  1
  O  O14  1  0.97983300  0.92327900  0.27383800  1
  O  O15  1  0.34541500  0.26024500  0.97096000  1
  O  O16  1  0.76508800  0.81860000  0.98715500  1
  O  O17  1  0.45276800  0.47657300  0.26736600  1
  O  O18  1  0.81860000  0.76508800  0.42915700  1
  O  O19  1  0.47657300  0.45276800  0.80329300  1
  O  O20  1  0.44670700  0.98263400  0.77342700  1
  O  O21  1  0.26284500  0.82084300  0.48491200  1
  O  O22  1  0.98263400  0.44670700  0.79723200  1
  O  O23  1  0.82084300  0.26284500  0.43140000  1
loop_
_geom_bond_atom_site_label_1
_geom_bond_atom_site_label_2
_geom_bond_distance
_geom_bond_site_symmetry_2
Cs0 O15 3.014922 1_554
Cs0 O6 3.033937 1_555
Cs0 O12 3.090891 1_544
Cs0 O16 3.140131 1_544
Cs1 O13 3.014922 1_555
Cs1 O7 3.033928 1_554
Cs1 O14 3.090886 1_455
Cs1 O18 3.140131 1_455
Cs2 O10 3.014922 1_545
Cs2 O5 3.033932 1_455
Cs2 O11 3.090891 1_545
Cs2 O21 3.140131 1_545
Cs3 O8 3.014922 1_454
Cs3 O4 3.033932 1_545
Cs3 O9 3.090897 1_455
Cs3 O23 3.140131 1_455
Na0 O21 2.351376 1_655
Na0 O23 2.351376 1_565
Na0 O3 2.448474 1_555
Na0 O12 2.672695 1_555
Na0 O14 2.672703 1_555
Na1 O22 2.331626 1_455
Na1 O20 2.331626 1_545
Na1 O2 2.428401 1_555
Na1 O15 2.745116 1_555
Na1 O13 2.745116 1_555
Na2 O17 2.331626 1_556
Na2 O19 2.331626 1_555
Na2 O1 2.428401 1_555
Na2 O8 2.745116 1_555
Na2 O10 2.745116 1_555
Na3 O18 2.351376 1_555
Na3 O16 2.351376 1_554
Na3 O0 2.448474 1_555
Na3 O9 2.672696 1_555
Na3 O11 2.672697 1_555
Na4 O21 2.337535 1_555
Na4 O10 2.370441 1_555
Na4 O7 2.382948 1_555
Na4 O12 2.593472 1_455
Na4 O19 2.606609 1_555
Na5 O11 2.349006 1_555
Na5 O6 2.364999 1_565
Na5 O20 2.411525 1_555
Na5 O18 2.615570 1_555
Na6 O23 2.337535 1_555
Na6 O8 2.370441 1_554
Na6 O6 2.382949 1_555
Na6 O14 2.593473 1_545
Na6 O17 2.606609 1_555
Na7 O9 2.349006 1_556
Na7 O7 2.364999 1_655
Na7 O22 2.411534 1_555
Na7 O16 2.615569 1_555
Na8 O14 2.349006 1_455
Na8 O4 2.364999 1_555
Na8 O17 2.411525 1_555
Na8 O21 2.615577 1_555
Na9 O16 2.337535 1_554
Na9 O15 2.370441 1_564
Na9 O4 2.382959 1_555
Na9 O11 2.593474 1_555
Na9 O20 2.606609 1_554
Na10 O12 2.349006 1_545
Na10 O5 2.364999 1_555
Na10 O19 2.411526 1_555
Na10 O23 2.615568 1_555
Na11 O18 2.337535 1_555
Na11 O13 2.370441 1_655
Na11 O5 2.382958 1_555
Na11 O9 2.593465 1_555
Na11 O22 2.606609 1_555
Na12 O9 2.352002 1_455
Na12 O11 2.352003 1_545
Na12 O15 2.380341 1_554
Na12 O13 2.380341 1_555
Na13 O14 2.352003 1_446
Na13 O12 2.352011 1_445
Na13 O10 2.380341 1_545
Na13 O8 2.380341 1_455
Na14 O2 2.416503 1_555
Na14 O0 2.473123 1_555
Na14 O19 2.577758 1_555
Na14 O17 2.577758 1_555
Na14 O23 2.774525 1_555
Na14 O21 2.774525 1_555
Na15 O1 2.416503 1_555
Na15 O3 2.473123 1_555
Na15 O20 2.577758 1_555
Na15 O22 2.577758 1_555
Na15 O18 2.774525 1_555
Na15 O16 2.774525 1_555
Na16 O4 2.397423 1_555
Na16 O0 2.417456 1_555
Na16 O1 2.428426 1_554
Na16 O17 2.680636 1_555
Na17 O5 2.397423 1_555
Na17 O0 2.417447 1_555
Na17 O1 2.428435 1_555
Na17 O19 2.680636 1_555
Na18 O7 2.397423 1_555
Na18 O3 2.417449 1_455
Na18 O2 2.428427 1_555
Na18 O22 2.680645 1_455
Na19 O6 2.397423 1_555
Na19 O3 2.417451 1_545
Na19 O2 2.428428 1_555
Na19 O20 2.680647 1_545
Fe0 O21 1.864021 1_555
Fe0 O11 1.869463 1_555
Fe0 O0 1.942707 1_555
Fe0 O4 1.963694 1_555
Fe1 O10 1.868672 1_555
Fe1 O20 1.895100 1_555
Fe1 O1 1.939707 1_555
Fe1 O4 1.945914 1_556
Fe2 O23 1.864021 1_555
Fe2 O9 1.869460 1_555
Fe2 O0 1.942707 1_555
Fe2 O5 1.963685 1_555
Fe3 O8 1.868672 1_555
Fe3 O22 1.895100 1_555
Fe3 O1 1.939707 1_555
Fe3 O5 1.945923 1_555
Fe4 O13 1.868672 1_555
Fe4 O17 1.895100 1_555
Fe4 O2 1.939707 1_555
Fe4 O6 1.945917 1_555
Fe5 O16 1.864021 1_555
Fe5 O12 1.869451 1_555
Fe5 O3 1.942707 1_555
Fe5 O7 1.963690 1_655
Fe6 O15 1.868672 1_555
Fe6 O19 1.895100 1_555
Fe6 O2 1.939707 1_555
Fe6 O7 1.945918 1_555
Fe7 O18 1.864021 1_555
Fe7 O14 1.869455 1_555
Fe7 O3 1.942707 1_555
Fe7 O6 1.963689 1_565
