# generated using pymatgen
data_Na5Mn2As(CO4)4
_symmetry_space_group_name_H-M   'P 1'
_cell_length_a   10.11727810
_cell_length_b   10.07535209
_cell_length_c   10.01672056
_cell_angle_alpha   60.46889187
_cell_angle_beta   60.05242846
_cell_angle_gamma   59.47867967
_symmetry_Int_Tables_number   1
_chemical_formula_structural   Na5Mn2As(CO4)4
_chemical_formula_sum   'Na10 Mn4 As2 C8 O32'
_cell_volume   721.88691673
_cell_formula_units_Z   2
loop_
 _symmetry_equiv_pos_site_id
 _symmetry_equiv_pos_as_xyz
  1  'x, y, z'
loop_
 _atom_site_type_symbol
 _atom_site_label
 _atom_site_symmetry_multiplicity
 _atom_site_fract_x
 _atom_site_fract_y
 _atom_site_fract_z
 _atom_site_occupancy
  Na  Na0  1  0.78915700  0.21084300  0.21084300  1
  Na  Na1  1  0.54063300  0.54063300  0.95936700  1
  Na  Na2  1  0.53697200  0.96302800  0.96302800  1
  Na  Na3  1  0.79199800  0.79199800  0.20800200  1
  Na  Na4  1  0.21175900  0.78824100  0.21175900  1
  Na  Na5  1  0.78824100  0.21175900  0.78824100  1
  Na  Na6  1  0.95936700  0.95936700  0.54063300  1
  Na  Na7  1  0.21084300  0.78915700  0.78915700  1
  Na  Na8  1  0.20800200  0.20800200  0.79199800  1
  Na  Na9  1  0.96302800  0.53697200  0.53697200  1
  Mn  Mn0  1  0.36998700  0.37739600  0.87592000  1
  Mn  Mn1  1  0.37739600  0.36998700  0.37669700  1
  Mn  Mn2  1  0.37669700  0.87592000  0.37739600  1
  Mn  Mn3  1  0.87592000  0.37669700  0.36998700  1
  As  As0  1  0.00000000  0.00000000  0.00000000  1
  As  As1  1  0.75000000  0.75000000  0.75000000  1
  C  C0  1  0.58751800  0.22968000  0.59144800  1
  C  C1  1  0.59135500  0.59144800  0.22968000  1
  C  C2  1  0.22968000  0.58751800  0.59135500  1
  C  C3  1  0.59144800  0.59135500  0.58751800  1
  C  C4  1  0.16014500  0.15333700  0.16386800  1
  C  C5  1  0.52264900  0.16386800  0.15333700  1
  C  C6  1  0.15333700  0.16014500  0.52264900  1
  C  C7  1  0.16386800  0.52264900  0.16014500  1
  O  O0  1  0.51822000  0.28111600  0.01443000  1
  O  O1  1  0.57276900  0.47942300  0.21994300  1
  O  O2  1  0.72786500  0.21994300  0.47942300  1
  O  O3  1  0.28111600  0.51822000  0.18623400  1
  O  O4  1  0.72266200  0.56816000  0.24333500  1
  O  O5  1  0.20970300  0.92684800  0.93363700  1
  O  O6  1  0.92981100  0.93363700  0.92684800  1
  O  O7  1  0.56673600  0.22313900  0.73426400  1
  O  O8  1  0.47586000  0.73426400  0.22313900  1
  O  O9  1  0.22313900  0.56673600  0.47586000  1
  O  O10  1  0.73426400  0.47586000  0.56673600  1
  O  O11  1  0.92684800  0.20970300  0.92981100  1
  O  O12  1  0.93363700  0.92981100  0.20970300  1
  O  O13  1  0.27213800  0.17507100  0.02384900  1
  O  O14  1  0.52894300  0.02384900  0.17507100  1
  O  O15  1  0.56816000  0.72266200  0.46584300  1
  O  O16  1  0.18623400  0.01443000  0.28111600  1
  O  O17  1  0.21994300  0.72786500  0.57276900  1
  O  O18  1  0.47942300  0.57276900  0.72786500  1
  O  O19  1  0.83306200  0.80948700  0.54097700  1
  O  O20  1  0.81647400  0.54097700  0.80948700  1
  O  O21  1  0.01827300  0.26567600  0.18925000  1
  O  O22  1  0.52680100  0.18925000  0.26567600  1
  O  O23  1  0.18925000  0.52680100  0.01827300  1
  O  O24  1  0.26567600  0.01827300  0.52680100  1
  O  O25  1  0.80948700  0.83306200  0.81647400  1
  O  O26  1  0.54097700  0.81647400  0.83306200  1
  O  O27  1  0.01443000  0.18623400  0.51822000  1
  O  O28  1  0.46584300  0.24333500  0.56816000  1
  O  O29  1  0.17507100  0.27213800  0.52894300  1
  O  O30  1  0.02384900  0.52894300  0.27213800  1
  O  O31  1  0.24333500  0.46584300  0.72266200  1
loop_
_geom_bond_atom_site_label_1
_geom_bond_atom_site_label_2
_geom_bond_distance
_geom_bond_site_symmetry_2
Na0 O12 2.442423 1_545
Na0 O11 2.442423 1_554
Na0 O2 2.479997 1_555
Na0 O1 2.479997 1_555
Na0 O21 2.531332 1_655
Na0 O22 2.531332 1_555
Na1 O26 2.421534 1_555
Na1 O20 2.421534 1_555
Na1 O3 2.499622 1_556
Na1 O0 2.499622 1_556
Na1 O18 2.521021 1_555
Na1 O1 2.521021 1_556
Na2 O25 2.378702 1_555
Na2 O26 2.378702 1_555
Na2 O13 2.440001 1_566
Na2 O14 2.440006 1_566
Na2 O7 2.530279 1_565
Na2 O8 2.530281 1_556
Na3 O12 2.459771 1_555
Na3 O6 2.459776 1_554
Na3 O15 2.505129 1_555
Na3 O4 2.505129 1_555
Na3 O14 2.539856 1_565
Na3 O30 2.539858 1_655
Na4 O5 2.429996 1_554
Na4 O12 2.429996 1_455
Na4 O8 2.493044 1_555
Na4 O9 2.493048 1_555
Na4 O16 2.554747 1_565
Na4 O3 2.554747 1_555
Na5 O11 2.429987 1_555
Na5 O6 2.429993 1_545
Na5 O10 2.493049 1_555
Na5 O7 2.493054 1_555
Na5 O0 2.554747 1_556
Na5 O27 2.554747 1_655
Na6 O25 2.421534 1_555
Na6 O19 2.421534 1_555
Na6 O27 2.499622 1_665
Na6 O16 2.499622 1_665
Na6 O17 2.521021 1_655
Na6 O2 2.521021 1_565
Na7 O5 2.442414 1_555
Na7 O6 2.442420 1_455
Na7 O18 2.479997 1_555
Na7 O17 2.479997 1_555
Na7 O24 2.531332 1_565
Na7 O23 2.531332 1_556
Na8 O5 2.459779 1_545
Na8 O11 2.459780 1_455
Na8 O31 2.505129 1_555
Na8 O28 2.505129 1_555
Na8 O29 2.539853 1_555
Na8 O13 2.539862 1_556
Na9 O19 2.378702 1_555
Na9 O20 2.378702 1_555
Na9 O30 2.439996 1_655
Na9 O29 2.439999 1_655
Na9 O9 2.530276 1_655
Na9 O10 2.530286 1_555
Mn0 O31 2.061133 1_555
Mn0 O23 2.087991 1_556
Mn0 O0 2.094775 1_556
Mn0 O7 2.145423 1_555
Mn0 O13 2.222309 1_556
Mn0 O18 2.235303 1_555
Mn1 O28 2.061133 1_555
Mn1 O22 2.087991 1_555
Mn1 O3 2.094775 1_555
Mn1 O9 2.145417 1_555
Mn1 O29 2.222309 1_555
Mn1 O1 2.235303 1_555
Mn2 O15 2.061133 1_555
Mn2 O24 2.087991 1_565
Mn2 O16 2.094775 1_565
Mn2 O8 2.145425 1_555
Mn2 O14 2.222315 1_565
Mn2 O17 2.235303 1_555
Mn3 O4 2.061133 1_555
Mn3 O21 2.087991 1_655
Mn3 O27 2.094775 1_655
Mn3 O10 2.145417 1_555
Mn3 O30 2.222317 1_655
Mn3 O2 2.235303 1_555
As0 O5 1.724233 1_544
As0 O12 1.724233 1_445
As0 O11 1.724234 1_454
As0 O6 1.724242 1_444
As1 O25 1.722486 1_555
As1 O26 1.722486 1_555
As1 O19 1.722486 1_555
As1 O20 1.722486 1_555
C0 O2 1.288878 1_555
C0 O28 1.292979 1_555
C0 O7 1.309904 1_555
C1 O1 1.288884 1_555
C1 O4 1.292969 1_555
C1 O8 1.309912 1_555
C2 O17 1.288874 1_555
C2 O31 1.292973 1_555
C2 O9 1.309924 1_555
C3 O18 1.288878 1_555
C3 O15 1.292974 1_555
C3 O10 1.309912 1_555
C4 O13 1.288991 1_555
C4 O21 1.294281 1_555
C4 O16 1.312117 1_555
C5 O14 1.288982 1_555
C5 O22 1.294286 1_555
C5 O0 1.312116 1_555
C6 O29 1.289002 1_555
C6 O24 1.294280 1_555
C6 O27 1.312113 1_555
C7 O30 1.288989 1_555
C7 O23 1.294277 1_555
C7 O3 1.312123 1_555
