# generated using pymatgen
data_Cu3P8(Se2Br)3
_symmetry_space_group_name_H-M   'P 1'
_cell_length_a   6.59349700
_cell_length_b   11.62688100
_cell_length_c   27.46489000
_cell_angle_alpha   90.00000000
_cell_angle_beta   90.00000000
_cell_angle_gamma   90.00000000
_symmetry_Int_Tables_number   1
_chemical_formula_structural   Cu3P8(Se2Br)3
_chemical_formula_sum   'Cu12 P32 Se24 Br12'
_cell_volume   2105.50804133
_cell_formula_units_Z   4
loop_
 _symmetry_equiv_pos_site_id
 _symmetry_equiv_pos_as_xyz
  1  'x, y, z'
loop_
 _atom_site_type_symbol
 _atom_site_label
 _atom_site_symmetry_multiplicity
 _atom_site_fract_x
 _atom_site_fract_y
 _atom_site_fract_z
 _atom_site_occupancy
  Cu  Cu0  1  0.70182300  0.36217200  0.75000000  1
  Cu  Cu1  1  0.20182300  0.13782800  0.75000000  1
  Cu  Cu2  1  0.29817700  0.63782800  0.25000000  1
  Cu  Cu3  1  0.79817700  0.86217200  0.25000000  1
  Cu  Cu4  1  0.23914700  0.36114700  0.50371000  1
  Cu  Cu5  1  0.73914700  0.13885300  0.99629000  1
  Cu  Cu6  1  0.76085300  0.63885300  0.00371000  1
  Cu  Cu7  1  0.26085300  0.86114700  0.49629000  1
  Cu  Cu8  1  0.76085300  0.63885300  0.49629000  1
  Cu  Cu9  1  0.26085300  0.86114700  0.00371000  1
  Cu  Cu10  1  0.23914700  0.36114700  0.99629000  1
  Cu  Cu11  1  0.73914700  0.13885300  0.50371000  1
  P  P0  1  0.59858200  0.45287200  0.68181900  1
  P  P1  1  0.09858200  0.04712800  0.81818100  1
  P  P2  1  0.40141800  0.54712800  0.18181900  1
  P  P3  1  0.90141800  0.95287200  0.31818100  1
  P  P4  1  0.40141800  0.54712800  0.31818100  1
  P  P5  1  0.90141800  0.95287200  0.18181900  1
  P  P6  1  0.59858200  0.45287200  0.81818100  1
  P  P7  1  0.09858200  0.04712800  0.68181900  1
  P  P8  1  0.63932600  0.57461300  0.56822100  1
  P  P9  1  0.13932600  0.92538700  0.93177900  1
  P  P10  1  0.36067400  0.42538700  0.06822100  1
  P  P11  1  0.86067400  0.07461300  0.43177900  1
  P  P12  1  0.36067400  0.42538700  0.43177900  1
  P  P13  1  0.86067400  0.07461300  0.06822100  1
  P  P14  1  0.63932600  0.57461300  0.93177900  1
  P  P15  1  0.13932600  0.92538700  0.56822100  1
  P  P16  1  0.34590800  0.63621900  0.60213900  1
  P  P17  1  0.84590800  0.86378100  0.89786100  1
  P  P18  1  0.65409200  0.36378100  0.10213900  1
  P  P19  1  0.15409200  0.13621900  0.39786100  1
  P  P20  1  0.65409200  0.36378100  0.39786100  1
  P  P21  1  0.15409200  0.13621900  0.10213900  1
  P  P22  1  0.34590800  0.63621900  0.89786100  1
  P  P23  1  0.84590800  0.86378100  0.60213900  1
  P  P24  1  0.37178500  0.45604900  0.56956300  1
  P  P25  1  0.87178500  0.04395100  0.93043700  1
  P  P26  1  0.62821500  0.54395100  0.06956300  1
  P  P27  1  0.12821500  0.95604900  0.43043700  1
  P  P28  1  0.62821500  0.54395100  0.43043700  1
  P  P29  1  0.12821500  0.95604900  0.06956300  1
  P  P30  1  0.37178500  0.45604900  0.93043700  1
  P  P31  1  0.87178500  0.04395100  0.56956300  1
  Se  Se0  1  0.42404700  0.33332600  0.63173200  1
  Se  Se1  1  0.92404700  0.16667400  0.86826800  1
  Se  Se2  1  0.57595300  0.66667400  0.13173200  1
  Se  Se3  1  0.07595300  0.83332600  0.36826800  1
  Se  Se4  1  0.57595300  0.66667400  0.36826800  1
  Se  Se5  1  0.07595300  0.83332600  0.13173200  1
  Se  Se6  1  0.42404700  0.33332600  0.86826800  1
  Se  Se7  1  0.92404700  0.16667400  0.63173200  1
  Se  Se8  1  0.84328000  0.52091700  0.63049200  1
  Se  Se9  1  0.34328000  0.97908300  0.86950800  1
  Se  Se10  1  0.15672000  0.47908300  0.13049200  1
  Se  Se11  1  0.65672000  0.02091700  0.36950800  1
  Se  Se12  1  0.15672000  0.47908300  0.36950800  1
  Se  Se13  1  0.65672000  0.02091700  0.13049200  1
  Se  Se14  1  0.84328000  0.52091700  0.86950800  1
  Se  Se15  1  0.34328000  0.97908300  0.63049200  1
  Se  Se16  1  0.38902300  0.61076500  0.68303700  1
  Se  Se17  1  0.88902300  0.88923500  0.81696300  1
  Se  Se18  1  0.61097700  0.38923500  0.18303700  1
  Se  Se19  1  0.11097700  0.11076500  0.31696300  1
  Se  Se20  1  0.61097700  0.38923500  0.31696300  1
  Se  Se21  1  0.11097700  0.11076500  0.18303700  1
  Se  Se22  1  0.38902300  0.61076500  0.81696300  1
  Se  Se23  1  0.88902300  0.88923500  0.68303700  1
  Br  Br0  1  0.07402900  0.34034200  0.75000000  1
  Br  Br1  1  0.57402900  0.15965800  0.75000000  1
  Br  Br2  1  0.92597100  0.65965800  0.25000000  1
  Br  Br3  1  0.42597100  0.84034200  0.25000000  1
  Br  Br4  1  0.86977300  0.33969200  0.51203900  1
  Br  Br5  1  0.36977300  0.16030800  0.98796100  1
  Br  Br6  1  0.13022700  0.66030800  0.01203900  1
  Br  Br7  1  0.63022700  0.83969200  0.48796100  1
  Br  Br8  1  0.13022700  0.66030800  0.48796100  1
  Br  Br9  1  0.63022700  0.83969200  0.01203900  1
  Br  Br10  1  0.86977300  0.33969200  0.98796100  1
  Br  Br11  1  0.36977300  0.16030800  0.51203900  1
loop_
_geom_bond_atom_site_label_1
_geom_bond_atom_site_label_2
_geom_bond_distance
_geom_bond_site_symmetry_2
Cu0 P6 2.254338 1_555
Cu0 P0 2.254338 1_555
Cu1 P1 2.254338 1_555
Cu1 P7 2.254338 1_555
Cu2 P4 2.254338 1_555
Cu2 P2 2.254338 1_555
Cu3 P3 2.254338 1_555
Cu3 P5 2.254338 1_555
Cu4 P12 2.258947 1_555
Cu4 P24 2.292064 1_555
Cu5 P13 2.258947 1_556
Cu5 P25 2.292064 1_555
Cu6 P14 2.258947 1_554
Cu6 P26 2.292064 1_555
Cu7 P15 2.258947 1_555
Cu7 P27 2.292064 1_555
Cu8 P8 2.258947 1_555
Cu8 P28 2.292064 1_555
Cu9 P9 2.258947 1_554
Cu9 P29 2.292064 1_555
Cu10 P10 2.258947 1_556
Cu10 P30 2.292064 1_555
Cu11 P11 2.258947 1_555
Cu11 P31 2.292064 1_555
P0 Se0 2.269064 1_555
P0 Se8 2.283913 1_555
P0 Se16 2.297925 1_555
P1 Se1 2.269064 1_455
P1 Se9 2.283913 1_545
P1 Se17 2.297925 1_445
P2 Se2 2.269064 1_555
P2 Se10 2.283913 1_555
P2 Se18 2.297925 1_555
P3 Se3 2.269064 1_655
P3 Se11 2.283913 1_565
P3 Se19 2.297925 1_665
P4 Se4 2.269064 1_555
P4 Se12 2.283913 1_555
P4 Se20 2.297925 1_555
P5 Se5 2.269064 1_655
P5 Se13 2.283913 1_565
P5 Se21 2.297925 1_665
P6 Se6 2.269064 1_555
P6 Se14 2.283913 1_555
P6 Se22 2.297925 1_555
P7 Se7 2.269064 1_455
P7 Se15 2.283913 1_545
P7 Se23 2.297925 1_445
P8 Se8 2.263446 1_555
P9 Se9 2.263446 1_555
P10 P26 2.239086 1_555
P10 Se10 2.263446 1_555
P10 P18 2.263566 1_555
P11 P27 2.239086 1_645
P11 Se11 2.263446 1_555
P11 P19 2.263566 1_655
P12 P28 2.239086 1_555
P12 Se12 2.263446 1_555
P12 P20 2.263566 1_555
P13 P29 2.239086 1_645
P13 Se13 2.263446 1_555
P13 P21 2.263566 1_655
P14 P30 2.239086 1_555
P14 Se14 2.263446 1_555
P14 P22 2.263566 1_555
P15 P31 2.239086 1_465
P15 Se15 2.263446 1_555
P15 P23 2.263566 1_455
P16 Se16 2.259433 1_555
P16 P8 2.263566 1_555
P16 P24 2.284260 1_555
P17 Se17 2.259433 1_555
P17 P9 2.263566 1_655
P17 P25 2.284260 1_565
P18 Se18 2.259433 1_555
P18 P26 2.284260 1_555
P19 Se19 2.259433 1_555
P19 P27 2.284260 1_545
P20 Se20 2.259433 1_555
P20 P28 2.284260 1_555
P21 Se21 2.259433 1_555
P21 P29 2.284260 1_545
P22 Se22 2.259433 1_555
P22 P30 2.284260 1_555
P23 Se23 2.259433 1_555
P23 P31 2.284260 1_565
P24 P8 2.239086 1_555
P24 Se0 2.251706 1_555
P25 P9 2.239086 1_645
P25 Se1 2.251706 1_555
P26 Se2 2.251706 1_555
P27 Se3 2.251706 1_555
P28 Se4 2.251706 1_555
P29 Se5 2.251706 1_555
P30 Se6 2.251706 1_555
P31 Se7 2.251706 1_555
Br0 Cu0 2.467229 1_455
Br0 Cu1 2.500832 1_555
Br1 Cu1 2.467229 1_555
Br1 Cu0 2.500832 1_555
Br2 Cu2 2.467229 1_655
Br2 Cu3 2.500832 1_555
Br3 Cu3 2.467229 1_555
Br3 Cu2 2.500832 1_555
Br4 Cu4 2.458872 1_655
Br4 Cu11 2.499395 1_555
Br5 Cu5 2.458872 1_555
Br5 Cu10 2.499395 1_555
Br6 Cu6 2.458872 1_455
Br6 Cu9 2.499395 1_555
Br7 Cu7 2.458872 1_555
Br7 Cu8 2.499395 1_555
Br8 Cu8 2.458872 1_455
Br8 Cu7 2.499395 1_555
Br9 Cu9 2.458872 1_555
Br9 Cu6 2.499395 1_555
Br10 Cu10 2.458872 1_655
Br10 Cu5 2.499395 1_555
Br11 Cu11 2.458872 1_555
Br11 Cu4 2.499395 1_555
