# generated using pymatgen
data_KMn2P2HO9
_symmetry_space_group_name_H-M   'P 1'
_cell_length_a   6.35062666
_cell_length_b   7.02039800
_cell_length_c   8.97091267
_cell_angle_alpha   90.00000000
_cell_angle_beta   107.23019624
_cell_angle_gamma   90.00000000
_symmetry_Int_Tables_number   1
_chemical_formula_structural   KMn2P2HO9
_chemical_formula_sum   'K2 Mn4 P4 H2 O18'
_cell_volume   382.00932883
_cell_formula_units_Z   2
loop_
 _symmetry_equiv_pos_site_id
 _symmetry_equiv_pos_as_xyz
  1  'x, y, z'
loop_
 _atom_site_type_symbol
 _atom_site_label
 _atom_site_symmetry_multiplicity
 _atom_site_fract_x
 _atom_site_fract_y
 _atom_site_fract_z
 _atom_site_occupancy
  K  K0  1  0.95037100  0.25000000  0.82921600  1
  K  K1  1  0.04962900  0.75000000  0.17078400  1
  Mn  Mn0  1  0.50000000  0.50000000  0.00000000  1
  Mn  Mn1  1  0.50000000  0.00000000  0.00000000  1
  Mn  Mn2  1  0.45960900  0.25000000  0.28665700  1
  Mn  Mn3  1  0.54039100  0.75000000  0.71334300  1
  P  P0  1  0.88649800  0.25000000  0.18955600  1
  P  P1  1  0.11350200  0.75000000  0.81044400  1
  P  P2  1  0.43448100  0.25000000  0.65583500  1
  P  P3  1  0.56551900  0.75000000  0.34416500  1
  H  H0  1  0.08693600  0.25000000  0.49948400  1
  H  H1  1  0.91306400  0.75000000  0.50051600  1
  O  O0  1  0.78574200  0.25000000  0.32769100  1
  O  O1  1  0.21425800  0.75000000  0.67230900  1
  O  O2  1  0.41675300  0.25000000  0.06239200  1
  O  O3  1  0.58324700  0.75000000  0.93760800  1
  O  O4  1  0.51333700  0.25000000  0.51039600  1
  O  O5  1  0.48666300  0.75000000  0.48960400  1
  O  O6  1  0.13764500  0.25000000  0.25851800  1
  O  O7  1  0.86235500  0.75000000  0.74148200  1
  O  O8  1  0.17121000  0.25000000  0.61095800  1
  O  O9  1  0.82879000  0.75000000  0.38904200  1
  O  O10  1  0.81358400  0.43070400  0.08484400  1
  O  O11  1  0.18641600  0.93070400  0.91515600  1
  O  O12  1  0.18641600  0.56929600  0.91515600  1
  O  O13  1  0.81358400  0.06929600  0.08484400  1
  O  O14  1  0.51984300  0.42812800  0.75673900  1
  O  O15  1  0.48015700  0.92812800  0.24326100  1
  O  O16  1  0.48015700  0.57187200  0.24326100  1
  O  O17  1  0.51984300  0.07187200  0.75673900  1
loop_
_geom_bond_atom_site_label_1
_geom_bond_atom_site_label_2
_geom_bond_distance
_geom_bond_site_symmetry_2
K0 O11 2.679837 1_645
K0 O12 2.679837 1_655
K0 O8 2.725318 1_655
K0 O17 2.899802 1_555
K0 O14 2.899802 1_555
K0 O10 2.966983 1_556
K0 O13 2.966983 1_556
K0 O2 3.078575 1_656
K1 O13 2.679837 1_465
K1 O10 2.679837 1_455
K1 O9 2.725318 1_455
K1 O15 2.899802 1_555
K1 O16 2.899802 1_555
K1 O12 2.966983 1_554
K1 O11 2.966983 1_554
K1 O3 3.078575 1_454
Mn0 O2 1.961746 1_555
Mn0 O3 1.961746 1_554
Mn0 O10 1.970764 1_555
Mn0 O12 1.970764 1_554
Mn0 O14 2.279409 1_554
Mn0 O16 2.279409 1_555
Mn1 O3 1.961746 1_544
Mn1 O2 1.961746 1_555
Mn1 O11 1.970764 1_544
Mn1 O13 1.970764 1_555
Mn1 O17 2.279409 1_554
Mn1 O15 2.279409 1_545
Mn2 O4 1.933733 1_555
Mn2 O2 1.948660 1_555
Mn2 O6 1.984600 1_555
Mn2 O0 1.993362 1_555
Mn2 O16 2.303212 1_555
Mn2 O15 2.303212 1_545
Mn3 O5 1.933733 1_555
Mn3 O3 1.948660 1_555
Mn3 O7 1.984600 1_555
Mn3 O1 1.993362 1_555
Mn3 O17 2.303212 1_565
Mn3 O14 2.303212 1_555
H0 O8 0.984586 1_555
H1 O9 0.984586 1_555
O0 P0 1.553955 1_555
O1 P1 1.553955 1_555
O4 P2 1.529759 1_555
O5 P3 1.529759 1_555
O6 P0 1.530364 1_455
O7 P1 1.530364 1_655
O8 P2 1.599589 1_555
O9 P3 1.599589 1_555
O10 P0 1.564772 1_555
O11 P1 1.564772 1_555
O12 P1 1.564772 1_555
O13 P0 1.564772 1_555
O14 P2 1.544791 1_555
O15 P3 1.544791 1_555
O16 P3 1.544791 1_555
O17 P2 1.544791 1_555
