# generated using pymatgen
data_Li9Mn2Co5O16
_symmetry_space_group_name_H-M   'P 1'
_cell_length_a   5.81433200
_cell_length_b   5.88625481
_cell_length_c   9.70088806
_cell_angle_alpha   98.81828057
_cell_angle_beta   90.88665661
_cell_angle_gamma   119.28698832
_symmetry_Int_Tables_number   1
_chemical_formula_structural   Li9Mn2Co5O16
_chemical_formula_sum   'Li9 Mn2 Co5 O16'
_cell_volume   284.56846788
_cell_formula_units_Z   1
loop_
 _symmetry_equiv_pos_site_id
 _symmetry_equiv_pos_as_xyz
  1  'x, y, z'
loop_
 _atom_site_type_symbol
 _atom_site_label
 _atom_site_symmetry_multiplicity
 _atom_site_fract_x
 _atom_site_fract_y
 _atom_site_fract_z
 _atom_site_occupancy
  Li  Li0  1  0.87555100  0.75018100  0.24766000  1
  Li  Li1  1  0.75052400  0.00020600  0.50398800  1
  Li  Li2  1  0.62045600  0.24659200  0.75347800  1
  Li  Li3  1  0.49746000  0.49900200  0.99506300  1
  Li  Li4  1  0.38026200  0.75471000  0.24529100  1
  Li  Li5  1  0.24817900  0.00080500  0.50498300  1
  Li  Li6  1  0.12247900  0.24747000  0.75120700  1
  Li  Li7  1  0.00045600  0.49777900  0.99624400  1
  Li  Li8  1  0.49993700  0.00167500  0.00077700  1
  Mn  Mn0  1  0.99578500  0.99710800  0.00171700  1
  Mn  Mn1  1  0.38221000  0.24717900  0.24621600  1
  Co  Co0  1  0.75978600  0.50461000  0.50341400  1
  Co  Co1  1  0.13527700  0.75893200  0.75824100  1
  Co  Co2  1  0.87506800  0.24695900  0.24696900  1
  Co  Co3  1  0.25143300  0.50234300  0.50007700  1
  Co  Co4  1  0.62081000  0.75871800  0.75450900  1
  O  O0  1  0.19012900  0.90476800  0.12643900  1
  O  O1  1  0.08132300  0.14694800  0.36389700  1
  O  O2  1  0.93348400  0.38377000  0.61677000  1
  O  O3  1  0.82218200  0.65031500  0.88487800  1
  O  O4  1  0.71643600  0.90433500  0.12415900  1
  O  O5  1  0.57451500  0.14080800  0.35938000  1
  O  O6  1  0.44481700  0.40000600  0.62358800  1
  O  O7  1  0.30096400  0.62613200  0.86384500  1
  O  O8  1  0.55520200  0.59494800  0.37267500  1
  O  O9  1  0.42896200  0.86476800  0.62554300  1
  O  O10  1  0.28412500  0.11102900  0.88256600  1
  O  O11  1  0.17376200  0.34708700  0.12963400  1
  O  O12  1  0.05549400  0.59401200  0.37240600  1
  O  O13  1  0.93293600  0.85675100  0.62810500  1
  O  O14  1  0.81078100  0.09809700  0.87616400  1
  O  O15  1  0.67921200  0.36196000  0.14011800  1
loop_
_geom_bond_atom_site_label_1
_geom_bond_atom_site_label_2
_geom_bond_distance
_geom_bond_site_symmetry_2
Li0 O4 2.057898 1_555
Li0 O15 2.072076 1_555
Li0 O0 2.079093 1_655
Li0 O8 2.125929 1_555
Li0 O1 2.138782 1_665
Li0 O12 2.155681 1_655
Li1 O2 2.069523 1_555
Li1 O9 2.102351 1_545
Li1 O13 2.106195 1_545
Li1 O5 2.200080 1_555
Li1 O8 2.230671 1_545
Li1 O1 2.260035 1_655
Li2 O9 2.117788 1_545
Li2 O14 2.151659 1_555
Li2 O6 2.158098 1_555
Li2 O2 2.165305 1_555
Li2 O10 2.210097 1_555
Li2 O3 2.223929 1_555
Li3 O3 2.051738 1_555
Li3 O10 2.089840 1_555
Li3 O7 2.137552 1_555
Li3 O11 2.198514 1_556
Li3 O15 2.209884 1_556
Li3 O4 2.223605 1_556
Li4 O5 2.084320 1_565
Li4 O0 2.135364 1_555
Li4 O12 2.159450 1_555
Li4 O4 2.163613 1_555
Li4 O8 2.167777 1_555
Li4 O11 2.184448 1_555
Li5 O9 2.046087 1_545
Li5 O13 2.088751 1_445
Li5 O6 2.157417 1_555
Li5 O1 2.165834 1_555
Li5 O12 2.242635 1_545
Li5 O5 2.276939 1_555
Li6 O10 2.041424 1_555
Li6 O7 2.047940 1_555
Li6 O14 2.088719 1_455
Li6 O13 2.137164 1_445
Li6 O6 2.148874 1_555
Li6 O2 2.165884 1_455
Li7 O3 2.054516 1_455
Li7 O7 2.085378 1_555
Li7 O11 2.159314 1_556
Li7 O14 2.165551 1_455
Li7 O0 2.234924 1_556
Li7 O15 2.244488 1_456
Li8 O4 2.052986 1_545
Li8 O10 2.067828 1_554
Li8 O14 2.079509 1_554
Li8 O15 2.079882 1_555
Li8 O0 2.081363 1_545
Li8 O7 2.130618 1_544
Mn0 O3 1.926086 1_554
Mn0 O4 1.933387 1_555
Mn0 O10 1.947843 1_664
Mn0 O0 1.948435 1_655
Mn0 O14 1.949602 1_564
Mn0 O11 1.986295 1_665
Mn1 O15 1.903844 1_555
Mn1 O0 1.923340 1_545
Mn1 O5 1.924860 1_555
Mn1 O8 1.970911 1_555
Mn1 O11 1.988122 1_555
Mn1 O1 1.992598 1_555
Co0 O2 1.908776 1_555
Co0 O13 1.981188 1_555
Co0 O8 2.021187 1_555
Co0 O12 2.058084 1_655
Co0 O6 2.067590 1_555
Co0 O5 2.116031 1_555
Co1 O7 1.881584 1_555
Co1 O10 1.986308 1_565
Co1 O13 2.036915 1_455
Co1 O9 2.057714 1_555
Co1 O3 2.098396 1_455
Co1 O2 2.150044 1_455
Co2 O4 1.935675 1_545
Co2 O15 1.939653 1_555
Co2 O5 1.957802 1_555
Co2 O12 1.963690 1_655
Co2 O11 1.981052 1_655
Co2 O1 1.981089 1_655
Co3 O12 1.971206 1_555
Co3 O6 1.976108 1_555
Co3 O9 2.026956 1_555
Co3 O1 2.046369 1_555
Co3 O2 2.056894 1_455
Co3 O8 2.067922 1_555
Co4 O14 1.918730 1_565
Co4 O9 2.019076 1_555
Co4 O7 2.021730 1_555
Co4 O6 2.035219 1_555
Co4 O3 2.076059 1_555
Co4 O13 2.095564 1_555
