# generated using pymatgen
data_SmYSe2
_symmetry_space_group_name_H-M   'P 1'
_cell_length_a   7.20753172
_cell_length_b   7.20753172
_cell_length_c   7.20753152
_cell_angle_alpha   32.98546549
_cell_angle_beta   32.98546549
_cell_angle_gamma   32.98546913
_symmetry_Int_Tables_number   1
_chemical_formula_structural   SmYSe2
_chemical_formula_sum   'Sm1 Y1 Se2'
_cell_volume   98.75874387
_cell_formula_units_Z   1
loop_
 _symmetry_equiv_pos_site_id
 _symmetry_equiv_pos_as_xyz
  1  'x, y, z'
loop_
 _atom_site_type_symbol
 _atom_site_label
 _atom_site_symmetry_multiplicity
 _atom_site_fract_x
 _atom_site_fract_y
 _atom_site_fract_z
 _atom_site_occupancy
  Sm  Sm0  1  -0.00000000  0.00000000  -0.00000000  1
  Y  Y0  1  0.50000000  0.50000000  0.50000000  1
  Se  Se0  1  0.24701459  0.24701459  0.24701459  1
  Se  Se1  1  0.75298541  0.75298541  0.75298541  1
loop_
_geom_bond_atom_site_label_1
_geom_bond_atom_site_label_2
_geom_bond_distance
_geom_bond_site_symmetry_2
Se0 Y0 2.876873 1_554
Se0 Y0 2.876873 1_455
Se0 Y0 2.876873 1_545
Se0 Sm0 2.948163 1_556
Se0 Sm0 2.948163 1_655
Se0 Sm0 2.948163 1_565
Se1 Y0 2.876873 1_556
Se1 Y0 2.876873 1_655
Se1 Y0 2.876873 1_565
Se1 Sm0 2.948163 1_665
Se1 Sm0 2.948163 1_656
Se1 Sm0 2.948163 1_566
