# generated using pymatgen
data_Mn3(CoN)8
_symmetry_space_group_name_H-M   'P 1'
_cell_length_a   7.34661688
_cell_length_b   3.95276763
_cell_length_c   6.51026354
_cell_angle_alpha   90.00000036
_cell_angle_beta   72.39277156
_cell_angle_gamma   74.39406018
_symmetry_Int_Tables_number   1
_chemical_formula_structural   Mn3(CoN)8
_chemical_formula_sum   'Mn3 Co8 N8'
_cell_volume   172.87160487
_cell_formula_units_Z   1
loop_
 _symmetry_equiv_pos_site_id
 _symmetry_equiv_pos_as_xyz
  1  'x, y, z'
loop_
 _atom_site_type_symbol
 _atom_site_label
 _atom_site_symmetry_multiplicity
 _atom_site_fract_x
 _atom_site_fract_y
 _atom_site_fract_z
 _atom_site_occupancy
  Mn  Mn0  1  0.00000000  0.50000000  0.50000000  1
  Mn  Mn1  1  0.43892600  0.78053700  0.81572200  1
  Mn  Mn2  1  0.56107400  0.21946300  0.18427800  1
  Co  Co0  1  0.04579500  0.97710300  0.78541500  1
  Co  Co1  1  0.95420500  0.02289700  0.21458500  1
  Co  Co2  1  0.64630400  0.67684800  0.42320100  1
  Co  Co3  1  0.35369600  0.32315200  0.57679900  1
  Co  Co4  1  0.81529200  0.59235300  0.97312900  1
  Co  Co5  1  0.18470800  0.40764700  0.02687100  1
  Co  Co6  1  0.29124600  0.85437700  0.31089100  1
  Co  Co7  1  0.70875400  0.14562300  0.68910900  1
  N  N0  1  0.22185100  0.88907400  0.05542000  1
  N  N1  1  0.77814900  0.11092600  0.94458000  1
  N  N2  1  0.35351300  0.82324300  0.58368800  1
  N  N3  1  0.64648700  0.17675700  0.41631200  1
  N  N4  1  0.71538700  0.64230700  0.70870100  1
  N  N5  1  0.28461300  0.35769300  0.29129900  1
  N  N6  1  0.90868400  0.54565800  0.23302800  1
  N  N7  1  0.09131600  0.45434200  0.76697200  1
loop_
_geom_bond_atom_site_label_1
_geom_bond_atom_site_label_2
_geom_bond_distance
_geom_bond_site_symmetry_2
Mn0 N6 2.035618 1_455
Mn0 N7 2.035618 1_555
Mn0 N5 2.045230 1_555
Mn0 N4 2.045230 1_455
Mn1 N2 1.794613 1_555
Mn1 N0 1.813505 1_556
Mn1 N4 1.859021 1_555
Mn2 N3 1.794613 1_555
Mn2 N1 1.813505 1_554
Mn2 N5 1.859021 1_555
Co0 N1 1.851373 1_465
Co0 N7 1.999989 1_565
Co0 N7 1.999993 1_555
Co0 N2 2.160885 1_555
Co0 N0 2.452997 1_556
Co1 N0 1.851373 1_645
Co1 N6 1.999989 1_545
Co1 N6 1.999993 1_555
Co1 N3 2.160885 1_555
Co1 N1 2.452997 1_554
Co2 N6 1.880369 1_555
Co2 N3 1.976882 1_555
Co2 N3 1.976886 1_565
Co2 N2 2.006000 1_555
Co2 N4 2.065025 1_555
Co3 N7 1.880369 1_555
Co3 N2 1.976882 1_555
Co3 N2 1.976886 1_545
Co3 N3 2.006000 1_555
Co3 N5 2.065025 1_555
Co4 N7 1.992319 1_655
Co4 N6 2.000479 1_556
Co4 N1 2.010067 1_555
Co4 N1 2.010079 1_565
Co4 N4 2.056129 1_555
Co5 N6 1.992319 1_455
Co5 N7 2.000479 1_554
Co5 N0 2.010067 1_555
Co5 N0 2.010079 1_545
Co5 N5 2.056129 1_555
Co6 N0 1.876236 1_555
Co6 N2 1.959522 1_555
Co6 N5 1.981998 1_565
Co6 N5 1.982002 1_555
Co7 N1 1.876236 1_555
Co7 N3 1.959522 1_555
Co7 N4 1.981998 1_545
Co7 N4 1.982002 1_555
