# generated using pymatgen
data_Yb3Er
_symmetry_space_group_name_H-M   'P 1'
_cell_length_a   7.48243989
_cell_length_b   7.48243989
_cell_length_c   6.04547600
_cell_angle_alpha   90.00000000
_cell_angle_beta   90.00000000
_cell_angle_gamma   119.99999906
_symmetry_Int_Tables_number   1
_chemical_formula_structural   Yb3Er
_chemical_formula_sum   'Yb6 Er2'
_cell_volume   293.12145715
_cell_formula_units_Z   2
loop_
 _symmetry_equiv_pos_site_id
 _symmetry_equiv_pos_as_xyz
  1  'x, y, z'
loop_
 _atom_site_type_symbol
 _atom_site_label
 _atom_site_symmetry_multiplicity
 _atom_site_fract_x
 _atom_site_fract_y
 _atom_site_fract_z
 _atom_site_occupancy
  Yb  Yb0  1  0.17067400  0.34134800  0.25000000  1
  Yb  Yb1  1  0.65865200  0.82932600  0.25000000  1
  Yb  Yb2  1  0.17067400  0.82932600  0.25000000  1
  Yb  Yb3  1  0.82932600  0.65865200  0.75000000  1
  Yb  Yb4  1  0.34134800  0.17067400  0.75000000  1
  Yb  Yb5  1  0.82932600  0.17067400  0.75000000  1
  Er  Er0  1  0.33333300  0.66666700  0.75000000  1
  Er  Er1  1  0.66666700  0.33333300  0.25000000  1
loop_
_geom_bond_atom_site_label_1
_geom_bond_atom_site_label_2
_geom_bond_distance
_geom_bond_site_symmetry_2
Yb0 Yb2 3.651266 1_555
Yb0 Yb1 3.651266 1_555
Yb0 Yb4 3.745608 1_554
Yb0 Yb4 3.745608 1_555
Yb0 Yb5 3.745608 1_455
Yb0 Yb5 3.745608 1_454
Yb0 Yb2 3.831174 1_545
Yb0 Yb1 3.831174 1_445
Yb1 Yb2 3.651266 1_555
Yb1 Yb3 3.745608 1_555
Yb1 Yb3 3.745608 1_554
Yb1 Yb5 3.745608 1_564
Yb1 Yb5 3.745608 1_565
Yb1 Yb2 3.831174 1_655
Yb2 Yb4 3.745608 1_564
Yb2 Yb3 3.745608 1_455
Yb2 Yb3 3.745608 1_454
Yb2 Yb4 3.745608 1_565
Yb3 Yb5 3.651266 1_555
Yb3 Yb4 3.651266 1_555
Yb3 Yb5 3.831174 1_565
Yb3 Yb4 3.831174 1_665
Yb4 Yb5 3.651266 1_555
Yb4 Yb5 3.831174 1_455
Er0 Yb2 3.685219 1_556
Er0 Yb2 3.685219 1_555
Er0 Yb0 3.685223 1_555
Er0 Yb0 3.685223 1_556
Er0 Yb1 3.685223 1_556
Er0 Yb1 3.685223 1_555
Er0 Yb3 3.741577 1_455
Er0 Yb4 3.741577 1_565
Er0 Yb5 3.741580 1_565
Er0 Yb5 3.741580 1_455
Er0 Yb4 3.741584 1_555
Er0 Yb3 3.741584 1_555
Er1 Yb5 3.685219 1_555
Er1 Yb5 3.685219 1_554
Er1 Yb3 3.685223 1_554
Er1 Yb4 3.685223 1_554
Er1 Yb4 3.685223 1_555
Er1 Yb3 3.685223 1_555
Er1 Yb1 3.741577 1_545
Er1 Yb0 3.741577 1_655
Er1 Yb2 3.741580 1_655
Er1 Yb2 3.741580 1_545
Er1 Yb0 3.741584 1_555
Er1 Yb1 3.741584 1_555
