# generated using pymatgen
data_Ca2MnSbO6
_symmetry_space_group_name_H-M   'P 1'
_cell_length_a   5.56227519
_cell_length_b   9.61389467
_cell_length_c   9.53173231
_cell_angle_alpha   73.31828333
_cell_angle_beta   88.00166103
_cell_angle_gamma   92.73700441
_symmetry_Int_Tables_number   1
_chemical_formula_structural   Ca2MnSbO6
_chemical_formula_sum   'Ca8 Mn4 Sb4 O24'
_cell_volume   487.07305650
_cell_formula_units_Z   4
loop_
 _symmetry_equiv_pos_site_id
 _symmetry_equiv_pos_as_xyz
  1  'x, y, z'
loop_
 _atom_site_type_symbol
 _atom_site_label
 _atom_site_symmetry_multiplicity
 _atom_site_fract_x
 _atom_site_fract_y
 _atom_site_fract_z
 _atom_site_occupancy
  Ca  Ca0  1  0.51620900  0.40083600  0.84760900  1
  Ca  Ca1  1  0.51608900  0.90068300  0.34767500  1
  Ca  Ca2  1  0.99779500  0.15147800  0.09902800  1
  Ca  Ca3  1  0.99779700  0.65162100  0.59908400  1
  Ca  Ca4  1  0.48391100  0.59929100  0.15232200  1
  Ca  Ca5  1  0.48375200  0.09919400  0.65240900  1
  Ca  Ca6  1  0.00217300  0.84839400  0.90092300  1
  Ca  Ca7  1  0.00224300  0.34852800  0.40092900  1
  Mn  Mn0  1  0.99997600  0.75000400  0.24995700  1
  Mn  Mn1  1  0.50005300  0.75001800  0.75003900  1
  Mn  Mn2  1  0.99994100  0.25001800  0.74993200  1
  Mn  Mn3  1  0.50008800  0.24995600  0.25006300  1
  Sb  Sb0  1  0.00001300  0.49992300  0.00002900  1
  Sb  Sb1  1  0.00000400  0.00004300  0.49996600  1
  Sb  Sb2  1  0.49996400  0.00000000  0.00001200  1
  Sb  Sb3  1  0.50000800  0.50002400  0.49999600  1
  O  O0  1  0.78236300  0.43121200  0.61566600  1
  O  O1  1  0.78239500  0.93109500  0.11565200  1
  O  O2  1  0.69523600  0.37158900  0.07689400  1
  O  O3  1  0.69530400  0.87148000  0.57692000  1
  O  O4  1  0.21761000  0.56888900  0.38432100  1
  O  O5  1  0.21759600  0.06878200  0.88436000  1
  O  O6  1  0.30470800  0.62851900  0.92308000  1
  O  O7  1  0.30477100  0.12839800  0.42314200  1
  O  O8  1  0.18281600  0.38567600  0.16448300  1
  O  O9  1  0.18278600  0.88558400  0.66445700  1
  O  O10  1  0.29920500  0.82462900  0.12856300  1
  O  O11  1  0.29910800  0.32462100  0.62849400  1
  O  O12  1  0.81719100  0.61443300  0.83557600  1
  O  O13  1  0.81722200  0.11432600  0.33551000  1
  O  O14  1  0.70086200  0.17538300  0.87149300  1
  O  O15  1  0.70081600  0.67537000  0.37143700  1
  O  O16  1  0.40494600  0.60951700  0.64452200  1
  O  O17  1  0.40499500  0.10946200  0.14457300  1
  O  O18  1  0.09536800  0.35711100  0.88964600  1
  O  O19  1  0.09534700  0.85711600  0.38962200  1
  O  O20  1  0.59503400  0.39052500  0.35546100  1
  O  O21  1  0.59505800  0.89052400  0.85547200  1
  O  O22  1  0.90466000  0.64286900  0.11036600  1
  O  O23  1  0.90458900  0.14287700  0.61031800  1
loop_
_geom_bond_atom_site_label_1
_geom_bond_atom_site_label_2
_geom_bond_distance
_geom_bond_site_symmetry_2
Ca0 O18 2.358107 1_555
Ca0 O2 2.381750 1_556
Ca0 O14 2.397988 1_555
Ca0 O16 2.475421 1_555
Ca0 O0 2.554298 1_555
Ca0 O12 2.560437 1_555
Ca0 O11 2.706863 1_555
Ca0 O6 2.789941 1_555
Ca1 O19 2.357372 1_555
Ca1 O3 2.381937 1_555
Ca1 O15 2.397150 1_555
Ca1 O17 2.475767 1_565
Ca1 O1 2.555322 1_555
Ca1 O13 2.561026 1_565
Ca1 O10 2.705555 1_555
Ca1 O7 2.789736 1_565
Ca2 O1 2.345469 1_545
Ca2 O17 2.353070 1_655
Ca2 O13 2.358581 1_555
Ca2 O18 2.396407 1_654
Ca2 O8 2.673544 1_655
Ca2 O5 2.676915 1_654
Ca2 O2 2.731897 1_555
Ca2 O14 2.735743 1_554
Ca3 O0 2.345855 1_555
Ca3 O16 2.352761 1_655
Ca3 O12 2.358688 1_555
Ca3 O19 2.396073 1_655
Ca3 O9 2.671087 1_655
Ca3 O4 2.677886 1_655
Ca3 O3 2.729727 1_555
Ca3 O15 2.736929 1_555
Ca4 O22 2.357426 1_555
Ca4 O6 2.381851 1_554
Ca4 O10 2.397315 1_555
Ca4 O20 2.475940 1_555
Ca4 O4 2.555137 1_555
Ca4 O8 2.560700 1_555
Ca4 O15 2.705746 1_555
Ca4 O2 2.789469 1_555
Ca5 O23 2.358096 1_555
Ca5 O7 2.381531 1_555
Ca5 O11 2.397696 1_555
Ca5 O21 2.475306 1_545
Ca5 O5 2.554310 1_555
Ca5 O9 2.560447 1_545
Ca5 O14 2.706513 1_555
Ca5 O3 2.790411 1_545
Ca6 O5 2.345691 1_565
Ca6 O21 2.352638 1_455
Ca6 O9 2.358478 1_555
Ca6 O22 2.396099 1_456
Ca6 O12 2.670935 1_455
Ca6 O1 2.677369 1_456
Ca6 O6 2.730009 1_555
Ca6 O10 2.737038 1_556
Ca7 O4 2.345233 1_555
Ca7 O20 2.352965 1_455
Ca7 O8 2.358279 1_555
Ca7 O23 2.396617 1_455
Ca7 O13 2.673410 1_455
Ca7 O0 2.677596 1_455
Ca7 O7 2.731834 1_555
Ca7 O11 2.735727 1_555
Mn0 O22 1.973861 1_555
Mn0 O19 1.974375 1_655
Mn0 O10 1.974550 1_655
Mn0 O15 1.974625 1_555
Mn0 O1 2.272506 1_555
Mn0 O4 2.273028 1_655
Mn1 O21 1.965224 1_555
Mn1 O16 1.965904 1_555
Mn1 O6 1.978181 1_555
Mn1 O3 1.978288 1_555
Mn1 O12 2.277134 1_555
Mn1 O9 2.277720 1_555
Mn2 O23 1.974138 1_555
Mn2 O11 1.974429 1_655
Mn2 O14 1.974614 1_555
Mn2 O18 1.974720 1_655
Mn2 O0 2.272985 1_555
Mn2 O5 2.274050 1_655
Mn3 O20 1.965399 1_555
Mn3 O17 1.965644 1_555
Mn3 O7 1.978522 1_555
Mn3 O2 1.978848 1_555
Mn3 O13 2.277146 1_555
Mn3 O8 2.278489 1_555
O0 Sb3 1.980167 1_555
O1 Sb2 1.980567 1_565
O2 Sb0 2.031642 1_655
O3 Sb1 2.032458 1_665
O4 Sb3 1.980496 1_555
O5 Sb2 1.980082 1_556
O6 Sb0 2.032576 1_556
O7 Sb1 2.031630 1_555
O8 Sb0 1.981614 1_555
O9 Sb1 1.982495 1_565
O10 Sb2 2.032162 1_565
O11 Sb3 2.032565 1_555
O12 Sb0 1.982559 1_656
O13 Sb1 1.981682 1_655
O14 Sb2 2.032507 1_556
O15 Sb3 2.032170 1_555
O16 Sb3 2.029849 1_555
O17 Sb2 2.029771 1_555
O18 Sb0 2.033066 1_556
O19 Sb1 2.033711 1_565
O20 Sb3 2.029909 1_555
O21 Sb2 2.029887 1_566
O22 Sb0 2.033833 1_655
O23 Sb1 2.033127 1_655
