# generated using pymatgen
data_BaSrEuSeO6
_symmetry_space_group_name_H-M   'P 1'
_cell_length_a   5.90713898
_cell_length_b   5.95376009
_cell_length_c   8.37039120
_cell_angle_alpha   91.16079606
_cell_angle_beta   89.15033016
_cell_angle_gamma   89.64627474
_symmetry_Int_Tables_number   1
_chemical_formula_structural   BaSrEuSeO6
_chemical_formula_sum   'Ba2 Sr2 Eu2 Se2 O12'
_cell_volume   294.28510203
_cell_formula_units_Z   2
loop_
 _symmetry_equiv_pos_site_id
 _symmetry_equiv_pos_as_xyz
  1  'x, y, z'
loop_
 _atom_site_type_symbol
 _atom_site_label
 _atom_site_symmetry_multiplicity
 _atom_site_fract_x
 _atom_site_fract_y
 _atom_site_fract_z
 _atom_site_occupancy
  Ba  Ba0  1  0.99560220  0.02549634  0.25060858  1
  Ba  Ba1  1  0.00439780  0.97450366  0.74939142  1
  Sr  Sr0  1  0.50000000  0.00000000  -0.00000000  1
  Sr  Sr1  1  -0.00000000  0.50000000  0.50000000  1
  Eu  Eu0  1  0.50950541  0.54355041  0.25346578  1
  Eu  Eu1  1  0.49049459  0.45644959  0.74653422  1
  Se  Se0  1  -0.00000000  0.50000000  -0.00000000  1
  Se  Se1  1  0.50000000  0.00000000  0.50000000  1
  O  O0  1  0.18992480  0.25714879  0.95804026  1
  O  O1  1  0.32592248  0.74348775  0.54095524  1
  O  O2  1  0.81007520  0.74285121  0.04195974  1
  O  O3  1  0.67407752  0.25651225  0.45904476  1
  O  O4  1  0.24425807  0.68492244  0.95157768  1
  O  O5  1  0.25198006  0.18820989  0.52553946  1
  O  O6  1  0.75574193  0.31507756  0.04842232  1
  O  O7  1  0.74801994  0.81179011  0.47446054  1
  O  O8  1  0.44676199  0.95869796  0.28363800  1
  O  O9  1  0.08977267  0.50167815  0.21371535  1
  O  O10  1  0.55323801  0.04130204  0.71636200  1
  O  O11  1  0.91022733  0.49832185  0.78628465  1
loop_
_geom_bond_atom_site_label_1
_geom_bond_atom_site_label_2
_geom_bond_distance
_geom_bond_site_symmetry_2
Ba0 O2 2.653963 1_545
Ba0 O7 2.703139 1_545
Ba0 O8 2.711160 1_645
Ba0 O6 2.829028 1_555
Ba0 O3 2.883619 1_555
Ba0 O9 2.914154 1_655
Ba0 O5 2.925597 1_655
Ba0 O0 3.047957 1_654
Ba0 O9 3.172615 1_645
Ba1 O0 2.653963 1_565
Ba1 O5 2.703139 1_565
Ba1 O10 2.711160 1_465
Ba1 O4 2.829028 1_555
Ba1 O1 2.883619 1_555
Ba1 O11 2.914154 1_455
Ba1 O7 2.925597 1_455
Ba1 O2 3.047957 1_456
Ba1 O11 3.172615 1_465
Eu0 O8 2.504200 1_555
Eu0 O9 2.519745 1_555
Eu0 O6 2.592040 1_555
Eu0 O3 2.641009 1_555
Eu0 O2 2.777156 1_555
Eu0 O7 2.818301 1_555
Eu0 O1 2.859090 1_555
Eu0 O4 3.120277 1_554
Eu1 O10 2.504200 1_555
Eu1 O11 2.519745 1_555
Eu1 O4 2.592040 1_555
Eu1 O1 2.641009 1_555
Eu1 O0 2.777156 1_555
Eu1 O5 2.818301 1_555
Eu1 O3 2.859090 1_555
Eu1 O6 3.120277 1_556
O0 Se0 1.849409 1_556
O0 Sr0 2.414235 1_556
O1 Se1 1.880810 1_565
O1 Sr1 2.441233 1_555
O2 Se0 1.849409 1_655
O2 Sr0 2.414235 1_565
O3 Se1 1.880810 1_555
O3 Sr1 2.441233 1_655
O4 Se0 1.865116 1_556
O4 Sr0 2.447005 1_566
O5 Se1 1.846230 1_555
O5 Sr1 2.387177 1_555
O6 Se0 1.865116 1_655
O6 Sr0 2.447005 1_555
O7 Se1 1.846230 1_565
O7 Sr1 2.387177 1_655
O8 Se1 1.854459 1_565
O8 Sr0 2.408002 1_565
O9 Se0 1.873203 1_555
O9 Sr1 2.446832 1_555
O10 Se1 1.854459 1_555
O10 Sr0 2.408002 1_556
O11 Se0 1.873203 1_656
O11 Sr1 2.446832 1_655
