# generated using pymatgen
data_Na2TeSe3
_symmetry_space_group_name_H-M   'P 1'
_cell_length_a   5.95861770
_cell_length_b   8.76786937
_cell_length_c   12.60714745
_cell_angle_alpha   90.00000000
_cell_angle_beta   90.00000000
_cell_angle_gamma   93.66641633
_symmetry_Int_Tables_number   1
_chemical_formula_structural   Na2TeSe3
_chemical_formula_sum   'Na8 Te4 Se12'
_cell_volume   657.30453939
_cell_formula_units_Z   4
loop_
 _symmetry_equiv_pos_site_id
 _symmetry_equiv_pos_as_xyz
  1  'x, y, z'
loop_
 _atom_site_type_symbol
 _atom_site_label
 _atom_site_symmetry_multiplicity
 _atom_site_fract_x
 _atom_site_fract_y
 _atom_site_fract_z
 _atom_site_occupancy
  Na  Na0  1  0.26355802  0.36699677  0.26210641  1
  Na  Na1  1  0.73644198  0.13300323  0.76210641  1
  Na  Na2  1  0.73644198  0.63300323  0.73789359  1
  Na  Na3  1  0.26355802  0.86699677  0.23789359  1
  Na  Na4  1  0.75427313  0.13604416  0.41667661  1
  Na  Na5  1  0.24572687  0.36395584  0.91667661  1
  Na  Na6  1  0.24572687  0.86395584  0.58332339  1
  Na  Na7  1  0.75427313  0.63604416  0.08332339  1
  Te  Te0  1  0.29777801  0.30935175  0.58888572  1
  Te  Te1  1  0.70222199  0.19064825  0.08888572  1
  Te  Te2  1  0.70222199  0.69064825  0.41111428  1
  Te  Te3  1  0.29777801  0.80935175  0.91111428  1
  Se  Se0  1  0.71869253  0.36822051  0.59179250  1
  Se  Se1  1  0.28130747  0.13177949  0.09179250  1
  Se  Se2  1  0.28130747  0.63177949  0.40820750  1
  Se  Se3  1  0.71869253  0.86822051  0.90820750  1
  Se  Se4  1  0.23610218  0.12189831  0.74116399  1
  Se  Se5  1  0.76389782  0.37810169  0.24116399  1
  Se  Se6  1  0.76389782  0.87810169  0.25883601  1
  Se  Se7  1  0.23610218  0.62189831  0.75883601  1
  Se  Se8  1  0.25225179  0.13567412  0.43124475  1
  Se  Se9  1  0.74774821  0.36432588  0.93124475  1
  Se  Se10  1  0.74774821  0.86432588  0.56875525  1
  Se  Se11  1  0.25225179  0.63567412  0.06875525  1
loop_
_geom_bond_atom_site_label_1
_geom_bond_atom_site_label_2
_geom_bond_distance
_geom_bond_site_symmetry_2
Na0 Se8 2.940682 1_555
Na0 Se2 2.960098 1_555
Na0 Se1 2.983746 1_555
Na0 Se5 2.988380 1_555
Na0 Se5 2.996746 1_455
Na0 Se11 3.393555 1_555
Na1 Se9 2.940682 1_555
Na1 Se3 2.960098 1_545
Na1 Se0 2.983746 1_555
Na1 Se4 2.988380 1_555
Na1 Se4 2.996746 1_655
Na1 Se10 3.393555 1_545
Na2 Se10 2.940682 1_555
Na2 Se0 2.960098 1_555
Na2 Se3 2.983746 1_555
Na2 Se7 2.988380 1_555
Na2 Se7 2.996746 1_655
Na2 Se9 3.393555 1_555
Na3 Se11 2.940682 1_555
Na3 Se1 2.960098 1_565
Na3 Se2 2.983746 1_555
Na3 Se6 2.988380 1_555
Na3 Se6 2.996746 1_455
Na3 Se8 3.393555 1_565
Na4 Se8 2.973152 1_655
Na4 Se8 2.996781 1_555
Na4 Se6 3.015712 1_545
Na4 Se0 3.019632 1_555
Na4 Se10 3.056371 1_545
Na4 Se5 3.064001 1_555
Na5 Se9 2.973152 1_455
Na5 Se9 2.996781 1_555
Na5 Se7 3.015712 1_555
Na5 Se1 3.019632 1_556
Na5 Se11 3.056371 1_556
Na5 Se4 3.064001 1_555
Na6 Se10 2.973152 1_455
Na6 Se10 2.996781 1_555
Na6 Se4 3.015712 1_565
Na6 Se2 3.019632 1_555
Na6 Se8 3.056371 1_565
Na6 Se7 3.064001 1_555
Na7 Se11 2.973152 1_655
Na7 Se11 2.996781 1_555
Na7 Se5 3.015712 1_555
Na7 Se3 3.019632 1_554
Na7 Se9 3.056371 1_554
Na7 Se6 3.064001 1_555
Se0 Te0 2.528359 1_555
Se1 Te1 2.528359 1_555
Se2 Te2 2.528359 1_555
Se3 Te3 2.528359 1_555
Se4 Te0 2.538648 1_555
Se5 Te1 2.538648 1_555
Se6 Te2 2.538648 1_555
Se7 Te3 2.538648 1_555
Se8 Te0 2.507867 1_555
Se9 Te1 2.507867 1_556
Se10 Te2 2.507867 1_555
Se11 Te3 2.507867 1_554
