# generated using pymatgen
data_MgV8(OF)8
_symmetry_space_group_name_H-M   'P 1'
_cell_length_a   4.96449002
_cell_length_b   10.44484903
_cell_length_c   5.67716010
_cell_angle_alpha   83.76747376
_cell_angle_beta   92.96268270
_cell_angle_gamma   89.53361184
_symmetry_Int_Tables_number   1
_chemical_formula_structural   MgV8(OF)8
_chemical_formula_sum   'Mg1 V8 O8 F8'
_cell_volume   292.22065268
_cell_formula_units_Z   1
loop_
 _symmetry_equiv_pos_site_id
 _symmetry_equiv_pos_as_xyz
  1  'x, y, z'
loop_
 _atom_site_type_symbol
 _atom_site_label
 _atom_site_symmetry_multiplicity
 _atom_site_fract_x
 _atom_site_fract_y
 _atom_site_fract_z
 _atom_site_occupancy
  Mg  Mg0  1  0.50640976  0.37390623  0.36386602  1
  V  V0  1  0.49371368  0.25019261  0.80294790  1
  V  V1  1  0.51087200  0.99704174  0.50340293  1
  V  V2  1  0.52414234  0.74097299  0.23863740  1
  V  V3  1  0.52200315  0.52468212  0.94139115  1
  V  V4  1  0.99066274  0.22587525  0.27840879  1
  V  V5  1  0.03434609  0.77390945  0.71756035  1
  V  V6  1  0.01479293  0.50606759  0.48484544  1
  V  V7  1  0.00684847  0.99501916  0.00458755  1
  O  O0  1  0.81744948  0.06934965  0.29413985  1
  O  O1  1  0.69781430  0.82272350  0.51199716  1
  O  O2  1  0.66158782  0.55456687  0.27044237  1
  O  O3  1  0.67626552  0.32686418  0.06900355  1
  O  O4  1  0.36657782  0.42515024  0.68184133  1
  O  O5  1  0.33452308  0.68583480  0.94417783  1
  O  O6  1  0.34142737  0.19501153  0.47528879  1
  O  O7  1  0.20105724  0.93581401  0.70351124  1
  F  F0  1  0.85503818  0.58550635  0.76964615  1
  F  F1  1  0.83551718  0.31573627  0.56453178  1
  F  F2  1  0.82865442  0.81258813  0.02392998  1
  F  F3  1  0.67182747  0.07416491  0.80259712  1
  F  F4  1  0.34116288  0.92381847  0.20828944  1
  F  F5  1  0.20006007  0.68797728  0.43776125  1
  F  F6  1  0.17708852  0.17975236  0.97986859  1
  F  F7  1  0.16793548  0.42372432  0.18923104  1
loop_
_geom_bond_atom_site_label_1
_geom_bond_atom_site_label_2
_geom_bond_distance
_geom_bond_site_symmetry_2
Mg0 O3 2.018034 1_555
Mg0 O2 2.069796 1_555
Mg0 O4 2.088157 1_555
Mg0 O6 2.093853 1_555
O0 V4 1.849164 1_555
O0 V1 2.075833 1_545
O0 V7 2.148033 1_645
O1 V2 2.010543 1_555
O1 V5 2.017062 1_655
O1 V1 2.031569 1_555
O2 V3 2.015852 1_554
O2 V2 2.044077 1_555
O2 V6 2.108061 1_655
O3 V0 1.969019 1_554
O3 V4 2.114526 1_555
O3 V3 2.229872 1_554
O4 V0 1.968262 1_555
O4 V3 2.018785 1_555
O4 V6 2.141014 1_555
O5 V3 1.918736 1_555
O5 V2 2.016827 1_556
O5 V5 2.060279 1_555
O6 V4 2.024106 1_455
O6 V0 2.111519 1_555
O6 V1 2.212442 1_545
O7 V5 1.884510 1_555
O7 V1 2.025867 1_555
O7 V7 2.150278 1_556
F0 V3 2.033982 1_555
F0 V6 2.084423 1_655
F0 V5 2.163707 1_655
F1 Mg0 1.994384 1_555
F1 V4 2.135729 1_555
F1 V6 2.196362 1_655
F1 V0 2.288065 1_555
F2 V2 2.083652 1_555
F2 V7 2.101785 1_655
F2 V5 2.135559 1_654
F3 V0 2.033910 1_555
F3 V7 2.083090 1_646
F3 V1 2.083221 1_545
F4 V7 2.059078 1_555
F4 V1 2.060230 1_555
F4 V2 2.094354 1_555
F5 V2 2.059016 1_555
F5 V5 2.106716 1_555
F5 V6 2.114490 1_555
F6 V0 2.010606 1_555
F6 V4 2.072045 1_456
F6 V7 2.106420 1_546
F7 Mg0 1.943918 1_555
F7 V6 2.137499 1_555
F7 V4 2.269312 1_455
F7 V3 2.478930 1_554
