# generated using pymatgen
data_Ho(SiIr)2
_symmetry_space_group_name_H-M   'P 1'
_cell_length_a   4.05812242
_cell_length_b   4.05812242
_cell_length_c   9.75683829
_cell_angle_alpha   90.00000000
_cell_angle_beta   90.00000000
_cell_angle_gamma   90.00000000
_symmetry_Int_Tables_number   1
_chemical_formula_structural   Ho(SiIr)2
_chemical_formula_sum   'Ho2 Si4 Ir4'
_cell_volume   160.67910177
_cell_formula_units_Z   2
loop_
 _symmetry_equiv_pos_site_id
 _symmetry_equiv_pos_as_xyz
  1  'x, y, z'
loop_
 _atom_site_type_symbol
 _atom_site_label
 _atom_site_symmetry_multiplicity
 _atom_site_fract_x
 _atom_site_fract_y
 _atom_site_fract_z
 _atom_site_occupancy
  Ho  Ho0  1  0.75000000  0.75000000  0.25237990  1
  Ho  Ho1  1  0.25000000  0.25000000  0.74762010  1
  Si  Si0  1  0.75000000  0.25000000  0.50000000  1
  Si  Si1  1  0.25000000  0.75000000  0.50000000  1
  Si  Si2  1  0.75000000  0.75000000  0.86947975  1
  Si  Si3  1  0.25000000  0.25000000  0.13052025  1
  Ir  Ir0  1  0.75000000  0.25000000  -0.00000000  1
  Ir  Ir1  1  0.25000000  0.75000000  -0.00000000  1
  Ir  Ir2  1  0.75000000  0.75000000  0.62978679  1
  Ir  Ir3  1  0.25000000  0.25000000  0.37021321  1
loop_
_geom_bond_atom_site_label_1
_geom_bond_atom_site_label_2
_geom_bond_distance
_geom_bond_site_symmetry_2
Ho0 Ir3 3.091269 1_555
Ho0 Ir3 3.091269 1_655
Ho0 Ir3 3.091269 1_665
Ho0 Ir3 3.091269 1_565
Ho0 Si3 3.106093 1_555
Ho0 Si3 3.106093 1_655
Ho0 Si3 3.106093 1_565
Ho0 Si3 3.106093 1_665
Ho0 Si1 3.155011 1_655
Ho0 Si0 3.155011 1_565
Ho0 Si0 3.155011 1_555
Ho0 Si1 3.155011 1_555
Ho0 Ir1 3.190713 1_555
Ho0 Ir1 3.190713 1_655
Ho0 Ir0 3.190713 1_565
Ho0 Ir0 3.190713 1_555
Ho1 Ir2 3.091269 1_445
Ho1 Ir2 3.091269 1_555
Ho1 Ir2 3.091269 1_545
Ho1 Ir2 3.091269 1_455
Ho1 Si2 3.106093 1_455
Ho1 Si2 3.106093 1_545
Ho1 Si2 3.106093 1_555
Ho1 Si2 3.106093 1_445
Ho1 Si1 3.155011 1_545
Ho1 Si0 3.155011 1_455
Ho1 Si0 3.155011 1_555
Ho1 Si1 3.155011 1_555
Ho1 Ir0 3.190713 1_456
Ho1 Ir0 3.190713 1_556
Ho1 Ir1 3.190713 1_546
Ho1 Ir1 3.190713 1_556
Ir0 Si3 2.395580 1_555
Ir0 Si2 2.395580 1_554
Ir0 Si2 2.395580 1_544
Ir0 Si3 2.395580 1_655
Ir1 Si3 2.395580 1_555
Ir1 Si2 2.395580 1_554
Ir1 Si2 2.395580 1_454
Ir1 Si3 2.395580 1_565
Ir2 Si2 2.338645 1_555
Ir2 Si1 2.391783 1_555
Ir2 Si1 2.391783 1_655
Ir2 Si0 2.391783 1_565
Ir2 Si0 2.391783 1_555
Ir3 Si3 2.338645 1_555
Ir3 Si0 2.391783 1_455
Ir3 Si1 2.391783 1_555
Ir3 Si0 2.391783 1_555
Ir3 Si1 2.391783 1_545
