# generated using pymatgen
data_Ti8GaCo4Si3
_symmetry_space_group_name_H-M   'P 1'
_cell_length_a   4.27791259
_cell_length_b   4.27791259
_cell_length_c   14.11544709
_cell_angle_alpha   90.00000000
_cell_angle_beta   81.28422527
_cell_angle_gamma   120.00000000
_symmetry_Int_Tables_number   1
_chemical_formula_structural   Ti8GaCo4Si3
_chemical_formula_sum   'Ti8 Ga1 Co4 Si3'
_cell_volume   220.26065915
_cell_formula_units_Z   1
loop_
 _symmetry_equiv_pos_site_id
 _symmetry_equiv_pos_as_xyz
  1  'x, y, z'
loop_
 _atom_site_type_symbol
 _atom_site_label
 _atom_site_symmetry_multiplicity
 _atom_site_fract_x
 _atom_site_fract_y
 _atom_site_fract_z
 _atom_site_occupancy
  Ti  Ti0  1  0.00006500  0.50003200  0.49990300  1
  Ti  Ti1  1  0.50079000  0.75039500  0.74881600  1
  Ti  Ti2  1  0.00109700  0.00054900  0.99835400  1
  Ti  Ti3  1  0.49872600  0.24936300  0.25191200  1
  Ti  Ti4  1  0.87484700  0.43742300  0.68773000  1
  Ti  Ti5  1  0.37536600  0.68768300  0.93695100  1
  Ti  Ti6  1  0.87453700  0.93726800  0.18819500  1
  Ti  Ti7  1  0.37453700  0.18726800  0.43819500  1
  Ga  Ga0  1  0.62447400  0.31223700  0.06328900  1
  Co  Co0  1  0.24620700  0.62310300  0.13069000  1
  Co  Co1  1  0.74931000  0.87465500  0.37603500  1
  Co  Co2  1  0.24968200  0.12484100  0.62547700  1
  Co  Co3  1  0.75335900  0.37668000  0.86996100  1
  Si  Si0  1  0.12494600  0.56247300  0.31258000  1
  Si  Si1  1  0.62570700  0.81285300  0.56144000  1
  Si  Si2  1  0.12635200  0.06317600  0.81047200  1
loop_
_geom_bond_atom_site_label_1
_geom_bond_atom_site_label_2
_geom_bond_distance
_geom_bond_site_symmetry_2
Ti0 Ti4 2.610361 1_455
Ti0 Ti7 2.614508 1_455
Ti0 Ti7 2.614508 1_565
Ti0 Ti7 2.614508 1_555
Ti1 Ti4 2.611683 1_565
Ti1 Ti4 2.611687 1_455
Ti1 Ti4 2.611687 1_555
Ti1 Ti5 2.614641 1_555
Ti2 Ti5 2.613120 1_445
Ti2 Ti5 2.613120 1_555
Ti2 Ti5 2.613123 1_545
Ti2 Ti6 2.638351 1_446
Ti3 Ti7 2.588903 1_555
Ti3 Ti6 2.623797 1_555
Ti3 Ti6 2.623800 1_445
Ti3 Ti6 2.623800 1_545
Ga0 Ti3 2.621423 1_555
Ga0 Ti2 2.629558 1_654
Ga0 Ti2 2.629562 1_554
Ga0 Ti2 2.629562 1_664
Ga0 Ti6 3.018863 1_555
Ga0 Ti6 3.018864 1_445
Ga0 Ti6 3.018866 1_545
Ga0 Ti5 3.030352 1_544
Ga0 Ti5 3.030352 1_554
Ga0 Ti5 3.030352 1_654
Co0 Si0 2.527850 1_555
Co0 Ti6 2.595935 1_555
Co0 Ti6 2.595935 1_445
Co0 Ti6 2.595935 1_455
Co0 Ga0 2.641516 1_555
Co0 Ga0 2.641519 1_455
Co0 Ga0 2.641520 1_565
Co0 Ti5 2.692524 1_554
Co0 Ti3 2.989716 1_555
Co0 Ti3 2.989717 1_455
Co0 Ti3 2.989719 1_565
Co0 Ti2 3.079398 1_554
Co0 Ti2 3.079398 1_664
Co0 Ti2 3.079404 1_564
Co1 Si1 2.576700 1_555
Co1 Ti6 2.610541 1_555
Co1 Ti7 2.616573 1_565
Co1 Ti7 2.616577 1_665
Co1 Ti7 2.616577 1_555
Co1 Si0 2.622571 1_655
Co1 Si0 2.622571 1_665
Co1 Si0 2.622575 1_555
Co1 Ti0 3.010591 1_665
Co1 Ti0 3.010592 1_555
Co1 Ti0 3.010594 1_655
Co1 Ti3 3.012619 1_555
Co1 Ti3 3.012619 1_565
Co1 Ti3 3.012622 1_665
Co2 Si2 2.571002 1_555
Co2 Ti7 2.602786 1_555
Co2 Ti4 2.617000 1_455
Co2 Ti4 2.617004 1_555
Co2 Ti4 2.617004 1_445
Co2 Si1 2.625302 1_445
Co2 Si1 2.625302 1_555
Co2 Si1 2.625306 1_545
Co2 Ti1 3.006393 1_445
Co2 Ti1 3.006396 1_545
Co2 Ti1 3.006396 1_555
Co2 Ti0 3.024210 1_555
Co2 Ti0 3.024213 1_545
Co2 Ti0 3.024213 1_655
Co3 Ti4 2.532589 1_555
Co3 Si2 2.604554 1_555
Co3 Si2 2.604554 1_665
Co3 Si2 2.604558 1_655
Co3 Ti5 2.639496 1_555
Co3 Ti5 2.639499 1_655
Co3 Ti5 2.639499 1_545
Co3 Ga0 2.686812 1_556
Co3 Ti1 2.989111 1_555
Co3 Ti1 2.989115 1_545
Co3 Ti1 2.989118 1_655
Co3 Ti2 3.046989 1_665
Co3 Ti2 3.046989 1_655
Co3 Ti2 3.046989 1_555
Si0 Ti0 2.603356 1_555
Si0 Ti3 2.609798 1_455
Si0 Ti3 2.609805 1_555
Si0 Ti3 2.609805 1_565
Si0 Ti6 3.014704 1_455
Si0 Ti6 3.014707 1_445
Si0 Ti6 3.014710 1_555
Si0 Ti7 3.024538 1_455
Si0 Ti7 3.024541 1_565
Si0 Ti7 3.024544 1_555
Si1 Ti1 2.604093 1_555
Si1 Ti0 2.613730 1_555
Si1 Ti0 2.613730 1_655
Si1 Ti0 2.613730 1_665
Si1 Ti7 3.005650 1_565
Si1 Ti7 3.005650 1_555
Si1 Ti7 3.005650 1_665
Si1 Ti4 3.029965 1_565
Si1 Ti4 3.029965 1_555
Si1 Ti4 3.029966 1_455
Si2 Ti2 2.611125 1_555
Si2 Ti1 2.614269 1_445
Si2 Ti1 2.614273 1_545
Si2 Ti1 2.614273 1_555
Si2 Ti4 3.001670 1_455
Si2 Ti4 3.001673 1_445
Si2 Ti4 3.001673 1_555
Si2 Ti5 3.031488 1_545
Si2 Ti5 3.031488 1_555
Si2 Ti5 3.031488 1_445
