# generated using pymatgen
data_Li9Mn2Co5O16
_symmetry_space_group_name_H-M   'P 1'
_cell_length_a   5.10326252
_cell_length_b   5.10326252
_cell_length_c   20.61418147
_cell_angle_alpha   81.50685773
_cell_angle_beta   81.50685773
_cell_angle_gamma   32.76045432
_symmetry_Int_Tables_number   1
_chemical_formula_structural   Li9Mn2Co5O16
_chemical_formula_sum   'Li9 Mn2 Co5 O16'
_cell_volume   287.04772236
_cell_formula_units_Z   1
loop_
 _symmetry_equiv_pos_site_id
 _symmetry_equiv_pos_as_xyz
  1  'x, y, z'
loop_
 _atom_site_type_symbol
 _atom_site_label
 _atom_site_symmetry_multiplicity
 _atom_site_fract_x
 _atom_site_fract_y
 _atom_site_fract_z
 _atom_site_occupancy
  Li  Li0  1  0.24859200  0.24859200  0.94221800  1
  Li  Li1  1  0.75140800  0.75140800  0.05778200  1
  Li  Li2  1  0.25453800  0.25453800  0.18637400  1
  Li  Li3  1  0.74716900  0.74716900  0.31108300  1
  Li  Li4  1  0.25197400  0.25197400  0.43975900  1
  Li  Li5  1  0.74802600  0.74802600  0.56024100  1
  Li  Li6  1  0.25283100  0.25283100  0.68891700  1
  Li  Li7  1  0.74546200  0.74546200  0.81362600  1
  Li  Li8  1  0.50000000  0.50000000  0.00000000  1
  Mn  Mn0  1  0.99430200  0.99430200  0.87988700  1
  Mn  Mn1  1  0.00569800  0.00569800  0.12011300  1
  Co  Co0  1  0.50322500  0.50322500  0.24881500  1
  Co  Co1  1  0.99936600  0.99936600  0.37528500  1
  Co  Co2  1  0.50000000  0.50000000  0.50000000  1
  Co  Co3  1  0.00063400  0.00063400  0.62471500  1
  Co  Co4  1  0.49677500  0.49677500  0.75118500  1
  O  O0  1  0.38794200  0.38794200  0.84549300  1
  O  O1  1  0.88235600  0.88235600  0.95949700  1
  O  O2  1  0.39024100  0.39024100  0.09788800  1
  O  O3  1  0.89165500  0.89165500  0.21604700  1
  O  O4  1  0.39116900  0.39116900  0.34434300  1
  O  O5  1  0.88100200  0.88100200  0.47057800  1
  O  O6  1  0.39163000  0.39163000  0.59598000  1
  O  O7  1  0.88074300  0.88074300  0.72192700  1
  O  O8  1  0.11764400  0.11764400  0.04050300  1
  O  O9  1  0.61205800  0.61205800  0.15450700  1
  O  O10  1  0.11925700  0.11925700  0.27807300  1
  O  O11  1  0.60837000  0.60837000  0.40402000  1
  O  O12  1  0.11899800  0.11899800  0.52942200  1
  O  O13  1  0.60883100  0.60883100  0.65565700  1
  O  O14  1  0.10834500  0.10834500  0.78395300  1
  O  O15  1  0.60975900  0.60975900  0.90211200  1
loop_
_geom_bond_atom_site_label_1
_geom_bond_atom_site_label_2
_geom_bond_distance
_geom_bond_site_symmetry_2
Li0 O1 2.014310 1_455
Li0 O1 2.014310 1_545
Li0 O15 2.224633 1_455
Li0 O15 2.224633 1_545
Li0 O8 2.224705 1_556
Li0 O0 2.236066 1_555
Li1 O8 2.014310 1_565
Li1 O8 2.014310 1_655
Li1 O2 2.224633 1_655
Li1 O2 2.224633 1_565
Li1 O1 2.224705 1_554
Li1 O9 2.236066 1_555
Li2 O2 2.084890 1_555
Li2 O3 2.121565 1_545
Li2 O3 2.121565 1_455
Li2 O10 2.134742 1_555
Li2 O9 2.175205 1_455
Li2 O9 2.175205 1_545
Li3 O10 2.089390 1_655
Li3 O10 2.089390 1_565
Li3 O11 2.171632 1_555
Li3 O4 2.197111 1_565
Li3 O4 2.197111 1_655
Li3 O3 2.233033 1_555
Li4 O5 2.078061 1_455
Li4 O5 2.078061 1_545
Li4 O12 2.090666 1_555
Li4 O4 2.213872 1_555
Li4 O11 2.215935 1_455
Li4 O11 2.215935 1_545
Li5 O12 2.078061 1_565
Li5 O12 2.078061 1_655
Li5 O5 2.090666 1_555
Li5 O13 2.213872 1_555
Li5 O6 2.215935 1_565
Li5 O6 2.215935 1_655
Li6 O7 2.089390 1_545
Li6 O7 2.089390 1_455
Li6 O6 2.171632 1_555
Li6 O13 2.197111 1_455
Li6 O13 2.197111 1_545
Li6 O14 2.233033 1_555
Li7 O15 2.084890 1_555
Li7 O14 2.121565 1_655
Li7 O14 2.121565 1_565
Li7 O7 2.134742 1_555
Li7 O0 2.175205 1_565
Li7 O0 2.175205 1_655
Li8 O8 2.095608 1_565
Li8 O8 2.095608 1_655
Li8 O1 2.095608 1_544
Li8 O1 2.095608 1_454
Li8 O2 2.135249 1_555
Li8 O15 2.135249 1_554
Mn0 O1 1.827838 1_555
Mn0 O15 1.928423 1_655
Mn0 O15 1.928423 1_565
Mn0 O0 1.971290 1_655
Mn0 O0 1.971290 1_565
Mn0 O14 2.116145 1_665
Mn1 O8 1.827838 1_555
Mn1 O2 1.928423 1_455
Mn1 O2 1.928423 1_545
Mn1 O9 1.971290 1_545
Mn1 O9 1.971290 1_455
Mn1 O3 2.116145 1_445
Co0 O10 1.984176 1_565
Co0 O10 1.984176 1_655
Co0 O3 1.987036 1_545
Co0 O3 1.987036 1_455
Co0 O9 2.068173 1_555
Co0 O4 2.101579 1_555
Co1 O11 1.938064 1_655
Co1 O11 1.938064 1_565
Co1 O4 1.951576 1_655
Co1 O4 1.951576 1_565
Co1 O5 2.121610 1_555
Co1 O10 2.160962 1_665
Co2 O12 2.003620 1_655
Co2 O12 2.003620 1_565
Co2 O5 2.003620 1_455
Co2 O5 2.003620 1_545
Co2 O11 2.096270 1_555
Co2 O6 2.096270 1_555
Co3 O6 1.938064 1_455
Co3 O6 1.938064 1_545
Co3 O13 1.951576 1_455
Co3 O13 1.951576 1_545
Co3 O12 2.121610 1_555
Co3 O7 2.160962 1_445
Co4 O7 1.984176 1_545
Co4 O7 1.984176 1_455
Co4 O14 1.987036 1_565
Co4 O14 1.987036 1_655
Co4 O0 2.068173 1_555
Co4 O13 2.101579 1_555
