# generated using pymatgen
data_Li9Mn7O16
_symmetry_space_group_name_H-M   'P 1'
_cell_length_a   5.08649900
_cell_length_b   5.33388825
_cell_length_c   11.15333926
_cell_angle_alpha   87.07399855
_cell_angle_beta   80.55043538
_cell_angle_gamma   83.54358177
_symmetry_Int_Tables_number   1
_chemical_formula_structural   Li9Mn7O16
_chemical_formula_sum   'Li9 Mn7 O16'
_cell_volume   296.43601245
_cell_formula_units_Z   1
loop_
 _symmetry_equiv_pos_site_id
 _symmetry_equiv_pos_as_xyz
  1  'x, y, z'
loop_
 _atom_site_type_symbol
 _atom_site_label
 _atom_site_symmetry_multiplicity
 _atom_site_fract_x
 _atom_site_fract_y
 _atom_site_fract_z
 _atom_site_occupancy
  Li  Li0  1  0.31930400  0.24110400  0.68644300  1
  Li  Li1  1  0.42091000  0.75348500  0.55867600  1
  Li  Li2  1  0.18232400  0.75029300  0.81195000  1
  Li  Li3  1  0.06437500  0.25314200  0.93829500  1
  Li  Li4  1  0.93562500  0.74685800  0.06170500  1
  Li  Li5  1  0.81767600  0.24970700  0.18805000  1
  Li  Li6  1  0.68069600  0.75889600  0.31355700  1
  Li  Li7  1  0.57909000  0.24651500  0.44132400  1
  Li  Li8  1  0.00000000  0.50000000  0.50000000  1
  Mn  Mn0  1  0.87531600  0.99954600  0.62371500  1
  Mn  Mn1  1  0.12468400  0.00045400  0.37628500  1
  Mn  Mn2  1  0.24865200  0.49949500  0.25352900  1
  Mn  Mn3  1  0.37457000  0.99974100  0.12573400  1
  Mn  Mn4  1  0.50000000  0.50000000  0.00000000  1
  Mn  Mn5  1  0.62543000  0.00025900  0.87426600  1
  Mn  Mn6  1  0.75134800  0.50050500  0.74647100  1
  O  O0  1  0.54887900  0.89203200  0.71890800  1
  O  O1  1  0.68258800  0.34110000  0.60315600  1
  O  O2  1  0.41970800  0.39492500  0.84465500  1
  O  O3  1  0.29468100  0.89701200  0.97052300  1
  O  O4  1  0.17151100  0.39424900  0.09602600  1
  O  O5  1  0.04460300  0.89090900  0.22304500  1
  O  O6  1  0.94644400  0.33912300  0.34404000  1
  O  O7  1  0.79867000  0.89698700  0.47100100  1
  O  O8  1  0.05355600  0.66087700  0.65596000  1
  O  O9  1  0.20133000  0.10301300  0.52899900  1
  O  O10  1  0.95539700  0.10909100  0.77695500  1
  O  O11  1  0.82848900  0.60575100  0.90397400  1
  O  O12  1  0.70531900  0.10298800  0.02947700  1
  O  O13  1  0.58029200  0.60507500  0.15534500  1
  O  O14  1  0.45112100  0.10796800  0.28109200  1
  O  O15  1  0.31741200  0.65890000  0.39684400  1
loop_
_geom_bond_atom_site_label_1
_geom_bond_atom_site_label_2
_geom_bond_distance
_geom_bond_site_symmetry_2
Li0 O1 2.041899 1_555
Li0 O0 2.131306 1_545
Li0 O10 2.132640 1_455
Li0 O9 2.136282 1_555
Li0 O2 2.141429 1_555
Li0 O8 2.519625 1_555
Li1 O15 2.062591 1_555
Li1 O8 2.097594 1_555
Li1 O9 2.103065 1_565
Li1 O0 2.188283 1_555
Li1 O7 2.207158 1_555
Li1 O1 2.510584 1_555
Li2 O8 2.052448 1_555
Li2 O11 2.124092 1_455
Li2 O3 2.154263 1_555
Li2 O10 2.173046 1_465
Li2 O0 2.174014 1_555
Li2 O2 2.177891 1_555
Li3 O4 2.121448 1_556
Li3 O2 2.129865 1_555
Li3 O12 2.155723 1_456
Li3 O3 2.162853 1_545
Li3 O11 2.166394 1_455
Li3 O10 2.168002 1_455
Li4 O11 2.121448 1_554
Li4 O13 2.129865 1_555
Li4 O3 2.155723 1_654
Li4 O12 2.162853 1_565
Li4 O4 2.166394 1_655
Li4 O5 2.168002 1_655
Li5 O6 2.052448 1_555
Li5 O4 2.124092 1_655
Li5 O12 2.154263 1_555
Li5 O5 2.173046 1_645
Li5 O14 2.174014 1_555
Li5 O13 2.177891 1_555
Li6 O15 2.041899 1_555
Li6 O14 2.131306 1_565
Li6 O5 2.132640 1_655
Li6 O7 2.136282 1_555
Li6 O13 2.141429 1_555
Li6 O6 2.519625 1_555
Li7 O1 2.062591 1_555
Li7 O6 2.097594 1_555
Li7 O7 2.103065 1_545
Li7 O14 2.188283 1_555
Li7 O9 2.207158 1_555
Li7 O15 2.510584 1_555
Li8 O6 2.048626 1_455
Li8 O8 2.048626 1_555
Li8 O15 2.060821 1_555
Li8 O1 2.060821 1_455
Li8 O9 2.277768 1_555
Li8 O7 2.277768 1_455
Mn0 O7 1.927045 1_555
Mn0 O9 1.934293 1_665
Mn0 O0 1.945825 1_555
Mn0 O10 1.952577 1_565
Mn0 O8 1.971517 1_655
Mn0 O1 1.990502 1_565
Mn1 O9 1.927045 1_555
Mn1 O7 1.934293 1_445
Mn1 O14 1.945825 1_555
Mn1 O5 1.952577 1_545
Mn1 O6 1.971517 1_455
Mn1 O15 1.990502 1_545
Mn2 O15 1.946653 1_555
Mn2 O6 1.952370 1_455
Mn2 O13 1.976371 1_555
Mn2 O4 1.982823 1_555
Mn2 O14 2.251910 1_555
Mn2 O5 2.260010 1_555
Mn3 O3 1.959604 1_554
Mn3 O12 1.959878 1_565
Mn3 O14 1.965077 1_565
Mn3 O5 1.971939 1_555
Mn3 O4 2.270883 1_565
Mn3 O13 2.276533 1_555
Mn4 O11 1.954401 1_554
Mn4 O4 1.954401 1_555
Mn4 O2 1.966171 1_554
Mn4 O13 1.966171 1_555
Mn4 O3 2.286344 1_554
Mn4 O12 2.286344 1_555
Mn5 O12 1.959604 1_556
Mn5 O3 1.959878 1_545
Mn5 O0 1.965077 1_545
Mn5 O10 1.971939 1_555
Mn5 O11 2.270883 1_545
Mn5 O2 2.276533 1_555
Mn6 O1 1.946653 1_555
Mn6 O8 1.952370 1_655
Mn6 O2 1.976371 1_555
Mn6 O11 1.982823 1_555
Mn6 O0 2.251910 1_555
Mn6 O10 2.260010 1_555
