# generated using pymatgen
data_VAg2AsO6
_symmetry_space_group_name_H-M   'P 1'
_cell_length_a   6.53573500
_cell_length_b   6.53735126
_cell_length_c   7.20619367
_cell_angle_alpha   91.66009481
_cell_angle_beta   116.08705779
_cell_angle_gamma   90.03554830
_symmetry_Int_Tables_number   1
_chemical_formula_structural   VAg2AsO6
_chemical_formula_sum   'V2 Ag4 As2 O12'
_cell_volume   276.38183094
_cell_formula_units_Z   2
loop_
 _symmetry_equiv_pos_site_id
 _symmetry_equiv_pos_as_xyz
  1  'x, y, z'
loop_
 _atom_site_type_symbol
 _atom_site_label
 _atom_site_symmetry_multiplicity
 _atom_site_fract_x
 _atom_site_fract_y
 _atom_site_fract_z
 _atom_site_occupancy
  V  V0  1  0.11711700  0.08067300  0.72444300  1
  V  V1  1  0.88288300  0.91932700  0.27555700  1
  Ag  Ag0  1  0.11330500  0.38406200  0.24174900  1
  Ag  Ag1  1  0.88669500  0.61593800  0.75825100  1
  Ag  Ag2  1  0.62221500  0.37275000  0.28428100  1
  Ag  Ag3  1  0.37778500  0.62725000  0.71571900  1
  As  As0  1  0.65805700  0.15261200  0.80878600  1
  As  As1  1  0.34194300  0.84738800  0.19121400  1
  O  O0  1  0.60893900  0.38162500  0.68735800  1
  O  O1  1  0.39106100  0.61837500  0.31264200  1
  O  O2  1  0.77605700  0.18800300  0.07540000  1
  O  O3  1  0.22394300  0.81199700  0.92460000  1
  O  O4  1  0.40869900  0.01044700  0.72159100  1
  O  O5  1  0.59130100  0.98955300  0.27840900  1
  O  O6  1  0.83633700  0.00449400  0.74351000  1
  O  O7  1  0.16366300  0.99550600  0.25649000  1
  O  O8  1  0.00885900  0.79718000  0.50954500  1
  O  O9  1  0.99114100  0.20282000  0.49045500  1
  O  O10  1  0.21047100  0.27050600  0.90247200  1
  O  O11  1  0.78952900  0.72949400  0.09752800  1
loop_
_geom_bond_atom_site_label_1
_geom_bond_atom_site_label_2
_geom_bond_distance
_geom_bond_site_symmetry_2
Ag0 O1 2.244638 1_555
Ag0 O2 2.349851 1_455
Ag0 O7 2.560816 1_545
Ag0 O9 2.575611 1_455
Ag1 O0 2.244638 1_555
Ag1 O3 2.349851 1_655
Ag1 O6 2.560816 1_565
Ag1 O8 2.575611 1_655
Ag2 O1 2.271146 1_555
Ag2 O2 2.441847 1_555
Ag2 O9 2.490724 1_555
Ag2 O5 2.510740 1_545
Ag3 O0 2.271146 1_555
Ag3 O3 2.441847 1_555
Ag3 O8 2.490724 1_555
Ag3 O4 2.510740 1_565
As0 O0 1.714531 1_555
As0 O6 1.724409 1_555
As0 O4 1.725771 1_555
As0 O2 1.735075 1_556
As1 O1 1.714531 1_555
As1 O7 1.724409 1_555
As1 O5 1.725771 1_555
As1 O3 1.735075 1_554
O2 V1 2.217111 1_545
O3 V0 2.217111 1_565
O4 V0 1.969232 1_555
O5 V1 1.969232 1_555
O6 V0 1.964455 1_655
O7 V1 1.964455 1_455
O8 V1 1.736817 1_455
O8 V0 2.280770 1_565
O9 V0 1.736817 1_655
O9 V1 2.280770 1_545
O10 V0 1.666322 1_555
O11 V1 1.666322 1_555
