# generated using pymatgen
data_CdHg6(Sb2I3)2
_symmetry_space_group_name_H-M   'P 1'
_cell_length_a   13.88191650
_cell_length_b   13.88191650
_cell_length_c   13.81664256
_cell_angle_alpha   89.15089897
_cell_angle_beta   89.15089897
_cell_angle_gamma   91.25618411
_symmetry_Int_Tables_number   1
_chemical_formula_structural   CdHg6(Sb2I3)2
_chemical_formula_sum   'Cd4 Hg24 Sb16 I24'
_cell_volume   2661.33446012
_cell_formula_units_Z   4
loop_
 _symmetry_equiv_pos_site_id
 _symmetry_equiv_pos_as_xyz
  1  'x, y, z'
loop_
 _atom_site_type_symbol
 _atom_site_label
 _atom_site_symmetry_multiplicity
 _atom_site_fract_x
 _atom_site_fract_y
 _atom_site_fract_z
 _atom_site_occupancy
  Cd  Cd0  1  0.73189100  0.76038800  0.32578600  1
  Cd  Cd1  1  0.26810900  0.23961200  0.67421400  1
  Cd  Cd2  1  0.76038800  0.73189100  0.82578600  1
  Cd  Cd3  1  0.23961200  0.26810900  0.17421400  1
  Hg  Hg0  1  0.74442700  0.02822000  0.50429100  1
  Hg  Hg1  1  0.51923700  0.25479300  0.47272600  1
  Hg  Hg2  1  0.51387400  0.00264000  0.25025600  1
  Hg  Hg3  1  0.25557300  0.97178000  0.49570900  1
  Hg  Hg4  1  0.48076300  0.74520700  0.52727400  1
  Hg  Hg5  1  0.48612600  0.99736000  0.74974400  1
  Hg  Hg6  1  0.25479300  0.51923700  0.97272600  1
  Hg  Hg7  1  0.00264000  0.51387400  0.75025600  1
  Hg  Hg8  1  0.02822000  0.74442700  0.00429100  1
  Hg  Hg9  1  0.74520700  0.48076300  0.02727400  1
  Hg  Hg10  1  0.99736000  0.48612600  0.24974400  1
  Hg  Hg11  1  0.97178000  0.25557300  0.99570900  1
  Hg  Hg12  1  0.95728700  0.04271300  0.75000000  1
  Hg  Hg13  1  0.24909400  0.48104000  0.46272600  1
  Hg  Hg14  1  0.51896000  0.75090600  0.03727400  1
  Hg  Hg15  1  0.04271300  0.95728700  0.25000000  1
  Hg  Hg16  1  0.75090600  0.51896000  0.53727400  1
  Hg  Hg17  1  0.48104000  0.24909400  0.96272600  1
  Hg  Hg18  1  0.99085600  0.25621200  0.50432600  1
  Hg  Hg19  1  0.50384100  0.49615900  0.25000000  1
  Hg  Hg20  1  0.74378800  0.00914400  0.99567400  1
  Hg  Hg21  1  0.00914400  0.74378800  0.49567400  1
  Hg  Hg22  1  0.49615900  0.50384100  0.75000000  1
  Hg  Hg23  1  0.25621200  0.99085600  0.00432600  1
  Sb  Sb0  1  0.56095600  0.06212200  0.43701900  1
  Sb  Sb1  1  0.43904400  0.93787800  0.56298100  1
  Sb  Sb2  1  0.06212200  0.56095600  0.93701900  1
  Sb  Sb3  1  0.93787800  0.43904400  0.06298100  1
  Sb  Sb4  1  0.93609900  0.06690600  0.55176600  1
  Sb  Sb5  1  0.44528200  0.43709900  0.43530900  1
  Sb  Sb6  1  0.56341700  0.94739000  0.06326900  1
  Sb  Sb7  1  0.06390100  0.93309400  0.44823400  1
  Sb  Sb8  1  0.55471800  0.56290100  0.56469100  1
  Sb  Sb9  1  0.43658300  0.05261000  0.93673100  1
  Sb  Sb10  1  0.43709900  0.44528200  0.93530900  1
  Sb  Sb11  1  0.94739000  0.56341700  0.56326900  1
  Sb  Sb12  1  0.06690600  0.93609900  0.05176600  1
  Sb  Sb13  1  0.56290100  0.55471800  0.06469100  1
  Sb  Sb14  1  0.05261000  0.43658300  0.43673100  1
  Sb  Sb15  1  0.93309400  0.06390100  0.94823400  1
  I  I0  1  0.80421500  0.94050000  0.25408200  1
  I  I1  1  0.73723800  0.30570700  0.53166500  1
  I  I2  1  0.44135300  0.24307000  0.19521600  1
  I  I3  1  0.19578500  0.05950000  0.74591800  1
  I  I4  1  0.26276200  0.69429300  0.46833500  1
  I  I5  1  0.55864700  0.75693000  0.80478400  1
  I  I6  1  0.30570700  0.73723800  0.03166500  1
  I  I7  1  0.24307000  0.44135300  0.69521600  1
  I  I8  1  0.94050000  0.80421500  0.75408200  1
  I  I9  1  0.69429300  0.26276200  0.96833500  1
  I  I10  1  0.75693000  0.55864700  0.30478400  1
  I  I11  1  0.05950000  0.19578500  0.24591800  1
  I  I12  1  0.75263700  0.80076200  0.52683300  1
  I  I13  1  0.47323600  0.24183800  0.70097200  1
  I  I14  1  0.29898600  0.97787400  0.25382400  1
  I  I15  1  0.24736300  0.19923800  0.47316700  1
  I  I16  1  0.52676400  0.75816200  0.29902800  1
  I  I17  1  0.70101400  0.02212600  0.74617600  1
  I  I18  1  0.24183800  0.47323600  0.20097200  1
  I  I19  1  0.97787400  0.29898600  0.75382400  1
  I  I20  1  0.80076200  0.75263700  0.02683300  1
  I  I21  1  0.75816200  0.52676400  0.79902800  1
  I  I22  1  0.02212600  0.70101400  0.24617600  1
  I  I23  1  0.19923800  0.24736300  0.97316700  1
loop_
_geom_bond_atom_site_label_1
_geom_bond_atom_site_label_2
_geom_bond_distance
_geom_bond_site_symmetry_2
Cd0 I0 2.833381 1_555
Cd0 I10 2.848138 1_555
Cd0 I12 2.859368 1_555
Cd0 I16 2.876438 1_555
Cd1 I3 2.833381 1_555
Cd1 I7 2.848138 1_555
Cd1 I15 2.859368 1_555
Cd1 I13 2.876438 1_555
Cd2 I8 2.833381 1_555
Cd2 I5 2.848138 1_555
Cd2 I20 2.859368 1_556
Cd2 I21 2.876438 1_555
Cd3 I11 2.833381 1_555
Cd3 I2 2.848138 1_555
Cd3 I23 2.859368 1_554
Cd3 I18 2.876438 1_555
Hg0 Sb0 2.771644 1_555
Hg0 Sb4 2.792474 1_555
Hg0 I12 3.172982 1_545
Hg0 I17 3.386630 1_555
Hg1 Sb5 2.795863 1_555
Hg1 Sb0 2.798405 1_555
Hg1 I13 3.209946 1_555
Hg1 I1 3.212060 1_555
Hg2 Sb6 2.786591 1_545
Hg2 Sb0 2.803057 1_555
Hg2 I14 2.994901 1_545
Hg3 Sb1 2.771644 1_555
Hg3 Sb7 2.792474 1_555
Hg3 I15 3.172982 1_565
Hg3 I14 3.386630 1_555
Hg4 Sb8 2.795863 1_555
Hg4 Sb1 2.798405 1_555
Hg4 I16 3.209946 1_555
Hg4 I4 3.212060 1_555
Hg5 Sb9 2.786591 1_565
Hg5 Sb1 2.803057 1_555
Hg5 I17 2.994901 1_565
Hg6 Sb10 2.795863 1_555
Hg6 Sb2 2.798405 1_555
Hg6 I18 3.209946 1_556
Hg6 I6 3.212060 1_556
Hg7 Sb11 2.786591 1_455
Hg7 Sb2 2.803057 1_555
Hg7 I19 2.994901 1_455
Hg8 Sb2 2.771644 1_554
Hg8 Sb12 2.792474 1_555
Hg8 I20 3.172982 1_455
Hg8 I22 3.386630 1_555
Hg9 Sb13 2.795863 1_555
Hg9 Sb3 2.798405 1_555
Hg9 I21 3.209946 1_554
Hg9 I9 3.212060 1_554
Hg10 Sb14 2.786591 1_655
Hg10 Sb3 2.803057 1_555
Hg10 I22 2.994901 1_655
Hg11 Sb3 2.771644 1_556
Hg11 Sb15 2.792474 1_555
Hg11 I23 3.172982 1_655
Hg11 I19 3.386630 1_555
Hg12 Sb15 2.775244 1_555
Hg12 Sb4 2.775244 1_555
Hg12 I3 3.313486 1_655
Hg12 I8 3.313486 1_545
Hg13 Sb14 2.812709 1_555
Hg13 Sb5 2.825235 1_555
Hg13 I4 2.964515 1_555
Hg13 I7 3.250618 1_555
Hg14 Sb6 2.812709 1_555
Hg14 Sb13 2.825235 1_555
Hg14 I6 2.964515 1_555
Hg14 I5 3.250618 1_554
Hg15 Sb12 2.775244 1_555
Hg15 Sb7 2.775244 1_555
Hg15 I11 3.313486 1_565
Hg15 I0 3.313486 1_455
Hg16 Sb11 2.812709 1_555
Hg16 Sb8 2.825235 1_555
Hg16 I1 2.964515 1_555
Hg16 I10 3.250618 1_555
Hg17 Sb9 2.812709 1_555
Hg17 Sb10 2.825235 1_555
Hg17 I9 2.964515 1_555
Hg17 I2 3.250618 1_556
Hg18 Sb14 2.772991 1_655
Hg18 Sb4 2.785685 1_555
Hg19 Sb5 2.781234 1_555
Hg19 Sb13 2.781234 1_555
Hg20 Sb6 2.772991 1_546
Hg20 Sb15 2.785685 1_555
Hg21 Sb11 2.772991 1_455
Hg21 Sb7 2.785685 1_555
Hg22 Sb8 2.781234 1_555
Hg22 Sb10 2.781234 1_555
Hg23 Sb9 2.772991 1_564
Hg23 Sb12 2.785685 1_555
Sb0 Sb1 2.926350 1_545
Sb2 Sb3 2.926350 1_456
Sb4 Sb7 2.965195 1_645
Sb5 Sb8 2.934284 1_555
Sb6 Sb9 2.901472 1_564
Sb10 Sb13 2.934284 1_556
Sb11 Sb14 2.901472 1_655
Sb12 Sb15 2.965195 1_464
