# generated using pymatgen
data_Mn4SiMoC
_symmetry_space_group_name_H-M   'P 1'
_cell_length_a   6.50102733
_cell_length_b   6.50102733
_cell_length_c   7.63657600
_cell_angle_alpha   90.00000000
_cell_angle_beta   90.00000000
_cell_angle_gamma   103.17430526
_symmetry_Int_Tables_number   1
_chemical_formula_structural   Mn4SiMoC
_chemical_formula_sum   'Mn16 Si4 Mo4 C4'
_cell_volume   314.25301396
_cell_formula_units_Z   4
loop_
 _symmetry_equiv_pos_site_id
 _symmetry_equiv_pos_as_xyz
  1  'x, y, z'
loop_
 _atom_site_type_symbol
 _atom_site_label
 _atom_site_symmetry_multiplicity
 _atom_site_fract_x
 _atom_site_fract_y
 _atom_site_fract_z
 _atom_site_occupancy
  Mn  Mn0  1  0.94697300  0.70198800  0.16396100  1
  Mn  Mn1  1  0.70198800  0.94697300  0.16396100  1
  Mn  Mn2  1  0.05302700  0.29801200  0.66396100  1
  Mn  Mn3  1  0.29801200  0.05302700  0.66396100  1
  Mn  Mn4  1  0.12205900  0.87191600  0.91700400  1
  Mn  Mn5  1  0.87191600  0.12205900  0.91700400  1
  Mn  Mn6  1  0.87794100  0.12808400  0.41700400  1
  Mn  Mn7  1  0.12808400  0.87794100  0.41700400  1
  Mn  Mn8  1  0.55135300  0.55135300  0.15834700  1
  Mn  Mn9  1  0.44864700  0.44864700  0.65834700  1
  Mn  Mn10  1  0.87925200  0.87925200  0.67057000  1
  Mn  Mn11  1  0.12074800  0.12074800  0.17057000  1
  Mn  Mn12  1  0.81024200  0.51453500  0.85195600  1
  Mn  Mn13  1  0.51453500  0.81024200  0.85195600  1
  Mn  Mn14  1  0.18975800  0.48546500  0.35195600  1
  Mn  Mn15  1  0.48546500  0.18975800  0.35195600  1
  Si  Si0  1  0.16957700  0.66476700  0.66838400  1
  Si  Si1  1  0.66476700  0.16957700  0.66838400  1
  Si  Si2  1  0.83042300  0.33523300  0.16838400  1
  Si  Si3  1  0.33523300  0.83042300  0.16838400  1
  Mo  Mo0  1  0.80928500  0.51458100  0.47945600  1
  Mo  Mo1  1  0.51458100  0.80928500  0.47945600  1
  Mo  Mo2  1  0.19071500  0.48541900  0.97945600  1
  Mo  Mo3  1  0.48541900  0.19071500  0.97945600  1
  C  C0  1  0.81942500  0.81942500  0.37186300  1
  C  C1  1  0.18057500  0.18057500  0.87186300  1
  C  C2  1  0.80366500  0.80366500  0.95460000  1
  C  C3  1  0.19633500  0.19633500  0.45460000  1
loop_
_geom_bond_atom_site_label_1
_geom_bond_atom_site_label_2
_geom_bond_distance
_geom_bond_site_symmetry_2
Mn0 Si2 2.331646 1_555
Mn0 Si3 2.471570 1_655
Mn1 Si3 2.331646 1_555
Mn1 Si2 2.471570 1_565
Mn2 Si0 2.331646 1_555
Mn2 Si1 2.471570 1_455
Mn3 Si1 2.331646 1_555
Mn3 Si0 2.471570 1_545
Mn4 Si0 2.388161 1_555
Mn4 Si3 2.418455 1_556
Mn5 Si1 2.388161 1_555
Mn5 Si2 2.418455 1_556
Mn6 Si2 2.388161 1_555
Mn6 Si1 2.418455 1_555
Mn7 Si3 2.388161 1_555
Mn7 Si0 2.418455 1_555
Mn8 Si3 2.536393 1_555
Mn8 Si2 2.536393 1_555
Mn8 Mo2 2.662457 1_554
Mn8 Mo3 2.662457 1_554
Mn9 Si1 2.536393 1_555
Mn9 Si0 2.536393 1_555
Mn9 Mo0 2.662457 1_555
Mn9 Mo1 2.662457 1_555
Mn10 Si1 2.589692 1_565
Mn10 Si0 2.589692 1_655
Mn11 Si2 2.589692 1_455
Mn11 Si3 2.589692 1_545
Mn12 Si1 2.630977 1_555
Mn12 Si2 2.699032 1_556
Mn12 Si0 2.708544 1_655
Mn13 Si0 2.630977 1_555
Mn13 Si3 2.699032 1_556
Mn13 Si1 2.708544 1_565
Mn14 Si3 2.630977 1_555
Mn14 Si0 2.699032 1_555
Mn14 Si2 2.708544 1_455
Mn15 Si2 2.630977 1_555
Mn15 Si1 2.699032 1_555
Mn15 Si3 2.708544 1_545
Mo0 Si1 2.652213 1_555
Mo0 Si2 2.663544 1_555
Mo0 Si0 2.734709 1_655
Mo1 Si0 2.652213 1_555
Mo1 Si3 2.663544 1_555
Mo1 Si1 2.734709 1_565
Mo2 Si3 2.652213 1_556
Mo2 Si0 2.663544 1_555
Mo2 Si2 2.734709 1_456
Mo3 Si2 2.652213 1_556
Mo3 Si1 2.663544 1_555
Mo3 Si3 2.734709 1_546
C0 Mn7 1.985458 1_655
C0 Mn6 1.985458 1_565
C0 Mn0 2.019817 1_555
C0 Mn1 2.019817 1_555
C0 Mo0 2.132468 1_555
C0 Mo1 2.132468 1_555
C0 Mn10 2.331738 1_555
C0 Mn8 2.710815 1_555
C1 Mn4 1.985458 1_545
C1 Mn5 1.985458 1_455
C1 Mn2 2.019817 1_555
C1 Mn3 2.019817 1_555
C1 Mo2 2.132468 1_555
C1 Mo3 2.132468 1_555
C1 Mn11 2.331738 1_556
C1 Mn9 2.710815 1_555
C2 Mn0 2.035135 1_556
C2 Mn1 2.035135 1_556
C2 Mn4 2.035951 1_655
C2 Mn5 2.035951 1_565
C2 Mn12 2.045956 1_555
C2 Mn13 2.045956 1_555
C2 Mn10 2.253331 1_555
C2 Mn8 2.564288 1_556
C3 Mn3 2.035135 1_555
C3 Mn2 2.035135 1_555
C3 Mn7 2.035951 1_545
C3 Mn6 2.035951 1_455
C3 Mn15 2.045956 1_555
C3 Mn14 2.045956 1_555
C3 Mn11 2.253331 1_555
C3 Mn9 2.564288 1_555
