# generated using pymatgen
data_MgV6O5F19
_symmetry_space_group_name_H-M   'P 1'
_cell_length_a   5.44278100
_cell_length_b   5.33710136
_cell_length_c   15.64346731
_cell_angle_alpha   89.91407715
_cell_angle_beta   100.17227121
_cell_angle_gamma   92.06845680
_symmetry_Int_Tables_number   1
_chemical_formula_structural   MgV6O5F19
_chemical_formula_sum   'Mg1 V6 O5 F19'
_cell_volume   446.98208040
_cell_formula_units_Z   1
loop_
 _symmetry_equiv_pos_site_id
 _symmetry_equiv_pos_as_xyz
  1  'x, y, z'
loop_
 _atom_site_type_symbol
 _atom_site_label
 _atom_site_symmetry_multiplicity
 _atom_site_fract_x
 _atom_site_fract_y
 _atom_site_fract_z
 _atom_site_occupancy
  Mg  Mg0  1  0.50471500  0.25546700  0.51506000  1
  V  V0  1  0.05214400  0.96042900  0.00643900  1
  V  V1  1  0.13839600  0.48922300  0.31970600  1
  V  V2  1  0.30810500  0.06649000  0.67400800  1
  V  V3  1  0.53855300  0.45128000  0.99505400  1
  V  V4  1  0.66561800  0.00278100  0.32043400  1
  V  V5  1  0.83267100  0.51874700  0.67910100  1
  O  O0  1  0.04256800  0.22118700  0.66170800  1
  O  O1  1  0.52865500  0.30034200  0.65660000  1
  O  O2  1  0.70206400  0.22568500  0.96979900  1
  O  O3  1  0.29819500  0.79733600  0.03027400  1
  O  O4  1  0.88849300  0.27323500  0.31315200  1
  F  F0  1  0.21329700  0.27112100  0.97320600  1
  F  F1  1  0.13234300  0.72555300  0.67612600  1
  F  F2  1  0.02653800  0.10398400  0.10631900  1
  F  F3  1  0.24437700  0.42432300  0.44547600  1
  F  F4  1  0.38946900  0.04566500  0.78747900  1
  F  F5  1  0.12118400  0.60306200  0.21125900  1
  F  F6  1  0.30418700  0.97245700  0.55555700  1
  F  F7  1  0.44543500  0.60464500  0.89432000  1
  F  F8  1  0.38438700  0.22771800  0.30292400  1
  F  F9  1  0.44521700  0.72572200  0.34867300  1
  F  F10  1  0.64716300  0.80217700  0.68395000  1
  F  F11  1  0.53516700  0.40733100  0.10700000  1
  F  F12  1  0.68980300  0.07614400  0.44260400  1
  F  F13  1  0.89566600  0.45327800  0.79012100  1
  F  F14  1  0.60808700  0.91168200  0.21146000  1
  F  F15  1  0.76761500  0.52113200  0.55522100  1
  F  F16  1  0.94899200  0.90313200  0.89382800  1
  F  F17  1  0.80506900  0.70408200  0.02789200  1
  F  F18  1  0.94344600  0.77958600  0.34971500  1
loop_
_geom_bond_atom_site_label_1
_geom_bond_atom_site_label_2
_geom_bond_distance
_geom_bond_site_symmetry_2
Mg0 O1 2.207793 1_555
O0 V2 1.671797 1_555
O0 V5 2.035511 1_455
O1 V2 1.754753 1_555
O1 V5 1.968988 1_555
O2 V3 1.612682 1_555
O3 V0 1.611509 1_555
O4 V1 1.739917 1_655
O4 V4 1.868135 1_555
F0 V3 1.959514 1_555
F0 V0 1.960284 1_546
F1 V5 1.943564 1_455
F1 V2 2.027956 1_565
F2 V0 1.770865 1_545
F3 Mg0 1.883955 1_555
F3 V1 1.983733 1_555
F4 V2 1.756325 1_555
F5 V1 1.789097 1_555
F6 V2 1.916750 1_565
F6 Mg0 1.999095 1_565
F7 V3 1.775968 1_555
F8 V4 1.960307 1_555
F8 V1 2.017318 1_555
F9 V4 1.969233 1_565
F9 V1 2.041952 1_555
F10 V5 1.857714 1_555
F10 V2 2.346406 1_565
F11 V3 1.769745 1_554
F12 Mg0 1.921386 1_555
F12 V4 1.932056 1_555
F13 V5 1.747113 1_555
F14 V4 1.744563 1_565
F15 V5 1.907596 1_555
F15 Mg0 1.997816 1_555
F16 V0 1.775367 1_656
F17 V3 1.945792 1_554
F17 V0 1.953996 1_655
F18 V4 1.949144 1_565
F18 V1 2.011127 1_655
