# generated using pymatgen
data_Li4Co3O7
_symmetry_space_group_name_H-M   'P 1'
_cell_length_a   5.10216200
_cell_length_b   7.67889625
_cell_length_c   7.68966954
_cell_angle_alpha   60.50875328
_cell_angle_beta   71.31139742
_cell_angle_gamma   77.88420486
_symmetry_Int_Tables_number   1
_chemical_formula_structural   Li4Co3O7
_chemical_formula_sum   'Li8 Co6 O14'
_cell_volume   247.91362913
_cell_formula_units_Z   2
loop_
 _symmetry_equiv_pos_site_id
 _symmetry_equiv_pos_as_xyz
  1  'x, y, z'
loop_
 _atom_site_type_symbol
 _atom_site_label
 _atom_site_symmetry_multiplicity
 _atom_site_fract_x
 _atom_site_fract_y
 _atom_site_fract_z
 _atom_site_occupancy
  Li  Li0  1  0.49037200  0.78790100  0.63927500  1
  Li  Li1  1  0.50473200  0.06929600  0.78176700  1
  Li  Li2  1  0.50036800  0.36024700  0.92577900  1
  Li  Li3  1  0.49963200  0.63975300  0.07422100  1
  Li  Li4  1  0.49526800  0.93070400  0.21823300  1
  Li  Li5  1  0.50962800  0.21209900  0.36072500  1
  Li  Li6  1  0.50000000  0.50000000  0.50000000  1
  Li  Li7  1  0.00000000  0.00000000  0.50000000  1
  Co  Co0  1  0.99336300  0.57600500  0.78358400  1
  Co  Co1  1  0.00663700  0.42399500  0.21641600  1
  Co  Co2  1  0.00665400  0.85920000  0.92549000  1
  Co  Co3  1  0.99334600  0.14080000  0.07451000  1
  Co  Co4  1  0.00284400  0.71855400  0.36393600  1
  Co  Co5  1  0.99715600  0.28144600  0.63606400  1
  O  O0  1  0.23830200  0.74202800  0.49532400  1
  O  O1  1  0.22852200  0.02523300  0.66972300  1
  O  O2  1  0.20857400  0.31742900  0.80412400  1
  O  O3  1  0.22780100  0.62176600  0.93043000  1
  O  O4  1  0.21636100  0.90450800  0.06741900  1
  O  O5  1  0.21682200  0.18887200  0.19633300  1
  O  O6  1  0.24044800  0.45787100  0.36120500  1
  O  O7  1  0.78317800  0.81112800  0.80366700  1
  O  O8  1  0.78363900  0.09549200  0.93258100  1
  O  O9  1  0.77219900  0.37823400  0.06957000  1
  O  O10  1  0.79142600  0.68257100  0.19587600  1
  O  O11  1  0.77147800  0.97476700  0.33027700  1
  O  O12  1  0.76169800  0.25797200  0.50467600  1
  O  O13  1  0.75955200  0.54212900  0.63879500  1
loop_
_geom_bond_atom_site_label_1
_geom_bond_atom_site_label_2
_geom_bond_distance
_geom_bond_site_symmetry_2
Li0 O1 2.087732 1_565
Li0 O13 2.088911 1_555
Li0 O3 2.101889 1_555
Li0 O0 2.118930 1_555
Li0 O11 2.254975 1_555
Li0 O7 2.325033 1_555
Li1 O1 2.026857 1_555
Li1 O12 2.079837 1_555
Li1 O4 2.136503 1_546
Li1 O7 2.149215 1_545
Li1 O8 2.194958 1_555
Li1 O2 2.211509 1_555
Li2 O5 2.080333 1_556
Li2 O9 2.092550 1_556
Li2 O13 2.107104 1_555
Li2 O2 2.144892 1_555
Li2 O3 2.198765 1_555
Li2 O8 2.221512 1_555
Li3 O7 2.080333 1_554
Li3 O3 2.092550 1_554
Li3 O6 2.107104 1_555
Li3 O10 2.144892 1_555
Li3 O9 2.198765 1_555
Li3 O4 2.221512 1_555
Li4 O11 2.026857 1_555
Li4 O0 2.079837 1_555
Li4 O8 2.136503 1_564
Li4 O5 2.149215 1_565
Li4 O4 2.194958 1_555
Li4 O10 2.211509 1_555
Li5 O11 2.087732 1_545
Li5 O6 2.088911 1_555
Li5 O9 2.101889 1_555
Li5 O12 2.118930 1_555
Li5 O1 2.254975 1_555
Li5 O5 2.325033 1_555
Li6 O12 2.039965 1_555
Li6 O0 2.039965 1_555
Li6 O13 2.103097 1_555
Li6 O6 2.103097 1_555
Li6 O10 2.250336 1_555
Li6 O2 2.250336 1_555
Li7 O1 2.102218 1_555
Li7 O11 2.102218 1_445
Li7 O0 2.105894 1_545
Li7 O12 2.105894 1_455
Li7 O7 2.112713 1_445
Li7 O5 2.112713 1_555
Co0 O7 1.946609 1_555
Co0 O13 1.999247 1_555
Co0 O2 2.015022 1_655
Co0 O0 2.052249 1_655
Co0 O9 2.063172 1_556
Co0 O3 2.064464 1_655
Co1 O5 1.946609 1_555
Co1 O6 1.999247 1_555
Co1 O10 2.015022 1_455
Co1 O12 2.052249 1_455
Co1 O3 2.063172 1_554
Co1 O9 2.064464 1_455
Co2 O1 1.866895 1_565
Co2 O7 1.874982 1_455
Co2 O3 1.922095 1_555
Co2 O4 1.932731 1_556
Co2 O10 1.937511 1_456
Co2 O8 1.944466 1_465
Co3 O11 1.866895 1_545
Co3 O5 1.874982 1_655
Co3 O9 1.922095 1_555
Co3 O8 1.932731 1_554
Co3 O2 1.937511 1_654
Co3 O4 1.944466 1_645
Co4 O0 1.882693 1_555
Co4 O13 2.012158 1_455
Co4 O11 2.012658 1_455
Co4 O10 2.068833 1_455
Co4 O4 2.068867 1_555
Co4 O6 2.117434 1_555
Co5 O12 1.882693 1_555
Co5 O6 2.012158 1_655
Co5 O1 2.012658 1_655
Co5 O2 2.068833 1_655
Co5 O8 2.068867 1_555
Co5 O13 2.117434 1_555
