# generated using pymatgen
data_Na3FeO3
_symmetry_space_group_name_H-M   'P 1'
_cell_length_a   5.93986993
_cell_length_b   5.90064654
_cell_length_c   12.48150906
_cell_angle_alpha   90.48858065
_cell_angle_beta   89.20109006
_cell_angle_gamma   115.56987076
_symmetry_Int_Tables_number   1
_chemical_formula_structural   Na3FeO3
_chemical_formula_sum   'Na12 Fe4 O12'
_cell_volume   394.57991219
_cell_formula_units_Z   4
loop_
 _symmetry_equiv_pos_site_id
 _symmetry_equiv_pos_as_xyz
  1  'x, y, z'
loop_
 _atom_site_type_symbol
 _atom_site_label
 _atom_site_symmetry_multiplicity
 _atom_site_fract_x
 _atom_site_fract_y
 _atom_site_fract_z
 _atom_site_occupancy
  Na  Na0  1  0.85784600  0.30162500  0.77767100  1
  Na  Na1  1  0.64159000  0.19741000  0.28088100  1
  Na  Na2  1  0.24362800  0.77919400  0.48427000  1
  Na  Na3  1  0.36000500  0.80494000  0.72177000  1
  Na  Na4  1  0.74199600  0.28191900  0.01643100  1
  Na  Na5  1  0.75553400  0.22237200  0.51577000  1
  Na  Na6  1  0.29269300  0.35207400  0.59859000  1
  Na  Na7  1  0.20394100  0.14802200  0.09818700  1
  Na  Na8  1  0.70944200  0.64021400  0.40268100  1
  Na  Na9  1  0.79148400  0.85911900  0.89889000  1
  Na  Na10  1  0.25868800  0.72005900  0.98269300  1
  Na  Na11  1  0.14249900  0.69785100  0.22408900  1
  Fe  Fe0  1  0.32369400  0.24081000  0.84106700  1
  Fe  Fe1  1  0.17806300  0.26741500  0.34243400  1
  Fe  Fe2  1  0.67918100  0.75945800  0.16424300  1
  Fe  Fe3  1  0.82641800  0.74042500  0.65902700  1
  O  O0  1  0.57401600  0.53229000  0.77334600  1
  O  O1  1  0.90536700  0.94898600  0.26090900  1
  O  O2  1  0.44218700  0.46836500  0.21654900  1
  O  O3  1  0.07114000  0.02972900  0.72929700  1
  O  O4  1  0.51013600  0.93759000  0.12887900  1
  O  O5  1  0.00397700  0.55123400  0.63247600  1
  O  O6  1  0.10905600  0.30675300  0.93551600  1
  O  O7  1  0.38940000  0.19214100  0.43580900  1
  O  O8  1  0.87790500  0.70301400  0.06688500  1
  O  O9  1  0.61556700  0.80595900  0.56880500  1
  O  O10  1  0.50068900  0.05134600  0.87211600  1
  O  O11  1  0.99385800  0.45968300  0.37071700  1
loop_
_geom_bond_atom_site_label_1
_geom_bond_atom_site_label_2
_geom_bond_distance
_geom_bond_site_symmetry_2
Na0 O5 2.259439 1_655
Na0 O10 2.307957 1_555
Na0 O6 2.480100 1_655
Na0 O3 2.502083 1_655
Na0 O0 2.585019 1_555
Na1 O11 2.295885 1_555
Na1 O4 2.349016 1_545
Na1 O7 2.421626 1_555
Na1 O2 2.507366 1_555
Na1 O1 2.575114 1_545
Na2 O7 2.289576 1_565
Na2 O11 2.315785 1_455
Na2 O5 2.360867 1_555
Na2 O9 2.404179 1_555
Na3 O5 2.293447 1_555
Na3 O10 2.298282 1_565
Na3 O9 2.420960 1_555
Na3 O0 2.534660 1_555
Na3 O3 2.582666 1_565
Na4 O6 2.336758 1_654
Na4 O8 2.340544 1_555
Na4 O10 2.344545 1_554
Na4 O4 2.360919 1_545
Na5 O9 2.327178 1_545
Na5 O7 2.340984 1_555
Na5 O11 2.345898 1_555
Na5 O5 2.367477 1_655
Na6 O7 2.398180 1_555
Na6 O3 2.417330 1_555
Na6 O5 2.492370 1_555
Na6 O9 2.559763 1_555
Na6 O0 2.684960 1_555
Na7 O2 2.336607 1_555
Na7 O6 2.416063 1_554
Na7 O8 2.532201 1_445
Na7 O1 2.606121 1_445
Na7 O4 2.640719 1_545
Na8 O11 2.382312 1_555
Na8 O9 2.443491 1_555
Na8 O1 2.443838 1_555
Na8 O7 2.536373 1_555
Na8 O2 2.760197 1_555
Na9 O0 2.386973 1_555
Na9 O8 2.445361 1_556
Na9 O10 2.468912 1_565
Na9 O6 2.538971 1_665
Na9 O3 2.597745 1_665
Na10 O6 2.281076 1_555
Na10 O10 2.314625 1_565
Na10 O4 2.364047 1_556
Na10 O8 2.443212 1_456
Na11 O11 2.243135 1_455
Na11 O4 2.339160 1_555
Na11 O1 2.482573 1_455
Na11 O8 2.539562 1_455
Na11 O2 2.661804 1_555
Fe0 O10 1.881128 1_555
Fe0 O6 1.882830 1_555
Fe0 O0 1.914580 1_555
Fe0 O3 2.040527 1_555
Fe1 O7 1.913721 1_555
Fe1 O11 1.913853 1_455
Fe1 O1 2.139083 1_445
Fe1 O2 2.166401 1_555
Fe2 O1 1.799067 1_555
Fe2 O4 1.799773 1_555
Fe2 O2 1.806774 1_555
Fe2 O8 1.809246 1_555
Fe3 O9 1.857698 1_555
Fe3 O5 1.862444 1_655
Fe3 O3 1.914254 1_665
Fe3 O0 2.042742 1_555
