# generated using pymatgen
data_Mn6BP
_symmetry_space_group_name_H-M   'P 1'
_cell_length_a   4.29610000
_cell_length_b   6.58720147
_cell_length_c   6.47902464
_cell_angle_alpha   95.04926063
_cell_angle_beta   109.36221925
_cell_angle_gamma   70.96810344
_symmetry_Int_Tables_number   1
_chemical_formula_structural   Mn6BP
_chemical_formula_sum   'Mn12 B2 P2'
_cell_volume   163.48440793
_cell_formula_units_Z   2
loop_
 _symmetry_equiv_pos_site_id
 _symmetry_equiv_pos_as_xyz
  1  'x, y, z'
loop_
 _atom_site_type_symbol
 _atom_site_label
 _atom_site_symmetry_multiplicity
 _atom_site_fract_x
 _atom_site_fract_y
 _atom_site_fract_z
 _atom_site_occupancy
  Mn  Mn0  1  0.65667400  0.38293800  0.68073100  1
  Mn  Mn1  1  0.35888000  0.61706200  0.31926900  1
  Mn  Mn2  1  0.01590200  0.33562200  0.38919600  1
  Mn  Mn3  1  0.96232900  0.66437800  0.61080400  1
  Mn  Mn4  1  0.06702400  0.39745400  0.04070300  1
  Mn  Mn5  1  0.42377400  0.60254600  0.95929700  1
  Mn  Mn6  1  0.97332400  0.94302100  0.38397600  1
  Mn  Mn7  1  0.53236800  0.05697900  0.61602400  1
  Mn  Mn8  1  0.68260900  0.18996900  0.01744100  1
  Mn  Mn9  1  0.85513700  0.81003100  0.98255900  1
  Mn  Mn10  1  0.34472800  0.96124600  0.18404900  1
  Mn  Mn11  1  0.12192500  0.03875400  0.81595100  1
  B  B0  1  0.21575300  0.33649400  0.75169000  1
  B  B1  1  0.80055600  0.66350600  0.24831000  1
  P  P0  1  0.53657300  0.25025900  0.33438700  1
  P  P1  1  0.45244500  0.74974100  0.66561300  1
loop_
_geom_bond_atom_site_label_1
_geom_bond_atom_site_label_2
_geom_bond_distance
_geom_bond_site_symmetry_2
Mn0 P1 2.284627 1_555
Mn0 P0 2.290554 1_555
Mn1 P0 2.284626 1_555
Mn1 P1 2.290554 1_555
Mn2 P0 2.217641 1_455
Mn2 P0 2.262088 1_555
Mn3 P1 2.217645 1_555
Mn3 P1 2.262084 1_655
Mn4 P0 2.265820 1_555
Mn5 P1 2.265822 1_555
Mn6 P0 2.226626 1_565
Mn6 P1 2.323088 1_655
Mn7 P1 2.226624 1_545
Mn7 P0 2.323090 1_555
Mn8 P0 2.305735 1_555
Mn9 P1 2.305735 1_555
Mn10 P0 2.327456 1_565
Mn11 P1 2.327456 1_545
B0 Mn4 2.137639 1_556
B0 Mn8 2.158479 1_556
B0 Mn3 2.199524 1_455
B0 Mn0 2.207550 1_555
B0 Mn0 2.210704 1_455
B0 Mn7 2.210748 1_555
B0 Mn2 2.217412 1_555
B0 Mn11 2.225545 1_555
B0 Mn5 2.342811 1_555
B1 Mn5 2.137639 1_554
B1 Mn9 2.158481 1_554
B1 Mn2 2.199524 1_655
B1 Mn1 2.207550 1_655
B1 Mn1 2.210704 1_555
B1 Mn6 2.210752 1_555
B1 Mn3 2.217412 1_555
B1 Mn10 2.225543 1_555
B1 Mn4 2.342815 1_655
