# generated using pymatgen
data_InAgSnS4
_symmetry_space_group_name_H-M   'P 1'
_cell_length_a   7.73367899
_cell_length_b   7.73367899
_cell_length_c   7.73367899
_cell_angle_alpha   120.13307537
_cell_angle_beta   119.78993013
_cell_angle_gamma   90.06694872
_symmetry_Int_Tables_number   1
_chemical_formula_structural   InAgSnS4
_chemical_formula_sum   'In2 Ag2 Sn2 S8'
_cell_volume   327.25845891
_cell_formula_units_Z   2
loop_
 _symmetry_equiv_pos_site_id
 _symmetry_equiv_pos_as_xyz
  1  'x, y, z'
loop_
 _atom_site_type_symbol
 _atom_site_label
 _atom_site_symmetry_multiplicity
 _atom_site_fract_x
 _atom_site_fract_y
 _atom_site_fract_z
 _atom_site_occupancy
  In  In0  1  0.00000000  0.50000000  0.50000000  1
  In  In1  1  0.50000000  0.50000000  0.00000000  1
  Ag  Ag0  1  0.12836600  0.87836600  0.25000000  1
  Ag  Ag1  1  0.87163400  0.12163400  0.75000000  1
  Sn  Sn0  1  0.50000000  0.00000000  0.00000000  1
  Sn  Sn1  1  0.50000000  0.50000000  0.50000000  1
  S  S0  1  0.27432300  0.25483800  0.01948500  1
  S  S1  1  0.73535200  0.25483800  0.48051500  1
  S  S2  1  0.73667500  0.71949300  0.48281800  1
  S  S3  1  0.73667500  0.25385800  0.01718200  1
  S  S4  1  0.72567700  0.74516200  0.98051500  1
  S  S5  1  0.26464800  0.74516200  0.51948500  1
  S  S6  1  0.26332500  0.28050700  0.51718200  1
  S  S7  1  0.26332500  0.74614200  0.98281800  1
loop_
_geom_bond_atom_site_label_1
_geom_bond_atom_site_label_2
_geom_bond_distance
_geom_bond_site_symmetry_2
In0 S7 2.648018 1_555
In0 S3 2.648018 1_455
In0 S6 2.648018 1_555
In0 S2 2.648018 1_455
In0 S1 2.684054 1_455
In0 S5 2.684054 1_555
In1 S7 2.648012 1_554
In1 S3 2.648012 1_555
In1 S6 2.648018 1_554
In1 S2 2.648018 1_555
In1 S0 2.684048 1_555
In1 S4 2.684048 1_554
Ag0 S7 2.535474 1_554
Ag0 S6 2.535474 1_565
Ag0 S4 2.547763 1_454
Ag0 S5 2.547763 1_555
Ag1 S3 2.535474 1_556
Ag1 S2 2.535474 1_545
Ag1 S0 2.547763 1_656
Ag1 S1 2.547763 1_555
S0 Sn1 2.631389 1_555
S0 Sn0 2.631389 1_555
S1 Sn1 2.631383 1_555
S1 Sn0 2.631389 1_555
S2 Sn1 2.590416 1_555
S3 Sn0 2.590422 1_555
S4 Sn0 2.631389 1_566
S4 Sn1 2.631389 1_555
S5 Sn1 2.631383 1_555
S5 Sn0 2.631389 1_566
S6 Sn1 2.590416 1_555
S7 Sn0 2.590422 1_566
