# generated using pymatgen
data_Mo4H12N2O15
_symmetry_space_group_name_H-M   'P 1'
_cell_length_a   8.04694125
_cell_length_b   10.39780809
_cell_length_c   10.86346739
_cell_angle_alpha   114.40244898
_cell_angle_beta   99.68376823
_cell_angle_gamma   105.87432430
_symmetry_Int_Tables_number   1
_chemical_formula_structural   Mo4H12N2O15
_chemical_formula_sum   'Mo8 H24 N4 O30'
_cell_volume   754.03749268
_cell_formula_units_Z   2
loop_
 _symmetry_equiv_pos_site_id
 _symmetry_equiv_pos_as_xyz
  1  'x, y, z'
loop_
 _atom_site_type_symbol
 _atom_site_label
 _atom_site_symmetry_multiplicity
 _atom_site_fract_x
 _atom_site_fract_y
 _atom_site_fract_z
 _atom_site_occupancy
  Mo  Mo0  1  0.25520300  0.44865300  0.43637300  1
  Mo  Mo1  1  0.74479700  0.55134700  0.56362700  1
  Mo  Mo2  1  0.40309500  0.18084000  0.42306900  1
  Mo  Mo3  1  0.59690500  0.81916000  0.57693100  1
  Mo  Mo4  1  0.61981800  0.37742100  0.77290800  1
  Mo  Mo5  1  0.38018200  0.62257900  0.22709200  1
  Mo  Mo6  1  0.46580600  0.64699700  0.77992400  1
  Mo  Mo7  1  0.53419400  0.35300300  0.22007600  1
  H  H0  1  0.85699800  0.17019800  0.32249600  1
  H  H1  1  0.14300200  0.82980200  0.67750400  1
  H  H2  1  0.66074500  0.04001800  0.24388900  1
  H  H3  1  0.33925500  0.95998200  0.75611100  1
  H  H4  1  0.80617400  0.75240300  0.04360700  1
  H  H5  1  0.19382600  0.24759700  0.95639300  1
  H  H6  1  0.87022600  0.92426800  0.16205400  1
  H  H7  1  0.12977400  0.07573200  0.83794600  1
  H  H8  1  0.02360800  0.20094200  0.74128600  1
  H  H9  1  0.97639200  0.79905800  0.25871400  1
  H  H10  1  0.04441200  0.18812400  0.58358100  1
  H  H11  1  0.95558800  0.81187600  0.41641900  1
  H  H12  1  0.06836600  0.35598500  0.71535900  1
  H  H13  1  0.93163400  0.64401500  0.28464100  1
  H  H14  1  0.85980500  0.21261700  0.62869200  1
  H  H15  1  0.14019500  0.78738300  0.37130800  1
  H  H16  1  0.07287000  0.84234200  0.01444700  1
  H  H17  1  0.92713000  0.15765800  0.98555300  1
  H  H18  1  0.20772100  0.88645400  0.91637400  1
  H  H19  1  0.79227900  0.11354600  0.08362600  1
  H  H20  1  0.15709000  0.71670500  0.91370700  1
  H  H21  1  0.84291000  0.28329500  0.08629300  1
  H  H22  1  0.29435700  0.87710000  0.06423000  1
  H  H23  1  0.70564300  0.12290000  0.93577000  1
  N  N0  1  0.99780500  0.23868300  0.66666600  1
  N  N1  1  0.00219500  0.76131700  0.33333400  1
  N  N2  1  0.18176200  0.83071900  0.97600400  1
  N  N3  1  0.81823800  0.16928100  0.02399600  1
  O  O0  1  0.45719900  0.43330700  0.58481400  1
  O  O1  1  0.54280100  0.56669300  0.41518600  1
  O  O2  1  0.30058500  0.27039800  0.30897700  1
  O  O3  1  0.69941500  0.72960200  0.69102300  1
  O  O4  1  0.58893600  0.21600300  0.58321600  1
  O  O5  1  0.41106400  0.78399700  0.41678400  1
  O  O6  1  0.63382600  0.58903900  0.87344400  1
  O  O7  1  0.36617400  0.41096100  0.12655600  1
  O  O8  1  0.35061600  0.65405600  0.60192000  1
  O  O9  1  0.64938400  0.34594400  0.39808000  1
  O  O10  1  0.05803400  0.35309000  0.45835500  1
  O  O11  1  0.94196600  0.64691000  0.54164500  1
  O  O12  1  0.17696400  0.49629200  0.30334900  1
  O  O13  1  0.82303600  0.50370800  0.69665100  1
  O  O14  1  0.20435600  0.10400900  0.45526700  1
  O  O15  1  0.79564400  0.89599100  0.54473300  1
  O  O16  1  0.42262000  0.02770900  0.28524700  1
  O  O17  1  0.57738000  0.97229100  0.71475300  1
  O  O18  1  0.41708100  0.28865000  0.79199200  1
  O  O19  1  0.58291900  0.71135000  0.20800800  1
  O  O20  1  0.78867300  0.36513000  0.88372300  1
  O  O21  1  0.21132700  0.63487000  0.11627700  1
  O  O22  1  0.25919900  0.55551300  0.79575500  1
  O  O23  1  0.74080100  0.44448700  0.20424500  1
  O  O24  1  0.53486200  0.83665300  0.90619400  1
  O  O25  1  0.46513800  0.16334700  0.09380600  1
  O  O26  1  0.78356800  0.07173000  0.23561800  1
  O  O27  1  0.21643200  0.92827000  0.76438200  1
  O  O28  1  0.91544600  0.84202800  0.11681300  1
  O  O29  1  0.08455400  0.15797200  0.88318700  1
loop_
_geom_bond_atom_site_label_1
_geom_bond_atom_site_label_2
_geom_bond_distance
_geom_bond_site_symmetry_2
Mo0 O10 1.738609 1_555
Mo0 O12 1.784952 1_555
Mo0 O8 1.962108 1_555
Mo0 O2 1.976060 1_555
Mo0 O0 2.177306 1_555
Mo0 O1 2.402920 1_555
Mo1 O11 1.738609 1_555
Mo1 O13 1.784952 1_555
Mo1 O9 1.962108 1_555
Mo1 O3 1.976060 1_555
Mo1 O1 2.177306 1_555
Mo1 O0 2.402920 1_555
Mo2 O14 1.743067 1_555
Mo2 O16 1.745779 1_555
Mo2 O4 1.922711 1_555
Mo2 O2 2.028233 1_555
Mo2 O0 2.339709 1_555
Mo2 O9 2.377700 1_555
Mo3 O15 1.743067 1_555
Mo3 O17 1.745779 1_555
Mo3 O5 1.922711 1_555
Mo3 O3 2.028233 1_555
Mo3 O1 2.339709 1_555
Mo3 O8 2.377700 1_555
Mo4 O20 1.727317 1_555
Mo4 O18 1.733375 1_555
Mo4 O4 1.966463 1_555
Mo4 O6 1.970870 1_555
Mo4 O13 2.294463 1_555
Mo4 O0 2.592856 1_555
Mo5 O21 1.727317 1_555
Mo5 O19 1.733375 1_555
Mo5 O5 1.966463 1_555
Mo5 O7 1.970870 1_555
Mo5 O12 2.294463 1_555
Mo5 O1 2.592856 1_555
Mo6 O24 1.728633 1_555
Mo6 O22 1.750633 1_555
Mo6 O6 1.926883 1_555
Mo6 O8 2.038484 1_555
Mo6 O0 2.325788 1_555
Mo6 O3 2.370050 1_555
Mo7 O25 1.728633 1_555
Mo7 O23 1.750633 1_555
Mo7 O7 1.926883 1_555
Mo7 O9 2.038484 1_555
Mo7 O1 2.325788 1_555
Mo7 O2 2.370050 1_555
H0 O26 0.985470 1_555
H1 O27 0.985470 1_555
H2 O26 0.984737 1_555
H3 O27 0.984737 1_555
H4 O28 0.989028 1_555
H5 O29 0.989028 1_555
H6 O28 0.994136 1_555
H7 O29 0.994136 1_555
H8 N0 1.051206 1_455
H9 N1 1.051206 1_655
H10 N0 1.030225 1_455
H11 N1 1.030225 1_655
H12 N0 1.037706 1_455
H13 N1 1.037706 1_655
H14 N0 1.032303 1_555
H15 N1 1.032303 1_555
H16 N2 1.046978 1_554
H17 N3 1.046978 1_556
H18 N2 1.043362 1_555
H19 N3 1.043362 1_555
H20 N2 1.032442 1_555
H21 N3 1.032442 1_555
H22 N2 1.029075 1_554
H23 N3 1.029075 1_556
