# generated using pymatgen
data_NdN2
_symmetry_space_group_name_H-M   'P 1'
_cell_length_a   6.62876338
_cell_length_b   6.62876338
_cell_length_c   6.21830137
_cell_angle_alpha   65.39976934
_cell_angle_beta   65.39976934
_cell_angle_gamma   43.22090722
_symmetry_Int_Tables_number   1
_chemical_formula_structural   NdN2
_chemical_formula_sum   'Nd3 N6'
_cell_volume   167.30989361
_cell_formula_units_Z   3
loop_
 _symmetry_equiv_pos_site_id
 _symmetry_equiv_pos_as_xyz
  1  'x, y, z'
loop_
 _atom_site_type_symbol
 _atom_site_label
 _atom_site_symmetry_multiplicity
 _atom_site_fract_x
 _atom_site_fract_y
 _atom_site_fract_z
 _atom_site_occupancy
  Nd  Nd0  1  0.36191700  0.36191700  0.93060600  1
  Nd  Nd1  1  0.17812100  0.17812100  0.52846100  1
  Nd  Nd2  1  0.58393400  0.58393400  0.17478700  1
  N  N0  1  0.15416400  0.15416400  0.18694700  1
  N  N1  1  0.61529200  0.61529200  0.74508000  1
  N  N2  1  0.81973000  0.81973000  0.86750400  1
  N  N3  1  0.38052200  0.38052200  0.27247800  1
  N  N4  1  0.60353400  0.60353400  0.55531600  1
  N  N5  1  0.92816700  0.92816700  0.78297100  1
loop_
_geom_bond_atom_site_label_1
_geom_bond_atom_site_label_2
_geom_bond_distance
_geom_bond_site_symmetry_2
N0 Nd1 2.271252 1_555
N0 Nd0 2.332962 1_554
N0 Nd2 2.602646 1_545
N0 Nd2 2.602646 1_455
N1 N4 1.251627 1_555
N1 Nd2 2.522770 1_556
N1 Nd1 2.727655 1_565
N1 Nd1 2.727655 1_655
N1 Nd0 2.803156 1_555
N2 N5 1.197304 1_555
N2 Nd0 2.562651 1_565
N2 Nd0 2.562651 1_655
N2 Nd2 2.669223 1_556
N3 Nd0 2.237956 1_554
N3 Nd1 2.280629 1_555
N3 Nd2 2.300236 1_555
N4 Nd2 2.483825 1_555
N4 Nd1 2.587604 1_565
N4 Nd1 2.587604 1_655
N4 Nd0 2.844519 1_555
N5 Nd0 2.607371 1_565
N5 Nd0 2.607371 1_655
N5 Nd1 2.762233 1_665
