# generated using pymatgen
data_MnSiO3
_symmetry_space_group_name_H-M   'P 1'
_cell_length_a   6.56376527
_cell_length_b   8.63823849
_cell_length_c   13.38316868
_cell_angle_alpha   107.56873954
_cell_angle_beta   103.52906387
_cell_angle_gamma   99.01218768
_symmetry_Int_Tables_number   1
_chemical_formula_structural   MnSiO3
_chemical_formula_sum   'Mn10 Si10 O30'
_cell_volume   681.88045658
_cell_formula_units_Z   10
loop_
 _symmetry_equiv_pos_site_id
 _symmetry_equiv_pos_as_xyz
  1  'x, y, z'
loop_
 _atom_site_type_symbol
 _atom_site_label
 _atom_site_symmetry_multiplicity
 _atom_site_fract_x
 _atom_site_fract_y
 _atom_site_fract_z
 _atom_site_occupancy
  Mn  Mn0  1  0.17902000  0.14914700  0.26017900  1
  Mn  Mn1  1  0.89819000  0.32446800  0.11207200  1
  Mn  Mn2  1  0.10181000  0.67553200  0.88792800  1
  Mn  Mn3  1  0.18153100  0.42135200  0.56555600  1
  Mn  Mn4  1  0.38403200  0.16789400  0.64665400  1
  Mn  Mn5  1  0.81846900  0.57864800  0.43444400  1
  Mn  Mn6  1  0.61596800  0.83210600  0.35334600  1
  Mn  Mn7  1  0.00000000  0.00000000  0.00000000  1
  Mn  Mn8  1  0.82098000  0.85085300  0.73982100  1
  Mn  Mn9  1  0.50000000  0.00000000  0.00000000  1
  Si  Si0  1  0.80686400  0.65109700  0.05447100  1
  Si  Si1  1  0.50701300  0.30508700  0.89934500  1
  Si  Si2  1  0.62976500  0.26889300  0.50050500  1
  Si  Si3  1  0.37023500  0.73110700  0.49949500  1
  Si  Si4  1  0.85507100  0.14006500  0.60796800  1
  Si  Si5  1  0.19313600  0.34890300  0.94552900  1
  Si  Si6  1  0.61449200  0.62257300  0.81383200  1
  Si  Si7  1  0.14492900  0.85993500  0.39203200  1
  Si  Si8  1  0.38550800  0.37742700  0.18616800  1
  Si  Si9  1  0.49298700  0.69491300  0.10065500  1
  O  O0  1  0.85644600  0.09404800  0.10623200  1
  O  O1  1  0.63735200  0.82710800  0.86455600  1
  O  O2  1  0.61888600  0.26057600  0.00715000  1
  O  O3  1  0.12492600  0.97358600  0.32034500  1
  O  O4  1  0.09055700  0.22157600  0.60194900  1
  O  O5  1  0.48850900  0.83411700  0.20782600  1
  O  O6  1  0.06271900  0.45272500  0.88430100  1
  O  O7  1  0.16695700  0.37801500  0.22907800  1
  O  O8  1  0.36264800  0.17289200  0.13544400  1
  O  O9  1  0.96678600  0.78896600  0.02913600  1
  O  O10  1  0.39030500  0.29052700  0.45918200  1
  O  O11  1  0.64761100  0.51555000  0.91295600  1
  O  O12  1  0.03321400  0.21103400  0.97086400  1
  O  O13  1  0.69224300  0.07511500  0.47134100  1
  O  O14  1  0.51149100  0.16588400  0.79217400  1
  O  O15  1  0.35238900  0.48445000  0.08704400  1
  O  O16  1  0.83013100  0.38635000  0.48265300  1
  O  O17  1  0.60969500  0.70947300  0.54081800  1
  O  O18  1  0.83304300  0.62198500  0.77092200  1
  O  O19  1  0.38111400  0.73942400  0.99285000  1
  O  O20  1  0.87507400  0.02641400  0.67965500  1
  O  O21  1  0.14355400  0.90595200  0.89376800  1
  O  O22  1  0.16986900  0.61365000  0.51734700  1
  O  O23  1  0.93728100  0.54727500  0.11569900  1
  O  O24  1  0.30775700  0.92488500  0.52865900  1
  O  O25  1  0.29849300  0.71911800  0.36587200  1
  O  O26  1  0.90944300  0.77842400  0.39805100  1
  O  O27  1  0.70150700  0.28088200  0.63412800  1
  O  O28  1  0.60436600  0.48806900  0.28071900  1
  O  O29  1  0.39563400  0.51193100  0.71928100  1
loop_
_geom_bond_atom_site_label_1
_geom_bond_atom_site_label_2
_geom_bond_distance
_geom_bond_site_symmetry_2
Mn0 O3 1.943345 1_545
Mn0 O7 2.149073 1_555
Mn0 O8 2.313478 1_555
Mn0 O0 2.450634 1_455
Mn0 O10 2.507107 1_555
Mn1 O23 1.885621 1_555
Mn1 O2 1.909972 1_555
Mn1 O0 1.941178 1_555
Mn1 O7 1.947501 1_655
Mn1 O12 2.292332 1_654
Mn2 O6 1.885621 1_555
Mn2 O19 1.909972 1_555
Mn2 O21 1.941178 1_555
Mn2 O18 1.947501 1_455
Mn2 O9 2.292332 1_456
Mn3 O22 1.960910 1_555
Mn3 O4 1.972949 1_555
Mn3 O29 2.037333 1_555
Mn3 O16 2.241441 1_455
Mn3 O10 2.368192 1_555
Mn4 O14 1.937961 1_555
Mn4 O4 2.047374 1_555
Mn4 O24 2.109624 1_545
Mn4 O27 2.224432 1_555
Mn5 O16 1.960910 1_555
Mn5 O26 1.972949 1_555
Mn5 O28 2.037333 1_555
Mn5 O22 2.241441 1_655
Mn5 O17 2.368192 1_555
Mn6 O5 1.937964 1_555
Mn6 O26 2.047374 1_555
Mn6 O13 2.109624 1_565
Mn6 O25 2.224432 1_555
Mn7 O21 1.933509 1_544
Mn7 O0 1.933509 1_455
Mn7 O12 1.966509 1_554
Mn7 O9 1.966509 1_445
Mn7 O8 2.532867 1_555
Mn7 O1 2.532867 1_444
Mn8 O20 1.943345 1_565
Mn8 O18 2.149073 1_555
Mn8 O1 2.313478 1_555
Mn8 O21 2.450634 1_655
Mn8 O17 2.507107 1_555
Mn9 O2 2.229229 1_555
Mn9 O19 2.229229 1_544
Mn9 O0 2.303496 1_555
Mn9 O21 2.303496 1_544
Mn9 O8 2.425109 1_555
Mn9 O1 2.425109 1_544
O1 Si6 1.658378 1_555
O2 Si1 1.642042 1_554
O3 Si7 1.565749 1_555
O4 Si4 1.625702 1_455
O5 Si9 1.579112 1_555
O6 Si5 1.601418 1_555
O7 Si8 1.665417 1_555
O8 Si8 1.658378 1_555
O9 Si0 1.629053 1_555
O10 Si2 1.599661 1_555
O11 Si6 1.824887 1_555
O11 Si1 1.840071 1_555
O11 Si0 1.844481 1_556
O12 Si5 1.629053 1_555
O13 Si2 1.737235 1_555
O13 Si4 1.754688 1_555
O14 Si1 1.579108 1_555
O15 Si8 1.824887 1_555
O15 Si9 1.840071 1_555
O15 Si5 1.844481 1_554
O16 Si2 1.640573 1_555
O17 Si3 1.599661 1_555
O18 Si6 1.665417 1_555
O19 Si9 1.642042 1_556
O20 Si4 1.565749 1_555
O22 Si3 1.640573 1_555
O23 Si0 1.601418 1_555
O24 Si3 1.737235 1_555
O24 Si7 1.754688 1_555
O25 Si3 1.705695 1_555
O25 Si7 1.705972 1_555
O26 Si7 1.625702 1_655
O27 Si2 1.705695 1_555
O27 Si4 1.705972 1_555
O28 Si8 1.602360 1_555
O29 Si6 1.602360 1_555
