# generated using pymatgen
data_K3Al2(AsO4)3
_symmetry_space_group_name_H-M   'P 1'
_cell_length_a   8.84571100
_cell_length_b   9.00781000
_cell_length_c   17.74218700
_cell_angle_alpha   90.00000000
_cell_angle_beta   90.00000000
_cell_angle_gamma   90.00000000
_symmetry_Int_Tables_number   1
_chemical_formula_structural   K3Al2(AsO4)3
_chemical_formula_sum   'K12 Al8 As12 O48'
_cell_volume   1413.70604743
_cell_formula_units_Z   4
loop_
 _symmetry_equiv_pos_site_id
 _symmetry_equiv_pos_as_xyz
  1  'x, y, z'
loop_
 _atom_site_type_symbol
 _atom_site_label
 _atom_site_symmetry_multiplicity
 _atom_site_fract_x
 _atom_site_fract_y
 _atom_site_fract_z
 _atom_site_occupancy
  K  K0  1  0.84007100  0.51037100  0.09792600  1
  K  K1  1  0.34007100  0.48962900  0.90207400  1
  K  K2  1  0.34007100  0.98962900  0.59792600  1
  K  K3  1  0.84007100  0.01037100  0.40207400  1
  K  K4  1  0.30891500  0.45098700  0.14439500  1
  K  K5  1  0.80891500  0.54901300  0.85560500  1
  K  K6  1  0.80891500  0.04901300  0.64439500  1
  K  K7  1  0.30891500  0.95098700  0.35560500  1
  K  K8  1  0.11717400  0.18056600  0.01112400  1
  K  K9  1  0.61717400  0.81943400  0.98887600  1
  K  K10  1  0.61717400  0.31943400  0.51112400  1
  K  K11  1  0.11717400  0.68056600  0.48887600  1
  Al  Al0  1  0.14636400  0.84799200  0.16029900  1
  Al  Al1  1  0.64636400  0.15200800  0.83970100  1
  Al  Al2  1  0.64636400  0.65200800  0.66029900  1
  Al  Al3  1  0.14636400  0.34799200  0.33970100  1
  Al  Al4  1  0.65557400  0.63223800  0.33194600  1
  Al  Al5  1  0.15557400  0.36776200  0.66805400  1
  Al  Al6  1  0.15557400  0.86776200  0.83194600  1
  Al  Al7  1  0.65557400  0.13223800  0.16805400  1
  As  As0  1  0.00096300  0.65746600  0.28539100  1
  As  As1  1  0.50096300  0.34253400  0.71460900  1
  As  As2  1  0.50096300  0.84253400  0.78539100  1
  As  As3  1  0.00096300  0.15746600  0.21460900  1
  As  As4  1  0.51255800  0.79373100  0.18624400  1
  As  As5  1  0.01255800  0.20626900  0.81375600  1
  As  As6  1  0.01255800  0.70626900  0.68624400  1
  As  As7  1  0.51255800  0.29373100  0.31375600  1
  As  As8  1  0.08405800  0.73621200  0.99720700  1
  As  As9  1  0.58405800  0.26378800  0.00279300  1
  As  As10  1  0.58405800  0.76378800  0.49720700  1
  As  As11  1  0.08405800  0.23621200  0.50279300  1
  O  O0  1  0.03251900  0.79077100  0.34934500  1
  O  O1  1  0.53251900  0.20922900  0.65065500  1
  O  O2  1  0.53251900  0.70922900  0.84934500  1
  O  O3  1  0.03251900  0.29077100  0.15065500  1
  O  O4  1  0.13506100  0.51848100  0.29132900  1
  O  O5  1  0.63506100  0.48151900  0.70867100  1
  O  O6  1  0.63506100  0.98151900  0.79132900  1
  O  O7  1  0.13506100  0.01848100  0.20867100  1
  O  O8  1  0.01008700  0.71684100  0.19237600  1
  O  O9  1  0.51008700  0.28315900  0.80762400  1
  O  O10  1  0.51008700  0.78315900  0.69237600  1
  O  O11  1  0.01008700  0.21684100  0.30762400  1
  O  O12  1  0.82652000  0.57119500  0.29040700  1
  O  O13  1  0.32652000  0.42880500  0.70959300  1
  O  O14  1  0.32652000  0.92880500  0.79040700  1
  O  O15  1  0.82652000  0.07119500  0.20959300  1
  O  O16  1  0.58728400  0.67109600  0.12627500  1
  O  O17  1  0.08728400  0.32890400  0.87372500  1
  O  O18  1  0.08728400  0.82890400  0.62627500  1
  O  O19  1  0.58728400  0.17109600  0.37372500  1
  O  O20  1  0.53723600  0.97588600  0.15909000  1
  O  O21  1  0.03723600  0.02411400  0.84091000  1
  O  O22  1  0.03723600  0.52411400  0.65909000  1
  O  O23  1  0.53723600  0.47588600  0.34091000  1
  O  O24  1  0.56929100  0.77803600  0.27942800  1
  O  O25  1  0.06929100  0.22196400  0.72057200  1
  O  O26  1  0.06929100  0.72196400  0.77942800  1
  O  O27  1  0.56929100  0.27803600  0.22057200  1
  O  O28  1  0.31899500  0.76903200  0.19060100  1
  O  O29  1  0.81899500  0.23096800  0.80939900  1
  O  O30  1  0.81899500  0.73096800  0.69060100  1
  O  O31  1  0.31899500  0.26903200  0.30939900  1
  O  O32  1  0.15405300  0.57425900  0.03066600  1
  O  O33  1  0.65405300  0.42574100  0.96933400  1
  O  O34  1  0.65405300  0.92574100  0.53066600  1
  O  O35  1  0.15405300  0.07425900  0.46933400  1
  O  O36  1  0.19704800  0.79176900  0.92086800  1
  O  O37  1  0.69704800  0.20823100  0.07913200  1
  O  O38  1  0.69704800  0.70823100  0.42086800  1
  O  O39  1  0.19704800  0.29176900  0.57913200  1
  O  O40  1  0.89956000  0.73402600  0.97350100  1
  O  O41  1  0.39956000  0.26597400  0.02649900  1
  O  O42  1  0.39956000  0.76597400  0.47350100  1
  O  O43  1  0.89956000  0.23402600  0.52649900  1
  O  O44  1  0.12067100  0.87984000  0.06305300  1
  O  O45  1  0.62067100  0.12016000  0.93694700  1
  O  O46  1  0.62067100  0.62016000  0.56305300  1
  O  O47  1  0.12067100  0.37984000  0.43694700  1
loop_
_geom_bond_atom_site_label_1
_geom_bond_atom_site_label_2
_geom_bond_distance
_geom_bond_site_symmetry_2
K0 O16 2.710924 1_555
K0 O3 2.772384 1_655
K0 O33 2.914438 1_554
K0 O8 2.920429 1_655
K0 O37 3.019765 1_555
K0 O40 3.034644 1_554
K0 O32 3.077201 1_655
K1 O17 2.710924 1_555
K1 O2 2.772384 1_555
K1 O32 2.914438 1_556
K1 O9 2.920429 1_555
K1 O36 3.019765 1_555
K1 O41 3.034644 1_556
K1 O33 3.077201 1_555
K2 O18 2.710924 1_555
K2 O1 2.772384 1_565
K2 O35 2.914438 1_565
K2 O10 2.920429 1_555
K2 O39 3.019765 1_565
K2 O42 3.034644 1_555
K2 O34 3.077201 1_555
K3 O19 2.710924 1_555
K3 O0 2.772384 1_645
K3 O34 2.914438 1_545
K3 O11 2.920429 1_655
K3 O38 3.019765 1_545
K3 O43 3.034644 1_555
K3 O35 3.077201 1_655
K4 O32 2.679750 1_555
K4 O41 2.792076 1_555
K4 O3 2.841263 1_555
K4 O28 2.981208 1_555
K4 O4 3.087189 1_555
K4 O27 3.091689 1_555
K4 O16 3.177692 1_555
K5 O33 2.679750 1_555
K5 O40 2.792076 1_555
K5 O2 2.841263 1_555
K5 O29 2.981208 1_555
K5 O5 3.087189 1_555
K5 O26 3.091689 1_655
K5 O17 3.177692 1_655
K6 O34 2.679750 1_545
K6 O43 2.792076 1_555
K6 O1 2.841263 1_555
K6 O30 2.981208 1_545
K6 O6 3.087189 1_545
K6 O25 3.091689 1_655
K6 O18 3.177692 1_645
K7 O35 2.679750 1_565
K7 O42 2.792076 1_555
K7 O0 2.841263 1_555
K7 O31 2.981208 1_565
K7 O7 3.087189 1_565
K7 O24 3.091689 1_555
K7 O19 3.177692 1_565
K8 O41 2.627893 1_555
K8 O3 2.770332 1_555
K8 O17 2.792491 1_554
K8 O44 2.861443 1_545
K9 O40 2.627893 1_555
K9 O2 2.770332 1_555
K9 O16 2.792491 1_556
K9 O45 2.861443 1_565
K10 O43 2.627893 1_555
K10 O1 2.770332 1_555
K10 O19 2.792491 1_555
K10 O46 2.861443 1_555
K11 O42 2.627893 1_555
K11 O0 2.770332 1_555
K11 O18 2.792491 1_555
K11 O47 2.861443 1_555
Al0 O7 1.762107 1_565
Al0 O44 1.763749 1_555
Al0 O28 1.768273 1_555
Al0 O8 1.781210 1_555
Al1 O6 1.762107 1_545
Al1 O45 1.763749 1_555
Al1 O29 1.768273 1_555
Al1 O9 1.781210 1_555
Al2 O5 1.762107 1_555
Al2 O46 1.763749 1_555
Al2 O30 1.768273 1_555
Al2 O10 1.781210 1_555
Al3 O4 1.762107 1_555
Al3 O47 1.763749 1_555
Al3 O31 1.768273 1_555
Al3 O11 1.781210 1_555
Al4 O38 1.758470 1_555
Al4 O23 1.761990 1_555
Al4 O12 1.769766 1_555
Al4 O24 1.782010 1_555
Al5 O39 1.758470 1_555
Al5 O22 1.761990 1_555
Al5 O13 1.769766 1_555
Al5 O25 1.782010 1_555
Al6 O36 1.758470 1_555
Al6 O21 1.761990 1_565
Al6 O14 1.769766 1_555
Al6 O26 1.782010 1_555
Al7 O37 1.758470 1_555
Al7 O20 1.761990 1_545
Al7 O15 1.769766 1_555
Al7 O27 1.782010 1_555
As0 O0 1.675503 1_555
As0 O4 1.727869 1_555
As0 O12 1.729999 1_455
As0 O8 1.736670 1_555
As1 O1 1.675503 1_555
As1 O5 1.727869 1_555
As1 O13 1.729999 1_555
As1 O9 1.736670 1_555
As2 O2 1.675503 1_555
As2 O6 1.727869 1_555
As2 O14 1.729999 1_555
As2 O10 1.736670 1_555
As3 O3 1.675503 1_555
As3 O7 1.727869 1_555
As3 O15 1.729999 1_455
As3 O11 1.736670 1_555
As4 O16 1.670115 1_555
As4 O20 1.723960 1_555
As4 O28 1.728326 1_555
As4 O24 1.733550 1_555
As5 O17 1.670115 1_555
As5 O21 1.723960 1_555
As5 O29 1.728326 1_455
As5 O25 1.733550 1_555
As6 O18 1.670115 1_555
As6 O22 1.723960 1_555
As6 O30 1.728326 1_455
As6 O26 1.733550 1_555
As7 O19 1.670115 1_555
As7 O23 1.723960 1_555
As7 O31 1.728326 1_555
As7 O27 1.733550 1_555
As8 O40 1.685457 1_455
As8 O32 1.692329 1_556
As8 O36 1.756091 1_555
As8 O44 1.773007 1_556
As9 O41 1.685457 1_555
As9 O33 1.692329 1_554
As9 O37 1.756091 1_555
As9 O45 1.773007 1_554
As10 O42 1.685457 1_555
As10 O34 1.692329 1_555
As10 O38 1.756091 1_555
As10 O46 1.773007 1_555
As11 O43 1.685457 1_455
As11 O35 1.692329 1_555
As11 O39 1.756091 1_555
As11 O47 1.773007 1_555
