# generated using pymatgen
data_MnPbO3
_symmetry_space_group_name_H-M   'P 1'
_cell_length_a   5.89764700
_cell_length_b   5.06658300
_cell_length_c   10.36071662
_cell_angle_alpha   85.44347438
_cell_angle_beta   90.00000000
_cell_angle_gamma   90.00000000
_symmetry_Int_Tables_number   1
_chemical_formula_structural   MnPbO3
_chemical_formula_sum   'Mn4 Pb4 O12'
_cell_volume   308.60925487
_cell_formula_units_Z   4
loop_
 _symmetry_equiv_pos_site_id
 _symmetry_equiv_pos_as_xyz
  1  'x, y, z'
loop_
 _atom_site_type_symbol
 _atom_site_label
 _atom_site_symmetry_multiplicity
 _atom_site_fract_x
 _atom_site_fract_y
 _atom_site_fract_z
 _atom_site_occupancy
  Mn  Mn0  1  0.87336300  0.25000000  0.00000000  1
  Mn  Mn1  1  0.12663700  0.75000000  0.00000000  1
  Mn  Mn2  1  0.37678800  0.25000000  0.00000000  1
  Mn  Mn3  1  0.62321200  0.75000000  0.00000000  1
  Pb  Pb0  1  0.21251100  0.50768800  0.37122100  1
  Pb  Pb1  1  0.21251100  0.99231200  0.62877900  1
  Pb  Pb2  1  0.78748900  0.49231200  0.62877900  1
  Pb  Pb3  1  0.78748900  0.00768800  0.37122100  1
  O  O0  1  0.37907500  0.59808400  0.90479200  1
  O  O1  1  0.37907500  0.90191600  0.09520800  1
  O  O2  1  0.62092500  0.40191600  0.09520800  1
  O  O3  1  0.62092500  0.09808400  0.90479200  1
  O  O4  1  0.12753800  0.40257000  0.09550900  1
  O  O5  1  0.12753800  0.09743000  0.90449100  1
  O  O6  1  0.87246200  0.59743000  0.90449100  1
  O  O7  1  0.87246200  0.90257000  0.09550900  1
  O  O8  1  0.17616600  0.46586300  0.59653100  1
  O  O9  1  0.17616600  0.03413700  0.40346900  1
  O  O10  1  0.82383400  0.53413700  0.40346900  1
  O  O11  1  0.82383400  0.96586300  0.59653100  1
loop_
_geom_bond_atom_site_label_1
_geom_bond_atom_site_label_2
_geom_bond_distance
_geom_bond_site_symmetry_2
Mn0 O6 1.949631 1_554
Mn0 O7 1.949631 1_545
Mn0 O3 1.975497 1_554
Mn0 O2 1.975497 1_555
Mn0 O5 1.986297 1_654
Mn0 O4 1.986297 1_655
Mn1 O5 1.949631 1_564
Mn1 O4 1.949631 1_555
Mn1 O0 1.975497 1_554
Mn1 O1 1.975497 1_555
Mn1 O6 1.986297 1_454
Mn1 O7 1.986297 1_455
Mn2 O3 1.938870 1_554
Mn2 O2 1.938870 1_555
Mn2 O0 1.951174 1_554
Mn2 O1 1.951174 1_545
Mn2 O5 1.964468 1_554
Mn2 O4 1.964468 1_555
Mn3 O0 1.938870 1_554
Mn3 O1 1.938870 1_555
Mn3 O2 1.951174 1_555
Mn3 O3 1.951174 1_564
Mn3 O6 1.964468 1_554
Mn3 O7 1.964468 1_555
O8 Pb2 2.321906 1_455
O8 Pb0 2.336996 1_555
O8 Pb1 2.405573 1_545
O8 Pb1 2.722802 1_555
O9 Pb3 2.321906 1_455
O9 Pb1 2.336996 1_545
O9 Pb0 2.405573 1_555
O9 Pb0 2.722802 1_545
O10 Pb0 2.321906 1_655
O10 Pb2 2.336996 1_555
O10 Pb3 2.405573 1_565
O10 Pb3 2.722802 1_555
O11 Pb1 2.321906 1_655
O11 Pb3 2.336996 1_565
O11 Pb2 2.405573 1_555
O11 Pb2 2.722802 1_565
