# generated using pymatgen
data_Mn2ZnO4
_symmetry_space_group_name_H-M   'P 1'
_cell_length_a   6.07409152
_cell_length_b   6.07409152
_cell_length_c   6.07409219
_cell_angle_alpha   60.19765702
_cell_angle_beta   60.19765702
_cell_angle_gamma   60.19766422
_symmetry_Int_Tables_number   1
_chemical_formula_structural   Mn2ZnO4
_chemical_formula_sum   'Mn4 Zn2 O8'
_cell_volume   159.17268014
_cell_formula_units_Z   2
loop_
 _symmetry_equiv_pos_site_id
 _symmetry_equiv_pos_as_xyz
  1  'x, y, z'
loop_
 _atom_site_type_symbol
 _atom_site_label
 _atom_site_symmetry_multiplicity
 _atom_site_fract_x
 _atom_site_fract_y
 _atom_site_fract_z
 _atom_site_occupancy
  Mn  Mn0  1  0.75518300  0.75518300  0.75518300  1
  Mn  Mn1  1  0.87515700  0.37505900  0.37505900  1
  Mn  Mn2  1  0.37505900  0.37505900  0.87515700  1
  Mn  Mn3  1  0.37505900  0.87515700  0.37505900  1
  Zn  Zn0  1  0.99443500  0.99443500  0.99443500  1
  Zn  Zn1  1  0.37455300  0.37455300  0.37455300  1
  O  O0  1  0.62071200  0.16964700  0.62071200  1
  O  O1  1  0.62071200  0.62071200  0.16964700  1
  O  O2  1  0.16964700  0.62071200  0.62071200  1
  O  O3  1  0.61939900  0.61939900  0.61939900  1
  O  O4  1  0.12852900  0.12852900  0.12852900  1
  O  O5  1  0.58510800  0.12822200  0.12822200  1
  O  O6  1  0.12822200  0.12822200  0.58510800  1
  O  O7  1  0.12822200  0.58510800  0.12822200  1
loop_
_geom_bond_atom_site_label_1
_geom_bond_atom_site_label_2
_geom_bond_distance
_geom_bond_site_symmetry_2
Mn0 O3 2.017229 1_555
Mn0 O0 2.060895 1_565
Mn0 O2 2.060895 1_655
Mn0 O1 2.060895 1_556
Mn1 O0 1.986382 1_555
Mn1 O1 1.986382 1_555
Mn1 O7 1.998913 1_655
Mn1 O6 1.998913 1_655
Mn1 O3 2.103469 1_555
Mn1 O4 2.121455 1_655
Mn2 O0 1.986382 1_555
Mn2 O2 1.986382 1_555
Mn2 O5 1.998913 1_556
Mn2 O7 1.998913 1_556
Mn2 O3 2.103468 1_555
Mn2 O4 2.121455 1_556
Mn3 O2 1.986382 1_555
Mn3 O1 1.986382 1_555
Mn3 O5 1.998913 1_565
Mn3 O6 1.998913 1_565
Mn3 O3 2.103469 1_555
Mn3 O4 2.121455 1_565
O0 Zn1 2.131403 1_555
O1 Zn1 2.131403 1_555
O2 Zn1 2.131403 1_555
O4 Zn0 1.992122 1_444
O5 Zn0 2.035213 1_544
O5 Zn1 2.129360 1_555
O6 Zn0 2.035213 1_445
O6 Zn1 2.129360 1_555
O7 Zn0 2.035213 1_454
O7 Zn1 2.129360 1_555
