# generated using pymatgen
data_Zr4Re2N
_symmetry_space_group_name_H-M   'P 1'
_cell_length_a   8.85368401
_cell_length_b   8.85368401
_cell_length_c   8.85368401
_cell_angle_alpha   60.00000000
_cell_angle_beta   60.00000000
_cell_angle_gamma   60.00000000
_symmetry_Int_Tables_number   1
_chemical_formula_structural   Zr4Re2N
_chemical_formula_sum   'Zr16 Re8 N4'
_cell_volume   490.74632419
_cell_formula_units_Z   4
loop_
 _symmetry_equiv_pos_site_id
 _symmetry_equiv_pos_as_xyz
  1  'x, y, z'
loop_
 _atom_site_type_symbol
 _atom_site_label
 _atom_site_symmetry_multiplicity
 _atom_site_fract_x
 _atom_site_fract_y
 _atom_site_fract_z
 _atom_site_occupancy
  Zr  Zr0  1  0.12500000  0.62500000  0.62500000  1
  Zr  Zr1  1  0.62500000  0.12500000  0.62500000  1
  Zr  Zr2  1  0.62500000  0.62500000  0.12500000  1
  Zr  Zr3  1  0.62500000  0.62500000  0.62500000  1
  Zr  Zr4  1  0.81414000  0.81414000  0.18586000  1
  Zr  Zr5  1  0.18586000  0.18586000  0.81414000  1
  Zr  Zr6  1  0.81414000  0.18586000  0.81414000  1
  Zr  Zr7  1  0.18586000  0.81414000  0.18586000  1
  Zr  Zr8  1  0.18586000  0.81414000  0.81414000  1
  Zr  Zr9  1  0.81414000  0.18586000  0.18586000  1
  Zr  Zr10  1  0.43586000  0.43586000  0.06414000  1
  Zr  Zr11  1  0.06414000  0.06414000  0.43586000  1
  Zr  Zr12  1  0.43586000  0.06414000  0.43586000  1
  Zr  Zr13  1  0.06414000  0.43586000  0.06414000  1
  Zr  Zr14  1  0.06414000  0.43586000  0.43586000  1
  Zr  Zr15  1  0.43586000  0.06414000  0.06414000  1
  Re  Re0  1  0.74911600  0.41696100  0.41696100  1
  Re  Re1  1  0.41696100  0.74911600  0.41696100  1
  Re  Re2  1  0.41696100  0.41696100  0.74911600  1
  Re  Re3  1  0.41696100  0.41696100  0.41696100  1
  Re  Re4  1  0.50088400  0.83303900  0.83303900  1
  Re  Re5  1  0.83303900  0.50088400  0.83303900  1
  Re  Re6  1  0.83303900  0.83303900  0.50088400  1
  Re  Re7  1  0.83303900  0.83303900  0.83303900  1
  N  N0  1  0.62500000  0.12500000  0.12500000  1
  N  N1  1  0.12500000  0.62500000  0.12500000  1
  N  N2  1  0.12500000  0.12500000  0.62500000  1
  N  N3  1  0.12500000  0.12500000  0.12500000  1
loop_
_geom_bond_atom_site_label_1
_geom_bond_atom_site_label_2
_geom_bond_distance
_geom_bond_site_symmetry_2
Re0 Zr2 2.708750 1_555
Re0 Zr1 2.708750 1_555
Re0 Zr3 2.708757 1_555
Re0 Re3 2.940795 1_555
Re0 Re2 2.940795 1_555
Re0 Re1 2.940795 1_555
Re0 Zr13 2.965899 1_655
Re0 Zr11 2.965899 1_655
Re0 Zr14 2.965904 1_655
Re0 Zr9 3.245777 1_555
Re0 Zr6 3.245784 1_555
Re0 Zr4 3.245784 1_555
Re1 Zr0 2.708750 1_555
Re1 Zr2 2.708750 1_555
Re1 Zr3 2.708757 1_555
Re1 Re3 2.940795 1_555
Re1 Re2 2.940795 1_555
Re1 Zr11 2.965899 1_565
Re1 Zr15 2.965899 1_565
Re1 Zr12 2.965904 1_565
Re1 Zr7 3.245777 1_555
Re1 Zr8 3.245784 1_555
Re1 Zr4 3.245784 1_555
Re2 Zr0 2.708750 1_555
Re2 Zr1 2.708750 1_555
Re2 Zr3 2.708757 1_555
Re2 Re3 2.940795 1_555
Re2 Zr15 2.965899 1_556
Re2 Zr13 2.965899 1_556
Re2 Zr10 2.965904 1_556
Re2 Zr5 3.245777 1_555
Re2 Zr8 3.245784 1_555
Re2 Zr6 3.245784 1_555
Re3 Zr2 2.708755 1_555
Re3 Zr1 2.708755 1_555
Re3 Zr0 2.708755 1_555
Re3 Zr10 2.965895 1_555
Re3 Zr12 2.965895 1_555
Re3 Zr14 2.965895 1_555
Re3 Zr5 3.245781 1_555
Re3 Zr9 3.245781 1_555
Re3 Zr7 3.245781 1_555
Re4 Zr2 2.708750 1_556
Re4 Zr1 2.708750 1_565
Re4 Zr3 2.708757 1_555
Re4 Re5 2.940795 1_555
Re4 Re6 2.940795 1_555
Re4 Re7 2.940795 1_555
Re4 Zr7 2.965899 1_556
Re4 Zr5 2.965899 1_565
Re4 Zr8 2.965904 1_555
Re4 Zr15 3.245777 1_566
Re4 Zr12 3.245784 1_565
Re4 Zr10 3.245784 1_556
Re5 Zr2 2.708750 1_556
Re5 Zr0 2.708750 1_655
Re5 Zr3 2.708757 1_555
Re5 Re6 2.940795 1_555
Re5 Re7 2.940795 1_555
Re5 Zr5 2.965899 1_655
Re5 Zr9 2.965899 1_556
Re5 Zr6 2.965904 1_555
Re5 Zr13 3.245777 1_656
Re5 Zr14 3.245784 1_655
Re5 Zr10 3.245784 1_556
Re6 Zr1 2.708750 1_565
Re6 Zr0 2.708750 1_655
Re6 Zr3 2.708757 1_555
Re6 Re7 2.940795 1_555
Re6 Zr9 2.965899 1_565
Re6 Zr7 2.965899 1_655
Re6 Zr4 2.965904 1_555
Re6 Zr11 3.245777 1_665
Re6 Zr14 3.245784 1_655
Re6 Zr12 3.245784 1_565
Re7 Zr0 2.708755 1_655
Re7 Zr2 2.708755 1_556
Re7 Zr1 2.708755 1_565
Re7 Zr8 2.965895 1_655
Re7 Zr6 2.965895 1_565
Re7 Zr4 2.965895 1_556
Re7 Zr15 3.245781 1_566
Re7 Zr11 3.245781 1_665
Re7 Zr13 3.245781 1_656
N0 Zr9 2.340923 1_555
N0 Zr15 2.340923 1_555
N0 Zr4 2.340923 1_545
N0 Zr12 2.340923 1_555
N0 Zr6 2.340923 1_554
N0 Zr10 2.340923 1_555
N1 Zr13 2.340923 1_555
N1 Zr7 2.340923 1_555
N1 Zr4 2.340923 1_455
N1 Zr10 2.340923 1_555
N1 Zr8 2.340923 1_554
N1 Zr14 2.340923 1_555
N2 Zr11 2.340923 1_555
N2 Zr5 2.340923 1_555
N2 Zr12 2.340923 1_555
N2 Zr8 2.340923 1_545
N2 Zr14 2.340923 1_555
N2 Zr6 2.340923 1_455
N3 Zr11 2.340923 1_555
N3 Zr5 2.340923 1_554
N3 Zr9 2.340923 1_455
N3 Zr7 2.340923 1_545
N3 Zr15 2.340923 1_555
N3 Zr13 2.340923 1_555
