# generated using pymatgen
data_NaCaMg3Fe6(PO4)9
_symmetry_space_group_name_H-M   'P 1'
_cell_length_a   8.64978728
_cell_length_b   8.64978728
_cell_length_c   18.20096438
_cell_angle_alpha   80.73825209
_cell_angle_beta   80.73825209
_cell_angle_gamma   93.02908403
_symmetry_Int_Tables_number   1
_chemical_formula_structural   NaCaMg3Fe6(PO4)9
_chemical_formula_sum   'Na2 Ca2 Mg6 Fe12 P18 O72'
_cell_volume   1322.15872682
_cell_formula_units_Z   2
loop_
 _symmetry_equiv_pos_site_id
 _symmetry_equiv_pos_as_xyz
  1  'x, y, z'
loop_
 _atom_site_type_symbol
 _atom_site_label
 _atom_site_symmetry_multiplicity
 _atom_site_fract_x
 _atom_site_fract_y
 _atom_site_fract_z
 _atom_site_occupancy
  Na  Na0  1  0.25687000  0.74313000  0.25000000  1
  Na  Na1  1  0.74313000  0.25687000  0.75000000  1
  Ca  Ca0  1  0.50000000  0.00000000  0.50000000  1
  Ca  Ca1  1  0.00000000  0.50000000  0.00000000  1
  Mg  Mg0  1  0.65315700  0.67827100  0.58564600  1
  Mg  Mg1  1  0.34684300  0.32172900  0.41435400  1
  Mg  Mg2  1  0.96833000  0.03167000  0.25000000  1
  Mg  Mg3  1  0.67827100  0.65315700  0.08564600  1
  Mg  Mg4  1  0.32172900  0.34684300  0.91435400  1
  Mg  Mg5  1  0.03167000  0.96833000  0.75000000  1
  Fe  Fe0  1  0.01972800  0.82484500  0.54364500  1
  Fe  Fe1  1  0.50194000  0.31711100  0.62360200  1
  Fe  Fe2  1  0.49806000  0.68288900  0.37639800  1
  Fe  Fe3  1  0.98027200  0.17515500  0.45635500  1
  Fe  Fe4  1  0.35849200  0.16102700  0.20876100  1
  Fe  Fe5  1  0.83897300  0.64150800  0.29123900  1
  Fe  Fe6  1  0.82484500  0.01972800  0.04364500  1
  Fe  Fe7  1  0.31711100  0.50194000  0.12360200  1
  Fe  Fe8  1  0.68288900  0.49806000  0.87639800  1
  Fe  Fe9  1  0.17515500  0.98027200  0.95635500  1
  Fe  Fe10  1  0.16102700  0.35849200  0.70876100  1
  Fe  Fe11  1  0.64150800  0.83897300  0.79123900  1
  P  P0  1  0.31013500  0.59202400  0.54064200  1
  P  P1  1  0.20250500  0.12766800  0.58322300  1
  P  P2  1  0.74847800  0.02770800  0.62451300  1
  P  P3  1  0.25152200  0.97229200  0.37548700  1
  P  P4  1  0.79749500  0.87233200  0.41677700  1
  P  P5  1  0.68986500  0.40797600  0.45935800  1
  P  P6  1  0.64045400  0.91999700  0.20889900  1
  P  P7  1  0.54439600  0.45560400  0.25000000  1
  P  P8  1  0.08000300  0.35954600  0.29110100  1
  P  P9  1  0.59202400  0.31013500  0.04064200  1
  P  P10  1  0.12766800  0.20250500  0.08322300  1
  P  P11  1  0.02770800  0.74847800  0.12451300  1
  P  P12  1  0.97229200  0.25152200  0.87548700  1
  P  P13  1  0.87233200  0.79749500  0.91677700  1
  P  P14  1  0.40797600  0.68986500  0.95935800  1
  P  P15  1  0.91999700  0.64045400  0.70889900  1
  P  P16  1  0.45560400  0.54439600  0.75000000  1
  P  P17  1  0.35954600  0.08000300  0.79110100  1
  O  O0  1  0.86322300  0.69664500  0.63142200  1
  O  O1  1  0.29925800  0.44448900  0.60539400  1
  O  O2  1  0.10518300  0.16452700  0.65708700  1
  O  O3  1  0.18441400  0.95126600  0.57843900  1
  O  O4  1  0.14531900  0.64904600  0.54019500  1
  O  O5  1  0.62747200  0.91360700  0.60410300  1
  O  O6  1  0.43182100  0.71700800  0.55190800  1
  O  O7  1  0.68620800  0.19178700  0.62858900  1
  O  O8  1  0.38186800  0.15915200  0.58288300  1
  O  O9  1  0.36498600  0.53405600  0.46364400  1
  O  O10  1  0.16591100  0.22981200  0.50992700  1
  O  O11  1  0.89955600  0.04121400  0.56248200  1
  O  O12  1  0.10044400  0.95878600  0.43751800  1
  O  O13  1  0.83408900  0.77018800  0.49007300  1
  O  O14  1  0.63501400  0.46594400  0.53635600  1
  O  O15  1  0.61813200  0.84084800  0.41711700  1
  O  O16  1  0.31379200  0.80821300  0.37141100  1
  O  O17  1  0.56817900  0.28299200  0.44809200  1
  O  O18  1  0.37252800  0.08639300  0.39589700  1
  O  O19  1  0.85468100  0.35095400  0.45980500  1
  O  O20  1  0.81558600  0.04873400  0.42156100  1
  O  O21  1  0.20260700  0.03009200  0.29700000  1
  O  O22  1  0.89481700  0.83547300  0.34291300  1
  O  O23  1  0.70074200  0.55551100  0.39460600  1
  O  O24  1  0.62794200  0.77074700  0.27323800  1
  O  O25  1  0.44027800  0.50056400  0.32202200  1
  O  O26  1  0.13677700  0.30335500  0.36857800  1
  O  O27  1  0.50865200  0.27960000  0.25128900  1
  O  O28  1  0.47050200  0.97040600  0.20791600  1
  O  O29  1  0.95593800  0.24375200  0.27863100  1
  O  O30  1  0.75624800  0.04406200  0.22136900  1
  O  O31  1  0.02959400  0.52949800  0.29208400  1
  O  O32  1  0.72040000  0.49134800  0.24871100  1
  O  O33  1  0.69664500  0.86322300  0.13142200  1
  O  O34  1  0.49943600  0.55972200  0.17797800  1
  O  O35  1  0.22925300  0.37205800  0.22676200  1
  O  O36  1  0.44448900  0.29925800  0.10539400  1
  O  O37  1  0.16452700  0.10518300  0.15708700  1
  O  O38  1  0.96990800  0.79739300  0.20300000  1
  O  O39  1  0.95126600  0.18441400  0.07843900  1
  O  O40  1  0.64904600  0.14531900  0.04019500  1
  O  O41  1  0.91360700  0.62747200  0.10410300  1
  O  O42  1  0.71700800  0.43182100  0.05190800  1
  O  O43  1  0.19178700  0.68620800  0.12858900  1
  O  O44  1  0.15915200  0.38186800  0.08288300  1
  O  O45  1  0.53405600  0.36498600  0.96364400  1
  O  O46  1  0.22981200  0.16591100  0.00992700  1
  O  O47  1  0.04121400  0.89955600  0.06248200  1
  O  O48  1  0.95878600  0.10044400  0.93751800  1
  O  O49  1  0.77018800  0.83408900  0.99007300  1
  O  O50  1  0.46594400  0.63501400  0.03635600  1
  O  O51  1  0.84084800  0.61813200  0.91711700  1
  O  O52  1  0.80821300  0.31379200  0.87141100  1
  O  O53  1  0.28299200  0.56817900  0.94809200  1
  O  O54  1  0.08639300  0.37252800  0.89589700  1
  O  O55  1  0.35095400  0.85468100  0.95980500  1
  O  O56  1  0.04873400  0.81558600  0.92156100  1
  O  O57  1  0.03009200  0.20260700  0.79700000  1
  O  O58  1  0.83547300  0.89481700  0.84291300  1
  O  O59  1  0.55551100  0.70074200  0.89460600  1
  O  O60  1  0.77074700  0.62794200  0.77323800  1
  O  O61  1  0.50056400  0.44027800  0.82202200  1
  O  O62  1  0.30335500  0.13677700  0.86857800  1
  O  O63  1  0.27960000  0.50865200  0.75128900  1
  O  O64  1  0.97040600  0.47050200  0.70791600  1
  O  O65  1  0.24375200  0.95593800  0.77863100  1
  O  O66  1  0.04406200  0.75624800  0.72136900  1
  O  O67  1  0.52949800  0.02959400  0.79208400  1
  O  O68  1  0.49134800  0.72040000  0.74871100  1
  O  O69  1  0.55972200  0.49943600  0.67797800  1
  O  O70  1  0.37205800  0.22925300  0.72676200  1
  O  O71  1  0.79739300  0.96990800  0.70300000  1
loop_
_geom_bond_atom_site_label_1
_geom_bond_atom_site_label_2
_geom_bond_distance
_geom_bond_site_symmetry_2
Na0 O16 2.482722 1_555
Na0 O43 2.482722 1_555
Na0 O28 2.557698 1_555
Na0 O31 2.557698 1_555
Na0 O21 2.791161 1_565
Na0 O38 2.791161 1_455
Na0 O25 2.961967 1_555
Na0 O34 2.961967 1_555
Na1 O52 2.482722 1_555
Na1 O7 2.482722 1_555
Na1 O64 2.557698 1_555
Na1 O67 2.557698 1_555
Na1 O57 2.791161 1_655
Na1 O71 2.791161 1_545
Na1 O61 2.961967 1_555
Na1 O69 2.961967 1_555
Ca0 O8 2.352850 1_555
Ca0 O15 2.352850 1_545
Ca0 O5 2.380785 1_545
Ca0 O18 2.380785 1_555
Ca0 O17 2.481106 1_555
Ca0 O6 2.481106 1_545
Ca0 O3 2.845642 1_545
Ca0 O20 2.845642 1_555
Ca1 O44 2.352850 1_555
Ca1 O51 2.352850 1_454
Ca1 O41 2.380785 1_455
Ca1 O54 2.380785 1_554
Ca1 O53 2.481106 1_554
Ca1 O42 2.481106 1_455
Ca1 O56 2.845642 1_554
Ca1 O39 2.845642 1_455
Mg0 O69 2.112846 1_555
Mg0 O0 2.126128 1_555
Mg0 O6 2.129479 1_555
Mg0 O5 2.133025 1_555
Mg0 O13 2.157396 1_555
Mg0 O14 2.178926 1_555
Mg1 O25 2.112846 1_555
Mg1 O26 2.126128 1_555
Mg1 O17 2.129479 1_555
Mg1 O18 2.133025 1_555
Mg1 O10 2.157396 1_555
Mg1 O9 2.178926 1_555
Mg2 O29 1.989679 1_555
Mg2 O30 1.989679 1_555
Mg2 O37 2.181791 1_655
Mg2 O22 2.181791 1_545
Mg2 O21 2.322848 1_655
Mg2 O38 2.322848 1_545
Mg3 O34 2.112846 1_555
Mg3 O33 2.126128 1_555
Mg3 O42 2.129479 1_555
Mg3 O41 2.133025 1_555
Mg3 O49 2.157396 1_554
Mg3 O50 2.178926 1_555
Mg4 O61 2.112846 1_555
Mg4 O62 2.126128 1_555
Mg4 O53 2.129479 1_555
Mg4 O54 2.133025 1_555
Mg4 O46 2.157396 1_556
Mg4 O45 2.178926 1_555
Mg5 O65 1.989679 1_555
Mg5 O66 1.989679 1_555
Mg5 O2 2.181791 1_565
Mg5 O58 2.181791 1_455
Mg5 O57 2.322848 1_565
Mg5 O71 2.322848 1_455
Fe0 O4 1.918261 1_555
Fe0 O3 1.993661 1_555
Fe0 O0 2.046848 1_455
Fe0 O12 2.078678 1_555
Fe0 O13 2.079613 1_455
Fe0 O11 2.235653 1_465
Fe1 O8 1.979521 1_555
Fe1 O7 1.980228 1_555
Fe1 O14 2.025064 1_555
Fe1 O70 2.033855 1_555
Fe1 O69 2.072387 1_555
Fe1 O1 2.161240 1_555
Fe2 O15 1.979521 1_555
Fe2 O16 1.980228 1_555
Fe2 O9 2.025064 1_555
Fe2 O24 2.033855 1_555
Fe2 O25 2.072387 1_555
Fe2 O23 2.161240 1_555
Fe3 O19 1.918261 1_555
Fe3 O20 1.993661 1_555
Fe3 O26 2.046848 1_655
Fe3 O11 2.078678 1_555
Fe3 O10 2.079613 1_655
Fe3 O12 2.235653 1_645
Fe4 O27 1.943314 1_555
Fe4 O28 1.956981 1_545
Fe4 O21 2.058202 1_555
Fe4 O36 2.062514 1_555
Fe4 O37 2.121622 1_555
Fe4 O35 2.231431 1_555
Fe5 O32 1.943314 1_555
Fe5 O31 1.956981 1_655
Fe5 O38 2.058202 1_555
Fe5 O23 2.062514 1_555
Fe5 O22 2.121622 1_555
Fe5 O24 2.231431 1_555
Fe6 O40 1.918261 1_555
Fe6 O39 1.993661 1_555
Fe6 O33 2.046848 1_545
Fe6 O48 2.078678 1_554
Fe6 O49 2.079613 1_544
Fe6 O47 2.235653 1_645
Fe7 O44 1.979521 1_555
Fe7 O43 1.980228 1_555
Fe7 O50 2.025064 1_555
Fe7 O35 2.033855 1_555
Fe7 O34 2.072387 1_555
Fe7 O36 2.161240 1_555
Fe8 O51 1.979521 1_555
Fe8 O52 1.980228 1_555
Fe8 O45 2.025064 1_555
Fe8 O60 2.033855 1_555
Fe8 O61 2.072387 1_555
Fe8 O59 2.161240 1_555
Fe9 O55 1.918261 1_555
Fe9 O56 1.993661 1_555
Fe9 O62 2.046848 1_565
Fe9 O47 2.078678 1_556
Fe9 O46 2.079613 1_566
Fe9 O48 2.235653 1_465
Fe10 O63 1.943314 1_555
Fe10 O64 1.956981 1_455
Fe10 O57 2.058202 1_555
Fe10 O1 2.062514 1_555
Fe10 O2 2.121622 1_555
Fe10 O70 2.231431 1_555
Fe11 O68 1.943314 1_555
Fe11 O67 1.956981 1_565
Fe11 O71 2.058202 1_555
Fe11 O59 2.062514 1_555
Fe11 O58 2.121622 1_555
Fe11 O60 2.231431 1_555
O0 P15 1.579067 1_555
O1 P0 1.579201 1_555
O2 P1 1.555552 1_555
O3 P1 1.543429 1_565
O4 P0 1.533785 1_555
O5 P2 1.530228 1_565
O6 P0 1.529457 1_555
O7 P2 1.552966 1_555
O8 P1 1.559782 1_555
O9 P0 1.574118 1_555
O10 P1 1.564159 1_555
O11 P2 1.569249 1_555
O12 P3 1.569249 1_555
O13 P4 1.564159 1_555
O14 P5 1.574118 1_555
O15 P4 1.559782 1_555
O16 P3 1.552966 1_555
O17 P5 1.529457 1_555
O18 P3 1.530228 1_545
O19 P5 1.533785 1_555
O20 P4 1.543429 1_545
O21 P3 1.567391 1_545
O22 P4 1.555552 1_555
O23 P5 1.579201 1_555
O24 P6 1.583500 1_555
O25 P7 1.581706 1_555
O26 P8 1.579067 1_555
O27 P7 1.533055 1_555
O28 P6 1.557299 1_555
O29 P8 1.498100 1_655
O30 P6 1.498100 1_545
O31 P8 1.557299 1_555
O32 P7 1.533055 1_555
O33 P6 1.579067 1_555
O34 P7 1.581706 1_555
O35 P8 1.583500 1_555
O36 P9 1.579201 1_555
O37 P10 1.555552 1_555
O38 P11 1.567391 1_655
O39 P10 1.543429 1_655
O40 P9 1.533785 1_555
O41 P11 1.530228 1_655
O42 P9 1.529457 1_555
O43 P11 1.552966 1_555
O44 P10 1.559782 1_555
O45 P9 1.574118 1_556
O46 P10 1.564159 1_555
O47 P11 1.569249 1_555
O48 P12 1.569249 1_555
O49 P13 1.564159 1_555
O50 P14 1.574118 1_554
O51 P13 1.559782 1_555
O52 P12 1.552966 1_555
O53 P14 1.529457 1_555
O54 P12 1.530228 1_455
O55 P14 1.533785 1_555
O56 P13 1.543429 1_455
O57 P12 1.567391 1_455
O58 P13 1.555552 1_555
O59 P14 1.579201 1_555
O60 P15 1.583500 1_555
O61 P16 1.581706 1_555
O62 P17 1.579067 1_555
O63 P16 1.533055 1_555
O64 P15 1.557299 1_555
O65 P17 1.498100 1_565
O66 P15 1.498100 1_455
O67 P17 1.557299 1_555
O68 P16 1.533055 1_555
O69 P16 1.581706 1_555
O70 P17 1.583500 1_555
O71 P2 1.567391 1_565
