# generated using pymatgen
data_Ac3Si
_symmetry_space_group_name_H-M   'P 1'
_cell_length_a   7.58503972
_cell_length_b   7.58503972
_cell_length_c   5.54207400
_cell_angle_alpha   90.00000000
_cell_angle_beta   90.00000000
_cell_angle_gamma   119.99999752
_symmetry_Int_Tables_number   1
_chemical_formula_structural   Ac3Si
_chemical_formula_sum   'Ac6 Si2'
_cell_volume   276.13323517
_cell_formula_units_Z   2
loop_
 _symmetry_equiv_pos_site_id
 _symmetry_equiv_pos_as_xyz
  1  'x, y, z'
loop_
 _atom_site_type_symbol
 _atom_site_label
 _atom_site_symmetry_multiplicity
 _atom_site_fract_x
 _atom_site_fract_y
 _atom_site_fract_z
 _atom_site_occupancy
  Ac  Ac0  1  0.18118400  0.36236700  0.25000000  1
  Ac  Ac1  1  0.63763300  0.81881600  0.25000000  1
  Ac  Ac2  1  0.18118400  0.81881600  0.25000000  1
  Ac  Ac3  1  0.81881600  0.63763300  0.75000000  1
  Ac  Ac4  1  0.36236700  0.18118400  0.75000000  1
  Ac  Ac5  1  0.81881600  0.18118400  0.75000000  1
  Si  Si0  1  0.33333300  0.66666700  0.75000000  1
  Si  Si1  1  0.66666700  0.33333300  0.25000000  1
loop_
_geom_bond_atom_site_label_1
_geom_bond_atom_site_label_2
_geom_bond_distance
_geom_bond_site_symmetry_2
Ac0 Si0 3.416758 1_555
Ac0 Si0 3.416758 1_554
Ac0 Si1 3.797312 1_555
Ac0 Si1 3.797312 1_455
Ac1 Si0 3.416758 1_555
Ac1 Si0 3.416758 1_554
Ac1 Si1 3.797312 1_555
Ac1 Si1 3.797312 1_565
Ac2 Si0 3.416750 1_554
Ac2 Si0 3.416750 1_555
Ac2 Si1 3.797312 1_455
Ac2 Si1 3.797312 1_565
Ac3 Si1 3.416758 1_555
Ac3 Si1 3.416758 1_556
Ac3 Si0 3.797312 1_555
Ac3 Si0 3.797312 1_655
Ac4 Si1 3.416758 1_555
Ac4 Si1 3.416758 1_556
Ac4 Si0 3.797312 1_555
Ac4 Si0 3.797312 1_545
Ac5 Si1 3.416750 1_555
Ac5 Si1 3.416750 1_556
Ac5 Si0 3.797312 1_545
Ac5 Si0 3.797312 1_655
