# generated using pymatgen
data_Sr2YAlV2O7
_symmetry_space_group_name_H-M   'P 1'
_cell_length_a   11.81042114
_cell_length_b   11.80544684
_cell_length_c   11.80460069
_cell_angle_alpha   40.14510881
_cell_angle_beta   151.35480782
_cell_angle_gamma   152.37454184
_symmetry_Int_Tables_number   1
_chemical_formula_structural   Sr2YAlV2O7
_chemical_formula_sum   'Sr4 Y2 Al2 V4 O14'
_cell_volume   365.21616710
_cell_formula_units_Z   2
loop_
 _symmetry_equiv_pos_site_id
 _symmetry_equiv_pos_as_xyz
  1  'x, y, z'
loop_
 _atom_site_type_symbol
 _atom_site_label
 _atom_site_symmetry_multiplicity
 _atom_site_fract_x
 _atom_site_fract_y
 _atom_site_fract_z
 _atom_site_occupancy
  Sr  Sr0  1  0.03753300  0.85437200  0.86918900  1
  Sr  Sr1  1  0.98251300  0.16837300  0.12846300  1
  Sr  Sr2  1  0.03751300  0.66832700  0.68315100  1
  Sr  Sr3  1  0.98247100  0.35409300  0.31403900  1
  Y  Y0  1  0.01349400  0.51056300  0.50253000  1
  Y  Y1  1  0.01341100  0.01094800  0.00286800  1
  Al  Al0  1  0.56859300  0.74079100  0.32781300  1
  Al  Al1  1  0.41325000  0.24103600  0.67219300  1
  V  V0  1  0.51858900  0.44516900  0.92336000  1
  V  V1  1  0.52078200  0.59887700  0.07895100  1
  V  V2  1  0.51850000  0.09525700  0.57343300  1
  V  V3  1  0.52060700  0.94163300  0.42189500  1
  O  O0  1  0.00918200  0.93517900  0.57398200  1
  O  O1  1  0.35803900  0.43452600  0.42348800  1
  O  O2  1  0.43033500  0.16384000  0.13201800  1
  O  O3  1  0.00626700  0.28726900  0.85201400  1
  O  O4  1  0.43043700  0.79839900  0.76652800  1
  O  O5  1  0.00621900  0.65423000  0.21899200  1
  O  O6  1  0.62556300  0.74495800  0.73470500  1
  O  O7  1  0.03622400  0.90154400  0.28241500  1
  O  O8  1  0.62558900  0.39090000  0.38059100  1
  O  O9  1  0.03620400  0.25382300  0.63460900  1
  O  O10  1  0.47766400  0.85622200  0.26193400  1
  O  O11  1  0.59665500  0.21720400  0.73998300  1
  O  O12  1  0.47775100  0.71585600  0.12142800  1
  O  O13  1  0.59661300  0.35660700  0.87942800  1
loop_
_geom_bond_atom_site_label_1
_geom_bond_atom_site_label_2
_geom_bond_distance
_geom_bond_site_symmetry_2
Al0 O12 1.766968 1_555
Al0 O10 1.766976 1_555
Al0 O0 1.811656 1_655
Al0 O1 1.812874 1_555
Al1 O13 1.761885 1_555
Al1 O11 1.762023 1_555
Al1 O1 1.813502 1_555
Al1 O0 1.819558 1_545
O0 Sr2 2.569323 1_555
O0 Sr0 2.569352 1_555
O1 Sr1 2.568416 1_455
O1 Sr3 2.568862 1_455
O2 V0 2.012269 1_554
O2 V3 2.134572 1_545
O2 Y1 2.260538 1_555
O2 Sr0 2.555000 1_544
O2 Y0 2.803862 1_655
O2 Sr3 3.002724 1_555
O3 V2 2.035839 1_455
O3 V1 2.125392 1_556
O3 Y1 2.272110 1_556
O3 Sr1 2.569971 1_456
O3 Y0 2.751210 1_555
O3 Sr2 2.997797 1_555
O4 V2 2.012173 1_565
O4 V1 2.133969 1_556
O4 Y0 2.260699 1_555
O4 Sr2 2.555097 1_555
O4 Y1 2.803271 1_666
O4 Sr1 3.002366 1_566
O5 V0 2.035175 1_454
O5 V3 2.124858 1_555
O5 Y0 2.271867 1_555
O5 Sr3 2.570148 1_455
O5 Y1 2.751620 1_565
O5 Sr0 2.997733 1_554
O6 V0 2.011653 1_555
O6 V3 2.126287 1_555
O6 Y1 2.263028 1_666
O6 Sr0 2.510592 1_655
O7 V2 2.014669 1_565
O7 V1 2.123141 1_455
O7 Y1 2.273853 1_565
O7 Sr1 2.528472 1_465
O7 Sr2 3.161402 1_555
O8 V2 2.011922 1_555
O8 V1 2.126672 1_555
O8 Y0 2.263171 1_655
O8 Sr2 2.510410 1_655
O9 V0 2.015174 1_555
O9 V3 2.123934 1_445
O9 Y0 2.274032 1_555
O9 Sr3 2.528199 1_455
O9 Sr0 3.161802 1_545
O10 V3 2.272276 1_555
O10 Sr0 2.483789 1_554
O10 Sr3 2.732340 1_565
O10 Sr3 3.004818 1_455
O11 V2 2.361602 1_555
O11 Sr1 2.462189 1_556
O11 Sr2 2.730460 1_655
O11 Sr2 3.015252 1_545
O12 V1 2.272978 1_555
O12 Sr2 2.483723 1_554
O12 Sr1 2.731482 1_565
O12 Sr1 3.005932 1_455
O13 V0 2.363501 1_555
O13 Sr3 2.461621 1_556
O13 Sr0 2.730938 1_655
O13 Sr0 3.014934 1_545
