# generated using pymatgen
data_Er7(TeIr)2
_symmetry_space_group_name_H-M   'P 1'
_cell_length_a   9.34488111
_cell_length_b   9.34488111
_cell_length_c   9.34488111
_cell_angle_alpha   155.76505364
_cell_angle_beta   119.35664395
_cell_angle_gamma   66.28958077
_symmetry_Int_Tables_number   1
_chemical_formula_structural   Er7(TeIr)2
_chemical_formula_sum   'Er7 Te2 Ir2'
_cell_volume   289.64840500
_cell_formula_units_Z   1
loop_
 _symmetry_equiv_pos_site_id
 _symmetry_equiv_pos_as_xyz
  1  'x, y, z'
loop_
 _atom_site_type_symbol
 _atom_site_label
 _atom_site_symmetry_multiplicity
 _atom_site_fract_x
 _atom_site_fract_y
 _atom_site_fract_z
 _atom_site_occupancy
  Er  Er0  1  0.54688700  0.13192400  0.41496400  1
  Er  Er1  1  0.28304000  0.86807600  0.41496400  1
  Er  Er2  1  0.93994300  0.31544100  0.62450200  1
  Er  Er3  1  0.30906100  0.68455900  0.62450200  1
  Er  Er4  1  0.62125400  0.35383400  0.26741900  1
  Er  Er5  1  0.91358500  0.64616600  0.26741900  1
  Er  Er6  1  0.99961300  0.00000000  0.99961300  1
  Te  Te0  1  0.26351300  0.50000000  0.76351300  1
  Te  Te1  1  0.66180600  0.00000000  0.66180600  1
  Ir  Ir0  1  0.16391400  0.23783500  0.92607900  1
  Ir  Ir1  1  0.68824400  0.76216500  0.92607900  1
loop_
_geom_bond_atom_site_label_1
_geom_bond_atom_site_label_2
_geom_bond_distance
_geom_bond_site_symmetry_2
Er0 Ir1 2.830722 1_555
Er0 Ir1 2.830725 1_544
Er0 Te1 3.112341 1_555
Er0 Te0 3.186234 1_555
Er0 Te0 3.186237 1_544
Er1 Ir0 2.830718 1_554
Er1 Ir0 2.830718 1_565
Er1 Te1 3.112343 1_565
Er1 Te0 3.186243 1_554
Er1 Te0 3.186243 1_565
Er2 Ir1 2.836972 1_544
Er2 Ir1 2.836972 1_555
Er2 Ir0 3.093879 1_655
Er2 Te0 3.172017 1_655
Er3 Ir0 2.836972 1_554
Er3 Ir0 2.836972 1_565
Er3 Ir1 3.093879 1_555
Er3 Te0 3.172017 1_555
Er4 Ir1 2.854302 1_544
Er4 Ir1 2.854305 1_555
Er4 Te1 3.173785 1_554
Er4 Te1 3.173788 1_565
Er5 Ir0 2.854302 1_665
Er5 Ir0 2.854302 1_654
Er5 Te1 3.173791 1_565
Er5 Te1 3.173791 1_554
Er6 Te0 3.169927 1_645
Er6 Te0 3.169927 1_656
Er6 Te1 3.187414 1_555
