# generated using pymatgen
data_NiB20H24(C4N)2
_symmetry_space_group_name_H-M   'P 1'
_cell_length_a   11.94356600
_cell_length_b   7.18750700
_cell_length_c   15.83171905
_cell_angle_alpha   85.90008872
_cell_angle_beta   90.00000000
_cell_angle_gamma   90.00000000
_symmetry_Int_Tables_number   1
_chemical_formula_structural   NiB20H24(C4N)2
_chemical_formula_sum   'Ni2 B40 H48 C16 N4'
_cell_volume   1355.58744693
_cell_formula_units_Z   2
loop_
 _symmetry_equiv_pos_site_id
 _symmetry_equiv_pos_as_xyz
  1  'x, y, z'
loop_
 _atom_site_type_symbol
 _atom_site_label
 _atom_site_symmetry_multiplicity
 _atom_site_fract_x
 _atom_site_fract_y
 _atom_site_fract_z
 _atom_site_occupancy
  Ni  Ni0  1  0.50000000  0.00000000  0.50000000  1
  Ni  Ni1  1  0.00000000  0.00000000  0.00000000  1
  B  B0  1  0.25271200  0.96182300  0.60193400  1
  B  B1  1  0.75271200  0.03817700  0.89806600  1
  B  B2  1  0.74728800  0.03817700  0.39806600  1
  B  B3  1  0.24728800  0.96182300  0.10193400  1
  B  B4  1  0.28171900  0.20248800  0.59070000  1
  B  B5  1  0.78171900  0.79751200  0.90930000  1
  B  B6  1  0.71828100  0.79751200  0.40930000  1
  B  B7  1  0.21828100  0.20248800  0.09070000  1
  B  B8  1  0.19296400  0.10303100  0.51676800  1
  B  B9  1  0.69296400  0.89696900  0.98323200  1
  B  B10  1  0.80703600  0.89696900  0.48323200  1
  B  B11  1  0.30703600  0.10303100  0.01676800  1
  B  B12  1  0.22856900  0.86826100  0.50350700  1
  B  B13  1  0.72856900  0.13173900  0.99649300  1
  B  B14  1  0.77143100  0.13173900  0.49649300  1
  B  B15  1  0.27143100  0.86826100  0.00350700  1
  B  B16  1  0.39372500  0.03775400  0.60809300  1
  B  B17  1  0.89372500  0.96224600  0.89190700  1
  B  B18  1  0.60627500  0.96224600  0.39190700  1
  B  B19  1  0.10627500  0.03775400  0.10809300  1
  B  B20  1  0.36169500  0.83668500  0.55444200  1
  B  B21  1  0.86169500  0.16331500  0.94555800  1
  B  B22  1  0.63830500  0.16331500  0.44555800  1
  B  B23  1  0.13830500  0.83668500  0.05444200  1
  B  B24  1  0.41021300  0.25473300  0.54583600  1
  B  B25  1  0.91021300  0.74526700  0.95416400  1
  B  B26  1  0.58978700  0.74526700  0.45416400  1
  B  B27  1  0.08978700  0.25473300  0.04583600  1
  B  B28  1  0.28946900  0.27316000  0.47885000  1
  B  B29  1  0.78946900  0.72684000  0.02115000  1
  B  B30  1  0.71053100  0.72684000  0.52115000  1
  B  B31  1  0.21053100  0.27316000  0.97885000  1
  B  B32  1  0.25204400  0.05065600  0.42006000  1
  B  B33  1  0.75204400  0.94934400  0.07994000  1
  B  B34  1  0.74795600  0.94934400  0.57994000  1
  B  B35  1  0.24795600  0.05065600  0.92006000  1
  B  B36  1  0.34432200  0.85790400  0.43973200  1
  B  B37  1  0.84432200  0.14209600  0.06026800  1
  B  B38  1  0.65567800  0.14209600  0.56026800  1
  B  B39  1  0.15567800  0.85790400  0.93973200  1
  H  H0  1  0.20310200  0.89918400  0.66306500  1
  H  H1  1  0.70310200  0.10081600  0.83693500  1
  H  H2  1  0.79689800  0.10081600  0.33693500  1
  H  H3  1  0.29689800  0.89918400  0.16306500  1
  H  H4  1  0.24884100  0.30599300  0.64129400  1
  H  H5  1  0.74884100  0.69400700  0.85870600  1
  H  H6  1  0.75115900  0.69400700  0.35870600  1
  H  H7  1  0.25115900  0.30599300  0.14129400  1
  H  H8  1  0.09748800  0.15257300  0.50804700  1
  H  H9  1  0.59748800  0.84742700  0.99195300  1
  H  H10  1  0.90251200  0.84742700  0.49195300  1
  H  H11  1  0.40251200  0.15257300  0.00804700  1
  H  H12  1  0.16131000  0.74609700  0.49697700  1
  H  H13  1  0.66131000  0.25390300  0.00302300  1
  H  H14  1  0.83869000  0.25390300  0.50302300  1
  H  H15  1  0.33869000  0.74609700  0.99697700  1
  H  H16  1  0.44989500  0.02427600  0.67136200  1
  H  H17  1  0.94989500  0.97572400  0.82863800  1
  H  H18  1  0.55010500  0.97572400  0.32863800  1
  H  H19  1  0.05010500  0.02427600  0.17136200  1
  H  H20  1  0.47337200  0.37630300  0.56104500  1
  H  H21  1  0.97337200  0.62369700  0.93895500  1
  H  H22  1  0.52662800  0.62369700  0.43895500  1
  H  H23  1  0.02662800  0.37630300  0.06104500  1
  H  H24  1  0.26375600  0.41684700  0.44115100  1
  H  H25  1  0.76375600  0.58315300  0.05884900  1
  H  H26  1  0.73624400  0.58315300  0.55884900  1
  H  H27  1  0.23624400  0.41684700  0.94115100  1
  H  H28  1  0.20554800  0.07885900  0.35348300  1
  H  H29  1  0.70554800  0.92114100  0.14651700  1
  H  H30  1  0.79445200  0.92114100  0.64651700  1
  H  H31  1  0.29445200  0.07885900  0.85348300  1
  H  H32  1  0.36936500  0.74475400  0.39177200  1
  H  H33  1  0.86936500  0.25524600  0.10822800  1
  H  H34  1  0.63063500  0.25524600  0.60822800  1
  H  H35  1  0.13063500  0.74475400  0.89177200  1
  H  H36  1  0.39805000  0.68750000  0.58117200  1
  H  H37  1  0.89805000  0.31250000  0.91882800  1
  H  H38  1  0.60195000  0.31250000  0.41882800  1
  H  H39  1  0.10195000  0.68750000  0.08117200  1
  H  H40  1  0.40032500  0.26978700  0.46206500  1
  H  H41  1  0.90032500  0.73021300  0.03793500  1
  H  H42  1  0.59967500  0.73021300  0.53793500  1
  H  H43  1  0.09967500  0.26978700  0.96206500  1
  H  H44  1  0.35765300  0.02128500  0.39553800  1
  H  H45  1  0.85765300  0.97871500  0.10446200  1
  H  H46  1  0.64234700  0.97871500  0.60446200  1
  H  H47  1  0.14234700  0.02128500  0.89553800  1
  C  C0  1  0.50348200  0.54123200  0.86142900  1
  C  C1  1  0.00348200  0.45876800  0.63857100  1
  C  C2  1  0.49651800  0.45876800  0.13857100  1
  C  C3  1  0.99651800  0.54123200  0.36142900  1
  C  C4  1  0.44346600  0.68751300  0.80646700  1
  C  C5  1  0.94346600  0.31248700  0.69353300  1
  C  C6  1  0.55653400  0.31248700  0.19353300  1
  C  C7  1  0.05653400  0.68751300  0.30646700  1
  C  C8  1  0.40241300  0.50816600  0.77532200  1
  C  C9  1  0.90241300  0.49183400  0.72467800  1
  C  C10  1  0.59758700  0.49183400  0.22467800  1
  C  C11  1  0.09758700  0.50816600  0.27532200  1
  C  C12  1  0.53694200  0.62499000  0.75194000  1
  C  C13  1  0.03694200  0.37501000  0.74806000  1
  C  C14  1  0.46305800  0.37501000  0.24806000  1
  C  C15  1  0.96305800  0.62499000  0.25194000  1
  N  N0  1  0.51716100  0.42946600  0.78685800  1
  N  N1  1  0.01716100  0.57053400  0.71314200  1
  N  N2  1  0.48283900  0.57053400  0.21314200  1
  N  N3  1  0.98283900  0.42946600  0.28685800  1
loop_
_geom_bond_atom_site_label_1
_geom_bond_atom_site_label_2
_geom_bond_distance
_geom_bond_site_symmetry_2
B0 H0 1.195042 1_555
B1 H1 1.195042 1_555
B2 H2 1.195042 1_555
B3 H3 1.195042 1_555
B4 H4 1.197682 1_555
B5 H5 1.197682 1_555
B6 H6 1.197682 1_555
B7 H7 1.197682 1_555
B8 H8 1.199653 1_555
B9 H9 1.199653 1_555
B10 H10 1.199653 1_555
B11 H11 1.199653 1_555
B12 H12 1.199983 1_555
B13 H13 1.199983 1_556
B14 H14 1.199983 1_555
B15 H15 1.199983 1_554
B16 H16 1.203700 1_555
B16 Ni0 2.163263 1_555
B17 H17 1.203700 1_555
B17 Ni1 2.163263 1_666
B18 H18 1.203700 1_555
B18 Ni0 2.163263 1_565
B19 H19 1.203700 1_555
B19 Ni1 2.163263 1_555
B20 H36 1.205195 1_555
B20 Ni0 2.169036 1_565
B21 H37 1.205195 1_555
B21 Ni1 2.169036 1_656
B22 H38 1.205195 1_555
B22 Ni0 2.169036 1_555
B23 H39 1.205195 1_555
B23 Ni1 2.169036 1_565
B24 H20 1.191888 1_555
B24 H40 1.328174 1_555
B24 Ni0 2.284455 1_555
B25 H21 1.191888 1_555
B25 H41 1.328174 1_556
B25 Ni1 2.284455 1_666
B26 H22 1.191888 1_555
B26 H42 1.328174 1_555
B26 Ni0 2.284455 1_565
B27 H23 1.191888 1_555
B27 H43 1.328174 1_554
B27 Ni1 2.284455 1_555
B28 H24 1.195395 1_555
B28 H40 1.350978 1_555
B29 H25 1.195395 1_555
B29 H41 1.350978 1_555
B30 H26 1.195395 1_555
B30 H42 1.350978 1_555
B31 H27 1.195395 1_555
B31 H43 1.350978 1_555
B32 H28 1.195786 1_555
B32 H44 1.340896 1_555
B33 H29 1.195786 1_555
B33 H45 1.340896 1_555
B34 H30 1.195786 1_555
B34 H46 1.340896 1_555
B35 H31 1.195786 1_555
B35 H47 1.340896 1_555
B36 H32 1.189825 1_555
B36 H44 1.332811 1_565
B36 Ni0 2.355846 1_565
B37 H33 1.189825 1_555
B37 H45 1.332811 1_545
B37 Ni1 2.355846 1_655
B38 H34 1.189825 1_555
B38 H46 1.332811 1_545
B38 Ni0 2.355846 1_555
B39 H35 1.189825 1_555
B39 H47 1.332811 1_565
B39 Ni1 2.355846 1_566
H40 Ni0 2.317648 1_555
H41 Ni1 2.317648 1_665
H42 Ni0 2.317648 1_565
H43 Ni1 2.317648 1_556
H44 Ni0 2.369128 1_555
H45 Ni1 2.369128 1_665
H46 Ni0 2.369128 1_565
H47 Ni1 2.369128 1_556
C0 N0 1.483715 1_555
C0 C4 1.498524 1_555
C1 N1 1.483715 1_555
C1 C5 1.498524 1_455
C2 N2 1.483715 1_555
C2 C6 1.498524 1_555
C3 N3 1.483715 1_555
C3 C7 1.498524 1_655
C4 C8 1.495358 1_555
C5 C9 1.495358 1_555
C8 N0 1.488900 1_555
C9 N1 1.488900 1_655
C10 N2 1.488900 1_555
C10 C6 1.495358 1_555
C11 N3 1.488900 1_455
C11 C7 1.495358 1_555
C12 N0 1.491738 1_555
C12 C4 1.499687 1_555
C13 N1 1.491738 1_555
C13 C5 1.499687 1_455
C14 N2 1.491738 1_555
C14 C6 1.499687 1_555
C15 N3 1.491738 1_555
C15 C7 1.499687 1_655
