# generated using pymatgen
data_Y7(O2F3)3
_symmetry_space_group_name_H-M   'P 1'
_cell_length_a   19.72147983
_cell_length_b   19.72147983
_cell_length_c   5.50222141
_cell_angle_alpha   89.92818939
_cell_angle_beta   89.92818939
_cell_angle_gamma   16.36129289
_symmetry_Int_Tables_number   1
_chemical_formula_structural   Y7(O2F3)3
_chemical_formula_sum   'Y14 O12 F18'
_cell_volume   602.82776964
_cell_formula_units_Z   2
loop_
 _symmetry_equiv_pos_site_id
 _symmetry_equiv_pos_as_xyz
  1  'x, y, z'
loop_
 _atom_site_type_symbol
 _atom_site_label
 _atom_site_symmetry_multiplicity
 _atom_site_fract_x
 _atom_site_fract_y
 _atom_site_fract_z
 _atom_site_occupancy
  Y  Y0  1  0.67397600  0.11361900  0.29886100  1
  Y  Y1  1  0.88638100  0.32602400  0.70113900  1
  Y  Y2  1  0.16942900  0.61861300  0.70179800  1
  Y  Y3  1  0.38138700  0.83057100  0.29820200  1
  Y  Y4  1  0.54334600  0.10365700  0.70776700  1
  Y  Y5  1  0.89634300  0.45665400  0.29223300  1
  Y  Y6  1  0.06879800  0.57835900  0.28858100  1
  Y  Y7  1  0.42164100  0.93120200  0.71141900  1
  Y  Y8  1  0.54526400  0.95594400  0.27695900  1
  Y  Y9  1  0.04405600  0.45473600  0.72304100  1
  Y  Y10  1  0.70595300  0.22342600  0.70712700  1
  Y  Y11  1  0.77657400  0.29404700  0.29287300  1
  Y  Y12  1  0.20704000  0.72239700  0.29248800  1
  Y  Y13  1  0.27760300  0.79296000  0.70751200  1
  O  O0  1  0.44876800  0.40763300  0.47884800  1
  O  O1  1  0.59236700  0.55123200  0.52115200  1
  O  O2  1  0.94796300  0.90807800  0.52091800  1
  O  O3  1  0.09192200  0.05203700  0.47908200  1
  O  O4  1  0.97926200  0.02073800  0.50000000  1
  O  O5  1  0.47906700  0.52093300  0.50000000  1
  O  O6  1  0.35592700  0.35769200  0.46977300  1
  O  O7  1  0.64230800  0.64407300  0.53022700  1
  O  O8  1  0.85374900  0.85593800  0.52922300  1
  O  O9  1  0.14406200  0.14625100  0.47077700  1
  O  O10  1  0.29947400  0.26830900  0.46413000  1
  O  O11  1  0.73169100  0.70052600  0.53587000  1
  F  F0  1  0.84978700  0.02075900  0.03464600  1
  F  F1  1  0.97924100  0.15021300  0.96535400  1
  F  F2  1  0.34931800  0.52142400  0.96428100  1
  F  F3  1  0.47857600  0.65068200  0.03571900  1
  F  F4  1  0.48669100  0.25209400  0.94600600  1
  F  F5  1  0.74790600  0.51330900  0.05399400  1
  F  F6  1  0.99272600  0.74738500  0.05699300  1
  F  F7  1  0.25261500  0.00727400  0.94300700  1
  F  F8  1  0.68253900  0.92864100  0.08997200  1
  F  F9  1  0.07135900  0.31746100  0.91002800  1
  F  F10  1  0.17339000  0.43971800  0.90982600  1
  F  F11  1  0.56028200  0.82661000  0.09017400  1
  F  F12  1  0.41275800  0.08515400  0.89263400  1
  F  F13  1  0.91484600  0.58724200  0.10736600  1
  F  F14  1  0.80175800  0.76971000  0.54816500  1
  F  F15  1  0.23029000  0.19824200  0.45183500  1
  F  F16  1  0.58235300  0.41764700  0.00000000  1
  F  F17  1  0.08321000  0.91679000  0.00000000  1
loop_
_geom_bond_atom_site_label_1
_geom_bond_atom_site_label_2
_geom_bond_distance
_geom_bond_site_symmetry_2
O0 Y0 2.216128 1_555
O0 Y10 2.268459 1_555
O0 Y2 2.274786 1_555
O0 Y12 2.349297 1_555
O1 Y1 2.216128 1_555
O1 Y11 2.268459 1_555
O1 Y3 2.274786 1_555
O1 Y13 2.349297 1_555
O2 Y2 2.192016 1_655
O2 Y0 2.256772 1_565
O2 Y12 2.277215 1_655
O2 Y10 2.355706 1_565
O3 Y3 2.192016 1_545
O3 Y1 2.256772 1_455
O3 Y13 2.277215 1_545
O3 Y11 2.355706 1_455
O4 Y10 2.231503 1_555
O4 Y11 2.231503 1_555
O4 Y12 2.320524 1_645
O4 Y13 2.320524 1_645
O5 Y13 2.229471 1_555
O5 Y12 2.229471 1_555
O5 Y10 2.315357 1_555
O5 Y11 2.315357 1_555
O6 Y6 2.170501 1_555
O6 Y4 2.221759 1_555
O6 Y2 2.306864 1_555
O6 Y0 2.335514 1_555
O7 Y7 2.170501 1_555
O7 Y5 2.221759 1_555
O7 Y3 2.306864 1_555
O7 Y1 2.335514 1_555
O8 Y4 2.216402 1_565
O8 Y6 2.271198 1_655
O8 Y0 2.328437 1_565
O8 Y2 2.377638 1_655
O9 Y5 2.216402 1_455
O9 Y7 2.271198 1_545
O9 Y1 2.328437 1_455
O9 Y3 2.377638 1_545
O10 Y8 2.281738 1_545
O10 Y9 2.318572 1_555
O10 Y4 2.346928 1_555
O10 Y6 2.373294 1_555
O11 Y9 2.281738 1_655
O11 Y8 2.318572 1_555
O11 Y5 2.346928 1_555
O11 Y7 2.373294 1_555
F0 Y0 2.301733 1_555
F0 Y10 2.346645 1_554
F0 Y12 2.592950 1_645
F1 Y1 2.301733 1_555
F1 Y11 2.346645 1_556
F1 Y13 2.592950 1_645
F2 Y2 2.302718 1_555
F2 Y12 2.346710 1_556
F2 Y10 2.585135 1_555
F3 Y3 2.302718 1_555
F3 Y13 2.346710 1_554
F3 Y11 2.585135 1_555
F4 Y4 2.294678 1_555
F4 Y0 2.348958 1_556
F4 Y2 2.531566 1_555
F5 Y5 2.294678 1_555
F5 Y1 2.348958 1_554
F5 Y3 2.531566 1_555
F6 Y6 2.320232 1_655
F6 Y2 2.329207 1_654
F6 Y0 2.515630 1_565
F7 Y7 2.320232 1_545
F7 Y3 2.329207 1_546
F7 Y1 2.515630 1_455
F8 Y4 2.384383 1_564
F8 Y8 2.423784 1_555
F8 Y6 2.441627 1_655
F9 Y5 2.384383 1_456
F9 Y9 2.423784 1_555
F9 Y7 2.441627 1_545
F10 Y6 2.292210 1_556
F10 Y4 2.365880 1_555
F10 Y9 2.491166 1_555
F11 Y7 2.292210 1_554
F11 Y5 2.365880 1_555
F11 Y8 2.491166 1_555
F12 Y8 2.239553 1_546
F12 Y9 2.272317 1_555
F13 Y9 2.239553 1_654
F13 Y8 2.272317 1_555
F14 Y9 2.319634 1_655
F14 Y8 2.378367 1_555
F14 Y4 2.389958 1_565
F14 Y6 2.423310 1_655
F15 Y8 2.319634 1_545
F15 Y9 2.378367 1_555
F15 Y5 2.389958 1_455
F15 Y7 2.423310 1_545
F16 Y10 2.301814 1_554
F16 Y11 2.301814 1_555
F16 Y13 2.850231 1_554
F16 Y12 2.850231 1_555
F17 Y13 2.297646 1_554
F17 Y12 2.297646 1_555
F17 Y11 2.861143 1_465
F17 Y10 2.861143 1_464
