# generated using pymatgen
data_Hf2(NiP)3
_symmetry_space_group_name_H-M   'P 1'
_cell_length_a   3.58848950
_cell_length_b   9.94417795
_cell_length_c   12.18907745
_cell_angle_alpha   90.00080496
_cell_angle_beta   90.00000000
_cell_angle_gamma   90.00000000
_symmetry_Int_Tables_number   1
_chemical_formula_structural   Hf2(NiP)3
_chemical_formula_sum   'Hf8 Ni12 P12'
_cell_volume   434.96208694
_cell_formula_units_Z   4
loop_
 _symmetry_equiv_pos_site_id
 _symmetry_equiv_pos_as_xyz
  1  'x, y, z'
loop_
 _atom_site_type_symbol
 _atom_site_label
 _atom_site_symmetry_multiplicity
 _atom_site_fract_x
 _atom_site_fract_y
 _atom_site_fract_z
 _atom_site_occupancy
  Hf  Hf0  1  0.25000000  0.33578415  0.99550445  1
  Hf  Hf1  1  0.25000000  0.16422544  0.49551181  1
  Hf  Hf2  1  0.75000000  0.66419136  0.00449599  1
  Hf  Hf3  1  0.75000000  0.83580480  0.50448350  1
  Hf  Hf4  1  0.25000000  0.42716794  0.70966053  1
  Hf  Hf5  1  0.25000000  0.07282554  0.20962669  1
  Hf  Hf6  1  0.75000000  0.57281094  0.29036425  1
  Hf  Hf7  1  0.75000000  0.92718436  0.79035204  1
  Ni  Ni0  1  0.25000000  0.90402547  0.98247391  1
  Ni  Ni1  1  0.25000000  0.59600106  0.48268063  1
  Ni  Ni2  1  0.75000000  0.09597476  0.01729980  1
  Ni  Ni3  1  0.75000000  0.40399596  0.51753206  1
  Ni  Ni4  1  0.25000000  0.13518775  0.71675977  1
  Ni  Ni5  1  0.25000000  0.36476223  0.21672924  1
  Ni  Ni6  1  0.75000000  0.86481863  0.28327219  1
  Ni  Ni7  1  0.75000000  0.63519571  0.78325714  1
  Ni  Ni8  1  0.25000000  0.77478699  0.16505367  1
  Ni  Ni9  1  0.25000000  0.72527113  0.66518629  1
  Ni  Ni10  1  0.75000000  0.22523152  0.83484611  1
  Ni  Ni11  1  0.75000000  0.27479612  0.33491243  1
  P  P0  1  0.25000000  0.10282011  0.89833873  1
  P  P1  1  0.25000000  0.39721299  0.39839898  1
  P  P2  1  0.75000000  0.89717475  0.10161260  1
  P  P3  1  0.75000000  0.60285537  0.60167878  1
  P  P4  1  0.25000000  0.73856110  0.85503858  1
  P  P5  1  0.25000000  0.76138599  0.35503287  1
  P  P6  1  0.75000000  0.26137221  0.14495000  1
  P  P7  1  0.75000000  0.23856608  0.64496527  1
  P  P8  1  0.25000000  0.55451312  0.12728951  1
  P  P9  1  0.25000000  0.94548291  0.62728099  1
  P  P10  1  0.75000000  0.44549592  0.87270581  1
  P  P11  1  0.75000000  0.05451758  0.37270336  1
loop_
_geom_bond_atom_site_label_1
_geom_bond_atom_site_label_2
_geom_bond_distance
_geom_bond_site_symmetry_2
Hf0 P10 2.578768 1_555
Hf0 P10 2.578768 1_455
Hf0 P0 2.601814 1_555
Hf0 P6 2.661793 1_556
Hf0 P6 2.661793 1_456
Hf0 P8 2.703922 1_556
Hf0 Ni5 2.711876 1_556
Hf0 Ni10 2.874488 1_455
Hf0 Ni10 2.874488 1_555
Hf0 Ni2 2.996121 1_456
Hf0 Ni2 2.996121 1_556
Hf1 P11 2.578803 1_455
Hf1 P11 2.578803 1_555
Hf1 P1 2.601758 1_555
Hf1 P7 2.661647 1_555
Hf1 P7 2.661647 1_455
Hf1 P9 2.703952 1_545
Hf1 Ni4 2.712228 1_555
Hf1 Ni11 2.874089 1_455
Hf1 Ni11 2.874089 1_555
Hf1 Ni3 2.996051 1_555
Hf1 Ni3 2.996051 1_455
Hf2 P8 2.578591 1_555
Hf2 P8 2.578591 1_655
Hf2 P2 2.601713 1_555
Hf2 P4 2.661775 1_654
Hf2 P4 2.661775 1_554
Hf2 P10 2.703691 1_554
Hf2 Ni7 2.712065 1_554
Hf2 Ni8 2.873816 1_655
Hf2 Ni8 2.873816 1_555
Hf2 Ni0 2.996563 1_654
Hf2 Ni0 2.996563 1_554
Hf3 P9 2.578600 1_655
Hf3 P9 2.578600 1_555
Hf3 P3 2.601878 1_555
Hf3 P5 2.661840 1_655
Hf3 P5 2.661840 1_555
Hf3 P11 2.703794 1_565
Hf3 Ni6 2.711758 1_555
Hf3 Ni9 2.874807 1_655
Hf3 Ni9 2.874807 1_555
Hf3 Ni1 2.996078 1_555
Hf3 Ni1 2.996078 1_655
Hf4 P10 2.683685 1_555
Hf4 P10 2.683685 1_455
Hf4 P7 2.712672 1_455
Hf4 P7 2.712672 1_555
Hf4 P3 2.829134 1_455
Hf4 P3 2.829134 1_555
Hf4 Ni7 2.881559 1_555
Hf4 Ni7 2.881559 1_455
Hf4 Ni4 2.904793 1_555
Hf4 Ni3 2.959180 1_455
Hf4 Ni3 2.959180 1_555
Hf4 Ni9 3.013558 1_555
Hf4 Ni10 3.095189 1_455
Hf4 Ni10 3.095189 1_555
Hf4 Ni1 3.236256 1_555
Hf5 P11 2.683959 1_555
Hf5 P11 2.683959 1_455
Hf5 P6 2.712242 1_555
Hf5 P6 2.712242 1_455
Hf5 P2 2.829070 1_445
Hf5 P2 2.829070 1_545
Hf5 Ni6 2.881614 1_545
Hf5 Ni6 2.881614 1_445
Hf5 Ni5 2.904360 1_555
Hf5 Ni2 2.961082 1_555
Hf5 Ni2 2.961082 1_455
Hf5 Ni8 3.013128 1_545
Hf5 Ni11 3.095983 1_555
Hf5 Ni11 3.095983 1_455
Hf5 Ni0 3.237847 1_544
Hf6 P8 2.683931 1_655
Hf6 P8 2.683931 1_555
Hf6 P5 2.712393 1_655
Hf6 P5 2.712393 1_555
Hf6 P1 2.828885 1_555
Hf6 P1 2.828885 1_655
Hf6 Ni5 2.881854 1_555
Hf6 Ni5 2.881854 1_655
Hf6 Ni6 2.905064 1_555
Hf6 Ni1 2.961007 1_555
Hf6 Ni1 2.961007 1_655
Hf6 Ni11 3.012856 1_555
Hf6 Ni8 3.096196 1_555
Hf6 Ni8 3.096196 1_655
Hf6 Ni3 3.238121 1_555
Hf7 P9 2.683902 1_555
Hf7 P9 2.683902 1_655
Hf7 P4 2.712803 1_555
Hf7 P4 2.712803 1_655
Hf7 P0 2.828822 1_565
Hf7 P0 2.828822 1_665
Hf7 Ni4 2.881386 1_665
Hf7 Ni4 2.881386 1_565
Hf7 Ni7 2.904873 1_555
Hf7 Ni0 2.959111 1_555
Hf7 Ni0 2.959111 1_655
Hf7 Ni10 3.013039 1_565
Hf7 Ni9 3.094892 1_555
Hf7 Ni9 3.094892 1_655
Hf7 Ni2 3.235660 1_566
Ni0 P0 2.227039 1_565
Ni0 P4 2.262762 1_555
Ni0 P2 2.309289 1_556
Ni0 P2 2.309289 1_456
Ni1 P1 2.227778 1_555
Ni1 P5 2.263998 1_555
Ni1 P3 2.308212 1_455
Ni1 P3 2.308212 1_555
Ni2 P2 2.228084 1_545
Ni2 P6 2.264077 1_555
Ni2 P0 2.307927 1_554
Ni2 P0 2.307927 1_654
Ni3 P3 2.227650 1_555
Ni3 P7 2.262527 1_555
Ni3 P1 2.309225 1_555
Ni3 P1 2.309225 1_655
Ni4 P9 2.179040 1_545
Ni4 P0 2.236566 1_555
Ni4 P7 2.245432 1_555
Ni4 P7 2.245432 1_455
Ni5 P8 2.179225 1_555
Ni5 P1 2.237771 1_555
Ni5 P6 2.245401 1_455
Ni5 P6 2.245401 1_555
Ni6 P11 2.178699 1_565
Ni6 P2 2.237522 1_555
Ni6 P5 2.245519 1_655
Ni6 P5 2.245519 1_555
Ni7 P10 2.178840 1_555
Ni7 P3 2.236511 1_555
Ni7 P4 2.245300 1_555
Ni7 P4 2.245300 1_655
Ni8 P8 2.238280 1_555
Ni8 P2 2.301850 1_555
Ni8 P2 2.301850 1_455
Ni8 P5 2.319504 1_555
Ni9 P9 2.238043 1_555
Ni9 P3 2.302258 1_455
Ni9 P3 2.302258 1_555
Ni9 P4 2.317893 1_555
Ni10 P10 2.238427 1_555
Ni10 P0 2.302186 1_555
Ni10 P0 2.302186 1_655
Ni10 P7 2.318270 1_555
Ni11 P11 2.238405 1_555
Ni11 P1 2.302178 1_555
Ni11 P1 2.302178 1_655
Ni11 P6 2.319310 1_555
