# generated using pymatgen
data_NdAsPd
_symmetry_space_group_name_H-M   'P 1'
_cell_length_a   4.51758889
_cell_length_b   4.51758889
_cell_length_c   7.78057300
_cell_angle_alpha   90.00000000
_cell_angle_beta   90.00000000
_cell_angle_gamma   120.00001304
_symmetry_Int_Tables_number   1
_chemical_formula_structural   NdAsPd
_chemical_formula_sum   'Nd2 As2 Pd2'
_cell_volume   137.51674048
_cell_formula_units_Z   2
loop_
 _symmetry_equiv_pos_site_id
 _symmetry_equiv_pos_as_xyz
  1  'x, y, z'
loop_
 _atom_site_type_symbol
 _atom_site_label
 _atom_site_symmetry_multiplicity
 _atom_site_fract_x
 _atom_site_fract_y
 _atom_site_fract_z
 _atom_site_occupancy
  Nd  Nd0  1  0.00000000  0.00000000  0.24355200  1
  Nd  Nd1  1  0.00000000  0.00000000  0.75644800  1
  As  As0  1  0.33333300  0.66666700  0.50002300  1
  As  As1  1  0.66666700  0.33333300  0.49997700  1
  Pd  Pd0  1  0.66666700  0.33333300  0.98984100  1
  Pd  Pd1  1  0.33333300  0.66666700  0.01015900  1
loop_
_geom_bond_atom_site_label_1
_geom_bond_atom_site_label_2
_geom_bond_distance
_geom_bond_site_symmetry_2
Nd0 Pd1 3.178123 1_545
Nd0 Pd1 3.178125 1_555
Nd0 Pd1 3.178125 1_445
Nd0 Pd0 3.271024 1_454
Nd0 Pd0 3.271027 1_554
Nd0 Pd0 3.271027 1_444
Nd1 Pd0 3.178123 1_455
Nd1 Pd0 3.178125 1_445
Nd1 Pd0 3.178125 1_555
Nd1 Pd1 3.271024 1_546
Nd1 Pd1 3.271027 1_446
Nd1 Pd1 3.271027 1_556
As0 As1 2.608228 1_455
As0 As1 2.608228 1_565
As0 As1 2.608237 1_555
As0 Nd1 3.283811 1_565
As0 Nd1 3.283814 1_665
As0 Nd1 3.283814 1_555
As0 Nd0 3.284028 1_565
As0 Nd0 3.284031 1_665
As0 Nd0 3.284031 1_555
As1 Nd0 3.283811 1_655
As1 Nd0 3.283814 1_555
As1 Nd0 3.283814 1_665
As1 Nd1 3.284028 1_655
As1 Nd1 3.284031 1_665
As1 Nd1 3.284031 1_555
Pd0 Pd1 2.613015 1_546
Pd0 Pd1 2.613015 1_656
Pd0 Pd1 2.613023 1_556
