# generated using pymatgen
data_Er5Tl3
_symmetry_space_group_name_H-M   'P 1'
_cell_length_a   7.98989500
_cell_length_b   7.98989500
_cell_length_c   9.12036229
_cell_angle_alpha   115.97793826
_cell_angle_beta   115.97793826
_cell_angle_gamma   90.00000000
_symmetry_Int_Tables_number   1
_chemical_formula_structural   Er5Tl3
_chemical_formula_sum   'Er10 Tl6'
_cell_volume   457.06618513
_cell_formula_units_Z   2
loop_
 _symmetry_equiv_pos_site_id
 _symmetry_equiv_pos_as_xyz
  1  'x, y, z'
loop_
 _atom_site_type_symbol
 _atom_site_label
 _atom_site_symmetry_multiplicity
 _atom_site_fract_x
 _atom_site_fract_y
 _atom_site_fract_z
 _atom_site_occupancy
  Er  Er0  1  0.50000000  0.50000000  0.00000000  1
  Er  Er1  1  0.00000000  0.00000000  0.00000000  1
  Er  Er2  1  0.99176100  0.81145400  0.30321400  1
  Er  Er3  1  0.31145300  0.49176100  0.30321400  1
  Er  Er4  1  0.81145400  0.31145300  0.30321400  1
  Er  Er5  1  0.49176100  0.99176100  0.30321400  1
  Er  Er6  1  0.00823900  0.18854700  0.69678600  1
  Er  Er7  1  0.68854600  0.50823900  0.69678600  1
  Er  Er8  1  0.18854700  0.68854600  0.69678600  1
  Er  Er9  1  0.50823900  0.00823900  0.69678600  1
  Tl  Tl0  1  0.75000000  0.75000000  0.50000000  1
  Tl  Tl1  1  0.25000000  0.25000000  0.50000000  1
  Tl  Tl2  1  0.63615800  0.86384200  0.00000000  1
  Tl  Tl3  1  0.36384200  0.13615800  0.00000000  1
  Tl  Tl4  1  0.86384200  0.36384200  0.00000000  1
  Tl  Tl5  1  0.13615800  0.63615800  0.00000000  1
loop_
_geom_bond_atom_site_label_1
_geom_bond_atom_site_label_2
_geom_bond_distance
_geom_bond_site_symmetry_2
Er0 Tl3 3.103948 1_555
Er0 Tl5 3.103948 1_555
Er0 Tl4 3.103948 1_555
Er0 Tl2 3.103948 1_555
Er0 Tl0 3.579868 1_555
Er0 Tl1 3.579868 1_554
Er1 Tl3 3.103948 1_555
Er1 Tl2 3.103948 1_445
Er1 Tl5 3.103948 1_545
Er1 Tl4 3.103948 1_455
Er1 Tl1 3.579868 1_555
Er1 Tl0 3.579868 1_444
Er2 Tl2 3.166403 1_555
Er2 Tl5 3.215927 1_655
Er2 Tl4 3.215933 1_555
Er2 Tl1 3.317014 1_665
Er2 Tl0 3.317024 1_555
Er3 Tl3 3.166407 1_555
Er3 Tl5 3.215927 1_555
Er3 Tl4 3.215927 1_455
Er3 Tl1 3.317021 1_555
Er3 Tl0 3.317021 1_555
Er4 Tl4 3.166403 1_555
Er4 Tl2 3.215927 1_545
Er4 Tl3 3.215933 1_555
Er4 Tl1 3.317014 1_655
Er4 Tl0 3.317024 1_555
Er5 Tl5 3.166408 1_555
Er5 Tl3 3.215927 1_565
Er5 Tl2 3.215927 1_555
Er5 Tl1 3.317021 1_565
Er5 Tl0 3.317021 1_555
Er6 Tl3 3.166407 1_556
Er6 Tl4 3.215927 1_456
Er6 Tl5 3.215927 1_556
Er6 Tl1 3.317021 1_555
Er6 Tl0 3.317021 1_445
Er7 Tl2 3.166403 1_556
Er7 Tl4 3.215927 1_556
Er7 Tl5 3.215933 1_656
Er7 Tl1 3.317014 1_555
Er7 Tl0 3.317024 1_555
Er8 Tl5 3.166403 1_556
Er8 Tl2 3.215927 1_556
Er8 Tl3 3.215933 1_566
Er8 Tl1 3.317014 1_555
Er8 Tl0 3.317024 1_455
Er9 Tl4 3.166408 1_556
Er9 Tl2 3.215927 1_546
Er9 Tl3 3.215927 1_556
Er9 Tl1 3.317021 1_555
Er9 Tl0 3.317021 1_545
Tl2 Tl3 3.077012 1_565
Tl4 Tl5 3.077012 1_655
