# generated using pymatgen
data_Mn4In4(SeS)5
_symmetry_space_group_name_H-M   'P 1'
_cell_length_a   3.97500644
_cell_length_b   16.77792905
_cell_length_c   6.91837821
_cell_angle_alpha   102.16071862
_cell_angle_beta   89.90691611
_cell_angle_gamma   96.66839365
_symmetry_Int_Tables_number   1
_chemical_formula_structural   Mn4In4(SeS)5
_chemical_formula_sum   'Mn4 In4 Se5 S5'
_cell_volume   447.87409805
_cell_formula_units_Z   1
loop_
 _symmetry_equiv_pos_site_id
 _symmetry_equiv_pos_as_xyz
  1  'x, y, z'
loop_
 _atom_site_type_symbol
 _atom_site_label
 _atom_site_symmetry_multiplicity
 _atom_site_fract_x
 _atom_site_fract_y
 _atom_site_fract_z
 _atom_site_occupancy
  Mn  Mn0  1  0.79539100  0.58739100  0.44497800  1
  Mn  Mn1  1  0.29567500  0.58907900  0.97230800  1
  Mn  Mn2  1  0.20305900  0.40721200  0.54383800  1
  Mn  Mn3  1  0.70232000  0.40578800  0.03125700  1
  In  In0  1  0.59439800  0.18579500  0.25969300  1
  In  In1  1  0.09187500  0.18316800  0.75964700  1
  In  In2  1  0.41021100  0.82196700  0.74304600  1
  In  In3  1  0.90757300  0.81588200  0.24150000  1
  Se  Se0  1  0.33378500  0.66576900  0.66603700  1
  Se  Se1  1  0.44772400  0.89780300  0.11948000  1
  Se  Se2  1  0.94880400  0.90046200  0.61186400  1
  Se  Se3  1  0.55298900  0.10392700  0.88742400  1
  Se  Se4  1  0.05470200  0.10532600  0.38581500  1
  S  S0  1  0.24900800  0.50067300  0.24737500  1
  S  S1  1  0.74810900  0.49625600  0.75299800  1
  S  S2  1  0.16472000  0.33196800  0.83436300  1
  S  S3  1  0.66589600  0.33458400  0.33278000  1
  S  S4  1  0.83376100  0.66694800  0.16559800  1
loop_
_geom_bond_atom_site_label_1
_geom_bond_atom_site_label_2
_geom_bond_distance
_geom_bond_site_symmetry_2
Mn0 S4 2.565077 1_555
Mn0 S0 2.645821 1_655
Mn0 Se0 2.671893 1_555
Mn0 S0 2.672193 1_555
Mn0 Se0 2.675457 1_655
Mn0 S1 2.866924 1_555
Mn1 S4 2.584476 1_456
Mn1 S4 2.587324 1_556
Mn1 S0 2.641998 1_556
Mn1 Se0 2.696408 1_555
Mn1 S1 2.758252 1_555
Mn1 S1 2.773619 1_455
Mn2 S2 2.584627 1_555
Mn2 S3 2.600783 1_555
Mn2 S3 2.613885 1_455
Mn2 S1 2.702680 1_455
Mn2 S1 2.714333 1_555
Mn2 S0 2.826005 1_555
Mn3 S2 2.564707 1_654
Mn3 S2 2.576844 1_554
Mn3 S3 2.609323 1_555
Mn3 S1 2.684929 1_554
Mn3 S0 2.769747 1_555
Mn3 S0 2.774263 1_655
In0 S3 2.423263 1_555
In0 Se4 2.646507 1_555
In0 Se3 2.646775 1_554
In0 Se4 2.647113 1_655
In1 S2 2.423372 1_555
In1 Se4 2.636261 1_555
In1 Se3 2.639153 1_455
In1 Se3 2.641034 1_555
In2 Se0 2.543910 1_555
In2 Se2 2.642736 1_555
In2 Se1 2.642865 1_556
In2 Se2 2.644238 1_455
In3 S4 2.425542 1_555
In3 Se1 2.647531 1_655
In3 Se1 2.649598 1_555
In3 Se2 2.649817 1_555
