# generated using pymatgen
data_Co4Te3N2
_symmetry_space_group_name_H-M   'P 1'
_cell_length_a   6.22016800
_cell_length_b   10.18991800
_cell_length_c   9.11687900
_cell_angle_alpha   90.00000000
_cell_angle_beta   90.00000000
_cell_angle_gamma   90.00000000
_symmetry_Int_Tables_number   1
_chemical_formula_structural   Co4Te3N2
_chemical_formula_sum   'Co16 Te12 N8'
_cell_volume   577.85515867
_cell_formula_units_Z   4
loop_
 _symmetry_equiv_pos_site_id
 _symmetry_equiv_pos_as_xyz
  1  'x, y, z'
loop_
 _atom_site_type_symbol
 _atom_site_label
 _atom_site_symmetry_multiplicity
 _atom_site_fract_x
 _atom_site_fract_y
 _atom_site_fract_z
 _atom_site_occupancy
  Co  Co0  1  0.63692800  0.25000000  0.94670700  1
  Co  Co1  1  0.13692800  0.25000000  0.55329300  1
  Co  Co2  1  0.36307200  0.75000000  0.05329300  1
  Co  Co3  1  0.86307200  0.75000000  0.44670700  1
  Co  Co4  1  0.80448500  0.25000000  0.42522300  1
  Co  Co5  1  0.30448500  0.25000000  0.07477700  1
  Co  Co6  1  0.19551500  0.75000000  0.57477700  1
  Co  Co7  1  0.69551500  0.75000000  0.92522300  1
  Co  Co8  1  0.69691300  0.48275200  0.06903300  1
  Co  Co9  1  0.19691300  0.01724800  0.43096700  1
  Co  Co10  1  0.30308700  0.98275200  0.93096700  1
  Co  Co11  1  0.80308700  0.51724800  0.56903300  1
  Co  Co12  1  0.30308700  0.51724800  0.93096700  1
  Co  Co13  1  0.80308700  0.98275200  0.56903300  1
  Co  Co14  1  0.69691300  0.01724800  0.06903300  1
  Co  Co15  1  0.19691300  0.48275200  0.43096700  1
  Te  Te0  1  0.90122000  0.25000000  0.15916300  1
  Te  Te1  1  0.40122000  0.25000000  0.34083700  1
  Te  Te2  1  0.09878000  0.75000000  0.84083700  1
  Te  Te3  1  0.59878000  0.75000000  0.65916300  1
  Te  Te4  1  0.57344900  0.57480100  0.32792700  1
  Te  Te5  1  0.07344900  0.92519900  0.17207300  1
  Te  Te6  1  0.42655100  0.07480100  0.67207300  1
  Te  Te7  1  0.92655100  0.42519900  0.82792700  1
  Te  Te8  1  0.42655100  0.42519900  0.67207300  1
  Te  Te9  1  0.92655100  0.07480100  0.82792700  1
  Te  Te10  1  0.57344900  0.92519900  0.32792700  1
  Te  Te11  1  0.07344900  0.57480100  0.17207300  1
  N  N0  1  0.53865200  0.61585900  0.98825300  1
  N  N1  1  0.03865200  0.88414100  0.51174700  1
  N  N2  1  0.46134800  0.11585900  0.01174700  1
  N  N3  1  0.96134800  0.38414100  0.48825300  1
  N  N4  1  0.46134800  0.38414100  0.01174700  1
  N  N5  1  0.96134800  0.11585900  0.48825300  1
  N  N6  1  0.53865200  0.88414100  0.98825300  1
  N  N7  1  0.03865200  0.61585900  0.51174700  1
loop_
_geom_bond_atom_site_label_1
_geom_bond_atom_site_label_2
_geom_bond_distance
_geom_bond_site_symmetry_2
Co0 N4 1.847361 1_556
Co0 N2 1.847361 1_556
Co0 Te0 2.540524 1_556
Co0 Te9 2.757764 1_555
Co0 Te7 2.757764 1_555
Co1 N5 1.847361 1_455
Co1 N3 1.847361 1_455
Co1 Te1 2.540524 1_555
Co1 Te8 2.757764 1_555
Co1 Te6 2.757764 1_555
Co2 N6 1.847361 1_554
Co2 N0 1.847361 1_554
Co2 Te2 2.540524 1_554
Co2 Te5 2.757764 1_555
Co2 Te11 2.757764 1_555
Co3 N7 1.847361 1_655
Co3 N1 1.847361 1_655
Co3 Te3 2.540524 1_555
Co3 Te10 2.757764 1_555
Co3 Te4 2.757764 1_555
Co4 N3 1.774994 1_555
Co4 N5 1.774994 1_555
Co4 Te0 2.499153 1_555
Co4 Te1 2.623705 1_555
Co5 N4 1.774994 1_555
Co5 N2 1.774994 1_555
Co5 Te1 2.499153 1_555
Co5 Te0 2.623705 1_455
Co6 N7 1.774994 1_555
Co6 N1 1.774994 1_555
Co6 Te2 2.499153 1_555
Co6 Te3 2.623705 1_555
Co7 N0 1.774994 1_555
Co7 N6 1.774994 1_555
Co7 Te3 2.499153 1_555
Co7 Te2 2.623705 1_655
Co8 N0 1.830607 1_554
Co8 N4 1.851873 1_555
Co8 Te4 2.653414 1_555
Co8 Te7 2.686265 1_554
Co8 Te11 2.692171 1_655
Co8 Te0 2.813408 1_555
Co9 N1 1.830607 1_545
Co9 N5 1.851873 1_455
Co9 Te5 2.653414 1_545
Co9 Te6 2.686265 1_555
Co9 Te10 2.692171 1_545
Co9 Te1 2.813408 1_555
Co10 N2 1.830607 1_566
Co10 N6 1.851873 1_555
Co10 Te6 2.653414 1_565
Co10 Te5 2.686265 1_556
Co10 Te9 2.692171 1_465
Co10 Te2 2.813408 1_555
Co11 N3 1.830607 1_555
Co11 N7 1.851873 1_655
Co11 Te7 2.653414 1_555
Co11 Te4 2.686265 1_555
Co11 Te8 2.692171 1_555
Co11 Te3 2.813408 1_555
Co12 N4 1.830607 1_556
Co12 N0 1.851873 1_555
Co12 Te8 2.653414 1_555
Co12 Te11 2.686265 1_556
Co12 Te7 2.692171 1_455
Co12 Te2 2.813408 1_555
Co13 N5 1.830607 1_565
Co13 N1 1.851873 1_655
Co13 Te9 2.653414 1_565
Co13 Te10 2.686265 1_555
Co13 Te6 2.692171 1_565
Co13 Te3 2.813408 1_555
Co14 N6 1.830607 1_544
Co14 N2 1.851873 1_555
Co14 Te10 2.653414 1_545
Co14 Te9 2.686265 1_554
Co14 Te5 2.692171 1_645
Co14 Te0 2.813408 1_555
Co15 N7 1.830607 1_555
Co15 N3 1.851873 1_455
Co15 Te11 2.653414 1_555
Co15 Te8 2.686265 1_555
Co15 Te4 2.692171 1_555
Co15 Te1 2.813408 1_555
