# generated using pymatgen
data_TmLuAg2
_symmetry_space_group_name_H-M   'P 1'
_cell_length_a   5.01135102
_cell_length_b   5.01135102
_cell_length_c   5.01135102
_cell_angle_alpha   60.00000000
_cell_angle_beta   60.00000000
_cell_angle_gamma   60.00000000
_symmetry_Int_Tables_number   1
_chemical_formula_structural   TmLuAg2
_chemical_formula_sum   'Tm1 Lu1 Ag2'
_cell_volume   88.99169410
_cell_formula_units_Z   1
loop_
 _symmetry_equiv_pos_site_id
 _symmetry_equiv_pos_as_xyz
  1  'x, y, z'
loop_
 _atom_site_type_symbol
 _atom_site_label
 _atom_site_symmetry_multiplicity
 _atom_site_fract_x
 _atom_site_fract_y
 _atom_site_fract_z
 _atom_site_occupancy
  Tm  Tm0  1  0.00000000  0.00000000  0.00000000  1
  Lu  Lu0  1  0.50000000  0.50000000  0.50000000  1
  Ag  Ag0  1  0.75000000  0.75000000  0.75000000  1
  Ag  Ag1  1  0.25000000  0.25000000  0.25000000  1
loop_
_geom_bond_atom_site_label_1
_geom_bond_atom_site_label_2
_geom_bond_distance
_geom_bond_site_symmetry_2
Ag0 Tm0 3.068813 1_566
Ag0 Lu0 3.068813 1_655
Ag0 Tm0 3.068813 1_656
Ag0 Lu0 3.068813 1_565
Ag0 Tm0 3.068813 1_665
Ag0 Tm0 3.068813 1_666
Ag0 Lu0 3.068813 1_556
Ag0 Lu0 3.068813 1_555
Ag1 Lu0 3.068813 1_455
Ag1 Tm0 3.068813 1_655
Ag1 Tm0 3.068813 1_565
Ag1 Tm0 3.068813 1_555
Ag1 Tm0 3.068813 1_556
Ag1 Lu0 3.068813 1_554
Ag1 Lu0 3.068813 1_545
Ag1 Lu0 3.068813 1_555
