# generated using pymatgen
data_Cd(IN)4
_symmetry_space_group_name_H-M   'P 1'
_cell_length_a   7.14864696
_cell_length_b   7.14864696
_cell_length_c   6.30651151
_cell_angle_alpha   78.98070408
_cell_angle_beta   78.98070408
_cell_angle_gamma   81.62765372
_symmetry_Int_Tables_number   1
_chemical_formula_structural   Cd(IN)4
_chemical_formula_sum   'Cd1 I4 N4'
_cell_volume   308.51211149
_cell_formula_units_Z   1
loop_
 _symmetry_equiv_pos_site_id
 _symmetry_equiv_pos_as_xyz
  1  'x, y, z'
loop_
 _atom_site_type_symbol
 _atom_site_label
 _atom_site_symmetry_multiplicity
 _atom_site_fract_x
 _atom_site_fract_y
 _atom_site_fract_z
 _atom_site_occupancy
  Cd  Cd0  1  0.00000000  0.00000000  0.00000000  1
  I  I0  1  0.80008000  0.80008000  0.80389800  1
  I  I1  1  0.19992000  0.19992000  0.19610200  1
  I  I2  1  0.41035600  0.41035600  0.70310000  1
  I  I3  1  0.58964400  0.58964400  0.29690000  1
  N  N0  1  0.29960900  0.92209800  0.74324500  1
  N  N1  1  0.92209800  0.29960900  0.74324500  1
  N  N2  1  0.70039100  0.07790200  0.25675500  1
  N  N3  1  0.07790200  0.70039100  0.25675500  1
loop_
_geom_bond_atom_site_label_1
_geom_bond_atom_site_label_2
_geom_bond_distance
_geom_bond_site_symmetry_2
Cd0 N2 2.488160 1_455
Cd0 N3 2.488160 1_545
Cd0 N0 2.488160 1_544
Cd0 N1 2.488160 1_454
Cd0 I0 2.749652 1_444
Cd0 I1 2.749652 1_555
I0 I3 3.357936 1_556
I1 I2 3.357936 1_554
I2 I3 2.795675 1_555
