# generated using pymatgen
data_Ti2Ni(PO5)2
_symmetry_space_group_name_H-M   'P 1'
_cell_length_a   7.42977100
_cell_length_b   7.41667500
_cell_length_c   7.43819970
_cell_angle_alpha   60.23640186
_cell_angle_beta   90.00000000
_cell_angle_gamma   90.00000000
_symmetry_Int_Tables_number   1
_chemical_formula_structural   Ti2Ni(PO5)2
_chemical_formula_sum   'Ti4 Ni2 P4 O20'
_cell_volume   355.80559477
_cell_formula_units_Z   2
loop_
 _symmetry_equiv_pos_site_id
 _symmetry_equiv_pos_as_xyz
  1  'x, y, z'
loop_
 _atom_site_type_symbol
 _atom_site_label
 _atom_site_symmetry_multiplicity
 _atom_site_fract_x
 _atom_site_fract_y
 _atom_site_fract_z
 _atom_site_occupancy
  Ti  Ti0  1  0.22143000  0.76633700  0.70451900  1
  Ti  Ti1  1  0.72143000  0.23366300  0.79548100  1
  Ti  Ti2  1  0.77857000  0.23366300  0.29548100  1
  Ti  Ti3  1  0.27857000  0.76633700  0.20451900  1
  Ni  Ni0  1  0.50000000  0.50000000  0.00000000  1
  Ni  Ni1  1  0.00000000  0.50000000  0.50000000  1
  P  P0  1  0.37829800  0.25582600  0.49493200  1
  P  P1  1  0.87829800  0.74417400  0.00506800  1
  P  P2  1  0.62170200  0.74417400  0.50506800  1
  P  P3  1  0.12170200  0.25582600  0.99493200  1
  O  O0  1  0.15510500  0.73189900  0.49819900  1
  O  O1  1  0.65510500  0.26810100  0.00180100  1
  O  O2  1  0.84489500  0.26810100  0.50180100  1
  O  O3  1  0.34489500  0.73189900  0.99819900  1
  O  O4  1  0.50486400  0.28508100  0.31547800  1
  O  O5  1  0.00486400  0.71491900  0.18452200  1
  O  O6  1  0.49513600  0.71491900  0.68452200  1
  O  O7  1  0.99513600  0.28508100  0.81547800  1
  O  O8  1  0.24994100  0.44406400  0.41159900  1
  O  O9  1  0.74994100  0.55593600  0.08840100  1
  O  O10  1  0.75005900  0.55593600  0.58840100  1
  O  O11  1  0.25005900  0.44406400  0.91159900  1
  O  O12  1  0.49214100  0.23871100  0.67643600  1
  O  O13  1  0.99214100  0.76128900  0.82356400  1
  O  O14  1  0.50785900  0.76128900  0.32356400  1
  O  O15  1  0.00785900  0.23871100  0.17643600  1
  O  O16  1  0.26400100  0.05901000  0.57151500  1
  O  O17  1  0.76400100  0.94099000  0.92848500  1
  O  O18  1  0.73599900  0.94099000  0.42848500  1
  O  O19  1  0.23599900  0.05901000  0.07151500  1
loop_
_geom_bond_atom_site_label_1
_geom_bond_atom_site_label_2
_geom_bond_distance
_geom_bond_site_symmetry_2
Ni0 O3 2.064810 1_554
Ni0 O1 2.064810 1_555
Ni0 O9 2.079369 1_555
Ni0 O11 2.079369 1_554
Ni0 O6 2.082044 1_554
Ni0 O4 2.082044 1_555
Ni1 O0 2.064810 1_555
Ni1 O2 2.064810 1_455
Ni1 O10 2.079369 1_455
Ni1 O8 2.079369 1_555
Ni1 O5 2.082044 1_555
Ni1 O7 2.082044 1_455
O0 Ti0 1.747108 1_555
O0 Ti3 2.263754 1_555
O1 Ti1 1.747108 1_554
O1 Ti2 2.263754 1_555
O2 Ti2 1.747108 1_555
O2 Ti1 2.263754 1_555
O3 Ti3 1.747108 1_556
O3 Ti0 2.263754 1_555
O4 P0 1.557411 1_555
O4 Ti2 2.087891 1_555
O5 P1 1.557411 1_455
O5 Ti3 2.087891 1_555
O6 P2 1.557411 1_555
O6 Ti0 2.087891 1_555
O7 P3 1.557411 1_655
O7 Ti1 2.087891 1_555
O8 P0 1.543892 1_555
O8 Ti3 2.115543 1_555
O9 P1 1.543892 1_555
O9 Ti2 2.115543 1_555
O10 P2 1.543892 1_555
O10 Ti1 2.115543 1_555
O11 P3 1.543892 1_555
O11 Ti0 2.115543 1_555
O12 P0 1.544040 1_555
O12 Ti1 1.911726 1_555
O13 P1 1.544040 1_556
O13 Ti0 1.911726 1_655
O14 P2 1.544040 1_555
O14 Ti3 1.911726 1_555
O15 P3 1.544040 1_554
O15 Ti2 1.911726 1_455
O16 P0 1.533248 1_555
O16 Ti0 1.912708 1_545
O17 P1 1.533248 1_556
O17 Ti1 1.912708 1_565
O18 P2 1.533248 1_555
O18 Ti2 1.912708 1_565
O19 P3 1.533248 1_554
O19 Ti3 1.912708 1_545
