# generated using pymatgen
data_Tb12Ni6Pb
_symmetry_space_group_name_H-M   'P 1'
_cell_length_a   8.41719034
_cell_length_b   8.41719034
_cell_length_c   8.41719034
_cell_angle_alpha   109.47122063
_cell_angle_beta   109.47122063
_cell_angle_gamma   109.47122063
_symmetry_Int_Tables_number   1
_chemical_formula_structural   Tb12Ni6Pb
_chemical_formula_sum   'Tb12 Ni6 Pb1'
_cell_volume   459.07067772
_cell_formula_units_Z   1
loop_
 _symmetry_equiv_pos_site_id
 _symmetry_equiv_pos_as_xyz
  1  'x, y, z'
loop_
 _atom_site_type_symbol
 _atom_site_label
 _atom_site_symmetry_multiplicity
 _atom_site_fract_x
 _atom_site_fract_y
 _atom_site_fract_z
 _atom_site_occupancy
  Tb  Tb0  1  0.81192385  0.69379799  0.50572184  1
  Tb  Tb1  1  0.18807615  0.30620201  0.49427816  1
  Tb  Tb2  1  0.18807615  0.69379799  0.88187315  1
  Tb  Tb3  1  0.81192385  0.30620201  0.11812685  1
  Tb  Tb4  1  0.69379799  0.50572184  0.81192385  1
  Tb  Tb5  1  0.30620201  0.49427816  0.18807615  1
  Tb  Tb6  1  0.69379799  0.88187315  0.18807615  1
  Tb  Tb7  1  0.30620201  0.11812685  0.81192385  1
  Tb  Tb8  1  0.50572184  0.81192385  0.69379799  1
  Tb  Tb9  1  0.49427816  0.18807615  0.30620201  1
  Tb  Tb10  1  0.11812685  0.81192385  0.30620201  1
  Tb  Tb11  1  0.88187315  0.18807615  0.69379799  1
  Ni  Ni0  1  0.87698377  0.37698377  0.50000000  1
  Ni  Ni1  1  0.12301623  0.62301623  0.50000000  1
  Ni  Ni2  1  0.37698377  0.50000000  0.87698377  1
  Ni  Ni3  1  0.62301623  0.50000000  0.12301623  1
  Ni  Ni4  1  0.50000000  0.87698377  0.37698377  1
  Ni  Ni5  1  0.50000000  0.12301623  0.62301623  1
  Pb  Pb0  1  -0.00000000  0.00000000  0.00000000  1
loop_
_geom_bond_atom_site_label_1
_geom_bond_atom_site_label_2
_geom_bond_distance
_geom_bond_site_symmetry_2
Ni0 Ni1 2.391272 1_655
Ni0 Tb11 2.630400 1_555
Ni0 Tb9 2.630400 1_555
Ni0 Tb3 2.884249 1_555
Ni0 Tb2 2.884253 1_655
Ni0 Tb0 2.884257 1_555
Ni0 Tb1 2.884257 1_655
Ni0 Tb4 3.515841 1_555
Ni0 Tb6 3.515848 1_545
Ni1 Tb10 2.630400 1_555
Ni1 Tb8 2.630400 1_555
Ni1 Tb2 2.884249 1_555
Ni1 Tb3 2.884253 1_455
Ni1 Tb0 2.884257 1_455
Ni1 Tb1 2.884257 1_555
Ni1 Tb5 3.515841 1_555
Ni1 Tb7 3.515848 1_565
Ni2 Ni3 2.391272 1_556
Ni2 Tb2 2.630400 1_555
Ni2 Tb1 2.630400 1_555
Ni2 Tb7 2.884249 1_555
Ni2 Tb6 2.884253 1_556
Ni2 Tb4 2.884257 1_555
Ni2 Tb5 2.884257 1_556
Ni2 Tb8 3.515841 1_555
Ni2 Tb11 3.515848 1_455
Ni3 Tb3 2.630400 1_555
Ni3 Tb0 2.630400 1_555
Ni3 Tb6 2.884249 1_555
Ni3 Tb7 2.884253 1_554
Ni3 Tb4 2.884257 1_554
Ni3 Tb5 2.884257 1_555
Ni3 Tb9 3.515841 1_555
Ni3 Tb10 3.515848 1_655
Ni4 Ni5 2.391272 1_565
Ni4 Tb6 2.630400 1_555
Ni4 Tb5 2.630400 1_555
Ni4 Tb10 2.884249 1_555
Ni4 Tb11 2.884253 1_565
Ni4 Tb8 2.884257 1_555
Ni4 Tb9 2.884257 1_565
Ni4 Tb0 3.515841 1_555
Ni4 Tb2 3.515848 1_554
Ni5 Tb7 2.630400 1_555
Ni5 Tb4 2.630400 1_555
Ni5 Tb11 2.884249 1_555
Ni5 Tb10 2.884253 1_545
Ni5 Tb8 2.884257 1_545
Ni5 Tb9 2.884257 1_555
Ni5 Tb1 3.515841 1_555
Ni5 Tb3 3.515848 1_556
Pb0 Tb1 3.492641 1_555
Pb0 Tb0 3.492641 1_444
Pb0 Tb4 3.492641 1_444
Pb0 Tb8 3.492641 1_444
Pb0 Tb5 3.492641 1_555
Pb0 Tb9 3.492641 1_555
Pb0 Tb3 3.492643 1_455
Pb0 Tb2 3.492643 1_544
Pb0 Tb10 3.492643 1_545
Pb0 Tb11 3.492643 1_454
Pb0 Tb6 3.492643 1_445
Pb0 Tb7 3.492643 1_554
