# generated using pymatgen
data_In2Ni6C
_symmetry_space_group_name_H-M   'P 1'
_cell_length_a   3.83678900
_cell_length_b   3.83678900
_cell_length_c   7.50576900
_cell_angle_alpha   90.00000000
_cell_angle_beta   90.00000000
_cell_angle_gamma   90.00000000
_symmetry_Int_Tables_number   1
_chemical_formula_structural   In2Ni6C
_chemical_formula_sum   'In2 Ni6 C1'
_cell_volume   110.49204889
_cell_formula_units_Z   1
loop_
 _symmetry_equiv_pos_site_id
 _symmetry_equiv_pos_as_xyz
  1  'x, y, z'
loop_
 _atom_site_type_symbol
 _atom_site_label
 _atom_site_symmetry_multiplicity
 _atom_site_fract_x
 _atom_site_fract_y
 _atom_site_fract_z
 _atom_site_occupancy
  In  In0  1  0.00000000  0.00000000  0.73881900  1
  In  In1  1  0.00000000  0.00000000  0.26118100  1
  Ni  Ni0  1  0.50000000  0.50000000  0.74672100  1
  Ni  Ni1  1  0.50000000  0.50000000  0.25327900  1
  Ni  Ni2  1  0.50000000  0.00000000  0.00000000  1
  Ni  Ni3  1  0.50000000  0.00000000  0.50000000  1
  Ni  Ni4  1  0.00000000  0.50000000  0.00000000  1
  Ni  Ni5  1  0.00000000  0.50000000  0.50000000  1
  C  C0  1  0.50000000  0.50000000  0.00000000  1
loop_
_geom_bond_atom_site_label_1
_geom_bond_atom_site_label_2
_geom_bond_distance
_geom_bond_site_symmetry_2
In0 Ni5 2.625522 1_545
In0 Ni3 2.625522 1_555
In0 Ni3 2.625522 1_455
In0 Ni5 2.625522 1_555
In0 Ni0 2.713668 1_455
In0 Ni0 2.713668 1_555
In0 Ni0 2.713668 1_445
In0 Ni0 2.713668 1_545
In0 Ni4 2.742857 1_556
In0 Ni2 2.742857 1_556
In0 Ni4 2.742857 1_546
In0 Ni2 2.742857 1_456
In1 Ni5 2.625522 1_545
In1 Ni3 2.625522 1_555
In1 Ni3 2.625522 1_455
In1 Ni5 2.625522 1_555
In1 Ni1 2.713668 1_545
In1 Ni1 2.713668 1_445
In1 Ni1 2.713668 1_555
In1 Ni1 2.713668 1_455
In1 Ni4 2.742857 1_555
In1 Ni4 2.742857 1_545
In1 Ni2 2.742857 1_555
In1 Ni2 2.742857 1_455
Ni0 Ni3 2.666367 1_555
Ni0 Ni5 2.666367 1_655
Ni0 Ni3 2.666367 1_565
Ni0 Ni5 2.666367 1_555
Ni1 Ni3 2.666367 1_555
Ni1 Ni5 2.666367 1_655
Ni1 Ni3 2.666367 1_565
Ni1 Ni5 2.666367 1_555
Ni3 Ni5 2.713020 1_655
Ni3 Ni5 2.713020 1_555
Ni3 Ni5 2.713020 1_645
Ni3 Ni5 2.713020 1_545
C0 Ni1 1.901054 1_555
C0 Ni0 1.901054 1_554
C0 Ni4 1.918395 1_555
C0 Ni2 1.918395 1_555
C0 Ni4 1.918395 1_655
C0 Ni2 1.918395 1_565
