# generated using pymatgen
data_LiGe3SbTe5
_symmetry_space_group_name_H-M   'P 1'
_cell_length_a   17.85005755
_cell_length_b   17.85005755
_cell_length_c   17.85005778
_cell_angle_alpha   13.78094891
_cell_angle_beta   13.78094891
_cell_angle_gamma   13.78094671
_symmetry_Int_Tables_number   1
_chemical_formula_structural   LiGe3SbTe5
_chemical_formula_sum   'Li1 Ge3 Sb1 Te5'
_cell_volume   280.84063288
_cell_formula_units_Z   1
loop_
 _symmetry_equiv_pos_site_id
 _symmetry_equiv_pos_as_xyz
  1  'x, y, z'
loop_
 _atom_site_type_symbol
 _atom_site_label
 _atom_site_symmetry_multiplicity
 _atom_site_fract_x
 _atom_site_fract_y
 _atom_site_fract_z
 _atom_site_occupancy
  Li  Li0  1  0.10475100  0.10475100  0.10475100  1
  Ge  Ge0  1  0.29842500  0.29842500  0.29842500  1
  Ge  Ge1  1  0.89879700  0.89879700  0.89879700  1
  Ge  Ge2  1  0.49816600  0.49816600  0.49816600  1
  Sb  Sb0  1  0.70166100  0.70166100  0.70166100  1
  Te  Te0  1  0.00008800  0.00008800  0.00008800  1
  Te  Te1  1  0.60284800  0.60284800  0.60284800  1
  Te  Te2  1  0.20337700  0.20337700  0.20337700  1
  Te  Te3  1  0.80250000  0.80250000  0.80250000  1
  Te  Te4  1  0.40318800  0.40318800  0.40318800  1
loop_
_geom_bond_atom_site_label_1
_geom_bond_atom_site_label_2
_geom_bond_distance
_geom_bond_site_symmetry_2
Li0 Te3 2.971866 1_544
Li0 Te3 2.971866 1_454
Li0 Te3 2.971867 1_445
Li0 Te4 3.088649 1_545
Li0 Te4 3.088649 1_455
Li0 Te4 3.088650 1_554
Ge0 Te1 2.909553 1_545
Ge0 Te1 2.909553 1_455
Ge0 Te1 2.909553 1_554
Ge0 Te0 3.091830 1_565
Ge0 Te0 3.091830 1_655
Ge0 Te0 3.091830 1_556
Ge1 Te2 2.905174 1_656
Ge1 Te2 2.905174 1_566
Ge1 Te2 2.905174 1_665
Ge1 Te1 3.169472 1_565
Ge1 Te1 3.169472 1_655
Ge1 Te1 3.169473 1_556
Ge2 Te3 2.912043 1_455
Ge2 Te3 2.912043 1_545
Ge2 Te3 2.912043 1_554
Ge2 Te2 3.208314 1_565
Ge2 Te2 3.208314 1_655
Ge2 Te2 3.208315 1_556
Sb0 Te4 3.087506 1_655
Sb0 Te4 3.087506 1_565
Sb0 Te4 3.087506 1_556
Sb0 Te0 3.088967 1_656
Sb0 Te0 3.088967 1_566
Sb0 Te0 3.088968 1_665
