# generated using pymatgen
data_ZrN2
_symmetry_space_group_name_H-M   'P 1'
_cell_length_a   3.82706223
_cell_length_b   3.82706223
_cell_length_c   3.82706223
_cell_angle_alpha   125.39778911
_cell_angle_beta   125.39778911
_cell_angle_gamma   80.88019112
_symmetry_Int_Tables_number   1
_chemical_formula_structural   ZrN2
_chemical_formula_sum   'Zr1 N2'
_cell_volume   35.89912794
_cell_formula_units_Z   1
loop_
 _symmetry_equiv_pos_site_id
 _symmetry_equiv_pos_as_xyz
  1  'x, y, z'
loop_
 _atom_site_type_symbol
 _atom_site_label
 _atom_site_symmetry_multiplicity
 _atom_site_fract_x
 _atom_site_fract_y
 _atom_site_fract_z
 _atom_site_occupancy
  Zr  Zr0  1  0.50000000  0.50000000  0.00000000  1
  N  N0  1  0.25000000  0.75000000  0.50000000  1
  N  N1  1  0.75000000  0.25000000  0.50000000  1
loop_
_geom_bond_atom_site_label_1
_geom_bond_atom_site_label_2
_geom_bond_distance
_geom_bond_site_symmetry_2
N0 Zr0 2.280838 1_566
N0 Zr0 2.280838 1_555
N0 Zr0 2.280838 1_455
N0 Zr0 2.280838 1_556
N1 Zr0 2.280838 1_656
N1 Zr0 2.280838 1_555
N1 Zr0 2.280838 1_556
N1 Zr0 2.280838 1_545
