# generated using pymatgen
data_Ca5(PO4)3
_symmetry_space_group_name_H-M   'P 1'
_cell_length_a   9.54723967
_cell_length_b   9.54723967
_cell_length_c   6.88948900
_cell_angle_alpha   90.00000000
_cell_angle_beta   90.00000000
_cell_angle_gamma   119.99999774
_symmetry_Int_Tables_number   1
_chemical_formula_structural   Ca5(PO4)3
_chemical_formula_sum   'Ca10 P6 O24'
_cell_volume   543.84269970
_cell_formula_units_Z   2
loop_
 _symmetry_equiv_pos_site_id
 _symmetry_equiv_pos_as_xyz
  1  'x, y, z'
loop_
 _atom_site_type_symbol
 _atom_site_label
 _atom_site_symmetry_multiplicity
 _atom_site_fract_x
 _atom_site_fract_y
 _atom_site_fract_z
 _atom_site_occupancy
  Ca  Ca0  1  0.66666700  0.33333300  0.50089200  1
  Ca  Ca1  1  0.33333300  0.66666700  0.00089200  1
  Ca  Ca2  1  0.33333300  0.66666700  0.49910800  1
  Ca  Ca3  1  0.66666700  0.33333300  0.99910800  1
  Ca  Ca4  1  0.74910800  0.75287300  0.25000000  1
  Ca  Ca5  1  0.00376400  0.25089200  0.25000000  1
  Ca  Ca6  1  0.24712700  0.99623600  0.25000000  1
  Ca  Ca7  1  0.25089200  0.24712700  0.75000000  1
  Ca  Ca8  1  0.99623600  0.74910800  0.75000000  1
  Ca  Ca9  1  0.75287300  0.00376400  0.75000000  1
  P  P0  1  0.97020400  0.60104500  0.25000000  1
  P  P1  1  0.63084100  0.02979600  0.25000000  1
  P  P2  1  0.39895500  0.36915900  0.25000000  1
  P  P3  1  0.02979600  0.39895500  0.75000000  1
  P  P4  1  0.36915900  0.97020400  0.75000000  1
  P  P5  1  0.60104500  0.63084100  0.75000000  1
  O  O0  1  0.15595000  0.67136100  0.25000000  1
  O  O1  1  0.51541100  0.84405000  0.25000000  1
  O  O2  1  0.32863900  0.48458900  0.25000000  1
  O  O3  1  0.84405000  0.32863900  0.75000000  1
  O  O4  1  0.48458900  0.15595000  0.75000000  1
  O  O5  1  0.67136100  0.51541100  0.75000000  1
  O  O6  1  0.87800400  0.41193700  0.25000000  1
  O  O7  1  0.53393300  0.12199600  0.25000000  1
  O  O8  1  0.58806300  0.46606700  0.25000000  1
  O  O9  1  0.12199600  0.58806300  0.75000000  1
  O  O10  1  0.46606700  0.87800400  0.75000000  1
  O  O11  1  0.41193700  0.53393300  0.75000000  1
  O  O12  1  0.91428100  0.65715000  0.43088200  1
  O  O13  1  0.74286900  0.08571900  0.43088200  1
  O  O14  1  0.34285000  0.25713100  0.43088200  1
  O  O15  1  0.08571900  0.34285000  0.93088200  1
  O  O16  1  0.25713100  0.91428100  0.93088200  1
  O  O17  1  0.65715000  0.74286900  0.93088200  1
  O  O18  1  0.08571900  0.34285000  0.56911800  1
  O  O19  1  0.25713100  0.91428100  0.56911800  1
  O  O20  1  0.65715000  0.74286900  0.56911800  1
  O  O21  1  0.91428100  0.65715000  0.06911800  1
  O  O22  1  0.74286900  0.08571900  0.06911800  1
  O  O23  1  0.34285000  0.25713100  0.06911800  1
loop_
_geom_bond_atom_site_label_1
_geom_bond_atom_site_label_2
_geom_bond_distance
_geom_bond_site_symmetry_2
Ca0 O3 2.427208 1_555
Ca0 O4 2.427212 1_555
Ca0 O5 2.427215 1_555
Ca0 O6 2.471402 1_555
Ca0 O7 2.471403 1_555
Ca0 O8 2.471409 1_555
Ca0 O13 2.840853 1_555
Ca0 O12 2.840859 1_555
Ca0 O14 2.840862 1_555
Ca1 O0 2.427208 1_555
Ca1 O1 2.427212 1_555
Ca1 O2 2.427215 1_555
Ca1 O9 2.471402 1_554
Ca1 O10 2.471403 1_554
Ca1 O11 2.471409 1_554
Ca1 O16 2.840853 1_554
Ca1 O15 2.840859 1_554
Ca1 O17 2.840862 1_554
Ca2 O0 2.427208 1_555
Ca2 O1 2.427212 1_555
Ca2 O2 2.427215 1_555
Ca2 O9 2.471402 1_555
Ca2 O10 2.471403 1_555
Ca2 O11 2.471409 1_555
Ca2 O19 2.840853 1_555
Ca2 O18 2.840859 1_555
Ca2 O20 2.840862 1_555
Ca3 O3 2.427208 1_555
Ca3 O4 2.427212 1_555
Ca3 O5 2.427215 1_555
Ca3 O6 2.471402 1_556
Ca3 O7 2.471403 1_556
Ca3 O8 2.471409 1_556
Ca3 O22 2.840853 1_556
Ca3 O21 2.840859 1_556
Ca3 O23 2.840862 1_556
Ca4 O20 2.351536 1_555
Ca4 O17 2.351536 1_554
Ca4 O8 2.377330 1_555
Ca4 O21 2.513183 1_555
Ca4 O12 2.513183 1_555
Ca4 O1 2.770926 1_555
Ca5 O15 2.351538 1_554
Ca5 O18 2.351538 1_555
Ca5 O6 2.377322 1_455
Ca5 O22 2.513176 1_455
Ca5 O13 2.513176 1_455
Ca5 O2 2.770933 1_555
Ca6 O19 2.351540 1_555
Ca6 O16 2.351540 1_554
Ca6 O7 2.377331 1_565
Ca6 O23 2.513175 1_565
Ca6 O14 2.513175 1_565
Ca6 O0 2.770935 1_555
Ca7 O23 2.351536 1_556
Ca7 O14 2.351536 1_555
Ca7 O11 2.377330 1_555
Ca7 O18 2.513183 1_555
Ca7 O15 2.513183 1_555
Ca7 O4 2.770926 1_555
Ca8 O21 2.351538 1_556
Ca8 O12 2.351538 1_555
Ca8 O9 2.377322 1_655
Ca8 O16 2.513176 1_655
Ca8 O19 2.513176 1_655
Ca8 O5 2.770933 1_555
Ca9 O22 2.351540 1_556
Ca9 O13 2.351540 1_555
Ca9 O10 2.377331 1_545
Ca9 O20 2.513175 1_545
Ca9 O17 2.513175 1_545
Ca9 O3 2.770935 1_555
O0 P0 1.550802 1_455
O1 P1 1.550802 1_565
O2 P2 1.550802 1_555
O3 P3 1.550802 1_655
O4 P4 1.550802 1_545
O5 P5 1.550802 1_555
O6 P0 1.563735 1_555
O7 P1 1.563735 1_555
O8 P2 1.563735 1_555
O9 P3 1.563735 1_555
O10 P4 1.563735 1_555
O11 P5 1.563735 1_555
O12 P0 1.552721 1_555
O13 P1 1.552721 1_555
O14 P2 1.552721 1_555
O15 P3 1.552721 1_555
O16 P4 1.552721 1_555
O17 P5 1.552721 1_555
O18 P3 1.552721 1_555
O19 P4 1.552721 1_555
O20 P5 1.552721 1_555
O21 P0 1.552721 1_555
O22 P1 1.552721 1_555
O23 P2 1.552721 1_555
