# generated using pymatgen
data_K5Na3Ta2Nb6O20
_symmetry_space_group_name_H-M   'P 1'
_cell_length_a   11.52499775
_cell_length_b   11.55960171
_cell_length_c   17.77397402
_cell_angle_alpha   109.12245121
_cell_angle_beta   108.72436873
_cell_angle_gamma   90.16703717
_symmetry_Int_Tables_number   1
_chemical_formula_structural   K5Na3Ta2Nb6O20
_chemical_formula_sum   'K20 Na12 Ta8 Nb24 O80'
_cell_volume   2103.34440822
_cell_formula_units_Z   4
loop_
 _symmetry_equiv_pos_site_id
 _symmetry_equiv_pos_as_xyz
  1  'x, y, z'
loop_
 _atom_site_type_symbol
 _atom_site_label
 _atom_site_symmetry_multiplicity
 _atom_site_fract_x
 _atom_site_fract_y
 _atom_site_fract_z
 _atom_site_occupancy
  K  K0  1  0.30512500  0.06197200  0.12289700  1
  K  K1  1  0.31068400  0.56343400  0.11623100  1
  K  K2  1  0.79615100  0.06207700  0.10894200  1
  K  K3  1  0.81188100  0.56197800  0.12268800  1
  K  K4  1  0.81213500  0.57025500  0.62285200  1
  K  K5  1  0.20099700  0.93494300  0.38786700  1
  K  K6  1  0.19094600  0.92861100  0.87808200  1
  K  K7  1  0.69131700  0.44358000  0.38305900  1
  K  K8  1  0.68471400  0.42483100  0.87935500  1
  K  K9  1  0.69480500  0.93803700  0.37970600  1
  K  K10  1  0.68887600  0.92097900  0.87522100  1
  K  K11  1  0.04437800  0.29625200  0.11326000  1
  K  K12  1  0.06338900  0.79726300  0.11736400  1
  K  K13  1  0.55565700  0.31279600  0.12130400  1
  K  K14  1  0.56138800  0.80852600  0.12255700  1
  K  K15  1  0.43805500  0.19326800  0.38092000  1
  K  K16  1  0.45258300  0.69975700  0.38966000  1
  K  K17  1  0.44520700  0.70462400  0.89008800  1
  K  K18  1  0.94735300  0.69200100  0.37978600  1
  K  K19  1  0.93661500  0.69236100  0.87571300  1
  Na  Na0  1  0.29698400  0.07614400  0.60397900  1
  Na  Na1  1  0.30397400  0.56909400  0.60294100  1
  Na  Na2  1  0.80189700  0.06619300  0.59878700  1
  Na  Na3  1  0.20295300  0.44122300  0.40280900  1
  Na  Na4  1  0.19823200  0.43251500  0.89632100  1
  Na  Na5  1  0.05008500  0.28106200  0.60584400  1
  Na  Na6  1  0.05841600  0.79385300  0.60862700  1
  Na  Na7  1  0.55415400  0.29264900  0.60429400  1
  Na  Na8  1  0.55606300  0.78949900  0.60883000  1
  Na  Na9  1  0.44327600  0.21041200  0.89656200  1
  Na  Na10  1  0.95462100  0.21411700  0.40456600  1
  Na  Na11  1  0.94472200  0.21196100  0.89856700  1
  Ta  Ta0  1  0.99819900  0.99767300  0.99969200  1
  Ta  Ta1  1  0.99867700  0.49587700  0.99984700  1
  Ta  Ta2  1  0.49831400  0.00072500  0.99921000  1
  Ta  Ta3  1  0.50728100  0.00429200  0.50712800  1
  Ta  Ta4  1  0.49899500  0.49869400  0.99807900  1
  Ta  Ta5  1  0.24724000  0.24812700  0.99913500  1
  Ta  Ta6  1  0.24972500  0.74754100  0.99942600  1
  Ta  Ta7  1  0.75089400  0.74763400  0.00108400  1
  Nb  Nb0  1  0.00432100  0.00049300  0.50159800  1
  Nb  Nb1  1  0.00754200  0.50336700  0.50482800  1
  Nb  Nb2  1  0.50665900  0.50213900  0.50346700  1
  Nb  Nb3  1  0.25416400  0.25498200  0.50342700  1
  Nb  Nb4  1  0.25750100  0.75210900  0.50494700  1
  Nb  Nb5  1  0.74451000  0.24643600  0.99730900  1
  Nb  Nb6  1  0.75687000  0.25125600  0.50139300  1
  Nb  Nb7  1  0.75901100  0.75177000  0.50399700  1
  Nb  Nb8  1  0.09852900  0.09056300  0.25381700  1
  Nb  Nb9  1  0.08557800  0.08831900  0.74751400  1
  Nb  Nb10  1  0.14619600  0.58211200  0.25435800  1
  Nb  Nb11  1  0.14164600  0.56614400  0.74961700  1
  Nb  Nb12  1  0.62761300  0.11196200  0.25131300  1
  Nb  Nb13  1  0.58219500  0.08203600  0.74557800  1
  Nb  Nb14  1  0.61585000  0.61229800  0.25193200  1
  Nb  Nb15  1  0.59085900  0.57527000  0.74678400  1
  Nb  Nb16  1  0.35050200  0.40535000  0.25322200  1
  Nb  Nb17  1  0.34559800  0.42462900  0.74714500  1
  Nb  Nb18  1  0.37462300  0.88971100  0.25404100  1
  Nb  Nb19  1  0.37239900  0.92813100  0.74644500  1
  Nb  Nb20  1  0.87093700  0.39050000  0.25207500  1
  Nb  Nb21  1  0.86661100  0.38992600  0.74792300  1
  Nb  Nb22  1  0.89892100  0.92816200  0.25340100  1
  Nb  Nb23  1  0.87536100  0.93744500  0.74803300  1
  O  O0  1  0.12711700  0.12850700  0.50311500  1
  O  O1  1  0.11900100  0.11879400  0.99482200  1
  O  O2  1  0.13242600  0.62591900  0.50188400  1
  O  O3  1  0.12097500  0.61533200  0.98744800  1
  O  O4  1  0.62689200  0.12510800  0.50190100  1
  O  O5  1  0.61131500  0.11768100  0.98814600  1
  O  O6  1  0.63130500  0.63093900  0.50589100  1
  O  O7  1  0.62576900  0.62379700  0.99935700  1
  O  O8  1  0.12174300  0.36758100  0.99450800  1
  O  O9  1  0.13406100  0.37957100  0.50851800  1
  O  O10  1  0.12151700  0.86907300  0.99496400  1
  O  O11  1  0.13938200  0.88145500  0.51441500  1
  O  O12  1  0.61492700  0.37248700  0.99504600  1
  O  O13  1  0.63247700  0.37930600  0.51088900  1
  O  O14  1  0.62443900  0.87392300  0.99955300  1
  O  O15  1  0.63758800  0.88990500  0.51929200  1
  O  O16  1  0.38036600  0.12569600  0.50371400  1
  O  O17  1  0.36811100  0.12185900  0.99127500  1
  O  O18  1  0.37886100  0.62312600  0.50194200  1
  O  O19  1  0.36855700  0.62105600  0.99285700  1
  O  O20  1  0.87637500  0.12250800  0.49298900  1
  O  O21  1  0.87156900  0.11290300  0.98808600  1
  O  O22  1  0.88238200  0.62849900  0.50296400  1
  O  O23  1  0.87510500  0.61956700  0.99632300  1
  O  O24  1  0.36820600  0.37028200  0.99407300  1
  O  O25  1  0.37909200  0.37799100  0.50742900  1
  O  O26  1  0.37168700  0.87497000  0.99833000  1
  O  O27  1  0.38999500  0.88443000  0.51556400  1
  O  O28  1  0.87519600  0.37291400  0.99840000  1
  O  O29  1  0.88816800  0.37873500  0.51335700  1
  O  O30  1  0.87106100  0.86742400  0.99128600  1
  O  O31  1  0.88509600  0.88087700  0.50742400  1
  O  O32  1  0.05254200  0.05643900  0.12349500  1
  O  O33  1  0.06106800  0.09100400  0.63647700  1
  O  O34  1  0.07371100  0.55698600  0.12563800  1
  O  O35  1  0.09268900  0.59151600  0.64384200  1
  O  O36  1  0.55773300  0.06935200  0.12102500  1
  O  O37  1  0.56614500  0.09940700  0.63887200  1
  O  O38  1  0.55680500  0.56362700  0.12207900  1
  O  O39  1  0.56904300  0.58159000  0.63715200  1
  O  O40  1  0.43921100  0.43404800  0.37315800  1
  O  O41  1  0.42924400  0.43622700  0.86475000  1
  O  O42  1  0.44224800  0.93217900  0.37942700  1
  O  O43  1  0.43429600  0.92000500  0.85806000  1
  O  O44  1  0.93979500  0.42612100  0.37523600  1
  O  O45  1  0.93408100  0.41078600  0.86792500  1
  O  O46  1  0.94986600  0.92815500  0.36905800  1
  O  O47  1  0.93812400  0.92065000  0.85679100  1
  O  O48  1  0.30322200  0.31062200  0.12460400  1
  O  O49  1  0.31838200  0.30596200  0.63682500  1
  O  O50  1  0.30886100  0.80579600  0.12157600  1
  O  O51  1  0.34140400  0.79706700  0.64262200  1
  O  O52  1  0.80529100  0.30350100  0.12289400  1
  O  O53  1  0.83060000  0.28280700  0.63383600  1
  O  O54  1  0.82446900  0.81678500  0.12674200  1
  O  O55  1  0.85110700  0.80905700  0.64535200  1
  O  O56  1  0.18593500  0.18914000  0.37335000  1
  O  O57  1  0.17630900  0.18506400  0.86464700  1
  O  O58  1  0.19666600  0.68903000  0.37284300  1
  O  O59  1  0.19534100  0.68843400  0.86065900  1
  O  O60  1  0.68930300  0.19924300  0.37388800  1
  O  O61  1  0.67348600  0.18217700  0.85911300  1
  O  O62  1  0.68702400  0.69489100  0.37718300  1
  O  O63  1  0.67652700  0.67484300  0.86681200  1
  O  O64  1  0.48979200  0.00621200  0.24851500  1
  O  O65  1  0.40919200  0.09858800  0.74671400  1
  O  O66  1  0.48112400  0.51382200  0.24957400  1
  O  O67  1  0.41714100  0.57673300  0.73749500  1
  O  O68  1  0.93489300  0.10748700  0.26451800  1
  O  O69  1  0.91188200  0.10859500  0.74884500  1
  O  O70  1  0.98565000  0.50857100  0.24678100  1
  O  O71  1  0.97276400  0.51781800  0.74744400  1
  O  O72  1  0.18933600  0.41653400  0.26522400  1
  O  O73  1  0.17143300  0.39350400  0.74996600  1
  O  O74  1  0.23314500  0.98066200  0.24928300  1
  O  O75  1  0.19722200  0.95463400  0.73584000  1
  O  O76  1  0.74640400  0.50507100  0.24993700  1
  O  O77  1  0.70607900  0.44530200  0.73824500  1
  O  O78  1  0.73562500  0.98672100  0.24761400  1
  O  O79  1  0.69807200  0.95307800  0.73486500  1
loop_
_geom_bond_atom_site_label_1
_geom_bond_atom_site_label_2
_geom_bond_distance
_geom_bond_site_symmetry_2
K0 O64 2.798245 1_555
K0 O1 2.840349 1_554
K0 O26 2.850920 1_544
K0 O10 2.860370 1_544
K0 O48 2.864722 1_555
K0 O32 2.915040 1_555
K0 O36 2.923473 1_555
K0 O17 2.937288 1_554
K0 O50 2.954234 1_545
K0 O74 3.032010 1_545
K1 O19 2.755092 1_554
K1 O50 2.772313 1_555
K1 O66 2.777160 1_555
K1 O34 2.791531 1_555
K1 O38 2.804872 1_555
K1 O24 2.809900 1_554
K1 O3 2.841461 1_554
K1 O8 2.878452 1_554
K1 O48 2.976861 1_555
K2 O68 2.585348 1_555
K2 O14 2.676025 1_544
K2 O52 2.718282 1_555
K2 O5 2.745261 1_554
K2 O21 2.781658 1_554
K2 O36 2.823439 1_555
K2 O30 2.875602 1_544
K2 O32 2.885146 1_655
K2 O54 2.961991 1_545
K2 O78 3.134864 1_545
K3 O70 2.705560 1_555
K3 O7 2.816583 1_554
K3 O23 2.836576 1_554
K3 O28 2.840784 1_554
K3 O76 2.860984 1_555
K3 O12 2.916560 1_554
K3 O54 2.924681 1_555
K3 O38 2.936434 1_555
K3 O52 2.989866 1_555
K3 O34 3.002223 1_655
K4 O71 2.636753 1_555
K4 O55 2.671321 1_555
K4 O6 2.709140 1_555
K4 O13 2.751279 1_555
K4 O22 2.773774 1_555
K4 O29 2.782098 1_555
K4 O39 2.892824 1_555
K4 O35 3.132918 1_655
K5 O16 2.764273 1_565
K5 O58 2.765460 1_555
K5 O46 2.802689 1_455
K5 O11 2.807099 1_555
K5 O74 2.814527 1_555
K5 O27 2.817551 1_555
K5 O42 2.831857 1_555
K5 O0 2.838222 1_565
K5 O56 3.033473 1_565
K6 O75 2.665165 1_555
K6 O59 2.693358 1_555
K6 O26 2.703513 1_555
K6 O10 2.725908 1_555
K6 O17 2.756511 1_565
K6 O47 2.812372 1_455
K6 O1 2.820029 1_565
K6 O43 2.936256 1_555
K6 O57 3.051976 1_565
K7 O60 2.774907 1_555
K7 O6 2.795661 1_555
K7 O22 2.816910 1_555
K7 O40 2.853474 1_555
K7 O13 2.875126 1_555
K7 O44 2.915737 1_555
K7 O76 2.927545 1_555
K7 O62 2.940919 1_555
K7 O29 2.974277 1_555
K7 O66 3.120943 1_555
K8 O12 2.667490 1_555
K8 O77 2.681815 1_555
K8 O61 2.705720 1_555
K8 O28 2.741159 1_555
K8 O7 2.833023 1_555
K8 O23 2.860146 1_555
K8 O41 2.878810 1_555
K8 O45 2.946729 1_555
K8 O63 2.970042 1_555
K9 O20 2.726911 1_565
K9 O78 2.761060 1_555
K9 O62 2.797015 1_555
K9 O4 2.833750 1_565
K9 O31 2.862565 1_555
K9 O42 2.909683 1_555
K9 O15 2.975300 1_555
K9 O46 3.005821 1_555
K9 O64 3.052630 1_565
K9 O60 3.055027 1_565
K10 O30 2.666640 1_555
K10 O79 2.673640 1_555
K10 O14 2.751326 1_555
K10 O21 2.779318 1_565
K10 O63 2.800592 1_555
K10 O43 2.850386 1_555
K10 O5 2.858567 1_565
K10 O47 2.993733 1_555
K10 O61 3.125181 1_565
K11 O72 2.578476 1_555
K11 O28 2.719310 1_454
K11 O21 2.729395 1_454
K11 O1 2.778951 1_554
K11 O52 2.814938 1_455
K11 O32 2.836839 1_555
K11 O8 2.876477 1_554
K11 O48 2.925163 1_555
K11 O34 2.959499 1_555
K11 O70 3.055931 1_455
K12 O74 2.755666 1_555
K12 O23 2.763681 1_454
K12 O50 2.806509 1_555
K12 O54 2.816809 1_455
K12 O10 2.826035 1_554
K12 O3 2.829440 1_554
K12 O34 2.829953 1_555
K12 O30 2.933399 1_454
K12 O32 2.966543 1_565
K13 O36 2.812680 1_555
K13 O12 2.823945 1_554
K13 O24 2.842362 1_554
K13 O52 2.870756 1_555
K13 O17 2.882307 1_554
K13 O38 2.894995 1_555
K13 O76 2.900912 1_555
K13 O48 2.928868 1_555
K13 O5 2.930151 1_554
K13 O66 3.022175 1_555
K14 O78 2.706750 1_555
K14 O7 2.809676 1_554
K14 O14 2.824697 1_554
K14 O38 2.828451 1_555
K14 O26 2.875191 1_554
K14 O19 2.891210 1_554
K14 O50 2.904840 1_555
K14 O64 2.959753 1_565
K14 O54 3.009415 1_555
K14 O36 3.024368 1_565
K15 O16 2.803783 1_555
K15 O25 2.814457 1_555
K15 O40 2.831719 1_555
K15 O4 2.845443 1_555
K15 O64 2.853741 1_555
K15 O56 2.864847 1_555
K15 O13 2.894090 1_555
K15 O60 2.939716 1_555
K15 O42 3.010162 1_545
K15 O74 3.121318 1_545
K16 O6 2.738186 1_555
K16 O42 2.752049 1_555
K16 O62 2.780323 1_555
K16 O18 2.780629 1_555
K16 O66 2.819766 1_555
K16 O27 2.828555 1_555
K16 O15 2.861255 1_555
K16 O58 2.865572 1_555
K16 O40 2.986940 1_555
K17 O67 2.540297 1_555
K17 O14 2.604567 1_555
K17 O26 2.621269 1_555
K17 O19 2.690199 1_555
K17 O43 2.724523 1_555
K17 O59 2.750812 1_555
K17 O7 2.753320 1_555
K17 O63 2.831462 1_555
K17 O41 2.981709 1_555
K18 O70 2.769593 1_555
K18 O46 2.798817 1_555
K18 O2 2.822482 1_655
K18 O22 2.827562 1_555
K18 O31 2.870099 1_555
K18 O58 2.915115 1_655
K18 O11 2.925457 1_655
K18 O76 2.937868 1_555
K18 O62 2.986215 1_555
K18 O44 3.048179 1_555
K19 O71 2.653891 1_555
K19 O30 2.677211 1_555
K19 O10 2.728443 1_655
K19 O47 2.768092 1_555
K19 O3 2.777040 1_655
K19 O23 2.821385 1_555
K19 O63 2.953325 1_555
K19 O59 3.077329 1_655
K19 O45 3.211855 1_555
Na0 O65 2.374091 1_555
Na0 O0 2.424363 1_555
Na0 O16 2.488493 1_555
Na0 O49 2.519286 1_555
Na0 O11 2.582771 1_545
Na0 O27 2.709902 1_545
Na0 O33 2.949876 1_555
Na0 O37 2.954747 1_555
Na1 O67 2.299297 1_555
Na1 O2 2.463178 1_555
Na1 O18 2.466531 1_555
Na1 O51 2.491688 1_555
Na1 O9 2.628119 1_555
Na1 O25 2.647481 1_555
Na1 O35 2.746261 1_555
Na1 O39 2.910394 1_555
Na2 O53 2.368175 1_555
Na2 O69 2.435131 1_555
Na2 O4 2.458398 1_555
Na2 O15 2.471489 1_545
Na2 O20 2.555723 1_555
Na2 O31 2.622576 1_545
Na2 O33 2.835016 1_655
Na2 O37 3.017789 1_555
Na3 O72 2.319979 1_555
Na3 O9 2.549553 1_555
Na3 O25 2.566821 1_555
Na3 O2 2.604952 1_555
Na3 O18 2.624969 1_555
Na3 O56 2.781185 1_555
Na3 O44 2.907864 1_455
Na3 O40 2.931323 1_555
Na4 O73 2.404237 1_555
Na4 O24 2.452679 1_555
Na4 O8 2.495649 1_555
Na4 O3 2.564463 1_555
Na4 O19 2.628681 1_555
Na4 O57 2.722548 1_555
Na4 O41 2.894730 1_555
Na4 O45 2.917503 1_455
Na5 O73 2.390629 1_555
Na5 O33 2.424943 1_555
Na5 O0 2.484390 1_555
Na5 O20 2.526354 1_455
Na5 O29 2.591944 1_455
Na5 O53 2.729171 1_455
Na5 O9 2.754068 1_555
Na5 O49 2.957207 1_555
Na6 O75 2.456210 1_555
Na6 O22 2.544766 1_455
Na6 O2 2.594448 1_555
Na6 O11 2.609384 1_555
Na6 O35 2.612320 1_555
Na6 O55 2.663456 1_455
Na6 O31 2.669834 1_455
Na7 O37 2.496682 1_555
Na7 O16 2.519970 1_555
Na7 O77 2.530022 1_555
Na7 O4 2.538788 1_555
Na7 O13 2.573112 1_555
Na7 O25 2.627218 1_555
Na7 O49 2.948632 1_555
Na8 O79 2.474913 1_555
Na8 O6 2.507945 1_555
Na8 O18 2.563408 1_555
Na8 O27 2.604309 1_555
Na8 O39 2.607346 1_555
Na8 O15 2.631818 1_555
Na8 O51 2.722063 1_555
Na9 O65 2.447156 1_555
Na9 O24 2.457878 1_555
Na9 O12 2.468644 1_555
Na9 O5 2.584713 1_555
Na9 O17 2.586951 1_555
Na9 O41 2.840854 1_555
Na9 O61 2.930089 1_555
Na9 O57 2.939317 1_555
Na10 O68 2.322058 1_555
Na10 O20 2.529705 1_555
Na10 O29 2.548564 1_555
Na10 O9 2.560674 1_655
Na10 O0 2.628906 1_655
Na10 O44 2.662534 1_555
Na10 O56 2.889181 1_655
Na10 O60 2.922669 1_555
Na11 O69 2.433132 1_555
Na11 O28 2.451704 1_555
Na11 O8 2.457924 1_655
Na11 O45 2.524459 1_555
Na11 O21 2.569615 1_555
Na11 O1 2.671090 1_655
Na11 O57 2.915317 1_655
Na11 O61 2.968209 1_555
Nb0 O31 1.996188 1_445
Nb0 O0 2.032367 1_555
Nb0 O20 2.048368 1_455
Nb0 O11 2.087701 1_545
Nb0 O46 2.097574 1_445
Nb0 O33 2.148408 1_555
Nb1 O2 2.041133 1_555
Nb1 O22 2.046213 1_455
Nb1 O9 2.047086 1_555
Nb1 O44 2.050901 1_455
Nb1 O29 2.063203 1_455
Nb1 O35 2.212285 1_555
Nb2 O18 2.034029 1_555
Nb2 O13 2.036685 1_555
Nb2 O6 2.046469 1_555
Nb2 O40 2.057734 1_555
Nb2 O25 2.084796 1_555
Nb2 O39 2.115630 1_555
Nb3 O25 1.988972 1_555
Nb3 O9 2.001247 1_555
Nb3 O56 2.054091 1_555
Nb3 O0 2.063589 1_555
Nb3 O16 2.088529 1_555
Nb3 O49 2.114737 1_555
Nb4 O2 2.023364 1_555
Nb4 O11 2.027609 1_555
Nb4 O18 2.046984 1_555
Nb4 O27 2.078267 1_555
Nb4 O58 2.086810 1_555
Nb4 O51 2.199495 1_555
Nb5 O52 1.984192 1_556
Nb5 O5 2.065316 1_555
Nb5 O28 2.087166 1_555
Nb5 O12 2.089893 1_555
Nb5 O21 2.134335 1_555
Nb5 O61 2.182966 1_555
Nb6 O60 2.018754 1_555
Nb6 O29 2.020306 1_555
Nb6 O20 2.032881 1_555
Nb6 O13 2.068534 1_555
Nb6 O4 2.091663 1_555
Nb6 O53 2.132602 1_555
Nb7 O62 2.006571 1_555
Nb7 O22 2.015924 1_555
Nb7 O6 2.041795 1_555
Nb7 O31 2.052705 1_555
Nb7 O15 2.134202 1_555
Nb7 O55 2.251929 1_555
Nb8 O68 1.959375 1_455
Nb8 O56 1.964723 1_555
Nb8 O74 2.012988 1_545
Nb8 O32 2.100923 1_555
Nb9 O33 1.912587 1_555
Nb9 O57 1.936112 1_555
Nb9 O75 2.014859 1_545
Nb9 O69 2.022966 1_455
Nb10 O58 1.950623 1_555
Nb10 O70 1.979957 1_455
Nb10 O72 2.033234 1_555
Nb10 O34 2.086311 1_555
Nb11 O35 1.902658 1_555
Nb11 O59 1.912958 1_555
Nb11 O71 2.008271 1_455
Nb11 O73 2.027621 1_555
Nb12 O78 1.910648 1_545
Nb12 O60 1.957323 1_555
Nb12 O64 1.979371 1_555
Nb12 O36 2.075291 1_555
Nb13 O61 1.902227 1_555
Nb13 O37 1.922520 1_555
Nb13 O79 2.007702 1_545
Nb13 O65 2.009485 1_555
Nb14 O66 1.903987 1_555
Nb14 O76 1.953939 1_555
Nb14 O62 1.992701 1_555
Nb14 O38 2.060372 1_555
Nb15 O39 1.909032 1_555
Nb15 O67 1.955952 1_555
Nb15 O63 1.970575 1_555
Nb15 O77 2.008770 1_555
Nb16 O72 1.936497 1_555
Nb16 O40 1.958326 1_555
Nb16 O66 1.986873 1_555
Nb16 O48 2.068501 1_555
Nb17 O49 1.914486 1_555
Nb17 O41 1.959229 1_555
Nb17 O67 2.020071 1_555
Nb17 O73 2.057486 1_555
Nb18 O64 1.935197 1_565
Nb18 O74 1.936714 1_555
Nb18 O42 1.995226 1_555
Nb18 O50 2.100578 1_555
Nb19 O51 1.889489 1_555
Nb19 O43 1.914998 1_555
Nb19 O75 2.000630 1_555
Nb19 O65 2.012467 1_565
Nb20 O70 1.942429 1_555
Nb20 O76 1.955614 1_555
Nb20 O44 1.970661 1_555
Nb20 O52 2.055013 1_555
Nb21 O53 1.904994 1_555
Nb21 O71 1.920107 1_555
Nb21 O77 1.933146 1_555
Nb21 O45 1.951721 1_555
Nb22 O46 1.948272 1_555
Nb22 O78 1.984801 1_555
Nb22 O68 2.044988 1_565
Nb22 O54 2.077569 1_555
Nb23 O55 1.872695 1_555
Nb23 O47 1.909611 1_555
Nb23 O79 1.996286 1_555
Nb23 O69 2.015955 1_565
O1 Ta0 2.012846 1_445
O1 Ta5 2.065103 1_555
O3 Ta6 2.038026 1_555
O3 Ta1 2.080727 1_455
O4 Ta3 2.003845 1_555
O5 Ta2 1.972539 1_555
O7 Ta7 2.015058 1_556
O7 Ta4 2.042404 1_555
O8 Ta5 2.003771 1_555
O8 Ta1 2.055868 1_455
O10 Ta6 2.042812 1_555
O10 Ta0 2.060100 1_455
O12 Ta4 1.980553 1_555
O14 Ta7 2.066125 1_556
O14 Ta2 2.067381 1_565
O15 Ta3 2.010204 1_565
O16 Ta3 2.030620 1_555
O17 Ta5 2.023297 1_555
O17 Ta2 2.058677 1_555
O19 Ta6 2.007372 1_555
O19 Ta4 2.068341 1_555
O21 Ta0 1.986143 1_545
O23 Ta1 2.022325 1_555
O23 Ta7 2.063030 1_556
O24 Ta5 2.024331 1_555
O24 Ta4 2.080714 1_555
O26 Ta6 2.042118 1_555
O26 Ta2 2.049702 1_565
O27 Ta3 2.006171 1_565
O28 Ta1 1.996765 1_555
O30 Ta0 2.033577 1_555
O30 Ta7 2.041437 1_556
O32 Ta0 1.956816 1_444
O34 Ta1 1.991478 1_454
O36 Ta2 1.925009 1_554
O37 Ta3 2.107418 1_555
O38 Ta4 1.958380 1_554
O41 Ta4 2.106161 1_555
O42 Ta3 2.018150 1_565
O43 Ta2 2.232248 1_565
O45 Ta1 2.093714 1_555
O47 Ta0 2.260313 1_555
O48 Ta5 1.982275 1_554
O50 Ta6 1.929000 1_554
O54 Ta7 1.989144 1_555
O57 Ta5 2.124593 1_555
O59 Ta6 2.200884 1_555
O63 Ta7 2.122516 1_556
