# generated using pymatgen
data_Bi3PbWClO8
_symmetry_space_group_name_H-M   'P 1'
_cell_length_a   3.89425300
_cell_length_b   3.89425300
_cell_length_c   14.91433600
_cell_angle_alpha   90.00000000
_cell_angle_beta   90.00000000
_cell_angle_gamma   90.00000000
_symmetry_Int_Tables_number   1
_chemical_formula_structural   Bi3PbWClO8
_chemical_formula_sum   'Bi3 Pb1 W1 Cl1 O8'
_cell_volume   226.17898418
_cell_formula_units_Z   1
loop_
 _symmetry_equiv_pos_site_id
 _symmetry_equiv_pos_as_xyz
  1  'x, y, z'
loop_
 _atom_site_type_symbol
 _atom_site_label
 _atom_site_symmetry_multiplicity
 _atom_site_fract_x
 _atom_site_fract_y
 _atom_site_fract_z
 _atom_site_occupancy
  Bi  Bi0  1  0.50000000  0.50000000  0.19075100  1
  Bi  Bi1  1  0.00000000  0.00000000  0.36218200  1
  Bi  Bi2  1  0.00000000  0.00000000  0.63478800  1
  Pb  Pb0  1  0.50000000  0.50000000  0.80710700  1
  W  W0  1  0.00000000  0.00000000  0.00558600  1
  Cl  Cl0  1  0.50000000  0.50000000  0.48627300  1
  O  O0  1  0.00000000  0.00000000  0.14089000  1
  O  O1  1  0.50000000  0.00000000  0.01269200  1
  O  O2  1  0.00000000  0.50000000  0.01269200  1
  O  O3  1  0.00000000  0.00000000  0.88145400  1
  O  O4  1  0.50000000  0.00000000  0.70672100  1
  O  O5  1  0.00000000  0.50000000  0.70672100  1
  O  O6  1  0.50000000  0.00000000  0.28456200  1
  O  O7  1  0.00000000  0.50000000  0.28456200  1
loop_
_geom_bond_atom_site_label_1
_geom_bond_atom_site_label_2
_geom_bond_distance
_geom_bond_site_symmetry_2
Bi0 O7 2.397679 1_555
Bi0 O6 2.397679 1_565
Bi0 O7 2.397679 1_655
Bi0 O6 2.397679 1_555
Bi1 O7 2.265272 1_545
Bi1 O6 2.265272 1_555
Bi1 O6 2.265272 1_455
Bi1 O7 2.265272 1_555
Bi2 O5 2.223122 1_545
Bi2 O5 2.223122 1_555
Bi2 O4 2.223122 1_455
Bi2 O4 2.223122 1_555
O0 W0 2.017969 1_555
O1 W0 1.950009 1_555
O1 W0 1.950009 1_655
O2 W0 1.950009 1_555
O2 W0 1.950009 1_565
O3 W0 1.851346 1_556
O4 Pb0 2.456192 1_555
O4 Pb0 2.456192 1_545
O5 Pb0 2.456192 1_555
O5 Pb0 2.456192 1_455
