# generated using pymatgen
data_Ca2AlCrO5
_symmetry_space_group_name_H-M   'P 1'
_cell_length_a   5.41876084
_cell_length_b   5.69567226
_cell_length_c   8.14247781
_cell_angle_alpha   69.53226700
_cell_angle_beta   70.58380602
_cell_angle_gamma   90.01792919
_symmetry_Int_Tables_number   1
_chemical_formula_structural   Ca2AlCrO5
_chemical_formula_sum   'Ca4 Al2 Cr2 O10'
_cell_volume   220.10997240
_cell_formula_units_Z   2
loop_
 _symmetry_equiv_pos_site_id
 _symmetry_equiv_pos_as_xyz
  1  'x, y, z'
loop_
 _atom_site_type_symbol
 _atom_site_label
 _atom_site_symmetry_multiplicity
 _atom_site_fract_x
 _atom_site_fract_y
 _atom_site_fract_z
 _atom_site_occupancy
  Ca  Ca0  1  0.89810600  0.42309300  0.21699900  1
  Ca  Ca1  1  0.61460600  0.14038400  0.78283600  1
  Ca  Ca2  1  0.11505700  0.57689500  0.78272300  1
  Ca  Ca3  1  0.39847800  0.85958600  0.21706200  1
  Al  Al0  1  0.79119300  0.82808400  0.49984100  1
  Al  Al1  1  0.29149300  0.17183100  0.49982500  1
  Cr  Cr0  1  0.99522300  0.99993000  0.99981900  1
  Cr  Cr1  1  0.49532300  0.50002300  0.99982200  1
  O  O0  1  0.11968000  0.89911200  0.49973600  1
  O  O1  1  0.61982500  0.10089200  0.49988500  1
  O  O2  1  0.33080000  0.42619200  0.28962000  1
  O  O3  1  0.61965300  0.57389100  0.71004700  1
  O  O4  1  0.82924700  0.78383600  0.28972000  1
  O  O5  1  0.12047100  0.21608100  0.71004400  1
  O  O6  1  0.26364100  0.76883700  0.96882000  1
  O  O7  1  0.23232600  0.23079800  0.03155600  1
  O  O8  1  0.73264500  0.23781500  0.03099200  1
  O  O9  1  0.76404900  0.76266100  0.96797600  1
loop_
_geom_bond_atom_site_label_1
_geom_bond_atom_site_label_2
_geom_bond_distance
_geom_bond_site_symmetry_2
Ca0 O4 2.327225 1_555
Ca0 O1 2.383277 1_555
Ca0 O7 2.469655 1_655
Ca0 O8 2.496279 1_555
Ca0 O6 2.537358 1_654
Ca0 O9 2.572405 1_554
Ca0 O2 2.603166 1_655
Ca0 O2 2.932374 1_555
Ca1 O3 2.326861 1_555
Ca1 O1 2.382974 1_555
Ca1 O9 2.470088 1_545
Ca1 O6 2.495980 1_545
Ca1 O8 2.538340 1_556
Ca1 O7 2.568759 1_556
Ca1 O5 2.606051 1_655
Ca1 O5 2.929826 1_555
Ca2 O5 2.326683 1_555
Ca2 O0 2.383757 1_555
Ca2 O6 2.471570 1_555
Ca2 O9 2.494487 1_455
Ca2 O7 2.541328 1_556
Ca2 O8 2.567578 1_456
Ca2 O3 2.599641 1_555
Ca2 O3 2.936002 1_455
Ca3 O2 2.326443 1_555
Ca3 O0 2.383576 1_555
Ca3 O8 2.471062 1_565
Ca3 O7 2.496858 1_565
Ca3 O9 2.540657 1_554
Ca3 O6 2.568855 1_554
Ca3 O4 2.593274 1_555
Ca3 O4 2.942423 1_455
Al0 O3 1.760130 1_555
Al0 O4 1.760756 1_555
Al0 O1 1.810454 1_565
Al0 O0 1.824920 1_655
Al1 O2 1.759842 1_555
Al1 O5 1.760534 1_555
Al1 O0 1.811053 1_545
Al1 O1 1.824699 1_555
Cr0 O6 1.975141 1_655
Cr0 O7 1.975835 1_666
Cr0 O9 1.980570 1_555
Cr0 O8 1.981496 1_566
Cr0 O5 2.108733 1_665
Cr0 O4 2.109913 1_556
Cr1 O9 1.975267 1_555
Cr1 O8 1.975272 1_556
Cr1 O6 1.981319 1_555
Cr1 O7 1.981363 1_556
Cr1 O3 2.108739 1_555
Cr1 O2 2.108755 1_556
