# generated using pymatgen
data_La3(GaRh)2
_symmetry_space_group_name_H-M   'P 1'
_cell_length_a   5.77378120
_cell_length_b   8.25682258
_cell_length_c   13.80299836
_cell_angle_alpha   90.00000000
_cell_angle_beta   90.00000000
_cell_angle_gamma   90.00000000
_symmetry_Int_Tables_number   1
_chemical_formula_structural   La3(GaRh)2
_chemical_formula_sum   'La12 Ga8 Rh8'
_cell_volume   658.03154146
_cell_formula_units_Z   4
loop_
 _symmetry_equiv_pos_site_id
 _symmetry_equiv_pos_as_xyz
  1  'x, y, z'
loop_
 _atom_site_type_symbol
 _atom_site_label
 _atom_site_symmetry_multiplicity
 _atom_site_fract_x
 _atom_site_fract_y
 _atom_site_fract_z
 _atom_site_occupancy
  La  La0  1  0.63538783  0.26246150  0.25000000  1
  La  La1  1  0.36461217  0.73753850  0.75000000  1
  La  La2  1  0.36461217  0.76246150  0.25000000  1
  La  La3  1  0.63538783  0.23753850  0.75000000  1
  La  La4  1  0.15467231  0.40167107  0.09603366  1
  La  La5  1  0.84532769  0.59832893  0.90396634  1
  La  La6  1  0.84532769  0.59832893  0.59603366  1
  La  La7  1  0.84532769  0.90167107  0.40396634  1
  La  La8  1  0.15467231  0.40167107  0.40396634  1
  La  La9  1  0.15467231  0.09832893  0.59603366  1
  La  La10  1  0.15467231  0.09832893  0.90396634  1
  La  La11  1  0.84532769  0.90167107  0.09603366  1
  Ga  Ga0  1  0.14245524  0.11018672  0.25000000  1
  Ga  Ga1  1  0.85754476  0.88981328  0.75000000  1
  Ga  Ga2  1  0.85754476  0.61018672  0.25000000  1
  Ga  Ga3  1  0.14245524  0.38981328  0.75000000  1
  Ga  Ga4  1  0.62815978  0.25000000  -0.00000000  1
  Ga  Ga5  1  0.37184022  0.75000000  -0.00000000  1
  Ga  Ga6  1  0.37184022  0.75000000  0.50000000  1
  Ga  Ga7  1  0.62815978  0.25000000  0.50000000  1
  Rh  Rh0  1  0.35933653  0.02985190  0.08892196  1
  Rh  Rh1  1  0.64066347  0.97014810  0.91107804  1
  Rh  Rh2  1  0.64066347  0.97014810  0.58892196  1
  Rh  Rh3  1  0.64066347  0.52985190  0.41107804  1
  Rh  Rh4  1  0.35933653  0.02985190  0.41107804  1
  Rh  Rh5  1  0.35933653  0.47014810  0.58892196  1
  Rh  Rh6  1  0.35933653  0.47014810  0.91107804  1
  Rh  Rh7  1  0.64066347  0.52985190  0.08892196  1
loop_
_geom_bond_atom_site_label_1
_geom_bond_atom_site_label_2
_geom_bond_distance
_geom_bond_site_symmetry_2
La0 Rh3 3.133467 1_555
La0 Rh7 3.133467 1_555
La0 Rh4 3.342527 1_555
La0 Rh0 3.342527 1_555
La1 Rh5 3.133467 1_555
La1 Rh6 3.133467 1_555
La1 Rh2 3.342527 1_555
La1 Rh1 3.342527 1_555
La2 Rh0 3.133467 1_565
La2 Rh4 3.133467 1_565
La2 Rh3 3.342527 1_555
La2 Rh7 3.342527 1_555
La3 Rh2 3.133467 1_545
La3 Rh1 3.133467 1_545
La3 Rh5 3.342527 1_555
La3 Rh6 3.342527 1_555
La4 Rh6 2.869421 1_554
La4 Rh7 3.000575 1_555
La4 Rh7 3.152374 1_455
La4 Rh0 3.291078 1_555
La5 Rh7 2.869421 1_556
La5 Rh6 3.000575 1_555
La5 Rh6 3.152374 1_655
La5 Rh1 3.291078 1_555
La6 Rh3 2.869421 1_555
La6 Rh5 3.000575 1_555
La6 Rh5 3.152374 1_655
La6 Rh2 3.291078 1_555
La7 Rh2 2.869421 1_555
La7 Rh4 3.000575 1_565
La7 Rh4 3.152374 1_665
La7 Rh3 3.291078 1_555
La8 Rh5 2.869421 1_555
La8 Rh3 3.000575 1_555
La8 Rh3 3.152374 1_455
La8 Rh4 3.291078 1_555
La9 Rh4 2.869421 1_555
La9 Rh2 3.000575 1_545
La9 Rh2 3.152374 1_445
La9 Rh5 3.291078 1_555
La10 Rh0 2.869421 1_556
La10 Rh1 3.000575 1_545
La10 Rh1 3.152374 1_445
La10 Rh6 3.291078 1_555
La11 Rh1 2.869421 1_554
La11 Rh0 3.000575 1_565
La11 Rh0 3.152374 1_665
La11 Rh7 3.291078 1_555
Ga0 Rh4 2.636547 1_555
Ga0 Rh0 2.636547 1_555
Ga0 La0 3.111433 1_555
Ga0 La2 3.144603 1_545
Ga0 La0 3.186255 1_455
Ga0 La4 3.211512 1_555
Ga0 La8 3.211512 1_555
Ga0 La7 3.228582 1_445
Ga0 La11 3.228582 1_445
Ga1 Rh2 2.636547 1_555
Ga1 Rh1 2.636547 1_555
Ga1 La1 3.111433 1_555
Ga1 La3 3.144603 1_565
Ga1 La1 3.186255 1_655
Ga1 La5 3.211512 1_555
Ga1 La6 3.211512 1_555
Ga1 La10 3.228582 1_665
Ga1 La9 3.228582 1_665
Ga2 Rh3 2.636547 1_555
Ga2 Rh7 2.636547 1_555
Ga2 La2 3.111433 1_555
Ga2 La0 3.144603 1_555
Ga2 La2 3.186255 1_655
Ga2 La7 3.211512 1_555
Ga2 La11 3.211512 1_555
Ga2 La4 3.228582 1_655
Ga2 La8 3.228582 1_655
Ga3 Rh6 2.636547 1_555
Ga3 Rh5 2.636547 1_555
Ga3 La3 3.111433 1_555
Ga3 La1 3.144603 1_555
Ga3 La3 3.186255 1_455
Ga3 La10 3.211512 1_555
Ga3 La9 3.211512 1_555
Ga3 La5 3.228582 1_455
Ga3 La6 3.228582 1_455
Ga4 Rh7 2.617437 1_555
Ga4 Rh1 2.617437 1_544
Ga4 Rh0 2.686950 1_555
Ga4 Rh6 2.686950 1_554
Ga4 La10 3.286203 1_554
Ga4 La4 3.286203 1_555
Ga4 La5 3.406053 1_554
Ga4 La11 3.406053 1_545
Ga4 La3 3.452535 1_554
Ga4 La0 3.452535 1_555
Ga4 La4 3.544969 1_655
Ga4 La10 3.544969 1_654
Ga5 Rh0 2.617437 1_565
Ga5 Rh6 2.617437 1_554
Ga5 Rh1 2.686950 1_554
Ga5 Rh7 2.686950 1_555
Ga5 La11 3.286203 1_555
Ga5 La5 3.286203 1_554
Ga5 La4 3.406053 1_555
Ga5 La10 3.406053 1_564
Ga5 La2 3.452535 1_555
Ga5 La1 3.452535 1_554
Ga5 La5 3.544969 1_454
Ga5 La11 3.544969 1_455
Ga6 Rh4 2.617437 1_565
Ga6 Rh5 2.617437 1_555
Ga6 Rh2 2.686950 1_555
Ga6 Rh3 2.686950 1_555
Ga6 La6 3.286203 1_555
Ga6 La7 3.286203 1_555
Ga6 La8 3.406053 1_555
Ga6 La9 3.406053 1_565
Ga6 La2 3.452535 1_555
Ga6 La1 3.452535 1_555
Ga6 La7 3.544969 1_455
Ga6 La6 3.544969 1_455
Ga7 Rh3 2.617437 1_555
Ga7 Rh2 2.617437 1_545
Ga7 Rh4 2.686950 1_555
Ga7 Rh5 2.686950 1_555
Ga7 La9 3.286203 1_555
Ga7 La8 3.286203 1_555
Ga7 La7 3.406053 1_545
Ga7 La6 3.406053 1_555
Ga7 La3 3.452535 1_555
Ga7 La0 3.452535 1_555
Ga7 La8 3.544969 1_655
Ga7 La9 3.544969 1_655
