# generated using pymatgen
data_Li6ZnO4
_symmetry_space_group_name_H-M   'P 1'
_cell_length_a   6.47903959
_cell_length_b   6.47903959
_cell_length_c   4.60690804
_cell_angle_alpha   90.00000000
_cell_angle_beta   90.00000000
_cell_angle_gamma   90.00000000
_symmetry_Int_Tables_number   1
_chemical_formula_structural   Li6ZnO4
_chemical_formula_sum   'Li12 Zn2 O8'
_cell_volume   193.38857383
_cell_formula_units_Z   2
loop_
 _symmetry_equiv_pos_site_id
 _symmetry_equiv_pos_as_xyz
  1  'x, y, z'
loop_
 _atom_site_type_symbol
 _atom_site_label
 _atom_site_symmetry_multiplicity
 _atom_site_fract_x
 _atom_site_fract_y
 _atom_site_fract_z
 _atom_site_occupancy
  Li  Li0  1  0.00000000  0.50000000  0.45659582  1
  Li  Li1  1  0.50000000  0.00000000  0.04340418  1
  Li  Li2  1  0.28129110  0.71870890  0.50000000  1
  Li  Li3  1  0.21870890  0.21870890  -0.00000000  1
  Li  Li4  1  0.78129110  0.78129110  -0.00000000  1
  Li  Li5  1  0.71870890  0.28129110  0.50000000  1
  Li  Li6  1  0.21870890  0.78129110  -0.00000000  1
  Li  Li7  1  0.28129110  0.28129110  0.50000000  1
  Li  Li8  1  0.71870890  0.71870890  0.50000000  1
  Li  Li9  1  0.50000000  0.00000000  0.54340418  1
  Li  Li10  1  0.00000000  0.50000000  0.95659582  1
  Li  Li11  1  0.78129110  0.21870890  -0.00000000  1
  Zn  Zn0  1  0.50000000  0.50000000  -0.00000000  1
  Zn  Zn1  1  0.00000000  0.00000000  0.50000000  1
  O  O0  1  0.73623812  0.00000000  0.28245759  1
  O  O1  1  0.50000000  0.23623812  0.78245759  1
  O  O2  1  0.23623812  0.50000000  0.21754241  1
  O  O3  1  0.00000000  0.26376188  0.71754241  1
  O  O4  1  0.00000000  0.73623812  0.71754241  1
  O  O5  1  0.50000000  0.76376188  0.78245759  1
  O  O6  1  0.26376188  0.00000000  0.28245759  1
  O  O7  1  0.76376188  0.50000000  0.21754241  1
loop_
_geom_bond_atom_site_label_1
_geom_bond_atom_site_label_2
_geom_bond_distance
_geom_bond_site_symmetry_2
Li0 O7 1.885625 1_455
Li0 O2 1.885625 1_555
Li0 O3 1.946254 1_555
Li0 O4 1.946254 1_555
Li1 O6 1.885625 1_555
Li1 O0 1.885625 1_555
Li1 O5 1.946254 1_544
Li1 O1 1.946254 1_554
Li2 O2 1.945875 1_555
Li2 O5 1.945875 1_555
Li2 O4 2.082977 1_555
Li2 O6 2.082977 1_565
Li3 O6 1.945875 1_555
Li3 O3 1.945875 1_554
Li3 O2 2.082977 1_555
Li3 O1 2.082977 1_554
Li4 O0 1.945875 1_565
Li4 O4 1.945875 1_654
Li4 O5 2.082977 1_554
Li4 O7 2.082977 1_555
Li5 O1 1.945875 1_555
Li5 O7 1.945875 1_555
Li5 O0 2.082977 1_555
Li5 O3 2.082977 1_655
Li6 O4 1.945875 1_554
Li6 O6 1.945875 1_565
Li6 O2 2.082977 1_555
Li6 O5 2.082977 1_554
Li7 O2 1.945875 1_555
Li7 O1 1.945875 1_555
Li7 O3 2.082977 1_555
Li7 O6 2.082977 1_555
Li8 O7 1.945875 1_555
Li8 O5 1.945875 1_555
Li8 O4 2.082977 1_655
Li8 O0 2.082977 1_565
Li9 O1 1.885625 1_555
Li9 O5 1.885625 1_545
Li9 O6 1.946254 1_555
Li9 O0 1.946254 1_555
Li10 O4 1.885625 1_555
Li10 O3 1.885625 1_555
Li10 O2 1.946254 1_556
Li10 O7 1.946254 1_456
Li11 O0 1.945875 1_555
Li11 O3 1.945875 1_654
Li11 O1 2.082977 1_554
Li11 O7 2.082977 1_555
O0 Zn1 1.981116 1_655
O1 Zn0 1.981116 1_556
O2 Zn0 1.981116 1_555
O3 Zn1 1.981116 1_555
O4 Zn1 1.981116 1_565
O5 Zn0 1.981116 1_556
O6 Zn1 1.981116 1_555
O7 Zn0 1.981116 1_555
