# generated using pymatgen
data_PmHg3
_symmetry_space_group_name_H-M   'P 1'
_cell_length_a   5.14408789
_cell_length_b   5.14408789
_cell_length_c   5.14408789
_cell_angle_alpha   60.00000000
_cell_angle_beta   60.00000000
_cell_angle_gamma   60.00000000
_symmetry_Int_Tables_number   1
_chemical_formula_structural   PmHg3
_chemical_formula_sum   'Pm1 Hg3'
_cell_volume   96.25208428
_cell_formula_units_Z   1
loop_
 _symmetry_equiv_pos_site_id
 _symmetry_equiv_pos_as_xyz
  1  'x, y, z'
loop_
 _atom_site_type_symbol
 _atom_site_label
 _atom_site_symmetry_multiplicity
 _atom_site_fract_x
 _atom_site_fract_y
 _atom_site_fract_z
 _atom_site_occupancy
  Pm  Pm0  1  0.75000000  0.75000000  0.75000000  1
  Hg  Hg0  1  -0.00000000  0.00000000  -0.00000000  1
  Hg  Hg1  1  0.50000000  0.50000000  0.50000000  1
  Hg  Hg2  1  0.24999900  0.24999900  0.24999900  1
loop_
_geom_bond_atom_site_label_1
_geom_bond_atom_site_label_2
_geom_bond_distance
_geom_bond_site_symmetry_2
Hg0 Hg2 3.150085 1_555
Hg0 Pm0 3.150098 1_454
Hg0 Pm0 3.150098 1_444
Hg0 Pm0 3.150098 1_445
Hg0 Pm0 3.150098 1_544
Hg0 Hg2 3.150102 1_545
Hg0 Hg2 3.150102 1_554
Hg0 Hg2 3.150102 1_455
Hg1 Hg2 3.150093 1_556
Hg1 Hg2 3.150093 1_655
Hg1 Hg2 3.150093 1_565
Hg1 Pm0 3.150098 1_554
Hg1 Pm0 3.150098 1_545
Hg1 Pm0 3.150098 1_555
Hg1 Pm0 3.150098 1_455
Hg1 Hg2 3.150110 1_555
Hg2 Pm0 3.637412 1_445
Hg2 Pm0 3.637412 1_454
Hg2 Pm0 3.637412 1_544
Hg2 Pm0 3.637427 1_455
Hg2 Pm0 3.637427 1_554
Hg2 Pm0 3.637427 1_545
