# generated using pymatgen
data_InH9(SO6)2
_symmetry_space_group_name_H-M   'P 1'
_cell_length_a   5.64774700
_cell_length_b   10.08673200
_cell_length_c   18.73586900
_cell_angle_alpha   90.00000000
_cell_angle_beta   90.00000000
_cell_angle_gamma   90.00000000
_symmetry_Int_Tables_number   1
_chemical_formula_structural   InH9(SO6)2
_chemical_formula_sum   'In4 H36 S8 O48'
_cell_volume   1067.33206480
_cell_formula_units_Z   4
loop_
 _symmetry_equiv_pos_site_id
 _symmetry_equiv_pos_as_xyz
  1  'x, y, z'
loop_
 _atom_site_type_symbol
 _atom_site_label
 _atom_site_symmetry_multiplicity
 _atom_site_fract_x
 _atom_site_fract_y
 _atom_site_fract_z
 _atom_site_occupancy
  In  In0  1  0.00000000  0.00000000  0.00000000  1
  In  In1  1  0.50000000  0.50000000  0.00000000  1
  In  In2  1  0.00000000  0.00000000  0.50000000  1
  In  In3  1  0.50000000  0.50000000  0.50000000  1
  H  H0  1  0.55123200  0.49829800  0.25000000  1
  H  H1  1  0.44876800  0.50170200  0.75000000  1
  H  H2  1  0.05123200  0.00170200  0.75000000  1
  H  H3  1  0.94876800  0.99829800  0.25000000  1
  H  H4  1  0.65456600  0.09215600  0.10000000  1
  H  H5  1  0.34543400  0.90784400  0.90000000  1
  H  H6  1  0.15456600  0.40784400  0.90000000  1
  H  H7  1  0.34543400  0.90784400  0.60000000  1
  H  H8  1  0.84543400  0.59215600  0.10000000  1
  H  H9  1  0.65456600  0.09215600  0.40000000  1
  H  H10  1  0.84543400  0.59215600  0.40000000  1
  H  H11  1  0.15456600  0.40784400  0.60000000  1
  H  H12  1  0.35373800  0.06521200  0.59731200  1
  H  H13  1  0.64626200  0.93478800  0.40268800  1
  H  H14  1  0.85373800  0.43478800  0.40268800  1
  H  H15  1  0.64626200  0.93478800  0.09731200  1
  H  H16  1  0.14626200  0.56521200  0.59731200  1
  H  H17  1  0.35373800  0.06521200  0.90268800  1
  H  H18  1  0.14626200  0.56521200  0.90268800  1
  H  H19  1  0.85373800  0.43478800  0.09731200  1
  H  H20  1  0.52590100  0.65993000  0.20554300  1
  H  H21  1  0.47409900  0.34007000  0.79445700  1
  H  H22  1  0.02590100  0.84007000  0.79445700  1
  H  H23  1  0.47409900  0.34007000  0.70554300  1
  H  H24  1  0.97409900  0.15993000  0.20554300  1
  H  H25  1  0.52590100  0.65993000  0.29445700  1
  H  H26  1  0.97409900  0.15993000  0.29445700  1
  H  H27  1  0.02590100  0.84007000  0.70554300  1
  H  H28  1  0.50440300  0.31924200  0.20674900  1
  H  H29  1  0.49559700  0.68075800  0.79325100  1
  H  H30  1  0.00440300  0.18075800  0.79325100  1
  H  H31  1  0.49559700  0.68075800  0.70674900  1
  H  H32  1  0.99559700  0.81924200  0.20674900  1
  H  H33  1  0.50440300  0.31924200  0.29325100  1
  H  H34  1  0.99559700  0.81924200  0.29325100  1
  H  H35  1  0.00440300  0.18075800  0.70674900  1
  S  S0  1  0.22222200  0.25966600  0.09152100  1
  S  S1  1  0.77777800  0.74033400  0.90847900  1
  S  S2  1  0.72222200  0.24033400  0.90847900  1
  S  S3  1  0.77777800  0.74033400  0.59152100  1
  S  S4  1  0.27777800  0.75966600  0.09152100  1
  S  S5  1  0.22222200  0.25966600  0.40847900  1
  S  S6  1  0.27777800  0.75966600  0.40847900  1
  S  S7  1  0.72222200  0.24033400  0.59152100  1
  O  O0  1  0.24760900  0.40145500  0.06681600  1
  O  O1  1  0.75239100  0.59854500  0.93318400  1
  O  O2  1  0.74760900  0.09854500  0.93318400  1
  O  O3  1  0.75239100  0.59854500  0.56681600  1
  O  O4  1  0.25239100  0.90145500  0.06681600  1
  O  O5  1  0.24760900  0.40145500  0.43318400  1
  O  O6  1  0.25239100  0.90145500  0.43318400  1
  O  O7  1  0.74760900  0.09854500  0.56681600  1
  O  O8  1  0.19403700  0.17687400  0.02527100  1
  O  O9  1  0.80596300  0.82312600  0.97472900  1
  O  O10  1  0.69403700  0.32312600  0.97472900  1
  O  O11  1  0.80596300  0.82312600  0.52527100  1
  O  O12  1  0.30596300  0.67687400  0.02527100  1
  O  O13  1  0.19403700  0.17687400  0.47472900  1
  O  O14  1  0.30596300  0.67687400  0.47472900  1
  O  O15  1  0.69403700  0.32312600  0.52527100  1
  O  O16  1  0.43546100  0.21684600  0.13121200  1
  O  O17  1  0.56453900  0.78315400  0.86878800  1
  O  O18  1  0.93546100  0.28315400  0.86878800  1
  O  O19  1  0.56453900  0.78315400  0.63121200  1
  O  O20  1  0.06453900  0.71684600  0.13121200  1
  O  O21  1  0.43546100  0.21684600  0.36878800  1
  O  O22  1  0.06453900  0.71684600  0.36878800  1
  O  O23  1  0.93546100  0.28315400  0.63121200  1
  O  O24  1  0.75313000  0.01160800  0.09271600  1
  O  O25  1  0.24687000  0.98839200  0.90728400  1
  O  O26  1  0.25313000  0.48839200  0.90728400  1
  O  O27  1  0.24687000  0.98839200  0.59271600  1
  O  O28  1  0.74687000  0.51160800  0.09271600  1
  O  O29  1  0.75313000  0.01160800  0.40728400  1
  O  O30  1  0.74687000  0.51160800  0.40728400  1
  O  O31  1  0.25313000  0.48839200  0.59271600  1
  O  O32  1  0.55284600  0.36945000  0.25000000  1
  O  O33  1  0.44715400  0.63055000  0.75000000  1
  O  O34  1  0.05284600  0.13055000  0.75000000  1
  O  O35  1  0.94715400  0.86945000  0.25000000  1
  O  O36  1  0.56757600  0.60914400  0.25000000  1
  O  O37  1  0.43242400  0.39085600  0.75000000  1
  O  O38  1  0.06757600  0.89085600  0.75000000  1
  O  O39  1  0.93242400  0.10914400  0.25000000  1
  O  O40  1  0.00562600  0.25706800  0.13574600  1
  O  O41  1  0.99437400  0.74293200  0.86425400  1
  O  O42  1  0.50562600  0.24293200  0.86425400  1
  O  O43  1  0.99437400  0.74293200  0.63574600  1
  O  O44  1  0.49437400  0.75706800  0.13574600  1
  O  O45  1  0.00562600  0.25706800  0.36425400  1
  O  O46  1  0.49437400  0.75706800  0.36425400  1
  O  O47  1  0.50562600  0.24293200  0.63574600  1
loop_
_geom_bond_atom_site_label_1
_geom_bond_atom_site_label_2
_geom_bond_distance
_geom_bond_site_symmetry_2
In0 O4 2.141741 1_545
In0 O2 2.141741 1_454
In0 O8 2.146638 1_555
In0 O9 2.146638 1_444
In0 O25 2.230524 1_544
In0 O24 2.230524 1_455
In1 O1 2.141741 1_554
In1 O0 2.141741 1_555
In1 O12 2.146638 1_555
In1 O10 2.146638 1_554
In1 O26 2.230524 1_554
In1 O28 2.230524 1_555
In2 O7 2.141741 1_455
In2 O6 2.141741 1_545
In2 O13 2.146638 1_555
In2 O11 2.146638 1_445
In2 O27 2.230524 1_545
In2 O29 2.230524 1_455
In3 O3 2.141741 1_555
In3 O5 2.141741 1_555
In3 O14 2.146638 1_555
In3 O15 2.146638 1_555
In3 O30 2.230524 1_555
In3 O31 2.230524 1_555
H0 O36 1.121878 1_555
H0 O32 1.299687 1_555
H1 O37 1.121878 1_555
H1 O33 1.299687 1_555
H2 O38 1.121878 1_545
H2 O34 1.299687 1_555
H3 O39 1.121878 1_565
H3 O35 1.299687 1_555
H4 O24 0.994284 1_555
H5 O25 0.994284 1_555
H6 O26 0.994284 1_555
H7 O27 0.994284 1_555
H8 O28 0.994284 1_555
H9 O29 0.994284 1_555
H10 O30 0.994284 1_555
H11 O31 0.994284 1_555
H12 O27 0.985959 1_545
H13 O29 0.985959 1_565
H14 O30 0.985959 1_555
H15 O24 0.985959 1_565
H16 O31 0.985959 1_555
H17 O25 0.985959 1_545
H18 O26 0.985959 1_555
H19 O28 0.985959 1_555
H20 O36 1.005785 1_555
H20 O44 1.643722 1_555
H21 O37 1.005785 1_555
H21 O42 1.643722 1_555
H22 O38 1.005785 1_555
H22 O41 1.643722 1_455
H23 O37 1.005785 1_555
H23 O47 1.643722 1_555
H24 O39 1.005785 1_555
H24 O40 1.643722 1_655
H25 O36 1.005785 1_555
H25 O46 1.643722 1_555
H26 O39 1.005785 1_555
H26 O45 1.643722 1_655
H27 O38 1.005785 1_555
H27 O43 1.643722 1_455
H28 O32 0.993976 1_555
H29 O33 0.993976 1_555
H30 O34 0.993976 1_555
H31 O33 0.993976 1_555
H32 O35 0.993976 1_555
H33 O32 0.993976 1_555
H34 O35 0.993976 1_555
H35 O34 0.993976 1_555
O0 S0 1.510047 1_555
O1 S1 1.510047 1_555
O2 S2 1.510047 1_555
O3 S3 1.510047 1_555
O4 S4 1.510047 1_555
O5 S5 1.510047 1_555
O6 S6 1.510047 1_555
O7 S7 1.510047 1_555
O8 S0 1.504472 1_555
O9 S1 1.504472 1_555
O10 S2 1.504472 1_555
O11 S3 1.504472 1_555
O12 S4 1.504472 1_555
O13 S5 1.504472 1_555
O14 S6 1.504472 1_555
O15 S7 1.504472 1_555
O16 S0 1.479846 1_555
O17 S1 1.479846 1_555
O18 S2 1.479846 1_555
O19 S3 1.479846 1_555
O20 S4 1.479846 1_555
O21 S5 1.479846 1_555
O22 S6 1.479846 1_555
O23 S7 1.479846 1_555
O40 S0 1.477724 1_555
O41 S1 1.477724 1_555
O42 S2 1.477724 1_555
O43 S3 1.477724 1_555
O44 S4 1.477724 1_555
O45 S5 1.477724 1_555
O46 S6 1.477724 1_555
O47 S7 1.477724 1_555
