# generated using pymatgen
data_Na3VP2O9
_symmetry_space_group_name_H-M   'P 1'
_cell_length_a   8.69821340
_cell_length_b   8.69821340
_cell_length_c   7.42264696
_cell_angle_alpha   86.22444440
_cell_angle_beta   86.22444440
_cell_angle_gamma   47.31821179
_symmetry_Int_Tables_number   1
_chemical_formula_structural   Na3VP2O9
_chemical_formula_sum   'Na6 V2 P4 O18'
_cell_volume   411.77308010
_cell_formula_units_Z   2
loop_
 _symmetry_equiv_pos_site_id
 _symmetry_equiv_pos_as_xyz
  1  'x, y, z'
loop_
 _atom_site_type_symbol
 _atom_site_label
 _atom_site_symmetry_multiplicity
 _atom_site_fract_x
 _atom_site_fract_y
 _atom_site_fract_z
 _atom_site_occupancy
  Na  Na0  1  0.77884000  0.22116000  0.00000000  1
  Na  Na1  1  0.22116000  0.77884000  0.00000000  1
  Na  Na2  1  0.60603100  0.60603100  0.29994700  1
  Na  Na3  1  0.39396900  0.39396900  0.70005300  1
  Na  Na4  1  0.00000000  0.50000000  0.50000000  1
  Na  Na5  1  0.50000000  0.00000000  0.50000000  1
  V  V0  1  0.00000000  0.50000000  0.00000000  1
  V  V1  1  0.50000000  0.00000000  0.00000000  1
  P  P0  1  0.38098500  0.38098500  0.22664500  1
  P  P1  1  0.61901500  0.61901500  0.77335500  1
  P  P2  1  0.12821100  0.12821100  0.28797200  1
  P  P3  1  0.87178900  0.87178900  0.71202800  1
  O  O0  1  0.47635200  0.47635200  0.20369200  1
  O  O1  1  0.52364800  0.52364800  0.79630800  1
  O  O2  1  0.34179800  0.34179800  0.41991000  1
  O  O3  1  0.65820200  0.65820200  0.58009000  1
  O  O4  1  0.16788600  0.53047200  0.12065100  1
  O  O5  1  0.53047200  0.16788600  0.12065100  1
  O  O6  1  0.83211400  0.46952800  0.87934900  1
  O  O7  1  0.46952800  0.83211400  0.87934900  1
  O  O8  1  0.99467800  0.36572400  0.21114800  1
  O  O9  1  0.36572400  0.99467800  0.21114800  1
  O  O10  1  0.00532200  0.63427600  0.78885200  1
  O  O11  1  0.63427600  0.00532200  0.78885200  1
  O  O12  1  0.04442700  0.04442700  0.20453300  1
  O  O13  1  0.95557300  0.95557300  0.79546700  1
  O  O14  1  0.13619600  0.13619600  0.48854200  1
  O  O15  1  0.86380400  0.86380400  0.51145800  1
  O  O16  1  0.24474800  0.24474800  0.91973400  1
  O  O17  1  0.75525200  0.75525200  0.08026600  1
loop_
_geom_bond_atom_site_label_1
_geom_bond_atom_site_label_2
_geom_bond_distance
_geom_bond_site_symmetry_2
Na0 O12 2.311766 1_655
Na0 O13 2.311766 1_544
Na0 O0 2.476952 1_555
Na0 O1 2.476952 1_554
Na0 O6 2.594564 1_554
Na0 O5 2.594564 1_555
Na1 O12 2.311766 1_565
Na1 O13 2.311766 1_454
Na1 O0 2.476952 1_555
Na1 O1 2.476952 1_554
Na1 O7 2.594564 1_554
Na1 O4 2.594564 1_555
Na2 O0 2.234386 1_555
Na2 O3 2.294238 1_555
Na2 O8 2.557134 1_555
Na2 O9 2.557134 1_555
Na2 O17 2.784782 1_555
Na3 O1 2.234386 1_555
Na3 O2 2.294238 1_555
Na3 O10 2.557134 1_555
Na3 O11 2.557134 1_555
Na3 O16 2.784782 1_555
Na4 O2 2.326786 1_555
Na4 O3 2.326786 1_455
Na4 O15 2.522643 1_455
Na4 O14 2.522643 1_555
Na4 O10 2.525743 1_555
Na4 O8 2.525743 1_455
Na5 O2 2.326786 1_555
Na5 O3 2.326786 1_545
Na5 O15 2.522643 1_545
Na5 O14 2.522643 1_555
Na5 O11 2.525743 1_555
Na5 O9 2.525743 1_545
O0 P0 1.516901 1_555
O1 P1 1.516901 1_555
O2 P0 1.522827 1_555
O3 P1 1.522827 1_555
O4 P0 1.592157 1_555
O4 V0 1.932109 1_555
O5 P0 1.592157 1_555
O5 V1 1.932109 1_555
O6 P1 1.592157 1_555
O6 V0 1.932109 1_656
O7 P1 1.592157 1_555
O7 V1 1.932109 1_566
O8 P2 1.618934 1_655
O8 V0 1.909270 1_655
O9 P2 1.618934 1_565
O9 V1 1.909270 1_565
O10 P3 1.618934 1_455
O10 V0 1.909270 1_556
O11 P3 1.618934 1_545
O11 V1 1.909270 1_556
O12 P2 1.511549 1_555
O13 P3 1.511549 1_555
O14 P2 1.503274 1_555
O15 P3 1.503274 1_555
O16 V1 1.848000 1_556
O16 V0 1.848000 1_556
O17 V0 1.848000 1_655
O17 V1 1.848000 1_565
