# generated using pymatgen
data_K2LiFeF6
_symmetry_space_group_name_H-M   'P 1'
_cell_length_a   5.77037900
_cell_length_b   5.77037942
_cell_length_c   5.77037949
_cell_angle_alpha   59.99999821
_cell_angle_beta   59.99999710
_cell_angle_gamma   59.99999668
_symmetry_Int_Tables_number   1
_chemical_formula_structural   K2LiFeF6
_chemical_formula_sum   'K2 Li1 Fe1 F6'
_cell_volume   135.86201790
_cell_formula_units_Z   1
loop_
 _symmetry_equiv_pos_site_id
 _symmetry_equiv_pos_as_xyz
  1  'x, y, z'
loop_
 _atom_site_type_symbol
 _atom_site_label
 _atom_site_symmetry_multiplicity
 _atom_site_fract_x
 _atom_site_fract_y
 _atom_site_fract_z
 _atom_site_occupancy
  K  K0  1  0.25000000  0.25000000  0.25000000  1
  K  K1  1  0.75000000  0.75000000  0.75000000  1
  Li  Li0  1  0.50000000  0.50000000  0.50000000  1
  Fe  Fe0  1  0.00000000  0.00000000  0.00000000  1
  F  F0  1  0.24164200  0.75835800  0.24164200  1
  F  F1  1  0.75835800  0.75835800  0.24164200  1
  F  F2  1  0.75835800  0.24164200  0.75835800  1
  F  F3  1  0.75835800  0.24164200  0.24164200  1
  F  F4  1  0.24164200  0.75835800  0.75835800  1
  F  F5  1  0.24164200  0.24164200  0.75835800  1
loop_
_geom_bond_atom_site_label_1
_geom_bond_atom_site_label_2
_geom_bond_distance
_geom_bond_site_symmetry_2
F0 Fe0 1.971931 1_565
F0 Li0 2.108343 1_555
F0 K1 2.885996 1_554
F0 K1 2.885996 1_455
F0 K0 2.885996 1_555
F0 K0 2.885996 1_565
F1 Fe0 1.971931 1_665
F1 Li0 2.108343 1_555
F1 K0 2.885996 1_565
F1 K0 2.885996 1_655
F1 K1 2.885996 1_555
F1 K1 2.885996 1_554
F2 Fe0 1.971931 1_656
F2 Li0 2.108343 1_555
F2 K0 2.885996 1_556
F2 K0 2.885996 1_655
F2 K1 2.885996 1_555
F2 K1 2.885996 1_545
F3 Fe0 1.971931 1_655
F3 Li0 2.108343 1_555
F3 K0 2.885996 1_555
F3 K0 2.885996 1_655
F3 K1 2.885996 1_554
F3 K1 2.885996 1_545
F4 Fe0 1.971931 1_566
F4 Li0 2.108343 1_555
F4 K1 2.885996 1_555
F4 K1 2.885996 1_455
F4 K0 2.885996 1_556
F4 K0 2.885996 1_565
F5 Fe0 1.971931 1_556
F5 Li0 2.108343 1_555
F5 K1 2.885996 1_545
F5 K1 2.885996 1_455
F5 K0 2.885996 1_555
F5 K0 2.885996 1_556
