# generated using pymatgen
data_TmGa3
_symmetry_space_group_name_H-M   'P 1'
_cell_length_a   6.17091456
_cell_length_b   6.17091456
_cell_length_c   4.47817121
_cell_angle_alpha   90.00000000
_cell_angle_beta   90.00000000
_cell_angle_gamma   120.00001029
_symmetry_Int_Tables_number   1
_chemical_formula_structural   TmGa3
_chemical_formula_sum   'Tm2 Ga6'
_cell_volume   147.68294593
_cell_formula_units_Z   2
loop_
 _symmetry_equiv_pos_site_id
 _symmetry_equiv_pos_as_xyz
  1  'x, y, z'
loop_
 _atom_site_type_symbol
 _atom_site_label
 _atom_site_symmetry_multiplicity
 _atom_site_fract_x
 _atom_site_fract_y
 _atom_site_fract_z
 _atom_site_occupancy
  Tm  Tm0  1  0.33333300  0.66666700  0.75000000  1
  Tm  Tm1  1  0.66666700  0.33333300  0.25000000  1
  Ga  Ga0  1  0.14777294  0.29554689  0.25000000  1
  Ga  Ga1  1  0.70445311  0.85222706  0.25000000  1
  Ga  Ga2  1  0.14777294  0.85222706  0.25000000  1
  Ga  Ga3  1  0.85222706  0.70445311  0.75000000  1
  Ga  Ga4  1  0.29554689  0.14777294  0.75000000  1
  Ga  Ga5  1  0.85222706  0.14777294  0.75000000  1
loop_
_geom_bond_atom_site_label_1
_geom_bond_atom_site_label_2
_geom_bond_distance
_geom_bond_site_symmetry_2
Ga0 Ga1 2.735688 1_445
Ga0 Ga2 2.735689 1_545
Ga0 Ga5 2.740102 1_455
Ga0 Ga5 2.740102 1_454
Ga0 Ga4 2.740108 1_555
Ga0 Ga4 2.740108 1_554
Ga0 Tm0 2.991170 1_555
Ga0 Tm0 2.991170 1_554
Ga0 Tm1 3.092052 1_455
Ga0 Tm1 3.092064 1_555
Ga1 Ga2 2.735689 1_655
Ga1 Ga5 2.740102 1_565
Ga1 Ga5 2.740102 1_564
Ga1 Ga3 2.740108 1_555
Ga1 Ga3 2.740108 1_554
Ga1 Tm0 2.991170 1_555
Ga1 Tm0 2.991170 1_554
Ga1 Tm1 3.092052 1_565
Ga1 Tm1 3.092064 1_555
Ga2 Ga3 2.740102 1_455
Ga2 Ga4 2.740102 1_565
Ga2 Ga3 2.740102 1_454
Ga2 Ga4 2.740102 1_564
Ga2 Tm0 2.991170 1_555
Ga2 Tm0 2.991170 1_554
Ga2 Tm1 3.092059 1_455
Ga2 Tm1 3.092059 1_565
Ga3 Ga4 2.735688 1_665
Ga3 Ga5 2.735689 1_565
Ga3 Tm1 2.991170 1_556
Ga3 Tm1 2.991170 1_555
Ga3 Tm0 3.092052 1_655
Ga3 Tm0 3.092064 1_555
Ga4 Ga5 2.735689 1_455
Ga4 Tm1 2.991170 1_556
Ga4 Tm1 2.991170 1_555
Ga4 Tm0 3.092052 1_545
Ga4 Tm0 3.092064 1_555
Ga5 Tm1 2.991170 1_555
Ga5 Tm1 2.991170 1_556
Ga5 Tm0 3.092059 1_545
Ga5 Tm0 3.092059 1_655
