# generated using pymatgen
data_VZnO3
_symmetry_space_group_name_H-M   'P 1'
_cell_length_a   5.15050600
_cell_length_b   5.15386400
_cell_length_c   7.64351200
_cell_angle_alpha   90.00000000
_cell_angle_beta   90.00000000
_cell_angle_gamma   90.00000000
_symmetry_Int_Tables_number   1
_chemical_formula_structural   VZnO3
_chemical_formula_sum   'V4 Zn4 O12'
_cell_volume   202.89708302
_cell_formula_units_Z   4
loop_
 _symmetry_equiv_pos_site_id
 _symmetry_equiv_pos_as_xyz
  1  'x, y, z'
loop_
 _atom_site_type_symbol
 _atom_site_label
 _atom_site_symmetry_multiplicity
 _atom_site_fract_x
 _atom_site_fract_y
 _atom_site_fract_z
 _atom_site_occupancy
  V  V0  1  0.00000000  0.00000000  0.50000000  1
  V  V1  1  0.50000000  0.50000000  0.50000000  1
  V  V2  1  0.50000000  0.50000000  0.00000000  1
  V  V3  1  0.00000000  0.00000000  0.00000000  1
  Zn  Zn0  1  0.96644200  0.49313600  0.75000000  1
  Zn  Zn1  1  0.53355800  0.99313600  0.25000000  1
  Zn  Zn2  1  0.46644200  0.00686400  0.75000000  1
  Zn  Zn3  1  0.03355800  0.50686400  0.25000000  1
  O  O0  1  0.42721400  0.61381100  0.25000000  1
  O  O1  1  0.07278600  0.11381100  0.75000000  1
  O  O2  1  0.92721400  0.88618900  0.25000000  1
  O  O3  1  0.57278600  0.38618900  0.75000000  1
  O  O4  1  0.69135000  0.82974700  0.93786500  1
  O  O5  1  0.80865000  0.32974700  0.06213500  1
  O  O6  1  0.19135000  0.67025300  0.56213500  1
  O  O7  1  0.30865000  0.17025300  0.43786500  1
  O  O8  1  0.69135000  0.82974700  0.56213500  1
  O  O9  1  0.80865000  0.32974700  0.43786500  1
  O  O10  1  0.30865000  0.17025300  0.06213500  1
  O  O11  1  0.19135000  0.67025300  0.93786500  1
loop_
_geom_bond_atom_site_label_1
_geom_bond_atom_site_label_2
_geom_bond_distance
_geom_bond_site_symmetry_2
O0 Zn1 2.030268 1_555
O0 V1 2.033729 1_555
O0 V2 2.033729 1_555
O0 Zn3 2.101114 1_555
O1 Zn0 2.030268 1_455
O1 V3 2.033729 1_556
O1 V0 2.033729 1_555
O1 Zn2 2.101114 1_555
O2 Zn3 2.030268 1_655
O2 V3 2.033729 1_665
O2 V0 2.033729 1_665
O2 Zn1 2.101114 1_555
O3 Zn2 2.030268 1_555
O3 V1 2.033729 1_555
O3 V2 2.033729 1_556
O3 Zn0 2.101114 1_555
O4 V3 1.876873 1_666
O4 V2 2.021155 1_556
O4 Zn2 2.058418 1_565
O5 V2 1.876873 1_555
O5 V3 2.021155 1_655
O5 Zn3 2.058418 1_655
O6 V1 1.876873 1_555
O6 V0 2.021155 1_565
O6 Zn0 2.058418 1_455
O7 V0 1.876873 1_555
O7 V1 2.021155 1_555
O7 Zn1 2.058418 1_545
O8 V0 1.876873 1_665
O8 V1 2.021155 1_555
O8 Zn2 2.058418 1_565
O9 V1 1.876873 1_555
O9 V0 2.021155 1_655
O9 Zn3 2.058418 1_655
O10 V3 1.876873 1_555
O10 V2 2.021155 1_555
O10 Zn1 2.058418 1_545
O11 V2 1.876873 1_556
O11 V3 2.021155 1_566
O11 Zn0 2.058418 1_455
