# generated using pymatgen
data_Ta4SeS
_symmetry_space_group_name_H-M   'P 1'
_cell_length_a   3.36288200
_cell_length_b   3.36288200
_cell_length_c   9.80884300
_cell_angle_alpha   90.00000000
_cell_angle_beta   90.00000000
_cell_angle_gamma   90.00000000
_symmetry_Int_Tables_number   1
_chemical_formula_structural   Ta4SeS
_chemical_formula_sum   'Ta4 Se1 S1'
_cell_volume   110.92796366
_cell_formula_units_Z   1
loop_
 _symmetry_equiv_pos_site_id
 _symmetry_equiv_pos_as_xyz
  1  'x, y, z'
loop_
 _atom_site_type_symbol
 _atom_site_label
 _atom_site_symmetry_multiplicity
 _atom_site_fract_x
 _atom_site_fract_y
 _atom_site_fract_z
 _atom_site_occupancy
  Ta  Ta0  1  0.50000000  0.50000000  0.24332700  1
  Ta  Ta1  1  0.00000000  0.00000000  0.74408300  1
  Ta  Ta2  1  0.50000000  0.50000000  0.91825500  1
  Ta  Ta3  1  0.00000000  0.00000000  0.07552000  1
  Se  Se0  1  0.00000000  0.00000000  0.37209800  1
  S  S0  1  0.50000000  0.50000000  0.64671600  1
loop_
_geom_bond_atom_site_label_1
_geom_bond_atom_site_label_2
_geom_bond_distance
_geom_bond_site_symmetry_2
Se0 Ta0 2.692563 1_445
Se0 Ta0 2.692563 1_455
Se0 Ta0 2.692563 1_545
Se0 Ta0 2.692563 1_555
Se0 Ta3 2.909087 1_555
S0 Ta1 2.562542 1_655
S0 Ta1 2.562542 1_665
S0 Ta1 2.562542 1_555
S0 Ta1 2.562542 1_565
S0 Ta2 2.663483 1_555
