# generated using pymatgen
data_Li4Co3NiO8
_symmetry_space_group_name_H-M   'P 1'
_cell_length_a   5.85834899
_cell_length_b   5.85208908
_cell_length_c   8.19032615
_cell_angle_alpha   90.39912405
_cell_angle_beta   90.26613326
_cell_angle_gamma   91.03020112
_symmetry_Int_Tables_number   1
_chemical_formula_structural   Li4Co3NiO8
_chemical_formula_sum   'Li8 Co6 Ni2 O16'
_cell_volume   280.73830812
_cell_formula_units_Z   2
loop_
 _symmetry_equiv_pos_site_id
 _symmetry_equiv_pos_as_xyz
  1  'x, y, z'
loop_
 _atom_site_type_symbol
 _atom_site_label
 _atom_site_symmetry_multiplicity
 _atom_site_fract_x
 _atom_site_fract_y
 _atom_site_fract_z
 _atom_site_occupancy
  Li  Li0  1  0.00098900  0.99648700  0.50231600  1
  Li  Li1  1  0.49731800  0.50420000  0.99800300  1
  Li  Li2  1  0.25000100  0.75136400  0.24954000  1
  Li  Li3  1  0.74944800  0.24865700  0.75000400  1
  Li  Li4  1  0.49285700  0.00013300  0.50415800  1
  Li  Li5  1  0.00486400  0.50511000  0.99596100  1
  Li  Li6  1  0.25117700  0.24854300  0.75163500  1
  Li  Li7  1  0.75107400  0.74882000  0.24643400  1
  Co  Co0  1  0.00610200  0.49919400  0.50062800  1
  Co  Co1  1  0.49235800  0.99535300  0.99626000  1
  Co  Co2  1  0.25042500  0.74916600  0.74782500  1
  Co  Co3  1  0.24716600  0.25268500  0.25111200  1
  Co  Co4  1  0.75214700  0.74915500  0.75092100  1
  Co  Co5  1  0.74794000  0.25020300  0.24651100  1
  Ni  Ni0  1  0.50362300  0.49967100  0.50069700  1
  Ni  Ni1  1  0.99973100  0.99872300  0.00056600  1
  O  O0  1  0.01240400  0.48557200  0.26188400  1
  O  O1  1  0.48365600  0.99506200  0.74818600  1
  O  O2  1  0.02021400  0.50311900  0.73500800  1
  O  O3  1  0.48213600  0.02087500  0.25340300  1
  O  O4  1  0.23274100  0.26953700  0.48368100  1
  O  O5  1  0.74222000  0.75821100  0.98896600  1
  O  O6  1  0.23620000  0.72681000  0.51317000  1
  O  O7  1  0.73590300  0.23698600  0.01204800  1
  O  O8  1  0.00030300  0.96525100  0.75212600  1
  O  O9  1  0.48619700  0.47727500  0.25354700  1
  O  O10  1  0.01188200  0.02560000  0.25094600  1
  O  O11  1  0.50167400  0.53384800  0.74592300  1
  O  O12  1  0.77011500  0.26910500  0.49054200  1
  O  O13  1  0.25752100  0.76425100  0.98633200  1
  O  O14  1  0.77654000  0.72323700  0.50976400  1
  O  O15  1  0.25308800  0.24780000  0.02190300  1
loop_
_geom_bond_atom_site_label_1
_geom_bond_atom_site_label_2
_geom_bond_distance
_geom_bond_site_symmetry_2
Li0 O14 2.053350 1_455
Li0 O8 2.055459 1_555
Li0 O10 2.068207 1_565
Li0 O4 2.085003 1_565
Li0 O12 2.112449 1_465
Li0 O6 2.115725 1_555
Li1 O5 2.049244 1_555
Li1 O15 2.065523 1_556
Li1 O11 2.073336 1_555
Li1 O13 2.091961 1_555
Li1 O9 2.101230 1_556
Li1 O7 2.119385 1_556
Li2 O3 2.063916 1_565
Li2 O0 2.071887 1_555
Li2 O9 2.137445 1_555
Li2 O10 2.145242 1_565
Li2 O13 2.158230 1_554
Li2 O6 2.166777 1_555
Li3 O1 2.131574 1_545
Li3 O12 2.133155 1_555
Li3 O7 2.149576 1_556
Li3 O2 2.160599 1_655
Li3 O11 2.231811 1_555
Li3 O8 2.235733 1_645
Li4 O1 2.000058 1_545
Li4 O3 2.058927 1_555
Li4 O6 2.177349 1_545
Li4 O4 2.218905 1_555
Li4 O12 2.245111 1_555
Li4 O14 2.342433 1_545
Li5 O13 2.102125 1_555
Li5 O15 2.123101 1_556
Li5 O2 2.139558 1_555
Li5 O5 2.155675 1_455
Li5 O0 2.182074 1_556
Li5 O7 2.208625 1_456
Li6 O1 2.031887 1_545
Li6 O2 2.035296 1_555
Li6 O8 2.195690 1_545
Li6 O4 2.201180 1_555
Li6 O11 2.203866 1_555
Li6 O15 2.213594 1_556
Li7 O5 2.110267 1_554
Li7 O14 2.167624 1_555
Li7 O0 2.195195 1_655
Li7 O9 2.202274 1_555
Li7 O10 2.206597 1_665
Li7 O3 2.260549 1_565
Co0 O6 1.879942 1_555
Co0 O14 1.896375 1_455
Co0 O4 1.910936 1_555
Co0 O12 1.913539 1_455
Co0 O2 1.921004 1_555
Co0 O0 1.957007 1_555
Co1 O13 1.912827 1_555
Co1 O7 1.993777 1_566
Co1 O1 2.032198 1_555
Co1 O5 2.035889 1_555
Co1 O15 2.065034 1_566
Co1 O3 2.111539 1_566
Co2 O6 1.926754 1_555
Co2 O8 1.952927 1_555
Co2 O11 1.954771 1_555
Co2 O13 1.955045 1_555
Co2 O2 1.957019 1_555
Co2 O1 1.966432 1_555
Co3 O15 1.877806 1_555
Co3 O10 1.897378 1_555
Co3 O9 1.903141 1_555
Co3 O4 1.909023 1_555
Co3 O3 1.950066 1_555
Co3 O0 1.955394 1_555
Co4 O8 1.909559 1_655
Co4 O11 1.916936 1_555
Co4 O5 1.951183 1_555
Co4 O14 1.985923 1_555
Co4 O1 2.151046 1_555
Co4 O2 2.153353 1_655
Co5 O7 1.922262 1_555
Co5 O12 2.004465 1_555
Co5 O3 2.038576 1_555
Co5 O10 2.047710 1_655
Co5 O9 2.047788 1_555
Co5 O0 2.057309 1_655
Ni0 O11 2.017133 1_555
Ni0 O9 2.029543 1_555
Ni0 O14 2.048380 1_555
Ni0 O4 2.066397 1_555
Ni0 O6 2.075139 1_555
Ni0 O12 2.083328 1_555
Ni1 O8 2.042877 1_654
Ni1 O5 2.046062 1_554
Ni1 O10 2.056429 1_665
Ni1 O13 2.061817 1_654
Ni1 O15 2.067475 1_665
Ni1 O7 2.102119 1_565
