# generated using pymatgen
data_Li6Zn3(PS4)4
_symmetry_space_group_name_H-M   'P 1'
_cell_length_a   9.31773450
_cell_length_b   11.59480808
_cell_length_c   23.12481400
_cell_angle_alpha   89.97474793
_cell_angle_beta   90.02503958
_cell_angle_gamma   90.08508889
_symmetry_Int_Tables_number   1
_chemical_formula_structural   Li6Zn3(PS4)4
_chemical_formula_sum   'Li24 Zn12 P16 S64'
_cell_volume   2498.34023129
_cell_formula_units_Z   4
loop_
 _symmetry_equiv_pos_site_id
 _symmetry_equiv_pos_as_xyz
  1  'x, y, z'
loop_
 _atom_site_type_symbol
 _atom_site_label
 _atom_site_symmetry_multiplicity
 _atom_site_fract_x
 _atom_site_fract_y
 _atom_site_fract_z
 _atom_site_occupancy
  Li  Li0  1  0.74237763  0.49581010  0.87263687  1
  Li  Li1  1  0.74941495  0.00141785  0.87706195  1
  Li  Li2  1  0.24472726  0.74600927  0.75225210  1
  Li  Li3  1  0.25111319  0.75462552  0.99624977  1
  Li  Li4  1  0.50179470  0.49930356  0.25011496  1
  Li  Li5  1  0.50390475  0.99833259  0.25122751  1
  Li  Li6  1  0.50432658  0.50142617  0.49926705  1
  Li  Li7  1  0.50434455  0.00237563  0.49859791  1
  Li  Li8  1  0.00154049  0.75009709  0.37520740  1
  Li  Li9  1  0.00114165  0.24975507  0.37497560  1
  Li  Li10  1  0.49504981  0.49807383  0.74900151  1
  Li  Li11  1  0.99708782  0.74866486  0.62232936  1
  Li  Li12  1  0.00285119  0.25216437  0.62554752  1
  Li  Li13  1  0.49674842  0.49705844  0.00086786  1
  Li  Li14  1  0.50321779  0.00094547  0.00277965  1
  Li  Li15  1  0.99477432  0.75076422  0.87522746  1
  Li  Li16  1  0.00820969  0.25036361  0.87448708  1
  Li  Li17  1  0.99658637  0.75037323  0.12801020  1
  Li  Li18  1  0.00441341  0.24728538  0.12447354  1
  Li  Li19  1  0.48332898  0.25031661  0.87486298  1
  Li  Li20  1  0.50092477  0.75146189  0.87505402  1
  Li  Li21  1  0.99465459  0.49687817  0.74944825  1
  Li  Li22  1  0.99944843  0.00247439  0.74891489  1
  Li  Li23  1  0.00190827  0.00195668  0.99942834  1
  Zn  Zn0  1  0.49752864  0.00142412  0.74885623  1
  Zn  Zn1  1  0.50067697  0.24907786  0.12470963  1
  Zn  Zn2  1  0.50517322  0.74922409  0.12598176  1
  Zn  Zn3  1  0.49943434  0.25026043  0.37481858  1
  Zn  Zn4  1  0.49846881  0.74992742  0.37503840  1
  Zn  Zn5  1  0.99913119  0.50045163  0.25077827  1
  Zn  Zn6  1  0.99969980  0.99962817  0.24956015  1
  Zn  Zn7  1  0.50392198  0.25205909  0.62479964  1
  Zn  Zn8  1  0.50239188  0.75016630  0.62390152  1
  Zn  Zn9  1  0.99988328  0.50048318  0.50024970  1
  Zn  Zn10  1  0.00116669  0.00068423  0.50026604  1
  Zn  Zn11  1  0.99913660  0.49715127  0.00022385  1
  P  P0  1  0.75040120  0.24985215  0.24992404  1
  P  P1  1  0.75024686  0.74953576  0.25063222  1
  P  P2  1  0.75086015  0.25059333  0.50018818  1
  P  P3  1  0.75080056  0.75085620  0.49976943  1
  P  P4  1  0.24990913  0.49992378  0.37506669  1
  P  P5  1  0.24972975  0.00028442  0.37508924  1
  P  P6  1  0.74963246  0.24431628  0.74803566  1
  P  P7  1  0.75019197  0.74827577  0.75220824  1
  P  P8  1  0.24813369  0.49606217  0.62439012  1
  P  P9  1  0.25243180  0.99063013  0.62465292  1
  P  P10  1  0.74936286  0.25587712  0.99733383  1
  P  P11  1  0.75060592  0.75253840  0.00206761  1
  P  P12  1  0.24897303  0.50892747  0.87573540  1
  P  P13  1  0.24949569  0.00020195  0.87445879  1
  P  P14  1  0.25217189  0.50105016  0.12543600  1
  P  P15  1  0.24876064  0.00317146  0.12561755  1
  S  S0  1  0.86769842  0.36026572  0.05216699  1
  S  S1  1  0.87573012  0.85335528  0.05213789  1
  S  S2  1  0.86494167  0.36104692  0.30239194  1
  S  S3  1  0.86509682  0.86100882  0.30257375  1
  S  S4  1  0.36500282  0.61262516  0.17773982  1
  S  S5  1  0.37414090  0.10702087  0.17773061  1
  S  S6  1  0.86447847  0.36208382  0.55249896  1
  S  S7  1  0.86313365  0.86344721  0.55203122  1
  S  S8  1  0.36412383  0.61139447  0.42737880  1
  S  S9  1  0.36369303  0.11227554  0.42727473  1
  S  S10  1  0.86173568  0.35110487  0.80290404  1
  S  S11  1  0.86508424  0.85969386  0.80361064  1
  S  S12  1  0.36897123  0.61108866  0.67611287  1
  S  S13  1  0.36519014  0.10701231  0.67767377  1
  S  S14  1  0.37052071  0.61219877  0.92965601  1
  S  S15  1  0.37619151  0.09656561  0.92652845  1
  S  S16  1  0.63463260  0.64573625  0.30621640  1
  S  S17  1  0.63667616  0.14592311  0.30621416  1
  S  S18  1  0.63947935  0.64561563  0.55620190  1
  S  S19  1  0.63646368  0.14577361  0.55578936  1
  S  S20  1  0.13605023  0.89594488  0.43117445  1
  S  S21  1  0.13493461  0.39595274  0.43071056  1
  S  S22  1  0.62409852  0.64368322  0.80299292  1
  S  S23  1  0.62392691  0.13949366  0.80289850  1
  S  S24  1  0.13273493  0.88947843  0.67844952  1
  S  S25  1  0.13896723  0.39502081  0.67964614  1
  S  S26  1  0.62916653  0.64513393  0.05428470  1
  S  S27  1  0.63597414  0.15086143  0.05365533  1
  S  S28  1  0.13058917  0.89076361  0.92650650  1
  S  S29  1  0.12943117  0.40072308  0.92877111  1
  S  S30  1  0.13840411  0.89570594  0.18170526  1
  S  S31  1  0.13338510  0.39854472  0.18010408  1
  S  S32  1  0.86425508  0.13852880  0.19765524  1
  S  S33  1  0.86213609  0.63683937  0.19844133  1
  S  S34  1  0.86602665  0.13906805  0.44829469  1
  S  S35  1  0.86472118  0.63917933  0.44774540  1
  S  S36  1  0.36379676  0.38861658  0.32268009  1
  S  S37  1  0.36360564  0.88852543  0.32300194  1
  S  S38  1  0.86514405  0.14184420  0.69562384  1
  S  S39  1  0.86767793  0.64916433  0.69839515  1
  S  S40  1  0.37192438  0.39138422  0.57210331  1
  S  S41  1  0.37226541  0.88784251  0.57082300  1
  S  S42  1  0.86864282  0.14675208  0.94654193  1
  S  S43  1  0.86572114  0.63855351  0.94825313  1
  S  S44  1  0.36555346  0.40272773  0.82469097  1
  S  S45  1  0.37072304  0.89158100  0.81843222  1
  S  S46  1  0.36225351  0.38867190  0.07317334  1
  S  S47  1  0.36911819  0.88809426  0.07406758  1
  S  S48  1  0.63621691  0.35417975  0.19417713  1
  S  S49  1  0.63815394  0.85463925  0.19461791  1
  S  S50  1  0.63701935  0.35410476  0.44386421  1
  S  S51  1  0.63553257  0.85405540  0.44386283  1
  S  S52  1  0.13637526  0.60478271  0.31924335  1
  S  S53  1  0.13515346  0.10399861  0.31926168  1
  S  S54  1  0.62741745  0.35265343  0.69688402  1
  S  S55  1  0.62936097  0.85740798  0.69676763  1
  S  S56  1  0.13862694  0.60392108  0.56836810  1
  S  S57  1  0.13921219  0.10014656  0.57130995  1
  S  S58  1  0.62554175  0.35782891  0.94486046  1
  S  S59  1  0.63111206  0.85517171  0.94778386  1
  S  S60  1  0.12267554  0.60962468  0.82235326  1
  S  S61  1  0.13051773  0.10240513  0.82244221  1
  S  S62  1  0.13097026  0.60595717  0.07017672  1
  S  S63  1  0.13968902  0.10463926  0.07055769  1
loop_
_geom_bond_atom_site_label_1
_geom_bond_atom_site_label_2
_geom_bond_distance
_geom_bond_site_symmetry_2
Li0 S58 2.555035 1_555
Li0 S10 2.581051 1_555
Li0 S22 2.598014 1_555
Li0 S43 2.667009 1_555
Li1 S42 2.578876 1_555
Li1 S11 2.599288 1_545
Li1 S59 2.599749 1_545
Li1 S23 2.621627 1_555
Li2 S60 2.532963 1_555
Li2 S45 2.562059 1_555
Li2 S24 2.601916 1_555
Li2 S12 2.626244 1_555
Li3 S14 2.519078 1_555
Li3 S28 2.520984 1_555
Li3 S47 2.614925 1_556
Li3 S62 2.672172 1_556
Li4 S48 2.466389 1_555
Li4 S16 2.468222 1_555
Li4 S36 2.472127 1_555
Li4 S4 2.480593 1_555
Li5 S5 2.437125 1_565
Li5 S49 2.462494 1_555
Li5 S17 2.463755 1_565
Li5 S37 2.465746 1_555
Li6 S40 2.445842 1_555
Li6 S8 2.469241 1_555
Li6 S50 2.469313 1_555
Li6 S18 2.471569 1_555
Li7 S19 2.454285 1_555
Li7 S41 2.462246 1_545
Li7 S9 2.462283 1_555
Li7 S51 2.462383 1_545
Li8 S35 2.467402 1_455
Li8 S3 2.468277 1_455
Li8 S20 2.469779 1_555
Li8 S52 2.470175 1_555
Li9 S21 2.466377 1_555
Li9 S53 2.466755 1_555
Li9 S2 2.468624 1_455
Li9 S34 2.470209 1_455
Li10 S44 2.395377 1_555
Li10 S54 2.413709 1_555
Li10 S22 2.418602 1_555
Li10 S12 2.437030 1_555
Li11 S39 2.423842 1_555
Li11 S24 2.437569 1_655
Li11 S7 2.443982 1_555
Li11 S56 2.474446 1_655
Li12 S38 2.429761 1_455
Li12 S25 2.431349 1_555
Li12 S6 2.478160 1_455
Li12 S57 2.510832 1_555
Li13 S58 2.394293 1_554
Li13 S14 2.424562 1_554
Li13 S46 2.437393 1_555
Li13 S26 2.447493 1_555
Li14 S15 2.395761 1_554
Li14 S59 2.429722 1_544
Li14 S27 2.435142 1_555
Li14 S47 2.446643 1_545
Li15 S60 2.366895 1_655
Li15 S28 2.374215 1_655
Li15 S11 2.408149 1_555
Li15 S43 2.446557 1_555
Li16 S61 2.387296 1_555
Li16 S29 2.426074 1_555
Li16 S42 2.430291 1_455
Li16 S10 2.443014 1_455
Li17 S1 2.402643 1_555
Li17 S33 2.439270 1_555
Li17 S30 2.474129 1_655
Li17 S62 2.483955 1_655
Li18 S63 2.426563 1_555
Li18 S0 2.477058 1_455
Li18 S32 2.480879 1_455
Li18 S31 2.483819 1_555
Li19 S15 2.365575 1_555
Li19 S44 2.382468 1_555
Li19 S58 2.434129 1_555
Li19 S23 2.479038 1_555
Li20 S22 2.379822 1_555
Li20 S14 2.381549 1_555
Li20 S59 2.396210 1_555
Li20 S45 2.414199 1_555
Li21 S25 2.411792 1_655
Li21 S10 2.431475 1_555
Li21 S39 2.431986 1_555
Li21 S60 2.443308 1_655
Li22 S38 2.387249 1_555
Li22 S61 2.391817 1_655
Li22 S11 2.429265 1_545
Li22 S24 2.433654 1_645
Li23 S63 2.401360 1_556
Li23 S1 2.414560 1_446
Li23 S42 2.420594 1_455
Li23 S28 2.439617 1_545
P0 S48 2.063580 1_555
P0 S32 2.063747 1_555
P0 S17 2.065295 1_555
P0 S2 2.066294 1_555
P1 S3 2.062681 1_555
P1 S49 2.062780 1_555
P1 S16 2.063292 1_555
P1 S33 2.063376 1_555
P2 S6 2.061889 1_555
P2 S19 2.064572 1_555
P2 S50 2.064773 1_555
P2 S34 2.066482 1_555
P3 S7 2.063158 1_555
P3 S35 2.063330 1_555
P3 S51 2.063491 1_555
P3 S18 2.064928 1_555
P4 S21 2.062211 1_555
P4 S8 2.064616 1_555
P4 S52 2.065188 1_555
P4 S36 2.065390 1_555
P5 S53 2.062473 1_555
P5 S37 2.064567 1_545
P5 S20 2.064874 1_545
P5 S9 2.065482 1_555
P6 S38 2.011295 1_555
P6 S10 2.056817 1_555
P6 S54 2.067764 1_555
P6 S23 2.110547 1_555
P7 S39 2.018353 1_555
P7 S11 2.055249 1_555
P7 S22 2.055728 1_555
P7 S55 2.124604 1_555
P8 S25 2.009034 1_555
P8 S40 2.066933 1_555
P8 S56 2.069941 1_555
P8 S12 2.114918 1_555
P9 S24 2.040370 1_555
P9 S41 2.055033 1_555
P9 S57 2.061180 1_565
P9 S13 2.103394 1_565
P10 S58 2.049995 1_555
P10 S42 2.054848 1_555
P10 S0 2.069967 1_556
P10 S27 2.071516 1_556
P11 S1 2.015522 1_555
P11 S59 2.057425 1_554
P11 S26 2.070025 1_555
P11 S43 2.110141 1_554
P12 S44 2.023842 1_555
P12 S14 2.065740 1_555
P12 S60 2.067243 1_555
P12 S29 2.077155 1_555
P13 S61 2.020316 1_555
P13 S15 2.021858 1_555
P13 S28 2.069290 1_545
P13 S45 2.132518 1_545
P14 S46 2.053527 1_555
P14 S31 2.057141 1_555
P14 S4 2.058661 1_555
P14 S62 2.095071 1_555
P15 S63 2.009796 1_555
P15 S5 2.064672 1_555
P15 S30 2.070787 1_545
P15 S47 2.113315 1_545
S0 Zn11 2.335731 1_555
S2 Zn5 2.365204 1_555
S3 Zn6 2.377568 1_555
S4 Zn2 2.374968 1_555
S5 Zn1 2.366467 1_555
S6 Zn9 2.370738 1_555
S7 Zn10 2.369129 1_665
S8 Zn4 2.367631 1_555
S9 Zn3 2.371605 1_555
S12 Zn8 2.365862 1_555
S13 Zn0 2.393719 1_555
S13 Zn7 2.446941 1_555
S16 Zn4 2.368547 1_555
S17 Zn3 2.371447 1_555
S18 Zn8 2.357983 1_555
S19 Zn7 2.366140 1_555
S20 Zn10 2.369632 1_565
S21 Zn9 2.376217 1_455
S23 Zn0 2.346615 1_555
S26 Zn2 2.355399 1_555
S27 Zn1 2.365100 1_555
S29 Zn11 2.337007 1_456
S30 Zn6 2.364844 1_455
S31 Zn5 2.374852 1_455
S32 Zn6 2.372813 1_545
S33 Zn5 2.365998 1_555
S34 Zn10 2.368012 1_655
S35 Zn9 2.376844 1_555
S36 Zn3 2.372227 1_555
S37 Zn4 2.369088 1_555
S40 Zn7 2.368585 1_555
S41 Zn8 2.351104 1_555
S43 Zn11 2.383443 1_556
S45 Zn0 2.366890 1_565
S46 Zn1 2.388888 1_555
S47 Zn2 2.375716 1_555
S48 Zn1 2.378241 1_555
S49 Zn2 2.354559 1_555
S50 Zn3 2.374424 1_555
S51 Zn4 2.370042 1_555
S52 Zn5 2.366578 1_455
S53 Zn6 2.377150 1_445
S54 Zn7 2.336506 1_555
S55 Zn0 2.399448 1_565
S55 Zn8 2.404332 1_555
S56 Zn9 2.363537 1_455
S57 Zn10 2.383051 1_555
S62 Zn11 2.390142 1_455
