# generated using pymatgen
data_Li3(NiO2)5
_symmetry_space_group_name_H-M   'P 1'
_cell_length_a   6.51078387
_cell_length_b   7.49192101
_cell_length_c   7.69711912
_cell_angle_alpha   110.10538866
_cell_angle_beta   93.06487911
_cell_angle_gamma   75.94084657
_symmetry_Int_Tables_number   1
_chemical_formula_structural   Li3(NiO2)5
_chemical_formula_sum   'Li6 Ni10 O20'
_cell_volume   341.82572975
_cell_formula_units_Z   2
loop_
 _symmetry_equiv_pos_site_id
 _symmetry_equiv_pos_as_xyz
  1  'x, y, z'
loop_
 _atom_site_type_symbol
 _atom_site_label
 _atom_site_symmetry_multiplicity
 _atom_site_fract_x
 _atom_site_fract_y
 _atom_site_fract_z
 _atom_site_occupancy
  Li  Li0  1  0.45137000  0.84840000  0.05042300  1
  Li  Li1  1  0.95127900  0.34860600  0.55048500  1
  Li  Li2  1  0.05223300  0.64540800  0.45086900  1
  Li  Li3  1  0.55226700  0.14549200  0.95079700  1
  Li  Li4  1  0.84568600  0.05111800  0.64693400  1
  Li  Li5  1  0.34570600  0.55120700  0.14698700  1
  Ni  Ni0  1  0.20031100  0.60250100  0.79910300  1
  Ni  Ni1  1  0.70046700  0.10260500  0.29913500  1
  Ni  Ni2  1  0.00518800  0.00036200  0.00459200  1
  Ni  Ni3  1  0.50520200  0.50032900  0.50462500  1
  Ni  Ni4  1  0.89263800  0.69985500  0.09298800  1
  Ni  Ni5  1  0.39238900  0.19975200  0.59274300  1
  Ni  Ni6  1  0.80130100  0.39906800  0.19988800  1
  Ni  Ni7  1  0.30101200  0.89891500  0.69972300  1
  Ni  Ni8  1  0.59969500  0.80003600  0.40191100  1
  Ni  Ni9  1  0.09984000  0.29994500  0.90180800  1
  O  O0  1  0.85271700  0.22435100  0.94852400  1
  O  O1  1  0.35266800  0.72414000  0.44834800  1
  O  O2  1  0.05377300  0.46388300  0.15541500  1
  O  O3  1  0.55346500  0.96385500  0.65538400  1
  O  O4  1  0.76281700  0.56950000  0.44653100  1
  O  O5  1  0.26269800  0.06929600  0.94631700  1
  O  O6  1  0.63048300  0.62577100  0.15620700  1
  O  O7  1  0.13032300  0.12569400  0.65612600  1
  O  O8  1  0.05960400  0.81911300  0.72864000  1
  O  O9  1  0.55986900  0.31926000  0.22880300  1
  O  O10  1  0.83738900  0.88456800  0.37304200  1
  O  O11  1  0.33745200  0.38455700  0.87293000  1
  O  O12  1  0.44128600  0.68855400  0.77198000  1
  O  O13  1  0.94145300  0.18869000  0.27214600  1
  O  O14  1  0.46240000  0.00897700  0.32672300  1
  O  O15  1  0.96233500  0.50901300  0.82682900  1
  O  O16  1  0.73813800  0.94618800  0.05023400  1
  O  O17  1  0.23790200  0.44611400  0.55015900  1
  O  O18  1  0.66327000  0.27243000  0.54635900  1
  O  O19  1  0.16337800  0.77244900  0.04629200  1
loop_
_geom_bond_atom_site_label_1
_geom_bond_atom_site_label_2
_geom_bond_distance
_geom_bond_site_symmetry_2
Li0 O14 2.059620 1_565
Li0 O12 2.071331 1_554
Li0 O19 2.083309 1_555
Li0 O16 2.165256 1_555
Li0 O6 2.166102 1_555
Li0 O5 2.169942 1_564
Li1 O15 2.059620 1_555
Li1 O13 2.070588 1_555
Li1 O18 2.084241 1_555
Li1 O17 2.163387 1_655
Li1 O7 2.166910 1_655
Li1 O4 2.168734 1_555
Li2 O17 2.020770 1_555
Li2 O8 2.091311 1_555
Li2 O4 2.091905 1_455
Li2 O1 2.178761 1_555
Li2 O2 2.211538 1_555
Li2 O10 2.226333 1_455
Li3 O16 2.022028 1_546
Li3 O9 2.093082 1_556
Li3 O5 2.093778 1_555
Li3 O0 2.179037 1_555
Li3 O3 2.211700 1_545
Li3 O11 2.225882 1_555
Li4 O7 2.052661 1_655
Li4 O10 2.053381 1_545
Li4 O18 2.141582 1_555
Li4 O3 2.167549 1_545
Li4 O8 2.199599 1_645
Li4 O0 2.240871 1_555
Li5 O6 2.053476 1_555
Li5 O11 2.054580 1_554
Li5 O19 2.141535 1_555
Li5 O2 2.165972 1_555
Li5 O9 2.200403 1_555
Li5 O1 2.238838 1_555
Ni0 O17 1.863237 1_555
Ni0 O19 1.879816 1_556
Ni0 O12 1.881430 1_555
Ni0 O8 1.896496 1_555
Ni0 O15 1.897934 1_455
Ni0 O11 1.913526 1_555
Ni1 O16 1.863038 1_545
Ni1 O18 1.879785 1_555
Ni1 O13 1.881354 1_555
Ni1 O9 1.896023 1_555
Ni1 O14 1.898809 1_555
Ni1 O10 1.914115 1_545
Ni2 O19 1.888489 1_545
Ni2 O0 1.905381 1_454
Ni2 O16 1.953828 1_445
Ni2 O5 1.984751 1_554
Ni2 O13 2.052640 1_455
Ni2 O8 2.084414 1_544
Ni3 O18 1.888268 1_555
Ni3 O1 1.905200 1_555
Ni3 O17 1.955275 1_555
Ni3 O4 1.985842 1_555
Ni3 O12 2.051328 1_555
Ni3 O9 2.083368 1_555
Ni4 O16 2.001563 1_555
Ni4 O2 2.021372 1_655
Ni4 O6 2.047654 1_555
Ni4 O19 2.049418 1_655
Ni4 O15 2.053680 1_554
Ni4 O10 2.116915 1_555
Ni5 O17 2.001132 1_555
Ni5 O3 2.021634 1_545
Ni5 O7 2.047492 1_555
Ni5 O18 2.049863 1_555
Ni5 O14 2.052922 1_555
Ni5 O11 2.117786 1_555
Ni6 O9 1.861041 1_555
Ni6 O13 1.864359 1_555
Ni6 O4 1.877802 1_555
Ni6 O2 1.901914 1_655
Ni6 O6 1.915598 1_555
Ni6 O0 1.919392 1_554
Ni7 O8 1.860874 1_555
Ni7 O12 1.864462 1_555
Ni7 O5 1.877367 1_565
Ni7 O3 1.901969 1_555
Ni7 O7 1.915468 1_565
Ni7 O1 1.919684 1_555
Ni8 O10 1.858799 1_555
Ni8 O14 1.863339 1_565
Ni8 O6 1.880765 1_555
Ni8 O3 1.907997 1_555
Ni8 O1 1.919202 1_555
Ni8 O4 1.925249 1_555
Ni9 O11 1.858677 1_555
Ni9 O15 1.863561 1_455
Ni9 O7 1.880618 1_555
Ni9 O2 1.908999 1_556
Ni9 O0 1.919218 1_455
Ni9 O5 1.925001 1_555
