# generated using pymatgen
data_Tb6FeSb2
_symmetry_space_group_name_H-M   'P 1'
_cell_length_a   8.27211275
_cell_length_b   8.27211275
_cell_length_c   4.15384900
_cell_angle_alpha   90.00000000
_cell_angle_beta   90.00000000
_cell_angle_gamma   120.00000599
_symmetry_Int_Tables_number   1
_chemical_formula_structural   Tb6FeSb2
_chemical_formula_sum   'Tb6 Fe1 Sb2'
_cell_volume   246.15813964
_cell_formula_units_Z   1
loop_
 _symmetry_equiv_pos_site_id
 _symmetry_equiv_pos_as_xyz
  1  'x, y, z'
loop_
 _atom_site_type_symbol
 _atom_site_label
 _atom_site_symmetry_multiplicity
 _atom_site_fract_x
 _atom_site_fract_y
 _atom_site_fract_z
 _atom_site_occupancy
  Tb  Tb0  1  0.23470400  0.00000000  0.00000000  1
  Tb  Tb1  1  0.76529600  0.76529600  0.00000000  1
  Tb  Tb2  1  0.00000000  0.23470400  0.00000000  1
  Tb  Tb3  1  0.59945300  0.00000000  0.50000000  1
  Tb  Tb4  1  0.40054700  0.40054700  0.50000000  1
  Tb  Tb5  1  0.00000000  0.59945300  0.50000000  1
  Fe  Fe0  1  0.00000000  0.00000000  0.50000000  1
  Sb  Sb0  1  0.33333300  0.66666700  0.00000000  1
  Sb  Sb1  1  0.66666700  0.33333300  0.00000000  1
loop_
_geom_bond_atom_site_label_1
_geom_bond_atom_site_label_2
_geom_bond_distance
_geom_bond_site_symmetry_2
Fe0 Tb1 2.843067 1_446
Fe0 Tb1 2.843067 1_445
Fe0 Tb0 2.843067 1_556
Fe0 Tb2 2.843067 1_555
Fe0 Tb2 2.843067 1_556
Fe0 Tb0 2.843067 1_555
Fe0 Tb4 3.313370 1_555
Fe0 Tb5 3.313370 1_545
Fe0 Tb3 3.313370 1_455
Sb0 Tb0 3.243205 1_565
Sb0 Tb2 3.243210 1_555
Sb0 Tb1 3.243213 1_555
Sb0 Tb5 3.269974 1_555
Sb0 Tb5 3.269974 1_554
Sb0 Tb3 3.269976 1_565
Sb0 Tb3 3.269976 1_564
Sb0 Tb4 3.269980 1_555
Sb0 Tb4 3.269980 1_554
Sb1 Tb2 3.243205 1_655
Sb1 Tb0 3.243210 1_555
Sb1 Tb1 3.243213 1_555
Sb1 Tb3 3.269974 1_554
Sb1 Tb3 3.269974 1_555
Sb1 Tb5 3.269976 1_654
Sb1 Tb5 3.269976 1_655
Sb1 Tb4 3.269980 1_555
Sb1 Tb4 3.269980 1_554
