# generated using pymatgen
data_SrAl9Ni2
_symmetry_space_group_name_H-M   'P 1'
_cell_length_a   7.91019000
_cell_length_b   15.92817509
_cell_length_c   15.92817509
_cell_angle_alpha   119.99999622
_cell_angle_beta   90.00000000
_cell_angle_gamma   90.00000000
_symmetry_Int_Tables_number   1
_chemical_formula_structural   SrAl9Ni2
_chemical_formula_sum   'Sr8 Al72 Ni16'
_cell_volume   1737.99933305
_cell_formula_units_Z   8
loop_
 _symmetry_equiv_pos_site_id
 _symmetry_equiv_pos_as_xyz
  1  'x, y, z'
loop_
 _atom_site_type_symbol
 _atom_site_label
 _atom_site_symmetry_multiplicity
 _atom_site_fract_x
 _atom_site_fract_y
 _atom_site_fract_z
 _atom_site_occupancy
  Sr  Sr0_0  1  0.00000000  0.00000000  0.00000000  1
  Sr  Sr0_1  1  0.00000000  0.00000000  0.50000000  1
  Sr  Sr0_2  1  0.00000000  0.50000000  0.00000000  1
  Sr  Sr0_3  1  0.00000000  0.50000000  0.50000000  1
  Sr  Sr0_4  1  0.50000000  0.00000000  0.00000000  1
  Sr  Sr0_5  1  0.50000000  0.00000000  0.50000000  1
  Sr  Sr0_6  1  0.50000000  0.50000000  0.00000000  1
  Sr  Sr0_7  1  0.50000000  0.50000000  0.50000000  1
  Al  Al0_0  1  0.00000000  0.25000000  0.25000000  1
  Al  Al0_1  1  0.00000000  0.25000000  0.75000000  1
  Al  Al0_2  1  0.00000000  0.75000000  0.25000000  1
  Al  Al0_3  1  0.00000000  0.75000000  0.75000000  1
  Al  Al0_4  1  0.50000000  0.25000000  0.25000000  1
  Al  Al0_5  1  0.50000000  0.25000000  0.75000000  1
  Al  Al0_6  1  0.50000000  0.75000000  0.25000000  1
  Al  Al0_7  1  0.50000000  0.75000000  0.75000000  1
  Al  Al1_0  1  0.00000000  0.00000000  0.25000000  1
  Al  Al1_1  1  0.00000000  1.00000000  0.75000000  1
  Al  Al1_2  1  0.00000000  0.50000000  0.25000000  1
  Al  Al1_3  1  0.00000000  0.50000000  0.75000000  1
  Al  Al1_4  1  0.50000000  0.00000000  0.25000000  1
  Al  Al1_5  1  0.50000000  1.00000000  0.75000000  1
  Al  Al1_6  1  0.50000000  0.50000000  0.25000000  1
  Al  Al1_7  1  0.50000000  0.50000000  0.75000000  1
  Al  Al2_0  1  0.00000000  0.25000000  0.00000000  1
  Al  Al2_1  1  0.00000000  0.25000000  0.50000000  1
  Al  Al2_2  1  0.00000000  0.75000000  0.00000000  1
  Al  Al2_3  1  0.00000000  0.75000000  0.50000000  1
  Al  Al2_4  1  0.50000000  0.25000000  0.00000000  1
  Al  Al2_5  1  0.50000000  0.25000000  0.50000000  1
  Al  Al2_6  1  0.50000000  0.75000000  0.00000000  1
  Al  Al2_7  1  0.50000000  0.75000000  0.50000000  1
  Al  Al3_0  1  0.25000000  0.39358750  0.10641250  1
  Al  Al3_1  1  0.25000000  0.39358750  0.60641250  1
  Al  Al3_2  1  0.25000000  0.89358750  0.10641250  1
  Al  Al3_3  1  0.25000000  0.89358750  0.60641250  1
  Al  Al3_4  1  0.75000000  0.39358750  0.10641250  1
  Al  Al3_5  1  0.75000000  0.39358750  0.60641250  1
  Al  Al3_6  1  0.75000000  0.89358750  0.10641250  1
  Al  Al3_7  1  0.75000000  0.89358750  0.60641250  1
  Al  Al4_0  1  0.25000000  0.21282450  0.10641250  1
  Al  Al4_1  1  0.25000000  0.21282450  0.60641250  1
  Al  Al4_2  1  0.25000000  0.71282450  0.10641250  1
  Al  Al4_3  1  0.25000000  0.71282450  0.60641250  1
  Al  Al4_4  1  0.75000000  0.21282450  0.10641250  1
  Al  Al4_5  1  0.75000000  0.21282450  0.60641250  1
  Al  Al4_6  1  0.75000000  0.71282450  0.10641250  1
  Al  Al4_7  1  0.75000000  0.71282450  0.60641250  1
  Al  Al5_0  1  0.25000000  0.39358750  0.28717550  1
  Al  Al5_1  1  0.25000000  0.39358750  0.78717550  1
  Al  Al5_2  1  0.25000000  0.89358750  0.28717550  1
  Al  Al5_3  1  0.25000000  0.89358750  0.78717550  1
  Al  Al5_4  1  0.75000000  0.39358750  0.28717550  1
  Al  Al5_5  1  0.75000000  0.39358750  0.78717550  1
  Al  Al5_6  1  0.75000000  0.89358750  0.28717550  1
  Al  Al5_7  1  0.75000000  0.89358750  0.78717550  1
  Al  Al6_0  1  0.25000000  0.10641250  0.39358750  1
  Al  Al6_1  1  0.25000000  0.10641250  0.89358750  1
  Al  Al6_2  1  0.25000000  0.60641250  0.39358750  1
  Al  Al6_3  1  0.25000000  0.60641250  0.89358750  1
  Al  Al6_4  1  0.75000000  0.10641250  0.39358750  1
  Al  Al6_5  1  0.75000000  0.10641250  0.89358750  1
  Al  Al6_6  1  0.75000000  0.60641250  0.39358750  1
  Al  Al6_7  1  0.75000000  0.60641250  0.89358750  1
  Al  Al7_0  1  0.25000000  0.10641250  0.21282450  1
  Al  Al7_1  1  0.25000000  0.10641250  0.71282450  1
  Al  Al7_2  1  0.25000000  0.60641250  0.21282450  1
  Al  Al7_3  1  0.25000000  0.60641250  0.71282450  1
  Al  Al7_4  1  0.75000000  0.10641250  0.21282450  1
  Al  Al7_5  1  0.75000000  0.10641250  0.71282450  1
  Al  Al7_6  1  0.75000000  0.60641250  0.21282450  1
  Al  Al7_7  1  0.75000000  0.60641250  0.71282450  1
  Al  Al8_0  1  0.25000000  0.28717550  0.39358750  1
  Al  Al8_1  1  0.25000000  0.28717550  0.89358750  1
  Al  Al8_2  1  0.25000000  0.78717550  0.39358750  1
  Al  Al8_3  1  0.25000000  0.78717550  0.89358750  1
  Al  Al8_4  1  0.75000000  0.28717550  0.39358750  1
  Al  Al8_5  1  0.75000000  0.28717550  0.89358750  1
  Al  Al8_6  1  0.75000000  0.78717550  0.39358750  1
  Al  Al8_7  1  0.75000000  0.78717550  0.89358750  1
  Ni  Ni0_0  1  0.00000000  0.33333350  0.16666650  1
  Ni  Ni0_1  1  0.00000000  0.33333350  0.66666650  1
  Ni  Ni0_2  1  0.00000000  0.83333350  0.16666650  1
  Ni  Ni0_3  1  0.00000000  0.83333350  0.66666650  1
  Ni  Ni0_4  1  0.50000000  0.33333350  0.16666650  1
  Ni  Ni0_5  1  0.50000000  0.33333350  0.66666650  1
  Ni  Ni0_6  1  0.50000000  0.83333350  0.16666650  1
  Ni  Ni0_7  1  0.50000000  0.83333350  0.66666650  1
  Ni  Ni1_0  1  0.00000000  0.16666650  0.33333350  1
  Ni  Ni1_1  1  0.00000000  0.16666650  0.83333350  1
  Ni  Ni1_2  1  0.00000000  0.66666650  0.33333350  1
  Ni  Ni1_3  1  0.00000000  0.66666650  0.83333350  1
  Ni  Ni1_4  1  0.50000000  0.16666650  0.33333350  1
  Ni  Ni1_5  1  0.50000000  0.16666650  0.83333350  1
  Ni  Ni1_6  1  0.50000000  0.66666650  0.33333350  1
  Ni  Ni1_7  1  0.50000000  0.66666650  0.83333350  1
loop_
_geom_bond_atom_site_label_1
_geom_bond_atom_site_label_2
_geom_bond_distance
_geom_bond_site_symmetry_2
Sr0_0 Sr0_4 3.955095 1_455
Sr0_0 Sr0_4 3.955095 1_555
Sr0_1 Sr0_5 3.955095 1_555
Sr0_1 Sr0_5 3.955095 1_455
Sr0_2 Sr0_6 3.955095 1_455
Sr0_2 Sr0_6 3.955095 1_555
Sr0_3 Sr0_7 3.955095 1_455
Sr0_3 Sr0_7 3.955095 1_555
Al0_0 Ni0_0 2.299039 1_555
Al0_0 Ni1_0 2.299039 1_555
Al0_0 Al5_4 2.852686 1_455
Al0_0 Al5_0 2.852686 1_555
Al0_0 Al4_4 2.852686 1_455
Al0_0 Al4_0 2.852686 1_555
Al0_0 Al7_4 2.852686 1_455
Al0_0 Al7_0 2.852686 1_555
Al0_0 Al8_0 2.852686 1_555
Al0_0 Al8_4 2.852686 1_455
Al0_1 Ni0_1 2.299039 1_555
Al0_1 Ni1_1 2.299039 1_555
Al0_1 Al7_5 2.852686 1_455
Al0_1 Al5_5 2.852686 1_455
Al0_1 Al5_1 2.852686 1_555
Al0_1 Al7_1 2.852686 1_555
Al0_1 Al8_1 2.852686 1_555
Al0_1 Al4_5 2.852686 1_455
Al0_1 Al8_5 2.852686 1_455
Al0_1 Al4_1 2.852686 1_555
Al0_2 Ni0_2 2.299039 1_555
Al0_2 Ni1_2 2.299039 1_555
Al0_2 Al5_6 2.852686 1_455
Al0_2 Al5_2 2.852686 1_555
Al0_2 Al4_6 2.852686 1_455
Al0_2 Al4_2 2.852686 1_555
Al0_2 Al7_6 2.852686 1_455
Al0_2 Al7_2 2.852686 1_555
Al0_2 Al8_2 2.852686 1_555
Al0_2 Al8_6 2.852686 1_455
Al0_3 Ni0_3 2.299039 1_555
Al0_3 Ni1_3 2.299039 1_555
Al0_3 Al7_7 2.852686 1_455
Al0_3 Al7_3 2.852686 1_555
Al0_3 Al8_7 2.852686 1_455
Al0_3 Al5_3 2.852686 1_555
Al0_3 Al8_3 2.852686 1_555
Al0_3 Al5_7 2.852686 1_455
Al0_3 Al4_7 2.852686 1_455
Al0_3 Al4_3 2.852686 1_555
Al0_4 Ni0_4 2.299039 1_555
Al0_4 Ni1_4 2.299039 1_555
Al0_4 Al5_0 2.852686 1_555
Al0_4 Al5_4 2.852686 1_555
Al0_4 Al4_4 2.852686 1_555
Al0_4 Al4_0 2.852686 1_555
Al0_4 Al8_4 2.852686 1_555
Al0_4 Al7_4 2.852686 1_555
Al0_4 Al7_0 2.852686 1_555
Al0_4 Al8_0 2.852686 1_555
Al0_5 Ni0_5 2.299039 1_555
Al0_5 Ni1_5 2.299039 1_555
Al0_5 Al5_5 2.852686 1_555
Al0_5 Al7_5 2.852686 1_555
Al0_5 Al7_1 2.852686 1_555
Al0_5 Al5_1 2.852686 1_555
Al0_5 Al4_5 2.852686 1_555
Al0_5 Al8_1 2.852686 1_555
Al0_5 Al4_1 2.852686 1_555
Al0_5 Al8_5 2.852686 1_555
Al0_6 Ni0_6 2.299039 1_555
Al0_6 Ni1_6 2.299039 1_555
Al0_6 Al5_6 2.852686 1_555
Al0_6 Al5_2 2.852686 1_555
Al0_6 Al4_6 2.852686 1_555
Al0_6 Al4_2 2.852686 1_555
Al0_6 Al7_2 2.852686 1_555
Al0_6 Al7_6 2.852686 1_555
Al0_6 Al8_2 2.852686 1_555
Al0_6 Al8_6 2.852686 1_555
Al0_7 Ni1_7 2.299039 1_555
Al0_7 Ni0_7 2.299039 1_555
Al0_7 Al7_7 2.852686 1_555
Al0_7 Al7_3 2.852686 1_555
Al0_7 Al8_7 2.852686 1_555
Al0_7 Al5_3 2.852686 1_555
Al0_7 Al8_3 2.852686 1_555
Al0_7 Al5_7 2.852686 1_555
Al0_7 Al4_7 2.852686 1_555
Al0_7 Al4_3 2.852686 1_555
Al1_0 Ni1_0 2.299032 1_555
Al1_0 Ni0_2 2.299032 1_545
Al1_0 Al6_0 2.852688 1_555
Al1_0 Al3_2 2.852688 1_545
Al1_0 Al3_6 2.852688 1_445
Al1_0 Al6_4 2.852688 1_455
Al1_0 Al7_0 2.852691 1_555
Al1_0 Al7_4 2.852691 1_455
Al1_0 Al5_2 2.852691 1_545
Al1_0 Al5_6 2.852691 1_445
Al1_1 Ni1_1 2.299032 1_565
Al1_1 Ni0_3 2.299032 1_555
Al1_1 Al6_1 2.852688 1_565
Al1_1 Al6_5 2.852688 1_465
Al1_1 Al3_3 2.852688 1_555
Al1_1 Al3_7 2.852688 1_455
Al1_1 Al5_7 2.852691 1_455
Al1_1 Al5_3 2.852691 1_555
Al1_1 Al7_5 2.852691 1_465
Al1_1 Al7_1 2.852691 1_565
Al1_2 Ni0_0 2.299032 1_555
Al1_2 Ni1_2 2.299032 1_555
Al1_2 Al6_2 2.852688 1_555
Al1_2 Al6_6 2.852688 1_455
Al1_2 Al3_0 2.852688 1_555
Al1_2 Al3_4 2.852688 1_455
Al1_2 Al5_4 2.852691 1_455
Al1_2 Al5_0 2.852691 1_555
Al1_2 Al7_6 2.852691 1_455
Al1_2 Al7_2 2.852691 1_555
Al1_3 Ni1_3 2.299032 1_555
Al1_3 Ni0_1 2.299032 1_555
Al1_3 Al6_3 2.852688 1_555
Al1_3 Al6_7 2.852688 1_455
Al1_3 Al3_5 2.852688 1_455
Al1_3 Al3_1 2.852688 1_555
Al1_3 Al7_7 2.852691 1_455
Al1_3 Al7_3 2.852691 1_555
Al1_3 Al5_1 2.852691 1_555
Al1_3 Al5_5 2.852691 1_455
Al1_4 Ni1_4 2.299032 1_555
Al1_4 Ni0_6 2.299032 1_545
Al1_4 Al6_0 2.852688 1_555
Al1_4 Al6_4 2.852688 1_555
Al1_4 Al3_2 2.852688 1_545
Al1_4 Al3_6 2.852688 1_545
Al1_4 Al7_4 2.852691 1_555
Al1_4 Al7_0 2.852691 1_555
Al1_4 Al5_2 2.852691 1_545
Al1_4 Al5_6 2.852691 1_545
Al1_5 Ni1_5 2.299032 1_565
Al1_5 Ni0_7 2.299032 1_555
Al1_5 Al6_1 2.852688 1_565
Al1_5 Al6_5 2.852688 1_565
Al1_5 Al3_7 2.852688 1_555
Al1_5 Al3_3 2.852688 1_555
Al1_5 Al5_3 2.852691 1_555
Al1_5 Al5_7 2.852691 1_555
Al1_5 Al7_5 2.852691 1_565
Al1_5 Al7_1 2.852691 1_565
Al1_6 Ni1_6 2.299032 1_555
Al1_6 Ni0_4 2.299032 1_555
Al1_6 Al6_2 2.852688 1_555
Al1_6 Al6_6 2.852688 1_555
Al1_6 Al3_0 2.852688 1_555
Al1_6 Al3_4 2.852688 1_555
Al1_6 Al5_0 2.852691 1_555
Al1_6 Al5_4 2.852691 1_555
Al1_6 Al7_2 2.852691 1_555
Al1_6 Al7_6 2.852691 1_555
Al1_7 Ni1_7 2.299032 1_555
Al1_7 Ni0_5 2.299032 1_555
Al1_7 Al6_3 2.852688 1_555
Al1_7 Al6_7 2.852688 1_555
Al1_7 Al3_5 2.852688 1_555
Al1_7 Al3_1 2.852688 1_555
Al1_7 Al7_3 2.852691 1_555
Al1_7 Al7_7 2.852691 1_555
Al1_7 Al5_1 2.852691 1_555
Al1_7 Al5_5 2.852691 1_555
Al2_0 Ni1_1 2.299032 1_554
Al2_0 Ni0_0 2.299032 1_555
Al2_0 Al3_0 2.852688 1_555
Al2_0 Al3_4 2.852688 1_455
Al2_0 Al6_1 2.852688 1_554
Al2_0 Al6_5 2.852688 1_454
Al2_0 Al8_1 2.852691 1_554
Al2_0 Al8_5 2.852691 1_454
Al2_0 Al4_4 2.852691 1_455
Al2_0 Al4_0 2.852691 1_555
Al2_1 Ni0_1 2.299032 1_555
Al2_1 Ni1_0 2.299032 1_555
Al2_1 Al3_1 2.852688 1_555
Al2_1 Al3_5 2.852688 1_455
Al2_1 Al6_0 2.852688 1_555
Al2_1 Al6_4 2.852688 1_455
Al2_1 Al4_5 2.852691 1_455
Al2_1 Al4_1 2.852691 1_555
Al2_1 Al8_0 2.852691 1_555
Al2_1 Al8_4 2.852691 1_455
Al2_2 Ni0_2 2.299032 1_555
Al2_2 Ni1_3 2.299032 1_554
Al2_2 Al3_2 2.852688 1_555
Al2_2 Al3_6 2.852688 1_455
Al2_2 Al6_3 2.852688 1_554
Al2_2 Al6_7 2.852688 1_454
Al2_2 Al8_7 2.852691 1_454
Al2_2 Al8_3 2.852691 1_554
Al2_2 Al4_6 2.852691 1_455
Al2_2 Al4_2 2.852691 1_555
Al2_3 Ni0_3 2.299032 1_555
Al2_3 Ni1_2 2.299032 1_555
Al2_3 Al3_3 2.852688 1_555
Al2_3 Al3_7 2.852688 1_455
Al2_3 Al6_2 2.852688 1_555
Al2_3 Al6_6 2.852688 1_455
Al2_3 Al4_7 2.852691 1_455
Al2_3 Al4_3 2.852691 1_555
Al2_3 Al8_2 2.852691 1_555
Al2_3 Al8_6 2.852691 1_455
Al2_4 Ni1_5 2.299032 1_554
Al2_4 Ni0_4 2.299032 1_555
Al2_4 Al3_0 2.852688 1_555
Al2_4 Al3_4 2.852688 1_555
Al2_4 Al6_1 2.852688 1_554
Al2_4 Al6_5 2.852688 1_554
Al2_4 Al8_1 2.852691 1_554
Al2_4 Al8_5 2.852691 1_554
Al2_4 Al4_4 2.852691 1_555
Al2_4 Al4_0 2.852691 1_555
Al2_5 Ni0_5 2.299032 1_555
Al2_5 Ni1_4 2.299032 1_555
Al2_5 Al3_1 2.852688 1_555
Al2_5 Al3_5 2.852688 1_555
Al2_5 Al6_4 2.852688 1_555
Al2_5 Al6_0 2.852688 1_555
Al2_5 Al4_5 2.852691 1_555
Al2_5 Al4_1 2.852691 1_555
Al2_5 Al8_0 2.852691 1_555
Al2_5 Al8_4 2.852691 1_555
Al2_6 Ni0_6 2.299032 1_555
Al2_6 Ni1_7 2.299032 1_554
Al2_6 Al3_6 2.852688 1_555
Al2_6 Al3_2 2.852688 1_555
Al2_6 Al6_3 2.852688 1_554
Al2_6 Al6_7 2.852688 1_554
Al2_6 Al8_7 2.852691 1_554
Al2_6 Al8_3 2.852691 1_554
Al2_6 Al4_6 2.852691 1_555
Al2_6 Al4_2 2.852691 1_555
Al2_7 Ni0_7 2.299032 1_555
Al2_7 Ni1_6 2.299032 1_555
Al2_7 Al3_3 2.852688 1_555
Al2_7 Al3_7 2.852688 1_555
Al2_7 Al6_2 2.852688 1_555
Al2_7 Al6_6 2.852688 1_555
Al2_7 Al4_7 2.852691 1_555
Al2_7 Al4_3 2.852691 1_555
Al2_7 Al8_6 2.852691 1_555
Al2_7 Al8_2 2.852691 1_555
Al3_0 Ni0_4 2.583404 1_555
Al3_0 Ni0_0 2.583404 1_555
Al3_0 Al4_0 2.879225 1_555
Al3_0 Al5_0 2.879225 1_555
Al3_0 Al7_2 2.935752 1_555
Al3_0 Al8_1 2.935752 1_554
Al3_0 Sr0_2 3.539679 1_555
Al3_0 Sr0_6 3.539679 1_555
Al3_1 Ni0_5 2.583404 1_555
Al3_1 Ni0_1 2.583404 1_555
Al3_1 Al4_1 2.879225 1_555
Al3_1 Al5_1 2.879225 1_555
Al3_1 Al8_0 2.935752 1_555
Al3_1 Al7_3 2.935752 1_555
Al3_1 Sr0_3 3.539679 1_555
Al3_1 Sr0_7 3.539679 1_555
Al3_2 Ni0_2 2.583404 1_555
Al3_2 Ni0_6 2.583404 1_555
Al3_2 Al4_2 2.879225 1_555
Al3_2 Al5_2 2.879225 1_555
Al3_2 Al8_3 2.935752 1_554
Al3_2 Al7_0 2.935752 1_565
Al3_2 Sr0_0 3.539679 1_565
Al3_2 Sr0_4 3.539679 1_565
Al3_3 Ni0_7 2.583404 1_555
Al3_3 Ni0_3 2.583404 1_555
Al3_3 Al4_3 2.879225 1_555
Al3_3 Al5_3 2.879225 1_555
Al3_3 Al8_2 2.935752 1_555
Al3_3 Al7_1 2.935752 1_565
Al3_3 Sr0_1 3.539679 1_565
Al3_3 Sr0_5 3.539679 1_565
Al3_4 Ni0_4 2.583404 1_555
Al3_4 Ni0_0 2.583404 1_655
Al3_4 Al4_4 2.879225 1_555
Al3_4 Al5_4 2.879225 1_555
Al3_4 Al7_6 2.935752 1_555
Al3_4 Al8_5 2.935752 1_554
Al3_4 Sr0_2 3.539679 1_655
Al3_4 Sr0_6 3.539679 1_555
Al3_5 Ni0_5 2.583404 1_555
Al3_5 Ni0_1 2.583404 1_655
Al3_5 Al4_5 2.879225 1_555
Al3_5 Al5_5 2.879225 1_555
Al3_5 Al8_4 2.935752 1_555
Al3_5 Al7_7 2.935752 1_555
Al3_5 Sr0_3 3.539679 1_655
Al3_5 Sr0_7 3.539679 1_555
Al3_6 Ni0_6 2.583404 1_555
Al3_6 Ni0_2 2.583404 1_655
Al3_6 Al4_6 2.879225 1_555
Al3_6 Al5_6 2.879225 1_555
Al3_6 Al8_7 2.935752 1_554
Al3_6 Al7_4 2.935752 1_565
Al3_6 Sr0_4 3.539679 1_565
Al3_6 Sr0_0 3.539679 1_665
Al3_7 Ni0_7 2.583404 1_555
Al3_7 Ni0_3 2.583404 1_655
Al3_7 Al4_7 2.879225 1_555
Al3_7 Al5_7 2.879225 1_555
Al3_7 Al8_6 2.935752 1_555
Al3_7 Al7_5 2.935752 1_565
Al3_7 Sr0_5 3.539679 1_565
Al3_7 Sr0_1 3.539679 1_665
Al4_0 Ni0_0 2.583413 1_555
Al4_0 Ni0_4 2.583413 1_555
Al4_0 Al5_0 2.879225 1_555
Al4_0 Al7_0 2.935738 1_555
Al4_0 Al6_1 2.935752 1_554
Al4_0 Sr0_0 3.539674 1_555
Al4_0 Sr0_4 3.539674 1_555
Al4_1 Ni0_1 2.583413 1_555
Al4_1 Ni0_5 2.583413 1_555
Al4_1 Al5_1 2.879225 1_555
Al4_1 Al7_1 2.935738 1_555
Al4_1 Al6_0 2.935752 1_555
Al4_1 Sr0_1 3.539674 1_555
Al4_1 Sr0_5 3.539674 1_555
Al4_2 Ni0_6 2.583413 1_555
Al4_2 Ni0_2 2.583413 1_555
Al4_2 Al5_2 2.879225 1_555
Al4_2 Al7_2 2.935738 1_555
Al4_2 Al6_3 2.935752 1_554
Al4_2 Sr0_2 3.539674 1_555
Al4_2 Sr0_6 3.539674 1_555
Al4_3 Ni0_3 2.583413 1_555
Al4_3 Ni0_7 2.583413 1_555
Al4_3 Al5_3 2.879225 1_555
Al4_3 Al7_3 2.935738 1_555
Al4_3 Al6_2 2.935752 1_555
Al4_3 Sr0_7 3.539674 1_555
Al4_3 Sr0_3 3.539674 1_555
Al4_4 Ni0_0 2.583413 1_655
Al4_4 Ni0_4 2.583413 1_555
Al4_4 Al5_4 2.879225 1_555
Al4_4 Al7_4 2.935738 1_555
Al4_4 Al6_5 2.935752 1_554
Al4_4 Sr0_4 3.539674 1_555
Al4_4 Sr0_0 3.539674 1_655
Al4_5 Ni0_1 2.583413 1_655
Al4_5 Ni0_5 2.583413 1_555
Al4_5 Al5_5 2.879225 1_555
Al4_5 Al7_5 2.935738 1_555
Al4_5 Al6_4 2.935752 1_555
Al4_5 Sr0_1 3.539674 1_655
Al4_5 Sr0_5 3.539674 1_555
Al4_6 Ni0_6 2.583413 1_555
Al4_6 Ni0_2 2.583413 1_655
Al4_6 Al5_6 2.879225 1_555
Al4_6 Al7_6 2.935738 1_555
Al4_6 Al6_7 2.935752 1_554
Al4_6 Sr0_2 3.539674 1_655
Al4_6 Sr0_6 3.539674 1_555
Al4_7 Ni0_7 2.583413 1_555
Al4_7 Ni0_3 2.583413 1_655
Al4_7 Al5_7 2.879225 1_555
Al4_7 Al7_7 2.935738 1_555
Al4_7 Al6_6 2.935752 1_555
Al4_7 Sr0_3 3.539674 1_655
Al4_7 Sr0_7 3.539674 1_555
Al5_0 Ni0_4 2.583413 1_555
Al5_0 Ni0_0 2.583413 1_555
Al5_0 Al8_0 2.935738 1_555
Al5_0 Al6_2 2.935752 1_555
Al5_0 Sr0_3 3.539674 1_555
Al5_0 Sr0_7 3.539674 1_555
Al5_1 Ni0_5 2.583413 1_555
Al5_1 Ni0_1 2.583413 1_555
Al5_1 Al8_1 2.935738 1_555
Al5_1 Al6_3 2.935752 1_555
Al5_1 Sr0_6 3.539674 1_556
Al5_1 Sr0_2 3.539674 1_556
Al5_2 Ni0_6 2.583413 1_555
Al5_2 Ni0_2 2.583413 1_555
Al5_2 Al8_2 2.935738 1_555
Al5_2 Al6_0 2.935752 1_565
Al5_2 Sr0_1 3.539674 1_565
Al5_2 Sr0_5 3.539674 1_565
Al5_3 Ni0_3 2.583413 1_555
Al5_3 Ni0_7 2.583413 1_555
Al5_3 Al8_3 2.935738 1_555
Al5_3 Al6_1 2.935752 1_565
Al5_3 Sr0_0 3.539674 1_566
Al5_3 Sr0_4 3.539674 1_566
Al5_4 Ni0_4 2.583413 1_555
Al5_4 Ni0_0 2.583413 1_655
Al5_4 Al8_4 2.935738 1_555
Al5_4 Al6_6 2.935752 1_555
Al5_4 Sr0_3 3.539674 1_655
Al5_4 Sr0_7 3.539674 1_555
Al5_5 Ni0_5 2.583413 1_555
Al5_5 Ni0_1 2.583413 1_655
Al5_5 Al8_5 2.935738 1_555
Al5_5 Al6_7 2.935752 1_555
Al5_5 Sr0_6 3.539674 1_556
Al5_5 Sr0_2 3.539674 1_656
Al5_6 Ni0_6 2.583413 1_555
Al5_6 Ni0_2 2.583413 1_655
Al5_6 Al8_6 2.935738 1_555
Al5_6 Al6_4 2.935752 1_565
Al5_6 Sr0_1 3.539674 1_665
Al5_6 Sr0_5 3.539674 1_565
Al5_7 Ni0_7 2.583413 1_555
Al5_7 Ni0_3 2.583413 1_655
Al5_7 Al8_7 2.935738 1_555
Al5_7 Al6_5 2.935752 1_565
Al5_7 Sr0_0 3.539674 1_666
Al5_7 Sr0_4 3.539674 1_566
Al6_0 Ni1_0 2.583404 1_555
Al6_0 Ni1_4 2.583404 1_555
Al6_0 Al8_0 2.879225 1_555
Al6_0 Al7_0 2.879225 1_555
Al6_0 Sr0_1 3.539679 1_555
Al6_0 Sr0_5 3.539679 1_555
Al6_1 Ni1_1 2.583404 1_555
Al6_1 Ni1_5 2.583404 1_555
Al6_1 Al8_1 2.879225 1_555
Al6_1 Al7_1 2.879225 1_555
Al6_1 Sr0_0 3.539679 1_556
Al6_1 Sr0_4 3.539679 1_556
Al6_2 Ni1_2 2.583404 1_555
Al6_2 Ni1_6 2.583404 1_555
Al6_2 Al7_2 2.879225 1_555
Al6_2 Al8_2 2.879225 1_555
Al6_2 Sr0_3 3.539679 1_555
Al6_2 Sr0_7 3.539679 1_555
Al6_3 Ni1_7 2.583404 1_555
Al6_3 Ni1_3 2.583404 1_555
Al6_3 Al8_3 2.879225 1_555
Al6_3 Al7_3 2.879225 1_555
Al6_3 Sr0_2 3.539679 1_556
Al6_3 Sr0_6 3.539679 1_556
Al6_4 Ni1_0 2.583404 1_655
Al6_4 Ni1_4 2.583404 1_555
Al6_4 Al8_4 2.879225 1_555
Al6_4 Al7_4 2.879225 1_555
Al6_4 Sr0_1 3.539679 1_655
Al6_4 Sr0_5 3.539679 1_555
Al6_5 Ni1_5 2.583404 1_555
Al6_5 Ni1_1 2.583404 1_655
Al6_5 Al8_5 2.879225 1_555
Al6_5 Al7_5 2.879225 1_555
Al6_5 Sr0_4 3.539679 1_556
Al6_5 Sr0_0 3.539679 1_656
Al6_6 Ni1_6 2.583404 1_555
Al6_6 Ni1_2 2.583404 1_655
Al6_6 Al8_6 2.879225 1_555
Al6_6 Al7_6 2.879225 1_555
Al6_6 Sr0_3 3.539679 1_655
Al6_6 Sr0_7 3.539679 1_555
Al6_7 Ni1_7 2.583404 1_555
Al6_7 Ni1_3 2.583404 1_655
Al6_7 Al8_7 2.879225 1_555
Al6_7 Al7_7 2.879225 1_555
Al6_7 Sr0_6 3.539679 1_556
Al6_7 Sr0_2 3.539679 1_656
Al7_0 Ni1_0 2.583413 1_555
Al7_0 Ni1_4 2.583413 1_555
Al7_0 Al8_0 2.879225 1_555
Al7_0 Sr0_0 3.539674 1_555
Al7_0 Sr0_4 3.539674 1_555
Al7_1 Ni1_1 2.583413 1_555
Al7_1 Ni1_5 2.583413 1_555
Al7_1 Al8_1 2.879225 1_555
Al7_1 Sr0_5 3.539674 1_555
Al7_1 Sr0_1 3.539674 1_555
Al7_2 Ni1_2 2.583413 1_555
Al7_2 Ni1_6 2.583413 1_555
Al7_2 Al8_2 2.879225 1_555
Al7_2 Sr0_6 3.539674 1_555
Al7_2 Sr0_2 3.539674 1_555
Al7_3 Ni1_7 2.583413 1_555
Al7_3 Ni1_3 2.583413 1_555
Al7_3 Al8_3 2.879225 1_555
Al7_3 Sr0_3 3.539674 1_555
Al7_3 Sr0_7 3.539674 1_555
Al7_4 Ni1_0 2.583413 1_655
Al7_4 Ni1_4 2.583413 1_555
Al7_4 Al8_4 2.879225 1_555
Al7_4 Sr0_0 3.539674 1_655
Al7_4 Sr0_4 3.539674 1_555
Al7_5 Ni1_1 2.583413 1_655
Al7_5 Ni1_5 2.583413 1_555
Al7_5 Al8_5 2.879225 1_555
Al7_5 Sr0_5 3.539674 1_555
Al7_5 Sr0_1 3.539674 1_655
Al7_6 Ni1_6 2.583413 1_555
Al7_6 Ni1_2 2.583413 1_655
Al7_6 Al8_6 2.879225 1_555
Al7_6 Sr0_6 3.539674 1_555
Al7_6 Sr0_2 3.539674 1_655
Al7_7 Ni1_7 2.583413 1_555
Al7_7 Ni1_3 2.583413 1_655
Al7_7 Al8_7 2.879225 1_555
Al7_7 Sr0_3 3.539674 1_655
Al7_7 Sr0_7 3.539674 1_555
Al8_0 Ni1_0 2.583413 1_555
Al8_0 Ni1_4 2.583413 1_555
Al8_0 Sr0_3 3.539674 1_555
Al8_0 Sr0_7 3.539674 1_555
Al8_1 Ni1_1 2.583413 1_555
Al8_1 Ni1_5 2.583413 1_555
Al8_1 Sr0_6 3.539674 1_556
Al8_1 Sr0_2 3.539674 1_556
Al8_2 Ni1_2 2.583413 1_555
Al8_2 Ni1_6 2.583413 1_555
Al8_2 Sr0_5 3.539674 1_565
Al8_2 Sr0_1 3.539674 1_565
Al8_3 Ni1_3 2.583413 1_555
Al8_3 Ni1_7 2.583413 1_555
Al8_3 Sr0_0 3.539674 1_566
Al8_3 Sr0_4 3.539674 1_566
Al8_4 Ni1_0 2.583413 1_655
Al8_4 Ni1_4 2.583413 1_555
Al8_4 Sr0_3 3.539674 1_655
Al8_4 Sr0_7 3.539674 1_555
Al8_5 Ni1_1 2.583413 1_655
Al8_5 Ni1_5 2.583413 1_555
Al8_5 Sr0_2 3.539674 1_656
Al8_5 Sr0_6 3.539674 1_556
Al8_6 Ni1_6 2.583413 1_555
Al8_6 Ni1_2 2.583413 1_655
Al8_6 Sr0_1 3.539674 1_665
Al8_6 Sr0_5 3.539674 1_565
Al8_7 Ni1_7 2.583413 1_555
Al8_7 Ni1_3 2.583413 1_655
Al8_7 Sr0_0 3.539674 1_666
Al8_7 Sr0_4 3.539674 1_566
