# generated using pymatgen
data_Sm(MnGe)6
_symmetry_space_group_name_H-M   'P 1'
_cell_length_a   5.20831826
_cell_length_b   5.20808995
_cell_length_c   8.15453700
_cell_angle_alpha   90.00000000
_cell_angle_beta   90.00000000
_cell_angle_gamma   120.00144947
_symmetry_Int_Tables_number   1
_chemical_formula_structural   Sm(MnGe)6
_chemical_formula_sum   'Sm1 Mn6 Ge6'
_cell_volume   191.55768792
_cell_formula_units_Z   1
loop_
 _symmetry_equiv_pos_site_id
 _symmetry_equiv_pos_as_xyz
  1  'x, y, z'
loop_
 _atom_site_type_symbol
 _atom_site_label
 _atom_site_symmetry_multiplicity
 _atom_site_fract_x
 _atom_site_fract_y
 _atom_site_fract_z
 _atom_site_occupancy
  Sm  Sm0  1  0.00001200  0.00000000  0.00000000  1
  Mn  Mn0  1  0.49995600  0.00000000  0.25158200  1
  Mn  Mn1  1  0.50002800  0.50004200  0.25160300  1
  Mn  Mn2  1  0.99998600  0.49995800  0.25160300  1
  Mn  Mn3  1  0.49995600  0.00000000  0.74841800  1
  Mn  Mn4  1  0.50002800  0.50004200  0.74839700  1
  Mn  Mn5  1  0.99998600  0.49995800  0.74839700  1
  Ge  Ge0  1  0.33335200  0.66672900  0.00000000  1
  Ge  Ge1  1  0.66662400  0.33327100  0.00000000  1
  Ge  Ge2  1  0.33335100  0.66674000  0.50000000  1
  Ge  Ge3  1  0.66661100  0.33326000  0.50000000  1
  Ge  Ge4  1  0.99995500  0.00000000  0.34657400  1
  Ge  Ge5  1  0.99995500  0.00000000  0.65342600  1
loop_
_geom_bond_atom_site_label_1
_geom_bond_atom_site_label_2
_geom_bond_distance
_geom_bond_site_symmetry_2
Ge0 Mn3 2.543272 1_564
Ge0 Mn0 2.543272 1_565
Ge0 Mn1 2.543695 1_555
Ge0 Mn4 2.543695 1_554
Ge0 Mn2 2.543703 1_455
Ge0 Mn5 2.543703 1_454
Ge0 Sm0 3.006729 1_565
Ge0 Sm0 3.006950 1_665
Ge0 Sm0 3.007129 1_555
Ge1 Mn0 2.543272 1_555
Ge1 Mn3 2.543272 1_554
Ge1 Mn2 2.543692 1_555
Ge1 Mn5 2.543692 1_554
Ge1 Mn1 2.543705 1_555
Ge1 Mn4 2.543705 1_554
Ge1 Sm0 3.006733 1_555
Ge1 Sm0 3.006945 1_655
Ge1 Sm0 3.007129 1_665
Ge2 Mn3 2.522476 1_565
Ge2 Mn0 2.522476 1_565
Ge2 Mn5 2.522660 1_455
Ge2 Mn2 2.522660 1_455
Ge2 Mn4 2.522687 1_555
Ge2 Mn1 2.522687 1_555
Ge3 Mn3 2.522476 1_555
Ge3 Mn0 2.522476 1_555
Ge3 Mn4 2.522660 1_555
Ge3 Mn1 2.522660 1_555
Ge3 Mn5 2.522687 1_555
Ge3 Mn2 2.522687 1_555
Ge4 Ge5 2.502236 1_555
Ge4 Mn2 2.716478 1_555
Ge4 Mn1 2.716478 1_545
Ge4 Mn0 2.716919 1_555
Ge4 Mn0 2.716929 1_655
Ge4 Mn2 2.717053 1_545
Ge4 Mn1 2.717053 1_655
Ge4 Sm0 2.826151 1_655
Ge5 Mn5 2.716478 1_555
Ge5 Mn4 2.716478 1_545
Ge5 Mn3 2.716919 1_555
Ge5 Mn3 2.716929 1_655
Ge5 Mn5 2.717053 1_545
Ge5 Mn4 2.717053 1_655
Ge5 Sm0 2.826151 1_656
