# generated using pymatgen
data_Tm2Si4Mo3
_symmetry_space_group_name_H-M   'P 1'
_cell_length_a   6.86207611
_cell_length_b   6.67413468
_cell_length_c   6.79764557
_cell_angle_alpha   71.21605558
_cell_angle_beta   90.00000000
_cell_angle_gamma   90.00000000
_symmetry_Int_Tables_number   1
_chemical_formula_structural   Tm2Si4Mo3
_chemical_formula_sum   'Tm4 Si8 Mo6'
_cell_volume   294.74030169
_cell_formula_units_Z   2
loop_
 _symmetry_equiv_pos_site_id
 _symmetry_equiv_pos_as_xyz
  1  'x, y, z'
loop_
 _atom_site_type_symbol
 _atom_site_label
 _atom_site_symmetry_multiplicity
 _atom_site_fract_x
 _atom_site_fract_y
 _atom_site_fract_z
 _atom_site_occupancy
  Tm  Tm0  1  0.32949475  0.56220235  0.80844452  1
  Tm  Tm1  1  0.82949475  0.93779765  0.19155548  1
  Tm  Tm2  1  0.67050525  0.43779765  0.19155548  1
  Tm  Tm3  1  0.17050525  0.06220235  0.80844452  1
  Si  Si0  1  0.54354909  0.86676558  0.91105426  1
  Si  Si1  1  0.04354909  0.63323442  0.08894574  1
  Si  Si2  1  0.45645091  0.13323442  0.08894574  1
  Si  Si3  1  0.95645091  0.36676558  0.91105426  1
  Si  Si4  1  0.13098389  0.87226987  0.49608616  1
  Si  Si5  1  0.63098389  0.62773013  0.50391384  1
  Si  Si6  1  0.86901611  0.12773013  0.50391384  1
  Si  Si7  1  0.36901611  0.37226987  0.49608616  1
  Mo  Mo0  1  0.50000000  -0.00000000  0.50000000  1
  Mo  Mo1  1  -0.00000000  0.50000000  0.50000000  1
  Mo  Mo2  1  0.83707207  0.74831828  0.75173737  1
  Mo  Mo3  1  0.33707207  0.75168172  0.24826263  1
  Mo  Mo4  1  0.16292793  0.25168172  0.24826263  1
  Mo  Mo5  1  0.66292793  0.24831828  0.75173737  1
loop_
_geom_bond_atom_site_label_1
_geom_bond_atom_site_label_2
_geom_bond_distance
_geom_bond_site_symmetry_2
Si0 Si2 2.523358 1_566
Si0 Tm0 2.772901 1_555
Si0 Tm3 2.855668 1_565
Si0 Tm1 2.879711 1_556
Si0 Tm2 3.012600 1_556
Si1 Si3 2.523358 1_454
Si1 Tm1 2.772901 1_455
Si1 Tm2 2.855668 1_455
Si1 Tm0 2.879711 1_554
Si1 Tm3 3.012600 1_564
Si2 Tm2 2.772901 1_555
Si2 Tm1 2.855668 1_545
Si2 Tm3 2.879711 1_554
Si2 Tm0 3.012600 1_554
Si3 Tm3 2.772901 1_655
Si3 Tm0 2.855668 1_655
Si3 Tm2 2.879711 1_556
Si3 Tm1 3.012600 1_546
Si4 Si6 2.489924 1_465
Si4 Tm0 2.795851 1_555
Si4 Tm3 2.814646 1_565
Si4 Tm1 2.858953 1_455
Si5 Si7 2.489924 1_555
Si5 Tm1 2.795851 1_555
Si5 Tm2 2.814646 1_555
Si5 Tm0 2.858953 1_555
Si6 Tm2 2.795851 1_555
Si6 Tm1 2.814646 1_545
Si6 Tm3 2.858953 1_655
Si7 Tm3 2.795851 1_555
Si7 Tm0 2.814646 1_555
Si7 Tm2 2.858953 1_555
Mo0 Si5 2.634227 1_545
Mo0 Si7 2.634227 1_555
Mo0 Si0 2.662227 1_545
Mo0 Si2 2.662227 1_555
Mo0 Si6 2.674728 1_555
Mo0 Si4 2.674728 1_545
Mo1 Si4 2.634227 1_555
Mo1 Si6 2.634227 1_455
Mo1 Si1 2.662227 1_555
Mo1 Si3 2.662227 1_455
Mo1 Si5 2.674728 1_455
Mo1 Si7 2.674728 1_555
Mo2 Si5 2.521658 1_555
Mo2 Si0 2.531017 1_555
Mo2 Si6 2.559498 1_565
Mo2 Si3 2.559823 1_555
Mo2 Si1 2.591890 1_656
Mo2 Si4 2.616530 1_655
Mo3 Si4 2.521658 1_555
Mo3 Si1 2.531017 1_555
Mo3 Si7 2.559498 1_555
Mo3 Si2 2.559823 1_565
Mo3 Si0 2.591890 1_554
Mo3 Si5 2.616530 1_555
Mo4 Si7 2.521658 1_555
Mo4 Si2 2.531017 1_555
Mo4 Si4 2.559498 1_545
Mo4 Si1 2.559823 1_555
Mo4 Si3 2.591890 1_454
Mo4 Si6 2.616530 1_455
Mo5 Si6 2.521658 1_555
Mo5 Si3 2.531017 1_555
Mo5 Si5 2.559498 1_555
Mo5 Si0 2.559823 1_545
Mo5 Si2 2.591890 1_556
Mo5 Si7 2.616530 1_555
