# generated using pymatgen
data_Cs4TeSe15
_symmetry_space_group_name_H-M   'P 1'
_cell_length_a   10.40959700
_cell_length_b   14.36209500
_cell_length_c   19.99387700
_cell_angle_alpha   90.00000000
_cell_angle_beta   90.00000000
_cell_angle_gamma   90.00000000
_symmetry_Int_Tables_number   1
_chemical_formula_structural   Cs4TeSe15
_chemical_formula_sum   'Cs16 Te4 Se60'
_cell_volume   2989.15700984
_cell_formula_units_Z   4
loop_
 _symmetry_equiv_pos_site_id
 _symmetry_equiv_pos_as_xyz
  1  'x, y, z'
loop_
 _atom_site_type_symbol
 _atom_site_label
 _atom_site_symmetry_multiplicity
 _atom_site_fract_x
 _atom_site_fract_y
 _atom_site_fract_z
 _atom_site_occupancy
  Cs  Cs0  1  0.96923300  0.38212200  0.25000000  1
  Cs  Cs1  1  0.03076700  0.61787800  0.75000000  1
  Cs  Cs2  1  0.96923300  0.11787800  0.75000000  1
  Cs  Cs3  1  0.03076700  0.88212200  0.25000000  1
  Cs  Cs4  1  0.65815600  0.61810500  0.25000000  1
  Cs  Cs5  1  0.34184400  0.38189500  0.75000000  1
  Cs  Cs6  1  0.65815600  0.88189500  0.75000000  1
  Cs  Cs7  1  0.34184400  0.11810500  0.25000000  1
  Cs  Cs8  1  0.88499100  0.25000000  0.50000000  1
  Cs  Cs9  1  0.11500900  0.75000000  0.00000000  1
  Cs  Cs10  1  0.11500900  0.75000000  0.50000000  1
  Cs  Cs11  1  0.88499100  0.25000000  0.00000000  1
  Cs  Cs12  1  0.39839500  0.25000000  0.50000000  1
  Cs  Cs13  1  0.60160500  0.75000000  0.00000000  1
  Cs  Cs14  1  0.60160500  0.75000000  0.50000000  1
  Cs  Cs15  1  0.39839500  0.25000000  0.00000000  1
  Te  Te0  1  0.46505600  0.38264800  0.25000000  1
  Te  Te1  1  0.53494400  0.61735200  0.75000000  1
  Te  Te2  1  0.46505600  0.11735200  0.75000000  1
  Te  Te3  1  0.53494400  0.88264800  0.25000000  1
  Se  Se0  1  0.29337600  0.42754800  0.34898800  1
  Se  Se1  1  0.70662400  0.57245200  0.84898800  1
  Se  Se2  1  0.29337600  0.07245200  0.65101200  1
  Se  Se3  1  0.70662400  0.92754800  0.15101200  1
  Se  Se4  1  0.70662400  0.57245200  0.65101200  1
  Se  Se5  1  0.29337600  0.42754800  0.15101200  1
  Se  Se6  1  0.70662400  0.92754800  0.34898800  1
  Se  Se7  1  0.29337600  0.07245200  0.84898800  1
  Se  Se8  1  0.30920400  0.59465100  0.34537700  1
  Se  Se9  1  0.69079600  0.40534900  0.84537700  1
  Se  Se10  1  0.30920400  0.90534900  0.65462300  1
  Se  Se11  1  0.69079600  0.09465100  0.15462300  1
  Se  Se12  1  0.69079600  0.40534900  0.65462300  1
  Se  Se13  1  0.30920400  0.59465100  0.15462300  1
  Se  Se14  1  0.69079600  0.09465100  0.34537700  1
  Se  Se15  1  0.30920400  0.90534900  0.84537700  1
  Se  Se16  1  0.18254900  0.63598300  0.25000000  1
  Se  Se17  1  0.81745100  0.36401700  0.75000000  1
  Se  Se18  1  0.18254900  0.86401700  0.75000000  1
  Se  Se19  1  0.81745100  0.13598300  0.25000000  1
  Se  Se20  1  0.65236900  0.33301800  0.35646900  1
  Se  Se21  1  0.34763100  0.66698200  0.85646900  1
  Se  Se22  1  0.65236900  0.16698200  0.64353100  1
  Se  Se23  1  0.34763100  0.83301800  0.14353100  1
  Se  Se24  1  0.34763100  0.66698200  0.64353100  1
  Se  Se25  1  0.65236900  0.33301800  0.14353100  1
  Se  Se26  1  0.34763100  0.83301800  0.35646900  1
  Se  Se27  1  0.65236900  0.16698200  0.85646900  1
  Se  Se28  1  0.60683000  0.46003200  0.42927500  1
  Se  Se29  1  0.39317000  0.53996800  0.92927500  1
  Se  Se30  1  0.60683000  0.03996800  0.57072500  1
  Se  Se31  1  0.39317000  0.96003200  0.07072500  1
  Se  Se32  1  0.39317000  0.53996800  0.57072500  1
  Se  Se33  1  0.60683000  0.46003200  0.07072500  1
  Se  Se34  1  0.39317000  0.96003200  0.42927500  1
  Se  Se35  1  0.60683000  0.03996800  0.92927500  1
  Se  Se36  1  0.81036900  0.51079700  0.47331000  1
  Se  Se37  1  0.18963100  0.48920300  0.97331000  1
  Se  Se38  1  0.81036900  0.98920300  0.52669000  1
  Se  Se39  1  0.18963100  0.01079700  0.02669000  1
  Se  Se40  1  0.18963100  0.48920300  0.52669000  1
  Se  Se41  1  0.81036900  0.51079700  0.02669000  1
  Se  Se42  1  0.18963100  0.01079700  0.47331000  1
  Se  Se43  1  0.81036900  0.98920300  0.97331000  1
  Se  Se44  1  0.92744400  0.58269500  0.38495600  1
  Se  Se45  1  0.07255600  0.41730500  0.88495600  1
  Se  Se46  1  0.92744400  0.91730500  0.61504400  1
  Se  Se47  1  0.07255600  0.08269500  0.11504400  1
  Se  Se48  1  0.07255600  0.41730500  0.61504400  1
  Se  Se49  1  0.92744400  0.58269500  0.11504400  1
  Se  Se50  1  0.07255600  0.08269500  0.38495600  1
  Se  Se51  1  0.92744400  0.91730500  0.88495600  1
  Se  Se52  1  0.86003800  0.74013700  0.37406700  1
  Se  Se53  1  0.13996200  0.25986300  0.87406700  1
  Se  Se54  1  0.86003800  0.75986300  0.62593300  1
  Se  Se55  1  0.13996200  0.24013700  0.12593300  1
  Se  Se56  1  0.13996200  0.25986300  0.62593300  1
  Se  Se57  1  0.86003800  0.74013700  0.12593300  1
  Se  Se58  1  0.13996200  0.24013700  0.37406700  1
  Se  Se59  1  0.86003800  0.75986300  0.87406700  1
loop_
_geom_bond_atom_site_label_1
_geom_bond_atom_site_label_2
_geom_bond_distance
_geom_bond_site_symmetry_2
Cs0 Se58 3.670168 1_655
Cs0 Se55 3.670168 1_655
Cs0 Se19 3.872092 1_555
Cs0 Se5 3.965842 1_655
Cs0 Se0 3.965842 1_655
Cs0 Se44 3.970914 1_555
Cs0 Se49 3.970914 1_555
Cs0 Se20 3.988541 1_555
Cs0 Se25 3.988541 1_555
Cs0 Se16 4.268947 1_655
Cs1 Se59 3.670168 1_455
Cs1 Se54 3.670168 1_455
Cs1 Se18 3.872092 1_555
Cs1 Se4 3.965842 1_455
Cs1 Se1 3.965842 1_455
Cs1 Se45 3.970914 1_555
Cs1 Se48 3.970914 1_555
Cs1 Se24 3.988541 1_555
Cs1 Se21 3.988541 1_555
Cs1 Se17 4.268947 1_455
Cs2 Se56 3.670168 1_655
Cs2 Se53 3.670168 1_655
Cs2 Se17 3.872092 1_555
Cs2 Se7 3.965842 1_655
Cs2 Se2 3.965842 1_655
Cs2 Se46 3.970914 1_545
Cs2 Se51 3.970914 1_545
Cs2 Se27 3.988541 1_555
Cs2 Se22 3.988541 1_555
Cs2 Se18 4.268947 1_645
Cs3 Se52 3.670168 1_455
Cs3 Se57 3.670168 1_455
Cs3 Se16 3.872092 1_555
Cs3 Se3 3.965842 1_455
Cs3 Se6 3.965842 1_455
Cs3 Se50 3.970914 1_565
Cs3 Se47 3.970914 1_565
Cs3 Se26 3.988541 1_555
Cs3 Se23 3.988541 1_555
Cs3 Se19 4.268947 1_465
Cs4 Se52 3.693420 1_555
Cs4 Se57 3.693420 1_555
Cs4 Se44 3.923932 1_555
Cs4 Se49 3.923932 1_555
Cs4 Te0 3.933964 1_555
Cs4 Te3 4.010038 1_555
Cs4 Se13 4.116387 1_555
Cs4 Se8 4.116387 1_555
Cs4 Se28 4.276386 1_555
Cs4 Se33 4.276386 1_555
Cs5 Se56 3.693420 1_555
Cs5 Se53 3.693420 1_555
Cs5 Se45 3.923932 1_555
Cs5 Se48 3.923932 1_555
Cs5 Te1 3.933964 1_555
Cs5 Te2 4.010038 1_555
Cs5 Se12 4.116387 1_555
Cs5 Se9 4.116387 1_555
Cs5 Se29 4.276386 1_555
Cs5 Se32 4.276386 1_555
Cs6 Se59 3.693420 1_555
Cs6 Se54 3.693420 1_555
Cs6 Se46 3.923932 1_555
Cs6 Se51 3.923932 1_555
Cs6 Te2 3.933964 1_565
Cs6 Te1 4.010038 1_555
Cs6 Se15 4.116387 1_555
Cs6 Se10 4.116387 1_555
Cs6 Se30 4.276386 1_565
Cs6 Se35 4.276386 1_565
Cs7 Se58 3.693420 1_555
Cs7 Se55 3.693420 1_555
Cs7 Se50 3.923932 1_555
Cs7 Se47 3.923932 1_555
Cs7 Te3 3.933964 1_545
Cs7 Te0 4.010038 1_555
Cs7 Se11 4.116387 1_555
Cs7 Se14 4.116387 1_555
Cs7 Se34 4.276386 1_545
Cs7 Se31 4.276386 1_545
Cs8 Se56 3.661191 1_655
Cs8 Se58 3.661191 1_655
Cs8 Se50 3.857027 1_655
Cs8 Se48 3.857027 1_655
Cs8 Se38 3.862333 1_545
Cs8 Se36 3.862333 1_555
Cs8 Se22 3.939631 1_555
Cs8 Se20 3.939631 1_555
Cs8 Se12 4.315305 1_555
Cs8 Se14 4.315305 1_555
Cs9 Se59 3.661191 1_454
Cs9 Se57 3.661191 1_455
Cs9 Se49 3.857027 1_455
Cs9 Se51 3.857027 1_454
Cs9 Se39 3.862333 1_565
Cs9 Se37 3.862333 1_554
Cs9 Se21 3.939631 1_554
Cs9 Se23 3.939631 1_555
Cs9 Se15 4.315305 1_554
Cs9 Se13 4.315305 1_555
Cs10 Se54 3.661191 1_455
Cs10 Se52 3.661191 1_455
Cs10 Se44 3.857027 1_455
Cs10 Se46 3.857027 1_455
Cs10 Se42 3.862333 1_565
Cs10 Se40 3.862333 1_555
Cs10 Se24 3.939631 1_555
Cs10 Se26 3.939631 1_555
Cs10 Se10 4.315305 1_555
Cs10 Se8 4.315305 1_555
Cs11 Se55 3.661191 1_655
Cs11 Se53 3.661191 1_654
Cs11 Se47 3.857027 1_655
Cs11 Se45 3.857027 1_654
Cs11 Se41 3.862333 1_555
Cs11 Se43 3.862333 1_544
Cs11 Se27 3.939631 1_554
Cs11 Se25 3.939631 1_555
Cs11 Se9 4.315305 1_554
Cs11 Se11 4.315305 1_555
Cs12 Se56 3.687400 1_555
Cs12 Se58 3.687400 1_555
Cs12 Se28 3.975746 1_555
Cs12 Se30 3.975746 1_555
Cs12 Se20 4.080016 1_555
Cs12 Se22 4.080016 1_555
Cs12 Se40 4.099964 1_555
Cs12 Se42 4.099964 1_555
Cs12 Se0 4.100447 1_555
Cs12 Se2 4.100447 1_555
Cs13 Se57 3.687400 1_555
Cs13 Se59 3.687400 1_554
Cs13 Se31 3.975746 1_555
Cs13 Se29 3.975746 1_554
Cs13 Se21 4.080016 1_554
Cs13 Se23 4.080016 1_555
Cs13 Se43 4.099964 1_554
Cs13 Se41 4.099964 1_555
Cs13 Se3 4.100447 1_555
Cs13 Se1 4.100447 1_554
Cs14 Se54 3.687400 1_555
Cs14 Se52 3.687400 1_555
Cs14 Se34 3.975746 1_555
Cs14 Se32 3.975746 1_555
Cs14 Se24 4.080016 1_555
Cs14 Se26 4.080016 1_555
Cs14 Se38 4.099964 1_555
Cs14 Se36 4.099964 1_555
Cs14 Se6 4.100447 1_555
Cs14 Se4 4.100447 1_555
Cs15 Se53 3.687400 1_554
Cs15 Se55 3.687400 1_555
Cs15 Se33 3.975746 1_555
Cs15 Se35 3.975746 1_554
Cs15 Se27 4.080016 1_554
Cs15 Se25 4.080016 1_555
Cs15 Se37 4.099964 1_554
Cs15 Se39 4.099964 1_555
Cs15 Se5 4.100447 1_555
Cs15 Se7 4.100447 1_554
Se0 Se8 2.406681 1_555
Se0 Te0 2.743481 1_555
Se1 Se9 2.406681 1_555
Se1 Te1 2.743481 1_555
Se2 Te2 2.743481 1_555
Se3 Te3 2.743481 1_555
Se4 Te1 2.743481 1_555
Se5 Te0 2.743481 1_555
Se6 Te3 2.743481 1_555
Se7 Te2 2.743481 1_555
Se10 Se18 2.393138 1_555
Se10 Se2 2.406681 1_565
Se11 Se19 2.393138 1_555
Se11 Se3 2.406681 1_545
Se12 Se17 2.393138 1_555
Se12 Se4 2.406681 1_555
Se13 Se16 2.393138 1_555
Se13 Se5 2.406681 1_555
Se14 Se19 2.393138 1_555
Se14 Se6 2.406681 1_545
Se15 Se18 2.393138 1_555
Se15 Se7 2.406681 1_565
Se16 Se8 2.393138 1_555
Se17 Se9 2.393138 1_555
Se20 Se28 2.381462 1_555
Se20 Te0 2.973463 1_555
Se21 Se29 2.381462 1_555
Se21 Te1 2.973463 1_555
Se22 Se30 2.381462 1_555
Se22 Te2 2.973463 1_555
Se23 Se31 2.381462 1_555
Se23 Te3 2.973463 1_555
Se24 Se32 2.381462 1_555
Se24 Te1 2.973463 1_555
Se25 Se33 2.381462 1_555
Se25 Te0 2.973463 1_555
Se26 Se34 2.381462 1_555
Se26 Te3 2.973463 1_555
Se27 Se35 2.381462 1_555
Se27 Te2 2.973463 1_555
Se28 Se36 2.407462 1_555
Se29 Se37 2.407462 1_555
Se30 Se38 2.407462 1_545
Se31 Se39 2.407462 1_565
Se32 Se40 2.407462 1_555
Se33 Se41 2.407462 1_555
Se34 Se42 2.407462 1_565
Se35 Se43 2.407462 1_545
Se36 Se44 2.381633 1_555
Se37 Se45 2.381633 1_555
Se38 Se46 2.381633 1_555
Se39 Se47 2.381633 1_555
Se40 Se48 2.381633 1_555
Se41 Se49 2.381633 1_555
Se42 Se50 2.381633 1_555
Se43 Se51 2.381633 1_555
Se44 Se52 2.377551 1_555
Se45 Se53 2.377551 1_555
Se46 Se54 2.377551 1_555
Se47 Se55 2.377551 1_555
Se48 Se56 2.377551 1_555
Se49 Se57 2.377551 1_555
Se50 Se58 2.377551 1_555
Se51 Se59 2.377551 1_555
