# generated using pymatgen
data_CeMg(N3O13)2
_symmetry_space_group_name_H-M   'P 1'
_cell_length_a   8.69633800
_cell_length_b   8.73306600
_cell_length_c   13.45944349
_cell_angle_alpha   89.51284919
_cell_angle_beta   90.00000000
_cell_angle_gamma   90.00000000
_symmetry_Int_Tables_number   1
_chemical_formula_structural   CeMg(N3O13)2
_chemical_formula_sum   'Ce2 Mg2 N12 O52'
_cell_volume   1022.14982601
_cell_formula_units_Z   2
loop_
 _symmetry_equiv_pos_site_id
 _symmetry_equiv_pos_as_xyz
  1  'x, y, z'
loop_
 _atom_site_type_symbol
 _atom_site_label
 _atom_site_symmetry_multiplicity
 _atom_site_fract_x
 _atom_site_fract_y
 _atom_site_fract_z
 _atom_site_occupancy
  Ce  Ce0  1  0.00000000  0.00000000  0.00000000  1
  Ce  Ce1  1  0.50000000  0.00000000  0.50000000  1
  Mg  Mg0  1  0.00000000  0.50000000  0.50000000  1
  Mg  Mg1  1  0.50000000  0.50000000  0.00000000  1
  N  N0  1  0.67872900  0.94784900  0.07447100  1
  N  N1  1  0.17872900  0.05215100  0.42552900  1
  N  N2  1  0.32127100  0.05215100  0.92552900  1
  N  N3  1  0.82127100  0.94784900  0.57447100  1
  N  N4  1  0.11823800  0.81306600  0.17521800  1
  N  N5  1  0.61823800  0.18693400  0.32478200  1
  N  N6  1  0.88176200  0.18693400  0.82478200  1
  N  N7  1  0.38176200  0.81306600  0.67521800  1
  N  N8  1  0.96022600  0.70929900  0.88889200  1
  N  N9  1  0.46022600  0.29070100  0.61110800  1
  N  N10  1  0.03977400  0.29070100  0.11110800  1
  N  N11  1  0.53977400  0.70929900  0.38889200  1
  O  O0  1  0.74388700  0.85433400  0.01402700  1
  O  O1  1  0.24388700  0.14566600  0.48597300  1
  O  O2  1  0.25611300  0.14566600  0.98597300  1
  O  O3  1  0.75611300  0.85433400  0.51402700  1
  O  O4  1  0.75897900  0.06624500  0.09636100  1
  O  O5  1  0.25897900  0.93375500  0.40363900  1
  O  O6  1  0.24102100  0.93375500  0.90363900  1
  O  O7  1  0.74102100  0.06624500  0.59636100  1
  O  O8  1  0.54993900  0.92436800  0.10834900  1
  O  O9  1  0.04993900  0.07563200  0.39165100  1
  O  O10  1  0.45006100  0.07563200  0.89165100  1
  O  O11  1  0.95006100  0.92436800  0.60834900  1
  O  O12  1  0.97709600  0.85034500  0.16677400  1
  O  O13  1  0.47709600  0.14965500  0.33322600  1
  O  O14  1  0.02290400  0.14965500  0.83322600  1
  O  O15  1  0.52290400  0.85034500  0.66677400  1
  O  O16  1  0.21008200  0.86469400  0.10908800  1
  O  O17  1  0.71008200  0.13530600  0.39091200  1
  O  O18  1  0.78991800  0.13530600  0.89091200  1
  O  O19  1  0.28991800  0.86469400  0.60908800  1
  O  O20  1  0.16476400  0.72982600  0.24382800  1
  O  O21  1  0.66476400  0.27017400  0.25617200  1
  O  O22  1  0.83523600  0.27017400  0.75617200  1
  O  O23  1  0.33523600  0.72982600  0.74382800  1
  O  O24  1  0.02737900  0.71368800  0.97397400  1
  O  O25  1  0.52737900  0.28631200  0.52602600  1
  O  O26  1  0.97262100  0.28631200  0.02602600  1
  O  O27  1  0.47262100  0.71368800  0.47397400  1
  O  O28  1  0.92574600  0.83878100  0.84998600  1
  O  O29  1  0.42574600  0.16121900  0.65001400  1
  O  O30  1  0.07425400  0.16121900  0.15001400  1
  O  O31  1  0.57425400  0.83878100  0.34998600  1
  O  O32  1  0.93000300  0.58640900  0.84827600  1
  O  O33  1  0.43000300  0.41359100  0.65172400  1
  O  O34  1  0.06999700  0.41359100  0.15172400  1
  O  O35  1  0.56999700  0.58640900  0.34827600  1
  O  O36  1  0.95331800  0.64564300  0.38022200  1
  O  O37  1  0.45331800  0.35435700  0.11977800  1
  O  O38  1  0.04668200  0.35435700  0.61977800  1
  O  O39  1  0.54668200  0.64564300  0.88022200  1
  O  O40  1  0.89787800  0.51268400  0.35787000  1
  O  O41  1  0.39787800  0.48731600  0.14213000  1
  O  O42  1  0.10212200  0.48731600  0.64213000  1
  O  O43  1  0.60212200  0.51268400  0.85787000  1
  O  O44  1  0.22134900  0.46071100  0.42146500  1
  O  O45  1  0.72135000  0.53928900  0.07853500  1
  O  O46  1  0.77865100  0.53928900  0.57853500  1
  O  O47  1  0.27865100  0.46071100  0.92146500  1
  O  O48  1  0.75592500  0.58218100  0.16290000  1
  O  O49  1  0.25592500  0.41781900  0.33710000  1
  O  O50  1  0.24407500  0.41781900  0.83710000  1
  O  O51  1  0.74407500  0.58218100  0.66290000  1
loop_
_geom_bond_atom_site_label_1
_geom_bond_atom_site_label_2
_geom_bond_distance
_geom_bond_site_symmetry_2
Ce0 O4 2.534321 1_455
Ce0 O6 2.534321 1_544
Ce0 O26 2.538937 1_455
Ce0 O24 2.538937 1_544
Ce0 O28 2.554288 1_444
Ce0 O30 2.554288 1_555
Ce0 O2 2.571079 1_554
Ce0 O0 2.571079 1_445
Ce0 O12 2.595479 1_445
Ce0 O14 2.595479 1_554
Ce0 O18 2.619215 1_454
Ce0 O16 2.619215 1_545
Ce1 O5 2.534321 1_545
Ce1 O7 2.534321 1_555
Ce1 O25 2.538937 1_555
Ce1 O27 2.538937 1_545
Ce1 O31 2.554288 1_545
Ce1 O29 2.554288 1_555
Ce1 O1 2.571079 1_555
Ce1 O3 2.571079 1_545
Ce1 O13 2.595479 1_555
Ce1 O15 2.595479 1_545
Ce1 O19 2.619215 1_545
Ce1 O17 2.619215 1_555
Mg0 O36 2.084875 1_455
Mg0 O38 2.084875 1_555
Mg0 O40 2.111137 1_455
Mg0 O42 2.111137 1_555
Mg0 O44 2.224087 1_555
Mg0 O46 2.224087 1_455
Mg1 O37 2.084875 1_555
Mg1 O39 2.084875 1_554
Mg1 O43 2.111137 1_554
Mg1 O41 2.111137 1_555
Mg1 O47 2.224087 1_554
Mg1 O45 2.224094 1_555
N0 O8 1.225879 1_555
N0 O4 1.283782 1_565
N0 O0 1.288868 1_555
N1 O9 1.225879 1_555
N1 O5 1.283782 1_545
N1 O1 1.288868 1_555
N2 O10 1.225879 1_555
N2 O6 1.283782 1_545
N2 O2 1.288868 1_555
N3 O11 1.225879 1_555
N3 O7 1.283782 1_565
N3 O3 1.288868 1_555
N4 O20 1.238345 1_555
N4 O12 1.274689 1_455
N4 O16 1.275391 1_555
N5 O21 1.238345 1_555
N5 O13 1.274689 1_555
N5 O17 1.275391 1_555
N6 O22 1.238345 1_555
N6 O14 1.274689 1_655
N6 O18 1.275391 1_555
N7 O23 1.238345 1_555
N7 O15 1.274689 1_555
N7 O19 1.275391 1_555
N8 O32 1.236800 1_555
N8 O28 1.277774 1_555
N8 O24 1.286327 1_655
N9 O33 1.236800 1_555
N9 O29 1.277774 1_555
N9 O25 1.286327 1_555
N10 O34 1.236800 1_555
N10 O30 1.277774 1_555
N10 O26 1.286327 1_455
N11 O35 1.236800 1_555
N11 O31 1.277774 1_555
N11 O27 1.286327 1_555
O36 O40 1.295044 1_555
O37 O41 1.295044 1_555
O38 O42 1.295044 1_555
O39 O43 1.295044 1_555
O44 O49 1.235851 1_555
O45 O48 1.235849 1_555
O46 O51 1.235851 1_555
O47 O50 1.235851 1_555
