# generated using pymatgen
data_Zr64S127
_symmetry_space_group_name_H-M   'P 1'
_cell_length_a   14.83776746
_cell_length_b   14.83776835
_cell_length_c   26.59132081
_cell_angle_alpha   90.00022303
_cell_angle_beta   89.99980852
_cell_angle_gamma   120.00004402
_symmetry_Int_Tables_number   1
_chemical_formula_structural   Zr64S127
_chemical_formula_sum   'Zr64 S127'
_cell_volume   5069.99458516
_cell_formula_units_Z   1
loop_
 _symmetry_equiv_pos_site_id
 _symmetry_equiv_pos_as_xyz
  1  'x, y, z'
loop_
 _atom_site_type_symbol
 _atom_site_label
 _atom_site_symmetry_multiplicity
 _atom_site_fract_x
 _atom_site_fract_y
 _atom_site_fract_z
 _atom_site_occupancy
  Zr  Zr0  1  0.98554622  0.01445460  0.98900620  1
  Zr  Zr1  1  0.00000141  0.99999776  0.74963535  1
  Zr  Zr2  1  0.99999957  -0.00000019  0.49997760  1
  Zr  Zr3  1  0.99996426  0.00003693  0.24975557  1
  Zr  Zr4  1  0.00093355  0.25662190  0.00279846  1
  Zr  Zr5  1  0.99999851  0.25001018  0.74981406  1
  Zr  Zr6  1  0.00000176  0.25000915  0.49999032  1
  Zr  Zr7  1  0.99996829  0.24994458  0.25034490  1
  Zr  Zr8  1  0.00093406  0.49431394  0.00279910  1
  Zr  Zr9  1  0.99999744  0.49998490  0.74981408  1
  Zr  Zr10  1  0.00000268  0.49999253  0.49999251  1
  Zr  Zr11  1  0.99996762  0.50002615  0.25034410  1
  Zr  Zr12  1  0.98554735  0.72109593  0.98900916  1
  Zr  Zr13  1  0.00000066  0.75000018  0.74963670  1
  Zr  Zr14  1  0.99999840  0.74999870  0.49997900  1
  Zr  Zr15  1  0.99996578  0.74993242  0.24975701  1
  Zr  Zr16  1  0.74991963  0.74996139  0.00031476  1
  Zr  Zr17  1  0.74992914  0.74996268  0.74996010  1
  Zr  Zr18  1  0.74999059  0.74999487  0.49999562  1
  Zr  Zr19  1  0.74988802  0.74994485  0.24948710  1
  Zr  Zr20  1  0.74337882  0.99906727  0.00279801  1
  Zr  Zr21  1  0.74998896  0.00000082  0.74981406  1
  Zr  Zr22  1  0.74999111  0.99999793  0.49999023  1
  Zr  Zr23  1  0.75005503  0.00003158  0.25034480  1
  Zr  Zr24  1  0.74999938  0.25000024  0.00440216  1
  Zr  Zr25  1  0.75000026  0.24999948  0.74978149  1
  Zr  Zr26  1  0.74999892  0.24999987  0.50004145  1
  Zr  Zr27  1  0.74999964  0.25000004  0.25053859  1
  Zr  Zr28  1  0.74338038  0.49431388  0.00280001  1
  Zr  Zr29  1  0.74998814  0.49998570  0.74981239  1
  Zr  Zr30  1  0.74998980  0.49999160  0.49999268  1
  Zr  Zr31  1  0.75005738  0.50002594  0.25034343  1
  Zr  Zr32  1  0.49942587  0.50057453  0.99970865  1
  Zr  Zr33  1  0.49998296  0.50001703  0.75017070  1
  Zr  Zr34  1  0.50000220  0.49999706  0.49996967  1
  Zr  Zr35  1  0.49999312  0.50000668  0.24991762  1
  Zr  Zr36  1  0.49942439  0.74884990  0.99971011  1
  Zr  Zr37  1  0.49998180  0.74996513  0.75017007  1
  Zr  Zr38  1  0.50000249  0.75000418  0.49996872  1
  Zr  Zr39  1  0.49999179  0.74998403  0.24991725  1
  Zr  Zr40  1  0.50568576  0.99906530  0.00279908  1
  Zr  Zr41  1  0.50001515  0.00000283  0.74981386  1
  Zr  Zr42  1  0.50000726  0.99999803  0.49999198  1
  Zr  Zr43  1  0.49997405  0.00003262  0.25034481  1
  Zr  Zr44  1  0.50568580  0.25662050  0.00279992  1
  Zr  Zr45  1  0.50001432  0.25001151  0.74981218  1
  Zr  Zr46  1  0.50000721  0.25000941  0.49999215  1
  Zr  Zr47  1  0.49997529  0.24994317  0.25034280  1
  Zr  Zr48  1  0.25003841  0.25007961  0.00031439  1
  Zr  Zr49  1  0.25003662  0.25007000  0.74996025  1
  Zr  Zr50  1  0.25000390  0.25000793  0.49999590  1
  Zr  Zr51  1  0.25005539  0.25011245  0.24948689  1
  Zr  Zr52  1  0.25114993  0.50057438  0.99971036  1
  Zr  Zr53  1  0.25003479  0.50001678  0.75016998  1
  Zr  Zr54  1  0.24999677  0.49999858  0.49996891  1
  Zr  Zr55  1  0.25001588  0.50000820  0.24991731  1
  Zr  Zr56  1  0.25003890  0.74996065  0.00031233  1
  Zr  Zr57  1  0.25003477  0.74996435  0.74995931  1
  Zr  Zr58  1  0.25000409  0.74999558  0.49999676  1
  Zr  Zr59  1  0.25005602  0.74994341  0.24948703  1
  Zr  Zr60  1  0.27890448  0.01445379  0.98900913  1
  Zr  Zr61  1  0.24999852  0.99999742  0.74963701  1
  Zr  Zr62  1  0.25000024  0.00000066  0.49997843  1
  Zr  Zr63  1  0.25006886  0.00003563  0.24975677  1
  S  S0  1  0.90769393  0.09230779  0.93967691  1
  S  S1  1  0.91662275  0.08337800  0.69533374  1
  S  S2  1  0.91665771  0.08334184  0.44556022  1
  S  S3  1  0.91643119  0.08356804  0.19563491  1
  S  S4  1  0.91506266  0.33253216  0.94742864  1
  S  S5  1  0.91668065  0.33333996  0.69539797  1
  S  S6  1  0.91663915  0.33332174  0.44556908  1
  S  S7  1  0.91641341  0.33320495  0.19599712  1
  S  S8  1  0.90769596  0.56539007  0.93967903  1
  S  S9  1  0.91662371  0.58324444  0.69533360  1
  S  S10  1  0.91665595  0.58331269  0.44556166  1
  S  S11  1  0.91643248  0.58286075  0.19563419  1
  S  S12  1  0.92377509  0.83688804  0.94864536  1
  S  S13  1  0.91644140  0.83321916  0.69537821  1
  S  S14  1  0.91666261  0.83333117  0.44555684  1
  S  S15  1  0.91673045  0.83336430  0.19504948  1
  S  S16  1  0.66654864  0.83379246  0.94642052  1
  S  S17  1  0.66647339  0.83314629  0.69559359  1
  S  S18  1  0.66667687  0.83334089  0.44554440  1
  S  S19  1  0.66670893  0.83380975  0.19542869  1
  S  S20  1  0.66746742  0.08493785  0.94742825  1
  S  S21  1  0.66666065  0.08331936  0.69539816  1
  S  S22  1  0.66667836  0.08336116  0.44556848  1
  S  S23  1  0.66679464  0.08358592  0.19599743  1
  S  S24  1  0.66746821  0.33253072  0.94742886  1
  S  S25  1  0.66666090  0.33333884  0.69539617  1
  S  S26  1  0.66667898  0.33332027  0.44556920  1
  S  S27  1  0.66679451  0.33320557  0.19599676  1
  S  S28  1  0.66654945  0.58275607  0.94642062  1
  S  S29  1  0.66647214  0.58332595  0.69559265  1
  S  S30  1  0.66667534  0.58333406  0.44554523  1
  S  S31  1  0.66670858  0.58289729  0.19542831  1
  S  S32  1  0.41666731  0.58333328  0.94486120  1
  S  S33  1  0.41666783  0.58333374  0.69570225  1
  S  S34  1  0.41666781  0.58333311  0.44553549  1
  S  S35  1  0.41666751  0.58333358  0.19544746  1
  S  S36  1  0.41724632  0.83379443  0.94641992  1
  S  S37  1  0.41667427  0.83314621  0.69559364  1
  S  S38  1  0.41666505  0.83334124  0.44554657  1
  S  S39  1  0.41710322  0.83380957  0.19542832  1
  S  S40  1  0.43460940  0.09230480  0.93967832  1
  S  S41  1  0.41675536  0.08337664  0.69533338  1
  S  S42  1  0.41668684  0.08334298  0.44556148  1
  S  S43  1  0.41713761  0.08356602  0.19563412  1
  S  S44  1  0.41724486  0.33345140  0.94642072  1
  S  S45  1  0.41667332  0.33352808  0.69559288  1
  S  S46  1  0.41666574  0.33332482  0.44554564  1
  S  S47  1  0.41710208  0.33329116  0.19542799  1
  S  S48  1  0.16620717  0.33345204  0.94642024  1
  S  S49  1  0.16685436  0.33352706  0.69559381  1
  S  S50  1  0.16665997  0.33332349  0.44554492  1
  S  S51  1  0.16619065  0.33329155  0.19542865  1
  S  S52  1  0.16620561  0.58275390  0.94642003  1
  S  S53  1  0.16685394  0.58332583  0.69559364  1
  S  S54  1  0.16665852  0.58333454  0.44554649  1
  S  S55  1  0.16619079  0.58289760  0.19542817  1
  S  S56  1  0.16311066  0.83688962  0.94864521  1
  S  S57  1  0.16678030  0.83321988  0.69537853  1
  S  S58  1  0.16666998  0.83332981  0.44555755  1
  S  S59  1  0.16663618  0.83336372  0.19504916  1
  S  S60  1  0.16311200  0.07622443  0.94864522  1
  S  S61  1  0.16678064  0.08355846  0.69537853  1
  S  S62  1  0.16666868  0.08333733  0.44555671  1
  S  S63  1  0.16663531  0.08326956  0.19504939  1
  S  S64  1  0.83353233  0.91682935  0.80432189  1
  S  S65  1  0.83333286  0.91666647  0.55441783  1
  S  S66  1  0.83363085  0.91627966  0.30423808  1
  S  S67  1  0.83996832  0.92143601  0.05221186  1
  S  S68  1  0.83329421  0.16670603  0.80426056  1
  S  S69  1  0.83334460  0.16665499  0.55443649  1
  S  S70  1  0.83350963  0.16649059  0.30484754  1
  S  S71  1  0.83376685  0.16623373  0.05704449  1
  S  S72  1  0.83329432  0.41659049  0.80426078  1
  S  S73  1  0.83334709  0.41669439  0.55443800  1
  S  S74  1  0.83350973  0.41701886  0.30484730  1
  S  S75  1  0.83376962  0.41753578  0.05704561  1
  S  S76  1  0.83353220  0.66670201  0.80432261  1
  S  S77  1  0.83333110  0.66666825  0.55441913  1
  S  S78  1  0.83362757  0.66734775  0.30423804  1
  S  S79  1  0.83996861  0.66853628  0.05221418  1
  S  S80  1  0.58348148  0.66674051  0.80460156  1
  S  S81  1  0.58331205  0.66665697  0.55441376  1
  S  S82  1  0.58360908  0.66680210  0.30416833  1
  S  S83  1  0.58463318  0.66731724  0.05484344  1
  S  S84  1  0.58348021  0.91695914  0.80439432  1
  S  S85  1  0.58332434  0.91664970  0.55441829  1
  S  S86  1  0.58315146  0.91630166  0.30461537  1
  S  S87  1  0.58250436  0.91500923  0.05868401  1
  S  S88  1  0.58340941  0.16670595  0.80426062  1
  S  S89  1  0.58330560  0.16665277  0.55443791  1
  S  S90  1  0.58298140  0.16649160  0.30484731  1
  S  S91  1  0.58246365  0.16623007  0.05704547  1
  S  S92  1  0.58347993  0.41652021  0.80439458  1
  S  S93  1  0.58332496  0.41667671  0.55442007  1
  S  S94  1  0.58315133  0.41684737  0.30461415  1
  S  S95  1  0.58250353  0.41749668  0.05868488  1
  S  S96  1  0.33325944  0.41651913  0.80460135  1
  S  S97  1  0.33334317  0.41668873  0.55441330  1
  S  S98  1  0.33319692  0.41639002  0.30416814  1
  S  S99  1  0.33268275  0.41536723  0.05484366  1
  S  S100  1  0.33326062  0.66674105  0.80460064  1
  S  S101  1  0.33334473  0.66665563  0.55441347  1
  S  S102  1  0.33319578  0.66680434  0.30416926  1
  S  S103  1  0.33268097  0.66731916  0.05484400  1
  S  S104  1  0.33329811  0.91682956  0.80432208  1
  S  S105  1  0.33333179  0.91666482  0.55441878  1
  S  S106  1  0.33265147  0.91627877  0.30423869  1
  S  S107  1  0.33146475  0.92143337  0.05221295  1
  S  S108  1  0.33329881  0.16646863  0.80432242  1
  S  S109  1  0.33333127  0.16666790  0.55441912  1
  S  S110  1  0.33265181  0.16637217  0.30423800  1
  S  S111  1  0.33146336  0.16003126  0.05221427  1
  S  S112  1  0.08317010  0.16646782  0.80432185  1
  S  S113  1  0.08333310  0.16666659  0.55441759  1
  S  S114  1  0.08372016  0.16636866  0.30423810  1
  S  S115  1  0.07856355  0.16003192  0.05221219  1
  S  S116  1  0.08304227  0.41652054  0.80439440  1
  S  S117  1  0.08335143  0.41667537  0.55441872  1
  S  S118  1  0.08369770  0.41684848  0.30461511  1
  S  S119  1  0.08498992  0.41749528  0.05868483  1
  S  S120  1  0.08317090  0.66670196  0.80432216  1
  S  S121  1  0.08333425  0.66666705  0.55441889  1
  S  S122  1  0.08372097  0.66734816  0.30423877  1
  S  S123  1  0.07856591  0.66853436  0.05221296  1
  S  S124  1  0.08333320  0.91666698  0.80413765  1
  S  S125  1  0.08333185  0.91666709  0.55440972  1
  S  S126  1  0.08333286  0.91666687  0.30411828  1
loop_
_geom_bond_atom_site_label_1
_geom_bond_atom_site_label_2
_geom_bond_distance
_geom_bond_site_symmetry_2
S0 Zr0 2.392457 1_555
S0 Zr4 2.702298 1_656
S0 Zr20 2.702302 1_546
S1 Zr1 2.583942 1_645
S1 Zr5 2.585242 1_555
S1 Zr21 2.585261 1_555
S2 Zr22 2.584860 1_545
S2 Zr2 2.584865 1_555
S2 Zr6 2.584868 1_655
S3 Zr3 2.584513 1_555
S3 Zr23 2.585954 1_555
S3 Zr7 2.585958 1_555
S4 Zr4 2.548533 1_656
S4 Zr8 2.548540 1_656
S4 Zr24 2.606538 1_556
S5 Zr25 2.584315 1_555
S5 Zr9 2.584422 1_555
S5 Zr5 2.584459 1_555
S6 Zr10 2.584806 1_655
S6 Zr6 2.584830 1_655
S6 Zr26 2.585211 1_555
S7 Zr27 2.583832 1_555
S7 Zr7 2.585229 1_555
S7 Zr11 2.585272 1_555
S8 Zr12 2.392465 1_555
S8 Zr8 2.702283 1_656
S8 Zr28 2.702303 1_556
S9 Zr13 2.583921 1_655
S9 Zr29 2.585257 1_555
S9 Zr9 2.585266 1_555
S10 Zr30 2.584871 1_555
S10 Zr14 2.584877 1_555
S10 Zr10 2.584884 1_655
S11 Zr15 2.584616 1_555
S11 Zr11 2.585894 1_555
S11 Zr31 2.585933 1_555
S12 Zr0 2.553171 1_565
S12 Zr12 2.553182 1_555
S12 Zr16 2.622709 1_556
S13 Zr1 2.583483 1_655
S13 Zr13 2.583509 1_655
S13 Zr17 2.585482 1_555
S14 Zr2 2.584743 1_565
S14 Zr14 2.584769 1_555
S14 Zr18 2.585049 1_555
S15 Zr19 2.586846 1_555
S15 Zr15 2.589015 1_555
S15 Zr3 2.589042 1_565
S16 Zr36 2.572991 1_555
S16 Zr16 2.582642 1_556
S16 Zr20 2.601005 1_556
S17 Zr17 2.583634 1_555
S17 Zr21 2.583747 1_565
S17 Zr37 2.585182 1_555
S18 Zr38 2.584858 1_555
S18 Zr22 2.584993 1_555
S18 Zr18 2.585111 1_555
S19 Zr19 2.583382 1_555
S19 Zr39 2.586280 1_555
S19 Zr23 2.587402 1_565
S20 Zr20 2.548540 1_546
S20 Zr40 2.548546 1_546
S20 Zr24 2.606534 1_556
S21 Zr25 2.584308 1_555
S21 Zr41 2.584423 1_555
S21 Zr21 2.584448 1_555
S22 Zr42 2.584811 1_545
S22 Zr22 2.584845 1_545
S22 Zr26 2.585202 1_555
S23 Zr27 2.583830 1_555
S23 Zr23 2.585218 1_555
S23 Zr43 2.585272 1_555
S24 Zr44 2.548557 1_556
S24 Zr28 2.548564 1_556
S24 Zr24 2.606526 1_556
S25 Zr25 2.584332 1_555
S25 Zr45 2.584439 1_555
S25 Zr29 2.584444 1_555
S26 Zr46 2.584810 1_555
S26 Zr30 2.584813 1_555
S26 Zr26 2.585218 1_555
S27 Zr27 2.583812 1_555
S27 Zr47 2.585238 1_555
S27 Zr31 2.585258 1_555
S28 Zr32 2.572961 1_555
S28 Zr16 2.582666 1_556
S28 Zr28 2.601025 1_556
S29 Zr17 2.583611 1_555
S29 Zr29 2.583764 1_555
S29 Zr33 2.585180 1_555
S30 Zr34 2.584847 1_555
S30 Zr30 2.585025 1_555
S30 Zr18 2.585101 1_555
S31 Zr19 2.583416 1_555
S31 Zr35 2.586273 1_555
S31 Zr31 2.587378 1_555
S32 Zr32 2.578907 1_555
S32 Zr36 2.578913 1_555
S32 Zr52 2.578925 1_555
S33 Zr37 2.585048 1_555
S33 Zr53 2.585065 1_555
S33 Zr33 2.585071 1_555
S34 Zr38 2.584955 1_555
S34 Zr54 2.584958 1_555
S34 Zr34 2.584972 1_555
S35 Zr39 2.585280 1_555
S35 Zr55 2.585294 1_555
S35 Zr35 2.585317 1_555
S36 Zr36 2.572990 1_555
S36 Zr56 2.582664 1_556
S36 Zr40 2.600988 1_556
S37 Zr57 2.583615 1_555
S37 Zr41 2.583766 1_565
S37 Zr37 2.585158 1_555
S38 Zr38 2.584836 1_555
S38 Zr42 2.584984 1_555
S38 Zr58 2.585101 1_555
S39 Zr59 2.583412 1_555
S39 Zr39 2.586261 1_555
S39 Zr43 2.587420 1_565
S40 Zr60 2.392466 1_555
S40 Zr40 2.702312 1_546
S40 Zr44 2.702314 1_556
S41 Zr61 2.583942 1_545
S41 Zr45 2.585248 1_555
S41 Zr41 2.585269 1_555
S42 Zr42 2.584863 1_545
S42 Zr46 2.584867 1_555
S42 Zr62 2.584879 1_555
S43 Zr63 2.584584 1_555
S43 Zr43 2.585907 1_555
S43 Zr47 2.585945 1_555
S44 Zr32 2.572954 1_555
S44 Zr48 2.582672 1_556
S44 Zr44 2.601008 1_556
S45 Zr49 2.583610 1_555
S45 Zr45 2.583772 1_555
S45 Zr33 2.585173 1_555
S46 Zr34 2.584830 1_555
S46 Zr46 2.585011 1_555
S46 Zr50 2.585111 1_555
S47 Zr51 2.583409 1_555
S47 Zr35 2.586277 1_555
S47 Zr47 2.587385 1_555
S48 Zr52 2.572977 1_555
S48 Zr48 2.582658 1_556
S48 Zr4 2.601004 1_556
S49 Zr49 2.583633 1_555
S49 Zr5 2.583759 1_455
S49 Zr53 2.585157 1_555
S50 Zr54 2.584860 1_555
S50 Zr6 2.585000 1_555
S50 Zr50 2.585105 1_555
S51 Zr51 2.583377 1_555
S51 Zr55 2.586275 1_555
S51 Zr7 2.587410 1_455
S52 Zr52 2.573006 1_555
S52 Zr56 2.582654 1_556
S52 Zr8 2.600995 1_556
S53 Zr57 2.583603 1_555
S53 Zr9 2.583769 1_455
S53 Zr53 2.585170 1_555
S54 Zr54 2.584837 1_555
S54 Zr10 2.584984 1_555
S54 Zr58 2.585102 1_555
S55 Zr59 2.583398 1_555
S55 Zr55 2.586268 1_555
S55 Zr11 2.587414 1_455
S56 Zr12 2.553170 1_455
S56 Zr60 2.553178 1_565
S56 Zr56 2.622704 1_556
S57 Zr61 2.583492 1_555
S57 Zr13 2.583511 1_555
S57 Zr57 2.585450 1_555
S58 Zr62 2.584769 1_565
S58 Zr14 2.584786 1_455
S58 Zr58 2.585024 1_555
S59 Zr59 2.586834 1_555
S59 Zr15 2.589045 1_455
S59 Zr63 2.589057 1_565
S60 Zr0 2.553167 1_455
S60 Zr60 2.553171 1_555
S60 Zr48 2.622702 1_556
S61 Zr1 2.583486 1_545
S61 Zr61 2.583516 1_545
S61 Zr49 2.585471 1_555
S62 Zr2 2.584751 1_455
S62 Zr62 2.584762 1_555
S62 Zr50 2.585039 1_555
S63 Zr51 2.586848 1_555
S63 Zr63 2.589015 1_555
S63 Zr3 2.589027 1_455
S64 Zr17 2.585977 1_555
S64 Zr21 2.586543 1_565
S64 Zr1 2.586587 1_655
S65 Zr18 2.584796 1_555
S65 Zr22 2.584903 1_555
S65 Zr2 2.585014 1_565
S66 Zr3 2.582112 1_565
S66 Zr23 2.583969 1_565
S66 Zr19 2.586137 1_555
S67 Zr0 2.532643 1_564
S67 Zr20 2.599654 1_555
S67 Zr16 2.600693 1_555
S68 Zr25 2.584756 1_555
S68 Zr5 2.585507 1_555
S68 Zr21 2.585516 1_555
S69 Zr26 2.584603 1_555
S69 Zr22 2.585000 1_545
S69 Zr6 2.585001 1_655
S70 Zr7 2.583732 1_555
S70 Zr23 2.583736 1_555
S70 Zr27 2.586828 1_555
S71 Zr24 2.567891 1_555
S71 Zr4 2.589426 1_655
S71 Zr20 2.589429 1_545
S72 Zr25 2.584789 1_555
S72 Zr9 2.585498 1_555
S72 Zr29 2.585513 1_555
S73 Zr26 2.584659 1_555
S73 Zr30 2.584968 1_555
S73 Zr10 2.584974 1_655
S74 Zr11 2.583732 1_555
S74 Zr31 2.583767 1_555
S74 Zr27 2.586808 1_555
S75 Zr24 2.567915 1_555
S75 Zr8 2.589408 1_655
S75 Zr28 2.589435 1_555
S76 Zr17 2.585965 1_555
S76 Zr13 2.586571 1_655
S76 Zr29 2.586585 1_555
S77 Zr18 2.584777 1_555
S77 Zr30 2.584913 1_555
S77 Zr14 2.585019 1_555
S78 Zr15 2.582141 1_555
S78 Zr31 2.583916 1_555
S78 Zr19 2.586165 1_555
S79 Zr12 2.532638 1_554
S79 Zr28 2.599666 1_555
S79 Zr16 2.600730 1_555
S80 Zr33 2.585478 1_555
S80 Zr37 2.585506 1_555
S80 Zr17 2.585685 1_555
S81 Zr18 2.584811 1_555
S81 Zr38 2.584988 1_555
S81 Zr34 2.584998 1_555
S82 Zr35 2.583568 1_555
S82 Zr39 2.583623 1_555
S82 Zr19 2.584487 1_555
S83 Zr16 2.571664 1_555
S83 Zr36 2.596324 1_554
S83 Zr32 2.596350 1_554
S84 Zr37 2.585291 1_555
S84 Zr21 2.585423 1_565
S84 Zr41 2.585434 1_565
S85 Zr42 2.584801 1_555
S85 Zr22 2.584833 1_555
S85 Zr38 2.584926 1_555
S86 Zr23 2.585018 1_565
S86 Zr43 2.585077 1_565
S86 Zr39 2.585150 1_555
S87 Zr40 2.546501 1_555
S87 Zr20 2.546508 1_555
S87 Zr36 2.649148 1_554
S88 Zr25 2.584786 1_555
S88 Zr41 2.585498 1_555
S88 Zr45 2.585506 1_555
S89 Zr26 2.584645 1_555
S89 Zr42 2.584970 1_545
S89 Zr46 2.584980 1_555
S90 Zr43 2.583732 1_555
S90 Zr47 2.583758 1_555
S90 Zr27 2.586803 1_555
S91 Zr24 2.567916 1_555
S91 Zr40 2.589409 1_545
S91 Zr44 2.589445 1_555
S92 Zr33 2.585292 1_555
S92 Zr29 2.585446 1_555
S92 Zr45 2.585453 1_555
S93 Zr30 2.584803 1_555
S93 Zr46 2.584836 1_555
S93 Zr34 2.584922 1_555
S94 Zr47 2.585035 1_555
S94 Zr31 2.585046 1_555
S94 Zr35 2.585134 1_555
S95 Zr44 2.546509 1_555
S95 Zr28 2.546516 1_555
S95 Zr32 2.649154 1_554
S96 Zr33 2.585477 1_555
S96 Zr53 2.585483 1_555
S96 Zr49 2.585695 1_555
S97 Zr50 2.584823 1_555
S97 Zr54 2.584973 1_555
S97 Zr34 2.584983 1_555
S98 Zr35 2.583574 1_555
S98 Zr55 2.583619 1_555
S98 Zr51 2.584472 1_555
S99 Zr48 2.571684 1_555
S99 Zr52 2.596308 1_554
S99 Zr32 2.596358 1_554
S100 Zr37 2.585451 1_555
S100 Zr53 2.585484 1_555
S100 Zr57 2.585707 1_555
S101 Zr58 2.584819 1_555
S101 Zr54 2.584974 1_555
S101 Zr38 2.584986 1_555
S102 Zr55 2.583594 1_555
S102 Zr39 2.583594 1_555
S102 Zr59 2.584509 1_555
S103 Zr56 2.571686 1_555
S103 Zr36 2.596345 1_554
S103 Zr52 2.596355 1_554
S104 Zr57 2.585976 1_555
S104 Zr61 2.586556 1_555
S104 Zr41 2.586564 1_565
S105 Zr58 2.584768 1_555
S105 Zr42 2.584907 1_555
S105 Zr62 2.585031 1_565
S106 Zr63 2.582176 1_565
S106 Zr43 2.583915 1_565
S106 Zr59 2.586153 1_555
S107 Zr60 2.532645 1_564
S107 Zr40 2.599649 1_555
S107 Zr56 2.600722 1_555
S108 Zr49 2.585958 1_555
S108 Zr45 2.586578 1_555
S108 Zr61 2.586592 1_545
S109 Zr50 2.584776 1_555
S109 Zr46 2.584915 1_555
S109 Zr62 2.585025 1_555
S110 Zr63 2.582125 1_555
S110 Zr47 2.583944 1_555
S110 Zr51 2.586168 1_555
S111 Zr60 2.532628 1_554
S111 Zr44 2.599671 1_555
S111 Zr48 2.600727 1_555
S112 Zr49 2.585973 1_555
S112 Zr5 2.586533 1_455
S112 Zr1 2.586596 1_545
S113 Zr50 2.584781 1_555
S113 Zr6 2.584905 1_555
S113 Zr2 2.585010 1_455
S114 Zr3 2.582093 1_455
S114 Zr7 2.583969 1_455
S114 Zr51 2.586146 1_555
S115 Zr0 2.532640 1_454
S115 Zr4 2.599645 1_555
S115 Zr48 2.600707 1_555
S116 Zr53 2.585278 1_555
S116 Zr9 2.585436 1_455
S116 Zr5 2.585440 1_455
S117 Zr10 2.584805 1_555
S117 Zr6 2.584831 1_555
S117 Zr54 2.584929 1_555
S118 Zr7 2.585015 1_455
S118 Zr11 2.585077 1_455
S118 Zr55 2.585152 1_555
S119 Zr4 2.546501 1_555
S119 Zr8 2.546512 1_555
S119 Zr52 2.649165 1_554
S120 Zr57 2.585963 1_555
S120 Zr9 2.586561 1_455
S120 Zr13 2.586572 1_555
S121 Zr58 2.584778 1_555
S121 Zr10 2.584890 1_555
S121 Zr14 2.585025 1_455
S122 Zr15 2.582173 1_455
S122 Zr11 2.583919 1_455
S122 Zr59 2.586152 1_555
S123 Zr12 2.532636 1_454
S123 Zr8 2.599641 1_555
S123 Zr56 2.600726 1_555
S124 Zr61 2.585899 1_555
S124 Zr1 2.585903 1_555
S124 Zr13 2.585918 1_555
S125 Zr2 2.584883 1_465
S125 Zr14 2.584889 1_455
S125 Zr62 2.584898 1_565
S126 Zr15 2.584559 1_455
S126 Zr63 2.584580 1_565
S126 Zr3 2.584634 1_465
