# generated using pymatgen
data_Li9Mn2Co5O16
_symmetry_space_group_name_H-M   'P 1'
_cell_length_a   2.94912600
_cell_length_b   9.83659277
_cell_length_c   10.08542723
_cell_angle_alpha   93.90304032
_cell_angle_beta   89.51120252
_cell_angle_gamma   97.92687491
_symmetry_Int_Tables_number   1
_chemical_formula_structural   Li9Mn2Co5O16
_chemical_formula_sum   'Li9 Mn2 Co5 O16'
_cell_volume   289.10395174
_cell_formula_units_Z   1
loop_
 _symmetry_equiv_pos_site_id
 _symmetry_equiv_pos_as_xyz
  1  'x, y, z'
loop_
 _atom_site_type_symbol
 _atom_site_label
 _atom_site_symmetry_multiplicity
 _atom_site_fract_x
 _atom_site_fract_y
 _atom_site_fract_z
 _atom_site_occupancy
  Li  Li0  1  0.12940000  0.24293800  0.19576200  1
  Li  Li1  1  0.88506900  0.76240900  0.31173400  1
  Li  Li2  1  0.62269700  0.24691900  0.44129100  1
  Li  Li3  1  0.36406600  0.75257400  0.56098800  1
  Li  Li4  1  0.12354700  0.25545100  0.68515500  1
  Li  Li5  1  0.85566400  0.74568000  0.80890600  1
  Li  Li6  1  0.62044700  0.24578400  0.93149200  1
  Li  Li7  1  0.38969900  0.75421600  0.06636600  1
  Li  Li8  1  0.48852800  0.98997200  0.24763300  1
  Mn  Mn0  1  0.00485000  0.99725000  0.00744100  1
  Mn  Mn1  1  0.75128700  0.49630100  0.12529200  1
  Co  Co0  1  0.25010000  0.49547800  0.38510700  1
  Co  Co1  1  0.99733800  0.00160200  0.48850500  1
  Co  Co2  1  0.75076800  0.50622500  0.63340200  1
  Co  Co3  1  0.50554800  0.00715500  0.74576700  1
  Co  Co4  1  0.24495600  0.50188900  0.86942500  1
  O  O0  1  0.55536000  0.10845100  0.08255800  1
  O  O1  1  0.29859800  0.60285100  0.21281300  1
  O  O2  1  0.05327200  0.11422700  0.36115300  1
  O  O3  1  0.80297700  0.61557300  0.46544600  1
  O  O4  1  0.60022500  0.11446700  0.59251300  1
  O  O5  1  0.30468800  0.62779600  0.71359300  1
  O  O6  1  0.06982900  0.11387500  0.84737700  1
  O  O7  1  0.80085900  0.61069200  0.97776300  1
  O  O8  1  0.69813300  0.38334700  0.27727700  1
  O  O9  1  0.40108900  0.88514100  0.41511900  1
  O  O10  1  0.19451400  0.38391000  0.52782000  1
  O  O11  1  0.94447300  0.89561900  0.65024200  1
  O  O12  1  0.68561900  0.38074900  0.77321200  1
  O  O13  1  0.45861300  0.89361300  0.91035900  1
  O  O14  1  0.20268400  0.38677300  0.04479800  1
  O  O15  1  0.94510100  0.88107200  0.14369200  1
loop_
_geom_bond_atom_site_label_1
_geom_bond_atom_site_label_2
_geom_bond_distance
_geom_bond_site_symmetry_2
Li0 O8 2.124419 1_455
Li0 O14 2.137737 1_555
Li0 O8 2.150967 1_555
Li0 O2 2.153700 1_555
Li0 O0 2.204516 1_555
Li0 O0 2.264767 1_455
Li1 O9 2.051716 1_655
Li1 O15 2.115005 1_555
Li1 O3 2.179463 1_555
Li1 O9 2.204638 1_555
Li1 O1 2.289103 1_655
Li1 O1 2.348969 1_555
Li2 O2 2.065269 1_655
Li2 O4 2.067099 1_555
Li2 O2 2.109958 1_555
Li2 O10 2.112443 1_555
Li2 O10 2.158577 1_655
Li2 O8 2.190939 1_555
Li3 O9 2.023807 1_555
Li3 O5 2.024655 1_555
Li3 O11 2.147139 1_455
Li3 O3 2.168670 1_555
Li3 O3 2.172107 1_455
Li3 O11 2.215763 1_555
Li4 O12 2.060637 1_455
Li4 O10 2.086323 1_555
Li4 O12 2.089997 1_555
Li4 O4 2.106176 1_455
Li4 O6 2.210466 1_555
Li4 O4 2.260827 1_555
Li5 O5 2.064985 1_555
Li5 O5 2.066956 1_655
Li5 O13 2.186865 1_555
Li5 O7 2.221121 1_555
Li5 O11 2.238776 1_555
Li5 O13 2.332589 1_655
Li6 O6 2.081499 1_555
Li6 O0 2.094440 1_556
Li6 O6 2.113034 1_655
Li6 O12 2.135554 1_555
Li6 O14 2.231284 1_556
Li6 O14 2.310523 1_656
Li7 O15 2.042970 1_555
Li7 O15 2.045923 1_455
Li7 O7 2.131644 1_554
Li7 O13 2.146727 1_554
Li7 O1 2.157034 1_555
Li7 O7 2.232898 1_454
Li8 O9 2.034569 1_555
Li8 O15 2.053560 1_455
Li8 O15 2.068890 1_555
Li8 O0 2.089017 1_565
Li8 O2 2.160908 1_565
Li8 O2 2.204344 1_665
Mn0 O15 1.838323 1_455
Mn0 O0 1.948751 1_465
Mn0 O0 1.955659 1_565
Mn0 O13 2.001684 1_554
Mn0 O13 2.007748 1_454
Mn0 O6 2.035923 1_564
Mn1 O7 1.918372 1_554
Mn1 O8 1.946374 1_555
Mn1 O14 1.962153 1_655
Mn1 O14 1.964678 1_555
Mn1 O1 1.974800 1_555
Mn1 O1 1.978553 1_655
Co0 O10 1.861265 1_555
Co0 O3 2.017808 1_555
Co0 O3 2.017899 1_455
Co0 O8 2.087886 1_555
Co0 O1 2.087914 1_555
Co0 O8 2.102557 1_455
Co1 O2 1.744680 1_655
Co1 O9 1.877154 1_645
Co1 O4 1.970677 1_555
Co1 O11 1.988528 1_545
Co1 O9 2.074447 1_545
Co1 O4 2.196126 1_655
Co2 O12 1.927543 1_555
Co2 O5 2.024573 1_555
Co2 O5 2.026027 1_655
Co2 O3 2.061039 1_555
Co2 O10 2.128421 1_655
Co2 O10 2.140934 1_555
Co3 O4 1.927344 1_555
Co3 O6 2.001628 1_555
Co3 O11 2.008480 1_545
Co3 O13 2.056191 1_545
Co3 O11 2.062138 1_445
Co3 O6 2.079021 1_655
Co4 O5 2.057916 1_555
Co4 O7 2.063395 1_455
Co4 O12 2.073302 1_555
Co4 O12 2.100066 1_455
Co4 O7 2.101054 1_555
Co4 O14 2.157789 1_556
