# generated using pymatgen
data_Y2NiRuO6
_symmetry_space_group_name_H-M   'P 1'
_cell_length_a   5.71345400
_cell_length_b   5.31876800
_cell_length_c   9.30222089
_cell_angle_alpha   55.41432792
_cell_angle_beta   90.00000000
_cell_angle_gamma   90.00000000
_symmetry_Int_Tables_number   1
_chemical_formula_structural   Y2NiRuO6
_chemical_formula_sum   'Y4 Ni2 Ru2 O12'
_cell_volume   232.72504419
_cell_formula_units_Z   2
loop_
 _symmetry_equiv_pos_site_id
 _symmetry_equiv_pos_as_xyz
  1  'x, y, z'
loop_
 _atom_site_type_symbol
 _atom_site_label
 _atom_site_symmetry_multiplicity
 _atom_site_fract_x
 _atom_site_fract_y
 _atom_site_fract_z
 _atom_site_occupancy
  Y  Y0  1  0.07799900  0.72385700  0.75185700  1
  Y  Y1  1  0.92200100  0.27614300  0.24814300  1
  Y  Y2  1  0.57799900  0.27614300  0.74814300  1
  Y  Y3  1  0.42200100  0.72385700  0.25185700  1
  Ni  Ni0  1  0.50000000  0.50000000  0.00000000  1
  Ni  Ni1  1  0.00000000  0.50000000  0.50000000  1
  Ru  Ru0  1  0.50000000  0.00000000  0.50000000  1
  Ru  Ru1  1  0.00000000  0.00000000  0.00000000  1
  O  O0  1  0.45683500  0.87535400  0.74754900  1
  O  O1  1  0.54316500  0.12464600  0.25245100  1
  O  O2  1  0.95683500  0.12464600  0.75245100  1
  O  O3  1  0.04316500  0.87535400  0.24754900  1
  O  O4  1  0.80064800  0.75329300  0.56481600  1
  O  O5  1  0.19935200  0.24670700  0.43518400  1
  O  O6  1  0.30064800  0.24670700  0.93518400  1
  O  O7  1  0.69935200  0.75329300  0.06481600  1
  O  O8  1  0.31000800  0.63071700  0.55822000  1
  O  O9  1  0.68999200  0.36928300  0.44178000  1
  O  O10  1  0.81000800  0.36928300  0.94178000  1
  O  O11  1  0.18999200  0.63071700  0.05822000  1
loop_
_geom_bond_atom_site_label_1
_geom_bond_atom_site_label_2
_geom_bond_distance
_geom_bond_site_symmetry_2
Ni0 O0 2.058827 1_554
Ni0 O1 2.058827 1_555
Ni0 O10 2.083592 1_554
Ni0 O11 2.083592 1_555
Ni0 O7 2.097128 1_555
Ni0 O6 2.097128 1_554
Ni1 O3 2.058827 1_555
Ni1 O2 2.058827 1_455
Ni1 O8 2.083592 1_555
Ni1 O9 2.083592 1_455
Ni1 O4 2.097128 1_455
Ni1 O5 2.097128 1_555
O0 Ru0 2.017391 1_565
O0 Y2 2.244280 1_565
O0 Y0 2.301982 1_555
O1 Ru0 2.017391 1_555
O1 Y3 2.244280 1_545
O1 Y1 2.301982 1_555
O2 Ru1 2.017391 1_656
O2 Y0 2.244280 1_645
O2 Y2 2.301982 1_555
O3 Ru1 2.017391 1_565
O3 Y1 2.244280 1_465
O3 Y3 2.301982 1_555
O4 Ru0 2.034154 1_565
O4 Y0 2.292064 1_655
O4 Y2 2.460435 1_555
O4 Y1 2.755296 1_565
O5 Ru0 2.034154 1_555
O5 Y1 2.292064 1_455
O5 Y3 2.460435 1_555
O5 Y0 2.755296 1_545
O6 Ru1 2.034154 1_556
O6 Y2 2.292064 1_555
O6 Y0 2.460435 1_555
O6 Y3 2.755296 1_546
O7 Ru1 2.034154 1_665
O7 Y3 2.292064 1_555
O7 Y1 2.460435 1_555
O7 Y2 2.755296 1_564
O8 Ru0 2.030228 1_565
O8 Y2 2.289050 1_555
O8 Y0 2.502020 1_555
O8 Y3 2.678386 1_555
O9 Ru0 2.030228 1_555
O9 Y3 2.289050 1_555
O9 Y1 2.502020 1_555
O9 Y2 2.678386 1_555
O10 Ru1 2.030228 1_656
O10 Y0 2.289050 1_655
O10 Y2 2.502020 1_555
O10 Y1 2.678386 1_556
O11 Ru1 2.030228 1_565
O11 Y1 2.289050 1_455
O11 Y3 2.502020 1_555
O11 Y0 2.678386 1_554
