# generated using pymatgen
data_Li9Mn2Co5O16
_symmetry_space_group_name_H-M   'P 1'
_cell_length_a   2.89153300
_cell_length_b   10.29721100
_cell_length_c   10.33112080
_cell_angle_alpha   69.94259633
_cell_angle_beta   90.00000000
_cell_angle_gamma   90.00000000
_symmetry_Int_Tables_number   1
_chemical_formula_structural   Li9Mn2Co5O16
_chemical_formula_sum   'Li9 Mn2 Co5 O16'
_cell_volume   288.94980535
_cell_formula_units_Z   1
loop_
 _symmetry_equiv_pos_site_id
 _symmetry_equiv_pos_as_xyz
  1  'x, y, z'
loop_
 _atom_site_type_symbol
 _atom_site_label
 _atom_site_symmetry_multiplicity
 _atom_site_fract_x
 _atom_site_fract_y
 _atom_site_fract_z
 _atom_site_occupancy
  Li  Li0  1  0.50000000  0.00293200  0.72813400  1
  Li  Li1  1  0.50000000  0.99706800  0.27186600  1
  Li  Li2  1  0.00000000  0.75335200  0.74827700  1
  Li  Li3  1  0.00000000  0.74988000  0.26122400  1
  Li  Li4  1  0.50000000  0.50429600  0.73884900  1
  Li  Li5  1  0.50000000  0.49570400  0.26115100  1
  Li  Li6  1  0.00000000  0.25012000  0.73877600  1
  Li  Li7  1  0.00000000  0.24664800  0.25172300  1
  Li  Li8  1  0.00000000  0.00000000  0.50000000  1
  Mn  Mn0  1  0.00000000  0.00000000  0.00000000  1
  Mn  Mn1  1  0.00000000  0.50000000  0.00000000  1
  Co  Co0  1  0.50000000  0.74971200  0.00585100  1
  Co  Co1  1  0.50000000  0.76488900  0.50801600  1
  Co  Co2  1  0.00000000  0.50000000  0.50000000  1
  Co  Co3  1  0.50000000  0.25028800  0.99414900  1
  Co  Co4  1  0.50000000  0.23511100  0.49198400  1
  O  O0  1  0.50000000  0.10471800  0.88634200  1
  O  O1  1  0.50000000  0.13910600  0.37460500  1
  O  O2  1  0.00000000  0.86900900  0.89912100  1
  O  O3  1  0.00000000  0.86421400  0.38152500  1
  O  O4  1  0.50000000  0.61382900  0.88669900  1
  O  O5  1  0.50000000  0.60836600  0.39338900  1
  O  O6  1  0.00000000  0.35808100  0.88203400  1
  O  O7  1  0.00000000  0.38071300  0.39478400  1
  O  O8  1  0.50000000  0.86089400  0.62539500  1
  O  O9  1  0.50000000  0.89528200  0.11365800  1
  O  O10  1  0.00000000  0.61928700  0.60521600  1
  O  O11  1  0.00000000  0.64191900  0.11796600  1
  O  O12  1  0.50000000  0.39163400  0.60661100  1
  O  O13  1  0.50000000  0.38617100  0.11330100  1
  O  O14  1  0.00000000  0.13578600  0.61847500  1
  O  O15  1  0.00000000  0.13099100  0.10087900  1
loop_
_geom_bond_atom_site_label_1
_geom_bond_atom_site_label_2
_geom_bond_distance
_geom_bond_site_symmetry_2
Li0 O14 2.045026 1_555
Li0 O14 2.045026 1_655
Li0 O8 2.081011 1_545
Li0 O0 2.223752 1_555
Li0 O2 2.332705 1_545
Li0 O2 2.332705 1_645
Li1 O3 2.045026 1_655
Li1 O3 2.045026 1_555
Li1 O1 2.081011 1_565
Li1 O9 2.223752 1_555
Li1 O15 2.332705 1_565
Li1 O15 2.332705 1_665
Li2 O8 1.990954 1_455
Li2 O8 1.990954 1_555
Li2 O4 2.188637 1_555
Li2 O4 2.188637 1_455
Li2 O2 2.262733 1_555
Li2 O10 2.343014 1_555
Li3 O3 1.983534 1_555
Li3 O11 2.134218 1_555
Li3 O5 2.171004 1_455
Li3 O5 2.171004 1_555
Li3 O9 2.256204 1_455
Li3 O9 2.256204 1_555
Li4 O10 2.068092 1_555
Li4 O10 2.068092 1_655
Li4 O12 2.073492 1_555
Li4 O4 2.187910 1_555
Li4 O6 2.240007 1_555
Li4 O6 2.240007 1_655
Li5 O7 2.068092 1_655
Li5 O7 2.068092 1_555
Li5 O5 2.073492 1_555
Li5 O13 2.187910 1_555
Li5 O11 2.240007 1_555
Li5 O11 2.240007 1_655
Li6 O14 1.983534 1_555
Li6 O6 2.134218 1_555
Li6 O12 2.171004 1_455
Li6 O12 2.171004 1_555
Li6 O0 2.256204 1_455
Li6 O0 2.256204 1_555
Li7 O1 1.990954 1_555
Li7 O1 1.990954 1_455
Li7 O13 2.188637 1_455
Li7 O13 2.188637 1_555
Li7 O15 2.262733 1_555
Li7 O7 2.343014 1_555
Li8 O8 2.132473 1_445
Li8 O8 2.132473 1_545
Li8 O1 2.132473 1_455
Li8 O1 2.132473 1_555
Li8 O14 2.151050 1_555
Li8 O3 2.151050 1_545
Mn0 O0 1.939915 1_554
Mn0 O0 1.939915 1_454
Mn0 O9 1.939915 1_445
Mn0 O9 1.939915 1_545
Mn0 O15 1.967176 1_555
Mn0 O2 1.967176 1_544
Mn1 O4 1.973108 1_454
Mn1 O4 1.973108 1_554
Mn1 O13 1.973108 1_455
Mn1 O13 1.973108 1_555
Mn1 O11 2.200571 1_555
Mn1 O6 2.200571 1_554
Co0 O11 1.944740 1_655
Co0 O11 1.944740 1_555
Co0 O2 1.971293 1_554
Co0 O2 1.971293 1_654
Co0 O9 2.152329 1_555
Co0 O4 2.157437 1_554
Co1 O8 1.808349 1_555
Co1 O3 1.981727 1_655
Co1 O3 1.981727 1_555
Co1 O10 2.076971 1_655
Co1 O10 2.076971 1_555
Co1 O5 2.304199 1_555
Co2 O10 1.898995 1_555
Co2 O7 1.898995 1_555
Co2 O5 1.924965 1_455
Co2 O5 1.924965 1_555
Co2 O12 1.924965 1_455
Co2 O12 1.924965 1_555
Co3 O6 1.944740 1_555
Co3 O6 1.944740 1_655
Co3 O15 1.971293 1_556
Co3 O15 1.971293 1_656
Co3 O0 2.152329 1_555
Co3 O13 2.157437 1_556
Co4 O1 1.808349 1_555
Co4 O14 1.981727 1_655
Co4 O14 1.981727 1_555
Co4 O7 2.076971 1_655
Co4 O7 2.076971 1_555
Co4 O12 2.304199 1_555
