# generated using pymatgen
data_ReW2
_symmetry_space_group_name_H-M   'P 1'
_cell_length_a   14.19516274
_cell_length_b   13.83106181
_cell_length_c   5.48669238
_cell_angle_alpha   82.46611296
_cell_angle_beta   75.00297465
_cell_angle_gamma   22.53091240
_symmetry_Int_Tables_number   1
_chemical_formula_structural   ReW2
_chemical_formula_sum   'Re8 W16'
_cell_volume   381.39393497
_cell_formula_units_Z   8
loop_
 _symmetry_equiv_pos_site_id
 _symmetry_equiv_pos_as_xyz
  1  'x, y, z'
loop_
 _atom_site_type_symbol
 _atom_site_label
 _atom_site_symmetry_multiplicity
 _atom_site_fract_x
 _atom_site_fract_y
 _atom_site_fract_z
 _atom_site_occupancy
  Re  Re0_0  1  0.00000000  0.00000000  0.00000000  1
  Re  Re0_1  1  0.00000000  0.00000000  0.50000000  1
  Re  Re0_2  1  0.00000000  0.50000000  0.00000000  1
  Re  Re0_3  1  0.00000000  0.50000000  0.50000000  1
  Re  Re0_4  1  0.50000000  0.00000000  0.00000000  1
  Re  Re0_5  1  0.50000000  0.00000000  0.50000000  1
  Re  Re0_6  1  0.50000000  0.50000000  0.00000000  1
  Re  Re0_7  1  0.50000000  0.50000000  0.50000000  1
  W  W0_0  1  0.16701750  0.16701750  0.33298250  1
  W  W0_1  1  0.16701750  0.16701750  0.83298250  1
  W  W0_2  1  0.16701750  0.66701750  0.33298250  1
  W  W0_3  1  0.16701750  0.66701750  0.83298250  1
  W  W0_4  1  0.66701750  0.16701750  0.33298250  1
  W  W0_5  1  0.66701750  0.16701750  0.83298250  1
  W  W0_6  1  0.66701750  0.66701750  0.33298250  1
  W  W0_7  1  0.66701750  0.66701750  0.83298250  1
  W  W1_0  1  0.33298250  0.33298250  0.16701750  1
  W  W1_1  1  0.33298250  0.33298250  0.66701750  1
  W  W1_2  1  0.33298250  0.83298250  0.16701750  1
  W  W1_3  1  0.33298250  0.83298250  0.66701750  1
  W  W1_4  1  0.83298250  0.33298250  0.16701750  1
  W  W1_5  1  0.83298250  0.33298250  0.66701750  1
  W  W1_6  1  0.83298250  0.83298250  0.16701750  1
  W  W1_7  1  0.83298250  0.83298250  0.66701750  1
loop_
_geom_bond_atom_site_label_1
_geom_bond_atom_site_label_2
_geom_bond_distance
_geom_bond_site_symmetry_2
Re0_0 W1_4 2.735427 1_455
Re0_0 W1_3 2.735427 1_544
Re0_0 W0_4 2.735427 1_455
Re0_0 W0_3 2.735427 1_544
Re0_0 Re0_1 2.743346 1_554
Re0_0 Re0_1 2.743346 1_555
Re0_0 Re0_6 2.743346 1_545
Re0_0 Re0_6 2.743346 1_455
Re0_1 W1_5 2.735427 1_455
Re0_1 W1_2 2.735427 1_545
Re0_1 W0_5 2.735427 1_455
Re0_1 W0_2 2.735427 1_545
Re0_1 Re0_7 2.743346 1_545
Re0_1 Re0_7 2.743346 1_455
Re0_2 W1_6 2.735427 1_455
Re0_2 W1_1 2.735427 1_554
Re0_2 W0_6 2.735427 1_455
Re0_2 W0_1 2.735427 1_554
Re0_2 Re0_3 2.743346 1_555
Re0_2 Re0_4 2.743346 1_555
Re0_2 Re0_4 2.743346 1_465
Re0_2 Re0_3 2.743346 1_554
Re0_3 W1_7 2.735427 1_455
Re0_3 W1_0 2.735427 1_555
Re0_3 W0_7 2.735427 1_455
Re0_3 W0_0 2.735427 1_555
Re0_3 Re0_5 2.743346 1_555
Re0_3 Re0_5 2.743346 1_465
Re0_4 W1_0 2.735427 1_555
Re0_4 W1_7 2.735427 1_544
Re0_4 W0_0 2.735427 1_555
Re0_4 W0_7 2.735427 1_544
Re0_4 Re0_5 2.743346 1_555
Re0_4 Re0_5 2.743346 1_554
Re0_5 W1_1 2.735427 1_555
Re0_5 W1_6 2.735427 1_545
Re0_5 W0_1 2.735427 1_555
Re0_5 W0_6 2.735427 1_545
Re0_6 W1_2 2.735427 1_555
Re0_6 W1_5 2.735427 1_554
Re0_6 W0_2 2.735427 1_555
Re0_6 W0_5 2.735427 1_554
Re0_6 Re0_7 2.743346 1_555
Re0_6 Re0_7 2.743346 1_554
Re0_7 W1_3 2.735427 1_555
Re0_7 W1_4 2.735427 1_555
Re0_7 W0_3 2.735427 1_555
Re0_7 W0_4 2.735427 1_555
W0_0 W0_6 2.743346 1_545
W0_0 W0_1 2.743346 1_554
W0_0 W0_1 2.743346 1_555
W0_0 W0_6 2.743346 1_455
W0_0 W1_2 2.758637 1_545
W0_0 W1_5 2.758637 1_455
W0_1 W0_7 2.743346 1_545
W0_1 W0_7 2.743346 1_455
W0_1 W1_3 2.758637 1_545
W0_1 W1_4 2.758637 1_456
W0_2 W0_3 2.743346 1_554
W0_2 W0_3 2.743346 1_555
W0_2 W0_4 2.743346 1_555
W0_2 W0_4 2.743346 1_465
W0_2 W1_7 2.758637 1_455
W0_2 W1_0 2.758637 1_555
W0_3 W0_5 2.743346 1_555
W0_3 W0_5 2.743346 1_465
W0_3 W1_1 2.758637 1_555
W0_3 W1_6 2.758637 1_456
W0_4 W0_5 2.743346 1_554
W0_4 W0_5 2.743346 1_555
W0_4 W1_6 2.758637 1_545
W0_4 W1_1 2.758637 1_555
W0_5 W1_7 2.758637 1_545
W0_5 W1_0 2.758637 1_556
W0_6 W0_7 2.743346 1_555
W0_6 W0_7 2.743346 1_554
W0_6 W1_3 2.758637 1_555
W0_6 W1_4 2.758637 1_555
W0_7 W1_5 2.758637 1_555
W0_7 W1_2 2.758637 1_556
W1_0 W1_1 2.743346 1_554
W1_0 W1_6 2.743346 1_545
W1_0 W1_6 2.743346 1_455
W1_0 W1_1 2.743346 1_555
W1_1 W1_7 2.743346 1_545
W1_1 W1_7 2.743346 1_455
W1_2 W1_4 2.743346 1_465
W1_2 W1_3 2.743346 1_555
W1_2 W1_4 2.743346 1_555
W1_2 W1_3 2.743346 1_554
W1_3 W1_5 2.743346 1_555
W1_3 W1_5 2.743346 1_465
W1_4 W1_5 2.743346 1_555
W1_4 W1_5 2.743346 1_554
W1_6 W1_7 2.743346 1_555
W1_6 W1_7 2.743346 1_554
