# generated using pymatgen
data_Li2LuIn
_symmetry_space_group_name_H-M   'P 1'
_cell_length_a   4.74634297
_cell_length_b   4.74634297
_cell_length_c   4.74634297
_cell_angle_alpha   60.00000000
_cell_angle_beta   60.00000000
_cell_angle_gamma   60.00000000
_symmetry_Int_Tables_number   1
_chemical_formula_structural   Li2LuIn
_chemical_formula_sum   'Li2 Lu1 In1'
_cell_volume   75.60706046
_cell_formula_units_Z   1
loop_
 _symmetry_equiv_pos_site_id
 _symmetry_equiv_pos_as_xyz
  1  'x, y, z'
loop_
 _atom_site_type_symbol
 _atom_site_label
 _atom_site_symmetry_multiplicity
 _atom_site_fract_x
 _atom_site_fract_y
 _atom_site_fract_z
 _atom_site_occupancy
  Li  Li0  1  0.25000000  0.25000000  0.25000000  1
  Li  Li1  1  0.75000000  0.75000000  0.75000000  1
  Lu  Lu0  1  0.00000000  -0.00000000  0.00000000  1
  In  In0  1  0.50000000  0.50000000  0.50000000  1
loop_
_geom_bond_atom_site_label_1
_geom_bond_atom_site_label_2
_geom_bond_distance
_geom_bond_site_symmetry_2
Li0 Lu0 2.906530 1_556
Li0 Lu0 2.906530 1_555
Li0 Lu0 2.906530 1_565
Li0 Lu0 2.906530 1_655
Li1 Lu0 2.906530 1_656
Li1 Lu0 2.906530 1_665
Li1 Lu0 2.906530 1_666
Li1 Lu0 2.906530 1_566
In0 Li0 2.906530 1_556
In0 Li1 2.906530 1_554
In0 Li0 2.906530 1_555
In0 Li1 2.906530 1_555
In0 Li0 2.906530 1_565
In0 Li1 2.906530 1_545
In0 Li0 2.906530 1_655
In0 Li1 2.906530 1_455
