# generated using pymatgen
data_Li7Mg8Zn9
_symmetry_space_group_name_H-M   'P 1'
_cell_length_a   10.43995729
_cell_length_b   10.44030083
_cell_length_c   17.45678528
_cell_angle_alpha   89.99887262
_cell_angle_beta   89.99856574
_cell_angle_gamma   120.00309113
_symmetry_Int_Tables_number   1
_chemical_formula_structural   Li7Mg8Zn9
_chemical_formula_sum   'Li28 Mg32 Zn36'
_cell_volume   1647.75678265
_cell_formula_units_Z   4
loop_
 _symmetry_equiv_pos_site_id
 _symmetry_equiv_pos_as_xyz
  1  'x, y, z'
loop_
 _atom_site_type_symbol
 _atom_site_label
 _atom_site_symmetry_multiplicity
 _atom_site_fract_x
 _atom_site_fract_y
 _atom_site_fract_z
 _atom_site_occupancy
  Li  Li0  1  0.91786398  0.33360348  0.75003896  1
  Li  Li1  1  0.08186899  0.66620206  0.24994923  1
  Li  Li2  1  0.41576073  0.08212597  0.75004185  1
  Li  Li3  1  0.58432516  0.66620552  0.24994868  1
  Li  Li4  1  0.58431664  0.91813813  0.24994945  1
  Li  Li5  1  0.41573640  0.33359105  0.75003997  1
  Li  Li6  1  0.66627929  0.58423773  0.75003950  1
  Li  Li7  1  0.33384658  0.91815710  0.24994844  1
  Li  Li8  1  0.33378883  0.41564997  0.24994903  1
  Li  Li9  1  0.66631329  0.08209377  0.75004199  1
  Li  Li10  1  0.08186620  0.41563364  0.24994980  1
  Li  Li11  1  0.91794473  0.58425566  0.75003840  1
  Li  Li12  1  0.66665574  0.33332697  0.37656070  1
  Li  Li13  1  0.33335477  0.66668296  0.62370286  1
  Li  Li14  1  0.33335022  0.66667766  0.87634822  1
  Li  Li15  1  0.66665686  0.33332703  0.12339107  1
  Li  Li16  1  0.74862233  0.74857952  0.99989123  1
  Li  Li17  1  0.25141014  0.25135607  0.99988798  1
  Li  Li18  1  0.99996321  0.25135854  0.99989310  1
  Li  Li19  1  0.25143389  0.25137641  0.50011844  1
  Li  Li20  1  0.99995714  0.74858613  0.99988616  1
  Li  Li21  1  0.74860601  0.74855335  0.50011391  1
  Li  Li22  1  0.25142485  0.00009395  0.99988550  1
  Li  Li23  1  0.99994720  0.74855968  0.50011951  1
  Li  Li24  1  0.74865629  0.00007210  0.99989550  1
  Li  Li25  1  0.99995734  0.25137796  0.50011300  1
  Li  Li26  1  0.74863844  0.00007826  0.50011004  1
  Li  Li27  1  0.25144866  0.00009790  0.50012175  1
  Mg  Mg0  1  0.83305550  0.16704355  0.34394438  1
  Mg  Mg1  1  0.16707207  0.83286750  0.65626024  1
  Mg  Mg2  1  0.33398554  0.16705053  0.34394724  1
  Mg  Mg3  1  0.16705682  0.83287256  0.84376487  1
  Mg  Mg4  1  0.66577948  0.83285575  0.65626459  1
  Mg  Mg5  1  0.83307813  0.16702312  0.15603537  1
  Mg  Mg6  1  0.83303874  0.66608087  0.34394189  1
  Mg  Mg7  1  0.66579374  0.83285443  0.84376235  1
  Mg  Mg8  1  0.16704679  0.33408894  0.65623680  1
  Mg  Mg9  1  0.33394011  0.16702835  0.15602956  1
  Mg  Mg10  1  0.16703291  0.33406708  0.84378839  1
  Mg  Mg11  1  0.83305626  0.66611339  0.15603517  1
  Mg  Mg12  1  0.50012597  0.49987903  0.90573826  1
  Mg  Mg13  1  0.49985510  0.50002115  0.09407033  1
  Mg  Mg14  1  0.99976450  0.49988746  0.90574515  1
  Mg  Mg15  1  0.49989640  0.50000754  0.40593135  1
  Mg  Mg16  1  0.00015991  0.50002535  0.09406657  1
  Mg  Mg17  1  0.50010032  0.49989098  0.59425661  1
  Mg  Mg18  1  0.50014687  0.00031168  0.90572655  1
  Mg  Mg19  1  0.00011766  0.50001352  0.40593223  1
  Mg  Mg20  1  0.49990183  0.99980919  0.09407995  1
  Mg  Mg21  1  0.99978971  0.49989618  0.59425710  1
  Mg  Mg22  1  0.49993437  0.99986240  0.40592145  1
  Mg  Mg23  1  0.50011923  0.00026200  0.59427115  1
  Mg  Mg24  1  0.66657417  0.33320608  0.84657211  1
  Mg  Mg25  1  0.33336366  0.66671327  0.15327174  1
  Mg  Mg26  1  0.33334757  0.66669448  0.34670463  1
  Mg  Mg27  1  0.66658687  0.33322431  0.65345481  1
  Mg  Mg28  1  0.00005574  0.00007362  0.90290132  1
  Mg  Mg29  1  0.99999581  0.99999417  0.09709058  1
  Mg  Mg30  1  0.00000367  0.00000045  0.40284624  1
  Mg  Mg31  1  0.00003721  0.00005348  0.59715527  1
  Zn  Zn0  1  0.83265099  0.16736541  0.87516944  1
  Zn  Zn1  1  0.16722071  0.83282782  0.12473863  1
  Zn  Zn2  1  0.33473304  0.16737967  0.87516710  1
  Zn  Zn3  1  0.16719965  0.83282156  0.37524542  1
  Zn  Zn4  1  0.66561477  0.83282055  0.12473950  1
  Zn  Zn5  1  0.83266177  0.16737823  0.62484876  1
  Zn  Zn6  1  0.83267105  0.66533032  0.87517240  1
  Zn  Zn7  1  0.66562374  0.83281205  0.37524448  1
  Zn  Zn8  1  0.16720214  0.33438961  0.12473268  1
  Zn  Zn9  1  0.33473812  0.16738752  0.62485164  1
  Zn  Zn10  1  0.16718482  0.33437059  0.37525095  1
  Zn  Zn11  1  0.83267729  0.66533166  0.62484471  1
  Zn  Zn12  1  0.41638448  0.58365818  0.75001270  1
  Zn  Zn13  1  0.58361911  0.41635145  0.24999394  1
  Zn  Zn14  1  0.16726808  0.58364169  0.75001443  1
  Zn  Zn15  1  0.83272408  0.41634673  0.24999275  1
  Zn  Zn16  1  0.41634027  0.83267717  0.75001106  1
  Zn  Zn17  1  0.58365360  0.16729734  0.24999428  1
  Zn  Zn18  1  0.75035491  0.24963847  0.99858357  1
  Zn  Zn19  1  0.24967560  0.75033801  0.00128414  1
  Zn  Zn20  1  0.49928583  0.24963995  0.99858315  1
  Zn  Zn21  1  0.24968764  0.75032732  0.49873462  1
  Zn  Zn22  1  0.50066725  0.75033934  0.00128279  1
  Zn  Zn23  1  0.75035223  0.24964350  0.50139976  1
  Zn  Zn24  1  0.75035811  0.50071600  0.99858847  1
  Zn  Zn25  1  0.50064471  0.75032872  0.49873535  1
  Zn  Zn26  1  0.24968040  0.49936150  0.00127785  1
  Zn  Zn27  1  0.49929429  0.24964443  0.50140055  1
  Zn  Zn28  1  0.24969182  0.49938478  0.49874164  1
  Zn  Zn29  1  0.75035495  0.50070824  0.50139542  1
  Zn  Zn30  1  0.91662364  0.08340404  0.75001480  1
  Zn  Zn31  1  0.08333609  0.91664103  0.24998196  1
  Zn  Zn32  1  0.16677519  0.08339255  0.75001573  1
  Zn  Zn33  1  0.83329723  0.91663802  0.24998037  1
  Zn  Zn34  1  0.91659881  0.83319526  0.75001309  1
  Zn  Zn35  1  0.08334700  0.16669032  0.24998333  1
loop_
_geom_bond_atom_site_label_1
_geom_bond_atom_site_label_2
_geom_bond_distance
_geom_bond_site_symmetry_2
Li0 Zn30 2.605706 1_555
Li0 Zn14 2.607006 1_655
Li0 Li11 2.616463 1_555
Li0 Li9 2.625885 1_555
Li0 Zn0 2.651556 1_555
Li0 Zn5 2.652442 1_555
Li0 Mg10 3.071289 1_655
Li0 Mg8 3.071736 1_655
Li0 Mg14 3.106280 1_555
Li0 Mg21 3.107376 1_555
Li0 Mg24 3.116277 1_555
Li0 Mg27 3.116798 1_555
Li1 Zn15 2.604700 1_455
Li1 Zn31 2.607033 1_555
Li1 Li10 2.615995 1_555
Li1 Li7 2.630438 1_555
Li1 Zn1 2.654691 1_555
Li1 Zn3 2.655981 1_555
Li1 Mg11 3.071329 1_455
Li1 Mg6 3.072003 1_455
Li1 Mg16 3.108513 1_555
Li1 Mg19 3.110000 1_555
Li1 Mg25 3.118941 1_555
Li1 Mg26 3.119689 1_555
Li2 Zn32 2.606036 1_555
Li2 Zn16 2.607351 1_545
Li2 Li9 2.615926 1_555
Li2 Li5 2.625498 1_555
Li2 Zn2 2.651775 1_555
Li2 Zn9 2.652730 1_555
Li2 Mg3 3.071248 1_545
Li2 Mg1 3.071873 1_545
Li2 Mg18 3.105565 1_555
Li2 Mg23 3.106965 1_555
Li2 Mg24 3.115014 1_555
Li2 Mg27 3.115559 1_555
Li3 Zn13 2.604874 1_555
Li3 Zn33 2.606836 1_555
Li3 Li8 2.615610 1_555
Li3 Li4 2.630297 1_555
Li3 Zn4 2.654617 1_555
Li3 Zn7 2.655909 1_555
Li3 Mg11 3.071332 1_555
Li3 Mg6 3.072133 1_555
Li3 Mg13 3.108481 1_555
Li3 Mg15 3.110034 1_555
Li3 Mg25 3.118799 1_555
Li3 Mg26 3.119533 1_555
Li4 Zn17 2.604766 1_565
Li4 Zn33 2.607214 1_555
Li4 Li7 2.614996 1_555
Li4 Zn4 2.654699 1_555
Li4 Zn7 2.656017 1_555
Li4 Mg5 3.071650 1_565
Li4 Mg0 3.072518 1_565
Li4 Mg20 3.107892 1_555
Li4 Mg22 3.109538 1_555
Li4 Mg25 3.118535 1_555
Li4 Mg26 3.119293 1_555
Li5 Zn32 2.605549 1_555
Li5 Zn12 2.607399 1_555
Li5 Li6 2.616120 1_555
Li5 Zn2 2.651375 1_555
Li5 Zn9 2.652306 1_555
Li5 Mg10 3.071249 1_555
Li5 Mg8 3.071802 1_555
Li5 Mg12 3.106177 1_555
Li5 Mg17 3.107429 1_555
Li5 Mg24 3.115805 1_555
Li5 Mg27 3.116266 1_555
Li6 Zn12 2.605871 1_555
Li6 Zn34 2.606165 1_555
Li6 Zn6 2.652449 1_555
Li6 Zn11 2.653272 1_555
Li6 Mg7 3.070421 1_555
Li6 Mg4 3.070926 1_555
Li6 Mg12 3.105470 1_555
Li6 Mg17 3.106973 1_555
Li6 Mg24 3.117125 1_555
Li6 Mg27 3.117568 1_555
Li7 Zn17 2.604422 1_565
Li7 Zn31 2.607440 1_555
Li7 Zn1 2.654748 1_555
Li7 Zn3 2.656008 1_555
Li7 Mg9 3.071879 1_565
Li7 Mg2 3.072674 1_565
Li7 Mg20 3.107641 1_555
Li7 Mg22 3.109484 1_555
Li7 Mg25 3.118747 1_555
Li7 Mg26 3.119537 1_555
Li8 Zn13 2.604563 1_555
Li8 Zn35 2.606820 1_555
Li8 Zn8 2.654642 1_555
Li8 Zn10 2.655861 1_555
Li8 Mg9 3.070816 1_555
Li8 Mg2 3.071501 1_555
Li8 Mg13 3.107842 1_555
Li8 Mg15 3.109711 1_555
Li8 Mg25 3.119342 1_555
Li8 Mg26 3.120043 1_555
Li9 Zn30 2.606416 1_555
Li9 Zn16 2.606729 1_545
Li9 Zn0 2.652093 1_555
Li9 Zn5 2.652995 1_555
Li9 Mg7 3.071404 1_545
Li9 Mg4 3.071915 1_545
Li9 Mg18 3.105312 1_555
Li9 Mg23 3.106855 1_555
Li9 Mg24 3.115424 1_555
Li9 Mg27 3.116012 1_555
Li10 Zn15 2.604764 1_455
Li10 Zn35 2.606808 1_555
Li10 Li8 2.629976 1_555
Li10 Zn8 2.654619 1_555
Li10 Zn10 2.655843 1_555
Li10 Mg5 3.070683 1_455
Li10 Mg0 3.071317 1_455
Li10 Mg16 3.108153 1_555
Li10 Mg19 3.109794 1_555
Li10 Mg25 3.119285 1_555
Li10 Mg26 3.119984 1_555
Li11 Zn34 2.606059 1_555
Li11 Zn14 2.606136 1_655
Li11 Li6 2.627283 1_555
Li11 Zn6 2.652241 1_555
Li11 Zn11 2.653083 1_555
Li11 Mg3 3.070395 1_655
Li11 Mg1 3.070797 1_655
Li11 Mg14 3.105847 1_555
Li11 Mg21 3.107050 1_555
Li11 Mg24 3.117232 1_555
Li11 Mg27 3.117694 1_555
Li12 Zn27 2.653037 1_555
Li12 Zn29 2.653190 1_555
Li12 Zn23 2.653229 1_555
Li12 Zn17 2.671189 1_555
Li12 Zn15 2.671283 1_555
Li12 Zn13 2.671337 1_555
Li12 Mg15 3.058102 1_555
Li12 Mg19 3.058135 1_655
Li12 Mg22 3.058185 1_545
Li12 Mg2 3.061100 1_555
Li12 Mg0 3.061387 1_555
Li12 Mg6 3.061914 1_555
Li13 Zn25 2.654499 1_555
Li13 Zn28 2.654576 1_555
Li13 Zn21 2.654729 1_555
Li13 Zn16 2.667281 1_555
Li13 Zn12 2.667595 1_555
Li13 Zn14 2.667676 1_555
Li13 Mg4 3.058751 1_555
Li13 Mg17 3.059193 1_555
Li13 Mg21 3.059271 1_455
Li13 Mg1 3.059277 1_555
Li13 Mg23 3.059413 1_565
Li13 Mg8 3.060219 1_555
Li14 Zn26 2.654123 1_556
Li14 Zn22 2.654266 1_556
Li14 Zn19 2.654379 1_556
Li14 Zn16 2.667634 1_555
Li14 Zn12 2.667954 1_555
Li14 Zn14 2.668074 1_555
Li14 Mg7 3.058951 1_555
Li14 Mg14 3.059272 1_455
Li14 Mg12 3.059360 1_555
Li14 Mg3 3.059552 1_555
Li14 Mg18 3.059785 1_565
Li14 Mg10 3.060491 1_555
Li15 Zn24 2.652677 1_554
Li15 Zn20 2.652728 1_554
Li15 Zn18 2.652803 1_554
Li15 Zn17 2.671628 1_555
Li15 Zn13 2.671856 1_555
Li15 Zn15 2.671865 1_555
Li15 Mg16 3.058323 1_655
Li15 Mg13 3.058458 1_555
Li15 Mg20 3.058553 1_545
Li15 Mg9 3.061549 1_555
Li15 Mg5 3.061854 1_555
Li15 Mg11 3.062326 1_555
Li16 Zn24 2.596979 1_555
Li16 Zn22 2.597990 1_556
Li16 Li20 2.623890 1_555
Li16 Li24 2.625481 1_565
Li16 Zn6 2.651078 1_555
Li16 Zn4 2.652684 1_556
Li16 Mg12 3.072019 1_555
Li16 Mg13 3.072707 1_556
Li16 Mg11 3.115630 1_556
Li16 Mg7 3.116284 1_555
Li16 Mg28 3.123768 1_665
Li16 Mg29 3.125268 1_556
Li17 Zn20 2.596917 1_555
Li17 Zn26 2.598442 1_556
Li17 Li22 2.623329 1_555
Li17 Li18 2.625108 1_455
Li17 Zn2 2.651113 1_555
Li17 Zn8 2.652595 1_556
Li17 Mg13 3.071911 1_556
Li17 Mg12 3.072050 1_555
Li17 Mg9 3.115406 1_556
Li17 Mg10 3.115773 1_555
Li17 Mg28 3.122590 1_555
Li17 Mg29 3.125119 1_446
Li18 Zn18 2.597068 1_555
Li18 Zn26 2.598169 1_656
Li18 Li24 2.623447 1_555
Li18 Zn0 2.651219 1_555
Li18 Zn8 2.652508 1_656
Li18 Mg16 3.072050 1_656
Li18 Mg14 3.072285 1_555
Li18 Mg5 3.115432 1_556
Li18 Mg10 3.115666 1_655
Li18 Mg28 3.122854 1_655
Li18 Mg29 3.125180 1_546
Li19 Zn27 2.596838 1_555
Li19 Zn28 2.598535 1_555
Li19 Li27 2.623500 1_555
Li19 Li25 2.625413 1_455
Li19 Zn9 2.651266 1_555
Li19 Zn10 2.652940 1_555
Li19 Mg15 3.071759 1_555
Li19 Mg17 3.071811 1_555
Li19 Mg2 3.115937 1_555
Li19 Mg8 3.116101 1_555
Li19 Mg31 3.123301 1_555
Li19 Mg30 3.126038 1_555
Li20 Zn24 2.596846 1_555
Li20 Zn19 2.598068 1_656
Li20 Li22 2.625442 1_665
Li20 Zn6 2.650943 1_555
Li20 Zn1 2.652821 1_656
Li20 Mg14 3.072046 1_555
Li20 Mg16 3.072887 1_656
Li20 Mg11 3.115608 1_556
Li20 Mg3 3.116048 1_655
Li20 Mg28 3.123671 1_665
Li20 Mg29 3.125372 1_556
Li21 Zn29 2.596852 1_555
Li21 Zn25 2.598136 1_555
Li21 Li23 2.623958 1_555
Li21 Li26 2.625826 1_565
Li21 Zn11 2.651232 1_555
Li21 Zn7 2.652956 1_555
Li21 Mg17 3.071672 1_555
Li21 Mg15 3.072554 1_555
Li21 Mg6 3.116073 1_555
Li21 Mg4 3.116721 1_555
Li21 Mg31 3.124399 1_665
Li21 Mg30 3.126036 1_665
Li22 Zn20 2.596519 1_555
Li22 Zn19 2.598558 1_546
Li22 Zn2 2.650940 1_555
Li22 Zn1 2.652774 1_546
Li22 Mg18 3.072175 1_555
Li22 Mg20 3.072631 1_546
Li22 Mg9 3.115804 1_556
Li22 Mg3 3.116698 1_545
Li22 Mg28 3.122961 1_555
Li22 Mg29 3.125159 1_446
Li23 Zn29 2.596708 1_555
Li23 Zn21 2.598212 1_655
Li23 Li27 2.625777 1_665
Li23 Zn11 2.650924 1_555
Li23 Zn3 2.652974 1_655
Li23 Mg21 3.071804 1_555
Li23 Mg19 3.072734 1_655
Li23 Mg6 3.116184 1_555
Li23 Mg1 3.116562 1_655
Li23 Mg31 3.124302 1_665
Li23 Mg30 3.126178 1_665
Li24 Zn18 2.596826 1_555
Li24 Zn22 2.598179 1_546
Li24 Zn0 2.651088 1_555
Li24 Zn4 2.652569 1_546
Li24 Mg18 3.072479 1_555
Li24 Mg20 3.072500 1_546
Li24 Mg5 3.115813 1_556
Li24 Mg7 3.116873 1_545
Li24 Mg28 3.123333 1_655
Li24 Mg29 3.125130 1_546
Li25 Zn23 2.596956 1_555
Li25 Zn28 2.598276 1_655
Li25 Li26 2.623579 1_555
Li25 Zn5 2.651207 1_555
Li25 Zn10 2.652673 1_655
Li25 Mg19 3.071948 1_655
Li25 Mg21 3.072072 1_555
Li25 Mg0 3.116014 1_555
Li25 Mg8 3.116150 1_655
Li25 Mg31 3.123568 1_655
Li25 Mg30 3.126068 1_655
Li26 Zn23 2.596734 1_555
Li26 Zn25 2.598292 1_545
Li26 Zn5 2.651397 1_555
Li26 Zn7 2.653047 1_545
Li26 Mg23 3.072176 1_555
Li26 Mg22 3.072371 1_545
Li26 Mg0 3.116170 1_555
Li26 Mg4 3.117123 1_545
Li26 Mg31 3.123997 1_655
Li26 Mg30 3.125935 1_655
Li27 Zn27 2.596441 1_555
Li27 Zn21 2.598649 1_545
Li27 Zn9 2.651217 1_555
Li27 Zn3 2.653253 1_545
Li27 Mg23 3.071937 1_555
Li27 Mg22 3.072476 1_545
Li27 Mg2 3.116251 1_555
Li27 Mg1 3.116912 1_545
Li27 Mg31 3.123622 1_555
Li27 Mg30 3.126048 1_555
Mg0 Zn10 3.069919 1_655
Mg0 Zn7 3.070865 1_545
Mg0 Zn15 3.077877 1_555
Mg0 Zn17 3.078381 1_555
Mg0 Zn35 3.086717 1_655
Mg0 Zn33 3.087394 1_545
Mg0 Zn23 3.128731 1_555
Mg0 Mg30 3.190061 1_655
Mg0 Mg19 3.199094 1_655
Mg0 Mg22 3.200145 1_545
Mg0 Mg5 3.280287 1_555
Mg1 Zn11 3.072621 1_455
Mg1 Zn9 3.073770 1_565
Mg1 Zn14 3.074758 1_555
Mg1 Zn16 3.075066 1_555
Mg1 Zn34 3.086283 1_455
Mg1 Zn32 3.086764 1_565
Mg1 Zn21 3.129172 1_555
Mg1 Mg31 3.193170 1_565
Mg1 Mg21 3.199201 1_455
Mg1 Mg23 3.199593 1_565
Mg1 Mg3 3.273228 1_555
Mg2 Zn10 3.069999 1_555
Mg2 Zn3 3.070837 1_545
Mg2 Zn13 3.077704 1_555
Mg2 Zn17 3.078478 1_555
Mg2 Zn35 3.086727 1_555
Mg2 Zn31 3.087328 1_545
Mg2 Zn27 3.128735 1_555
Mg2 Mg30 3.189742 1_555
Mg2 Mg22 3.200487 1_545
Mg2 Mg9 3.280439 1_555
Mg3 Zn6 3.072472 1_455
Mg3 Zn2 3.073676 1_565
Mg3 Zn14 3.074890 1_555
Mg3 Zn16 3.075182 1_555
Mg3 Zn34 3.086185 1_455
Mg3 Zn32 3.086538 1_565
Mg3 Zn19 3.129072 1_556
Mg4 Zn11 3.073040 1_555
Mg4 Zn5 3.073815 1_565
Mg4 Zn12 3.074285 1_555
Mg4 Zn16 3.074837 1_555
Mg4 Zn34 3.086422 1_555
Mg4 Zn30 3.086810 1_565
Mg4 Zn25 3.129149 1_555
Mg4 Mg7 3.273108 1_555
Mg5 Zn8 3.069817 1_655
Mg5 Zn4 3.070635 1_545
Mg5 Zn15 3.078266 1_555
Mg5 Zn17 3.078684 1_555
Mg5 Zn35 3.086374 1_655
Mg5 Zn33 3.086882 1_545
Mg5 Zn18 3.128837 1_554
Mg6 Zn3 3.070192 1_655
Mg6 Zn7 3.070222 1_555
Mg6 Zn13 3.078726 1_555
Mg6 Zn15 3.078862 1_555
Mg6 Zn31 3.086263 1_655
Mg6 Zn33 3.086445 1_555
Mg6 Zn29 3.128936 1_555
Mg7 Zn6 3.072830 1_555
Mg7 Zn0 3.073725 1_565
Mg7 Zn12 3.074480 1_555
Mg7 Zn16 3.075083 1_555
Mg7 Zn34 3.086227 1_555
Mg7 Zn30 3.086604 1_565
Mg7 Zn22 3.128872 1_556
Mg8 Zn5 3.072450 1_455
Mg8 Zn9 3.072675 1_555
Mg8 Zn12 3.076056 1_555
Mg8 Zn14 3.076076 1_555
Mg8 Zn30 3.085685 1_455
Mg8 Zn32 3.085926 1_555
Mg8 Zn28 3.129243 1_555
Mg9 Zn8 3.069790 1_555
Mg9 Zn1 3.070602 1_545
Mg9 Zn13 3.078230 1_555
Mg9 Zn17 3.078960 1_555
Mg9 Zn35 3.086259 1_555
Mg9 Zn31 3.086785 1_545
Mg9 Zn20 3.128683 1_554
Mg10 Zn0 3.072358 1_455
Mg10 Zn2 3.072612 1_555
Mg10 Zn12 3.076088 1_555
Mg10 Zn14 3.076119 1_555
Mg10 Zn30 3.085610 1_455
Mg10 Zn32 3.085791 1_555
Mg10 Zn26 3.129247 1_556
Mg10 Mg28 3.191144 1_555
Mg10 Mg12 3.199831 1_555
Mg10 Mg14 3.199969 1_455
Mg10 Mg8 3.274048 1_555
Mg11 Zn1 3.070158 1_655
Mg11 Zn4 3.070226 1_555
Mg11 Zn13 3.078923 1_555
Mg11 Zn15 3.079095 1_555
Mg11 Zn31 3.086044 1_655
Mg11 Zn33 3.086138 1_555
Mg11 Zn24 3.129036 1_554
Mg11 Mg29 3.189231 1_555
Mg11 Mg13 3.200834 1_555
Mg11 Mg16 3.200910 1_655
Mg11 Mg6 3.280247 1_555
Mg12 Zn2 3.053257 1_555
Mg12 Zn6 3.053508 1_555
Mg12 Zn24 3.070727 1_555
Mg12 Zn20 3.070737 1_555
Mg12 Zn26 3.098973 1_556
Mg12 Zn22 3.099181 1_556
Mg12 Zn12 3.111953 1_555
Mg12 Mg24 3.184103 1_555
Mg12 Mg7 3.199001 1_555
Mg12 Mg13 3.287675 1_556
Mg13 Zn8 3.054760 1_555
Mg13 Zn4 3.056221 1_555
Mg13 Zn26 3.070469 1_555
Mg13 Zn22 3.071034 1_555
Mg13 Zn20 3.097823 1_554
Mg13 Zn24 3.098159 1_554
Mg13 Zn13 3.114591 1_555
Mg13 Mg25 3.184836 1_555
Mg13 Mg9 3.199044 1_555
Mg14 Zn0 3.053471 1_555
Mg14 Zn6 3.053660 1_555
Mg14 Zn18 3.070595 1_555
Mg14 Zn24 3.070658 1_555
Mg14 Zn26 3.098910 1_656
Mg14 Zn19 3.098947 1_656
Mg14 Zn14 3.111852 1_655
Mg14 Mg24 3.184596 1_555
Mg14 Mg3 3.199107 1_655
Mg14 Mg16 3.287489 1_656
Mg15 Zn10 3.055380 1_555
Mg15 Zn7 3.056282 1_555
Mg15 Zn28 3.070992 1_555
Mg15 Zn25 3.071549 1_555
Mg15 Zn27 3.097295 1_555
Mg15 Zn29 3.097645 1_555
Mg15 Zn13 3.114552 1_555
Mg15 Mg26 3.185432 1_555
Mg15 Mg2 3.198962 1_555
Mg15 Mg6 3.200397 1_555
Mg15 Mg17 3.287555 1_555
Mg16 Zn8 3.055203 1_555
Mg16 Zn1 3.056257 1_555
Mg16 Zn26 3.070433 1_555
Mg16 Zn19 3.070831 1_555
Mg16 Zn18 3.097675 1_454
Mg16 Zn24 3.098120 1_454
Mg16 Zn15 3.114536 1_455
Mg16 Mg25 3.184892 1_555
Mg16 Mg5 3.199180 1_455
Mg17 Zn9 3.053328 1_555
Mg17 Zn11 3.053903 1_555
Mg17 Zn29 3.071046 1_555
Mg17 Zn27 3.071111 1_555
Mg17 Zn28 3.098536 1_555
Mg17 Zn25 3.098694 1_555
Mg17 Zn12 3.112245 1_555
Mg17 Mg27 3.184564 1_555
Mg17 Mg4 3.199175 1_555
Mg17 Mg8 3.199591 1_555
Mg18 Zn0 3.053116 1_555
Mg18 Zn2 3.053135 1_555
Mg18 Zn18 3.070341 1_555
Mg18 Zn20 3.070366 1_555
Mg18 Zn19 3.099362 1_546
Mg18 Zn22 3.099612 1_546
Mg18 Zn16 3.112323 1_545
Mg18 Mg24 3.181977 1_555
Mg18 Mg3 3.199879 1_545
Mg18 Mg7 3.200150 1_545
Mg18 Mg20 3.288048 1_546
Mg19 Zn10 3.055533 1_555
Mg19 Zn3 3.056313 1_555
Mg19 Zn28 3.071012 1_555
Mg19 Zn21 3.071383 1_555
Mg19 Zn23 3.097156 1_455
Mg19 Zn29 3.097584 1_455
Mg19 Zn15 3.114660 1_455
Mg19 Mg26 3.185164 1_555
Mg19 Mg6 3.200659 1_455
Mg19 Mg21 3.287548 1_455
Mg20 Zn1 3.054997 1_555
Mg20 Zn4 3.055392 1_555
Mg20 Zn19 3.070495 1_555
Mg20 Zn22 3.070648 1_555
Mg20 Zn18 3.098073 1_564
Mg20 Zn20 3.098230 1_564
Mg20 Zn17 3.114712 1_565
Mg20 Mg25 3.183912 1_555
Mg20 Mg5 3.200569 1_565
Mg20 Mg9 3.200709 1_565
Mg21 Zn5 3.053445 1_555
Mg21 Zn11 3.053806 1_555
Mg21 Zn23 3.071032 1_555
Mg21 Zn29 3.071074 1_555
Mg21 Zn28 3.098492 1_655
Mg21 Zn21 3.098523 1_655
Mg21 Zn14 3.112254 1_655
Mg21 Mg27 3.184764 1_555
Mg21 Mg8 3.199903 1_655
Mg22 Zn3 3.055571 1_555
Mg22 Zn7 3.055783 1_555
Mg22 Zn21 3.070906 1_555
Mg22 Zn25 3.071069 1_555
Mg22 Zn23 3.097662 1_565
Mg22 Zn27 3.097797 1_565
Mg22 Zn17 3.114575 1_565
Mg22 Mg26 3.184743 1_555
Mg22 Mg23 3.287982 1_565
Mg23 Zn9 3.053419 1_555
Mg23 Zn5 3.053564 1_555
Mg23 Zn23 3.070703 1_555
Mg23 Zn27 3.070761 1_555
Mg23 Zn21 3.098943 1_545
Mg23 Zn25 3.099154 1_545
Mg23 Zn16 3.112378 1_545
Mg23 Mg27 3.182796 1_555
Mg23 Mg4 3.200007 1_545
Mg24 Zn2 3.041395 1_555
Mg24 Zn0 3.042291 1_555
Mg24 Zn6 3.044071 1_555
Mg24 Zn20 3.054326 1_555
Mg24 Zn18 3.054706 1_555
Mg24 Zn24 3.055526 1_555
Mg25 Zn4 3.044872 1_555
Mg25 Zn1 3.045140 1_555
Mg25 Zn8 3.045674 1_555
Mg25 Zn22 3.054059 1_555
Mg25 Zn19 3.054184 1_555
Mg25 Zn26 3.054476 1_555
Mg26 Zn7 3.045157 1_555
Mg26 Zn3 3.045315 1_555
Mg26 Zn10 3.045661 1_555
Mg26 Zn21 3.054729 1_555
Mg26 Zn25 3.054770 1_555
Mg26 Zn28 3.054844 1_555
Mg27 Zn9 3.041526 1_555
Mg27 Zn5 3.042344 1_555
Mg27 Zn11 3.043912 1_555
Mg27 Zn27 3.055106 1_555
Mg27 Zn23 3.055349 1_555
Mg27 Zn29 3.055964 1_555
Mg28 Zn2 3.064283 1_555
Mg28 Zn0 3.064657 1_455
Mg28 Zn6 3.064993 1_445
Mg28 Zn32 3.065067 1_555
Mg28 Zn30 3.065376 1_455
Mg28 Zn34 3.065940 1_445
Mg28 Mg3 3.193182 1_545
Mg28 Mg7 3.193570 1_445
Mg29 Zn4 3.061403 1_555
Mg29 Zn8 3.061648 1_665
Mg29 Zn1 3.061701 1_655
Mg29 Zn33 3.065038 1_555
Mg29 Zn31 3.065143 1_655
Mg29 Zn35 3.065198 1_665
Mg29 Mg9 3.189724 1_665
Mg29 Mg5 3.189915 1_565
Mg30 Zn10 3.061258 1_555
Mg30 Zn7 3.061301 1_445
Mg30 Zn3 3.061422 1_545
Mg30 Zn35 3.064619 1_555
Mg30 Zn31 3.064716 1_545
Mg30 Zn33 3.064815 1_445
Mg30 Mg6 3.189408 1_445
Mg31 Zn9 3.064428 1_555
Mg31 Zn5 3.064581 1_455
Mg31 Zn11 3.064656 1_445
Mg31 Zn32 3.064873 1_555
Mg31 Zn30 3.064965 1_455
Mg31 Zn34 3.065290 1_445
Mg31 Mg8 3.191399 1_555
Mg31 Mg4 3.193287 1_445
Zn0 Zn18 2.618303 1_555
Zn0 Zn30 2.660604 1_555
Zn1 Zn19 2.620813 1_555
Zn1 Zn31 2.660658 1_555
Zn2 Zn20 2.618246 1_555
Zn2 Zn32 2.660679 1_555
Zn3 Zn31 2.660878 1_555
Zn10 Zn28 2.621714 1_555
Zn10 Zn35 2.660940 1_555
Zn11 Zn29 2.619110 1_555
Zn11 Zn34 2.660462 1_555
Zn12 Zn16 2.600064 1_555
Zn12 Zn14 2.600678 1_555
Zn13 Zn17 2.600380 1_555
Zn13 Zn15 2.600670 1_555
Zn14 Zn16 2.600033 1_555
Zn15 Zn17 2.600096 1_555
Zn18 Zn20 2.621158 1_555
Zn18 Zn24 2.621308 1_555
Zn19 Zn26 2.620295 1_555
Zn19 Zn22 2.620335 1_555
Zn20 Zn24 2.621124 1_555
Zn21 Zn28 2.619937 1_555
Zn21 Zn25 2.619974 1_555
Zn21 Zn3 2.621512 1_555
Zn22 Zn26 2.620166 1_555
Zn22 Zn4 2.620859 1_555
Zn23 Zn5 2.618840 1_555
Zn23 Zn27 2.621039 1_555
Zn23 Zn29 2.621177 1_555
Zn24 Zn6 2.618495 1_555
Zn25 Zn28 2.619811 1_555
Zn25 Zn7 2.621413 1_555
Zn26 Zn8 2.620890 1_555
Zn27 Zn9 2.618668 1_555
Zn27 Zn29 2.621000 1_555
Zn30 Zn32 2.611631 1_655
Zn30 Zn34 2.612125 1_545
Zn30 Zn5 2.660786 1_555
Zn31 Zn33 2.610379 1_455
Zn31 Zn35 2.610533 1_565
Zn32 Zn34 2.611861 1_445
Zn32 Zn9 2.660788 1_555
Zn33 Zn35 2.610443 1_665
Zn33 Zn4 2.660543 1_555
Zn33 Zn7 2.660730 1_555
Zn34 Zn6 2.660246 1_555
Zn35 Zn8 2.660702 1_555
