# generated using pymatgen
data_BaTbEuBiO6
_symmetry_space_group_name_H-M   'P 1'
_cell_length_a   6.10047597
_cell_length_b   6.21868938
_cell_length_c   8.70770059
_cell_angle_alpha   90.07248795
_cell_angle_beta   89.92704289
_cell_angle_gamma   89.80696979
_symmetry_Int_Tables_number   1
_chemical_formula_structural   BaTbEuBiO6
_chemical_formula_sum   'Ba2 Tb2 Eu2 Bi2 O12'
_cell_volume   330.34132496
_cell_formula_units_Z   2
loop_
 _symmetry_equiv_pos_site_id
 _symmetry_equiv_pos_as_xyz
  1  'x, y, z'
loop_
 _atom_site_type_symbol
 _atom_site_label
 _atom_site_symmetry_multiplicity
 _atom_site_fract_x
 _atom_site_fract_y
 _atom_site_fract_z
 _atom_site_occupancy
  Ba  Ba0  1  0.99104841  0.03590578  0.25026094  1
  Ba  Ba1  1  0.00895159  0.96409422  0.74973906  1
  Tb  Tb0  1  0.50000000  0.00000000  0.00000000  1
  Tb  Tb1  1  -0.00000000  0.50000000  0.50000000  1
  Eu  Eu0  1  0.51081054  0.54721539  0.25103483  1
  Eu  Eu1  1  0.48918946  0.45278461  0.74896517  1
  Bi  Bi0  1  -0.00000000  0.50000000  0.00000000  1
  Bi  Bi1  1  0.50000000  0.00000000  0.50000000  1
  O  O0  1  0.20946879  0.22060340  0.95347783  1
  O  O1  1  0.30883064  0.70207338  0.55262037  1
  O  O2  1  0.79053121  0.77939660  0.04652217  1
  O  O3  1  0.69116936  0.29792662  0.44737963  1
  O  O4  1  0.29469982  0.69396821  0.94542947  1
  O  O5  1  0.21897265  0.21293102  0.54511223  1
  O  O6  1  0.70530018  0.30603179  0.05457053  1
  O  O7  1  0.78102735  0.78706898  0.45488777  1
  O  O8  1  0.42631916  0.95081338  0.25411054  1
  O  O9  1  0.10978590  0.48780745  0.24409543  1
  O  O10  1  0.57368084  0.04918662  0.74588946  1
  O  O11  1  0.89021410  0.51219255  0.75590457  1
loop_
_geom_bond_atom_site_label_1
_geom_bond_atom_site_label_2
_geom_bond_distance
_geom_bond_site_symmetry_2
Ba0 O2 2.683240 1_545
Ba0 O7 2.688038 1_545
Ba0 O8 2.706080 1_645
Ba0 O9 2.904995 1_655
Ba0 O6 2.959614 1_555
Ba0 O3 2.985431 1_555
Ba0 O5 3.122409 1_655
Ba0 O0 3.127675 1_654
Ba1 O0 2.683240 1_565
Ba1 O5 2.688038 1_565
Ba1 O10 2.706080 1_465
Ba1 O11 2.904995 1_455
Ba1 O4 2.959614 1_555
Ba1 O1 2.985431 1_555
Ba1 O7 3.122409 1_455
Ba1 O2 3.127675 1_456
Eu0 O9 2.476211 1_555
Eu0 O3 2.556755 1_555
Eu0 O8 2.560629 1_555
Eu0 O6 2.561307 1_555
Eu0 O7 2.847886 1_555
Eu0 O2 2.860661 1_555
Eu0 O1 3.052786 1_555
Eu0 O4 3.107975 1_554
Eu1 O11 2.476211 1_555
Eu1 O1 2.556755 1_555
Eu1 O10 2.560629 1_555
Eu1 O4 2.561307 1_555
Eu1 O5 2.847886 1_555
Eu1 O0 2.860661 1_555
Eu1 O3 3.052786 1_555
Eu1 O6 3.107975 1_556
Bi0 O2 2.190391 1_455
Bi0 O0 2.190391 1_554
Bi0 O6 2.219637 1_455
Bi0 O4 2.219637 1_554
Bi0 O11 2.230648 1_454
Bi0 O9 2.230648 1_555
Bi1 O7 2.197392 1_545
Bi1 O5 2.197392 1_555
Bi1 O8 2.209472 1_545
Bi1 O10 2.209472 1_555
Bi1 O3 2.240071 1_555
Bi1 O1 2.240071 1_545
O0 Tb0 2.274708 1_556
O1 Tb1 2.314147 1_555
O2 Tb0 2.274708 1_565
O3 Tb1 2.314147 1_655
O4 Tb0 2.330562 1_566
O5 Tb1 2.261134 1_555
O6 Tb0 2.330562 1_555
O7 Tb1 2.261134 1_655
O8 Tb0 2.278559 1_565
O9 Tb1 2.327067 1_555
O10 Tb0 2.278559 1_556
O11 Tb1 2.327067 1_655
