# generated using pymatgen
data_Sm9(Ni13P6)2
_symmetry_space_group_name_H-M   'P 1'
_cell_length_a   14.37694063
_cell_length_b   14.37694063
_cell_length_c   3.87334900
_cell_angle_alpha   90.00000000
_cell_angle_beta   90.00000000
_cell_angle_gamma   120.00000291
_symmetry_Int_Tables_number   1
_chemical_formula_structural   Sm9(Ni13P6)2
_chemical_formula_sum   'Sm9 Ni26 P12'
_cell_volume   693.34630862
_cell_formula_units_Z   1
loop_
 _symmetry_equiv_pos_site_id
 _symmetry_equiv_pos_as_xyz
  1  'x, y, z'
loop_
 _atom_site_type_symbol
 _atom_site_label
 _atom_site_symmetry_multiplicity
 _atom_site_fract_x
 _atom_site_fract_y
 _atom_site_fract_z
 _atom_site_occupancy
  Sm  Sm0  1  0.38119100  0.19059600  0.50000000  1
  Sm  Sm1  1  0.80940400  0.19059600  0.50000000  1
  Sm  Sm2  1  0.80940400  0.61880900  0.50000000  1
  Sm  Sm3  1  0.81439300  0.90719700  0.50000000  1
  Sm  Sm4  1  0.09280300  0.90719700  0.50000000  1
  Sm  Sm5  1  0.09280300  0.18560700  0.50000000  1
  Sm  Sm6  1  0.15128500  0.57564200  0.00000000  1
  Sm  Sm7  1  0.42435800  0.57564200  0.00000000  1
  Sm  Sm8  1  0.42435800  0.84871500  0.00000000  1
  Ni  Ni0  1  0.61833100  0.80916500  0.00000000  1
  Ni  Ni1  1  0.19083500  0.80916500  0.00000000  1
  Ni  Ni2  1  0.19083500  0.38166900  0.00000000  1
  Ni  Ni3  1  0.79996200  0.39998100  0.50000000  1
  Ni  Ni4  1  0.60001900  0.39998100  0.50000000  1
  Ni  Ni5  1  0.60001900  0.20003800  0.50000000  1
  Ni  Ni6  1  0.55517400  0.27758700  0.00000000  1
  Ni  Ni7  1  0.72241300  0.27758700  0.00000000  1
  Ni  Ni8  1  0.72241300  0.44482600  0.00000000  1
  Ni  Ni9  1  0.19319500  0.09659800  0.00000000  1
  Ni  Ni10  1  0.90340200  0.09659800  0.00000000  1
  Ni  Ni11  1  0.90340200  0.80680500  0.00000000  1
  Ni  Ni12  1  0.32650400  0.37924400  0.50000000  1
  Ni  Ni13  1  0.62075600  0.94726000  0.50000000  1
  Ni  Ni14  1  0.32650400  0.94726000  0.50000000  1
  Ni  Ni15  1  0.05274000  0.67349600  0.50000000  1
  Ni  Ni16  1  0.62075600  0.67349600  0.50000000  1
  Ni  Ni17  1  0.05274000  0.37924400  0.50000000  1
  Ni  Ni18  1  0.62319200  0.07752600  0.00000000  1
  Ni  Ni19  1  0.92247400  0.54566600  0.00000000  1
  Ni  Ni20  1  0.62319200  0.54566600  0.00000000  1
  Ni  Ni21  1  0.45433400  0.37680800  0.00000000  1
  Ni  Ni22  1  0.92247400  0.37680800  0.00000000  1
  Ni  Ni23  1  0.45433400  0.07752600  0.00000000  1
  Ni  Ni24  1  0.33333300  0.66666700  0.50000000  1
  Ni  Ni25  1  0.00000000  0.00000000  0.00000000  1
  P  P0  1  0.97368600  0.48684300  0.50000000  1
  P  P1  1  0.51315700  0.48684300  0.50000000  1
  P  P2  1  0.51315700  0.02631400  0.50000000  1
  P  P3  1  0.72237300  0.99623800  0.00000000  1
  P  P4  1  0.00376200  0.72613400  0.00000000  1
  P  P5  1  0.72237300  0.72613400  0.00000000  1
  P  P6  1  0.27386600  0.27762700  0.00000000  1
  P  P7  1  0.00376200  0.27762700  0.00000000  1
  P  P8  1  0.27386600  0.99623800  0.00000000  1
  P  P9  1  0.51782500  0.75891300  0.50000000  1
  P  P10  1  0.24108700  0.75891300  0.50000000  1
  P  P11  1  0.24108700  0.48217500  0.50000000  1
loop_
_geom_bond_atom_site_label_1
_geom_bond_atom_site_label_2
_geom_bond_distance
_geom_bond_site_symmetry_2
Ni0 P9 2.305788 1_554
Ni0 P9 2.305788 1_555
Ni0 P3 2.334099 1_555
Ni0 P5 2.334100 1_555
Ni0 Sm7 3.112246 1_555
Ni0 Sm8 3.112246 1_555
Ni0 Sm3 3.116057 1_554
Ni0 Sm3 3.116057 1_555
Ni1 P10 2.305775 1_555
Ni1 P10 2.305775 1_554
Ni1 P8 2.334100 1_555
Ni1 P4 2.334100 1_555
Ni1 Sm6 3.112246 1_555
Ni1 Sm8 3.112246 1_555
Ni1 Sm4 3.116077 1_554
Ni1 Sm4 3.116077 1_555
Ni2 P11 2.305788 1_554
Ni2 P11 2.305788 1_555
Ni2 P7 2.334099 1_555
Ni2 P6 2.334100 1_555
Ni2 Sm7 3.112246 1_555
Ni2 Sm6 3.112246 1_555
Ni2 Sm5 3.116057 1_554
Ni2 Sm5 3.116057 1_555
Ni3 P0 2.163002 1_555
Ni3 Ni7 2.475531 1_555
Ni3 Ni7 2.475531 1_556
Ni3 Ni8 2.475531 1_555
Ni3 Ni8 2.475531 1_556
Ni3 Sm1 3.080433 1_555
Ni3 Sm2 3.080448 1_555
Ni4 P1 2.163002 1_555
Ni4 Ni8 2.475531 1_555
Ni4 Ni6 2.475531 1_556
Ni4 Ni6 2.475531 1_555
Ni4 Ni8 2.475531 1_556
Ni4 Sm0 3.080441 1_555
Ni4 Sm2 3.080441 1_555
Ni5 P2 2.163002 1_555
Ni5 Ni7 2.475531 1_555
Ni5 Ni7 2.475531 1_556
Ni5 Ni6 2.475531 1_556
Ni5 Ni6 2.475531 1_555
Ni5 Sm1 3.080433 1_555
Ni5 Sm0 3.080448 1_555
Ni6 Ni8 2.404385 1_555
Ni6 Ni7 2.404385 1_555
Ni6 Sm0 2.905726 1_555
Ni6 Sm0 2.905726 1_554
Ni7 Ni8 2.404385 1_555
Ni7 Sm1 2.905717 1_554
Ni7 Sm1 2.905717 1_555
Ni8 Sm2 2.905726 1_555
Ni8 Sm2 2.905726 1_554
Ni9 P6 2.258393 1_555
Ni9 P8 2.258419 1_545
Ni9 Sm0 3.038023 1_555
Ni9 Sm0 3.038023 1_554
Ni9 Sm4 3.052618 1_545
Ni9 Sm4 3.052618 1_544
Ni9 Sm5 3.052618 1_554
Ni9 Sm5 3.052618 1_555
Ni10 P7 2.258395 1_655
Ni10 P3 2.258395 1_545
Ni10 Ni25 2.405444 1_655
Ni10 Sm1 3.038023 1_554
Ni10 Sm1 3.038023 1_555
Ni10 Sm5 3.052618 1_655
Ni10 Sm5 3.052618 1_654
Ni10 Sm3 3.052618 1_544
Ni10 Sm3 3.052618 1_545
Ni11 P5 2.258393 1_555
Ni11 P4 2.258419 1_655
Ni11 Ni25 2.405431 1_665
Ni11 Sm2 3.038023 1_555
Ni11 Sm2 3.038023 1_554
Ni11 Sm4 3.052618 1_654
Ni11 Sm4 3.052618 1_655
Ni11 Sm3 3.052618 1_555
Ni11 Sm3 3.052618 1_554
Ni12 P6 2.313474 1_555
Ni12 P6 2.313474 1_556
Ni12 P1 2.333020 1_555
Ni12 P11 2.348460 1_555
Ni12 Sm5 3.112144 1_555
Ni12 Sm7 3.119340 1_555
Ni12 Sm7 3.119340 1_556
Ni12 Sm0 3.179071 1_555
Ni13 P3 2.313474 1_555
Ni13 P3 2.313474 1_556
Ni13 P2 2.333020 1_565
Ni13 P9 2.348447 1_555
Ni13 Sm3 3.112135 1_555
Ni13 Sm8 3.119340 1_555
Ni13 Sm8 3.119340 1_556
Ni13 Sm1 3.179080 1_565
Ni14 P8 2.313467 1_555
Ni14 P8 2.313467 1_556
Ni14 P2 2.333020 1_565
Ni14 P10 2.348447 1_555
Ni14 Sm4 3.112149 1_555
Ni14 Sm8 3.119350 1_555
Ni14 Sm8 3.119350 1_556
Ni14 Sm0 3.179085 1_565
Ni15 P4 2.313467 1_555
Ni15 P4 2.313467 1_556
Ni15 P0 2.333020 1_455
Ni15 P10 2.348447 1_555
Ni15 Sm4 3.112149 1_555
Ni15 Sm6 3.119350 1_555
Ni15 Sm6 3.119350 1_556
Ni15 Sm2 3.179085 1_455
Ni16 P5 2.313474 1_555
Ni16 P5 2.313474 1_556
Ni16 P1 2.333020 1_555
Ni16 P9 2.348460 1_555
Ni16 Sm3 3.112144 1_555
Ni16 Sm7 3.119340 1_555
Ni16 Sm7 3.119340 1_556
Ni16 Sm2 3.179071 1_555
Ni17 P7 2.313474 1_556
Ni17 P7 2.313474 1_555
Ni17 P0 2.333020 1_455
Ni17 P11 2.348447 1_555
Ni17 Sm5 3.112135 1_555
Ni17 Sm6 3.119340 1_555
Ni17 Sm6 3.119340 1_556
Ni17 Sm1 3.179080 1_455
Ni18 P3 2.250661 1_545
Ni18 P2 2.372902 1_554
Ni18 P2 2.372902 1_555
Ni18 Ni7 2.490946 1_555
Ni18 Sm1 3.034547 1_554
Ni18 Sm1 3.034547 1_555
Ni18 Sm8 3.096688 1_545
Ni19 P4 2.250648 1_655
Ni19 P0 2.372902 1_555
Ni19 P0 2.372902 1_554
Ni19 Ni8 2.490946 1_555
Ni19 Sm2 3.034556 1_555
Ni19 Sm2 3.034556 1_554
Ni19 Sm6 3.096694 1_655
Ni20 P5 2.250649 1_555
Ni20 P1 2.372902 1_554
Ni20 P1 2.372902 1_555
Ni20 Ni8 2.490946 1_555
Ni20 Sm2 3.034545 1_555
Ni20 Sm2 3.034545 1_554
Ni20 Sm7 3.096680 1_555
Ni21 P6 2.250649 1_555
Ni21 P1 2.372902 1_555
Ni21 P1 2.372902 1_554
Ni21 Ni6 2.490946 1_555
Ni21 Sm0 3.034545 1_554
Ni21 Sm0 3.034545 1_555
Ni21 Sm7 3.096680 1_555
Ni22 P7 2.250661 1_655
Ni22 P0 2.372902 1_554
Ni22 P0 2.372902 1_555
Ni22 Ni7 2.490946 1_555
Ni22 Sm1 3.034547 1_555
Ni22 Sm1 3.034547 1_554
Ni22 Sm6 3.096688 1_655
Ni23 P8 2.250648 1_545
Ni23 P2 2.372902 1_554
Ni23 P2 2.372902 1_555
Ni23 Ni6 2.490946 1_555
Ni23 Sm0 3.034556 1_555
Ni23 Sm0 3.034556 1_554
Ni23 Sm8 3.096694 1_545
Ni24 P11 2.297072 1_555
Ni24 P9 2.297072 1_555
Ni24 P10 2.297072 1_555
Ni24 Sm6 2.981338 1_555
Ni24 Sm6 2.981338 1_556
Ni24 Sm8 2.981338 1_555
Ni24 Sm8 2.981338 1_556
Ni24 Sm7 2.981357 1_556
Ni24 Sm7 2.981357 1_555
Ni25 Ni9 2.405431 1_555
Ni25 Sm4 3.015156 1_545
Ni25 Sm4 3.015156 1_544
Ni25 Sm3 3.015165 1_444
Ni25 Sm3 3.015165 1_445
Ni25 Sm5 3.015165 1_554
Ni25 Sm5 3.015165 1_555
P0 Sm6 2.939444 1_656
P0 Sm6 2.939444 1_655
P1 Sm7 2.939434 1_555
P1 Sm7 2.939434 1_556
P2 Sm8 2.939444 1_545
P2 Sm8 2.939444 1_546
P3 Sm3 2.972083 1_554
P3 Sm3 2.972083 1_555
P3 Sm1 3.102897 1_565
P3 Sm1 3.102897 1_564
P4 Sm4 2.972102 1_555
P4 Sm4 2.972102 1_554
P4 Sm2 3.102895 1_455
P4 Sm2 3.102895 1_454
P5 Sm3 2.972102 1_555
P5 Sm3 2.972102 1_554
P5 Sm2 3.102876 1_555
P5 Sm2 3.102876 1_554
P6 Sm5 2.972102 1_554
P6 Sm5 2.972102 1_555
P6 Sm0 3.102876 1_554
P6 Sm0 3.102876 1_555
P7 Sm5 2.972083 1_554
P7 Sm5 2.972083 1_555
P7 Sm1 3.102897 1_455
P7 Sm1 3.102897 1_454
P8 Sm4 2.972102 1_555
P8 Sm4 2.972102 1_554
P8 Sm0 3.102895 1_565
P8 Sm0 3.102895 1_564
P9 Sm8 2.993028 1_555
P9 Sm8 2.993028 1_556
P9 Sm7 2.993047 1_556
P9 Sm7 2.993047 1_555
P10 Sm6 2.993047 1_555
P10 Sm6 2.993047 1_556
P10 Sm8 2.993047 1_555
P10 Sm8 2.993047 1_556
P11 Sm6 2.993028 1_556
P11 Sm6 2.993028 1_555
P11 Sm7 2.993047 1_556
P11 Sm7 2.993047 1_555
