# generated using pymatgen
data_ZrU3Sb5
_symmetry_space_group_name_H-M   'P 1'
_cell_length_a   9.34303366
_cell_length_b   9.34281653
_cell_length_c   6.27475661
_cell_angle_alpha   90.00044537
_cell_angle_beta   89.99963896
_cell_angle_gamma   120.00170982
_symmetry_Int_Tables_number   1
_chemical_formula_structural   ZrU3Sb5
_chemical_formula_sum   'Zr2 U6 Sb10'
_cell_volume   474.33565137
_cell_formula_units_Z   2
loop_
 _symmetry_equiv_pos_site_id
 _symmetry_equiv_pos_as_xyz
  1  'x, y, z'
loop_
 _atom_site_type_symbol
 _atom_site_label
 _atom_site_symmetry_multiplicity
 _atom_site_fract_x
 _atom_site_fract_y
 _atom_site_fract_z
 _atom_site_occupancy
  Zr  Zr0  1  -0.00000471  0.00000516  0.00000356  1
  Zr  Zr1  1  -0.00000575  0.00000644  0.49999110  1
  U  U0  1  0.38616954  -0.00000894  0.74572240  1
  U  U1  1  0.38614348  0.38614909  0.25424576  1
  U  U2  1  0.00002564  0.61385142  0.25427306  1
  U  U3  1  -0.00002631  0.38614858  0.74573645  1
  U  U4  1  0.61383669  0.61384893  0.74574872  1
  U  U5  1  0.61386022  0.00002633  0.25427626  1
  Sb  Sb0  1  0.66666464  0.33334751  0.49998809  1
  Sb  Sb1  1  0.33332633  0.66668319  0.00000892  1
  Sb  Sb2  1  0.73194084  0.00001145  0.74962339  1
  Sb  Sb3  1  0.73196864  0.73196909  0.25033599  1
  Sb  Sb4  1  0.33333568  0.66666819  0.49999498  1
  Sb  Sb5  1  0.66667798  0.33333407  0.00001737  1
  Sb  Sb6  1  0.26808603  0.00000333  0.25038041  1
  Sb  Sb7  1  0.26799622  0.26800096  0.74964743  1
  Sb  Sb8  1  0.00000051  0.73191743  0.74962959  1
  Sb  Sb9  1  0.00000534  0.26803577  0.25037553  1
loop_
_geom_bond_atom_site_label_1
_geom_bond_atom_site_label_2
_geom_bond_distance
_geom_bond_site_symmetry_2
Sb0 Sb5 3.137195 1_555
Sb0 Sb5 3.137562 1_556
Sb0 U5 3.283588 1_555
Sb0 U3 3.283691 1_655
Sb0 U0 3.283754 1_555
Sb0 U4 3.283758 1_555
Sb0 U2 3.283764 1_655
Sb0 U1 3.283797 1_555
Sb1 Sb4 3.137291 1_555
Sb1 Sb4 3.137466 1_554
Sb1 U2 3.308945 1_555
Sb1 U0 3.308988 1_564
Sb1 U5 3.309275 1_565
Sb1 U4 3.309291 1_554
Sb1 U1 3.309300 1_555
Sb1 U3 3.309364 1_554
Sb2 Zr1 2.953946 1_655
Sb2 Zr0 2.956468 1_656
Sb2 U3 3.201854 1_655
Sb2 U4 3.202102 1_545
Sb2 U0 3.230551 1_555
Sb2 U5 3.298199 1_555
Sb2 U5 3.353270 1_556
Sb3 Zr1 2.953756 1_665
Sb3 Zr0 2.956015 1_665
Sb3 U5 3.202203 1_565
Sb3 U2 3.202302 1_655
Sb3 U1 3.231004 1_555
Sb3 U4 3.298687 1_555
Sb3 U4 3.352989 1_554
Sb4 U0 3.283558 1_565
Sb4 U2 3.283573 1_555
Sb4 U4 3.283757 1_555
Sb4 U1 3.283765 1_555
Sb4 U5 3.283806 1_565
Sb4 U3 3.283895 1_555
Sb5 U5 3.308979 1_555
Sb5 U3 3.309007 1_654
Sb5 U2 3.309236 1_655
Sb5 U0 3.309281 1_554
Sb5 U1 3.309292 1_555
Sb5 U4 3.309363 1_554
Sb6 Zr1 2.954171 1_555
Sb6 Zr0 2.956726 1_555
Sb6 U2 3.202012 1_545
Sb6 U1 3.202048 1_555
Sb6 U5 3.230565 1_555
Sb6 U0 3.298173 1_555
Sb6 U0 3.353305 1_554
Sb7 Zr1 2.953497 1_555
Sb7 Zr0 2.955833 1_556
Sb7 U3 3.202199 1_555
Sb7 U0 3.202227 1_555
Sb7 U4 3.231206 1_555
Sb7 U1 3.298689 1_555
Sb7 U1 3.353122 1_556
Sb8 Zr1 2.954223 1_565
Sb8 Zr0 2.956638 1_566
Sb8 U0 3.202206 1_565
Sb8 U4 3.202273 1_455
Sb8 U3 3.230422 1_555
Sb8 U2 3.298202 1_555
Sb8 U2 3.353191 1_556
Sb9 Zr1 2.953606 1_555
Sb9 Zr0 2.956119 1_555
Sb9 U5 3.201910 1_455
Sb9 U1 3.201952 1_555
Sb9 U2 3.230890 1_555
Sb9 U3 3.298384 1_555
Sb9 U3 3.353319 1_554
