# generated using pymatgen
data_H7C2SBrN4
_symmetry_space_group_name_H-M   'P 1'
_cell_length_a   5.10022900
_cell_length_b   7.56394742
_cell_length_c   9.86181093
_cell_angle_alpha   94.89516774
_cell_angle_beta   89.42043295
_cell_angle_gamma   103.41230385
_symmetry_Int_Tables_number   1
_chemical_formula_structural   H7C2SBrN4
_chemical_formula_sum   'H14 C4 S2 Br2 N8'
_cell_volume   368.70308542
_cell_formula_units_Z   2
loop_
 _symmetry_equiv_pos_site_id
 _symmetry_equiv_pos_as_xyz
  1  'x, y, z'
loop_
 _atom_site_type_symbol
 _atom_site_label
 _atom_site_symmetry_multiplicity
 _atom_site_fract_x
 _atom_site_fract_y
 _atom_site_fract_z
 _atom_site_occupancy
  H  H0  1  0.95423100  0.09070400  0.31449100  1
  H  H1  1  0.04576900  0.90929600  0.68550900  1
  H  H2  1  0.28875500  0.52291500  0.61097100  1
  H  H3  1  0.71124500  0.47708500  0.38902900  1
  H  H4  1  0.25296000  0.93987800  0.28009800  1
  H  H5  1  0.74704000  0.06012200  0.71990200  1
  H  H6  1  0.15899800  0.47134900  0.11545300  1
  H  H7  1  0.84100200  0.52865100  0.88454700  1
  H  H8  1  0.56560600  0.05602000  0.87164100  1
  H  H9  1  0.43439400  0.94398000  0.12835900  1
  H  H10  1  0.70800000  0.25513300  0.43127400  1
  H  H11  1  0.29200000  0.74486700  0.56872600  1
  H  H12  1  0.04268500  0.39960000  0.78609800  1
  H  H13  1  0.95731500  0.60040000  0.21390200  1
  C  C0  1  0.22400200  0.14356000  0.15858700  1
  C  C1  1  0.77599800  0.85644000  0.84141300  1
  C  C2  1  0.05217800  0.65263700  0.73058200  1
  C  C3  1  0.94782200  0.34736300  0.26941800  1
  S  S0  1  0.33167900  0.25109300  0.01915800  1
  S  S1  1  0.66832100  0.74890700  0.98084200  1
  Br  Br0  1  0.28133800  0.20110600  0.61123200  1
  Br  Br1  1  0.71866200  0.79889400  0.38876800  1
  N  N0  1  0.03393000  0.48723100  0.19572700  1
  N  N1  1  0.96607000  0.51276900  0.80427300  1
  N  N2  1  0.23032100  0.64366700  0.63191100  1
  N  N3  1  0.76967900  0.35633300  0.36808900  1
  N  N4  1  0.03612700  0.18950000  0.24985100  1
  N  N5  1  0.96387300  0.81050000  0.75014900  1
  N  N6  1  0.68980300  0.00052800  0.80776900  1
  N  N7  1  0.31019700  0.99947200  0.19223100  1
loop_
_geom_bond_atom_site_label_1
_geom_bond_atom_site_label_2
_geom_bond_distance
_geom_bond_site_symmetry_2
H0 N4 1.034591 1_655
H1 N5 1.034591 1_455
H2 N2 1.028854 1_555
H3 N3 1.028854 1_555
H4 N7 1.019695 1_555
H5 N6 1.019695 1_555
H6 N0 1.028165 1_555
H7 N1 1.028165 1_555
H8 N6 1.021926 1_555
H9 N7 1.021926 1_555
H10 N3 1.019269 1_555
H11 N2 1.019269 1_555
H12 N1 1.022316 1_455
H13 N0 1.022316 1_655
C0 N7 1.333457 1_545
C0 N4 1.390180 1_555
C0 S0 1.679950 1_555
C1 N6 1.333457 1_565
C1 N5 1.390180 1_555
C1 S1 1.679950 1_555
C2 N1 1.322680 1_455
C2 N2 1.332825 1_555
C2 N5 1.369041 1_455
C3 N0 1.322680 1_655
C3 N3 1.332825 1_555
C3 N4 1.369041 1_655
