# generated using pymatgen
data_Li2Ce2Si3
_symmetry_space_group_name_H-M   'P 1'
_cell_length_a   9.52152521
_cell_length_b   9.52152521
_cell_length_c   6.79941516
_cell_angle_alpha   90.00000000
_cell_angle_beta   90.00000000
_cell_angle_gamma   153.18726818
_symmetry_Int_Tables_number   1
_chemical_formula_structural   Li2Ce2Si3
_chemical_formula_sum   'Li4 Ce4 Si6'
_cell_volume   278.05723535
_cell_formula_units_Z   2
loop_
 _symmetry_equiv_pos_site_id
 _symmetry_equiv_pos_as_xyz
  1  'x, y, z'
loop_
 _atom_site_type_symbol
 _atom_site_label
 _atom_site_symmetry_multiplicity
 _atom_site_fract_x
 _atom_site_fract_y
 _atom_site_fract_z
 _atom_site_occupancy
  Li  Li0  1  0.81086449  0.18913551  0.55938093  1
  Li  Li1  1  0.18913551  0.81086449  0.44061907  1
  Li  Li2  1  0.18913551  0.81086449  0.05938093  1
  Li  Li3  1  0.81086449  0.18913551  0.94061907  1
  Ce  Ce0  1  0.55242945  0.44757055  0.25000000  1
  Ce  Ce1  1  0.44757055  0.55242945  0.75000000  1
  Ce  Ce2  1  0.34238416  0.65761584  0.25000000  1
  Ce  Ce3  1  0.65761584  0.34238416  0.75000000  1
  Si  Si0  1  0.94227245  0.05772755  0.07521138  1
  Si  Si1  1  0.05772755  0.94227245  0.92478862  1
  Si  Si2  1  0.05772755  0.94227245  0.57521138  1
  Si  Si3  1  0.94227245  0.05772755  0.42478862  1
  Si  Si4  1  0.71898391  0.28101609  0.25000000  1
  Si  Si5  1  0.28101609  0.71898391  0.75000000  1
loop_
_geom_bond_atom_site_label_1
_geom_bond_atom_site_label_2
_geom_bond_distance
_geom_bond_site_symmetry_2
Li0 Si3 2.600561 1_555
Li0 Si5 2.619004 1_545
Li0 Si5 2.619004 1_655
Li0 Si4 2.705920 1_555
Li1 Si2 2.600561 1_555
Li1 Si4 2.619004 1_455
Li1 Si4 2.619004 1_565
Li1 Si5 2.705920 1_555
Li2 Si1 2.600561 1_554
Li2 Si4 2.619004 1_455
Li2 Si4 2.619004 1_565
Li2 Si5 2.705920 1_554
Li3 Si0 2.600561 1_556
Li3 Si5 2.619004 1_545
Li3 Si5 2.619004 1_655
Li3 Si4 2.705920 1_556
Ce0 Si4 3.085276 1_555
Ce0 Si1 3.126155 1_654
Ce0 Si1 3.126155 1_544
Ce0 Si2 3.126155 1_545
Ce0 Si2 3.126155 1_655
Ce0 Si0 3.232635 1_455
Ce0 Si3 3.232635 1_455
Ce0 Si3 3.232635 1_565
Ce0 Si0 3.232635 1_565
Ce1 Si5 3.085276 1_555
Ce1 Si3 3.126155 1_455
Ce1 Si3 3.126155 1_565
Ce1 Si0 3.126155 1_456
Ce1 Si0 3.126155 1_566
Ce1 Si2 3.232635 1_545
Ce1 Si2 3.232635 1_655
Ce1 Si1 3.232635 1_545
Ce1 Si1 3.232635 1_655
Ce2 Li3 3.104783 1_454
Ce2 Li0 3.104783 1_455
Ce2 Li3 3.104783 1_564
Ce2 Li0 3.104783 1_565
Ce2 Si3 3.116056 1_565
Ce2 Si0 3.116056 1_565
Ce2 Si3 3.116056 1_455
Ce2 Si0 3.116056 1_455
Ce2 Li2 3.120680 1_555
Ce2 Li1 3.120680 1_555
Ce2 Si4 3.177870 1_455
Ce2 Si4 3.177870 1_565
Ce3 Li1 3.104783 1_545
Ce3 Li1 3.104783 1_655
Ce3 Li2 3.104783 1_546
Ce3 Li2 3.104783 1_656
Ce3 Si2 3.116056 1_655
Ce3 Si1 3.116056 1_655
Ce3 Si2 3.116056 1_545
Ce3 Si1 3.116056 1_545
Ce3 Li3 3.120680 1_555
Ce3 Li0 3.120680 1_555
Ce3 Si5 3.177870 1_655
Ce3 Si5 3.177870 1_545
Si0 Si1 2.370686 1_644
Si0 Si3 2.376921 1_555
Si1 Si2 2.376921 1_555
Si2 Si3 2.370686 1_465
