# generated using pymatgen
data_Sr2NbCoO6
_symmetry_space_group_name_H-M   'P 1'
_cell_length_a   5.63533903
_cell_length_b   5.63609939
_cell_length_c   9.72486671
_cell_angle_alpha   74.66793285
_cell_angle_beta   74.66676475
_cell_angle_gamma   61.02418251
_symmetry_Int_Tables_number   1
_chemical_formula_structural   Sr2NbCoO6
_chemical_formula_sum   'Sr4 Nb2 Co2 O12'
_cell_volume   257.16899499
_cell_formula_units_Z   2
loop_
 _symmetry_equiv_pos_site_id
 _symmetry_equiv_pos_as_xyz
  1  'x, y, z'
loop_
 _atom_site_type_symbol
 _atom_site_label
 _atom_site_symmetry_multiplicity
 _atom_site_fract_x
 _atom_site_fract_y
 _atom_site_fract_z
 _atom_site_occupancy
  Sr  Sr0  1  0.99987100  0.99990000  0.00045300  1
  Sr  Sr1  1  0.50022300  0.50021600  0.49946800  1
  Sr  Sr2  1  0.24978100  0.24978800  0.25053500  1
  Sr  Sr3  1  0.75013300  0.75010300  0.74955100  1
  Nb  Nb0  1  0.62498300  0.62498400  0.12521900  1
  Nb  Nb1  1  0.12502800  0.12502800  0.62477400  1
  Co  Co0  1  0.37500300  0.37500300  0.87500100  1
  Co  Co1  1  0.87500300  0.87500300  0.37500100  1
  O  O0  1  0.75316700  0.75319000  0.25399100  1
  O  O1  1  0.25392800  0.25384700  0.75276200  1
  O  O2  1  0.49606000  0.49614100  0.99724500  1
  O  O3  1  0.99682300  0.99680000  0.49601600  1
  O  O4  1  0.50199700  0.99557500  0.00187500  1
  O  O5  1  0.00149400  0.49501700  0.50130200  1
  O  O6  1  0.74852700  0.25495800  0.24869400  1
  O  O7  1  0.24802600  0.75440200  0.74812200  1
  O  O8  1  0.99564700  0.50200000  0.00189200  1
  O  O9  1  0.49502600  0.00148700  0.50128300  1
  O  O10  1  0.25495000  0.74853300  0.24871300  1
  O  O11  1  0.75432900  0.24802400  0.74810500  1
loop_
_geom_bond_atom_site_label_1
_geom_bond_atom_site_label_2
_geom_bond_distance
_geom_bond_site_symmetry_2
Nb0 O10 1.996609 1_555
Nb0 O6 1.996738 1_555
Nb0 O8 1.998483 1_555
Nb0 O4 1.998491 1_555
Nb0 O2 2.017745 1_554
Nb0 O0 2.018618 1_555
Nb1 O9 1.996456 1_555
Nb1 O5 1.996577 1_555
Nb1 O11 1.998640 1_455
Nb1 O7 1.998649 1_545
Nb1 O1 2.017670 1_555
Nb1 O3 2.018677 1_445
Co0 O2 1.911597 1_555
Co0 O1 1.911698 1_555
Co0 O11 2.047979 1_555
Co0 O8 2.048080 1_456
Co0 O7 2.048444 1_555
Co0 O4 2.048541 1_546
Co1 O3 1.907504 1_555
Co1 O0 1.907591 1_555
Co1 O10 2.048017 1_655
Co1 O9 2.048114 1_565
Co1 O6 2.048367 1_565
Co1 O5 2.048468 1_655
O0 Sr1 2.851859 1_555
O0 Sr2 2.861823 1_565
O0 Sr2 2.861926 1_655
O0 Sr0 2.862278 1_555
O1 Sr1 2.858759 1_555
O1 Sr3 2.861756 1_545
O1 Sr3 2.862035 1_455
O1 Sr0 2.870327 1_446
O2 Sr2 2.858646 1_556
O2 Sr0 2.861755 1_456
O2 Sr0 2.862040 1_546
O2 Sr3 2.870434 1_555
O3 Sr2 2.851963 1_665
O3 Sr1 2.861824 1_655
O3 Sr1 2.861927 1_565
O3 Sr3 2.862185 1_555
O4 Sr0 2.813937 1_555
O4 Sr0 2.821594 1_455
O4 Sr2 2.821711 1_565
O4 Sr3 2.827873 1_554
O5 Sr2 2.814134 1_555
O5 Sr1 2.815497 1_455
O5 Sr1 2.820130 1_555
O5 Sr3 2.820556 1_455
O6 Sr1 2.814274 1_555
O6 Sr2 2.815498 1_655
O6 Sr2 2.820127 1_555
O6 Sr0 2.820409 1_545
O7 Sr3 2.813954 1_455
O7 Sr3 2.821575 1_555
O7 Sr1 2.821583 1_555
O7 Sr0 2.828005 1_456
O8 Sr0 2.814138 1_555
O8 Sr2 2.821310 1_655
O8 Sr0 2.822147 1_545
O8 Sr3 2.828088 1_554
O9 Sr2 2.813983 1_555
O9 Sr1 2.815835 1_545
O9 Sr1 2.820550 1_555
O9 Sr3 2.820735 1_545
O10 Sr1 2.814121 1_555
O10 Sr2 2.815839 1_565
O10 Sr2 2.820545 1_555
O10 Sr0 2.820587 1_455
O11 Sr3 2.814162 1_545
O11 Sr1 2.821179 1_555
O11 Sr3 2.822123 1_555
O11 Sr0 2.828226 1_546
