# generated using pymatgen
data_Sm4AlSi5(NO)7
_symmetry_space_group_name_H-M   'P 1'
_cell_length_a   6.91843000
_cell_length_b   6.95480421
_cell_length_c   20.70181683
_cell_angle_alpha   94.55866424
_cell_angle_beta   96.41258731
_cell_angle_gamma   90.96392684
_symmetry_Int_Tables_number   1
_chemical_formula_structural   Sm4AlSi5(NO)7
_chemical_formula_sum   'Sm12 Al3 Si15 N21 O21'
_cell_volume   986.39962427
_cell_formula_units_Z   3
loop_
 _symmetry_equiv_pos_site_id
 _symmetry_equiv_pos_as_xyz
  1  'x, y, z'
loop_
 _atom_site_type_symbol
 _atom_site_label
 _atom_site_symmetry_multiplicity
 _atom_site_fract_x
 _atom_site_fract_y
 _atom_site_fract_z
 _atom_site_occupancy
  Sm  Sm0  1  0.30262400  0.35538900  0.72464100  1
  Sm  Sm1  1  0.33975300  0.39614100  0.40987700  1
  Sm  Sm2  1  0.59783600  0.44451100  0.87840300  1
  Sm  Sm3  1  0.80345500  0.34442400  0.61843800  1
  Sm  Sm4  1  0.23967700  0.37014200  0.06529800  1
  Sm  Sm5  1  0.62119800  0.41098800  0.25266300  1
  Sm  Sm6  1  0.07337200  0.59150200  0.92687900  1
  Sm  Sm7  1  0.23131900  0.59478600  0.56825900  1
  Sm  Sm8  1  0.17737700  0.63289300  0.25112800  1
  Sm  Sm9  1  0.83833800  0.62163700  0.41021800  1
  Sm  Sm10  1  0.80405600  0.64590700  0.75380100  1
  Sm  Sm11  1  0.68134000  0.63215200  0.09250800  1
  Al  Al0  1  0.98978500  0.92638700  0.67173200  1
  Al  Al1  1  0.36465900  0.81317200  0.38970400  1
  Al  Al2  1  0.35019300  0.88893400  0.00018900  1
  Si  Si0  1  0.95865300  0.94996600  0.04036800  1
  Si  Si1  1  0.52638600  0.02265800  0.82186200  1
  Si  Si2  1  0.87191100  0.10578100  0.34197700  1
  Si  Si3  1  0.40614800  0.00755100  0.19171400  1
  Si  Si4  1  0.68224300  0.91437900  0.96521200  1
  Si  Si5  1  0.37045100  0.83715400  0.69346400  1
  Si  Si6  1  0.59229300  0.81359800  0.61306500  1
  Si  Si7  1  0.69173900  0.85037200  0.28659300  1
  Si  Si8  1  0.13574700  0.11682400  0.88651500  1
  Si  Si9  1  0.17636400  0.11871200  0.55987000  1
  Si  Si10  1  0.88306200  0.20327100  0.79191700  1
  Si  Si11  1  0.09155400  0.18133100  0.26495800  1
  Si  Si12  1  0.96085600  0.20916000  0.47869600  1
  Si  Si13  1  0.82321700  0.23037400  0.13687700  1
  Si  Si14  1  0.54952400  0.06436100  0.49979300  1
  N  N0  1  0.59646500  0.58521100  0.63968300  1
  N  N1  1  0.52350200  0.71615200  0.32670700  1
  N  N2  1  0.62585600  0.19890400  0.78495000  1
  N  N3  1  0.41034200  0.23616500  0.15762700  1
  N  N4  1  0.73443700  0.22728200  0.50368100  1
  N  N5  1  0.57888700  0.30322300  0.12498100  1
  N  N6  1  0.20290600  0.64164700  0.68428000  1
  N  N7  1  0.56043700  0.81985000  0.52117500  1
  N  N8  1  0.99694200  0.65310600  0.65739000  1
  N  N9  1  0.94409600  0.69853300  0.02438800  1
  N  N10  1  0.47950300  0.62074700  0.80104200  1
  N  N11  1  0.48815700  0.80594700  0.77414400  1
  N  N12  1  0.76772100  0.66930100  0.97115500  1
  N  N13  1  0.11856800  0.70091200  0.35751900  1
  N  N14  1  0.66862200  0.72420800  0.20595900  1
  N  N15  1  0.45986400  0.67649600  0.46939700  1
  N  N16  1  0.46682500  0.76544500  0.16951200  1
  N  N17  1  0.93104000  0.68474200  0.31053600  1
  N  N18  1  0.89522000  0.44589300  0.84102000  1
  N  N19  1  0.06884300  0.42677100  0.46737300  1
  N  N20  1  0.93039500  0.29756500  0.21358900  1
  O  O0  1  0.36612300  0.64178000  0.01935900  1
  O  O1  1  0.17486900  0.28681100  0.95022900  1
  O  O2  1  0.95794500  0.30904900  0.72688300  1
  O  O3  1  0.34260000  0.15231600  0.84943700  1
  O  O4  1  0.14443000  0.30077900  0.61428700  1
  O  O5  1  0.75689300  0.31707700  0.35411300  1
  O  O6  1  0.40972100  0.17459400  0.55200500  1
  O  O7  1  0.27756000  0.33598400  0.29265500  1
  O  O8  1  0.92190300  0.36590900  0.08703800  1
  O  O9  1  0.95407100  0.03847700  0.41598600  1
  O  O10  1  0.91217300  0.95878100  0.75634600  1
  O  O11  1  0.85906800  0.99813400  0.11061500  1
  O  O12  1  0.12626400  0.90613800  0.58187400  1
  O  O13  1  0.19270000  0.90462900  0.92151200  1
  O  O14  1  0.18769500  0.99050800  0.22211300  1
  O  O15  1  0.66582000  0.97232100  0.88874900  1
  O  O16  1  0.76185900  0.99231100  0.62756700  1
  O  O17  1  0.56461800  0.05526900  0.25625900  1
  O  O18  1  0.23224600  0.02851800  0.70299100  1
  O  O19  1  0.41659700  0.05507200  0.42640500  1
  O  O20  1  0.19108500  0.02299000  0.05085500  1
loop_
_geom_bond_atom_site_label_1
_geom_bond_atom_site_label_2
_geom_bond_distance
_geom_bond_site_symmetry_2
Al0 O16 1.817042 1_555
Al0 O18 1.838885 1_665
Al0 O10 1.886488 1_555
Al0 N8 1.902549 1_555
Al0 O12 2.174166 1_655
Al1 O19 1.803394 1_565
Al1 N1 1.889177 1_555
Al1 N13 1.889819 1_555
Al1 N15 2.021589 1_555
Al2 O0 1.797031 1_555
Al2 O20 1.821562 1_565
Al2 O13 1.867576 1_554
N0 Si6 1.721794 1_555
N0 Sm3 2.269991 1_555
N0 Sm10 2.623971 1_555
N0 Sm7 2.785592 1_555
N0 Sm0 3.304098 1_555
N1 Si7 1.793966 1_555
N1 Sm5 2.659589 1_555
N1 Sm8 2.736798 1_555
N1 Sm9 2.748277 1_555
N2 Si1 1.672710 1_555
N2 Si10 1.768718 1_555
N2 Sm2 2.503561 1_555
N2 Sm0 2.723652 1_555
N3 N5 1.497266 1_555
N3 Si3 1.791135 1_555
N3 Sm4 2.394102 1_555
N3 Sm5 2.529052 1_555
N4 Si14 1.685442 1_555
N4 Si12 1.707188 1_555
N4 Sm3 2.441607 1_555
N5 Si13 1.769290 1_555
N5 Sm11 2.546362 1_555
N5 Sm4 2.594440 1_555
N5 Sm5 2.671901 1_555
N6 N8 1.476616 1_455
N6 Si5 1.756485 1_555
N6 Sm0 2.306408 1_555
N6 Sm7 2.428355 1_555
N7 Si14 1.791629 1_565
N7 Si6 1.894463 1_555
N8 Sm10 2.524964 1_555
N8 Sm3 2.537325 1_555
N8 Sm7 2.601924 1_655
N9 Si0 1.752739 1_555
N9 Sm6 2.369738 1_654
N9 Sm11 2.480790 1_555
N10 N11 1.446214 1_555
N10 Sm2 2.188677 1_555
N10 Sm0 2.536274 1_555
N10 Sm10 2.556044 1_555
N11 Si1 1.734634 1_565
N11 Si5 1.805451 1_555
N11 Sm10 2.530944 1_555
N12 N9 1.549330 1_556
N12 Si4 1.822381 1_555
N12 Sm6 2.448911 1_655
N12 Sm2 2.543491 1_555
N12 Sm11 2.677412 1_556
N13 N17 1.528966 1_455
N13 Sm8 2.298108 1_555
N13 Sm9 2.405213 1_455
N13 Sm1 2.848361 1_555
N14 N16 1.553469 1_555
N14 Si7 1.812393 1_555
N14 Sm11 2.396412 1_555
N14 Sm5 2.483834 1_555
N15 N7 1.505757 1_555
N15 Sm1 2.312016 1_555
N15 Sm7 2.808774 1_555
N15 Sm9 3.029621 1_555
N16 Si3 1.779471 1_565
N16 Sm11 2.437833 1_555
N16 Sm8 2.942103 1_555
N17 Si7 2.070073 1_555
N17 Sm8 2.228332 1_655
N17 Sm9 2.300548 1_555
N17 Sm5 2.929465 1_555
N18 Si10 1.895030 1_555
N18 Sm6 2.210535 1_655
N18 Sm2 2.277764 1_555
N18 Sm10 2.401540 1_555
N19 Si12 1.720779 1_455
N19 Sm1 2.333768 1_555
N19 Sm9 2.384536 1_455
N19 Sm7 2.456495 1_555
N20 Si13 1.702212 1_555
N20 Si11 1.711622 1_655
N20 Sm5 2.488864 1_555
N20 Sm8 2.871196 1_655
O0 Sm4 2.377939 1_555
O0 Sm11 2.517322 1_555
O0 Sm6 2.625519 1_554
O1 Si8 1.694781 1_555
O1 Sm6 2.313928 1_555
O1 Sm4 2.396813 1_556
O2 Si10 1.709563 1_555
O2 Sm0 2.407023 1_655
O2 Sm3 2.409074 1_555
O2 Sm10 2.634692 1_555
O3 Si1 1.695477 1_555
O3 Si8 1.720976 1_555
O3 Sm2 2.656397 1_555
O3 Sm0 3.029721 1_555
O4 Si9 1.661176 1_555
O4 Sm3 2.393676 1_455
O4 Sm7 2.417988 1_555
O4 Sm0 2.418829 1_555
O5 Si2 1.697392 1_555
O5 Sm5 2.348833 1_555
O5 Sm9 2.361290 1_555
O6 Si14 1.678786 1_555
O6 Si9 1.682771 1_555
O6 Sm3 3.082772 1_555
O7 Si11 1.682928 1_555
O7 Sm8 2.383420 1_555
O7 Sm1 2.418349 1_555
O7 Sm5 2.660136 1_555
O8 Si13 1.646057 1_555
O8 Sm4 2.292979 1_655
O8 Sm11 2.514738 1_555
O9 Si2 1.678695 1_555
O9 Si12 1.684111 1_555
O9 Sm9 2.984178 1_545
O10 Si10 1.822013 1_565
O10 Sm10 2.283718 1_555
O11 Si0 1.689927 1_555
O11 Si13 1.694087 1_565
O11 Sm11 2.787691 1_555
O12 Si9 1.624321 1_565
O12 Sm7 2.301808 1_555
O13 Si8 1.727376 1_565
O13 Sm6 2.331287 1_555
O14 Si3 1.706621 1_565
O14 Si11 1.721857 1_565
O14 Sm8 2.606309 1_555
O15 Si4 1.656414 1_555
O15 Si1 1.661483 1_565
O16 Si6 1.680522 1_555
O16 Sm3 2.485465 1_565
O17 Si3 1.639394 1_555
O17 Si7 1.805423 1_545
O17 Sm5 2.506478 1_555
O18 Si5 1.663626 1_545
O18 Sm0 2.314736 1_555
O19 Si14 1.681782 1_555
O19 Sm1 2.481377 1_555
O20 Si0 1.663715 1_445
O20 Sm4 2.422211 1_555
