# generated using pymatgen
data_Sn3O4
_symmetry_space_group_name_H-M   'P 1'
_cell_length_a   6.10359610
_cell_length_b   5.85391100
_cell_length_c   7.19130319
_cell_angle_alpha   90.00000000
_cell_angle_beta   90.11751485
_cell_angle_gamma   90.00000000
_symmetry_Int_Tables_number   1
_chemical_formula_structural   Sn3O4
_chemical_formula_sum   'Sn6 O8'
_cell_volume   256.94406373
_cell_formula_units_Z   2
loop_
 _symmetry_equiv_pos_site_id
 _symmetry_equiv_pos_as_xyz
  1  'x, y, z'
loop_
 _atom_site_type_symbol
 _atom_site_label
 _atom_site_symmetry_multiplicity
 _atom_site_fract_x
 _atom_site_fract_y
 _atom_site_fract_z
 _atom_site_occupancy
  Sn  Sn0  1  0.75851800  0.50067400  0.20050400  1
  Sn  Sn1  1  0.74148200  0.50067400  0.79949600  1
  Sn  Sn2  1  0.24148200  0.49932600  0.79949600  1
  Sn  Sn3  1  0.25851800  0.49932600  0.20050400  1
  Sn  Sn4  1  0.00000000  0.00000000  0.50000000  1
  Sn  Sn5  1  0.50000000  0.00000000  0.50000000  1
  O  O0  1  0.00871700  0.71871700  0.28885200  1
  O  O1  1  0.49128300  0.71871700  0.71114800  1
  O  O2  1  0.99128300  0.28128300  0.71114800  1
  O  O3  1  0.50871700  0.28128300  0.28885200  1
  O  O4  1  0.99213600  0.73258500  0.72889500  1
  O  O5  1  0.50786400  0.73258500  0.27110500  1
  O  O6  1  0.00786400  0.26741500  0.27110500  1
  O  O7  1  0.49213600  0.26741500  0.72889500  1
loop_
_geom_bond_atom_site_label_1
_geom_bond_atom_site_label_2
_geom_bond_distance
_geom_bond_site_symmetry_2
O0 Sn0 2.088291 1_455
O0 Sn3 2.093252 1_555
O0 Sn4 2.240558 1_565
O1 Sn1 2.088291 1_555
O1 Sn2 2.093252 1_555
O1 Sn5 2.240558 1_565
O2 Sn2 2.088291 1_655
O2 Sn1 2.093252 1_555
O2 Sn4 2.240558 1_655
O3 Sn3 2.088291 1_555
O3 Sn0 2.093252 1_555
O3 Sn5 2.240558 1_555
O4 Sn2 2.106023 1_655
O4 Sn1 2.108214 1_555
O4 Sn4 2.272151 1_665
O5 Sn3 2.106023 1_555
O5 Sn0 2.108214 1_555
O5 Sn5 2.272151 1_565
O6 Sn0 2.106023 1_455
O6 Sn3 2.108214 1_555
O6 Sn4 2.272151 1_555
O7 Sn1 2.106023 1_555
O7 Sn2 2.108214 1_555
O7 Sn5 2.272151 1_555
