# generated using pymatgen
data_Zn6S5Cl2
_symmetry_space_group_name_H-M   'P 1'
_cell_length_a   8.51963000
_cell_length_b   7.73955463
_cell_length_c   10.74677874
_cell_angle_alpha   90.49087835
_cell_angle_beta   66.64789130
_cell_angle_gamma   90.00000000
_symmetry_Int_Tables_number   1
_chemical_formula_structural   Zn6S5Cl2
_chemical_formula_sum   'Zn12 S10 Cl4'
_cell_volume   650.54836798
_cell_formula_units_Z   2
loop_
 _symmetry_equiv_pos_site_id
 _symmetry_equiv_pos_as_xyz
  1  'x, y, z'
loop_
 _atom_site_type_symbol
 _atom_site_label
 _atom_site_symmetry_multiplicity
 _atom_site_fract_x
 _atom_site_fract_y
 _atom_site_fract_z
 _atom_site_occupancy
  Zn  Zn0  1  0.81517500  0.99834200  0.99808400  1
  Zn  Zn1  1  0.26372000  0.97684800  0.04869900  1
  Zn  Zn2  1  0.81325900  0.50165800  0.00191600  1
  Zn  Zn3  1  0.31241900  0.52315200  0.95130100  1
  Zn  Zn4  1  0.48536000  0.75807500  0.32245900  1
  Zn  Zn5  1  0.19590100  0.17206500  0.36869100  1
  Zn  Zn6  1  0.56459200  0.32793500  0.63130900  1
  Zn  Zn7  1  0.80781900  0.74192500  0.67754100  1
  Zn  Zn8  1  0.79965200  0.99202500  0.34894500  1
  Zn  Zn9  1  0.75109700  0.49696500  0.36968200  1
  Zn  Zn10  1  0.12077900  0.00303500  0.63031800  1
  Zn  Zn11  1  0.14859700  0.50797500  0.65105500  1
  S  S0  1  0.22893900  0.75391700  0.50971100  1
  S  S1  1  0.27678500  0.24846200  0.53147400  1
  S  S2  1  0.80825800  0.25153800  0.46852600  1
  S  S3  1  0.73864900  0.74608300  0.49028900  1
  S  S4  1  0.63280100  0.00470600  0.22116100  1
  S  S5  1  0.10290800  0.97503700  0.26876900  1
  S  S6  1  0.61714100  0.50008200  0.22217700  1
  S  S7  1  0.83931900  0.99991800  0.77782300  1
  S  S8  1  0.37167700  0.52496300  0.73123100  1
  S  S9  1  0.85396200  0.49529400  0.77883900  1
  Cl  Cl0  1  0.98922800  0.25000000  0.00000000  1
  Cl  Cl1  1  0.06708500  0.75000000  0.00000000  1
  Cl  Cl2  1  0.46426500  0.75000000  0.00000000  1
  Cl  Cl3  1  0.40601300  0.25000000  0.00000000  1
loop_
_geom_bond_atom_site_label_1
_geom_bond_atom_site_label_2
_geom_bond_distance
_geom_bond_site_symmetry_2
S0 Zn10 2.292784 1_565
S0 Zn4 2.310649 1_555
S0 Zn11 2.371579 1_555
S1 Zn5 2.196089 1_555
S1 Zn10 2.327728 1_555
S1 Zn11 2.391965 1_555
S2 Zn6 2.196083 1_555
S2 Zn9 2.327725 1_555
S2 Zn8 2.391963 1_545
S3 Zn9 2.292782 1_555
S3 Zn7 2.310654 1_555
S3 Zn8 2.371579 1_555
S4 Zn0 2.282308 1_544
S4 Zn4 2.314758 1_545
S4 Zn8 2.337958 1_545
S5 Zn5 2.180037 1_565
S5 Zn1 2.214162 1_555
S5 Zn8 2.380777 1_455
S6 Zn9 2.291457 1_555
S6 Zn2 2.293493 1_555
S6 Zn4 2.326562 1_555
S7 Zn10 2.291450 1_665
S7 Zn0 2.293491 1_555
S7 Zn7 2.326565 1_555
S8 Zn6 2.180037 1_555
S8 Zn3 2.214162 1_555
S8 Zn11 2.380777 1_555
S9 Zn2 2.282308 1_556
S9 Zn7 2.314758 1_555
S9 Zn11 2.337958 1_655
Cl0 Zn2 2.452846 1_555
Cl0 Zn0 2.452846 1_544
Cl1 Zn1 2.615759 1_555
Cl1 Zn3 2.615759 1_554
Cl1 Zn0 2.887304 1_454
Cl1 Zn2 2.887304 1_455
Cl2 Zn1 2.356051 1_555
Cl2 Zn3 2.356051 1_554
Cl3 Zn3 2.393498 1_554
Cl3 Zn1 2.393498 1_545
