# generated using pymatgen
data_KSi
_symmetry_space_group_name_H-M   'P 1'
_cell_length_a   12.62359893
_cell_length_b   12.62359893
_cell_length_c   12.62359893
_cell_angle_alpha   90.00000000
_cell_angle_beta   90.00000000
_cell_angle_gamma   90.00000000
_symmetry_Int_Tables_number   1
_chemical_formula_structural   KSi
_chemical_formula_sum   'K32 Si32'
_cell_volume   2011.63676270
_cell_formula_units_Z   32
loop_
 _symmetry_equiv_pos_site_id
 _symmetry_equiv_pos_as_xyz
  1  'x, y, z'
loop_
 _atom_site_type_symbol
 _atom_site_label
 _atom_site_symmetry_multiplicity
 _atom_site_fract_x
 _atom_site_fract_y
 _atom_site_fract_z
 _atom_site_occupancy
  K  K0  1  0.06592826  0.33672995  0.14062189  1
  K  K1  1  0.83672995  0.43407174  0.35937811  1
  K  K2  1  0.56592826  0.64062189  0.83672995  1
  K  K3  1  0.43407174  0.64062189  0.16327005  1
  K  K4  1  0.64062189  0.83672995  0.56592826  1
  K  K5  1  0.35937811  0.16327005  0.56592826  1
  K  K6  1  0.66327005  0.85937811  0.06592826  1
  K  K7  1  0.66327005  0.14062189  0.93407174  1
  K  K8  1  0.33672995  0.85937811  0.93407174  1
  K  K9  1  0.14062189  0.93407174  0.66327005  1
  K  K10  1  0.93407174  0.33672995  0.85937811  1
  K  K11  1  0.93407174  0.66327005  0.14062189  1
  K  K12  1  0.85937811  0.06592826  0.66327005  1
  K  K13  1  0.06592826  0.66327005  0.85937811  1
  K  K14  1  0.85937811  0.93407174  0.33672995  1
  K  K15  1  0.14062189  0.06592826  0.33672995  1
  K  K16  1  0.83672995  0.56592826  0.64062189  1
  K  K17  1  0.35937811  0.83672995  0.43407174  1
  K  K18  1  0.64062189  0.16327005  0.43407174  1
  K  K19  1  0.56592826  0.35937811  0.16327005  1
  K  K20  1  0.43407174  0.35937811  0.83672995  1
  K  K21  1  0.16327005  0.43407174  0.64062189  1
  K  K22  1  0.16327005  0.56592826  0.35937811  1
  K  K23  1  0.33672995  0.14062189  0.06592826  1
  K  K24  1  0.83359541  0.83359541  0.83359541  1
  K  K25  1  0.66640459  0.33359541  0.66640459  1
  K  K26  1  0.33359541  0.66640459  0.66640459  1
  K  K27  1  0.66640459  0.66640459  0.33359541  1
  K  K28  1  0.83359541  0.16640459  0.16640459  1
  K  K29  1  0.16640459  0.16640459  0.83359541  1
  K  K30  1  0.16640459  0.83359541  0.16640459  1
  K  K31  1  0.33359541  0.33359541  0.33359541  1
  Si  Si0  1  0.56221772  0.92674776  0.81664342  1
  Si  Si1  1  0.56221772  0.07325224  0.18335658  1
  Si  Si2  1  0.92674776  0.81664342  0.56221772  1
  Si  Si3  1  0.07325224  0.81664342  0.43778228  1
  Si  Si4  1  0.81664342  0.56221772  0.92674776  1
  Si  Si5  1  0.18335658  0.43778228  0.92674776  1
  Si  Si6  1  0.93778228  0.68335658  0.42674776  1
  Si  Si7  1  0.93778228  0.31664342  0.57325224  1
  Si  Si8  1  0.06221772  0.68335658  0.57325224  1
  Si  Si9  1  0.31664342  0.57325224  0.93778228  1
  Si  Si10  1  0.57325224  0.06221772  0.68335658  1
  Si  Si11  1  0.57325224  0.93778228  0.31664342  1
  Si  Si12  1  0.68335658  0.42674776  0.93778228  1
  Si  Si13  1  0.42674776  0.93778228  0.68335658  1
  Si  Si14  1  0.68335658  0.57325224  0.06221772  1
  Si  Si15  1  0.06751806  0.06751806  0.06751806  1
  Si  Si16  1  0.42674776  0.06221772  0.31664342  1
  Si  Si17  1  0.18335658  0.56221772  0.07325224  1
  Si  Si18  1  0.81664342  0.43778228  0.07325224  1
  Si  Si19  1  0.92674776  0.18335658  0.43778228  1
  Si  Si20  1  0.07325224  0.18335658  0.56221772  1
  Si  Si21  1  0.43778228  0.07325224  0.81664342  1
  Si  Si22  1  0.43778228  0.92674776  0.18335658  1
  Si  Si23  1  0.06221772  0.31664342  0.42674776  1
  Si  Si24  1  0.56751806  0.56751806  0.56751806  1
  Si  Si25  1  0.93248194  0.06751806  0.93248194  1
  Si  Si26  1  0.06751806  0.93248194  0.93248194  1
  Si  Si27  1  0.93248194  0.93248194  0.06751806  1
  Si  Si28  1  0.56751806  0.43248194  0.43248194  1
  Si  Si29  1  0.43248194  0.43248194  0.56751806  1
  Si  Si30  1  0.43248194  0.56751806  0.43248194  1
  Si  Si31  1  0.31664342  0.42674776  0.06221772  1
loop_
_geom_bond_atom_site_label_1
_geom_bond_atom_site_label_2
_geom_bond_distance
_geom_bond_site_symmetry_2
K0 Si17 3.320098 1_555
K0 Si5 3.333757 1_554
K0 Si18 3.500476 1_455
K0 Si31 3.505374 1_555
K0 Si15 3.521548 1_555
K0 Si23 3.621131 1_555
K1 Si23 3.320098 1_655
K1 Si7 3.333757 1_555
K1 Si6 3.500476 1_555
K1 Si19 3.505374 1_555
K1 Si28 3.521548 1_555
K1 Si18 3.621131 1_555
K2 Si14 3.320098 1_556
K2 Si12 3.333757 1_555
K2 Si9 3.500476 1_555
K2 Si4 3.505374 1_555
K2 Si24 3.521548 1_555
K2 Si0 3.621131 1_555
K3 Si9 3.320098 1_554
K3 Si31 3.333757 1_555
K3 Si14 3.500476 1_555
K3 Si17 3.505374 1_555
K3 Si30 3.521548 1_555
K3 Si22 3.621131 1_555
K4 Si10 3.320098 1_565
K4 Si13 3.333757 1_555
K4 Si11 3.500476 1_555
K4 Si0 3.505374 1_555
K4 Si24 3.521548 1_555
K4 Si2 3.621131 1_555
K5 Si13 3.320098 1_545
K5 Si10 3.333757 1_555
K5 Si16 3.500476 1_555
K5 Si21 3.505374 1_555
K5 Si29 3.521548 1_555
K5 Si20 3.621131 1_555
K6 Si22 3.320098 1_555
K6 Si1 3.333757 1_565
K6 Si0 3.500476 1_554
K6 Si11 3.505374 1_555
K6 Si27 3.521548 1_555
K6 Si14 3.621131 1_555
K7 Si21 3.320098 1_555
K7 Si0 3.333757 1_545
K7 Si1 3.500476 1_556
K7 Si10 3.505374 1_555
K7 Si25 3.521548 1_555
K7 Si12 3.621131 1_555
K8 Si0 3.320098 1_555
K8 Si21 3.333757 1_565
K8 Si22 3.500476 1_556
K8 Si13 3.505374 1_555
K8 Si26 3.521548 1_555
K8 Si9 3.621131 1_555
K9 Si3 3.320098 1_555
K9 Si2 3.333757 1_455
K9 Si20 3.500476 1_565
K9 Si8 3.505374 1_555
K9 Si26 3.521548 1_555
K9 Si13 3.621131 1_555
K10 Si4 3.320098 1_555
K10 Si18 3.333757 1_556
K10 Si5 3.500476 1_655
K10 Si12 3.505374 1_555
K10 Si25 3.521548 1_555
K10 Si7 3.621131 1_555
K11 Si18 3.320098 1_555
K11 Si4 3.333757 1_554
K11 Si17 3.500476 1_655
K11 Si14 3.505374 1_555
K11 Si27 3.521548 1_555
K11 Si6 3.621131 1_555
K12 Si19 3.320098 1_555
K12 Si20 3.333757 1_655
K12 Si2 3.500476 1_545
K12 Si7 3.505374 1_555
K12 Si25 3.521548 1_555
K12 Si10 3.621131 1_555
K13 Si5 3.320098 1_555
K13 Si17 3.333757 1_556
K13 Si4 3.500476 1_455
K13 Si9 3.505374 1_555
K13 Si26 3.521548 1_555
K13 Si8 3.621131 1_555
K14 Si2 3.320098 1_555
K14 Si3 3.333757 1_655
K14 Si19 3.500476 1_565
K14 Si6 3.505374 1_555
K14 Si27 3.521548 1_555
K14 Si11 3.621131 1_555
K15 Si20 3.320098 1_555
K15 Si19 3.333757 1_455
K15 Si3 3.500476 1_545
K15 Si23 3.505374 1_555
K15 Si15 3.521548 1_555
K15 Si16 3.621131 1_555
K16 Si8 3.320098 1_655
K16 Si6 3.333757 1_555
K16 Si7 3.500476 1_555
K16 Si2 3.505374 1_555
K16 Si24 3.521548 1_555
K16 Si4 3.621131 1_555
K17 Si16 3.320098 1_565
K17 Si11 3.333757 1_555
K17 Si13 3.500476 1_555
K17 Si22 3.505374 1_555
K17 Si30 3.521548 1_555
K17 Si3 3.621131 1_555
K18 Si11 3.320098 1_545
K18 Si16 3.333757 1_555
K18 Si10 3.500476 1_555
K18 Si1 3.505374 1_555
K18 Si28 3.521548 1_555
K18 Si19 3.621131 1_555
K19 Si12 3.320098 1_554
K19 Si14 3.333757 1_555
K19 Si31 3.500476 1_555
K19 Si18 3.505374 1_555
K19 Si28 3.521548 1_555
K19 Si1 3.621131 1_555
K20 Si31 3.320098 1_556
K20 Si9 3.333757 1_555
K20 Si12 3.500476 1_555
K20 Si5 3.505374 1_555
K20 Si29 3.521548 1_555
K20 Si21 3.621131 1_555
K21 Si7 3.320098 1_455
K21 Si23 3.333757 1_555
K21 Si8 3.500476 1_555
K21 Si20 3.505374 1_555
K21 Si29 3.521548 1_555
K21 Si5 3.621131 1_555
K22 Si6 3.320098 1_455
K22 Si8 3.333757 1_555
K22 Si23 3.500476 1_555
K22 Si3 3.505374 1_555
K22 Si30 3.521548 1_555
K22 Si17 3.621131 1_555
K23 Si1 3.320098 1_555
K23 Si22 3.333757 1_545
K23 Si21 3.500476 1_554
K23 Si16 3.505374 1_555
K23 Si15 3.521548 1_555
K23 Si31 3.621131 1_555
K24 Si25 3.440409 1_565
K24 Si27 3.440409 1_556
K24 Si26 3.440409 1_655
K24 Si4 3.628282 1_555
K24 Si2 3.628282 1_555
K24 Si0 3.628282 1_555
K25 Si28 3.440409 1_555
K25 Si29 3.440409 1_555
K25 Si24 3.440409 1_555
K25 Si12 3.628282 1_555
K25 Si10 3.628282 1_555
K25 Si7 3.628282 1_555
K26 Si29 3.440409 1_555
K26 Si30 3.440409 1_555
K26 Si24 3.440409 1_555
K26 Si13 3.628282 1_555
K26 Si8 3.628282 1_555
K26 Si9 3.628282 1_555
K27 Si28 3.440409 1_555
K27 Si30 3.440409 1_555
K27 Si24 3.440409 1_555
K27 Si14 3.628282 1_555
K27 Si11 3.628282 1_555
K27 Si6 3.628282 1_555
K28 Si25 3.440409 1_554
K28 Si27 3.440409 1_545
K28 Si15 3.440409 1_655
K28 Si1 3.628282 1_555
K28 Si18 3.628282 1_555
K28 Si19 3.628282 1_555
K29 Si15 3.440409 1_556
K29 Si25 3.440409 1_455
K29 Si26 3.440409 1_545
K29 Si5 3.628282 1_555
K29 Si20 3.628282 1_555
K29 Si21 3.628282 1_555
K30 Si26 3.440409 1_554
K30 Si27 3.440409 1_455
K30 Si15 3.440409 1_565
K30 Si17 3.628282 1_555
K30 Si3 3.628282 1_555
K30 Si22 3.628282 1_555
K31 Si28 3.440409 1_555
K31 Si29 3.440409 1_555
K31 Si30 3.440409 1_555
K31 Si23 3.628282 1_555
K31 Si16 3.628282 1_555
K31 Si31 3.628282 1_555
Si0 Si10 2.403105 1_565
Si0 Si13 2.403105 1_555
Si0 Si21 2.426482 1_565
Si1 Si11 2.403105 1_545
Si1 Si16 2.403105 1_555
Si1 Si22 2.426482 1_545
Si2 Si8 2.403105 1_655
Si2 Si6 2.403105 1_555
Si2 Si3 2.426482 1_655
Si3 Si8 2.403105 1_555
Si3 Si6 2.403105 1_455
Si5 Si9 2.403105 1_555
Si6 Si8 2.426482 1_655
Si10 Si21 2.403105 1_555
Si10 Si13 2.426482 1_545
Si11 Si22 2.403105 1_555
Si11 Si16 2.426482 1_565
Si12 Si18 2.403105 1_556
Si12 Si4 2.403105 1_555
Si12 Si14 2.426482 1_556
Si13 Si21 2.403105 1_565
Si14 Si18 2.403105 1_555
Si14 Si4 2.403105 1_554
Si15 Si25 2.410728 1_454
Si15 Si26 2.410728 1_544
Si15 Si27 2.410728 1_445
Si16 Si22 2.403105 1_545
Si17 Si9 2.403105 1_554
Si17 Si31 2.403105 1_555
Si17 Si5 2.426482 1_554
Si18 Si4 2.426482 1_554
Si19 Si7 2.403105 1_555
Si19 Si23 2.403105 1_655
Si19 Si20 2.426482 1_655
Si20 Si7 2.403105 1_455
Si20 Si23 2.403105 1_555
Si23 Si7 2.426482 1_455
Si24 Si30 2.410728 1_555
Si24 Si28 2.410728 1_555
Si24 Si29 2.410728 1_555
Si25 Si26 2.410728 1_645
Si25 Si27 2.410728 1_546
Si26 Si27 2.410728 1_456
Si28 Si30 2.410728 1_555
Si28 Si29 2.410728 1_555
Si29 Si30 2.410728 1_555
Si31 Si5 2.403105 1_554
Si31 Si9 2.426482 1_554
