# generated using pymatgen
data_Sm3Pd4
_symmetry_space_group_name_H-M   'P 1'
_cell_length_a   5.77658260
_cell_length_b   8.01961155
_cell_length_c   8.01961269
_cell_angle_alpha   114.42654763
_cell_angle_beta   103.89257884
_cell_angle_gamma   103.89258086
_symmetry_Int_Tables_number   1
_chemical_formula_structural   Sm3Pd4
_chemical_formula_sum   'Sm6 Pd8'
_cell_volume   303.19425806
_cell_formula_units_Z   2
loop_
 _symmetry_equiv_pos_site_id
 _symmetry_equiv_pos_as_xyz
  1  'x, y, z'
loop_
 _atom_site_type_symbol
 _atom_site_label
 _atom_site_symmetry_multiplicity
 _atom_site_fract_x
 _atom_site_fract_y
 _atom_site_fract_z
 _atom_site_occupancy
  Sm  Sm0  1  0.40550295  0.12553486  0.37726635  1
  Sm  Sm1  1  0.02823560  0.62273365  0.74826751  1
  Sm  Sm2  1  0.27996809  0.25173249  0.87446514  1
  Sm  Sm3  1  0.59449705  0.87446514  0.62273365  1
  Sm  Sm4  1  0.97176440  0.37726635  0.25173249  1
  Sm  Sm5  1  0.72003191  0.74826751  0.12553486  1
  Pd  Pd0  1  -0.00000000  0.00000000  0.00000000  1
  Pd  Pd1  1  0.50000000  0.00000000  0.00000000  1
  Pd  Pd2  1  0.22327484  0.67005791  0.16467456  1
  Pd  Pd3  1  0.05860029  0.83532544  0.50538435  1
  Pd  Pd4  1  0.55321693  0.49461565  0.32994209  1
  Pd  Pd5  1  0.77672516  0.32994209  0.83532544  1
  Pd  Pd6  1  0.94139971  0.16467456  0.49461565  1
  Pd  Pd7  1  0.44678307  0.50538435  0.67005791  1
loop_
_geom_bond_atom_site_label_1
_geom_bond_atom_site_label_2
_geom_bond_distance
_geom_bond_site_symmetry_2
Pd0 Sm4 2.932488 1_455
Pd0 Sm1 2.932488 1_544
Pd0 Sm3 2.932489 1_444
Pd0 Sm0 2.932489 1_555
Pd0 Sm5 2.932494 1_445
Pd0 Sm2 2.932494 1_554
Pd1 Sm0 3.000528 1_555
Pd1 Sm3 3.000528 1_544
Pd1 Sm1 3.000531 1_544
Pd1 Sm4 3.000531 1_555
Pd1 Sm5 3.000535 1_545
Pd1 Sm2 3.000535 1_554
Pd2 Sm4 2.883829 1_455
Pd2 Sm5 2.908152 1_555
Pd2 Pd5 2.908824 1_454
Pd2 Pd4 2.997629 1_555
Pd2 Pd3 2.997629 1_555
Pd2 Sm0 3.081975 1_565
Pd2 Sm1 3.083002 1_554
Pd2 Sm5 3.089162 1_455
Pd2 Sm3 3.213847 1_555
Pd2 Sm2 3.348836 1_554
Pd3 Sm5 2.883829 1_455
Pd3 Sm3 2.908152 1_555
Pd3 Pd6 2.908830 1_465
Pd3 Pd4 2.997625 1_455
Pd3 Sm1 3.081962 1_555
Pd3 Sm2 3.082995 1_565
Pd3 Sm3 3.089162 1_455
Pd3 Sm4 3.213849 1_455
Pd3 Sm0 3.348848 1_565
Pd4 Sm3 2.883831 1_555
Pd4 Sm4 2.908152 1_555
Pd4 Pd7 2.908820 1_555
Pd4 Sm2 3.081975 1_554
Pd4 Sm0 3.082986 1_555
Pd4 Sm4 3.089162 1_455
Pd4 Sm5 3.213847 1_555
Pd4 Sm1 3.348832 1_655
Pd5 Sm1 2.883829 1_655
Pd5 Sm2 2.908152 1_555
Pd5 Pd7 2.997629 1_555
Pd5 Pd6 2.997629 1_555
Pd5 Sm3 3.081975 1_545
Pd5 Sm4 3.083002 1_556
Pd5 Sm2 3.089162 1_655
Pd5 Sm0 3.213847 1_555
Pd5 Sm5 3.348836 1_556
Pd6 Sm2 2.883829 1_655
Pd6 Sm0 2.908152 1_555
Pd6 Pd7 2.997625 1_655
Pd6 Sm4 3.081962 1_555
Pd6 Sm5 3.082995 1_545
Pd6 Sm0 3.089162 1_655
Pd6 Sm1 3.213849 1_655
Pd6 Sm3 3.348848 1_545
Pd7 Sm0 2.883831 1_555
Pd7 Sm1 2.908152 1_555
Pd7 Sm5 3.081975 1_556
Pd7 Sm3 3.082986 1_555
Pd7 Sm1 3.089162 1_655
Pd7 Sm2 3.213847 1_555
Pd7 Sm4 3.348832 1_455
