# generated using pymatgen
data_Sm2Ni22C3
_symmetry_space_group_name_H-M   'P 1'
_cell_length_a   9.40354141
_cell_length_b   9.40354141
_cell_length_c   14.61112636
_cell_angle_alpha   90.00000000
_cell_angle_beta   90.00000000
_cell_angle_gamma   105.77047940
_symmetry_Int_Tables_number   1
_chemical_formula_structural   Sm2Ni22C3
_chemical_formula_sum   'Sm8 Ni88 C12'
_cell_volume   1243.37837348
_cell_formula_units_Z   4
loop_
 _symmetry_equiv_pos_site_id
 _symmetry_equiv_pos_as_xyz
  1  'x, y, z'
loop_
 _atom_site_type_symbol
 _atom_site_label
 _atom_site_symmetry_multiplicity
 _atom_site_fract_x
 _atom_site_fract_y
 _atom_site_fract_z
 _atom_site_occupancy
  Sm  Sm0  1  0.81450574  0.68549426  0.25000000  1
  Sm  Sm1  1  0.68549426  0.81450574  0.75000000  1
  Sm  Sm2  1  0.18549426  0.31450574  0.75000000  1
  Sm  Sm3  1  0.31450574  0.18549426  0.25000000  1
  Sm  Sm4  1  0.70707521  0.29292479  0.52810153  1
  Sm  Sm5  1  0.29292479  0.70707521  0.47189847  1
  Sm  Sm6  1  0.79292479  0.20707521  0.02810153  1
  Sm  Sm7  1  0.20707521  0.79292479  0.97189847  1
  Ni  Ni0  1  0.92873634  0.43011425  0.18186400  1
  Ni  Ni1  1  0.43011425  0.92873634  0.81813600  1
  Ni  Ni2  1  0.93011425  0.42873634  0.68186400  1
  Ni  Ni3  1  0.42873634  0.93011425  0.31813600  1
  Ni  Ni4  1  0.07126366  0.56988575  0.81813600  1
  Ni  Ni5  1  0.56988575  0.07126366  0.18186400  1
  Ni  Ni6  1  0.06988575  0.57126366  0.31813600  1
  Ni  Ni7  1  0.57126366  0.06988575  0.68186400  1
  Ni  Ni8  1  0.56061347  0.43938653  0.34219382  1
  Ni  Ni9  1  0.43938653  0.56061347  0.65780618  1
  Ni  Ni10  1  0.93938653  0.06061347  0.84219382  1
  Ni  Ni11  1  0.06061347  0.93938653  0.15780618  1
  Ni  Ni12  1  0.00841422  0.76882222  0.42210816  1
  Ni  Ni13  1  0.76882222  0.00841422  0.57789184  1
  Ni  Ni14  1  0.26882222  0.50841422  0.92210816  1
  Ni  Ni15  1  0.50841422  0.26882222  0.07789184  1
  Ni  Ni16  1  0.99158578  0.23117778  0.57789184  1
  Ni  Ni17  1  0.23117778  0.99158578  0.42210816  1
  Ni  Ni18  1  0.73117778  0.49158578  0.07789184  1
  Ni  Ni19  1  0.49158578  0.73117778  0.92210816  1
  Ni  Ni20  1  0.75224793  0.59800162  0.45011963  1
  Ni  Ni21  1  0.59800162  0.75224793  0.54988037  1
  Ni  Ni22  1  0.09800162  0.25224793  0.95011963  1
  Ni  Ni23  1  0.25224793  0.09800162  0.04988037  1
  Ni  Ni24  1  0.24775207  0.40199838  0.54988037  1
  Ni  Ni25  1  0.40199838  0.24775207  0.45011963  1
  Ni  Ni26  1  0.90199838  0.74775207  0.04988037  1
  Ni  Ni27  1  0.74775207  0.90199838  0.95011963  1
  Ni  Ni28  1  0.14010053  0.21172863  0.42740521  1
  Ni  Ni29  1  0.21172863  0.14010053  0.57259479  1
  Ni  Ni30  1  0.71172863  0.64010053  0.92740521  1
  Ni  Ni31  1  0.64010053  0.71172863  0.07259479  1
  Ni  Ni32  1  0.85989947  0.78827137  0.57259479  1
  Ni  Ni33  1  0.78827137  0.85989947  0.42740521  1
  Ni  Ni34  1  0.28827137  0.35989947  0.07259479  1
  Ni  Ni35  1  0.35989947  0.28827137  0.92740521  1
  Ni  Ni36  1  0.82165031  0.39545395  0.34355160  1
  Ni  Ni37  1  0.39545395  0.82165031  0.65644840  1
  Ni  Ni38  1  0.89545395  0.32165031  0.84355160  1
  Ni  Ni39  1  0.32165031  0.89545395  0.15644840  1
  Ni  Ni40  1  0.17834969  0.60454605  0.65644840  1
  Ni  Ni41  1  0.60454605  0.17834969  0.34355160  1
  Ni  Ni42  1  0.10454605  0.67834969  0.15644840  1
  Ni  Ni43  1  0.67834969  0.10454605  0.84355160  1
  Ni  Ni44  1  0.94844214  0.79680366  0.86926136  1
  Ni  Ni45  1  0.79680366  0.94844214  0.13073864  1
  Ni  Ni46  1  0.29680366  0.44844214  0.36926136  1
  Ni  Ni47  1  0.44844214  0.29680366  0.63073864  1
  Ni  Ni48  1  0.05155786  0.20319634  0.13073864  1
  Ni  Ni49  1  0.20319634  0.05155786  0.86926136  1
  Ni  Ni50  1  0.70319634  0.55155786  0.63073864  1
  Ni  Ni51  1  0.55155786  0.70319634  0.36926136  1
  Ni  Ni52  1  0.04624560  0.29370532  0.29903527  1
  Ni  Ni53  1  0.29370532  0.04624560  0.70096473  1
  Ni  Ni54  1  0.79370532  0.54624560  0.79903527  1
  Ni  Ni55  1  0.54624560  0.79370532  0.20096473  1
  Ni  Ni56  1  0.95375440  0.70629468  0.70096473  1
  Ni  Ni57  1  0.70629468  0.95375440  0.29903527  1
  Ni  Ni58  1  0.20629468  0.45375440  0.20096473  1
  Ni  Ni59  1  0.45375440  0.20629468  0.79903527  1
  Ni  Ni60  1  0.81992909  0.18007091  0.23338532  1
  Ni  Ni61  1  0.18007091  0.81992909  0.76661468  1
  Ni  Ni62  1  0.68007091  0.31992909  0.73338532  1
  Ni  Ni63  1  0.31992909  0.68007091  0.26661468  1
  Ni  Ni64  1  0.85647488  0.14352512  0.41291801  1
  Ni  Ni65  1  0.14352512  0.85647488  0.58708199  1
  Ni  Ni66  1  0.64352512  0.35647488  0.91291801  1
  Ni  Ni67  1  0.35647488  0.64352512  0.08708199  1
  Ni  Ni68  1  0.99788261  0.00211739  0.32524042  1
  Ni  Ni69  1  0.00211739  0.99788261  0.67475958  1
  Ni  Ni70  1  0.50211739  0.49788261  0.82524042  1
  Ni  Ni71  1  0.49788261  0.50211739  0.17475958  1
  Ni  Ni72  1  0.65860133  0.34139867  0.21177928  1
  Ni  Ni73  1  0.34139867  0.65860133  0.78822072  1
  Ni  Ni74  1  0.84139867  0.15860133  0.71177928  1
  Ni  Ni75  1  0.15860133  0.84139867  0.28822072  1
  Ni  Ni76  1  0.00000000  -0.00000000  0.50000000  1
  Ni  Ni77  1  0.50000000  0.50000000  -0.00000000  1
  Ni  Ni78  1  0.09036868  0.46769857  0.04845464  1
  Ni  Ni79  1  0.46769857  0.09036868  0.95154536  1
  Ni  Ni80  1  0.96769857  0.59036868  0.54845464  1
  Ni  Ni81  1  0.59036868  0.96769857  0.45154536  1
  Ni  Ni82  1  0.90963132  0.53230143  0.95154536  1
  Ni  Ni83  1  0.53230143  0.90963132  0.04845464  1
  Ni  Ni84  1  0.03230143  0.40963132  0.45154536  1
  Ni  Ni85  1  0.40963132  0.03230143  0.54845464  1
  Ni  Ni86  1  0.50000000  0.50000000  0.50000000  1
  Ni  Ni87  1  0.00000000  -0.00000000  -0.00000000  1
  C  C0  1  0.94525333  0.05474667  0.21082122  1
  C  C1  1  0.05474667  0.94525333  0.78917878  1
  C  C2  1  0.55474667  0.44525333  0.71082122  1
  C  C3  1  0.44525333  0.55474667  0.28917878  1
  C  C4  1  0.93220979  0.55742388  0.41649354  1
  C  C5  1  0.55742388  0.93220979  0.58350646  1
  C  C6  1  0.05742388  0.43220979  0.91649354  1
  C  C7  1  0.43220979  0.05742388  0.08350646  1
  C  C8  1  0.06779021  0.44257612  0.58350646  1
  C  C9  1  0.44257612  0.06779021  0.41649354  1
  C  C10  1  0.94257612  0.56779021  0.08350646  1
  C  C11  1  0.56779021  0.94257612  0.91649354  1
loop_
_geom_bond_atom_site_label_1
_geom_bond_atom_site_label_2
_geom_bond_distance
_geom_bond_site_symmetry_2
Ni0 Ni72 2.487539 1_555
Ni0 Ni52 2.562780 1_655
Ni0 Ni58 2.573749 1_655
Ni0 Sm0 3.051923 1_555
Ni0 Sm6 3.101828 1_555
Ni1 Ni73 2.487539 1_555
Ni1 Ni53 2.562780 1_565
Ni1 Ni59 2.573749 1_565
Ni1 Sm1 3.051923 1_555
Ni1 Sm7 3.101828 1_555
Ni2 Ni74 2.487539 1_555
Ni2 Ni54 2.562780 1_555
Ni2 Ni56 2.573749 1_555
Ni2 Sm2 3.051923 1_655
Ni2 Sm4 3.101828 1_555
Ni3 Ni75 2.487539 1_555
Ni3 Ni55 2.562780 1_555
Ni3 Ni57 2.573749 1_555
Ni3 Sm3 3.051923 1_565
Ni3 Sm5 3.101828 1_555
Ni4 Ni73 2.487539 1_555
Ni4 Ni56 2.562780 1_455
Ni4 Ni54 2.573749 1_455
Ni4 Sm2 3.051923 1_555
Ni4 Sm7 3.101828 1_555
Ni5 Ni72 2.487539 1_555
Ni5 Ni57 2.562780 1_545
Ni5 Ni55 2.573749 1_545
Ni5 Sm3 3.051923 1_555
Ni5 Sm6 3.101828 1_555
Ni6 Ni75 2.487539 1_555
Ni6 Sm0 3.051923 1_455
Ni6 Sm5 3.101828 1_555
Ni7 Ni74 2.487539 1_555
Ni7 Sm1 3.051923 1_545
Ni7 Sm4 3.101828 1_555
Ni8 Ni86 2.478452 1_555
Ni8 Sm0 3.141205 1_555
Ni8 Sm3 3.141205 1_555
Ni9 Sm1 3.141205 1_555
Ni9 Sm2 3.141205 1_555
Ni10 Ni74 2.406352 1_555
Ni10 Ni87 2.478452 1_656
Ni10 Sm2 3.141205 1_655
Ni10 Sm1 3.141205 1_545
Ni11 Ni75 2.406352 1_555
Ni11 Ni87 2.478452 1_565
Ni11 Sm3 3.141205 1_565
Ni11 Sm0 3.141205 1_455
Ni12 Ni75 2.400691 1_555
Ni12 Ni33 2.447166 1_455
Ni12 Ni76 2.474025 1_565
Ni12 Ni32 2.637671 1_455
Ni12 Ni65 2.744932 1_555
Ni12 Sm5 2.978019 1_555
Ni12 Sm0 3.079921 1_455
Ni13 Ni74 2.400691 1_555
Ni13 Ni32 2.447166 1_545
Ni13 Ni76 2.474025 1_655
Ni13 Ni33 2.637671 1_545
Ni13 Ni64 2.744932 1_555
Ni13 Sm4 2.978019 1_555
Ni13 Sm1 3.079921 1_545
Ni14 Ni73 2.400691 1_555
Ni14 Ni35 2.447166 1_555
Ni14 Ni77 2.474025 1_556
Ni14 Ni34 2.637671 1_556
Ni14 Ni67 2.744932 1_556
Ni14 Sm7 2.978019 1_555
Ni14 Sm2 3.079921 1_555
Ni15 Ni72 2.400691 1_555
Ni15 Ni34 2.447166 1_555
Ni15 Ni77 2.474025 1_555
Ni15 Ni35 2.637671 1_554
Ni15 Ni66 2.744932 1_554
Ni15 Sm6 2.978019 1_555
Ni15 Sm3 3.079921 1_555
Ni16 Ni74 2.400691 1_555
Ni16 Ni29 2.447166 1_655
Ni16 Ni76 2.474025 1_655
Ni16 Ni28 2.637671 1_655
Ni16 Ni64 2.744932 1_555
Ni16 Sm4 2.978019 1_555
Ni16 Sm2 3.079921 1_655
Ni17 Ni75 2.400691 1_555
Ni17 Ni28 2.447166 1_565
Ni17 Ni76 2.474025 1_565
Ni17 Ni29 2.637671 1_565
Ni17 Ni65 2.744932 1_555
Ni17 Sm5 2.978019 1_555
Ni17 Sm3 3.079921 1_565
Ni18 Ni72 2.400691 1_555
Ni18 Ni31 2.447166 1_555
Ni18 Ni77 2.474025 1_555
Ni18 Ni30 2.637671 1_554
Ni18 Ni66 2.744932 1_554
Ni18 Sm6 2.978019 1_555
Ni18 Sm0 3.079921 1_555
Ni19 Ni73 2.400691 1_555
Ni19 Ni30 2.447166 1_555
Ni19 Ni77 2.474025 1_556
Ni19 Ni31 2.637671 1_556
Ni19 Ni67 2.744932 1_556
Ni19 Sm7 2.978019 1_555
Ni19 Sm1 3.079921 1_555
Ni20 Ni86 2.412201 1_555
Ni20 Ni33 2.415915 1_555
Ni20 Ni32 2.538467 1_555
Ni20 Sm4 3.007708 1_555
Ni20 Sm0 3.050811 1_555
Ni21 Ni86 2.412201 1_555
Ni21 Ni32 2.415915 1_555
Ni21 Ni33 2.538467 1_555
Ni21 Sm5 3.007708 1_555
Ni21 Sm1 3.050811 1_555
Ni22 Ni87 2.412201 1_556
Ni22 Ni35 2.415915 1_555
Ni22 Ni34 2.538467 1_556
Ni22 Sm6 3.007708 1_456
Ni22 Sm2 3.050811 1_555
Ni23 Ni87 2.412201 1_555
Ni23 Ni34 2.415915 1_555
Ni23 Ni35 2.538467 1_554
Ni23 Sm7 3.007708 1_544
Ni23 Sm3 3.050811 1_555
Ni24 Ni86 2.412201 1_555
Ni24 Ni29 2.415915 1_555
Ni24 Ni28 2.538467 1_555
Ni24 Sm5 3.007708 1_555
Ni24 Sm2 3.050811 1_555
Ni25 Ni86 2.412201 1_555
Ni25 Ni28 2.415915 1_555
Ni25 Ni29 2.538467 1_555
Ni25 Sm4 3.007708 1_555
Ni25 Sm3 3.050811 1_555
Ni26 Ni87 2.412201 1_665
Ni26 Ni31 2.415915 1_555
Ni26 Ni30 2.538467 1_554
Ni26 Sm7 3.007708 1_654
Ni26 Sm0 3.050811 1_555
Ni27 Ni87 2.412201 1_666
Ni27 Ni30 2.415915 1_555
Ni27 Ni31 2.538467 1_556
Ni27 Sm6 3.007708 1_566
Ni27 Sm1 3.050811 1_555
Ni28 Ni52 2.293681 1_555
Ni28 Ni76 2.323575 1_555
Ni28 Ni84 2.375011 1_555
Ni28 Ni29 2.377863 1_555
Ni28 Ni46 2.462724 1_555
Ni28 Ni68 2.543445 1_455
Ni28 Ni64 2.576759 1_455
Ni28 Sm3 3.112780 1_555
Ni29 Ni53 2.293681 1_555
Ni29 Ni76 2.323575 1_555
Ni29 Ni85 2.375011 1_555
Ni29 Ni47 2.462724 1_555
Ni29 Ni69 2.543445 1_545
Ni29 Ni65 2.576759 1_545
Ni29 Sm2 3.112780 1_555
Ni30 Ni54 2.293681 1_555
Ni30 Ni77 2.323575 1_556
Ni30 Ni82 2.375011 1_555
Ni30 Ni31 2.377863 1_556
Ni30 Ni44 2.462724 1_555
Ni30 Ni70 2.543445 1_555
Ni30 Ni66 2.576759 1_555
Ni30 Sm1 3.112780 1_555
Ni31 Ni55 2.293681 1_555
Ni31 Ni77 2.323575 1_555
Ni31 Ni83 2.375011 1_555
Ni31 Ni45 2.462724 1_555
Ni31 Ni71 2.543445 1_555
Ni31 Ni67 2.576759 1_555
Ni31 Sm0 3.112780 1_555
Ni32 Ni56 2.293681 1_555
Ni32 Ni76 2.323575 1_665
Ni32 Ni80 2.375011 1_555
Ni32 Ni33 2.377863 1_555
Ni32 Ni50 2.462724 1_555
Ni32 Ni69 2.543445 1_655
Ni32 Ni65 2.576759 1_655
Ni32 Sm1 3.112780 1_555
Ni33 Ni57 2.293681 1_555
Ni33 Ni76 2.323575 1_665
Ni33 Ni81 2.375011 1_555
Ni33 Ni51 2.462724 1_555
Ni33 Ni68 2.543445 1_565
Ni33 Ni64 2.576759 1_565
Ni33 Sm0 3.112780 1_555
Ni34 Ni58 2.293681 1_555
Ni34 Ni77 2.323575 1_555
Ni34 Ni78 2.375011 1_555
Ni34 Ni35 2.377863 1_554
Ni34 Ni48 2.462724 1_555
Ni34 Ni71 2.543445 1_555
Ni34 Ni67 2.576759 1_555
Ni34 Sm3 3.112780 1_555
Ni35 Ni59 2.293681 1_555
Ni35 Ni77 2.323575 1_556
Ni35 Ni79 2.375011 1_555
Ni35 Ni49 2.462724 1_555
Ni35 Ni70 2.543445 1_555
Ni35 Ni66 2.576759 1_555
Ni35 Sm2 3.112780 1_555
Ni36 Ni72 2.427448 1_555
Ni36 Ni52 2.626299 1_655
Ni36 Ni64 2.677393 1_555
Ni36 Sm4 2.965931 1_555
Ni36 Sm0 3.067778 1_555
Ni37 Ni73 2.427448 1_555
Ni37 Ni53 2.626299 1_565
Ni37 Ni65 2.677393 1_555
Ni37 Sm5 2.965931 1_555
Ni37 Sm1 3.067778 1_555
Ni38 Ni74 2.427448 1_555
Ni38 Ni54 2.626299 1_555
Ni38 Ni66 2.677393 1_555
Ni38 Sm6 2.965931 1_556
Ni38 Sm2 3.067778 1_655
Ni39 Ni75 2.427448 1_555
Ni39 Ni55 2.626299 1_555
Ni39 Ni67 2.677393 1_555
Ni39 Sm7 2.965931 1_554
Ni39 Sm3 3.067778 1_565
Ni40 Ni73 2.427448 1_555
Ni40 Ni56 2.626299 1_455
Ni40 Ni65 2.677393 1_555
Ni40 Sm5 2.965931 1_555
Ni40 Sm2 3.067778 1_555
Ni41 Ni72 2.427448 1_555
Ni41 Ni57 2.626299 1_545
Ni41 Ni64 2.677393 1_555
Ni41 Sm4 2.965931 1_555
Ni41 Sm3 3.067778 1_555
Ni42 Ni75 2.427448 1_555
Ni42 Ni58 2.626299 1_555
Ni42 Ni67 2.677393 1_555
Ni42 Sm7 2.965931 1_554
Ni42 Sm0 3.067778 1_455
Ni43 Ni74 2.427448 1_555
Ni43 Ni59 2.626299 1_555
Ni43 Ni66 2.677393 1_555
Ni43 Sm6 2.965931 1_556
Ni43 Sm1 3.067778 1_545
Ni44 Ni56 2.607045 1_555
Ni44 Ni54 2.618760 1_555
Ni44 Ni87 2.651704 1_666
Ni44 Sm7 2.865908 1_655
Ni44 Sm1 3.066244 1_555
Ni45 Ni57 2.607045 1_555
Ni45 Ni55 2.618760 1_555
Ni45 Ni87 2.651704 1_665
Ni45 Sm6 2.865908 1_565
Ni45 Sm0 3.066244 1_555
Ni46 Ni58 2.607045 1_555
Ni46 Ni52 2.618760 1_555
Ni46 Ni86 2.651704 1_555
Ni46 Sm5 2.865908 1_555
Ni46 Sm3 3.066244 1_555
Ni47 Ni59 2.607045 1_555
Ni47 Ni53 2.618760 1_555
Ni47 Ni86 2.651704 1_555
Ni47 Sm4 2.865908 1_555
Ni47 Sm2 3.066244 1_555
Ni48 Ni52 2.607045 1_555
Ni48 Ni58 2.618760 1_555
Ni48 Ni87 2.651704 1_555
Ni48 Sm6 2.865908 1_455
Ni48 Sm3 3.066244 1_555
Ni49 Ni53 2.607045 1_555
Ni49 Ni59 2.618760 1_555
Ni49 Ni87 2.651704 1_556
Ni49 Sm7 2.865908 1_545
Ni49 Sm2 3.066244 1_555
Ni50 Ni54 2.607045 1_555
Ni50 Ni56 2.618760 1_555
Ni50 Ni86 2.651704 1_555
Ni50 Sm4 2.865908 1_555
Ni50 Sm1 3.066244 1_555
Ni51 Ni55 2.607045 1_555
Ni51 Ni57 2.618760 1_555
Ni51 Ni86 2.651704 1_555
Ni51 Sm5 2.865908 1_555
Ni51 Sm0 3.066244 1_555
Ni52 Ni58 2.313491 1_555
Ni52 Ni60 2.314075 1_455
Ni52 Ni84 2.499752 1_555
Ni52 Ni64 2.564714 1_455
Ni52 Ni6 2.573749 1_555
Ni52 Ni68 2.682152 1_455
Ni52 Sm3 3.050826 1_555
Ni53 Ni59 2.313491 1_555
Ni53 Ni61 2.314075 1_545
Ni53 Ni85 2.499752 1_555
Ni53 Ni65 2.564714 1_545
Ni53 Ni7 2.573749 1_555
Ni53 Ni69 2.682152 1_545
Ni53 Sm2 3.050826 1_555
Ni54 Ni56 2.313491 1_555
Ni54 Ni62 2.314075 1_555
Ni54 Ni82 2.499752 1_555
Ni54 Ni66 2.564714 1_555
Ni54 Ni70 2.682152 1_555
Ni54 Sm1 3.050826 1_555
Ni55 Ni57 2.313491 1_555
Ni55 Ni63 2.314075 1_555
Ni55 Ni83 2.499752 1_555
Ni55 Ni67 2.564714 1_555
Ni55 Ni71 2.682152 1_555
Ni55 Sm0 3.050826 1_555
Ni56 Ni61 2.314075 1_655
Ni56 Ni80 2.499752 1_555
Ni56 Ni65 2.564714 1_655
Ni56 Ni69 2.682152 1_655
Ni56 Sm1 3.050826 1_555
Ni57 Ni60 2.314075 1_565
Ni57 Ni81 2.499752 1_555
Ni57 Ni64 2.564714 1_565
Ni57 Ni68 2.682152 1_565
Ni57 Sm0 3.050826 1_555
Ni58 Ni63 2.314075 1_555
Ni58 Ni78 2.499752 1_555
Ni58 Ni6 2.562780 1_555
Ni58 Ni67 2.564714 1_555
Ni58 Ni71 2.682152 1_555
Ni58 Sm3 3.050826 1_555
Ni59 Ni62 2.314075 1_555
Ni59 Ni79 2.499752 1_555
Ni59 Ni7 2.562780 1_555
Ni59 Ni66 2.564714 1_555
Ni59 Ni70 2.682152 1_555
Ni59 Sm2 3.050826 1_555
Ni60 Ni72 2.439990 1_555
Ni60 Ni64 2.679822 1_555
Ni60 Sm6 3.026645 1_555
Ni61 Ni73 2.439990 1_555
Ni61 Ni65 2.679822 1_555
Ni61 Sm7 3.026645 1_555
Ni62 Ni74 2.439990 1_555
Ni62 Ni66 2.679822 1_555
Ni62 Sm4 3.026645 1_555
Ni63 Ni75 2.439990 1_555
Ni63 Ni67 2.679822 1_555
Ni63 Sm5 3.026645 1_555
Ni64 Ni68 2.477630 1_555
Ni64 Ni76 2.500426 1_655
Ni64 Ni84 2.658010 1_655
Ni64 Ni81 2.658010 1_545
Ni64 Sm4 2.802251 1_555
Ni65 Ni69 2.477630 1_555
Ni65 Ni76 2.500426 1_565
Ni65 Ni80 2.658010 1_455
Ni65 Ni85 2.658010 1_565
Ni65 Sm5 2.802251 1_555
Ni66 Ni70 2.477630 1_555
Ni66 Ni77 2.500426 1_556
Ni66 Ni82 2.658010 1_555
Ni66 Ni79 2.658010 1_555
Ni66 Sm6 2.802251 1_556
Ni67 Ni71 2.477630 1_555
Ni67 Ni77 2.500426 1_555
Ni67 Ni83 2.658010 1_555
Ni67 Ni78 2.658010 1_555
Ni67 Sm7 2.802251 1_554
Ni68 Ni75 2.470293 1_645
Ni68 Ni76 2.553632 1_655
Ni68 Sm3 3.202515 1_655
Ni68 Sm0 3.202515 1_545
Ni69 Ni74 2.470293 1_465
Ni69 Ni76 2.553632 1_565
Ni69 Sm1 3.202515 1_455
Ni69 Sm2 3.202515 1_565
Ni70 Ni73 2.470293 1_555
Ni70 Ni77 2.553632 1_556
Ni70 Sm2 3.202515 1_555
Ni70 Sm1 3.202515 1_555
Ni71 Ni72 2.470293 1_555
Ni71 Ni77 2.553632 1_555
Ni71 Sm3 3.202515 1_555
Ni71 Sm0 3.202515 1_555
Ni72 Ni8 2.406352 1_555
Ni72 Sm3 3.217529 1_555
Ni72 Sm0 3.217529 1_555
Ni72 Sm6 3.355685 1_555
Ni73 Ni9 2.406352 1_555
Ni73 Sm2 3.217529 1_555
Ni73 Sm1 3.217529 1_555
Ni73 Sm7 3.355685 1_555
Ni74 Sm2 3.217529 1_655
Ni74 Sm1 3.217529 1_545
Ni74 Sm4 3.355685 1_555
Ni75 Sm0 3.217529 1_455
Ni75 Sm3 3.217529 1_565
Ni75 Sm5 3.355685 1_555
Ni78 Sm7 3.159792 1_554
Ni78 Sm6 3.192493 1_455
Ni79 Sm6 3.159792 1_556
Ni79 Sm7 3.192493 1_545
Ni80 Sm5 3.159792 1_655
Ni80 Sm4 3.192493 1_555
Ni81 Sm4 3.159792 1_565
Ni81 Sm5 3.192493 1_555
Ni82 Sm6 3.159792 1_556
Ni82 Sm7 3.192493 1_655
Ni83 Sm7 3.159792 1_554
Ni83 Sm6 3.192493 1_565
Ni84 Sm4 3.159792 1_455
Ni84 Sm5 3.192493 1_555
Ni85 Sm5 3.159792 1_545
Ni85 Sm4 3.192493 1_555
Ni86 Ni9 2.478452 1_555
Ni86 Sm4 3.132595 1_555
Ni86 Sm5 3.132595 1_555
Ni87 Sm7 3.132595 1_544
Ni87 Sm6 3.132595 1_455
C0 Ni68 1.848752 1_555
C0 Ni45 1.886416 1_545
C0 Ni48 1.886416 1_655
C0 Ni11 1.895583 1_645
C0 Ni60 1.908222 1_555
C0 Ni52 2.540172 1_655
C0 Ni57 2.540172 1_545
C1 Ni69 1.848752 1_555
C1 Ni44 1.886416 1_455
C1 Ni49 1.886416 1_565
C1 Ni10 1.895583 1_465
C1 Ni61 1.908222 1_555
C1 Ni56 2.540172 1_455
C1 Ni53 2.540172 1_565
C2 Ni70 1.848752 1_555
C2 Ni47 1.886416 1_555
C2 Ni50 1.886416 1_555
C2 Ni9 1.895583 1_555
C2 Ni62 1.908222 1_555
C2 Ni59 2.540172 1_555
C2 Ni54 2.540172 1_555
C3 Ni71 1.848752 1_555
C3 Ni46 1.886416 1_555
C3 Ni51 1.886416 1_555
C3 Ni8 1.895583 1_555
C3 Ni63 1.908222 1_555
C3 Ni58 2.540172 1_555
C3 Ni55 2.540172 1_555
C4 Ni20 1.897840 1_555
C4 Ni6 1.914875 1_655
C4 Ni36 1.917238 1_555
C4 Ni12 1.922923 1_655
C4 Ni84 1.946967 1_655
C4 Ni80 1.966906 1_555
C4 Sm0 3.052515 1_555
C5 Ni21 1.897840 1_555
C5 Ni7 1.914875 1_565
C5 Ni37 1.917238 1_555
C5 Ni13 1.922923 1_565
C5 Ni85 1.946967 1_565
C5 Ni81 1.966906 1_555
C5 Sm1 3.052515 1_555
C6 Ni22 1.897840 1_555
C6 Ni4 1.914875 1_555
C6 Ni38 1.917238 1_455
C6 Ni14 1.922923 1_555
C6 Ni82 1.946967 1_455
C6 Ni78 1.966906 1_556
C6 Sm2 3.052515 1_555
C7 Ni23 1.897840 1_555
C7 Ni5 1.914875 1_555
C7 Ni39 1.917238 1_545
C7 Ni15 1.922923 1_555
C7 Ni83 1.946967 1_545
C7 Ni79 1.966906 1_554
C7 Sm3 3.052515 1_555
C8 Ni24 1.897840 1_555
C8 Ni2 1.914875 1_455
C8 Ni40 1.917238 1_555
C8 Ni16 1.922923 1_455
C8 Ni80 1.946967 1_455
C8 Ni84 1.966906 1_555
C8 Sm2 3.052515 1_555
C9 Ni25 1.897840 1_555
C9 Ni3 1.914875 1_545
C9 Ni41 1.917238 1_555
C9 Ni17 1.922923 1_545
C9 Ni81 1.946967 1_545
C9 Ni85 1.966906 1_555
C9 Sm3 3.052515 1_555
C10 Ni26 1.897840 1_555
C10 Ni0 1.914875 1_555
C10 Ni42 1.917238 1_655
C10 Ni18 1.922923 1_555
C10 Ni78 1.946967 1_655
C10 Ni82 1.966906 1_554
C10 Sm0 3.052515 1_555
C11 Ni27 1.897840 1_555
C11 Ni1 1.914875 1_555
C11 Ni43 1.917238 1_565
C11 Ni19 1.922923 1_555
C11 Ni79 1.946967 1_565
C11 Ni83 1.966906 1_556
C11 Sm1 3.052515 1_555
