# generated using pymatgen
data_CaV2O4
_symmetry_space_group_name_H-M   'P 1'
_cell_length_a   5.11962655
_cell_length_b   5.84754691
_cell_length_c   11.15153672
_cell_angle_alpha   90.00403661
_cell_angle_beta   90.00240637
_cell_angle_gamma   91.09318335
_symmetry_Int_Tables_number   1
_chemical_formula_structural   CaV2O4
_chemical_formula_sum   'Ca4 V8 O16'
_cell_volume   333.78564930
_cell_formula_units_Z   4
loop_
 _symmetry_equiv_pos_site_id
 _symmetry_equiv_pos_as_xyz
  1  'x, y, z'
loop_
 _atom_site_type_symbol
 _atom_site_label
 _atom_site_symmetry_multiplicity
 _atom_site_fract_x
 _atom_site_fract_y
 _atom_site_fract_z
 _atom_site_occupancy
  Ca  Ca0  1  0.84561964  0.24318245  0.74977070  1
  Ca  Ca1  1  0.15447798  0.75658871  0.24969661  1
  Ca  Ca2  1  0.53071331  0.26181284  0.25008385  1
  Ca  Ca3  1  0.46927828  0.73798864  0.75009130  1
  V  V0  1  0.50957715  0.74845955  0.48987320  1
  V  V1  1  0.51078257  0.75168758  0.01021431  1
  V  V2  1  0.48907707  0.24828395  0.51027270  1
  V  V3  1  0.49046132  0.25149242  0.98985602  1
  V  V4  1  0.99011339  0.50413182  0.50047803  1
  V  V5  1  -0.00641347  -0.00226392  -0.00044268  1
  V  V6  1  0.00637982  0.00232663  0.49952166  1
  V  V7  1  0.00978972  0.49603530  0.00045832  1
  O  O0  1  0.83948922  0.75432037  0.39928590  1
  O  O1  1  0.84228052  0.74463552  0.09885434  1
  O  O2  1  0.15766939  0.25545490  0.59903314  1
  O  O3  1  0.16056757  0.24567441  0.89931015  1
  O  O4  1  0.17956899  0.75305012  0.58959502  1
  O  O5  1  0.18101559  0.75005261  0.91155662  1
  O  O6  1  0.81886054  0.25011013  0.41158246  1
  O  O7  1  0.82057722  0.24712549  0.08956801  1
  O  O8  1  0.66242294  0.49674857  0.60626726  1
  O  O9  1  0.66428652  -0.01070906  0.89468240  1
  O  O10  1  0.33568986  0.01070778  0.39472752  1
  O  O11  1  0.33758477  0.50330904  0.10623580  1
  O  O12  1  0.33090805  0.50375432  0.39708937  1
  O  O13  1  0.33323888  0.01214705  0.10255016  1
  O  O14  1  0.66696618  0.98775916  0.60270147  1
  O  O15  1  0.66901698  0.49613362  0.89708236  1
loop_
_geom_bond_atom_site_label_1
_geom_bond_atom_site_label_2
_geom_bond_distance
_geom_bond_site_symmetry_2
Ca0 O2 2.319242 1_655
Ca0 O3 2.319449 1_655
Ca0 O9 2.371772 1_555
Ca0 O8 2.385865 1_555
Ca0 O14 2.388423 1_545
Ca0 O15 2.398912 1_555
Ca1 O0 2.320102 1_455
Ca1 O1 2.320472 1_455
Ca1 O10 2.373070 1_565
Ca1 O11 2.384219 1_555
Ca1 O13 2.389904 1_565
Ca1 O12 2.398853 1_555
Ca2 O7 2.327826 1_555
Ca2 O6 2.329809 1_555
Ca2 O11 2.366115 1_555
Ca2 O10 2.387308 1_555
Ca2 O12 2.406325 1_555
Ca2 O13 2.409043 1_555
Ca3 O4 2.327175 1_555
Ca3 O5 2.330074 1_555
Ca3 O8 2.364985 1_555
Ca3 O9 2.387384 1_565
Ca3 O15 2.405843 1_555
Ca3 O14 2.408959 1_555
O0 V0 1.967842 1_555
O0 V6 2.008741 1_665
O0 V4 2.012857 1_555
O1 V1 1.965100 1_555
O1 V5 1.993290 1_665
O1 V7 2.024875 1_655
O2 V2 1.965471 1_555
O2 V6 1.994555 1_555
O2 V4 2.026339 1_455
O3 V3 1.967449 1_555
O3 V5 2.008873 1_556
O3 V7 2.013556 1_556
O4 V6 1.992314 1_565
O4 V4 1.998227 1_455
O4 V0 2.023298 1_555
O5 V7 1.976929 1_556
O5 V5 2.008582 1_566
O5 V1 2.014951 1_556
O6 V4 1.976831 1_555
O6 V6 2.008962 1_655
O6 V2 2.015286 1_555
O7 V5 1.991962 1_655
O7 V7 1.997707 1_655
O7 V3 2.023585 1_554
O8 V2 1.998745 1_555
O8 V4 2.050735 1_555
O8 V0 2.123124 1_555
O9 V1 2.041219 1_546
O9 V5 2.051607 1_656
O9 V3 2.078728 1_555
O10 V2 2.040818 1_555
O10 V6 2.051218 1_555
O10 V0 2.078985 1_545
O11 V1 1.998368 1_555
O11 V7 2.051010 1_555
O11 V3 2.123433 1_554
O12 V0 1.976005 1_555
O12 V4 2.091344 1_455
O12 V2 2.127625 1_555
O13 V3 2.035535 1_554
O13 V1 2.063690 1_545
O13 V5 2.084273 1_555
O14 V0 2.036440 1_555
O14 V2 2.065366 1_565
O14 V6 2.084515 1_665
O15 V3 1.975562 1_555
O15 V7 2.091064 1_656
O15 V1 2.127680 1_556
