# generated using pymatgen
data_CrH12N3O8
_symmetry_space_group_name_H-M   'P 1'
_cell_length_a   6.98930793
_cell_length_b   6.98930793
_cell_length_c   8.47370700
_cell_angle_alpha   90.00000000
_cell_angle_beta   90.00000000
_cell_angle_gamma   89.28937845
_symmetry_Int_Tables_number   1
_chemical_formula_structural   CrH12N3O8
_chemical_formula_sum   'Cr2 H24 N6 O16'
_cell_volume   413.91235318
_cell_formula_units_Z   2
loop_
 _symmetry_equiv_pos_site_id
 _symmetry_equiv_pos_as_xyz
  1  'x, y, z'
loop_
 _atom_site_type_symbol
 _atom_site_label
 _atom_site_symmetry_multiplicity
 _atom_site_fract_x
 _atom_site_fract_y
 _atom_site_fract_z
 _atom_site_occupancy
  Cr  Cr0  1  0.74859200  0.25140800  0.82314800  1
  Cr  Cr1  1  0.25140800  0.74859200  0.32314800  1
  H  H0  1  0.63140600  0.78771600  0.50019200  1
  H  H1  1  0.21228400  0.36859400  0.50019200  1
  H  H2  1  0.36859400  0.21228400  0.00019200  1
  H  H3  1  0.78771600  0.63140600  0.00019200  1
  H  H4  1  0.74737400  0.87586800  0.65798700  1
  H  H5  1  0.12413200  0.25262600  0.65798700  1
  H  H6  1  0.25262600  0.12413200  0.15798700  1
  H  H7  1  0.87586800  0.74737400  0.15798700  1
  H  H8  1  0.87270000  0.73925900  0.52830500  1
  H  H9  1  0.26074100  0.12730000  0.52830500  1
  H  H10  1  0.12730000  0.26074100  0.02830500  1
  H  H11  1  0.73925900  0.87270000  0.02830500  1
  H  H12  1  0.70293500  0.63451000  0.64139700  1
  H  H13  1  0.36549000  0.29706500  0.64139700  1
  H  H14  1  0.29706500  0.36549000  0.14139700  1
  H  H15  1  0.63451000  0.70293500  0.14139700  1
  H  H16  1  0.17953200  0.82046800  0.89338900  1
  H  H17  1  0.82046800  0.17953200  0.39338900  1
  H  H18  1  0.23489800  0.59481100  0.84022900  1
  H  H19  1  0.40518900  0.76510200  0.84022900  1
  H  H20  1  0.76510200  0.40518900  0.34022900  1
  H  H21  1  0.59481100  0.23489800  0.34022900  1
  H  H22  1  0.23281200  0.76718800  0.70289100  1
  H  H23  1  0.76718800  0.23281200  0.20289100  1
  N  N0  1  0.73768100  0.76017600  0.58189700  1
  N  N1  1  0.23982400  0.26231900  0.58189700  1
  N  N2  1  0.26231900  0.23982400  0.08189700  1
  N  N3  1  0.76017600  0.73768100  0.08189700  1
  N  N4  1  0.26263300  0.73736700  0.81942700  1
  N  N5  1  0.73736700  0.26263300  0.31942700  1
  O  O0  1  0.55025200  0.44974800  0.86132300  1
  O  O1  1  0.44974800  0.55025200  0.36132300  1
  O  O2  1  0.94813600  0.45107300  0.83640400  1
  O  O3  1  0.54892700  0.05186400  0.83640400  1
  O  O4  1  0.05186400  0.54892700  0.33640400  1
  O  O5  1  0.45107300  0.94813600  0.33640400  1
  O  O6  1  0.94319700  0.05680300  0.76798800  1
  O  O7  1  0.05680300  0.94319700  0.26798800  1
  O  O8  1  0.90861600  0.35454800  0.98443700  1
  O  O9  1  0.64545200  0.09138400  0.98443700  1
  O  O10  1  0.09138400  0.64545200  0.48443700  1
  O  O11  1  0.35454800  0.90861600  0.48443700  1
  O  O12  1  0.85161400  0.14838600  0.63305600  1
  O  O13  1  0.14838600  0.85161400  0.13305600  1
  O  O14  1  0.58664700  0.41335300  0.69538100  1
  O  O15  1  0.41335300  0.58664700  0.19538100  1
loop_
_geom_bond_atom_site_label_1
_geom_bond_atom_site_label_2
_geom_bond_distance
_geom_bond_site_symmetry_2
Cr0 O12 1.902292 1_555
Cr0 O9 1.912726 1_555
Cr0 O8 1.912726 1_555
Cr0 O14 1.924239 1_555
Cr0 O6 1.967898 1_555
Cr0 O0 1.974944 1_555
Cr0 O3 1.988338 1_555
Cr0 O2 1.988338 1_555
Cr1 O13 1.902292 1_555
Cr1 O10 1.912726 1_555
Cr1 O11 1.912726 1_555
Cr1 O15 1.924239 1_555
Cr1 O7 1.967898 1_555
Cr1 O1 1.974944 1_555
Cr1 O4 1.988338 1_555
Cr1 O5 1.988338 1_555
H0 N0 1.031785 1_555
H1 N1 1.031785 1_555
H2 N2 1.031785 1_555
H3 N3 1.031785 1_555
H4 N0 1.037070 1_555
H5 N1 1.037070 1_555
H6 N2 1.037070 1_555
H7 N3 1.037070 1_555
H8 N0 1.055807 1_555
H8 O10 1.696865 1_655
H9 N1 1.055807 1_555
H9 O11 1.696865 1_545
H10 N2 1.055807 1_555
H10 O8 1.696865 1_454
H11 N3 1.055807 1_555
H11 O9 1.696865 1_564
H12 N0 1.043989 1_555
H13 N1 1.043989 1_555
H14 N2 1.043989 1_555
H15 N3 1.043989 1_555
H16 N4 1.029138 1_555
H17 N5 1.029138 1_555
H18 N4 1.032564 1_555
H19 N4 1.032564 1_555
H20 N5 1.032564 1_555
H21 N5 1.032564 1_555
H22 N4 1.030023 1_555
H23 N5 1.030023 1_555
O0 O14 1.450879 1_555
O1 O15 1.450879 1_555
O2 O8 1.452429 1_555
O3 O9 1.452429 1_555
O10 O4 1.452429 1_555
O11 O5 1.452429 1_555
O12 O6 1.454855 1_555
O13 O7 1.454855 1_555
