# generated using pymatgen
data_LaMg6Zn
_symmetry_space_group_name_H-M   'P 1'
_cell_length_a   5.07194700
_cell_length_b   6.72171600
_cell_length_c   11.58511100
_cell_angle_alpha   90.00000000
_cell_angle_beta   90.00000000
_cell_angle_gamma   90.00000000
_symmetry_Int_Tables_number   1
_chemical_formula_structural   LaMg6Zn
_chemical_formula_sum   'La2 Mg12 Zn2'
_cell_volume   394.96177412
_cell_formula_units_Z   2
loop_
 _symmetry_equiv_pos_site_id
 _symmetry_equiv_pos_as_xyz
  1  'x, y, z'
loop_
 _atom_site_type_symbol
 _atom_site_label
 _atom_site_symmetry_multiplicity
 _atom_site_fract_x
 _atom_site_fract_y
 _atom_site_fract_z
 _atom_site_occupancy
  La  La0  1  0.50000000  0.00000000  0.67386600  1
  La  La1  1  0.50000000  0.50000000  0.17386600  1
  Mg  Mg0  1  0.00000000  0.73418800  0.57605700  1
  Mg  Mg1  1  0.00000000  0.26581200  0.57605700  1
  Mg  Mg2  1  0.00000000  0.00000000  0.33175700  1
  Mg  Mg3  1  0.50000000  0.74031900  0.42079900  1
  Mg  Mg4  1  0.50000000  0.25968100  0.42079900  1
  Mg  Mg5  1  0.50000000  0.00000000  0.16327500  1
  Mg  Mg6  1  0.00000000  0.23418800  0.07605700  1
  Mg  Mg7  1  0.00000000  0.76581200  0.07605700  1
  Mg  Mg8  1  0.00000000  0.50000000  0.83175700  1
  Mg  Mg9  1  0.50000000  0.24031900  0.92079900  1
  Mg  Mg10  1  0.50000000  0.75968100  0.92079900  1
  Mg  Mg11  1  0.50000000  0.50000000  0.66327500  1
  Zn  Zn0  1  0.00000000  0.00000000  0.83738900  1
  Zn  Zn1  1  0.00000000  0.50000000  0.33738900  1
loop_
_geom_bond_atom_site_label_1
_geom_bond_atom_site_label_2
_geom_bond_distance
_geom_bond_site_symmetry_2
La0 Zn0 3.165444 1_655
La0 Zn0 3.165444 1_555
La0 Mg9 3.285307 1_555
La0 Mg10 3.285307 1_545
La0 Mg1 3.302648 1_555
La0 Mg1 3.302648 1_655
La0 Mg0 3.302648 1_545
La0 Mg0 3.302648 1_645
La0 Mg11 3.363097 1_555
La0 Mg11 3.363097 1_545
La0 Mg4 3.412079 1_555
La0 Mg3 3.412079 1_545
La1 Zn1 3.165444 1_555
La1 Zn1 3.165444 1_655
La1 Mg3 3.285307 1_555
La1 Mg4 3.285307 1_555
La1 Mg7 3.302648 1_655
La1 Mg7 3.302648 1_555
La1 Mg6 3.302648 1_555
La1 Mg6 3.302648 1_655
La1 Mg5 3.363097 1_555
La1 Mg5 3.363097 1_565
La1 Mg10 3.412079 1_554
La1 Mg9 3.412079 1_554
Mg0 Mg3 3.109359 1_555
Mg0 Mg3 3.109359 1_455
Mg0 Mg1 3.148290 1_555
Mg0 Mg11 3.151200 1_455
Mg0 Mg11 3.151200 1_555
Mg0 Zn1 3.181687 1_555
Mg0 Mg2 3.347031 1_565
Mg0 Mg8 3.354584 1_555
Mg1 Mg4 3.109359 1_555
Mg1 Mg4 3.109359 1_455
Mg1 Mg11 3.151200 1_455
Mg1 Mg11 3.151200 1_555
Mg1 Zn1 3.181687 1_555
Mg1 Mg2 3.347031 1_555
Mg1 Mg8 3.354584 1_555
Mg2 Mg5 3.200157 1_455
Mg2 Mg5 3.200157 1_555
Mg2 Mg4 3.246853 1_455
Mg2 Mg4 3.246853 1_555
Mg2 Mg3 3.246853 1_445
Mg2 Mg3 3.246853 1_545
Mg2 Mg6 3.354584 1_555
Mg2 Mg7 3.354584 1_545
Mg2 Zn1 3.361491 1_555
Mg2 Zn1 3.361491 1_545
Mg3 Zn1 3.158211 1_555
Mg3 Zn1 3.158211 1_655
Mg3 Mg4 3.230712 1_555
Mg3 Mg5 3.456547 1_565
Mg3 Mg4 3.491004 1_565
Mg4 Zn1 3.158211 1_555
Mg4 Zn1 3.158211 1_655
Mg4 Mg5 3.456547 1_555
Mg5 Mg6 3.151200 1_655
Mg5 Mg6 3.151200 1_555
Mg5 Mg7 3.151200 1_645
Mg5 Mg7 3.151200 1_545
Mg5 Mg9 3.240445 1_554
Mg6 Mg9 3.109359 1_554
Mg6 Mg9 3.109359 1_454
Mg6 Mg7 3.148290 1_545
Mg6 Zn0 3.181687 1_554
Mg6 Mg8 3.347031 1_554
Mg7 Zn0 3.181687 1_564
Mg7 Mg8 3.347031 1_554
Mg8 Mg9 3.246853 1_455
Mg8 Mg9 3.246853 1_555
Mg8 Zn0 3.361491 1_565
Mg8 Zn0 3.361491 1_555
Mg9 Zn0 3.158211 1_555
Mg9 Zn0 3.158211 1_655
Mg10 Mg7 3.109359 1_656
Mg10 Mg7 3.109359 1_556
Mg10 Zn0 3.158211 1_665
Mg10 Zn0 3.158211 1_565
Mg10 Mg9 3.230712 1_565
Mg10 Mg5 3.240445 1_566
Mg10 Mg8 3.246853 1_555
Mg10 Mg8 3.246853 1_655
Mg10 Mg11 3.456547 1_555
Mg10 Mg9 3.491004 1_555
Mg11 Mg8 3.200157 1_555
Mg11 Mg8 3.200157 1_655
Mg11 Mg3 3.240445 1_555
Mg11 Mg4 3.240445 1_555
Mg11 Mg9 3.456547 1_555
