# generated using pymatgen
data_MgSi
_symmetry_space_group_name_H-M   'P 1'
_cell_length_a   5.58975800
_cell_length_b   6.13083004
_cell_length_c   13.72051718
_cell_angle_alpha   100.25959675
_cell_angle_beta   90.53800001
_cell_angle_gamma   99.96095737
_symmetry_Int_Tables_number   1
_chemical_formula_structural   MgSi
_chemical_formula_sum   'Mg12 Si12'
_cell_volume   455.31537531
_cell_formula_units_Z   12
loop_
 _symmetry_equiv_pos_site_id
 _symmetry_equiv_pos_as_xyz
  1  'x, y, z'
loop_
 _atom_site_type_symbol
 _atom_site_label
 _atom_site_symmetry_multiplicity
 _atom_site_fract_x
 _atom_site_fract_y
 _atom_site_fract_z
 _atom_site_occupancy
  Mg  Mg0  1  0.29585700  0.10634400  0.02815300  1
  Mg  Mg1  1  0.15673300  0.19485600  0.32769900  1
  Mg  Mg2  1  0.99952500  0.74491400  0.66748200  1
  Mg  Mg3  1  0.31517700  0.61077700  0.00464300  1
  Mg  Mg4  1  0.13687100  0.68884100  0.35491400  1
  Mg  Mg5  1  0.48286400  0.20656900  0.67979500  1
  Mg  Mg6  1  0.83178000  0.81157200  0.16929300  1
  Mg  Mg7  1  0.69491100  0.89655500  0.47216800  1
  Mg  Mg8  1  0.99765900  0.25540700  0.83241500  1
  Mg  Mg9  1  0.85269300  0.31766500  0.14349400  1
  Mg  Mg10  1  0.67859400  0.38985200  0.49608300  1
  Mg  Mg11  1  0.51656500  0.74690100  0.81852500  1
  Si  Si0  1  0.76978400  0.96562200  0.98822500  1
  Si  Si1  1  0.65590000  0.11555000  0.30737900  1
  Si  Si2  1  0.50361400  0.70219300  0.62364200  1
  Si  Si3  1  0.81023900  0.55538500  0.97881100  1
  Si  Si4  1  0.64588300  0.51601300  0.31428400  1
  Si  Si5  1  0.95996700  0.20892700  0.62679200  1
  Si  Si6  1  0.34601400  0.48815100  0.18582300  1
  Si  Si7  1  0.18585600  0.45279600  0.51891200  1
  Si  Si8  1  0.49325500  0.29645600  0.87769100  1
  Si  Si9  1  0.33356900  0.88765100  0.19190400  1
  Si  Si10  1  0.22389700  0.04505700  0.50658900  1
  Si  Si11  1  0.04288400  0.79598400  0.87295300  1
loop_
_geom_bond_atom_site_label_1
_geom_bond_atom_site_label_2
_geom_bond_distance
_geom_bond_site_symmetry_2
Mg0 Si8 2.700517 1_554
Mg0 Si11 2.779177 1_544
Mg0 Si9 2.837591 1_545
Mg0 Si6 2.862792 1_555
Mg0 Si0 2.935199 1_444
Mg0 Si0 2.951602 1_544
Mg1 Si9 2.724778 1_545
Mg1 Si1 2.760015 1_455
Mg1 Si7 2.799158 1_555
Mg1 Si10 2.813135 1_555
Mg1 Si1 2.921495 1_555
Mg1 Si6 2.961319 1_555
Mg1 Si4 3.108499 1_555
Mg2 Si11 2.784057 1_655
Mg2 Si2 2.788532 1_555
Mg2 Si7 2.798621 1_655
Mg2 Si2 2.932758 1_655
Mg2 Si5 3.038820 1_565
Mg2 Si5 3.201793 1_555
Mg2 Si10 3.245433 1_665
Mg3 Si8 2.690517 1_554
Mg3 Si6 2.734418 1_555
Mg3 Si3 2.795368 1_454
Mg3 Si9 2.806144 1_555
Mg3 Si11 2.854425 1_554
Mg3 Si3 2.863464 1_554
Mg3 Si0 3.084433 1_554
Mg4 Si10 2.707652 1_565
Mg4 Si4 2.778596 1_455
Mg4 Si6 2.791911 1_555
Mg4 Si9 2.872362 1_555
Mg4 Si7 2.918527 1_555
Mg4 Si4 3.223553 1_555
Mg5 Si8 2.670678 1_555
Mg5 Si10 2.706445 1_555
Mg5 Si5 2.769152 1_555
Mg5 Si5 3.008433 1_455
Mg5 Si2 3.073454 1_545
Mg6 Si1 2.727694 1_565
Mg6 Si9 2.767789 1_655
Mg6 Si3 2.788957 1_554
Mg6 Si0 2.849023 1_554
Mg6 Si9 2.912629 1_555
Mg6 Si4 2.998701 1_555
Mg6 Si6 3.108883 1_555
Mg7 Si2 2.713993 1_555
Mg7 Si5 2.806363 1_565
Mg7 Si1 2.852304 1_565
Mg7 Si4 2.859750 1_555
Mg7 Si10 2.946748 1_565
Mg7 Si10 2.946947 1_665
Mg8 Si5 2.786890 1_555
Mg8 Si8 2.791843 1_655
Mg8 Si3 2.811519 1_555
Mg8 Si8 2.936235 1_555
Mg8 Si11 3.018030 1_645
Mg8 Si0 3.157563 1_545
Mg8 Si11 3.226139 1_655
Mg9 Si0 2.721969 1_544
Mg9 Si6 2.791130 1_655
Mg9 Si4 2.797935 1_555
Mg9 Si1 2.892933 1_555
Mg9 Si3 2.927205 1_554
Mg9 Si6 3.207802 1_555
Mg10 Si2 2.678234 1_555
Mg10 Si4 2.753403 1_555
Mg10 Si7 2.801544 1_655
Mg10 Si1 2.813672 1_555
Mg10 Si7 2.859016 1_555
Mg10 Si5 2.859991 1_555
Mg10 Si10 3.034128 1_555
Mg11 Si2 2.637900 1_555
Mg11 Si0 2.718858 1_555
Mg11 Si11 2.809200 1_555
Mg11 Si11 2.979260 1_655
Mg11 Si8 2.996415 1_555
Si0 Si11 2.433543 1_655
Si0 Si3 2.544622 1_555
Si1 Si9 2.448607 1_545
Si1 Si4 2.450464 1_555
Si2 Si7 2.405707 1_555
Si3 Si8 2.404294 1_555
Si4 Si6 2.384033 1_555
Si5 Si7 2.488156 1_655
Si6 Si9 2.448871 1_555
Si10 Si5 2.423657 1_455
Si10 Si7 2.521251 1_555
Si11 Si3 2.472148 1_455
