# generated using pymatgen
data_SrCu2(BO3)2
_symmetry_space_group_name_H-M   'P 1'
_cell_length_a   7.28681241
_cell_length_b   7.28681241
_cell_length_c   7.28681303
_cell_angle_alpha   102.71824613
_cell_angle_beta   102.71825620
_cell_angle_gamma   124.03409063
_symmetry_Int_Tables_number   1
_chemical_formula_structural   SrCu2(BO3)2
_chemical_formula_sum   'Sr2 Cu4 B4 O12'
_cell_volume   283.14977562
_cell_formula_units_Z   2
loop_
 _symmetry_equiv_pos_site_id
 _symmetry_equiv_pos_as_xyz
  1  'x, y, z'
loop_
 _atom_site_type_symbol
 _atom_site_label
 _atom_site_symmetry_multiplicity
 _atom_site_fract_x
 _atom_site_fract_y
 _atom_site_fract_z
 _atom_site_occupancy
  Sr  Sr0  1  0.50164200  0.50164200  0.00000000  1
  Sr  Sr1  1  0.00164200  0.00164200  0.00000000  1
  Cu  Cu0  1  0.36330300  0.86330300  0.73157600  1
  Cu  Cu1  1  0.13172800  0.63172800  0.26842400  1
  Cu  Cu2  1  0.86330300  0.13172800  0.50000000  1
  Cu  Cu3  1  0.63172800  0.36330300  0.50000000  1
  B  B0  1  0.54632500  0.04632500  0.09554200  1
  B  B1  1  0.95078300  0.45078300  0.90445800  1
  B  B2  1  0.04632500  0.95078300  0.50000000  1
  B  B3  1  0.45078300  0.54632500  0.50000000  1
  O  O0  1  0.33638400  0.64370100  0.50000000  1
  O  O1  1  0.14370100  0.83638400  0.50000000  1
  O  O2  1  0.83638400  0.33638400  0.69268300  1
  O  O3  1  0.64370100  0.14370100  0.30731700  1
  O  O4  1  0.40026600  0.08220000  0.97839900  1
  O  O5  1  0.10380100  0.42186700  0.02160100  1
  O  O6  1  0.90026600  0.92186700  0.31806600  1
  O  O7  1  0.60380100  0.58220000  0.68193400  1
  O  O8  1  0.42186700  0.40026600  0.31806600  1
  O  O9  1  0.08220000  0.10380100  0.68193400  1
  O  O10  1  0.58220000  0.90026600  0.97839900  1
  O  O11  1  0.92186700  0.60380100  0.02160100  1
loop_
_geom_bond_atom_site_label_1
_geom_bond_atom_site_label_2
_geom_bond_distance
_geom_bond_site_symmetry_2
Cu0 O1 1.939212 1_555
Cu0 O0 1.939212 1_555
Cu0 O10 1.973369 1_555
Cu0 O4 1.973369 1_565
Cu1 O0 1.939212 1_555
Cu1 O1 1.939213 1_555
Cu1 O11 1.973368 1_455
Cu1 O5 1.973369 1_555
Cu2 O3 1.939207 1_555
Cu2 O2 1.939208 1_555
Cu2 O9 1.973374 1_655
Cu2 O6 1.973374 1_545
Cu3 O2 1.939207 1_555
Cu3 O3 1.939208 1_555
Cu3 O8 1.973374 1_555
Cu3 O7 1.973374 1_555
B0 O3 1.363991 1_555
B0 O4 1.392617 1_554
B0 O10 1.392617 1_544
B1 O2 1.363991 1_555
B1 O5 1.392617 1_656
B1 O11 1.392617 1_556
B2 O1 1.363991 1_555
B2 O6 1.392617 1_455
B2 O9 1.392617 1_565
B3 O0 1.363991 1_555
B3 O7 1.392617 1_555
B3 O8 1.392617 1_555
O4 Sr0 2.668650 1_556
O4 Sr1 2.672077 1_556
O5 Sr0 2.668650 1_555
O5 Sr1 2.672077 1_555
O6 Sr1 2.668650 1_665
O6 Sr0 2.672078 1_555
O7 Sr1 2.668650 1_666
O7 Sr0 2.672078 1_556
O8 Sr0 2.668650 1_555
O8 Sr1 2.672078 1_555
O9 Sr0 2.668650 1_556
O9 Sr1 2.672078 1_556
O10 Sr1 2.668650 1_666
O10 Sr0 2.672077 1_556
O11 Sr1 2.668650 1_665
O11 Sr0 2.672077 1_555
