# generated using pymatgen
data_Sr2Nb(NO)2
_symmetry_space_group_name_H-M   'P 1'
_cell_length_a   7.10984756
_cell_length_b   7.10984756
_cell_length_c   7.10984756
_cell_angle_alpha   146.79449608
_cell_angle_beta   146.79449608
_cell_angle_gamma   47.66816096
_symmetry_Int_Tables_number   1
_chemical_formula_structural   Sr2Nb(NO)2
_chemical_formula_sum   'Sr2 Nb1 N2 O2'
_cell_volume   107.36280000
_cell_formula_units_Z   1
loop_
 _symmetry_equiv_pos_site_id
 _symmetry_equiv_pos_as_xyz
  1  'x, y, z'
loop_
 _atom_site_type_symbol
 _atom_site_label
 _atom_site_symmetry_multiplicity
 _atom_site_fract_x
 _atom_site_fract_y
 _atom_site_fract_z
 _atom_site_occupancy
  Sr  Sr0  1  0.35167600  0.35167600  0.00000000  1
  Sr  Sr1  1  0.64832400  0.64832400  0.00000000  1
  Nb  Nb0  1  0.00000000  0.00000000  0.00000000  1
  N  N0  1  0.50000000  0.00000000  0.50000000  1
  N  N1  1  0.00000000  0.50000000  0.50000000  1
  O  O0  1  0.16236500  0.16236500  0.00000000  1
  O  O1  1  0.83763500  0.83763500  0.00000000  1
loop_
_geom_bond_atom_site_label_1
_geom_bond_atom_site_label_2
_geom_bond_distance
_geom_bond_site_symmetry_2
Nb0 O1 2.111887 1_445
Nb0 O0 2.111887 1_555
N0 Nb0 2.031528 1_656
N0 Nb0 2.031528 1_555
N0 Sr1 2.801630 1_556
N0 Sr0 2.801630 1_545
N0 Sr1 2.801630 1_545
N0 Sr0 2.801630 1_556
N1 Nb0 2.031528 1_555
N1 Nb0 2.031528 1_566
N1 Sr1 2.801630 1_556
N1 Sr0 2.801630 1_455
N1 Sr0 2.801630 1_556
N1 Sr1 2.801630 1_455
O0 Sr0 2.462374 1_555
O0 Sr1 2.878813 1_444
O0 Sr1 2.878813 1_545
O0 Sr1 2.878813 1_455
O0 Sr1 2.878813 1_556
O1 Sr1 2.462374 1_555
O1 Sr0 2.878813 1_565
O1 Sr0 2.878813 1_655
O1 Sr0 2.878813 1_666
O1 Sr0 2.878813 1_554
