# generated using pymatgen
data_Gd(BO2)6
_symmetry_space_group_name_H-M   'P 1'
_cell_length_a   8.77001048
_cell_length_b   8.77001048
_cell_length_c   8.47999172
_cell_angle_alpha   58.86206128
_cell_angle_beta   58.86206128
_cell_angle_gamma   59.99999642
_symmetry_Int_Tables_number   1
_chemical_formula_structural   Gd(BO2)6
_chemical_formula_sum   'Gd2 B12 O24'
_cell_volume   453.09849872
_cell_formula_units_Z   2
loop_
 _symmetry_equiv_pos_site_id
 _symmetry_equiv_pos_as_xyz
  1  'x, y, z'
loop_
 _atom_site_type_symbol
 _atom_site_label
 _atom_site_symmetry_multiplicity
 _atom_site_fract_x
 _atom_site_fract_y
 _atom_site_fract_z
 _atom_site_occupancy
  Gd  Gd0  1  0.50172500  0.50172500  0.49482500  1
  Gd  Gd1  1  0.00172500  0.00172500  0.99482500  1
  B  B0  1  0.90748600  0.20332000  0.25684700  1
  B  B1  1  0.20332000  0.63234800  0.25684700  1
  B  B2  1  0.63234800  0.90748600  0.25684700  1
  B  B3  1  0.40748600  0.13234800  0.75684700  1
  B  B4  1  0.13234800  0.70332000  0.75684700  1
  B  B5  1  0.70332000  0.40748600  0.75684700  1
  B  B6  1  0.60034800  0.11687000  0.90215300  1
  B  B7  1  0.11687000  0.38063000  0.90215300  1
  B  B8  1  0.38063000  0.60034800  0.90215300  1
  B  B9  1  0.10034800  0.88063000  0.40215300  1
  B  B10  1  0.88063000  0.61687000  0.40215300  1
  B  B11  1  0.61687000  0.10034800  0.40215300  1
  O  O0  1  0.51660000  0.80847500  0.30010900  1
  O  O1  1  0.80847500  0.37481600  0.30010900  1
  O  O2  1  0.37481600  0.51660000  0.30010900  1
  O  O3  1  0.01660000  0.87481600  0.80010900  1
  O  O4  1  0.87481600  0.30847500  0.80010900  1
  O  O5  1  0.30847500  0.01660000  0.80010900  1
  O  O6  1  0.03771400  0.24094800  0.04817400  1
  O  O7  1  0.24094800  0.67316400  0.04817400  1
  O  O8  1  0.67316400  0.03771400  0.04817400  1
  O  O9  1  0.53771400  0.17316400  0.54817400  1
  O  O10  1  0.17316400  0.74094800  0.54817400  1
  O  O11  1  0.74094800  0.53771400  0.54817400  1
  O  O12  1  0.28373500  0.32957100  0.75555500  1
  O  O13  1  0.32957100  0.63113900  0.75555500  1
  O  O14  1  0.63113900  0.28373500  0.75555500  1
  O  O15  1  0.78373500  0.13113900  0.25555500  1
  O  O16  1  0.13113900  0.82957100  0.25555500  1
  O  O17  1  0.82957100  0.78373500  0.25555500  1
  O  O18  1  0.00421100  0.06192800  0.39518700  1
  O  O19  1  0.06192800  0.53867300  0.39518700  1
  O  O20  1  0.53867300  0.00421100  0.39518700  1
  O  O21  1  0.50421100  0.03867300  0.89518700  1
  O  O22  1  0.03867300  0.56192800  0.89518700  1
  O  O23  1  0.56192800  0.50421100  0.89518700  1
loop_
_geom_bond_atom_site_label_1
_geom_bond_atom_site_label_2
_geom_bond_distance
_geom_bond_site_symmetry_2
Gd0 O1 2.348372 1_555
Gd0 O0 2.348372 1_555
Gd0 O2 2.348372 1_555
Gd0 O14 2.425992 1_555
Gd0 O13 2.425992 1_555
Gd0 O12 2.425992 1_555
Gd0 O10 2.548975 1_555
Gd0 O9 2.548975 1_555
Gd0 O11 2.548975 1_555
Gd1 O4 2.348372 1_455
Gd1 O5 2.348372 1_555
Gd1 O3 2.348372 1_545
Gd1 O15 2.425992 1_456
Gd1 O16 2.425992 1_546
Gd1 O17 2.425992 1_446
Gd1 O7 2.548975 1_546
Gd1 O8 2.548975 1_456
Gd1 O6 2.548975 1_556
B0 O1 1.444253 1_555
B0 O18 1.451302 1_655
B0 O6 1.492461 1_655
B0 O15 1.511691 1_555
B1 O2 1.444253 1_555
B1 O19 1.451312 1_555
B1 O7 1.492463 1_555
B1 O16 1.511683 1_555
B2 O0 1.444260 1_555
B2 O20 1.451300 1_565
B2 O8 1.492461 1_565
B2 O17 1.511684 1_555
B3 O5 1.444260 1_555
B3 O21 1.451300 1_555
B3 O9 1.492461 1_555
B3 O12 1.511684 1_555
B4 O3 1.444253 1_555
B4 O22 1.451312 1_555
B4 O10 1.492463 1_555
B4 O13 1.511683 1_555
B5 O4 1.444253 1_555
B5 O23 1.451302 1_555
B5 O11 1.492461 1_555
B5 O14 1.511691 1_555
B6 O21 1.362446 1_555
B6 O8 1.381478 1_556
B6 O14 1.387965 1_555
B7 O22 1.362430 1_555
B7 O6 1.381484 1_556
B7 O12 1.387967 1_555
B8 O23 1.362431 1_555
B8 O7 1.381479 1_556
B8 O13 1.387971 1_555
B9 O18 1.362431 1_565
B9 O10 1.381479 1_555
B9 O16 1.387971 1_555
B10 O19 1.362430 1_655
B10 O11 1.381484 1_555
B10 O17 1.387967 1_555
B11 O20 1.362446 1_555
B11 O9 1.381478 1_555
B11 O15 1.387965 1_555
