# generated using pymatgen
data_La4Cu4SeS3O4
_symmetry_space_group_name_H-M   'P 1'
_cell_length_a   5.67732600
_cell_length_b   5.67732600
_cell_length_c   8.58967800
_cell_angle_alpha   90.00000000
_cell_angle_beta   90.00000000
_cell_angle_gamma   90.00000000
_symmetry_Int_Tables_number   1
_chemical_formula_structural   La4Cu4SeS3O4
_chemical_formula_sum   'La4 Cu4 Se1 S3 O4'
_cell_volume   276.86276337
_cell_formula_units_Z   1
loop_
 _symmetry_equiv_pos_site_id
 _symmetry_equiv_pos_as_xyz
  1  'x, y, z'
loop_
 _atom_site_type_symbol
 _atom_site_label
 _atom_site_symmetry_multiplicity
 _atom_site_fract_x
 _atom_site_fract_y
 _atom_site_fract_z
 _atom_site_occupancy
  La  La0  1  0.50000000  0.50000000  0.85356300  1
  La  La1  1  0.00000000  0.00000000  0.85355400  1
  La  La2  1  0.00000000  0.50000000  0.14551600  1
  La  La3  1  0.50000000  0.00000000  0.14551600  1
  Cu  Cu0  1  0.24853600  0.75146400  0.50103000  1
  Cu  Cu1  1  0.75146400  0.24853600  0.50103000  1
  Cu  Cu2  1  0.24853600  0.24853600  0.50103000  1
  Cu  Cu3  1  0.75146400  0.75146400  0.50103000  1
  Se  Se0  1  0.50000000  0.50000000  0.32923100  1
  S  S0  1  0.00000000  0.00000000  0.34172900  1
  S  S1  1  0.00000000  0.50000000  0.65819600  1
  S  S2  1  0.50000000  0.00000000  0.65819600  1
  O  O0  1  0.24977400  0.75022600  0.99934500  1
  O  O1  1  0.75022600  0.24977400  0.99934500  1
  O  O2  1  0.24977400  0.24977400  0.99934500  1
  O  O3  1  0.75022600  0.75022600  0.99934500  1
loop_
_geom_bond_atom_site_label_1
_geom_bond_atom_site_label_2
_geom_bond_distance
_geom_bond_site_symmetry_2
La0 O3 2.367350 1_555
La0 O0 2.367350 1_555
La0 O1 2.367350 1_555
La0 O2 2.367350 1_555
La0 S1 3.297599 1_555
La0 S2 3.297599 1_555
La0 S1 3.297599 1_655
La0 S2 3.297599 1_565
La1 O0 2.364312 1_545
La1 O2 2.364312 1_555
La1 O1 2.364312 1_455
La1 O3 2.364312 1_445
La1 S2 3.297560 1_455
La1 S2 3.297560 1_555
La1 S1 3.297560 1_545
La1 S1 3.297560 1_555
La2 O0 2.367582 1_554
La2 O3 2.367582 1_454
La2 O2 2.367582 1_554
La2 O1 2.367582 1_454
La2 Se0 3.247808 1_455
La2 Se0 3.247808 1_555
La2 S0 3.301303 1_565
La2 S0 3.301303 1_555
La3 O1 2.367582 1_554
La3 O3 2.367582 1_544
La3 O0 2.367582 1_544
La3 O2 2.367582 1_554
La3 Se0 3.247808 1_545
La3 Se0 3.247808 1_555
La3 S0 3.301303 1_655
La3 S0 3.301303 1_555
Cu0 S1 2.419020 1_555
Cu0 S2 2.419020 1_565
Cu0 S0 2.419570 1_565
Cu0 Se0 2.500803 1_555
Cu1 S2 2.419020 1_555
Cu1 S1 2.419020 1_655
Cu1 S0 2.419570 1_655
Cu1 Se0 2.500803 1_555
Cu2 S2 2.419020 1_555
Cu2 S1 2.419020 1_555
Cu2 S0 2.419570 1_555
Cu2 Se0 2.500803 1_555
Cu3 S1 2.419020 1_655
Cu3 S2 2.419020 1_565
Cu3 S0 2.419570 1_665
Cu3 Se0 2.500803 1_555
