# generated using pymatgen
data_MoC8N4Cl7
_symmetry_space_group_name_H-M   'P 1'
_cell_length_a   8.55267400
_cell_length_b   8.68343100
_cell_length_c   13.72992500
_cell_angle_alpha   90.00000000
_cell_angle_beta   90.00000000
_cell_angle_gamma   90.00000000
_symmetry_Int_Tables_number   1
_chemical_formula_structural   MoC8N4Cl7
_chemical_formula_sum   'Mo2 C16 N8 Cl14'
_cell_volume   1019.67422390
_cell_formula_units_Z   2
loop_
 _symmetry_equiv_pos_site_id
 _symmetry_equiv_pos_as_xyz
  1  'x, y, z'
loop_
 _atom_site_type_symbol
 _atom_site_label
 _atom_site_symmetry_multiplicity
 _atom_site_fract_x
 _atom_site_fract_y
 _atom_site_fract_z
 _atom_site_occupancy
  Mo  Mo0  1  0.50000000  0.11721300  0.50000000  1
  Mo  Mo1  1  0.00000000  0.88278700  0.00000000  1
  C  C0  1  0.92922700  0.16123600  0.32444400  1
  C  C1  1  0.07077300  0.16123600  0.67555600  1
  C  C2  1  0.57077300  0.83876400  0.82444400  1
  C  C3  1  0.42922700  0.83876400  0.17555600  1
  C  C4  1  0.83073100  0.89456000  0.36106100  1
  C  C5  1  0.16926900  0.89456000  0.63893900  1
  C  C6  1  0.66926900  0.10544000  0.86106100  1
  C  C7  1  0.33073100  0.10544000  0.13893900  1
  C  C8  1  0.77084600  0.58844900  0.20009700  1
  C  C9  1  0.22915400  0.58844900  0.79990300  1
  C  C10  1  0.72915400  0.41155100  0.70009700  1
  C  C11  1  0.27084600  0.41155100  0.29990300  1
  C  C12  1  0.71827400  0.44864900  0.04452900  1
  C  C13  1  0.28172600  0.44864900  0.95547100  1
  C  C14  1  0.78172600  0.55135100  0.54452900  1
  C  C15  1  0.21827400  0.55135100  0.45547100  1
  N  N0  1  0.86902800  0.04136900  0.34831500  1
  N  N1  1  0.13097200  0.04136900  0.65168500  1
  N  N2  1  0.63097200  0.95863100  0.84831500  1
  N  N3  1  0.36902800  0.95863100  0.15168500  1
  N  N4  1  0.72869800  0.52921300  0.12347700  1
  N  N5  1  0.27130200  0.52921300  0.87652300  1
  N  N6  1  0.77130200  0.47078700  0.62347700  1
  N  N7  1  0.22869800  0.47078700  0.37652300  1
  Cl  Cl0  1  0.59317800  0.29344900  0.39399100  1
  Cl  Cl1  1  0.40682200  0.29344900  0.60600900  1
  Cl  Cl2  1  0.90682200  0.70655100  0.89399100  1
  Cl  Cl3  1  0.09317800  0.70655100  0.10600900  1
  Cl  Cl4  1  0.71555100  0.05936700  0.59432200  1
  Cl  Cl5  1  0.28444900  0.05936700  0.40567800  1
  Cl  Cl6  1  0.78444900  0.94063300  0.09432200  1
  Cl  Cl7  1  0.21555100  0.94063300  0.90567800  1
  Cl  Cl8  1  0.63406900  0.87434300  0.39478700  1
  Cl  Cl9  1  0.36593100  0.87434300  0.60521300  1
  Cl  Cl10  1  0.86593100  0.12565700  0.89478700  1
  Cl  Cl11  1  0.13406900  0.12565700  0.10521300  1
  Cl  Cl12  1  0.50000000  0.42374700  0.00000000  1
  Cl  Cl13  1  0.00000000  0.57625300  0.50000000  1
loop_
_geom_bond_atom_site_label_1
_geom_bond_atom_site_label_2
_geom_bond_distance
_geom_bond_site_symmetry_2
C0 N0 1.206600 1_555
C1 N1 1.206600 1_555
C2 N2 1.206600 1_555
C3 N3 1.206600 1_555
C4 N0 1.327795 1_565
C4 Cl8 1.753373 1_555
C5 N1 1.327795 1_565
C5 Cl9 1.753373 1_555
C6 N2 1.327795 1_545
C6 Cl10 1.753373 1_555
C7 N3 1.327795 1_545
C7 Cl11 1.753373 1_555
C8 N4 1.225234 1_555
C9 N5 1.225234 1_555
C10 N6 1.225234 1_555
C11 N7 1.225234 1_555
C12 N4 1.293173 1_555
C12 Cl12 1.976255 1_555
C13 N5 1.293173 1_555
C13 Cl12 1.976255 1_556
C14 N6 1.293173 1_555
C14 Cl13 1.976255 1_655
C15 N7 1.293173 1_555
C15 Cl13 1.976255 1_555
Cl0 Mo0 2.257315 1_555
Cl1 Mo0 2.257315 1_555
Cl2 Mo1 2.257315 1_656
Cl3 Mo1 2.257315 1_555
Cl4 Mo0 2.308257 1_555
Cl5 Mo0 2.308257 1_555
Cl6 Mo1 2.308257 1_655
Cl7 Mo1 2.308257 1_556
Cl8 Mo0 2.801647 1_565
Cl9 Mo0 2.801647 1_565
Cl10 Mo1 2.801647 1_646
Cl11 Mo1 2.801647 1_545
