# generated using pymatgen
data_LiCo(CO3)2
_symmetry_space_group_name_H-M   'P 1'
_cell_length_a   5.81725617
_cell_length_b   15.77629439
_cell_length_c   6.43883629
_cell_angle_alpha   96.71422447
_cell_angle_beta   116.79128846
_cell_angle_gamma   75.01190707
_symmetry_Int_Tables_number   1
_chemical_formula_structural   LiCo(CO3)2
_chemical_formula_sum   'Li4 Co4 C8 O24'
_cell_volume   509.54415218
_cell_formula_units_Z   4
loop_
 _symmetry_equiv_pos_site_id
 _symmetry_equiv_pos_as_xyz
  1  'x, y, z'
loop_
 _atom_site_type_symbol
 _atom_site_label
 _atom_site_symmetry_multiplicity
 _atom_site_fract_x
 _atom_site_fract_y
 _atom_site_fract_z
 _atom_site_occupancy
  Li  Li0  1  0.36622200  0.16226700  0.09333200  1
  Li  Li1  1  0.87118800  0.66770300  0.09006600  1
  Li  Li2  1  0.27897000  0.41517300  0.40604500  1
  Li  Li3  1  0.77423600  0.91495500  0.41074100  1
  Co  Co0  1  0.95570500  0.00067000  0.95938700  1
  Co  Co1  1  0.49722000  0.75274300  0.53739200  1
  Co  Co2  1  0.44269000  0.50354300  0.95584600  1
  Co  Co3  1  0.98540600  0.25174700  0.54535400  1
  C  C0  1  0.79408100  0.10622400  0.56538600  1
  C  C1  1  0.30472700  0.61201900  0.56542000  1
  C  C2  1  0.23540300  0.35832800  0.93702500  1
  C  C3  1  0.73436400  0.85931400  0.93199300  1
  C  C4  1  0.87417300  0.14673400  0.11075600  1
  C  C5  1  0.37863400  0.65033000  0.11202600  1
  C  C6  1  0.76903800  0.39948900  0.39034700  1
  C  C7  1  0.25824700  0.89792300  0.38747900  1
  O  O0  1  0.83771100  0.02533200  0.64393400  1
  O  O1  1  0.35057800  0.53108400  0.64459100  1
  O  O2  1  0.19726400  0.27782400  0.85924700  1
  O  O3  1  0.70339000  0.77823400  0.85248200  1
  O  O4  1  0.07142400  0.10937700  0.06023900  1
  O  O5  1  0.58493100  0.61752200  0.07736200  1
  O  O6  1  0.01259200  0.36676400  0.43294700  1
  O  O7  1  0.50488500  0.86100300  0.43183200  1
  O  O8  1  0.68764300  0.10562200  0.03829400  1
  O  O9  1  0.19408400  0.60556200  0.02572500  1
  O  O10  1  0.66386700  0.35442700  0.46893800  1
  O  O11  1  0.15050800  0.85621900  0.46534500  1
  O  O12  1  0.56498200  0.14650600  0.43659600  1
  O  O13  1  0.07614500  0.65283100  0.43971100  1
  O  O14  1  0.12987300  0.40045900  0.06064700  1
  O  O15  1  0.63525600  0.89917300  0.06177100  1
  O  O16  1  0.00554500  0.13640300  0.62650000  1
  O  O17  1  0.51899900  0.64133400  0.63159400  1
  O  O18  1  0.38846500  0.38702000  0.87639000  1
  O  O19  1  0.88205900  0.88943200  0.86642600  1
  O  O20  1  0.87443400  0.21985300  0.22121200  1
  O  O21  1  0.34423500  0.72359000  0.21675300  1
  O  O22  1  0.63469300  0.47213200  0.28162300  1
  O  O23  1  0.14464700  0.97183800  0.28125300  1
loop_
_geom_bond_atom_site_label_1
_geom_bond_atom_site_label_2
_geom_bond_distance
_geom_bond_site_symmetry_2
Li0 O12 1.989928 1_555
Li0 O4 2.012888 1_555
Li0 O8 2.019732 1_555
Li0 O2 2.222970 1_554
Li1 O5 1.987553 1_555
Li1 O13 2.025842 1_655
Li1 O9 2.077272 1_655
Li1 O3 2.175077 1_554
Li2 O6 1.974720 1_555
Li2 O14 1.999172 1_555
Li2 O10 2.063788 1_555
Li2 O1 2.244343 1_555
Li3 O15 2.024872 1_555
Li3 O7 2.026504 1_555
Li3 O11 2.026509 1_655
Li3 O0 2.155104 1_565
Co0 O19 1.879802 1_545
Co0 O0 1.880936 1_555
Co0 O23 1.902200 1_646
Co0 O4 1.938735 1_656
Co0 O8 2.147875 1_556
Co1 O17 1.880963 1_555
Co1 O3 1.892457 1_555
Co1 O21 1.897162 1_555
Co1 O7 1.928518 1_555
Co1 O11 2.139785 1_555
Co2 O1 1.899345 1_555
Co2 O18 1.917062 1_555
Co2 O22 1.933345 1_556
Co2 O9 2.024280 1_556
Co2 O5 2.094573 1_556
Co3 O2 1.896139 1_655
Co3 O16 1.911780 1_655
Co3 O20 1.932289 1_555
Co3 O10 2.038226 1_555
Co3 O6 2.097649 1_655
C0 O12 1.247618 1_555
C0 O16 1.310544 1_655
C0 O0 1.347778 1_555
C1 O13 1.243638 1_555
C1 O17 1.312422 1_555
C1 O1 1.347159 1_555
C2 O14 1.248193 1_556
C2 O18 1.308935 1_555
C2 O2 1.345332 1_555
C3 O15 1.244986 1_556
C3 O19 1.314246 1_555
C3 O3 1.346735 1_555
C4 O20 1.282412 1_555
C4 O8 1.285556 1_555
C4 O4 1.308303 1_655
C5 O21 1.284653 1_555
C5 O5 1.284945 1_555
C5 O9 1.312550 1_555
C6 O22 1.282725 1_555
C6 O6 1.285916 1_655
C6 O10 1.312995 1_555
C7 O23 1.282488 1_555
C7 O11 1.284815 1_555
C7 O7 1.310197 1_555
