# generated using pymatgen
data_Sr3Ca5FeCo7O24
_symmetry_space_group_name_H-M   'P 1'
_cell_length_a   7.61828438
_cell_length_b   7.61828438
_cell_length_c   7.66564615
_cell_angle_alpha   89.99204158
_cell_angle_beta   89.99204158
_cell_angle_gamma   90.01500747
_symmetry_Int_Tables_number   1
_chemical_formula_structural   Sr3Ca5FeCo7O24
_chemical_formula_sum   'Sr3 Ca5 Fe1 Co7 O24'
_cell_volume   444.90071656
_cell_formula_units_Z   1
loop_
 _symmetry_equiv_pos_site_id
 _symmetry_equiv_pos_as_xyz
  1  'x, y, z'
loop_
 _atom_site_type_symbol
 _atom_site_label
 _atom_site_symmetry_multiplicity
 _atom_site_fract_x
 _atom_site_fract_y
 _atom_site_fract_z
 _atom_site_occupancy
  Sr  Sr0  1  0.25017300  0.75001900  0.74797600  1
  Sr  Sr1  1  0.25061000  0.25061000  0.74771500  1
  Sr  Sr2  1  0.75001900  0.25017300  0.74797600  1
  Ca  Ca0  1  0.24914700  0.75096000  0.25267900  1
  Ca  Ca1  1  0.24995000  0.24995000  0.25305700  1
  Ca  Ca2  1  0.75000100  0.75000100  0.74664000  1
  Ca  Ca3  1  0.74996900  0.74996900  0.25330200  1
  Ca  Ca4  1  0.75096000  0.24914700  0.25267900  1
  Fe  Fe0  1  0.99923400  0.99923400  0.00222600  1
  Co  Co0  1  0.99900000  0.50097100  0.00291900  1
  Co  Co1  1  0.99888800  0.99888800  0.49717600  1
  Co  Co2  1  0.99934400  0.50051900  0.49800300  1
  Co  Co3  1  0.50097100  0.99900000  0.00291900  1
  Co  Co4  1  0.50066700  0.50066700  0.00215100  1
  Co  Co5  1  0.50051900  0.99934400  0.49800300  1
  Co  Co6  1  0.50099200  0.50099200  0.49709100  1
  O  O0  1  0.25297000  0.99975600  0.00700800  1
  O  O1  1  0.24749300  0.50168800  0.00604300  1
  O  O2  1  0.24934400  0.00016700  0.49295400  1
  O  O3  1  0.25178300  0.50213700  0.49260300  1
  O  O4  1  0.74647200  0.99656200  0.00570900  1
  O  O5  1  0.75201800  0.50086700  0.00418300  1
  O  O6  1  0.75050300  0.99639200  0.49580500  1
  O  O7  1  0.74852000  0.50227600  0.49460400  1
  O  O8  1  0.99721000  0.99721000  0.74557200  1
  O  O9  1  0.99632800  0.50425100  0.74862000  1
  O  O10  1  0.99846100  0.99846100  0.25576100  1
  O  O11  1  0.99897500  0.50053200  0.25136800  1
  O  O12  1  0.50425100  0.99632800  0.74862000  1
  O  O13  1  0.50354700  0.50354700  0.74723600  1
  O  O14  1  0.50053200  0.99897500  0.25136800  1
  O  O15  1  0.50130100  0.50130100  0.25112200  1
  O  O16  1  0.99656200  0.74647200  0.00570900  1
  O  O17  1  0.99975600  0.25297000  0.00700800  1
  O  O18  1  0.99639200  0.75050300  0.49580500  1
  O  O19  1  0.00016700  0.24934400  0.49295400  1
  O  O20  1  0.50086700  0.75201800  0.00418300  1
  O  O21  1  0.50168800  0.24749300  0.00604300  1
  O  O22  1  0.50227600  0.74852000  0.49460400  1
  O  O23  1  0.50213700  0.25178300  0.49260300  1
loop_
_geom_bond_atom_site_label_1
_geom_bond_atom_site_label_2
_geom_bond_distance
_geom_bond_site_symmetry_2
Ca0 O3 2.641086 1_555
Ca0 O2 2.645345 1_565
Ca0 O0 2.671871 1_555
Ca0 O22 2.675691 1_555
Ca0 O18 2.679596 1_455
Ca0 O1 2.679908 1_555
Ca0 O10 2.684214 1_455
Ca0 O14 2.689964 1_555
Ca0 O11 2.696370 1_455
Ca0 O16 2.699834 1_455
Ca0 O20 2.702793 1_555
Ca0 O15 2.703651 1_555
Ca1 O19 2.646117 1_555
Ca1 O2 2.646117 1_555
Ca1 O23 2.657858 1_555
Ca1 O3 2.657858 1_555
Ca1 O17 2.681796 1_455
Ca1 O0 2.681796 1_545
Ca1 O1 2.694958 1_555
Ca1 O21 2.694958 1_555
Ca1 O11 2.702243 1_455
Ca1 O14 2.702243 1_545
Ca1 O15 2.707709 1_555
Ca1 O10 2.709233 1_445
Ca2 O9 2.651182 1_555
Ca2 O12 2.651182 1_555
Ca2 O13 2.654921 1_555
Ca2 O8 2.663063 1_555
Ca2 O18 2.686937 1_555
Ca2 O6 2.686937 1_555
Ca2 O7 2.701019 1_555
Ca2 O22 2.701019 1_555
Ca2 O16 2.733857 1_556
Ca2 O4 2.733857 1_556
Ca2 O20 2.738452 1_556
Ca2 O5 2.738452 1_556
Ca3 O6 2.642155 1_555
Ca3 O18 2.642155 1_555
Ca3 O7 2.642236 1_555
Ca3 O22 2.642236 1_555
Ca3 O16 2.670432 1_555
Ca3 O4 2.670432 1_555
Ca3 O10 2.676943 1_555
Ca3 O15 2.678824 1_555
Ca3 O14 2.685476 1_555
Ca3 O11 2.685476 1_555
Ca3 O20 2.692477 1_555
Ca3 O5 2.692477 1_555
Ca4 O23 2.641086 1_555
Ca4 O19 2.645345 1_655
Ca4 O17 2.671871 1_555
Ca4 O7 2.675691 1_555
Ca4 O6 2.679596 1_545
Ca4 O21 2.679908 1_555
Ca4 O10 2.684214 1_545
Ca4 O11 2.689964 1_555
Ca4 O14 2.696370 1_545
Ca4 O4 2.699834 1_545
Ca4 O5 2.702793 1_555
Ca4 O15 2.703651 1_555
Fe0 O4 1.925896 1_555
Fe0 O16 1.925896 1_555
Fe0 O0 1.933389 1_655
Fe0 O17 1.933389 1_565
Fe0 O10 1.943526 1_555
Fe0 O8 1.967544 1_554
Co0 O16 1.870519 1_555
Co0 O5 1.881603 1_555
Co0 O17 1.889608 1_555
Co0 O1 1.893252 1_655
Co0 O11 1.904525 1_555
Co0 O9 1.949632 1_554
Co1 O10 1.850609 1_555
Co1 O18 1.892389 1_555
Co1 O6 1.892389 1_555
Co1 O8 1.904198 1_555
Co1 O2 1.908337 1_665
Co1 O19 1.908337 1_665
Co2 O11 1.890619 1_555
Co2 O18 1.904660 1_555
Co2 O7 1.911080 1_555
Co2 O19 1.913931 1_655
Co2 O9 1.921490 1_555
Co2 O3 1.923628 1_655
Co3 O4 1.870519 1_555
Co3 O20 1.881603 1_555
Co3 O0 1.889608 1_555
Co3 O21 1.893252 1_565
Co3 O14 1.904525 1_555
Co3 O12 1.949632 1_554
Co4 O15 1.908537 1_555
Co4 O5 1.914929 1_555
Co4 O20 1.914929 1_555
Co4 O1 1.928996 1_555
Co4 O21 1.928996 1_555
Co4 O13 1.954328 1_554
Co5 O14 1.890619 1_555
Co5 O6 1.904660 1_555
Co5 O22 1.911080 1_555
Co5 O2 1.913931 1_565
Co5 O12 1.921490 1_555
Co5 O23 1.923628 1_565
Co6 O15 1.885514 1_555
Co6 O7 1.885855 1_555
Co6 O22 1.885855 1_555
Co6 O3 1.898884 1_555
Co6 O23 1.898884 1_555
Co6 O13 1.917726 1_555
O0 Sr0 2.750282 1_554
O0 Sr1 2.757219 1_564
O1 Sr0 2.737141 1_554
O1 Sr1 2.753500 1_554
O2 Sr0 2.729903 1_545
O2 Sr1 2.730427 1_555
O3 Sr0 2.720214 1_555
O3 Sr1 2.737741 1_555
O4 Sr2 2.763316 1_564
O5 Sr2 2.739725 1_554
O6 Sr2 2.734171 1_565
O7 Sr2 2.731330 1_555
O8 Sr0 2.694895 1_655
O8 Sr2 2.694895 1_565
O8 Sr1 2.729797 1_665
O9 Sr0 2.691388 1_655
O9 Sr2 2.695532 1_555
O9 Sr1 2.736520 1_655
O12 Sr2 2.691388 1_565
O12 Sr0 2.695532 1_555
O12 Sr1 2.736520 1_565
O13 Sr0 2.693256 1_555
O13 Sr2 2.693256 1_555
O13 Sr1 2.724758 1_555
O16 Sr0 2.763316 1_654
O17 Sr2 2.750282 1_554
O17 Sr1 2.757219 1_654
O18 Sr0 2.734171 1_655
O19 Sr2 2.729903 1_455
O19 Sr1 2.730427 1_555
O20 Sr0 2.739725 1_554
O21 Sr2 2.737141 1_554
O21 Sr1 2.753500 1_554
O22 Sr0 2.731330 1_555
O23 Sr2 2.720214 1_555
O23 Sr1 2.737741 1_555
