# generated using pymatgen
data_ZrAu
_symmetry_space_group_name_H-M   'P 1'
_cell_length_a   6.33131144
_cell_length_b   6.33131144
_cell_length_c   7.83508856
_cell_angle_alpha   90.00000000
_cell_angle_beta   90.00000000
_cell_angle_gamma   90.00000000
_symmetry_Int_Tables_number   1
_chemical_formula_structural   ZrAu
_chemical_formula_sum   'Zr8 Au8'
_cell_volume   314.07347812
_cell_formula_units_Z   8
loop_
 _symmetry_equiv_pos_site_id
 _symmetry_equiv_pos_as_xyz
  1  'x, y, z'
loop_
 _atom_site_type_symbol
 _atom_site_label
 _atom_site_symmetry_multiplicity
 _atom_site_fract_x
 _atom_site_fract_y
 _atom_site_fract_z
 _atom_site_occupancy
  Zr  Zr0_0  1  0.00000000  0.00000000  0.00000000  1
  Zr  Zr0_1  1  0.00000000  0.00000000  0.50000000  1
  Zr  Zr0_2  1  0.00000000  0.50000000  0.00000000  1
  Zr  Zr0_3  1  0.00000000  0.50000000  0.50000000  1
  Zr  Zr0_4  1  0.50000000  0.00000000  0.00000000  1
  Zr  Zr0_5  1  0.50000000  0.00000000  0.50000000  1
  Zr  Zr0_6  1  0.50000000  0.50000000  0.00000000  1
  Zr  Zr0_7  1  0.50000000  0.50000000  0.50000000  1
  Au  Au0_0  1  0.25000000  0.25000000  0.25000000  1
  Au  Au0_1  1  0.25000000  0.25000000  0.75000000  1
  Au  Au0_2  1  0.25000000  0.75000000  0.25000000  1
  Au  Au0_3  1  0.25000000  0.75000000  0.75000000  1
  Au  Au0_4  1  0.75000000  0.25000000  0.25000000  1
  Au  Au0_5  1  0.75000000  0.25000000  0.75000000  1
  Au  Au0_6  1  0.75000000  0.75000000  0.25000000  1
  Au  Au0_7  1  0.75000000  0.75000000  0.75000000  1
loop_
_geom_bond_atom_site_label_1
_geom_bond_atom_site_label_2
_geom_bond_distance
_geom_bond_site_symmetry_2
Zr0_0 Zr0_4 3.165656 1_455
Zr0_0 Zr0_4 3.165656 1_555
Zr0_0 Zr0_2 3.165656 1_555
Zr0_0 Zr0_2 3.165656 1_545
Zr0_1 Zr0_5 3.165656 1_455
Zr0_1 Zr0_3 3.165656 1_545
Zr0_1 Zr0_5 3.165656 1_555
Zr0_1 Zr0_3 3.165656 1_555
Zr0_2 Zr0_6 3.165656 1_555
Zr0_2 Zr0_6 3.165656 1_455
Zr0_3 Zr0_7 3.165656 1_555
Zr0_3 Zr0_7 3.165656 1_455
Zr0_4 Zr0_6 3.165656 1_555
Zr0_4 Zr0_6 3.165656 1_545
Zr0_5 Zr0_7 3.165656 1_555
Zr0_5 Zr0_7 3.165656 1_545
Au0_0 Zr0_4 2.974471 1_555
Au0_0 Zr0_6 2.974471 1_555
Au0_0 Zr0_7 2.974471 1_555
Au0_0 Zr0_5 2.974471 1_555
Au0_0 Zr0_2 2.974471 1_555
Au0_0 Zr0_3 2.974471 1_555
Au0_0 Zr0_0 2.974471 1_555
Au0_0 Zr0_1 2.974471 1_555
Au0_0 Au0_2 3.165656 1_545
Au0_0 Au0_4 3.165656 1_455
Au0_0 Au0_4 3.165656 1_555
Au0_0 Au0_2 3.165656 1_555
Au0_1 Zr0_7 2.974471 1_555
Au0_1 Zr0_4 2.974471 1_556
Au0_1 Zr0_2 2.974471 1_556
Au0_1 Zr0_5 2.974471 1_555
Au0_1 Zr0_6 2.974471 1_556
Au0_1 Zr0_3 2.974471 1_555
Au0_1 Zr0_0 2.974471 1_556
Au0_1 Zr0_1 2.974471 1_555
Au0_1 Au0_5 3.165656 1_555
Au0_1 Au0_3 3.165656 1_555
Au0_1 Au0_5 3.165656 1_455
Au0_1 Au0_3 3.165656 1_545
Au0_2 Zr0_6 2.974471 1_555
Au0_2 Zr0_7 2.974471 1_555
Au0_2 Zr0_0 2.974471 1_565
Au0_2 Zr0_4 2.974471 1_565
Au0_2 Zr0_1 2.974471 1_565
Au0_2 Zr0_2 2.974471 1_555
Au0_2 Zr0_3 2.974471 1_555
Au0_2 Zr0_5 2.974471 1_565
Au0_2 Au0_6 3.165656 1_555
Au0_2 Au0_6 3.165656 1_455
Au0_3 Zr0_7 2.974471 1_555
Au0_3 Zr0_0 2.974471 1_566
Au0_3 Zr0_4 2.974471 1_566
Au0_3 Zr0_2 2.974471 1_556
Au0_3 Zr0_1 2.974471 1_565
Au0_3 Zr0_6 2.974471 1_556
Au0_3 Zr0_3 2.974471 1_555
Au0_3 Zr0_5 2.974471 1_565
Au0_3 Au0_7 3.165656 1_455
Au0_3 Au0_7 3.165656 1_555
Au0_4 Zr0_4 2.974471 1_555
Au0_4 Zr0_6 2.974471 1_555
Au0_4 Zr0_7 2.974471 1_555
Au0_4 Zr0_0 2.974471 1_655
Au0_4 Zr0_3 2.974471 1_655
Au0_4 Zr0_5 2.974471 1_555
Au0_4 Zr0_1 2.974471 1_655
Au0_4 Zr0_2 2.974471 1_655
Au0_4 Au0_6 3.165656 1_555
Au0_4 Au0_6 3.165656 1_545
Au0_5 Zr0_2 2.974471 1_656
Au0_5 Zr0_7 2.974471 1_555
Au0_5 Zr0_3 2.974471 1_655
Au0_5 Zr0_0 2.974471 1_656
Au0_5 Zr0_4 2.974471 1_556
Au0_5 Zr0_5 2.974471 1_555
Au0_5 Zr0_1 2.974471 1_655
Au0_5 Zr0_6 2.974471 1_556
Au0_5 Au0_7 3.165656 1_545
Au0_5 Au0_7 3.165656 1_555
Au0_6 Zr0_6 2.974471 1_555
Au0_6 Zr0_7 2.974471 1_555
Au0_6 Zr0_3 2.974471 1_655
Au0_6 Zr0_4 2.974471 1_565
Au0_6 Zr0_0 2.974471 1_665
Au0_6 Zr0_1 2.974471 1_665
Au0_6 Zr0_5 2.974471 1_565
Au0_6 Zr0_2 2.974471 1_655
Au0_7 Zr0_2 2.974471 1_656
Au0_7 Zr0_7 2.974471 1_555
Au0_7 Zr0_3 2.974471 1_655
Au0_7 Zr0_0 2.974471 1_666
Au0_7 Zr0_4 2.974471 1_566
Au0_7 Zr0_1 2.974471 1_665
Au0_7 Zr0_6 2.974471 1_556
Au0_7 Zr0_5 2.974471 1_565
