# generated using pymatgen
data_Er2Ge6Pd
_symmetry_space_group_name_H-M   'P 1'
_cell_length_a   4.04028600
_cell_length_b   4.07595700
_cell_length_c   11.15909946
_cell_angle_alpha   90.00000000
_cell_angle_beta   100.42981874
_cell_angle_gamma   90.00000000
_symmetry_Int_Tables_number   1
_chemical_formula_structural   Er2Ge6Pd
_chemical_formula_sum   'Er2 Ge6 Pd1'
_cell_volume   180.73207313
_cell_formula_units_Z   1
loop_
 _symmetry_equiv_pos_site_id
 _symmetry_equiv_pos_as_xyz
  1  'x, y, z'
loop_
 _atom_site_type_symbol
 _atom_site_label
 _atom_site_symmetry_multiplicity
 _atom_site_fract_x
 _atom_site_fract_y
 _atom_site_fract_z
 _atom_site_occupancy
  Er  Er0  1  0.77761400  0.50000000  0.55522700  1
  Er  Er1  1  0.11812400  0.50000000  0.23624800  1
  Ge  Ge0  1  0.49305300  0.50000000  0.98610500  1
  Ge  Ge1  1  0.37907100  0.50000000  0.75814100  1
  Ge  Ge2  1  0.99185000  0.00000000  0.98369900  1
  Ge  Ge3  1  0.87763700  0.00000000  0.75527500  1
  Ge  Ge4  1  0.66948800  0.00000000  0.33897600  1
  Ge  Ge5  1  0.24111600  0.00000000  0.48223200  1
  Pd  Pd0  1  0.55904800  0.00000000  0.11809500  1
loop_
_geom_bond_atom_site_label_1
_geom_bond_atom_site_label_2
_geom_bond_distance
_geom_bond_site_symmetry_2
Er0 Ge5 2.979276 1_655
Er0 Ge5 2.979276 1_665
Er0 Ge5 2.979279 1_565
Er0 Ge5 2.979279 1_555
Er0 Ge3 2.995572 1_555
Er0 Ge3 2.995572 1_565
Er0 Ge1 3.006688 1_655
Er0 Ge1 3.006688 1_555
Er0 Ge4 3.128240 1_555
Er0 Ge4 3.128240 1_565
Er1 Ge4 3.083081 1_565
Er1 Ge4 3.083081 1_555
Er1 Ge4 3.083081 1_455
Er1 Ge4 3.083081 1_465
Er1 Pd0 3.148928 1_465
Er1 Pd0 3.148928 1_455
Er1 Pd0 3.148931 1_555
Er1 Pd0 3.148931 1_565
Er1 Ge5 3.382489 1_565
Er1 Ge5 3.382489 1_555
Er1 Ge0 3.408426 1_454
Er1 Ge0 3.408428 1_554
Er1 Ge2 3.440266 1_464
Er1 Ge2 3.440266 1_454
Ge0 Pd0 2.500333 1_556
Ge0 Pd0 2.500333 1_566
Ge0 Ge1 2.501842 1_555
Ge0 Ge2 2.869674 1_455
Ge0 Ge2 2.869674 1_465
Ge0 Ge2 2.869674 1_555
Ge0 Ge2 2.869674 1_565
Ge1 Ge3 2.869722 1_565
Ge1 Ge3 2.869722 1_555
Ge1 Ge3 2.869728 1_455
Ge1 Ge3 2.869728 1_465
Ge2 Pd0 2.501296 1_656
Ge2 Pd0 2.501296 1_556
Ge2 Ge3 2.506890 1_555
Ge4 Pd0 2.424108 1_555
Ge4 Ge5 2.559839 1_555
Ge4 Ge5 2.559839 1_655
