# generated using pymatgen
data_SnPS3
_symmetry_space_group_name_H-M   'P 1'
_cell_length_a   7.57141576
_cell_length_b   6.59656698
_cell_length_c   11.85949965
_cell_angle_alpha   56.10713323
_cell_angle_beta   90.00000000
_cell_angle_gamma   90.00000000
_symmetry_Int_Tables_number   1
_chemical_formula_structural   SnPS3
_chemical_formula_sum   'Sn4 P4 S12'
_cell_volume   491.67970928
_cell_formula_units_Z   4
loop_
 _symmetry_equiv_pos_site_id
 _symmetry_equiv_pos_as_xyz
  1  'x, y, z'
loop_
 _atom_site_type_symbol
 _atom_site_label
 _atom_site_symmetry_multiplicity
 _atom_site_fract_x
 _atom_site_fract_y
 _atom_site_fract_z
 _atom_site_occupancy
  Sn  Sn0  1  0.13618921  0.74468213  0.55745666  1
  Sn  Sn1  1  0.86381079  0.74468213  0.05745666  1
  Sn  Sn2  1  0.39582960  0.20372869  0.04049220  1
  Sn  Sn3  1  0.60417040  0.20372869  0.54049220  1
  P  P0  1  0.64450796  0.87592171  0.31140675  1
  P  P1  1  0.35549204  0.87592171  0.81140675  1
  P  P2  1  0.86327948  0.12459031  0.18191414  1
  P  P3  1  0.13672052  0.12459031  0.68191414  1
  S  S0  1  0.43097844  0.71613197  0.71312064  1
  S  S1  1  0.56902156  0.71613197  0.21312064  1
  S  S2  1  0.55092731  0.10358817  0.79029340  1
  S  S3  1  0.44907269  0.10358817  0.29029340  1
  S  S4  1  0.24803580  0.34678909  0.49689725  1
  S  S5  1  0.75196420  0.34678909  0.99689725  1
  S  S6  1  0.04749543  0.29875714  0.76695946  1
  S  S7  1  0.95250457  0.29875714  0.26695946  1
  S  S8  1  0.95037712  0.89290687  0.69312509  1
  S  S9  1  0.04962288  0.89290687  0.19312509  1
  S  S10  1  0.26786932  0.64780393  0.00163541  1
  S  S11  1  0.73213068  0.64780393  0.50163541  1
loop_
_geom_bond_atom_site_label_1
_geom_bond_atom_site_label_2
_geom_bond_distance
_geom_bond_site_symmetry_2
P0 S11 2.001985 1_555
P0 S3 2.021962 1_565
P0 S1 2.041242 1_555
P0 P2 2.232344 1_565
P1 S10 2.001985 1_556
P1 S2 2.021962 1_565
P1 S0 2.041242 1_555
P1 P3 2.232344 1_565
P2 S7 2.021383 1_555
P2 S5 2.021479 1_554
P2 S9 2.029136 1_645
P3 S6 2.021383 1_555
P3 S4 2.021479 1_555
P3 S8 2.029136 1_445
S0 Sn0 2.835045 1_555
S0 Sn3 2.985362 1_565
S1 Sn1 2.835045 1_555
S1 Sn2 2.985362 1_565
S2 Sn3 2.681938 1_555
S3 Sn2 2.681938 1_555
S4 Sn3 2.807941 1_555
S5 Sn2 2.807941 1_556
S6 Sn0 2.669430 1_555
S7 Sn1 2.669430 1_555
S8 Sn0 2.697891 1_655
S9 Sn1 2.697891 1_455
S10 Sn2 2.868220 1_555
S11 Sn3 2.868220 1_555
