# generated using pymatgen
data_CaLa4Ti3RuO15
_symmetry_space_group_name_H-M   'P 1'
_cell_length_a   5.55138574
_cell_length_b   5.55138574
_cell_length_c   11.11709600
_cell_angle_alpha   90.00000000
_cell_angle_beta   90.00000000
_cell_angle_gamma   119.99999688
_symmetry_Int_Tables_number   1
_chemical_formula_structural   CaLa4Ti3RuO15
_chemical_formula_sum   'Ca1 La4 Ti3 Ru1 O15'
_cell_volume   296.70496380
_cell_formula_units_Z   1
loop_
 _symmetry_equiv_pos_site_id
 _symmetry_equiv_pos_as_xyz
  1  'x, y, z'
loop_
 _atom_site_type_symbol
 _atom_site_label
 _atom_site_symmetry_multiplicity
 _atom_site_fract_x
 _atom_site_fract_y
 _atom_site_fract_z
 _atom_site_occupancy
  Ca  Ca0  1  0.33333300  0.66666700  0.00150400  1
  La  La0  1  0.66666700  0.33333300  0.42433400  1
  La  La1  1  0.00000000  0.00000000  0.57478600  1
  La  La2  1  0.66666700  0.33333300  0.78042300  1
  La  La3  1  0.00000000  0.00000000  0.21868200  1
  Ti  Ti0  1  0.33333300  0.66666700  0.31937000  1
  Ti  Ti1  1  0.33333300  0.66666700  0.68077300  1
  Ti  Ti2  1  0.66666700  0.33333300  0.10309600  1
  Ru  Ru0  1  0.00000000  0.00000000  0.89926100  1
  O  O0  1  0.99912300  0.49956100  0.20328900  1
  O  O1  1  0.50043900  0.49956100  0.20328900  1
  O  O2  1  0.50043900  0.00087700  0.20328900  1
  O  O3  1  0.66486700  0.83243400  0.79562200  1
  O  O4  1  0.16756600  0.83243400  0.79562200  1
  O  O5  1  0.16756600  0.33513300  0.79562200  1
  O  O6  1  0.83219700  0.16780300  0.00140900  1
  O  O7  1  0.83219700  0.66439400  0.00140900  1
  O  O8  1  0.33560600  0.16780300  0.00140900  1
  O  O9  1  0.98707300  0.49353600  0.60171600  1
  O  O10  1  0.50646400  0.49353600  0.60171600  1
  O  O11  1  0.50646400  0.01292700  0.60171600  1
  O  O12  1  0.68009800  0.84004900  0.39720800  1
  O  O13  1  0.15995100  0.84004900  0.39720800  1
  O  O14  1  0.15995100  0.31990200  0.39720800  1
loop_
_geom_bond_atom_site_label_1
_geom_bond_atom_site_label_2
_geom_bond_distance
_geom_bond_site_symmetry_2
Ca0 O0 2.759332 1_455
Ca0 O2 2.759332 1_565
Ca0 O1 2.759338 1_555
Ca0 O8 2.775712 1_565
Ca0 O7 2.775712 1_455
Ca0 O6 2.775715 1_565
Ca0 O6 2.775715 1_455
Ca0 O7 2.775717 1_555
Ca0 O8 2.775717 1_555
Ca0 O4 2.789114 1_554
Ca0 O5 2.789114 1_554
Ca0 O3 2.789114 1_554
La0 O10 2.502299 1_555
La0 O11 2.502299 1_555
La0 O9 2.502299 1_555
La0 O14 2.792770 1_655
La0 O12 2.792770 1_545
La0 O13 2.792773 1_545
La0 O13 2.792773 1_655
La0 O14 2.792776 1_555
La0 O12 2.792776 1_555
La0 O1 2.931444 1_555
La0 O2 2.931444 1_555
La0 O0 2.931444 1_555
La1 O13 2.502526 1_545
La1 O14 2.502527 1_555
La1 O12 2.502527 1_445
La1 O11 2.792481 1_455
La1 O9 2.792481 1_455
La1 O10 2.792484 1_445
La1 O10 2.792484 1_555
La1 O9 2.792486 1_445
La1 O11 2.792486 1_555
La1 O4 2.936536 1_545
La1 O3 2.936538 1_445
La1 O5 2.936538 1_555
La2 O10 2.513923 1_555
La2 O9 2.513924 1_555
La2 O11 2.513924 1_555
La2 O5 2.780839 1_655
La2 O3 2.780839 1_545
La2 O4 2.780845 1_655
La2 O4 2.780845 1_545
La2 O5 2.780850 1_555
La2 O3 2.780850 1_555
La2 O6 2.927240 1_556
La2 O8 2.927242 1_556
La2 O7 2.927242 1_556
La3 O13 2.510849 1_545
La3 O12 2.510849 1_445
La3 O14 2.510849 1_555
La3 O2 2.780963 1_455
La3 O0 2.780963 1_455
La3 O1 2.780966 1_555
La3 O1 2.780966 1_445
La3 O2 2.780969 1_555
La3 O0 2.780969 1_445
La3 O6 2.904767 1_455
La3 O7 2.904767 1_445
La3 O8 2.904767 1_555
O0 Ti2 1.948161 1_555
O0 Ti0 2.060833 1_655
O1 Ti2 1.948160 1_555
O1 Ti0 2.060840 1_555
O2 Ti2 1.948161 1_555
O2 Ti0 2.060833 1_545
O3 Ru0 1.980769 1_665
O3 Ti1 2.042227 1_555
O4 Ru0 1.980765 1_565
O4 Ti1 2.042227 1_555
O5 Ru0 1.980769 1_555
O5 Ti1 2.042227 1_555
O6 Ti2 1.952228 1_555
O6 Ru0 1.973033 1_654
O7 Ti2 1.952232 1_555
O7 Ru0 1.973033 1_664
O8 Ti2 1.952232 1_555
O8 Ru0 1.973033 1_554
O9 Ti1 1.882457 1_655
O10 Ti1 1.882465 1_555
O11 Ti1 1.882457 1_545
O12 Ti0 1.878322 1_555
O13 Ti0 1.878318 1_555
O14 Ti0 1.878322 1_555
