# generated using pymatgen
data_Mg2Si
_symmetry_space_group_name_H-M   'P 1'
_cell_length_a   5.11193800
_cell_length_b   6.11234182
_cell_length_c   7.98942698
_cell_angle_alpha   105.74778117
_cell_angle_beta   99.16714909
_cell_angle_gamma   95.73385534
_symmetry_Int_Tables_number   1
_chemical_formula_structural   Mg2Si
_chemical_formula_sum   'Mg8 Si4'
_cell_volume   234.49104344
_cell_formula_units_Z   4
loop_
 _symmetry_equiv_pos_site_id
 _symmetry_equiv_pos_as_xyz
  1  'x, y, z'
loop_
 _atom_site_type_symbol
 _atom_site_label
 _atom_site_symmetry_multiplicity
 _atom_site_fract_x
 _atom_site_fract_y
 _atom_site_fract_z
 _atom_site_occupancy
  Mg  Mg0  1  0.04879300  0.74611500  0.98677000  1
  Mg  Mg1  1  0.98519500  0.14887100  0.35046900  1
  Mg  Mg2  1  0.43130500  0.34144900  0.82643800  1
  Mg  Mg3  1  0.01480500  0.85112900  0.64953100  1
  Mg  Mg4  1  0.95120700  0.25388500  0.01323000  1
  Mg  Mg5  1  0.50000000  0.50000000  0.50000000  1
  Mg  Mg6  1  0.50000000  0.00000000  0.50000000  1
  Mg  Mg7  1  0.56869500  0.65855100  0.17356200  1
  Si  Si0  1  0.45425000  0.15435200  0.13312200  1
  Si  Si1  1  0.54575000  0.84564800  0.86687800  1
  Si  Si2  1  0.09110800  0.66367600  0.30964500  1
  Si  Si3  1  0.90889200  0.33632400  0.69035500  1
loop_
_geom_bond_atom_site_label_1
_geom_bond_atom_site_label_2
_geom_bond_distance
_geom_bond_site_symmetry_2
Mg0 Si2 2.739437 1_556
Mg0 Si1 2.782886 1_455
Mg0 Si3 2.876857 1_455
Mg0 Si0 2.915518 1_566
Mg0 Si1 2.919621 1_555
Mg1 Si3 2.752597 1_555
Mg1 Si0 2.988503 1_555
Mg1 Si2 3.007793 1_645
Mg1 Si0 3.179313 1_655
Mg2 Si3 2.711918 1_455
Mg2 Si3 2.825951 1_555
Mg2 Si0 2.963347 1_556
Mg2 Si1 2.997232 1_555
Mg2 Si1 3.233594 1_545
Mg3 Si2 2.752597 1_555
Mg3 Si1 2.988503 1_555
Mg3 Si3 3.007793 1_465
Mg3 Si1 3.179313 1_455
Mg4 Si3 2.739437 1_554
Mg4 Si0 2.782886 1_655
Mg4 Si2 2.876857 1_655
Mg4 Si1 2.915518 1_544
Mg4 Si0 2.919621 1_555
Mg5 Si3 2.813131 1_555
Mg5 Si2 2.813131 1_555
Mg5 Si1 3.071043 1_555
Mg5 Si0 3.071043 1_555
Mg6 Si2 2.709147 1_545
Mg6 Si3 2.709147 1_555
Mg6 Si0 3.295929 1_555
Mg6 Si1 3.295929 1_545
Mg7 Si2 2.711918 1_655
Mg7 Si2 2.825951 1_555
Mg7 Si1 2.963347 1_554
Mg7 Si0 2.997232 1_555
Mg7 Si0 3.233594 1_565
Si0 Si1 2.572667 1_544
