# generated using pymatgen
data_TaCr3(AgS4)2
_symmetry_space_group_name_H-M   'P 1'
_cell_length_a   3.46705000
_cell_length_b   11.16676000
_cell_length_c   13.08904900
_cell_angle_alpha   90.00000000
_cell_angle_beta   90.00000000
_cell_angle_gamma   90.00000000
_symmetry_Int_Tables_number   1
_chemical_formula_structural   TaCr3(AgS4)2
_chemical_formula_sum   'Ta2 Cr6 Ag4 S16'
_cell_volume   506.75189408
_cell_formula_units_Z   2
loop_
 _symmetry_equiv_pos_site_id
 _symmetry_equiv_pos_as_xyz
  1  'x, y, z'
loop_
 _atom_site_type_symbol
 _atom_site_label
 _atom_site_symmetry_multiplicity
 _atom_site_fract_x
 _atom_site_fract_y
 _atom_site_fract_z
 _atom_site_occupancy
  Ta  Ta0  1  0.50000000  0.91498300  0.34639100  1
  Ta  Ta1  1  0.50000000  0.41498300  0.65360900  1
  Cr  Cr0  1  0.50000000  0.94039000  0.86589300  1
  Cr  Cr1  1  0.00000000  0.05569600  0.64448300  1
  Cr  Cr2  1  0.00000000  0.55569600  0.35551700  1
  Cr  Cr3  1  0.50000000  0.44039000  0.13410700  1
  Cr  Cr4  1  0.00000000  0.08606500  0.14946400  1
  Cr  Cr5  1  0.00000000  0.58606500  0.85053600  1
  Ag  Ag0  1  0.50000000  0.74511700  0.07257700  1
  Ag  Ag1  1  0.00000000  0.24838700  0.40943600  1
  Ag  Ag2  1  0.00000000  0.74838700  0.59056400  1
  Ag  Ag3  1  0.50000000  0.24511700  0.92742300  1
  S  S0  1  0.00000000  0.97618200  0.46747900  1
  S  S1  1  0.50000000  0.03141300  0.03655300  1
  S  S2  1  0.50000000  0.53141300  0.96344700  1
  S  S3  1  0.00000000  0.47618200  0.53252100  1
  S  S4  1  0.50000000  0.91713200  0.68360800  1
  S  S5  1  0.00000000  0.08245500  0.82267700  1
  S  S6  1  0.00000000  0.58245500  0.17732300  1
  S  S7  1  0.50000000  0.41713200  0.31639200  1
  S  S8  1  0.00000000  0.87979600  0.21427500  1
  S  S9  1  0.50000000  0.12140500  0.27548300  1
  S  S10  1  0.50000000  0.62140500  0.72451700  1
  S  S11  1  0.00000000  0.37979600  0.78572500  1
  S  S12  1  0.00000000  0.79660300  0.90686000  1
  S  S13  1  0.50000000  0.20437600  0.60018600  1
  S  S14  1  0.50000000  0.70437600  0.39981400  1
  S  S15  1  0.00000000  0.29660300  0.09314000  1
loop_
_geom_bond_atom_site_label_1
_geom_bond_atom_site_label_2
_geom_bond_distance
_geom_bond_site_symmetry_2
Cr0 S4 2.400031 1_555
Cr0 S5 2.416973 1_565
Cr0 S5 2.416973 1_665
Cr0 S12 2.422953 1_555
Cr0 S12 2.422953 1_655
Cr0 S1 2.454159 1_566
Cr1 S5 2.351453 1_555
Cr1 S4 2.379398 1_445
Cr1 S4 2.379398 1_545
Cr1 S13 2.469371 1_555
Cr1 S13 2.469371 1_455
Cr1 S0 2.481132 1_545
Cr2 S6 2.351453 1_555
Cr2 S7 2.379398 1_555
Cr2 S7 2.379398 1_455
Cr2 S14 2.469371 1_455
Cr2 S14 2.469371 1_555
Cr2 S3 2.481132 1_555
Cr3 S7 2.400031 1_555
Cr3 S6 2.416973 1_655
Cr3 S6 2.416973 1_555
Cr3 S15 2.422953 1_555
Cr3 S15 2.422953 1_655
Cr3 S2 2.454159 1_554
Cr4 S1 2.358334 1_455
Cr4 S1 2.358334 1_555
Cr4 S9 2.425199 1_455
Cr4 S9 2.425199 1_555
Cr4 S8 2.454605 1_545
Cr4 S15 2.463906 1_555
Cr5 S2 2.358334 1_555
Cr5 S2 2.358334 1_455
Cr5 S10 2.425199 1_555
Cr5 S10 2.425199 1_455
Cr5 S11 2.454605 1_555
Cr5 S12 2.463906 1_555
Ag0 S2 2.781216 1_554
Ag0 S12 2.835587 1_554
Ag0 S12 2.835587 1_654
Ag0 S6 2.860796 1_555
Ag0 S6 2.860796 1_655
Ag0 S8 2.950727 1_555
Ag0 S8 2.950727 1_655
Ag1 S7 2.835314 1_555
Ag1 S7 2.835314 1_455
Ag1 S9 2.844273 1_555
Ag1 S9 2.844273 1_455
Ag1 S3 3.010997 1_555
Ag1 S13 3.079015 1_555
Ag1 S13 3.079015 1_455
Ag1 S0 3.133153 1_545
Ag2 S4 2.835314 1_455
Ag2 S4 2.835314 1_555
Ag2 S10 2.844273 1_555
Ag2 S10 2.844273 1_455
Ag2 S0 3.010997 1_555
Ag2 S14 3.079015 1_455
Ag2 S14 3.079015 1_555
Ag2 S3 3.133153 1_555
Ag3 S1 2.781216 1_556
Ag3 S15 2.835587 1_556
Ag3 S15 2.835587 1_656
Ag3 S5 2.860796 1_655
Ag3 S5 2.860796 1_555
Ag3 S11 2.950727 1_655
Ag3 S11 2.950727 1_555
S0 Ta0 2.446248 1_455
S0 Ta0 2.446248 1_555
S3 Ta1 2.446248 1_455
S3 Ta1 2.446248 1_555
S8 Ta0 2.479896 1_455
S8 Ta0 2.479896 1_555
S9 Ta0 2.484900 1_545
S10 Ta1 2.484900 1_555
S11 Ta1 2.479896 1_555
S11 Ta1 2.479896 1_455
S13 Ta1 2.453551 1_555
S14 Ta0 2.453551 1_555
