# generated using pymatgen
data_Li2CoCSO7
_symmetry_space_group_name_H-M   'P 1'
_cell_length_a   4.98880277
_cell_length_b   17.83031495
_cell_length_c   6.44519054
_cell_angle_alpha   89.91536513
_cell_angle_beta   90.04735296
_cell_angle_gamma   83.63129593
_symmetry_Int_Tables_number   1
_chemical_formula_structural   Li2CoCSO7
_chemical_formula_sum   'Li8 Co4 C4 S4 O28'
_cell_volume   569.77309292
_cell_formula_units_Z   4
loop_
 _symmetry_equiv_pos_site_id
 _symmetry_equiv_pos_as_xyz
  1  'x, y, z'
loop_
 _atom_site_type_symbol
 _atom_site_label
 _atom_site_symmetry_multiplicity
 _atom_site_fract_x
 _atom_site_fract_y
 _atom_site_fract_z
 _atom_site_occupancy
  Li  Li0  1  0.21107200  0.09194300  0.51491100  1
  Li  Li1  1  0.21500000  0.59267000  0.51574500  1
  Li  Li2  1  0.21148100  0.09189800  0.98336600  1
  Li  Li3  1  0.21551400  0.59232100  0.98339300  1
  Li  Li4  1  0.78910900  0.40824200  0.48514400  1
  Li  Li5  1  0.78620100  0.90767900  0.48517000  1
  Li  Li6  1  0.78939100  0.40857700  0.01640800  1
  Li  Li7  1  0.78594500  0.90785700  0.01655900  1
  Co  Co0  1  0.77577900  0.67666300  0.75210500  1
  Co  Co1  1  0.22997100  0.82397300  0.25020700  1
  Co  Co2  1  0.76625000  0.17580600  0.74893200  1
  Co  Co3  1  0.23411900  0.32412600  0.25119700  1
  C  C0  1  0.72754900  0.03522700  0.74991700  1
  C  C1  1  0.73053400  0.53578800  0.74926900  1
  C  C2  1  0.27252800  0.46478100  0.25029400  1
  C  C3  1  0.27024800  0.96447200  0.25013300  1
  S  S0  1  0.75050100  0.20564900  0.24961600  1
  S  S1  1  0.74547200  0.70643000  0.24974300  1
  S  S2  1  0.24993500  0.29417900  0.75053700  1
  S  S3  1  0.25094000  0.79329800  0.74999500  1
  O  O0  1  0.29747100  0.03472500  0.24945400  1
  O  O1  1  0.29917200  0.53507900  0.24985800  1
  O  O2  1  0.70383500  0.46549300  0.75033100  1
  O  O3  1  0.70046600  0.96493900  0.75047400  1
  O  O4  1  0.96391300  0.06073600  0.74948700  1
  O  O5  1  0.96795900  0.56100100  0.75030900  1
  O  O6  1  0.03632900  0.43914200  0.25076800  1
  O  O7  1  0.03371700  0.93895000  0.25037600  1
  O  O8  1  0.51850200  0.08763900  0.74969600  1
  O  O9  1  0.52118700  0.58791100  0.74700600  1
  O  O10  1  0.48178600  0.41240700  0.25028900  1
  O  O11  1  0.47903700  0.91202900  0.25062600  1
  O  O12  1  0.14725500  0.21925900  0.75142600  1
  O  O13  1  0.15328900  0.71761400  0.75442600  1
  O  O14  1  0.85335600  0.28049000  0.24883400  1
  O  O15  1  0.84571600  0.78171900  0.24516400  1
  O  O16  1  0.44900800  0.21747600  0.25115200  1
  O  O17  1  0.44394700  0.71756200  0.25161200  1
  O  O18  1  0.55147900  0.28237500  0.74898700  1
  O  O19  1  0.55209500  0.78248000  0.74614700  1
  O  O20  1  0.84596700  0.16003700  0.06506200  1
  O  O21  1  0.84239600  0.66040900  0.06630600  1
  O  O22  1  0.84915200  0.16015000  0.43424300  1
  O  O23  1  0.84832600  0.66248300  0.43525700  1
  O  O24  1  0.15114300  0.33959400  0.56588700  1
  O  O25  1  0.14713600  0.83782800  0.56540200  1
  O  O26  1  0.15436100  0.33975600  0.93505000  1
  O  O27  1  0.15446100  0.83913900  0.93373100  1
loop_
_geom_bond_atom_site_label_1
_geom_bond_atom_site_label_2
_geom_bond_distance
_geom_bond_site_symmetry_2
Li0 O0 2.015612 1_555
Li0 O4 2.066055 1_455
Li0 O22 2.125742 1_455
Li0 O8 2.148891 1_555
Li1 O1 2.019468 1_555
Li1 O5 2.068399 1_455
Li1 O9 2.128201 1_555
Li1 O23 2.157817 1_455
Li2 O0 2.015196 1_556
Li2 O4 2.063491 1_455
Li2 O20 2.142518 1_456
Li2 O8 2.144364 1_555
Li3 O1 2.016074 1_556
Li3 O5 2.060663 1_455
Li3 O9 2.151850 1_555
Li3 O21 2.174055 1_456
Li4 O2 2.013537 1_555
Li4 O6 2.063477 1_655
Li4 O24 2.130071 1_655
Li4 O10 2.148942 1_555
Li5 O3 2.014615 1_555
Li5 O7 2.068582 1_655
Li5 O25 2.135391 1_655
Li5 O11 2.146821 1_555
Li6 O2 2.012598 1_554
Li6 O6 2.060229 1_655
Li6 O26 2.145628 1_654
Li6 O10 2.147733 1_555
Li7 O3 2.014003 1_554
Li7 O7 2.063424 1_655
Li7 O11 2.145830 1_555
Li7 O27 2.161014 1_654
Co0 O21 2.066688 1_556
Co0 O19 2.083071 1_555
Co0 O23 2.085118 1_555
Co0 O13 2.094121 1_655
Co0 O9 2.136464 1_555
Co0 O5 2.175732 1_555
Co1 O17 2.071257 1_555
Co1 O25 2.083022 1_555
Co1 O27 2.085690 1_554
Co1 O11 2.107566 1_555
Co1 O15 2.136313 1_455
Co1 O7 2.171660 1_555
Co2 O18 2.075316 1_555
Co2 O22 2.083300 1_555
Co2 O20 2.088266 1_556
Co2 O8 2.104758 1_555
Co2 O12 2.130758 1_655
Co2 O4 2.175578 1_555
Co3 O16 2.076800 1_555
Co3 O24 2.082997 1_555
Co3 O26 2.088132 1_554
Co3 O10 2.106140 1_555
Co3 O14 2.131138 1_455
Co3 O6 2.174940 1_555
C0 O3 1.275333 1_545
C0 O4 1.310083 1_555
C0 O8 1.320885 1_555
C1 O2 1.275056 1_555
C1 O5 1.312720 1_555
C1 O9 1.318822 1_555
C2 O1 1.275041 1_555
C2 O6 1.310350 1_555
C2 O10 1.321216 1_555
C3 O0 1.274865 1_565
C3 O7 1.310967 1_555
C3 O11 1.320313 1_555
O12 S2 1.482806 1_555
O13 S3 1.484913 1_555
O14 S0 1.481871 1_555
O15 S1 1.483888 1_555
O16 S0 1.495498 1_555
O17 S1 1.495361 1_555
O18 S2 1.495739 1_555
O19 S3 1.493593 1_555
O20 S0 1.490296 1_555
O21 S1 1.490210 1_555
O22 S0 1.491293 1_555
O23 S1 1.487936 1_555
O24 S2 1.490843 1_555
O25 S3 1.489642 1_555
O26 S2 1.489906 1_555
O27 S3 1.489505 1_555
