# generated using pymatgen
data_Li3V3P8O29
_symmetry_space_group_name_H-M   'P 1'
_cell_length_a   9.74115000
_cell_length_b   9.75304970
_cell_length_c   14.32080080
_cell_angle_alpha   90.36274774
_cell_angle_beta   89.91691773
_cell_angle_gamma   119.91522354
_symmetry_Int_Tables_number   1
_chemical_formula_structural   Li3V3P8O29
_chemical_formula_sum   'Li6 V6 P16 O58'
_cell_volume   1179.25961390
_cell_formula_units_Z   2
loop_
 _symmetry_equiv_pos_site_id
 _symmetry_equiv_pos_as_xyz
  1  'x, y, z'
loop_
 _atom_site_type_symbol
 _atom_site_label
 _atom_site_symmetry_multiplicity
 _atom_site_fract_x
 _atom_site_fract_y
 _atom_site_fract_z
 _atom_site_occupancy
  Li  Li0  1  0.08943000  0.32423100  0.44534400  1
  Li  Li1  1  0.69133900  0.92039100  0.93887600  1
  Li  Li2  1  0.09576600  0.77572900  0.94001800  1
  Li  Li3  1  0.22918100  0.90739600  0.44296100  1
  Li  Li4  1  0.77419800  0.68651500  0.05948200  1
  Li  Li5  1  0.93974900  0.95892100  0.49623800  1
  V  V0  1  0.56750200  0.00452400  0.74619700  1
  V  V1  1  0.43699900  0.00068000  0.25052500  1
  V  V2  1  0.00253400  0.43283000  0.24637900  1
  V  V3  1  0.99694700  0.56113200  0.74892900  1
  V  V4  1  0.43357400  0.43261600  0.75068300  1
  V  V5  1  0.55833600  0.56519600  0.25735600  1
  P  P0  1  0.23065200  0.31303700  0.15405600  1
  P  P1  1  0.08740500  0.31126700  0.65913100  1
  P  P2  1  0.69438300  0.77572400  0.66261600  1
  P  P3  1  0.33715700  0.67144300  0.86815200  1
  P  P4  1  0.32881200  0.66708600  0.36983600  1
  P  P5  1  0.68124200  0.90825200  0.15786900  1
  P  P6  1  0.78042500  0.08488800  0.33845000  1
  P  P7  1  0.09025900  0.77122200  0.15799000  1
  P  P8  1  0.91491100  0.22559500  0.84056900  1
  P  P9  1  0.22428300  0.91135700  0.65751300  1
  P  P10  1  0.31227200  0.08901000  0.83634700  1
  P  P11  1  0.66609700  0.33407600  0.63308000  1
  P  P12  1  0.66593500  0.33577100  0.13475700  1
  P  P13  1  0.30485100  0.22151000  0.33746200  1
  P  P14  1  0.91483500  0.69147700  0.33701800  1
  P  P15  1  0.77132200  0.68206700  0.84363700  1
  O  O0  1  0.20678200  0.21643200  0.41819800  1
  O  O1  1  0.25920800  0.34351500  0.66964400  1
  O  O2  1  0.99974800  0.22737600  0.92552000  1
  O  O3  1  0.08590300  0.34019100  0.17037800  1
  O  O4  1  0.38061600  0.47534400  0.18147900  1
  O  O5  1  0.34477400  0.52883200  0.82015500  1
  O  O6  1  0.53935700  0.61540500  0.67277000  1
  O  O7  1  0.76192700  0.75746900  0.93356600  1
  O  O8  1  0.66119700  0.74048600  0.16687000  1
  O  O9  1  0.18589500  0.51289100  0.32702100  1
  O  O10  1  0.08992800  0.47162200  0.67553100  1
  O  O11  1  0.48256100  0.67334400  0.32643700  1
  O  O12  1  0.34254200  0.67254000  0.97183400  1
  O  O13  1  0.32468100  0.66355700  0.47341800  1
  O  O14  1  0.48460500  0.82333000  0.82736500  1
  O  O15  1  0.10090200  0.61982500  0.17717900  1
  O  O16  1  0.18258200  0.66468700  0.82954700  1
  O  O17  1  0.65383400  0.91131500  0.67082100  1
  O  O18  1  0.79911000  0.01056700  0.24078700  1
  O  O19  1  0.79776700  0.00157000  0.41930700  1
  O  O20  1  0.74388000  0.97985200  0.06591000  1
  O  O21  1  0.51900500  0.89818800  0.18172200  1
  O  O22  1  0.32447500  0.81533000  0.32998700  1
  O  O23  1  0.74132900  0.08246900  0.83573900  1
  O  O24  1  0.38221500  0.91050200  0.67320500  1
  O  O25  1  0.08458900  0.74111100  0.67380400  1
  O  O26  1  0.99150400  0.20060700  0.74465700  1
  O  O27  1  0.01609000  0.23544400  0.56789800  1
  O  O28  1  0.00262700  0.79849600  0.41668000  1
  O  O29  1  0.91717500  0.26080600  0.33585900  1
  O  O30  1  0.61811500  0.07996300  0.32808300  1
  O  O31  1  0.25777200  0.91684000  0.16925400  1
  O  O32  1  0.67102300  0.18698200  0.67656500  1
  O  O33  1  0.47349200  0.09550300  0.81958000  1
  O  O34  1  0.22425100  0.99445300  0.91821600  1
  O  O35  1  0.21432200  0.97536400  0.56549500  1
  O  O36  1  0.21023400  0.01311100  0.74098100  1
  O  O37  1  0.34102100  0.08283100  0.33884200  1
  O  O38  1  0.81757900  0.34086000  0.18033600  1
  O  O39  1  0.90692300  0.37972600  0.82095300  1
  O  O40  1  0.52404600  0.18355100  0.18192300  1
  O  O41  1  0.66922100  0.33222900  0.03165200  1
  O  O42  1  0.67081700  0.33429900  0.52988300  1
  O  O43  1  0.51769900  0.33023600  0.67770800  1
  O  O44  1  0.92284700  0.53816100  0.32760800  1
  O  O45  1  0.81429100  0.48399900  0.67867100  1
  O  O46  1  0.34253400  0.26076000  0.83361700  1
  O  O47  1  0.21214300  0.19871500  0.24111400  1
  O  O48  1  0.23637400  0.24358500  0.06441000  1
  O  O49  1  0.46601500  0.38056800  0.32768500  1
  O  O50  1  0.66243600  0.48281400  0.17520400  1
  O  O51  1  0.62116200  0.52187500  0.82433400  1
  O  O52  1  0.91933900  0.66141600  0.84155900  1
  O  O53  1  0.00898800  0.76016700  0.06736200  1
  O  O54  1  0.98748700  0.78723800  0.24006800  1
  O  O55  1  0.73968900  0.65247300  0.33308400  1
  O  O56  1  0.79446200  0.79509400  0.58055200  1
  O  O57  1  0.79297700  0.79740100  0.75881800  1
loop_
_geom_bond_atom_site_label_1
_geom_bond_atom_site_label_2
_geom_bond_distance
_geom_bond_site_symmetry_2
Li0 O27 1.933669 1_555
Li0 O0 1.937938 1_555
Li0 O29 2.148628 1_455
Li0 O9 2.334561 1_555
Li1 O20 1.897669 1_556
Li1 O7 2.022766 1_555
Li1 O23 2.043806 1_565
Li1 O14 2.364425 1_555
Li2 O34 1.886488 1_555
Li2 O53 1.983539 1_556
Li2 O52 2.064145 1_455
Li2 O16 2.297576 1_555
Li3 O35 1.902601 1_555
Li3 O28 1.949233 1_555
Li3 O37 2.122755 1_565
Li3 O22 2.257016 1_555
Li4 O7 1.960537 1_554
Li4 O53 2.029949 1_655
Li4 O8 2.101572 1_555
Li4 O50 2.399533 1_555
Li5 O56 1.943667 1_555
Li5 O19 1.970714 1_565
Li5 O28 2.247801 1_655
O0 P13 1.483981 1_555
O1 P1 1.548388 1_555
O1 V4 1.872892 1_555
O2 P8 1.466840 1_555
O3 P0 1.575963 1_555
O3 V2 1.837748 1_555
O4 P0 1.575226 1_555
O4 V5 1.850926 1_555
O5 P3 1.582159 1_555
O5 V4 1.847698 1_555
O6 P2 1.547107 1_555
O6 V4 1.916901 1_555
O7 P15 1.504179 1_555
O8 P5 1.554322 1_555
O8 V5 1.980303 1_555
O9 P4 1.574244 1_555
O9 V2 1.933177 1_555
O10 P1 1.568034 1_555
O10 V3 1.860548 1_455
O11 P4 1.593638 1_555
O11 V5 1.843186 1_555
O12 P3 1.485594 1_555
O13 P4 1.484016 1_555
O14 P3 1.576351 1_555
O14 V0 1.930316 1_565
O15 P7 1.557072 1_555
O15 V2 1.871749 1_555
O16 P3 1.574874 1_555
O16 V3 1.947443 1_455
O17 P2 1.561264 1_555
O17 V0 1.856431 1_565
O18 P5 1.603202 1_545
O18 P6 1.622554 1_555
O19 P6 1.476173 1_555
O20 P5 1.475996 1_555
O21 P5 1.571000 1_555
O21 V1 1.841173 1_565
O22 P4 1.577758 1_555
O22 V1 1.952007 1_565
O23 P8 1.567577 1_555
O23 V0 1.949214 1_555
O24 P9 1.559227 1_555
O24 V0 1.879819 1_565
O25 P9 1.553529 1_555
O25 V3 1.869236 1_455
O26 P1 1.595441 1_655
O26 P8 1.636100 1_555
O27 P1 1.488110 1_555
O28 P14 1.489864 1_455
O29 P6 1.562246 1_555
O29 V2 1.944472 1_655
O30 P6 1.564935 1_555
O30 V1 1.891642 1_555
O31 P7 1.546625 1_555
O31 V1 1.908194 1_565
O32 P11 1.590060 1_555
O32 V0 1.845978 1_555
O33 P10 1.558184 1_555
O33 V0 1.877835 1_555
O34 P10 1.477270 1_565
O35 P9 1.485546 1_555
O36 P9 1.597621 1_545
O36 P10 1.630448 1_555
O37 P13 1.558715 1_555
O37 V1 1.961280 1_555
O38 P12 1.593692 1_555
O38 V2 1.824115 1_655
O39 P8 1.570606 1_555
O39 V3 1.853674 1_555
O40 P12 1.591841 1_555
O40 V1 1.837536 1_555
O41 P12 1.477405 1_555
O42 P11 1.478494 1_555
O43 P11 1.563058 1_555
O43 V4 1.887112 1_555
O44 P14 1.540776 1_555
O44 V2 1.946463 1_655
O45 P11 1.591695 1_555
O45 V3 1.845162 1_555
O46 P10 1.550036 1_555
O46 V4 1.883073 1_555
O47 P13 1.602576 1_555
O47 P0 1.626807 1_555
O48 P0 1.461685 1_555
O49 P13 1.569627 1_555
O49 V5 1.862989 1_555
O50 P12 1.559342 1_555
O50 V5 1.963476 1_555
O51 P15 1.540525 1_555
O51 V4 1.901765 1_555
O52 P15 1.552372 1_555
O52 V3 2.001508 1_555
O53 P7 1.496294 1_555
O54 P7 1.599530 1_655
O54 P14 1.629444 1_555
O55 P14 1.552865 1_555
O55 V5 1.874962 1_555
O56 P2 1.477507 1_555
O57 P15 1.601601 1_555
O57 P2 1.631794 1_555
