# generated using pymatgen
data_Na3CoPCO7
_symmetry_space_group_name_H-M   'P 1'
_cell_length_a   6.61589959
_cell_length_b   10.45280252
_cell_length_c   10.40549737
_cell_angle_alpha   118.49415027
_cell_angle_beta   89.88686226
_cell_angle_gamma   90.22568528
_symmetry_Int_Tables_number   1
_chemical_formula_structural   Na3CoPCO7
_chemical_formula_sum   'Na12 Co4 P4 C4 O28'
_cell_volume   632.41723899
_cell_formula_units_Z   4
loop_
 _symmetry_equiv_pos_site_id
 _symmetry_equiv_pos_as_xyz
  1  'x, y, z'
loop_
 _atom_site_type_symbol
 _atom_site_label
 _atom_site_symmetry_multiplicity
 _atom_site_fract_x
 _atom_site_fract_y
 _atom_site_fract_z
 _atom_site_occupancy
  Na  Na0  1  0.48687900  0.50549800  0.49996800  1
  Na  Na1  1  0.48629700  0.00575200  0.00224700  1
  Na  Na2  1  0.98444400  0.49722500  0.49996300  1
  Na  Na3  1  0.98425200  0.99897900  0.00271200  1
  Na  Na4  1  0.22516900  0.30133300  0.13836500  1
  Na  Na5  1  0.22304800  0.80059900  0.63829100  1
  Na  Na6  1  0.72043200  0.69644400  0.86372300  1
  Na  Na7  1  0.71919300  0.19725700  0.36475900  1
  Na  Na8  1  0.49073100  0.49168800  0.00041400  1
  Na  Na9  1  0.48812800  0.99183600  0.49758400  1
  Na  Na10  1  0.99110300  0.50022800  0.99739100  1
  Na  Na11  1  0.99225900  0.00674000  0.49899700  1
  Co  Co0  1  0.74719100  0.66327900  0.37008400  1
  Co  Co1  1  0.23415000  0.83080900  0.12157700  1
  Co  Co2  1  0.74653100  0.16140800  0.86859900  1
  Co  Co3  1  0.24331400  0.33906200  0.62868500  1
  P  P0  1  0.23881000  0.66454800  0.31653500  1
  P  P1  1  0.23820900  0.16297100  0.81660700  1
  P  P2  1  0.73747300  0.33627100  0.68235400  1
  P  P3  1  0.73585800  0.83544900  0.18160100  1
  C  C0  1  0.73726900  0.32895300  0.17228000  1
  C  C1  1  0.73595300  0.82935800  0.67243600  1
  C  C2  1  0.23818200  0.67030400  0.82912100  1
  C  C3  1  0.23983900  0.17453000  0.33060700  1
  O  O0  1  0.74199700  0.19269800  0.14191400  1
  O  O1  1  0.74137800  0.69276600  0.64097100  1
  O  O2  1  0.23497000  0.80898200  0.86797700  1
  O  O3  1  0.23993700  0.31281100  0.36712900  1
  O  O4  1  0.73210500  0.43095700  0.30947500  1
  O  O5  1  0.73043800  0.93054400  0.81004000  1
  O  O6  1  0.23275700  0.57404200  0.69034600  1
  O  O7  1  0.23793100  0.07699900  0.19225400  1
  O  O8  1  0.05061600  0.16058100  0.90903500  1
  O  O9  1  0.05105800  0.66336800  0.40955700  1
  O  O10  1  0.54946800  0.83986600  0.09080700  1
  O  O11  1  0.55083400  0.34198500  0.59197500  1
  O  O12  1  0.42523500  0.16791000  0.91047400  1
  O  O13  1  0.42533700  0.66814600  0.41029600  1
  O  O14  1  0.92423400  0.83100500  0.08683800  1
  O  O15  1  0.92486200  0.33357600  0.58908400  1
  O  O16  1  0.73815400  0.36259400  0.06797500  1
  O  O17  1  0.73652800  0.86404900  0.56890800  1
  O  O18  1  0.24786700  0.62987200  0.92844500  1
  O  O19  1  0.24240000  0.13613900  0.43160500  1
  O  O20  1  0.23721700  0.52813500  0.16547400  1
  O  O21  1  0.23831200  0.02683300  0.66556500  1
  O  O22  1  0.73977600  0.46994200  0.83505600  1
  O  O23  1  0.74088500  0.96986800  0.33354700  1
  O  O24  1  0.22924100  0.30595900  0.80436000  1
  O  O25  1  0.23334200  0.80738600  0.30388000  1
  O  O26  1  0.72853400  0.69106500  0.19107700  1
  O  O27  1  0.72827300  0.19140400  0.69103700  1
loop_
_geom_bond_atom_site_label_1
_geom_bond_atom_site_label_2
_geom_bond_distance
_geom_bond_site_symmetry_2
Na0 O13 2.333968 1_555
Na0 O11 2.363353 1_555
Na0 O4 2.385773 1_555
Na0 O6 2.430289 1_555
Na0 O3 2.441941 1_555
Na0 O1 2.462290 1_555
Na1 O12 2.345097 1_554
Na1 O10 2.358461 1_545
Na1 O5 2.392495 1_544
Na1 O7 2.399067 1_555
Na1 O0 2.463013 1_555
Na1 O2 2.487481 1_544
Na2 O15 2.334156 1_555
Na2 O9 2.376191 1_655
Na2 O6 2.398497 1_655
Na2 O4 2.426854 1_555
Na2 O3 2.440841 1_655
Na2 O1 2.464078 1_555
Na3 O14 2.338033 1_555
Na3 O8 2.357923 1_664
Na3 O7 2.416468 1_665
Na3 O0 2.446418 1_565
Na3 O5 2.446697 1_554
Na3 O2 2.453824 1_654
Na4 O20 2.250945 1_555
Na4 O3 2.327786 1_555
Na4 O8 2.416665 1_554
Na4 O12 2.483308 1_554
Na4 O7 2.660177 1_555
Na5 O21 2.245175 1_565
Na5 O2 2.350926 1_555
Na5 O9 2.399483 1_555
Na5 O13 2.490853 1_555
Na5 O6 2.670378 1_555
Na6 O22 2.244813 1_555
Na6 O1 2.303658 1_555
Na6 O10 2.394388 1_556
Na6 O14 2.463334 1_556
Na6 O5 2.758081 1_555
Na7 O23 2.245320 1_545
Na7 O0 2.301123 1_555
Na7 O11 2.389419 1_555
Na7 O15 2.480756 1_555
Na7 O4 2.764878 1_555
Na8 O20 2.297273 1_555
Na8 O22 2.312055 1_554
Na8 O16 2.433450 1_555
Na8 O18 2.506777 1_554
Na8 O26 2.606911 1_555
Na8 O24 2.670623 1_554
Na9 O21 2.303027 1_565
Na9 O23 2.319542 1_555
Na9 O17 2.450243 1_555
Na9 O19 2.530071 1_565
Na9 O25 2.627009 1_555
Na9 O27 2.628270 1_565
Na10 O22 2.283639 1_555
Na10 O20 2.305647 1_656
Na10 O18 2.478192 1_655
Na10 O16 2.528654 1_556
Na10 O24 2.600228 1_655
Na10 O26 2.690014 1_556
Na11 O23 2.291585 1_545
Na11 O21 2.315000 1_655
Na11 O19 2.437770 1_655
Na11 O17 2.574265 1_545
Na11 O25 2.642912 1_645
Na11 O27 2.664912 1_555
Co0 O26 2.021498 1_555
Co0 O9 2.052586 1_655
Co0 O17 2.132441 1_555
Co0 O13 2.165373 1_555
Co0 O4 2.200446 1_555
Co1 O25 2.025215 1_555
Co1 O14 2.082875 1_455
Co1 O18 2.105178 1_554
Co1 O10 2.118506 1_555
Co1 O7 2.314642 1_565
Co1 O2 2.537919 1_554
Co2 O27 2.020030 1_555
Co2 O8 2.057033 1_655
Co2 O16 2.137109 1_556
Co2 O12 2.163826 1_555
Co2 O5 2.191182 1_545
Co3 O24 2.018047 1_555
Co3 O11 2.072125 1_555
Co3 O19 2.134065 1_555
Co3 O15 2.142854 1_455
Co3 O6 2.224181 1_555
C0 O16 1.290647 1_555
C0 O0 1.303926 1_555
C0 O4 1.312926 1_555
C1 O17 1.290228 1_555
C1 O1 1.304355 1_555
C1 O5 1.313508 1_555
C2 O18 1.291553 1_555
C2 O2 1.306212 1_555
C2 O6 1.308631 1_555
C3 O19 1.291628 1_555
C3 O3 1.307500 1_555
C3 O7 1.308296 1_555
O8 P1 1.576037 1_555
O9 P0 1.576869 1_555
O10 P3 1.569074 1_555
O11 P2 1.572083 1_555
O12 P1 1.563283 1_555
O13 P0 1.563813 1_555
O14 P3 1.574665 1_555
O15 P2 1.564964 1_555
O20 P0 1.538010 1_555
O21 P1 1.536616 1_555
O22 P2 1.535856 1_555
O23 P3 1.534701 1_555
O24 P1 1.560810 1_555
O25 P0 1.560739 1_555
O26 P3 1.559231 1_555
O27 P2 1.560341 1_555
