# generated using pymatgen
data_VZnSiO5
_symmetry_space_group_name_H-M   'P 1'
_cell_length_a   5.20717883
_cell_length_b   5.55364379
_cell_length_c   12.88019845
_cell_angle_alpha   88.34183931
_cell_angle_beta   89.57450561
_cell_angle_gamma   78.79631073
_symmetry_Int_Tables_number   1
_chemical_formula_structural   VZnSiO5
_chemical_formula_sum   'V4 Zn4 Si4 O20'
_cell_volume   365.22799022
_cell_formula_units_Z   4
loop_
 _symmetry_equiv_pos_site_id
 _symmetry_equiv_pos_as_xyz
  1  'x, y, z'
loop_
 _atom_site_type_symbol
 _atom_site_label
 _atom_site_symmetry_multiplicity
 _atom_site_fract_x
 _atom_site_fract_y
 _atom_site_fract_z
 _atom_site_occupancy
  V  V0  1  0.24996500  0.25175600  0.74958500  1
  V  V1  1  0.99970400  0.50159100  0.49990600  1
  V  V2  1  0.74996300  0.75177400  0.24958600  1
  V  V3  1  0.49966300  0.00150300  0.99984900  1
  Zn  Zn0  1  0.36342100  0.52245100  0.13959800  1
  Zn  Zn1  1  0.86341800  0.02244500  0.63958000  1
  Zn  Zn2  1  0.13653400  0.98066600  0.35955800  1
  Zn  Zn3  1  0.63649800  0.48053900  0.85958700  1
  Si  Si0  1  0.93677500  0.23122900  0.12163700  1
  Si  Si1  1  0.43678900  0.73121800  0.62167400  1
  Si  Si2  1  0.56295400  0.27280900  0.37750200  1
  Si  Si3  1  0.06290800  0.77280000  0.87747900  1
  O  O0  1  0.64510800  0.28239400  0.06586600  1
  O  O1  1  0.14514100  0.78240200  0.56588700  1
  O  O2  1  0.85473600  0.22161700  0.43322200  1
  O  O3  1  0.35468600  0.72154100  0.93321300  1
  O  O4  1  0.95408100  0.01644400  0.21260500  1
  O  O5  1  0.45401900  0.51644000  0.71262700  1
  O  O6  1  0.54560600  0.48792600  0.28660600  1
  O  O7  1  0.04562900  0.98792700  0.78659000  1
  O  O8  1  0.49563900  0.01623000  0.33085100  1
  O  O9  1  0.99560700  0.51615300  0.83082300  1
  O  O10  1  0.00360300  0.48846800  0.16797200  1
  O  O11  1  0.50356100  0.98841100  0.66800400  1
  O  O12  1  0.33193200  0.34749600  0.46451200  1
  O  O13  1  0.83187300  0.84729800  0.96450400  1
  O  O14  1  0.16710600  0.15712500  0.03443700  1
  O  O15  1  0.66727000  0.65708600  0.53454200  1
  O  O16  1  0.96533200  0.68860600  0.36467300  1
  O  O17  1  0.46560700  0.18804700  0.86456100  1
  O  O18  1  0.53285300  0.81593800  0.13467000  1
  O  O19  1  0.03261600  0.31605500  0.63474700  1
loop_
_geom_bond_atom_site_label_1
_geom_bond_atom_site_label_2
_geom_bond_distance
_geom_bond_site_symmetry_2
O0 Si0 1.655320 1_555
O0 Zn0 2.030631 1_555
O0 V3 2.067743 1_554
O1 Si1 1.655320 1_555
O1 Zn1 2.030459 1_465
O1 V1 2.067148 1_455
O2 Si2 1.655563 1_555
O2 Zn2 2.033186 1_645
O2 V1 2.065966 1_555
O3 Si3 1.655616 1_555
O3 Zn3 2.033144 1_555
O3 V3 2.065662 1_565
O4 Si0 1.637909 1_555
O4 V2 2.018964 1_545
O4 Zn2 2.111000 1_645
O5 Si1 1.637780 1_555
O5 V0 2.018744 1_555
O5 Zn3 2.111127 1_555
O6 Si2 1.638533 1_555
O6 V2 2.016143 1_555
O6 Zn0 2.111169 1_555
O7 Si3 1.638539 1_555
O7 V0 2.015943 1_565
O7 Zn1 2.111252 1_465
O8 Si2 1.661676 1_555
O8 Zn2 1.949709 1_545
O8 V2 2.078226 1_545
O9 Si3 1.662016 1_655
O9 Zn3 1.949940 1_555
O9 V0 2.077937 1_655
O10 Si0 1.662473 1_455
O10 Zn0 1.950114 1_555
O10 V2 2.074990 1_455
O11 Si1 1.662106 1_555
O11 Zn1 1.950506 1_565
O11 V0 2.074783 1_565
O12 Si2 1.639558 1_555
O12 V1 1.835362 1_455
O13 Si3 1.639600 1_655
O13 V3 1.835299 1_565
O14 Si0 1.638376 1_455
O14 V3 1.836681 1_554
O15 Si1 1.638324 1_555
O15 V1 1.836084 1_555
O16 V2 1.849272 1_555
O16 V1 1.993092 1_555
O16 Zn2 1.996195 1_655
O17 V0 1.849095 1_555
O17 V3 1.992460 1_555
O17 Zn3 1.997363 1_555
O18 V2 1.853019 1_555
O18 V3 1.984719 1_564
O18 Zn0 1.997762 1_555
O19 V0 1.852976 1_555
O19 V1 1.984875 1_455
O19 Zn1 1.997641 1_455
