# generated using pymatgen
data_TlB3O5
_symmetry_space_group_name_H-M   'P 1'
_cell_length_a   6.66432072
_cell_length_b   6.66432072
_cell_length_c   9.12161709
_cell_angle_alpha   79.94825165
_cell_angle_beta   79.94825165
_cell_angle_gamma   83.24818017
_symmetry_Int_Tables_number   1
_chemical_formula_structural   TlB3O5
_chemical_formula_sum   'Tl4 B12 O20'
_cell_volume   391.19021956
_cell_formula_units_Z   4
loop_
 _symmetry_equiv_pos_site_id
 _symmetry_equiv_pos_as_xyz
  1  'x, y, z'
loop_
 _atom_site_type_symbol
 _atom_site_label
 _atom_site_symmetry_multiplicity
 _atom_site_fract_x
 _atom_site_fract_y
 _atom_site_fract_z
 _atom_site_occupancy
  Tl  Tl0  1  0.26806706  0.56833018  0.94034140  1
  Tl  Tl1  1  0.43166982  0.73193294  0.55965860  1
  Tl  Tl2  1  0.73193294  0.43166982  0.05965860  1
  Tl  Tl3  1  0.56833018  0.26806706  0.44034140  1
  B  B0  1  0.80944263  0.78961717  0.73466023  1
  B  B1  1  0.21038283  0.19055737  0.76533977  1
  B  B2  1  0.19055737  0.21038283  0.26533977  1
  B  B3  1  0.78961717  0.80944263  0.23466023  1
  B  B4  1  0.93010963  0.42752198  0.68035205  1
  B  B5  1  0.57247802  0.06989037  0.81964795  1
  B  B6  1  0.06989037  0.57247802  0.31964795  1
  B  B7  1  0.42752198  0.93010963  0.18035205  1
  B  B8  1  0.03520284  0.11170733  0.56643584  1
  B  B9  1  0.88829267  0.96479716  0.93356416  1
  B  B10  1  0.96479716  0.88829267  0.43356416  1
  B  B11  1  0.11170733  0.03520284  0.06643584  1
  O  O0  1  0.93282279  0.90893407  0.59866677  1
  O  O1  1  0.09106593  0.06717721  0.90133323  1
  O  O2  1  0.06717721  0.09106593  0.40133323  1
  O  O3  1  0.90893407  0.93282279  0.09866677  1
  O  O4  1  0.90320963  0.78358151  0.86810398  1
  O  O5  1  0.21641849  0.09679037  0.63189602  1
  O  O6  1  0.09679037  0.21641849  0.13189602  1
  O  O7  1  0.78358151  0.90320963  0.36810398  1
  O  O8  1  0.10197796  0.39764163  0.74759796  1
  O  O9  1  0.60235837  0.89802204  0.75240204  1
  O  O10  1  0.89802204  0.60235837  0.25240204  1
  O  O11  1  0.39764163  0.10197796  0.24759796  1
  O  O12  1  0.79006313  0.59159146  0.69688995  1
  O  O13  1  0.40840854  0.20993687  0.80311005  1
  O  O14  1  0.20993687  0.40840854  0.30311005  1
  O  O15  1  0.59159146  0.79006313  0.19688995  1
  O  O16  1  0.89370373  0.28542945  0.59727291  1
  O  O17  1  0.71457055  0.10629627  0.90272709  1
  O  O18  1  0.10629627  0.71457055  0.40272709  1
  O  O19  1  0.28542945  0.89370373  0.09727291  1
loop_
_geom_bond_atom_site_label_1
_geom_bond_atom_site_label_2
_geom_bond_distance
_geom_bond_site_symmetry_2
B0 O12 1.446143 1_555
B0 O4 1.454736 1_555
B0 O9 1.476867 1_555
B0 O0 1.516751 1_555
B1 O13 1.446143 1_555
B1 O5 1.454736 1_555
B1 O8 1.476867 1_555
B1 O1 1.516751 1_555
B2 O14 1.446143 1_555
B2 O6 1.454736 1_555
B2 O11 1.476867 1_555
B2 O2 1.516751 1_555
B3 O15 1.446143 1_555
B3 O7 1.454736 1_555
B3 O10 1.476867 1_555
B3 O3 1.516751 1_555
B4 O12 1.363032 1_555
B4 O8 1.369960 1_655
B4 O16 1.377886 1_555
B5 O13 1.363032 1_555
B5 O9 1.369960 1_545
B5 O17 1.377886 1_555
B6 O14 1.363032 1_555
B6 O10 1.369960 1_455
B6 O18 1.377886 1_555
B7 O15 1.363032 1_555
B7 O11 1.369960 1_565
B7 O19 1.377886 1_555
B8 O5 1.423964 1_555
B8 O16 1.439826 1_455
B8 O2 1.511878 1_555
B8 O0 1.544729 1_445
B9 O4 1.423964 1_555
B9 O17 1.439826 1_565
B9 O3 1.511878 1_556
B9 O1 1.544729 1_665
B10 O7 1.423964 1_555
B10 O18 1.439826 1_655
B10 O0 1.511878 1_555
B10 O2 1.544729 1_665
B11 O6 1.423964 1_555
B11 O19 1.439826 1_545
B11 O1 1.511878 1_554
B11 O3 1.544729 1_445
O4 Tl0 2.795257 1_655
O5 Tl1 2.795257 1_545
O6 Tl2 2.795257 1_455
O7 Tl3 2.795257 1_565
O8 Tl0 2.698822 1_555
O9 Tl1 2.698822 1_555
O10 Tl2 2.698822 1_555
O11 Tl3 2.698822 1_555
O16 Tl3 2.822191 1_555
O17 Tl2 2.822191 1_556
O18 Tl1 2.822191 1_555
O19 Tl0 2.822191 1_554
