# generated using pymatgen
data_Na5Fe3F14
_symmetry_space_group_name_H-M   'P 1'
_cell_length_a   7.72380000
_cell_length_b   7.72380000
_cell_length_c   10.28810700
_cell_angle_alpha   90.00000000
_cell_angle_beta   90.00000000
_cell_angle_gamma   90.00000000
_symmetry_Int_Tables_number   1
_chemical_formula_structural   Na5Fe3F14
_chemical_formula_sum   'Na10 Fe6 F28'
_cell_volume   613.75848860
_cell_formula_units_Z   2
loop_
 _symmetry_equiv_pos_site_id
 _symmetry_equiv_pos_as_xyz
  1  'x, y, z'
loop_
 _atom_site_type_symbol
 _atom_site_label
 _atom_site_symmetry_multiplicity
 _atom_site_fract_x
 _atom_site_fract_y
 _atom_site_fract_z
 _atom_site_occupancy
  Na  Na0  1  0.77314200  0.76307800  0.76040900  1
  Na  Na1  1  0.22685800  0.23692200  0.76040900  1
  Na  Na2  1  0.27314200  0.73692200  0.73959100  1
  Na  Na3  1  0.72685800  0.26307800  0.73959100  1
  Na  Na4  1  0.76307800  0.77314200  0.23959100  1
  Na  Na5  1  0.23692200  0.22685800  0.23959100  1
  Na  Na6  1  0.73692200  0.27314200  0.26040900  1
  Na  Na7  1  0.26307800  0.72685800  0.26040900  1
  Na  Na8  1  0.50000000  0.50000000  0.00000000  1
  Na  Na9  1  0.00000000  0.00000000  0.50000000  1
  Fe  Fe0  1  0.00000000  0.50000000  0.99746800  1
  Fe  Fe1  1  0.50000000  0.00000000  0.50253200  1
  Fe  Fe2  1  0.50000000  0.00000000  0.00253200  1
  Fe  Fe3  1  0.00000000  0.50000000  0.49746800  1
  Fe  Fe4  1  0.50000000  0.50000000  0.50000000  1
  Fe  Fe5  1  0.00000000  0.00000000  0.00000000  1
  F  F0  1  0.19068400  0.50196700  0.87056500  1
  F  F1  1  0.80931600  0.49803300  0.87056500  1
  F  F2  1  0.69068400  0.99803300  0.62943500  1
  F  F3  1  0.30931600  0.00196700  0.62943500  1
  F  F4  1  0.50196700  0.19068400  0.12943500  1
  F  F5  1  0.49803300  0.80931600  0.12943500  1
  F  F6  1  0.99803300  0.69068400  0.37056500  1
  F  F7  1  0.00196700  0.30931600  0.37056500  1
  F  F8  1  0.50500400  0.81586800  0.87209300  1
  F  F9  1  0.49499600  0.18413200  0.87209300  1
  F  F10  1  0.00500400  0.68413200  0.62790700  1
  F  F11  1  0.99499600  0.31586800  0.62790700  1
  F  F12  1  0.81586800  0.50500400  0.12790700  1
  F  F13  1  0.18413200  0.49499600  0.12790700  1
  F  F14  1  0.68413200  0.00500400  0.37209300  1
  F  F15  1  0.31586800  0.99499600  0.37209300  1
  F  F16  1  0.99725000  0.75069400  0.99040500  1
  F  F17  1  0.00275000  0.24930600  0.99040500  1
  F  F18  1  0.49725000  0.74930600  0.50959500  1
  F  F19  1  0.50275000  0.25069400  0.50959500  1
  F  F20  1  0.75069400  0.99725000  0.00959500  1
  F  F21  1  0.24930600  0.00275000  0.00959500  1
  F  F22  1  0.74930600  0.49725000  0.49040500  1
  F  F23  1  0.25069400  0.50275000  0.49040500  1
  F  F24  1  0.50000000  0.50000000  0.68663600  1
  F  F25  1  0.00000000  0.00000000  0.81336400  1
  F  F26  1  0.50000000  0.50000000  0.31336400  1
  F  F27  1  0.00000000  0.00000000  0.18663600  1
loop_
_geom_bond_atom_site_label_1
_geom_bond_atom_site_label_2
_geom_bond_distance
_geom_bond_site_symmetry_2
F0 Fe0 1.968237 1_555
F0 Na2 2.348322 1_555
F0 Na1 2.356537 1_555
F0 Na8 2.735192 1_556
F1 Fe0 1.968237 1_655
F1 Na3 2.348322 1_555
F1 Na0 2.356537 1_555
F1 Na8 2.735192 1_556
F2 Fe1 1.968237 1_565
F2 Na0 2.348322 1_555
F2 Na3 2.356537 1_565
F2 Na9 2.735192 1_665
F3 Fe1 1.968237 1_555
F3 Na1 2.348322 1_555
F3 Na2 2.356537 1_545
F3 Na9 2.735192 1_555
F4 Fe2 1.968237 1_555
F4 Na6 2.348322 1_555
F4 Na5 2.356537 1_555
F4 Na8 2.735192 1_555
F5 Fe2 1.968237 1_565
F5 Na7 2.348322 1_555
F5 Na4 2.356537 1_555
F5 Na8 2.735192 1_555
F6 Fe3 1.968237 1_655
F6 Na4 2.348322 1_555
F6 Na7 2.356537 1_655
F6 Na9 2.735192 1_665
F7 Fe3 1.968237 1_555
F7 Na5 2.348322 1_555
F7 Na6 2.356537 1_455
F7 Na9 2.735192 1_555
F8 Fe2 1.955768 1_566
F8 Na2 2.331797 1_555
F8 Na0 2.403272 1_555
F8 Na8 2.772234 1_556
F9 Fe2 1.955768 1_556
F9 Na3 2.331797 1_555
F9 Na1 2.403272 1_555
F9 Na8 2.772234 1_556
F10 Fe3 1.955768 1_555
F10 Na0 2.331797 1_455
F10 Na2 2.403272 1_555
F10 Na9 2.772234 1_565
F11 Fe3 1.955768 1_655
F11 Na1 2.331797 1_655
F11 Na3 2.403272 1_555
F11 Na9 2.772234 1_655
F12 Fe0 1.955768 1_654
F12 Na6 2.331797 1_555
F12 Na4 2.403272 1_555
F12 Na8 2.772234 1_555
F13 Fe0 1.955768 1_554
F13 Na7 2.331797 1_555
F13 Na5 2.403272 1_555
F13 Na8 2.772234 1_555
F14 Fe1 1.955768 1_555
F14 Na4 2.331797 1_545
F14 Na6 2.403272 1_555
F14 Na9 2.772234 1_655
F15 Fe1 1.955768 1_565
F15 Na5 2.331797 1_565
F15 Na7 2.403272 1_555
F15 Na9 2.772234 1_565
F16 Fe5 1.928235 1_666
F16 Fe0 1.937790 1_655
F17 Fe5 1.928235 1_556
F17 Fe0 1.937790 1_555
F18 Fe4 1.928235 1_555
F18 Fe1 1.937790 1_565
F19 Fe4 1.928235 1_555
F19 Fe1 1.937790 1_555
F20 Fe5 1.928235 1_665
F20 Fe2 1.937790 1_565
F21 Fe5 1.928235 1_555
F21 Fe2 1.937790 1_555
F22 Fe4 1.928235 1_555
F22 Fe3 1.937790 1_655
F23 Fe4 1.928235 1_555
F23 Fe3 1.937790 1_555
F24 Fe4 1.920131 1_555
F24 Na2 2.591469 1_555
F24 Na3 2.591469 1_555
F25 Fe5 1.920131 1_556
F25 Na1 2.591469 1_555
F25 Na0 2.591469 1_445
F26 Fe4 1.920131 1_555
F26 Na6 2.591469 1_555
F26 Na7 2.591469 1_555
F27 Fe5 1.920131 1_555
F27 Na5 2.591469 1_555
F27 Na4 2.591469 1_445
