# generated using pymatgen
data_Na2Zn3S4
_symmetry_space_group_name_H-M   'P 1'
_cell_length_a   6.85549500
_cell_length_b   7.76559000
_cell_length_c   14.13141600
_cell_angle_alpha   90.00000000
_cell_angle_beta   90.00000000
_cell_angle_gamma   90.00000000
_symmetry_Int_Tables_number   1
_chemical_formula_structural   Na2Zn3S4
_chemical_formula_sum   'Na8 Zn12 S16'
_cell_volume   752.31367662
_cell_formula_units_Z   4
loop_
 _symmetry_equiv_pos_site_id
 _symmetry_equiv_pos_as_xyz
  1  'x, y, z'
loop_
 _atom_site_type_symbol
 _atom_site_label
 _atom_site_symmetry_multiplicity
 _atom_site_fract_x
 _atom_site_fract_y
 _atom_site_fract_z
 _atom_site_occupancy
  Na  Na0  1  0.03728900  0.61525700  0.10101400  1
  Na  Na1  1  0.53728900  0.38474300  0.39898600  1
  Na  Na2  1  0.96271100  0.88474300  0.60101400  1
  Na  Na3  1  0.46271100  0.11525700  0.89898600  1
  Na  Na4  1  0.96271100  0.38474300  0.89898600  1
  Na  Na5  1  0.46271100  0.61525700  0.60101400  1
  Na  Na6  1  0.03728900  0.11525700  0.39898600  1
  Na  Na7  1  0.53728900  0.88474300  0.10101400  1
  Zn  Zn0  1  0.21543500  0.84216400  0.79804200  1
  Zn  Zn1  1  0.71543500  0.15783600  0.70195800  1
  Zn  Zn2  1  0.78456500  0.65783600  0.29804200  1
  Zn  Zn3  1  0.28456500  0.34216400  0.20195800  1
  Zn  Zn4  1  0.78456500  0.15783600  0.20195800  1
  Zn  Zn5  1  0.28456500  0.84216400  0.29804200  1
  Zn  Zn6  1  0.21543500  0.34216400  0.70195800  1
  Zn  Zn7  1  0.71543500  0.65783600  0.79804200  1
  Zn  Zn8  1  0.00000000  0.00000000  0.00000000  1
  Zn  Zn9  1  0.50000000  0.00000000  0.50000000  1
  Zn  Zn10  1  0.00000000  0.50000000  0.50000000  1
  Zn  Zn11  1  0.50000000  0.50000000  0.00000000  1
  S  S0  1  0.74608500  0.66590700  0.96460300  1
  S  S1  1  0.24608500  0.33409300  0.53539700  1
  S  S2  1  0.25391500  0.83409300  0.46460300  1
  S  S3  1  0.75391500  0.16590700  0.03539700  1
  S  S4  1  0.25391500  0.33409300  0.03539700  1
  S  S5  1  0.75391500  0.66590700  0.46460300  1
  S  S6  1  0.74608500  0.16590700  0.53539700  1
  S  S7  1  0.24608500  0.83409300  0.96460300  1
  S  S8  1  0.96404700  0.88396400  0.23114400  1
  S  S9  1  0.46404700  0.11603600  0.26885600  1
  S  S10  1  0.03595300  0.61603600  0.73114400  1
  S  S11  1  0.53595300  0.38396400  0.76885600  1
  S  S12  1  0.03595300  0.11603600  0.76885600  1
  S  S13  1  0.53595300  0.88396400  0.73114400  1
  S  S14  1  0.96404700  0.38396400  0.26885600  1
  S  S15  1  0.46404700  0.61603600  0.23114400  1
loop_
_geom_bond_atom_site_label_1
_geom_bond_atom_site_label_2
_geom_bond_distance
_geom_bond_site_symmetry_2
Na0 S4 2.798665 1_555
Na0 S0 2.802867 1_454
Na0 S8 2.826293 1_455
Na0 S7 2.941562 1_554
Na0 S14 3.017256 1_455
Na1 S5 2.798665 1_555
Na1 S1 2.802867 1_555
Na1 S9 2.826293 1_555
Na1 S6 2.941562 1_555
Na1 S15 3.017256 1_555
Na2 S6 2.798665 1_565
Na2 S2 2.802867 1_655
Na2 S10 2.826293 1_655
Na2 S5 2.941562 1_555
Na2 S12 3.017256 1_665
Na3 S7 2.798665 1_545
Na3 S3 2.802867 1_556
Na3 S11 2.826293 1_555
Na3 S4 2.941562 1_556
Na3 S13 3.017256 1_545
Na4 S0 2.798665 1_555
Na4 S4 2.802867 1_656
Na4 S12 2.826293 1_655
Na4 S3 2.941562 1_556
Na4 S10 3.017256 1_655
Na5 S1 2.798665 1_555
Na5 S5 2.802867 1_555
Na5 S13 2.826293 1_555
Na5 S2 2.941562 1_555
Na5 S11 3.017256 1_555
Na6 S2 2.798665 1_545
Na6 S6 2.802867 1_455
Na6 S14 2.826293 1_455
Na6 S1 2.941562 1_555
Na6 S8 3.017256 1_445
Na7 S3 2.798665 1_565
Na7 S7 2.802867 1_554
Na7 S15 2.826293 1_555
Na7 S0 2.941562 1_554
Na7 S9 3.017256 1_565
S0 Zn11 2.180867 1_556
S0 Zn7 2.363934 1_555
S1 Zn10 2.180867 1_555
S1 Zn6 2.363934 1_555
S2 Zn9 2.180867 1_565
S2 Zn5 2.363934 1_555
S3 Zn8 2.180867 1_655
S3 Zn4 2.363934 1_555
S4 Zn11 2.180867 1_555
S4 Zn3 2.363934 1_555
S5 Zn10 2.180867 1_655
S5 Zn2 2.363934 1_555
S6 Zn9 2.180867 1_555
S6 Zn1 2.363934 1_555
S7 Zn8 2.180867 1_566
S7 Zn0 2.363934 1_555
S8 Zn2 2.343349 1_555
S8 Zn5 2.413969 1_655
S8 Zn4 2.491439 1_565
S9 Zn3 2.343349 1_555
S9 Zn4 2.413969 1_555
S9 Zn5 2.491439 1_545
S10 Zn0 2.343349 1_555
S10 Zn7 2.413969 1_455
S10 Zn6 2.491439 1_555
S11 Zn1 2.343349 1_555
S11 Zn6 2.413969 1_555
S11 Zn7 2.491439 1_555
S12 Zn6 2.343349 1_555
S12 Zn1 2.413969 1_455
S12 Zn0 2.491439 1_545
S13 Zn7 2.343349 1_555
S13 Zn0 2.413969 1_555
S13 Zn1 2.491439 1_565
S14 Zn4 2.343349 1_555
S14 Zn3 2.413969 1_655
S14 Zn2 2.491439 1_555
S15 Zn5 2.343349 1_555
S15 Zn2 2.413969 1_555
S15 Zn3 2.491439 1_555
