# generated using pymatgen
data_PrSi3N5
_symmetry_space_group_name_H-M   'P 1'
_cell_length_a   4.79041563
_cell_length_b   7.83646897
_cell_length_c   11.23994571
_cell_angle_alpha   90.00000000
_cell_angle_beta   90.00000000
_cell_angle_gamma   90.00000000
_symmetry_Int_Tables_number   1
_chemical_formula_structural   PrSi3N5
_chemical_formula_sum   'Pr4 Si12 N20'
_cell_volume   421.94692620
_cell_formula_units_Z   4
loop_
 _symmetry_equiv_pos_site_id
 _symmetry_equiv_pos_as_xyz
  1  'x, y, z'
loop_
 _atom_site_type_symbol
 _atom_site_label
 _atom_site_symmetry_multiplicity
 _atom_site_fract_x
 _atom_site_fract_y
 _atom_site_fract_z
 _atom_site_occupancy
  Pr  Pr0  1  0.50580374  0.06117249  0.16995023  1
  Pr  Pr1  1  0.99419626  0.93882751  0.66995023  1
  Pr  Pr2  1  0.49419626  0.56117249  0.33004977  1
  Pr  Pr3  1  0.00580374  0.43882751  0.83004977  1
  Si  Si0  1  0.01588235  0.20692466  0.41683718  1
  Si  Si1  1  0.48411765  0.79307534  0.91683718  1
  Si  Si2  1  0.98411765  0.70692466  0.08316282  1
  Si  Si3  1  0.51588235  0.29307534  0.58316282  1
  Si  Si4  1  0.52426844  0.46716530  0.04109287  1
  Si  Si5  1  0.97573156  0.53283470  0.54109287  1
  Si  Si6  1  0.47573156  0.96716530  0.45890713  1
  Si  Si7  1  0.02426844  0.03283470  0.95890713  1
  Si  Si8  1  0.01478434  0.33795241  0.16093845  1
  Si  Si9  1  0.48521566  0.66204759  0.66093845  1
  Si  Si10  1  0.98521566  0.83795241  0.33906155  1
  Si  Si11  1  0.51478434  0.16204759  0.83906155  1
  N  N0  1  0.16660041  0.29275037  0.29484209  1
  N  N1  1  0.33339959  0.70724963  0.79484209  1
  N  N2  1  0.83339959  0.79275037  0.20515791  1
  N  N3  1  0.66660041  0.20724963  0.70515791  1
  N  N4  1  0.18553283  0.51863119  0.09351336  1
  N  N5  1  0.31446717  0.48136881  0.59351336  1
  N  N6  1  0.81446717  0.01863119  0.40648664  1
  N  N7  1  0.68553283  0.98136881  0.90648664  1
  N  N8  1  0.67152061  0.38887874  0.16758347  1
  N  N9  1  0.82847939  0.61112126  0.66758347  1
  N  N10  1  0.32847939  0.88887874  0.33241653  1
  N  N11  1  0.17152061  0.11112126  0.83241653  1
  N  N12  1  0.04377147  0.15802352  0.07934216  1
  N  N13  1  0.45622853  0.84197648  0.57934216  1
  N  N14  1  0.95622853  0.65802352  0.42065784  1
  N  N15  1  0.54377147  0.34197648  0.92065784  1
  N  N16  1  0.29499711  0.14960799  0.51070305  1
  N  N17  1  0.20500289  0.85039201  0.01070305  1
  N  N18  1  0.70500289  0.64960799  0.98929695  1
  N  N19  1  0.79499711  0.35039201  0.48929695  1
loop_
_geom_bond_atom_site_label_1
_geom_bond_atom_site_label_2
_geom_bond_distance
_geom_bond_site_symmetry_2
N0 Si0 1.689342 1_555
N0 Si8 1.708689 1_555
N0 Pr2 2.654054 1_555
N0 Pr0 2.811459 1_555
N1 Si1 1.689342 1_555
N1 Si9 1.708689 1_555
N1 Pr3 2.654054 1_555
N1 Pr1 2.811459 1_455
N2 Si2 1.689342 1_555
N2 Si10 1.708689 1_555
N2 Pr0 2.654054 1_565
N2 Pr2 2.811459 1_555
N3 Si3 1.689342 1_555
N3 Si11 1.708689 1_555
N3 Pr1 2.654054 1_545
N3 Pr3 2.811459 1_655
N4 Si2 1.766850 1_455
N4 Si4 1.772830 1_555
N4 Si8 1.802255 1_555
N4 Pr2 3.060380 1_555
N4 Pr3 3.146709 1_554
N5 Si3 1.766850 1_555
N5 Si5 1.772830 1_455
N5 Si9 1.802255 1_555
N5 Pr3 3.060380 1_555
N5 Pr2 3.146709 1_555
N6 Si0 1.766850 1_655
N6 Si6 1.772830 1_545
N6 Si10 1.802255 1_545
N6 Pr0 3.060380 1_555
N6 Pr1 3.146709 1_545
N7 Si1 1.766850 1_555
N7 Si7 1.772830 1_665
N7 Si11 1.802255 1_565
N7 Pr1 3.060380 1_555
N7 Pr0 3.146709 1_566
N8 Si8 1.693758 1_655
N8 Si4 1.701565 1_555
N8 Pr2 2.424714 1_555
N8 Pr0 2.688092 1_555
N9 Si9 1.693758 1_555
N9 Si5 1.701565 1_555
N9 Pr3 2.424714 1_655
N9 Pr1 2.688092 1_555
N10 Si10 1.693758 1_455
N10 Si6 1.701565 1_555
N10 Pr0 2.424714 1_565
N10 Pr2 2.688092 1_555
N11 Si11 1.693758 1_555
N11 Si7 1.701565 1_555
N11 Pr1 2.424714 1_445
N11 Pr3 2.688092 1_555
N12 Si7 1.674402 1_554
N12 Si8 1.687763 1_555
N12 Pr0 2.551872 1_555
N12 Pr0 2.873086 1_455
N13 Si6 1.674402 1_555
N13 Si9 1.687763 1_555
N13 Pr1 2.551872 1_455
N13 Pr1 2.873086 1_555
N14 Si5 1.674402 1_555
N14 Si10 1.687763 1_555
N14 Pr2 2.551872 1_555
N14 Pr2 2.873086 1_655
N15 Si4 1.674402 1_556
N15 Si11 1.687763 1_555
N15 Pr3 2.551872 1_655
N15 Pr3 2.873086 1_555
N16 Si3 1.745555 1_555
N16 Si0 1.761432 1_555
N16 Si6 1.769914 1_545
N16 Pr1 2.829943 1_445
N17 Si2 1.745555 1_455
N17 Si1 1.761432 1_554
N17 Si7 1.769914 1_564
N17 Pr0 2.829943 1_565
N18 Si1 1.745555 1_555
N18 Si2 1.761432 1_556
N18 Si4 1.769914 1_556
N18 Pr3 2.829943 1_655
N19 Si0 1.745555 1_655
N19 Si3 1.761432 1_555
N19 Si5 1.769914 1_555
N19 Pr2 2.829943 1_555
