# generated using pymatgen
data_CaNdMn2O6
_symmetry_space_group_name_H-M   'P 1'
_cell_length_a   5.45427100
_cell_length_b   5.52702800
_cell_length_c   7.69558500
_cell_angle_alpha   90.00000000
_cell_angle_beta   90.00000000
_cell_angle_gamma   90.00000000
_symmetry_Int_Tables_number   1
_chemical_formula_structural   CaNdMn2O6
_chemical_formula_sum   'Ca2 Nd2 Mn4 O12'
_cell_volume   231.99040155
_cell_formula_units_Z   2
loop_
 _symmetry_equiv_pos_site_id
 _symmetry_equiv_pos_as_xyz
  1  'x, y, z'
loop_
 _atom_site_type_symbol
 _atom_site_label
 _atom_site_symmetry_multiplicity
 _atom_site_fract_x
 _atom_site_fract_y
 _atom_site_fract_z
 _atom_site_occupancy
  Ca  Ca0  1  0.50659600  0.29255100  0.50000000  1
  Ca  Ca1  1  0.00659600  0.70744900  0.00000000  1
  Nd  Nd0  1  0.98981300  0.79430700  0.50000000  1
  Nd  Nd1  1  0.48981300  0.20569300  0.00000000  1
  Mn  Mn0  1  0.99967400  0.25207500  0.74982500  1
  Mn  Mn1  1  0.49967400  0.74792500  0.24982500  1
  Mn  Mn2  1  0.99967400  0.25207500  0.25017500  1
  Mn  Mn3  1  0.49967400  0.74792500  0.75017500  1
  O  O0  1  0.42316600  0.73128800  0.50000000  1
  O  O1  1  0.07713000  0.23065100  0.50000000  1
  O  O2  1  0.57713000  0.76934900  0.00000000  1
  O  O3  1  0.92316600  0.26871200  0.00000000  1
  O  O4  1  0.79104400  0.54135300  0.71130900  1
  O  O5  1  0.71093000  0.03911800  0.29181900  1
  O  O6  1  0.21093000  0.96088200  0.20818100  1
  O  O7  1  0.29104400  0.45864700  0.78869100  1
  O  O8  1  0.21093000  0.96088200  0.79181900  1
  O  O9  1  0.29104400  0.45864700  0.21130900  1
  O  O10  1  0.79104400  0.54135300  0.28869100  1
  O  O11  1  0.71093000  0.03911800  0.70818100  1
loop_
_geom_bond_atom_site_label_1
_geom_bond_atom_site_label_2
_geom_bond_distance
_geom_bond_site_symmetry_2
Ca0 O1 2.367277 1_555
Ca0 O11 2.402246 1_555
Ca0 O5 2.402246 1_555
Ca0 O0 2.467239 1_555
Ca0 O10 2.634837 1_555
Ca0 O4 2.634837 1_555
Ca0 O7 2.675946 1_555
Ca0 O9 2.675946 1_555
Ca1 O2 2.367277 1_455
Ca1 O8 2.402246 1_554
Ca1 O6 2.402246 1_555
Ca1 O3 2.467239 1_455
Ca1 O7 2.634837 1_554
Ca1 O9 2.634837 1_555
Ca1 O10 2.675946 1_455
Ca1 O4 2.675946 1_454
Nd0 O0 2.389150 1_655
Nd0 O4 2.402988 1_555
Nd0 O10 2.402988 1_555
Nd0 O1 2.458260 1_665
Nd0 O11 2.590602 1_565
Nd0 O5 2.590602 1_565
Nd0 O6 2.710237 1_655
Nd0 O8 2.710237 1_655
Nd1 O3 2.389150 1_555
Nd1 O7 2.402988 1_554
Nd1 O9 2.402988 1_555
Nd1 O2 2.458260 1_545
Nd1 O8 2.590602 1_544
Nd1 O6 2.590602 1_545
Nd1 O5 2.710237 1_555
Nd1 O11 2.710237 1_554
Mn0 O1 1.971978 1_655
Mn0 O3 1.972093 1_556
Mn0 O7 1.979544 1_655
Mn0 O4 1.984702 1_555
Mn0 O11 1.992072 1_555
Mn0 O8 2.005588 1_645
Mn1 O2 1.971978 1_555
Mn1 O0 1.972093 1_555
Mn1 O10 1.979544 1_555
Mn1 O9 1.984702 1_555
Mn1 O6 1.992072 1_555
Mn1 O5 2.005588 1_565
Mn2 O1 1.971978 1_655
Mn2 O3 1.972093 1_555
Mn2 O9 1.979544 1_655
Mn2 O10 1.984702 1_555
Mn2 O5 1.992072 1_555
Mn2 O6 2.005588 1_645
Mn3 O2 1.971978 1_556
Mn3 O0 1.972093 1_555
Mn3 O4 1.979544 1_555
Mn3 O7 1.984702 1_555
Mn3 O8 1.992072 1_555
Mn3 O11 2.005588 1_565
