# generated using pymatgen
data_VReO4
_symmetry_space_group_name_H-M   'P 1'
_cell_length_a   5.59697299
_cell_length_b   6.80402911
_cell_length_c   7.16564589
_cell_angle_alpha   90.00017184
_cell_angle_beta   67.07832596
_cell_angle_gamma   89.99997268
_symmetry_Int_Tables_number   1
_chemical_formula_structural   VReO4
_chemical_formula_sum   'V4 Re4 O16'
_cell_volume   251.33462982
_cell_formula_units_Z   4
loop_
 _symmetry_equiv_pos_site_id
 _symmetry_equiv_pos_as_xyz
  1  'x, y, z'
loop_
 _atom_site_type_symbol
 _atom_site_label
 _atom_site_symmetry_multiplicity
 _atom_site_fract_x
 _atom_site_fract_y
 _atom_site_fract_z
 _atom_site_occupancy
  V  V0  1  0.00353385  0.00000439  0.49257242  1
  V  V1  1  0.74647388  0.49999655  0.00740520  1
  V  V2  1  0.25404514  0.49999703  0.99336963  1
  V  V3  1  0.49595220  0.00000429  0.50664312  1
  Re  Re0  1  0.77625201  0.50000070  0.50001891  1
  Re  Re1  1  0.52555872  -0.00000153  -0.00038142  1
  Re  Re2  1  0.22446466  0.50000276  0.50038362  1
  Re  Re3  1  0.97371958  -0.00000154  -0.00001994  1
  O  O0  1  0.25042270  0.80551594  0.99901702  1
  O  O1  1  0.00132163  0.27633578  0.49796419  1
  O  O2  1  0.74867543  0.77634513  0.00202527  1
  O  O3  1  0.49959012  0.30554962  0.50098172  1
  O  O4  1  0.25041961  0.19448418  0.99902313  1
  O  O5  1  0.00131804  0.72366112  0.49797015  1
  O  O6  1  0.74867200  0.22365777  0.00203124  1
  O  O7  1  0.49958886  0.69444719  0.50098600  1
  O  O8  1  0.60787005  0.49999688  0.79207095  1
  O  O9  1  0.36164395  0.99999822  0.29195822  1
  O  O10  1  0.09774665  0.49999699  0.79238472  1
  O  O11  1  0.84519237  -0.00000122  0.29233289  1
  O  O12  1  0.38838906  0.50000208  0.20798988  1
  O  O13  1  0.14210516  0.00000330  0.70797936  1
  O  O14  1  0.90482252  0.50000110  0.20762150  1
  O  O15  1  0.65222281  0.00000325  0.70767121  1
loop_
_geom_bond_atom_site_label_1
_geom_bond_atom_site_label_2
_geom_bond_distance
_geom_bond_site_symmetry_2
O0 Re1 2.031650 1_566
O0 Re3 2.034999 1_466
O0 V2 2.079098 1_555
O1 V0 1.880505 1_555
O1 Re0 1.971948 1_455
O1 Re2 1.973061 1_555
O2 V1 1.880621 1_555
O2 Re3 1.971814 1_565
O2 Re1 1.972872 1_565
O3 Re2 2.031467 1_555
O3 Re0 2.034686 1_555
O3 V3 2.079280 1_555
O4 Re1 2.031663 1_556
O4 Re3 2.035014 1_456
O4 V2 2.079058 1_555
O5 V0 1.880587 1_565
O5 Re0 1.971923 1_455
O5 Re2 1.973017 1_555
O6 V1 1.880553 1_555
O6 Re3 1.971846 1_555
O6 Re1 1.972902 1_555
O7 Re2 2.031433 1_555
O7 Re0 2.034661 1_555
O7 V3 2.079360 1_565
O8 Re0 1.931698 1_555
O8 V2 1.943534 1_555
O8 V1 1.978658 1_556
O9 Re1 1.932064 1_565
O9 V3 1.957652 1_565
O9 V0 1.959458 1_565
O10 Re2 1.930054 1_555
O10 V2 1.954682 1_555
O10 V1 1.969707 1_456
O11 Re3 1.931894 1_555
O11 V0 1.958240 1_655
O11 V3 1.959818 1_555
O12 Re2 1.932415 1_555
O12 V2 1.957357 1_554
O12 V1 1.959283 1_555
O13 Re3 1.931371 1_456
O13 V3 1.943717 1_555
O13 V0 1.979017 1_555
O14 Re0 1.932182 1_555
O14 V1 1.958118 1_555
O14 V2 1.959585 1_654
O15 Re1 1.929709 1_556
O15 V3 1.954849 1_555
O15 V0 1.970076 1_655
