# generated using pymatgen
data_Mo4H2N2O13
_symmetry_space_group_name_H-M   'P 1'
_cell_length_a   8.19469000
_cell_length_b   9.79407054
_cell_length_c   9.84394901
_cell_angle_alpha   65.56385816
_cell_angle_beta   71.15217731
_cell_angle_gamma   78.02753252
_symmetry_Int_Tables_number   1
_chemical_formula_structural   Mo4H2N2O13
_chemical_formula_sum   'Mo8 H4 N4 O26'
_cell_volume   678.22657237
_cell_formula_units_Z   2
loop_
 _symmetry_equiv_pos_site_id
 _symmetry_equiv_pos_as_xyz
  1  'x, y, z'
loop_
 _atom_site_type_symbol
 _atom_site_label
 _atom_site_symmetry_multiplicity
 _atom_site_fract_x
 _atom_site_fract_y
 _atom_site_fract_z
 _atom_site_occupancy
  Mo  Mo0  1  0.77370900  0.71828200  0.39270600  1
  Mo  Mo1  1  0.22629100  0.28171800  0.60729400  1
  Mo  Mo2  1  0.84434700  0.91190700  0.99280800  1
  Mo  Mo3  1  0.15565300  0.08809300  0.00719200  1
  Mo  Mo4  1  0.18409100  0.70718000  0.15511400  1
  Mo  Mo5  1  0.81590900  0.29282000  0.84488600  1
  Mo  Mo6  1  0.25127600  0.88798100  0.78005100  1
  Mo  Mo7  1  0.74872400  0.11201900  0.21994900  1
  H  H0  1  0.05657600  0.40125800  0.40267300  1
  H  H1  1  0.94342400  0.59874200  0.59732700  1
  H  H2  1  0.74717400  0.81091600  0.83551300  1
  H  H3  1  0.25282600  0.18908400  0.16448700  1
  N  N0  1  0.18006200  0.89180500  0.46942800  1
  N  N1  1  0.81993800  0.10819500  0.53057200  1
  N  N2  1  0.63627700  0.53161200  0.16764500  1
  N  N3  1  0.36372300  0.46838800  0.83235500  1
  O  O0  1  0.38101900  0.40430400  0.50391700  1
  O  O1  1  0.61898100  0.59569600  0.49608300  1
  O  O2  1  0.05073400  0.77696300  0.93538200  1
  O  O3  1  0.94926600  0.22303700  0.06461800  1
  O  O4  1  0.27926900  0.71180100  0.28476600  1
  O  O5  1  0.72073100  0.28819900  0.71523400  1
  O  O6  1  0.29677800  0.56254800  0.09803200  1
  O  O7  1  0.70322200  0.43745200  0.90196800  1
  O  O8  1  0.29580000  0.89154200  0.96858800  1
  O  O9  1  0.70420000  0.10845800  0.03141200  1
  O  O10  1  0.11537500  0.89357100  0.59400900  1
  O  O11  1  0.88462500  0.10642900  0.40599100  1
  O  O12  1  0.72238400  0.78667600  0.17573600  1
  O  O13  1  0.27761600  0.21332400  0.82426400  1
  O  O14  1  0.72992100  0.90527300  0.85231900  1
  O  O15  1  0.27007900  0.09472700  0.14768100  1
  O  O16  1  0.97210700  0.61068300  0.29524200  1
  O  O17  1  0.02789300  0.38931700  0.70475800  1
  O  O18  1  0.01348000  0.07579700  0.85111800  1
  O  O19  1  0.98652000  0.92420300  0.14888200  1
  O  O20  1  0.42218400  0.77269900  0.72546000  1
  O  O21  1  0.57781600  0.22730100  0.27454000  1
  O  O22  1  0.10942100  0.30192900  0.45908600  1
  O  O23  1  0.89057900  0.69807100  0.54091400  1
  O  O24  1  0.67509300  0.91183100  0.37817500  1
  O  O25  1  0.32490700  0.08816900  0.62182500  1
loop_
_geom_bond_atom_site_label_1
_geom_bond_atom_site_label_2
_geom_bond_distance
_geom_bond_site_symmetry_2
Mo0 O1 1.694638 1_555
Mo0 O24 1.865941 1_555
Mo0 O23 1.915759 1_555
Mo0 O16 1.947352 1_555
Mo0 O12 2.113586 1_555
Mo0 O19 2.760330 1_555
Mo1 O0 1.694638 1_555
Mo1 O25 1.865941 1_555
Mo1 O22 1.915759 1_555
Mo1 O17 1.947352 1_555
Mo1 O13 2.113586 1_555
Mo1 O18 2.760330 1_555
Mo2 O12 1.806740 1_556
Mo2 O14 1.932243 1_555
Mo2 O2 1.999943 1_655
Mo2 O18 2.065079 1_665
Mo2 O9 2.138963 1_566
Mo2 O19 2.258357 1_556
Mo3 O13 1.806740 1_554
Mo3 O15 1.932243 1_555
Mo3 O3 1.999943 1_455
Mo3 O19 2.065079 1_445
Mo3 O8 2.138963 1_544
Mo3 O18 2.258357 1_554
Mo4 O4 1.716069 1_555
Mo4 O6 1.719198 1_555
Mo4 O16 1.966711 1_455
Mo4 O8 2.080031 1_554
Mo4 O19 2.381489 1_455
Mo4 O2 2.516815 1_554
Mo5 O5 1.716069 1_555
Mo5 O7 1.719198 1_555
Mo5 O17 1.966711 1_655
Mo5 O9 2.080031 1_556
Mo5 O18 2.381489 1_655
Mo5 O3 2.516815 1_556
Mo6 O20 1.698462 1_555
Mo6 O2 1.990786 1_555
Mo6 O25 1.997805 1_565
Mo6 O8 2.018723 1_555
Mo6 O10 2.409722 1_555
Mo6 O18 2.523317 1_565
Mo7 O21 1.698462 1_555
Mo7 O3 1.990786 1_555
Mo7 O24 1.997805 1_545
Mo7 O9 2.018723 1_555
Mo7 O11 2.409722 1_555
Mo7 O19 2.523317 1_545
H0 O22 0.987901 1_555
H1 O23 0.987901 1_555
H2 O14 0.979063 1_555
H3 O15 0.979063 1_555
N0 O10 1.174305 1_555
N1 O11 1.174305 1_555
