# generated using pymatgen
data_Li9Mn2Co5O16
_symmetry_space_group_name_H-M   'P 1'
_cell_length_a   2.87141100
_cell_length_b   19.54445963
_cell_length_c   5.14065898
_cell_angle_alpha   92.66715485
_cell_angle_beta   90.00000000
_cell_angle_gamma   85.78734844
_symmetry_Int_Tables_number   1
_chemical_formula_structural   Li9Mn2Co5O16
_chemical_formula_sum   'Li9 Mn2 Co5 O16'
_cell_volume   287.40188768
_cell_formula_units_Z   1
loop_
 _symmetry_equiv_pos_site_id
 _symmetry_equiv_pos_as_xyz
  1  'x, y, z'
loop_
 _atom_site_type_symbol
 _atom_site_label
 _atom_site_symmetry_multiplicity
 _atom_site_fract_x
 _atom_site_fract_y
 _atom_site_fract_z
 _atom_site_occupancy
  Li  Li0  1  0.43058500  0.13883000  0.21353600  1
  Li  Li1  1  0.31530000  0.36939900  0.54165400  1
  Li  Li2  1  0.18843200  0.62313600  0.93626600  1
  Li  Li3  1  0.06466000  0.87067900  0.30923600  1
  Li  Li4  1  0.93374500  0.13251000  0.69911100  1
  Li  Li5  1  0.81373000  0.37254000  0.05270600  1
  Li  Li6  1  0.68840000  0.62320000  0.43531400  1
  Li  Li7  1  0.56452000  0.87096100  0.81063200  1
  Li  Li8  1  0.87469400  0.25061200  0.37667500  1
  Mn  Mn0  1  0.99981900  0.00036100  0.00390000  1
  Mn  Mn1  1  0.37505000  0.24990000  0.87369700  1
  Co  Co0  1  0.75040800  0.49918400  0.74715800  1
  Co  Co1  1  0.62515500  0.74969000  0.12401400  1
  Co  Co2  1  0.49954000  0.00092000  0.50364900  1
  Co  Co3  1  0.25063000  0.49874000  0.24785800  1
  Co  Co4  1  0.12506600  0.74986800  0.62407800  1
  O  O0  1  0.47194300  0.05611400  0.87679600  1
  O  O1  1  0.34619600  0.30760800  0.18284000  1
  O  O2  1  0.22104000  0.55792000  0.59504800  1
  O  O3  1  0.09559100  0.80881800  0.97256700  1
  O  O4  1  0.97339700  0.05320500  0.33339400  1
  O  O5  1  0.84790700  0.30418600  0.73050100  1
  O  O6  1  0.72117100  0.55765800  0.09652200  1
  O  O7  1  0.59510000  0.80980100  0.47187800  1
  O  O8  1  0.40495100  0.19009800  0.56308600  1
  O  O9  1  0.27866900  0.44266300  0.89883800  1
  O  O10  1  0.15353700  0.69292600  0.27751200  1
  O  O11  1  0.02657500  0.94685000  0.67217600  1
  O  O12  1  0.90279100  0.19441900  0.01887000  1
  O  O13  1  0.77941800  0.44116500  0.40087500  1
  O  O14  1  0.65359500  0.69280900  0.77767000  1
  O  O15  1  0.52838500  0.94323000  0.13194200  1
loop_
_geom_bond_atom_site_label_1
_geom_bond_atom_site_label_2
_geom_bond_distance
_geom_bond_site_symmetry_2
Li0 O8 2.014929 1_555
Li0 O12 2.082757 1_455
Li0 O12 2.082759 1_555
Li0 O4 2.307016 1_555
Li0 O4 2.307017 1_455
Li0 O0 2.309883 1_554
Li1 O13 2.153183 1_455
Li1 O13 2.153187 1_555
Li1 O1 2.155368 1_555
Li1 O5 2.175907 1_455
Li1 O5 2.175909 1_555
Li1 O9 2.272902 1_555
Li2 O6 2.113511 1_456
Li2 O6 2.113511 1_556
Li2 O2 2.117689 1_555
Li2 O14 2.161838 1_555
Li2 O14 2.161840 1_455
Li2 O10 2.169126 1_556
Li3 O3 2.062637 1_554
Li3 O7 2.064199 1_455
Li3 O7 2.064203 1_555
Li3 O15 2.238744 1_455
Li3 O15 2.238746 1_555
Li3 O11 2.329561 1_555
Li4 O8 1.970643 1_655
Li4 O8 1.970643 1_555
Li4 O12 1.993246 1_556
Li4 O0 2.289079 1_555
Li4 O0 2.289080 1_655
Li4 O4 2.377552 1_555
Li5 O1 2.046855 1_555
Li5 O1 2.046855 1_655
Li5 O5 2.076693 1_554
Li5 O9 2.157770 1_554
Li5 O9 2.157771 1_654
Li5 O13 2.183861 1_555
Li6 O2 2.109991 1_555
Li6 O2 2.109991 1_655
Li6 O6 2.111315 1_555
Li6 O10 2.160851 1_655
Li6 O10 2.160851 1_555
Li6 O14 2.171504 1_555
Li7 O7 2.063961 1_555
Li7 O3 2.077377 1_655
Li7 O3 2.077379 1_555
Li7 O15 2.120237 1_556
Li7 O11 2.203209 1_655
Li7 O11 2.203211 1_555
Li8 O5 2.054652 1_555
Li8 O1 2.095626 1_655
Li8 O1 2.095626 1_555
Li8 O12 2.096398 1_555
Li8 O8 2.115723 1_555
Li8 O8 2.115723 1_655
Mn0 O0 1.932717 1_554
Mn0 O0 1.932719 1_654
Mn0 O4 1.940912 1_555
Mn0 O15 1.950117 1_545
Mn0 O15 1.950119 1_645
Mn0 O11 1.957009 1_644
Mn1 O1 1.903672 1_556
Mn1 O8 1.932517 1_555
Mn1 O5 1.948189 1_555
Mn1 O5 1.948189 1_455
Mn1 O12 1.965442 1_456
Mn1 O12 1.965444 1_556
Co0 O9 1.990757 1_555
Co0 O9 1.990759 1_655
Co0 O2 2.016665 1_655
Co0 O2 2.016666 1_555
Co0 O13 2.063947 1_555
Co0 O6 2.081705 1_556
Co1 O10 1.997385 1_555
Co1 O10 1.997385 1_655
Co1 O3 2.019744 1_654
Co1 O3 2.019744 1_554
Co1 O14 2.053039 1_554
Co1 O7 2.091676 1_555
Co2 O4 1.987236 1_555
Co2 O4 1.987238 1_455
Co2 O11 2.001933 1_545
Co2 O11 2.001933 1_645
Co2 O0 2.155084 1_555
Co2 O15 2.171441 1_545
Co3 O13 2.005438 1_455
Co3 O13 2.005440 1_555
Co3 O6 2.017102 1_555
Co3 O6 2.017102 1_455
Co3 O9 2.056900 1_554
Co3 O2 2.079407 1_555
Co4 O14 2.000884 1_555
Co4 O14 2.000886 1_455
Co4 O7 2.030611 1_455
Co4 O7 2.030613 1_555
Co4 O10 2.054594 1_555
Co4 O3 2.082672 1_555
