# generated using pymatgen
data_Li2Mn3NiO8
_symmetry_space_group_name_H-M   'P 1'
_cell_length_a   8.31975200
_cell_length_b   8.27646800
_cell_length_c   8.29083881
_cell_angle_alpha   89.75987203
_cell_angle_beta   90.00000000
_cell_angle_gamma   90.00000000
_symmetry_Int_Tables_number   1
_chemical_formula_structural   Li2Mn3NiO8
_chemical_formula_sum   'Li8 Mn12 Ni4 O32'
_cell_volume   570.88690167
_cell_formula_units_Z   4
loop_
 _symmetry_equiv_pos_site_id
 _symmetry_equiv_pos_as_xyz
  1  'x, y, z'
loop_
 _atom_site_type_symbol
 _atom_site_label
 _atom_site_symmetry_multiplicity
 _atom_site_fract_x
 _atom_site_fract_y
 _atom_site_fract_z
 _atom_site_occupancy
  Li  Li0  1  0.62512600  0.37662000  0.87380300  1
  Li  Li1  1  0.25182400  0.50449700  0.75073700  1
  Li  Li2  1  0.75182400  0.49550300  0.24926300  1
  Li  Li3  1  0.12512600  0.62338000  0.12619700  1
  Li  Li4  1  0.37428100  0.87528400  0.62401000  1
  Li  Li5  1  0.74870500  0.00347600  0.74746200  1
  Li  Li6  1  0.24870500  0.99652400  0.25253800  1
  Li  Li7  1  0.87428100  0.12471600  0.37599000  1
  Mn  Mn0  1  0.87920300  0.37684100  0.62189600  1
  Mn  Mn1  1  0.12530900  0.37318100  0.37680500  1
  Mn  Mn2  1  0.37681600  0.37404700  0.12288700  1
  Mn  Mn3  1  0.87681600  0.62595300  0.87711300  1
  Mn  Mn4  1  0.62530900  0.62681900  0.62319500  1
  Mn  Mn5  1  0.37920300  0.62315900  0.37810400  1
  Mn  Mn6  1  0.12257200  0.87430100  0.87697000  1
  Mn  Mn7  1  0.87563600  0.87589600  0.12249100  1
  Mn  Mn8  1  0.62193600  0.87669100  0.37594800  1
  Mn  Mn9  1  0.12193600  0.12330900  0.62405200  1
  Mn  Mn10  1  0.37563600  0.12410400  0.87750900  1
  Mn  Mn11  1  0.62257200  0.12569900  0.12303000  1
  Ni  Ni0  1  0.50303600  0.24762800  0.50697900  1
  Ni  Ni1  1  0.00303600  0.75237200  0.49302100  1
  Ni  Ni2  1  0.49967000  0.74591900  0.99761200  1
  Ni  Ni3  1  0.99967000  0.25408100  0.00238800  1
  O  O0  1  0.60554200  0.35590100  0.12500100  1
  O  O1  1  0.37186100  0.35811100  0.89613800  1
  O  O2  1  0.11409300  0.36422300  0.61324400  1
  O  O3  1  0.89975500  0.38087300  0.39254200  1
  O  O4  1  0.14040500  0.37458400  0.14719900  1
  O  O5  1  0.36591800  0.38492600  0.36377600  1
  O  O6  1  0.65065200  0.39538700  0.61815100  1
  O  O7  1  0.87610300  0.39887900  0.85940100  1
  O  O8  1  0.37610300  0.60112100  0.14059900  1
  O  O9  1  0.15065200  0.60461300  0.38184900  1
  O  O10  1  0.86591800  0.61507400  0.63622400  1
  O  O11  1  0.64040500  0.62541600  0.85280100  1
  O  O12  1  0.39975500  0.61912700  0.60745800  1
  O  O13  1  0.61409300  0.63577700  0.38675600  1
  O  O14  1  0.87186100  0.64188900  0.10386200  1
  O  O15  1  0.10554200  0.64409900  0.87499900  1
  O  O16  1  0.39305400  0.85386200  0.37201500  1
  O  O17  1  0.62613800  0.86081800  0.60143700  1
  O  O18  1  0.88720800  0.86587900  0.88671000  1
  O  O19  1  0.10117500  0.87955800  0.10736100  1
  O  O20  1  0.85758800  0.87679300  0.35378800  1
  O  O21  1  0.63417300  0.88972600  0.13647400  1
  O  O22  1  0.35318000  0.88980600  0.87716000  1
  O  O23  1  0.11862300  0.89713100  0.64078700  1
  O  O24  1  0.61862300  0.10286900  0.35921300  1
  O  O25  1  0.85318000  0.11019400  0.12284000  1
  O  O26  1  0.13417300  0.11027400  0.86352600  1
  O  O27  1  0.35758800  0.12320700  0.64621200  1
  O  O28  1  0.60117500  0.12044200  0.89263900  1
  O  O29  1  0.38720800  0.13412100  0.11329000  1
  O  O30  1  0.12613800  0.13918200  0.39856300  1
  O  O31  1  0.89305400  0.14613800  0.62798500  1
loop_
_geom_bond_atom_site_label_1
_geom_bond_atom_site_label_2
_geom_bond_distance
_geom_bond_site_symmetry_2
Li0 O11 2.069681 1_555
Li0 O0 2.095318 1_556
Li0 O7 2.099532 1_555
Li0 O1 2.120707 1_555
Li0 O28 2.134661 1_555
Li0 O6 2.135191 1_555
Li1 O12 1.953587 1_555
Li1 O15 1.971675 1_555
Li1 O1 1.976414 1_555
Li1 O2 1.992851 1_555
Li2 O3 1.953587 1_555
Li2 O0 1.971675 1_555
Li2 O14 1.976414 1_555
Li2 O13 1.992851 1_555
Li3 O4 2.069681 1_555
Li3 O15 2.095318 1_554
Li3 O8 2.099532 1_555
Li3 O14 2.120707 1_455
Li3 O19 2.134661 1_555
Li3 O9 2.135191 1_555
Li4 O27 2.065609 1_565
Li4 O16 2.103307 1_555
Li4 O17 2.107178 1_555
Li4 O22 2.110083 1_555
Li4 O12 2.135628 1_555
Li4 O23 2.139259 1_555
Li5 O31 1.951367 1_555
Li5 O28 1.975400 1_555
Li5 O17 1.977779 1_545
Li5 O18 1.986589 1_545
Li6 O16 1.951367 1_555
Li6 O19 1.975400 1_555
Li6 O30 1.977779 1_565
Li6 O29 1.986589 1_565
Li7 O20 2.065609 1_545
Li7 O31 2.103307 1_555
Li7 O30 2.107178 1_655
Li7 O25 2.110083 1_555
Li7 O3 2.135628 1_555
Li7 O24 2.139259 1_555
Mn0 O6 1.907915 1_555
Mn0 O3 1.909362 1_555
Mn0 O31 1.913335 1_555
Mn0 O2 1.958345 1_655
Mn0 O7 1.978474 1_555
Mn0 O10 1.978889 1_555
Mn1 O3 1.882179 1_455
Mn1 O4 1.907752 1_555
Mn1 O9 1.927637 1_555
Mn1 O30 1.944328 1_555
Mn1 O2 1.963587 1_555
Mn1 O5 2.007053 1_555
Mn2 O1 1.885563 1_554
Mn2 O8 1.885722 1_555
Mn2 O0 1.908936 1_555
Mn2 O4 1.977189 1_555
Mn2 O29 1.989546 1_555
Mn2 O5 2.001632 1_555
Mn3 O14 1.885563 1_556
Mn3 O7 1.885722 1_555
Mn3 O15 1.908936 1_655
Mn3 O11 1.977189 1_555
Mn3 O18 1.989546 1_555
Mn3 O10 2.001632 1_555
Mn4 O12 1.882179 1_555
Mn4 O11 1.907752 1_555
Mn4 O6 1.927637 1_555
Mn4 O17 1.944328 1_555
Mn4 O13 1.963587 1_555
Mn4 O10 2.007053 1_555
Mn5 O9 1.907915 1_555
Mn5 O12 1.909362 1_555
Mn5 O16 1.913335 1_555
Mn5 O13 1.958345 1_555
Mn5 O8 1.978474 1_555
Mn5 O5 1.978889 1_555
Mn6 O15 1.910659 1_555
Mn6 O19 1.919087 1_556
Mn6 O22 1.922889 1_555
Mn6 O26 1.958115 1_565
Mn6 O18 1.961062 1_455
Mn6 O23 1.966737 1_555
Mn7 O19 1.880852 1_655
Mn7 O20 1.923561 1_555
Mn7 O14 1.943799 1_555
Mn7 O25 1.948153 1_565
Mn7 O18 1.959293 1_554
Mn7 O21 2.015535 1_555
Mn8 O17 1.873880 1_555
Mn8 O24 1.876712 1_565
Mn8 O16 1.913884 1_555
Mn8 O20 1.969156 1_555
Mn8 O21 1.990523 1_555
Mn8 O13 1.996621 1_555
Mn9 O30 1.873880 1_555
Mn9 O23 1.876712 1_545
Mn9 O31 1.913884 1_455
Mn9 O27 1.969156 1_555
Mn9 O26 1.990523 1_555
Mn9 O2 1.996621 1_555
Mn10 O28 1.880852 1_555
Mn10 O27 1.923561 1_555
Mn10 O1 1.943799 1_555
Mn10 O22 1.948153 1_545
Mn10 O29 1.959293 1_556
Mn10 O26 2.015535 1_555
Mn11 O0 1.910659 1_555
Mn11 O28 1.919087 1_554
Mn11 O25 1.922889 1_555
Mn11 O21 1.958115 1_545
Mn11 O29 1.961062 1_555
Mn11 O24 1.966737 1_555
Ni0 O27 1.961458 1_555
Ni0 O6 1.965410 1_555
Ni0 O24 1.968093 1_555
Ni0 O5 1.997744 1_555
Ni1 O20 1.961458 1_455
Ni1 O9 1.965410 1_555
Ni1 O23 1.968093 1_555
Ni1 O10 1.997744 1_455
Ni2 O11 1.953749 1_555
Ni2 O8 1.971431 1_556
Ni2 O22 1.972535 1_555
Ni2 O21 2.001444 1_556
Ni3 O4 1.953749 1_655
Ni3 O7 1.971431 1_554
Ni3 O25 1.972535 1_555
Ni3 O26 2.001444 1_654
