# generated using pymatgen
data_RbYb
_symmetry_space_group_name_H-M   'P 1'
_cell_length_a   7.24257358
_cell_length_b   7.24257358
_cell_length_c   14.87458674
_cell_angle_alpha   90.00000000
_cell_angle_beta   90.00000000
_cell_angle_gamma   119.99999588
_symmetry_Int_Tables_number   1
_chemical_formula_structural   RbYb
_chemical_formula_sum   'Rb8 Yb8'
_cell_volume   675.71162493
_cell_formula_units_Z   8
loop_
 _symmetry_equiv_pos_site_id
 _symmetry_equiv_pos_as_xyz
  1  'x, y, z'
loop_
 _atom_site_type_symbol
 _atom_site_label
 _atom_site_symmetry_multiplicity
 _atom_site_fract_x
 _atom_site_fract_y
 _atom_site_fract_z
 _atom_site_occupancy
  Rb  Rb0_0  1  0.00000000  0.00000000  0.25000000  1
  Rb  Rb0_1  1  0.00000000  0.00000000  0.75000000  1
  Rb  Rb0_2  1  0.00000000  0.50000000  0.25000000  1
  Rb  Rb0_3  1  0.00000000  0.50000000  0.75000000  1
  Rb  Rb0_4  1  0.50000000  1.00000000  0.25000000  1
  Rb  Rb0_5  1  0.50000000  1.00000000  0.75000000  1
  Rb  Rb0_6  1  0.50000000  0.50000000  0.25000000  1
  Rb  Rb0_7  1  0.50000000  0.50000000  0.75000000  1
  Yb  Yb0_0  1  0.33333350  0.16666650  0.00000000  1
  Yb  Yb0_1  1  0.33333350  0.16666650  0.50000000  1
  Yb  Yb0_2  1  0.33333350  0.66666650  0.00000000  1
  Yb  Yb0_3  1  0.33333350  0.66666650  0.50000000  1
  Yb  Yb0_4  1  0.83333350  0.16666650  0.00000000  1
  Yb  Yb0_5  1  0.83333350  0.16666650  0.50000000  1
  Yb  Yb0_6  1  0.83333350  0.66666650  0.00000000  1
  Yb  Yb0_7  1  0.83333350  0.66666650  0.50000000  1
loop_
_geom_bond_atom_site_label_1
_geom_bond_atom_site_label_2
_geom_bond_distance
_geom_bond_site_symmetry_2
Rb0_0 Rb0_2 3.621287 1_555
Rb0_0 Rb0_4 3.621287 1_445
Rb0_0 Rb0_4 3.621287 1_545
Rb0_0 Rb0_2 3.621287 1_545
Rb0_0 Rb0_6 3.621287 1_555
Rb0_0 Rb0_6 3.621287 1_445
Rb0_0 Yb0_5 4.266095 1_455
Rb0_0 Yb0_4 4.266095 1_455
Rb0_0 Yb0_1 4.266096 1_555
Rb0_0 Yb0_0 4.266096 1_555
Rb0_0 Yb0_7 4.266096 1_445
Rb0_0 Yb0_6 4.266096 1_445
Rb0_1 Rb0_3 3.621287 1_555
Rb0_1 Rb0_5 3.621287 1_445
Rb0_1 Rb0_5 3.621287 1_545
Rb0_1 Rb0_3 3.621287 1_545
Rb0_1 Rb0_7 3.621287 1_555
Rb0_1 Rb0_7 3.621287 1_445
Rb0_1 Yb0_5 4.266095 1_455
Rb0_1 Yb0_4 4.266095 1_456
Rb0_1 Yb0_1 4.266096 1_555
Rb0_1 Yb0_0 4.266096 1_556
Rb0_1 Yb0_6 4.266096 1_446
Rb0_1 Yb0_7 4.266096 1_445
Rb0_2 Rb0_6 3.621287 1_455
Rb0_2 Rb0_6 3.621287 1_555
Rb0_2 Rb0_4 3.621287 1_555
Rb0_2 Rb0_4 3.621287 1_445
Rb0_2 Yb0_7 4.266095 1_455
Rb0_2 Yb0_6 4.266095 1_455
Rb0_2 Yb0_2 4.266096 1_555
Rb0_2 Yb0_3 4.266096 1_555
Rb0_2 Yb0_4 4.266096 1_455
Rb0_2 Yb0_5 4.266096 1_455
Rb0_3 Rb0_7 3.621287 1_455
Rb0_3 Rb0_7 3.621287 1_555
Rb0_3 Rb0_5 3.621287 1_555
Rb0_3 Rb0_5 3.621287 1_445
Rb0_3 Yb0_7 4.266095 1_455
Rb0_3 Yb0_6 4.266095 1_456
Rb0_3 Yb0_2 4.266096 1_556
Rb0_3 Yb0_3 4.266096 1_555
Rb0_3 Yb0_4 4.266096 1_456
Rb0_3 Yb0_5 4.266096 1_455
Rb0_4 Rb0_6 3.621287 1_565
Rb0_4 Rb0_6 3.621287 1_555
Rb0_4 Yb0_0 4.266095 1_565
Rb0_4 Yb0_1 4.266095 1_565
Rb0_4 Yb0_4 4.266096 1_565
Rb0_4 Yb0_5 4.266096 1_565
Rb0_4 Yb0_2 4.266096 1_555
Rb0_4 Yb0_3 4.266096 1_555
Rb0_5 Rb0_7 3.621287 1_565
Rb0_5 Rb0_7 3.621287 1_555
Rb0_5 Yb0_0 4.266095 1_566
Rb0_5 Yb0_1 4.266095 1_565
Rb0_5 Yb0_4 4.266096 1_566
Rb0_5 Yb0_5 4.266096 1_565
Rb0_5 Yb0_2 4.266096 1_556
Rb0_5 Yb0_3 4.266096 1_555
Rb0_6 Yb0_3 4.266095 1_555
Rb0_6 Yb0_2 4.266095 1_555
Rb0_6 Yb0_7 4.266096 1_555
Rb0_6 Yb0_6 4.266096 1_555
Rb0_6 Yb0_1 4.266096 1_555
Rb0_6 Yb0_0 4.266096 1_555
Rb0_7 Yb0_3 4.266095 1_555
Rb0_7 Yb0_2 4.266095 1_556
Rb0_7 Yb0_7 4.266096 1_555
Rb0_7 Yb0_6 4.266096 1_556
Rb0_7 Yb0_1 4.266096 1_555
Rb0_7 Yb0_0 4.266096 1_556
Yb0_0 Yb0_2 3.621287 1_555
Yb0_0 Yb0_4 3.621287 1_555
Yb0_0 Yb0_4 3.621287 1_455
Yb0_0 Yb0_2 3.621287 1_545
Yb0_0 Yb0_6 3.621287 1_445
Yb0_0 Yb0_6 3.621287 1_555
Yb0_1 Yb0_3 3.621287 1_555
Yb0_1 Yb0_5 3.621287 1_455
Yb0_1 Yb0_5 3.621287 1_555
Yb0_1 Yb0_3 3.621287 1_545
Yb0_1 Yb0_7 3.621287 1_445
Yb0_1 Yb0_7 3.621287 1_555
Yb0_2 Yb0_6 3.621287 1_455
Yb0_2 Yb0_6 3.621287 1_555
Yb0_2 Yb0_4 3.621287 1_565
Yb0_2 Yb0_4 3.621287 1_455
Yb0_3 Yb0_7 3.621287 1_455
Yb0_3 Yb0_7 3.621287 1_555
Yb0_3 Yb0_5 3.621287 1_565
Yb0_3 Yb0_5 3.621287 1_455
Yb0_4 Yb0_6 3.621287 1_555
Yb0_4 Yb0_6 3.621287 1_545
Yb0_5 Yb0_7 3.621287 1_555
Yb0_5 Yb0_7 3.621287 1_545
