# generated using pymatgen
data_CsNiBr3
_symmetry_space_group_name_H-M   'P 1'
_cell_length_a   7.55607498
_cell_length_b   7.55607759
_cell_length_c   6.27613375
_cell_angle_alpha   89.99994798
_cell_angle_beta   90.00005080
_cell_angle_gamma   119.99973702
_symmetry_Int_Tables_number   1
_chemical_formula_structural   CsNiBr3
_chemical_formula_sum   'Cs2 Ni2 Br6'
_cell_volume   310.32491166
_cell_formula_units_Z   2
loop_
 _symmetry_equiv_pos_site_id
 _symmetry_equiv_pos_as_xyz
  1  'x, y, z'
loop_
 _atom_site_type_symbol
 _atom_site_label
 _atom_site_symmetry_multiplicity
 _atom_site_fract_x
 _atom_site_fract_y
 _atom_site_fract_z
 _atom_site_occupancy
  Cs  Cs0  1  0.33333296  0.66666688  0.75000017  1
  Cs  Cs1  1  0.66666719  0.33333289  0.25000066  1
  Ni  Ni0  1  -0.00000009  0.00000013  0.50000011  1
  Ni  Ni1  1  -0.00000026  0.00000018  -0.00000009  1
  Br  Br0  1  0.15492903  0.84507287  0.25000227  1
  Br  Br1  1  0.15492790  0.30985394  0.25000058  1
  Br  Br2  1  0.69014635  0.84507200  0.25000059  1
  Br  Br3  1  0.84507160  0.15492822  0.74999912  1
  Br  Br4  1  0.84507230  0.69014608  0.74999937  1
  Br  Br5  1  0.30985403  0.15492781  0.74999921  1
loop_
_geom_bond_atom_site_label_1
_geom_bond_atom_site_label_2
_geom_bond_distance
_geom_bond_site_symmetry_2
Br0 Ni0 2.563801 1_565
Br0 Ni1 2.563817 1_565
Br0 Cs1 3.781169 1_565
Br0 Cs1 3.781183 1_455
Br0 Cs0 3.911393 1_555
Br0 Cs0 3.911419 1_554
Br1 Ni0 2.563799 1_555
Br1 Ni1 2.563805 1_555
Br1 Cs1 3.781160 1_555
Br1 Cs1 3.781161 1_455
Br1 Cs0 3.911423 1_555
Br1 Cs0 3.911425 1_554
Br2 Ni0 2.563798 1_665
Br2 Ni1 2.563802 1_665
Br2 Cs1 3.781159 1_555
Br2 Cs1 3.781164 1_565
Br2 Cs0 3.911424 1_555
Br2 Cs0 3.911426 1_554
Br3 Ni0 2.563806 1_655
Br3 Ni1 2.563809 1_656
Br3 Cs0 3.781175 1_545
Br3 Cs0 3.781176 1_655
Br3 Cs1 3.911393 1_555
Br3 Cs1 3.911412 1_556
Br4 Ni0 2.563800 1_665
Br4 Ni1 2.563806 1_666
Br4 Cs0 3.781159 1_555
Br4 Cs0 3.781162 1_655
Br4 Cs1 3.911419 1_555
Br4 Cs1 3.911430 1_556
Br5 Ni0 2.563799 1_555
Br5 Ni1 2.563807 1_556
Br5 Cs0 3.781159 1_555
Br5 Cs0 3.781164 1_545
Br5 Cs1 3.911418 1_555
Br5 Cs1 3.911430 1_556
