# generated using pymatgen
data_LiV3O4
_symmetry_space_group_name_H-M   'P 1'
_cell_length_a   4.26889900
_cell_length_b   4.32164100
_cell_length_c   8.62580301
_cell_angle_alpha   89.99772328
_cell_angle_beta   90.00396798
_cell_angle_gamma   90.00331123
_symmetry_Int_Tables_number   1
_chemical_formula_structural   LiV3O4
_chemical_formula_sum   'Li2 V6 O8'
_cell_volume   159.13441106
_cell_formula_units_Z   2
loop_
 _symmetry_equiv_pos_site_id
 _symmetry_equiv_pos_as_xyz
  1  'x, y, z'
loop_
 _atom_site_type_symbol
 _atom_site_label
 _atom_site_symmetry_multiplicity
 _atom_site_fract_x
 _atom_site_fract_y
 _atom_site_fract_z
 _atom_site_occupancy
  Li  Li0  1  0.00010300  0.00002000  0.99838200  1
  Li  Li1  1  0.50021100  0.50002300  0.49786800  1
  V  V0  1  0.00038900  0.00019300  0.50490700  1
  V  V1  1  0.00006300  0.50032600  0.24678800  1
  V  V2  1  0.49943400  0.99988600  0.75129300  1
  V  V3  1  0.50064000  0.49976800  0.99588300  1
  V  V4  1  0.49975700  0.99995600  0.25344500  1
  V  V5  1  0.99965000  0.50013400  0.74865000  1
  O  O0  1  0.50020000  0.99972700  0.00005200  1
  O  O1  1  0.00012400  0.50019500  0.49999200  1
  O  O2  1  0.00033100  0.49949600  0.99662600  1
  O  O3  1  0.50008800  0.00008500  0.50365000  1
  O  O4  1  0.99975600  0.00028400  0.26772000  1
  O  O5  1  0.49970600  0.49979300  0.75653700  1
  O  O6  1  0.50006100  0.50000900  0.23348700  1
  O  O7  1  0.99948800  0.00010500  0.74472100  1
loop_
_geom_bond_atom_site_label_1
_geom_bond_atom_site_label_2
_geom_bond_distance
_geom_bond_site_symmetry_2
Li0 O0 2.134085 1_446
Li0 O0 2.134912 1_546
Li0 O2 2.158609 1_555
Li0 O2 2.163139 1_545
Li0 O7 2.188031 1_455
Li0 O4 2.323257 1_456
Li1 O1 2.134156 1_655
Li1 O1 2.134901 1_555
Li1 O3 2.161126 1_555
Li1 O3 2.161666 1_565
Li1 O5 2.231229 1_555
Li1 O6 2.280498 1_555
O0 V2 2.145748 1_554
O0 V3 2.160945 1_554
O0 V3 2.161296 1_564
O0 V4 2.185719 1_555
O1 V5 2.144876 1_455
O1 V0 2.161230 1_565
O1 V0 2.161244 1_555
O1 V1 2.184088 1_555
O2 V3 2.133140 1_455
O2 V3 2.135779 1_555
O2 V5 2.138996 1_455
O2 V1 2.157852 1_556
O3 V0 2.133193 1_555
O3 V0 2.135761 1_655
O3 V2 2.136122 1_545
O3 V4 2.158220 1_545
O4 V0 2.045930 1_655
O4 V4 2.137986 1_545
O4 V4 2.138012 1_645
O4 V1 2.168178 1_645
O4 V1 2.168525 1_655
O5 V3 2.064555 1_555
O5 V5 2.135300 1_555
O5 V5 2.135768 1_455
O5 V2 2.160894 1_545
O5 V2 2.161694 1_555
O6 V3 2.049527 1_554
O6 V1 2.137531 1_555
O6 V1 2.137532 1_655
O6 V4 2.167446 1_555
O6 V4 2.167889 1_545
O7 V0 2.068592 1_655
O7 V2 2.134968 1_645
O7 V2 2.135437 1_545
O7 V5 2.160960 1_545
O7 V5 2.161213 1_555
