# generated using pymatgen
data_Mn16Bi16O45
_symmetry_space_group_name_H-M   'P 1'
_cell_length_a   13.96924784
_cell_length_b   13.96924784
_cell_length_c   13.96924784
_cell_angle_alpha   109.47122063
_cell_angle_beta   109.47122063
_cell_angle_gamma   109.47122063
_symmetry_Int_Tables_number   1
_chemical_formula_structural   Mn16Bi16O45
_chemical_formula_sum   'Mn32 Bi32 O90'
_cell_volume   2098.44299972
_cell_formula_units_Z   2
loop_
 _symmetry_equiv_pos_site_id
 _symmetry_equiv_pos_as_xyz
  1  'x, y, z'
loop_
 _atom_site_type_symbol
 _atom_site_label
 _atom_site_symmetry_multiplicity
 _atom_site_fract_x
 _atom_site_fract_y
 _atom_site_fract_z
 _atom_site_occupancy
  Mn  Mn0  1  0.99919500  0.50000000  0.00000000  1
  Mn  Mn1  1  0.50000000  0.00000000  0.99919500  1
  Mn  Mn2  1  0.00000000  0.99919500  0.50000000  1
  Mn  Mn3  1  0.50080500  0.50080500  0.50080500  1
  Mn  Mn4  1  0.50000000  0.00000000  0.49919500  1
  Mn  Mn5  1  0.49919500  0.50000000  0.00000000  1
  Mn  Mn6  1  0.00000000  0.49919500  0.50000000  1
  Mn  Mn7  1  0.00080500  0.00080500  0.00080500  1
  Mn  Mn8  1  0.74935600  0.25000000  0.99935600  1
  Mn  Mn9  1  0.75064400  0.75000000  0.50064400  1
  Mn  Mn10  1  0.49935600  0.75000000  0.24935600  1
  Mn  Mn11  1  0.00064400  0.25000000  0.25064400  1
  Mn  Mn12  1  0.25000000  0.99935600  0.74935600  1
  Mn  Mn13  1  0.75000000  0.50064400  0.75064400  1
  Mn  Mn14  1  0.75000000  0.24935600  0.49935600  1
  Mn  Mn15  1  0.25000000  0.25064400  0.00064400  1
  Mn  Mn16  1  0.99935600  0.74935600  0.25000000  1
  Mn  Mn17  1  0.50064400  0.75064400  0.75000000  1
  Mn  Mn18  1  0.24935600  0.49935600  0.75000000  1
  Mn  Mn19  1  0.25064400  0.00064400  0.25000000  1
  Mn  Mn20  1  0.49985500  0.25000000  0.74985500  1
  Mn  Mn21  1  0.00014500  0.75000000  0.75014500  1
  Mn  Mn22  1  0.24985500  0.75000000  0.99985500  1
  Mn  Mn23  1  0.25014500  0.25000000  0.50014500  1
  Mn  Mn24  1  0.25000000  0.74985500  0.49985500  1
  Mn  Mn25  1  0.75000000  0.75014500  0.00014500  1
  Mn  Mn26  1  0.75000000  0.99985500  0.24985500  1
  Mn  Mn27  1  0.25000000  0.50014500  0.25014500  1
  Mn  Mn28  1  0.74985500  0.49985500  0.25000000  1
  Mn  Mn29  1  0.75014500  0.00014500  0.75000000  1
  Mn  Mn30  1  0.99985500  0.24985500  0.75000000  1
  Mn  Mn31  1  0.50014500  0.25014500  0.25000000  1
  Bi  Bi0  1  0.22360200  0.50000000  0.00000000  1
  Bi  Bi1  1  0.50000000  0.00000000  0.22360200  1
  Bi  Bi2  1  0.00000000  0.22360200  0.50000000  1
  Bi  Bi3  1  0.27639800  0.27639800  0.27639800  1
  Bi  Bi4  1  0.50000000  0.00000000  0.72360200  1
  Bi  Bi5  1  0.72360200  0.50000000  0.00000000  1
  Bi  Bi6  1  0.00000000  0.72360200  0.50000000  1
  Bi  Bi7  1  0.77639800  0.77639800  0.77639800  1
  Bi  Bi8  1  0.00033500  0.98761900  0.25302000  1
  Bi  Bi9  1  0.26540200  0.51238100  0.51271600  1
  Bi  Bi10  1  0.23459800  0.74731400  0.24698000  1
  Bi  Bi11  1  0.49966500  0.75268600  0.98728400  1
  Bi  Bi12  1  0.75302000  0.48761900  0.50033500  1
  Bi  Bi13  1  0.01271600  0.01238100  0.76540200  1
  Bi  Bi14  1  0.74698000  0.24731400  0.73459800  1
  Bi  Bi15  1  0.48728400  0.25268600  0.99966500  1
  Bi  Bi16  1  0.98761900  0.25302000  0.00033500  1
  Bi  Bi17  1  0.51238100  0.51271600  0.26540200  1
  Bi  Bi18  1  0.74731400  0.24698000  0.23459800  1
  Bi  Bi19  1  0.75268600  0.98728400  0.49966500  1
  Bi  Bi20  1  0.48761900  0.50033500  0.75302000  1
  Bi  Bi21  1  0.01238100  0.76540200  0.01271600  1
  Bi  Bi22  1  0.24731400  0.73459800  0.74698000  1
  Bi  Bi23  1  0.25268600  0.99966500  0.48728400  1
  Bi  Bi24  1  0.25302000  0.00033500  0.98761900  1
  Bi  Bi25  1  0.51271600  0.26540200  0.51238100  1
  Bi  Bi26  1  0.24698000  0.23459800  0.74731400  1
  Bi  Bi27  1  0.98728400  0.49966500  0.75268600  1
  Bi  Bi28  1  0.50033500  0.75302000  0.48761900  1
  Bi  Bi29  1  0.76540200  0.01271600  0.01238100  1
  Bi  Bi30  1  0.73459800  0.74698000  0.24731400  1
  Bi  Bi31  1  0.99966500  0.48728400  0.25268600  1
  O  O0  1  0.12697300  0.25000000  0.37697300  1
  O  O1  1  0.37302700  0.75000000  0.12302700  1
  O  O2  1  0.87697300  0.75000000  0.62697300  1
  O  O3  1  0.62302700  0.25000000  0.87302700  1
  O  O4  1  0.25000000  0.37697300  0.12697300  1
  O  O5  1  0.75000000  0.12302700  0.37302700  1
  O  O6  1  0.75000000  0.62697300  0.87697300  1
  O  O7  1  0.25000000  0.87302700  0.62302700  1
  O  O8  1  0.37697300  0.12697300  0.25000000  1
  O  O9  1  0.12302700  0.37302700  0.75000000  1
  O  O10  1  0.62697300  0.87697300  0.75000000  1
  O  O11  1  0.87302700  0.62302700  0.25000000  1
  O  O12  1  0.37500000  0.25000000  0.62500000  1
  O  O13  1  0.12500000  0.75000000  0.87500000  1
  O  O14  1  0.25000000  0.62500000  0.37500000  1
  O  O15  1  0.75000000  0.87500000  0.12500000  1
  O  O16  1  0.62500000  0.37500000  0.25000000  1
  O  O17  1  0.87500000  0.12500000  0.75000000  1
  O  O18  1  0.33526900  0.70687200  0.63651800  1
  O  O19  1  0.92964600  0.79312800  0.12839700  1
  O  O20  1  0.57035400  0.69875100  0.86348200  1
  O  O21  1  0.16473100  0.80124900  0.37160300  1
  O  O22  1  0.13651800  0.20687200  0.83526900  1
  O  O23  1  0.62839700  0.29312800  0.42964600  1
  O  O24  1  0.36348200  0.19875100  0.07035400  1
  O  O25  1  0.87160300  0.30124900  0.66473100  1
  O  O26  1  0.70687200  0.63651800  0.33526900  1
  O  O27  1  0.79312800  0.12839700  0.92964600  1
  O  O28  1  0.69875100  0.86348200  0.57035400  1
  O  O29  1  0.80124900  0.37160300  0.16473100  1
  O  O30  1  0.20687200  0.83526900  0.13651800  1
  O  O31  1  0.29312800  0.42964600  0.62839700  1
  O  O32  1  0.19875100  0.07035400  0.36348200  1
  O  O33  1  0.30124900  0.66473100  0.87160300  1
  O  O34  1  0.63651800  0.33526900  0.70687200  1
  O  O35  1  0.12839700  0.92964600  0.79312800  1
  O  O36  1  0.86348200  0.57035400  0.69875100  1
  O  O37  1  0.37160300  0.16473100  0.80124900  1
  O  O38  1  0.83526900  0.13651800  0.20687200  1
  O  O39  1  0.42964600  0.62839700  0.29312800  1
  O  O40  1  0.07035400  0.36348200  0.19875100  1
  O  O41  1  0.66473100  0.87160300  0.30124900  1
  O  O42  1  0.63218000  0.45821800  0.09363600  1
  O  O43  1  0.63541800  0.04178200  0.67396200  1
  O  O44  1  0.86458200  0.53854400  0.40636400  1
  O  O45  1  0.86782000  0.96145600  0.82603800  1
  O  O46  1  0.59363600  0.95821800  0.13218000  1
  O  O47  1  0.17396200  0.54178200  0.13541800  1
  O  O48  1  0.90636400  0.03854400  0.36458200  1
  O  O49  1  0.32603800  0.46145600  0.36782000  1
  O  O50  1  0.45821800  0.09363600  0.63218000  1
  O  O51  1  0.04178200  0.67396200  0.63541800  1
  O  O52  1  0.53854400  0.40636400  0.86458200  1
  O  O53  1  0.96145600  0.82603800  0.86782000  1
  O  O54  1  0.95821800  0.13218000  0.59363600  1
  O  O55  1  0.54178200  0.13541800  0.17396200  1
  O  O56  1  0.03854400  0.36458200  0.90636400  1
  O  O57  1  0.46145600  0.36782000  0.32603800  1
  O  O58  1  0.09363600  0.63218000  0.45821800  1
  O  O59  1  0.67396200  0.63541800  0.04178200  1
  O  O60  1  0.40636400  0.86458200  0.53854400  1
  O  O61  1  0.82603800  0.86782000  0.96145600  1
  O  O62  1  0.13218000  0.59363600  0.95821800  1
  O  O63  1  0.13541800  0.17396200  0.54178200  1
  O  O64  1  0.36458200  0.90636400  0.03854400  1
  O  O65  1  0.36782000  0.32603800  0.46145600  1
  O  O66  1  0.60139600  0.61746900  0.46401000  1
  O  O67  1  0.84654100  0.88253100  0.48392600  1
  O  O68  1  0.65345900  0.13738600  0.03599000  1
  O  O69  1  0.89860400  0.36261400  0.01607400  1
  O  O70  1  0.96401000  0.11746900  0.10139600  1
  O  O71  1  0.98392600  0.38253100  0.34654100  1
  O  O72  1  0.53599000  0.63738600  0.15345900  1
  O  O73  1  0.51607400  0.86261400  0.39860400  1
  O  O74  1  0.61746900  0.46401000  0.60139600  1
  O  O75  1  0.88253100  0.48392600  0.84654100  1
  O  O76  1  0.13738600  0.03599000  0.65345900  1
  O  O77  1  0.36261400  0.01607400  0.89860400  1
  O  O78  1  0.11746900  0.10139600  0.96401000  1
  O  O79  1  0.38253100  0.34654100  0.98392600  1
  O  O80  1  0.63738600  0.15345900  0.53599000  1
  O  O81  1  0.86261400  0.39860400  0.51607400  1
  O  O82  1  0.46401000  0.60139600  0.61746900  1
  O  O83  1  0.48392600  0.84654100  0.88253100  1
  O  O84  1  0.03599000  0.65345900  0.13738600  1
  O  O85  1  0.01607400  0.89860400  0.36261400  1
  O  O86  1  0.10139600  0.96401000  0.11746900  1
  O  O87  1  0.34654100  0.98392600  0.38253100  1
  O  O88  1  0.15345900  0.53599000  0.63738600  1
  O  O89  1  0.39860400  0.51607400  0.86261400  1
loop_
_geom_bond_atom_site_label_1
_geom_bond_atom_site_label_2
_geom_bond_distance
_geom_bond_site_symmetry_2
Mn0 O75 2.099502 1_554
Mn0 O84 2.099509 1_655
Mn0 O69 2.099518 1_555
Mn0 O47 2.261528 1_655
Mn0 O56 2.261528 1_654
Mn0 O62 2.261528 1_654
Mn1 O83 2.099502 1_545
Mn1 O68 2.099509 1_556
Mn1 O77 2.099518 1_555
Mn1 O55 2.261528 1_556
Mn1 O64 2.261528 1_546
Mn1 O46 2.261528 1_546
Mn2 O67 2.099502 1_455
Mn2 O76 2.099509 1_565
Mn2 O85 2.099518 1_555
Mn2 O63 2.261528 1_565
Mn2 O48 2.261528 1_465
Mn2 O54 2.261528 1_465
Mn3 O66 2.099509 1_555
Mn3 O82 2.099509 1_555
Mn3 O74 2.099509 1_555
Mn3 O49 2.261528 1_555
Mn3 O65 2.261528 1_555
Mn3 O57 2.261528 1_555
Mn4 O87 2.099502 1_545
Mn4 O80 2.099509 1_555
Mn4 O73 2.099518 1_545
Mn4 O43 2.261528 1_555
Mn4 O60 2.261528 1_545
Mn4 O50 2.261528 1_555
Mn5 O79 2.099502 1_554
Mn5 O72 2.099509 1_555
Mn5 O89 2.099518 1_554
Mn5 O59 2.261528 1_555
Mn5 O52 2.261528 1_554
Mn5 O42 2.261528 1_555
Mn6 O71 2.099502 1_455
Mn6 O88 2.099509 1_555
Mn6 O81 2.099518 1_455
Mn6 O51 2.261528 1_555
Mn6 O44 2.261528 1_455
Mn6 O58 2.261528 1_555
Mn7 O78 2.099509 1_554
Mn7 O86 2.099509 1_545
Mn7 O70 2.099509 1_455
Mn7 O53 2.261528 1_444
Mn7 O45 2.261528 1_444
Mn7 O61 2.261528 1_444
Mn8 O69 2.029770 1_556
Mn8 O68 2.029777 1_556
Mn8 O3 2.037724 1_555
Mn8 O29 2.048019 1_556
Mn8 O27 2.048019 1_555
Mn9 O66 2.029777 1_555
Mn9 O67 2.029786 1_555
Mn9 O2 2.037724 1_555
Mn9 O28 2.048019 1_555
Mn9 O26 2.048019 1_555
Mn10 O73 2.029770 1_555
Mn10 O72 2.029777 1_555
Mn10 O1 2.037724 1_555
Mn10 O39 2.048019 1_555
Mn10 O41 2.048019 1_555
Mn11 O70 2.029777 1_455
Mn11 O71 2.029786 1_455
Mn11 O0 2.037724 1_555
Mn11 O38 2.048019 1_455
Mn11 O40 2.048019 1_555
Mn12 O77 2.029770 1_565
Mn12 O76 2.029777 1_565
Mn12 O7 2.037724 1_555
Mn12 O37 2.048019 1_565
Mn12 O35 2.048019 1_555
Mn13 O74 2.029777 1_555
Mn13 O75 2.029786 1_555
Mn13 O6 2.037724 1_555
Mn13 O36 2.048019 1_555
Mn13 O34 2.048019 1_555
Mn14 O81 2.029770 1_555
Mn14 O80 2.029777 1_555
Mn14 O5 2.037724 1_555
Mn14 O23 2.048019 1_555
Mn14 O25 2.048019 1_555
Mn15 O78 2.029777 1_554
Mn15 O79 2.029786 1_554
Mn15 O4 2.037724 1_555
Mn15 O22 2.048019 1_554
Mn15 O24 2.048019 1_555
Mn16 O85 2.029770 1_655
Mn16 O84 2.029777 1_655
Mn16 O11 2.037724 1_555
Mn16 O21 2.048019 1_655
Mn16 O19 2.048019 1_555
Mn17 O82 2.029777 1_555
Mn17 O83 2.029786 1_555
Mn17 O10 2.037724 1_555
Mn17 O20 2.048019 1_555
Mn17 O18 2.048019 1_555
Mn18 O89 2.029770 1_555
Mn18 O88 2.029777 1_555
Mn18 O9 2.037724 1_555
Mn18 O31 2.048019 1_555
Mn18 O33 2.048019 1_555
Mn19 O86 2.029777 1_545
Mn19 O87 2.029786 1_545
Mn19 O8 2.037724 1_555
Mn19 O30 2.048019 1_545
Mn19 O32 2.048019 1_555
Mn20 O50 1.983299 1_555
Mn20 O52 1.983299 1_555
Mn20 O3 1.986801 1_555
Mn20 O12 2.013948 1_555
Mn20 O34 2.269128 1_555
Mn20 O37 2.269128 1_555
Mn21 O53 1.983299 1_455
Mn21 O51 1.983299 1_555
Mn21 O2 1.986801 1_455
Mn21 O13 2.013948 1_555
Mn21 O36 2.269128 1_455
Mn21 O35 2.269128 1_555
Mn22 O64 1.983299 1_556
Mn22 O62 1.983299 1_555
Mn22 O1 1.986801 1_556
Mn22 O13 2.013948 1_555
Mn22 O33 2.269128 1_555
Mn22 O30 2.269128 1_556
Mn23 O65 1.983299 1_555
Mn23 O63 1.983299 1_555
Mn23 O0 1.986801 1_555
Mn23 O12 2.013948 1_555
Mn23 O31 2.269128 1_555
Mn23 O32 2.269128 1_555
Mn24 O58 1.983299 1_555
Mn24 O60 1.983299 1_555
Mn24 O7 1.986801 1_555
Mn24 O14 2.013948 1_555
Mn24 O18 2.269128 1_555
Mn24 O21 2.269128 1_555
Mn25 O61 1.983299 1_554
Mn25 O59 1.983299 1_555
Mn25 O6 1.986801 1_554
Mn25 O15 2.013948 1_555
Mn25 O19 2.269128 1_555
Mn25 O20 2.269128 1_554
Mn26 O48 1.983299 1_565
Mn26 O46 1.983299 1_555
Mn26 O5 1.986801 1_565
Mn26 O15 2.013948 1_555
Mn26 O41 2.269128 1_555
Mn26 O38 2.269128 1_565
Mn27 O49 1.983299 1_555
Mn27 O47 1.983299 1_555
Mn27 O4 1.986801 1_555
Mn27 O14 2.013948 1_555
Mn27 O39 2.269128 1_555
Mn27 O40 2.269128 1_555
Mn28 O42 1.983299 1_555
Mn28 O44 1.983299 1_555
Mn28 O11 1.986801 1_555
Mn28 O16 2.013948 1_555
Mn28 O26 2.269128 1_555
Mn28 O29 2.269128 1_555
Mn29 O45 1.983299 1_545
Mn29 O43 1.983299 1_555
Mn29 O10 1.986801 1_545
Mn29 O17 2.013948 1_555
Mn29 O27 2.269128 1_555
Mn29 O28 2.269128 1_545
Mn30 O56 1.983299 1_655
Mn30 O54 1.983299 1_555
Mn30 O9 1.986801 1_655
Mn30 O17 2.013948 1_555
Mn30 O25 2.269128 1_555
Mn30 O22 2.269128 1_655
Mn31 O57 1.983299 1_555
Mn31 O55 1.983299 1_555
Mn31 O8 1.986801 1_555
Mn31 O16 2.013948 1_555
Mn31 O23 2.269128 1_555
Mn31 O24 2.269128 1_555
Bi0 O47 2.192772 1_555
Bi0 O62 2.192772 1_554
Bi0 O56 2.192772 1_554
Bi1 O55 2.192772 1_555
Bi1 O46 2.192772 1_545
Bi1 O64 2.192772 1_545
Bi2 O63 2.192772 1_555
Bi2 O54 2.192772 1_455
Bi2 O48 2.192772 1_455
Bi3 O49 2.192772 1_555
Bi3 O65 2.192772 1_555
Bi3 O57 2.192772 1_555
Bi4 O43 2.192772 1_555
Bi4 O60 2.192772 1_545
Bi4 O50 2.192772 1_555
Bi5 O59 2.192772 1_555
Bi5 O52 2.192772 1_554
Bi5 O42 2.192772 1_555
Bi6 O51 2.192772 1_555
Bi6 O44 2.192772 1_455
Bi6 O58 2.192772 1_555
Bi7 O45 2.192772 1_555
Bi7 O53 2.192772 1_555
Bi7 O61 2.192772 1_555
Bi8 O85 2.272740 1_555
Bi8 O32 2.285479 1_565
Bi8 O19 2.302059 1_455
Bi8 O48 2.430080 1_465
Bi8 O86 2.713580 1_555
Bi9 O82 2.272728 1_555
Bi9 O31 2.285478 1_555
Bi9 O18 2.302062 1_555
Bi9 O49 2.430070 1_555
Bi9 O88 2.713591 1_555
Bi10 O84 2.272729 1_555
Bi10 O30 2.285489 1_555
Bi10 O21 2.302051 1_555
Bi10 O47 2.430072 1_555
Bi10 O87 2.713579 1_555
Bi11 O83 2.272729 1_555
Bi11 O33 2.285478 1_555
Bi11 O20 2.302062 1_555
Bi11 O46 2.430070 1_556
Bi11 O89 2.713580 1_555
Bi12 O81 2.272740 1_555
Bi12 O36 2.285479 1_555
Bi12 O23 2.302059 1_555
Bi12 O44 2.430080 1_555
Bi12 O74 2.713580 1_555
Bi13 O78 2.272728 1_555
Bi13 O35 2.285478 1_545
Bi13 O22 2.302062 1_555
Bi13 O45 2.430070 1_445
Bi13 O76 2.713591 1_555
Bi14 O80 2.272729 1_555
Bi14 O34 2.285489 1_555
Bi14 O25 2.302051 1_555
Bi14 O43 2.430072 1_555
Bi14 O75 2.713579 1_555
Bi15 O79 2.272729 1_555
Bi15 O37 2.285478 1_555
Bi15 O24 2.302062 1_556
Bi15 O42 2.430070 1_556
Bi15 O77 2.713580 1_555
Bi16 O69 2.272740 1_555
Bi16 O40 2.285479 1_655
Bi16 O27 2.302059 1_554
Bi16 O56 2.430080 1_654
Bi16 O70 2.713580 1_555
Bi17 O66 2.272728 1_555
Bi17 O39 2.285478 1_555
Bi17 O26 2.302062 1_555
Bi17 O57 2.430070 1_555
Bi17 O72 2.713591 1_555
Bi18 O68 2.272729 1_555
Bi18 O38 2.285489 1_555
Bi18 O29 2.302051 1_555
Bi18 O55 2.430072 1_555
Bi18 O71 2.713579 1_555
Bi19 O67 2.272729 1_555
Bi19 O41 2.285478 1_555
Bi19 O28 2.302062 1_555
Bi19 O54 2.430070 1_565
Bi19 O73 2.713580 1_555
Bi20 O89 2.272740 1_555
Bi20 O20 2.285479 1_555
Bi20 O31 2.302059 1_555
Bi20 O52 2.430080 1_555
Bi20 O82 2.713580 1_555
Bi21 O86 2.272728 1_555
Bi21 O19 2.285478 1_455
Bi21 O30 2.302062 1_555
Bi21 O53 2.430070 1_454
Bi21 O84 2.713591 1_555
Bi22 O88 2.272729 1_555
Bi22 O18 2.285489 1_555
Bi22 O33 2.302051 1_555
Bi22 O51 2.430072 1_555
Bi22 O83 2.713579 1_555
Bi23 O87 2.272729 1_555
Bi23 O21 2.285478 1_555
Bi23 O32 2.302062 1_565
Bi23 O50 2.430070 1_565
Bi23 O85 2.713580 1_555
Bi24 O77 2.272740 1_555
Bi24 O24 2.285479 1_556
Bi24 O35 2.302059 1_545
Bi24 O64 2.430080 1_546
Bi24 O78 2.713580 1_555
Bi25 O74 2.272728 1_555
Bi25 O23 2.285478 1_555
Bi25 O34 2.302062 1_555
Bi25 O65 2.430070 1_555
Bi25 O80 2.713591 1_555
Bi26 O76 2.272729 1_555
Bi26 O22 2.285489 1_555
Bi26 O37 2.302051 1_555
Bi26 O63 2.430072 1_555
Bi26 O79 2.713579 1_555
Bi27 O75 2.272729 1_555
Bi27 O25 2.285478 1_555
Bi27 O36 2.302062 1_555
Bi27 O62 2.430070 1_655
Bi27 O81 2.713580 1_555
Bi28 O73 2.272740 1_555
Bi28 O28 2.285479 1_555
Bi28 O39 2.302059 1_555
Bi28 O60 2.430080 1_555
Bi28 O66 2.713580 1_555
Bi29 O70 2.272728 1_555
Bi29 O27 2.285478 1_554
Bi29 O38 2.302062 1_555
Bi29 O61 2.430070 1_544
Bi29 O68 2.713591 1_555
Bi30 O72 2.272729 1_555
Bi30 O26 2.285489 1_555
Bi30 O41 2.302051 1_555
Bi30 O59 2.430072 1_555
Bi30 O67 2.713579 1_555
Bi31 O71 2.272729 1_555
Bi31 O29 2.285478 1_555
Bi31 O40 2.302062 1_655
Bi31 O58 2.430070 1_655
Bi31 O69 2.713580 1_555
