# generated using pymatgen
data_Ho6N8O33
_symmetry_space_group_name_H-M   'P 1'
_cell_length_a   9.21219097
_cell_length_b   10.23339242
_cell_length_c   10.87255471
_cell_angle_alpha   122.26305952
_cell_angle_beta   112.98871091
_cell_angle_gamma   88.47106012
_symmetry_Int_Tables_number   1
_chemical_formula_structural   Ho6N8O33
_chemical_formula_sum   'Ho6 N8 O33'
_cell_volume   775.82977049
_cell_formula_units_Z   1
loop_
 _symmetry_equiv_pos_site_id
 _symmetry_equiv_pos_as_xyz
  1  'x, y, z'
loop_
 _atom_site_type_symbol
 _atom_site_label
 _atom_site_symmetry_multiplicity
 _atom_site_fract_x
 _atom_site_fract_y
 _atom_site_fract_z
 _atom_site_occupancy
  Ho  Ho0  1  0.83982300  0.91665100  0.60252600  1
  Ho  Ho1  1  0.16017700  0.08334900  0.39747400  1
  Ho  Ho2  1  0.81419300  0.78833900  0.20327600  1
  Ho  Ho3  1  0.18580700  0.21166100  0.79672400  1
  Ho  Ho4  1  0.16316400  0.81576000  0.50587900  1
  Ho  Ho5  1  0.83683600  0.18424000  0.49412100  1
  N  N0  1  0.35504100  0.71679700  0.85877400  1
  N  N1  1  0.64495900  0.28320300  0.14122600  1
  N  N2  1  0.58011200  0.88077500  0.66891100  1
  N  N3  1  0.41988800  0.11922500  0.33108900  1
  N  N4  1  0.83736200  0.52269300  0.66448000  1
  N  N5  1  0.16263800  0.47730700  0.33552000  1
  N  N6  1  0.68202100  0.47099700  0.92227100  1
  N  N7  1  0.31797900  0.52900300  0.07772900  1
  O  O0  1  0.88330300  0.73153400  0.38841000  1
  O  O1  1  0.11669700  0.26846600  0.61159000  1
  O  O2  1  0.45347100  0.87483000  0.68519300  1
  O  O3  1  0.54652900  0.12517000  0.31480700  1
  O  O4  1  0.62034600  0.33065300  0.81327100  1
  O  O5  1  0.37965400  0.66934700  0.18672900  1
  O  O6  1  0.35966600  0.62641000  0.72596400  1
  O  O7  1  0.64033400  0.37359000  0.27403600  1
  O  O8  1  0.10924200  0.96253800  0.72128300  1
  O  O9  1  0.89075800  0.03746200  0.27871700  1
  O  O10  1  0.91832200  0.17141200  0.70692800  1
  O  O11  1  0.08167800  0.82858800  0.29307200  1
  O  O12  1  0.59842200  0.76346900  0.55120500  1
  O  O13  1  0.40157800  0.23653100  0.44879500  1
  O  O14  1  0.83602900  0.52830100  0.00316600  1
  O  O15  1  0.16397100  0.47169900  0.99683400  1
  O  O16  1  0.71260900  0.92525200  0.38522400  1
  O  O17  1  0.28739100  0.07474800  0.61477600  1
  O  O18  1  0.22718000  0.70097400  0.86962100  1
  O  O19  1  0.77282000  0.29902600  0.13037900  1
  O  O20  1  0.30533900  0.99407100  0.23061900  1
  O  O21  1  0.69466100  0.00592900  0.76938100  1
  O  O22  1  0.00000000  0.00000000  0.50000000  1
  O  O23  1  0.47701000  0.82380400  0.98034300  1
  O  O24  1  0.52299000  0.17619600  0.01965700  1
  O  O25  1  0.91703100  0.46721300  0.58066800  1
  O  O26  1  0.08296900  0.53278700  0.41933200  1
  O  O27  1  0.84211400  0.66620500  0.74623400  1
  O  O28  1  0.15788600  0.33379500  0.25376600  1
  O  O29  1  0.59519700  0.57310800  0.96569900  1
  O  O30  1  0.40480300  0.42689200  0.03430100  1
  O  O31  1  0.75258800  0.42130900  0.65921500  1
  O  O32  1  0.24741200  0.57869100  0.34078500  1
loop_
_geom_bond_atom_site_label_1
_geom_bond_atom_site_label_2
_geom_bond_distance
_geom_bond_site_symmetry_2
Ho0 O10 2.215459 1_565
Ho0 O8 2.226977 1_655
Ho0 O16 2.239854 1_555
Ho0 O0 2.268967 1_555
Ho0 O21 2.444239 1_565
Ho0 O12 2.448879 1_555
Ho0 O22 2.552350 1_665
Ho1 O11 2.215459 1_545
Ho1 O9 2.226977 1_455
Ho1 O17 2.239854 1_555
Ho1 O1 2.268967 1_555
Ho1 O20 2.444239 1_545
Ho1 O13 2.448879 1_555
Ho1 O22 2.552350 1_555
Ho2 O11 2.222712 1_655
Ho2 O0 2.241298 1_555
Ho2 O9 2.254145 1_565
Ho2 O16 2.273582 1_555
Ho2 O29 2.384566 1_554
Ho2 O14 2.446952 1_555
Ho2 O22 2.540403 1_665
Ho3 O10 2.222712 1_455
Ho3 O1 2.241298 1_555
Ho3 O8 2.254145 1_545
Ho3 O17 2.273582 1_555
Ho3 O30 2.384566 1_556
Ho3 O15 2.446952 1_555
Ho3 O22 2.540403 1_555
Ho4 O11 2.212816 1_555
Ho4 O8 2.258554 1_555
Ho4 O0 2.322117 1_455
Ho4 O17 2.342879 1_565
Ho4 O22 2.391759 1_565
Ho4 O32 2.459364 1_555
Ho4 O2 2.464556 1_555
Ho4 O26 2.545345 1_555
Ho5 O10 2.212816 1_555
Ho5 O9 2.258554 1_555
Ho5 O1 2.322117 1_655
Ho5 O16 2.342879 1_545
Ho5 O22 2.391759 1_655
Ho5 O31 2.459364 1_555
Ho5 O3 2.464556 1_555
Ho5 O25 2.545345 1_555
N0 O6 1.249990 1_555
N0 O18 1.251638 1_555
N0 O23 1.252609 1_555
N1 O7 1.249990 1_555
N1 O19 1.251638 1_555
N1 O24 1.252609 1_555
N2 O2 1.254071 1_555
N2 O12 1.274737 1_555
N2 O21 1.274842 1_565
N3 O3 1.254071 1_555
N3 O13 1.274737 1_555
N3 O20 1.274842 1_545
N4 O27 1.236204 1_555
N4 O31 1.278472 1_555
N4 O25 1.280304 1_555
N5 O28 1.236204 1_555
N5 O32 1.278472 1_555
N5 O26 1.280304 1_555
N6 O4 1.220828 1_555
N6 O14 1.284283 1_556
N6 O29 1.295466 1_555
N7 O5 1.220828 1_555
N7 O15 1.284283 1_554
N7 O30 1.295466 1_555
