# generated using pymatgen
data_Rb14ZnGe16
_symmetry_space_group_name_H-M   'P 1'
_cell_length_a   7.37332109
_cell_length_b   14.72698820
_cell_length_c   21.31826720
_cell_angle_alpha   90.00000000
_cell_angle_beta   90.00000000
_cell_angle_gamma   90.00000000
_symmetry_Int_Tables_number   1
_chemical_formula_structural   Rb14ZnGe16
_chemical_formula_sum   'Rb28 Zn2 Ge32'
_cell_volume   2314.88268726
_cell_formula_units_Z   2
loop_
 _symmetry_equiv_pos_site_id
 _symmetry_equiv_pos_as_xyz
  1  'x, y, z'
loop_
 _atom_site_type_symbol
 _atom_site_label
 _atom_site_symmetry_multiplicity
 _atom_site_fract_x
 _atom_site_fract_y
 _atom_site_fract_z
 _atom_site_occupancy
  Rb  Rb0  1  0.46259993  0.89012380  0.59041571  1
  Rb  Rb1  1  0.46259993  0.89012380  0.40958429  1
  Rb  Rb2  1  0.53740007  0.39012380  0.90958429  1
  Rb  Rb3  1  0.53740007  0.39012380  0.09041571  1
  Rb  Rb4  1  0.43244453  0.63458717  0.64516589  1
  Rb  Rb5  1  0.43244453  0.63458717  0.35483411  1
  Rb  Rb6  1  0.56755547  0.13458717  0.85483411  1
  Rb  Rb7  1  0.56755547  0.13458717  0.14516589  1
  Rb  Rb8  1  0.69674584  0.13584106  0.65478032  1
  Rb  Rb9  1  0.69674584  0.13584106  0.34521968  1
  Rb  Rb10  1  0.30325416  0.63584106  0.84521968  1
  Rb  Rb11  1  0.30325416  0.63584106  0.15478032  1
  Rb  Rb12  1  0.95538278  0.81508574  0.65782475  1
  Rb  Rb13  1  0.95538278  0.81508574  0.34217525  1
  Rb  Rb14  1  0.04461722  0.31508574  0.84217525  1
  Rb  Rb15  1  0.04461722  0.31508574  0.15782475  1
  Rb  Rb16  1  0.85226331  0.54401985  0.74842687  1
  Rb  Rb17  1  0.85226331  0.54401985  0.25157313  1
  Rb  Rb18  1  0.14773669  0.04401985  0.75157313  1
  Rb  Rb19  1  0.14773669  0.04401985  0.24842687  1
  Rb  Rb20  1  0.98520770  0.86763985  0.88644525  1
  Rb  Rb21  1  0.98520770  0.86763985  0.11355475  1
  Rb  Rb22  1  0.01479230  0.36763985  0.61355475  1
  Rb  Rb23  1  0.01479230  0.36763985  0.38644525  1
  Rb  Rb24  1  0.53623804  0.50429215  0.50000000  1
  Rb  Rb25  1  0.46376196  0.00429215  0.00000000  1
  Rb  Rb26  1  0.41832632  0.21300101  0.50000000  1
  Rb  Rb27  1  0.58167368  0.71300101  0.00000000  1
  Zn  Zn0  1  0.97299390  0.88543507  0.50000000  1
  Zn  Zn1  1  0.02700610  0.38543507  0.00000000  1
  Ge  Ge0  1  0.94627534  0.16867199  0.50000000  1
  Ge  Ge1  1  0.05372466  0.66867199  0.00000000  1
  Ge  Ge2  1  0.75613814  0.02593800  0.50000000  1
  Ge  Ge3  1  0.24386186  0.52593800  0.00000000  1
  Ge  Ge4  1  0.92801014  0.53441306  0.93700522  1
  Ge  Ge5  1  0.92801014  0.53441306  0.06299478  1
  Ge  Ge6  1  0.07198986  0.03441306  0.56299478  1
  Ge  Ge7  1  0.07198986  0.03441306  0.43700522  1
  Ge  Ge8  1  0.78076895  0.72973750  0.50000000  1
  Ge  Ge9  1  0.21923105  0.22973750  0.00000000  1
  Ge  Ge10  1  0.15331789  0.72878755  0.50000000  1
  Ge  Ge11  1  0.84668211  0.22878755  0.00000000  1
  Ge  Ge12  1  0.96623532  0.61023910  0.56177476  1
  Ge  Ge13  1  0.96623532  0.61023910  0.43822524  1
  Ge  Ge14  1  0.03376468  0.11023910  0.93822524  1
  Ge  Ge15  1  0.03376468  0.11023910  0.06177476  1
  Ge  Ge16  1  0.48528252  0.87337483  0.85889863  1
  Ge  Ge17  1  0.48528252  0.87337483  0.14110137  1
  Ge  Ge18  1  0.51471748  0.37337483  0.64110137  1
  Ge  Ge19  1  0.51471748  0.37337483  0.35889863  1
  Ge  Ge20  1  0.64461442  0.93771005  0.75927575  1
  Ge  Ge21  1  0.64461442  0.93771005  0.24072425  1
  Ge  Ge22  1  0.35538558  0.43771005  0.74072425  1
  Ge  Ge23  1  0.35538558  0.43771005  0.25927575  1
  Ge  Ge24  1  0.35840668  0.83305678  0.74892865  1
  Ge  Ge25  1  0.35840668  0.83305678  0.25107135  1
  Ge  Ge26  1  0.64159332  0.33305678  0.75107135  1
  Ge  Ge27  1  0.64159332  0.33305678  0.24892865  1
  Ge  Ge28  1  0.66667723  0.76608808  0.78505714  1
  Ge  Ge29  1  0.66667723  0.76608808  0.21494286  1
  Ge  Ge30  1  0.33332277  0.26608808  0.71494286  1
  Ge  Ge31  1  0.33332277  0.26608808  0.28505714  1
loop_
_geom_bond_atom_site_label_1
_geom_bond_atom_site_label_2
_geom_bond_distance
_geom_bond_site_symmetry_2
Rb12 Zn0 3.522843 1_555
Rb13 Zn0 3.522843 1_555
Rb14 Zn1 3.522843 1_556
Rb15 Zn1 3.522843 1_555
Ge0 Ge2 2.526662 1_555
Ge0 Ge7 2.563617 1_655
Ge0 Ge6 2.563617 1_655
Ge0 Rb26 3.541278 1_655
Ge0 Rb8 3.808745 1_555
Ge0 Rb9 3.808745 1_555
Ge0 Rb23 3.834255 1_655
Ge0 Rb22 3.834255 1_655
Ge0 Rb26 3.947100 1_555
Ge1 Ge3 2.526662 1_555
Ge1 Ge5 2.563617 1_455
Ge1 Ge4 2.563617 1_454
Ge1 Rb27 3.541278 1_455
Ge1 Rb10 3.808745 1_554
Ge1 Rb11 3.808745 1_555
Ge1 Rb21 3.834255 1_455
Ge1 Rb20 3.834255 1_454
Ge1 Rb27 3.947100 1_555
Ge2 Zn0 2.614987 1_545
Ge2 Ge7 2.691232 1_655
Ge2 Ge6 2.691232 1_655
Ge2 Rb1 3.521397 1_545
Ge2 Rb0 3.521397 1_545
Ge2 Rb8 3.701233 1_555
Ge2 Rb9 3.701233 1_555
Ge2 Rb26 3.713946 1_555
Ge3 Zn1 2.614987 1_555
Ge3 Ge4 2.691232 1_454
Ge3 Ge5 2.691232 1_455
Ge3 Rb3 3.521397 1_555
Ge3 Rb2 3.521397 1_554
Ge3 Rb10 3.701233 1_554
Ge3 Rb11 3.701233 1_555
Ge3 Rb27 3.713946 1_555
Ge4 Zn1 2.673931 1_656
Ge4 Ge5 2.685879 1_556
Ge4 Rb2 3.626576 1_555
Ge4 Rb10 3.703389 1_655
Ge4 Rb27 3.904080 1_556
Ge4 Rb14 3.906307 1_655
Ge4 Rb16 4.061239 1_555
Ge5 Zn1 2.673931 1_655
Ge5 Rb3 3.626576 1_555
Ge5 Rb11 3.703389 1_655
Ge5 Rb27 3.904080 1_555
Ge5 Rb15 3.906307 1_655
Ge5 Rb17 4.061239 1_555
Ge6 Zn0 2.673931 1_445
Ge6 Ge7 2.685879 1_555
Ge6 Rb0 3.626576 1_545
Ge6 Rb8 3.703389 1_455
Ge6 Rb26 3.904080 1_555
Ge6 Rb12 3.906307 1_445
Ge6 Rb18 4.061239 1_555
Ge7 Zn0 2.673931 1_445
Ge7 Rb1 3.626576 1_545
Ge7 Rb9 3.703389 1_455
Ge7 Rb26 3.904080 1_555
Ge7 Rb13 3.906307 1_445
Ge7 Rb19 4.061239 1_555
Ge8 Zn0 2.695643 1_555
Ge8 Rb24 3.778108 1_555
Ge8 Rb12 3.815451 1_555
Ge8 Rb13 3.815451 1_555
Ge8 Rb1 3.846804 1_555
Ge8 Rb0 3.846804 1_555
Ge9 Zn1 2.695643 1_555
Ge9 Rb25 3.778108 1_555
Ge9 Rb14 3.815451 1_554
Ge9 Rb15 3.815451 1_555
Ge9 Rb3 3.846804 1_555
Ge9 Rb2 3.846804 1_554
Ge10 Ge13 2.585564 1_455
Ge10 Ge12 2.585564 1_455
Ge10 Zn0 2.662668 1_455
Ge10 Ge8 2.746959 1_455
Ge10 Rb1 3.815892 1_555
Ge10 Rb0 3.815892 1_555
Ge10 Rb12 3.881415 1_455
Ge10 Rb13 3.881415 1_455
Ge10 Rb4 3.967037 1_555
Ge10 Rb5 3.967037 1_555
Ge11 Ge15 2.585564 1_655
Ge11 Ge14 2.585564 1_654
Ge11 Zn1 2.662668 1_655
Ge11 Ge9 2.746959 1_655
Ge11 Rb3 3.815892 1_555
Ge11 Rb2 3.815892 1_554
Ge11 Rb14 3.881415 1_654
Ge11 Rb15 3.881415 1_655
Ge11 Rb7 3.967037 1_555
Ge11 Rb6 3.967037 1_554
Ge12 Ge8 2.588716 1_555
Ge12 Ge13 2.633862 1_555
Ge12 Rb12 3.646927 1_555
Ge12 Rb22 3.756498 1_655
Ge12 Rb24 3.771061 1_555
Ge12 Rb4 3.886575 1_655
Ge13 Ge8 2.588716 1_555
Ge13 Rb13 3.646927 1_555
Ge13 Rb23 3.756498 1_655
Ge13 Rb24 3.771061 1_555
Ge13 Rb5 3.886575 1_655
Ge14 Ge9 2.588716 1_556
Ge14 Ge15 2.633862 1_556
Ge14 Rb14 3.646927 1_555
Ge14 Rb20 3.756498 1_445
Ge14 Rb25 3.771061 1_556
Ge14 Rb6 3.886575 1_455
Ge15 Ge9 2.588716 1_555
Ge15 Rb15 3.646927 1_555
Ge15 Rb21 3.756498 1_445
Ge15 Rb25 3.771061 1_555
Ge15 Rb7 3.886575 1_455
Ge16 Ge24 2.593025 1_555
Ge16 Ge28 2.600636 1_555
Ge16 Ge20 2.605442 1_555
Ge16 Rb25 3.576411 1_566
Ge16 Rb20 3.733549 1_555
Ge16 Rb20 3.734639 1_455
Ge16 Rb10 3.758127 1_555
Ge16 Rb27 3.889939 1_556
Ge16 Rb6 3.895371 1_565
Ge17 Ge25 2.593025 1_555
Ge17 Ge29 2.600636 1_555
Ge17 Ge21 2.605442 1_555
Ge17 Rb25 3.576411 1_565
Ge17 Rb21 3.733549 1_555
Ge17 Rb21 3.734639 1_455
Ge17 Rb11 3.758127 1_555
Ge17 Rb27 3.889939 1_555
Ge17 Rb7 3.895371 1_565
Ge18 Ge26 2.593025 1_555
Ge18 Ge30 2.600636 1_555
Ge18 Ge22 2.605442 1_555
Ge18 Rb24 3.576411 1_555
Ge18 Rb22 3.733549 1_555
Ge18 Rb22 3.734639 1_655
Ge18 Rb8 3.758127 1_555
Ge18 Rb26 3.889939 1_555
Ge18 Rb4 3.895371 1_555
Ge19 Ge27 2.593025 1_555
Ge19 Ge31 2.600636 1_555
Ge19 Ge23 2.605442 1_555
Ge19 Rb24 3.576411 1_555
Ge19 Rb23 3.733549 1_555
Ge19 Rb23 3.734639 1_655
Ge19 Rb9 3.758127 1_555
Ge19 Rb26 3.889939 1_555
Ge19 Rb5 3.895371 1_555
Ge20 Ge28 2.591654 1_555
Ge20 Ge24 2.622482 1_555
Ge20 Rb6 3.588777 1_565
Ge20 Rb12 3.631700 1_555
Ge20 Rb8 3.691099 1_565
Ge20 Rb20 3.836823 1_555
Ge20 Rb0 3.905229 1_555
Ge20 Rb18 3.987529 1_565
Ge20 Rb18 4.029874 1_665
Ge21 Ge29 2.591654 1_555
Ge21 Ge25 2.622482 1_555
Ge21 Rb7 3.588777 1_565
Ge21 Rb13 3.631700 1_555
Ge21 Rb9 3.691099 1_565
Ge21 Rb21 3.836823 1_555
Ge21 Rb1 3.905229 1_555
Ge21 Rb19 3.987529 1_565
Ge21 Rb19 4.029874 1_665
Ge22 Ge30 2.591654 1_555
Ge22 Ge26 2.622482 1_555
Ge22 Rb4 3.588777 1_555
Ge22 Rb14 3.631700 1_555
Ge22 Rb10 3.691099 1_555
Ge22 Rb22 3.836823 1_555
Ge22 Rb2 3.905229 1_555
Ge22 Rb16 3.987529 1_555
Ge22 Rb16 4.029874 1_455
Ge23 Ge31 2.591654 1_555
Ge23 Ge27 2.622482 1_555
Ge23 Rb5 3.588777 1_555
Ge23 Rb15 3.631700 1_555
Ge23 Rb11 3.691099 1_555
Ge23 Rb23 3.836823 1_555
Ge23 Rb3 3.905229 1_555
Ge23 Rb17 3.987529 1_555
Ge23 Rb17 4.029874 1_455
Ge24 Ge28 2.594670 1_555
Ge24 Rb18 3.473983 1_565
Ge24 Rb12 3.559867 1_455
Ge24 Rb0 3.565902 1_555
Ge24 Rb10 3.579761 1_555
Ge24 Rb4 3.705975 1_555
Ge24 Rb20 4.052863 1_455
Ge25 Ge29 2.594670 1_555
Ge25 Rb19 3.473983 1_565
Ge25 Rb13 3.559867 1_455
Ge25 Rb1 3.565902 1_555
Ge25 Rb11 3.579761 1_555
Ge25 Rb5 3.705975 1_555
Ge25 Rb21 4.052863 1_455
Ge26 Ge30 2.594670 1_555
Ge26 Rb16 3.473983 1_555
Ge26 Rb14 3.559867 1_655
Ge26 Rb2 3.565902 1_555
Ge26 Rb8 3.579761 1_555
Ge26 Rb6 3.705975 1_555
Ge26 Rb22 4.052863 1_655
Ge27 Ge31 2.594670 1_555
Ge27 Rb17 3.473983 1_555
Ge27 Rb15 3.559867 1_655
Ge27 Rb3 3.565902 1_555
Ge27 Rb9 3.579761 1_555
Ge27 Rb7 3.705975 1_555
Ge27 Rb23 4.052863 1_655
Ge28 Rb12 3.522656 1_555
Ge28 Rb20 3.524834 1_555
Ge28 Rb10 3.536197 1_555
Ge28 Rb16 3.630119 1_555
Ge28 Rb4 3.953100 1_555
Ge29 Rb13 3.522656 1_555
Ge29 Rb21 3.524834 1_555
Ge29 Rb11 3.536197 1_555
Ge29 Rb17 3.630119 1_555
Ge29 Rb5 3.953100 1_555
Ge30 Rb14 3.522656 1_555
Ge30 Rb22 3.524834 1_555
Ge30 Rb8 3.536197 1_555
Ge30 Rb18 3.630119 1_555
Ge30 Rb6 3.953100 1_555
Ge31 Rb15 3.522656 1_555
Ge31 Rb23 3.524834 1_555
Ge31 Rb9 3.536197 1_555
Ge31 Rb19 3.630119 1_555
Ge31 Rb7 3.953100 1_555
