# generated using pymatgen
data_LiYMg14
_symmetry_space_group_name_H-M   'P 1'
_cell_length_a   6.50439011
_cell_length_b   6.50438956
_cell_length_c   10.30000621
_cell_angle_alpha   90.00000000
_cell_angle_beta   90.00000000
_cell_angle_gamma   120.00000274
_symmetry_Int_Tables_number   1
_chemical_formula_structural   LiYMg14
_chemical_formula_sum   'Li1 Y1 Mg14'
_cell_volume   377.38204291
_cell_formula_units_Z   1
loop_
 _symmetry_equiv_pos_site_id
 _symmetry_equiv_pos_as_xyz
  1  'x, y, z'
loop_
 _atom_site_type_symbol
 _atom_site_label
 _atom_site_symmetry_multiplicity
 _atom_site_fract_x
 _atom_site_fract_y
 _atom_site_fract_z
 _atom_site_occupancy
  Li  Li0  1  0.16666700  0.33333300  0.62500000  1
  Y  Y0  1  0.16666700  0.33333300  0.12500000  1
  Mg  Mg0  1  0.17547289  0.83773594  0.12500000  1
  Mg  Mg1  1  0.16852981  0.83426441  0.62500000  1
  Mg  Mg2  1  0.66226406  0.32452711  0.12500000  1
  Mg  Mg3  1  0.66573559  0.33147019  0.62500000  1
  Mg  Mg4  1  0.66226406  0.83773594  0.12500000  1
  Mg  Mg5  1  0.66573559  0.83426441  0.62500000  1
  Mg  Mg6  1  0.33293354  0.16706646  0.37957204  1
  Mg  Mg7  1  0.33293354  0.16706646  0.87042796  1
  Mg  Mg8  1  0.33293354  0.66586808  0.37957204  1
  Mg  Mg9  1  0.33293354  0.66586808  0.87042796  1
  Mg  Mg10  1  0.83413192  0.16706646  0.37957204  1
  Mg  Mg11  1  0.83413192  0.16706646  0.87042796  1
  Mg  Mg12  1  0.83333300  0.66666700  0.37175335  1
  Mg  Mg13  1  0.83333300  0.66666700  0.87824665  1
loop_
_geom_bond_atom_site_label_1
_geom_bond_atom_site_label_2
_geom_bond_distance
_geom_bond_site_symmetry_2
Li0 Mg7 3.146269 1_555
Li0 Mg6 3.146269 1_555
Li0 Mg8 3.146276 1_555
Li0 Mg9 3.146276 1_555
Li0 Mg10 3.146276 1_455
Li0 Mg11 3.146276 1_455
Li0 Mg1 3.252212 1_545
Li0 Mg5 3.252212 1_555
Li0 Mg5 3.252212 1_445
Li0 Mg1 3.252212 1_555
Li0 Mg3 3.252212 1_555
Li0 Mg3 3.252212 1_455
Mg0 Mg2 3.166279 1_565
Mg0 Mg4 3.166280 1_555
Mg0 Mg12 3.189651 1_455
Mg0 Mg13 3.189651 1_454
Mg0 Mg8 3.212313 1_555
Mg0 Mg9 3.212313 1_554
Mg0 Mg6 3.212319 1_565
Mg0 Mg7 3.212319 1_564
Mg0 Y0 3.252573 1_555
Mg0 Y0 3.252573 1_565
Mg0 Mg2 3.338110 1_455
Mg0 Mg4 3.338110 1_455
Mg1 Mg9 3.147191 1_555
Mg1 Mg8 3.147191 1_555
Mg1 Mg6 3.147198 1_565
Mg1 Mg7 3.147198 1_565
Mg1 Mg12 3.220107 1_455
Mg1 Mg13 3.220107 1_455
Mg1 Mg3 3.234020 1_565
Mg1 Mg5 3.234020 1_555
Mg1 Mg3 3.270369 1_455
Mg1 Mg5 3.270370 1_455
Mg2 Mg4 3.166279 1_545
Mg2 Mg6 3.212319 1_555
Mg2 Mg7 3.212319 1_554
Mg2 Y0 3.252573 1_655
Mg2 Y0 3.252573 1_555
Mg2 Mg4 3.338110 1_555
Mg3 Mg6 3.147198 1_555
Mg3 Mg7 3.147198 1_555
Mg3 Mg5 3.234020 1_545
Mg3 Mg5 3.270369 1_555
Mg4 Mg8 3.212319 1_555
Mg4 Mg9 3.212319 1_554
Mg4 Y0 3.252573 1_555
Mg4 Y0 3.252573 1_665
Mg5 Mg8 3.147198 1_555
Mg5 Mg9 3.147198 1_555
Mg6 Y0 3.222430 1_555
Mg6 Mg8 3.244400 1_555
Mg6 Mg8 3.259990 1_545
Mg7 Y0 3.222430 1_556
Mg7 Mg9 3.244400 1_555
Mg7 Mg9 3.259990 1_545
Mg8 Y0 3.222437 1_555
Mg9 Y0 3.222437 1_556
Mg10 Mg3 3.147191 1_555
Mg10 Mg5 3.147198 1_545
Mg10 Mg2 3.212313 1_555
Mg10 Mg4 3.212319 1_545
Mg10 Y0 3.222437 1_655
Mg10 Mg8 3.244400 1_655
Mg10 Mg6 3.244400 1_655
Mg10 Mg12 3.253195 1_545
Mg10 Mg12 3.253195 1_555
Mg10 Mg8 3.259990 1_545
Mg10 Mg6 3.259990 1_555
Mg11 Mg3 3.147191 1_555
Mg11 Mg5 3.147198 1_545
Mg11 Mg2 3.212313 1_556
Mg11 Mg4 3.212319 1_546
Mg11 Y0 3.222437 1_656
Mg11 Mg9 3.244400 1_655
Mg11 Mg7 3.244400 1_655
Mg11 Mg13 3.253195 1_545
Mg11 Mg13 3.253195 1_555
Mg11 Mg9 3.259990 1_545
Mg11 Mg7 3.259990 1_555
Mg12 Mg4 3.189644 1_555
Mg12 Mg2 3.189651 1_555
Mg12 Mg5 3.220101 1_555
Mg12 Mg3 3.220107 1_555
Mg12 Mg6 3.253195 1_665
Mg12 Mg6 3.253195 1_555
Mg12 Mg8 3.253195 1_655
Mg12 Mg8 3.253195 1_555
Mg13 Mg4 3.189644 1_556
Mg13 Mg2 3.189651 1_556
Mg13 Mg5 3.220101 1_555
Mg13 Mg3 3.220107 1_555
Mg13 Mg7 3.253195 1_665
Mg13 Mg7 3.253195 1_555
Mg13 Mg9 3.253195 1_655
Mg13 Mg9 3.253195 1_555
