# generated using pymatgen
data_Ca4NdB3O10
_symmetry_space_group_name_H-M   'P 1'
_cell_length_a   9.06719553
_cell_length_b   9.06719553
_cell_length_c   3.63080153
_cell_angle_alpha   84.83932977
_cell_angle_beta   84.83932977
_cell_angle_gamma   126.32934771
_symmetry_Int_Tables_number   1
_chemical_formula_structural   Ca4NdB3O10
_chemical_formula_sum   'Ca4 Nd1 B3 O10'
_cell_volume   235.65915711
_cell_formula_units_Z   1
loop_
 _symmetry_equiv_pos_site_id
 _symmetry_equiv_pos_as_xyz
  1  'x, y, z'
loop_
 _atom_site_type_symbol
 _atom_site_label
 _atom_site_symmetry_multiplicity
 _atom_site_fract_x
 _atom_site_fract_y
 _atom_site_fract_z
 _atom_site_occupancy
  Ca  Ca0  1  0.44882300  0.67547800  0.72281600  1
  Ca  Ca1  1  0.67547800  0.44882300  0.72281600  1
  Ca  Ca2  1  0.75724600  0.12063600  0.05077600  1
  Ca  Ca3  1  0.12063600  0.75724600  0.05077600  1
  Nd  Nd0  1  0.20442600  0.20442600  0.39264200  1
  B  B0  1  0.82554900  0.82554900  0.09652900  1
  B  B1  1  0.44742500  0.05734100  0.47647100  1
  B  B2  1  0.05734100  0.44742500  0.47647100  1
  O  O0  1  0.25828400  0.96861600  0.47547500  1
  O  O1  1  0.96861600  0.25828400  0.47547500  1
  O  O2  1  0.38111600  0.38111600  0.81153200  1
  O  O3  1  0.66569900  0.81515700  0.14399600  1
  O  O4  1  0.81515700  0.66569900  0.14399600  1
  O  O5  1  0.99855000  0.99855000  0.00072900  1
  O  O6  1  0.50492100  0.96655300  0.66968500  1
  O  O7  1  0.96655300  0.50492100  0.66968500  1
  O  O8  1  0.58002300  0.23765700  0.28051300  1
  O  O9  1  0.23765700  0.58002300  0.28051300  1
loop_
_geom_bond_atom_site_label_1
_geom_bond_atom_site_label_2
_geom_bond_distance
_geom_bond_site_symmetry_2
Ca0 O2 2.339385 1_555
Ca0 O9 2.353514 1_556
Ca0 O6 2.358315 1_555
Ca0 O3 2.390489 1_555
Ca0 O3 2.397498 1_556
Ca0 O9 2.415320 1_555
Ca1 O2 2.339385 1_555
Ca1 O8 2.353514 1_556
Ca1 O7 2.358315 1_555
Ca1 O4 2.390489 1_555
Ca1 O4 2.397498 1_556
Ca1 O8 2.415320 1_555
Ca2 O3 2.352065 1_545
Ca2 O1 2.360208 1_554
Ca2 O1 2.377453 1_555
Ca2 O6 2.496161 1_544
Ca2 O8 2.518346 1_555
Ca2 O6 2.637987 1_545
Ca3 O4 2.352065 1_455
Ca3 O0 2.360208 1_554
Ca3 O0 2.377453 1_555
Ca3 O7 2.496161 1_454
Ca3 O9 2.518346 1_555
Ca3 O7 2.637987 1_455
Nd0 O2 2.298273 1_555
Nd0 O2 2.308177 1_554
Nd0 O5 2.412678 1_445
Nd0 O1 2.459358 1_455
Nd0 O0 2.459358 1_545
Nd0 O5 2.496437 1_446
B0 O4 1.389115 1_555
B0 O3 1.389115 1_555
B0 O5 1.389402 1_555
B1 O6 1.382732 1_545
B1 O8 1.390178 1_555
B1 O0 1.398316 1_545
B2 O7 1.382732 1_455
B2 O9 1.390178 1_555
B2 O1 1.398316 1_455
