# generated using pymatgen
data_Ti2ZnO4
_symmetry_space_group_name_H-M   'P 1'
_cell_length_a   6.01701042
_cell_length_b   6.01701042
_cell_length_c   14.92473300
_cell_angle_alpha   90.00000000
_cell_angle_beta   90.00000000
_cell_angle_gamma   120.00000462
_symmetry_Int_Tables_number   1
_chemical_formula_structural   Ti2ZnO4
_chemical_formula_sum   'Ti12 Zn6 O24'
_cell_volume   467.94919997
_cell_formula_units_Z   6
loop_
 _symmetry_equiv_pos_site_id
 _symmetry_equiv_pos_as_xyz
  1  'x, y, z'
loop_
 _atom_site_type_symbol
 _atom_site_label
 _atom_site_symmetry_multiplicity
 _atom_site_fract_x
 _atom_site_fract_y
 _atom_site_fract_z
 _atom_site_occupancy
  Ti  Ti0  1  0.98692300  0.49346100  0.16730900  1
  Ti  Ti1  1  0.50653900  0.01307700  0.16730900  1
  Ti  Ti2  1  0.33467500  0.16733700  0.49950500  1
  Ti  Ti3  1  0.50653900  0.49346100  0.16730900  1
  Ti  Ti4  1  0.66666700  0.33333300  0.33986100  1
  Ti  Ti5  1  0.83266300  0.66532500  0.49950500  1
  Ti  Ti6  1  0.69530500  0.84765300  0.82867300  1
  Ti  Ti7  1  0.83266300  0.16733700  0.49950500  1
  Ti  Ti8  1  0.15234700  0.84765300  0.82867300  1
  Ti  Ti9  1  0.00000000  0.00000000  0.67137400  1
  Ti  Ti10  1  0.15234700  0.30469500  0.82867300  1
  Ti  Ti11  1  0.66666700  0.33333300  0.94980800  1
  Zn  Zn0  1  0.00000000  0.00000000  0.04911400  1
  Zn  Zn1  1  0.33333300  0.66666700  0.36951200  1
  Zn  Zn2  1  0.33333300  0.66666700  0.00153900  1
  Zn  Zn3  1  0.66666700  0.33333300  0.70133200  1
  Zn  Zn4  1  0.00000000  0.00000000  0.29264200  1
  Zn  Zn5  1  0.33333300  0.66666700  0.63089500  1
  O  O0  1  0.17801500  0.35603000  0.09438100  1
  O  O1  1  0.33333300  0.66666700  0.23850100  1
  O  O2  1  0.17801500  0.82198500  0.09438100  1
  O  O3  1  0.64397000  0.82198500  0.09438100  1
  O  O4  1  0.36076100  0.18038000  0.25117600  1
  O  O5  1  0.50938200  0.01876300  0.42031800  1
  O  O6  1  0.81962000  0.18038000  0.25117600  1
  O  O7  1  0.66666700  0.33333300  0.07844500  1
  O  O8  1  0.50938200  0.49061800  0.42031800  1
  O  O9  1  0.66666700  0.33333300  0.57163300  1
  O  O10  1  0.81962000  0.63923900  0.25117600  1
  O  O11  1  0.98123700  0.49061800  0.42031800  1
  O  O12  1  0.69265500  0.84632700  0.57967900  1
  O  O13  1  0.83929600  0.67859200  0.74818800  1
  O  O14  1  0.15367300  0.84632700  0.57967900  1
  O  O15  1  0.00000000  0.00000000  0.42658300  1
  O  O16  1  0.00000000  0.00000000  0.91580400  1
  O  O17  1  0.83929600  0.16070400  0.74818800  1
  O  O18  1  0.15367300  0.30734500  0.57967900  1
  O  O19  1  0.32140800  0.16070400  0.74818800  1
  O  O20  1  0.01063300  0.50531600  0.91098000  1
  O  O21  1  0.33333300  0.66666700  0.76346600  1
  O  O22  1  0.49468400  0.50531600  0.91098000  1
  O  O23  1  0.49468400  0.98936700  0.91098000  1
loop_
_geom_bond_atom_site_label_1
_geom_bond_atom_site_label_2
_geom_bond_distance
_geom_bond_site_symmetry_2
O0 Zn0 1.974415 1_555
O0 Ti0 2.035026 1_455
O0 Ti3 2.035030 1_555
O0 Zn2 2.130768 1_555
O1 Zn1 1.955304 1_555
O1 Ti0 2.094599 1_455
O1 Ti1 2.094599 1_565
O1 Ti3 2.094608 1_555
O2 Zn0 1.974415 1_565
O2 Ti0 2.035030 1_455
O2 Ti1 2.035030 1_565
O2 Zn2 2.130764 1_555
O3 Zn0 1.974415 1_665
O3 Ti1 2.035026 1_565
O3 Ti3 2.035030 1_555
O3 Zn2 2.130768 1_555
O4 Zn4 1.979131 1_555
O4 Ti3 2.057301 1_555
O4 Ti1 2.057301 1_555
O4 Ti4 2.071927 1_555
O5 Zn1 1.985247 1_545
O5 Ti4 2.031958 1_555
O5 Ti7 2.059307 1_555
O5 Ti2 2.059308 1_555
O6 Zn4 1.979127 1_655
O6 Ti0 2.057301 1_555
O6 Ti1 2.057301 1_555
O6 Ti4 2.071927 1_555
O7 Ti11 1.919873 1_554
O7 Ti0 2.131653 1_555
O7 Ti1 2.131653 1_555
O7 Ti3 2.131653 1_555
O8 Zn1 1.985257 1_555
O8 Ti4 2.031959 1_555
O8 Ti5 2.059307 1_555
O8 Ti2 2.059307 1_555
O9 Zn3 1.935723 1_555
O9 Ti5 2.037556 1_555
O9 Ti2 2.037556 1_555
O9 Ti7 2.037556 1_555
O10 Zn4 1.979131 1_665
O10 Ti3 2.057301 1_555
O10 Ti0 2.057301 1_555
O10 Ti4 2.071927 1_555
O11 Zn1 1.985247 1_655
O11 Ti4 2.031958 1_555
O11 Ti7 2.059307 1_555
O11 Ti5 2.059308 1_555
O12 Zn5 2.022402 1_555
O12 Ti7 2.060360 1_565
O12 Ti5 2.060360 1_555
O12 Ti9 2.106605 1_665
O13 Zn3 1.930237 1_555
O13 Ti8 2.027230 1_655
O13 Ti6 2.027234 1_555
O13 Ti9 2.029611 1_665
O14 Zn5 2.022393 1_555
O14 Ti2 2.060360 1_565
O14 Ti5 2.060360 1_455
O14 Ti9 2.106609 1_565
O15 Zn4 1.999034 1_555
O15 Ti7 2.055685 1_455
O15 Ti2 2.055689 1_555
O15 Ti5 2.055689 1_445
O16 Zn0 1.989616 1_556
O16 Ti8 2.052298 1_545
O16 Ti10 2.052302 1_555
O16 Ti6 2.052302 1_445
O17 Zn3 1.930233 1_555
O17 Ti6 2.027230 1_545
O17 Ti10 2.027230 1_655
O17 Ti9 2.029611 1_655
O18 Zn5 2.022402 1_555
O18 Ti7 2.060360 1_455
O18 Ti2 2.060360 1_555
O18 Ti9 2.106605 1_555
O19 Zn3 1.930237 1_555
O19 Ti8 2.027230 1_545
O19 Ti10 2.027234 1_555
O19 Ti9 2.029611 1_555
O20 Ti11 1.883719 1_455
O20 Zn2 2.157396 1_556
O20 Ti10 2.173151 1_555
O20 Ti8 2.173160 1_555
O21 Zn5 1.978587 1_555
O21 Ti6 2.122461 1_555
O21 Ti10 2.122461 1_555
O21 Ti8 2.122461 1_555
O22 Ti11 1.883719 1_555
O22 Zn2 2.157404 1_556
O22 Ti10 2.173159 1_555
O22 Ti6 2.173159 1_555
O23 Ti11 1.883719 1_565
O23 Zn2 2.157396 1_556
O23 Ti6 2.173151 1_555
O23 Ti8 2.173160 1_555
