# generated using pymatgen
data_Na2Ca2Zr2MnFeSi4O17F
_symmetry_space_group_name_H-M   'P 1'
_cell_length_a   7.25282600
_cell_length_b   10.00445076
_cell_length_c   10.99071344
_cell_angle_alpha   90.39964389
_cell_angle_beta   108.33817020
_cell_angle_gamma   90.09840759
_symmetry_Int_Tables_number   1
_chemical_formula_structural   Na2Ca2Zr2MnFeSi4O17F
_chemical_formula_sum   'Na4 Ca4 Zr4 Mn2 Fe2 Si8 O34 F2'
_cell_volume   756.96749435
_cell_formula_units_Z   2
loop_
 _symmetry_equiv_pos_site_id
 _symmetry_equiv_pos_as_xyz
  1  'x, y, z'
loop_
 _atom_site_type_symbol
 _atom_site_label
 _atom_site_symmetry_multiplicity
 _atom_site_fract_x
 _atom_site_fract_y
 _atom_site_fract_z
 _atom_site_occupancy
  Na  Na0  1  0.66210600  0.88420900  0.07006800  1
  Na  Na1  1  0.34242700  0.38534900  0.42724100  1
  Na  Na2  1  0.34396800  0.11400500  0.92869400  1
  Na  Na3  1  0.65661400  0.61721200  0.56797800  1
  Ca  Ca0  1  0.48069400  0.60633200  0.20383200  1
  Ca  Ca1  1  0.52555700  0.10778400  0.30398200  1
  Ca  Ca2  1  0.52711500  0.39126600  0.80484000  1
  Ca  Ca3  1  0.48298600  0.89641600  0.70411100  1
  Zr  Zr0  1  0.97663200  0.60045200  0.20934100  1
  Zr  Zr1  1  0.02315100  0.10380700  0.29242500  1
  Zr  Zr2  1  0.02178000  0.39477100  0.79094500  1
  Zr  Zr3  1  0.97664600  0.90005000  0.71188400  1
  Mn  Mn0  1  0.84620900  0.11652500  0.93988700  1
  Mn  Mn1  1  0.13705300  0.62417500  0.55837100  1
  Fe  Fe0  1  0.13488500  0.87442200  0.05800300  1
  Fe  Fe1  1  0.83913300  0.39049700  0.43838300  1
  Si  Si0  1  0.78262500  0.83115700  0.37993400  1
  Si  Si1  1  0.21456000  0.32614800  0.11905800  1
  Si  Si2  1  0.21633900  0.17201400  0.61928200  1
  Si  Si3  1  0.78266800  0.66986700  0.87960700  1
  Si  Si4  1  0.33245700  0.83071900  0.38394300  1
  Si  Si5  1  0.66750300  0.33004700  0.11690600  1
  Si  Si6  1  0.66853900  0.16990300  0.61597400  1
  Si  Si7  1  0.33233900  0.67133400  0.88545800  1
  O  O0  1  0.78789700  0.73676300  0.25882400  1
  O  O1  1  0.22255500  0.23541200  0.24458400  1
  O  O2  1  0.22273900  0.26484300  0.74496700  1
  O  O3  1  0.78541000  0.76238500  0.75722400  1
  O  O4  1  0.03195300  0.51030200  0.37939400  1
  O  O5  1  0.96010700  0.01880200  0.12145900  1
  O  O6  1  0.95312200  0.47137600  0.61549800  1
  O  O7  1  0.03114100  0.98824100  0.88332900  1
  O  O8  1  0.82564900  0.98570700  0.34962800  1
  O  O9  1  0.17287800  0.48100300  0.14933400  1
  O  O10  1  0.17583000  0.01809000  0.65419600  1
  O  O11  1  0.82615100  0.51532500  0.84769900  1
  O  O12  1  0.54999400  0.82825800  0.36633900  1
  O  O13  1  0.44054700  0.32119000  0.11672900  1
  O  O14  1  0.44419000  0.17676800  0.62083000  1
  O  O15  1  0.55052200  0.67190700  0.86856400  1
  O  O16  1  0.34138500  0.74164600  0.01955300  1
  O  O17  1  0.67346100  0.23890900  0.48478800  1
  O  O18  1  0.67156100  0.25870900  0.98475200  1
  O  O19  1  0.34387700  0.76120100  0.51824700  1
  O  O20  1  0.27454400  0.98999500  0.37608100  1
  O  O21  1  0.72170900  0.48904000  0.12003700  1
  O  O22  1  0.72478600  0.01082700  0.62238800  1
  O  O23  1  0.27117200  0.51228000  0.87349600  1
  O  O24  1  0.20315800  0.74816100  0.25547500  1
  O  O25  1  0.79206900  0.25310300  0.24902900  1
  O  O26  1  0.79173500  0.25105800  0.74651500  1
  O  O27  1  0.20448300  0.75389100  0.75752400  1
  O  O28  1  0.90987200  0.72103100  0.02126000  1
  O  O29  1  0.08252100  0.22641400  0.48071700  1
  O  O30  1  0.07575900  0.26806600  0.98069700  1
  O  O31  1  0.90880600  0.77967000  0.52178000  1
  O  O32  1  0.61720800  0.49277400  0.38086800  1
  O  O33  1  0.62989100  0.00909100  0.88384400  1
  F  F0  1  0.40327300  0.00278000  0.11608700  1
  F  F1  1  0.40406100  0.49651900  0.61812000  1
loop_
_geom_bond_atom_site_label_1
_geom_bond_atom_site_label_2
_geom_bond_distance
_geom_bond_site_symmetry_2
Na0 O33 2.353808 1_564
Na0 O5 2.452512 1_565
Na0 O0 2.483641 1_555
Na0 O28 2.605092 1_555
Na0 O16 2.630262 1_555
Na1 O1 2.427222 1_555
Na1 O32 2.454802 1_555
Na1 O4 2.486690 1_555
Na1 O29 2.669652 1_555
Na1 O17 2.716680 1_555
Na2 O2 2.461242 1_555
Na2 O7 2.499816 1_545
Na2 O33 2.507706 1_555
Na2 O18 2.678664 1_555
Na2 O30 2.680293 1_555
Na2 O13 2.842953 1_556
Na3 O32 2.335347 1_555
Na3 O3 2.457394 1_555
Na3 O6 2.518110 1_555
Na3 O19 2.600157 1_555
Na3 O31 2.613569 1_555
Ca0 O32 2.208938 1_555
Ca0 O16 2.389733 1_555
Ca0 O9 2.460402 1_555
Ca0 O0 2.482750 1_555
Ca0 O21 2.507146 1_555
Ca0 O24 2.665493 1_555
Ca0 O12 2.783546 1_555
Ca0 O13 2.987095 1_555
Ca1 F0 2.229089 1_555
Ca1 O17 2.331948 1_555
Ca1 O8 2.410622 1_545
Ca1 O1 2.450421 1_555
Ca1 O20 2.498888 1_545
Ca1 O25 2.636664 1_555
Ca1 O12 2.876379 1_545
Ca1 O13 2.905394 1_555
Ca2 F1 2.235549 1_555
Ca2 O18 2.346067 1_555
Ca2 O11 2.409562 1_555
Ca2 O2 2.443533 1_555
Ca2 O23 2.521389 1_555
Ca2 O26 2.613975 1_555
Ca2 O14 2.868189 1_555
Ca2 O15 2.880695 1_555
Ca3 O33 2.224528 1_565
Ca3 O19 2.383419 1_555
Ca3 O10 2.448510 1_565
Ca3 O3 2.482991 1_555
Ca3 O22 2.488197 1_565
Ca3 O27 2.684371 1_555
Ca3 O15 2.838143 1_555
Ca3 O14 2.942816 1_565
Mn0 O33 1.836576 1_555
Mn0 O18 2.064102 1_555
Mn0 O7 2.086145 1_645
Mn0 O5 2.147867 1_556
Mn0 O30 2.187119 1_655
Mn0 O26 2.449054 1_555
Mn1 O19 2.177512 1_555
Mn1 O4 2.184163 1_555
Mn1 O31 2.218304 1_455
Mn1 O6 2.245906 1_455
Mn1 O27 2.449264 1_555
Fe0 O16 2.140911 1_555
Fe0 O7 2.161681 1_554
Fe0 O5 2.174456 1_465
Fe0 O28 2.179326 1_455
Fe0 O24 2.432158 1_555
Fe1 O32 1.847100 1_555
Fe1 O6 2.022523 1_555
Fe1 O4 2.094832 1_655
Fe1 O17 2.096197 1_555
Fe1 O29 2.351829 1_655
Fe1 O25 2.418368 1_555
O0 Si0 1.636973 1_555
O0 Zr0 2.119859 1_555
O1 Si1 1.642578 1_555
O1 Zr1 2.140852 1_555
O2 Si2 1.647552 1_555
O2 Zr2 2.128418 1_555
O3 Si3 1.643315 1_555
O3 Zr3 2.122941 1_555
O4 Zr0 2.005111 1_455
O5 Zr1 1.974543 1_655
O6 Zr2 1.992819 1_655
O7 Zr3 1.998060 1_455
O8 Si0 1.633996 1_555
O8 Zr1 2.101051 1_665
O9 Si1 1.630944 1_555
O9 Zr0 2.115295 1_455
O10 Si2 1.637856 1_555
O10 Zr3 2.112944 1_445
O11 Si3 1.636032 1_555
O11 Zr2 2.099803 1_655
O12 Si0 1.646528 1_555
O12 Si4 1.649096 1_555
O13 Si5 1.647693 1_555
O13 Si1 1.648103 1_555
O14 Si6 1.646271 1_555
O14 Si2 1.647891 1_555
O15 Si3 1.649729 1_555
O15 Si7 1.650305 1_555
O16 Si7 1.611131 1_554
O17 Si6 1.613362 1_555
O18 Si5 1.622468 1_556
O19 Si4 1.614625 1_555
O20 Si4 1.644512 1_555
O20 Zr1 2.105503 1_565
O21 Si5 1.635375 1_555
O21 Zr0 2.111860 1_555
O22 Si6 1.640080 1_555
O22 Zr3 2.103359 1_545
O23 Si7 1.644421 1_555
O23 Zr2 2.102889 1_555
O24 Si4 1.644117 1_555
O24 Zr0 2.144094 1_455
O25 Si5 1.646183 1_555
O25 Zr1 2.186984 1_655
O26 Si6 1.640315 1_555
O26 Zr2 2.135120 1_655
O27 Si7 1.648493 1_555
O27 Zr3 2.148800 1_455
O28 Si3 1.618782 1_554
O28 Zr0 2.317268 1_555
O29 Si2 1.625048 1_555
O29 Zr1 2.318345 1_555
O30 Si1 1.638885 1_556
O30 Zr2 2.373665 1_555
O31 Si0 1.627376 1_555
O31 Zr3 2.318187 1_555
F0 Fe0 2.245830 1_545
F0 Na2 2.267436 1_554
F0 Na0 2.404967 1_545
F1 Mn1 2.243332 1_555
F1 Na1 2.283332 1_555
F1 Na3 2.398703 1_555
