# generated using pymatgen
data_Rb3TbMgV2O8
_symmetry_space_group_name_H-M   'P 1'
_cell_length_a   6.50936818
_cell_length_b   5.96657505
_cell_length_c   8.97564559
_cell_angle_alpha   95.95601233
_cell_angle_beta   84.80085689
_cell_angle_gamma   126.08649901
_symmetry_Int_Tables_number   1
_chemical_formula_structural   Rb3TbMgV2O8
_chemical_formula_sum   'Rb3 Tb1 Mg1 V2 O8'
_cell_volume   280.00561227
_cell_formula_units_Z   1
loop_
 _symmetry_equiv_pos_site_id
 _symmetry_equiv_pos_as_xyz
  1  'x, y, z'
loop_
 _atom_site_type_symbol
 _atom_site_label
 _atom_site_symmetry_multiplicity
 _atom_site_fract_x
 _atom_site_fract_y
 _atom_site_fract_z
 _atom_site_occupancy
  Rb  Rb0  1  0.58966600  0.34213200  0.18646700  1
  Rb  Rb1  1  0.31455300  0.61452000  0.77068900  1
  Rb  Rb2  1  0.92760300  0.01189200  0.99940400  1
  Tb  Tb0  1  0.04658400  0.98124100  0.52506200  1
  Mg  Mg0  1  0.90585700  0.35584100  0.44777400  1
  V  V0  1  0.64404800  0.28984200  0.72774500  1
  V  V1  1  0.36989600  0.69423000  0.27897500  1
  O  O0  1  0.77169000  0.43610200  0.90183400  1
  O  O1  1  0.35168100  0.58881900  0.08947000  1
  O  O2  1  0.76439600  0.53700500  0.57874400  1
  O  O3  1  0.23330800  0.38782600  0.40385100  1
  O  O4  1  0.82213500  0.13765700  0.64310000  1
  O  O5  1  0.10290300  0.73046300  0.33933300  1
  O  O6  1  0.29796200  0.07955300  0.70909700  1
  O  O7  1  0.68063400  0.00037700  0.32345500  1
loop_
_geom_bond_atom_site_label_1
_geom_bond_atom_site_label_2
_geom_bond_distance
_geom_bond_site_symmetry_2
Mg0 O7 2.008764 1_555
Mg0 O2 2.027525 1_555
Mg0 O3 2.029597 1_655
Mg0 O5 2.106327 1_655
Mg0 O4 2.128398 1_555
O0 V0 1.729640 1_555
O0 Rb0 2.685359 1_556
O0 Rb2 3.004820 1_565
O0 Rb1 3.175000 1_655
O0 Rb2 3.442452 1_555
O1 V1 1.740540 1_555
O1 Rb0 2.919003 1_555
O1 Rb1 2.920412 1_554
O1 Rb2 2.959072 1_454
O1 Rb2 3.131470 1_564
O2 V0 1.853528 1_555
O2 Tb0 2.236281 1_655
O3 V1 1.928444 1_555
O3 Tb0 2.319620 1_545
O3 Rb0 3.012730 1_555
O3 Rb1 3.391037 1_555
O4 V0 1.919047 1_555
O4 Tb0 2.290973 1_645
O4 Rb1 2.987753 1_655
O4 Rb1 3.142943 1_545
O5 V1 1.899574 1_555
O5 Tb0 2.273775 1_555
O5 Rb0 3.076468 1_455
O6 V0 1.836409 1_555
O6 Tb0 2.215453 1_545
O6 Rb1 2.949260 1_545
O6 Rb1 3.121566 1_555
O6 Rb2 3.270765 1_455
O7 V1 1.797193 1_545
O7 Rb0 2.845181 1_555
O7 Rb2 3.180067 1_554
