# generated using pymatgen
data_Mn4GeP4(H6O11)2
_symmetry_space_group_name_H-M   'P 1'
_cell_length_a   6.64842900
_cell_length_b   16.64852900
_cell_length_c   9.41131340
_cell_angle_alpha   90.00000000
_cell_angle_beta   124.54461123
_cell_angle_gamma   90.00000000
_symmetry_Int_Tables_number   1
_chemical_formula_structural   Mn4GeP4(H6O11)2
_chemical_formula_sum   'Mn8 Ge2 P8 H24 O44'
_cell_volume   858.03747694
_cell_formula_units_Z   2
loop_
 _symmetry_equiv_pos_site_id
 _symmetry_equiv_pos_as_xyz
  1  'x, y, z'
loop_
 _atom_site_type_symbol
 _atom_site_label
 _atom_site_symmetry_multiplicity
 _atom_site_fract_x
 _atom_site_fract_y
 _atom_site_fract_z
 _atom_site_occupancy
  Mn  Mn0  1  0.59250700  0.36172700  0.75951700  1
  Mn  Mn1  1  0.59250700  0.13827300  0.25951700  1
  Mn  Mn2  1  0.40749300  0.63827300  0.24048300  1
  Mn  Mn3  1  0.40749300  0.86172700  0.74048300  1
  Mn  Mn4  1  0.12043400  0.23058500  0.52239500  1
  Mn  Mn5  1  0.12043400  0.26941500  0.02239500  1
  Mn  Mn6  1  0.87956600  0.76941500  0.47760500  1
  Mn  Mn7  1  0.87956600  0.73058500  0.97760500  1
  Ge  Ge0  1  0.50000000  0.50000000  0.00000000  1
  Ge  Ge1  1  0.50000000  0.00000000  0.50000000  1
  P  P0  1  0.06849700  0.39079300  0.71539200  1
  P  P1  1  0.06849700  0.10920700  0.21539200  1
  P  P2  1  0.93150300  0.60920700  0.28460800  1
  P  P3  1  0.93150300  0.89079300  0.78460800  1
  P  P4  1  0.68625000  0.31296500  0.12770800  1
  P  P5  1  0.68625000  0.18703500  0.62770800  1
  P  P6  1  0.31375000  0.68703500  0.87229200  1
  P  P7  1  0.31375000  0.81296500  0.37229200  1
  H  H0  1  0.44000500  0.16797800  0.84306400  1
  H  H1  1  0.44000500  0.33202200  0.34306400  1
  H  H2  1  0.55999500  0.83202200  0.15693600  1
  H  H3  1  0.55999500  0.66797800  0.65693600  1
  H  H4  1  0.36179100  0.09703900  0.71146900  1
  H  H5  1  0.36179100  0.40296100  0.21146900  1
  H  H6  1  0.63820900  0.90296100  0.28853100  1
  H  H7  1  0.63820900  0.59703900  0.78853100  1
  H  H8  1  0.29624300  0.48945100  0.53183900  1
  H  H9  1  0.29624300  0.01054900  0.03183900  1
  H  H10  1  0.70375700  0.51054900  0.46816100  1
  H  H11  1  0.70375700  0.98945100  0.96816100  1
  H  H12  1  0.28649600  0.41527000  0.42077100  1
  H  H13  1  0.28649600  0.08473000  0.92077100  1
  H  H14  1  0.71350400  0.58473000  0.57922900  1
  H  H15  1  0.71350400  0.91527000  0.07922900  1
  H  H16  1  0.84829000  0.47851200  0.00186800  1
  H  H17  1  0.84829000  0.02148800  0.50186800  1
  H  H18  1  0.15171000  0.52148800  0.99813200  1
  H  H19  1  0.15171000  0.97851200  0.49813200  1
  H  H20  1  0.86505900  0.37763200  0.43239900  1
  H  H21  1  0.86505900  0.12236800  0.93239900  1
  H  H22  1  0.13494100  0.62236800  0.56760100  1
  H  H23  1  0.13494100  0.87763200  0.06760100  1
  O  O0  1  0.29708200  0.13987500  0.74763500  1
  O  O1  1  0.29708200  0.36012500  0.24763500  1
  O  O2  1  0.70291800  0.86012500  0.25236500  1
  O  O3  1  0.70291800  0.63987500  0.75236500  1
  O  O4  1  0.37088500  0.43732300  0.53793300  1
  O  O5  1  0.37088500  0.06267700  0.03793300  1
  O  O6  1  0.62911500  0.56267700  0.46206700  1
  O  O7  1  0.62911500  0.93732300  0.96206700  1
  O  O8  1  0.96347500  0.36329500  0.81727300  1
  O  O9  1  0.96347500  0.13670500  0.31727300  1
  O  O10  1  0.03652500  0.63670500  0.18272700  1
  O  O11  1  0.03652500  0.86329500  0.68272700  1
  O  O12  1  0.23331300  0.32658600  0.71362100  1
  O  O13  1  0.23331300  0.17341400  0.21362100  1
  O  O14  1  0.76668700  0.67341400  0.28637900  1
  O  O15  1  0.76668700  0.82658600  0.78637900  1
  O  O16  1  0.89835400  0.31870900  0.32083900  1
  O  O17  1  0.89835400  0.18129100  0.82083900  1
  O  O18  1  0.10164600  0.68129100  0.67916100  1
  O  O19  1  0.10164600  0.81870900  0.17916100  1
  O  O20  1  0.77948000  0.30068400  0.01123900  1
  O  O21  1  0.77948000  0.19931600  0.51123900  1
  O  O22  1  0.22052000  0.69931600  0.98876100  1
  O  O23  1  0.22052000  0.80068400  0.48876100  1
  O  O24  1  0.50312300  0.25506500  0.59650200  1
  O  O25  1  0.50312300  0.24493500  0.09650200  1
  O  O26  1  0.49687700  0.74493500  0.40349800  1
  O  O27  1  0.49687700  0.75506500  0.90349800  1
  O  O28  1  0.67833400  0.47907600  0.90269300  1
  O  O29  1  0.67833400  0.02092400  0.40269300  1
  O  O30  1  0.32166600  0.52092400  0.09730700  1
  O  O31  1  0.32166600  0.97907600  0.59730700  1
  O  O32  1  0.84715400  0.40839100  0.52106100  1
  O  O33  1  0.84715400  0.09160900  0.02106100  1
  O  O34  1  0.15284600  0.59160900  0.47893900  1
  O  O35  1  0.15284600  0.90839100  0.97893900  1
  O  O36  1  0.20036300  0.47333000  0.78386400  1
  O  O37  1  0.20036300  0.02667000  0.28386400  1
  O  O38  1  0.79963700  0.52667000  0.21613600  1
  O  O39  1  0.79963700  0.97333000  0.71613600  1
  O  O40  1  0.53206800  0.39229500  0.07818100  1
  O  O41  1  0.53206800  0.10770500  0.57818100  1
  O  O42  1  0.46793200  0.60770500  0.92181900  1
  O  O43  1  0.46793200  0.89229500  0.42181900  1
loop_
_geom_bond_atom_site_label_1
_geom_bond_atom_site_label_2
_geom_bond_distance
_geom_bond_site_symmetry_2
Mn0 O4 2.149218 1_555
Mn0 O24 2.196873 1_555
Mn0 O20 2.202406 1_556
Mn0 O8 2.204237 1_555
Mn0 O12 2.249873 1_555
Mn0 O28 2.255259 1_555
Mn1 O5 2.149218 1_555
Mn1 O25 2.196873 1_555
Mn1 O21 2.202406 1_555
Mn1 O9 2.204237 1_555
Mn1 O13 2.249873 1_555
Mn1 O29 2.255259 1_555
Mn2 O6 2.149218 1_555
Mn2 O26 2.196873 1_555
Mn2 O22 2.202406 1_554
Mn2 O10 2.204237 1_555
Mn2 O14 2.249873 1_555
Mn2 O30 2.255259 1_555
Mn3 O7 2.149218 1_555
Mn3 O27 2.196873 1_555
Mn3 O23 2.202406 1_555
Mn3 O11 2.204237 1_555
Mn3 O15 2.249873 1_555
Mn3 O31 2.255259 1_555
Mn4 O16 2.180464 1_455
Mn4 O12 2.196553 1_555
Mn4 O9 2.230220 1_455
Mn4 O24 2.261294 1_555
Mn4 O21 2.269480 1_455
Mn4 O0 2.308706 1_555
Mn5 O17 2.180464 1_454
Mn5 O13 2.196553 1_555
Mn5 O8 2.230220 1_454
Mn5 O25 2.261294 1_555
Mn5 O20 2.269480 1_455
Mn5 O1 2.308706 1_555
Mn6 O18 2.180464 1_655
Mn6 O14 2.196553 1_555
Mn6 O11 2.230220 1_655
Mn6 O26 2.261294 1_555
Mn6 O23 2.269480 1_655
Mn6 O2 2.308706 1_555
Mn7 O19 2.180464 1_656
Mn7 O15 2.196553 1_555
Mn7 O10 2.230220 1_656
Mn7 O27 2.261294 1_555
Mn7 O22 2.269480 1_655
Mn7 O3 2.308706 1_555
Ge0 O30 1.896617 1_555
Ge0 O28 1.896617 1_554
Ge0 O42 1.903745 1_554
Ge0 O40 1.903745 1_555
Ge0 O38 1.925550 1_555
Ge0 O36 1.925550 1_554
Ge1 O31 1.896617 1_545
Ge1 O29 1.896617 1_555
Ge1 O41 1.903745 1_555
Ge1 O43 1.903745 1_545
Ge1 O39 1.925550 1_545
Ge1 O37 1.925550 1_555
H0 O0 0.980093 1_555
H1 O1 0.980093 1_555
H2 O2 0.980093 1_555
H3 O3 0.980093 1_555
H4 O0 0.987722 1_555
H5 O1 0.987722 1_555
H6 O2 0.987722 1_555
H7 O3 0.987722 1_555
H8 O4 0.985114 1_555
H9 O5 0.985114 1_555
H10 O6 0.985114 1_555
H11 O7 0.985114 1_555
H12 O4 0.981739 1_555
H13 O5 0.981739 1_556
H14 O6 0.981739 1_555
H15 O7 0.981739 1_554
H16 O28 0.975682 1_554
H17 O29 0.975682 1_555
H18 O30 0.975682 1_556
H19 O31 0.975682 1_555
H20 O32 1.041789 1_555
H20 O16 1.541832 1_555
H21 O33 1.041789 1_556
H21 O17 1.541832 1_555
H22 O34 1.041789 1_555
H22 O18 1.541832 1_555
H23 O35 1.041789 1_554
H23 O19 1.541832 1_555
O8 P0 1.541342 1_655
O9 P1 1.541342 1_655
O10 P2 1.541342 1_455
O11 P3 1.541342 1_455
O12 P0 1.537646 1_555
O13 P1 1.537646 1_555
O14 P2 1.537646 1_555
O15 P3 1.537646 1_555
O16 P4 1.547446 1_555
O17 P5 1.547446 1_555
O18 P6 1.547446 1_555
O19 P7 1.547446 1_555
O20 P4 1.548551 1_555
O21 P5 1.548551 1_555
O22 P6 1.548551 1_555
O23 P7 1.548551 1_555
O24 P5 1.563918 1_555
O25 P4 1.563918 1_555
O26 P7 1.563918 1_555
O27 P6 1.563918 1_555
O32 P0 1.594995 1_655
O33 P1 1.594995 1_655
O34 P2 1.594995 1_455
O35 P3 1.594995 1_455
O36 P0 1.559283 1_555
O37 P1 1.559283 1_555
O38 P2 1.559283 1_555
O39 P3 1.559283 1_555
O40 P4 1.571776 1_555
O41 P5 1.571776 1_555
O42 P6 1.571776 1_555
O43 P7 1.571776 1_555
