# generated using pymatgen
data_Na4P2NO16
_symmetry_space_group_name_H-M   'P 1'
_cell_length_a   12.12347965
_cell_length_b   12.12347965
_cell_length_c   16.30923812
_cell_angle_alpha   50.79057970
_cell_angle_beta   50.79057970
_cell_angle_gamma   24.73991046
_symmetry_Int_Tables_number   1
_chemical_formula_structural   Na4P2NO16
_chemical_formula_sum   'Na8 P4 N2 O32'
_cell_volume   764.76864111
_cell_formula_units_Z   2
loop_
 _symmetry_equiv_pos_site_id
 _symmetry_equiv_pos_as_xyz
  1  'x, y, z'
loop_
 _atom_site_type_symbol
 _atom_site_label
 _atom_site_symmetry_multiplicity
 _atom_site_fract_x
 _atom_site_fract_y
 _atom_site_fract_z
 _atom_site_occupancy
  Na  Na0  1  0.60843300  0.09668500  0.03831100  1
  Na  Na1  1  0.90331500  0.39156700  0.46168900  1
  Na  Na2  1  0.39156700  0.90331500  0.96168900  1
  Na  Na3  1  0.09668500  0.60843300  0.53831100  1
  Na  Na4  1  0.29228900  0.83700100  0.26103300  1
  Na  Na5  1  0.16299900  0.70771100  0.23896700  1
  Na  Na6  1  0.70771100  0.16299900  0.73896700  1
  Na  Na7  1  0.83700100  0.29228900  0.76103300  1
  P  P0  1  0.22646900  0.62494400  0.86297000  1
  P  P1  1  0.37505600  0.77353100  0.63703000  1
  P  P2  1  0.77353100  0.37505600  0.13703000  1
  P  P3  1  0.62494400  0.22646900  0.36297000  1
  N  N0  1  0.15408000  0.84592000  0.75000000  1
  N  N1  1  0.84592000  0.15408000  0.25000000  1
  O  O0  1  0.52404600  0.35113700  0.86944300  1
  O  O1  1  0.64886300  0.47595400  0.63055700  1
  O  O2  1  0.47595400  0.64886300  0.13055700  1
  O  O3  1  0.35113700  0.52404600  0.36944300  1
  O  O4  1  0.04497600  0.74118300  0.96377700  1
  O  O5  1  0.25881700  0.95502400  0.53622300  1
  O  O6  1  0.95502400  0.25881700  0.03622300  1
  O  O7  1  0.74118300  0.04497600  0.46377700  1
  O  O8  1  0.14147500  0.65185500  0.80147900  1
  O  O9  1  0.34814500  0.85852500  0.69852100  1
  O  O10  1  0.85852500  0.34814500  0.19852100  1
  O  O11  1  0.65185500  0.14147500  0.30147900  1
  O  O12  1  0.43762100  0.50206200  0.54368300  1
  O  O13  1  0.49793800  0.56237900  0.95631700  1
  O  O14  1  0.56237900  0.49793800  0.45631700  1
  O  O15  1  0.50206200  0.43762100  0.04368300  1
  O  O16  1  0.78301100  0.74476300  0.48184200  1
  O  O17  1  0.25523700  0.21698900  0.01815800  1
  O  O18  1  0.21698900  0.25523700  0.51815800  1
  O  O19  1  0.74476300  0.78301100  0.98184200  1
  O  O20  1  0.83637300  0.76454100  0.71856600  1
  O  O21  1  0.23545900  0.16362700  0.78143400  1
  O  O22  1  0.16362700  0.23545900  0.28143400  1
  O  O23  1  0.76454100  0.83637300  0.21856600  1
  O  O24  1  0.06390600  0.39192200  0.58651800  1
  O  O25  1  0.60807800  0.93609400  0.91348200  1
  O  O26  1  0.93609400  0.60807800  0.41348200  1
  O  O27  1  0.39192200  0.06390600  0.08651800  1
  O  O28  1  0.07895900  0.19415500  0.82547900  1
  O  O29  1  0.80584500  0.92104100  0.67452100  1
  O  O30  1  0.92104100  0.80584500  0.17452100  1
  O  O31  1  0.19415500  0.07895900  0.32547900  1
loop_
_geom_bond_atom_site_label_1
_geom_bond_atom_site_label_2
_geom_bond_distance
_geom_bond_site_symmetry_2
Na0 O4 2.262765 1_644
Na0 O0 2.288263 1_554
Na0 O27 2.560570 1_555
Na0 O23 2.576694 1_545
Na1 O5 2.262765 1_645
Na1 O1 2.288263 1_555
Na1 O26 2.560570 1_555
Na1 O22 2.576694 1_655
Na2 O6 2.262765 1_466
Na2 O2 2.288263 1_556
Na2 O25 2.560570 1_555
Na2 O21 2.576694 1_565
Na3 O7 2.262765 1_465
Na3 O3 2.288263 1_555
Na3 O24 2.560570 1_555
Na3 O20 2.576694 1_455
Na4 O2 2.368408 1_555
Na4 O3 2.495383 1_555
Na4 O10 2.586934 1_465
Na4 O31 2.665101 1_565
Na4 O10 2.859830 1_555
Na4 O27 2.986169 1_565
Na5 O3 2.368408 1_555
Na5 O2 2.495383 1_555
Na5 O11 2.586934 1_465
Na5 O30 2.665101 1_455
Na5 O11 2.859830 1_555
Na5 O26 2.986169 1_455
Na6 O0 2.368408 1_555
Na6 O1 2.495383 1_555
Na6 O8 2.586934 1_645
Na6 O29 2.665101 1_545
Na6 O8 2.859830 1_555
Na6 O25 2.986169 1_545
Na7 O1 2.368408 1_555
Na7 O0 2.495383 1_555
Na7 O9 2.586934 1_645
Na7 O28 2.665101 1_655
Na7 O9 2.859830 1_555
Na7 O24 2.986169 1_655
N0 P0 1.695583 1_555
N0 P1 1.695583 1_555
N0 Na6 2.581569 1_465
N0 Na7 2.581569 1_465
N1 P2 1.695583 1_555
N1 P3 1.695583 1_555
N1 Na5 2.581569 1_645
N1 Na4 2.581569 1_645
O0 P0 1.526753 1_555
O1 P1 1.526753 1_555
O2 P2 1.526753 1_555
O3 P3 1.526753 1_555
O4 P0 1.501211 1_555
O5 P1 1.501211 1_555
O6 P2 1.501211 1_555
O7 P3 1.501211 1_555
O8 P0 1.567214 1_555
O9 P1 1.567214 1_555
O10 P2 1.567214 1_555
O11 P3 1.567214 1_555
O12 O14 1.244340 1_555
O13 O15 1.244340 1_556
O16 O26 1.251734 1_555
O17 O27 1.251734 1_555
O18 O24 1.251734 1_555
O19 O25 1.251734 1_555
O20 O29 1.261064 1_555
O21 O28 1.261064 1_555
O22 O31 1.261064 1_555
O23 O30 1.261064 1_555
