# generated using pymatgen
data_LiLa4NiO8
_symmetry_space_group_name_H-M   'P 1'
_cell_length_a   6.96753864
_cell_length_b   6.96753864
_cell_length_c   5.35436500
_cell_angle_alpha   90.00000000
_cell_angle_beta   90.00000000
_cell_angle_gamma   134.85408849
_symmetry_Int_Tables_number   1
_chemical_formula_structural   LiLa4NiO8
_chemical_formula_sum   'Li1 La4 Ni1 O8'
_cell_volume   184.27012299
_cell_formula_units_Z   1
loop_
 _symmetry_equiv_pos_site_id
 _symmetry_equiv_pos_as_xyz
  1  'x, y, z'
loop_
 _atom_site_type_symbol
 _atom_site_label
 _atom_site_symmetry_multiplicity
 _atom_site_fract_x
 _atom_site_fract_y
 _atom_site_fract_z
 _atom_site_occupancy
  Li  Li0  1  0.50000000  0.50000000  0.00000000  1
  La  La0  1  0.63674000  0.36326000  0.50000000  1
  La  La1  1  0.36326000  0.63674000  0.50000000  1
  La  La2  1  0.86238500  0.13761500  0.00000000  1
  La  La3  1  0.13761500  0.86238500  0.00000000  1
  Ni  Ni0  1  0.00000000  0.00000000  0.50000000  1
  O  O0  1  0.82312900  0.17687100  0.50000000  1
  O  O1  1  0.68047600  0.31952400  0.00000000  1
  O  O2  1  0.31952400  0.68047600  0.00000000  1
  O  O3  1  0.17687100  0.82312900  0.50000000  1
  O  O4  1  0.75442600  0.75442600  0.25663600  1
  O  O5  1  0.24557400  0.24557400  0.74336400  1
  O  O6  1  0.24557400  0.24557400  0.25663600  1
  O  O7  1  0.75442600  0.75442600  0.74336400  1
loop_
_geom_bond_atom_site_label_1
_geom_bond_atom_site_label_2
_geom_bond_distance
_geom_bond_site_symmetry_2
Li0 O7 1.934013 1_554
Li0 O4 1.934013 1_555
Li0 O5 1.934013 1_554
Li0 O6 1.934013 1_555
Li0 O1 2.322281 1_555
Li0 O2 2.322281 1_555
La0 O0 2.398366 1_555
La0 O7 2.577988 1_555
La0 O4 2.577988 1_555
La0 O5 2.577988 1_555
La0 O6 2.577988 1_555
La0 O3 2.723950 1_545
La0 O3 2.723950 1_655
La0 O1 2.735694 1_555
La0 O1 2.735694 1_556
La1 O3 2.398366 1_555
La1 O7 2.577988 1_555
La1 O4 2.577988 1_555
La1 O5 2.577988 1_555
La1 O6 2.577988 1_555
La1 O0 2.723950 1_565
La1 O0 2.723950 1_455
La1 O2 2.735694 1_555
La1 O2 2.735694 1_556
La2 O1 2.340720 1_555
La2 O4 2.597956 1_545
La2 O7 2.597956 1_544
La2 O6 2.597956 1_655
La2 O5 2.597956 1_654
La2 O0 2.724419 1_554
La2 O0 2.724419 1_555
La2 O2 2.730828 1_655
La2 O2 2.730828 1_545
La3 O2 2.340720 1_555
La3 O7 2.597956 1_454
La3 O4 2.597956 1_455
La3 O6 2.597956 1_565
La3 O5 2.597956 1_564
La3 O3 2.724419 1_555
La3 O3 2.724419 1_554
La3 O1 2.730828 1_455
La3 O1 2.730828 1_565
Ni0 O5 1.850275 1_555
Ni0 O7 1.850275 1_445
Ni0 O4 1.850275 1_445
Ni0 O6 1.850275 1_555
Ni0 O3 2.275893 1_545
Ni0 O0 2.275893 1_455
