# generated using pymatgen
data_CaCdP2O7
_symmetry_space_group_name_H-M   'P 1'
_cell_length_a   6.73104400
_cell_length_b   6.76353934
_cell_length_c   6.77216458
_cell_angle_alpha   65.67167992
_cell_angle_beta   84.21806119
_cell_angle_gamma   87.29874768
_symmetry_Int_Tables_number   1
_chemical_formula_structural   CaCdP2O7
_chemical_formula_sum   'Ca2 Cd2 P4 O14'
_cell_volume   279.49502591
_cell_formula_units_Z   2
loop_
 _symmetry_equiv_pos_site_id
 _symmetry_equiv_pos_as_xyz
  1  'x, y, z'
loop_
 _atom_site_type_symbol
 _atom_site_label
 _atom_site_symmetry_multiplicity
 _atom_site_fract_x
 _atom_site_fract_y
 _atom_site_fract_z
 _atom_site_occupancy
  Ca  Ca0  1  0.87764400  0.68747900  0.26386000  1
  Ca  Ca1  1  0.12235600  0.31252100  0.73614000  1
  Cd  Cd0  1  0.35098500  0.74102100  0.88870200  1
  Cd  Cd1  1  0.64901500  0.25897900  0.11129800  1
  P  P0  1  0.85225900  0.76950900  0.76167600  1
  P  P1  1  0.14774100  0.23049100  0.23832400  1
  P  P2  1  0.36847900  0.81025600  0.36519400  1
  P  P3  1  0.63152100  0.18974400  0.63480600  1
  O  O0  1  0.01174700  0.83519200  0.87068400  1
  O  O1  1  0.98825300  0.16480800  0.12931600  1
  O  O2  1  0.74293200  0.98332800  0.59979400  1
  O  O3  1  0.25706800  0.01667200  0.40020600  1
  O  O4  1  0.57924700  0.89117500  0.25924000  1
  O  O5  1  0.42075300  0.10882500  0.74076000  1
  O  O6  1  0.93391000  0.65418500  0.61943200  1
  O  O7  1  0.06609000  0.34581500  0.38056800  1
  O  O8  1  0.69059500  0.64017100  0.94552400  1
  O  O9  1  0.30940500  0.35982900  0.05447600  1
  O  O10  1  0.75567900  0.24290500  0.78265900  1
  O  O11  1  0.24432100  0.75709500  0.21734100  1
  O  O12  1  0.36604200  0.63510800  0.59814700  1
  O  O13  1  0.63395800  0.36489200  0.40185300  1
loop_
_geom_bond_atom_site_label_1
_geom_bond_atom_site_label_2
_geom_bond_distance
_geom_bond_site_symmetry_2
Ca0 O4 2.376877 1_555
Ca0 O6 2.391968 1_555
Ca0 O7 2.448376 1_655
Ca0 O11 2.498643 1_655
Ca0 O0 2.512287 1_654
Ca0 O13 2.583153 1_555
Ca0 O8 2.736481 1_554
Ca0 O1 3.077903 1_565
Ca1 O5 2.376877 1_555
Ca1 O7 2.391968 1_555
Ca1 O6 2.448376 1_455
Ca1 O10 2.498643 1_455
Ca1 O1 2.512287 1_456
Ca1 O12 2.583153 1_555
Ca1 O9 2.736481 1_556
Ca1 O0 3.077903 1_545
Cd0 O11 2.313141 1_556
Cd0 O5 2.318306 1_565
Cd0 O0 2.342994 1_555
Cd0 O12 2.347244 1_555
Cd0 O9 2.367642 1_556
Cd0 O8 2.377566 1_555
Cd1 O10 2.313141 1_554
Cd1 O4 2.318306 1_545
Cd1 O1 2.342994 1_555
Cd1 O13 2.347244 1_555
Cd1 O8 2.367642 1_554
Cd1 O9 2.377566 1_555
O0 P0 1.539355 1_455
O1 P1 1.539355 1_655
O2 P0 1.609582 1_555
O2 P3 1.644970 1_565
O3 P1 1.609582 1_555
O3 P2 1.644970 1_545
O4 P2 1.539997 1_555
O5 P3 1.539997 1_555
O6 P0 1.520000 1_555
O7 P1 1.520000 1_555
O8 P0 1.555271 1_555
O9 P1 1.555271 1_555
O10 P3 1.524409 1_555
O11 P2 1.524409 1_555
O12 P2 1.532716 1_555
O13 P3 1.532716 1_555
