# generated using pymatgen
data_Ce5Ge2Pd
_symmetry_space_group_name_H-M   'P 1'
_cell_length_a   8.55256482
_cell_length_b   8.55256482
_cell_length_c   8.55256482
_cell_angle_alpha   125.54548519
_cell_angle_beta   125.54548519
_cell_angle_gamma   80.63645907
_symmetry_Int_Tables_number   1
_chemical_formula_structural   Ce5Ge2Pd
_chemical_formula_sum   'Ce10 Ge4 Pd2'
_cell_volume   399.38308733
_cell_formula_units_Z   2
loop_
 _symmetry_equiv_pos_site_id
 _symmetry_equiv_pos_as_xyz
  1  'x, y, z'
loop_
 _atom_site_type_symbol
 _atom_site_label
 _atom_site_symmetry_multiplicity
 _atom_site_fract_x
 _atom_site_fract_y
 _atom_site_fract_z
 _atom_site_occupancy
  Ce  Ce0  1  0.00000000  0.00000000  0.00000000  1
  Ce  Ce1  1  0.50000000  0.50000000  0.00000000  1
  Ce  Ce2  1  0.83357300  0.33357300  0.85731900  1
  Ce  Ce3  1  0.16642700  0.66642700  0.14268100  1
  Ce  Ce4  1  0.47625400  0.97625400  0.14268100  1
  Ce  Ce5  1  0.33357300  0.47625400  0.50000000  1
  Ce  Ce6  1  0.02374600  0.16642700  0.50000000  1
  Ce  Ce7  1  0.52374600  0.02374600  0.85731900  1
  Ce  Ce8  1  0.66642700  0.52374600  0.50000000  1
  Ce  Ce9  1  0.97625400  0.83357300  0.50000000  1
  Ge  Ge0  1  0.12111400  0.62111400  0.74222900  1
  Ge  Ge1  1  0.87888600  0.37888600  0.25777100  1
  Ge  Ge2  1  0.62111400  0.87888600  0.50000000  1
  Ge  Ge3  1  0.37888600  0.12111400  0.50000000  1
  Pd  Pd0  1  0.25000000  0.25000000  0.00000000  1
  Pd  Pd1  1  0.75000000  0.75000000  0.00000000  1
loop_
_geom_bond_atom_site_label_1
_geom_bond_atom_site_label_2
_geom_bond_distance
_geom_bond_site_symmetry_2
Ce0 Ge1 3.112950 1_455
Ce0 Ge0 3.112950 1_544
Ce0 Ge3 3.112952 1_555
Ce0 Ge2 3.112952 1_444
Ce0 Pd1 3.260505 1_445
Ce0 Pd0 3.260505 1_555
Ce1 Ge0 3.112950 1_554
Ce1 Ge1 3.112950 1_555
Ce1 Ge3 3.112952 1_554
Ce1 Ge2 3.112952 1_555
Ce1 Pd1 3.260505 1_555
Ce1 Pd0 3.260505 1_555
Ce2 Ge1 2.998776 1_556
Ce2 Ge3 3.128666 1_555
Ce2 Ge2 3.128666 1_545
Ce2 Pd1 3.133211 1_556
Ce2 Pd0 3.133211 1_656
Ce3 Ge0 2.998776 1_554
Ce3 Ge2 3.128666 1_555
Ce3 Ge3 3.128666 1_565
Ce3 Pd1 3.133211 1_455
Ce3 Pd0 3.133211 1_555
Ce4 Ge0 2.998784 1_554
Ce4 Ge3 3.128666 1_565
Ce4 Ge2 3.128666 1_555
Ce4 Pd0 3.133211 1_565
Ce4 Pd1 3.133211 1_555
Ce5 Ge3 2.998784 1_555
Ce5 Ge1 3.128664 1_455
Ce5 Ge0 3.128673 1_555
Ce5 Pd1 3.133211 1_556
Ce5 Pd0 3.133211 1_555
Ce6 Ge3 2.998784 1_555
Ce6 Ge0 3.128664 1_555
Ce6 Ge1 3.128673 1_455
Ce6 Pd0 3.133211 1_556
Ce6 Pd1 3.133211 1_445
Ce7 Ge1 2.998784 1_556
Ce7 Ge2 3.128666 1_545
Ce7 Ge3 3.128666 1_555
Ce7 Pd0 3.133211 1_556
Ce7 Pd1 3.133211 1_546
Ce8 Ge2 2.998784 1_555
Ce8 Ge0 3.128664 1_655
Ce8 Ge1 3.128673 1_555
Ce8 Pd1 3.133211 1_556
Ce8 Pd0 3.133211 1_555
Ce9 Ge2 2.998784 1_555
Ce9 Ge1 3.128664 1_555
Ce9 Ge0 3.128673 1_655
Ce9 Pd1 3.133211 1_555
Ce9 Pd0 3.133211 1_666
Ge0 Ge1 2.680887 1_455
Ge2 Ge3 2.680876 1_565
