# generated using pymatgen
data_Mg3(VN2)2
_symmetry_space_group_name_H-M   'P 1'
_cell_length_a   6.28461770
_cell_length_b   7.24909653
_cell_length_c   5.55463931
_cell_angle_alpha   90.00000108
_cell_angle_beta   91.06972475
_cell_angle_gamma   125.22110228
_symmetry_Int_Tables_number   1
_chemical_formula_structural   Mg3(VN2)2
_chemical_formula_sum   'Mg6 V4 N8'
_cell_volume   206.67663016
_cell_formula_units_Z   2
loop_
 _symmetry_equiv_pos_site_id
 _symmetry_equiv_pos_as_xyz
  1  'x, y, z'
loop_
 _atom_site_type_symbol
 _atom_site_label
 _atom_site_symmetry_multiplicity
 _atom_site_fract_x
 _atom_site_fract_y
 _atom_site_fract_z
 _atom_site_occupancy
  Mg  Mg0  1  0.22258100  0.99135700  0.96964500  1
  Mg  Mg1  1  0.77741900  0.76877600  0.53035500  1
  Mg  Mg2  1  0.77741900  0.00864300  0.03035500  1
  Mg  Mg3  1  0.22258100  0.23122400  0.46964500  1
  Mg  Mg4  1  0.00000000  0.59810300  0.75000000  1
  Mg  Mg5  1  0.00000000  0.40189700  0.25000000  1
  V  V0  1  0.61402800  0.17956200  0.60057700  1
  V  V1  1  0.38597200  0.56553500  0.89942300  1
  V  V2  1  0.38597200  0.82043800  0.39942300  1
  V  V3  1  0.61402800  0.43446500  0.10057800  1
  N  N0  1  0.22316200  0.94711000  0.57748600  1
  N  N1  1  0.77683800  0.72394800  0.92251400  1
  N  N2  1  0.77683800  0.05289000  0.42251400  1
  N  N3  1  0.22316200  0.27605200  0.07748600  1
  N  N4  1  0.71816900  0.26675000  0.93162100  1
  N  N5  1  0.28183100  0.54858200  0.56837900  1
  N  N6  1  0.28183100  0.73325000  0.06837900  1
  N  N7  1  0.71816900  0.45141800  0.43162100  1
loop_
_geom_bond_atom_site_label_1
_geom_bond_atom_site_label_2
_geom_bond_distance
_geom_bond_site_symmetry_2
Mg0 N3 2.146918 1_566
Mg0 N6 2.176290 1_556
Mg0 N0 2.202167 1_555
Mg0 N1 2.320041 1_455
Mg0 N4 2.565772 1_565
Mg1 N2 2.146918 1_565
Mg1 N7 2.176297 1_555
Mg1 N1 2.202167 1_555
Mg1 N0 2.320041 1_655
Mg1 N5 2.565772 1_555
Mg2 N1 2.146918 1_544
Mg2 N4 2.176290 1_554
Mg2 N2 2.202167 1_555
Mg2 N3 2.320041 1_655
Mg2 N6 2.565772 1_545
Mg3 N0 2.146918 1_545
Mg3 N5 2.176297 1_555
Mg3 N3 2.202167 1_555
Mg3 N2 2.320041 1_455
Mg3 N7 2.565772 1_555
Mg4 N5 2.254751 1_555
Mg4 N4 2.254755 1_455
Mg4 N6 2.259642 1_556
Mg4 N7 2.259642 1_455
Mg4 N1 2.289850 1_455
Mg4 N0 2.289850 1_555
Mg5 N7 2.254751 1_455
Mg5 N6 2.254755 1_555
Mg5 N4 2.259642 1_454
Mg5 N5 2.259642 1_555
Mg5 N3 2.289850 1_555
Mg5 N2 2.289850 1_455
N0 V2 1.997484 1_555
N0 V0 2.025769 1_565
N1 V3 1.997492 1_556
N1 V1 2.025770 1_555
N2 V0 1.997484 1_555
N2 V2 2.025769 1_545
N3 V1 1.997489 1_554
N3 V3 2.025770 1_555
N4 V0 1.920166 1_555
N4 V3 1.930807 1_556
N5 V1 1.920166 1_555
N5 V2 1.930804 1_555
N6 V2 1.920166 1_555
N6 V1 1.930804 1_554
N7 V3 1.920161 1_555
N7 V0 1.930804 1_555
