# generated using pymatgen
data_Mg(CrS2)4
_symmetry_space_group_name_H-M   'P 1'
_cell_length_a   7.18605921
_cell_length_b   7.18613435
_cell_length_c   7.18611118
_cell_angle_alpha   56.68198209
_cell_angle_beta   56.68228704
_cell_angle_gamma   56.68203776
_symmetry_Int_Tables_number   1
_chemical_formula_structural   Mg(CrS2)4
_chemical_formula_sum   'Mg1 Cr4 S8'
_cell_volume   242.29510952
_cell_formula_units_Z   1
loop_
 _symmetry_equiv_pos_site_id
 _symmetry_equiv_pos_as_xyz
  1  'x, y, z'
loop_
 _atom_site_type_symbol
 _atom_site_label
 _atom_site_symmetry_multiplicity
 _atom_site_fract_x
 _atom_site_fract_y
 _atom_site_fract_z
 _atom_site_occupancy
  Mg  Mg0  1  0.49999974  0.50000008  0.49999973  1
  Cr  Cr0  1  0.50000004  0.99999737  0.50000166  1
  Cr  Cr1  1  0.99999721  0.49999993  0.50000151  1
  Cr  Cr2  1  0.49999863  0.49999923  0.00000054  1
  Cr  Cr3  1  -0.00000041  0.00000018  0.00000039  1
  S  S0  1  0.75827218  0.25868973  0.75824677  1
  S  S1  1  0.24172412  0.24175643  0.74131310  1
  S  S2  1  0.24172795  0.74131080  0.24175258  1
  S  S3  1  0.74133027  0.24174088  0.24173873  1
  S  S4  1  0.25938684  0.25942577  0.25942009  1
  S  S5  1  0.74061536  0.74057579  0.74058020  1
  S  S6  1  0.25867230  0.75826063  0.75826045  1
  S  S7  1  0.75827578  0.75824616  0.25868427  1
loop_
_geom_bond_atom_site_label_1
_geom_bond_atom_site_label_2
_geom_bond_distance
_geom_bond_site_symmetry_2
Mg0 S2 2.570680 1_555
Mg0 S0 2.570684 1_555
Mg0 S1 2.570694 1_555
Mg0 S3 2.570698 1_555
Mg0 S6 2.570707 1_555
Mg0 S7 2.570708 1_555
Cr0 S5 2.378245 1_555
Cr0 S4 2.378249 1_565
Cr0 S6 2.387786 1_555
Cr0 S7 2.387815 1_555
Cr0 S1 2.387825 1_565
Cr0 S3 2.387832 1_565
Cr1 S5 2.378077 1_555
Cr1 S4 2.378081 1_655
Cr1 S0 2.387641 1_555
Cr1 S1 2.387644 1_655
Cr1 S7 2.387644 1_555
Cr1 S2 2.387672 1_655
Cr2 S4 2.378216 1_555
Cr2 S5 2.378256 1_554
Cr2 S6 2.387782 1_554
Cr2 S0 2.387789 1_554
Cr2 S2 2.387791 1_555
Cr2 S3 2.387799 1_555
Cr3 S2 2.389797 1_545
Cr3 S7 2.389798 1_445
Cr3 S0 2.389799 1_454
Cr3 S1 2.389812 1_554
Cr3 S3 2.389817 1_455
Cr3 S6 2.389819 1_544
