# generated using pymatgen
data_Ba3FeGe5O14
_symmetry_space_group_name_H-M   'P 1'
_cell_length_a   5.40567500
_cell_length_b   8.60772343
_cell_length_c   8.60772343
_cell_angle_alpha   119.99999565
_cell_angle_beta   90.00000000
_cell_angle_gamma   90.00000000
_symmetry_Int_Tables_number   1
_chemical_formula_structural   Ba3FeGe5O14
_chemical_formula_sum   'Ba3 Fe1 Ge5 O14'
_cell_volume   346.86237356
_cell_formula_units_Z   1
loop_
 _symmetry_equiv_pos_site_id
 _symmetry_equiv_pos_as_xyz
  1  'x, y, z'
loop_
 _atom_site_type_symbol
 _atom_site_label
 _atom_site_symmetry_multiplicity
 _atom_site_fract_x
 _atom_site_fract_y
 _atom_site_fract_z
 _atom_site_occupancy
  Ba  Ba0  1  0.18076800  0.66663900  0.91833600  1
  Ba  Ba1  1  0.18076800  0.25169700  0.33336100  1
  Ba  Ba2  1  0.18076800  0.08166400  0.74830300  1
  Fe  Fe0  1  0.18015000  0.66666700  0.33333300  1
  Ge  Ge0  1  0.67649900  0.00000000  0.00000000  1
  Ge  Ge1  1  0.68554200  0.33333300  0.66666700  1
  Ge  Ge2  1  0.68087200  0.91401300  0.33350900  1
  Ge  Ge3  1  0.68087200  0.41949700  0.08598700  1
  Ge  Ge4  1  0.68087200  0.66649100  0.58050300  1
  O  O0  1  0.83257400  0.50574800  0.63809800  1
  O  O1  1  0.83257400  0.13234900  0.49425200  1
  O  O2  1  0.83257400  0.36190200  0.86765100  1
  O  O3  1  0.43112900  0.89520300  0.44925900  1
  O  O4  1  0.43112900  0.55405600  0.10479700  1
  O  O5  1  0.43112900  0.55074100  0.44594400  1
  O  O6  1  0.36758600  0.33333300  0.66666700  1
  O  O7  1  0.92974000  0.77852100  0.21693000  1
  O  O8  1  0.92974000  0.43840900  0.22147900  1
  O  O9  1  0.92974000  0.78307000  0.56159100  1
  O  O10  1  0.99474700  0.00000000  0.00000000  1
  O  O11  1  0.52927600  0.97222900  0.17299100  1
  O  O12  1  0.52927600  0.20076200  0.02777100  1
  O  O13  1  0.52927600  0.82700900  0.79923800  1
loop_
_geom_bond_atom_site_label_1
_geom_bond_atom_site_label_2
_geom_bond_distance
_geom_bond_site_symmetry_2
Ba0 O7 2.626710 1_456
Ba0 O4 2.627196 1_556
Ba0 O10 2.778872 1_466
Ba0 O6 2.780067 1_555
Ba0 O13 2.814397 1_555
Ba0 O0 2.817589 1_455
Ba0 O2 3.077224 1_455
Ba0 O11 3.083390 1_556
Ba1 O8 2.626710 1_455
Ba1 O5 2.627196 1_555
Ba1 O10 2.778873 1_455
Ba1 O6 2.780069 1_555
Ba1 O11 2.814398 1_545
Ba1 O1 2.817594 1_455
Ba1 O0 3.077222 1_455
Ba1 O12 3.083390 1_555
Ba2 O9 2.626710 1_445
Ba2 O3 2.627196 1_545
Ba2 O10 2.778872 1_456
Ba2 O6 2.780061 1_555
Ba2 O12 2.814398 1_556
Ba2 O2 2.817588 1_455
Ba2 O1 3.077218 1_455
Ba2 O13 3.083390 1_545
Fe0 O7 2.174388 1_455
Fe0 O9 2.174393 1_455
Fe0 O8 2.174394 1_455
Fe0 O4 2.177889 1_555
Fe0 O3 2.177889 1_555
Fe0 O5 2.177895 1_555
Ge0 O10 1.720345 1_555
Ge0 O11 1.806586 1_545
Ge0 O12 1.806586 1_555
Ge0 O13 1.806586 1_544
Ge1 O6 1.718767 1_555
Ge1 O0 1.805466 1_555
Ge1 O2 1.805466 1_555
Ge1 O1 1.805466 1_555
Ge2 O3 1.732863 1_555
Ge2 O7 1.733975 1_555
Ge2 O1 1.875796 1_565
Ge2 O11 1.877261 1_555
Ge3 O4 1.732858 1_555
Ge3 O8 1.733977 1_555
Ge3 O2 1.875792 1_554
Ge3 O12 1.877269 1_555
Ge4 O5 1.732860 1_555
Ge4 O9 1.733972 1_555
Ge4 O0 1.875807 1_555
Ge4 O13 1.877267 1_555
