# generated using pymatgen
data_Ba2YV2F11
_symmetry_space_group_name_H-M   'P 1'
_cell_length_a   7.95439599
_cell_length_b   7.95439599
_cell_length_c   13.80849600
_cell_angle_alpha   90.00000000
_cell_angle_beta   90.00000000
_cell_angle_gamma   119.99999994
_symmetry_Int_Tables_number   1
_chemical_formula_structural   Ba2YV2F11
_chemical_formula_sum   'Ba6 Y3 V6 F33'
_cell_volume   756.64370928
_cell_formula_units_Z   3
loop_
 _symmetry_equiv_pos_site_id
 _symmetry_equiv_pos_as_xyz
  1  'x, y, z'
loop_
 _atom_site_type_symbol
 _atom_site_label
 _atom_site_symmetry_multiplicity
 _atom_site_fract_x
 _atom_site_fract_y
 _atom_site_fract_z
 _atom_site_occupancy
  Ba  Ba0  1  0.55845900  0.19455900  0.66396400  1
  Ba  Ba1  1  0.19516700  0.52254900  0.81288700  1
  Ba  Ba2  1  0.63610000  0.44154100  0.99729700  1
  Ba  Ba3  1  0.47745100  0.67261800  0.47955300  1
  Ba  Ba4  1  0.32738200  0.80483300  0.14622000  1
  Ba  Ba5  1  0.80544100  0.36390000  0.33063100  1
  Y  Y0  1  0.13248200  0.99996800  0.89260600  1
  Y  Y1  1  0.86748500  0.86751800  0.22593900  1
  Y  Y2  1  0.00003200  0.13251500  0.55927300  1
  V  V0  1  0.63384800  0.99486400  0.88200200  1
  V  V1  1  0.78363100  0.73930300  0.72099900  1
  V  V2  1  0.26069700  0.04432700  0.38766500  1
  V  V3  1  0.36101600  0.36615200  0.21533500  1
  V  V4  1  0.95567300  0.21636900  0.05433200  1
  V  V5  1  0.00513600  0.63898400  0.54866900  1
  F  F0  1  0.65908600  0.08641800  0.02662700  1
  F  F1  1  0.51006900  0.70445000  0.92787700  1
  F  F2  1  0.42733200  0.34091400  0.35996100  1
  F  F3  1  0.09337500  0.42997200  0.49966900  1
  F  F4  1  0.56726300  0.28989200  0.17665200  1
  F  F5  1  0.94476400  0.64961600  0.19108800  1
  F  F6  1  0.57002800  0.66340300  0.16633600  1
  F  F7  1  0.35038400  0.29514800  0.85775400  1
  F  F8  1  0.72263000  0.43273700  0.50998500  1
  F  F9  1  0.25779500  0.34235800  0.07296800  1
  F  F10  1  0.33659700  0.90662500  0.83300300  1
  F  F11  1  0.91358200  0.57266800  0.69329400  1
  F  F12  1  0.29945000  0.01699800  0.01460500  1
  F  F13  1  0.02186000  0.49847200  0.01050900  1
  F  F14  1  0.71754800  0.70055000  0.34793900  1
  F  F15  1  0.29555000  0.80561900  0.59454400  1
  F  F16  1  0.95791600  0.15038300  0.90244900  1
  F  F17  1  0.08456300  0.74220500  0.40630100  1
  F  F18  1  0.00520600  0.07596100  0.39485900  1
  F  F19  1  0.98300200  0.28245200  0.68127200  1
  F  F20  1  0.07075400  0.99479400  0.72819200  1
  F  F21  1  0.50152800  0.52338800  0.67717600  1
  F  F22  1  0.47661200  0.97814000  0.34384300  1
  F  F23  1  0.19246600  0.04208400  0.23578200  1
  F  F24  1  0.65764200  0.91543700  0.73963500  1
  F  F25  1  0.71010800  0.27737000  0.84331800  1
  F  F26  1  0.19438100  0.48993100  0.26121000  1
  F  F27  1  0.86763000  0.71716500  0.86821000  1
  F  F28  1  0.84953600  0.13237000  0.20154300  1
  F  F29  1  0.92403900  0.92924600  0.06152600  1
  F  F30  1  0.70485200  0.05523600  0.52442100  1
  F  F31  1  0.84961700  0.80753400  0.56911500  1
  F  F32  1  0.28283500  0.15046400  0.53487700  1
loop_
_geom_bond_atom_site_label_1
_geom_bond_atom_site_label_2
_geom_bond_distance
_geom_bond_site_symmetry_2
Ba0 F25 2.688495 1_555
Ba0 F32 2.708883 1_555
Ba0 F8 2.709506 1_555
Ba0 F30 2.754546 1_555
Ba0 F21 2.874788 1_555
Ba0 F15 2.897217 1_545
Ba0 F24 2.897480 1_545
Ba0 F11 2.948453 1_555
Ba0 F19 3.096604 1_555
Ba0 F10 3.125145 1_545
Ba1 F19 2.564261 1_455
Ba1 F10 2.690614 1_555
Ba1 F1 2.695326 1_555
Ba1 F7 2.722757 1_555
Ba1 F16 2.875396 1_455
Ba1 F11 2.965785 1_455
Ba1 F13 3.019894 1_556
Ba1 F21 3.071496 1_555
Ba2 F4 2.688508 1_556
Ba2 F27 2.708885 1_555
Ba2 F25 2.709510 1_555
Ba2 F7 2.754546 1_555
Ba2 F13 2.874788 1_656
Ba2 F1 2.897217 1_555
Ba2 F9 2.897480 1_556
Ba2 F0 2.948453 1_556
Ba2 F12 3.096604 1_556
Ba2 F6 3.125145 1_556
Ba3 F14 2.564251 1_555
Ba3 F3 2.690614 1_555
Ba3 F15 2.695334 1_555
Ba3 F30 2.722760 1_565
Ba3 F31 2.875395 1_555
Ba3 F2 2.965777 1_555
Ba3 F21 3.019906 1_555
Ba3 F22 3.071488 1_555
Ba4 F12 2.564261 1_565
Ba4 F6 2.690614 1_555
Ba4 F26 2.695326 1_555
Ba4 F5 2.722760 1_455
Ba4 F23 2.875402 1_565
Ba4 F0 2.965785 1_565
Ba4 F22 3.019906 1_555
Ba4 F13 3.071496 1_555
Ba5 F8 2.688493 1_555
Ba5 F28 2.708898 1_555
Ba5 F4 2.709505 1_555
Ba5 F5 2.754546 1_555
Ba5 F22 2.874788 1_545
Ba5 F26 2.897222 1_655
Ba5 F17 2.897475 1_655
Ba5 F2 2.948453 1_555
Ba5 F14 3.096604 1_555
Ba5 F3 3.125135 1_655
F0 V4 2.083724 1_555
F0 V0 2.100639 1_544
F1 V0 2.105384 1_555
F2 V2 2.083721 1_555
F2 V3 2.100652 1_555
F3 V5 2.209414 1_555
F3 Y2 2.251728 1_555
F4 V3 2.083250 1_555
F5 Y1 2.163140 1_555
F6 V3 2.209410 1_555
F6 Y1 2.251724 1_555
F7 Y0 2.163137 1_545
F8 V5 2.083248 1_655
F9 V3 2.102195 1_555
F9 V4 2.106541 1_455
F10 V0 2.209410 1_555
F10 Y0 2.251730 1_555
F11 V1 2.083717 1_555
F11 V5 2.100639 1_655
F12 Y0 2.107207 1_544
F13 V4 2.120688 1_455
F14 Y1 2.107216 1_555
F15 V5 2.105384 1_555
F16 V4 2.164197 1_556
F16 Y0 2.244878 1_645
F16 V0 2.250790 1_545
F17 V5 2.102208 1_555
F17 V2 2.106542 1_565
F18 V2 2.171339 1_555
F18 Y2 2.318811 1_555
F18 Y1 2.752004 1_445
F19 Y2 2.107202 1_655
F20 V1 2.171329 1_455
F20 Y0 2.318811 1_555
F20 Y2 2.751992 1_565
F21 V1 2.120686 1_555
F22 V2 2.120677 1_565
F23 V2 2.164200 1_555
F23 Y1 2.244878 1_445
F23 V3 2.250791 1_555
F24 V0 2.102195 1_555
F24 V1 2.106548 1_555
F25 V0 2.083246 1_545
F26 V3 2.105384 1_555
F27 V1 2.174220 1_555
F27 Y0 2.207495 1_655
F28 V4 2.174220 1_555
F28 Y1 2.207487 1_545
F29 V4 2.171323 1_565
F29 Y1 2.318797 1_555
F29 Y0 2.752004 1_654
F30 Y2 2.163135 1_655
F31 V1 2.164212 1_555
F31 Y2 2.244877 1_665
F31 V5 2.250796 1_655
F32 V2 2.174233 1_555
F32 Y2 2.207502 1_555
