# generated using pymatgen
data_K14ZnGe16
_symmetry_space_group_name_H-M   'P 1'
_cell_length_a   7.11951096
_cell_length_b   14.29529515
_cell_length_c   20.50326354
_cell_angle_alpha   90.00000000
_cell_angle_beta   90.00000000
_cell_angle_gamma   90.00000000
_symmetry_Int_Tables_number   1
_chemical_formula_structural   K14ZnGe16
_chemical_formula_sum   'K28 Zn2 Ge32'
_cell_volume   2086.73011364
_cell_formula_units_Z   2
loop_
 _symmetry_equiv_pos_site_id
 _symmetry_equiv_pos_as_xyz
  1  'x, y, z'
loop_
 _atom_site_type_symbol
 _atom_site_label
 _atom_site_symmetry_multiplicity
 _atom_site_fract_x
 _atom_site_fract_y
 _atom_site_fract_z
 _atom_site_occupancy
  K  K0  1  0.45808114  0.89214392  0.59059919  1
  K  K1  1  0.45808114  0.89214392  0.40940081  1
  K  K2  1  0.54191886  0.39214392  0.90940081  1
  K  K3  1  0.54191886  0.39214392  0.09059919  1
  K  K4  1  0.42941285  0.63292973  0.64518799  1
  K  K5  1  0.42941285  0.63292973  0.35481201  1
  K  K6  1  0.57058715  0.13292973  0.85481201  1
  K  K7  1  0.57058715  0.13292973  0.14518799  1
  K  K8  1  0.69290063  0.13624830  0.65501060  1
  K  K9  1  0.69290063  0.13624830  0.34498940  1
  K  K10  1  0.30709937  0.63624830  0.84498940  1
  K  K11  1  0.30709937  0.63624830  0.15501060  1
  K  K12  1  0.95220195  0.81304540  0.65673425  1
  K  K13  1  0.95220195  0.81304540  0.34326575  1
  K  K14  1  0.04779805  0.31304540  0.84326575  1
  K  K15  1  0.04779805  0.31304540  0.15673425  1
  K  K16  1  0.85221517  0.54360201  0.74975680  1
  K  K17  1  0.85221517  0.54360201  0.25024320  1
  K  K18  1  0.14778483  0.04360201  0.75024320  1
  K  K19  1  0.14778483  0.04360201  0.24975680  1
  K  K20  1  0.98483159  0.86693719  0.88358865  1
  K  K21  1  0.98483159  0.86693719  0.11641135  1
  K  K22  1  0.01516841  0.36693719  0.61641135  1
  K  K23  1  0.01516841  0.36693719  0.38358865  1
  K  K24  1  0.54616614  0.49992990  0.50000000  1
  K  K25  1  0.45383386  0.99992990  -0.00000000  1
  K  K26  1  0.41228229  0.21569454  0.50000000  1
  K  K27  1  0.58771771  0.71569454  -0.00000000  1
  Zn  Zn0  1  0.96969465  0.88734637  0.50000000  1
  Zn  Zn1  1  0.03030535  0.38734637  -0.00000000  1
  Ge  Ge0  1  0.93794888  0.17800441  0.50000000  1
  Ge  Ge1  1  0.06205112  0.67800441  -0.00000000  1
  Ge  Ge2  1  0.74320728  0.03133528  0.50000000  1
  Ge  Ge3  1  0.25679272  0.53133528  -0.00000000  1
  Ge  Ge4  1  0.92941034  0.54030713  0.93457576  1
  Ge  Ge5  1  0.92941034  0.54030713  0.06542424  1
  Ge  Ge6  1  0.07058966  0.04030713  0.56542424  1
  Ge  Ge7  1  0.07058966  0.04030713  0.43457576  1
  Ge  Ge8  1  0.77050862  0.72771316  0.50000000  1
  Ge  Ge9  1  0.22949138  0.22771316  -0.00000000  1
  Ge  Ge10  1  0.15923174  0.72737753  0.50000000  1
  Ge  Ge11  1  0.84076826  0.22737753  -0.00000000  1
  Ge  Ge12  1  0.96544511  0.60579936  0.56414074  1
  Ge  Ge13  1  0.96544511  0.60579936  0.43585926  1
  Ge  Ge14  1  0.03455489  0.10579936  0.93585926  1
  Ge  Ge15  1  0.03455489  0.10579936  0.06414074  1
  Ge  Ge16  1  0.48455227  0.87309400  0.86028833  1
  Ge  Ge17  1  0.48455227  0.87309400  0.13971167  1
  Ge  Ge18  1  0.51544773  0.37309400  0.63971167  1
  Ge  Ge19  1  0.51544773  0.37309400  0.36028833  1
  Ge  Ge20  1  0.64556848  0.93903111  0.75621681  1
  Ge  Ge21  1  0.64556848  0.93903111  0.24378319  1
  Ge  Ge22  1  0.35443152  0.43903111  0.74378319  1
  Ge  Ge23  1  0.35443152  0.43903111  0.25621681  1
  Ge  Ge24  1  0.34897174  0.83135942  0.74713206  1
  Ge  Ge25  1  0.34897174  0.83135942  0.25286794  1
  Ge  Ge26  1  0.65102826  0.33135942  0.75286794  1
  Ge  Ge27  1  0.65102826  0.33135942  0.24713206  1
  Ge  Ge28  1  0.66883089  0.76267883  0.78315978  1
  Ge  Ge29  1  0.66883089  0.76267883  0.21684022  1
  Ge  Ge30  1  0.33116911  0.26267883  0.71684022  1
  Ge  Ge31  1  0.33116911  0.26267883  0.28315978  1
loop_
_geom_bond_atom_site_label_1
_geom_bond_atom_site_label_2
_geom_bond_distance
_geom_bond_site_symmetry_2
K12 Zn0 3.386838 1_555
K13 Zn0 3.386838 1_555
K14 Zn1 3.386838 1_556
K15 Zn1 3.386838 1_555
Ge0 Ge2 2.513632 1_555
Ge0 Ge7 2.562391 1_655
Ge0 Ge6 2.562391 1_655
Ge0 K26 3.419733 1_655
Ge0 K23 3.646054 1_655
Ge0 K22 3.646054 1_655
Ge0 K8 3.674387 1_555
Ge0 K9 3.674387 1_555
Ge0 K26 3.781074 1_555
Ge1 Ge3 2.513632 1_555
Ge1 Ge5 2.562391 1_455
Ge1 Ge4 2.562391 1_454
Ge1 K27 3.419733 1_455
Ge1 K20 3.646054 1_454
Ge1 K21 3.646054 1_455
Ge1 K10 3.674387 1_554
Ge1 K11 3.674387 1_555
Ge1 K27 3.781074 1_555
Ge2 Zn0 2.614757 1_545
Ge2 Ge7 2.692299 1_655
Ge2 Ge6 2.692299 1_655
Ge2 K1 3.395668 1_545
Ge2 K0 3.395668 1_545
Ge2 K9 3.532516 1_555
Ge2 K8 3.532516 1_555
Ge2 K26 3.535046 1_555
Ge3 Zn1 2.614757 1_555
Ge3 Ge5 2.692299 1_455
Ge3 Ge4 2.692299 1_454
Ge3 K2 3.395668 1_554
Ge3 K3 3.395668 1_555
Ge3 K10 3.532516 1_554
Ge3 K11 3.532516 1_555
Ge3 K27 3.535046 1_555
Ge4 Zn1 2.663958 1_656
Ge4 Ge5 2.682821 1_556
Ge4 K2 3.516136 1_555
Ge4 K10 3.533472 1_655
Ge4 K27 3.742120 1_556
Ge4 K16 3.829329 1_555
Ge4 K14 3.843163 1_655
Ge5 Zn1 2.663958 1_655
Ge5 K3 3.516136 1_555
Ge5 K11 3.533472 1_655
Ge5 K27 3.742120 1_555
Ge5 K17 3.829329 1_555
Ge5 K15 3.843163 1_655
Ge6 Zn0 2.663958 1_445
Ge6 Ge7 2.682821 1_555
Ge6 K0 3.516136 1_545
Ge6 K8 3.533472 1_455
Ge6 K26 3.742120 1_555
Ge6 K18 3.829329 1_555
Ge6 K12 3.843163 1_445
Ge7 Zn0 2.663958 1_445
Ge7 K1 3.516136 1_545
Ge7 K9 3.533472 1_455
Ge7 K26 3.742120 1_555
Ge7 K19 3.829329 1_555
Ge7 K13 3.843163 1_445
Ge8 Zn0 2.686740 1_555
Ge8 K24 3.626859 1_555
Ge8 K12 3.672648 1_555
Ge8 K13 3.672648 1_555
Ge8 K1 3.731421 1_555
Ge8 K0 3.731421 1_555
Ge9 Zn1 2.686740 1_555
Ge9 K25 3.626859 1_545
Ge9 K14 3.672648 1_554
Ge9 K15 3.672648 1_555
Ge9 K2 3.731421 1_554
Ge9 K3 3.731421 1_555
Ge10 Ge13 2.579454 1_455
Ge10 Ge12 2.579454 1_455
Ge10 Zn0 2.655254 1_455
Ge10 Ge8 2.767523 1_455
Ge10 K1 3.677687 1_555
Ge10 K0 3.677687 1_555
Ge10 K12 3.741562 1_455
Ge10 K13 3.741562 1_455
Ge10 K5 3.792691 1_555
Ge10 K4 3.792691 1_555
Ge11 Ge14 2.579454 1_654
Ge11 Ge15 2.579454 1_655
Ge11 Zn1 2.655254 1_655
Ge11 Ge9 2.767523 1_655
Ge11 K2 3.677687 1_554
Ge11 K3 3.677687 1_555
Ge11 K14 3.741562 1_654
Ge11 K15 3.741562 1_655
Ge11 K6 3.792691 1_554
Ge11 K7 3.792691 1_555
Ge12 Ge8 2.587071 1_555
Ge12 Ge13 2.630189 1_555
Ge12 K12 3.519990 1_555
Ge12 K24 3.595907 1_555
Ge12 K22 3.596308 1_655
Ge12 K4 3.717937 1_655
Ge12 K16 3.990493 1_555
Ge13 Ge8 2.587071 1_555
Ge13 K13 3.519990 1_555
Ge13 K24 3.595907 1_555
Ge13 K23 3.596308 1_655
Ge13 K5 3.717937 1_655
Ge13 K17 3.990493 1_555
Ge14 Ge9 2.587071 1_556
Ge14 Ge15 2.630189 1_556
Ge14 K14 3.519990 1_555
Ge14 K25 3.595907 1_546
Ge14 K20 3.596308 1_445
Ge14 K6 3.717937 1_455
Ge14 K18 3.990493 1_555
Ge15 Ge9 2.587071 1_555
Ge15 K15 3.519990 1_555
Ge15 K25 3.595907 1_545
Ge15 K21 3.596308 1_445
Ge15 K7 3.717937 1_455
Ge15 K19 3.990493 1_555
Ge16 Ge24 2.582716 1_555
Ge16 Ge28 2.591035 1_555
Ge16 Ge20 2.599180 1_555
Ge16 K25 3.397203 1_556
Ge16 K20 3.590777 1_455
Ge16 K20 3.594718 1_555
Ge16 K10 3.627398 1_555
Ge16 K27 3.715900 1_556
Ge16 K6 3.766268 1_565
Ge17 Ge25 2.582716 1_555
Ge17 Ge29 2.591035 1_555
Ge17 Ge21 2.599180 1_555
Ge17 K25 3.397203 1_555
Ge17 K21 3.590777 1_455
Ge17 K21 3.594718 1_555
Ge17 K11 3.627398 1_555
Ge17 K27 3.715900 1_555
Ge17 K7 3.766268 1_565
Ge18 Ge26 2.582716 1_555
Ge18 Ge30 2.591035 1_555
Ge18 Ge22 2.599180 1_555
Ge18 K24 3.397203 1_555
Ge18 K22 3.590777 1_655
Ge18 K22 3.594718 1_555
Ge18 K8 3.627398 1_555
Ge18 K26 3.715900 1_555
Ge18 K4 3.766268 1_555
Ge19 Ge27 2.582716 1_555
Ge19 Ge31 2.591035 1_555
Ge19 Ge23 2.599180 1_555
Ge19 K24 3.397203 1_555
Ge19 K23 3.590777 1_655
Ge19 K23 3.594718 1_555
Ge19 K9 3.627398 1_555
Ge19 K26 3.715900 1_555
Ge19 K5 3.766268 1_555
Ge20 Ge28 2.586132 1_555
Ge20 Ge24 2.619691 1_555
Ge20 K6 3.471976 1_565
Ge20 K12 3.488538 1_555
Ge20 K8 3.516781 1_565
Ge20 K20 3.703562 1_555
Ge20 K0 3.709688 1_555
Ge20 K18 3.848300 1_565
Ge20 K18 3.877382 1_665
Ge21 Ge29 2.586132 1_555
Ge21 Ge25 2.619691 1_555
Ge21 K7 3.471976 1_565
Ge21 K13 3.488538 1_555
Ge21 K9 3.516781 1_565
Ge21 K21 3.703562 1_555
Ge21 K1 3.709688 1_555
Ge21 K19 3.848300 1_565
Ge21 K19 3.877382 1_665
Ge22 Ge30 2.586132 1_555
Ge22 Ge26 2.619691 1_555
Ge22 K4 3.471976 1_555
Ge22 K14 3.488538 1_555
Ge22 K10 3.516781 1_555
Ge22 K22 3.703562 1_555
Ge22 K2 3.709688 1_555
Ge22 K16 3.848300 1_555
Ge22 K16 3.877382 1_455
Ge23 Ge31 2.586132 1_555
Ge23 Ge27 2.619691 1_555
Ge23 K5 3.471976 1_555
Ge23 K15 3.488538 1_555
Ge23 K11 3.516781 1_555
Ge23 K23 3.703562 1_555
Ge23 K3 3.709688 1_555
Ge23 K17 3.848300 1_555
Ge23 K17 3.877382 1_455
Ge24 Ge28 2.587553 1_555
Ge24 K18 3.355784 1_565
Ge24 K12 3.388710 1_455
Ge24 K0 3.414519 1_555
Ge24 K10 3.448763 1_555
Ge24 K4 3.569766 1_555
Ge24 K20 3.848044 1_455
Ge25 Ge29 2.587553 1_555
Ge25 K19 3.355784 1_565
Ge25 K13 3.388710 1_455
Ge25 K1 3.414519 1_555
Ge25 K11 3.448763 1_555
Ge25 K5 3.569766 1_555
Ge25 K21 3.848044 1_455
Ge26 Ge30 2.587553 1_555
Ge26 K16 3.355784 1_555
Ge26 K14 3.388710 1_655
Ge26 K2 3.414519 1_555
Ge26 K8 3.448763 1_555
Ge26 K6 3.569766 1_555
Ge26 K22 3.848044 1_655
Ge27 Ge31 2.587553 1_555
Ge27 K17 3.355784 1_555
Ge27 K15 3.388710 1_655
Ge27 K3 3.414519 1_555
Ge27 K9 3.448763 1_555
Ge27 K7 3.569766 1_555
Ge27 K23 3.848044 1_655
Ge28 K12 3.362697 1_555
Ge28 K10 3.392061 1_555
Ge28 K20 3.394517 1_555
Ge28 K16 3.461448 1_555
Ge28 K4 3.787910 1_555
Ge29 K13 3.362697 1_555
Ge29 K11 3.392061 1_555
Ge29 K21 3.394517 1_555
Ge29 K17 3.461448 1_555
Ge29 K5 3.787910 1_555
Ge30 K14 3.362697 1_555
Ge30 K8 3.392061 1_555
Ge30 K22 3.394517 1_555
Ge30 K18 3.461448 1_555
Ge30 K6 3.787910 1_555
Ge31 K15 3.362697 1_555
Ge31 K9 3.392061 1_555
Ge31 K23 3.394517 1_555
Ge31 K19 3.461448 1_555
Ge31 K7 3.787910 1_555
