# generated using pymatgen
data_ZrSn
_symmetry_space_group_name_H-M   'P 1'
_cell_length_a   4.67481900
_cell_length_b   7.80168700
_cell_length_c   8.20785315
_cell_angle_alpha   73.04786455
_cell_angle_beta   90.00000000
_cell_angle_gamma   90.00000000
_symmetry_Int_Tables_number   1
_chemical_formula_structural   ZrSn
_chemical_formula_sum   'Zr6 Sn6'
_cell_volume   286.34524272
_cell_formula_units_Z   6
loop_
 _symmetry_equiv_pos_site_id
 _symmetry_equiv_pos_as_xyz
  1  'x, y, z'
loop_
 _atom_site_type_symbol
 _atom_site_label
 _atom_site_symmetry_multiplicity
 _atom_site_fract_x
 _atom_site_fract_y
 _atom_site_fract_z
 _atom_site_occupancy
  Zr  Zr0  1  0.75000000  0.35594300  0.53595500  1
  Zr  Zr1  1  0.25000000  0.64405700  0.46404500  1
  Zr  Zr2  1  0.25000000  0.00017800  0.12780400  1
  Zr  Zr3  1  0.25000000  0.96424600  0.63496700  1
  Zr  Zr4  1  0.75000000  0.03575400  0.36503300  1
  Zr  Zr5  1  0.75000000  0.99982200  0.87219600  1
  Sn  Sn0  1  0.75000000  0.33652700  0.02655800  1
  Sn  Sn1  1  0.25000000  0.66347300  0.97344200  1
  Sn  Sn2  1  0.75000000  0.72074000  0.22367900  1
  Sn  Sn3  1  0.75000000  0.70440100  0.67526300  1
  Sn  Sn4  1  0.25000000  0.29559900  0.32473700  1
  Sn  Sn5  1  0.25000000  0.27926000  0.77632100  1
loop_
_geom_bond_atom_site_label_1
_geom_bond_atom_site_label_2
_geom_bond_distance
_geom_bond_site_symmetry_2
Zr0 Zr1 3.176584 1_655
Zr0 Zr1 3.176584 1_555
Zr0 Zr4 3.201848 1_555
Zr0 Zr5 3.296117 1_545
Zr1 Zr3 3.201848 1_555
Zr1 Zr2 3.296117 1_565
Zr2 Zr4 3.105966 1_555
Zr2 Zr4 3.105966 1_455
Zr2 Zr5 3.141411 1_544
Zr2 Zr5 3.141411 1_444
Zr3 Zr5 3.105966 1_455
Zr3 Zr5 3.105966 1_555
Zr3 Zr4 3.156377 1_565
Zr3 Zr4 3.156377 1_465
Sn0 Zr4 3.069662 1_555
Sn0 Sn5 3.227500 1_654
Sn0 Sn5 3.227500 1_554
Sn0 Zr5 3.232103 1_544
Sn0 Sn4 3.331597 1_555
Sn0 Sn4 3.331597 1_655
Sn0 Sn1 3.392830 1_554
Sn0 Sn1 3.392830 1_654
Sn0 Sn3 3.424211 1_554
Sn0 Zr2 3.430492 1_655
Sn0 Zr2 3.430492 1_555
Sn1 Zr3 3.069662 1_555
Sn1 Sn2 3.227500 1_456
Sn1 Sn2 3.227500 1_556
Sn1 Zr2 3.232103 1_566
Sn1 Sn3 3.331597 1_555
Sn1 Sn3 3.331597 1_455
Sn1 Sn4 3.424211 1_556
Sn1 Zr5 3.430492 1_455
Sn1 Zr5 3.430492 1_555
Sn2 Zr1 3.004231 1_655
Sn2 Zr1 3.004231 1_555
Sn2 Zr4 3.008133 1_565
Sn2 Zr5 3.066023 1_554
Sn2 Zr2 3.136095 1_565
Sn2 Zr2 3.136095 1_665
Sn2 Zr0 3.227318 1_555
Sn3 Zr1 3.027639 1_555
Sn3 Zr1 3.027639 1_655
Sn3 Zr3 3.048202 1_555
Sn3 Zr3 3.048202 1_655
Sn3 Zr4 3.054176 1_565
Sn3 Zr5 3.177615 1_555
Sn3 Zr0 3.242015 1_555
Sn4 Zr0 3.027639 1_455
Sn4 Zr0 3.027639 1_555
Sn4 Zr4 3.048202 1_555
Sn4 Zr4 3.048202 1_455
Sn4 Zr3 3.054176 1_545
Sn4 Zr2 3.177615 1_555
Sn4 Zr1 3.242015 1_555
Sn5 Zr0 3.004231 1_455
Sn5 Zr0 3.004231 1_555
Sn5 Zr3 3.008133 1_545
Sn5 Zr2 3.066023 1_556
Sn5 Zr5 3.136095 1_545
Sn5 Zr5 3.136095 1_445
Sn5 Zr1 3.227318 1_555
