# generated using pymatgen
data_Nb3V3Si2
_symmetry_space_group_name_H-M   'P 1'
_cell_length_a   4.93083109
_cell_length_b   4.93083109
_cell_length_c   4.93083109
_cell_angle_alpha   89.82803616
_cell_angle_beta   90.17196384
_cell_angle_gamma   90.17196384
_symmetry_Int_Tables_number   1
_chemical_formula_structural   Nb3V3Si2
_chemical_formula_sum   'Nb3 V3 Si2'
_cell_volume   119.88214909
_cell_formula_units_Z   1
loop_
 _symmetry_equiv_pos_site_id
 _symmetry_equiv_pos_as_xyz
  1  'x, y, z'
loop_
 _atom_site_type_symbol
 _atom_site_label
 _atom_site_symmetry_multiplicity
 _atom_site_fract_x
 _atom_site_fract_y
 _atom_site_fract_z
 _atom_site_occupancy
  Nb  Nb0  1  0.50182600  0.75000000  0.00182600  1
  Nb  Nb1  1  0.25000000  0.00182600  0.49817400  1
  Nb  Nb2  1  0.99817400  0.49817400  0.75000000  1
  V  V0  1  0.50063400  0.25000000  0.00063400  1
  V  V1  1  0.75000000  0.00063400  0.49936600  1
  V  V2  1  0.99936600  0.49936600  0.25000000  1
  Si  Si0  1  0.50206600  0.49793400  0.49793400  1
  Si  Si1  1  0.99793400  0.00206600  0.00206600  1
loop_
_geom_bond_atom_site_label_1
_geom_bond_atom_site_label_2
_geom_bond_distance
_geom_bond_site_symmetry_2
Nb0 V0 2.465430 1_565
Nb0 V0 2.465430 1_555
Nb0 Si1 2.740537 1_565
Nb0 Si0 2.740537 1_555
Nb0 Si1 2.781478 1_465
Nb0 Si0 2.781478 1_554
Nb1 V1 2.465430 1_555
Nb1 V1 2.465430 1_455
Nb1 Si0 2.740537 1_555
Nb1 Si1 2.740537 1_455
Nb1 Si0 2.781478 1_545
Nb1 Si1 2.781478 1_456
Nb2 V2 2.465430 1_555
Nb2 V2 2.465430 1_556
Nb2 Si1 2.740537 1_556
Nb2 Si0 2.740537 1_555
Nb2 Si1 2.781478 1_566
Nb2 Si0 2.781478 1_655
Si0 V1 2.743219 1_555
Si0 V0 2.743219 1_555
Si0 V2 2.743219 1_555
Si0 V0 2.760537 1_556
Si0 V2 2.760537 1_455
Si0 V1 2.760537 1_565
Si1 V0 2.743219 1_555
Si1 V1 2.743219 1_555
Si1 V2 2.743219 1_555
Si1 V1 2.760537 1_554
Si1 V2 2.760537 1_545
Si1 V0 2.760537 1_655
