# generated using pymatgen
data_Er6CoTe2
_symmetry_space_group_name_H-M   'P 1'
_cell_length_a   8.22314395
_cell_length_b   8.22314395
_cell_length_c   3.91924259
_cell_angle_alpha   90.00000000
_cell_angle_beta   90.00000000
_cell_angle_gamma   119.99999769
_symmetry_Int_Tables_number   1
_chemical_formula_structural   Er6CoTe2
_chemical_formula_sum   'Er6 Co1 Te2'
_cell_volume   229.51367858
_cell_formula_units_Z   1
loop_
 _symmetry_equiv_pos_site_id
 _symmetry_equiv_pos_as_xyz
  1  'x, y, z'
loop_
 _atom_site_type_symbol
 _atom_site_label
 _atom_site_symmetry_multiplicity
 _atom_site_fract_x
 _atom_site_fract_y
 _atom_site_fract_z
 _atom_site_occupancy
  Er  Er0  1  -0.00000000  0.39578722  0.50000000  1
  Er  Er1  1  0.60421278  0.60421278  0.50000000  1
  Er  Er2  1  0.39578722  -0.00000000  0.50000000  1
  Er  Er3  1  0.76591309  0.00000000  -0.00000000  1
  Er  Er4  1  0.00000000  0.76591309  0.00000000  1
  Er  Er5  1  0.23408691  0.23408691  -0.00000000  1
  Co  Co0  1  -0.00000000  -0.00000000  0.50000000  1
  Te  Te0  1  0.66666700  0.33333300  -0.00000000  1
  Te  Te1  1  0.33333300  0.66666700  -0.00000000  1
loop_
_geom_bond_atom_site_label_1
_geom_bond_atom_site_label_2
_geom_bond_distance
_geom_bond_site_symmetry_2
Er0 Te0 3.195228 1_456
Er0 Te0 3.195228 1_455
Er0 Te1 3.195230 1_555
Er0 Te1 3.195230 1_556
Er1 Te1 3.195234 1_555
Er1 Te1 3.195234 1_556
Er1 Te0 3.195234 1_555
Er1 Te0 3.195234 1_556
Er2 Te1 3.195228 1_545
Er2 Te1 3.195228 1_546
Er2 Te0 3.195230 1_555
Er2 Te0 3.195230 1_556
Er3 Te0 3.227442 1_555
Er3 Te1 3.227447 1_545
Er4 Te1 3.227442 1_555
Er4 Te0 3.227447 1_455
Er5 Te0 3.227450 1_555
Er5 Te1 3.227450 1_555
Co0 Er3 2.746902 1_456
Co0 Er4 2.746902 1_545
Co0 Er3 2.746902 1_455
Co0 Er4 2.746902 1_546
Co0 Er5 2.746902 1_555
Co0 Er5 2.746902 1_556
Co0 Er2 3.254615 1_555
Co0 Er0 3.254615 1_555
Co0 Er1 3.254615 1_445
