# generated using pymatgen
data_MgSi
_symmetry_space_group_name_H-M   'P 1'
_cell_length_a   5.87785077
_cell_length_b   5.87785077
_cell_length_c   10.47901064
_cell_angle_alpha   75.29108559
_cell_angle_beta   75.29108559
_cell_angle_gamma   40.47507744
_symmetry_Int_Tables_number   1
_chemical_formula_structural   MgSi
_chemical_formula_sum   'Mg6 Si6'
_cell_volume   226.23823664
_cell_formula_units_Z   6
loop_
 _symmetry_equiv_pos_site_id
 _symmetry_equiv_pos_as_xyz
  1  'x, y, z'
loop_
 _atom_site_type_symbol
 _atom_site_label
 _atom_site_symmetry_multiplicity
 _atom_site_fract_x
 _atom_site_fract_y
 _atom_site_fract_z
 _atom_site_occupancy
  Mg  Mg0  1  0.82147800  0.82147800  0.08854500  1
  Mg  Mg1  1  0.17852200  0.17852200  0.91145500  1
  Mg  Mg2  1  0.62737700  0.62737700  0.68764400  1
  Mg  Mg3  1  0.37262300  0.37262300  0.31235600  1
  Mg  Mg4  1  0.90278000  0.90278000  0.75853600  1
  Mg  Mg5  1  0.09722000  0.09722000  0.24146400  1
  Si  Si0  1  0.69091800  0.69091800  0.38212800  1
  Si  Si1  1  0.88983800  0.88983800  0.48149600  1
  Si  Si2  1  0.55410400  0.55410400  0.08249600  1
  Si  Si3  1  0.44589600  0.44589600  0.91750400  1
  Si  Si4  1  0.30908200  0.30908200  0.61787200  1
  Si  Si5  1  0.11016200  0.11016200  0.51850400  1
loop_
_geom_bond_atom_site_label_1
_geom_bond_atom_site_label_2
_geom_bond_distance
_geom_bond_site_symmetry_2
Mg0 Si3 2.810431 1_564
Mg0 Si3 2.810431 1_654
Mg0 Si2 2.966912 1_555
Mg0 Si0 3.023342 1_555
Mg1 Si2 2.810431 1_546
Mg1 Si2 2.810431 1_456
Mg1 Si3 2.966912 1_555
Mg1 Si4 3.023342 1_555
Mg2 Si3 2.683135 1_555
Mg2 Si5 2.737459 1_565
Mg2 Si5 2.737459 1_655
Mg2 Si4 2.809325 1_565
Mg2 Si4 2.809325 1_655
Mg2 Si0 3.086492 1_555
Mg2 Si1 3.108466 1_555
Mg3 Si2 2.683135 1_555
Mg3 Si1 2.737459 1_455
Mg3 Si1 2.737459 1_545
Mg3 Si0 2.809325 1_545
Mg3 Si0 2.809325 1_455
Mg3 Si4 3.086492 1_555
Mg3 Si5 3.108466 1_555
Mg4 Si3 2.750258 1_655
Mg4 Si3 2.750258 1_565
Mg4 Si4 2.863447 1_655
Mg4 Si4 2.863447 1_565
Mg4 Si5 2.906033 1_665
Mg4 Si1 2.944943 1_555
Mg5 Si2 2.750258 1_455
Mg5 Si2 2.750258 1_545
Mg5 Si0 2.863447 1_455
Mg5 Si0 2.863447 1_545
Mg5 Si1 2.906033 1_445
Mg5 Si5 2.944943 1_555
Si0 Si5 2.506143 1_655
Si0 Si5 2.506143 1_565
Si0 Si1 2.671102 1_555
Si1 Si4 2.506143 1_565
Si1 Si4 2.506143 1_655
Si1 Si5 2.562459 1_665
Si2 Si3 2.351735 1_554
Si4 Si5 2.671102 1_555
