# generated using pymatgen
data_YUTe6
_symmetry_space_group_name_H-M   'P 1'
_cell_length_a   13.25310784
_cell_length_b   13.25310784
_cell_length_c   4.37182564
_cell_angle_alpha   90.00000000
_cell_angle_beta   90.00000000
_cell_angle_gamma   161.01468576
_symmetry_Int_Tables_number   1
_chemical_formula_structural   YUTe6
_chemical_formula_sum   'Y1 U1 Te6'
_cell_volume   249.81401174
_cell_formula_units_Z   1
loop_
 _symmetry_equiv_pos_site_id
 _symmetry_equiv_pos_as_xyz
  1  'x, y, z'
loop_
 _atom_site_type_symbol
 _atom_site_label
 _atom_site_symmetry_multiplicity
 _atom_site_fract_x
 _atom_site_fract_y
 _atom_site_fract_z
 _atom_site_occupancy
  Y  Y0  1  0.83012856  0.16987144  -0.00000000  1
  U  U0  1  0.16903145  0.83096855  0.50000000  1
  Te  Te0  1  0.42500296  0.57499704  0.00000000  1
  Te  Te1  1  0.57517405  0.42482595  0.50000000  1
  Te  Te2  1  0.70637278  0.29362722  0.00000000  1
  Te  Te3  1  0.29397848  0.70602152  0.50000000  1
  Te  Te4  1  0.07514615  0.92485385  0.00000000  1
  Te  Te5  1  0.92516358  0.07483642  0.50000000  1
loop_
_geom_bond_atom_site_label_1
_geom_bond_atom_site_label_2
_geom_bond_distance
_geom_bond_site_symmetry_2
Te0 Te5 3.091213 1_564
Te0 Te5 3.091213 1_455
Te0 Te5 3.091213 1_454
Te0 Te5 3.091213 1_565
Te0 Y0 3.305962 1_455
Te0 Y0 3.305962 1_565
Te1 Te4 3.091210 1_655
Te1 Te4 3.091210 1_656
Te1 Te4 3.091210 1_545
Te1 Te4 3.091210 1_546
Te1 U0 3.286061 1_545
Te1 U0 3.286061 1_655
Te2 Y0 3.235379 1_555
Te2 U0 3.241696 1_654
Te2 U0 3.241696 1_544
Te2 U0 3.241696 1_545
Te2 U0 3.241696 1_655
Te3 Y0 3.232454 1_456
Te3 Y0 3.232454 1_455
Te3 Y0 3.232454 1_565
Te3 Y0 3.232454 1_566
Te3 U0 3.266523 1_555
Te4 U0 3.286735 1_554
Te4 U0 3.286735 1_555
Te5 Y0 3.309242 1_555
Te5 Y0 3.309242 1_556
