# generated using pymatgen
data_PrFeSb3
_symmetry_space_group_name_H-M   'P 1'
_cell_length_a   6.29798200
_cell_length_b   12.83754300
_cell_length_c   18.32800400
_cell_angle_alpha   90.00000000
_cell_angle_beta   90.00000000
_cell_angle_gamma   90.00000000
_symmetry_Int_Tables_number   1
_chemical_formula_structural   PrFeSb3
_chemical_formula_sum   'Pr12 Fe12 Sb36'
_cell_volume   1481.83039032
_cell_formula_units_Z   12
loop_
 _symmetry_equiv_pos_site_id
 _symmetry_equiv_pos_as_xyz
  1  'x, y, z'
loop_
 _atom_site_type_symbol
 _atom_site_label
 _atom_site_symmetry_multiplicity
 _atom_site_fract_x
 _atom_site_fract_y
 _atom_site_fract_z
 _atom_site_occupancy
  Pr  Pr0  1  0.52489600  0.29706800  0.58280500  1
  Pr  Pr1  1  0.47510400  0.70293200  0.41719500  1
  Pr  Pr2  1  0.47510400  0.70293200  0.08280500  1
  Pr  Pr3  1  0.02489600  0.70293200  0.91719500  1
  Pr  Pr4  1  0.52489600  0.29706800  0.91719500  1
  Pr  Pr5  1  0.97510400  0.29706800  0.08280500  1
  Pr  Pr6  1  0.97510400  0.29706800  0.41719500  1
  Pr  Pr7  1  0.02489600  0.70293200  0.58280500  1
  Pr  Pr8  1  0.05728500  0.30575700  0.75000000  1
  Pr  Pr9  1  0.94271500  0.69424300  0.25000000  1
  Pr  Pr10  1  0.55728500  0.69424300  0.75000000  1
  Pr  Pr11  1  0.44271500  0.30575700  0.25000000  1
  Fe  Fe0  1  0.25000000  0.10372500  0.50000000  1
  Fe  Fe1  1  0.75000000  0.89627500  0.50000000  1
  Fe  Fe2  1  0.75000000  0.89627500  0.00000000  1
  Fe  Fe3  1  0.25000000  0.10372500  0.00000000  1
  Fe  Fe4  1  0.82840300  0.09988900  0.67941000  1
  Fe  Fe5  1  0.17159700  0.90011100  0.32059000  1
  Fe  Fe6  1  0.17159700  0.90011100  0.17941000  1
  Fe  Fe7  1  0.32840300  0.90011100  0.82059000  1
  Fe  Fe8  1  0.82840300  0.09988900  0.82059000  1
  Fe  Fe9  1  0.67159700  0.09988900  0.17941000  1
  Fe  Fe10  1  0.67159700  0.09988900  0.32059000  1
  Fe  Fe11  1  0.32840300  0.90011100  0.67941000  1
  Sb  Sb0  1  0.29399700  0.50323800  0.66573500  1
  Sb  Sb1  1  0.70600300  0.49676200  0.33426500  1
  Sb  Sb2  1  0.70600300  0.49676200  0.16573500  1
  Sb  Sb3  1  0.79399700  0.49676200  0.83426500  1
  Sb  Sb4  1  0.29399700  0.50323800  0.83426500  1
  Sb  Sb5  1  0.20600300  0.50323800  0.16573500  1
  Sb  Sb6  1  0.20600300  0.50323800  0.33426500  1
  Sb  Sb7  1  0.79399700  0.49676200  0.66573500  1
  Sb  Sb8  1  0.17975300  0.05894100  0.75000000  1
  Sb  Sb9  1  0.82024700  0.94105900  0.25000000  1
  Sb  Sb10  1  0.67975300  0.94105900  0.75000000  1
  Sb  Sb11  1  0.32024700  0.05894100  0.25000000  1
  Sb  Sb12  1  0.25000000  0.49632000  0.50000000  1
  Sb  Sb13  1  0.75000000  0.50368000  0.50000000  1
  Sb  Sb14  1  0.75000000  0.50368000  0.00000000  1
  Sb  Sb15  1  0.25000000  0.49632000  0.00000000  1
  Sb  Sb16  1  0.53999500  0.02918900  0.58606100  1
  Sb  Sb17  1  0.46000500  0.97081100  0.41393900  1
  Sb  Sb18  1  0.46000500  0.97081100  0.08606100  1
  Sb  Sb19  1  0.03999500  0.97081100  0.91393900  1
  Sb  Sb20  1  0.53999500  0.02918900  0.91393900  1
  Sb  Sb21  1  0.96000500  0.02918900  0.08606100  1
  Sb  Sb22  1  0.96000500  0.02918900  0.41393900  1
  Sb  Sb23  1  0.03999500  0.97081100  0.58606100  1
  Sb  Sb24  1  0.02318600  0.21901600  0.58416500  1
  Sb  Sb25  1  0.97681400  0.78098400  0.41583500  1
  Sb  Sb26  1  0.97681400  0.78098400  0.08416500  1
  Sb  Sb27  1  0.52318600  0.78098400  0.91583500  1
  Sb  Sb28  1  0.02318600  0.21901600  0.91583500  1
  Sb  Sb29  1  0.47681400  0.21901600  0.08416500  1
  Sb  Sb30  1  0.47681400  0.21901600  0.41583500  1
  Sb  Sb31  1  0.52318600  0.78098400  0.58416500  1
  Sb  Sb32  1  0.55332200  0.21634700  0.75000000  1
  Sb  Sb33  1  0.44667800  0.78365300  0.25000000  1
  Sb  Sb34  1  0.05332200  0.78365300  0.75000000  1
  Sb  Sb35  1  0.94667800  0.21634700  0.25000000  1
loop_
_geom_bond_atom_site_label_1
_geom_bond_atom_site_label_2
_geom_bond_distance
_geom_bond_site_symmetry_2
Pr0 Sb30 3.234298 1_555
Pr0 Sb32 3.239773 1_555
Pr0 Sb24 3.294397 1_655
Pr0 Sb24 3.314921 1_555
Pr0 Sb13 3.368726 1_555
Pr0 Sb0 3.380831 1_555
Pr0 Sb7 3.428482 1_555
Pr0 Sb16 3.440740 1_555
Pr0 Sb12 3.441440 1_555
Pr1 Sb31 3.234298 1_555
Pr1 Sb33 3.239773 1_555
Pr1 Sb25 3.294397 1_455
Pr1 Sb25 3.314921 1_555
Pr1 Sb12 3.368726 1_555
Pr1 Sb1 3.380831 1_555
Pr1 Sb6 3.428482 1_555
Pr1 Sb17 3.440740 1_555
Pr1 Sb13 3.441440 1_555
Pr2 Sb27 3.234298 1_554
Pr2 Sb33 3.239773 1_555
Pr2 Sb26 3.294397 1_455
Pr2 Sb26 3.314921 1_555
Pr2 Sb15 3.368726 1_555
Pr2 Sb2 3.380831 1_555
Pr2 Sb5 3.428482 1_555
Pr2 Sb18 3.440740 1_555
Pr2 Sb14 3.441440 1_555
Pr3 Sb26 3.234298 1_456
Pr3 Sb34 3.239773 1_555
Pr3 Sb27 3.294397 1_555
Pr3 Sb27 3.314921 1_455
Pr3 Sb15 3.368726 1_556
Pr3 Sb3 3.380831 1_455
Pr3 Sb4 3.428482 1_555
Pr3 Sb19 3.440740 1_555
Pr3 Sb14 3.441440 1_456
Pr4 Sb29 3.234298 1_556
Pr4 Sb32 3.239773 1_555
Pr4 Sb28 3.294397 1_655
Pr4 Sb28 3.314921 1_555
Pr4 Sb14 3.368726 1_556
Pr4 Sb4 3.380831 1_555
Pr4 Sb3 3.428482 1_555
Pr4 Sb20 3.440740 1_555
Pr4 Sb15 3.441440 1_556
Pr5 Sb28 3.234298 1_654
Pr5 Sb35 3.239773 1_555
Pr5 Sb29 3.294397 1_555
Pr5 Sb29 3.314921 1_655
Pr5 Sb14 3.368726 1_555
Pr5 Sb5 3.380831 1_655
Pr5 Sb2 3.428482 1_555
Pr5 Sb21 3.440740 1_555
Pr5 Sb15 3.441440 1_655
Pr6 Sb24 3.234298 1_655
Pr6 Sb35 3.239773 1_555
Pr6 Sb30 3.294397 1_555
Pr6 Sb30 3.314921 1_655
Pr6 Sb13 3.368726 1_555
Pr6 Sb6 3.380831 1_655
Pr6 Sb1 3.428482 1_555
Pr6 Sb22 3.440740 1_555
Pr6 Sb12 3.441440 1_655
Pr7 Sb25 3.234298 1_455
Pr7 Sb34 3.239773 1_555
Pr7 Sb31 3.294397 1_555
Pr7 Sb31 3.314921 1_455
Pr7 Sb12 3.368726 1_555
Pr7 Sb7 3.380831 1_455
Pr7 Sb0 3.428482 1_555
Pr7 Sb23 3.440740 1_555
Pr7 Sb13 3.441440 1_455
Pr8 Sb24 3.244102 1_555
Pr8 Sb28 3.244102 1_555
Pr8 Sb8 3.261038 1_555
Pr8 Sb0 3.321867 1_555
Pr8 Sb4 3.321867 1_555
Pr8 Sb32 3.328218 1_555
Pr8 Sb3 3.338749 1_455
Pr8 Sb7 3.338749 1_455
Pr8 Sb32 3.375117 1_455
Pr9 Sb25 3.244102 1_555
Pr9 Sb26 3.244102 1_555
Pr9 Sb9 3.261038 1_555
Pr9 Sb1 3.321867 1_555
Pr9 Sb2 3.321867 1_555
Pr9 Sb33 3.328218 1_555
Pr9 Sb5 3.338749 1_655
Pr9 Sb6 3.338749 1_655
Pr9 Sb33 3.375117 1_655
Pr10 Sb27 3.244102 1_555
Pr10 Sb31 3.244102 1_555
Pr10 Sb10 3.261038 1_555
Pr10 Sb3 3.321867 1_555
Pr10 Sb7 3.321867 1_555
Pr10 Sb34 3.328218 1_655
Pr10 Sb0 3.338749 1_555
Pr10 Sb4 3.338749 1_555
Pr10 Sb34 3.375117 1_555
Pr11 Sb30 3.244102 1_555
Pr11 Sb29 3.244102 1_555
Pr11 Sb11 3.261038 1_555
Pr11 Sb6 3.321867 1_555
Pr11 Sb5 3.321867 1_555
Pr11 Sb35 3.328218 1_455
Pr11 Sb1 3.338749 1_555
Pr11 Sb2 3.338749 1_555
Pr11 Sb35 3.375117 1_555
Fe0 Sb30 2.571114 1_555
Fe0 Sb24 2.571114 1_555
Fe0 Sb22 2.596000 1_455
Fe0 Sb16 2.596000 1_555
Fe0 Sb17 2.673700 1_545
Fe0 Sb23 2.673700 1_545
Fe0 Pr0 3.385439 1_555
Fe0 Pr6 3.385439 1_455
Fe1 Sb25 2.571114 1_555
Fe1 Sb31 2.571114 1_555
Fe1 Sb17 2.596000 1_555
Fe1 Sb23 2.596000 1_655
Fe1 Sb22 2.673700 1_565
Fe1 Sb16 2.673700 1_565
Fe1 Pr1 3.385439 1_555
Fe1 Pr7 3.385439 1_655
Fe2 Sb26 2.571114 1_555
Fe2 Sb27 2.571114 1_554
Fe2 Sb18 2.596000 1_555
Fe2 Sb19 2.596000 1_654
Fe2 Sb21 2.673700 1_565
Fe2 Sb20 2.673700 1_564
Fe2 Pr2 3.385439 1_555
Fe2 Pr3 3.385439 1_654
Fe3 Sb29 2.571114 1_555
Fe3 Sb28 2.571114 1_554
Fe3 Sb21 2.596000 1_455
Fe3 Sb20 2.596000 1_554
Fe3 Sb18 2.673700 1_545
Fe3 Sb19 2.673700 1_544
Fe3 Pr4 3.385439 1_554
Fe3 Pr5 3.385439 1_455
Fe4 Sb10 2.589938 1_545
Fe4 Sb8 2.616610 1_655
Fe4 Sb24 2.625060 1_655
Fe4 Sb32 2.628760 1_555
Fe4 Sb16 2.655224 1_555
Fe4 Sb23 2.729250 1_645
Fe4 Pr8 3.276638 1_655
Fe4 Pr0 3.632651 1_555
Fe5 Sb11 2.589938 1_565
Fe5 Sb9 2.616610 1_455
Fe5 Sb25 2.625060 1_455
Fe5 Sb33 2.628760 1_555
Fe5 Sb17 2.655224 1_555
Fe5 Sb22 2.729250 1_465
Fe5 Pr9 3.276638 1_455
Fe5 Pr1 3.632651 1_555
Fe6 Sb11 2.589938 1_565
Fe6 Sb9 2.616610 1_455
Fe6 Sb26 2.625060 1_455
Fe6 Sb33 2.628760 1_555
Fe6 Sb18 2.655224 1_555
Fe6 Sb21 2.729250 1_465
Fe6 Pr9 3.276638 1_455
Fe6 Pr2 3.632651 1_555
Fe7 Sb8 2.589938 1_565
Fe7 Sb10 2.616610 1_555
Fe7 Sb27 2.625060 1_555
Fe7 Sb34 2.628760 1_555
Fe7 Sb19 2.655224 1_555
Fe7 Sb20 2.729250 1_565
Fe7 Pr10 3.276638 1_555
Fe7 Pr3 3.632651 1_555
Fe8 Sb10 2.589938 1_545
Fe8 Sb8 2.616610 1_655
Fe8 Sb28 2.625060 1_655
Fe8 Sb32 2.628760 1_555
Fe8 Sb20 2.655224 1_555
Fe8 Sb19 2.729250 1_645
Fe8 Pr8 3.276638 1_655
Fe8 Pr4 3.632651 1_555
Fe9 Sb9 2.589938 1_545
Fe9 Sb11 2.616610 1_555
Fe9 Sb29 2.625060 1_555
Fe9 Sb35 2.628760 1_555
Fe9 Sb21 2.655224 1_555
Fe9 Sb18 2.729250 1_545
Fe9 Pr11 3.276638 1_555
Fe9 Pr5 3.632651 1_555
Fe10 Sb9 2.589938 1_545
Fe10 Sb11 2.616610 1_555
Fe10 Sb30 2.625060 1_555
Fe10 Sb35 2.628760 1_555
Fe10 Sb22 2.655224 1_555
Fe10 Sb17 2.729250 1_545
Fe10 Pr11 3.276638 1_555
Fe10 Pr6 3.632651 1_555
Fe11 Sb8 2.589938 1_565
Fe11 Sb10 2.616610 1_555
Fe11 Sb31 2.625060 1_555
Fe11 Sb34 2.628760 1_555
Fe11 Sb23 2.655224 1_555
Fe11 Sb16 2.729250 1_565
Fe11 Pr10 3.276638 1_555
Fe11 Pr7 3.632651 1_555
Sb0 Sb12 3.051497 1_555
Sb0 Sb4 3.088819 1_555
Sb0 Sb7 3.150088 1_555
Sb0 Sb7 3.150088 1_455
Sb1 Sb13 3.051497 1_555
Sb1 Sb2 3.088819 1_555
Sb1 Sb6 3.150088 1_655
Sb1 Sb6 3.150088 1_555
Sb2 Sb5 3.150088 1_655
Sb2 Sb5 3.150088 1_555
Sb3 Sb7 3.088819 1_555
Sb3 Sb4 3.150088 1_555
Sb3 Sb4 3.150088 1_655
Sb5 Sb6 3.088819 1_555
Sb10 Sb34 3.101386 1_655
Sb11 Sb35 3.101386 1_455
Sb12 Sb6 3.051497 1_555
Sb12 Sb13 3.150408 1_455
Sb12 Sb13 3.150408 1_555
Sb13 Sb7 3.051497 1_555
Sb14 Sb3 3.051497 1_554
Sb14 Sb2 3.051497 1_555
Sb14 Sb15 3.150408 1_555
Sb14 Sb15 3.150408 1_655
Sb15 Sb4 3.051497 1_554
Sb15 Sb5 3.051497 1_555
Sb32 Sb8 3.101386 1_555
Sb33 Sb9 3.101386 1_555
