# generated using pymatgen
data_Zr3Bi
_symmetry_space_group_name_H-M   'P 1'
_cell_length_a   5.83640038
_cell_length_b   8.64972249
_cell_length_c   8.64944738
_cell_angle_alpha   83.46870569
_cell_angle_beta   70.28398357
_cell_angle_gamma   70.27851081
_symmetry_Int_Tables_number   1
_chemical_formula_structural   Zr3Bi
_chemical_formula_sum   'Zr12 Bi4'
_cell_volume   386.94321860
_cell_formula_units_Z   4
loop_
 _symmetry_equiv_pos_site_id
 _symmetry_equiv_pos_as_xyz
  1  'x, y, z'
loop_
 _atom_site_type_symbol
 _atom_site_label
 _atom_site_symmetry_multiplicity
 _atom_site_fract_x
 _atom_site_fract_y
 _atom_site_fract_z
 _atom_site_occupancy
  Zr  Zr0  1  0.54744426  0.97105174  0.39880486  1
  Zr  Zr1  1  0.91723493  0.02897259  0.60130852  1
  Zr  Zr2  1  0.05373070  0.39874471  0.02895633  1
  Zr  Zr3  1  0.48141216  0.60129576  0.97104050  1
  Zr  Zr4  1  0.17415794  0.33069111  0.37901286  1
  Zr  Zr5  1  0.88395088  0.66928287  0.62098560  1
  Zr  Zr6  1  0.44691194  0.37895532  0.66922606  1
  Zr  Zr7  1  0.49504858  0.62103860  0.33077038  1
  Zr  Zr8  1  0.37926127  0.02518383  0.81501497  1
  Zr  Zr9  1  0.21940983  0.97484294  0.18497778  1
  Zr  Zr10  1  0.80577273  0.81505892  0.97479159  1
  Zr  Zr11  1  0.59562569  0.18487683  0.02516820  1
  Bi  Bi0  1  0.31939535  0.74536528  0.67709952  1
  Bi  Bi1  1  0.74179920  0.25465443  0.32282785  1
  Bi  Bi2  1  0.00349545  0.67715375  0.25469800  1
  Bi  Bi3  1  0.93534909  0.32282931  0.74531797  1
loop_
_geom_bond_atom_site_label_1
_geom_bond_atom_site_label_2
_geom_bond_distance
_geom_bond_site_symmetry_2
Bi0 Zr1 2.956877 1_465
Bi0 Zr8 2.985291 1_565
Bi0 Zr3 3.002843 1_555
Bi0 Zr6 3.004374 1_555
Bi0 Zr5 3.009267 1_555
Bi0 Zr7 3.016215 1_555
Bi0 Zr5 3.026746 1_455
Bi0 Zr0 3.146321 1_555
Bi0 Zr10 3.147249 1_455
Bi1 Zr0 2.957107 1_545
Bi1 Zr9 2.985039 1_645
Bi1 Zr2 3.002844 1_655
Bi1 Zr7 3.004099 1_555
Bi1 Zr4 3.009415 1_655
Bi1 Zr6 3.016579 1_555
Bi1 Zr4 3.026621 1_555
Bi1 Zr11 3.147003 1_555
Bi1 Zr1 3.147431 1_555
Bi2 Zr3 2.957018 1_554
Bi2 Zr10 2.985807 1_454
Bi2 Zr0 3.002741 1_455
Bi2 Zr5 3.003394 1_455
Bi2 Zr7 3.009419 1_455
Bi2 Zr4 3.017311 1_555
Bi2 Zr7 3.026604 1_555
Bi2 Zr2 3.147145 1_555
Bi2 Zr9 3.147359 1_555
Bi3 Zr2 2.956970 1_656
Bi3 Zr11 2.985921 1_556
Bi3 Zr1 3.002299 1_555
Bi3 Zr4 3.003504 1_655
Bi3 Zr6 3.009090 1_555
Bi3 Zr5 3.017397 1_555
Bi3 Zr6 3.027025 1_655
Bi3 Zr8 3.146939 1_655
Bi3 Zr3 3.147303 1_555
