# generated using pymatgen
data_K3YbF6
_symmetry_space_group_name_H-M   'P 1'
_cell_length_a   6.66931813
_cell_length_b   6.66931813
_cell_length_c   6.66931813
_cell_angle_alpha   89.44786251
_cell_angle_beta   120.31928707
_cell_angle_gamma   120.31928707
_symmetry_Int_Tables_number   1
_chemical_formula_structural   K3YbF6
_chemical_formula_sum   'K3 Yb1 F6'
_cell_volume   208.74037424
_cell_formula_units_Z   1
loop_
 _symmetry_equiv_pos_site_id
 _symmetry_equiv_pos_as_xyz
  1  'x, y, z'
loop_
 _atom_site_type_symbol
 _atom_site_label
 _atom_site_symmetry_multiplicity
 _atom_site_fract_x
 _atom_site_fract_y
 _atom_site_fract_z
 _atom_site_occupancy
  K  K0  1  0.50000000  0.75000000  0.25000000  1
  K  K1  1  0.50000000  0.25000000  0.75000000  1
  K  K2  1  0.00000000  0.50000000  0.50000000  1
  Yb  Yb0  1  0.00000000  0.00000000  0.00000000  1
  F  F0  1  0.67581200  0.67581200  0.00000000  1
  F  F1  1  0.32418800  0.32418800  0.00000000  1
  F  F2  1  0.67581200  0.00000000  0.67581200  1
  F  F3  1  0.32418800  0.00000000  0.32418800  1
  F  F4  1  0.00000000  0.76350500  0.76350500  1
  F  F5  1  0.00000000  0.23649500  0.23649500  1
loop_
_geom_bond_atom_site_label_1
_geom_bond_atom_site_label_2
_geom_bond_distance
_geom_bond_site_symmetry_2
F0 Yb0 2.151670 1_665
F0 K1 2.641055 1_554
F0 K0 2.641055 1_555
F1 Yb0 2.151670 1_555
F1 K1 2.641055 1_554
F1 K0 2.641055 1_555
F2 Yb0 2.151670 1_656
F2 K1 2.641055 1_555
F2 K0 2.641055 1_545
F3 Yb0 2.151670 1_555
F3 K0 2.641055 1_545
F3 K1 2.641055 1_555
F4 Yb0 2.241305 1_566
F4 K2 2.497283 1_555
F5 Yb0 2.241305 1_555
F5 K2 2.497283 1_555
