# generated using pymatgen
data_Ce10Se14O
_symmetry_space_group_name_H-M   'P 1'
_cell_length_a   15.20566172
_cell_length_b   15.20566172
_cell_length_c   15.20566172
_cell_angle_alpha   93.94346025
_cell_angle_beta   117.74996505
_cell_angle_gamma   117.74996505
_symmetry_Int_Tables_number   1
_chemical_formula_structural   Ce10Se14O
_chemical_formula_sum   'Ce40 Se56 O4'
_cell_volume   2563.97663131
_cell_formula_units_Z   4
loop_
 _symmetry_equiv_pos_site_id
 _symmetry_equiv_pos_as_xyz
  1  'x, y, z'
loop_
 _atom_site_type_symbol
 _atom_site_label
 _atom_site_symmetry_multiplicity
 _atom_site_fract_x
 _atom_site_fract_y
 _atom_site_fract_z
 _atom_site_occupancy
  Ce  Ce0  1  0.84237262  0.02082486  0.41739969  1
  Ce  Ce1  1  0.39657483  0.07502707  0.91739969  1
  Ce  Ce2  1  0.34237262  0.91739969  0.52082486  1
  Ce  Ce3  1  0.60342517  0.67845224  0.02082486  1
  Ce  Ce4  1  0.15762738  0.97917514  0.58260031  1
  Ce  Ce5  1  0.60342517  0.92497293  0.08260031  1
  Ce  Ce6  1  0.65762738  0.08260031  0.47917514  1
  Ce  Ce7  1  0.39657483  0.32154776  0.97917514  1
  Ce  Ce8  1  0.10342517  0.52082486  0.17845224  1
  Ce  Ce9  1  0.65762738  0.57502707  0.67845224  1
  Ce  Ce10  1  0.89657483  0.41739969  0.57502707  1
  Ce  Ce11  1  0.15762738  0.17845224  0.07502707  1
  Ce  Ce12  1  0.89657483  0.47917514  0.82154776  1
  Ce  Ce13  1  0.34237262  0.42497293  0.32154776  1
  Ce  Ce14  1  0.10342517  0.58260031  0.42497293  1
  Ce  Ce15  1  0.84237262  0.82154776  0.92497293  1
  Ce  Ce16  1  0.37494180  0.80517946  0.18896649  1
  Ce  Ce17  1  0.38378703  0.31402469  0.68896649  1
  Ce  Ce18  1  0.87494180  0.68896649  0.30517946  1
  Ce  Ce19  1  0.61621297  0.93023766  0.80517946  1
  Ce  Ce20  1  0.62505820  0.19482054  0.81103351  1
  Ce  Ce21  1  0.61621297  0.68597531  0.31103351  1
  Ce  Ce22  1  0.12505820  0.31103351  0.69482054  1
  Ce  Ce23  1  0.38378703  0.06976234  0.19482054  1
  Ce  Ce24  1  0.11621297  0.30517946  0.43023766  1
  Ce  Ce25  1  0.12505820  0.81402469  0.93023766  1
  Ce  Ce26  1  0.88378703  0.18896649  0.81402469  1
  Ce  Ce27  1  0.62505820  0.43023766  0.31402469  1
  Ce  Ce28  1  0.88378703  0.69482054  0.56976234  1
  Ce  Ce29  1  0.87494180  0.18597531  0.06976234  1
  Ce  Ce30  1  0.11621297  0.81103351  0.18597531  1
  Ce  Ce31  1  0.37494180  0.56976234  0.68597531  1
  Ce  Ce32  1  0.48180202  0.74090101  0.49090101  1
  Ce  Ce33  1  0.75000000  0.50909899  0.99090101  1
  Ce  Ce34  1  0.98180202  0.99090101  0.24090101  1
  Ce  Ce35  1  0.25000000  0.75909899  0.74090101  1
  Ce  Ce36  1  0.51819798  0.25909899  0.50909899  1
  Ce  Ce37  1  0.25000000  0.49090101  0.00909899  1
  Ce  Ce38  1  0.01819798  0.00909899  0.75909899  1
  Ce  Ce39  1  0.75000000  0.24090101  0.25909899  1
  Se  Se0  1  0.59697915  0.62084552  0.47980762  1
  Se  Se1  1  0.85896210  0.38282847  0.97980762  1
  Se  Se2  1  0.09697915  0.97980762  0.12084552  1
  Se  Se3  1  0.14103790  0.52386637  0.62084552  1
  Se  Se4  1  0.40302085  0.37915448  0.52019238  1
  Se  Se5  1  0.14103790  0.61717153  0.02019238  1
  Se  Se6  1  0.90302085  0.02019238  0.87915448  1
  Se  Se7  1  0.85896210  0.47613363  0.37915448  1
  Se  Se8  1  0.64103790  0.12084552  0.02386637  1
  Se  Se9  1  0.90302085  0.88282847  0.52386637  1
  Se  Se10  1  0.35896210  0.47980762  0.88282847  1
  Se  Se11  1  0.40302085  0.02386637  0.38282847  1
  Se  Se12  1  0.35896210  0.87915448  0.97613363  1
  Se  Se13  1  0.09697915  0.11717153  0.47613363  1
  Se  Se14  1  0.64103790  0.52019238  0.11717153  1
  Se  Se15  1  0.59697915  0.97613363  0.61717153  1
  Se  Se16  1  0.58689177  0.02213615  0.24997516  1
  Se  Se17  1  0.22783902  0.16308339  0.74997516  1
  Se  Se18  1  0.08689177  0.74997516  0.52213615  1
  Se  Se19  1  0.77216098  0.93524438  0.02213615  1
  Se  Se20  1  0.41310823  0.97786385  0.75002484  1
  Se  Se21  1  0.77216098  0.83691661  0.25002484  1
  Se  Se22  1  0.91310823  0.25002484  0.47786385  1
  Se  Se23  1  0.22783902  0.06475562  0.97786385  1
  Se  Se24  1  0.27216098  0.52213615  0.43524438  1
  Se  Se25  1  0.91310823  0.66308339  0.93524438  1
  Se  Se26  1  0.72783902  0.24997516  0.66308339  1
  Se  Se27  1  0.41310823  0.43524438  0.16308339  1
  Se  Se28  1  0.72783902  0.47786385  0.56475562  1
  Se  Se29  1  0.08689177  0.33691661  0.06475562  1
  Se  Se30  1  0.27216098  0.75002484  0.33691661  1
  Se  Se31  1  0.58689177  0.56475562  0.83691661  1
  Se  Se32  1  0.89013579  0.10064875  0.63288788  1
  Se  Se33  1  0.53223913  0.24275208  0.13288788  1
  Se  Se34  1  0.39013579  0.13288788  0.60064875  1
  Se  Se35  1  0.46776087  0.71051295  0.10064875  1
  Se  Se36  1  0.10986421  0.89935125  0.36711212  1
  Se  Se37  1  0.46776087  0.75724792  0.86711212  1
  Se  Se38  1  0.60986421  0.86711212  0.39935125  1
  Se  Se39  1  0.53223913  0.28948705  0.89935125  1
  Se  Se40  1  0.96776087  0.60064875  0.21051295  1
  Se  Se41  1  0.60986421  0.74275208  0.71051295  1
  Se  Se42  1  0.03223913  0.63288788  0.74275208  1
  Se  Se43  1  0.10986421  0.21051295  0.24275208  1
  Se  Se44  1  0.03223913  0.39935125  0.78948705  1
  Se  Se45  1  0.39013579  0.25724792  0.28948705  1
  Se  Se46  1  0.96776087  0.36711212  0.25724792  1
  Se  Se47  1  0.89013579  0.78948705  0.75724792  1
  Se  Se48  1  0.64501078  0.25000000  0.39501078  1
  Se  Se49  1  0.14501078  0.25000000  0.89501078  1
  Se  Se50  1  0.14501078  0.89501078  0.75000000  1
  Se  Se51  1  0.85498922  0.10498922  0.25000000  1
  Se  Se52  1  0.35498922  0.75000000  0.60498922  1
  Se  Se53  1  0.85498922  0.75000000  0.10498922  1
  Se  Se54  1  0.64501078  0.39501078  0.75000000  1
  Se  Se55  1  0.35498922  0.60498922  0.25000000  1
  O  O0  1  0.75000000  0.12500000  0.87500000  1
  O  O1  1  0.75000000  0.62500000  0.37500000  1
  O  O2  1  0.25000000  0.37500000  0.62500000  1
  O  O3  1  0.25000000  0.87500000  0.12500000  1
loop_
_geom_bond_atom_site_label_1
_geom_bond_atom_site_label_2
_geom_bond_distance
_geom_bond_site_symmetry_2
Ce0 Se9 2.958581 1_545
Ce0 Se51 2.971191 1_555
Ce0 Se21 3.024531 1_545
Ce0 Se32 3.025408 1_555
Ce0 Se13 3.041490 1_655
Ce0 Se22 3.048933 1_555
Ce0 Se38 3.057907 1_545
Ce0 Se16 3.527360 1_555
Ce1 Se8 2.958581 1_556
Ce1 Se50 2.971191 1_545
Ce1 Se20 3.024531 1_545
Ce1 Se33 3.025408 1_556
Ce1 Se12 3.041490 1_545
Ce1 Se23 3.048933 1_555
Ce1 Se39 3.057907 1_555
Ce1 Se17 3.527360 1_555
Ce2 Se11 2.958581 1_565
Ce2 Se52 2.971191 1_555
Ce2 Se30 3.024531 1_555
Ce2 Se34 3.025408 1_565
Ce2 Se15 3.041490 1_555
Ce2 Se20 3.048933 1_555
Ce2 Se36 3.057907 1_555
Ce2 Se18 3.527360 1_555
Ce3 Se10 2.958581 1_554
Ce3 Se53 2.971191 1_555
Ce3 Se31 3.024531 1_554
Ce3 Se35 3.025408 1_555
Ce3 Se14 3.041490 1_555
Ce3 Se21 3.048933 1_555
Ce3 Se37 3.057907 1_554
Ce3 Se19 3.527360 1_555
Ce4 Se13 2.958581 1_565
Ce4 Se50 2.971191 1_555
Ce4 Se17 3.024531 1_565
Ce4 Se36 3.025408 1_555
Ce4 Se9 3.041490 1_455
Ce4 Se18 3.048933 1_555
Ce4 Se34 3.057907 1_565
Ce4 Se20 3.527360 1_555
Ce5 Se12 2.958581 1_554
Ce5 Se51 2.971191 1_565
Ce5 Se16 3.024531 1_565
Ce5 Se37 3.025408 1_554
Ce5 Se8 3.041490 1_565
Ce5 Se19 3.048933 1_555
Ce5 Se35 3.057907 1_555
Ce5 Se21 3.527360 1_555
Ce6 Se15 2.958581 1_545
Ce6 Se48 2.971191 1_555
Ce6 Se26 3.024531 1_555
Ce6 Se38 3.025408 1_545
Ce6 Se11 3.041490 1_555
Ce6 Se16 3.048933 1_555
Ce6 Se32 3.057907 1_555
Ce6 Se22 3.527360 1_555
Ce7 Se14 2.958581 1_556
Ce7 Se49 2.971191 1_555
Ce7 Se27 3.024531 1_556
Ce7 Se39 3.025408 1_555
Ce7 Se10 3.041490 1_555
Ce7 Se17 3.048933 1_555
Ce7 Se33 3.057907 1_556
Ce7 Se23 3.527360 1_555
Ce8 Se1 2.958581 1_454
Ce8 Se55 2.971191 1_555
Ce8 Se29 3.024531 1_555
Ce8 Se40 3.025408 1_455
Ce8 Se5 3.041490 1_555
Ce8 Se30 3.048933 1_555
Ce8 Se46 3.057907 1_455
Ce8 Se24 3.527360 1_555
Ce9 Se0 2.958581 1_555
Ce9 Se54 2.971191 1_555
Ce9 Se28 3.024531 1_555
Ce9 Se41 3.025407 1_555
Ce9 Se4 3.041490 1_555
Ce9 Se31 3.048933 1_555
Ce9 Se47 3.057907 1_555
Ce9 Se25 3.527360 1_555
Ce10 Se3 2.958581 1_655
Ce10 Se48 2.971191 1_555
Ce10 Se22 3.024531 1_555
Ce10 Se42 3.025408 1_655
Ce10 Se7 3.041490 1_555
Ce10 Se28 3.048933 1_555
Ce10 Se44 3.057907 1_655
Ce10 Se26 3.527360 1_555
Ce11 Se2 2.958581 1_545
Ce11 Se49 2.971191 1_554
Ce11 Se23 3.024531 1_554
Ce11 Se43 3.025407 1_555
Ce11 Se6 3.041490 1_454
Ce11 Se29 3.048933 1_555
Ce11 Se45 3.057907 1_555
Ce11 Se27 3.527360 1_555
Ce12 Se5 2.958581 1_656
Ce12 Se54 2.971191 1_555
Ce12 Se25 3.024531 1_555
Ce12 Se44 3.025408 1_655
Ce12 Se1 3.041490 1_555
Ce12 Se26 3.048933 1_555
Ce12 Se42 3.057907 1_655
Ce12 Se28 3.527360 1_555
Ce13 Se4 2.958581 1_555
Ce13 Se55 2.971191 1_555
Ce13 Se24 3.024531 1_555
Ce13 Se45 3.025407 1_555
Ce13 Se0 3.041490 1_555
Ce13 Se27 3.048933 1_555
Ce13 Se43 3.057907 1_555
Ce13 Se29 3.527360 1_555
Ce14 Se7 2.958581 1_455
Ce14 Se52 2.971191 1_555
Ce14 Se18 3.024531 1_555
Ce14 Se46 3.025408 1_455
Ce14 Se3 3.041490 1_555
Ce14 Se24 3.048933 1_555
Ce14 Se40 3.057907 1_455
Ce14 Se30 3.527360 1_555
Ce15 Se6 2.958581 1_565
Ce15 Se53 2.971191 1_556
Ce15 Se19 3.024531 1_556
Ce15 Se47 3.025407 1_555
Ce15 Se2 3.041490 1_656
Ce15 Se25 3.048933 1_555
Ce15 Se41 3.057907 1_555
Ce15 Se31 3.527360 1_555
Ce16 O3 2.445819 1_555
Ce16 Se5 2.903637 1_555
Ce16 Se16 3.004087 1_565
Ce16 Se35 3.042788 1_555
Ce16 Se38 3.113261 1_555
Ce16 Se55 3.163885 1_555
Ce16 Se30 3.243451 1_555
Ce16 Se12 3.438118 1_554
Ce17 O2 2.445819 1_555
Ce17 Se4 2.903637 1_555
Ce17 Se17 3.004087 1_555
Ce17 Se34 3.042788 1_555
Ce17 Se39 3.113260 1_555
Ce17 Se54 3.163885 1_555
Ce17 Se31 3.243451 1_555
Ce17 Se13 3.438118 1_555
Ce18 O1 2.445819 1_555
Ce18 Se14 2.903637 1_555
Ce18 Se18 3.004087 1_655
Ce18 Se40 3.042788 1_555
Ce18 Se36 3.113261 1_655
Ce18 Se53 3.163885 1_555
Ce18 Se21 3.243451 1_555
Ce18 Se7 3.438118 1_555
Ce19 O0 2.445819 1_565
Ce19 Se15 2.903637 1_555
Ce19 Se19 3.004087 1_556
Ce19 Se41 3.042788 1_555
Ce19 Se37 3.113260 1_555
Ce19 Se52 3.163885 1_555
Ce19 Se20 3.243451 1_555
Ce19 Se6 3.438118 1_565
Ce20 O0 2.445819 1_555
Ce20 Se1 2.903637 1_555
Ce20 Se20 3.004087 1_545
Ce20 Se39 3.042788 1_555
Ce20 Se34 3.113261 1_555
Ce20 Se54 3.163885 1_555
Ce20 Se26 3.243451 1_555
Ce20 Se8 3.438118 1_556
Ce21 O1 2.445819 1_555
Ce21 Se0 2.903637 1_555
Ce21 Se21 3.004087 1_555
Ce21 Se38 3.042788 1_555
Ce21 Se35 3.113260 1_555
Ce21 Se55 3.163885 1_555
Ce21 Se27 3.243451 1_555
Ce21 Se9 3.438118 1_555
Ce22 O2 2.445819 1_555
Ce22 Se10 2.903637 1_555
Ce22 Se22 3.004087 1_455
Ce22 Se44 3.042788 1_555
Ce22 Se32 3.113261 1_455
Ce22 Se49 3.163885 1_555
Ce22 Se17 3.243451 1_555
Ce22 Se3 3.438118 1_555
Ce23 O3 2.445819 1_545
Ce23 Se11 2.903637 1_555
Ce23 Se23 3.004087 1_554
Ce23 Se45 3.042788 1_555
Ce23 Se33 3.113260 1_555
Ce23 Se48 3.163885 1_555
Ce23 Se16 3.243451 1_555
Ce23 Se2 3.438118 1_545
Ce24 O2 2.445819 1_555
Ce24 Se13 2.903637 1_555
Ce24 Se24 3.004087 1_555
Ce24 Se43 3.042788 1_555
Ce24 Se46 3.113260 1_455
Ce24 Se51 3.163885 1_455
Ce24 Se22 3.243451 1_455
Ce24 Se4 3.438118 1_555
Ce25 O3 2.445819 1_556
Ce25 Se12 2.903637 1_555
Ce25 Se25 3.004087 1_455
Ce25 Se42 3.042788 1_555
Ce25 Se47 3.113261 1_455
Ce25 Se50 3.163885 1_555
Ce25 Se23 3.243451 1_565
Ce25 Se5 3.438118 1_556
Ce26 O0 2.445819 1_555
Ce26 Se6 2.903637 1_555
Ce26 Se26 3.004087 1_555
Ce26 Se32 3.042788 1_555
Ce26 Se44 3.113260 1_655
Ce26 Se49 3.163885 1_655
Ce26 Se29 3.243451 1_656
Ce26 Se15 3.438118 1_545
Ce27 O1 2.445819 1_555
Ce27 Se7 2.903637 1_555
Ce27 Se27 3.004087 1_555
Ce27 Se33 3.042788 1_555
Ce27 Se45 3.113261 1_555
Ce27 Se48 3.163885 1_555
Ce27 Se28 3.243451 1_555
Ce27 Se14 3.438118 1_555
Ce28 O1 2.445819 1_555
Ce28 Se9 2.903637 1_555
Ce28 Se28 3.004087 1_555
Ce28 Se47 3.042788 1_555
Ce28 Se42 3.113260 1_655
Ce28 Se50 3.163885 1_655
Ce28 Se18 3.243451 1_655
Ce28 Se0 3.438118 1_555
Ce29 O0 2.445819 1_554
Ce29 Se8 2.903637 1_555
Ce29 Se29 3.004087 1_655
Ce29 Se46 3.042788 1_555
Ce29 Se43 3.113261 1_655
Ce29 Se51 3.163885 1_555
Ce29 Se19 3.243451 1_545
Ce29 Se1 3.438118 1_554
Ce30 O3 2.445819 1_555
Ce30 Se2 2.903637 1_555
Ce30 Se30 3.004087 1_555
Ce30 Se36 3.042788 1_555
Ce30 Se40 3.113260 1_455
Ce30 Se53 3.163885 1_455
Ce30 Se25 3.243451 1_454
Ce30 Se11 3.438118 1_565
Ce31 O2 2.445819 1_555
Ce31 Se3 2.903637 1_555
Ce31 Se31 3.004087 1_555
Ce31 Se37 3.042788 1_555
Ce31 Se41 3.113261 1_555
Ce31 Se52 3.163885 1_555
Ce31 Se24 3.243451 1_555
Ce31 Se10 3.438118 1_555
Ce32 Se41 2.970606 1_555
Ce32 Se38 2.970606 1_555
Ce32 Se24 3.028059 1_555
Ce32 Se30 3.028059 1_555
Ce32 Se15 3.104544 1_555
Ce32 Se0 3.104544 1_555
Ce32 Se52 3.174489 1_555
Ce32 Se55 3.174489 1_555
Ce33 Se39 2.970606 1_555
Ce33 Se40 2.970606 1_556
Ce33 Se31 3.028059 1_555
Ce33 Se25 3.028059 1_555
Ce33 Se14 3.104544 1_556
Ce33 Se1 3.104544 1_555
Ce33 Se53 3.174489 1_556
Ce33 Se54 3.174489 1_555
Ce34 Se43 2.970606 1_665
Ce34 Se36 2.970606 1_655
Ce34 Se19 3.028059 1_555
Ce34 Se21 3.028059 1_555
Ce34 Se2 3.104544 1_655
Ce34 Se13 3.104544 1_665
Ce34 Se53 3.174489 1_555
Ce34 Se51 3.174489 1_565
Ce35 Se42 2.970606 1_555
Ce35 Se37 2.970606 1_555
Ce35 Se20 3.028059 1_555
Ce35 Se18 3.028059 1_555
Ce35 Se12 3.104544 1_555
Ce35 Se3 3.104544 1_555
Ce35 Se52 3.174489 1_555
Ce35 Se50 3.174489 1_555
Ce36 Se45 2.970606 1_555
Ce36 Se34 2.970606 1_555
Ce36 Se28 3.028059 1_555
Ce36 Se26 3.028059 1_555
Ce36 Se4 3.104544 1_555
Ce36 Se11 3.104544 1_555
Ce36 Se54 3.174489 1_555
Ce36 Se48 3.174489 1_555
Ce37 Se35 2.970606 1_555
Ce37 Se44 2.970606 1_554
Ce37 Se29 3.028059 1_555
Ce37 Se27 3.028059 1_555
Ce37 Se5 3.104544 1_555
Ce37 Se10 3.104544 1_554
Ce37 Se55 3.174489 1_555
Ce37 Se49 3.174489 1_554
Ce38 Se47 2.970606 1_445
Ce38 Se32 2.970606 1_455
Ce38 Se23 3.028059 1_555
Ce38 Se17 3.028059 1_555
Ce38 Se6 3.104544 1_455
Ce38 Se9 3.104544 1_445
Ce38 Se50 3.174489 1_545
Ce38 Se49 3.174489 1_555
Ce39 Se46 2.970606 1_555
Ce39 Se33 2.970606 1_555
Ce39 Se22 3.028059 1_555
Ce39 Se16 3.028059 1_555
Ce39 Se7 3.104544 1_555
Ce39 Se8 3.104544 1_555
Ce39 Se51 3.174489 1_555
Ce39 Se48 3.174489 1_555
