# generated using pymatgen
data_Lu3Th
_symmetry_space_group_name_H-M   'P 1'
_cell_length_a   7.05427293
_cell_length_b   7.05427293
_cell_length_c   22.50858676
_cell_angle_alpha   90.00000000
_cell_angle_beta   90.00000000
_cell_angle_gamma   119.99998885
_symmetry_Int_Tables_number   1
_chemical_formula_structural   Lu3Th
_chemical_formula_sum   'Lu24 Th8'
_cell_volume   970.02611299
_cell_formula_units_Z   8
loop_
 _symmetry_equiv_pos_site_id
 _symmetry_equiv_pos_as_xyz
  1  'x, y, z'
loop_
 _atom_site_type_symbol
 _atom_site_label
 _atom_site_symmetry_multiplicity
 _atom_site_fract_x
 _atom_site_fract_y
 _atom_site_fract_z
 _atom_site_occupancy
  Lu  Lu0_0  1  0.16666650  0.33333350  0.00000000  1
  Lu  Lu0_1  1  0.16666650  0.33333350  0.50000000  1
  Lu  Lu0_2  1  0.16666650  0.83333350  0.00000000  1
  Lu  Lu0_3  1  0.16666650  0.83333350  0.50000000  1
  Lu  Lu0_4  1  0.66666650  0.33333350  0.00000000  1
  Lu  Lu0_5  1  0.66666650  0.33333350  0.50000000  1
  Lu  Lu0_6  1  0.66666650  0.83333350  0.00000000  1
  Lu  Lu0_7  1  0.66666650  0.83333350  0.50000000  1
  Lu  Lu1_0  1  0.33333350  0.16666650  0.37788701  1
  Lu  Lu1_1  1  0.33333350  0.16666650  0.87788701  1
  Lu  Lu1_2  1  0.33333350  0.66666650  0.37788701  1
  Lu  Lu1_3  1  0.33333350  0.66666650  0.87788701  1
  Lu  Lu1_4  1  0.83333350  0.16666650  0.37788701  1
  Lu  Lu1_5  1  0.83333350  0.16666650  0.87788701  1
  Lu  Lu1_6  1  0.83333350  0.66666650  0.37788701  1
  Lu  Lu1_7  1  0.83333350  0.66666650  0.87788701  1
  Lu  Lu2_0  1  0.33333350  0.16666650  0.12211298  1
  Lu  Lu2_1  1  0.33333350  0.16666650  0.62211298  1
  Lu  Lu2_2  1  0.33333350  0.66666650  0.12211298  1
  Lu  Lu2_3  1  0.33333350  0.66666650  0.62211298  1
  Lu  Lu2_4  1  0.83333350  0.16666650  0.12211298  1
  Lu  Lu2_5  1  0.83333350  0.16666650  0.62211298  1
  Lu  Lu2_6  1  0.83333350  0.66666650  0.12211298  1
  Lu  Lu2_7  1  0.83333350  0.66666650  0.62211298  1
  Th  Th0_0  1  0.16666650  0.33333350  0.25000000  1
  Th  Th0_1  1  0.16666650  0.33333350  0.75000000  1
  Th  Th0_2  1  0.16666650  0.83333350  0.25000000  1
  Th  Th0_3  1  0.16666650  0.83333350  0.75000000  1
  Th  Th0_4  1  0.66666650  0.33333350  0.25000000  1
  Th  Th0_5  1  0.66666650  0.33333350  0.75000000  1
  Th  Th0_6  1  0.66666650  0.83333350  0.25000000  1
  Th  Th0_7  1  0.66666650  0.83333350  0.75000000  1
loop_
_geom_bond_atom_site_label_1
_geom_bond_atom_site_label_2
_geom_bond_distance
_geom_bond_site_symmetry_2
Lu0_0 Lu2_4 3.420766 1_455
Lu0_0 Lu2_2 3.420766 1_555
Lu0_0 Lu1_5 3.420766 1_454
Lu0_0 Lu1_3 3.420766 1_554
Lu0_0 Lu2_0 3.420770 1_555
Lu0_0 Lu1_1 3.420770 1_554
Lu0_0 Lu0_2 3.527136 1_545
Lu0_0 Lu0_4 3.527136 1_455
Lu0_0 Lu0_2 3.527136 1_555
Lu0_0 Lu0_4 3.527136 1_555
Lu0_0 Lu0_6 3.527137 1_555
Lu0_0 Lu0_6 3.527137 1_445
Lu0_1 Lu1_4 3.420766 1_455
Lu0_1 Lu2_5 3.420766 1_455
Lu0_1 Lu1_2 3.420766 1_555
Lu0_1 Lu2_3 3.420766 1_555
Lu0_1 Lu2_1 3.420770 1_555
Lu0_1 Lu1_0 3.420770 1_555
Lu0_1 Lu0_3 3.527136 1_545
Lu0_1 Lu0_5 3.527136 1_455
Lu0_1 Lu0_5 3.527136 1_555
Lu0_1 Lu0_3 3.527136 1_555
Lu0_1 Lu0_7 3.527137 1_555
Lu0_1 Lu0_7 3.527137 1_445
Lu0_2 Lu2_6 3.420766 1_455
Lu0_2 Lu2_0 3.420766 1_565
Lu0_2 Lu1_7 3.420766 1_454
Lu0_2 Lu1_1 3.420766 1_564
Lu0_2 Lu2_2 3.420770 1_555
Lu0_2 Lu1_3 3.420770 1_554
Lu0_2 Lu0_6 3.527136 1_455
Lu0_2 Lu0_6 3.527136 1_555
Lu0_2 Lu0_4 3.527137 1_455
Lu0_2 Lu0_4 3.527137 1_565
Lu0_3 Lu2_7 3.420766 1_455
Lu0_3 Lu1_6 3.420766 1_455
Lu0_3 Lu2_1 3.420766 1_565
Lu0_3 Lu1_0 3.420766 1_565
Lu0_3 Lu1_2 3.420770 1_555
Lu0_3 Lu2_3 3.420770 1_555
Lu0_3 Lu0_7 3.527136 1_455
Lu0_3 Lu0_7 3.527136 1_555
Lu0_3 Lu0_5 3.527137 1_455
Lu0_3 Lu0_5 3.527137 1_565
Lu0_4 Lu2_6 3.420766 1_555
Lu0_4 Lu2_0 3.420766 1_555
Lu0_4 Lu1_7 3.420766 1_554
Lu0_4 Lu1_1 3.420766 1_554
Lu0_4 Lu2_4 3.420770 1_555
Lu0_4 Lu1_5 3.420770 1_554
Lu0_4 Lu0_6 3.527136 1_545
Lu0_4 Lu0_6 3.527136 1_555
Lu0_5 Lu2_7 3.420766 1_555
Lu0_5 Lu1_6 3.420766 1_555
Lu0_5 Lu2_1 3.420766 1_555
Lu0_5 Lu1_0 3.420766 1_555
Lu0_5 Lu1_4 3.420770 1_555
Lu0_5 Lu2_5 3.420770 1_555
Lu0_5 Lu0_7 3.527136 1_545
Lu0_5 Lu0_7 3.527136 1_555
Lu0_6 Lu2_2 3.420766 1_555
Lu0_6 Lu2_4 3.420766 1_565
Lu0_6 Lu1_3 3.420766 1_554
Lu0_6 Lu1_5 3.420766 1_564
Lu0_6 Lu2_6 3.420770 1_555
Lu0_6 Lu1_7 3.420770 1_554
Lu0_7 Lu2_3 3.420766 1_555
Lu0_7 Lu1_2 3.420766 1_555
Lu0_7 Lu1_4 3.420766 1_565
Lu0_7 Lu2_5 3.420766 1_565
Lu0_7 Lu2_7 3.420770 1_555
Lu0_7 Lu1_6 3.420770 1_555
Lu1_0 Th0_2 3.526042 1_545
Lu1_0 Th0_4 3.526042 1_555
Lu1_0 Th0_0 3.526046 1_555
Lu1_0 Lu1_2 3.527136 1_545
Lu1_0 Lu1_4 3.527136 1_455
Lu1_0 Lu1_4 3.527136 1_555
Lu1_0 Lu1_2 3.527136 1_555
Lu1_0 Lu1_6 3.527137 1_445
Lu1_0 Lu1_6 3.527137 1_555
Lu1_1 Th0_3 3.526042 1_545
Lu1_1 Th0_5 3.526042 1_555
Lu1_1 Th0_1 3.526046 1_555
Lu1_1 Lu1_5 3.527136 1_455
Lu1_1 Lu1_3 3.527136 1_545
Lu1_1 Lu1_5 3.527136 1_555
Lu1_1 Lu1_3 3.527136 1_555
Lu1_1 Lu1_7 3.527137 1_445
Lu1_1 Lu1_7 3.527137 1_555
Lu1_2 Th0_6 3.526042 1_555
Lu1_2 Th0_0 3.526042 1_555
Lu1_2 Th0_2 3.526046 1_555
Lu1_2 Lu1_6 3.527136 1_455
Lu1_2 Lu1_6 3.527136 1_555
Lu1_2 Lu1_4 3.527137 1_455
Lu1_2 Lu1_4 3.527137 1_565
Lu1_3 Th0_7 3.526042 1_555
Lu1_3 Th0_1 3.526042 1_555
Lu1_3 Th0_3 3.526046 1_555
Lu1_3 Lu1_7 3.527136 1_455
Lu1_3 Lu1_7 3.527136 1_555
Lu1_3 Lu1_5 3.527137 1_455
Lu1_3 Lu1_5 3.527137 1_565
Lu1_4 Th0_0 3.526042 1_655
Lu1_4 Th0_6 3.526042 1_545
Lu1_4 Th0_4 3.526046 1_555
Lu1_4 Lu1_6 3.527136 1_555
Lu1_4 Lu1_6 3.527136 1_545
Lu1_5 Th0_7 3.526042 1_545
Lu1_5 Th0_1 3.526042 1_655
Lu1_5 Th0_5 3.526046 1_555
Lu1_5 Lu1_7 3.527136 1_555
Lu1_5 Lu1_7 3.527136 1_545
Lu1_6 Th0_4 3.526042 1_555
Lu1_6 Th0_2 3.526042 1_655
Lu1_6 Th0_6 3.526046 1_555
Lu1_7 Th0_3 3.526042 1_655
Lu1_7 Th0_5 3.526042 1_555
Lu1_7 Th0_7 3.526046 1_555
Lu2_0 Th0_2 3.526042 1_545
Lu2_0 Th0_4 3.526042 1_555
Lu2_0 Th0_0 3.526046 1_555
Lu2_0 Lu2_4 3.527136 1_455
Lu2_0 Lu2_2 3.527136 1_545
Lu2_0 Lu2_2 3.527136 1_555
Lu2_0 Lu2_4 3.527136 1_555
Lu2_0 Lu2_6 3.527137 1_445
Lu2_0 Lu2_6 3.527137 1_555
Lu2_1 Th0_3 3.526042 1_545
Lu2_1 Th0_5 3.526042 1_555
Lu2_1 Th0_1 3.526046 1_555
Lu2_1 Lu2_3 3.527136 1_545
Lu2_1 Lu2_5 3.527136 1_455
Lu2_1 Lu2_5 3.527136 1_555
Lu2_1 Lu2_3 3.527136 1_555
Lu2_1 Lu2_7 3.527137 1_445
Lu2_1 Lu2_7 3.527137 1_555
Lu2_2 Th0_6 3.526042 1_555
Lu2_2 Th0_0 3.526042 1_555
Lu2_2 Th0_2 3.526046 1_555
Lu2_2 Lu2_6 3.527136 1_455
Lu2_2 Lu2_6 3.527136 1_555
Lu2_2 Lu2_4 3.527137 1_565
Lu2_2 Lu2_4 3.527137 1_455
Lu2_3 Th0_7 3.526042 1_555
Lu2_3 Th0_1 3.526042 1_555
Lu2_3 Th0_3 3.526046 1_555
Lu2_3 Lu2_7 3.527136 1_455
Lu2_3 Lu2_7 3.527136 1_555
Lu2_3 Lu2_5 3.527137 1_565
Lu2_3 Lu2_5 3.527137 1_455
Lu2_4 Th0_6 3.526042 1_545
Lu2_4 Th0_0 3.526042 1_655
Lu2_4 Th0_4 3.526046 1_555
Lu2_4 Lu2_6 3.527136 1_555
Lu2_4 Lu2_6 3.527136 1_545
Lu2_5 Th0_7 3.526042 1_545
Lu2_5 Th0_1 3.526042 1_655
Lu2_5 Th0_5 3.526046 1_555
Lu2_5 Lu2_7 3.527136 1_555
Lu2_5 Lu2_7 3.527136 1_545
Lu2_6 Th0_4 3.526042 1_555
Lu2_6 Th0_2 3.526042 1_655
Lu2_6 Th0_6 3.526046 1_555
Lu2_7 Th0_3 3.526042 1_655
Lu2_7 Th0_5 3.526042 1_555
Lu2_7 Th0_7 3.526046 1_555
Th0_0 Th0_2 3.527136 1_545
Th0_0 Th0_4 3.527136 1_455
Th0_0 Th0_2 3.527136 1_555
Th0_0 Th0_4 3.527136 1_555
Th0_0 Th0_6 3.527137 1_555
Th0_0 Th0_6 3.527137 1_445
Th0_1 Th0_3 3.527136 1_545
Th0_1 Th0_5 3.527136 1_455
Th0_1 Th0_5 3.527136 1_555
Th0_1 Th0_3 3.527136 1_555
Th0_1 Th0_7 3.527137 1_555
Th0_1 Th0_7 3.527137 1_445
Th0_2 Th0_6 3.527136 1_555
Th0_2 Th0_6 3.527136 1_455
Th0_2 Th0_4 3.527137 1_455
Th0_2 Th0_4 3.527137 1_565
Th0_3 Th0_7 3.527136 1_455
Th0_3 Th0_7 3.527136 1_555
Th0_3 Th0_5 3.527137 1_455
Th0_3 Th0_5 3.527137 1_565
Th0_4 Th0_6 3.527136 1_545
Th0_4 Th0_6 3.527136 1_555
Th0_5 Th0_7 3.527136 1_545
Th0_5 Th0_7 3.527136 1_555
