# generated using pymatgen
data_Ba3Al4(Sb2O7)3
_symmetry_space_group_name_H-M   'P 1'
_cell_length_a   9.22602273
_cell_length_b   9.22602273
_cell_length_c   15.87728283
_cell_angle_alpha   63.13301815
_cell_angle_beta   63.13301815
_cell_angle_gamma   33.88193188
_symmetry_Int_Tables_number   1
_chemical_formula_structural   Ba3Al4(Sb2O7)3
_chemical_formula_sum   'Ba3 Al4 Sb6 O21'
_cell_volume   664.04393257
_cell_formula_units_Z   1
loop_
 _symmetry_equiv_pos_site_id
 _symmetry_equiv_pos_as_xyz
  1  'x, y, z'
loop_
 _atom_site_type_symbol
 _atom_site_label
 _atom_site_symmetry_multiplicity
 _atom_site_fract_x
 _atom_site_fract_y
 _atom_site_fract_z
 _atom_site_occupancy
  Ba  Ba0  1  0.39194300  0.28758400  0.84156900  1
  Ba  Ba1  1  0.96155000  0.03845000  0.50000000  1
  Ba  Ba2  1  0.71241600  0.60805700  0.15843100  1
  Al  Al0  1  0.38857300  0.43162600  0.37039900  1
  Al  Al1  1  0.10594600  0.06313500  0.02294400  1
  Al  Al2  1  0.93686500  0.89405400  0.97705600  1
  Al  Al3  1  0.56837400  0.61142700  0.62960100  1
  Sb  Sb0  1  0.09052600  0.98088700  0.73430400  1
  Sb  Sb1  1  0.68819300  0.68619400  0.39824800  1
  Sb  Sb2  1  0.37048500  0.30736600  0.10540500  1
  Sb  Sb3  1  0.69263400  0.62951500  0.89459500  1
  Sb  Sb4  1  0.31380600  0.31180700  0.60175200  1
  Sb  Sb5  1  0.01911300  0.90947400  0.26569600  1
  O  O0  1  0.89097200  0.67140700  0.83792500  1
  O  O1  1  0.52602000  0.20789300  0.47223500  1
  O  O2  1  0.18984000  0.91520100  0.14378700  1
  O  O3  1  0.52767500  0.24498300  0.64760700  1
  O  O4  1  0.24347000  0.74762900  0.34775500  1
  O  O5  1  0.83492300  0.40765300  0.01947700  1
  O  O6  1  0.38126600  0.96763500  0.94798300  1
  O  O7  1  0.01790900  0.67213700  0.55429800  1
  O  O8  1  0.66725700  0.26228900  0.27483700  1
  O  O9  1  0.73771100  0.33274300  0.72516300  1
  O  O10  1  0.32786300  0.98209100  0.44570200  1
  O  O11  1  0.03236500  0.61873400  0.05201700  1
  O  O12  1  0.59234700  0.16507700  0.98052300  1
  O  O13  1  0.25237100  0.75653000  0.65224500  1
  O  O14  1  0.75501700  0.47232500  0.35239300  1
  O  O15  1  0.05873300  0.94126700  0.00000000  1
  O  O16  1  0.39779800  0.87945900  0.68218700  1
  O  O17  1  0.12054100  0.60220200  0.31781300  1
  O  O18  1  0.08479900  0.81016000  0.85621300  1
  O  O19  1  0.79210600  0.47398000  0.52776500  1
  O  O20  1  0.32859300  0.10902800  0.16207500  1
loop_
_geom_bond_atom_site_label_1
_geom_bond_atom_site_label_2
_geom_bond_distance
_geom_bond_site_symmetry_2
Ba0 O0 2.605127 1_455
Ba0 O6 2.720732 1_545
Ba0 O12 2.743483 1_555
Ba0 O3 2.828016 1_555
Ba0 O18 3.010354 1_555
Ba0 O9 3.154018 1_555
Ba0 O0 3.180743 1_545
Ba1 O10 2.699879 1_645
Ba1 O7 2.699879 1_645
Ba1 O3 2.835376 1_555
Ba1 O14 2.835376 1_555
Ba1 O13 2.898165 1_645
Ba1 O4 2.898165 1_645
Ba1 O19 3.054911 1_555
Ba1 O1 3.054917 1_555
Ba2 O20 2.605127 1_565
Ba2 O11 2.720732 1_655
Ba2 O5 2.743483 1_555
Ba2 O14 2.828016 1_555
Ba2 O2 3.010354 1_555
Ba2 O8 3.154018 1_555
Ba2 O20 3.180743 1_655
Al0 O1 1.724421 1_555
Al0 O8 1.816755 1_555
Al0 O4 1.851623 1_555
Al0 O17 1.872364 1_555
Al1 O15 1.706877 1_545
Al1 O5 1.768709 1_455
Al1 O6 1.773221 1_544
Al1 O2 1.834260 1_545
Al2 O15 1.706877 1_656
Al2 O12 1.768709 1_565
Al2 O11 1.773221 1_656
Al2 O18 1.834260 1_655
Al3 O19 1.724420 1_555
Al3 O9 1.816755 1_555
Al3 O13 1.851623 1_555
Al3 O16 1.872364 1_555
O0 Sb3 1.918129 1_555
O1 Sb4 2.001856 1_555
O2 Sb5 1.876282 1_555
O3 Sb4 1.917398 1_555
O4 Sb5 1.938806 1_555
O5 Sb3 2.016764 1_554
O6 Sb3 2.003004 1_555
O7 Sb4 1.896967 1_555
O8 Sb5 1.900268 1_645
O9 Sb0 1.900268 1_645
O10 Sb1 1.896967 1_555
O11 Sb2 2.003004 1_555
O12 Sb2 2.016764 1_556
O13 Sb0 1.938806 1_555
O14 Sb1 1.917398 1_555
O16 Sb0 1.942158 1_555
O17 Sb5 1.942158 1_555
O18 Sb0 1.876282 1_555
O19 Sb1 2.001855 1_555
O20 Sb2 1.918129 1_555
