# generated using pymatgen
data_LiV(FeO2)4
_symmetry_space_group_name_H-M   'P 1'
_cell_length_a   6.01314496
_cell_length_b   6.01314496
_cell_length_c   5.98710352
_cell_angle_alpha   90.26775828
_cell_angle_beta   59.65355919
_cell_angle_gamma   120.10681413
_symmetry_Int_Tables_number   1
_chemical_formula_structural   LiV(FeO2)4
_chemical_formula_sum   'Li1 V1 Fe4 O8'
_cell_volume   152.38121266
_cell_formula_units_Z   1
loop_
 _symmetry_equiv_pos_site_id
 _symmetry_equiv_pos_as_xyz
  1  'x, y, z'
loop_
 _atom_site_type_symbol
 _atom_site_label
 _atom_site_symmetry_multiplicity
 _atom_site_fract_x
 _atom_site_fract_y
 _atom_site_fract_z
 _atom_site_occupancy
  Li  Li0  1  0.75000000  0.37500000  0.87500000  1
  V  V0  1  0.25000000  0.37500000  0.37500000  1
  Fe  Fe0  1  0.50933000  0.75426400  0.73640500  1
  Fe  Fe1  1  0.99067000  0.99573600  0.01359500  1
  Fe  Fe2  1  0.25000000  0.87500000  0.37500000  1
  Fe  Fe3  1  0.75000000  0.37500000  0.37500000  1
  O  O0  1  0.26069800  0.12929900  0.61000300  1
  O  O1  1  0.72921800  0.12685700  0.14392500  1
  O  O2  1  0.72616000  0.60394600  0.14565400  1
  O  O3  1  0.25039900  0.12818600  0.14565400  1
  O  O4  1  0.23930200  0.62070100  0.13999700  1
  O  O5  1  0.77078200  0.62314300  0.60607500  1
  O  O6  1  0.77384000  0.14605400  0.60434600  1
  O  O7  1  0.24960100  0.62181400  0.60434600  1
loop_
_geom_bond_atom_site_label_1
_geom_bond_atom_site_label_2
_geom_bond_distance
_geom_bond_site_symmetry_2
Li0 O1 2.113406 1_556
Li0 O5 2.113406 1_555
Li0 O2 2.117554 1_556
Li0 O6 2.117554 1_555
Li0 O7 2.117558 1_655
Li0 O3 2.117558 1_556
Fe0 O7 1.921613 1_555
Fe0 O6 1.921623 1_565
Fe0 O5 1.923645 1_555
Fe0 O4 1.966113 1_556
Fe1 O3 1.921613 1_665
Fe1 O2 1.921623 1_555
Fe1 O1 1.923645 1_565
Fe1 O0 1.966113 1_664
Fe2 O1 2.030853 1_565
Fe2 O5 2.030853 1_455
Fe2 O7 2.053251 1_555
Fe2 O3 2.053251 1_565
Fe2 O0 2.072359 1_565
Fe2 O4 2.072359 1_555
Fe3 O5 2.030852 1_555
Fe3 O1 2.030852 1_555
Fe3 O6 2.053247 1_555
Fe3 O2 2.053247 1_555
Fe3 O4 2.072360 1_655
Fe3 O0 2.072360 1_555
O0 V0 2.091124 1_555
O2 V0 2.017249 1_555
O3 V0 2.017249 1_555
O4 V0 2.091124 1_555
O6 V0 2.017249 1_655
O7 V0 2.017249 1_555
