# generated using pymatgen
data_Rb4Mg(Se2O7)2
_symmetry_space_group_name_H-M   'P 1'
_cell_length_a   7.89166422
_cell_length_b   8.42078469
_cell_length_c   8.18820217
_cell_angle_alpha   90.66435976
_cell_angle_beta   91.69951594
_cell_angle_gamma   59.76549158
_symmetry_Int_Tables_number   1
_chemical_formula_structural   Rb4Mg(Se2O7)2
_chemical_formula_sum   'Rb4 Mg1 Se4 O14'
_cell_volume   469.91022852
_cell_formula_units_Z   1
loop_
 _symmetry_equiv_pos_site_id
 _symmetry_equiv_pos_as_xyz
  1  'x, y, z'
loop_
 _atom_site_type_symbol
 _atom_site_label
 _atom_site_symmetry_multiplicity
 _atom_site_fract_x
 _atom_site_fract_y
 _atom_site_fract_z
 _atom_site_occupancy
  Rb  Rb0  1  0.16973600  0.49745800  0.35238300  1
  Rb  Rb1  1  0.49175400  0.79157400  0.17322000  1
  Rb  Rb2  1  0.80034600  0.40202100  0.63961100  1
  Rb  Rb3  1  0.47588900  0.25682700  0.94682400  1
  Mg  Mg0  1  0.69371900  0.91081200  0.66887500  1
  Se  Se0  1  0.72726700  0.06037000  0.39006500  1
  Se  Se1  1  0.91962400  0.31591600  0.10745900  1
  Se  Se2  1  0.29952200  0.89851500  0.62665200  1
  Se  Se3  1  0.09808400  0.72298200  0.85747900  1
  O  O0  1  0.63809900  0.15342800  0.58685500  1
  O  O1  1  0.72168800  0.41265600  0.97824800  1
  O  O2  1  0.36250100  0.72548600  0.50110200  1
  O  O3  1  0.22666600  0.66490400  0.02835000  1
  O  O4  1  0.52489200  0.13966000  0.26899600  1
  O  O5  1  0.84393500  0.42220100  0.28952300  1
  O  O6  1  0.49193100  0.85736700  0.75165500  1
  O  O7  1  0.16782800  0.56226000  0.71836600  1
  O  O8  1  0.77945500  0.83546900  0.44421500  1
  O  O9  1  0.08892800  0.36202800  0.03756100  1
  O  O10  1  0.19024300  0.10606400  0.55089700  1
  O  O11  1  0.85426500  0.83793800  0.87717500  1
  O  O12  1  0.00995200  0.09016700  0.12262800  1
  O  O13  1  0.11534200  0.91556300  0.76519300  1
loop_
_geom_bond_atom_site_label_1
_geom_bond_atom_site_label_2
_geom_bond_distance
_geom_bond_site_symmetry_2
Mg0 O8 1.964371 1_555
Mg0 O0 1.982134 1_565
Mg0 O6 1.997676 1_555
Mg0 O11 2.000995 1_555
O0 Se0 1.785596 1_555
O0 Rb2 2.975509 1_555
O0 Rb3 3.182193 1_555
O1 Se1 1.692171 1_556
O1 Rb3 2.841956 1_555
O1 Rb2 2.849960 1_555
O1 Rb1 3.200828 1_556
O2 Se2 1.641069 1_555
O2 Rb1 3.053992 1_555
O2 Rb0 3.203396 1_555
O2 Rb2 3.317473 1_555
O3 Se3 1.630424 1_554
O3 Rb1 2.998666 1_555
O3 Rb3 3.056228 1_554
O3 Rb0 3.166256 1_555
O4 Se0 1.681294 1_555
O4 Rb3 2.774472 1_554
O4 Rb0 2.993487 1_555
O4 Rb1 3.159365 1_545
O5 Se1 1.692254 1_555
O5 Rb2 2.914311 1_555
O5 Rb0 2.971868 1_655
O5 Rb1 3.084115 1_555
O6 Se2 1.691010 1_555
O6 Rb2 3.481420 1_555
O6 Rb1 3.502527 1_556
O7 Se3 1.638112 1_555
O7 Rb0 3.038905 1_555
O7 Rb3 3.093469 1_555
O8 Se0 1.782132 1_565
O8 Rb0 3.067936 1_655
O8 Rb1 3.277595 1_555
O9 Se1 1.684183 1_455
O9 Rb3 2.838517 1_554
O9 Rb0 2.986497 1_555
O10 Se2 1.630505 1_545
O10 Rb2 2.928174 1_455
O11 Se3 1.674626 1_655
O11 Rb3 3.336298 1_565
O12 Se1 1.665185 1_455
O12 Rb1 3.354610 1_545
O13 Se2 1.817688 1_555
O13 Se3 1.864503 1_555
