# generated using pymatgen
data_Ca2Al4Si8H14O31
_symmetry_space_group_name_H-M   'P 1'
_cell_length_a   9.15515016
_cell_length_b   9.10919086
_cell_length_c   9.79312988
_cell_angle_alpha   95.11340956
_cell_angle_beta   77.61162612
_cell_angle_gamma   90.45269404
_symmetry_Int_Tables_number   1
_chemical_formula_structural   Ca2Al4Si8H14O31
_chemical_formula_sum   'Ca2 Al4 Si8 H14 O31'
_cell_volume   794.46411956
_cell_formula_units_Z   1
loop_
 _symmetry_equiv_pos_site_id
 _symmetry_equiv_pos_as_xyz
  1  'x, y, z'
loop_
 _atom_site_type_symbol
 _atom_site_label
 _atom_site_symmetry_multiplicity
 _atom_site_fract_x
 _atom_site_fract_y
 _atom_site_fract_z
 _atom_site_occupancy
  Ca  Ca0  1  0.08823000  0.84515000  0.78622600  1
  Ca  Ca1  1  0.11475100  0.17232300  0.14257000  1
  Al  Al0  1  0.30418900  0.48738100  0.90487200  1
  Al  Al1  1  0.33515400  0.80188700  0.49188400  1
  Al  Al2  1  0.64614300  0.58343400  0.14186100  1
  Al  Al3  1  0.75700600  0.36265800  0.51828900  1
  Si  Si0  1  0.98905900  0.23613900  0.52174900  1
  Si  Si1  1  0.88119400  0.60027100  0.31590400  1
  Si  Si2  1  0.59502300  0.10325100  0.34870500  1
  Si  Si3  1  0.56096000  0.32667900  0.13801300  1
  Si  Si4  1  0.62180900  0.59573400  0.79051900  1
  Si  Si5  1  0.51637600  0.86033700  0.64767400  1
  Si  Si6  1  0.06991300  0.38489100  0.82199900  1
  Si  Si7  1  0.09314600  0.76319800  0.37810600  1
  H  H0  1  0.04250900  0.90534200  0.06357600  1
  H  H1  1  0.14188100  0.53027000  0.18364700  1
  H  H2  1  0.19324600  0.35535100  0.58447300  1
  H  H3  1  0.60815800  0.14170100  0.57275200  1
  H  H4  1  0.75157700  0.62537700  0.85650300  1
  H  H5  1  0.43821700  0.05237800  0.38589700  1
  H  H6  1  0.44956100  0.25012700  0.06694800  1
  H  H7  1  0.67875000  0.89444300  0.13441500  1
  H  H8  1  0.82017100  0.34422500  0.92892700  1
  H  H9  1  0.67856500  0.87821400  0.36741100  1
  H  H10  1  0.70932100  0.01395200  0.68502700  1
  H  H11  1  0.38113700  0.77039800  0.22722100  1
  H  H12  1  0.96027600  0.93540300  0.32091400  1
  H  H13  1  0.89158100  0.13765100  0.78104500  1
  O  O0  1  0.62887800  0.19662300  0.21445200  1
  O  O1  1  0.08596500  0.35380700  0.62621400  1
  O  O2  1  0.07761900  0.59956600  0.26567000  1
  O  O3  1  0.14066300  0.75916700  0.53441300  1
  O  O4  1  0.05035000  0.57516300  0.83331900  1
  O  O5  1  0.48379900  0.53280600  0.90289900  1
  O  O6  1  0.33497700  0.89474300  0.66920900  1
  O  O7  1  0.25058600  0.34953400  0.78942300  1
  O  O8  1  0.06699700  0.91021300  0.29322700  1
  O  O9  1  0.05721100  0.37129800  0.01768100  1
  O  O10  1  0.19965700  0.41711900  0.06753900  1
  O  O11  1  0.29986000  0.78103500  0.31782800  1
  O  O12  1  0.62035400  0.21235400  0.49101800  1
  O  O13  1  0.50107400  0.47444300  0.24099400  1
  O  O14  1  0.06201600  0.98057800  0.99677200  1
  O  O15  1  0.66367300  0.48250700  0.65228300  1
  O  O16  1  0.53294500  0.78429800  0.48381200  1
  O  O17  1  0.60907100  0.01820500  0.65974700  1
  O  O18  1  0.53564700  0.73974500  0.12384400  1
  O  O19  1  0.61926900  0.86579700  0.06326200  1
  O  O20  1  0.00074200  0.06637100  0.58967100  1
  O  O21  1  0.81747200  0.44348400  0.36161300  1
  O  O22  1  0.71629300  0.96602700  0.31711200  1
  O  O23  1  0.69964000  0.40596800  0.03395100  1
  O  O24  1  0.80447700  0.65393900  0.19547200  1
  O  O25  1  0.09845300  0.21951800  0.37034300  1
  O  O26  1  0.90716700  0.30185500  0.84401900  1
  O  O27  1  0.90255400  0.72946800  0.43779200  1
  O  O28  1  0.56939700  0.75792000  0.75313800  1
  O  O29  1  0.18884000  0.64059600  0.87513700  1
  O  O30  1  0.89105700  0.03888900  0.72181800  1
loop_
_geom_bond_atom_site_label_1
_geom_bond_atom_site_label_2
_geom_bond_distance
_geom_bond_site_symmetry_2
Ca0 O14 2.273730 1_555
Ca0 O6 2.363432 1_555
Ca0 O29 2.395619 1_555
Ca0 O3 2.465552 1_555
Ca0 O4 2.549806 1_555
Ca0 O30 2.740122 1_465
Ca1 O25 2.206802 1_555
Ca1 O14 2.271657 1_544
Ca1 O9 2.396918 1_555
Ca1 O10 2.477132 1_555
Al0 O5 1.688947 1_555
Al0 O7 1.752451 1_555
Al0 O29 1.837274 1_555
Al0 O10 1.838787 1_556
Al1 O3 1.787499 1_555
Al1 O11 1.795447 1_555
Al1 O16 1.803288 1_555
Al1 O6 1.862283 1_555
Al2 O24 1.743878 1_555
Al2 O18 1.796109 1_555
Al2 O13 1.813794 1_555
Al2 O23 1.858996 1_555
Al3 O15 1.709443 1_555
Al3 O21 1.741618 1_555
Al3 O12 1.887374 1_555
H0 O14 0.978491 1_554
H1 O2 1.050012 1_555
H1 O10 1.475365 1_555
H2 O1 0.980050 1_555
H3 O12 1.058165 1_555
H3 O17 1.471546 1_555
H4 Si4 1.481606 1_555
H5 Si2 1.484429 1_555
H6 Si3 1.489146 1_555
H7 O19 0.989108 1_555
H8 O26 1.066873 1_555
H8 O23 1.418292 1_556
H9 O22 0.997326 1_555
H10 O17 1.002458 1_555
H11 O11 1.026127 1_555
H11 O18 1.563732 1_555
H12 O8 0.979578 1_655
H13 O30 1.026601 1_555
H13 O26 1.583655 1_555
O0 Si2 1.602622 1_555
O0 Si3 1.649234 1_555
O1 Si0 1.778074 1_455
O1 Si6 1.887055 1_555
O2 Si1 1.759536 1_455
O2 Si7 1.796005 1_555
O3 Si7 1.682183 1_555
O4 Si6 1.735099 1_555
O5 Si4 1.624992 1_555
O6 Si5 1.657380 1_555
O7 Si6 1.644749 1_555
O8 Si7 1.682426 1_555
O9 Si6 1.909885 1_554
O10 O9 1.530235 1_555
O11 Si7 1.867969 1_555
O12 Si2 1.694700 1_555
O13 Si3 1.631522 1_555
O15 Si4 1.605645 1_555
O16 Si5 1.666431 1_555
O17 Si5 1.672008 1_545
O20 Si0 1.749828 1_455
O21 Si1 1.602879 1_555
O22 Si2 1.642093 1_565
O23 Si3 1.653399 1_555
O24 Si1 1.608394 1_555
O25 Si0 1.596773 1_455
O26 Si6 1.646823 1_655
O27 Si1 1.641412 1_555
O27 Si7 1.751186 1_655
O28 Si5 1.602108 1_555
O28 Si4 1.652241 1_555
O29 O4 1.515877 1_555
