# generated using pymatgen
data_Na3Ga3Si3O16
_symmetry_space_group_name_H-M   'P 1'
_cell_length_a   9.02958794
_cell_length_b   9.02958794
_cell_length_c   9.02958767
_cell_angle_alpha   90.52318206
_cell_angle_beta   90.52318206
_cell_angle_gamma   90.52318184
_symmetry_Int_Tables_number   1
_chemical_formula_structural   Na3Ga3Si3O16
_chemical_formula_sum   'Na6 Ga6 Si6 O32'
_cell_volume   736.12086787
_cell_formula_units_Z   2
loop_
 _symmetry_equiv_pos_site_id
 _symmetry_equiv_pos_as_xyz
  1  'x, y, z'
loop_
 _atom_site_type_symbol
 _atom_site_label
 _atom_site_symmetry_multiplicity
 _atom_site_fract_x
 _atom_site_fract_y
 _atom_site_fract_z
 _atom_site_occupancy
  Na  Na0  1  0.31709866  0.68422360  0.31153663  1
  Na  Na1  1  0.68422360  0.31153663  0.31709866  1
  Na  Na2  1  0.31153663  0.31709866  0.68422360  1
  Na  Na3  1  0.18422360  0.81709866  0.81153663  1
  Na  Na4  1  0.81153663  0.18422360  0.81709866  1
  Na  Na5  1  0.81709866  0.81153663  0.18422360  1
  Ga  Ga0  1  0.50622714  0.75559020  0.99287701  1
  Ga  Ga1  1  0.99287701  0.50622714  0.75559020  1
  Ga  Ga2  1  0.75559020  0.99287701  0.50622714  1
  Ga  Ga3  1  0.00622714  0.49287701  0.25559020  1
  Ga  Ga4  1  0.25559020  0.00622714  0.49287701  1
  Ga  Ga5  1  0.49287701  0.25559020  0.00622714  1
  Si  Si0  1  0.00496140  0.75146257  0.50274950  1
  Si  Si1  1  0.50274950  0.00496140  0.75146257  1
  Si  Si2  1  0.75146257  0.50274950  0.00496140  1
  Si  Si3  1  0.50496140  0.00274950  0.25146257  1
  Si  Si4  1  0.25146257  0.50496140  0.00274950  1
  Si  Si5  1  0.00274950  0.25146257  0.50496140  1
  O  O0  1  0.66248972  0.64289719  0.94120722  1
  O  O1  1  0.94120722  0.66248972  0.64289719  1
  O  O2  1  0.64289719  0.94120722  0.66248972  1
  O  O3  1  0.35532557  0.64095836  0.06536697  1
  O  O4  1  0.07357676  0.64777503  0.37240033  1
  O  O5  1  0.37254593  0.92839001  0.34813902  1
  O  O6  1  0.64777503  0.37240033  0.07357676  1
  O  O7  1  0.92839001  0.34813902  0.37254593  1
  O  O8  1  0.64095836  0.06536697  0.35532557  1
  O  O9  1  0.34813902  0.37254593  0.92839001  1
  O  O10  1  0.06536697  0.35532557  0.64095836  1
  O  O11  1  0.37240033  0.07357676  0.64777503  1
  O  O12  1  0.14777503  0.57357676  0.87240033  1
  O  O13  1  0.42839001  0.87254593  0.84813902  1
  O  O14  1  0.14095836  0.85532557  0.56536697  1
  O  O15  1  0.84813902  0.42839001  0.87254593  1
  O  O16  1  0.56536697  0.14095836  0.85532557  1
  O  O17  1  0.87240033  0.14777503  0.57357676  1
  O  O18  1  0.16248972  0.44120722  0.14289719  1
  O  O19  1  0.44120722  0.14289719  0.16248972  1
  O  O20  1  0.14289719  0.16248972  0.44120722  1
  O  O21  1  0.85532557  0.56536697  0.14095836  1
  O  O22  1  0.57357676  0.87240033  0.14777503  1
  O  O23  1  0.87254593  0.84813902  0.42839001  1
  O  O24  1  -0.00224634  -0.00224634  -0.00224634  1
  O  O25  1  0.05557794  0.87291859  0.04995097  1
  O  O26  1  0.87291859  0.04995097  0.05557794  1
  O  O27  1  0.04995097  0.05557794  0.87291859  1
  O  O28  1  0.37291859  0.55557794  0.54995097  1
  O  O29  1  0.54995097  0.37291859  0.55557794  1
  O  O30  1  0.49775366  0.49775366  0.49775366  1
  O  O31  1  0.55557794  0.54995097  0.37291859  1
loop_
_geom_bond_atom_site_label_1
_geom_bond_atom_site_label_2
_geom_bond_distance
_geom_bond_site_symmetry_2
Na0 O5 2.276886 1_555
Na0 O3 2.283258 1_555
Na0 O4 2.292962 1_555
Na0 O28 2.504880 1_555
Na0 O31 2.540144 1_555
Na1 O7 2.276886 1_555
Na1 O8 2.283258 1_555
Na1 O6 2.292962 1_555
Na1 O31 2.504880 1_555
Na1 O29 2.540144 1_555
Na2 O9 2.276886 1_555
Na2 O10 2.283258 1_555
Na2 O11 2.292962 1_555
Na2 O29 2.504880 1_555
Na2 O28 2.540144 1_555
Na3 O13 2.276886 1_555
Na3 O14 2.283258 1_555
Na3 O12 2.292962 1_555
Na3 O25 2.504880 1_556
Na3 O27 2.540144 1_565
Na4 O15 2.276886 1_555
Na4 O16 2.283258 1_555
Na4 O17 2.292962 1_555
Na4 O27 2.504880 1_655
Na4 O26 2.540144 1_556
Na5 O23 2.276886 1_555
Na5 O21 2.283258 1_555
Na5 O22 2.292962 1_555
Na5 O26 2.504880 1_565
Na5 O25 2.540144 1_655
Ga0 O0 1.809305 1_555
Ga0 O13 1.827371 1_555
Ga0 O3 1.832854 1_556
Ga0 O22 1.839674 1_556
Ga1 O1 1.809305 1_555
Ga1 O15 1.827371 1_555
Ga1 O10 1.832854 1_655
Ga1 O12 1.839674 1_655
Ga2 O2 1.809305 1_555
Ga2 O23 1.827371 1_555
Ga2 O8 1.832854 1_565
Ga2 O17 1.839674 1_565
Ga3 O18 1.809305 1_555
Ga3 O7 1.827371 1_455
Ga3 O21 1.832854 1_455
Ga3 O4 1.839674 1_555
Ga4 O20 1.809305 1_555
Ga4 O5 1.827371 1_545
Ga4 O14 1.832854 1_545
Ga4 O11 1.839674 1_555
Ga5 O19 1.809305 1_555
Ga5 O9 1.827371 1_554
Ga5 O16 1.832854 1_554
Ga5 O6 1.839674 1_555
O0 Si2 1.612975 1_556
O1 Si0 1.612975 1_655
O2 Si1 1.612975 1_565
O3 Si4 1.632119 1_555
O4 Si0 1.627745 1_555
O5 Si3 1.630204 1_565
O6 Si2 1.627745 1_555
O7 Si5 1.630204 1_655
O8 Si3 1.632119 1_555
O9 Si4 1.630204 1_556
O10 Si5 1.632119 1_555
O11 Si1 1.627745 1_555
O12 Si4 1.627745 1_556
O13 Si1 1.630204 1_565
O14 Si0 1.632119 1_555
O15 Si2 1.630204 1_556
O16 Si1 1.632119 1_555
O17 Si5 1.627745 1_655
O18 Si4 1.612975 1_555
O19 Si3 1.612975 1_555
O20 Si5 1.612975 1_555
O21 Si2 1.632119 1_555
O22 Si3 1.627745 1_565
O23 Si0 1.630204 1_655
O24 O27 1.334661 1_554
O24 O26 1.334661 1_455
O24 O25 1.334661 1_545
O28 O30 1.334661 1_555
O29 O30 1.334661 1_555
O30 O31 1.334661 1_555
