# generated using pymatgen
data_MgV3(P2O7)2
_symmetry_space_group_name_H-M   'P 1'
_cell_length_a   7.73552800
_cell_length_b   7.45711700
_cell_length_c   9.55191941
_cell_angle_alpha   68.31667600
_cell_angle_beta   90.00000000
_cell_angle_gamma   90.00000000
_symmetry_Int_Tables_number   1
_chemical_formula_structural   MgV3(P2O7)2
_chemical_formula_sum   'Mg2 V6 P8 O28'
_cell_volume   512.01128623
_cell_formula_units_Z   2
loop_
 _symmetry_equiv_pos_site_id
 _symmetry_equiv_pos_as_xyz
  1  'x, y, z'
loop_
 _atom_site_type_symbol
 _atom_site_label
 _atom_site_symmetry_multiplicity
 _atom_site_fract_x
 _atom_site_fract_y
 _atom_site_fract_z
 _atom_site_occupancy
  Mg  Mg0  1  0.00000000  0.50000000  0.00000000  1
  Mg  Mg1  1  0.50000000  0.50000000  0.50000000  1
  V  V0  1  0.12862100  0.81025300  0.52315700  1
  V  V1  1  0.62862100  0.18974700  0.97684300  1
  V  V2  1  0.87137900  0.18974700  0.47684300  1
  V  V3  1  0.37137900  0.81025300  0.02315700  1
  V  V4  1  0.00000000  0.00000000  0.00000000  1
  V  V5  1  0.50000000  0.00000000  0.50000000  1
  P  P0  1  0.92842400  0.40795100  0.70824000  1
  P  P1  1  0.42842400  0.59204900  0.79176000  1
  P  P2  1  0.07157600  0.59204900  0.29176000  1
  P  P3  1  0.57157600  0.40795100  0.20824000  1
  P  P4  1  0.20793300  0.13669500  0.68453600  1
  P  P5  1  0.70793300  0.86330500  0.81546400  1
  P  P6  1  0.79206700  0.86330500  0.31546400  1
  P  P7  1  0.29206700  0.13669500  0.18453600  1
  O  O0  1  0.37820400  0.20193300  0.59778900  1
  O  O1  1  0.87820400  0.79806700  0.90221100  1
  O  O2  1  0.62179600  0.79806700  0.40221100  1
  O  O3  1  0.12179600  0.20193300  0.09778900  1
  O  O4  1  0.38324700  0.71846200  0.62455100  1
  O  O5  1  0.88324700  0.28153800  0.87544900  1
  O  O6  1  0.61675300  0.28153800  0.37544900  1
  O  O7  1  0.11675300  0.71846200  0.12455100  1
  O  O8  1  0.79631400  0.38589700  0.59643100  1
  O  O9  1  0.29631400  0.61410300  0.90356900  1
  O  O10  1  0.20368600  0.61410300  0.40356900  1
  O  O11  1  0.70368600  0.38589700  0.09643100  1
  O  O12  1  0.11295100  0.33202400  0.67368600  1
  O  O13  1  0.61295100  0.66797600  0.82631400  1
  O  O14  1  0.88704900  0.66797600  0.32631400  1
  O  O15  1  0.38704900  0.33202400  0.17368600  1
  O  O16  1  0.52677800  0.60841600  0.20344200  1
  O  O17  1  0.02677800  0.39158400  0.29655800  1
  O  O18  1  0.47322200  0.39158400  0.79655800  1
  O  O19  1  0.97322200  0.60841600  0.70344200  1
  O  O20  1  0.78069600  0.98099300  0.14595200  1
  O  O21  1  0.28069600  0.01900700  0.35404800  1
  O  O22  1  0.21930400  0.01900700  0.85404800  1
  O  O23  1  0.71930400  0.98099300  0.64595200  1
  O  O24  1  0.41170500  0.03748400  0.10742100  1
  O  O25  1  0.91170500  0.96251600  0.39257900  1
  O  O26  1  0.58829500  0.96251600  0.89257900  1
  O  O27  1  0.08829500  0.03748400  0.60742100  1
loop_
_geom_bond_atom_site_label_1
_geom_bond_atom_site_label_2
_geom_bond_distance
_geom_bond_site_symmetry_2
Mg0 O1 2.272980 1_454
Mg0 O3 2.272980 1_555
Mg0 O11 2.499440 1_455
Mg0 O9 2.499440 1_554
Mg0 O5 2.513406 1_454
Mg0 O7 2.513406 1_555
Mg0 O19 2.651112 1_454
Mg0 O17 2.651112 1_555
Mg1 O0 2.272980 1_555
Mg1 O2 2.272980 1_555
Mg1 O10 2.499440 1_555
Mg1 O8 2.499440 1_555
Mg1 O6 2.513406 1_555
Mg1 O4 2.513406 1_555
Mg1 O18 2.651112 1_555
Mg1 O16 2.651112 1_555
O0 P4 1.536301 1_555
O0 V5 2.251018 1_555
O1 P5 1.536301 1_555
O1 V4 2.251018 1_666
O2 P6 1.536301 1_555
O2 V5 2.251018 1_565
O3 P7 1.536301 1_555
O3 V4 2.251018 1_555
O4 P1 1.564971 1_555
O4 V5 2.189314 1_565
O4 V0 2.190034 1_555
O5 P0 1.564971 1_555
O5 V4 2.189314 1_656
O5 V1 2.190034 1_555
O6 P3 1.564971 1_555
O6 V5 2.189314 1_555
O6 V2 2.190034 1_555
O7 P2 1.564971 1_555
O7 V4 2.189314 1_565
O7 V3 2.190034 1_555
O8 P0 1.530295 1_555
O8 V2 2.239692 1_555
O9 P1 1.530295 1_555
O9 V3 2.239692 1_556
O10 P2 1.530295 1_555
O10 V0 2.239692 1_555
O11 P3 1.530295 1_555
O11 V1 2.239692 1_554
O12 P4 1.600214 1_555
O12 P0 1.614038 1_455
O13 P5 1.600214 1_555
O13 P1 1.614038 1_555
O14 P6 1.600214 1_555
O14 P2 1.614038 1_655
O15 P7 1.600214 1_555
O15 P3 1.614038 1_555
O16 P3 1.518638 1_555
O16 V3 2.181887 1_555
O17 P2 1.518638 1_555
O17 V2 2.181887 1_455
O18 P1 1.518638 1_555
O18 V1 2.181887 1_555
O19 P0 1.518638 1_555
O19 V0 2.181887 1_655
O20 P6 1.532836 1_555
O20 V1 2.135016 1_564
O20 V4 2.166917 1_665
O21 P7 1.532836 1_555
O21 V0 2.135016 1_545
O21 V5 2.166917 1_555
O22 P4 1.532836 1_555
O22 V3 2.135016 1_546
O22 V4 2.166917 1_556
O23 P5 1.532836 1_555
O23 V2 2.135016 1_565
O23 V5 2.166917 1_565
O24 P7 1.532676 1_555
O24 V1 2.148012 1_554
O24 V3 2.150411 1_545
O25 P6 1.532676 1_555
O25 V0 2.148012 1_655
O25 V2 2.150411 1_565
O26 P5 1.532676 1_555
O26 V3 2.148012 1_556
O26 V1 2.150411 1_565
O27 P4 1.532676 1_555
O27 V2 2.148012 1_455
O27 V0 2.150411 1_545
