# generated using pymatgen
data_SmFe5
_symmetry_space_group_name_H-M   'P 1'
_cell_length_a   5.19560092
_cell_length_b   5.19545633
_cell_length_c   3.92167717
_cell_angle_alpha   90.00000000
_cell_angle_beta   90.00000000
_cell_angle_gamma   119.99809652
_symmetry_Int_Tables_number   1
_chemical_formula_structural   SmFe5
_chemical_formula_sum   'Sm1 Fe5'
_cell_volume   91.67908821
_cell_formula_units_Z   1
loop_
 _symmetry_equiv_pos_site_id
 _symmetry_equiv_pos_as_xyz
  1  'x, y, z'
loop_
 _atom_site_type_symbol
 _atom_site_label
 _atom_site_symmetry_multiplicity
 _atom_site_fract_x
 _atom_site_fract_y
 _atom_site_fract_z
 _atom_site_occupancy
  Sm  Sm0  1  0.00000000  0.00000000  -0.00000000  1
  Fe  Fe0  1  0.33334769  0.66668873  -0.00000000  1
  Fe  Fe1  1  0.66665231  0.33331127  0.00000000  1
  Fe  Fe2  1  0.50000000  0.00000000  0.50000000  1
  Fe  Fe3  1  0.50000000  0.50000000  0.50000000  1
  Fe  Fe4  1  0.00000000  0.50000000  0.50000000  1
loop_
_geom_bond_atom_site_label_1
_geom_bond_atom_site_label_2
_geom_bond_distance
_geom_bond_site_symmetry_2
Fe0 Fe2 2.468618 1_565
Fe0 Fe2 2.468618 1_564
Fe0 Fe3 2.468686 1_555
Fe0 Fe3 2.468686 1_554
Fe0 Fe4 2.468743 1_555
Fe0 Fe4 2.468743 1_554
Fe0 Sm0 2.999576 1_565
Fe0 Sm0 2.999675 1_665
Fe0 Sm0 2.999755 1_555
Fe1 Fe2 2.468618 1_555
Fe1 Fe2 2.468618 1_554
Fe1 Fe3 2.468686 1_554
Fe1 Fe3 2.468686 1_555
Fe1 Fe4 2.468743 1_655
Fe1 Fe4 2.468743 1_654
Fe1 Sm0 2.999576 1_655
Fe1 Sm0 2.999675 1_555
Fe1 Sm0 2.999755 1_665
Fe2 Fe3 2.597728 1_555
Fe2 Fe3 2.597728 1_545
Fe2 Fe4 2.597839 1_545
Fe2 Fe4 2.597839 1_655
Fe2 Sm0 3.254759 1_556
Fe2 Sm0 3.254759 1_555
Fe2 Sm0 3.254759 1_656
Fe2 Sm0 3.254759 1_655
Fe3 Fe4 2.597800 1_555
Fe3 Fe4 2.597800 1_655
Fe3 Sm0 3.254790 1_556
Fe3 Sm0 3.254790 1_555
Fe3 Sm0 3.254790 1_665
Fe3 Sm0 3.254790 1_666
Fe4 Sm0 3.254701 1_565
Fe4 Sm0 3.254701 1_556
Fe4 Sm0 3.254701 1_555
Fe4 Sm0 3.254701 1_566
