# generated using pymatgen
data_IrS2Cl3O7
_symmetry_space_group_name_H-M   'P 1'
_cell_length_a   8.49848842
_cell_length_b   10.27457600
_cell_length_c   12.75646377
_cell_angle_alpha   90.00000000
_cell_angle_beta   85.35874428
_cell_angle_gamma   90.00000000
_symmetry_Int_Tables_number   1
_chemical_formula_structural   IrS2Cl3O7
_chemical_formula_sum   'Ir2 S4 Cl6 O14'
_cell_volume   1110.22102844
_cell_formula_units_Z   2
loop_
 _symmetry_equiv_pos_site_id
 _symmetry_equiv_pos_as_xyz
  1  'x, y, z'
loop_
 _atom_site_type_symbol
 _atom_site_label
 _atom_site_symmetry_multiplicity
 _atom_site_fract_x
 _atom_site_fract_y
 _atom_site_fract_z
 _atom_site_occupancy
  Ir  Ir0  1  0.79170000  0.75000000  0.89867200  1
  Ir  Ir1  1  0.20830000  0.25000000  0.10132800  1
  S  S0  1  0.55191400  0.75000000  0.64836800  1
  S  S1  1  0.44808600  0.25000000  0.35163200  1
  S  S2  1  0.11738600  0.75000000  0.88239100  1
  S  S3  1  0.88261400  0.25000000  0.11760900  1
  Cl  Cl0  1  0.55163800  0.75000000  0.98258900  1
  Cl  Cl1  1  0.44836200  0.25000000  0.01741100  1
  Cl  Cl2  1  0.77420100  0.53559300  0.86652800  1
  Cl  Cl3  1  0.22579900  0.03559300  0.13347200  1
  Cl  Cl4  1  0.22579900  0.46440700  0.13347200  1
  Cl  Cl5  1  0.77420100  0.96440700  0.86652800  1
  O  O0  1  0.99330400  0.75000000  0.79809100  1
  O  O1  1  0.00669600  0.25000000  0.20190900  1
  O  O2  1  0.97542200  0.75000000  0.97954300  1
  O  O3  1  0.02457800  0.25000000  0.02045700  1
  O  O4  1  0.66487900  0.75000000  0.55860800  1
  O  O5  1  0.33512100  0.25000000  0.44139200  1
  O  O6  1  0.49602100  0.62895200  0.69412600  1
  O  O7  1  0.50397900  0.12895200  0.30587400  1
  O  O8  1  0.50397900  0.37104800  0.30587400  1
  O  O9  1  0.49602100  0.87104800  0.69412600  1
  O  O10  1  0.20215700  0.62945200  0.88468900  1
  O  O11  1  0.79784300  0.12945200  0.11531100  1
  O  O12  1  0.79784300  0.37054800  0.11531100  1
  O  O13  1  0.20215700  0.87054800  0.88468900  1
loop_
_geom_bond_atom_site_label_1
_geom_bond_atom_site_label_2
_geom_bond_distance
_geom_bond_site_symmetry_2
Ir0 O2 1.939786 1_555
Ir0 O0 2.055718 1_555
Ir1 O3 1.939786 1_555
Ir1 O1 2.055718 1_555
Cl0 Ir0 2.225931 1_555
Cl1 Ir1 2.225931 1_555
Cl2 Ir0 2.247903 1_555
Cl3 Ir1 2.247903 1_555
Cl4 Ir1 2.247903 1_555
Cl5 Ir0 2.247903 1_555
O0 S2 1.565863 1_655
O1 S3 1.565863 1_455
O2 S2 1.658168 1_655
O3 S3 1.658168 1_455
O4 S0 1.433470 1_555
O5 S1 1.433470 1_555
O6 S0 1.438162 1_555
O7 S1 1.438162 1_555
O8 S1 1.438162 1_555
O9 S0 1.438162 1_555
O10 S2 1.434353 1_555
O11 S3 1.434353 1_555
O12 S3 1.434353 1_555
O13 S2 1.434353 1_555
