# generated using pymatgen
data_Th3V
_symmetry_space_group_name_H-M   'P 1'
_cell_length_a   6.88475908
_cell_length_b   6.88475908
_cell_length_c   5.48759200
_cell_angle_alpha   90.00000000
_cell_angle_beta   90.00000000
_cell_angle_gamma   119.99999119
_symmetry_Int_Tables_number   1
_chemical_formula_structural   Th3V
_chemical_formula_sum   'Th6 V2'
_cell_volume   225.26306030
_cell_formula_units_Z   2
loop_
 _symmetry_equiv_pos_site_id
 _symmetry_equiv_pos_as_xyz
  1  'x, y, z'
loop_
 _atom_site_type_symbol
 _atom_site_label
 _atom_site_symmetry_multiplicity
 _atom_site_fract_x
 _atom_site_fract_y
 _atom_site_fract_z
 _atom_site_occupancy
  Th  Th0  1  0.17712300  0.35424700  0.25000000  1
  Th  Th1  1  0.64575300  0.82287700  0.25000000  1
  Th  Th2  1  0.17712300  0.82287700  0.25000000  1
  Th  Th3  1  0.82287700  0.64575300  0.75000000  1
  Th  Th4  1  0.35424700  0.17712300  0.75000000  1
  Th  Th5  1  0.82287700  0.17712300  0.75000000  1
  V  V0  1  0.33333300  0.66666700  0.75000000  1
  V  V1  1  0.66666700  0.33333300  0.25000000  1
loop_
_geom_bond_atom_site_label_1
_geom_bond_atom_site_label_2
_geom_bond_distance
_geom_bond_site_symmetry_2
Th0 Th2 3.226405 1_555
Th0 Th1 3.226405 1_555
Th0 V0 3.316370 1_554
Th0 V0 3.316370 1_555
Th0 V1 3.444630 1_455
Th0 V1 3.444644 1_555
Th0 Th5 3.462598 1_455
Th0 Th5 3.462598 1_454
Th0 Th4 3.462605 1_555
Th0 Th4 3.462605 1_554
Th0 Th2 3.658354 1_545
Th0 Th1 3.658355 1_445
Th1 Th2 3.226405 1_555
Th1 V0 3.316370 1_554
Th1 V0 3.316370 1_555
Th1 V1 3.444630 1_565
Th1 V1 3.444644 1_555
Th1 Th5 3.462598 1_565
Th1 Th5 3.462598 1_564
Th1 Th3 3.462605 1_554
Th1 Th3 3.462605 1_555
Th1 Th2 3.658354 1_655
Th2 V0 3.316370 1_555
Th2 V0 3.316370 1_554
Th2 V1 3.444637 1_455
Th2 V1 3.444637 1_565
Th2 Th3 3.462598 1_454
Th2 Th4 3.462598 1_564
Th2 Th3 3.462598 1_455
Th2 Th4 3.462598 1_565
Th3 Th5 3.226405 1_555
Th3 Th4 3.226405 1_555
Th3 V1 3.316370 1_556
Th3 V1 3.316370 1_555
Th3 V0 3.444630 1_655
Th3 V0 3.444644 1_555
Th3 Th5 3.658354 1_565
Th3 Th4 3.658355 1_665
Th4 Th5 3.226405 1_555
Th4 V1 3.316370 1_556
Th4 V1 3.316370 1_555
Th4 V0 3.444630 1_545
Th4 V0 3.444644 1_555
Th4 Th5 3.658354 1_455
Th5 V1 3.316370 1_556
Th5 V1 3.316370 1_555
Th5 V0 3.444637 1_545
Th5 V0 3.444637 1_655
