# generated using pymatgen
data_KU2(B5O12)2
_symmetry_space_group_name_H-M   'P 1'
_cell_length_a   6.52879473
_cell_length_b   6.52879473
_cell_length_c   25.72660615
_cell_angle_alpha   93.47453465
_cell_angle_beta   93.47453465
_cell_angle_gamma   119.63058102
_symmetry_Int_Tables_number   1
_chemical_formula_structural   KU2(B5O12)2
_chemical_formula_sum   'K2 U4 B20 O48'
_cell_volume   946.24954493
_cell_formula_units_Z   2
loop_
 _symmetry_equiv_pos_site_id
 _symmetry_equiv_pos_as_xyz
  1  'x, y, z'
loop_
 _atom_site_type_symbol
 _atom_site_label
 _atom_site_symmetry_multiplicity
 _atom_site_fract_x
 _atom_site_fract_y
 _atom_site_fract_z
 _atom_site_occupancy
  K  K0  1  0.24515000  0.75485000  0.75000000  1
  K  K1  1  0.75485000  0.24515000  0.25000000  1
  U  U0  1  0.77191400  0.06362600  0.90321300  1
  U  U1  1  0.93637400  0.22808600  0.59678700  1
  U  U2  1  0.22808600  0.93637400  0.09678700  1
  U  U3  1  0.06362600  0.77191400  0.40321300  1
  B  B0  1  0.09330300  0.71878900  0.90124100  1
  B  B1  1  0.28121100  0.90669700  0.59875900  1
  B  B2  1  0.90669700  0.28121100  0.09875900  1
  B  B3  1  0.71878900  0.09330300  0.40124100  1
  B  B4  1  0.30254000  0.27976600  0.79693900  1
  B  B5  1  0.72023400  0.69746000  0.70306100  1
  B  B6  1  0.69746000  0.72023400  0.20306100  1
  B  B7  1  0.27976600  0.30254000  0.29693900  1
  B  B8  1  0.34200400  0.53453900  0.87444600  1
  B  B9  1  0.46546100  0.65799600  0.62555400  1
  B  B10  1  0.65799600  0.46546100  0.12555400  1
  B  B11  1  0.53453900  0.34200400  0.37444600  1
  B  B12  1  0.66688000  0.47871600  0.92405800  1
  B  B13  1  0.52128400  0.33312000  0.57594200  1
  B  B14  1  0.33312000  0.52128400  0.07594200  1
  B  B15  1  0.47871600  0.66688000  0.42405800  1
  B  B16  1  0.26762100  0.14003200  0.88429200  1
  B  B17  1  0.85996800  0.73237900  0.61570800  1
  B  B18  1  0.73237900  0.85996800  0.11570800  1
  B  B19  1  0.14003200  0.26762100  0.38429200  1
  O  O0  1  0.80205800  0.08068400  0.97295000  1
  O  O1  1  0.91931600  0.19794200  0.52705000  1
  O  O2  1  0.19794200  0.91931600  0.02705000  1
  O  O3  1  0.08068400  0.80205800  0.47295000  1
  O  O4  1  0.73325100  0.05017700  0.83343500  1
  O  O5  1  0.94982300  0.26674900  0.66656500  1
  O  O6  1  0.26674900  0.94982300  0.16656500  1
  O  O7  1  0.05017700  0.73325100  0.33343500  1
  O  O8  1  0.50570500  0.22378400  0.91152800  1
  O  O9  1  0.77621600  0.49429500  0.58847200  1
  O  O10  1  0.49429500  0.77621600  0.08847200  1
  O  O11  1  0.22378400  0.50570500  0.41152800  1
  O  O12  1  0.68385900  0.56093600  0.97913400  1
  O  O13  1  0.43906400  0.31614100  0.52086600  1
  O  O14  1  0.31614100  0.43906400  0.02086600  1
  O  O15  1  0.56093600  0.68385900  0.47913400  1
  O  O16  1  0.19056400  0.31412700  0.89622700  1
  O  O17  1  0.68587300  0.80943600  0.60377300  1
  O  O18  1  0.80943600  0.68587300  0.10377300  1
  O  O19  1  0.31412700  0.19056400  0.39622700  1
  O  O20  1  0.89132400  0.71346000  0.67221000  1
  O  O21  1  0.28654000  0.10867600  0.82779000  1
  O  O22  1  0.10867600  0.28654000  0.32779000  1
  O  O23  1  0.71346000  0.89132400  0.17221000  1
  O  O24  1  0.29988100  0.72899500  0.88883200  1
  O  O25  1  0.27100500  0.70011900  0.61116800  1
  O  O26  1  0.70011900  0.27100500  0.11116800  1
  O  O27  1  0.72899500  0.29988100  0.38883200  1
  O  O28  1  0.08003400  0.92232900  0.90179500  1
  O  O29  1  0.07767100  0.91996600  0.59820500  1
  O  O30  1  0.91996600  0.07767100  0.09820500  1
  O  O31  1  0.92232900  0.08003400  0.40179500  1
  O  O32  1  0.89969100  0.50941500  0.91124000  1
  O  O33  1  0.49058500  0.10030900  0.58876000  1
  O  O34  1  0.10030900  0.49058500  0.08876000  1
  O  O35  1  0.50941500  0.89969100  0.41124000  1
  O  O36  1  0.59740300  0.62878800  0.89643800  1
  O  O37  1  0.37121200  0.40259700  0.60356200  1
  O  O38  1  0.40259700  0.37121200  0.10356200  1
  O  O39  1  0.62878800  0.59740300  0.39643800  1
  O  O40  1  0.32800300  0.49290500  0.81716900  1
  O  O41  1  0.50709500  0.67199700  0.68283100  1
  O  O42  1  0.67199700  0.50709500  0.18283100  1
  O  O43  1  0.49290500  0.32800300  0.31716900  1
  O  O44  1  0.28565000  0.22044100  0.74432200  1
  O  O45  1  0.77955900  0.71435000  0.75567800  1
  O  O46  1  0.71435000  0.77955900  0.25567800  1
  O  O47  1  0.22044100  0.28565000  0.24432200  1
loop_
_geom_bond_atom_site_label_1
_geom_bond_atom_site_label_2
_geom_bond_distance
_geom_bond_site_symmetry_2
K0 O41 2.713498 1_555
K0 O40 2.713498 1_555
K0 O21 2.858551 1_565
K0 O20 2.858551 1_455
K0 O45 2.931733 1_455
K0 O44 2.931733 1_565
K0 O4 3.327741 1_565
K0 O5 3.327741 1_455
K1 O43 2.713498 1_555
K1 O42 2.713498 1_555
K1 O23 2.858551 1_545
K1 O22 2.858551 1_655
K1 O46 2.931733 1_545
K1 O47 2.931733 1_655
K1 O7 3.327741 1_655
K1 O6 3.327741 1_545
B0 O28 1.373060 1_555
B0 O24 1.375233 1_555
B0 O32 1.380594 1_455
B1 O29 1.373060 1_555
B1 O25 1.375233 1_555
B1 O33 1.380594 1_565
B2 O30 1.373060 1_555
B2 O26 1.375233 1_555
B2 O34 1.380594 1_655
B3 O31 1.373060 1_555
B3 O27 1.375233 1_555
B3 O35 1.380594 1_545
B4 O44 1.367731 1_555
B4 O21 1.375029 1_555
B4 O40 1.381258 1_555
B5 O45 1.367731 1_555
B5 O20 1.375029 1_555
B5 O41 1.381258 1_555
B6 O46 1.367731 1_555
B6 O23 1.375029 1_555
B6 O42 1.381258 1_555
B7 O47 1.367731 1_555
B7 O22 1.375029 1_555
B7 O43 1.381258 1_555
B8 O16 1.456150 1_555
B8 O24 1.457746 1_555
B8 O40 1.471097 1_555
B8 O36 1.519216 1_555
B9 O17 1.456150 1_555
B9 O25 1.457746 1_555
B9 O41 1.471097 1_555
B9 O37 1.519216 1_555
B10 O18 1.456150 1_555
B10 O26 1.457746 1_555
B10 O42 1.471097 1_555
B10 O38 1.519216 1_555
B11 O19 1.456150 1_555
B11 O27 1.457746 1_555
B11 O43 1.471097 1_555
B11 O39 1.519216 1_555
B12 O12 1.462200 1_555
B12 O8 1.464057 1_555
B12 O36 1.468138 1_555
B12 O32 1.492236 1_555
B13 O13 1.462200 1_555
B13 O9 1.464057 1_555
B13 O37 1.468138 1_555
B13 O33 1.492236 1_555
B14 O14 1.462200 1_555
B14 O10 1.464057 1_555
B14 O38 1.468138 1_555
B14 O34 1.492236 1_555
B15 O15 1.462200 1_555
B15 O11 1.464057 1_555
B15 O39 1.468138 1_555
B15 O35 1.492236 1_555
B16 O28 1.464943 1_545
B16 O21 1.476763 1_555
B16 O16 1.476874 1_555
B16 O8 1.478928 1_555
B17 O29 1.464943 1_655
B17 O20 1.476763 1_555
B17 O17 1.476874 1_555
B17 O9 1.478928 1_555
B18 O30 1.464943 1_565
B18 O23 1.476763 1_555
B18 O18 1.476874 1_555
B18 O10 1.478928 1_555
B19 O31 1.464943 1_455
B19 O22 1.476763 1_555
B19 O19 1.476874 1_555
B19 O11 1.478928 1_555
O0 U0 1.783600 1_555
O1 U1 1.783600 1_555
O2 U2 1.783600 1_555
O3 U3 1.783600 1_555
O4 U0 1.788309 1_555
O5 U1 1.788309 1_555
O6 U2 1.788309 1_555
O7 U3 1.788309 1_555
