# generated using pymatgen
data_DyThRe4
_symmetry_space_group_name_H-M   'P 1'
_cell_length_a   5.42235460
_cell_length_b   5.42235460
_cell_length_c   9.17147700
_cell_angle_alpha   90.00000000
_cell_angle_beta   90.00000000
_cell_angle_gamma   120.00000727
_symmetry_Int_Tables_number   1
_chemical_formula_structural   DyThRe4
_chemical_formula_sum   'Dy2 Th2 Re8'
_cell_volume   233.53163021
_cell_formula_units_Z   2
loop_
 _symmetry_equiv_pos_site_id
 _symmetry_equiv_pos_as_xyz
  1  'x, y, z'
loop_
 _atom_site_type_symbol
 _atom_site_label
 _atom_site_symmetry_multiplicity
 _atom_site_fract_x
 _atom_site_fract_y
 _atom_site_fract_z
 _atom_site_occupancy
  Dy  Dy0  1  0.33333300  0.66666700  0.43786200  1
  Dy  Dy1  1  0.66666700  0.33333300  0.56213800  1
  Th  Th0  1  0.66666700  0.33333300  0.93920800  1
  Th  Th1  1  0.33333300  0.66666700  0.06079200  1
  Re  Re0  1  0.00000000  0.00000000  0.50000000  1
  Re  Re1  1  0.00000000  0.00000000  0.00000000  1
  Re  Re2  1  0.82990600  0.17009400  0.25820800  1
  Re  Re3  1  0.82990600  0.65981200  0.25820800  1
  Re  Re4  1  0.34018800  0.17009400  0.25820800  1
  Re  Re5  1  0.17009400  0.82990600  0.74179200  1
  Re  Re6  1  0.17009400  0.34018800  0.74179200  1
  Re  Re7  1  0.65981200  0.82990600  0.74179200  1
loop_
_geom_bond_atom_site_label_1
_geom_bond_atom_site_label_2
_geom_bond_distance
_geom_bond_site_symmetry_2
Dy0 Re3 3.172758 1_455
Dy0 Re4 3.172758 1_565
Dy0 Re2 3.172760 1_455
Dy0 Re2 3.172760 1_565
Dy0 Re4 3.172763 1_555
Dy0 Re3 3.172763 1_555
Dy0 Re5 3.181273 1_555
Dy0 Re7 3.181276 1_555
Dy0 Re6 3.181276 1_555
Dy0 Re0 3.182044 1_565
Dy0 Re0 3.182049 1_555
Dy0 Re0 3.182049 1_665
Dy0 Th1 3.458289 1_555
Dy1 Re7 3.172758 1_545
Dy1 Re6 3.172758 1_655
Dy1 Re5 3.172760 1_655
Dy1 Re5 3.172760 1_545
Dy1 Re6 3.172763 1_555
Dy1 Re7 3.172763 1_555
Dy1 Re2 3.181273 1_555
Dy1 Re3 3.181276 1_555
Dy1 Re4 3.181276 1_555
Dy1 Re0 3.182044 1_655
Dy1 Re0 3.182049 1_555
Dy1 Re0 3.182049 1_665
Dy1 Th0 3.458289 1_555
Th0 Th1 3.323264 1_546
Th0 Th1 3.323264 1_656
Th0 Th1 3.323273 1_556
Re0 Re4 2.733070 1_555
Re0 Re6 2.733070 1_555
Re0 Re7 2.733070 1_445
Re0 Re3 2.733070 1_445
Re0 Re5 2.733070 1_545
Re0 Re2 2.733070 1_455
Re1 Re6 2.856588 1_554
Re1 Re4 2.856588 1_555
Re1 Re3 2.856588 1_445
Re1 Re7 2.856588 1_444
Re1 Re5 2.856588 1_544
Re1 Re2 2.856588 1_455
Re1 Th1 3.179857 1_545
Re1 Th0 3.179857 1_454
Re1 Th0 3.179861 1_554
Re1 Th1 3.179861 1_555
Re1 Th0 3.179861 1_444
Re1 Th1 3.179861 1_445
Re2 Re3 2.655425 1_555
Re2 Re4 2.655425 1_555
Re2 Re4 2.766930 1_655
Re2 Re3 2.766930 1_545
Re2 Th1 3.260334 1_545
Re2 Th1 3.260334 1_655
Re2 Th0 3.303051 1_554
Re3 Re4 2.655424 1_555
Re3 Re4 2.766930 1_665
Re3 Th1 3.260332 1_655
Re3 Th1 3.260336 1_555
Re3 Th0 3.303053 1_554
Re4 Th1 3.260332 1_545
Re4 Th1 3.260336 1_555
Re4 Th0 3.303053 1_554
Re5 Re7 2.655425 1_555
Re5 Re6 2.655425 1_555
Re5 Re6 2.766930 1_565
Re5 Re7 2.766930 1_455
Re5 Th0 3.260334 1_455
Re5 Th0 3.260334 1_565
Re5 Th1 3.303051 1_556
Re6 Re7 2.655424 1_555
Re6 Re7 2.766930 1_445
Re6 Th0 3.260332 1_455
Re6 Th0 3.260336 1_555
Re6 Th1 3.303053 1_556
Re7 Th0 3.260332 1_565
Re7 Th0 3.260336 1_555
Re7 Th1 3.303053 1_556
