# generated using pymatgen
data_Li4MnCo2O7
_symmetry_space_group_name_H-M   'P 1'
_cell_length_a   3.01813400
_cell_length_b   9.76869809
_cell_length_c   9.81412028
_cell_angle_alpha   116.38989148
_cell_angle_beta   92.73348775
_cell_angle_gamma   97.03287559
_symmetry_Int_Tables_number   1
_chemical_formula_structural   Li4MnCo2O7
_chemical_formula_sum   'Li8 Mn2 Co4 O14'
_cell_volume   255.54615319
_cell_formula_units_Z   2
loop_
 _symmetry_equiv_pos_site_id
 _symmetry_equiv_pos_as_xyz
  1  'x, y, z'
loop_
 _atom_site_type_symbol
 _atom_site_label
 _atom_site_symmetry_multiplicity
 _atom_site_fract_x
 _atom_site_fract_y
 _atom_site_fract_z
 _atom_site_occupancy
  Li  Li0  1  0.78636000  0.57682900  0.14648000  1
  Li  Li1  1  0.06538800  0.13860200  0.28355600  1
  Li  Li2  1  0.36112200  0.72009800  0.42740600  1
  Li  Li3  1  0.63887800  0.27990200  0.57259400  1
  Li  Li4  1  0.93461200  0.86139800  0.71644400  1
  Li  Li5  1  0.21364000  0.42317100  0.85352000  1
  Li  Li6  1  0.50000000  0.00000000  0.00000000  1
  Li  Li7  1  0.00000000  0.00000000  0.50000000  1
  Mn  Mn0  1  0.86450500  0.71582500  0.93270900  1
  Mn  Mn1  1  0.13549500  0.28417500  0.06729100  1
  Co  Co0  1  0.42289500  0.86301800  0.22765000  1
  Co  Co1  1  0.70780200  0.42856600  0.35745200  1
  Co  Co2  1  0.29219800  0.57143400  0.64254800  1
  Co  Co3  1  0.57710500  0.13698200  0.77235000  1
  O  O0  1  0.30534300  0.66097500  0.04848300  1
  O  O1  1  0.57204700  0.22457300  0.18128100  1
  O  O2  1  0.86340200  0.79254800  0.31446800  1
  O  O3  1  0.19129100  0.36881500  0.46750300  1
  O  O4  1  0.47209400  0.94759400  0.62593500  1
  O  O5  1  0.77860800  0.51291100  0.75333100  1
  O  O6  1  0.01839900  0.08208600  0.89220300  1
  O  O7  1  0.22139200  0.48708900  0.24666900  1
  O  O8  1  0.52790600  0.05240600  0.37406500  1
  O  O9  1  0.80870900  0.63118500  0.53249700  1
  O  O10  1  0.13659800  0.20745200  0.68553200  1
  O  O11  1  0.42795300  0.77542700  0.81871900  1
  O  O12  1  0.69465700  0.33902500  0.95151700  1
  O  O13  1  0.98160100  0.91791400  0.10779700  1
loop_
_geom_bond_atom_site_label_1
_geom_bond_atom_site_label_2
_geom_bond_distance
_geom_bond_site_symmetry_2
Li0 O2 1.991948 1_555
Li0 O7 2.093854 1_655
Li0 O0 2.137784 1_555
Li0 O0 2.141332 1_655
Li0 O12 2.230452 1_554
Li0 O7 2.281004 1_555
Li1 O13 2.050881 1_445
Li1 O8 2.069087 1_555
Li1 O3 2.139432 1_555
Li1 O8 2.144147 1_455
Li1 O1 2.152305 1_555
Li1 O1 2.200647 1_455
Li2 O9 2.143311 1_555
Li2 O7 2.147012 1_555
Li2 O2 2.149976 1_555
Li2 O4 2.180257 1_555
Li2 O2 2.187432 1_455
Li2 O9 2.281145 1_455
Li3 O3 2.143311 1_555
Li3 O5 2.147012 1_555
Li3 O10 2.149976 1_555
Li3 O8 2.180257 1_555
Li3 O10 2.187432 1_655
Li3 O3 2.281145 1_655
Li4 O6 2.050881 1_665
Li4 O4 2.069087 1_555
Li4 O9 2.139432 1_555
Li4 O4 2.144147 1_655
Li4 O11 2.152305 1_555
Li4 O11 2.200647 1_655
Li5 O10 1.991948 1_555
Li5 O5 2.093854 1_455
Li5 O12 2.137784 1_555
Li5 O12 2.141332 1_455
Li5 O0 2.230452 1_556
Li5 O5 2.281004 1_555
Li6 O1 2.098077 1_555
Li6 O11 2.098077 1_544
Li6 O13 2.183543 1_545
Li6 O6 2.183543 1_554
Li6 O13 2.194303 1_445
Li6 O6 2.194303 1_654
Li7 O2 2.008938 1_445
Li7 O10 2.008938 1_555
Li7 O4 2.095931 1_545
Li7 O8 2.095931 1_455
Li7 O4 2.208791 1_445
Li7 O8 2.208791 1_555
Mn0 O13 1.931452 1_556
Mn0 O5 1.955523 1_555
Mn0 O0 1.979879 1_656
Mn0 O11 1.988164 1_555
Mn0 O0 2.220097 1_556
Mn0 O11 2.236166 1_655
Mn1 O6 1.931452 1_554
Mn1 O7 1.955523 1_555
Mn1 O12 1.979879 1_454
Mn1 O1 1.988164 1_555
Mn1 O12 2.220097 1_554
Mn1 O1 2.236166 1_455
Co0 O8 1.742915 1_565
Co0 O2 1.898671 1_555
Co0 O0 1.948623 1_555
Co0 O13 2.007803 1_455
Co0 O2 2.103642 1_455
Co0 O13 2.245677 1_555
Co1 O9 1.934287 1_555
Co1 O1 1.948828 1_555
Co1 O3 2.062822 1_655
Co1 O7 2.066378 1_555
Co1 O7 2.099515 1_655
Co1 O3 2.106077 1_555
Co2 O3 1.934287 1_555
Co2 O11 1.948828 1_555
Co2 O9 2.062822 1_455
Co2 O5 2.066378 1_555
Co2 O5 2.099515 1_455
Co2 O9 2.106077 1_555
Co3 O4 1.742915 1_545
Co3 O10 1.898671 1_555
Co3 O12 1.948623 1_555
Co3 O6 2.007803 1_655
Co3 O10 2.103642 1_655
Co3 O6 2.245677 1_555
