# generated using pymatgen
data_V11S16
_symmetry_space_group_name_H-M   'P 1'
_cell_length_a   23.40253272
_cell_length_b   6.54306138
_cell_length_c   15.02828661
_cell_angle_alpha   95.52839168
_cell_angle_beta   25.20576156
_cell_angle_gamma   74.68696901
_symmetry_Int_Tables_number   1
_chemical_formula_structural   V11S16
_chemical_formula_sum   'V11 S16'
_cell_volume   546.01740061
_cell_formula_units_Z   1
loop_
 _symmetry_equiv_pos_site_id
 _symmetry_equiv_pos_as_xyz
  1  'x, y, z'
loop_
 _atom_site_type_symbol
 _atom_site_label
 _atom_site_symmetry_multiplicity
 _atom_site_fract_x
 _atom_site_fract_y
 _atom_site_fract_z
 _atom_site_occupancy
  V  V0  1  0.19715200  0.97507900  0.04952400  1
  V  V1  1  0.24777900  0.29550100  0.87268200  1
  V  V2  1  0.49798400  0.03903800  0.99471200  1
  V  V3  1  0.85131700  0.58782000  0.33496200  1
  V  V4  1  0.34807100  0.82810900  0.24327200  1
  V  V5  1  0.79471600  0.05070000  0.01839600  1
  V  V6  1  0.12205100  0.49811800  0.38834400  1
  V  V7  1  0.77398400  0.80066300  0.75209500  1
  V  V8  1  0.77231700  0.03594100  0.56756600  1
  V  V9  1  0.03356200  0.52269000  0.80089400  1
  V  V10  1  0.78590300  0.44246400  0.12637600  1
  S  S0  1  0.89656300  0.47498000  0.10413800  1
  S  S1  1  0.12167100  0.04144100  0.85837400  1
  S  S2  1  0.43857500  0.71134600  0.57414100  1
  S  S3  1  0.08585700  0.77872300  0.20051100  1
  S  S4  1  0.14073900  0.18499700  0.27181600  1
  S  S5  1  0.91658400  0.50541600  0.39364300  1
  S  S6  1  0.48132600  0.20917100  0.87681200  1
  S  S7  1  0.60922000  0.54163900  0.75181900  1
  S  S8  1  0.48816500  0.36754400  0.09803300  1
  S  S9  1  0.44940800  0.96116600  0.21302600  1
  S  S10  1  0.11550100  0.39308500  0.53021200  1
  S  S11  1  0.75148300  0.07559300  0.91115000  1
  S  S12  1  0.01659800  0.06608900  0.66894900  1
  S  S13  1  0.62347500  0.95849200  0.32051200  1
  S  S14  1  0.88342300  0.02737500  0.04831500  1
  S  S15  1  0.05658000  0.62681800  0.02972300  1
loop_
_geom_bond_atom_site_label_1
_geom_bond_atom_site_label_2
_geom_bond_distance
_geom_bond_site_symmetry_2
S0 S1 2.078415 1_654
S0 V9 2.346937 1_654
S0 V10 2.366895 1_555
S0 V3 2.479188 1_555
S1 V3 2.286347 1_456
S2 V0 2.317817 1_556
S2 V10 2.373758 1_555
S2 V5 2.440522 1_555
S2 V1 2.471029 1_565
S3 V0 2.284253 1_555
S3 V1 2.348573 1_554
S3 V8 2.355103 1_465
S4 V6 2.214723 1_555
S4 V0 2.228632 1_545
S4 V7 2.454439 1_455
S5 V0 2.227121 1_645
S5 V2 2.341311 1_565
S5 V3 2.344249 1_555
S5 V1 2.398675 1_654
S5 V7 2.438534 1_555
S5 V8 2.524499 1_565
S6 V6 2.281608 1_556
S6 V3 2.291159 1_545
S6 V2 2.435429 1_555
S6 V8 2.626044 1_555
S7 V4 2.239318 1_556
S7 V8 2.371283 1_555
S7 V2 2.594975 1_565
S7 V3 2.911720 1_555
S8 V4 2.271361 1_555
S8 V2 2.352502 1_554
S8 V8 2.365895 1_554
S8 V7 2.404234 1_544
S9 V9 2.353066 1_565
S9 V4 2.409331 1_555
S9 V7 2.440324 1_554
S9 V2 2.488975 1_564
S10 V6 2.188132 1_555
S10 V9 2.303224 1_555
S10 V2 2.314312 1_554
S10 V4 2.390480 1_545
S10 V5 2.426488 1_466
S11 V6 2.211225 1_645
S11 V7 2.370737 1_545
S11 V5 2.561681 1_556
S12 V10 2.241648 1_456
S12 V4 2.329253 1_545
S12 V5 2.363180 1_456
S13 V1 2.287883 1_565
S13 V10 2.369797 1_555
S13 V5 2.432621 1_565
S13 V9 2.618244 1_654
S14 V9 2.222635 1_644
S14 V10 2.286599 1_555
S14 V5 2.463752 1_555
S15 V1 2.252181 1_554
S15 V3 2.276217 1_455
S15 V8 2.424170 1_465
