# generated using pymatgen
data_SiO2
_symmetry_space_group_name_H-M   'P 1'
_cell_length_a   9.27805668
_cell_length_b   9.27805687
_cell_length_c   9.27805624
_cell_angle_alpha   94.23492574
_cell_angle_beta   94.23492574
_cell_angle_gamma   94.23491531
_symmetry_Int_Tables_number   1
_chemical_formula_structural   SiO2
_chemical_formula_sum   'Si12 O24'
_cell_volume   791.79240708
_cell_formula_units_Z   12
loop_
 _symmetry_equiv_pos_site_id
 _symmetry_equiv_pos_as_xyz
  1  'x, y, z'
loop_
 _atom_site_type_symbol
 _atom_site_label
 _atom_site_symmetry_multiplicity
 _atom_site_fract_x
 _atom_site_fract_y
 _atom_site_fract_z
 _atom_site_occupancy
  Si  Si0  1  0.33290599  0.10448426  0.87550248  1
  Si  Si1  1  0.10448426  0.87550248  0.33290599  1
  Si  Si2  1  0.87550248  0.33290599  0.10448426  1
  Si  Si3  1  0.12449752  0.89551574  0.66709401  1
  Si  Si4  1  0.89551574  0.66709401  0.12449752  1
  Si  Si5  1  0.66709401  0.12449752  0.89551574  1
  Si  Si6  1  0.66709401  0.89551574  0.12449752  1
  Si  Si7  1  0.89551574  0.12449752  0.66709401  1
  Si  Si8  1  0.12449752  0.66709401  0.89551574  1
  Si  Si9  1  0.87550248  0.10448426  0.33290599  1
  Si  Si10  1  0.10448426  0.33290599  0.87550248  1
  Si  Si11  1  0.33290599  0.87550248  0.10448426  1
  O  O0  1  0.26260449  0.00000000  0.73739551  1
  O  O1  1  -0.00000000  0.73739551  0.26260449  1
  O  O2  1  0.73739551  0.26260449  0.00000000  1
  O  O3  1  0.73739551  -0.00000000  0.26260449  1
  O  O4  1  0.00000000  0.26260449  0.73739551  1
  O  O5  1  0.26260449  0.73739551  -0.00000000  1
  O  O6  1  0.68065733  0.97803227  0.97803227  1
  O  O7  1  0.97803227  0.97803227  0.68065733  1
  O  O8  1  0.97803227  0.68065733  0.97803227  1
  O  O9  1  0.02196773  0.02196773  0.31934267  1
  O  O10  1  0.02196773  0.31934267  0.02196773  1
  O  O11  1  0.31934267  0.02196773  0.02196773  1
  O  O12  1  0.25040484  0.89017006  0.25040484  1
  O  O13  1  0.25040484  0.25040484  0.89017006  1
  O  O14  1  0.89017006  0.25040484  0.25040484  1
  O  O15  1  0.10982994  0.74959516  0.74959516  1
  O  O16  1  0.74959516  0.10982994  0.74959516  1
  O  O17  1  0.74959516  0.74959516  0.10982994  1
  O  O18  1  0.50000000  0.85256089  0.14743911  1
  O  O19  1  0.14743911  0.50000000  0.85256089  1
  O  O20  1  0.85256089  0.14743911  0.50000000  1
  O  O21  1  0.50000000  0.14743911  0.85256089  1
  O  O22  1  0.85256089  0.50000000  0.14743911  1
  O  O23  1  0.14743911  0.85256089  0.50000000  1
loop_
_geom_bond_atom_site_label_1
_geom_bond_atom_site_label_2
_geom_bond_distance
_geom_bond_site_symmetry_2
O0 Si0 1.614563 1_555
O0 Si3 1.614563 1_545
O1 Si4 1.614563 1_455
O1 Si1 1.614563 1_555
O2 Si2 1.614563 1_555
O2 Si5 1.614563 1_554
O3 Si6 1.614563 1_545
O3 Si9 1.614563 1_555
O4 Si10 1.614563 1_555
O4 Si7 1.614563 1_455
O5 Si8 1.614563 1_554
O5 Si11 1.614563 1_555
O6 Si6 1.616569 1_556
O6 Si5 1.616569 1_565
O7 Si3 1.616569 1_655
O7 Si7 1.616569 1_565
O8 Si4 1.616569 1_556
O8 Si8 1.616569 1_655
O9 Si9 1.616569 1_455
O9 Si1 1.616569 1_545
O10 Si10 1.616569 1_554
O10 Si2 1.616569 1_455
O11 Si0 1.616569 1_554
O11 Si11 1.616569 1_545
O12 Si11 1.605801 1_555
O12 Si1 1.605801 1_555
O13 Si10 1.605801 1_555
O13 Si0 1.605801 1_555
O14 Si2 1.605801 1_555
O14 Si9 1.605801 1_555
O15 Si8 1.605801 1_555
O15 Si3 1.605801 1_555
O16 Si5 1.605801 1_555
O16 Si7 1.605801 1_555
O17 Si4 1.605801 1_555
O17 Si6 1.605801 1_555
O18 Si11 1.605492 1_555
O18 Si6 1.605492 1_555
O19 Si8 1.605492 1_555
O19 Si10 1.605492 1_555
O20 Si7 1.605492 1_555
O20 Si9 1.605492 1_555
O21 Si5 1.605492 1_555
O21 Si0 1.605492 1_555
O22 Si2 1.605492 1_555
O22 Si4 1.605492 1_555
O23 Si1 1.605492 1_555
O23 Si3 1.605492 1_555
