# generated using pymatgen
data_Al21Pt5
_symmetry_space_group_name_H-M   'P 1'
_cell_length_a   13.36943055
_cell_length_b   13.36943055
_cell_length_c   13.36943055
_cell_angle_alpha   60.00000000
_cell_angle_beta   60.00000000
_cell_angle_gamma   60.00000000
_symmetry_Int_Tables_number   1
_chemical_formula_structural   Al21Pt5
_chemical_formula_sum   'Al84 Pt20'
_cell_volume   1689.75496229
_cell_formula_units_Z   4
loop_
 _symmetry_equiv_pos_site_id
 _symmetry_equiv_pos_as_xyz
  1  'x, y, z'
loop_
 _atom_site_type_symbol
 _atom_site_label
 _atom_site_symmetry_multiplicity
 _atom_site_fract_x
 _atom_site_fract_y
 _atom_site_fract_z
 _atom_site_occupancy
  Al  Al0  1  0.25243800  0.25243800  0.91593500  1
  Al  Al1  1  0.25243800  0.25243800  0.57919000  1
  Al  Al2  1  0.91593500  0.57919000  0.25243800  1
  Al  Al3  1  0.91593500  0.25243800  0.25243800  1
  Al  Al4  1  0.57919000  0.91593500  0.25243800  1
  Al  Al5  1  0.57919000  0.25243800  0.25243800  1
  Al  Al6  1  0.25243800  0.91593500  0.57919000  1
  Al  Al7  1  0.25243800  0.57919000  0.91593500  1
  Al  Al8  1  0.25243800  0.91593500  0.25243800  1
  Al  Al9  1  0.57919000  0.25243800  0.91593500  1
  Al  Al10  1  0.91593500  0.25243800  0.57919000  1
  Al  Al11  1  0.25243800  0.57919000  0.25243800  1
  Al  Al12  1  0.17184700  0.17184700  0.17184700  1
  Al  Al13  1  0.17184700  0.17184700  0.48445900  1
  Al  Al14  1  0.17184700  0.48445900  0.17184700  1
  Al  Al15  1  0.48445900  0.17184700  0.17184700  1
  Al  Al16  1  0.80264000  0.80264000  0.80264000  1
  Al  Al17  1  0.80264000  0.80264000  0.59208100  1
  Al  Al18  1  0.80264000  0.59208100  0.80264000  1
  Al  Al19  1  0.59208100  0.80264000  0.80264000  1
  Al  Al20  1  0.05321200  0.05321200  0.05321200  1
  Al  Al21  1  0.05321200  0.05321200  0.84036400  1
  Al  Al22  1  0.05321200  0.84036400  0.05321200  1
  Al  Al23  1  0.84036400  0.05321200  0.05321200  1
  Al  Al24  1  0.50789000  0.50789000  0.80399000  1
  Al  Al25  1  0.50789000  0.50789000  0.18022900  1
  Al  Al26  1  0.80399000  0.18022900  0.50789000  1
  Al  Al27  1  0.80399000  0.50789000  0.50789000  1
  Al  Al28  1  0.18022900  0.80399000  0.50789000  1
  Al  Al29  1  0.18022900  0.50789000  0.50789000  1
  Al  Al30  1  0.50789000  0.80399000  0.18022900  1
  Al  Al31  1  0.50789000  0.18022900  0.80399000  1
  Al  Al32  1  0.50789000  0.80399000  0.50789000  1
  Al  Al33  1  0.18022900  0.50789000  0.80399000  1
  Al  Al34  1  0.80399000  0.50789000  0.18022900  1
  Al  Al35  1  0.50789000  0.18022900  0.50789000  1
  Al  Al36  1  0.90625100  0.90625100  0.90625100  1
  Al  Al37  1  0.90625100  0.90625100  0.28124800  1
  Al  Al38  1  0.90625100  0.28124800  0.90625100  1
  Al  Al39  1  0.28124800  0.90625100  0.90625100  1
  Al  Al40  1  0.75763900  0.75763900  0.42018200  1
  Al  Al41  1  0.75763900  0.75763900  0.06454000  1
  Al  Al42  1  0.42018200  0.06454000  0.75763900  1
  Al  Al43  1  0.42018200  0.75763900  0.75763900  1
  Al  Al44  1  0.06454000  0.42018200  0.75763900  1
  Al  Al45  1  0.06454000  0.75763900  0.75763900  1
  Al  Al46  1  0.75763900  0.42018200  0.06454000  1
  Al  Al47  1  0.75763900  0.06454000  0.42018200  1
  Al  Al48  1  0.75763900  0.42018200  0.75763900  1
  Al  Al49  1  0.06454000  0.75763900  0.42018200  1
  Al  Al50  1  0.42018200  0.75763900  0.06454000  1
  Al  Al51  1  0.75763900  0.06454000  0.75763900  1
  Al  Al52  1  0.55444100  0.55444100  0.55444100  1
  Al  Al53  1  0.55444100  0.55444100  0.33667600  1
  Al  Al54  1  0.55444100  0.33667600  0.55444100  1
  Al  Al55  1  0.33667600  0.55444100  0.55444100  1
  Al  Al56  1  0.32693900  0.32693900  0.32693900  1
  Al  Al57  1  0.32693900  0.32693900  0.01918300  1
  Al  Al58  1  0.32693900  0.01918300  0.32693900  1
  Al  Al59  1  0.01918300  0.32693900  0.32693900  1
  Al  Al60  1  0.93032500  0.56967500  0.56967500  1
  Al  Al61  1  0.56967500  0.93032500  0.93032500  1
  Al  Al62  1  0.56967500  0.93032500  0.56967500  1
  Al  Al63  1  0.93032500  0.56967500  0.93032500  1
  Al  Al64  1  0.56967500  0.56967500  0.93032500  1
  Al  Al65  1  0.93032500  0.93032500  0.56967500  1
  Al  Al66  1  0.01081200  0.01081200  0.32021900  1
  Al  Al67  1  0.01081200  0.01081200  0.65815800  1
  Al  Al68  1  0.32021900  0.65815800  0.01081200  1
  Al  Al69  1  0.32021900  0.01081200  0.01081200  1
  Al  Al70  1  0.65815800  0.32021900  0.01081200  1
  Al  Al71  1  0.65815800  0.01081200  0.01081200  1
  Al  Al72  1  0.01081200  0.32021900  0.65815800  1
  Al  Al73  1  0.01081200  0.65815800  0.32021900  1
  Al  Al74  1  0.01081200  0.32021900  0.01081200  1
  Al  Al75  1  0.65815800  0.01081200  0.32021900  1
  Al  Al76  1  0.32021900  0.01081200  0.65815800  1
  Al  Al77  1  0.01081200  0.65815800  0.01081200  1
  Al  Al78  1  0.67546500  0.32453500  0.32453500  1
  Al  Al79  1  0.32453500  0.67546500  0.67546500  1
  Al  Al80  1  0.32453500  0.67546500  0.32453500  1
  Al  Al81  1  0.67546500  0.32453500  0.67546500  1
  Al  Al82  1  0.32453500  0.32453500  0.67546500  1
  Al  Al83  1  0.67546500  0.67546500  0.32453500  1
  Pt  Pt0  1  0.65806800  0.65806800  0.65806800  1
  Pt  Pt1  1  0.65806800  0.65806800  0.02579500  1
  Pt  Pt2  1  0.65806800  0.02579500  0.65806800  1
  Pt  Pt3  1  0.02579500  0.65806800  0.65806800  1
  Pt  Pt4  1  0.41956700  0.41956700  0.41956700  1
  Pt  Pt5  1  0.41956700  0.41956700  0.74130000  1
  Pt  Pt6  1  0.41956700  0.74130000  0.41956700  1
  Pt  Pt7  1  0.74130000  0.41956700  0.41956700  1
  Pt  Pt8  1  0.40830500  0.09169500  0.09169500  1
  Pt  Pt9  1  0.09169500  0.40830500  0.40830500  1
  Pt  Pt10  1  0.09169500  0.40830500  0.09169500  1
  Pt  Pt11  1  0.40830500  0.09169500  0.40830500  1
  Pt  Pt12  1  0.09169500  0.09169500  0.40830500  1
  Pt  Pt13  1  0.40830500  0.40830500  0.09169500  1
  Pt  Pt14  1  0.83378300  0.16621700  0.16621700  1
  Pt  Pt15  1  0.16621700  0.83378300  0.83378300  1
  Pt  Pt16  1  0.16621700  0.83378300  0.16621700  1
  Pt  Pt17  1  0.83378300  0.16621700  0.83378300  1
  Pt  Pt18  1  0.16621700  0.16621700  0.83378300  1
  Pt  Pt19  1  0.83378300  0.83378300  0.16621700  1
loop_
_geom_bond_atom_site_label_1
_geom_bond_atom_site_label_2
_geom_bond_distance
_geom_bond_site_symmetry_2
Al0 Al82 2.631620 1_555
Al0 Al74 2.643887 1_556
Al0 Al69 2.643887 1_556
Al0 Al57 2.762511 1_556
Al0 Pt18 2.779350 1_555
Al0 Al12 2.795691 1_556
Al0 Al33 2.805749 1_555
Al0 Al31 2.805749 1_555
Al0 Pt10 3.138625 1_556
Al0 Pt8 3.138625 1_556
Al0 Pt5 3.161539 1_555
Al1 Al82 2.631608 1_555
Al1 Al72 2.643887 1_555
Al1 Al76 2.643887 1_555
Al1 Al56 2.762522 1_555
Al1 Pt18 2.779339 1_555
Al1 Al13 2.795702 1_555
Al1 Al35 2.805746 1_555
Al1 Al29 2.805746 1_555
Al1 Pt9 3.138635 1_555
Al1 Pt11 3.138635 1_555
Al1 Pt4 3.161539 1_555
Al2 Al83 2.631619 1_555
Al2 Al73 2.643887 1_655
Al2 Al77 2.643887 1_655
Al2 Al59 2.762521 1_655
Al2 Pt19 2.779339 1_555
Al2 Al27 2.805749 1_555
Al2 Al34 2.805770 1_555
Al2 Pt9 3.138625 1_655
Al2 Pt10 3.138634 1_655
Al2 Pt7 3.161539 1_555
Al3 Al78 2.631620 1_555
Al3 Al74 2.643887 1_655
Al3 Al66 2.643887 1_655
Al3 Al59 2.762511 1_655
Al3 Pt14 2.779350 1_555
Al3 Al34 2.805749 1_555
Al3 Pt12 3.138625 1_655
Al3 Pt10 3.138625 1_655
Al3 Pt7 3.161539 1_555
Al4 Al83 2.631619 1_555
Al4 Al75 2.643887 1_565
Al4 Al71 2.643887 1_565
Al4 Al58 2.762521 1_565
Al4 Pt19 2.779339 1_555
Al4 Pt11 3.138625 1_565
Al4 Pt8 3.138634 1_565
Al4 Pt6 3.161539 1_555
Al5 Al78 2.631608 1_555
Al5 Al75 2.643887 1_555
Al5 Al70 2.643887 1_555
Al5 Al56 2.762522 1_555
Al5 Pt14 2.779339 1_555
Al5 Pt13 3.138635 1_555
Al5 Pt11 3.138635 1_555
Al5 Pt4 3.161539 1_555
Al6 Al79 2.631619 1_555
Al6 Al76 2.643887 1_565
Al6 Al67 2.643887 1_565
Al6 Pt15 2.779339 1_555
Al6 Pt11 3.138625 1_565
Al6 Pt12 3.138634 1_565
Al6 Pt6 3.161539 1_555
Al7 Al79 2.631619 1_555
Al7 Al77 2.643887 1_556
Al7 Pt15 2.779339 1_555
Al7 Pt13 3.138625 1_556
Al7 Pt10 3.138634 1_556
Al7 Pt5 3.161539 1_555
Al8 Al80 2.631620 1_555
Al8 Pt16 2.779350 1_555
Al8 Pt12 3.138625 1_565
Al8 Pt8 3.138625 1_565
Al8 Pt6 3.161539 1_555
Al9 Pt17 2.779339 1_555
Al9 Pt13 3.138625 1_556
Al9 Pt8 3.138634 1_556
Al9 Pt5 3.161539 1_555
Al10 Al81 2.631619 1_555
Al10 Al72 2.643887 1_655
Al10 Al67 2.643887 1_655
Al10 Al59 2.762521 1_655
Al10 Pt17 2.779339 1_555
Al10 Al13 2.795691 1_655
Al10 Al27 2.805749 1_555
Al10 Al26 2.805770 1_555
Al10 Pt9 3.138625 1_655
Al10 Pt12 3.138634 1_655
Al10 Pt7 3.161539 1_555
Al11 Al80 2.631608 1_555
Al11 Al73 2.643887 1_555
Al11 Al68 2.643887 1_555
Al11 Al56 2.762522 1_555
Al11 Pt16 2.779339 1_555
Al11 Al14 2.795702 1_555
Al11 Al25 2.805746 1_555
Al11 Al29 2.805746 1_555
Al11 Pt13 3.138635 1_555
Al11 Pt9 3.138635 1_555
Al11 Pt4 3.161539 1_555
Al12 Pt10 2.581382 1_555
Al12 Pt8 2.581382 1_555
Al12 Pt12 2.581382 1_555
Al12 Al3 2.795691 1_455
Al12 Al8 2.795691 1_545
Al13 Pt11 2.581382 1_555
Al13 Pt9 2.581382 1_555
Al13 Pt12 2.581382 1_555
Al13 Al6 2.795691 1_545
Al14 Pt13 2.581382 1_555
Al14 Pt9 2.581382 1_555
Al14 Pt10 2.581382 1_555
Al14 Al7 2.795691 1_554
Al14 Al2 2.795691 1_455
Al15 Pt13 2.581382 1_555
Al15 Pt11 2.581382 1_555
Al15 Pt8 2.581382 1_555
Al15 Al4 2.795691 1_545
Al15 Al9 2.795691 1_554
Al15 Al5 2.795702 1_555
Al16 Al63 2.794524 1_555
Al16 Al65 2.794524 1_555
Al16 Al61 2.794524 1_555
Al16 Al19 2.815054 1_555
Al16 Al18 2.815054 1_555
Al16 Al17 2.815054 1_555
Al16 Pt3 2.928406 1_655
Al16 Pt2 2.928406 1_565
Al16 Pt1 2.928406 1_556
Al16 Al45 3.022064 1_655
Al16 Al51 3.022064 1_565
Al16 Al41 3.022064 1_556
Al17 Al65 2.794518 1_555
Al17 Al62 2.794529 1_555
Al17 Al60 2.794529 1_555
Al17 Al19 2.815054 1_555
Al17 Al18 2.815054 1_555
Al17 Pt3 2.928393 1_655
Al17 Pt2 2.928393 1_565
Al17 Pt0 2.928416 1_555
Al17 Al49 3.022068 1_655
Al17 Al47 3.022068 1_565
Al17 Al40 3.022077 1_555
Al18 Al63 2.794518 1_555
Al18 Al60 2.794529 1_555
Al18 Al64 2.794529 1_555
Al18 Al19 2.815054 1_555
Al18 Pt3 2.928393 1_655
Al18 Pt1 2.928393 1_556
Al18 Pt0 2.928416 1_555
Al18 Al44 3.022068 1_655
Al18 Al46 3.022068 1_556
Al18 Al48 3.022077 1_555
Al19 Al61 2.794518 1_555
Al19 Al62 2.794529 1_555
Al19 Al64 2.794529 1_555
Al19 Pt2 2.928393 1_565
Al19 Pt1 2.928393 1_556
Al19 Pt0 2.928416 1_555
Al19 Al50 3.022068 1_556
Al19 Al42 3.022068 1_565
Al19 Al43 3.022077 1_555
Al20 Pt14 2.567012 1_455
Al20 Pt16 2.567012 1_545
Al20 Pt18 2.567012 1_554
Al20 Al37 2.982559 1_445
Al20 Al38 2.982559 1_454
Al20 Al39 2.982559 1_544
Al21 Pt17 2.567012 1_455
Al21 Pt15 2.567012 1_545
Al21 Pt18 2.567012 1_555
Al21 Al36 2.982554 1_445
Al21 Al39 2.982565 1_545
Al21 Al38 2.982565 1_455
Al22 Pt19 2.567012 1_455
Al22 Pt15 2.567012 1_554
Al22 Pt16 2.567012 1_555
Al22 Al36 2.982554 1_454
Al22 Al37 2.982565 1_455
Al22 Al39 2.982565 1_554
Al23 Pt19 2.567012 1_545
Al23 Pt17 2.567012 1_554
Al23 Pt14 2.567012 1_555
Al23 Al36 2.982554 1_544
Al23 Al38 2.982565 1_554
Al23 Al37 2.982565 1_545
Al24 Pt5 2.620096 1_555
Al24 Al64 2.773115 1_555
Al24 Al7 2.805749 1_555
Al24 Al9 2.805749 1_555
Al24 Pt0 2.840020 1_555
Al24 Al81 2.975157 1_555
Al24 Al79 2.975157 1_555
Al25 Pt4 2.620116 1_555
Al25 Al64 2.773103 1_554
Al25 Al5 2.805746 1_555
Al25 Pt1 2.840020 1_555
Al25 Al80 2.975165 1_555
Al25 Al78 2.975165 1_555
Al26 Pt7 2.620118 1_555
Al26 Al65 2.773105 1_545
Al26 Al3 2.805749 1_555
Al26 Pt2 2.840020 1_555
Al26 Al78 2.975156 1_555
Al26 Al81 2.975167 1_555
Al27 Pt7 2.620096 1_555
Al27 Al60 2.773115 1_555
Al27 Pt0 2.840020 1_555
Al27 Al83 2.975157 1_555
Al27 Al81 2.975157 1_555
Al28 Pt6 2.620118 1_555
Al28 Al65 2.773105 1_455
Al28 Al8 2.805749 1_555
Al28 Al6 2.805770 1_555
Al28 Pt3 2.840020 1_555
Al28 Al80 2.975156 1_555
Al28 Al79 2.975167 1_555
Al29 Pt4 2.620116 1_555
Al29 Al60 2.773103 1_455
Al29 Pt3 2.840020 1_555
Al29 Al80 2.975165 1_555
Al29 Al82 2.975165 1_555
Al30 Pt6 2.620118 1_555
Al30 Al61 2.773105 1_554
Al30 Al8 2.805749 1_555
Al30 Al4 2.805770 1_555
Al30 Pt1 2.840020 1_555
Al30 Al80 2.975156 1_555
Al30 Al83 2.975167 1_555
Al31 Pt5 2.620118 1_555
Al31 Al61 2.773105 1_545
Al31 Al9 2.805770 1_555
Al31 Pt2 2.840020 1_555
Al31 Al82 2.975156 1_555
Al31 Al81 2.975167 1_555
Al32 Pt6 2.620096 1_555
Al32 Al62 2.773115 1_555
Al32 Al4 2.805749 1_555
Al32 Al6 2.805749 1_555
Al32 Pt0 2.840020 1_555
Al32 Al79 2.975157 1_555
Al32 Al83 2.975157 1_555
Al33 Pt5 2.620118 1_555
Al33 Al63 2.773105 1_455
Al33 Al7 2.805770 1_555
Al33 Pt3 2.840020 1_555
Al33 Al82 2.975156 1_555
Al33 Al79 2.975167 1_555
Al34 Pt7 2.620118 1_555
Al34 Al63 2.773105 1_554
Al34 Pt1 2.840020 1_555
Al34 Al78 2.975156 1_555
Al34 Al83 2.975167 1_555
Al35 Pt4 2.620116 1_555
Al35 Al62 2.773103 1_545
Al35 Al5 2.805746 1_555
Al35 Pt2 2.840020 1_555
Al35 Al78 2.975165 1_555
Al35 Al82 2.975165 1_555
Al36 Al71 2.755123 1_566
Al36 Al67 2.755123 1_665
Al36 Al77 2.755123 1_656
Al36 Al51 2.812818 1_565
Al36 Al41 2.812818 1_556
Al36 Al45 2.812818 1_655
Al36 Pt17 2.856767 1_565
Al36 Pt15 2.856767 1_655
Al36 Pt19 2.856767 1_556
Al37 Al73 2.755123 1_655
Al37 Al75 2.755123 1_565
Al37 Al66 2.755123 1_665
Al37 Al49 2.812809 1_655
Al37 Al47 2.812809 1_565
Al37 Al40 2.812819 1_555
Al37 Pt14 2.856768 1_565
Al37 Pt16 2.856768 1_655
Al37 Pt19 2.856779 1_555
Al38 Al70 2.755123 1_556
Al38 Al72 2.755123 1_655
Al38 Al74 2.755123 1_656
Al38 Al44 2.812809 1_655
Al38 Al46 2.812809 1_556
Al38 Al48 2.812819 1_555
Al38 Pt18 2.856768 1_655
Al38 Pt14 2.856768 1_556
Al38 Pt17 2.856779 1_555
Al39 Al76 2.755123 1_565
Al39 Al68 2.755123 1_556
Al39 Al69 2.755123 1_566
Al39 Al42 2.812809 1_565
Al39 Al50 2.812809 1_556
Al39 Al43 2.812819 1_555
Al39 Pt18 2.856768 1_565
Al39 Pt16 2.856768 1_556
Al39 Pt15 2.856779 1_555
Al40 Pt0 2.638890 1_555
Al40 Pt19 2.779303 1_555
Al40 Al83 2.840035 1_555
Al41 Pt1 2.638900 1_555
Al41 Pt19 2.779303 1_555
Al41 Al83 2.840035 1_555
Al42 Pt2 2.638888 1_555
Al42 Pt18 2.779303 1_555
Al42 Al82 2.840035 1_555
Al43 Pt0 2.638890 1_555
Al43 Pt15 2.779303 1_555
Al43 Al79 2.840035 1_555
Al44 Pt3 2.638888 1_555
Al44 Pt18 2.779303 1_555
Al44 Al82 2.840035 1_555
Al45 Pt3 2.638900 1_555
Al45 Pt15 2.779303 1_555
Al45 Al79 2.840035 1_555
Al46 Pt1 2.638888 1_555
Al46 Pt14 2.779303 1_555
Al46 Al78 2.840035 1_555
Al47 Pt2 2.638888 1_555
Al47 Pt14 2.779303 1_555
Al47 Al78 2.840035 1_555
Al48 Pt0 2.638890 1_555
Al48 Pt17 2.779303 1_555
Al48 Al81 2.840035 1_555
Al49 Pt3 2.638888 1_555
Al49 Pt16 2.779303 1_555
Al49 Al80 2.840035 1_555
Al50 Pt1 2.638888 1_555
Al50 Pt16 2.779303 1_555
Al50 Al80 2.840035 1_555
Al51 Pt2 2.638900 1_555
Al51 Pt17 2.779303 1_555
Al51 Al81 2.840035 1_555
Al52 Pt7 2.643107 1_555
Al52 Pt5 2.643107 1_555
Al52 Pt6 2.643107 1_555
Al52 Al81 2.712015 1_555
Al52 Al79 2.712015 1_555
Al52 Al83 2.712015 1_555
Al53 Pt4 2.643100 1_555
Al53 Pt6 2.643122 1_555
Al53 Pt7 2.643122 1_555
Al53 Al80 2.712010 1_555
Al53 Al78 2.712010 1_555
Al53 Al83 2.712022 1_555
Al54 Pt4 2.643100 1_555
Al54 Pt7 2.643122 1_555
Al54 Pt5 2.643122 1_555
Al54 Al82 2.712010 1_555
Al54 Al78 2.712010 1_555
Al54 Al81 2.712022 1_555
Al55 Pt4 2.643100 1_555
Al55 Pt6 2.643122 1_555
Al55 Pt5 2.643122 1_555
Al55 Al82 2.712010 1_555
Al55 Al80 2.712010 1_555
Al55 Al79 2.712022 1_555
Al56 Pt13 2.568855 1_555
Al56 Pt11 2.568855 1_555
Al56 Pt9 2.568855 1_555
Al56 Pt4 3.033408 1_555
Al57 Pt13 2.568855 1_555
Al57 Pt8 2.568855 1_555
Al57 Pt10 2.568855 1_555
Al57 Al7 2.762521 1_554
Al57 Al9 2.762521 1_554
Al57 Pt5 3.033397 1_554
Al58 Pt11 2.568855 1_555
Al58 Pt8 2.568855 1_555
Al58 Pt12 2.568855 1_555
Al58 Al8 2.762511 1_545
Al58 Al6 2.762521 1_545
Al58 Pt6 3.033397 1_545
Al59 Pt12 2.568855 1_555
Al59 Pt9 2.568855 1_555
Al59 Pt10 2.568855 1_555
Al59 Pt7 3.033397 1_455
Al60 Al72 2.723785 1_655
Al60 Al73 2.723785 1_655
Al60 Pt3 2.972474 1_655
Al60 Pt0 2.972485 1_555
Al60 Pt9 3.051060 1_655
Al61 Al69 2.723784 1_566
Al61 Al71 2.723796 1_566
Al61 Pt2 2.972485 1_565
Al61 Pt1 2.972485 1_556
Al61 Pt8 3.051060 1_566
Al62 Al76 2.723785 1_565
Al62 Al75 2.723785 1_565
Al62 Pt2 2.972474 1_565
Al62 Pt0 2.972485 1_555
Al62 Pt11 3.051060 1_565
Al63 Al74 2.723784 1_656
Al63 Al77 2.723796 1_656
Al63 Pt3 2.972485 1_655
Al63 Pt1 2.972485 1_556
Al63 Pt10 3.051060 1_656
Al64 Al68 2.723785 1_556
Al64 Al70 2.723785 1_556
Al64 Pt1 2.972474 1_556
Al64 Pt0 2.972485 1_555
Al64 Pt13 3.051060 1_556
Al65 Al66 2.723784 1_665
Al65 Al67 2.723796 1_665
Al65 Pt3 2.972485 1_655
Al65 Pt2 2.972485 1_565
Al65 Pt12 3.051060 1_665
Al66 Al8 2.643887 1_545
Al66 Pt12 2.727975 1_555
Al66 Pt14 3.136137 1_455
Al66 Pt16 3.136137 1_545
Al67 Pt12 2.727986 1_555
Al67 Pt15 3.136128 1_545
Al67 Pt17 3.136128 1_455
Al68 Al7 2.643887 1_554
Al68 Pt13 2.727985 1_555
Al68 Pt16 3.136127 1_555
Al68 Pt15 3.136137 1_554
Al69 Al8 2.643887 1_545
Al69 Pt8 2.727975 1_555
Al69 Pt18 3.136137 1_554
Al69 Pt16 3.136137 1_545
Al70 Al9 2.643887 1_554
Al70 Pt13 2.727985 1_555
Al70 Pt14 3.136127 1_555
Al70 Pt17 3.136137 1_554
Al71 Al9 2.643887 1_554
Al71 Pt8 2.727986 1_555
Al71 Pt19 3.136128 1_545
Al71 Pt17 3.136128 1_554
Al72 Pt9 2.727985 1_555
Al72 Pt18 3.136127 1_555
Al72 Pt17 3.136137 1_455
Al73 Pt9 2.727985 1_555
Al73 Pt16 3.136127 1_555
Al73 Pt19 3.136137 1_455
Al74 Pt10 2.727975 1_555
Al74 Pt18 3.136137 1_554
Al74 Pt14 3.136137 1_455
Al75 Pt11 2.727985 1_555
Al75 Pt14 3.136127 1_555
Al75 Pt19 3.136137 1_545
Al76 Pt11 2.727985 1_555
Al76 Pt18 3.136127 1_555
Al76 Pt15 3.136137 1_545
Al77 Pt10 2.727986 1_555
Al77 Pt19 3.136128 1_455
Al77 Pt15 3.136128 1_554
Al78 Pt4 2.802484 1_555
Al78 Pt7 2.802494 1_555
Al78 Pt14 2.993355 1_555
Al79 Pt5 2.802483 1_555
Al79 Pt6 2.802483 1_555
Al79 Pt15 2.993355 1_555
Al80 Pt4 2.802484 1_555
Al80 Pt6 2.802494 1_555
Al80 Pt16 2.993355 1_555
Al81 Al9 2.631619 1_555
Al81 Pt7 2.802483 1_555
Al81 Pt5 2.802483 1_555
Al81 Pt17 2.993355 1_555
Al82 Pt4 2.802484 1_555
Al82 Pt5 2.802494 1_555
Al82 Pt18 2.993355 1_555
Al83 Pt7 2.802483 1_555
Al83 Pt6 2.802483 1_555
Al83 Pt19 2.993355 1_555
