# generated using pymatgen
data_V2Cd(P2O7)2
_symmetry_space_group_name_H-M   'P 1'
_cell_length_a   4.88694932
_cell_length_b   7.07469440
_cell_length_c   7.95583292
_cell_angle_alpha   89.45774795
_cell_angle_beta   87.08069485
_cell_angle_gamma   73.47793727
_symmetry_Int_Tables_number   1
_chemical_formula_structural   V2Cd(P2O7)2
_chemical_formula_sum   'V2 Cd1 P4 O14'
_cell_volume   263.35928175
_cell_formula_units_Z   1
loop_
 _symmetry_equiv_pos_site_id
 _symmetry_equiv_pos_as_xyz
  1  'x, y, z'
loop_
 _atom_site_type_symbol
 _atom_site_label
 _atom_site_symmetry_multiplicity
 _atom_site_fract_x
 _atom_site_fract_y
 _atom_site_fract_z
 _atom_site_occupancy
  V  V0  1  0.50000000  0.50000000  0.00000000  1
  V  V1  1  0.00000000  0.00000000  0.50000000  1
  Cd  Cd0  1  0.00000000  0.00000000  0.00000000  1
  P  P0  1  0.97729900  0.61575500  0.75201400  1
  P  P1  1  0.02270200  0.38424400  0.24798500  1
  P  P2  1  0.38612100  0.21138400  0.72002700  1
  P  P3  1  0.61388000  0.78861600  0.27997300  1
  O  O0  1  0.20898400  0.43109900  0.66757200  1
  O  O1  1  0.79101400  0.56890100  0.33242800  1
  O  O2  1  0.11557400  0.67290200  0.90988300  1
  O  O3  1  0.88442600  0.32709800  0.09011700  1
  O  O4  1  0.50166600  0.22671900  0.89606200  1
  O  O5  1  0.49833400  0.77328100  0.10393800  1
  O  O6  1  0.70758100  0.55588400  0.79667500  1
  O  O7  1  0.38757100  0.84463800  0.42071300  1
  O  O8  1  0.61243000  0.15536200  0.57928700  1
  O  O9  1  0.17752900  0.08170500  0.73042700  1
  O  O10  1  0.29242000  0.44411500  0.20332500  1
  O  O11  1  0.07359900  0.22413400  0.37774600  1
  O  O12  1  0.92640100  0.77586600  0.62225400  1
  O  O13  1  0.82247100  0.91829500  0.26957300  1
loop_
_geom_bond_atom_site_label_1
_geom_bond_atom_site_label_2
_geom_bond_distance
_geom_bond_site_symmetry_2
Cd0 O3 2.331295 1_455
Cd0 O2 2.331295 1_544
Cd0 O13 2.399729 1_445
Cd0 O9 2.399729 1_554
Cd0 O5 2.673133 1_545
Cd0 O4 2.673133 1_454
O0 P0 1.593037 1_455
O0 P2 1.612117 1_555
O1 P1 1.593051 1_655
O1 P3 1.612113 1_555
O2 P0 1.564934 1_455
O2 V0 2.086446 1_556
O3 P1 1.564927 1_655
O3 V0 2.086446 1_555
O4 P2 1.552514 1_555
O4 V0 2.107707 1_556
O5 P3 1.552516 1_555
O5 V0 2.107707 1_555
O6 P0 1.519880 1_555
O6 V0 1.962384 1_556
O7 P3 1.505630 1_555
O7 V1 1.975032 1_565
O8 P2 1.505630 1_555
O8 V1 1.975028 1_655
O9 P2 1.552278 1_555
O9 V1 2.216951 1_555
O10 P1 1.519879 1_555
O10 V0 1.962384 1_555
O11 P1 1.501492 1_555
O11 V1 1.961968 1_555
O12 P0 1.501491 1_555
O12 V1 1.961968 1_665
O13 P3 1.552274 1_555
O13 V1 2.216951 1_665
