# generated using pymatgen
data_IrN7ClO6
_symmetry_space_group_name_H-M   'P 1'
_cell_length_a   7.15389910
_cell_length_b   7.15389910
_cell_length_c   7.15389910
_cell_angle_alpha   119.89272250
_cell_angle_beta   119.89272250
_cell_angle_gamma   90.18591074
_symmetry_Int_Tables_number   1
_chemical_formula_structural   IrN7ClO6
_chemical_formula_sum   'Ir1 N7 Cl1 O6'
_cell_volume   259.30721120
_cell_formula_units_Z   1
loop_
 _symmetry_equiv_pos_site_id
 _symmetry_equiv_pos_as_xyz
  1  'x, y, z'
loop_
 _atom_site_type_symbol
 _atom_site_label
 _atom_site_symmetry_multiplicity
 _atom_site_fract_x
 _atom_site_fract_y
 _atom_site_fract_z
 _atom_site_occupancy
  Ir  Ir0  1  0.83811300  0.83811300  0.00000000  1
  N  N0  1  0.05201700  0.55201700  0.50000000  1
  N  N1  1  0.55201700  0.05201700  0.50000000  1
  N  N2  1  0.60548000  0.98063900  0.00000000  1
  N  N3  1  0.98063900  0.60548000  0.00000000  1
  N  N4  1  0.60548000  0.60548000  0.62484100  1
  N  N5  1  0.98063900  0.98063900  0.37515900  1
  N  N6  1  0.00993100  0.00993100  0.00000000  1
  Cl  Cl0  1  0.57561100  0.57561100  0.00000000  1
  O  O0  1  0.42792900  0.92792900  0.50000000  1
  O  O1  1  0.92792900  0.42792900  0.50000000  1
  O  O2  1  0.11475400  0.76627500  0.65152100  1
  O  O3  1  0.11475400  0.46323300  0.34847900  1
  O  O4  1  0.46323300  0.11475400  0.34847900  1
  O  O5  1  0.76627500  0.11475400  0.65152100  1
loop_
_geom_bond_atom_site_label_1
_geom_bond_atom_site_label_2
_geom_bond_distance
_geom_bond_site_symmetry_2
Ir0 N6 1.735484 1_665
Ir0 N3 1.954559 1_555
Ir0 N4 1.954559 1_554
Ir0 N2 1.954559 1_555
Ir0 N5 1.954559 1_555
N0 O1 1.253377 1_455
N0 O3 1.257122 1_555
N0 O2 1.257122 1_555
N1 O0 1.253377 1_545
N1 O4 1.257122 1_555
N1 O5 1.257122 1_555
Cl0 Ir0 2.651458 1_555
