# generated using pymatgen
data_Sr7RuN6
_symmetry_space_group_name_H-M   'P 1'
_cell_length_a   11.88396153
_cell_length_b   6.69312614
_cell_length_c   13.96884592
_cell_angle_alpha   90.00000000
_cell_angle_beta   90.00000000
_cell_angle_gamma   90.00000000
_symmetry_Int_Tables_number   1
_chemical_formula_structural   Sr7RuN6
_chemical_formula_sum   'Sr28 Ru4 N24'
_cell_volume   1111.09392777
_cell_formula_units_Z   4
loop_
 _symmetry_equiv_pos_site_id
 _symmetry_equiv_pos_as_xyz
  1  'x, y, z'
loop_
 _atom_site_type_symbol
 _atom_site_label
 _atom_site_symmetry_multiplicity
 _atom_site_fract_x
 _atom_site_fract_y
 _atom_site_fract_z
 _atom_site_occupancy
  Sr  Sr0  1  0.03605157  0.73273701  0.98101229  1
  Sr  Sr1  1  0.46394843  0.76726299  0.48101229  1
  Sr  Sr2  1  0.53605157  0.76726299  0.01898771  1
  Sr  Sr3  1  0.96394843  0.73273701  0.51898771  1
  Sr  Sr4  1  0.96394843  0.26726299  0.01898771  1
  Sr  Sr5  1  0.53605157  0.23273701  0.51898771  1
  Sr  Sr6  1  0.46394843  0.23273701  0.98101229  1
  Sr  Sr7  1  0.03605157  0.26726299  0.48101229  1
  Sr  Sr8  1  0.21871214  0.86715360  0.62580512  1
  Sr  Sr9  1  0.28128786  0.63284640  0.12580512  1
  Sr  Sr10  1  0.71871214  0.63284640  0.37419488  1
  Sr  Sr11  1  0.78128786  0.86715360  0.87419488  1
  Sr  Sr12  1  0.78128786  0.13284640  0.37419488  1
  Sr  Sr13  1  0.71871214  0.36715360  0.87419488  1
  Sr  Sr14  1  0.28128786  0.36715360  0.62580512  1
  Sr  Sr15  1  0.21871214  0.13284640  0.12580512  1
  Sr  Sr16  1  0.28916442  0.60720097  0.87850365  1
  Sr  Sr17  1  0.21083558  0.89279903  0.37850365  1
  Sr  Sr18  1  0.78916442  0.89279903  0.12149635  1
  Sr  Sr19  1  0.71083558  0.60720097  0.62149635  1
  Sr  Sr20  1  0.71083558  0.39279903  0.12149635  1
  Sr  Sr21  1  0.78916442  0.10720097  0.62149635  1
  Sr  Sr22  1  0.21083558  0.10720097  0.87850365  1
  Sr  Sr23  1  0.28916442  0.39279903  0.37850365  1
  Sr  Sr24  1  0.00000000  0.43254316  0.75000000  1
  Sr  Sr25  1  0.50000000  0.06745684  0.25000000  1
  Sr  Sr26  1  0.00000000  0.56745684  0.25000000  1
  Sr  Sr27  1  0.50000000  0.93254316  0.75000000  1
  Ru  Ru0  1  0.00000000  0.92398766  0.75000000  1
  Ru  Ru1  1  0.50000000  0.57601234  0.25000000  1
  Ru  Ru2  1  0.00000000  0.07601234  0.25000000  1
  Ru  Ru3  1  0.50000000  0.42398766  0.75000000  1
  N  N0  1  0.12300279  0.75637663  0.79328501  1
  N  N1  1  0.37699721  0.74362337  0.29328501  1
  N  N2  1  0.62300279  0.74362337  0.20671499  1
  N  N3  1  0.87699721  0.75637663  0.70671499  1
  N  N4  1  0.87699721  0.24362337  0.20671499  1
  N  N5  1  0.62300279  0.25637663  0.70671499  1
  N  N6  1  0.37699721  0.25637663  0.79328501  1
  N  N7  1  0.12300279  0.24362337  0.29328501  1
  N  N8  1  0.16696305  0.59404107  0.50440880  1
  N  N9  1  0.33303695  0.90595893  0.00440880  1
  N  N10  1  0.66696305  0.90595893  0.49559120  1
  N  N11  1  0.83303695  0.59404107  0.99559120  1
  N  N12  1  0.83303695  0.40595893  0.49559120  1
  N  N13  1  0.66696305  0.09404107  0.99559120  1
  N  N14  1  0.33303695  0.09404107  0.50440880  1
  N  N15  1  0.16696305  0.40595893  0.00440880  1
  N  N16  1  0.46590021  0.59036590  0.64111989  1
  N  N17  1  0.03409979  0.90963410  0.14111989  1
  N  N18  1  0.96590021  0.90963410  0.35888011  1
  N  N19  1  0.53409979  0.59036590  0.85888011  1
  N  N20  1  0.53409979  0.40963410  0.35888011  1
  N  N21  1  0.96590021  0.09036590  0.85888011  1
  N  N22  1  0.03409979  0.09036590  0.64111989  1
  N  N23  1  0.46590021  0.40963410  0.14111989  1
loop_
_geom_bond_atom_site_label_1
_geom_bond_atom_site_label_2
_geom_bond_distance
_geom_bond_site_symmetry_2
N0 Ru0 1.939295 1_555
N0 Sr16 2.512618 1_555
N0 Sr24 2.683321 1_555
N0 Sr8 2.704939 1_555
N0 Sr0 2.823017 1_555
N0 Sr22 2.831999 1_565
N1 Ru1 1.939295 1_555
N1 Sr17 2.512618 1_555
N1 Sr25 2.683321 1_565
N1 Sr9 2.704939 1_555
N1 Sr1 2.823017 1_555
N1 Sr23 2.831999 1_555
N2 Ru1 1.939295 1_555
N2 Sr18 2.512618 1_555
N2 Sr25 2.683321 1_565
N2 Sr10 2.704939 1_555
N2 Sr2 2.823017 1_555
N2 Sr20 2.831999 1_555
N3 Ru0 1.939295 1_655
N3 Sr19 2.512618 1_555
N3 Sr24 2.683321 1_655
N3 Sr11 2.704939 1_555
N3 Sr3 2.823017 1_555
N3 Sr21 2.831999 1_565
N4 Ru2 1.939295 1_655
N4 Sr20 2.512618 1_555
N4 Sr26 2.683321 1_655
N4 Sr12 2.704939 1_555
N4 Sr4 2.823017 1_555
N4 Sr18 2.831999 1_545
N5 Ru3 1.939295 1_555
N5 Sr21 2.512618 1_555
N5 Sr27 2.683321 1_545
N5 Sr13 2.704939 1_555
N5 Sr5 2.823017 1_555
N5 Sr19 2.831999 1_555
N6 Ru3 1.939295 1_555
N6 Sr22 2.512618 1_555
N6 Sr27 2.683321 1_545
N6 Sr14 2.704939 1_555
N6 Sr6 2.823017 1_555
N6 Sr16 2.831999 1_555
N7 Ru2 1.939295 1_555
N7 Sr23 2.512618 1_555
N7 Sr26 2.683321 1_555
N7 Sr15 2.704939 1_555
N7 Sr7 2.823017 1_555
N7 Sr17 2.831999 1_545
N8 Sr8 2.568137 1_555
N8 Sr3 2.593059 1_455
N8 Sr23 2.648855 1_555
N8 Sr14 2.650964 1_555
N8 Sr7 2.703860 1_555
N8 Sr17 2.713584 1_555
N9 Sr9 2.568137 1_555
N9 Sr2 2.593059 1_555
N9 Sr22 2.648855 1_564
N9 Sr15 2.650964 1_565
N9 Sr6 2.703860 1_564
N9 Sr16 2.713584 1_554
N10 Sr10 2.568137 1_555
N10 Sr1 2.593059 1_555
N10 Sr21 2.648855 1_565
N10 Sr12 2.650964 1_565
N10 Sr5 2.703860 1_565
N10 Sr19 2.713584 1_555
N11 Sr11 2.568137 1_555
N11 Sr0 2.593059 1_655
N11 Sr20 2.648855 1_556
N11 Sr13 2.650964 1_555
N11 Sr4 2.703860 1_556
N11 Sr18 2.713584 1_556
N12 Sr12 2.568137 1_555
N12 Sr7 2.593059 1_655
N12 Sr19 2.648855 1_555
N12 Sr10 2.650964 1_555
N12 Sr3 2.703860 1_555
N12 Sr21 2.713584 1_555
N13 Sr13 2.568137 1_555
N13 Sr6 2.593059 1_555
N13 Sr18 2.648855 1_546
N13 Sr11 2.650964 1_545
N13 Sr2 2.703860 1_546
N13 Sr20 2.713584 1_556
N14 Sr14 2.568137 1_555
N14 Sr5 2.593059 1_555
N14 Sr17 2.648855 1_545
N14 Sr8 2.650964 1_545
N14 Sr1 2.703860 1_545
N14 Sr23 2.713584 1_555
N15 Sr15 2.568137 1_555
N15 Sr4 2.593059 1_455
N15 Sr16 2.648855 1_554
N15 Sr9 2.650964 1_555
N15 Sr0 2.703860 1_554
N15 Sr22 2.713584 1_554
N16 Ru3 1.928090 1_555
N16 Sr1 2.530691 1_555
N16 Sr14 2.662908 1_555
N16 Sr27 2.778961 1_555
N16 Sr19 2.925852 1_555
N16 Sr5 3.055355 1_555
N17 Ru2 1.928090 1_565
N17 Sr0 2.530691 1_554
N17 Sr15 2.662908 1_565
N17 Sr26 2.778961 1_555
N17 Sr18 2.925852 1_455
N17 Sr4 3.055355 1_465
N18 Ru2 1.928090 1_665
N18 Sr3 2.530691 1_555
N18 Sr12 2.662908 1_565
N18 Sr26 2.778961 1_655
N18 Sr17 2.925852 1_655
N18 Sr7 3.055355 1_665
N19 Ru3 1.928090 1_555
N19 Sr2 2.530691 1_556
N19 Sr13 2.662908 1_555
N19 Sr27 2.778961 1_555
N19 Sr16 2.925852 1_555
N19 Sr6 3.055355 1_555
N20 Ru1 1.928090 1_555
N20 Sr5 2.530691 1_555
N20 Sr10 2.662908 1_555
N20 Sr25 2.778961 1_555
N20 Sr23 2.925852 1_555
N20 Sr1 3.055355 1_555
N21 Ru0 1.928090 1_645
N21 Sr4 2.530691 1_556
N21 Sr11 2.662908 1_545
N21 Sr24 2.778961 1_655
N21 Sr22 2.925852 1_655
N21 Sr0 3.055355 1_645
N22 Ru0 1.928090 1_545
N22 Sr7 2.530691 1_555
N22 Sr8 2.662908 1_545
N22 Sr24 2.778961 1_555
N22 Sr21 2.925852 1_455
N22 Sr3 3.055355 1_445
N23 Ru1 1.928090 1_555
N23 Sr6 2.530691 1_554
N23 Sr9 2.662908 1_555
N23 Sr25 2.778961 1_555
N23 Sr20 2.925852 1_555
N23 Sr2 3.055355 1_555
