# generated using pymatgen
data_LaSi2Rh3
_symmetry_space_group_name_H-M   'P 1'
_cell_length_a   5.62943876
_cell_length_b   6.68837225
_cell_length_c   6.68837204
_cell_angle_alpha   64.58121477
_cell_angle_beta   65.09441185
_cell_angle_gamma   65.09441438
_symmetry_Int_Tables_number   1
_chemical_formula_structural   LaSi2Rh3
_chemical_formula_sum   'La2 Si4 Rh6'
_cell_volume   197.21835571
_cell_formula_units_Z   2
loop_
 _symmetry_equiv_pos_site_id
 _symmetry_equiv_pos_as_xyz
  1  'x, y, z'
loop_
 _atom_site_type_symbol
 _atom_site_label
 _atom_site_symmetry_multiplicity
 _atom_site_fract_x
 _atom_site_fract_y
 _atom_site_fract_z
 _atom_site_occupancy
  La  La0  1  0.54068171  0.75001533  0.75001601  1
  La  La1  1  0.45931935  0.24998348  0.24998439  1
  Si  Si0  1  0.22502355  0.57772191  0.57772202  1
  Si  Si1  1  0.77497668  0.42227789  0.42227792  1
  Si  Si2  1  0.11899784  0.07782954  0.07782929  1
  Si  Si3  1  0.88100244  0.92217058  0.92217036  1
  Rh  Rh0  1  0.49999983  0.21605657  0.78394336  1
  Rh  Rh1  1  -0.00000033  0.71616625  0.28383400  1
  Rh  Rh2  1  0.50000004  0.78394320  0.21605652  1
  Rh  Rh3  1  -0.00000066  0.28383416  0.71616638  1
  Rh  Rh4  1  0.00000008  0.50000032  -0.00000031  1
  Rh  Rh5  1  -0.00000052  0.99999978  0.50000008  1
loop_
_geom_bond_atom_site_label_1
_geom_bond_atom_site_label_2
_geom_bond_distance
_geom_bond_site_symmetry_2
La0 Rh3 3.127548 1_655
La0 Rh1 3.127552 1_655
La0 Rh2 3.127645 1_556
La0 Rh0 3.127647 1_565
La0 Rh4 3.142772 1_656
La0 Rh5 3.142772 1_655
La0 Si3 3.221468 1_455
La0 Si0 3.225356 1_555
La0 Si1 3.256435 1_555
La0 Si2 3.257153 1_566
La0 Si0 3.340525 1_655
La0 Si3 3.343052 1_555
La0 Rh4 3.529371 1_556
La0 Rh5 3.529377 1_555
La0 Rh1 3.577245 1_556
La0 Rh3 3.577249 1_565
La0 Rh0 3.578775 1_555
La0 Rh2 3.578778 1_555
La0 La1 3.602280 1_565
La0 La1 3.602281 1_556
La1 Rh3 3.127558 1_555
La1 Rh1 3.127560 1_555
La1 Rh2 3.127645 1_545
La1 Rh0 3.127648 1_554
La1 Rh5 3.142779 1_545
La1 Rh4 3.142780 1_555
La1 Si2 3.221464 1_655
La1 Si1 3.225354 1_555
La1 Si0 3.256437 1_555
La1 Si3 3.257150 1_544
La1 Si1 3.340529 1_455
La1 Si2 3.343053 1_555
La1 Rh5 3.529366 1_645
La1 Rh4 3.529373 1_655
La1 Rh1 3.577237 1_645
La1 Rh3 3.577239 1_654
La1 Rh0 3.578774 1_555
La1 Rh2 3.578777 1_555
Rh0 Si2 2.424438 1_556
Rh0 Si3 2.424441 1_545
Rh0 Si0 2.435213 1_555
Rh0 Si1 2.435215 1_555
Rh1 Si1 2.423333 1_455
Rh1 Si0 2.423334 1_555
Rh1 Si3 2.434068 1_454
Rh1 Si2 2.434069 1_565
Rh2 Si2 2.424440 1_565
Rh2 Si3 2.424441 1_554
Rh2 Si0 2.435214 1_555
Rh2 Si1 2.435214 1_555
Rh3 Si1 2.423333 1_455
Rh3 Si0 2.423334 1_555
Rh3 Si3 2.434067 1_445
Rh3 Si2 2.434067 1_556
Rh4 Si3 2.476164 1_454
Rh4 Si2 2.476166 1_555
Rh4 Si0 2.476433 1_554
Rh4 Si1 2.476436 1_455
Rh5 Si3 2.476164 1_455
Rh5 Si2 2.476166 1_565
Rh5 Si0 2.476435 1_555
Rh5 Si1 2.476435 1_465
