# generated using pymatgen
data_Er3Ge3Ru2
_symmetry_space_group_name_H-M   'P 1'
_cell_length_a   5.75658531
_cell_length_b   5.75658531
_cell_length_c   13.79059099
_cell_angle_alpha   90.00000000
_cell_angle_beta   90.00000000
_cell_angle_gamma   136.96624265
_symmetry_Int_Tables_number   1
_chemical_formula_structural   Er3Ge3Ru2
_chemical_formula_sum   'Er6 Ge6 Ru4'
_cell_volume   311.86765179
_cell_formula_units_Z   2
loop_
 _symmetry_equiv_pos_site_id
 _symmetry_equiv_pos_as_xyz
  1  'x, y, z'
loop_
 _atom_site_type_symbol
 _atom_site_label
 _atom_site_symmetry_multiplicity
 _atom_site_fract_x
 _atom_site_fract_y
 _atom_site_fract_z
 _atom_site_occupancy
  Er  Er0  1  0.92139605  0.07860395  0.38720023  1
  Er  Er1  1  0.07860395  0.92139605  0.61279977  1
  Er  Er2  1  0.92139605  0.07860395  0.11279977  1
  Er  Er3  1  0.07860395  0.92139605  0.88720023  1
  Er  Er4  1  0.64748130  0.35251870  0.25000000  1
  Er  Er5  1  0.35251870  0.64748130  0.75000000  1
  Ge  Ge0  1  0.61606080  0.38393920  0.45940570  1
  Ge  Ge1  1  0.38393920  0.61606080  0.54059430  1
  Ge  Ge2  1  0.61606080  0.38393920  0.04059430  1
  Ge  Ge3  1  0.38393920  0.61606080  0.95940570  1
  Ge  Ge4  1  0.33712599  0.66287401  0.25000000  1
  Ge  Ge5  1  0.66287401  0.33712599  0.75000000  1
  Ru  Ru0  1  0.78686338  0.21313662  0.91744640  1
  Ru  Ru1  1  0.21313662  0.78686338  0.08255260  1
  Ru  Ru2  1  0.78686338  0.21313662  0.58255260  1
  Ru  Ru3  1  0.21313662  0.78686338  0.41744640  1
loop_
_geom_bond_atom_site_label_1
_geom_bond_atom_site_label_2
_geom_bond_distance
_geom_bond_site_symmetry_2
Er0 Ge4 2.975319 1_545
Er0 Ge4 2.975319 1_655
Er0 Ge1 3.015584 1_655
Er0 Ge1 3.015584 1_545
Er0 Ru2 3.055179 1_555
Er0 Ru3 3.099610 1_545
Er0 Ru3 3.099610 1_655
Er0 Ge0 3.129972 1_655
Er0 Ge0 3.129972 1_545
Er0 Ru3 3.152495 1_645
Er1 Ge5 2.975319 1_455
Er1 Ge5 2.975319 1_565
Er1 Ge0 3.015584 1_455
Er1 Ge0 3.015584 1_565
Er1 Ru3 3.055191 1_555
Er1 Ru2 3.099612 1_455
Er1 Ru2 3.099612 1_565
Er1 Ge1 3.129972 1_565
Er1 Ge1 3.129972 1_455
Er1 Ru2 3.152497 1_465
Er2 Ge4 2.975319 1_545
Er2 Ge4 2.975319 1_655
Er2 Ge3 3.015584 1_654
Er2 Ge3 3.015584 1_544
Er2 Ru0 3.055191 1_554
Er2 Ru1 3.099612 1_545
Er2 Ru1 3.099612 1_655
Er2 Ge2 3.129972 1_655
Er2 Ge2 3.129972 1_545
Er2 Ru1 3.152497 1_645
Er3 Ge5 2.975319 1_455
Er3 Ge5 2.975319 1_565
Er3 Ge2 3.015584 1_566
Er3 Ge2 3.015584 1_456
Er3 Ru1 3.055179 1_556
Er3 Ru0 3.099610 1_455
Er3 Ru0 3.099610 1_565
Er3 Ge3 3.129972 1_455
Er3 Ge3 3.129972 1_565
Er3 Ru0 3.152495 1_465
Er4 Ge0 2.907372 1_555
Er4 Ge2 2.907372 1_555
Er4 Ge4 2.929824 1_545
Er4 Ge4 2.929824 1_655
Er4 Ru3 3.206985 1_655
Er4 Ru3 3.206985 1_545
Er4 Ru1 3.206995 1_655
Er4 Ru1 3.206995 1_545
Er4 Ge4 3.324158 1_555
Er5 Ge1 2.907372 1_555
Er5 Ge3 2.907372 1_555
Er5 Ge5 2.929824 1_455
Er5 Ge5 2.929824 1_565
Er5 Ru0 3.206985 1_455
Er5 Ru0 3.206985 1_565
Er5 Ru2 3.206995 1_565
Er5 Ru2 3.206995 1_455
Er5 Ge5 3.324158 1_555
Ge0 Ru3 2.423598 1_545
Ge0 Ru3 2.423598 1_655
Ge0 Ru2 2.496186 1_555
Ge0 Ge1 2.726690 1_555
Ge1 Ru2 2.423595 1_455
Ge1 Ru2 2.423595 1_565
Ge1 Ru3 2.496196 1_555
Ge2 Ru1 2.423595 1_545
Ge2 Ru1 2.423595 1_655
Ge2 Ru0 2.496196 1_554
Ge2 Ge3 2.726690 1_554
Ge3 Ru0 2.423598 1_455
Ge3 Ru0 2.423598 1_565
Ge3 Ru1 2.496186 1_556
Ge4 Ru3 2.663830 1_555
Ge4 Ru1 2.663842 1_555
Ge5 Ru0 2.663830 1_555
Ge5 Ru2 2.663842 1_555
