# generated using pymatgen
data_Yb(Al2Fe)4
_symmetry_space_group_name_H-M   'P 1'
_cell_length_a   5.03071700
_cell_length_b   6.62780896
_cell_length_c   6.62780896
_cell_angle_alpha   81.71875232
_cell_angle_beta   67.69629929
_cell_angle_gamma   67.69629929
_symmetry_Int_Tables_number   1
_chemical_formula_structural   Yb(Al2Fe)4
_chemical_formula_sum   'Yb1 Al8 Fe4'
_cell_volume   189.15908812
_cell_formula_units_Z   1
loop_
 _symmetry_equiv_pos_site_id
 _symmetry_equiv_pos_as_xyz
  1  'x, y, z'
loop_
 _atom_site_type_symbol
 _atom_site_label
 _atom_site_symmetry_multiplicity
 _atom_site_fract_x
 _atom_site_fract_y
 _atom_site_fract_z
 _atom_site_occupancy
  Yb  Yb0  1  0.00000000  0.00000000  0.00000000  1
  Al  Al0  1  0.00000000  0.33811600  0.66188400  1
  Al  Al1  1  0.00000000  0.66188400  0.33811600  1
  Al  Al2  1  0.66188400  0.33811600  0.33811600  1
  Al  Al3  1  0.33811600  0.66188400  0.66188400  1
  Al  Al4  1  0.50000000  0.77520600  0.22479400  1
  Al  Al5  1  0.50000000  0.22479400  0.77520600  1
  Al  Al6  1  0.72479400  0.77520600  0.77520600  1
  Al  Al7  1  0.27520600  0.22479400  0.22479400  1
  Fe  Fe0  1  0.00000000  0.00000000  0.50000000  1
  Fe  Fe1  1  0.50000000  0.00000000  0.50000000  1
  Fe  Fe2  1  0.50000000  0.50000000  0.00000000  1
  Fe  Fe3  1  0.00000000  0.50000000  0.00000000  1
loop_
_geom_bond_atom_site_label_1
_geom_bond_atom_site_label_2
_geom_bond_distance
_geom_bond_site_symmetry_2
Al0 Fe1 2.620259 1_555
Al0 Fe2 2.620259 1_456
Al0 Fe3 2.620259 1_556
Al0 Fe0 2.620259 1_555
Al0 Al5 2.700511 1_555
Al0 Al5 2.700511 1_455
Al0 Al6 2.768829 1_455
Al0 Al7 2.768829 1_555
Al0 Al1 2.807680 1_555
Al0 Yb0 2.932104 1_556
Al1 Fe1 2.620259 1_465
Al1 Fe2 2.620259 1_555
Al1 Fe0 2.620259 1_565
Al1 Fe3 2.620259 1_555
Al1 Al4 2.700511 1_555
Al1 Al4 2.700511 1_455
Al1 Al6 2.768829 1_455
Al1 Al7 2.768829 1_555
Al1 Yb0 2.932104 1_565
Al2 Fe0 2.620259 1_655
Al2 Fe3 2.620259 1_655
Al2 Fe2 2.620259 1_555
Al2 Fe1 2.620259 1_555
Al2 Al7 2.700511 1_655
Al2 Al7 2.700511 1_555
Al2 Al4 2.768829 1_555
Al2 Al5 2.768829 1_555
Al2 Al3 2.807680 1_555
Al2 Yb0 2.932104 1_655
Al3 Fe3 2.620259 1_556
Al3 Fe0 2.620259 1_565
Al3 Fe1 2.620259 1_565
Al3 Fe2 2.620259 1_556
Al3 Al6 2.700511 1_455
Al3 Al6 2.700511 1_555
Al3 Al5 2.768829 1_555
Al3 Al4 2.768829 1_555
Al3 Yb0 2.932104 1_566
Al4 Fe3 2.515877 1_655
Al4 Fe0 2.515877 1_565
Al4 Fe2 2.515877 1_555
Al4 Fe1 2.515877 1_565
Al4 Al7 2.756852 1_565
Al4 Al6 2.756852 1_554
Al4 Yb0 3.182317 1_565
Al4 Yb0 3.182317 1_665
Al5 Fe0 2.515877 1_655
Al5 Fe3 2.515877 1_556
Al5 Fe1 2.515877 1_555
Al5 Fe2 2.515877 1_556
Al5 Al7 2.756852 1_556
Al5 Al6 2.756852 1_545
Al5 Yb0 3.182317 1_556
Al5 Yb0 3.182317 1_656
Al6 Fe3 2.515877 1_656
Al6 Fe0 2.515877 1_665
Al6 Fe1 2.515877 1_565
Al6 Fe2 2.515877 1_556
Al6 Yb0 3.182317 1_566
Al6 Yb0 3.182317 1_666
Al7 Fe0 2.515877 1_555
Al7 Fe3 2.515877 1_555
Al7 Fe2 2.515877 1_555
Al7 Fe1 2.515877 1_555
Al7 Yb0 3.182317 1_655
Al7 Yb0 3.182317 1_555
Fe0 Fe1 2.515359 1_455
Fe0 Fe1 2.515359 1_555
Fe0 Yb0 3.313904 1_556
Fe0 Yb0 3.313904 1_555
Fe1 Yb0 3.313904 1_556
Fe1 Yb0 3.313904 1_655
Fe2 Fe3 2.515359 1_655
Fe2 Fe3 2.515359 1_555
Fe2 Yb0 3.313904 1_655
Fe2 Yb0 3.313904 1_565
Fe3 Yb0 3.313904 1_565
Fe3 Yb0 3.313904 1_555
