# generated using pymatgen
data_Mg9Si5
_symmetry_space_group_name_H-M   'P 1'
_cell_length_a   7.25522700
_cell_length_b   7.26656133
_cell_length_c   12.39712666
_cell_angle_alpha   101.98644741
_cell_angle_beta   84.78414951
_cell_angle_gamma   118.86471790
_symmetry_Int_Tables_number   1
_chemical_formula_structural   Mg9Si5
_chemical_formula_sum   'Mg18 Si10'
_cell_volume   559.87029027
_cell_formula_units_Z   2
loop_
 _symmetry_equiv_pos_site_id
 _symmetry_equiv_pos_as_xyz
  1  'x, y, z'
loop_
 _atom_site_type_symbol
 _atom_site_label
 _atom_site_symmetry_multiplicity
 _atom_site_fract_x
 _atom_site_fract_y
 _atom_site_fract_z
 _atom_site_occupancy
  Mg  Mg0  1  0.21514200  0.01416500  0.29559700  1
  Mg  Mg1  1  0.89027400  0.77167600  0.46513900  1
  Mg  Mg2  1  0.65924200  0.82031400  0.29286500  1
  Mg  Mg3  1  0.31705300  0.05743200  0.53381700  1
  Mg  Mg4  1  0.21049300  0.62911800  0.36567200  1
  Mg  Mg5  1  0.81462000  0.28206400  0.45288600  1
  Mg  Mg6  1  0.68438500  0.96965100  0.81944100  1
  Mg  Mg7  1  0.29699100  0.88870600  0.98834500  1
  Mg  Mg8  1  0.33557000  0.18559000  0.81818800  1
  Mg  Mg9  1  0.59096900  0.66025700  0.99257800  1
  Mg  Mg10  1  0.90862900  0.56069600  0.82326700  1
  Mg  Mg11  1  0.05898200  0.36347700  0.98592000  1
  Mg  Mg12  1  0.24839900  0.69524900  0.63879200  1
  Mg  Mg13  1  0.65334000  0.13407000  0.17192800  1
  Mg  Mg14  1  0.57326500  0.53671200  0.63300600  1
  Mg  Mg15  1  0.36920100  0.35091800  0.15504300  1
  Mg  Mg16  1  0.03679300  0.23109800  0.66200700  1
  Mg  Mg17  1  0.89728400  0.61292200  0.16198300  1
  Si  Si0  1  0.97810400  0.95347500  0.94838900  1
  Si  Si1  1  0.98196600  0.85199400  0.68469700  1
  Si  Si2  1  0.23526900  0.34004200  0.46547300  1
  Si  Si3  1  0.96529400  0.02513100  0.15134200  1
  Si  Si4  1  0.31553400  0.57162100  0.81862600  1
  Si  Si5  1  0.56970200  0.41024900  0.35447400  1
  Si  Si6  1  0.64439800  0.30203200  0.98938900  1
  Si  Si7  1  0.31787200  0.70246300  0.15522600  1
  Si  Si8  1  0.58103300  0.88360700  0.51192800  1
  Si  Si9  1  0.65033400  0.19582900  0.66428300  1
loop_
_geom_bond_atom_site_label_1
_geom_bond_atom_site_label_2
_geom_bond_distance
_geom_bond_site_symmetry_2
Mg0 Si3 2.697867 1_455
Mg0 Si2 2.777512 1_555
Mg0 Si5 2.784675 1_555
Mg0 Si7 2.910491 1_545
Mg1 Si8 2.713134 1_555
Mg1 Si5 2.715740 1_555
Mg1 Si1 2.736125 1_555
Mg2 Si8 2.713263 1_555
Mg2 Si3 2.722015 1_565
Mg2 Si7 2.809394 1_555
Mg2 Si5 2.978340 1_555
Mg3 Si9 2.676168 1_555
Mg3 Si2 2.697743 1_555
Mg3 Si8 2.726904 1_545
Mg3 Si1 2.909751 1_445
Mg4 Si2 2.731310 1_555
Mg4 Si7 2.739453 1_555
Mg4 Si8 2.937378 1_555
Mg5 Si8 2.776405 1_545
Mg5 Si5 2.824499 1_555
Mg5 Si9 2.841578 1_555
Mg5 Si2 2.886841 1_655
Mg6 Si4 2.836700 1_555
Mg6 Si0 2.837200 1_555
Mg6 Si9 2.872920 1_565
Mg6 Si1 2.952275 1_555
Mg6 Si6 2.967884 1_565
Mg7 Si0 2.678826 1_455
Mg7 Si7 2.748182 1_556
Mg7 Si4 2.826335 1_555
Mg7 Si6 2.838086 1_565
Mg8 Si9 2.822028 1_555
Mg8 Si4 2.876990 1_555
Mg8 Si1 2.880615 1_445
Mg8 Si0 2.884921 1_445
Mg8 Si6 2.920474 1_555
Mg9 Si0 2.675081 1_555
Mg9 Si7 2.772926 1_556
Mg9 Si6 2.802938 1_555
Mg9 Si4 2.832431 1_555
Mg10 Si0 2.778596 1_555
Mg10 Si1 2.823390 1_555
Mg10 Si9 2.851306 1_555
Mg10 Si4 2.910286 1_655
Mg10 Si6 2.976632 1_555
Mg11 Si0 2.687572 1_445
Mg11 Si6 2.817175 1_455
Mg11 Si4 2.817181 1_555
Mg11 Si7 2.846637 1_556
Mg12 Si1 2.648448 1_455
Mg12 Si8 2.680666 1_555
Mg12 Si4 2.732472 1_555
Mg12 Si2 2.963831 1_555
Mg13 Si3 2.712043 1_555
Mg13 Si6 2.804492 1_554
Mg13 Si7 2.873155 1_545
Mg13 Si5 2.925201 1_555
Mg14 Si1 2.762011 1_555
Mg14 Si4 2.879121 1_555
Mg14 Si9 2.893849 1_555
Mg14 Si2 2.946022 1_555
Mg14 Si8 3.166919 1_555
Mg15 Si3 2.734101 1_455
Mg15 Si7 2.753216 1_555
Mg15 Si6 2.822472 1_554
Mg15 Si5 2.832003 1_555
Mg16 Si1 2.658894 1_445
Mg16 Si9 2.687541 1_455
Mg16 Si2 2.774749 1_555
Mg16 Si4 2.805260 1_555
Mg17 Si6 2.784280 1_554
Mg17 Si7 2.793032 1_655
Mg17 Si3 2.821039 1_565
Si0 Si3 2.463785 1_566
Si2 Si5 2.555501 1_555
Si8 Si9 2.501800 1_565
