# generated using pymatgen
data_ZrCrCuS4
_symmetry_space_group_name_H-M   'P 1'
_cell_length_a   11.76043300
_cell_length_b   7.05951700
_cell_length_c   12.45260100
_cell_angle_alpha   90.00000000
_cell_angle_beta   90.00000000
_cell_angle_gamma   90.00000000
_symmetry_Int_Tables_number   1
_chemical_formula_structural   ZrCrCuS4
_chemical_formula_sum   'Zr8 Cr8 Cu8 S32'
_cell_volume   1033.85200256
_cell_formula_units_Z   8
loop_
 _symmetry_equiv_pos_site_id
 _symmetry_equiv_pos_as_xyz
  1  'x, y, z'
loop_
 _atom_site_type_symbol
 _atom_site_label
 _atom_site_symmetry_multiplicity
 _atom_site_fract_x
 _atom_site_fract_y
 _atom_site_fract_z
 _atom_site_occupancy
  Zr  Zr0  1  0.09438300  0.90500600  0.68440800  1
  Zr  Zr1  1  0.90561700  0.09499400  0.18440800  1
  Zr  Zr2  1  0.40561700  0.90500600  0.18440800  1
  Zr  Zr3  1  0.59438300  0.09499400  0.68440800  1
  Zr  Zr4  1  0.11338100  0.39057000  0.33702100  1
  Zr  Zr5  1  0.88661900  0.60943000  0.83702100  1
  Zr  Zr6  1  0.38661900  0.39057000  0.83702100  1
  Zr  Zr7  1  0.61338100  0.60943000  0.33702100  1
  Cr  Cr0  1  0.16182600  0.63001000  0.95058300  1
  Cr  Cr1  1  0.83817400  0.36999000  0.45058300  1
  Cr  Cr2  1  0.33817400  0.63001000  0.45058300  1
  Cr  Cr3  1  0.66182600  0.36999000  0.95058300  1
  Cr  Cr4  1  0.15544100  0.13016500  0.96090100  1
  Cr  Cr5  1  0.84455900  0.86983500  0.46090200  1
  Cr  Cr6  1  0.34455900  0.13016500  0.46090200  1
  Cr  Cr7  1  0.65544100  0.86983500  0.96090100  1
  Cu  Cu0  1  0.10816900  0.37041200  0.68461300  1
  Cu  Cu1  1  0.89183100  0.62958800  0.18461300  1
  Cu  Cu2  1  0.39183100  0.37041200  0.18461300  1
  Cu  Cu3  1  0.60816900  0.62958800  0.68461300  1
  Cu  Cu4  1  0.12727800  0.88960900  0.30773700  1
  Cu  Cu5  1  0.87272200  0.11039100  0.80773700  1
  Cu  Cu6  1  0.37272200  0.88960900  0.80773700  1
  Cu  Cu7  1  0.62727800  0.11039100  0.30773700  1
  S  S0  1  0.03126000  0.87616400  0.88869400  1
  S  S1  1  0.96874000  0.12383600  0.38869400  1
  S  S2  1  0.46874000  0.87616400  0.38869400  1
  S  S3  1  0.53126000  0.12383600  0.88869400  1
  S  S4  1  0.02727400  0.36990500  0.14916500  1
  S  S5  1  0.97272600  0.63009500  0.64916500  1
  S  S6  1  0.47272600  0.36990500  0.64916500  1
  S  S7  1  0.52727400  0.63009500  0.14916500  1
  S  S8  1  0.03549500  0.38452600  0.89439200  1
  S  S9  1  0.96450500  0.61547400  0.39439200  1
  S  S10  1  0.46450500  0.38452600  0.39439200  1
  S  S11  1  0.53549500  0.61547400  0.89439200  1
  S  S12  1  0.03730000  0.84815600  0.14381800  1
  S  S13  1  0.96270000  0.15184400  0.64381800  1
  S  S14  1  0.46270000  0.84815600  0.64381800  1
  S  S15  1  0.53730000  0.15184400  0.14381800  1
  S  S16  1  0.21492600  0.88268100  0.51054000  1
  S  S17  1  0.78507400  0.11731900  0.01054000  1
  S  S18  1  0.28507400  0.88268100  0.01054000  1
  S  S19  1  0.71492600  0.11731900  0.51054000  1
  S  S20  1  0.22161500  0.37608000  0.51951200  1
  S  S21  1  0.77838500  0.62392000  0.01951200  1
  S  S22  1  0.27838400  0.37608000  0.01951200  1
  S  S23  1  0.72161500  0.62392000  0.51951200  1
  S  S24  1  0.23760400  0.13111900  0.78660600  1
  S  S25  1  0.76239600  0.86888100  0.28660600  1
  S  S26  1  0.26239600  0.13111900  0.28660600  1
  S  S27  1  0.73760400  0.86888100  0.78660600  1
  S  S28  1  0.24196800  0.63267000  0.77900900  1
  S  S29  1  0.75803200  0.36733000  0.27900900  1
  S  S30  1  0.25803200  0.63267000  0.27900900  1
  S  S31  1  0.74196800  0.36733000  0.77900900  1
loop_
_geom_bond_atom_site_label_1
_geom_bond_atom_site_label_2
_geom_bond_distance
_geom_bond_site_symmetry_2
Cr0 S28 2.335269 1_555
Cr0 S8 2.387514 1_555
Cr0 S22 2.414389 1_556
Cr0 S18 2.416621 1_556
Cr0 S0 2.443654 1_555
Cr1 S29 2.335269 1_555
Cr1 S9 2.387514 1_555
Cr1 S23 2.414395 1_555
Cr1 S19 2.416621 1_555
Cr1 S1 2.443654 1_555
Cr2 S30 2.335269 1_555
Cr2 S10 2.387514 1_555
Cr2 S20 2.414395 1_555
Cr2 S16 2.416621 1_555
Cr2 S2 2.443654 1_555
Cr3 S31 2.335269 1_555
Cr3 S11 2.387514 1_555
Cr3 S21 2.414395 1_556
Cr3 S17 2.416621 1_556
Cr3 S3 2.443654 1_555
Cr4 S22 2.374248 1_556
Cr4 S24 2.375811 1_555
Cr4 S18 2.399736 1_546
Cr4 S8 2.429030 1_555
Cr4 S0 2.481255 1_545
Cr5 S23 2.374251 1_555
Cr5 S25 2.375822 1_555
Cr5 S19 2.399733 1_565
Cr5 S9 2.429034 1_555
Cr5 S1 2.481259 1_565
Cr6 S20 2.374251 1_555
Cr6 S26 2.375822 1_555
Cr6 S16 2.399733 1_545
Cr6 S10 2.429034 1_555
Cr6 S2 2.481259 1_545
Cr7 S21 2.374255 1_556
Cr7 S27 2.375811 1_555
Cr7 S17 2.399736 1_566
Cr7 S11 2.429030 1_555
Cr7 S3 2.481255 1_565
Cu0 S13 2.359159 1_455
Cu0 S20 2.451224 1_555
Cu0 S5 2.468367 1_455
Cu0 S24 2.604599 1_555
Cu0 S28 2.699165 1_555
Cu0 S8 2.750360 1_555
Cu1 S12 2.359159 1_655
Cu1 S21 2.451224 1_555
Cu1 S4 2.468367 1_655
Cu1 S25 2.604599 1_555
Cu1 S29 2.699165 1_555
Cu1 S9 2.750360 1_555
Cu2 S15 2.359159 1_555
Cu2 S22 2.451230 1_555
Cu2 S7 2.468367 1_555
Cu2 S26 2.604599 1_555
Cu2 S30 2.699165 1_555
Cu2 S10 2.750360 1_555
Cu3 S14 2.359159 1_555
Cu3 S23 2.451224 1_555
Cu3 S6 2.468367 1_555
Cu3 S27 2.604599 1_555
Cu3 S31 2.699165 1_555
Cu3 S11 2.750360 1_555
Cu4 S12 2.317747 1_555
Cu4 S26 2.345451 1_565
Cu4 S30 2.404720 1_555
Cu4 S1 2.688261 1_465
Cu4 S16 2.728125 1_555
Cu4 S9 2.928160 1_455
Cu5 S13 2.317747 1_555
Cu5 S27 2.345451 1_545
Cu5 S31 2.404720 1_555
Cu5 S0 2.688261 1_645
Cu5 S17 2.728125 1_556
Cu5 S8 2.928160 1_655
Cu6 S14 2.317747 1_555
Cu6 S24 2.345451 1_565
Cu6 S28 2.404720 1_555
Cu6 S3 2.688261 1_565
Cu6 S18 2.728125 1_556
Cu6 S11 2.928160 1_555
Cu7 S15 2.317747 1_555
Cu7 S25 2.345451 1_545
Cu7 S29 2.404720 1_555
Cu7 S2 2.688261 1_545
Cu7 S19 2.728125 1_555
Cu7 S10 2.928160 1_555
S0 Zr5 2.617885 1_455
S0 Zr0 2.657806 1_555
S1 Zr4 2.617885 1_655
S1 Zr1 2.657806 1_555
S2 Zr7 2.617885 1_555
S2 Zr2 2.657806 1_555
S3 Zr6 2.617885 1_555
S3 Zr3 2.657806 1_555
S4 Zr1 2.450732 1_455
S4 Zr4 2.553245 1_555
S5 Zr0 2.450732 1_655
S5 Zr5 2.553245 1_555
S6 Zr3 2.450732 1_555
S6 Zr6 2.553245 1_555
S7 Zr2 2.450732 1_555
S7 Zr7 2.553245 1_555
S8 Zr5 2.469148 1_455
S9 Zr4 2.469148 1_655
S10 Zr7 2.469148 1_555
S11 Zr6 2.469148 1_555
S12 Zr1 2.385435 1_465
S13 Zr0 2.385435 1_645
S14 Zr3 2.385435 1_565
S15 Zr2 2.385435 1_545
S16 Zr0 2.592727 1_555
S17 Zr1 2.592727 1_555
S18 Zr2 2.592727 1_555
S19 Zr3 2.592727 1_555
S20 Zr4 2.606700 1_555
S21 Zr5 2.606700 1_554
S22 Zr6 2.606706 1_554
S23 Zr7 2.606700 1_555
S24 Zr6 2.611527 1_555
S24 Zr0 2.646621 1_545
S25 Zr7 2.611527 1_555
S25 Zr1 2.646621 1_565
S26 Zr4 2.611527 1_555
S26 Zr2 2.646621 1_545
S27 Zr5 2.611527 1_555
S27 Zr3 2.646621 1_565
S28 Zr6 2.517311 1_555
S28 Zr0 2.845438 1_555
S29 Zr7 2.517311 1_555
S29 Zr1 2.845438 1_555
S30 Zr4 2.517311 1_555
S30 Zr2 2.845438 1_555
S31 Zr5 2.517311 1_555
S31 Zr3 2.845438 1_555
