# generated using pymatgen
data_Al6Re
_symmetry_space_group_name_H-M   'P 1'
_cell_length_a   5.01059526
_cell_length_b   5.01059587
_cell_length_c   9.00430593
_cell_angle_alpha   90.00000000
_cell_angle_beta   90.00000000
_cell_angle_gamma   98.14846328
_symmetry_Int_Tables_number   1
_chemical_formula_structural   Al6Re
_chemical_formula_sum   'Al12 Re2'
_cell_volume   223.78041466
_cell_formula_units_Z   2
loop_
 _symmetry_equiv_pos_site_id
 _symmetry_equiv_pos_as_xyz
  1  'x, y, z'
loop_
 _atom_site_type_symbol
 _atom_site_label
 _atom_site_symmetry_multiplicity
 _atom_site_fract_x
 _atom_site_fract_y
 _atom_site_fract_z
 _atom_site_occupancy
  Al  Al0  1  0.32462426  0.67537574  -0.00000000  1
  Al  Al1  1  0.67537574  0.32462426  0.50000000  1
  Al  Al2  1  0.67537574  0.32462426  -0.00000000  1
  Al  Al3  1  0.32462426  0.67537574  0.50000000  1
  Al  Al4  1  0.13243974  0.13243974  0.60031648  1
  Al  Al5  1  0.86756026  0.86756026  0.10031648  1
  Al  Al6  1  0.13243974  0.13243974  0.89968352  1
  Al  Al7  1  0.86756026  0.86756026  0.39968352  1
  Al  Al8  1  0.38855231  0.02741627  0.25000000  1
  Al  Al9  1  0.61144769  0.97258373  0.75000000  1
  Al  Al10  1  0.02741627  0.38855231  0.25000000  1
  Al  Al11  1  0.97258373  0.61144769  0.75000000  1
  Re  Re0  1  0.54317222  0.54317222  0.25000000  1
  Re  Re1  1  0.45682778  0.45682778  0.75000000  1
loop_
_geom_bond_atom_site_label_1
_geom_bond_atom_site_label_2
_geom_bond_distance
_geom_bond_site_symmetry_2
Al0 Re0 2.628863 1_555
Al0 Re1 2.628863 1_554
Al0 Al2 2.655750 1_555
Al0 Al5 2.759205 1_455
Al0 Al6 2.759205 1_564
Al0 Al11 2.849778 1_454
Al0 Al8 2.849779 1_565
Al0 Al5 2.898507 1_555
Al0 Al6 2.898507 1_554
Al0 Al10 2.956983 1_555
Al0 Al9 2.956983 1_554
Al1 Re1 2.628863 1_555
Al1 Re0 2.628863 1_555
Al1 Al3 2.655750 1_555
Al1 Al4 2.759205 1_655
Al1 Al7 2.759205 1_545
Al1 Al10 2.849778 1_655
Al1 Al9 2.849779 1_545
Al1 Al4 2.898507 1_555
Al1 Al7 2.898507 1_555
Al1 Al11 2.956983 1_555
Al1 Al8 2.956983 1_555
Al2 Re1 2.628863 1_554
Al2 Re0 2.628863 1_555
Al2 Al6 2.759205 1_654
Al2 Al5 2.759205 1_545
Al2 Al9 2.849779 1_544
Al2 Al6 2.898507 1_554
Al2 Al5 2.898507 1_555
Al2 Al8 2.956983 1_555
Al3 Re0 2.628863 1_555
Al3 Re1 2.628863 1_555
Al3 Al7 2.759205 1_455
Al3 Al4 2.759205 1_565
Al3 Al8 2.849779 1_565
Al3 Al7 2.898507 1_555
Al3 Al4 2.898507 1_555
Al3 Al9 2.956983 1_555
Al4 Al7 2.507442 1_445
Al4 Re1 2.520189 1_555
Al4 Al6 2.695592 1_555
Al4 Al9 2.946182 1_445
Al4 Al9 2.960343 1_545
Al5 Al6 2.507442 1_664
Al5 Re0 2.520189 1_555
Al5 Al7 2.695592 1_555
Al5 Al8 2.946182 1_665
Al5 Al8 2.960343 1_565
Al6 Re1 2.520189 1_555
Al6 Al9 2.946182 1_445
Al6 Al9 2.960343 1_545
Al7 Re0 2.520189 1_555
Al7 Al8 2.946182 1_665
Al7 Al8 2.960343 1_565
Al8 Re0 2.590557 1_555
Al8 Re0 2.649580 1_545
Al9 Re1 2.590557 1_555
Al9 Re1 2.649580 1_565
Al10 Re0 2.590557 1_555
Al10 Re0 2.649580 1_455
Al10 Al2 2.849778 1_455
Al10 Al5 2.946183 1_445
Al10 Al7 2.946183 1_445
Al10 Al3 2.956983 1_555
Al10 Al5 2.960343 1_455
Al10 Al7 2.960343 1_455
Al11 Re1 2.590557 1_555
Al11 Re1 2.649580 1_655
Al11 Al3 2.849778 1_655
Al11 Al4 2.946183 1_665
Al11 Al6 2.946183 1_665
Al11 Al2 2.956983 1_556
Al11 Al4 2.960343 1_655
Al11 Al6 2.960343 1_655
