# generated using pymatgen
data_SrLiTi3Cr2O11
_symmetry_space_group_name_H-M   'P 1'
_cell_length_a   5.81208000
_cell_length_b   9.96145200
_cell_length_c   13.89753700
_cell_angle_alpha   90.00000000
_cell_angle_beta   90.00000000
_cell_angle_gamma   90.00000000
_symmetry_Int_Tables_number   1
_chemical_formula_structural   SrLiTi3Cr2O11
_chemical_formula_sum   'Sr4 Li4 Ti12 Cr8 O44'
_cell_volume   804.62230786
_cell_formula_units_Z   4
loop_
 _symmetry_equiv_pos_site_id
 _symmetry_equiv_pos_as_xyz
  1  'x, y, z'
loop_
 _atom_site_type_symbol
 _atom_site_label
 _atom_site_symmetry_multiplicity
 _atom_site_fract_x
 _atom_site_fract_y
 _atom_site_fract_z
 _atom_site_occupancy
  Sr  Sr0  1  0.25000000  0.60301700  0.59545300  1
  Sr  Sr1  1  0.75000000  0.39698300  0.40454700  1
  Sr  Sr2  1  0.75000000  0.10301700  0.90454700  1
  Sr  Sr3  1  0.25000000  0.89698300  0.09545300  1
  Li  Li0  1  0.25000000  0.57893100  0.04020400  1
  Li  Li1  1  0.75000000  0.42106900  0.95979600  1
  Li  Li2  1  0.75000000  0.07893100  0.45979600  1
  Li  Li3  1  0.25000000  0.92106900  0.54020400  1
  Ti  Ti0  1  0.25000000  0.22990300  0.00233400  1
  Ti  Ti1  1  0.75000000  0.77009700  0.99766600  1
  Ti  Ti2  1  0.75000000  0.72990300  0.49766600  1
  Ti  Ti3  1  0.25000000  0.27009700  0.50233400  1
  Ti  Ti4  1  0.25000000  0.56838600  0.33250900  1
  Ti  Ti5  1  0.75000000  0.43161400  0.66749100  1
  Ti  Ti6  1  0.75000000  0.06838600  0.16749100  1
  Ti  Ti7  1  0.25000000  0.93161400  0.83250900  1
  Ti  Ti8  1  0.25000000  0.10864800  0.33230900  1
  Ti  Ti9  1  0.75000000  0.89135200  0.66769100  1
  Ti  Ti10  1  0.75000000  0.60864800  0.16769100  1
  Ti  Ti11  1  0.25000000  0.39135200  0.83230900  1
  Cr  Cr0  1  0.00148100  0.33599400  0.17185900  1
  Cr  Cr1  1  0.99851900  0.66400600  0.82814100  1
  Cr  Cr2  1  0.99851900  0.83599400  0.32814100  1
  Cr  Cr3  1  0.50148100  0.66400600  0.82814100  1
  Cr  Cr4  1  0.00148100  0.16400600  0.67185900  1
  Cr  Cr5  1  0.49851900  0.33599400  0.17185900  1
  Cr  Cr6  1  0.49851900  0.16400600  0.67185900  1
  Cr  Cr7  1  0.50148100  0.83599400  0.32814100  1
  O  O0  1  0.25000000  0.44018500  0.43489000  1
  O  O1  1  0.75000000  0.55981500  0.56511000  1
  O  O2  1  0.75000000  0.94018500  0.06511000  1
  O  O3  1  0.25000000  0.05981500  0.93489000  1
  O  O4  1  0.25000000  0.39647700  0.08680200  1
  O  O5  1  0.75000000  0.60352300  0.91319800  1
  O  O6  1  0.75000000  0.89647700  0.41319800  1
  O  O7  1  0.25000000  0.10352300  0.58680200  1
  O  O8  1  0.02745900  0.18370400  0.41388000  1
  O  O9  1  0.97254100  0.81629600  0.58612000  1
  O  O10  1  0.97254100  0.68370400  0.08612000  1
  O  O11  1  0.52745900  0.81629600  0.58612000  1
  O  O12  1  0.02745900  0.31629600  0.91388000  1
  O  O13  1  0.47254100  0.18370400  0.41388000  1
  O  O14  1  0.47254100  0.31629600  0.91388000  1
  O  O15  1  0.52745900  0.68370400  0.08612000  1
  O  O16  1  0.25000000  0.92783200  0.39689600  1
  O  O17  1  0.75000000  0.07216800  0.60310400  1
  O  O18  1  0.75000000  0.42783200  0.10310400  1
  O  O19  1  0.25000000  0.57216800  0.89689600  1
  O  O20  1  0.50525100  0.17347700  0.08621000  1
  O  O21  1  0.49474900  0.82652300  0.91379000  1
  O  O22  1  0.49474900  0.67347700  0.41379000  1
  O  O23  1  0.00525100  0.82652300  0.91379000  1
  O  O24  1  0.50525100  0.32652300  0.58621000  1
  O  O25  1  0.99474900  0.17347700  0.08621000  1
  O  O26  1  0.99474900  0.32652300  0.58621000  1
  O  O27  1  0.00525100  0.67347700  0.41379000  1
  O  O28  1  0.25000000  0.74888300  0.26091900  1
  O  O29  1  0.75000000  0.25111700  0.73908100  1
  O  O30  1  0.75000000  0.24888300  0.23908100  1
  O  O31  1  0.25000000  0.75111700  0.76091900  1
  O  O32  1  0.25000000  0.25437200  0.24493500  1
  O  O33  1  0.75000000  0.74562800  0.75506500  1
  O  O34  1  0.75000000  0.75437200  0.25506500  1
  O  O35  1  0.25000000  0.24562800  0.74493500  1
  O  O36  1  0.99984900  0.99955700  0.24373500  1
  O  O37  1  0.00015100  0.00044300  0.75626500  1
  O  O38  1  0.00015100  0.49955700  0.25626500  1
  O  O39  1  0.49984900  0.00044300  0.75626500  1
  O  O40  1  0.99984900  0.50044300  0.74373500  1
  O  O41  1  0.50015100  0.99955700  0.24373500  1
  O  O42  1  0.50015100  0.50044300  0.74373500  1
  O  O43  1  0.49984900  0.49955700  0.25626500  1
loop_
_geom_bond_atom_site_label_1
_geom_bond_atom_site_label_2
_geom_bond_distance
_geom_bond_site_symmetry_2
Li0 O4 1.929433 1_555
Li0 O19 1.992767 1_554
Li0 O10 2.024108 1_455
Li0 O15 2.024108 1_555
Li1 O5 1.929433 1_555
Li1 O18 1.992767 1_556
Li1 O12 2.024108 1_655
Li1 O14 2.024108 1_555
Li2 O6 1.929433 1_545
Li2 O17 1.992767 1_555
Li2 O8 2.024108 1_655
Li2 O13 2.024108 1_555
Li3 O7 1.929433 1_565
Li3 O16 1.992767 1_555
Li3 O9 2.024108 1_455
Li3 O11 2.024108 1_555
Cr0 O30 1.939618 1_455
Cr0 O32 1.943916 1_555
Cr0 O4 1.961288 1_555
Cr0 O18 1.971374 1_455
Cr0 O38 2.007678 1_555
Cr0 O25 2.009782 1_455
Cr1 O31 1.939618 1_655
Cr1 O33 1.943916 1_555
Cr1 O5 1.961288 1_555
Cr1 O19 1.971374 1_655
Cr1 O40 2.007678 1_555
Cr1 O23 2.009782 1_655
Cr2 O28 1.939618 1_655
Cr2 O34 1.943916 1_555
Cr2 O6 1.961288 1_555
Cr2 O16 1.971374 1_655
Cr2 O36 2.007678 1_555
Cr2 O27 2.009782 1_655
Cr3 O31 1.939618 1_555
Cr3 O33 1.943916 1_555
Cr3 O5 1.961288 1_555
Cr3 O19 1.971374 1_555
Cr3 O42 2.007678 1_555
Cr3 O21 2.009782 1_555
Cr4 O29 1.939618 1_455
Cr4 O35 1.943916 1_555
Cr4 O7 1.961288 1_555
Cr4 O17 1.971374 1_455
Cr4 O37 2.007678 1_555
Cr4 O26 2.009782 1_455
Cr5 O30 1.939618 1_555
Cr5 O32 1.943916 1_555
Cr5 O4 1.961288 1_555
Cr5 O18 1.971374 1_555
Cr5 O43 2.007678 1_555
Cr5 O20 2.009782 1_555
Cr6 O29 1.939618 1_555
Cr6 O35 1.943916 1_555
Cr6 O7 1.961288 1_555
Cr6 O17 1.971374 1_555
Cr6 O39 2.007678 1_555
Cr6 O24 2.009782 1_555
Cr7 O28 1.939618 1_555
Cr7 O34 1.943916 1_555
Cr7 O6 1.961288 1_555
Cr7 O16 1.971374 1_555
Cr7 O41 2.007678 1_555
Cr7 O22 2.009782 1_555
O0 Ti4 1.911907 1_555
O0 Ti3 1.936304 1_555
O0 Sr0 2.758678 1_555
O0 Sr1 2.967844 1_555
O0 Sr1 2.967844 1_455
O1 Ti5 1.911907 1_555
O1 Ti2 1.936304 1_555
O1 Sr1 2.758678 1_555
O1 Sr0 2.967844 1_655
O1 Sr0 2.967844 1_555
O2 Ti6 1.911907 1_565
O2 Ti1 1.936304 1_554
O2 Sr2 2.758678 1_564
O2 Sr3 2.967844 1_555
O2 Sr3 2.967844 1_655
O3 Ti7 1.911907 1_545
O3 Ti0 1.936304 1_556
O3 Sr3 2.758678 1_546
O3 Sr2 2.967844 1_555
O3 Sr2 2.967844 1_455
O4 Ti0 2.032578 1_555
O5 Ti1 2.032578 1_555
O6 Ti2 2.032578 1_555
O7 Ti3 2.032578 1_555
O8 Ti8 1.875390 1_555
O8 Ti3 1.981097 1_555
O8 Sr1 2.670419 1_455
O9 Ti9 1.875390 1_555
O9 Ti2 1.981097 1_555
O9 Sr0 2.670419 1_655
O10 Ti10 1.875390 1_555
O10 Ti1 1.981097 1_554
O10 Sr3 2.670419 1_655
O11 Ti9 1.875390 1_555
O11 Ti2 1.981097 1_555
O11 Sr0 2.670419 1_555
O12 Ti11 1.875390 1_555
O12 Ti0 1.981097 1_556
O12 Sr2 2.670419 1_455
O13 Ti8 1.875390 1_555
O13 Ti3 1.981097 1_555
O13 Sr1 2.670419 1_555
O14 Ti11 1.875390 1_555
O14 Ti0 1.981097 1_556
O14 Sr2 2.670419 1_555
O15 Ti10 1.875390 1_555
O15 Ti1 1.981097 1_554
O15 Sr3 2.670419 1_555
O16 Ti8 2.012454 1_565
O17 Ti9 2.012454 1_545
O18 Ti10 2.012454 1_555
O19 Ti11 2.012454 1_555
O20 Ti0 1.968658 1_555
O20 Ti6 2.096528 1_555
O20 Sr2 2.981627 1_554
O20 Sr3 3.131047 1_545
O21 Ti1 1.968658 1_555
O21 Ti7 2.096528 1_555
O21 Sr3 2.981627 1_556
O21 Sr2 3.131047 1_565
O22 Ti2 1.968658 1_555
O22 Ti4 2.096528 1_555
O22 Sr0 2.981627 1_555
O22 Sr1 3.131047 1_555
O23 Ti1 1.968658 1_455
O23 Ti7 2.096528 1_555
O23 Sr3 2.981627 1_556
O23 Sr2 3.131047 1_465
O24 Ti3 1.968658 1_555
O24 Ti5 2.096528 1_555
O24 Sr1 2.981627 1_555
O24 Sr0 3.131047 1_555
O25 Ti0 1.968658 1_655
O25 Ti6 2.096528 1_555
O25 Sr2 2.981627 1_554
O25 Sr3 3.131047 1_645
O26 Ti3 1.968658 1_655
O26 Ti5 2.096528 1_555
O26 Sr1 2.981627 1_555
O26 Sr0 3.131047 1_655
O27 Ti2 1.968658 1_455
O27 Ti4 2.096528 1_555
O27 Sr0 2.981627 1_555
O27 Sr1 3.131047 1_455
O28 Ti4 2.054927 1_555
O28 Sr3 2.732125 1_555
O29 Ti5 2.054927 1_555
O29 Sr2 2.732125 1_555
O30 Ti6 2.054927 1_555
O30 Sr1 2.732125 1_555
O31 Ti7 2.054927 1_555
O31 Sr0 2.732125 1_555
O32 Ti8 1.892536 1_555
O33 Ti9 1.892536 1_555
O34 Ti10 1.892536 1_555
O35 Ti11 1.892536 1_555
O36 Ti6 1.923948 1_565
O36 Ti8 2.193173 1_665
O36 Sr3 2.721135 1_655
O37 Ti7 1.923948 1_545
O37 Ti9 2.193173 1_445
O37 Sr2 2.721135 1_455
O38 Ti4 1.923948 1_555
O38 Ti10 2.193173 1_455
O38 Sr1 2.721135 1_455
O39 Ti7 1.923948 1_545
O39 Ti9 2.193173 1_545
O39 Sr2 2.721135 1_555
O40 Ti5 1.923948 1_555
O40 Ti11 2.193173 1_655
O40 Sr0 2.721135 1_655
O41 Ti6 1.923948 1_565
O41 Ti8 2.193173 1_565
O41 Sr3 2.721135 1_555
O42 Ti5 1.923948 1_555
O42 Ti11 2.193173 1_555
O42 Sr0 2.721135 1_555
O43 Ti4 1.923948 1_555
O43 Ti10 2.193173 1_555
O43 Sr1 2.721135 1_555
