# generated using pymatgen
data_Dy5Sb3
_symmetry_space_group_name_H-M   'P 1'
_cell_length_a   6.25990800
_cell_length_b   9.02272333
_cell_length_c   9.02359682
_cell_angle_alpha   119.99680383
_cell_angle_beta   90.00000000
_cell_angle_gamma   90.00000000
_symmetry_Int_Tables_number   1
_chemical_formula_structural   Dy5Sb3
_chemical_formula_sum   'Dy10 Sb6'
_cell_volume   441.39752301
_cell_formula_units_Z   2
loop_
 _symmetry_equiv_pos_site_id
 _symmetry_equiv_pos_as_xyz
  1  'x, y, z'
loop_
 _atom_site_type_symbol
 _atom_site_label
 _atom_site_symmetry_multiplicity
 _atom_site_fract_x
 _atom_site_fract_y
 _atom_site_fract_z
 _atom_site_occupancy
  Dy  Dy0  1  0.50000000  0.33332700  0.66666200  1
  Dy  Dy1  1  0.50000000  0.66666500  0.33333800  1
  Dy  Dy2  1  0.00000000  0.66667300  0.33333800  1
  Dy  Dy3  1  0.00000000  0.33333500  0.66666200  1
  Dy  Dy4  1  0.74999700  0.24616000  0.00000000  1
  Dy  Dy5  1  0.75000200  0.75380000  0.75378100  1
  Dy  Dy6  1  0.75000200  0.00001900  0.24621900  1
  Dy  Dy7  1  0.24999700  0.75384000  0.00000000  1
  Dy  Dy8  1  0.25000200  0.24620000  0.24621900  1
  Dy  Dy9  1  0.25000200  0.99998100  0.75378100  1
  Sb  Sb0  1  0.74999700  0.61207800  0.00000000  1
  Sb  Sb1  1  0.75000200  0.38793200  0.38794300  1
  Sb  Sb2  1  0.75000200  0.99998900  0.61205700  1
  Sb  Sb3  1  0.24999700  0.38792200  0.00000000  1
  Sb  Sb4  1  0.25000200  0.61206800  0.61205700  1
  Sb  Sb5  1  0.25000200  0.00001100  0.38794300  1
loop_
_geom_bond_atom_site_label_1
_geom_bond_atom_site_label_2
_geom_bond_distance
_geom_bond_site_symmetry_2
Dy0 Sb2 3.202487 1_545
Dy0 Sb5 3.202510 1_555
Dy0 Sb4 3.202537 1_555
Dy0 Sb1 3.202562 1_555
Dy0 Sb3 3.202785 1_556
Dy0 Sb0 3.202789 1_556
Dy1 Sb1 3.202487 1_555
Dy1 Sb4 3.202511 1_555
Dy1 Sb5 3.202537 1_565
Dy1 Sb2 3.202562 1_555
Dy1 Sb3 3.202785 1_555
Dy1 Sb0 3.202789 1_555
Dy2 Sb5 3.202487 1_565
Dy2 Sb2 3.202510 1_455
Dy2 Sb1 3.202537 1_455
Dy2 Sb4 3.202562 1_555
Dy2 Sb0 3.202785 1_455
Dy2 Sb3 3.202789 1_555
Dy3 Sb4 3.202487 1_555
Dy3 Sb1 3.202511 1_455
Dy3 Sb2 3.202537 1_445
Dy3 Sb5 3.202562 1_555
Dy3 Sb0 3.202785 1_456
Dy3 Sb3 3.202789 1_556
Dy4 Sb2 3.068107 1_544
Dy4 Sb1 3.068107 1_555
Dy4 Sb0 3.301577 1_555
Dy4 Sb3 3.381221 1_555
Dy4 Sb3 3.381221 1_655
Dy5 Sb2 3.067587 1_555
Dy5 Sb0 3.067929 1_556
Dy5 Sb1 3.301310 1_555
Dy5 Sb4 3.381152 1_555
Dy5 Sb4 3.381152 1_655
Dy6 Sb1 3.067586 1_555
Dy6 Sb0 3.067929 1_545
Dy6 Sb2 3.301310 1_545
Dy6 Sb5 3.381152 1_555
Dy6 Sb5 3.381152 1_655
Dy7 Sb5 3.068107 1_565
Dy7 Sb4 3.068107 1_554
Dy7 Sb3 3.301577 1_555
Dy7 Sb0 3.381221 1_455
Dy7 Sb0 3.381221 1_555
Dy8 Sb5 3.067587 1_555
Dy8 Sb3 3.067929 1_555
Dy8 Sb4 3.301310 1_555
Dy8 Sb1 3.381152 1_555
Dy8 Sb1 3.381152 1_455
Dy9 Sb4 3.067586 1_555
Dy9 Sb3 3.067929 1_566
Dy9 Sb5 3.301310 1_565
Dy9 Sb2 3.381152 1_555
Dy9 Sb2 3.381152 1_455
