# generated using pymatgen
data_La3Fe5O12
_symmetry_space_group_name_H-M   'P 1'
_cell_length_a   11.16707715
_cell_length_b   11.16707715
_cell_length_c   11.16707715
_cell_angle_alpha   109.47122063
_cell_angle_beta   109.47122063
_cell_angle_gamma   109.47122063
_symmetry_Int_Tables_number   1
_chemical_formula_structural   La3Fe5O12
_chemical_formula_sum   'La12 Fe20 O48'
_cell_volume   1072.00462537
_cell_formula_units_Z   4
loop_
 _symmetry_equiv_pos_site_id
 _symmetry_equiv_pos_as_xyz
  1  'x, y, z'
loop_
 _atom_site_type_symbol
 _atom_site_label
 _atom_site_symmetry_multiplicity
 _atom_site_fract_x
 _atom_site_fract_y
 _atom_site_fract_z
 _atom_site_occupancy
  La  La0  1  0.25000000  0.37500000  0.12500000  1
  La  La1  1  0.75000000  0.62500000  0.87500000  1
  La  La2  1  0.75000000  0.12500000  0.37500000  1
  La  La3  1  0.12500000  0.25000000  0.37500000  1
  La  La4  1  0.37500000  0.75000000  0.12500000  1
  La  La5  1  0.25000000  0.87500000  0.62500000  1
  La  La6  1  0.87500000  0.75000000  0.62500000  1
  La  La7  1  0.62500000  0.25000000  0.87500000  1
  La  La8  1  0.37500000  0.12500000  0.25000000  1
  La  La9  1  0.62500000  0.87500000  0.75000000  1
  La  La10  1  0.12500000  0.37500000  0.75000000  1
  La  La11  1  0.87500000  0.62500000  0.25000000  1
  Fe  Fe0  1  0.25000000  0.62500000  0.37500000  1
  Fe  Fe1  1  0.75000000  0.37500000  0.62500000  1
  Fe  Fe2  1  0.75000000  0.87500000  0.12500000  1
  Fe  Fe3  1  0.37500000  0.25000000  0.62500000  1
  Fe  Fe4  1  0.62500000  0.75000000  0.37500000  1
  Fe  Fe5  1  0.25000000  0.12500000  0.87500000  1
  Fe  Fe6  1  0.12500000  0.75000000  0.87500000  1
  Fe  Fe7  1  0.87500000  0.25000000  0.12500000  1
  Fe  Fe8  1  0.62500000  0.37500000  0.25000000  1
  Fe  Fe9  1  0.37500000  0.62500000  0.75000000  1
  Fe  Fe10  1  0.87500000  0.12500000  0.75000000  1
  Fe  Fe11  1  0.12500000  0.87500000  0.25000000  1
  Fe  Fe12  1  0.00000000  0.00000000  0.00000000  1
  Fe  Fe13  1  0.50000000  0.00000000  0.50000000  1
  Fe  Fe14  1  0.00000000  0.50000000  0.50000000  1
  Fe  Fe15  1  0.50000000  0.00000000  0.00000000  1
  Fe  Fe16  1  0.50000000  0.50000000  0.00000000  1
  Fe  Fe17  1  0.50000000  0.50000000  0.50000000  1
  Fe  Fe18  1  0.00000000  0.00000000  0.50000000  1
  Fe  Fe19  1  0.00000000  0.50000000  0.00000000  1
  O  O0  1  0.47737800  0.38013800  0.29901300  1
  O  O1  1  0.52262200  0.61986200  0.70098700  1
  O  O2  1  0.58112500  0.17836500  0.20098700  1
  O  O3  1  0.91887500  0.11986200  0.59724000  1
  O  O4  1  0.29901300  0.47737800  0.38013800  1
  O  O5  1  0.32163500  0.91887500  0.29901300  1
  O  O6  1  0.41887500  0.82163500  0.79901300  1
  O  O7  1  0.08112500  0.88013800  0.40276000  1
  O  O8  1  0.70098700  0.52262200  0.61986200  1
  O  O9  1  0.67836500  0.08112500  0.70098700  1
  O  O10  1  0.02262200  0.32163500  0.90276000  1
  O  O11  1  0.20098700  0.58112500  0.17836500  1
  O  O12  1  0.11986200  0.02262200  0.20098700  1
  O  O13  1  0.97737800  0.67836500  0.09724000  1
  O  O14  1  0.79901300  0.41887500  0.82163500  1
  O  O15  1  0.88013800  0.97737800  0.79901300  1
  O  O16  1  0.59724000  0.91887500  0.11986200  1
  O  O17  1  0.17836500  0.47737800  0.59724000  1
  O  O18  1  0.40276000  0.08112500  0.88013800  1
  O  O19  1  0.82163500  0.52262200  0.40276000  1
  O  O20  1  0.90276000  0.02262200  0.32163500  1
  O  O21  1  0.38013800  0.58112500  0.90276000  1
  O  O22  1  0.09724000  0.97737800  0.67836500  1
  O  O23  1  0.61986200  0.41887500  0.09724000  1
  O  O24  1  0.38013800  0.29901300  0.47737800  1
  O  O25  1  0.58112500  0.90276000  0.38013800  1
  O  O26  1  0.61986200  0.70098700  0.52262200  1
  O  O27  1  0.41887500  0.09724000  0.61986200  1
  O  O28  1  0.11986200  0.59724000  0.91887500  1
  O  O29  1  0.02262200  0.20098700  0.11986200  1
  O  O30  1  0.88013800  0.40276000  0.08112500  1
  O  O31  1  0.97737800  0.79901300  0.88013800  1
  O  O32  1  0.32163500  0.90276000  0.02262200  1
  O  O33  1  0.91887500  0.29901300  0.32163500  1
  O  O34  1  0.67836500  0.09724000  0.97737800  1
  O  O35  1  0.08112500  0.70098700  0.67836500  1
  O  O36  1  0.17836500  0.20098700  0.58112500  1
  O  O37  1  0.47737800  0.59724000  0.17836500  1
  O  O38  1  0.82163500  0.79901300  0.41887500  1
  O  O39  1  0.52262200  0.40276000  0.82163500  1
  O  O40  1  0.29901300  0.32163500  0.91887500  1
  O  O41  1  0.70098700  0.67836500  0.08112500  1
  O  O42  1  0.20098700  0.11986200  0.02262200  1
  O  O43  1  0.79901300  0.88013800  0.97737800  1
  O  O44  1  0.90276000  0.38013800  0.58112500  1
  O  O45  1  0.09724000  0.61986200  0.41887500  1
  O  O46  1  0.59724000  0.17836500  0.47737800  1
  O  O47  1  0.40276000  0.82163500  0.52262200  1
loop_
_geom_bond_atom_site_label_1
_geom_bond_atom_site_label_2
_geom_bond_distance
_geom_bond_site_symmetry_2
La0 O4 2.468992 1_555
La0 O42 2.468992 1_555
La0 O11 2.468992 1_555
La0 O40 2.468992 1_554
La0 O0 2.601113 1_555
La0 O37 2.601113 1_555
La0 O10 2.601113 1_554
La0 O29 2.601113 1_555
La1 O8 2.468992 1_555
La1 O43 2.468992 1_555
La1 O14 2.468992 1_555
La1 O41 2.468992 1_556
La1 O13 2.601113 1_556
La1 O39 2.601113 1_555
La1 O31 2.601113 1_555
La1 O1 2.601113 1_555
La2 O46 2.468992 1_555
La2 O16 2.468992 1_545
La2 O44 2.468992 1_555
La2 O20 2.468992 1_555
La2 O25 2.601113 1_545
La2 O2 2.601113 1_555
La2 O33 2.601113 1_555
La2 O3 2.601113 1_555
La3 O29 2.468992 1_555
La3 O33 2.468992 1_455
La3 O24 2.468992 1_555
La3 O36 2.468992 1_555
La3 O4 2.601113 1_555
La3 O17 2.601113 1_555
La3 O20 2.601113 1_455
La3 O12 2.601113 1_555
La4 O37 2.468992 1_555
La4 O25 2.468992 1_555
La4 O28 2.468992 1_554
La4 O32 2.468992 1_555
La4 O21 2.601113 1_554
La4 O11 2.601113 1_555
La4 O5 2.601113 1_555
La4 O16 2.601113 1_555
La5 O22 2.468992 1_555
La5 O45 2.468992 1_555
La5 O47 2.468992 1_555
La5 O18 2.468992 1_565
La5 O7 2.601113 1_555
La5 O27 2.601113 1_565
La5 O6 2.601113 1_555
La5 O35 2.601113 1_555
La6 O26 2.468992 1_555
La6 O31 2.468992 1_555
La6 O38 2.468992 1_555
La6 O35 2.468992 1_655
La6 O22 2.601113 1_655
La6 O15 2.601113 1_555
La6 O19 2.601113 1_555
La6 O8 2.601113 1_555
La7 O39 2.468992 1_555
La7 O27 2.468992 1_555
La7 O34 2.468992 1_555
La7 O30 2.468992 1_556
La7 O23 2.601113 1_556
La7 O18 2.601113 1_555
La7 O14 2.601113 1_555
La7 O9 2.601113 1_555
La8 O2 2.468992 1_555
La8 O5 2.468992 1_545
La8 O12 2.468992 1_555
La8 O0 2.468992 1_555
La8 O24 2.601113 1_555
La8 O46 2.601113 1_555
La8 O32 2.601113 1_545
La8 O42 2.601113 1_555
La9 O1 2.468992 1_555
La9 O6 2.468992 1_555
La9 O15 2.468992 1_555
La9 O9 2.468992 1_565
La9 O43 2.601113 1_555
La9 O34 2.601113 1_565
La9 O47 2.601113 1_555
La9 O26 2.601113 1_555
La10 O17 2.468992 1_555
La10 O3 2.468992 1_455
La10 O21 2.468992 1_555
La10 O10 2.468992 1_555
La10 O44 2.601113 1_455
La10 O40 2.601113 1_555
La10 O36 2.601113 1_555
La10 O28 2.601113 1_555
La11 O19 2.468992 1_555
La11 O23 2.468992 1_555
La11 O13 2.468992 1_555
La11 O7 2.468992 1_655
La11 O38 2.601113 1_555
La11 O30 2.601113 1_555
La11 O45 2.601113 1_655
La11 O41 2.601113 1_555
Fe0 O11 1.914178 1_555
Fe0 O47 1.914178 1_555
Fe0 O45 1.914178 1_555
Fe0 O4 1.914178 1_555
Fe1 O14 1.914178 1_555
Fe1 O44 1.914178 1_555
Fe1 O46 1.914178 1_555
Fe1 O8 1.914178 1_555
Fe2 O41 1.914178 1_555
Fe2 O16 1.914178 1_555
Fe2 O43 1.914178 1_554
Fe2 O20 1.914178 1_565
Fe3 O36 1.914178 1_555
Fe3 O27 1.914178 1_555
Fe3 O39 1.914178 1_555
Fe3 O24 1.914178 1_555
Fe4 O38 1.914178 1_555
Fe4 O25 1.914178 1_555
Fe4 O37 1.914178 1_555
Fe4 O26 1.914178 1_555
Fe5 O42 1.914178 1_556
Fe5 O40 1.914178 1_555
Fe5 O22 1.914178 1_545
Fe5 O18 1.914178 1_555
Fe6 O35 1.914178 1_555
Fe6 O28 1.914178 1_555
Fe6 O31 1.914178 1_455
Fe6 O32 1.914178 1_556
Fe7 O29 1.914178 1_655
Fe7 O30 1.914178 1_555
Fe7 O33 1.914178 1_555
Fe7 O34 1.914178 1_554
Fe8 O2 1.914178 1_555
Fe8 O19 1.914178 1_555
Fe8 O23 1.914178 1_555
Fe8 O0 1.914178 1_555
Fe9 O6 1.914178 1_555
Fe9 O21 1.914178 1_555
Fe9 O17 1.914178 1_555
Fe9 O1 1.914178 1_555
Fe10 O9 1.914178 1_555
Fe10 O3 1.914178 1_555
Fe10 O10 1.914178 1_655
Fe10 O15 1.914178 1_545
Fe11 O12 1.914178 1_565
Fe11 O7 1.914178 1_555
Fe11 O13 1.914178 1_455
Fe11 O5 1.914178 1_555
Fe12 O42 2.070435 1_555
Fe12 O12 2.070435 1_555
Fe12 O29 2.070435 1_555
Fe12 O31 2.070435 1_444
Fe12 O15 2.070435 1_444
Fe12 O43 2.070435 1_444
Fe13 O9 2.070435 1_555
Fe13 O25 2.070435 1_545
Fe13 O27 2.070435 1_555
Fe13 O47 2.070435 1_545
Fe13 O5 2.070435 1_545
Fe13 O46 2.070435 1_555
Fe14 O35 2.070435 1_555
Fe14 O44 2.070435 1_455
Fe14 O33 2.070435 1_455
Fe14 O19 2.070435 1_455
Fe14 O45 2.070435 1_555
Fe14 O17 2.070435 1_555
Fe15 O32 2.070435 1_545
Fe15 O34 2.070435 1_554
Fe15 O6 2.070435 1_544
Fe15 O2 2.070435 1_555
Fe15 O18 2.070435 1_554
Fe15 O16 2.070435 1_545
Fe16 O41 2.070435 1_555
Fe16 O21 2.070435 1_554
Fe16 O23 2.070435 1_555
Fe16 O39 2.070435 1_554
Fe16 O40 2.070435 1_554
Fe16 O37 2.070435 1_555
Fe17 O26 2.070435 1_555
Fe17 O1 2.070435 1_555
Fe17 O8 2.070435 1_555
Fe17 O0 2.070435 1_555
Fe17 O4 2.070435 1_555
Fe17 O24 2.070435 1_555
Fe18 O20 2.070435 1_455
Fe18 O36 2.070435 1_555
Fe18 O22 2.070435 1_545
Fe18 O7 2.070435 1_545
Fe18 O38 2.070435 1_445
Fe18 O3 2.070435 1_455
Fe19 O10 2.070435 1_554
Fe19 O11 2.070435 1_555
Fe19 O28 2.070435 1_554
Fe19 O13 2.070435 1_455
Fe19 O14 2.070435 1_454
Fe19 O30 2.070435 1_455
