# generated using pymatgen
data_Zr3Fe2Si3
_symmetry_space_group_name_H-M   'P 1'
_cell_length_a   5.40316381
_cell_length_b   5.40316381
_cell_length_c   12.97724500
_cell_angle_alpha   90.00000000
_cell_angle_beta   90.00000000
_cell_angle_gamma   138.11953014
_symmetry_Int_Tables_number   1
_chemical_formula_structural   Zr3Fe2Si3
_chemical_formula_sum   'Zr6 Fe4 Si6'
_cell_volume   252.91891701
_cell_formula_units_Z   2
loop_
 _symmetry_equiv_pos_site_id
 _symmetry_equiv_pos_as_xyz
  1  'x, y, z'
loop_
 _atom_site_type_symbol
 _atom_site_label
 _atom_site_symmetry_multiplicity
 _atom_site_fract_x
 _atom_site_fract_y
 _atom_site_fract_z
 _atom_site_occupancy
  Zr  Zr0  1  0.92337400  0.07662600  0.38627300  1
  Zr  Zr1  1  0.07662600  0.92337400  0.61372700  1
  Zr  Zr2  1  0.92337400  0.07662600  0.11372700  1
  Zr  Zr3  1  0.07662600  0.92337400  0.88627300  1
  Zr  Zr4  1  0.63610900  0.36389100  0.25000000  1
  Zr  Zr5  1  0.36389100  0.63610900  0.75000000  1
  Fe  Fe0  1  0.78018300  0.21981700  0.91920800  1
  Fe  Fe1  1  0.21981700  0.78018300  0.08079200  1
  Fe  Fe2  1  0.78018300  0.21981700  0.58079200  1
  Fe  Fe3  1  0.21981700  0.78018300  0.41920800  1
  Si  Si0  1  0.61390700  0.38609300  0.45865100  1
  Si  Si1  1  0.38609300  0.61390700  0.54134900  1
  Si  Si2  1  0.61390700  0.38609300  0.04134900  1
  Si  Si3  1  0.38609300  0.61390700  0.95865100  1
  Si  Si4  1  0.33333900  0.66666100  0.25000000  1
  Si  Si5  1  0.66666100  0.33333900  0.75000000  1
loop_
_geom_bond_atom_site_label_1
_geom_bond_atom_site_label_2
_geom_bond_distance
_geom_bond_site_symmetry_2
Fe0 Si3 2.265734 1_655
Fe0 Si3 2.265734 1_545
Fe0 Si2 2.308379 1_556
Fe0 Si5 2.476788 1_555
Fe0 Zr3 2.851720 1_655
Fe0 Zr3 2.851720 1_545
Fe0 Zr2 2.908731 1_556
Fe0 Zr3 3.022258 1_645
Fe0 Zr5 3.043764 1_655
Fe0 Zr5 3.043764 1_545
Fe1 Si2 2.265734 1_565
Fe1 Si2 2.265734 1_455
Fe1 Si3 2.308379 1_554
Fe1 Si4 2.476788 1_555
Fe1 Zr2 2.851720 1_565
Fe1 Zr2 2.851720 1_455
Fe1 Zr3 2.908731 1_554
Fe1 Zr2 3.022258 1_465
Fe1 Zr4 3.043764 1_565
Fe1 Zr4 3.043764 1_455
Fe2 Si1 2.265734 1_655
Fe2 Si1 2.265734 1_545
Fe2 Si0 2.308379 1_555
Fe2 Si5 2.476788 1_555
Fe2 Zr1 2.851720 1_655
Fe2 Zr1 2.851720 1_545
Fe2 Zr0 2.908731 1_555
Fe2 Zr1 3.022258 1_645
Fe2 Zr5 3.043764 1_655
Fe2 Zr5 3.043764 1_545
Fe3 Si0 2.265734 1_565
Fe3 Si0 2.265734 1_455
Fe3 Si1 2.308379 1_555
Fe3 Si4 2.476788 1_555
Fe3 Zr0 2.851720 1_565
Fe3 Zr0 2.851720 1_455
Fe3 Zr1 2.908731 1_555
Fe3 Zr0 3.022258 1_465
Fe3 Zr4 3.043764 1_565
Fe3 Zr4 3.043764 1_455
Si0 Si1 2.537368 1_555
Si0 Zr4 2.716971 1_555
Si0 Zr1 2.814347 1_545
Si0 Zr1 2.814347 1_655
Si0 Zr0 2.882541 1_455
Si0 Zr0 2.882541 1_565
Si1 Zr5 2.716971 1_555
Si1 Zr0 2.814347 1_455
Si1 Zr0 2.814347 1_565
Si1 Zr1 2.882541 1_545
Si1 Zr1 2.882541 1_655
Si2 Si3 2.537368 1_554
Si2 Zr4 2.716971 1_555
Si2 Zr3 2.814347 1_544
Si2 Zr3 2.814347 1_654
Si2 Zr2 2.882541 1_455
Si2 Zr2 2.882541 1_565
Si3 Zr5 2.716971 1_555
Si3 Zr2 2.814347 1_566
Si3 Zr2 2.814347 1_456
Si3 Zr3 2.882541 1_545
Si3 Zr3 2.882541 1_655
Si4 Zr0 2.771662 1_565
Si4 Zr2 2.771662 1_565
Si4 Zr0 2.771662 1_455
Si4 Zr2 2.771662 1_455
Si4 Zr4 2.773326 1_565
Si4 Zr4 2.773326 1_455
Si4 Zr4 3.055740 1_555
Si5 Zr3 2.771662 1_655
Si5 Zr1 2.771662 1_655
Si5 Zr3 2.771662 1_545
Si5 Zr1 2.771662 1_545
Si5 Zr5 2.773326 1_655
Si5 Zr5 2.773326 1_545
Si5 Zr5 3.055740 1_555
