# generated using pymatgen
data_Mo2WSe6
_symmetry_space_group_name_H-M   'P 1'
_cell_length_a   3.32327066
_cell_length_b   3.32327066
_cell_length_c   30.71640600
_cell_angle_alpha   90.00000000
_cell_angle_beta   90.00000000
_cell_angle_gamma   120.00001304
_symmetry_Int_Tables_number   1
_chemical_formula_structural   Mo2WSe6
_chemical_formula_sum   'Mo2 W1 Se6'
_cell_volume   293.78688153
_cell_formula_units_Z   1
loop_
 _symmetry_equiv_pos_site_id
 _symmetry_equiv_pos_as_xyz
  1  'x, y, z'
loop_
 _atom_site_type_symbol
 _atom_site_label
 _atom_site_symmetry_multiplicity
 _atom_site_fract_x
 _atom_site_fract_y
 _atom_site_fract_z
 _atom_site_occupancy
  Mo  Mo0  1  0.33333300  0.66666700  0.76865900  1
  Mo  Mo1  1  0.33333300  0.66666700  0.23134100  1
  W  W0  1  0.66666700  0.33333300  0.00000000  1
  Se  Se0  1  0.33333300  0.66666700  0.05483800  1
  Se  Se1  1  0.66666700  0.33333300  0.71410400  1
  Se  Se2  1  0.66666700  0.33333300  0.17677500  1
  Se  Se3  1  0.66666700  0.33333300  0.82322500  1
  Se  Se4  1  0.66666700  0.33333300  0.28589600  1
  Se  Se5  1  0.33333300  0.66666700  0.94516200  1
loop_
_geom_bond_atom_site_label_1
_geom_bond_atom_site_label_2
_geom_bond_distance
_geom_bond_site_symmetry_2
Mo0 Se1 2.547440 1_455
Mo0 Se1 2.547440 1_565
Mo0 Se1 2.547445 1_555
Mo0 Se3 2.547662 1_455
Mo0 Se3 2.547662 1_565
Mo0 Se3 2.547667 1_555
Mo1 Se4 2.547440 1_455
Mo1 Se4 2.547440 1_565
Mo1 Se4 2.547445 1_555
Mo1 Se2 2.547662 1_455
Mo1 Se2 2.547662 1_565
Mo1 Se2 2.547667 1_555
Se0 W0 2.553167 1_455
Se0 W0 2.553167 1_565
Se0 W0 2.553171 1_555
Se5 W0 2.553167 1_456
Se5 W0 2.553167 1_566
Se5 W0 2.553171 1_556
