# generated using pymatgen
data_KRbMg30O31
_symmetry_space_group_name_H-M   'P 1'
_cell_length_a   8.74022500
_cell_length_b   8.74022500
_cell_length_c   8.59346600
_cell_angle_alpha   90.00000000
_cell_angle_beta   90.00000000
_cell_angle_gamma   90.00000000
_symmetry_Int_Tables_number   1
_chemical_formula_structural   KRbMg30O31
_chemical_formula_sum   'K1 Rb1 Mg30 O31'
_cell_volume   656.46804196
_cell_formula_units_Z   1
loop_
 _symmetry_equiv_pos_site_id
 _symmetry_equiv_pos_as_xyz
  1  'x, y, z'
loop_
 _atom_site_type_symbol
 _atom_site_label
 _atom_site_symmetry_multiplicity
 _atom_site_fract_x
 _atom_site_fract_y
 _atom_site_fract_z
 _atom_site_occupancy
  K  K0  1  0.00000000  0.00000000  0.06011100  1
  Rb  Rb0  1  0.50000000  0.50000000  0.99463600  1
  Mg  Mg0  1  0.50000000  0.00000000  0.98979600  1
  Mg  Mg1  1  0.00000000  0.50000000  0.98979600  1
  Mg  Mg2  1  0.00000000  0.00000000  0.52089100  1
  Mg  Mg3  1  0.50000000  0.00000000  0.50352000  1
  Mg  Mg4  1  0.00000000  0.50000000  0.50352000  1
  Mg  Mg5  1  0.50000000  0.50000000  0.49786100  1
  Mg  Mg6  1  0.24867300  0.24867300  0.99807200  1
  Mg  Mg7  1  0.75132700  0.24867300  0.99807200  1
  Mg  Mg8  1  0.24867300  0.75132700  0.99807200  1
  Mg  Mg9  1  0.75132700  0.75132700  0.99807200  1
  Mg  Mg10  1  0.24785400  0.24785400  0.49893300  1
  Mg  Mg11  1  0.75214600  0.24785400  0.49893300  1
  Mg  Mg12  1  0.24785400  0.75214600  0.49893300  1
  Mg  Mg13  1  0.75214600  0.75214600  0.49893300  1
  Mg  Mg14  1  0.27941500  0.00000000  0.24743300  1
  Mg  Mg15  1  0.72058500  0.00000000  0.24743300  1
  Mg  Mg16  1  0.25033200  0.50000000  0.25009700  1
  Mg  Mg17  1  0.74966800  0.50000000  0.25009700  1
  Mg  Mg18  1  0.24748400  0.00000000  0.75760600  1
  Mg  Mg19  1  0.75251600  0.00000000  0.75760600  1
  Mg  Mg20  1  0.24761800  0.50000000  0.74515700  1
  Mg  Mg21  1  0.75238200  0.50000000  0.74515700  1
  Mg  Mg22  1  0.00000000  0.27941500  0.24743300  1
  Mg  Mg23  1  0.50000000  0.25033200  0.25009700  1
  Mg  Mg24  1  0.00000000  0.72058500  0.24743300  1
  Mg  Mg25  1  0.50000000  0.74966800  0.25009700  1
  Mg  Mg26  1  0.00000000  0.24748400  0.75760600  1
  Mg  Mg27  1  0.50000000  0.24761800  0.74515700  1
  Mg  Mg28  1  0.00000000  0.75251600  0.75760600  1
  Mg  Mg29  1  0.50000000  0.75238200  0.74515700  1
  O  O0  1  0.50000000  0.00000000  0.26222200  1
  O  O1  1  0.00000000  0.50000000  0.26222200  1
  O  O2  1  0.50000000  0.50000000  0.27609600  1
  O  O3  1  0.00000000  0.00000000  0.74883400  1
  O  O4  1  0.50000000  0.00000000  0.73997600  1
  O  O5  1  0.00000000  0.50000000  0.73997600  1
  O  O6  1  0.50000000  0.50000000  0.71718400  1
  O  O7  1  0.24247200  0.24247200  0.24843600  1
  O  O8  1  0.75752800  0.24247200  0.24843600  1
  O  O9  1  0.24247200  0.75752800  0.24843600  1
  O  O10  1  0.75752800  0.75752800  0.24843600  1
  O  O11  1  0.24900900  0.24900900  0.74813500  1
  O  O12  1  0.75099100  0.24900900  0.74813500  1
  O  O13  1  0.24900900  0.75099100  0.74813500  1
  O  O14  1  0.75099100  0.75099100  0.74813500  1
  O  O15  1  0.26661400  0.00000000  0.00190300  1
  O  O16  1  0.73338600  0.00000000  0.00190300  1
  O  O17  1  0.22284500  0.50000000  0.00275300  1
  O  O18  1  0.77715500  0.50000000  0.00275300  1
  O  O19  1  0.24100000  0.00000000  0.49121000  1
  O  O20  1  0.75900000  0.00000000  0.49121000  1
  O  O21  1  0.24299900  0.50000000  0.49610700  1
  O  O22  1  0.75700100  0.50000000  0.49610700  1
  O  O23  1  0.00000000  0.26661400  0.00190300  1
  O  O24  1  0.50000000  0.22284500  0.00275300  1
  O  O25  1  0.00000000  0.73338600  0.00190300  1
  O  O26  1  0.50000000  0.77715500  0.00275300  1
  O  O27  1  0.00000000  0.24100000  0.49121000  1
  O  O28  1  0.50000000  0.24299900  0.49610700  1
  O  O29  1  0.00000000  0.75900000  0.49121000  1
  O  O30  1  0.50000000  0.75700100  0.49610700  1
loop_
_geom_bond_atom_site_label_1
_geom_bond_atom_site_label_2
_geom_bond_distance
_geom_bond_site_symmetry_2
K0 O15 2.383348 1_555
K0 O23 2.383348 1_555
K0 O16 2.383348 1_455
K0 O25 2.383348 1_545
K0 O3 2.674948 1_554
Mg0 O24 1.950896 1_556
Mg0 O26 1.950896 1_546
Mg0 O16 2.042498 1_556
Mg0 O15 2.042498 1_556
Mg0 O4 2.146820 1_555
Mg0 O0 2.341084 1_556
Mg1 O17 1.950896 1_556
Mg1 O18 1.950896 1_456
Mg1 O25 2.042498 1_556
Mg1 O23 2.042498 1_556
Mg1 O5 2.146820 1_555
Mg1 O1 2.341084 1_556
Mg2 O3 1.958820 1_555
Mg2 O19 2.121781 1_555
Mg2 O29 2.121781 1_545
Mg2 O20 2.121781 1_455
Mg2 O27 2.121781 1_555
Mg3 O4 2.031977 1_555
Mg3 O0 2.073586 1_555
Mg3 O28 2.124821 1_555
Mg3 O30 2.124821 1_545
Mg3 O19 2.266189 1_555
Mg3 O20 2.266189 1_555
Mg4 O5 2.031977 1_555
Mg4 O1 2.073586 1_555
Mg4 O21 2.124821 1_555
Mg4 O22 2.124821 1_455
Mg4 O27 2.266189 1_555
Mg4 O29 2.266189 1_555
Mg5 O6 1.884745 1_555
Mg5 O2 1.905730 1_555
Mg5 O30 2.246297 1_555
Mg5 O22 2.246297 1_555
Mg5 O21 2.246297 1_555
Mg5 O28 2.246297 1_555
Mg6 O11 2.147829 1_555
Mg6 O7 2.152859 1_556
Mg6 O23 2.179356 1_556
Mg6 O15 2.179356 1_556
Mg6 O17 2.208590 1_556
Mg6 O24 2.208590 1_556
Mg7 O12 2.147829 1_555
Mg7 O8 2.152859 1_556
Mg7 O16 2.179356 1_556
Mg7 O23 2.179356 1_656
Mg7 O24 2.208590 1_556
Mg7 O18 2.208590 1_556
Mg8 O13 2.147829 1_555
Mg8 O9 2.152859 1_556
Mg8 O25 2.179356 1_556
Mg8 O15 2.179356 1_566
Mg8 O17 2.208590 1_556
Mg8 O26 2.208590 1_556
Mg9 O14 2.147829 1_555
Mg9 O10 2.152859 1_556
Mg9 O16 2.179356 1_566
Mg9 O25 2.179356 1_656
Mg9 O26 2.208590 1_556
Mg9 O18 2.208590 1_556
Mg10 O11 2.141557 1_555
Mg10 O7 2.153665 1_555
Mg10 O19 2.168144 1_555
Mg10 O27 2.168144 1_555
Mg10 O28 2.204355 1_555
Mg10 O21 2.204355 1_555
Mg11 O12 2.141557 1_555
Mg11 O8 2.153665 1_555
Mg11 O27 2.168144 1_655
Mg11 O20 2.168144 1_555
Mg11 O28 2.204355 1_555
Mg11 O22 2.204355 1_555
Mg12 O13 2.141557 1_555
Mg12 O9 2.153665 1_555
Mg12 O19 2.168144 1_565
Mg12 O29 2.168144 1_555
Mg12 O30 2.204355 1_555
Mg12 O21 2.204355 1_555
Mg13 O14 2.141557 1_555
Mg13 O10 2.153665 1_555
Mg13 O29 2.168144 1_655
Mg13 O20 2.168144 1_565
Mg13 O22 2.204355 1_555
Mg13 O30 2.204355 1_555
Mg14 O0 1.932147 1_555
Mg14 O15 2.112918 1_555
Mg14 O19 2.121625 1_555
Mg14 O7 2.143734 1_555
Mg14 O9 2.143734 1_545
Mg15 O0 1.932147 1_555
Mg15 O16 2.112918 1_555
Mg15 O20 2.121625 1_555
Mg15 O8 2.143734 1_555
Mg15 O10 2.143734 1_545
Mg16 O21 2.115050 1_555
Mg16 O17 2.139076 1_555
Mg16 O1 2.190438 1_555
Mg16 O2 2.193562 1_555
Mg16 O9 2.251946 1_555
Mg16 O7 2.251946 1_555
Mg17 O22 2.115050 1_555
Mg17 O18 2.139076 1_555
Mg17 O1 2.190438 1_655
Mg17 O2 2.193562 1_555
Mg17 O8 2.251946 1_555
Mg17 O10 2.251946 1_555
Mg18 O15 2.106006 1_556
Mg18 O3 2.164379 1_555
Mg18 O11 2.177957 1_555
Mg18 O13 2.177957 1_545
Mg18 O4 2.212241 1_555
Mg18 O19 2.289966 1_555
Mg19 O16 2.106006 1_556
Mg19 O3 2.164379 1_655
Mg19 O12 2.177957 1_555
Mg19 O14 2.177957 1_545
Mg19 O4 2.212241 1_555
Mg19 O20 2.289966 1_555
Mg20 O21 2.140583 1_555
Mg20 O5 2.164695 1_555
Mg20 O13 2.193901 1_555
Mg20 O11 2.193901 1_555
Mg20 O6 2.218935 1_555
Mg20 O17 2.224207 1_556
Mg21 O22 2.140583 1_555
Mg21 O5 2.164695 1_655
Mg21 O14 2.193901 1_555
Mg21 O12 2.193901 1_555
Mg21 O6 2.218935 1_555
Mg21 O18 2.224207 1_556
Mg22 O1 1.932147 1_555
Mg22 O23 2.112918 1_555
Mg22 O27 2.121625 1_555
Mg22 O7 2.143734 1_555
Mg22 O8 2.143734 1_455
Mg23 O28 2.115050 1_555
Mg23 O24 2.139076 1_555
Mg23 O0 2.190438 1_555
Mg23 O2 2.193562 1_555
Mg23 O8 2.251946 1_555
Mg23 O7 2.251946 1_555
Mg24 O1 1.932147 1_555
Mg24 O25 2.112918 1_555
Mg24 O29 2.121625 1_555
Mg24 O9 2.143734 1_555
Mg24 O10 2.143734 1_455
Mg25 O30 2.115050 1_555
Mg25 O26 2.139076 1_555
Mg25 O0 2.190438 1_565
Mg25 O2 2.193562 1_555
Mg25 O9 2.251946 1_555
Mg25 O10 2.251946 1_555
Mg26 O23 2.106006 1_556
Mg26 O3 2.164379 1_555
Mg26 O11 2.177957 1_555
Mg26 O12 2.177957 1_455
Mg26 O5 2.212241 1_555
Mg26 O27 2.289966 1_555
Mg27 O28 2.140583 1_555
Mg27 O4 2.164695 1_555
Mg27 O12 2.193901 1_555
Mg27 O11 2.193901 1_555
Mg27 O6 2.218935 1_555
Mg27 O24 2.224207 1_556
Mg28 O25 2.106006 1_556
Mg28 O3 2.164379 1_565
Mg28 O13 2.177957 1_555
Mg28 O14 2.177957 1_455
Mg28 O5 2.212241 1_555
Mg28 O29 2.289966 1_555
Mg29 O30 2.140583 1_555
Mg29 O4 2.164695 1_565
Mg29 O14 2.193901 1_555
Mg29 O13 2.193901 1_555
Mg29 O6 2.218935 1_555
Mg29 O26 2.224207 1_556
O2 Rb0 2.418717 1_554
O6 Rb0 2.384274 1_555
O17 Rb0 2.423401 1_554
O18 Rb0 2.423401 1_554
O24 Rb0 2.423401 1_554
O26 Rb0 2.423401 1_554
