# generated using pymatgen
data_GaH15N5Cl3
_symmetry_space_group_name_H-M   'P 1'
_cell_length_a   6.63608362
_cell_length_b   10.58630079
_cell_length_c   13.36338406
_cell_angle_alpha   90.00000000
_cell_angle_beta   90.00000000
_cell_angle_gamma   90.00000000
_symmetry_Int_Tables_number   1
_chemical_formula_structural   GaH15N5Cl3
_chemical_formula_sum   'Ga4 H60 N20 Cl12'
_cell_volume   938.79880787
_cell_formula_units_Z   4
loop_
 _symmetry_equiv_pos_site_id
 _symmetry_equiv_pos_as_xyz
  1  'x, y, z'
loop_
 _atom_site_type_symbol
 _atom_site_label
 _atom_site_symmetry_multiplicity
 _atom_site_fract_x
 _atom_site_fract_y
 _atom_site_fract_z
 _atom_site_occupancy
  Ga  Ga0  1  0.81662981  0.75000000  0.10274759  1
  Ga  Ga1  1  0.68337019  0.75000000  0.60274759  1
  Ga  Ga2  1  0.18337019  0.25000000  0.89725241  1
  Ga  Ga3  1  0.31662981  0.25000000  0.39725241  1
  H  H0  1  0.00819211  0.75000000  0.27739968  1
  H  H1  1  0.49180789  0.75000000  0.77739968  1
  H  H2  1  0.99180789  0.25000000  0.72260032  1
  H  H3  1  0.50819211  0.25000000  0.22260032  1
  H  H4  1  0.14151136  0.67163303  0.19357023  1
  H  H5  1  0.35848864  0.82836697  0.69357023  1
  H  H6  1  0.85848864  0.17163303  0.80642977  1
  H  H7  1  0.64151136  0.32836697  0.30642977  1
  H  H8  1  0.85848864  0.32836697  0.80642977  1
  H  H9  1  0.64151136  0.17163303  0.30642977  1
  H  H10  1  0.14151136  0.82836697  0.19357023  1
  H  H11  1  0.35848864  0.67163303  0.69357023  1
  H  H12  1  0.43959332  0.75000000  0.02417111  1
  H  H13  1  0.06040668  0.75000000  0.52417111  1
  H  H14  1  0.56040668  0.25000000  0.97582889  1
  H  H15  1  0.93959332  0.25000000  0.47582889  1
  H  H16  1  0.59863124  0.67203435  0.95267725  1
  H  H17  1  0.90136876  0.82796565  0.45267725  1
  H  H18  1  0.40136876  0.17203435  0.04732275  1
  H  H19  1  0.09863124  0.32796565  0.54732275  1
  H  H20  1  0.40136876  0.32796565  0.04732275  1
  H  H21  1  0.09863124  0.17203435  0.54732275  1
  H  H22  1  0.59863124  0.82796565  0.95267725  1
  H  H23  1  0.90136876  0.67203435  0.45267725  1
  H  H24  1  0.64850182  0.75000000  0.28767560  1
  H  H25  1  0.85149818  0.75000000  0.78767560  1
  H  H26  1  0.35149818  0.25000000  0.71232440  1
  H  H27  1  0.14850182  0.25000000  0.21232440  1
  H  H28  1  0.51001534  0.67169968  0.20745205  1
  H  H29  1  0.98998466  0.82830032  0.70745205  1
  H  H30  1  0.48998466  0.17169968  0.79254795  1
  H  H31  1  0.01001534  0.32830032  0.29254795  1
  H  H32  1  0.48998466  0.32830032  0.79254795  1
  H  H33  1  0.01001534  0.17169968  0.29254795  1
  H  H34  1  0.51001534  0.82830032  0.20745205  1
  H  H35  1  0.98998466  0.67169968  0.70745205  1
  H  H36  1  0.78192159  0.51993698  0.03080139  1
  H  H37  1  0.71807841  0.98006302  0.53080139  1
  H  H38  1  0.21807841  0.01993698  0.96919861  1
  H  H39  1  0.28192159  0.48006302  0.46919861  1
  H  H40  1  0.21807841  0.48006302  0.96919861  1
  H  H41  1  0.28192159  0.01993698  0.46919861  1
  H  H42  1  0.78192159  0.98006302  0.03080139  1
  H  H43  1  0.71807841  0.51993698  0.53080139  1
  H  H44  1  0.96533463  0.52034257  0.11321779  1
  H  H45  1  0.53466537  0.97965743  0.61321779  1
  H  H46  1  0.03466537  0.02034257  0.88678221  1
  H  H47  1  0.46533463  0.47965743  0.38678221  1
  H  H48  1  0.03466537  0.47965743  0.88678221  1
  H  H49  1  0.46533463  0.02034257  0.38678221  1
  H  H50  1  0.96533463  0.97965743  0.11321779  1
  H  H51  1  0.53466537  0.52034257  0.61321779  1
  H  H52  1  0.72991744  0.51429012  0.15094067  1
  H  H53  1  0.77008256  0.98570988  0.65094067  1
  H  H54  1  0.27008256  0.01429012  0.84905933  1
  H  H55  1  0.22991744  0.48570988  0.34905933  1
  H  H56  1  0.27008256  0.48570988  0.84905933  1
  H  H57  1  0.22991744  0.01429012  0.34905933  1
  H  H58  1  0.72991744  0.98570988  0.15094067  1
  H  H59  1  0.77008256  0.51429012  0.65094067  1
  N  N0  1  0.05344733  0.75000000  0.20472725  1
  N  N1  1  0.44655267  0.75000000  0.70472725  1
  N  N2  1  0.94655267  0.25000000  0.79527275  1
  N  N3  1  0.55344733  0.25000000  0.29527275  1
  N  N4  1  0.58401585  0.75000000  0.99773317  1
  N  N5  1  0.91598415  0.75000000  0.49773317  1
  N  N6  1  0.41598415  0.25000000  0.00226683  1
  N  N7  1  0.08401585  0.25000000  0.50226683  1
  N  N8  1  0.59967746  0.75000000  0.21541487  1
  N  N9  1  0.90032254  0.75000000  0.71541487  1
  N  N10  1  0.40032254  0.25000000  0.78458513  1
  N  N11  1  0.09967746  0.25000000  0.28458513  1
  N  N12  1  0.82357585  0.55414796  0.09932824  1
  N  N13  1  0.67642415  0.94585204  0.59932824  1
  N  N14  1  0.17642415  0.05414796  0.90067176  1
  N  N15  1  0.32357585  0.44585204  0.40067176  1
  N  N16  1  0.17642415  0.44585204  0.90067176  1
  N  N17  1  0.32357585  0.05414796  0.40067176  1
  N  N18  1  0.82357585  0.94585204  0.09932824  1
  N  N19  1  0.67642415  0.55414796  0.59932824  1
  Cl  Cl0  1  0.05789522  0.75000000  0.96949356  1
  Cl  Cl1  1  0.44210478  0.75000000  0.46949356  1
  Cl  Cl2  1  0.94210478  0.25000000  0.03050644  1
  Cl  Cl3  1  0.55789522  0.25000000  0.53050644  1
  Cl  Cl4  1  0.82873766  0.50395494  0.35049895  1
  Cl  Cl5  1  0.67126234  0.99604506  0.85049895  1
  Cl  Cl6  1  0.17126234  0.00395494  0.64950105  1
  Cl  Cl7  1  0.32873766  0.49604506  0.14950105  1
  Cl  Cl8  1  0.17126234  0.49604506  0.64950105  1
  Cl  Cl9  1  0.32873766  0.00395494  0.14950105  1
  Cl  Cl10  1  0.82873766  0.99604506  0.35049895  1
  Cl  Cl11  1  0.67126234  0.50395494  0.85049895  1
loop_
_geom_bond_atom_site_label_1
_geom_bond_atom_site_label_2
_geom_bond_distance
_geom_bond_site_symmetry_2
Ga0 N18 2.074364 1_555
Ga0 N12 2.074364 1_555
Ga0 N0 2.080131 1_655
Ga0 N8 2.083184 1_555
Ga0 N4 2.086199 1_554
Ga1 N19 2.074364 1_555
Ga1 N13 2.074364 1_555
Ga1 N1 2.080131 1_555
Ga1 N9 2.083184 1_555
Ga1 N5 2.086199 1_555
Ga2 N16 2.074364 1_555
Ga2 N14 2.074364 1_555
Ga2 N2 2.080131 1_455
Ga2 N10 2.083184 1_555
Ga2 N6 2.086199 1_556
Ga3 N17 2.074364 1_555
Ga3 N15 2.074364 1_555
Ga3 N3 2.080131 1_555
Ga3 N11 2.083184 1_555
Ga3 N7 2.086199 1_555
H0 N0 1.016525 1_555
H1 N1 1.016525 1_555
H2 N2 1.016525 1_555
H3 N3 1.016525 1_555
H4 N0 1.025679 1_555
H5 N1 1.025679 1_555
H6 N2 1.025679 1_555
H7 N3 1.025679 1_555
H8 N2 1.025679 1_555
H9 N3 1.025679 1_555
H10 N0 1.025679 1_555
H11 N1 1.025679 1_555
H12 N4 1.021446 1_554
H13 N5 1.021446 1_455
H14 N6 1.021446 1_556
H15 N7 1.021446 1_655
H16 N4 1.026237 1_555
H17 N5 1.026237 1_555
H18 N6 1.026237 1_555
H19 N7 1.026237 1_555
H20 N6 1.026237 1_555
H21 N7 1.026237 1_555
H22 N4 1.026237 1_555
H23 N5 1.026237 1_555
H24 N8 1.018555 1_555
H25 N9 1.018555 1_555
H26 N10 1.018555 1_555
H27 N11 1.018555 1_555
H28 N8 1.025889 1_555
H29 N9 1.025889 1_555
H30 N10 1.025889 1_555
H31 N11 1.025889 1_555
H32 N10 1.025889 1_555
H33 N11 1.025889 1_555
H34 N8 1.025889 1_555
H35 N9 1.025889 1_555
H36 N12 1.022826 1_555
H37 N13 1.022826 1_555
H38 N14 1.022826 1_555
H39 N15 1.022826 1_555
H40 N16 1.022826 1_555
H41 N17 1.022826 1_555
H42 N18 1.022826 1_555
H43 N19 1.022826 1_555
H44 N12 1.023467 1_555
H45 N13 1.023467 1_555
H46 N14 1.023467 1_555
H47 N15 1.023467 1_555
H48 N16 1.023467 1_555
H49 N17 1.023467 1_555
H50 N18 1.023467 1_555
H51 N19 1.023467 1_555
H52 N12 1.019824 1_555
H53 N13 1.019824 1_555
H54 N14 1.019824 1_555
H55 N15 1.019824 1_555
H56 N16 1.019824 1_555
H57 N17 1.019824 1_555
H58 N18 1.019824 1_555
H59 N19 1.019824 1_555
Cl0 Ga0 2.394654 1_456
Cl1 Ga1 2.394654 1_555
Cl2 Ga2 2.394654 1_654
Cl3 Ga3 2.394654 1_555
