# generated using pymatgen
data_Tb11Ge10
_symmetry_space_group_name_H-M   'P 1'
_cell_length_a   11.35561654
_cell_length_b   11.35561654
_cell_length_c   11.35561654
_cell_angle_alpha   122.15512679
_cell_angle_beta   122.15512679
_cell_angle_gamma   86.30605932
_symmetry_Int_Tables_number   1
_chemical_formula_structural   Tb11Ge10
_chemical_formula_sum   'Tb22 Ge20'
_cell_volume   999.43105174
_cell_formula_units_Z   2
loop_
 _symmetry_equiv_pos_site_id
 _symmetry_equiv_pos_as_xyz
  1  'x, y, z'
loop_
 _atom_site_type_symbol
 _atom_site_label
 _atom_site_symmetry_multiplicity
 _atom_site_fract_x
 _atom_site_fract_y
 _atom_site_fract_z
 _atom_site_occupancy
  Tb  Tb0  1  0.80963100  0.06188500  0.25225400  1
  Tb  Tb1  1  0.80963100  0.55737700  0.74774600  1
  Tb  Tb2  1  0.06188500  0.80963100  0.25225400  1
  Tb  Tb3  1  0.55737700  0.80963100  0.74774600  1
  Tb  Tb4  1  0.19036900  0.93811500  0.74774600  1
  Tb  Tb5  1  0.19036900  0.44262300  0.25225400  1
  Tb  Tb6  1  0.93811500  0.19036900  0.74774600  1
  Tb  Tb7  1  0.44262300  0.19036900  0.25225400  1
  Tb  Tb8  1  0.17767000  0.17767000  0.35534000  1
  Tb  Tb9  1  0.82233000  0.82233000  0.64466000  1
  Tb  Tb10  1  0.17767000  0.82233000  0.00000000  1
  Tb  Tb11  1  0.82233000  0.17767000  0.00000000  1
  Tb  Tb12  1  0.65990300  0.65990300  0.00000000  1
  Tb  Tb13  1  0.34009700  0.34009700  0.00000000  1
  Tb  Tb14  1  0.60244800  0.92611300  0.32366500  1
  Tb  Tb15  1  0.60244800  0.27878300  0.67633500  1
  Tb  Tb16  1  0.92611300  0.60244800  0.32366500  1
  Tb  Tb17  1  0.27878300  0.60244800  0.67633500  1
  Tb  Tb18  1  0.39755200  0.07388700  0.67633500  1
  Tb  Tb19  1  0.39755200  0.72121700  0.32366500  1
  Tb  Tb20  1  0.07388700  0.39755200  0.67633500  1
  Tb  Tb21  1  0.72121700  0.39755200  0.32366500  1
  Ge  Ge0  1  0.36124300  0.00000000  0.36124300  1
  Ge  Ge1  1  0.63875700  0.00000000  0.63875700  1
  Ge  Ge2  1  0.00000000  0.63875700  0.63875700  1
  Ge  Ge3  1  0.00000000  0.36124300  0.36124300  1
  Ge  Ge4  1  0.88714800  0.88714800  0.00000000  1
  Ge  Ge5  1  0.11285200  0.11285200  0.00000000  1
  Ge  Ge6  1  0.38057300  0.38057300  0.76114500  1
  Ge  Ge7  1  0.61942700  0.61942700  0.23885500  1
  Ge  Ge8  1  0.38057300  0.61942700  0.00000000  1
  Ge  Ge9  1  0.61942700  0.38057300  0.00000000  1
  Ge  Ge10  1  0.75000000  0.25000000  0.50000000  1
  Ge  Ge11  1  0.25000000  0.75000000  0.50000000  1
  Ge  Ge12  1  0.89170000  0.89170000  0.42011600  1
  Ge  Ge13  1  0.47158400  0.47158400  0.57988400  1
  Ge  Ge14  1  0.89170000  0.47158400  0.00000000  1
  Ge  Ge15  1  0.47158400  0.89170000  0.00000000  1
  Ge  Ge16  1  0.10830000  0.10830000  0.57988400  1
  Ge  Ge17  1  0.52841600  0.52841600  0.42011600  1
  Ge  Ge18  1  0.10830000  0.52841600  0.00000000  1
  Ge  Ge19  1  0.52841600  0.10830000  0.00000000  1
loop_
_geom_bond_atom_site_label_1
_geom_bond_atom_site_label_2
_geom_bond_distance
_geom_bond_site_symmetry_2
Ge0 Tb8 2.806028 1_555
Ge0 Tb10 2.806028 1_545
Ge0 Tb19 2.992531 1_545
Ge0 Tb15 2.992531 1_555
Ge0 Tb18 2.992531 1_555
Ge0 Tb14 2.992531 1_545
Ge0 Tb2 3.373664 1_545
Ge0 Tb7 3.373664 1_555
Ge1 Tb9 2.806028 1_545
Ge1 Tb11 2.806028 1_556
Ge1 Tb15 2.992531 1_555
Ge1 Tb18 2.992531 1_555
Ge1 Tb19 2.992531 1_545
Ge1 Tb14 2.992531 1_545
Ge1 Tb3 3.373664 1_545
Ge1 Tb6 3.373664 1_555
Ge2 Tb9 2.806028 1_455
Ge2 Tb10 2.806028 1_556
Ge2 Tb16 2.992531 1_455
Ge2 Tb17 2.992531 1_555
Ge2 Tb20 2.992531 1_555
Ge2 Tb21 2.992531 1_455
Ge2 Tb1 3.373664 1_455
Ge2 Tb4 3.373664 1_555
Ge3 Tb11 2.806028 1_455
Ge3 Tb8 2.806028 1_555
Ge3 Tb16 2.992531 1_455
Ge3 Tb21 2.992531 1_455
Ge3 Tb20 2.992531 1_555
Ge3 Tb17 2.992531 1_555
Ge3 Tb0 3.373664 1_455
Ge3 Tb5 3.373664 1_555
Ge4 Tb0 3.053891 1_565
Ge4 Tb2 3.053891 1_655
Ge4 Tb3 3.053891 1_554
Ge4 Tb1 3.053891 1_554
Ge4 Tb10 3.333564 1_655
Ge4 Tb11 3.333564 1_565
Ge4 Tb8 3.333564 1_665
Ge4 Tb9 3.333564 1_554
Ge5 Tb5 3.053891 1_555
Ge5 Tb7 3.053891 1_555
Ge5 Tb4 3.053891 1_544
Ge5 Tb6 3.053891 1_454
Ge5 Tb10 3.333564 1_545
Ge5 Tb8 3.333564 1_555
Ge5 Tb9 3.333564 1_444
Ge5 Tb11 3.333564 1_455
Ge6 Ge8 2.623512 1_556
Ge6 Ge9 2.623512 1_556
Ge6 Tb17 3.103906 1_555
Ge6 Tb15 3.103906 1_555
Ge6 Tb20 3.103915 1_555
Ge6 Tb18 3.103915 1_555
Ge6 Tb8 3.151752 1_555
Ge6 Tb12 3.234264 1_556
Ge6 Tb13 3.234277 1_556
Ge7 Ge9 2.623512 1_555
Ge7 Ge8 2.623512 1_555
Ge7 Tb19 3.103906 1_555
Ge7 Tb21 3.103906 1_555
Ge7 Tb16 3.103915 1_555
Ge7 Tb14 3.103915 1_555
Ge7 Tb9 3.151752 1_555
Ge7 Tb13 3.234264 1_555
Ge7 Tb12 3.234277 1_555
Ge8 Tb19 3.103912 1_555
Ge8 Tb20 3.103912 1_554
Ge8 Tb14 3.103912 1_555
Ge8 Tb17 3.103912 1_554
Ge8 Tb10 3.151760 1_555
Ge8 Tb13 3.234266 1_555
Ge8 Tb12 3.234266 1_555
Ge9 Tb21 3.103912 1_555
Ge9 Tb15 3.103912 1_554
Ge9 Tb18 3.103912 1_554
Ge9 Tb16 3.103912 1_555
Ge9 Tb11 3.151760 1_555
Ge9 Tb13 3.234266 1_555
Ge9 Tb12 3.234266 1_555
Ge10 Tb0 2.894983 1_555
Ge10 Tb7 2.894983 1_555
Ge10 Tb1 2.894983 1_555
Ge10 Tb6 2.894983 1_555
Ge10 Tb15 3.118958 1_555
Ge10 Tb20 3.118958 1_655
Ge10 Tb21 3.118958 1_555
Ge10 Tb14 3.118958 1_545
Ge11 Tb3 2.894983 1_555
Ge11 Tb4 2.894983 1_555
Ge11 Tb2 2.894983 1_555
Ge11 Tb5 2.894983 1_555
Ge11 Tb16 3.118958 1_455
Ge11 Tb19 3.118958 1_555
Ge11 Tb18 3.118958 1_565
Ge11 Tb17 3.118958 1_555
Ge12 Ge16 2.582787 1_665
Ge12 Tb16 2.932919 1_555
Ge12 Tb14 2.932919 1_555
Ge12 Tb0 3.167800 1_565
Ge12 Tb2 3.167800 1_655
Ge12 Tb6 3.214688 1_565
Ge12 Tb4 3.214688 1_655
Ge12 Tb12 3.282720 1_555
Ge12 Tb9 3.478320 1_555
Ge13 Ge17 2.582787 1_555
Ge13 Tb17 2.932919 1_555
Ge13 Tb15 2.932919 1_555
Ge13 Tb3 3.167800 1_555
Ge13 Tb1 3.167800 1_555
Ge13 Tb7 3.214688 1_555
Ge13 Tb5 3.214688 1_555
Ge13 Tb12 3.282720 1_556
Ge13 Tb8 3.478320 1_555
Ge14 Ge18 2.582787 1_655
Ge14 Tb15 2.932919 1_554
Ge14 Tb16 2.932919 1_555
Ge14 Tb1 3.167800 1_554
Ge14 Tb2 3.167800 1_655
Ge14 Tb5 3.214688 1_655
Ge14 Tb6 3.214688 1_554
Ge14 Tb12 3.282720 1_555
Ge14 Tb11 3.478320 1_555
Ge15 Ge19 2.582787 1_565
Ge15 Tb17 2.932919 1_554
Ge15 Tb14 2.932919 1_555
Ge15 Tb0 3.167800 1_565
Ge15 Tb3 3.167800 1_554
Ge15 Tb7 3.214688 1_565
Ge15 Tb4 3.214688 1_554
Ge15 Tb12 3.282720 1_555
Ge15 Tb10 3.478320 1_555
Ge16 Tb20 2.932919 1_555
Ge16 Tb18 2.932919 1_555
Ge16 Tb4 3.167800 1_545
Ge16 Tb6 3.167800 1_455
Ge16 Tb0 3.214688 1_455
Ge16 Tb2 3.214688 1_545
Ge16 Tb13 3.282720 1_556
Ge16 Tb8 3.478320 1_555
Ge17 Tb19 2.932919 1_555
Ge17 Tb21 2.932919 1_555
Ge17 Tb7 3.167800 1_555
Ge17 Tb5 3.167800 1_555
Ge17 Tb3 3.214688 1_555
Ge17 Tb1 3.214688 1_555
Ge17 Tb13 3.282720 1_555
Ge17 Tb9 3.478320 1_555
Ge18 Tb19 2.932919 1_555
Ge18 Tb20 2.932919 1_554
Ge18 Tb5 3.167800 1_555
Ge18 Tb6 3.167800 1_454
Ge18 Tb1 3.214688 1_454
Ge18 Tb2 3.214688 1_555
Ge18 Tb13 3.282720 1_555
Ge18 Tb10 3.478320 1_555
Ge19 Tb18 2.932919 1_554
Ge19 Tb21 2.932919 1_555
Ge19 Tb4 3.167800 1_544
Ge19 Tb7 3.167800 1_555
Ge19 Tb3 3.214688 1_544
Ge19 Tb0 3.214688 1_555
Ge19 Tb13 3.282720 1_555
Ge19 Tb11 3.478320 1_555
