# generated using pymatgen
data_CoO
_symmetry_space_group_name_H-M   'P 1'
_cell_length_a   10.35649660
_cell_length_b   9.40253978
_cell_length_c   10.26154649
_cell_angle_alpha   87.27872400
_cell_angle_beta   91.20286495
_cell_angle_gamma   90.27025750
_symmetry_Int_Tables_number   1
_chemical_formula_structural   CoO
_chemical_formula_sum   'Co40 O40'
_cell_volume   997.88871682
_cell_formula_units_Z   40
loop_
 _symmetry_equiv_pos_site_id
 _symmetry_equiv_pos_as_xyz
  1  'x, y, z'
loop_
 _atom_site_type_symbol
 _atom_site_label
 _atom_site_symmetry_multiplicity
 _atom_site_fract_x
 _atom_site_fract_y
 _atom_site_fract_z
 _atom_site_occupancy
  Co  Co0  1  0.18243540  0.24545271  0.10624349  1
  Co  Co1  1  0.12788684  0.55296042  0.21560273  1
  Co  Co2  1  0.98575093  0.28957638  0.80026004  1
  Co  Co3  1  0.64825276  0.66338058  0.95098482  1
  Co  Co4  1  0.22367842  0.88696325  0.12985735  1
  Co  Co5  1  0.69789053  0.94537739  0.07794511  1
  Co  Co6  1  0.90626945  0.98558249  0.85224012  1
  Co  Co7  1  0.41580845  0.23483937  0.29576012  1
  Co  Co8  1  0.69434745  0.76412203  0.65819956  1
  Co  Co9  1  0.11309706  0.36436310  0.54123893  1
  Co  Co10  1  0.44463374  0.83756720  0.38096545  1
  Co  Co11  1  0.69937617  0.35950982  0.15364917  1
  Co  Co12  1  0.33314381  0.47304961  0.35999746  1
  Co  Co13  1  0.02160377  0.07420490  0.33758961  1
  Co  Co14  1  0.01850833  0.69591833  0.46986946  1
  Co  Co15  1  0.28077956  0.59817602  0.62337556  1
  Co  Co16  1  0.49569574  0.46354680  0.02791964  1
  Co  Co17  1  0.77434574  0.82204839  0.40021416  1
  Co  Co18  1  0.91830159  0.58340375  0.70043034  1
  Co  Co19  1  0.63998113  0.16598007  0.85948923  1
  Co  Co20  1  0.60186029  0.56629447  0.42852678  1
  Co  Co21  1  0.93602464  0.84746473  0.16886176  1
  Co  Co22  1  0.41304787  0.69345717  0.89534956  1
  Co  Co23  1  0.12235031  0.76186035  0.81678154  1
  Co  Co24  1  0.48588763  0.71926758  0.14072479  1
  Co  Co25  1  0.75545650  0.31160631  0.62356517  1
  Co  Co26  1  0.01943581  0.48828268  0.99494739  1
  Co  Co27  1  0.45426018  0.09253578  0.09221481  1
  Co  Co28  1  0.77307595  0.43011363  0.90956356  1
  Co  Co29  1  0.89845163  0.19226158  0.10048999  1
  Co  Co30  1  0.32105021  0.31787718  0.82342656  1
  Co  Co31  1  0.69156025  0.11859072  0.36492176  1
  Co  Co32  1  0.27671654  0.00906043  0.87889364  1
  Co  Co33  1  0.89134116  0.04760526  0.60225973  1
  Co  Co34  1  0.89325560  0.38936650  0.38405384  1
  Co  Co35  1  0.46995918  0.26402869  0.57700790  1
  Co  Co36  1  0.78290350  0.60546648  0.19508231  1
  Co  Co37  1  0.15790134  0.09331647  0.66080441  1
  Co  Co38  1  0.55177716  0.49415404  0.75011575  1
  Co  Co39  1  0.40858353  0.88066488  0.65682039  1
  O  O0  1  0.71760347  0.46284605  0.31391274  1
  O  O1  1  0.84021379  0.88574317  0.71815114  1
  O  O2  1  0.26971247  0.81171227  0.94594179  1
  O  O3  1  0.15544475  0.29195485  0.72751587  1
  O  O4  1  0.30705175  0.17651026  0.98224837  1
  O  O5  1  0.61242323  0.77552571  0.46457215  1
  O  O6  1  0.98774845  0.62992879  0.87426801  1
  O  O7  1  0.05499864  0.50841554  0.38421099  1
  O  O8  1  0.13264324  0.06021782  0.18664628  1
  O  O9  1  0.70788512  0.94307114  0.26740906  1
  O  O10  1  0.40838362  0.90051688  0.19334155  1
  O  O11  1  0.09346899  0.74556776  0.17084257  1
  O  O12  1  0.10379191  0.66700441  0.64284341  1
  O  O13  1  0.44802997  0.61361404  0.30378316  1
  O  O14  1  0.72934414  0.58093013  0.79086906  1
  O  O15  1  0.36335180  0.52595070  0.79621739  1
  O  O16  1  0.77252109  0.75106965  0.07152106  1
  O  O17  1  0.04436191  0.13770766  0.51458102  1
  O  O18  1  0.25386166  0.31114329  0.27608058  1
  O  O19  1  0.50390517  0.13984721  0.42434282  1
  O  O20  1  0.83229682  0.68601272  0.52438057  1
  O  O21  1  0.08731403  0.97126192  0.81017212  1
  O  O22  1  0.52191076  0.29580583  0.14746412  1
  O  O23  1  0.34071100  0.76983060  0.52355625  1
  O  O24  1  0.86631888  0.44980185  0.11307006  1
  O  O25  1  0.92339371  0.40169771  0.59809629  1
  O  O26  1  0.82819821  0.17125865  0.78481134  1
  O  O27  1  0.18819527  0.46464583  0.06663026  1
  O  O28  1  0.72833343  0.26027328  0.00760120  1
  O  O29  1  0.60059804  0.42887731  0.57470561  1
  O  O30  1  0.30753760  0.40869672  0.53398332  1
  O  O31  1  0.73812185  0.13307507  0.54151762  1
  O  O32  1  0.56270405  0.01154780  0.96399903  1
  O  O33  1  0.50406195  0.27971754  0.77327661  1
  O  O34  1  0.88328150  0.99829953  0.03279700  1
  O  O35  1  0.86778671  0.20485248  0.29291304  1
  O  O36  1  0.03236502  0.27315133  0.98783069  1
  O  O37  1  0.53323298  0.76564339  0.75368881  1
  O  O38  1  0.94751002  0.87092025  0.36429080  1
  O  O39  1  0.34002884  0.05385226  0.69734524  1
loop_
_geom_bond_atom_site_label_1
_geom_bond_atom_site_label_2
_geom_bond_distance
_geom_bond_site_symmetry_2
Co0 O8 1.962912 1_555
Co0 O36 1.963242 1_554
Co0 O4 1.964672 1_554
Co0 O18 2.002447 1_555
Co0 O27 2.082477 1_555
Co1 O11 1.880948 1_555
Co1 O27 1.892628 1_555
Co1 O7 1.929201 1_555
Co2 O3 1.923385 1_655
Co2 O36 1.973599 1_655
Co2 O26 1.978370 1_555
Co2 O25 2.361051 1_555
Co3 O16 1.971298 1_556
Co3 O14 2.047167 1_555
Co3 O37 2.483357 1_555
Co4 O11 1.927870 1_555
Co4 O8 2.002478 1_565
Co4 O10 2.013223 1_555
Co4 O2 2.111259 1_554
Co5 O32 1.893368 1_564
Co5 O9 1.943872 1_555
Co5 O16 1.991611 1_555
Co5 O34 2.038404 1_555
Co6 O1 1.821971 1_555
Co6 O34 1.882457 1_556
Co6 O21 1.939573 1_655
Co6 O26 2.013837 1_565
Co7 O19 1.793427 1_555
Co7 O18 1.830818 1_555
Co7 O22 1.957860 1_555
Co8 O37 1.953128 1_555
Co8 O1 1.994933 1_555
Co8 O5 2.142207 1_555
Co8 O20 2.157351 1_555
Co8 O14 2.171213 1_555
Co9 O3 2.038064 1_555
Co9 O30 2.056651 1_555
Co9 O25 2.097049 1_455
Co9 O7 2.133726 1_555
Co9 O17 2.270723 1_555
Co10 O23 1.917323 1_555
Co10 O5 1.998858 1_555
Co10 O10 2.015351 1_555
Co10 O13 2.285353 1_555
Co11 O28 1.833275 1_555
Co11 O22 1.931083 1_555
Co11 O0 1.954789 1_555
Co11 O24 1.966266 1_555
Co12 O13 1.853860 1_555
Co12 O30 1.881425 1_555
Co12 O18 1.953508 1_555
Co13 O17 1.947907 1_555
Co13 O8 1.958170 1_555
Co13 O35 2.047237 1_455
Co13 O38 2.064602 1_445
Co14 O12 1.973626 1_555
Co14 O20 2.019734 1_455
Co14 O7 2.047192 1_555
Co14 O38 2.056855 1_455
Co15 O12 1.964015 1_555
Co15 O23 1.974755 1_555
Co15 O15 2.040992 1_555
Co15 O30 2.064655 1_555
Co16 O22 1.967843 1_555
Co17 O20 1.854742 1_555
Co17 O9 1.856492 1_555
Co17 O5 1.857902 1_555
Co17 O38 1.888687 1_555
Co18 O6 1.976869 1_555
Co18 O25 2.048903 1_555
Co18 O12 2.155633 1_655
Co18 O20 2.182388 1_555
Co18 O14 2.182928 1_555
Co19 O32 1.943269 1_555
Co19 O33 1.944186 1_555
Co19 O28 1.998798 1_556
Co19 O26 2.108919 1_555
Co20 O29 1.932953 1_555
Co20 O0 1.986212 1_555
Co20 O5 2.020999 1_555
Co20 O13 2.059517 1_555
Co21 O11 1.894363 1_655
Co21 O34 2.011587 1_555
Co21 O38 2.028834 1_555
Co21 O16 2.164957 1_555
Co22 O2 1.952480 1_555
Co22 O15 1.975544 1_555
Co22 O37 2.024199 1_555
Co23 O6 1.943907 1_455
Co23 O21 2.001470 1_555
Co23 O12 2.037969 1_555
Co23 O2 2.067081 1_555
Co24 O13 1.950980 1_555
Co24 O10 1.989620 1_555
Co25 O31 1.919362 1_555
Co25 O25 1.948072 1_555
Co25 O29 1.992430 1_555
Co25 O26 2.190085 1_555
Co26 O6 1.801515 1_455
Co26 O27 1.891900 1_556
Co26 O36 2.032707 1_555
Co26 O24 2.036765 1_456
Co27 O32 1.933264 1_554
Co27 O4 2.018809 1_554
Co27 O10 2.096904 1_545
Co27 O22 2.130440 1_555
Co28 O14 1.875742 1_555
Co28 O28 1.907097 1_556
Co28 O24 2.297412 1_556
Co29 O36 1.952493 1_654
Co29 O34 1.986510 1_545
Co29 O35 2.015597 1_555
Co29 O28 2.074555 1_555
Co29 O24 2.455670 1_555
Co30 O3 1.979280 1_555
Co30 O15 2.010633 1_555
Co30 O33 2.012674 1_555
Co30 O4 2.060661 1_555
Co31 O31 1.876454 1_555
Co31 O9 1.979893 1_545
Co31 O19 2.062457 1_555
Co31 O35 2.126159 1_555
Co32 O2 1.949714 1_545
Co32 O4 1.960188 1_555
Co32 O39 2.012991 1_555
Co32 O21 2.104854 1_545
Co33 O31 1.864205 1_555
Co33 O1 1.964136 1_545
Co33 O17 2.003374 1_655
Co33 O26 2.356677 1_555
Co34 O7 2.010293 1_655
Co34 O35 2.023248 1_555
Co34 O0 2.052882 1_555
Co34 O25 2.220388 1_555
Co35 O19 2.035139 1_555
Co35 O33 2.049545 1_555
Co35 O29 2.052226 1_555
Co35 O30 2.192737 1_555
Co35 O39 2.655908 1_555
Co36 O16 1.823270 1_555
Co36 O0 1.900872 1_555
Co36 O24 1.938096 1_555
Co37 O17 1.918178 1_555
Co37 O39 1.949294 1_555
Co37 O21 2.018133 1_545
Co37 O3 2.019946 1_555
Co38 O29 2.004575 1_555
Co38 O15 2.044246 1_555
Co38 O14 2.051433 1_555
Co38 O33 2.077490 1_555
Co38 O37 2.562862 1_555
Co39 O39 1.848324 1_565
Co39 O23 1.881015 1_555
Co39 O37 1.918704 1_555
