# generated using pymatgen
data_BaCaCeHfO6
_symmetry_space_group_name_H-M   'P 1'
_cell_length_a   8.50263152
_cell_length_b   8.48415804
_cell_length_c   8.46918901
_cell_angle_alpha   90.00000000
_cell_angle_beta   90.00000000
_cell_angle_gamma   90.00000000
_symmetry_Int_Tables_number   1
_chemical_formula_structural   BaCaCeHfO6
_chemical_formula_sum   'Ba4 Ca4 Ce4 Hf4 O24'
_cell_volume   610.94755834
_cell_formula_units_Z   4
loop_
 _symmetry_equiv_pos_site_id
 _symmetry_equiv_pos_as_xyz
  1  'x, y, z'
loop_
 _atom_site_type_symbol
 _atom_site_label
 _atom_site_symmetry_multiplicity
 _atom_site_fract_x
 _atom_site_fract_y
 _atom_site_fract_z
 _atom_site_occupancy
  Ba  Ba0  1  0.00000000  -0.00000000  -0.00000000  1
  Ba  Ba1  1  0.50000000  0.50000000  0.50000000  1
  Ba  Ba2  1  0.50000000  -0.00000000  0.00000000  1
  Ba  Ba3  1  0.00000000  0.50000000  -0.00000000  1
  Ca  Ca0  1  0.00000000  0.50000000  0.50000000  1
  Ca  Ca1  1  0.50000000  -0.00000000  0.50000000  1
  Ca  Ca2  1  0.50000000  0.50000000  0.00000000  1
  Ca  Ca3  1  0.00000000  -0.00000000  0.50000000  1
  Ce  Ce0  1  0.74853964  0.74875002  0.74396532  1
  Ce  Ce1  1  0.25146036  0.25124998  0.74396532  1
  Ce  Ce2  1  0.25146036  0.74875002  0.25603468  1
  Ce  Ce3  1  0.74853964  0.25124998  0.25603468  1
  Hf  Hf0  1  0.25132888  0.24996343  0.25665977  1
  Hf  Hf1  1  0.74867112  0.75003657  0.25665977  1
  Hf  Hf2  1  0.74867112  0.24996343  0.74334023  1
  Hf  Hf3  1  0.25132888  0.75003657  0.74334023  1
  O  O0  1  0.00957384  0.20545999  0.30040663  1
  O  O1  1  0.99042616  0.79454001  0.30040663  1
  O  O2  1  0.99042616  0.20545999  0.69959337  1
  O  O3  1  0.00957384  0.79454001  0.69959337  1
  O  O4  1  0.28279222  0.00735945  0.22627140  1
  O  O5  1  0.28279222  0.99264055  0.77372860  1
  O  O6  1  0.71720778  0.99264055  0.22627140  1
  O  O7  1  0.71720778  0.00735945  0.77372860  1
  O  O8  1  0.21632171  0.27197431  0.01073233  1
  O  O9  1  0.78367829  0.27197431  0.98926767  1
  O  O10  1  0.21632171  0.72802569  0.98926767  1
  O  O11  1  0.78367829  0.72802569  0.01073233  1
  O  O12  1  0.48989026  0.30634133  0.20948285  1
  O  O13  1  0.51010974  0.69365867  0.20948285  1
  O  O14  1  0.51010974  0.30634133  0.79051715  1
  O  O15  1  0.48989026  0.69365867  0.79051715  1
  O  O16  1  0.20179378  0.48919804  0.30227778  1
  O  O17  1  0.20179378  0.51080196  0.69772222  1
  O  O18  1  0.79820622  0.51080196  0.30227778  1
  O  O19  1  0.79820622  0.48919804  0.69772222  1
  O  O20  1  0.31211108  0.21066786  0.49191587  1
  O  O21  1  0.68788892  0.21066786  0.50808413  1
  O  O22  1  0.31211108  0.78933214  0.50808413  1
  O  O23  1  0.68788892  0.78933214  0.49191587  1
loop_
_geom_bond_atom_site_label_1
_geom_bond_atom_site_label_2
_geom_bond_distance
_geom_bond_site_symmetry_2
Ba0 O10 2.952242 1_544
Ba0 O11 2.952242 1_445
Ba0 O9 2.952242 1_454
Ba0 O8 2.952242 1_555
Ba0 O4 3.075346 1_555
Ba0 O6 3.075346 1_445
Ba0 O5 3.075346 1_544
Ba0 O7 3.075346 1_454
Ba0 O3 3.085154 1_544
Ba0 O1 3.085154 1_445
Ba0 O0 3.085154 1_555
Ba0 O2 3.085154 1_454
Ba1 O21 2.929608 1_555
Ba1 O20 2.929608 1_555
Ba1 O22 2.929608 1_555
Ba1 O23 2.929608 1_555
Ba1 O14 2.959853 1_555
Ba1 O15 2.959853 1_555
Ba1 O12 2.959853 1_555
Ba1 O13 2.959853 1_555
Ba1 O17 3.039976 1_555
Ba1 O18 3.039976 1_555
Ba1 O19 3.039976 1_555
Ba1 O16 3.039976 1_555
Ba2 O6 2.662151 1_545
Ba2 O4 2.662151 1_555
Ba2 O7 2.662151 1_554
Ba2 O5 2.662151 1_544
Ba3 O9 2.670955 1_454
Ba3 O8 2.670955 1_555
Ba3 O10 2.670955 1_554
Ba3 O11 2.670955 1_455
Ba3 O17 3.083202 1_554
Ba3 O19 3.083202 1_454
Ba3 O18 3.083202 1_455
Ba3 O16 3.083202 1_555
Ca0 O17 2.399250 1_555
Ca0 O16 2.399250 1_555
Ca0 O18 2.399250 1_455
Ca0 O19 2.399250 1_455
Ca1 O22 2.398215 1_545
Ca1 O23 2.398215 1_545
Ca1 O20 2.398215 1_555
Ca1 O21 2.398215 1_555
Ca1 O7 2.964631 1_555
Ca1 O5 2.964631 1_545
Ca1 O6 2.964631 1_545
Ca1 O4 2.964631 1_555
Ca2 O12 2.419617 1_555
Ca2 O14 2.419617 1_554
Ca2 O13 2.419617 1_555
Ca2 O15 2.419617 1_554
Ca3 O1 2.429537 1_445
Ca3 O0 2.429537 1_555
Ca3 O2 2.429537 1_455
Ca3 O3 2.429537 1_545
Ce0 O23 2.222888 1_555
Ce0 O7 2.224525 1_565
Ce0 O19 2.276153 1_555
Ce0 O15 2.282627 1_555
Ce0 O3 2.284344 1_655
Ce0 O11 2.285742 1_556
Ce1 O20 2.222888 1_555
Ce1 O5 2.224525 1_545
Ce1 O17 2.276153 1_555
Ce1 O14 2.282627 1_555
Ce1 O2 2.284344 1_455
Ce1 O8 2.285742 1_556
Ce2 O22 2.222888 1_555
Ce2 O4 2.224525 1_565
Ce2 O16 2.276153 1_555
Ce2 O13 2.282627 1_555
Ce2 O1 2.284344 1_455
Ce2 O10 2.285742 1_554
Ce3 O21 2.222888 1_555
Ce3 O6 2.224525 1_545
Ce3 O18 2.276153 1_555
Ce3 O12 2.282627 1_555
Ce3 O0 2.284344 1_655
Ce3 O9 2.285742 1_554
Hf0 O20 2.085188 1_555
Hf0 O4 2.091498 1_555
Hf0 O16 2.108638 1_555
Hf0 O8 2.112238 1_555
Hf0 O12 2.121988 1_555
Hf0 O0 2.122530 1_555
Hf1 O23 2.085188 1_555
Hf1 O6 2.091498 1_555
Hf1 O18 2.108638 1_555
Hf1 O11 2.112238 1_555
Hf1 O13 2.121988 1_555
Hf1 O1 2.122530 1_555
Hf2 O21 2.085188 1_555
Hf2 O7 2.091498 1_555
Hf2 O19 2.108638 1_555
Hf2 O9 2.112238 1_555
Hf2 O14 2.121988 1_555
Hf2 O2 2.122530 1_555
Hf3 O22 2.085188 1_555
Hf3 O5 2.091498 1_555
Hf3 O17 2.108638 1_555
Hf3 O10 2.112238 1_555
Hf3 O15 2.121988 1_555
Hf3 O3 2.122530 1_555
