# generated using pymatgen
data_ZnCu3(ClO3)2
_symmetry_space_group_name_H-M   'P 1'
_cell_length_a   6.15503863
_cell_length_b   6.15503863
_cell_length_c   5.24038900
_cell_angle_alpha   90.00000000
_cell_angle_beta   90.00000000
_cell_angle_gamma   120.00000680
_symmetry_Int_Tables_number   1
_chemical_formula_structural   ZnCu3(ClO3)2
_chemical_formula_sum   'Zn1 Cu3 Cl2 O6'
_cell_volume   171.93159599
_cell_formula_units_Z   1
loop_
 _symmetry_equiv_pos_site_id
 _symmetry_equiv_pos_as_xyz
  1  'x, y, z'
loop_
 _atom_site_type_symbol
 _atom_site_label
 _atom_site_symmetry_multiplicity
 _atom_site_fract_x
 _atom_site_fract_y
 _atom_site_fract_z
 _atom_site_occupancy
  Zn  Zn0  1  0.00000000  0.00000000  0.00000000  1
  Cu  Cu0  1  0.50000000  0.00000000  0.00000000  1
  Cu  Cu1  1  0.00000000  0.50000000  0.00000000  1
  Cu  Cu2  1  0.50000000  0.50000000  0.00000000  1
  Cl  Cl0  1  0.33333300  0.66666700  0.38535100  1
  Cl  Cl1  1  0.66666700  0.33333300  0.61464900  1
  O  O0  1  0.81604200  0.18395800  0.14864400  1
  O  O1  1  0.18395800  0.81604200  0.85135600  1
  O  O2  1  0.81604200  0.63208400  0.14864400  1
  O  O3  1  0.18395800  0.36791600  0.85135600  1
  O  O4  1  0.36791600  0.18395800  0.14864400  1
  O  O5  1  0.63208400  0.81604200  0.85135600  1
loop_
_geom_bond_atom_site_label_1
_geom_bond_atom_site_label_2
_geom_bond_distance
_geom_bond_site_symmetry_2
Cu0 O1 1.862861 1_544
Cu0 O0 1.862861 1_555
Cu0 O4 1.862862 1_555
Cu0 O5 1.862862 1_544
Cu1 O0 1.862861 1_455
Cu1 O1 1.862861 1_554
Cu1 O2 1.862862 1_455
Cu1 O3 1.862862 1_554
Cu2 O3 1.862861 1_554
Cu2 O4 1.862861 1_555
Cu2 O2 1.862861 1_555
Cu2 O5 1.862861 1_554
Cl0 Cu0 2.689789 1_565
Cl0 Cu1 2.689789 1_555
Cl0 Cu2 2.689793 1_555
Cl1 Cu0 2.689789 1_556
Cl1 Cu1 2.689789 1_656
Cl1 Cu2 2.689793 1_556
O0 Zn0 2.110181 1_655
O1 Zn0 2.110181 1_566
O2 Zn0 2.110181 1_665
O3 Zn0 2.110181 1_556
O4 Zn0 2.110181 1_555
O5 Zn0 2.110181 1_666
