# generated using pymatgen
data_Ga2Hg5Se8
_symmetry_space_group_name_H-M   'P 1'
_cell_length_a   8.46967755
_cell_length_b   8.46967755
_cell_length_c   8.46967755
_cell_angle_alpha   119.04280436
_cell_angle_beta   119.04280436
_cell_angle_gamma   91.66606452
_symmetry_Int_Tables_number   1
_chemical_formula_structural   Ga2Hg5Se8
_chemical_formula_sum   'Ga2 Hg5 Se8'
_cell_volume   435.63758900
_cell_formula_units_Z   1
loop_
 _symmetry_equiv_pos_site_id
 _symmetry_equiv_pos_as_xyz
  1  'x, y, z'
loop_
 _atom_site_type_symbol
 _atom_site_label
 _atom_site_symmetry_multiplicity
 _atom_site_fract_x
 _atom_site_fract_y
 _atom_site_fract_z
 _atom_site_occupancy
  Ga  Ga0  1  0.23750000  0.23750000  0.00000000  1
  Ga  Ga1  1  0.76250000  0.76250000  0.00000000  1
  Hg  Hg0  1  0.25000000  0.75000000  0.50000000  1
  Hg  Hg1  1  0.76502000  0.23498000  0.00000000  1
  Hg  Hg2  1  0.23498000  0.76502000  0.00000000  1
  Hg  Hg3  1  0.76502000  0.76502000  0.53003900  1
  Hg  Hg4  1  0.23498000  0.23498000  0.46996100  1
  Se  Se0  1  0.89199500  0.14705300  0.74494300  1
  Se  Se1  1  0.40211000  0.14705300  0.25505700  1
  Se  Se2  1  0.85294700  0.59789000  0.74494300  1
  Se  Se3  1  0.85294700  0.10800500  0.25505700  1
  Se  Se4  1  0.40096900  0.63138900  0.76957900  1
  Se  Se5  1  0.86181000  0.63138900  0.23042100  1
  Se  Se6  1  0.36861000  0.13819000  0.76957900  1
  Se  Se7  1  0.36861000  0.59903100  0.23042100  1
loop_
_geom_bond_atom_site_label_1
_geom_bond_atom_site_label_2
_geom_bond_distance
_geom_bond_site_symmetry_2
Ga0 Se1 2.437606 1_555
Ga0 Se0 2.437613 1_454
Ga0 Se7 2.512764 1_555
Ga0 Se6 2.512764 1_554
Ga1 Se2 2.437606 1_554
Ga1 Se3 2.437613 1_565
Ga1 Se4 2.512764 1_554
Ga1 Se5 2.512771 1_555
Hg0 Se7 2.706381 1_555
Hg0 Se5 2.706388 1_455
Hg0 Se4 2.706388 1_555
Hg0 Se6 2.706388 1_565
Hg1 Se0 2.667975 1_554
Hg1 Se3 2.667975 1_555
Hg1 Se5 2.770916 1_555
Hg1 Se6 2.770924 1_554
Hg2 Se2 2.667982 1_454
Hg2 Se1 2.667982 1_565
Hg2 Se7 2.770923 1_555
Hg2 Se4 2.770924 1_554
Hg3 Se0 2.667981 1_565
Hg3 Se2 2.667989 1_555
Hg3 Se5 2.770909 1_555
Hg3 Se7 2.770922 1_555
Hg4 Se3 2.667981 1_455
Hg4 Se1 2.667989 1_555
Hg4 Se6 2.770909 1_555
Hg4 Se4 2.770916 1_555
