# generated using pymatgen
data_NdTiFe11H
_symmetry_space_group_name_H-M   'P 1'
_cell_length_a   4.75248100
_cell_length_b   6.48146946
_cell_length_c   6.48148750
_cell_angle_alpha   97.35249154
_cell_angle_beta   111.50752964
_cell_angle_gamma   68.49287513
_symmetry_Int_Tables_number   1
_chemical_formula_structural   NdTiFe11H
_chemical_formula_sum   'Nd1 Ti1 Fe11 H1'
_cell_volume   172.80988732
_cell_formula_units_Z   1
loop_
 _symmetry_equiv_pos_site_id
 _symmetry_equiv_pos_as_xyz
  1  'x, y, z'
loop_
 _atom_site_type_symbol
 _atom_site_label
 _atom_site_symmetry_multiplicity
 _atom_site_fract_x
 _atom_site_fract_y
 _atom_site_fract_z
 _atom_site_occupancy
  Nd  Nd0  1  0.00600000  0.99400000  0.00600000  1
  Ti  Ti0  1  0.63155400  0.36844600  0.63155400  1
  Fe  Fe0  1  0.73186200  0.76813800  0.23186200  1
  Fe  Fe1  1  0.27151400  0.22848600  0.77151400  1
  Fe  Fe2  1  0.49838400  0.77569300  0.77246400  1
  Fe  Fe3  1  0.49838700  0.22753600  0.22430700  1
  Fe  Fe4  1  0.50038900  0.99747000  0.49947000  1
  Fe  Fe5  1  0.00161200  0.99747000  0.49947200  1
  Fe  Fe6  1  0.50038900  0.50052800  0.00253000  1
  Fe  Fe7  1  0.00161100  0.50053000  0.00253000  1
  Fe  Fe8  1  0.35733300  0.64266700  0.35733300  1
  Fe  Fe9  1  0.00017300  0.35844400  0.35878900  1
  Fe  Fe10  1  0.00017200  0.64121100  0.64155600  1
  H  H0  1  0.50061900  0.99938100  0.00061900  1
loop_
_geom_bond_atom_site_label_1
_geom_bond_atom_site_label_2
_geom_bond_distance
_geom_bond_site_symmetry_2
Nd0 Ti0 3.181364 1_464
Fe0 H0 1.964684 1_555
Fe0 Fe5 2.443009 1_655
Fe0 Fe6 2.443011 1_555
Fe0 Fe7 2.443013 1_655
Fe0 Fe4 2.443013 1_555
Fe0 Fe9 2.580932 1_655
Fe0 Fe10 2.580932 1_655
Fe1 H0 1.946520 1_546
Fe1 Fe6 2.463826 1_556
Fe1 Fe5 2.463828 1_545
Fe1 Fe7 2.463848 1_556
Fe1 Fe4 2.463848 1_545
Fe1 Fe10 2.603705 1_555
Fe1 Fe9 2.603705 1_555
Fe1 Ti0 2.657168 1_455
Fe1 Ti0 2.657168 1_555
Fe2 H0 1.933893 1_556
Fe2 Fe5 2.422898 1_555
Fe2 Fe4 2.422914 1_555
Fe2 Fe7 2.462162 1_656
Fe2 Fe6 2.462165 1_556
Fe2 Ti0 2.604585 1_555
Fe3 H0 1.933893 1_545
Fe3 Fe6 2.422896 1_555
Fe3 Fe7 2.422914 1_555
Fe3 Fe5 2.462163 1_645
Fe3 Fe4 2.462163 1_545
Fe3 Ti0 2.604585 1_555
Fe3 Fe9 2.633776 1_655
Fe3 Fe9 2.633797 1_555
Fe4 Fe5 2.370433 1_555
Fe4 Fe5 2.382048 1_655
Fe4 Fe8 2.596958 1_555
Fe4 Fe9 2.614408 1_565
Fe4 Ti0 2.661542 1_565
Fe4 Nd0 3.203269 1_555
Fe4 Nd0 3.278377 1_656
Fe5 Fe8 2.596973 1_555
Fe5 Fe9 2.614410 1_565
Fe5 Ti0 2.661549 1_465
Fe5 Nd0 3.203290 1_555
Fe5 Nd0 3.278375 1_556
Fe6 Fe7 2.370428 1_555
Fe6 Fe7 2.382053 1_655
Fe6 Fe9 2.596242 1_655
Fe6 Fe8 2.596971 1_555
Fe6 Ti0 2.661551 1_554
Fe6 Nd0 3.203288 1_555
Fe6 Nd0 3.278377 1_645
Fe7 Fe9 2.596247 1_555
Fe7 Fe8 2.596958 1_555
Fe7 Ti0 2.661542 1_454
Fe7 Nd0 3.203269 1_555
Fe7 Nd0 3.278377 1_545
Fe8 Ti0 2.329834 1_555
Fe8 Fe9 2.929818 1_555
Fe8 Fe9 2.929833 1_655
Fe9 Ti0 2.890852 1_555
Fe9 Ti0 2.890867 1_455
Fe9 Nd0 3.070017 1_545
Fe10 Fe9 2.420375 1_555
Fe10 Fe5 2.596240 1_555
Fe10 Fe4 2.596246 1_455
Fe10 Fe6 2.614407 1_556
Fe10 Fe7 2.614409 1_556
Fe10 Fe2 2.633776 1_555
Fe10 Fe2 2.633797 1_455
Fe10 Ti0 2.890852 1_455
Fe10 Ti0 2.890867 1_555
Fe10 Fe8 2.929818 1_455
Fe10 Fe8 2.929833 1_555
Fe10 Nd0 3.070017 1_556
H0 Nd0 2.376680 1_655
H0 Nd0 2.376680 1_555
