# generated using pymatgen
data_Ba(DySe2)2
_symmetry_space_group_name_H-M   'P 1'
_cell_length_a   4.19821847
_cell_length_b   12.81568235
_cell_length_c   15.15411903
_cell_angle_alpha   90.00000000
_cell_angle_beta   90.00000000
_cell_angle_gamma   90.00000000
_symmetry_Int_Tables_number   1
_chemical_formula_structural   Ba(DySe2)2
_chemical_formula_sum   'Ba4 Dy8 Se16'
_cell_volume   815.33758668
_cell_formula_units_Z   4
loop_
 _symmetry_equiv_pos_site_id
 _symmetry_equiv_pos_as_xyz
  1  'x, y, z'
loop_
 _atom_site_type_symbol
 _atom_site_label
 _atom_site_symmetry_multiplicity
 _atom_site_fract_x
 _atom_site_fract_y
 _atom_site_fract_z
 _atom_site_occupancy
  Ba  Ba0  1  0.25000000  0.75849482  0.33628551  1
  Ba  Ba1  1  0.25000000  0.25849482  0.16371449  1
  Ba  Ba2  1  0.75000000  0.24150518  0.66371449  1
  Ba  Ba3  1  0.75000000  0.74150518  0.83628551  1
  Dy  Dy0  1  0.25000000  0.43480602  0.39105905  1
  Dy  Dy1  1  0.25000000  0.93480602  0.10894095  1
  Dy  Dy2  1  0.75000000  0.56519398  0.60894095  1
  Dy  Dy3  1  0.75000000  0.06519398  0.89105905  1
  Dy  Dy4  1  0.25000000  0.42133088  0.89973402  1
  Dy  Dy5  1  0.25000000  0.92133088  0.60026598  1
  Dy  Dy6  1  0.75000000  0.57866912  0.10026598  1
  Dy  Dy7  1  0.75000000  0.07866912  0.39973402  1
  Se  Se0  1  0.25000000  0.20711154  0.83748951  1
  Se  Se1  1  0.25000000  0.70711154  0.66251049  1
  Se  Se2  1  0.75000000  0.79288846  0.16251049  1
  Se  Se3  1  0.75000000  0.29288846  0.33748951  1
  Se  Se4  1  0.25000000  0.12522853  0.52426343  1
  Se  Se5  1  0.25000000  0.62522853  0.97573657  1
  Se  Se6  1  0.75000000  0.87477147  0.47573657  1
  Se  Se7  1  0.75000000  0.37477147  0.02426343  1
  Se  Se8  1  0.25000000  0.52341196  0.21680253  1
  Se  Se9  1  0.25000000  0.02341196  0.28319747  1
  Se  Se10  1  0.75000000  0.47658804  0.78319747  1
  Se  Se11  1  0.75000000  0.97658804  0.71680253  1
  Se  Se12  1  0.25000000  0.41621380  0.57624573  1
  Se  Se13  1  0.25000000  0.91621380  0.92375427  1
  Se  Se14  1  0.75000000  0.58378620  0.42375427  1
  Se  Se15  1  0.75000000  0.08378620  0.07624573  1
loop_
_geom_bond_atom_site_label_1
_geom_bond_atom_site_label_2
_geom_bond_distance
_geom_bond_site_symmetry_2
Ba0 Se6 3.330572 1_555
Ba0 Se6 3.330572 1_455
Ba0 Se14 3.343114 1_555
Ba0 Se14 3.343114 1_455
Ba0 Se2 3.396377 1_455
Ba0 Se2 3.396377 1_555
Ba0 Se9 3.489110 1_565
Ba0 Se8 3.514987 1_555
Ba1 Se7 3.330572 1_455
Ba1 Se7 3.330572 1_555
Ba1 Se15 3.343114 1_455
Ba1 Se15 3.343114 1_555
Ba1 Se3 3.396377 1_555
Ba1 Se3 3.396377 1_455
Ba1 Se8 3.489110 1_555
Ba1 Se9 3.514987 1_555
Ba2 Se4 3.330572 1_655
Ba2 Se4 3.330572 1_555
Ba2 Se12 3.343114 1_555
Ba2 Se12 3.343114 1_655
Ba2 Se0 3.396377 1_555
Ba2 Se0 3.396377 1_655
Ba2 Se11 3.489110 1_545
Ba2 Se10 3.514987 1_555
Ba3 Se5 3.330572 1_655
Ba3 Se5 3.330572 1_555
Ba3 Se13 3.343114 1_555
Ba3 Se13 3.343114 1_655
Ba3 Se1 3.396377 1_655
Ba3 Se1 3.396377 1_555
Ba3 Se10 3.489110 1_555
Ba3 Se11 3.514987 1_555
Dy0 Se12 2.816438 1_555
Dy0 Se8 2.874505 1_555
Dy0 Se14 2.880470 1_455
Dy0 Se14 2.880470 1_555
Dy0 Se3 2.893649 1_555
Dy0 Se3 2.893649 1_455
Dy1 Se13 2.816438 1_554
Dy1 Se9 2.874505 1_565
Dy1 Se15 2.880470 1_565
Dy1 Se15 2.880470 1_465
Dy1 Se2 2.893649 1_455
Dy1 Se2 2.893649 1_555
Dy2 Se14 2.816438 1_555
Dy2 Se10 2.874505 1_555
Dy2 Se12 2.880470 1_655
Dy2 Se12 2.880470 1_555
Dy2 Se1 2.893649 1_555
Dy2 Se1 2.893649 1_655
Dy3 Se15 2.816438 1_556
Dy3 Se11 2.874505 1_545
Dy3 Se13 2.880470 1_545
Dy3 Se13 2.880470 1_645
Dy3 Se0 2.893649 1_655
Dy3 Se0 2.893649 1_555
Dy4 Se10 2.833114 1_555
Dy4 Se10 2.833114 1_455
Dy4 Se5 2.855654 1_555
Dy4 Se7 2.885060 1_456
Dy4 Se7 2.885060 1_556
Dy4 Se0 2.902892 1_555
Dy5 Se11 2.833114 1_555
Dy5 Se11 2.833114 1_455
Dy5 Se4 2.855654 1_565
Dy5 Se6 2.885060 1_555
Dy5 Se6 2.885060 1_455
Dy5 Se1 2.902892 1_555
Dy6 Se8 2.833114 1_555
Dy6 Se8 2.833114 1_655
Dy6 Se7 2.855654 1_555
Dy6 Se5 2.885060 1_654
Dy6 Se5 2.885060 1_554
Dy6 Se2 2.902892 1_555
Dy7 Se9 2.833114 1_555
Dy7 Se9 2.833114 1_655
Dy7 Se6 2.855654 1_545
Dy7 Se4 2.885060 1_655
Dy7 Se4 2.885060 1_555
Dy7 Se3 2.902892 1_555
