# generated using pymatgen
data_ThBe13
_symmetry_space_group_name_H-M   'P 1'
_cell_length_a   7.31727334
_cell_length_b   7.31727314
_cell_length_c   7.31724026
_cell_angle_alpha   60.00015317
_cell_angle_beta   60.00015408
_cell_angle_gamma   59.99996871
_symmetry_Int_Tables_number   1
_chemical_formula_structural   ThBe13
_chemical_formula_sum   'Th2 Be26'
_cell_volume   277.03316824
_cell_formula_units_Z   2
loop_
 _symmetry_equiv_pos_site_id
 _symmetry_equiv_pos_as_xyz
  1  'x, y, z'
loop_
 _atom_site_type_symbol
 _atom_site_label
 _atom_site_symmetry_multiplicity
 _atom_site_fract_x
 _atom_site_fract_y
 _atom_site_fract_z
 _atom_site_occupancy
  Th  Th0  1  0.25000000  0.25000000  0.25000000  1
  Th  Th1  1  0.75000000  0.75000000  0.75000000  1
  Be  Be0  1  0.00000000  0.00000000  0.00000000  1
  Be  Be1  1  0.50000000  0.50000000  0.50000000  1
  Be  Be2  1  0.28836485  0.06227123  0.93772340  1
  Be  Be3  1  0.43771474  0.56228526  0.78835788  1
  Be  Be4  1  0.78836811  0.21163189  0.43773727  1
  Be  Be5  1  0.43772727  0.78836104  0.21163489  1
  Be  Be6  1  0.56227273  0.21163896  0.78836511  1
  Be  Be7  1  0.56227123  0.78836485  0.43772340  1
  Be  Be8  1  0.78836485  0.56227123  0.21164052  1
  Be  Be9  1  0.93772727  0.28836104  0.06227580  1
  Be  Be10  1  0.06228526  0.93771474  0.28835788  1
  Be  Be11  1  0.71163189  0.28836811  0.93773727  1
  Be  Be12  1  0.06227273  0.71163896  0.93772420  1
  Be  Be13  1  0.71163896  0.06227273  0.28836511  1
  Be  Be14  1  0.93771474  0.06228526  0.71164212  1
  Be  Be15  1  0.28836104  0.93772727  0.71163489  1
  Be  Be16  1  0.28836811  0.71163189  0.06226273  1
  Be  Be17  1  0.78836104  0.43772727  0.56227580  1
  Be  Be18  1  0.21163189  0.78836811  0.56226373  1
  Be  Be19  1  0.21163515  0.43772877  0.78835948  1
  Be  Be20  1  0.43772877  0.21163515  0.56227660  1
  Be  Be21  1  0.56228526  0.43771474  0.21164212  1
  Be  Be22  1  0.21163896  0.56227273  0.43772420  1
  Be  Be23  1  0.93772877  0.71163515  0.28835948  1
  Be  Be24  1  0.71163515  0.93772877  0.06227660  1
  Be  Be25  1  0.06227123  0.28836485  0.71164052  1
loop_
_geom_bond_atom_site_label_1
_geom_bond_atom_site_label_2
_geom_bond_distance
_geom_bond_site_symmetry_2
Be0 Be14 2.158645 1_454
Be0 Be10 2.158645 1_545
Be0 Be12 2.158668 1_544
Be0 Be9 2.158668 1_455
Be0 Be2 2.158670 1_554
Be0 Be24 2.158670 1_445
Be0 Be25 2.158670 1_554
Be0 Be23 2.158670 1_445
Be0 Be13 2.158673 1_455
Be0 Be15 2.158673 1_544
Be0 Be11 2.158691 1_454
Be0 Be16 2.158691 1_545
Be1 Be21 2.158645 1_555
Be1 Be3 2.158645 1_555
Be1 Be22 2.158669 1_555
Be1 Be17 2.158669 1_555
Be1 Be7 2.158670 1_555
Be1 Be20 2.158670 1_555
Be1 Be19 2.158670 1_555
Be1 Be8 2.158670 1_555
Be1 Be6 2.158673 1_555
Be1 Be5 2.158673 1_555
Be1 Be4 2.158691 1_555
Be1 Be18 2.158693 1_555
Be2 Be9 2.252820 1_456
Be2 Be20 2.264012 1_555
Be2 Be5 2.282896 1_546
Be2 Be6 2.282917 1_555
Be2 Be25 2.339598 1_555
Be2 Th1 3.049343 1_545
Be2 Th0 3.049381 1_556
Be3 Be7 2.252787 1_555
Be3 Be6 2.252841 1_555
Be3 Th1 3.049399 1_555
Be3 Th0 3.049399 1_556
Be4 Be6 2.252772 1_555
Be4 Be8 2.252831 1_555
Be4 Be9 2.264091 1_555
Be4 Th1 3.049339 1_545
Be4 Th0 3.049339 1_655
Be5 Be7 2.252791 1_555
Be5 Be8 2.252821 1_555
Be5 Th1 3.049342 1_554
Be5 Th0 3.049382 1_565
Be6 Th0 3.049342 1_556
Be6 Th1 3.049382 1_545
Be7 Be8 2.339598 1_555
Be7 Th0 3.049343 1_565
Be7 Th1 3.049381 1_555
Be8 Be9 2.282901 1_555
Be8 Th0 3.049343 1_655
Be8 Th1 3.049381 1_554
Be9 Th0 3.049347 1_655
Be9 Th1 3.049379 1_554
Be10 Be23 2.252787 1_455
Be10 Be2 2.252787 1_564
Be10 Be13 2.252842 1_465
Be10 Be9 2.252844 1_465
Be10 Be5 2.263982 1_555
Be10 Be22 2.263983 1_555
Be10 Be18 2.282803 1_555
Be10 Be4 2.282996 1_465
Be10 Be16 2.339605 1_555
Be10 Th0 3.049399 1_565
Be10 Th1 3.049399 1_455
Be11 Be9 2.252766 1_556
Be11 Be13 2.252772 1_556
Be11 Be24 2.252831 1_546
Be11 Be25 2.252831 1_655
Be11 Be6 2.264085 1_555
Be11 Be17 2.264091 1_555
Be11 Be21 2.282797 1_556
Be11 Be3 2.282996 1_555
Be11 Be14 2.339605 1_555
Be11 Th1 3.049339 1_555
Be11 Th0 3.049339 1_556
Be12 Be16 2.252766 1_556
Be12 Be23 2.252784 1_456
Be12 Be24 2.252820 1_456
Be12 Be14 2.252844 1_465
Be12 Be3 2.263983 1_555
Be12 Be18 2.264085 1_555
Be12 Be19 2.282901 1_555
Be12 Be8 2.282916 1_456
Be12 Be15 2.339610 1_555
Be12 Th1 3.049347 1_455
Be12 Th0 3.049379 1_556
Be13 Be24 2.252791 1_545
Be13 Be23 2.252821 1_545
Be13 Be21 2.263982 1_555
Be13 Be4 2.264085 1_555
Be13 Be20 2.282896 1_555
Be13 Be7 2.282917 1_545
Be13 Be9 2.339610 1_555
Be13 Th1 3.049342 1_545
Be13 Th0 3.049382 1_555
Be14 Be25 2.252787 1_655
Be14 Be24 2.252787 1_546
Be14 Be15 2.252842 1_645
Be14 Be6 2.263982 1_555
Be14 Be17 2.263983 1_555
Be14 Be4 2.282797 1_555
Be14 Be18 2.282992 1_645
Be14 Th1 3.049399 1_545
Be14 Th0 3.049399 1_655
Be15 Be16 2.252772 1_556
Be15 Be2 2.252791 1_565
Be15 Be25 2.252821 1_565
Be15 Be3 2.263982 1_555
Be15 Be18 2.264079 1_555
Be15 Be7 2.282896 1_555
Be15 Be20 2.282917 1_565
Be15 Th0 3.049342 1_565
Be15 Th1 3.049382 1_555
Be16 Be2 2.252831 1_564
Be16 Be23 2.252831 1_455
Be16 Be5 2.264085 1_555
Be16 Be22 2.264091 1_555
Be16 Be3 2.282797 1_554
Be16 Be21 2.282996 1_555
Be16 Th0 3.049339 1_555
Be16 Th1 3.049339 1_554
Be17 Be4 2.252766 1_555
Be17 Be8 2.252784 1_555
Be17 Be7 2.252820 1_555
Be17 Be3 2.252844 1_555
Be17 Be25 2.282901 1_655
Be17 Be23 2.282916 1_555
Be17 Be6 2.339610 1_555
Be17 Th1 3.049347 1_555
Be17 Th0 3.049380 1_655
Be18 Be22 2.252771 1_555
Be18 Be5 2.252777 1_555
Be18 Be19 2.252829 1_555
Be18 Be7 2.252829 1_555
Be18 Be3 2.339600 1_555
Be18 Th0 3.049340 1_565
Be18 Th1 3.049340 1_455
Be19 Be22 2.252784 1_555
Be19 Be3 2.252787 1_555
Be19 Be6 2.252821 1_555
Be19 Be25 2.264012 1_555
Be19 Be2 2.264074 1_555
Be19 Be9 2.282916 1_456
Be19 Be20 2.339598 1_555
Be19 Th1 3.049343 1_455
Be19 Th0 3.049381 1_556
Be20 Be21 2.252787 1_555
Be20 Be6 2.252791 1_555
Be20 Be22 2.252820 1_555
Be20 Be4 2.252831 1_555
Be20 Be25 2.264074 1_555
Be20 Th1 3.049343 1_545
Be20 Th0 3.049381 1_555
Be21 Be8 2.252787 1_555
Be21 Be5 2.252841 1_555
Be21 Be22 2.252844 1_555
Be21 Be9 2.263983 1_555
Be21 Be4 2.339605 1_555
Be21 Th0 3.049399 1_555
Be21 Th1 3.049399 1_554
Be22 Be23 2.282901 1_455
Be22 Be25 2.282916 1_555
Be22 Be5 2.339610 1_555
Be22 Th0 3.049347 1_555
Be22 Th1 3.049380 1_455
Be23 Be8 2.264012 1_555
Be23 Be7 2.264074 1_555
Be23 Be24 2.339598 1_555
Be23 Th0 3.049343 1_655
Be23 Th1 3.049381 1_555
Be24 Be7 2.264012 1_555
Be24 Be8 2.264074 1_555
Be24 Be6 2.282896 1_564
Be24 Be5 2.282917 1_555
Be24 Th0 3.049343 1_565
Be24 Th1 3.049381 1_554
Be25 Be9 2.252784 1_456
Be25 Th1 3.049343 1_455
Be25 Th0 3.049381 1_555
