# generated using pymatgen
data_LaMg2Sc
_symmetry_space_group_name_H-M   'P 1'
_cell_length_a   12.22648664
_cell_length_b   13.08126162
_cell_length_c   13.08126149
_cell_angle_alpha   64.53346859
_cell_angle_beta   62.13898997
_cell_angle_gamma   62.13899076
_symmetry_Int_Tables_number   1
_chemical_formula_structural   LaMg2Sc
_chemical_formula_sum   'La1 Mg2 Sc1'
_cell_volume   1574.20474110
_cell_formula_units_Z   1
loop_
 _symmetry_equiv_pos_site_id
 _symmetry_equiv_pos_as_xyz
  1  'x, y, z'
loop_
 _atom_site_type_symbol
 _atom_site_label
 _atom_site_symmetry_multiplicity
 _atom_site_fract_x
 _atom_site_fract_y
 _atom_site_fract_z
 _atom_site_occupancy
  La  La0  1  0.50000000  0.00000000  0.00000000  1
  Mg  Mg0  1  0.75472022  0.00000000  0.00000000  1
  Mg  Mg1  1  0.24527978  -0.00000000  1.00000000  1
  Sc  Sc0  1  0.00000000  0.00000000  0.00000000  1
loop_
_geom_bond_atom_site_label_1
_geom_bond_atom_site_label_2
_geom_bond_distance
_geom_bond_site_symmetry_2
La0 Mg1 3.114333 1_554
La0 Mg0 3.114333 1_555
Mg0 Sc0 2.998910 1_655
Mg1 Sc0 2.998910 1_556
