# generated using pymatgen
data_CeB2Pd2C
_symmetry_space_group_name_H-M   'P 1'
_cell_length_a   5.98893521
_cell_length_b   5.98893521
_cell_length_c   5.98893521
_cell_angle_alpha   142.61113879
_cell_angle_beta   142.61113879
_cell_angle_gamma   53.90928801
_symmetry_Int_Tables_number   1
_chemical_formula_structural   CeB2Pd2C
_chemical_formula_sum   'Ce1 B2 Pd2 C1'
_cell_volume   78.68237674
_cell_formula_units_Z   1
loop_
 _symmetry_equiv_pos_site_id
 _symmetry_equiv_pos_as_xyz
  1  'x, y, z'
loop_
 _atom_site_type_symbol
 _atom_site_label
 _atom_site_symmetry_multiplicity
 _atom_site_fract_x
 _atom_site_fract_y
 _atom_site_fract_z
 _atom_site_occupancy
  Ce  Ce0  1  0.50000000  0.50000000  0.00000000  1
  B  B0  1  0.13827900  0.13827900  0.00000000  1
  B  B1  1  0.86172100  0.86172100  0.00000000  1
  Pd  Pd0  1  0.75000000  0.25000000  0.50000000  1
  Pd  Pd1  1  0.25000000  0.75000000  0.50000000  1
  C  C0  1  0.00000000  0.00000000  0.00000000  1
loop_
_geom_bond_atom_site_label_1
_geom_bond_atom_site_label_2
_geom_bond_distance
_geom_bond_site_symmetry_2
B0 C0 1.476358 1_555
B0 Pd0 2.259994 1_555
B0 Pd1 2.259994 1_555
B0 Pd1 2.259994 1_544
B0 Pd0 2.259994 1_454
B1 C0 1.476358 1_665
B1 Pd0 2.259994 1_565
B1 Pd1 2.259994 1_655
B1 Pd0 2.259994 1_554
B1 Pd1 2.259994 1_554
C0 Ce0 2.714695 1_444
C0 Ce0 2.714695 1_455
C0 Ce0 2.714695 1_556
C0 Ce0 2.714695 1_545
