# generated using pymatgen
data_NbV2Fe
_symmetry_space_group_name_H-M   'P 1'
_cell_length_a   9.97460690
_cell_length_b   9.97460690
_cell_length_c   9.97460690
_cell_angle_alpha   127.10264515
_cell_angle_beta   118.41962358
_cell_angle_gamma   85.45912579
_symmetry_Int_Tables_number   1
_chemical_formula_structural   NbV2Fe
_chemical_formula_sum   'Nb1 V2 Fe1'
_cell_volume   664.82170717
_cell_formula_units_Z   1
loop_
 _symmetry_equiv_pos_site_id
 _symmetry_equiv_pos_as_xyz
  1  'x, y, z'
loop_
 _atom_site_type_symbol
 _atom_site_label
 _atom_site_symmetry_multiplicity
 _atom_site_fract_x
 _atom_site_fract_y
 _atom_site_fract_z
 _atom_site_occupancy
  Nb  Nb0  1  0.00000000  0.50000000  0.50000000  1
  V  V0  1  0.00000000  0.24858600  0.24858600  1
  V  V1  1  0.00000000  0.75141400  0.75141400  1
  Fe  Fe0  1  0.00000000  0.00000000  0.00000000  1
loop_
_geom_bond_atom_site_label_1
_geom_bond_atom_site_label_2
_geom_bond_distance
_geom_bond_site_symmetry_2
Nb0 V0 2.233889 1_555
Nb0 V1 2.233889 1_555
Fe0 V1 2.208761 1_544
Fe0 V0 2.208761 1_555
