# generated using pymatgen
data_Sr3LaCu2HgBiO10
_symmetry_space_group_name_H-M   'P 1'
_cell_length_a   3.82846519
_cell_length_b   7.74024454
_cell_length_c   9.59161012
_cell_angle_alpha   66.12025687
_cell_angle_beta   90.04643004
_cell_angle_gamma   89.80225043
_symmetry_Int_Tables_number   1
_chemical_formula_structural   Sr3LaCu2HgBiO10
_chemical_formula_sum   'Sr3 La1 Cu2 Hg1 Bi1 O10'
_cell_volume   259.89738291
_cell_formula_units_Z   1
loop_
 _symmetry_equiv_pos_site_id
 _symmetry_equiv_pos_as_xyz
  1  'x, y, z'
loop_
 _atom_site_type_symbol
 _atom_site_label
 _atom_site_symmetry_multiplicity
 _atom_site_fract_x
 _atom_site_fract_y
 _atom_site_fract_z
 _atom_site_occupancy
  Sr  Sr0  1  0.49667900  0.10422400  0.29769000  1
  Sr  Sr1  1  0.49816500  0.60132200  0.29362900  1
  Sr  Sr2  1  0.49741200  0.89840200  0.69827400  1
  La  La0  1  0.49985700  0.40159800  0.69836900  1
  Cu  Cu0  1  0.99790900  0.24552900  0.50795100  1
  Cu  Cu1  1  0.99757600  0.75457900  0.49356900  1
  Hg  Hg0  1  0.99532800  0.49743000  0.00369200  1
  Bi  Bi0  1  0.95766600  0.99654700  0.99984000  1
  O  O0  1  0.00356600  0.39395000  0.23560000  1
  O  O1  1  0.99681300  0.49327300  0.51614700  1
  O  O2  1  0.00096600  0.87543700  0.24569600  1
  O  O3  1  0.99639600  0.00319400  0.49404600  1
  O  O4  1  0.53382800  0.19345900  0.98888300  1
  O  O5  1  0.49802500  0.25158500  0.51014400  1
  O  O6  1  0.49758000  0.74331200  0.50153500  1
  O  O7  1  0.52434400  0.81867600  0.99488500  1
  O  O8  1  0.00311900  0.13296800  0.74908300  1
  O  O9  1  0.00476900  0.59451600  0.77096600  1
loop_
_geom_bond_atom_site_label_1
_geom_bond_atom_site_label_2
_geom_bond_distance
_geom_bond_site_symmetry_2
La0 O1 2.487713 1_555
La0 O1 2.499670 1_455
La0 O5 2.510968 1_555
La0 O6 2.552854 1_555
La0 O4 2.596212 1_555
La0 O9 2.670523 1_555
La0 O9 2.703853 1_655
La0 O8 2.717810 1_555
La0 O8 2.724729 1_655
Cu0 O5 1.914542 1_555
Cu0 O5 1.915719 1_655
Cu0 O3 1.933601 1_555
Cu0 O1 1.950738 1_555
Cu0 O8 2.115906 1_655
Cu0 O0 2.390564 1_655
Cu1 O6 1.915986 1_655
Cu1 O6 1.916681 1_555
Cu1 O3 1.926187 1_565
Cu1 O1 1.945025 1_555
Cu1 O2 2.174217 1_655
Cu1 O9 2.438381 1_655
Hg0 O0 2.036565 1_655
Hg0 O9 2.047194 1_654
Bi0 O2 2.162327 1_656
Bi0 O7 2.172210 1_555
Bi0 O4 2.195455 1_565
Bi0 O8 2.208123 1_665
Bi0 O7 2.576243 1_655
Bi0 O4 2.663379 1_665
O0 Sr1 2.685948 1_555
O0 Sr1 2.708077 1_455
O0 Sr0 2.799178 1_555
O0 Sr0 2.846093 1_455
O1 Sr1 2.726975 1_555
O1 Sr1 2.740688 1_655
O2 Sr1 2.741775 1_555
O2 Sr1 2.767375 1_455
O2 Sr0 2.779045 1_565
O2 Sr0 2.793753 1_465
O3 Sr0 2.571021 1_555
O3 Sr0 2.578914 1_655
O3 Sr2 2.621270 1_645
O3 Sr2 2.621996 1_545
O4 Sr0 2.759613 1_556
O5 Sr2 2.595291 1_545
O5 Sr1 2.662576 1_555
O5 Sr0 2.708398 1_555
O6 Sr2 2.614579 1_555
O6 Sr1 2.637985 1_555
O6 Sr0 2.684113 1_565
O7 Sr2 2.657630 1_555
O7 Sr1 2.673899 1_556
O8 Sr2 2.794489 1_545
O8 Sr2 2.832212 1_445
O9 Sr2 2.877664 1_555
O9 Sr2 2.903469 1_455
