# generated using pymatgen
data_Ca3B3N5
_symmetry_space_group_name_H-M   'P 1'
_cell_length_a   5.62670766
_cell_length_b   6.25087128
_cell_length_c   7.83470421
_cell_angle_alpha   109.68187315
_cell_angle_beta   111.30658595
_cell_angle_gamma   90.60769280
_symmetry_Int_Tables_number   1
_chemical_formula_structural   Ca3B3N5
_chemical_formula_sum   'Ca6 B6 N10'
_cell_volume   238.93364046
_cell_formula_units_Z   2
loop_
 _symmetry_equiv_pos_site_id
 _symmetry_equiv_pos_as_xyz
  1  'x, y, z'
loop_
 _atom_site_type_symbol
 _atom_site_label
 _atom_site_symmetry_multiplicity
 _atom_site_fract_x
 _atom_site_fract_y
 _atom_site_fract_z
 _atom_site_occupancy
  Ca  Ca0  1  0.84575500  0.39122200  0.60428500  1
  Ca  Ca1  1  0.15424500  0.60877800  0.39571500  1
  Ca  Ca2  1  0.63851700  0.85150300  0.85935800  1
  Ca  Ca3  1  0.36148300  0.14849700  0.14064200  1
  Ca  Ca4  1  0.62641300  0.68888500  0.20813400  1
  Ca  Ca5  1  0.37358700  0.31111500  0.79186600  1
  B  B0  1  0.93304100  0.32575900  0.97408300  1
  B  B1  1  0.06695900  0.67424100  0.02591700  1
  B  B2  1  0.68280400  0.96200700  0.57329500  1
  B  B3  1  0.31719600  0.03799300  0.42670500  1
  B  B4  1  0.01701900  0.86584400  0.74921000  1
  B  B5  1  0.98298100  0.13415600  0.25079000  1
  N  N0  1  0.93831100  0.10482400  0.78852300  1
  N  N1  1  0.06168900  0.89517600  0.21147700  1
  N  N2  1  0.81998800  0.73749800  0.54874000  1
  N  N3  1  0.18001200  0.26250200  0.45126000  1
  N  N4  1  0.78619200  0.51846700  0.91132400  1
  N  N5  1  0.21380800  0.48153300  0.08867600  1
  N  N6  1  0.41808900  0.95140600  0.59929400  1
  N  N7  1  0.58191100  0.04859400  0.40070600  1
  N  N8  1  0.18606000  0.76217000  0.88716400  1
  N  N9  1  0.81394000  0.23783000  0.11283600  1
loop_
_geom_bond_atom_site_label_1
_geom_bond_atom_site_label_2
_geom_bond_distance
_geom_bond_site_symmetry_2
Ca0 N7 2.290346 1_555
Ca0 N2 2.343262 1_555
Ca0 N4 2.415449 1_555
Ca0 N3 2.577405 1_655
Ca0 N0 2.602661 1_555
Ca0 N8 2.704655 1_655
Ca1 N6 2.290346 1_555
Ca1 N3 2.343262 1_555
Ca1 N5 2.415449 1_555
Ca1 N2 2.577405 1_455
Ca1 N1 2.602661 1_555
Ca1 N9 2.704655 1_455
Ca2 N6 2.262035 1_555
Ca2 N4 2.356205 1_555
Ca2 N9 2.458522 1_566
Ca2 N8 2.701006 1_555
Ca3 N7 2.262035 1_555
Ca3 N5 2.356205 1_555
Ca3 N8 2.458522 1_544
Ca3 N9 2.701006 1_555
Ca4 N7 2.322955 1_565
Ca4 N5 2.342173 1_555
Ca4 N2 2.394648 1_555
Ca4 N4 2.687303 1_554
Ca4 N1 2.743277 1_655
Ca4 N9 2.972870 1_555
Ca4 N8 2.990787 1_554
Ca5 N6 2.322955 1_545
Ca5 N4 2.342173 1_555
Ca5 N3 2.394648 1_555
Ca5 N5 2.687303 1_556
Ca5 N0 2.743277 1_455
Ca5 N8 2.972870 1_555
Ca5 N9 2.990787 1_556
B0 N4 1.581257 1_555
B0 N5 1.611740 1_656
B0 N0 1.643617 1_555
B0 N9 1.690276 1_556
B1 N5 1.581257 1_555
B1 N4 1.611740 1_454
B1 N1 1.643617 1_555
B1 N8 1.690276 1_554
B2 N7 1.544432 1_565
B2 N6 1.578575 1_555
B2 N2 1.597289 1_555
B2 N0 1.704200 1_565
B3 N6 1.544432 1_545
B3 N7 1.578575 1_555
B3 N3 1.597289 1_555
B3 N1 1.704200 1_545
B4 N2 1.485441 1_455
B4 N8 1.493533 1_555
B4 N0 1.525048 1_465
B5 N3 1.485441 1_655
B5 N9 1.493533 1_555
B5 N1 1.525048 1_645
