# generated using pymatgen
data_Mn3Cu(SeO3)4
_symmetry_space_group_name_H-M   'P 1'
_cell_length_a   5.24118767
_cell_length_b   6.13905676
_cell_length_c   7.87858438
_cell_angle_alpha   89.70076005
_cell_angle_beta   90.83364172
_cell_angle_gamma   91.62477102
_symmetry_Int_Tables_number   1
_chemical_formula_structural   Mn3Cu(SeO3)4
_chemical_formula_sum   'Mn3 Cu1 Se4 O12'
_cell_volume   253.36925083
_cell_formula_units_Z   1
loop_
 _symmetry_equiv_pos_site_id
 _symmetry_equiv_pos_as_xyz
  1  'x, y, z'
loop_
 _atom_site_type_symbol
 _atom_site_label
 _atom_site_symmetry_multiplicity
 _atom_site_fract_x
 _atom_site_fract_y
 _atom_site_fract_z
 _atom_site_occupancy
  Mn  Mn0  1  0.50000000  0.00000000  0.50000000  1
  Mn  Mn1  1  0.00000000  0.50000000  0.50000000  1
  Mn  Mn2  1  0.50000000  0.00000000  0.00000000  1
  Cu  Cu0  1  0.00000000  0.50000000  0.00000000  1
  Se  Se0  1  0.50915800  0.52974900  0.24376100  1
  Se  Se1  1  0.98418700  0.03427600  0.24479400  1
  Se  Se2  1  0.49084200  0.47025100  0.75623900  1
  Se  Se3  1  0.01581300  0.96572400  0.75520600  1
  O  O0  1  0.61748400  0.69499200  0.07979300  1
  O  O1  1  0.86900300  0.18235400  0.41624400  1
  O  O2  1  0.37116900  0.31733500  0.58278900  1
  O  O3  1  0.12139000  0.80121200  0.92570000  1
  O  O4  1  0.38251600  0.30500800  0.92020700  1
  O  O5  1  0.13099700  0.81764600  0.58375600  1
  O  O6  1  0.62883100  0.68266500  0.41721100  1
  O  O7  1  0.87861000  0.19878800  0.07430000  1
  O  O8  1  0.17652200  0.57500500  0.24453500  1
  O  O9  1  0.31320900  0.08019700  0.25172000  1
  O  O10  1  0.82347800  0.42499500  0.75546500  1
  O  O11  1  0.68679100  0.91980300  0.74828000  1
loop_
_geom_bond_atom_site_label_1
_geom_bond_atom_site_label_2
_geom_bond_distance
_geom_bond_site_symmetry_2
Mn0 O6 2.185703 1_545
Mn0 O2 2.185703 1_555
Mn0 O11 2.233540 1_545
Mn0 O9 2.233540 1_555
Mn0 O5 2.309920 1_545
Mn0 O1 2.309920 1_555
Mn1 O5 2.152638 1_555
Mn1 O1 2.152638 1_455
Mn1 O10 2.267004 1_455
Mn1 O8 2.267004 1_555
Mn1 O2 2.355113 1_555
Mn1 O6 2.355113 1_455
Mn2 O4 2.079014 1_554
Mn2 O0 2.079014 1_545
Mn2 O11 2.286470 1_544
Mn2 O9 2.286470 1_555
Mn2 O7 2.367703 1_555
Mn2 O3 2.367703 1_544
Cu0 O3 2.024760 1_554
Cu0 O7 2.024760 1_455
Cu0 O8 2.170940 1_555
Cu0 O10 2.170940 1_454
Cu0 O4 2.455236 1_554
Cu0 O0 2.455236 1_455
O0 Se0 1.730682 1_555
O1 Se1 1.755886 1_555
O2 Se2 1.759883 1_555
O3 Se3 1.768165 1_555
O4 Se2 1.730682 1_555
O5 Se3 1.755886 1_555
O6 Se0 1.759883 1_555
O7 Se1 1.768165 1_555
O8 Se0 1.773271 1_555
O9 Se1 1.739566 1_455
O10 Se2 1.773271 1_555
O11 Se3 1.739566 1_655
