# generated using pymatgen
data_SrCaLaBiO6
_symmetry_space_group_name_H-M   'P 1'
_cell_length_a   5.90678172
_cell_length_b   6.12880050
_cell_length_c   8.51658274
_cell_angle_alpha   90.00106692
_cell_angle_beta   89.91709250
_cell_angle_gamma   89.99943309
_symmetry_Int_Tables_number   1
_chemical_formula_structural   SrCaLaBiO6
_chemical_formula_sum   'Sr2 Ca2 La2 Bi2 O12'
_cell_volume   308.31263481
_cell_formula_units_Z   2
loop_
 _symmetry_equiv_pos_site_id
 _symmetry_equiv_pos_as_xyz
  1  'x, y, z'
loop_
 _atom_site_type_symbol
 _atom_site_label
 _atom_site_symmetry_multiplicity
 _atom_site_fract_x
 _atom_site_fract_y
 _atom_site_fract_z
 _atom_site_occupancy
  Sr  Sr0  1  0.98810155  0.04964262  0.24827899  1
  Sr  Sr1  1  0.48808984  0.45035436  0.74826967  1
  Ca  Ca0  1  0.50155167  0.00616021  0.99968437  1
  Ca  Ca1  1  0.00154172  0.49384098  0.49968072  1
  La  La0  1  0.51869535  0.56050353  0.24872109  1
  La  La1  1  0.01869647  0.93949605  0.74870403  1
  Bi  Bi0  1  0.00149869  0.49771567  0.99988692  1
  Bi  Bi1  1  0.50153470  0.00223570  0.49986079  1
  O  O0  1  0.16954678  0.20059219  0.93698371  1
  O  O1  1  0.30687556  0.71770774  0.56331350  1
  O  O2  1  0.80688453  0.78228904  0.06331585  1
  O  O3  1  0.66955149  0.29942636  0.43697856  1
  O  O4  1  0.28786277  0.69633609  0.94451826  1
  O  O5  1  0.20100522  0.17936716  0.56121847  1
  O  O6  1  0.70098118  0.32064493  0.06119090  1
  O  O7  1  0.78782687  0.80369628  0.44451402  1
  O  O8  1  0.39804086  0.94609572  0.26092236  1
  O  O9  1  0.12681648  0.45669879  0.23650590  1
  O  O10  1  0.62684372  0.04329805  0.73652435  1
  O  O11  1  0.89805456  0.55389852  0.76092753  1
loop_
_geom_bond_atom_site_label_1
_geom_bond_atom_site_label_2
_geom_bond_distance
_geom_bond_site_symmetry_2
Ca0 O6 2.319216 1_556
Ca0 O4 2.328365 1_545
Ca0 O2 2.330617 1_546
Ca0 O8 2.335684 1_546
Ca0 O0 2.356690 1_555
Ca0 O10 2.370194 1_555
Ca1 O5 2.319320 1_555
Ca1 O7 2.328599 1_455
Ca1 O1 2.330618 1_555
Ca1 O11 2.335698 1_455
Ca1 O3 2.356577 1_455
Ca1 O9 2.370275 1_555
La0 O9 2.402983 1_555
La0 O6 2.421993 1_555
La0 O3 2.434976 1_555
La0 O8 2.470476 1_555
La0 O2 2.689054 1_555
La0 O7 2.745326 1_555
La0 O4 3.045402 1_554
La0 O1 3.108422 1_555
La1 O10 2.402806 1_465
La1 O5 2.421898 1_565
La1 O0 2.435137 1_565
La1 O11 2.470511 1_455
La1 O1 2.688905 1_555
La1 O4 2.745464 1_555
La1 O7 3.045334 1_455
La1 O2 3.108590 1_456
Bi0 O4 2.136138 1_555
Bi0 O0 2.141674 1_555
Bi0 O6 2.144444 1_456
Bi0 O11 2.153424 1_455
Bi0 O2 2.157140 1_456
Bi0 O9 2.162506 1_556
Bi1 O7 2.135449 1_545
Bi1 O3 2.141927 1_555
Bi1 O5 2.144775 1_555
Bi1 O8 2.153287 1_545
Bi1 O1 2.157142 1_545
Bi1 O10 2.162867 1_555
O0 Sr1 2.908254 1_555
O0 Sr0 3.004188 1_456
O1 Sr1 2.513321 1_555
O2 Sr0 2.513342 1_565
O3 Sr0 2.908231 1_555
O3 Sr1 3.004114 1_555
O4 Sr1 2.541489 1_555
O5 Sr1 2.859972 1_555
O5 Sr0 3.053917 1_455
O6 Sr0 2.860342 1_555
O6 Sr1 3.053746 1_554
O7 Sr0 2.541466 1_565
O8 Sr0 2.505663 1_465
O9 Sr0 2.627750 1_455
O10 Sr1 2.627795 1_555
O11 Sr1 2.505820 1_555
