# generated using pymatgen
data_KMgNi2H3(SeO5)2
_symmetry_space_group_name_H-M   'P 1'
_cell_length_a   5.85338227
_cell_length_b   5.82077947
_cell_length_c   9.37010518
_cell_angle_alpha   74.59684114
_cell_angle_beta   74.22373520
_cell_angle_gamma   61.21467803
_symmetry_Int_Tables_number   1
_chemical_formula_structural   KMgNi2H3(SeO5)2
_chemical_formula_sum   'K1 Mg1 Ni2 H3 Se2 O10'
_cell_volume   265.80575771
_cell_formula_units_Z   1
loop_
 _symmetry_equiv_pos_site_id
 _symmetry_equiv_pos_as_xyz
  1  'x, y, z'
loop_
 _atom_site_type_symbol
 _atom_site_label
 _atom_site_symmetry_multiplicity
 _atom_site_fract_x
 _atom_site_fract_y
 _atom_site_fract_z
 _atom_site_occupancy
  K  K0  1  0.46808800  0.47342100  0.51978000  1
  Mg  Mg0  1  0.02599800  0.02542300  0.12313600  1
  Ni  Ni0  1  0.03040400  0.55999200  0.95322600  1
  Ni  Ni1  1  0.55934300  0.03363200  0.95391800  1
  H  H0  1  0.80325500  0.79846400  0.66742400  1
  H  H1  1  0.27427000  0.28722400  0.18840000  1
  H  H2  1  0.62264400  0.62058400  0.85380800  1
  Se  Se0  1  0.83457100  0.83072400  0.39644600  1
  Se  Se1  1  0.07686400  0.07722300  0.75558800  1
  O  O0  1  0.88553100  0.87532600  0.56527100  1
  O  O1  1  0.19409000  0.19238400  0.58798900  1
  O  O2  1  0.15303600  0.71402500  0.30129900  1
  O  O3  1  0.72246100  0.15129700  0.30489600  1
  O  O4  1  0.74208700  0.22662100  0.78198400  1
  O  O5  1  0.22533300  0.74122800  0.78163000  1
  O  O6  1  0.72128500  0.72208300  0.84204000  1
  O  O7  1  0.24060000  0.24492500  0.10432000  1
  O  O8  1  0.85518500  0.85885300  0.05991700  1
  O  O9  1  0.16271800  0.16433600  0.88992500  1
loop_
_geom_bond_atom_site_label_1
_geom_bond_atom_site_label_2
_geom_bond_distance
_geom_bond_site_symmetry_2
K0 O1 2.659067 1_555
K0 O3 2.733757 1_555
K0 O2 2.756026 1_555
K0 O5 2.910643 1_555
K0 O4 2.953144 1_555
K0 O0 3.055972 1_455
K0 O0 3.139723 1_545
K0 Se0 3.454650 1_555
Mg0 O8 1.962493 1_445
Mg0 O3 2.087566 1_455
Mg0 O2 2.096387 1_545
Mg0 O7 2.132371 1_555
Mg0 O9 2.191584 1_554
Ni0 O8 1.930175 1_456
Ni0 O6 2.026884 1_455
Ni0 O5 2.064120 1_555
Ni0 O7 2.067937 1_556
Ni0 O9 2.239120 1_555
Ni1 O8 1.929254 1_546
Ni1 O6 2.024886 1_545
Ni1 O4 2.064059 1_555
Ni1 O7 2.064164 1_556
Ni1 O9 2.267549 1_555
H0 O0 1.038100 1_555
H0 O6 1.580211 1_555
H1 O7 0.976912 1_555
H2 O6 0.976663 1_555
O0 Se0 1.791128 1_555
O1 Se1 1.638351 1_555
O2 Se0 1.711629 1_455
O3 Se0 1.710238 1_545
O4 Se1 1.693202 1_655
O5 Se1 1.692542 1_565
O9 Se1 1.738548 1_555
