# generated using pymatgen
data_CoBr3N5
_symmetry_space_group_name_H-M   'P 1'
_cell_length_a   6.66706600
_cell_length_b   7.12823600
_cell_length_c   15.67730600
_cell_angle_alpha   90.00000000
_cell_angle_beta   90.00000000
_cell_angle_gamma   90.00000000
_symmetry_Int_Tables_number   1
_chemical_formula_structural   CoBr3N5
_chemical_formula_sum   'Co4 Br12 N20'
_cell_volume   745.05487286
_cell_formula_units_Z   4
loop_
 _symmetry_equiv_pos_site_id
 _symmetry_equiv_pos_as_xyz
  1  'x, y, z'
loop_
 _atom_site_type_symbol
 _atom_site_label
 _atom_site_symmetry_multiplicity
 _atom_site_fract_x
 _atom_site_fract_y
 _atom_site_fract_z
 _atom_site_occupancy
  Co  Co0  1  0.28466100  0.75000000  0.13707100  1
  Co  Co1  1  0.21533900  0.75000000  0.63707100  1
  Co  Co2  1  0.71533900  0.25000000  0.86292900  1
  Co  Co3  1  0.78466100  0.25000000  0.36292900  1
  Br  Br0  1  0.67289200  0.75000000  0.92290100  1
  Br  Br1  1  0.82710800  0.75000000  0.42290100  1
  Br  Br2  1  0.32710800  0.25000000  0.07709900  1
  Br  Br3  1  0.17289200  0.25000000  0.57709900  1
  Br  Br4  1  0.54951200  0.47567000  0.63095900  1
  Br  Br5  1  0.95048800  0.02433000  0.13095900  1
  Br  Br6  1  0.45048800  0.97567000  0.36904100  1
  Br  Br7  1  0.04951200  0.52433000  0.86904100  1
  Br  Br8  1  0.45048800  0.52433000  0.36904100  1
  Br  Br9  1  0.04951200  0.97567000  0.86904100  1
  Br  Br10  1  0.54951200  0.02433000  0.63095900  1
  Br  Br11  1  0.95048800  0.47567000  0.13095900  1
  N  N0  1  0.14739300  0.75000000  0.91397900  1
  N  N1  1  0.35260700  0.75000000  0.41397900  1
  N  N2  1  0.85260700  0.25000000  0.08602100  1
  N  N3  1  0.64739300  0.25000000  0.58602100  1
  N  N4  1  0.10178100  0.75000000  0.20970300  1
  N  N5  1  0.39821900  0.75000000  0.70970300  1
  N  N6  1  0.89821900  0.25000000  0.79029700  1
  N  N7  1  0.60178100  0.25000000  0.29029700  1
  N  N8  1  0.50978500  0.75000000  0.17109300  1
  N  N9  1  0.99021500  0.75000000  0.67109300  1
  N  N10  1  0.49021500  0.25000000  0.82890700  1
  N  N11  1  0.00978500  0.25000000  0.32890700  1
  N  N12  1  0.21510100  0.96338600  0.07934400  1
  N  N13  1  0.28489900  0.53661400  0.57934400  1
  N  N14  1  0.78489900  0.46338600  0.92065600  1
  N  N15  1  0.71510100  0.03661400  0.42065600  1
  N  N16  1  0.78489900  0.03661400  0.92065600  1
  N  N17  1  0.71510100  0.46338600  0.42065600  1
  N  N18  1  0.21510100  0.53661400  0.07934400  1
  N  N19  1  0.28489900  0.96338600  0.57934400  1
loop_
_geom_bond_atom_site_label_1
_geom_bond_atom_site_label_2
_geom_bond_distance
_geom_bond_site_symmetry_2
Co0 N8 1.592871 1_555
Co0 N4 1.668294 1_555
Co0 N12 1.829685 1_555
Co0 N18 1.829685 1_555
Co1 N9 1.592871 1_455
Co1 N5 1.668294 1_555
Co1 N19 1.829685 1_555
Co1 N13 1.829685 1_555
Co2 N10 1.592871 1_555
Co2 N6 1.668294 1_555
Co2 N14 1.829685 1_555
Co2 N16 1.829685 1_555
Co3 N11 1.592871 1_655
Co3 N7 1.668294 1_555
Co3 N17 1.829685 1_555
Co3 N15 1.829685 1_555
Br0 N16 2.175534 1_565
Br0 N14 2.175534 1_555
Br1 N15 2.175534 1_565
Br1 N17 2.175534 1_555
Br2 N18 2.175534 1_555
Br2 N12 2.175534 1_545
Br3 N13 2.175534 1_555
Br3 N19 2.175534 1_545
Br4 N3 1.873466 1_555
Br4 N13 1.988939 1_555
Br4 N5 2.522964 1_555
Br5 N2 1.873466 1_555
Br5 N12 1.988939 1_645
Br5 N4 2.522964 1_645
Br6 N1 1.873466 1_555
Br6 N15 1.988939 1_565
Br6 N7 2.522964 1_565
Br7 N0 1.873466 1_555
Br7 N14 1.988939 1_455
Br7 N6 2.522964 1_455
Br8 N1 1.873466 1_555
Br8 N17 1.988939 1_555
Br8 N7 2.522964 1_555
Br9 N0 1.873466 1_555
Br9 N16 1.988939 1_465
Br9 N6 2.522964 1_465
Br10 N3 1.873466 1_555
Br10 N19 1.988939 1_545
Br10 N5 2.522964 1_545
Br11 N2 1.873466 1_555
Br11 N18 1.988939 1_655
Br11 N4 2.522964 1_655
