# generated using pymatgen
data_Yb4MgMnS8
_symmetry_space_group_name_H-M   'P 1'
_cell_length_a   7.82803835
_cell_length_b   7.82803835
_cell_length_c   7.82803835
_cell_angle_alpha   60.00000000
_cell_angle_beta   60.00000000
_cell_angle_gamma   60.00000000
_symmetry_Int_Tables_number   1
_chemical_formula_structural   Yb4MgMnS8
_chemical_formula_sum   'Yb4 Mg1 Mn1 S8'
_cell_volume   339.19062167
_cell_formula_units_Z   1
loop_
 _symmetry_equiv_pos_site_id
 _symmetry_equiv_pos_as_xyz
  1  'x, y, z'
loop_
 _atom_site_type_symbol
 _atom_site_label
 _atom_site_symmetry_multiplicity
 _atom_site_fract_x
 _atom_site_fract_y
 _atom_site_fract_z
 _atom_site_occupancy
  Yb  Yb0  1  0.63831600  0.12056100  0.12056100  1
  Yb  Yb1  1  0.12056100  0.63831600  0.12056100  1
  Yb  Yb2  1  0.12056100  0.12056100  0.63831600  1
  Yb  Yb3  1  0.12056100  0.12056100  0.12056100  1
  Mg  Mg0  1  0.75000000  0.75000000  0.75000000  1
  Mn  Mn0  1  0.50000000  0.50000000  0.50000000  1
  S  S0  1  0.36715100  0.87761600  0.87761600  1
  S  S1  1  0.87761600  0.36715100  0.87761600  1
  S  S2  1  0.87761600  0.87761600  0.36715100  1
  S  S3  1  0.87761600  0.87761600  0.87761600  1
  S  S4  1  0.83167600  0.38944100  0.38944100  1
  S  S5  1  0.38944100  0.83167600  0.38944100  1
  S  S6  1  0.38944100  0.38944100  0.83167600  1
  S  S7  1  0.38944100  0.38944100  0.38944100  1
loop_
_geom_bond_atom_site_label_1
_geom_bond_atom_site_label_2
_geom_bond_distance
_geom_bond_site_symmetry_2
Mg0 S3 2.446998 1_555
Mg0 S1 2.447005 1_555
Mg0 S2 2.447005 1_555
Mg0 S0 2.447005 1_555
Mn0 S5 2.119929 1_555
Mn0 S4 2.119929 1_555
Mn0 S6 2.119929 1_555
Mn0 S7 2.119936 1_555
S0 Yb1 2.689678 1_556
S0 Yb3 2.689678 1_566
S0 Yb2 2.689678 1_565
S1 Yb0 2.689678 1_556
S1 Yb2 2.689678 1_655
S1 Yb3 2.689678 1_656
S2 Yb3 2.689678 1_665
S2 Yb0 2.689678 1_565
S2 Yb1 2.689678 1_655
S3 Yb2 2.689678 1_665
S3 Yb1 2.689678 1_656
S3 Yb0 2.689678 1_566
S4 Yb2 2.980757 1_655
S4 Yb1 2.980757 1_655
S4 Yb3 2.980757 1_655
S5 Yb0 2.980757 1_565
S5 Yb2 2.980757 1_565
S5 Yb3 2.980757 1_565
S6 Yb0 2.980757 1_556
S6 Yb1 2.980757 1_556
S6 Yb3 2.980757 1_556
S7 Yb2 2.980757 1_555
S7 Yb0 2.980757 1_555
S7 Yb1 2.980757 1_555
