# generated using pymatgen
data_Sr3Bi3N5
_symmetry_space_group_name_H-M   'P 1'
_cell_length_a   6.41207569
_cell_length_b   7.06214504
_cell_length_c   10.96060195
_cell_angle_alpha   103.20244698
_cell_angle_beta   93.72419407
_cell_angle_gamma   91.86957797
_symmetry_Int_Tables_number   1
_chemical_formula_structural   Sr3Bi3N5
_chemical_formula_sum   'Sr6 Bi6 N10'
_cell_volume   481.61452852
_cell_formula_units_Z   2
loop_
 _symmetry_equiv_pos_site_id
 _symmetry_equiv_pos_as_xyz
  1  'x, y, z'
loop_
 _atom_site_type_symbol
 _atom_site_label
 _atom_site_symmetry_multiplicity
 _atom_site_fract_x
 _atom_site_fract_y
 _atom_site_fract_z
 _atom_site_occupancy
  Sr  Sr0  1  0.77072000  0.38932400  0.55237200  1
  Sr  Sr1  1  0.22928000  0.61067600  0.44762800  1
  Sr  Sr2  1  0.65852500  0.79908000  0.88628600  1
  Sr  Sr3  1  0.34147500  0.20092000  0.11371400  1
  Sr  Sr4  1  0.68345200  0.78864500  0.27161400  1
  Sr  Sr5  1  0.31654800  0.21135500  0.72838600  1
  Bi  Bi0  1  0.87845800  0.28837300  0.90026200  1
  Bi  Bi1  1  0.12154200  0.71162700  0.09973800  1
  Bi  Bi2  1  0.72854000  0.93168900  0.59801700  1
  Bi  Bi3  1  0.27146000  0.06831100  0.40198300  1
  Bi  Bi4  1  0.16553800  0.74111200  0.77502600  1
  Bi  Bi5  1  0.83446200  0.25888800  0.22497400  1
  N  N0  1  0.94840900  0.98431200  0.77063100  1
  N  N1  1  0.05159100  0.01568800  0.22936900  1
  N  N2  1  0.83250200  0.68567000  0.46855700  1
  N  N3  1  0.16749800  0.31433000  0.53144300  1
  N  N4  1  0.66583500  0.41063400  0.78589200  1
  N  N5  1  0.33416500  0.58936600  0.21410800  1
  N  N6  1  0.42558000  0.85020900  0.68204500  1
  N  N7  1  0.57442000  0.14979100  0.31795500  1
  N  N8  1  0.30185600  0.84007800  0.97028500  1
  N  N9  1  0.69814400  0.15992200  0.02971500  1
loop_
_geom_bond_atom_site_label_1
_geom_bond_atom_site_label_2
_geom_bond_distance
_geom_bond_site_symmetry_2
Bi0 N4 2.127171 1_555
Bi0 N9 2.214840 1_556
Bi0 N0 2.362823 1_545
Bi1 N5 2.127171 1_555
Bi1 N8 2.214840 1_554
Bi1 N1 2.362823 1_565
Bi2 N2 2.132786 1_555
Bi2 N0 2.236811 1_555
Bi2 N6 2.314005 1_555
Bi3 N3 2.132786 1_555
Bi3 N1 2.236811 1_555
Bi3 N7 2.314005 1_555
Bi4 N8 2.206046 1_555
Bi4 N6 2.215418 1_555
Bi4 N0 2.252916 1_455
Bi5 N9 2.206046 1_555
Bi5 N7 2.215418 1_555
Bi5 N1 2.252916 1_655
N0 Sr2 2.770928 1_555
N0 Sr5 2.931144 1_665
N1 Sr3 2.770928 1_555
N1 Sr4 2.931144 1_445
N2 Sr0 2.500450 1_555
N2 Sr4 2.568322 1_555
N2 Sr1 2.629479 1_655
N3 Sr1 2.500450 1_555
N3 Sr5 2.568322 1_555
N3 Sr0 2.629479 1_455
N4 Sr5 2.568987 1_555
N4 Sr0 2.660894 1_555
N4 Sr2 2.715648 1_555
N5 Sr4 2.568987 1_555
N5 Sr1 2.660894 1_555
N5 Sr3 2.715648 1_555
N6 Sr5 2.611966 1_565
N6 Sr2 2.709759 1_555
N6 Sr1 2.915996 1_555
N7 Sr4 2.611966 1_545
N7 Sr3 2.709759 1_555
N7 Sr0 2.915996 1_555
N8 Sr2 2.521264 1_555
N8 Sr3 2.665671 1_566
N9 Sr3 2.521264 1_555
N9 Sr2 2.665671 1_544
