# generated using pymatgen
data_Ba6Y2Fe4O15
_symmetry_space_group_name_H-M   'P 1'
_cell_length_a   5.99300379
_cell_length_b   8.06644855
_cell_length_c   18.50938436
_cell_angle_alpha   88.79110681
_cell_angle_beta   90.00000000
_cell_angle_gamma   90.00000000
_symmetry_Int_Tables_number   1
_chemical_formula_structural   Ba6Y2Fe4O15
_chemical_formula_sum   'Ba12 Y4 Fe8 O30'
_cell_volume   894.58624950
_cell_formula_units_Z   2
loop_
 _symmetry_equiv_pos_site_id
 _symmetry_equiv_pos_as_xyz
  1  'x, y, z'
loop_
 _atom_site_type_symbol
 _atom_site_label
 _atom_site_symmetry_multiplicity
 _atom_site_fract_x
 _atom_site_fract_y
 _atom_site_fract_z
 _atom_site_occupancy
  Ba  Ba0  1  0.28217591  0.00000000  0.25000000  1
  Ba  Ba1  1  0.71782409  0.00000000  0.75000000  1
  Ba  Ba2  1  0.33145143  0.50000000  0.25000000  1
  Ba  Ba3  1  0.66854857  0.50000000  0.75000000  1
  Ba  Ba4  1  0.74974158  0.97499541  0.08946100  1
  Ba  Ba5  1  0.74974158  0.02500459  0.41053900  1
  Ba  Ba6  1  0.25025842  0.02500459  0.91053900  1
  Ba  Ba7  1  0.25025842  0.97499541  0.58946100  1
  Ba  Ba8  1  0.24647931  0.50042754  0.57711772  1
  Ba  Ba9  1  0.24647931  0.49957246  0.92288228  1
  Ba  Ba10  1  0.75352069  0.49957246  0.42288228  1
  Ba  Ba11  1  0.75352069  0.50042754  0.07711772  1
  Y  Y0  1  0.25204025  0.75390559  0.40946501  1
  Y  Y1  1  0.25204025  0.24609441  0.09053499  1
  Y  Y2  1  0.74795975  0.24609441  0.59053499  1
  Y  Y3  1  0.74795975  0.75390559  0.90946501  1
  Fe  Fe0  1  0.25316253  0.75451703  0.06010934  1
  Fe  Fe1  1  0.25316253  0.24548297  0.43989066  1
  Fe  Fe2  1  0.74683747  0.24548297  0.93989066  1
  Fe  Fe3  1  0.74683747  0.75451703  0.56010934  1
  Fe  Fe4  1  0.77600471  0.76893341  0.26553245  1
  Fe  Fe5  1  0.77600471  0.23106659  0.23446755  1
  Fe  Fe6  1  0.22399529  0.23106659  0.73446755  1
  Fe  Fe7  1  0.22399529  0.76893341  0.76553245  1
  O  O0  1  0.80012503  0.00000000  0.25000000  1
  O  O1  1  0.19987497  0.00000000  0.75000000  1
  O  O2  1  0.76571631  0.95848076  0.60813659  1
  O  O3  1  0.76571631  0.04151924  0.89186341  1
  O  O4  1  0.23428369  0.04151924  0.39186341  1
  O  O5  1  0.23428369  0.95848076  0.10813659  1
  O  O6  1  0.24300122  0.52898501  0.08880307  1
  O  O7  1  0.24300122  0.47101499  0.41119693  1
  O  O8  1  0.75699878  0.47101499  0.91119693  1
  O  O9  1  0.75699878  0.52898501  0.58880307  1
  O  O10  1  0.05240971  0.72346533  0.30752963  1
  O  O11  1  0.05240971  0.27653467  0.19247037  1
  O  O12  1  0.94759029  0.27653467  0.69247037  1
  O  O13  1  0.94759029  0.72346533  0.80752963  1
  O  O14  1  0.55506976  0.74883518  0.33802111  1
  O  O15  1  0.55506976  0.25116482  0.16197889  1
  O  O16  1  0.44493024  0.25116482  0.66197889  1
  O  O17  1  0.44493024  0.74883518  0.83802111  1
  O  O18  1  0.48913661  0.76634635  0.50208328  1
  O  O19  1  0.48913661  0.23365365  0.99791672  1
  O  O20  1  0.51086339  0.23365365  0.49791672  1
  O  O21  1  0.51086339  0.76634635  0.00208328  1
  O  O22  1  0.01542942  0.76786382  0.99235092  1
  O  O23  1  0.01542942  0.23213618  0.50764908  1
  O  O24  1  0.98457058  0.23213618  0.00764908  1
  O  O25  1  0.98457058  0.76786382  0.49235092  1
  O  O26  1  0.34132666  0.69401316  0.68089685  1
  O  O27  1  0.34132666  0.30598684  0.81910315  1
  O  O28  1  0.65867334  0.30598684  0.31910315  1
  O  O29  1  0.65867334  0.69401316  0.18089685  1
loop_
_geom_bond_atom_site_label_1
_geom_bond_atom_site_label_2
_geom_bond_distance
_geom_bond_site_symmetry_2
Ba0 O5 2.669551 1_545
Ba0 O4 2.669551 1_555
Ba0 O11 2.811684 1_555
Ba0 O10 2.811684 1_545
Ba0 O0 2.888933 1_455
Ba0 O14 3.048686 1_545
Ba0 O15 3.048686 1_555
Ba0 O0 3.104071 1_555
Ba1 O3 2.669551 1_555
Ba1 O2 2.669551 1_545
Ba1 O13 2.811684 1_545
Ba1 O12 2.811684 1_555
Ba1 O1 2.888933 1_655
Ba1 O17 3.048686 1_545
Ba1 O16 3.048686 1_555
Ba1 O1 3.104071 1_555
Ba2 O11 2.694572 1_555
Ba2 O10 2.694572 1_555
Ba2 O28 2.801147 1_555
Ba2 O29 2.801147 1_555
Ba2 O15 2.935514 1_555
Ba2 O14 2.935514 1_555
Ba2 O7 3.034538 1_555
Ba2 O6 3.034538 1_555
Ba3 O12 2.694572 1_555
Ba3 O13 2.694572 1_555
Ba3 O26 2.801147 1_555
Ba3 O27 2.801147 1_555
Ba3 O16 2.935514 1_555
Ba3 O17 2.935514 1_555
Ba3 O8 3.034538 1_555
Ba3 O9 3.034538 1_555
Ba4 O21 2.759111 1_555
Ba4 O29 2.852622 1_555
Ba4 O15 2.872565 1_565
Ba4 O24 2.905766 1_565
Ba4 O5 2.927065 1_655
Ba4 O22 2.946945 1_654
Ba4 O0 2.997804 1_565
Ba4 O19 3.084549 1_564
Ba4 O5 3.110962 1_555
Ba5 O20 2.759111 1_555
Ba5 O28 2.852622 1_555
Ba5 O14 2.872565 1_545
Ba5 O25 2.905766 1_545
Ba5 O4 2.927065 1_655
Ba5 O23 2.946945 1_655
Ba5 O0 2.997804 1_555
Ba5 O18 3.084549 1_545
Ba5 O4 3.110962 1_555
Ba6 O19 2.759111 1_555
Ba6 O27 2.852622 1_555
Ba6 O17 2.872565 1_545
Ba6 O22 2.905766 1_545
Ba6 O3 2.927065 1_455
Ba6 O24 2.946945 1_456
Ba6 O1 2.997804 1_555
Ba6 O21 3.084549 1_546
Ba6 O3 3.110962 1_555
Ba7 O18 2.759111 1_555
Ba7 O26 2.852622 1_555
Ba7 O16 2.872565 1_565
Ba7 O23 2.905766 1_565
Ba7 O2 2.927065 1_455
Ba7 O25 2.946945 1_455
Ba7 O1 2.997804 1_565
Ba7 O20 3.084549 1_565
Ba7 O2 3.110962 1_555
Ba8 O26 2.564744 1_555
Ba8 O16 2.791267 1_555
Ba8 O23 2.893386 1_555
Ba8 O18 2.918753 1_555
Ba8 O9 2.950784 1_455
Ba8 O20 3.069756 1_555
Ba8 O25 3.071867 1_455
Ba8 O9 3.076161 1_555
Ba8 O7 3.085300 1_555
Ba8 O12 3.296397 1_455
Ba9 O27 2.564744 1_555
Ba9 O17 2.791267 1_555
Ba9 O22 2.893386 1_555
Ba9 O19 2.918753 1_555
Ba9 O8 2.950784 1_455
Ba9 O21 3.069756 1_556
Ba9 O24 3.071867 1_456
Ba9 O8 3.076161 1_555
Ba9 O6 3.085300 1_556
Ba9 O13 3.296397 1_455
Ba10 O28 2.564744 1_555
Ba10 O14 2.791267 1_555
Ba10 O25 2.893386 1_555
Ba10 O20 2.918753 1_555
Ba10 O7 2.950784 1_655
Ba10 O18 3.069756 1_555
Ba10 O23 3.071867 1_655
Ba10 O7 3.076161 1_555
Ba10 O9 3.085300 1_555
Ba10 O10 3.296397 1_655
Ba11 O29 2.564744 1_555
Ba11 O15 2.791267 1_555
Ba11 O24 2.893386 1_555
Ba11 O21 2.918753 1_555
Ba11 O6 2.950784 1_655
Ba11 O19 3.069756 1_554
Ba11 O22 3.071867 1_654
Ba11 O6 3.076161 1_555
Ba11 O8 3.085300 1_554
Ba11 O11 3.296397 1_655
Fe0 O21 1.882417 1_555
Fe0 O6 1.885379 1_555
Fe0 O5 1.889880 1_555
Fe0 O22 1.899657 1_554
Fe1 O20 1.882417 1_555
Fe1 O7 1.885379 1_555
Fe1 O4 1.889880 1_555
Fe1 O23 1.899657 1_555
Fe2 O19 1.882417 1_555
Fe2 O8 1.885379 1_555
Fe2 O3 1.889880 1_555
Fe2 O24 1.899657 1_556
Fe3 O18 1.882417 1_555
Fe3 O9 1.885379 1_555
Fe3 O2 1.889880 1_555
Fe3 O25 1.899657 1_555
Fe4 O29 1.831313 1_555
Fe4 O10 1.862989 1_655
Fe4 O0 1.885474 1_565
Fe4 O14 1.889567 1_555
Fe5 O28 1.831313 1_555
Fe5 O11 1.862989 1_655
Fe5 O0 1.885474 1_555
Fe5 O15 1.889567 1_555
Fe6 O27 1.831313 1_555
Fe6 O12 1.862989 1_455
Fe6 O1 1.885474 1_555
Fe6 O16 1.889567 1_555
Fe7 O26 1.831313 1_555
Fe7 O13 1.862989 1_455
Fe7 O1 1.885474 1_565
Fe7 O17 1.889567 1_555
O2 Y2 2.338390 1_565
O3 Y3 2.338390 1_545
O4 Y0 2.338390 1_545
O5 Y1 2.338390 1_565
O6 Y1 2.282114 1_555
O7 Y0 2.282114 1_555
O8 Y3 2.282114 1_555
O9 Y2 2.282114 1_555
O10 Y0 2.251899 1_555
O11 Y1 2.251899 1_555
O12 Y2 2.251899 1_555
O13 Y3 2.251899 1_555
O14 Y0 2.247379 1_555
O15 Y1 2.247379 1_555
O16 Y2 2.247379 1_555
O17 Y3 2.247379 1_555
O18 Y0 2.230514 1_555
O19 Y1 2.230514 1_556
O20 Y2 2.230514 1_555
O21 Y3 2.230514 1_554
O22 Y3 2.223302 1_455
O23 Y2 2.223302 1_455
O24 Y1 2.223302 1_655
O25 Y0 2.223302 1_655
