# generated using pymatgen
data_Ga3P6O31
_symmetry_space_group_name_H-M   'P 1'
_cell_length_a   8.70553100
_cell_length_b   8.71304423
_cell_length_c   17.28807932
_cell_angle_alpha   89.94911327
_cell_angle_beta   89.89813867
_cell_angle_gamma   60.02851667
_symmetry_Int_Tables_number   1
_chemical_formula_structural   Ga3P6O31
_chemical_formula_sum   'Ga6 P12 O62'
_cell_volume   1135.96931721
_cell_formula_units_Z   2
loop_
 _symmetry_equiv_pos_site_id
 _symmetry_equiv_pos_as_xyz
  1  'x, y, z'
loop_
 _atom_site_type_symbol
 _atom_site_label
 _atom_site_symmetry_multiplicity
 _atom_site_fract_x
 _atom_site_fract_y
 _atom_site_fract_z
 _atom_site_occupancy
  Ga  Ga0  1  0.99704000  0.00228700  0.06210900  1
  Ga  Ga1  1  0.99932700  0.99771300  0.56210900  1
  Ga  Ga2  1  0.66674200  0.66637900  0.92917100  1
  Ga  Ga3  1  0.33312100  0.33362100  0.42917100  1
  Ga  Ga4  1  0.66714900  0.66685100  0.20268600  1
  Ga  Ga5  1  0.33400000  0.33314900  0.70268600  1
  P  P0  1  0.54125000  0.43192300  0.82939200  1
  P  P1  1  0.43275400  0.02693800  0.82951600  1
  P  P2  1  0.02743500  0.54034600  0.82960300  1
  P  P3  1  0.97317300  0.56807700  0.32939200  1
  P  P4  1  0.45969200  0.97306200  0.32951600  1
  P  P5  1  0.56778200  0.45965400  0.32960300  1
  P  P6  1  0.67838800  0.39498000  0.06545200  1
  P  P7  1  0.39269500  0.92642800  0.06530200  1
  P  P8  1  0.92652800  0.68084200  0.06491700  1
  P  P9  1  0.07336800  0.60502000  0.56545200  1
  P  P10  1  0.31912300  0.07357200  0.56530200  1
  P  P11  1  0.60737000  0.31915800  0.56491700  1
  O  O0  1  0.39968300  0.47818900  0.76709300  1
  O  O1  1  0.47893500  0.12255100  0.76726500  1
  O  O2  1  0.12308300  0.39912900  0.76719200  1
  O  O3  1  0.87787200  0.52181100  0.26709300  1
  O  O4  1  0.60148600  0.87744900  0.26726500  1
  O  O5  1  0.52221100  0.60087100  0.26719200  1
  O  O6  1  0.73386700  0.30235600  0.80096100  1
  O  O7  1  0.30322300  0.96414100  0.80123400  1
  O  O8  1  0.96369700  0.73336800  0.80146500  1
  O  O9  1  0.03622400  0.69764400  0.30096100  1
  O  O10  1  0.26736400  0.03585900  0.30123400  1
  O  O11  1  0.69706500  0.26663200  0.30146500  1
  O  O12  1  0.51722400  0.33180100  0.89897800  1
  O  O13  1  0.33135000  0.15108800  0.89902400  1
  O  O14  1  0.15128500  0.51708100  0.89903400  1
  O  O15  1  0.84902500  0.66819900  0.39897800  1
  O  O16  1  0.48243800  0.84891200  0.39902400  1
  O  O17  1  0.66836600  0.48291900  0.39903400  1
  O  O18  1  0.52337100  0.60496300  0.86084200  1
  O  O19  1  0.60576800  0.87154500  0.86095000  1
  O  O20  1  0.87171600  0.52279400  0.86082400  1
  O  O21  1  0.12833300  0.39503700  0.36084200  1
  O  O22  1  0.47731400  0.12845500  0.36095000  1
  O  O23  1  0.39451100  0.47720600  0.36082400  1
  O  O24  1  0.73503400  0.45136700  0.99192700  1
  O  O25  1  0.45159200  0.81312400  0.99195700  1
  O  O26  1  0.81273900  0.73543100  0.99165500  1
  O  O27  1  0.18640000  0.54863300  0.49192700  1
  O  O28  1  0.26471600  0.18687600  0.49195700  1
  O  O29  1  0.54817000  0.26456900  0.49165500  1
  O  O30  1  0.77541500  0.18609300  0.06652200  1
  O  O31  1  0.18387400  0.03612300  0.06632900  1
  O  O32  1  0.03696700  0.77947600  0.06517000  1
  O  O33  1  0.96150900  0.81390700  0.56652200  1
  O  O34  1  0.21999600  0.96387700  0.56632900  1
  O  O35  1  0.81644300  0.22052400  0.56517000  1
  O  O36  1  0.73098200  0.45463800  0.13942700  1
  O  O37  1  0.45382100  0.81586000  0.13969200  1
  O  O38  1  0.81571100  0.73154300  0.13931900  1
  O  O39  1  0.18562100  0.54536200  0.63942700  1
  O  O40  1  0.26968100  0.18414000  0.63969200  1
  O  O41  1  0.54725400  0.26845700  0.63931900  1
  O  O42  1  0.47568800  0.46666600  0.06613900  1
  O  O43  1  0.46294200  0.05913600  0.06572100  1
  O  O44  1  0.05847800  0.47777800  0.06549400  1
  O  O45  1  0.94235300  0.53333500  0.56613900  1
  O  O46  1  0.52207800  0.94086400  0.56572100  1
  O  O47  1  0.53625600  0.52222200  0.56549400  1
  O  O48  1  0.09485200  0.89966600  0.90043100  1
  O  O49  1  0.90446100  0.99863500  0.91427700  1
  O  O50  1  0.00822300  0.08947300  0.91455900  1
  O  O51  1  0.99451800  0.10033400  0.40043100  1
  O  O52  1  0.90309600  0.00136500  0.41427700  1
  O  O53  1  0.09769600  0.91052700  0.41455900  1
  O  O54  1  0.76711900  0.09351500  0.20103300  1
  O  O55  1  0.09213100  0.14401400  0.20015600  1
  O  O56  1  0.14134700  0.76319500  0.20071300  1
  O  O57  1  0.86063400  0.90648500  0.70103300  1
  O  O58  1  0.23614500  0.85598600  0.70015600  1
  O  O59  1  0.90454300  0.23680500  0.70071300  1
  O  O60  1  0.33195800  0.33515300  0.10836700  1
  O  O61  1  0.66711100  0.66484700  0.60836700  1
loop_
_geom_bond_atom_site_label_1
_geom_bond_atom_site_label_2
_geom_bond_distance
_geom_bond_site_symmetry_2
Ga0 O30 1.790408 1_555
Ga0 O31 1.793673 1_655
Ga0 O32 1.793928 1_645
Ga1 O33 1.790403 1_555
Ga1 O34 1.793665 1_655
Ga1 O35 1.793928 1_565
Ga2 O20 1.977389 1_555
Ga2 O18 1.978196 1_555
Ga2 O26 1.978469 1_555
Ga2 O19 1.979587 1_555
Ga2 O25 1.980812 1_555
Ga2 O24 1.981428 1_555
Ga3 O23 1.977394 1_555
Ga3 O21 1.978202 1_555
Ga3 O29 1.978469 1_555
Ga3 O22 1.979589 1_555
Ga3 O28 1.980812 1_555
Ga3 O27 1.981429 1_555
Ga4 O5 1.970984 1_555
Ga4 O3 1.972454 1_555
Ga4 O4 1.973225 1_555
Ga4 O36 1.974466 1_555
Ga4 O38 1.978057 1_555
Ga4 O37 1.978941 1_555
Ga5 O2 1.970977 1_555
Ga5 O0 1.972454 1_555
Ga5 O1 1.973225 1_555
Ga5 O39 1.974465 1_555
Ga5 O41 1.978056 1_555
Ga5 O40 1.978941 1_555
O0 P0 1.532617 1_555
O1 P1 1.531457 1_555
O2 P2 1.531982 1_555
O3 P3 1.532617 1_555
O4 P4 1.531457 1_555
O5 P5 1.531980 1_555
O6 P0 1.560288 1_555
O7 P1 1.558492 1_565
O8 P2 1.562089 1_655
O9 P3 1.560294 1_455
O10 P4 1.558492 1_545
O11 P5 1.562087 1_555
O12 P0 1.559342 1_555
O13 P1 1.561361 1_555
O14 P2 1.558895 1_555
O15 P3 1.559342 1_555
O16 P4 1.561361 1_555
O17 P5 1.558889 1_555
O18 P0 1.536135 1_555
O19 P1 1.536601 1_565
O20 P2 1.535189 1_655
O21 P3 1.536131 1_455
O22 P4 1.536605 1_545
O23 P5 1.535189 1_555
O24 P6 1.529379 1_556
O25 P7 1.529536 1_556
O26 P8 1.531115 1_556
O27 P9 1.529375 1_555
O28 P10 1.529536 1_555
O29 P11 1.531115 1_555
O30 P6 1.578084 1_555
O31 P7 1.575591 1_545
O32 P8 1.577499 1_455
O33 P9 1.578083 1_655
O34 P10 1.575598 1_565
O35 P11 1.577499 1_555
O36 P6 1.535067 1_555
O37 P7 1.534031 1_555
O38 P8 1.533334 1_555
O39 P9 1.535071 1_555
O40 P10 1.534031 1_555
O41 P11 1.533334 1_555
O42 P6 1.550106 1_555
O43 P7 1.554855 1_545
O44 P8 1.555446 1_455
O45 P9 1.550108 1_655
O46 P10 1.554855 1_565
O47 P11 1.555446 1_555
O48 O50 1.455118 1_565
O48 O49 1.455672 1_455
O49 O50 1.468592 1_665
O51 O53 1.455118 1_645
O51 O52 1.455673 1_555
O52 O53 1.468592 1_645
