# generated using pymatgen
data_VNiAs
_symmetry_space_group_name_H-M   'P 1'
_cell_length_a   3.69975700
_cell_length_b   6.02454600
_cell_length_c   7.12059400
_cell_angle_alpha   90.00000000
_cell_angle_beta   90.00000000
_cell_angle_gamma   90.00000000
_symmetry_Int_Tables_number   1
_chemical_formula_structural   VNiAs
_chemical_formula_sum   'V4 Ni4 As4'
_cell_volume   158.71345627
_cell_formula_units_Z   4
loop_
 _symmetry_equiv_pos_site_id
 _symmetry_equiv_pos_as_xyz
  1  'x, y, z'
loop_
 _atom_site_type_symbol
 _atom_site_label
 _atom_site_symmetry_multiplicity
 _atom_site_fract_x
 _atom_site_fract_y
 _atom_site_fract_z
 _atom_site_occupancy
  V  V0  1  0.75000000  0.97317300  0.67004800  1
  V  V1  1  0.75000000  0.47317300  0.82995200  1
  V  V2  1  0.25000000  0.02682700  0.32995200  1
  V  V3  1  0.25000000  0.52682700  0.17004800  1
  Ni  Ni0  1  0.75000000  0.85375100  0.06350300  1
  Ni  Ni1  1  0.75000000  0.35375100  0.43649700  1
  Ni  Ni2  1  0.25000000  0.14624900  0.93649700  1
  Ni  Ni3  1  0.25000000  0.64624900  0.56350300  1
  As  As0  1  0.75000000  0.74007100  0.37648900  1
  As  As1  1  0.75000000  0.24007100  0.12351100  1
  As  As2  1  0.25000000  0.25992900  0.62351100  1
  As  As3  1  0.25000000  0.75992900  0.87648900  1
loop_
_geom_bond_atom_site_label_1
_geom_bond_atom_site_label_2
_geom_bond_distance
_geom_bond_site_symmetry_2
Ni0 V3 2.806568 1_655
Ni0 V3 2.806568 1_555
Ni0 V1 2.832423 1_554
Ni0 V2 2.847619 1_565
Ni0 V2 2.847619 1_665
Ni0 V0 2.892538 1_554
Ni1 V2 2.806568 1_555
Ni1 V2 2.806568 1_655
Ni1 V0 2.832423 1_545
Ni1 V3 2.847619 1_655
Ni1 V3 2.847619 1_555
Ni1 V1 2.892538 1_555
Ni2 V1 2.806568 1_455
Ni2 V1 2.806568 1_555
Ni2 V3 2.832423 1_556
Ni2 V0 2.847619 1_445
Ni2 V0 2.847619 1_545
Ni2 V2 2.892538 1_556
Ni3 V0 2.806568 1_455
Ni3 V0 2.806568 1_555
Ni3 V2 2.832423 1_565
Ni3 V1 2.847619 1_455
Ni3 V1 2.847619 1_555
Ni3 V3 2.892538 1_555
As0 Ni0 2.331504 1_555
As0 Ni3 2.348369 1_655
As0 Ni3 2.348369 1_555
As0 Ni1 2.366301 1_555
As0 V0 2.518247 1_555
As0 V2 2.552718 1_665
As0 V2 2.552718 1_565
As0 V3 2.689489 1_555
As0 V3 2.689489 1_655
As1 Ni1 2.331504 1_555
As1 Ni2 2.348369 1_654
As1 Ni2 2.348369 1_554
As1 Ni0 2.366301 1_545
As1 V1 2.518247 1_554
As1 V3 2.552718 1_655
As1 V3 2.552718 1_555
As1 V2 2.689489 1_555
As1 V2 2.689489 1_655
As2 Ni2 2.331504 1_555
As2 Ni1 2.348369 1_455
As2 Ni1 2.348369 1_555
As2 Ni3 2.366301 1_555
As2 V2 2.518247 1_555
As2 V0 2.552718 1_445
As2 V0 2.552718 1_545
As2 V1 2.689489 1_555
As2 V1 2.689489 1_455
As3 Ni3 2.331504 1_555
As3 Ni0 2.348369 1_556
As3 Ni0 2.348369 1_456
As3 Ni2 2.366301 1_565
As3 V3 2.518247 1_556
As3 V1 2.552718 1_455
As3 V1 2.552718 1_555
As3 V0 2.689489 1_555
As3 V0 2.689489 1_455
