# generated using pymatgen
data_GdFeNi4
_symmetry_space_group_name_H-M   'P 1'
_cell_length_a   3.95266900
_cell_length_b   4.95294178
_cell_length_c   4.91986738
_cell_angle_alpha   120.10466020
_cell_angle_beta   90.00000000
_cell_angle_gamma   90.00000000
_symmetry_Int_Tables_number   1
_chemical_formula_structural   GdFeNi4
_chemical_formula_sum   'Gd1 Fe1 Ni4'
_cell_volume   83.32565068
_cell_formula_units_Z   1
loop_
 _symmetry_equiv_pos_site_id
 _symmetry_equiv_pos_as_xyz
  1  'x, y, z'
loop_
 _atom_site_type_symbol
 _atom_site_label
 _atom_site_symmetry_multiplicity
 _atom_site_fract_x
 _atom_site_fract_y
 _atom_site_fract_z
 _atom_site_occupancy
  Gd  Gd0  1  0.00000000  0.99978100  0.99976200  1
  Fe  Fe0  1  0.00000000  0.33334600  0.66707900  1
  Ni  Ni0  1  0.00000000  0.66664000  0.33312700  1
  Ni  Ni1  1  0.50000000  0.50020200  0.00040100  1
  Ni  Ni2  1  0.50000000  0.50013900  0.49978600  1
  Ni  Ni3  1  0.50000000  0.99979200  0.49984500  1
loop_
_geom_bond_atom_site_label_1
_geom_bond_atom_site_label_2
_geom_bond_distance
_geom_bond_site_symmetry_2
Gd0 Ni0 2.837356 1_555
Gd0 Ni0 2.850850 1_556
Gd0 Ni0 2.857434 1_566
Gd0 Ni3 3.155202 1_455
Gd0 Ni3 3.155202 1_555
Gd0 Ni3 3.155796 1_456
Gd0 Ni3 3.155796 1_556
Gd0 Ni2 3.158191 1_455
Gd0 Ni2 3.158191 1_555
Gd0 Ni2 3.159677 1_566
Gd0 Ni2 3.159677 1_466
Gd0 Ni1 3.168011 1_556
Gd0 Ni1 3.168011 1_456
Gd0 Ni1 3.168806 1_466
Gd0 Ni1 3.168806 1_566
Fe0 Ni1 2.432819 1_456
Fe0 Ni1 2.432819 1_556
Fe0 Ni2 2.438829 1_455
Fe0 Ni2 2.438829 1_555
Fe0 Ni3 2.438979 1_545
Fe0 Ni3 2.438979 1_445
Fe0 Ni0 2.834862 1_556
Fe0 Gd0 2.840259 1_544
Fe0 Gd0 2.849768 1_545
Fe0 Ni0 2.854007 1_555
Fe0 Gd0 2.855631 1_555
Fe0 Ni0 2.856761 1_545
Ni0 Ni1 2.431340 1_455
Ni0 Ni1 2.431340 1_555
Ni0 Ni2 2.436514 1_455
Ni0 Ni2 2.436514 1_555
Ni0 Ni3 2.437975 1_555
Ni0 Ni3 2.437975 1_455
Ni1 Ni2 2.457064 1_555
Ni1 Ni3 2.461963 1_555
Ni1 Ni2 2.462803 1_554
Ni1 Ni3 2.466714 1_544
Ni2 Ni3 2.474607 1_555
Ni2 Ni3 2.478335 1_545
