# generated using pymatgen
data_CaMn2O4
_symmetry_space_group_name_H-M   'P 1'
_cell_length_a   6.30433193
_cell_length_b   10.70878365
_cell_length_c   6.34762025
_cell_angle_alpha   75.12819257
_cell_angle_beta   60.21642908
_cell_angle_gamma   90.00512430
_symmetry_Int_Tables_number   1
_chemical_formula_structural   CaMn2O4
_chemical_formula_sum   'Ca4 Mn8 O16'
_cell_volume   355.29159585
_cell_formula_units_Z   4
loop_
 _symmetry_equiv_pos_site_id
 _symmetry_equiv_pos_as_xyz
  1  'x, y, z'
loop_
 _atom_site_type_symbol
 _atom_site_label
 _atom_site_symmetry_multiplicity
 _atom_site_fract_x
 _atom_site_fract_y
 _atom_site_fract_z
 _atom_site_occupancy
  Ca  Ca0  1  0.01637500  0.01107500  0.96753200  1
  Ca  Ca1  1  0.51650700  0.51129000  0.96741100  1
  Ca  Ca2  1  0.93641500  0.31132300  0.12711300  1
  Ca  Ca3  1  0.43609000  0.81111400  0.12770900  1
  Mn  Mn0  1  0.43726100  0.31440300  0.62085900  1
  Mn  Mn1  1  0.93634400  0.81348600  0.62183200  1
  Mn  Mn2  1  0.68604400  0.06047200  0.62761400  1
  Mn  Mn3  1  0.18592700  0.56075600  0.62822900  1
  Mn  Mn4  1  0.94232500  0.31449400  0.62064700  1
  Mn  Mn5  1  0.44174700  0.81349500  0.62196000  1
  Mn  Mn6  1  0.85916500  0.61264300  0.28172500  1
  Mn  Mn7  1  0.35965300  0.11359700  0.28042000  1
  O  O0  1  0.56167600  0.16620500  0.87507400  1
  O  O1  1  0.06254900  0.66564800  0.87451100  1
  O  O2  1  0.30375200  0.45764000  0.39325700  1
  O  O3  1  0.80386100  0.95706200  0.39291600  1
  O  O4  1  0.55836400  0.18249400  0.42903900  1
  O  O5  1  0.05932000  0.68227500  0.43080300  1
  O  O6  1  0.77738700  0.40947100  0.44536200  1
  O  O7  1  0.27767100  0.91069800  0.44463400  1
  O  O8  1  0.01233400  0.18258900  0.42924600  1
  O  O9  1  0.50992900  0.68233000  0.43077600  1
  O  O10  1  0.87783100  0.44020900  0.81575600  1
  O  O11  1  0.37683800  0.93964100  0.81655600  1
  O  O12  1  0.10101600  0.22289100  0.79777000  1
  O  O13  1  0.60069300  0.72264600  0.79854400  1
  O  O14  1  0.30650500  0.44023300  0.81595600  1
  O  O15  1  0.80641400  0.93982100  0.81676000  1
loop_
_geom_bond_atom_site_label_1
_geom_bond_atom_site_label_2
_geom_bond_distance
_geom_bond_site_symmetry_2
Ca0 O12 2.182873 1_555
Ca0 O11 2.209261 1_545
Ca0 O15 2.209850 1_445
Ca0 O3 2.241592 1_446
Ca1 O13 2.177783 1_555
Ca1 O10 2.212001 1_555
Ca1 O14 2.212652 1_555
Ca1 O2 2.244262 1_556
Ca2 O12 2.281504 1_654
Ca2 O6 2.295381 1_555
Ca2 O14 2.296123 1_654
Ca2 O10 2.296188 1_554
Ca2 O4 2.315404 1_555
Ca2 O8 2.315706 1_655
Ca3 O13 2.280855 1_554
Ca3 O15 2.295901 1_554
Ca3 O11 2.296191 1_554
Ca3 O7 2.299382 1_555
Ca3 O5 2.311701 1_555
Ca3 O9 2.312444 1_555
Mn0 O12 1.945464 1_555
Mn0 O14 1.967611 1_555
Mn0 O6 1.979827 1_555
Mn0 O4 2.005093 1_555
Mn0 O2 2.284568 1_555
Mn0 O0 2.383444 1_555
Mn1 O13 1.940025 1_555
Mn1 O15 1.971004 1_555
Mn1 O7 1.993319 1_655
Mn1 O5 1.996646 1_655
Mn1 O3 2.287375 1_555
Mn1 O1 2.382550 1_655
Mn2 O3 1.935237 1_545
Mn2 O11 1.947559 1_545
Mn2 O15 1.948262 1_545
Mn2 O0 2.013390 1_555
Mn2 O4 2.026547 1_555
Mn2 O8 2.026855 1_655
Mn3 O2 1.934079 1_555
Mn3 O10 1.941629 1_455
Mn3 O14 1.942731 1_555
Mn3 O1 2.001046 1_555
Mn3 O9 2.014129 1_555
Mn3 O5 2.014391 1_555
Mn4 O12 1.943890 1_655
Mn4 O10 1.966530 1_555
Mn4 O6 1.980491 1_555
Mn4 O8 2.003617 1_655
Mn4 O2 2.285026 1_655
Mn4 O0 2.391938 1_555
Mn5 O13 1.939904 1_555
Mn5 O11 1.967879 1_555
Mn5 O7 1.993966 1_555
Mn5 O9 1.996829 1_555
Mn5 O3 2.289915 1_555
Mn5 O1 2.383439 1_555
Mn6 O6 2.094331 1_555
Mn6 O5 2.142903 1_655
Mn6 O9 2.143088 1_555
Mn6 O1 2.145177 1_654
Mn7 O7 2.092063 1_545
Mn7 O4 2.129519 1_555
Mn7 O8 2.129861 1_555
Mn7 O0 2.135415 1_554
