# generated using pymatgen
data_Na3Re2N5
_symmetry_space_group_name_H-M   'P 1'
_cell_length_a   9.90732352
_cell_length_b   12.60120415
_cell_length_c   8.66305445
_cell_angle_alpha   90.00023871
_cell_angle_beta   64.07405205
_cell_angle_gamma   129.48938612
_symmetry_Int_Tables_number   1
_chemical_formula_structural   Na3Re2N5
_chemical_formula_sum   'Na12 Re8 N20'
_cell_volume   687.80413647
_cell_formula_units_Z   4
loop_
 _symmetry_equiv_pos_site_id
 _symmetry_equiv_pos_as_xyz
  1  'x, y, z'
loop_
 _atom_site_type_symbol
 _atom_site_label
 _atom_site_symmetry_multiplicity
 _atom_site_fract_x
 _atom_site_fract_y
 _atom_site_fract_z
 _atom_site_occupancy
  Na  Na0  1  0.55489700  0.67978200  0.94494000  1
  Na  Na1  1  0.44510700  0.32022300  0.49983000  1
  Na  Na2  1  0.80466200  0.62488200  0.07004800  1
  Na  Na3  1  0.19533800  0.37511500  0.87472200  1
  Na  Na4  1  0.61745100  0.23633300  0.77233700  1
  Na  Na5  1  0.38253700  0.76366600  0.38979200  1
  Na  Na6  1  0.85520800  0.11888100  0.40345200  1
  Na  Na7  1  0.14479600  0.88112200  0.25865500  1
  Na  Na8  1  0.99999900  0.00000300  0.57469300  1
  Na  Na9  1  0.00000200  0.50000100  0.82468100  1
  Na  Na10  1  0.99999800  0.50000200  0.24867500  1
  Na  Na11  1  0.00000000  0.00000400  0.99865700  1
  Re  Re0  1  0.22276800  0.44141500  0.44072000  1
  Re  Re1  1  0.77721600  0.55857700  0.66348600  1
  Re  Re2  1  0.66006500  0.71864300  0.47207500  1
  Re  Re3  1  0.33994600  0.28136500  0.13211500  1
  Re  Re4  1  0.41003500  0.79251400  0.77461900  1
  Re  Re5  1  0.58996000  0.20748000  0.18466100  1
  Re  Re6  1  0.17498900  0.88246900  0.64213900  1
  Re  Re7  1  0.82500400  0.11751700  0.81714300  1
  N  N0  1  0.27308000  0.56570700  0.27762900  1
  N  N1  1  0.72691500  0.43428500  0.55071300  1
  N  N2  1  0.85832800  0.79262000  0.23500000  1
  N  N3  1  0.14166200  0.20737100  0.09335100  1
  N  N4  1  0.95581800  0.84966100  0.81063900  1
  N  N5  1  0.04419300  0.15034100  0.76644900  1
  N  N6  1  0.74350300  0.39384900  0.16678800  1
  N  N7  1  0.25649200  0.60614800  0.91031500  1
  N  N8  1  0.30301600  0.34070400  0.32871700  1
  N  N9  1  0.69700100  0.65930400  0.63173100  1
  N  N10  1  0.37839900  0.53769000  0.54101900  1
  N  N11  1  0.62161500  0.46230900  0.91942100  1
  N  N12  1  0.24705200  0.81793900  0.77018500  1
  N  N13  1  0.75294200  0.18205700  0.01723600  1
  N  N14  1  0.38883400  0.07089000  0.44927700  1
  N  N15  1  0.61117200  0.92911600  0.83813000  1
  N  N16  1  0.60157800  0.83926300  0.52714800  1
  N  N17  1  0.39842900  0.16075200  0.12873000  1
  N  N18  1  0.07693700  0.73768500  0.53947200  1
  N  N19  1  0.92305300  0.26231600  0.61641000  1
loop_
_geom_bond_atom_site_label_1
_geom_bond_atom_site_label_2
_geom_bond_distance
_geom_bond_site_symmetry_2
N0 Re0 1.757550 1_555
N0 Na10 2.410926 1_455
N0 Na5 2.413206 1_555
N0 Na0 2.455066 1_554
N1 Re1 1.757513 1_555
N1 Na10 2.410874 1_555
N1 Na4 2.413129 1_555
N1 Na1 2.455087 1_555
N2 Re2 1.757535 1_555
N2 Na11 2.411090 1_664
N2 Na7 2.413213 1_655
N2 Na2 2.455077 1_555
N3 Re3 1.757400 1_555
N3 Na11 2.411046 1_554
N3 Na6 2.413077 1_455
N3 Na3 2.455138 1_554
N4 Re6 1.761628 1_655
N4 Na11 2.449990 1_665
N4 Na8 2.474202 1_565
N4 Na0 2.618746 1_555
N4 Na2 2.641618 1_556
N5 Re7 1.761638 1_455
N5 Na11 2.449927 1_555
N5 Na8 2.474100 1_455
N5 Na1 2.618692 1_555
N5 Na3 2.641667 1_555
N6 Re5 1.761716 1_555
N6 Na10 2.450118 1_555
N6 Na9 2.474187 1_654
N6 Na2 2.618685 1_555
N6 Na1 2.641578 1_555
N7 Re4 1.761754 1_555
N7 Na10 2.449976 1_456
N7 Na9 2.474299 1_555
N7 Na3 2.618725 1_555
N7 Na0 2.641528 1_555
N8 Re3 1.843052 1_555
N8 Re0 1.947523 1_555
N8 Na1 2.555886 1_555
N9 Re2 1.842991 1_555
N9 Re1 1.947423 1_555
N9 Na0 2.555912 1_555
N10 Re0 1.842971 1_555
N10 Re2 1.947547 1_555
N10 Na3 2.556024 1_555
N11 Re1 1.843024 1_555
N11 Re3 1.947446 1_556
N11 Na2 2.555850 1_556
N12 Re4 1.850319 1_555
N12 Re6 1.957634 1_555
N12 Na2 2.891237 1_456
N13 Re5 1.850315 1_555
N13 Re7 1.957603 1_554
N13 Na3 2.891314 1_654
N14 Re6 1.850516 1_545
N14 Re5 1.957492 1_555
N14 Na1 2.891321 1_555
N15 Re7 1.850325 1_565
N15 Re4 1.957725 1_555
N15 Na0 2.891293 1_555
N16 Re4 1.888138 1_555
N16 Re2 1.937033 1_555
N16 Na6 2.502430 1_565
N16 Na5 2.580974 1_555
N17 Re5 1.888142 1_555
N17 Re3 1.936947 1_555
N17 Na7 2.502543 1_545
N17 Na4 2.580953 1_554
N18 Re6 1.888032 1_555
N18 Re1 1.937046 1_455
N18 Na5 2.502353 1_555
N18 Na7 2.580992 1_555
N19 Re7 1.888257 1_555
N19 Re0 1.936980 1_655
N19 Na4 2.502355 1_555
N19 Na6 2.580953 1_555
