# generated using pymatgen
data_Ca2MgGa
_symmetry_space_group_name_H-M   'P 1'
_cell_length_a   12.62834820
_cell_length_b   12.76103556
_cell_length_c   12.76103549
_cell_angle_alpha   60.33469203
_cell_angle_beta   60.34336658
_cell_angle_gamma   60.34336345
_symmetry_Int_Tables_number   1
_chemical_formula_structural   Ca2MgGa
_chemical_formula_sum   'Ca2 Mg1 Ga1'
_cell_volume   1465.33114487
_cell_formula_units_Z   1
loop_
 _symmetry_equiv_pos_site_id
 _symmetry_equiv_pos_as_xyz
  1  'x, y, z'
loop_
 _atom_site_type_symbol
 _atom_site_label
 _atom_site_symmetry_multiplicity
 _atom_site_fract_x
 _atom_site_fract_y
 _atom_site_fract_z
 _atom_site_occupancy
  Ca  Ca0  1  0.72655800  1.00000000  0.00000000  1
  Ca  Ca1  1  0.27344200  0.00000000  1.00000000  1
  Mg  Mg0  1  0.00000000  0.00000000  0.00000000  1
  Ga  Ga0  1  0.50000000  0.00000000  0.00000000  1
loop_
_geom_bond_atom_site_label_1
_geom_bond_atom_site_label_2
_geom_bond_distance
_geom_bond_site_symmetry_2
Ca0 Ga0 2.861053 1_565
Ca0 Mg0 3.453121 1_665
Ca1 Ga0 2.861053 1_556
Ca1 Mg0 3.453121 1_556
