# generated using pymatgen
data_KMg6B
_symmetry_space_group_name_H-M   'P 1'
_cell_length_a   6.21424800
_cell_length_b   12.97779000
_cell_length_c   39.27762800
_cell_angle_alpha   90.00000000
_cell_angle_beta   90.00000000
_cell_angle_gamma   90.00000000
_symmetry_Int_Tables_number   1
_chemical_formula_structural   KMg6B
_chemical_formula_sum   'K16 Mg96 B16'
_cell_volume   3167.63093891
_cell_formula_units_Z   16
loop_
 _symmetry_equiv_pos_site_id
 _symmetry_equiv_pos_as_xyz
  1  'x, y, z'
loop_
 _atom_site_type_symbol
 _atom_site_label
 _atom_site_symmetry_multiplicity
 _atom_site_fract_x
 _atom_site_fract_y
 _atom_site_fract_z
 _atom_site_occupancy
  K  K0_0  1  0.00000000  0.25000000  0.14171700  1
  K  K0_1  1  0.00000000  0.25000000  0.64171700  1
  K  K0_2  1  0.00000000  0.75000000  0.14171700  1
  K  K0_3  1  0.00000000  0.75000000  0.64171700  1
  K  K0_4  1  0.50000000  0.25000000  0.14171700  1
  K  K0_5  1  0.50000000  0.25000000  0.64171700  1
  K  K0_6  1  0.50000000  0.75000000  0.14171700  1
  K  K0_7  1  0.50000000  0.75000000  0.64171700  1
  K  K1_0  1  0.00000000  0.00000000  0.39171700  1
  K  K1_1  1  0.00000000  0.00000000  0.89171700  1
  K  K1_2  1  0.00000000  0.50000000  0.39171700  1
  K  K1_3  1  0.00000000  0.50000000  0.89171700  1
  K  K1_4  1  0.50000000  0.00000000  0.39171700  1
  K  K1_5  1  0.50000000  0.00000000  0.89171700  1
  K  K1_6  1  0.50000000  0.50000000  0.39171700  1
  K  K1_7  1  0.50000000  0.50000000  0.89171700  1
  Mg  Mg0_0  1  0.00000000  0.12954500  0.04953850  1
  Mg  Mg0_1  1  0.00000000  0.12954500  0.54953850  1
  Mg  Mg0_2  1  0.00000000  0.62954500  0.04953850  1
  Mg  Mg0_3  1  0.00000000  0.62954500  0.54953850  1
  Mg  Mg0_4  1  0.50000000  0.12954500  0.04953850  1
  Mg  Mg0_5  1  0.50000000  0.12954500  0.54953850  1
  Mg  Mg0_6  1  0.50000000  0.62954500  0.04953850  1
  Mg  Mg0_7  1  0.50000000  0.62954500  0.54953850  1
  Mg  Mg1_0  1  0.00000000  0.37045500  0.04953850  1
  Mg  Mg1_1  1  0.00000000  0.37045500  0.54953850  1
  Mg  Mg1_2  1  0.00000000  0.87045500  0.04953850  1
  Mg  Mg1_3  1  0.00000000  0.87045500  0.54953850  1
  Mg  Mg1_4  1  0.50000000  0.37045500  0.04953850  1
  Mg  Mg1_5  1  0.50000000  0.37045500  0.54953850  1
  Mg  Mg1_6  1  0.50000000  0.87045500  0.04953850  1
  Mg  Mg1_7  1  0.50000000  0.87045500  0.54953850  1
  Mg  Mg2_0  1  0.00000000  0.00000000  0.17256250  1
  Mg  Mg2_1  1  0.00000000  0.00000000  0.67256250  1
  Mg  Mg2_2  1  0.00000000  0.50000000  0.17256250  1
  Mg  Mg2_3  1  0.00000000  0.50000000  0.67256250  1
  Mg  Mg2_4  1  0.50000000  0.00000000  0.17256250  1
  Mg  Mg2_5  1  0.50000000  0.00000000  0.67256250  1
  Mg  Mg2_6  1  0.50000000  0.50000000  0.17256250  1
  Mg  Mg2_7  1  0.50000000  0.50000000  0.67256250  1
  Mg  Mg3_0  1  0.25000000  0.37496400  0.22883050  1
  Mg  Mg3_1  1  0.25000000  0.37496400  0.72883050  1
  Mg  Mg3_2  1  0.25000000  0.87496400  0.22883050  1
  Mg  Mg3_3  1  0.25000000  0.87496400  0.72883050  1
  Mg  Mg3_4  1  0.75000000  0.37496400  0.22883050  1
  Mg  Mg3_5  1  0.75000000  0.37496400  0.72883050  1
  Mg  Mg3_6  1  0.75000000  0.87496400  0.22883050  1
  Mg  Mg3_7  1  0.75000000  0.87496400  0.72883050  1
  Mg  Mg4_0  1  0.25000000  0.12503600  0.22883050  1
  Mg  Mg4_1  1  0.25000000  0.12503600  0.72883050  1
  Mg  Mg4_2  1  0.25000000  0.62503600  0.22883050  1
  Mg  Mg4_3  1  0.25000000  0.62503600  0.72883050  1
  Mg  Mg4_4  1  0.75000000  0.12503600  0.22883050  1
  Mg  Mg4_5  1  0.75000000  0.12503600  0.72883050  1
  Mg  Mg4_6  1  0.75000000  0.62503600  0.22883050  1
  Mg  Mg4_7  1  0.75000000  0.62503600  0.72883050  1
  Mg  Mg5_0  1  0.25000000  0.00000000  0.10417500  1
  Mg  Mg5_1  1  0.25000000  0.00000000  0.60417500  1
  Mg  Mg5_2  1  0.25000000  0.50000000  0.10417500  1
  Mg  Mg5_3  1  0.25000000  0.50000000  0.60417500  1
  Mg  Mg5_4  1  0.75000000  0.00000000  0.10417500  1
  Mg  Mg5_5  1  0.75000000  0.00000000  0.60417500  1
  Mg  Mg5_6  1  0.75000000  0.50000000  0.10417500  1
  Mg  Mg5_7  1  0.75000000  0.50000000  0.60417500  1
  Mg  Mg6_0  1  0.00000000  0.37954500  0.29953850  1
  Mg  Mg6_1  1  0.00000000  0.37954500  0.79953850  1
  Mg  Mg6_2  1  0.00000000  0.87954500  0.29953850  1
  Mg  Mg6_3  1  0.00000000  0.87954500  0.79953850  1
  Mg  Mg6_4  1  0.50000000  0.37954500  0.29953850  1
  Mg  Mg6_5  1  0.50000000  0.37954500  0.79953850  1
  Mg  Mg6_6  1  0.50000000  0.87954500  0.29953850  1
  Mg  Mg6_7  1  0.50000000  0.87954500  0.79953850  1
  Mg  Mg7_0  1  0.00000000  0.12045500  0.29953850  1
  Mg  Mg7_1  1  0.00000000  0.12045500  0.79953850  1
  Mg  Mg7_2  1  0.00000000  0.62045500  0.29953850  1
  Mg  Mg7_3  1  0.00000000  0.62045500  0.79953850  1
  Mg  Mg7_4  1  0.50000000  0.12045500  0.29953850  1
  Mg  Mg7_5  1  0.50000000  0.12045500  0.79953850  1
  Mg  Mg7_6  1  0.50000000  0.62045500  0.29953850  1
  Mg  Mg7_7  1  0.50000000  0.62045500  0.79953850  1
  Mg  Mg8_0  1  0.00000000  0.25000000  0.42256250  1
  Mg  Mg8_1  1  0.00000000  0.25000000  0.92256250  1
  Mg  Mg8_2  1  0.00000000  0.75000000  0.42256250  1
  Mg  Mg8_3  1  0.00000000  0.75000000  0.92256250  1
  Mg  Mg8_4  1  0.50000000  0.25000000  0.42256250  1
  Mg  Mg8_5  1  0.50000000  0.25000000  0.92256250  1
  Mg  Mg8_6  1  0.50000000  0.75000000  0.42256250  1
  Mg  Mg8_7  1  0.50000000  0.75000000  0.92256250  1
  Mg  Mg9_0  1  0.25000000  0.12496400  0.47883050  1
  Mg  Mg9_1  1  0.25000000  0.12496400  0.97883050  1
  Mg  Mg9_2  1  0.25000000  0.62496400  0.47883050  1
  Mg  Mg9_3  1  0.25000000  0.62496400  0.97883050  1
  Mg  Mg9_4  1  0.75000000  0.12496400  0.47883050  1
  Mg  Mg9_5  1  0.75000000  0.12496400  0.97883050  1
  Mg  Mg9_6  1  0.75000000  0.62496400  0.47883050  1
  Mg  Mg9_7  1  0.75000000  0.62496400  0.97883050  1
  Mg  Mg10_0  1  0.25000000  0.37503600  0.47883050  1
  Mg  Mg10_1  1  0.25000000  0.37503600  0.97883050  1
  Mg  Mg10_2  1  0.25000000  0.87503600  0.47883050  1
  Mg  Mg10_3  1  0.25000000  0.87503600  0.97883050  1
  Mg  Mg10_4  1  0.75000000  0.37503600  0.47883050  1
  Mg  Mg10_5  1  0.75000000  0.37503600  0.97883050  1
  Mg  Mg10_6  1  0.75000000  0.87503600  0.47883050  1
  Mg  Mg10_7  1  0.75000000  0.87503600  0.97883050  1
  Mg  Mg11_0  1  0.25000000  0.25000000  0.35417500  1
  Mg  Mg11_1  1  0.25000000  0.25000000  0.85417500  1
  Mg  Mg11_2  1  0.25000000  0.75000000  0.35417500  1
  Mg  Mg11_3  1  0.25000000  0.75000000  0.85417500  1
  Mg  Mg11_4  1  0.75000000  0.25000000  0.35417500  1
  Mg  Mg11_5  1  0.75000000  0.25000000  0.85417500  1
  Mg  Mg11_6  1  0.75000000  0.75000000  0.35417500  1
  Mg  Mg11_7  1  0.75000000  0.75000000  0.85417500  1
  B  B0_0  1  0.25000000  0.25000000  0.02480750  1
  B  B0_1  1  0.25000000  0.25000000  0.52480750  1
  B  B0_2  1  0.25000000  0.75000000  0.02480750  1
  B  B0_3  1  0.25000000  0.75000000  0.52480750  1
  B  B0_4  1  0.75000000  0.25000000  0.02480750  1
  B  B0_5  1  0.75000000  0.25000000  0.52480750  1
  B  B0_6  1  0.75000000  0.75000000  0.02480750  1
  B  B0_7  1  0.75000000  0.75000000  0.52480750  1
  B  B1_0  1  0.25000000  0.00000000  0.27480750  1
  B  B1_1  1  0.25000000  0.00000000  0.77480750  1
  B  B1_2  1  0.25000000  0.50000000  0.27480750  1
  B  B1_3  1  0.25000000  0.50000000  0.77480750  1
  B  B1_4  1  0.75000000  0.00000000  0.27480750  1
  B  B1_5  1  0.75000000  0.00000000  0.77480750  1
  B  B1_6  1  0.75000000  0.50000000  0.27480750  1
  B  B1_7  1  0.75000000  0.50000000  0.77480750  1
loop_
_geom_bond_atom_site_label_1
_geom_bond_atom_site_label_2
_geom_bond_distance
_geom_bond_site_symmetry_2
K0_0 K0_4 3.107124 1_555
K0_0 K0_4 3.107124 1_455
K0_0 Mg2_0 3.463274 1_555
K0_0 Mg2_2 3.463274 1_555
K0_0 Mg5_2 3.887714 1_555
K0_0 Mg5_0 3.887714 1_555
K0_0 Mg5_4 3.887714 1_455
K0_0 Mg5_6 3.887714 1_455
K0_0 Mg1_0 3.943618 1_555
K0_0 Mg0_0 3.943618 1_555
K0_0 Mg3_0 4.092808 1_555
K0_0 Mg4_0 4.092808 1_555
K0_0 Mg4_4 4.092808 1_455
K0_0 Mg3_4 4.092808 1_455
K0_1 K0_5 3.107124 1_555
K0_1 K0_5 3.107124 1_455
K0_1 Mg2_3 3.463274 1_555
K0_1 Mg2_1 3.463274 1_555
K0_1 Mg5_3 3.887714 1_555
K0_1 Mg5_1 3.887714 1_555
K0_1 Mg5_5 3.887714 1_455
K0_1 Mg5_7 3.887714 1_455
K0_1 Mg1_1 3.943618 1_555
K0_1 Mg0_1 3.943618 1_555
K0_1 Mg4_1 4.092808 1_555
K0_1 Mg3_1 4.092808 1_555
K0_1 Mg3_5 4.092808 1_455
K0_1 Mg4_5 4.092808 1_455
K0_2 K0_6 3.107124 1_555
K0_2 K0_6 3.107124 1_455
K0_2 Mg2_0 3.463274 1_565
K0_2 Mg2_2 3.463274 1_555
K0_2 Mg5_0 3.887714 1_565
K0_2 Mg5_4 3.887714 1_465
K0_2 Mg5_6 3.887714 1_455
K0_2 Mg5_2 3.887714 1_555
K0_2 Mg1_2 3.943618 1_555
K0_2 Mg0_2 3.943618 1_555
K0_2 Mg3_2 4.092808 1_555
K0_2 Mg3_6 4.092808 1_455
K0_2 Mg4_2 4.092808 1_555
K0_2 Mg4_6 4.092808 1_455
K0_3 K0_7 3.107124 1_555
K0_3 K0_7 3.107124 1_455
K0_3 Mg2_1 3.463274 1_565
K0_3 Mg2_3 3.463274 1_555
K0_3 Mg5_1 3.887714 1_565
K0_3 Mg5_5 3.887714 1_465
K0_3 Mg5_3 3.887714 1_555
K0_3 Mg5_7 3.887714 1_455
K0_3 Mg1_3 3.943618 1_555
K0_3 Mg0_3 3.943618 1_555
K0_3 Mg3_3 4.092808 1_555
K0_3 Mg3_7 4.092808 1_455
K0_3 Mg4_3 4.092808 1_555
K0_3 Mg4_7 4.092808 1_455
K0_4 Mg2_4 3.463274 1_555
K0_4 Mg2_6 3.463274 1_555
K0_4 Mg5_6 3.887714 1_555
K0_4 Mg5_4 3.887714 1_555
K0_4 Mg5_2 3.887714 1_555
K0_4 Mg5_0 3.887714 1_555
K0_4 Mg1_4 3.943618 1_555
K0_4 Mg0_4 3.943618 1_555
K0_4 Mg4_0 4.092808 1_555
K0_4 Mg3_0 4.092808 1_555
K0_4 Mg3_4 4.092808 1_555
K0_4 Mg4_4 4.092808 1_555
K0_5 Mg2_5 3.463274 1_555
K0_5 Mg2_7 3.463274 1_555
K0_5 Mg5_5 3.887714 1_555
K0_5 Mg5_3 3.887714 1_555
K0_5 Mg5_7 3.887714 1_555
K0_5 Mg5_1 3.887714 1_555
K0_5 Mg0_5 3.943618 1_555
K0_5 Mg1_5 3.943618 1_555
K0_5 Mg4_1 4.092808 1_555
K0_5 Mg3_1 4.092808 1_555
K0_5 Mg4_5 4.092808 1_555
K0_5 Mg3_5 4.092808 1_555
K0_6 Mg2_4 3.463274 1_565
K0_6 Mg2_6 3.463274 1_555
K0_6 Mg5_4 3.887714 1_565
K0_6 Mg5_0 3.887714 1_565
K0_6 Mg5_6 3.887714 1_555
K0_6 Mg5_2 3.887714 1_555
K0_6 Mg1_6 3.943618 1_555
K0_6 Mg0_6 3.943618 1_555
K0_6 Mg3_6 4.092808 1_555
K0_6 Mg3_2 4.092808 1_555
K0_6 Mg4_2 4.092808 1_555
K0_6 Mg4_6 4.092808 1_555
K0_7 Mg2_5 3.463274 1_565
K0_7 Mg2_7 3.463274 1_555
K0_7 Mg5_1 3.887714 1_565
K0_7 Mg5_5 3.887714 1_565
K0_7 Mg5_3 3.887714 1_555
K0_7 Mg5_7 3.887714 1_555
K0_7 Mg1_7 3.943618 1_555
K0_7 Mg0_7 3.943618 1_555
K0_7 Mg3_3 4.092808 1_555
K0_7 Mg3_7 4.092808 1_555
K0_7 Mg4_3 4.092808 1_555
K0_7 Mg4_7 4.092808 1_555
K1_0 K1_4 3.107124 1_555
K1_0 K1_4 3.107124 1_455
K1_0 Mg8_2 3.463274 1_545
K1_0 Mg8_0 3.463274 1_555
K1_0 Mg11_2 3.887714 1_545
K1_0 Mg11_6 3.887714 1_445
K1_0 Mg11_0 3.887714 1_555
K1_0 Mg11_4 3.887714 1_455
K1_0 Mg6_2 3.943618 1_545
K1_0 Mg7_0 3.943618 1_555
K1_0 Mg10_2 4.092808 1_545
K1_0 Mg9_4 4.092808 1_455
K1_0 Mg10_6 4.092808 1_445
K1_0 Mg9_0 4.092808 1_555
K1_1 K1_5 3.107124 1_555
K1_1 K1_5 3.107124 1_455
K1_1 Mg8_3 3.463274 1_545
K1_1 Mg8_1 3.463274 1_555
K1_1 Mg11_3 3.887714 1_545
K1_1 Mg11_7 3.887714 1_445
K1_1 Mg11_1 3.887714 1_555
K1_1 Mg11_5 3.887714 1_455
K1_1 Mg6_3 3.943618 1_545
K1_1 Mg7_1 3.943618 1_555
K1_1 Mg10_3 4.092808 1_545
K1_1 Mg9_1 4.092808 1_555
K1_1 Mg9_5 4.092808 1_455
K1_1 Mg10_7 4.092808 1_445
K1_2 K1_6 3.107124 1_555
K1_2 K1_6 3.107124 1_455
K1_2 Mg8_0 3.463274 1_555
K1_2 Mg8_2 3.463274 1_555
K1_2 Mg11_0 3.887714 1_555
K1_2 Mg11_4 3.887714 1_455
K1_2 Mg11_2 3.887714 1_555
K1_2 Mg11_6 3.887714 1_455
K1_2 Mg6_0 3.943618 1_555
K1_2 Mg7_2 3.943618 1_555
K1_2 Mg9_2 4.092808 1_555
K1_2 Mg10_4 4.092808 1_455
K1_2 Mg10_0 4.092808 1_555
K1_2 Mg9_6 4.092808 1_455
K1_3 K1_7 3.107124 1_555
K1_3 K1_7 3.107124 1_455
K1_3 Mg8_1 3.463274 1_555
K1_3 Mg8_3 3.463274 1_555
K1_3 Mg11_1 3.887714 1_555
K1_3 Mg11_5 3.887714 1_455
K1_3 Mg11_3 3.887714 1_555
K1_3 Mg11_7 3.887714 1_455
K1_3 Mg6_1 3.943618 1_555
K1_3 Mg7_3 3.943618 1_555
K1_3 Mg9_3 4.092808 1_555
K1_3 Mg10_1 4.092808 1_555
K1_3 Mg9_7 4.092808 1_455
K1_3 Mg10_5 4.092808 1_455
K1_4 Mg8_6 3.463274 1_545
K1_4 Mg8_4 3.463274 1_555
K1_4 Mg11_6 3.887714 1_545
K1_4 Mg11_2 3.887714 1_545
K1_4 Mg11_0 3.887714 1_555
K1_4 Mg11_4 3.887714 1_555
K1_4 Mg6_6 3.943618 1_545
K1_4 Mg7_4 3.943618 1_555
K1_4 Mg10_2 4.092808 1_545
K1_4 Mg10_6 4.092808 1_545
K1_4 Mg9_4 4.092808 1_555
K1_4 Mg9_0 4.092808 1_555
K1_5 Mg8_7 3.463274 1_545
K1_5 Mg8_5 3.463274 1_555
K1_5 Mg11_3 3.887714 1_545
K1_5 Mg11_7 3.887714 1_545
K1_5 Mg11_1 3.887714 1_555
K1_5 Mg11_5 3.887714 1_555
K1_5 Mg6_7 3.943618 1_545
K1_5 Mg7_5 3.943618 1_555
K1_5 Mg9_5 4.092808 1_555
K1_5 Mg10_3 4.092808 1_545
K1_5 Mg10_7 4.092808 1_545
K1_5 Mg9_1 4.092808 1_555
K1_6 Mg8_4 3.463274 1_555
K1_6 Mg8_6 3.463274 1_555
K1_6 Mg11_0 3.887714 1_555
K1_6 Mg11_4 3.887714 1_555
K1_6 Mg11_2 3.887714 1_555
K1_6 Mg11_6 3.887714 1_555
K1_6 Mg6_4 3.943618 1_555
K1_6 Mg7_6 3.943618 1_555
K1_6 Mg9_2 4.092808 1_555
K1_6 Mg10_4 4.092808 1_555
K1_6 Mg9_6 4.092808 1_555
K1_6 Mg10_0 4.092808 1_555
K1_7 Mg8_5 3.463274 1_555
K1_7 Mg8_7 3.463274 1_555
K1_7 Mg11_1 3.887714 1_555
K1_7 Mg11_5 3.887714 1_555
K1_7 Mg11_3 3.887714 1_555
K1_7 Mg11_7 3.887714 1_555
K1_7 Mg6_5 3.943618 1_555
K1_7 Mg7_7 3.943618 1_555
K1_7 Mg10_5 4.092808 1_555
K1_7 Mg9_7 4.092808 1_555
K1_7 Mg9_3 4.092808 1_555
K1_7 Mg10_1 4.092808 1_555
Mg0_0 Mg5_0 3.137722 1_555
Mg0_0 Mg5_4 3.137722 1_455
Mg0_1 Mg5_1 3.137722 1_555
Mg0_1 Mg5_5 3.137722 1_455
Mg0_2 Mg5_2 3.137722 1_555
Mg0_2 Mg5_6 3.137722 1_455
Mg0_3 Mg5_3 3.137722 1_555
Mg0_3 Mg5_7 3.137722 1_455
Mg0_4 Mg5_4 3.137722 1_555
Mg0_4 Mg5_0 3.137722 1_555
Mg0_5 Mg5_5 3.137722 1_555
Mg0_5 Mg5_1 3.137722 1_555
Mg0_6 Mg5_2 3.137722 1_555
Mg0_6 Mg5_6 3.137722 1_555
Mg0_7 Mg5_3 3.137722 1_555
Mg0_7 Mg5_7 3.137722 1_555
Mg1_0 Mg5_2 3.137722 1_555
Mg1_0 Mg5_6 3.137722 1_455
Mg1_1 Mg5_3 3.137722 1_555
Mg1_1 Mg5_7 3.137722 1_455
Mg1_2 Mg5_0 3.137722 1_565
Mg1_2 Mg5_4 3.137722 1_465
Mg1_3 Mg5_1 3.137722 1_565
Mg1_3 Mg5_5 3.137722 1_465
Mg1_4 Mg5_2 3.137722 1_555
Mg1_4 Mg5_6 3.137722 1_555
Mg1_5 Mg5_3 3.137722 1_555
Mg1_5 Mg5_7 3.137722 1_555
Mg1_6 Mg5_0 3.137722 1_565
Mg1_6 Mg5_4 3.137722 1_565
Mg1_7 Mg5_1 3.137722 1_565
Mg1_7 Mg5_5 3.137722 1_565
Mg2_0 Mg5_0 3.103012 1_555
Mg2_0 Mg5_4 3.103012 1_455
Mg2_0 Mg2_4 3.107124 1_555
Mg2_0 Mg2_4 3.107124 1_455
Mg2_0 Mg4_4 3.151366 1_455
Mg2_0 Mg4_0 3.151366 1_555
Mg2_0 Mg3_2 3.151366 1_545
Mg2_0 Mg3_6 3.151366 1_445
Mg2_1 Mg5_1 3.103012 1_555
Mg2_1 Mg5_5 3.103012 1_455
Mg2_1 Mg2_5 3.107124 1_555
Mg2_1 Mg2_5 3.107124 1_455
Mg2_1 Mg4_1 3.151366 1_555
Mg2_1 Mg3_3 3.151366 1_545
Mg2_1 Mg3_7 3.151366 1_445
Mg2_1 Mg4_5 3.151366 1_455
Mg2_2 Mg5_2 3.103012 1_555
Mg2_2 Mg5_6 3.103012 1_455
Mg2_2 Mg2_6 3.107124 1_555
Mg2_2 Mg2_6 3.107124 1_455
Mg2_2 Mg3_0 3.151366 1_555
Mg2_2 Mg4_2 3.151366 1_555
Mg2_2 Mg3_4 3.151366 1_455
Mg2_2 Mg4_6 3.151366 1_455
Mg2_3 Mg5_3 3.103012 1_555
Mg2_3 Mg5_7 3.103012 1_455
Mg2_3 Mg2_7 3.107124 1_555
Mg2_3 Mg2_7 3.107124 1_455
Mg2_3 Mg3_1 3.151366 1_555
Mg2_3 Mg4_3 3.151366 1_555
Mg2_3 Mg3_5 3.151366 1_455
Mg2_3 Mg4_7 3.151366 1_455
Mg2_4 Mg5_4 3.103012 1_555
Mg2_4 Mg5_0 3.103012 1_555
Mg2_4 Mg4_4 3.151366 1_555
Mg2_4 Mg3_6 3.151366 1_545
Mg2_4 Mg4_0 3.151366 1_555
Mg2_4 Mg3_2 3.151366 1_545
Mg2_5 Mg5_1 3.103012 1_555
Mg2_5 Mg5_5 3.103012 1_555
Mg2_5 Mg4_5 3.151366 1_555
Mg2_5 Mg4_1 3.151366 1_555
Mg2_5 Mg3_3 3.151366 1_545
Mg2_5 Mg3_7 3.151366 1_545
Mg2_6 Mg5_2 3.103012 1_555
Mg2_6 Mg5_6 3.103012 1_555
Mg2_6 Mg3_4 3.151366 1_555
Mg2_6 Mg4_6 3.151366 1_555
Mg2_6 Mg3_0 3.151366 1_555
Mg2_6 Mg4_2 3.151366 1_555
Mg2_7 Mg5_3 3.103012 1_555
Mg2_7 Mg5_7 3.103012 1_555
Mg2_7 Mg3_1 3.151366 1_555
Mg2_7 Mg3_5 3.151366 1_555
Mg2_7 Mg4_3 3.151366 1_555
Mg2_7 Mg4_7 3.151366 1_555
Mg5_0 Mg5_4 3.107124 1_555
Mg5_0 Mg5_4 3.107124 1_455
Mg5_1 Mg5_5 3.107124 1_555
Mg5_1 Mg5_5 3.107124 1_455
Mg5_2 Mg5_6 3.107124 1_555
Mg5_2 Mg5_6 3.107124 1_455
Mg5_3 Mg5_7 3.107124 1_555
Mg5_3 Mg5_7 3.107124 1_455
Mg8_0 Mg8_4 3.107124 1_555
Mg8_0 Mg8_4 3.107124 1_455
Mg8_0 Mg9_0 3.151366 1_555
Mg8_0 Mg9_4 3.151366 1_455
Mg8_1 Mg8_5 3.107124 1_555
Mg8_1 Mg8_5 3.107124 1_455
Mg8_1 Mg9_1 3.151366 1_555
Mg8_1 Mg9_5 3.151366 1_455
Mg8_2 Mg8_6 3.107124 1_555
Mg8_2 Mg8_6 3.107124 1_455
Mg8_2 Mg9_2 3.151366 1_555
Mg8_2 Mg9_6 3.151366 1_455
Mg8_3 Mg8_7 3.107124 1_555
Mg8_3 Mg8_7 3.107124 1_455
Mg8_3 Mg9_3 3.151366 1_555
Mg8_3 Mg9_7 3.151366 1_455
Mg8_4 Mg9_4 3.151366 1_555
Mg8_4 Mg9_0 3.151366 1_555
Mg8_5 Mg9_1 3.151366 1_555
Mg8_5 Mg9_5 3.151366 1_555
Mg8_6 Mg9_2 3.151366 1_555
Mg8_6 Mg9_6 3.151366 1_555
Mg8_7 Mg9_3 3.151366 1_555
Mg8_7 Mg9_7 3.151366 1_555
Mg10_0 Mg8_0 3.151366 1_555
Mg10_0 Mg8_4 3.151366 1_555
Mg10_1 Mg8_1 3.151366 1_555
Mg10_1 Mg8_5 3.151366 1_555
Mg10_2 Mg8_6 3.151366 1_555
Mg10_2 Mg8_2 3.151366 1_555
Mg10_3 Mg8_3 3.151366 1_555
Mg10_3 Mg8_7 3.151366 1_555
Mg10_4 Mg8_4 3.151366 1_555
Mg10_4 Mg8_0 3.151366 1_655
Mg10_5 Mg8_5 3.151366 1_555
Mg10_5 Mg8_1 3.151366 1_655
Mg10_6 Mg8_6 3.151366 1_555
Mg10_6 Mg8_2 3.151366 1_655
Mg10_7 Mg8_7 3.151366 1_555
Mg10_7 Mg8_3 3.151366 1_655
Mg11_0 Mg8_0 3.103012 1_555
Mg11_0 Mg8_4 3.103012 1_555
Mg11_0 Mg11_4 3.107124 1_555
Mg11_0 Mg11_4 3.107124 1_455
Mg11_0 Mg7_0 3.137722 1_555
Mg11_0 Mg7_4 3.137722 1_555
Mg11_0 Mg6_0 3.137722 1_555
Mg11_0 Mg6_4 3.137722 1_555
Mg11_1 Mg8_5 3.103012 1_555
Mg11_1 Mg8_1 3.103012 1_555
Mg11_1 Mg11_5 3.107124 1_555
Mg11_1 Mg11_5 3.107124 1_455
Mg11_1 Mg7_1 3.137722 1_555
Mg11_1 Mg7_5 3.137722 1_555
Mg11_1 Mg6_5 3.137722 1_555
Mg11_1 Mg6_1 3.137722 1_555
Mg11_2 Mg8_6 3.103012 1_555
Mg11_2 Mg8_2 3.103012 1_555
Mg11_2 Mg11_6 3.107124 1_555
Mg11_2 Mg11_6 3.107124 1_455
Mg11_2 Mg6_6 3.137722 1_555
Mg11_2 Mg6_2 3.137722 1_555
Mg11_2 Mg7_2 3.137722 1_555
Mg11_2 Mg7_6 3.137722 1_555
Mg11_3 Mg8_3 3.103012 1_555
Mg11_3 Mg8_7 3.103012 1_555
Mg11_3 Mg11_7 3.107124 1_555
Mg11_3 Mg11_7 3.107124 1_455
Mg11_3 Mg7_7 3.137722 1_555
Mg11_3 Mg6_7 3.137722 1_555
Mg11_3 Mg6_3 3.137722 1_555
Mg11_3 Mg7_3 3.137722 1_555
Mg11_4 Mg8_4 3.103012 1_555
Mg11_4 Mg8_0 3.103012 1_655
Mg11_4 Mg7_4 3.137722 1_555
Mg11_4 Mg6_4 3.137722 1_555
Mg11_4 Mg7_0 3.137722 1_655
Mg11_4 Mg6_0 3.137722 1_655
Mg11_5 Mg8_5 3.103012 1_555
Mg11_5 Mg8_1 3.103012 1_655
Mg11_5 Mg7_5 3.137722 1_555
Mg11_5 Mg7_1 3.137722 1_655
Mg11_5 Mg6_5 3.137722 1_555
Mg11_5 Mg6_1 3.137722 1_655
Mg11_6 Mg8_6 3.103012 1_555
Mg11_6 Mg8_2 3.103012 1_655
Mg11_6 Mg6_6 3.137722 1_555
Mg11_6 Mg7_6 3.137722 1_555
Mg11_6 Mg7_2 3.137722 1_655
Mg11_6 Mg6_2 3.137722 1_655
Mg11_7 Mg8_7 3.103012 1_555
Mg11_7 Mg8_3 3.103012 1_655
Mg11_7 Mg7_7 3.137722 1_555
Mg11_7 Mg6_7 3.137722 1_555
Mg11_7 Mg7_3 3.137722 1_655
Mg11_7 Mg6_3 3.137722 1_655
B0_0 Mg1_0 2.408494 1_555
B0_0 Mg1_4 2.408494 1_555
B0_0 Mg0_0 2.408494 1_555
B0_0 Mg0_4 2.408494 1_555
B0_0 Mg10_1 2.427815 1_554
B0_0 Mg9_1 2.427815 1_554
B0_1 Mg1_1 2.408494 1_555
B0_1 Mg1_5 2.408494 1_555
B0_1 Mg0_5 2.408494 1_555
B0_1 Mg0_1 2.408494 1_555
B0_1 Mg9_0 2.427815 1_555
B0_1 Mg10_0 2.427815 1_555
B0_2 Mg1_2 2.408494 1_555
B0_2 Mg1_6 2.408494 1_555
B0_2 Mg0_6 2.408494 1_555
B0_2 Mg0_2 2.408494 1_555
B0_2 Mg10_3 2.427815 1_554
B0_2 Mg9_3 2.427815 1_554
B0_3 Mg1_7 2.408494 1_555
B0_3 Mg1_3 2.408494 1_555
B0_3 Mg0_7 2.408494 1_555
B0_3 Mg0_3 2.408494 1_555
B0_3 Mg10_2 2.427815 1_555
B0_3 Mg9_2 2.427815 1_555
B0_4 Mg0_4 2.408494 1_555
B0_4 Mg1_4 2.408494 1_555
B0_4 Mg1_0 2.408494 1_655
B0_4 Mg0_0 2.408494 1_655
B0_4 Mg9_5 2.427815 1_554
B0_4 Mg10_5 2.427815 1_554
B0_5 Mg1_5 2.408494 1_555
B0_5 Mg0_5 2.408494 1_555
B0_5 Mg1_1 2.408494 1_655
B0_5 Mg0_1 2.408494 1_655
B0_5 Mg9_4 2.427815 1_555
B0_5 Mg10_4 2.427815 1_555
B0_6 Mg1_6 2.408494 1_555
B0_6 Mg1_2 2.408494 1_655
B0_6 Mg0_6 2.408494 1_555
B0_6 Mg0_2 2.408494 1_655
B0_6 Mg10_7 2.427815 1_554
B0_6 Mg9_7 2.427815 1_554
B0_7 Mg1_7 2.408494 1_555
B0_7 Mg1_3 2.408494 1_655
B0_7 Mg0_7 2.408494 1_555
B0_7 Mg0_3 2.408494 1_655
B0_7 Mg10_6 2.427815 1_555
B0_7 Mg9_6 2.427815 1_555
B1_0 Mg6_2 2.408494 1_545
B1_0 Mg6_6 2.408494 1_545
B1_0 Mg7_0 2.408494 1_555
B1_0 Mg7_4 2.408494 1_555
B1_0 Mg4_0 2.427815 1_555
B1_0 Mg3_2 2.427815 1_545
B1_1 Mg6_7 2.408494 1_545
B1_1 Mg6_3 2.408494 1_545
B1_1 Mg7_1 2.408494 1_555
B1_1 Mg7_5 2.408494 1_555
B1_1 Mg4_1 2.427815 1_555
B1_1 Mg3_3 2.427815 1_545
B1_2 Mg6_0 2.408494 1_555
B1_2 Mg6_4 2.408494 1_555
B1_2 Mg7_2 2.408494 1_555
B1_2 Mg7_6 2.408494 1_555
B1_2 Mg3_0 2.427815 1_555
B1_2 Mg4_2 2.427815 1_555
B1_3 Mg6_5 2.408494 1_555
B1_3 Mg6_1 2.408494 1_555
B1_3 Mg7_7 2.408494 1_555
B1_3 Mg7_3 2.408494 1_555
B1_3 Mg3_1 2.427815 1_555
B1_3 Mg4_3 2.427815 1_555
B1_4 Mg6_6 2.408494 1_545
B1_4 Mg6_2 2.408494 1_645
B1_4 Mg7_4 2.408494 1_555
B1_4 Mg7_0 2.408494 1_655
B1_4 Mg4_4 2.427815 1_555
B1_4 Mg3_6 2.427815 1_545
B1_5 Mg6_7 2.408494 1_545
B1_5 Mg6_3 2.408494 1_645
B1_5 Mg7_5 2.408494 1_555
B1_5 Mg7_1 2.408494 1_655
B1_5 Mg4_5 2.427815 1_555
B1_5 Mg3_7 2.427815 1_545
B1_6 Mg6_4 2.408494 1_555
B1_6 Mg6_0 2.408494 1_655
B1_6 Mg7_6 2.408494 1_555
B1_6 Mg7_2 2.408494 1_655
B1_6 Mg3_4 2.427815 1_555
B1_6 Mg4_6 2.427815 1_555
B1_7 Mg6_5 2.408494 1_555
B1_7 Mg6_1 2.408494 1_655
B1_7 Mg7_7 2.408494 1_555
B1_7 Mg7_3 2.408494 1_655
B1_7 Mg3_5 2.427815 1_555
B1_7 Mg4_7 2.427815 1_555
