# generated using pymatgen
data_YCu3PbSe4
_symmetry_space_group_name_H-M   'P 1'
_cell_length_a   6.28172200
_cell_length_b   6.28172200
_cell_length_c   6.28172200
_cell_angle_alpha   90.00000000
_cell_angle_beta   90.00000000
_cell_angle_gamma   90.00000000
_symmetry_Int_Tables_number   1
_chemical_formula_structural   YCu3PbSe4
_chemical_formula_sum   'Y1 Cu3 Pb1 Se4'
_cell_volume   247.87694665
_cell_formula_units_Z   1
loop_
 _symmetry_equiv_pos_site_id
 _symmetry_equiv_pos_as_xyz
  1  'x, y, z'
loop_
 _atom_site_type_symbol
 _atom_site_label
 _atom_site_symmetry_multiplicity
 _atom_site_fract_x
 _atom_site_fract_y
 _atom_site_fract_z
 _atom_site_occupancy
  Y  Y0  1  0.00000000  0.00000000  0.00000000  1
  Cu  Cu0  1  0.00000000  0.50000000  0.00000000  1
  Cu  Cu1  1  0.00000000  0.00000000  0.50000000  1
  Cu  Cu2  1  0.50000000  0.00000000  0.00000000  1
  Pb  Pb0  1  0.50000000  0.50000000  0.50000000  1
  Se  Se0  1  0.23851400  0.23851400  0.23851400  1
  Se  Se1  1  0.76148600  0.76148600  0.23851400  1
  Se  Se2  1  0.23851400  0.76148600  0.76148600  1
  Se  Se3  1  0.76148600  0.23851400  0.76148600  1
loop_
_geom_bond_atom_site_label_1
_geom_bond_atom_site_label_2
_geom_bond_distance
_geom_bond_site_symmetry_2
Cu0 Se1 2.680999 1_455
Cu0 Se2 2.680999 1_554
Cu0 Se0 2.680999 1_555
Cu0 Se3 2.680999 1_454
Cu1 Se2 2.680999 1_545
Cu1 Se3 2.680999 1_455
Cu1 Se0 2.680999 1_555
Cu1 Se1 2.680999 1_445
Cu2 Se1 2.680999 1_545
Cu2 Se3 2.680999 1_554
Cu2 Se0 2.680999 1_555
Cu2 Se2 2.680999 1_544
Pb0 Se3 2.845036 1_555
Pb0 Se2 2.845036 1_555
Pb0 Se1 2.845036 1_555
Pb0 Se0 2.845036 1_555
Se0 Y0 2.595095 1_555
Se1 Y0 2.595095 1_665
Se2 Y0 2.595095 1_566
Se3 Y0 2.595095 1_656
