# generated using pymatgen
data_Sr5Ca3Ti5Mn3O24
_symmetry_space_group_name_H-M   'P 1'
_cell_length_a   7.76626600
_cell_length_b   7.80070717
_cell_length_c   7.80625317
_cell_angle_alpha   89.99524895
_cell_angle_beta   89.98912986
_cell_angle_gamma   89.98814526
_symmetry_Int_Tables_number   1
_chemical_formula_structural   Sr5Ca3Ti5Mn3O24
_chemical_formula_sum   'Sr5 Ca3 Ti5 Mn3 O24'
_cell_volume   472.92127282
_cell_formula_units_Z   1
loop_
 _symmetry_equiv_pos_site_id
 _symmetry_equiv_pos_as_xyz
  1  'x, y, z'
loop_
 _atom_site_type_symbol
 _atom_site_label
 _atom_site_symmetry_multiplicity
 _atom_site_fract_x
 _atom_site_fract_y
 _atom_site_fract_z
 _atom_site_occupancy
  Sr  Sr0  1  0.75483300  0.24822400  0.75156700  1
  Sr  Sr1  1  0.75478900  0.24822600  0.24835900  1
  Sr  Sr2  1  0.24521300  0.24842800  0.75167500  1
  Sr  Sr3  1  0.24535200  0.24813400  0.24831300  1
  Sr  Sr4  1  0.24501200  0.75171200  0.75193500  1
  Ca  Ca0  1  0.75751400  0.75286900  0.75324000  1
  Ca  Ca1  1  0.75844700  0.75280600  0.24659100  1
  Ca  Ca2  1  0.24177400  0.75299700  0.24705000  1
  Ti  Ti0  1  0.99915500  0.50429500  0.49851800  1
  Ti  Ti1  1  0.50152500  0.99753200  0.00081200  1
  Ti  Ti2  1  0.50139600  0.99736500  0.49917600  1
  Ti  Ti3  1  0.50146900  0.50247500  0.00087600  1
  Ti  Ti4  1  0.50080800  0.50266700  0.49908500  1
  Mn  Mn0  1  0.99982300  0.99842100  0.00046100  1
  Mn  Mn1  1  0.99966400  0.99899200  0.49935400  1
  Mn  Mn2  1  0.99961300  0.50208700  0.00034500  1
  O  O0  1  0.75307100  0.99453800  0.00083200  1
  O  O1  1  0.75315700  0.99476900  0.49908000  1
  O  O2  1  0.75314500  0.50520000  0.00087200  1
  O  O3  1  0.75096300  0.50413400  0.49906500  1
  O  O4  1  0.24673000  0.99595600  0.00246500  1
  O  O5  1  0.24671600  0.99609300  0.49771700  1
  O  O6  1  0.24660100  0.50403200  0.00235800  1
  O  O7  1  0.24881100  0.50343700  0.49823100  1
  O  O8  1  0.00000500  0.25047800  0.00037800  1
  O  O9  1  0.99934000  0.24698200  0.49910000  1
  O  O10  1  0.99538200  0.74942900  0.00424100  1
  O  O11  1  0.99763900  0.75269800  0.49782900  1
  O  O12  1  0.50072800  0.24962800  0.00083000  1
  O  O13  1  0.50075600  0.24961100  0.49917300  1
  O  O14  1  0.50166600  0.75024300  0.00180700  1
  O  O15  1  0.50161500  0.75004400  0.49831500  1
  O  O16  1  0.99529600  0.99470200  0.74957600  1
  O  O17  1  0.99995300  0.99125500  0.25050500  1
  O  O18  1  0.99727600  0.50441300  0.75297000  1
  O  O19  1  0.99920200  0.50566800  0.24718000  1
  O  O20  1  0.50197800  0.99615800  0.75035700  1
  O  O21  1  0.50086400  0.99520000  0.24967100  1
  O  O22  1  0.50187200  0.50363300  0.75027600  1
  O  O23  1  0.50084500  0.50447000  0.24981600  1
loop_
_geom_bond_atom_site_label_1
_geom_bond_atom_site_label_2
_geom_bond_distance
_geom_bond_site_symmetry_2
Ca0 O16 2.640306 1_555
Ca0 O18 2.687400 1_555
Ca0 O10 2.693309 1_556
Ca0 O0 2.700234 1_556
Ca0 O11 2.729761 1_555
Ca0 O2 2.733116 1_556
Ca0 O1 2.738186 1_555
Ca0 O20 2.745757 1_555
Ca0 O3 2.775783 1_555
Ca0 O14 2.777073 1_556
Ca0 O22 2.779188 1_555
Ca0 O15 2.812797 1_555
Ca1 O10 2.639017 1_555
Ca1 O17 2.641997 1_555
Ca1 O19 2.685362 1_555
Ca1 O0 2.690243 1_555
Ca1 O11 2.701588 1_555
Ca1 O2 2.722563 1_555
Ca1 O1 2.729404 1_555
Ca1 O21 2.752477 1_555
Ca1 O14 2.762273 1_555
Ca1 O3 2.765862 1_555
Ca1 O23 2.785204 1_555
Ca1 O15 2.799791 1_555
Ca2 O17 2.642092 1_455
Ca2 O4 2.690402 1_555
Ca2 O10 2.693787 1_455
Ca2 O19 2.696824 1_455
Ca2 O6 2.724393 1_555
Ca2 O11 2.725042 1_455
Ca2 O5 2.725276 1_555
Ca2 O21 2.760520 1_555
Ca2 O7 2.763482 1_555
Ca2 O14 2.781712 1_555
Ca2 O23 2.793845 1_555
Ca2 O15 2.814524 1_555
Mn0 O0 1.916589 1_555
Mn0 O4 1.917705 1_655
Mn0 O10 1.942849 1_555
Mn0 O17 1.952703 1_555
Mn0 O16 1.959011 1_554
Mn0 O8 1.966224 1_665
Mn1 O1 1.914731 1_555
Mn1 O5 1.918840 1_655
Mn1 O11 1.921373 1_555
Mn1 O9 1.934499 1_565
Mn1 O17 1.943521 1_555
Mn1 O16 1.953868 1_555
Mn2 O2 1.914289 1_555
Mn2 O6 1.918305 1_655
Mn2 O19 1.927063 1_555
Mn2 O10 1.929958 1_555
Mn2 O18 1.931244 1_554
Mn2 O8 1.962730 1_655
O0 Ti1 1.953708 1_555
O0 Sr1 2.765987 1_565
O0 Sr0 2.775239 1_564
O1 Ti2 1.955344 1_555
O1 Sr1 2.781945 1_565
O1 Sr0 2.791885 1_565
O2 Ti3 1.954703 1_555
O2 Sr1 2.783931 1_555
O2 Sr0 2.794038 1_554
O3 Ti0 1.927530 1_555
O3 Ti4 1.942806 1_555
O3 Sr1 2.795835 1_555
O3 Sr0 2.805458 1_555
O4 Ti1 1.978886 1_555
O4 Sr4 2.730505 1_554
O4 Sr3 2.748384 1_565
O4 Sr2 2.776865 1_564
O5 Ti2 1.977975 1_555
O5 Sr4 2.751708 1_555
O5 Sr3 2.766854 1_565
O5 Sr2 2.793829 1_565
O6 Ti3 1.979439 1_555
O6 Sr4 2.748446 1_554
O6 Sr3 2.769579 1_555
O6 Sr2 2.793890 1_554
O7 Ti0 1.938906 1_455
O7 Ti4 1.957096 1_555
O7 Sr4 2.770314 1_555
O7 Sr3 2.788146 1_555
O7 Sr2 2.805620 1_555
O8 Sr1 2.715334 1_455
O8 Sr3 2.716306 1_555
O8 Sr2 2.719298 1_554
O8 Sr0 2.720235 1_454
O9 Ti0 2.007228 1_555
O9 Sr1 2.727608 1_555
O9 Sr3 2.735261 1_655
O9 Sr0 2.736540 1_555
O9 Sr2 2.745046 1_655
O10 Sr4 2.763438 1_654
O11 Ti0 1.937759 1_555
O11 Sr4 2.761721 1_655
O12 Ti1 1.966536 1_545
O12 Ti3 1.972395 1_555
O12 Sr1 2.761952 1_555
O12 Sr3 2.768489 1_555
O12 Sr0 2.771160 1_554
O12 Sr2 2.778901 1_554
O13 Ti2 1.967702 1_545
O13 Ti4 1.974016 1_555
O13 Sr1 2.779276 1_555
O13 Sr3 2.787630 1_555
O13 Sr0 2.788746 1_555
O13 Sr2 2.796876 1_555
O14 Ti1 1.929044 1_555
O14 Ti3 1.932781 1_555
O14 Sr4 2.789142 1_554
O15 Ti2 1.929291 1_555
O15 Ti4 1.929736 1_555
O15 Sr4 2.808879 1_555
O16 Sr4 2.711613 1_655
O16 Sr0 2.719810 1_565
O16 Sr2 2.772445 1_665
O17 Sr1 2.764453 1_565
O17 Sr3 2.765759 1_665
O18 Ti0 1.986368 1_555
O18 Sr4 2.724841 1_655
O18 Sr0 2.746040 1_555
O18 Sr2 2.773751 1_655
O19 Ti0 1.962036 1_555
O19 Sr1 2.763641 1_555
O19 Sr3 2.772874 1_655
O20 Ti1 1.955148 1_556
O20 Ti2 1.960810 1_555
O20 Sr4 2.760522 1_555
O20 Sr0 2.779258 1_565
O20 Sr2 2.801339 1_565
O21 Ti1 1.942746 1_555
O21 Ti2 1.947779 1_555
O21 Sr1 2.790429 1_565
O21 Sr3 2.798074 1_565
O22 Ti3 1.956269 1_556
O22 Ti4 1.960895 1_555
O22 Sr4 2.779016 1_555
O22 Sr0 2.797773 1_555
O22 Sr2 2.817468 1_555
O23 Ti3 1.943357 1_555
O23 Ti4 1.945907 1_555
O23 Sr1 2.807773 1_555
O23 Sr3 2.817331 1_555
