# generated using pymatgen
data_Li3Mn4SnO8
_symmetry_space_group_name_H-M   'P 1'
_cell_length_a   6.25229199
_cell_length_b   10.65065987
_cell_length_c   6.21908400
_cell_angle_alpha   74.22350029
_cell_angle_beta   60.60739437
_cell_angle_gamma   74.38236055
_symmetry_Int_Tables_number   1
_chemical_formula_structural   Li3Mn4SnO8
_chemical_formula_sum   'Li6 Mn8 Sn2 O16'
_cell_volume   342.65096704
_cell_formula_units_Z   2
loop_
 _symmetry_equiv_pos_site_id
 _symmetry_equiv_pos_as_xyz
  1  'x, y, z'
loop_
 _atom_site_type_symbol
 _atom_site_label
 _atom_site_symmetry_multiplicity
 _atom_site_fract_x
 _atom_site_fract_y
 _atom_site_fract_z
 _atom_site_occupancy
  Li  Li0  1  0.74129200  0.24950400  0.74794000  1
  Li  Li1  1  0.25910600  0.75048200  0.25161400  1
  Li  Li2  1  0.76434000  0.23649800  0.25992700  1
  Li  Li3  1  0.23603100  0.76347100  0.73988200  1
  Li  Li4  1  0.24599200  0.25383800  0.74094800  1
  Li  Li5  1  0.75392600  0.74611900  0.25905900  1
  Mn  Mn0  1  0.24462700  0.24892300  0.24936100  1
  Mn  Mn1  1  0.75557300  0.75128300  0.75051200  1
  Mn  Mn2  1  0.00031300  0.99998600  0.49984600  1
  Mn  Mn3  1  0.49958800  0.50006200  0.00002600  1
  Mn  Mn4  1  0.50021800  0.00008000  0.99991700  1
  Mn  Mn5  1  0.99988400  0.50003200  0.50000800  1
  Mn  Mn6  1  0.49941700  0.49989000  0.50052700  1
  Mn  Mn7  1  0.00013100  0.99985800  0.00011700  1
  Sn  Sn0  1  0.50014800  0.99995900  0.49989300  1
  Sn  Sn1  1  0.99972000  0.49997500  0.00013300  1
  O  O0  1  0.88724000  0.39015400  0.84571400  1
  O  O1  1  0.37423700  0.88219700  0.37937500  1
  O  O2  1  0.62627600  0.11787300  0.62048800  1
  O  O3  1  0.11222800  0.60976500  0.15450700  1
  O  O4  1  0.32948100  0.38796100  0.38453800  1
  O  O5  1  0.87937900  0.88519300  0.86961900  1
  O  O6  1  0.12101500  0.11479200  0.13020400  1
  O  O7  1  0.67003500  0.61207600  0.61567400  1
  O  O8  1  0.87215000  0.37386800  0.34939700  1
  O  O9  1  0.38069600  0.87581500  0.85705600  1
  O  O10  1  0.35328700  0.37809000  0.88141000  1
  O  O11  1  0.85770500  0.88001400  0.37510100  1
  O  O12  1  0.14262400  0.12001200  0.62479900  1
  O  O13  1  0.64615900  0.62189000  0.11874500  1
  O  O14  1  0.61965900  0.12424700  0.14289200  1
  O  O15  1  0.12752400  0.62609300  0.65077300  1
loop_
_geom_bond_atom_site_label_1
_geom_bond_atom_site_label_2
_geom_bond_distance
_geom_bond_site_symmetry_2
Li0 O2 2.194872 1_555
Li0 O0 2.285266 1_555
Li0 O10 2.302695 1_555
Li0 O14 2.306967 1_556
Li0 O8 2.318390 1_555
Li0 O12 2.368472 1_655
Li1 O1 2.197434 1_555
Li1 O3 2.287319 1_555
Li1 O13 2.298439 1_555
Li1 O9 2.305456 1_554
Li1 O15 2.321248 1_555
Li1 O11 2.368875 1_455
Li2 O8 2.060680 1_555
Li2 O14 2.116398 1_555
Li2 O2 2.125152 1_555
Li2 O6 2.133174 1_655
Li2 O0 2.519190 1_554
Li2 O4 2.616325 1_555
Li3 O15 2.062194 1_555
Li3 O9 2.117700 1_555
Li3 O1 2.125411 1_555
Li3 O5 2.133150 1_455
Li3 O3 2.521095 1_556
Li3 O7 2.612248 1_555
Li4 O12 2.117812 1_555
Li4 O10 2.155512 1_555
Li4 O4 2.184072 1_555
Li4 O0 2.211330 1_455
Li4 O2 2.301976 1_555
Li4 O6 2.341138 1_556
Li5 O11 2.119668 1_555
Li5 O13 2.156641 1_555
Li5 O7 2.184405 1_555
Li5 O3 2.209601 1_655
Li5 O1 2.299898 1_555
Li5 O5 2.342060 1_554
Mn0 O4 2.172294 1_555
Mn0 O10 2.203622 1_554
Mn0 O6 2.218024 1_555
Mn0 O8 2.222788 1_455
Mn0 O14 2.231022 1_555
Mn0 O12 2.238326 1_555
Mn1 O7 2.175014 1_555
Mn1 O13 2.205751 1_556
Mn1 O5 2.216695 1_555
Mn1 O15 2.221484 1_655
Mn1 O9 2.229671 1_555
Mn1 O11 2.237374 1_555
Mn2 O6 2.148198 1_565
Mn2 O5 2.148722 1_455
Mn2 O1 2.193958 1_555
Mn2 O2 2.194850 1_465
Mn2 O11 2.204779 1_455
Mn2 O12 2.204785 1_565
Mn3 O10 2.211732 1_554
Mn3 O13 2.212210 1_555
Mn3 O7 2.214967 1_554
Mn3 O4 2.215803 1_555
Mn3 O3 2.226333 1_555
Mn3 O0 2.228396 1_554
Mn4 O2 2.204628 1_555
Mn4 O1 2.205128 1_546
Mn4 O6 2.205293 1_556
Mn4 O5 2.205777 1_545
Mn4 O14 2.218145 1_556
Mn4 O9 2.218811 1_545
Mn5 O4 1.968800 1_655
Mn5 O7 1.969808 1_555
Mn5 O3 2.017726 1_655
Mn5 O0 2.019223 1_555
Mn5 O15 2.305343 1_655
Mn5 O8 2.305915 1_555
Mn6 O15 2.225718 1_555
Mn6 O8 2.228824 1_555
Mn6 O10 2.229676 1_555
Mn6 O4 2.229857 1_555
Mn6 O7 2.231561 1_555
Mn6 O13 2.234639 1_555
Mn7 O5 2.087333 1_454
Mn7 O6 2.088326 1_565
Mn7 O11 2.194459 1_455
Mn7 O12 2.197269 1_564
Mn7 O9 2.251034 1_554
Mn7 O14 2.252073 1_465
O0 Sn1 2.121696 1_556
O1 Sn0 2.092038 1_555
O2 Sn0 2.094636 1_545
O3 Sn1 2.121353 1_455
O8 Sn1 2.109034 1_555
O9 Sn0 2.132181 1_555
O10 Sn1 2.119211 1_456
O11 Sn0 2.128466 1_555
O12 Sn0 2.128808 1_545
O13 Sn1 2.119319 1_555
O14 Sn0 2.132139 1_545
O15 Sn1 2.109553 1_456
