# generated using pymatgen
data_Y3AlNiS7
_symmetry_space_group_name_H-M   'P 1'
_cell_length_a   9.53899835
_cell_length_b   9.53899835
_cell_length_c   6.16810100
_cell_angle_alpha   90.00000000
_cell_angle_beta   90.00000000
_cell_angle_gamma   120.00000243
_symmetry_Int_Tables_number   1
_chemical_formula_structural   Y3AlNiS7
_chemical_formula_sum   'Y6 Al2 Ni2 S14'
_cell_volume   486.05749569
_cell_formula_units_Z   2
loop_
 _symmetry_equiv_pos_site_id
 _symmetry_equiv_pos_as_xyz
  1  'x, y, z'
loop_
 _atom_site_type_symbol
 _atom_site_label
 _atom_site_symmetry_multiplicity
 _atom_site_fract_x
 _atom_site_fract_y
 _atom_site_fract_z
 _atom_site_occupancy
  Y  Y0  1  0.77522600  0.15079200  0.22241700  1
  Y  Y1  1  0.37556600  0.22477400  0.22241700  1
  Y  Y2  1  0.84920800  0.62443400  0.22241700  1
  Y  Y3  1  0.22477400  0.84920800  0.72241700  1
  Y  Y4  1  0.62443400  0.77522600  0.72241700  1
  Y  Y5  1  0.15079200  0.37556600  0.72241700  1
  Al  Al0  1  0.66666700  0.33333300  0.65348000  1
  Al  Al1  1  0.33333300  0.66666700  0.15348000  1
  Ni  Ni0  1  0.00000000  0.00000000  0.05105200  1
  Ni  Ni1  1  0.00000000  0.00000000  0.55105200  1
  S  S0  1  0.86619100  0.09757700  0.81793900  1
  S  S1  1  0.23138600  0.13380900  0.81793900  1
  S  S2  1  0.90242300  0.76861400  0.81793900  1
  S  S3  1  0.13380900  0.90242300  0.31793900  1
  S  S4  1  0.76861400  0.86619100  0.31793900  1
  S  S5  1  0.09757700  0.23138600  0.31793900  1
  S  S6  1  0.91066700  0.42919400  0.49603200  1
  S  S7  1  0.51852700  0.08933300  0.49603200  1
  S  S8  1  0.57080600  0.48147300  0.49603200  1
  S  S9  1  0.08933300  0.57080600  0.99603200  1
  S  S10  1  0.48147300  0.91066700  0.99603200  1
  S  S11  1  0.42919400  0.51852700  0.99603200  1
  S  S12  1  0.66666700  0.33333300  0.01427300  1
  S  S13  1  0.33333300  0.66666700  0.51427300  1
loop_
_geom_bond_atom_site_label_1
_geom_bond_atom_site_label_2
_geom_bond_distance
_geom_bond_site_symmetry_2
Al0 S12 2.225408 1_556
Al0 S6 2.251291 1_555
Al0 S7 2.251292 1_555
Al0 S8 2.251299 1_555
Al1 S13 2.225408 1_555
Al1 S9 2.251291 1_554
Al1 S10 2.251292 1_554
Al1 S11 2.251299 1_554
Ni0 S1 2.398142 1_554
Ni0 S2 2.398142 1_444
Ni0 S0 2.398142 1_454
Ni0 S4 2.528549 1_445
Ni0 S5 2.528549 1_555
Ni0 S3 2.528549 1_545
Ni1 S4 2.398142 1_445
Ni1 S5 2.398142 1_555
Ni1 S3 2.398142 1_545
Ni1 S1 2.528549 1_555
Ni1 S2 2.528549 1_445
Ni1 S0 2.528549 1_455
S0 Y5 2.747741 1_655
S0 Y0 2.770452 1_556
S0 Y4 2.833598 1_545
S1 Y3 2.747741 1_545
S1 Y1 2.770452 1_556
S1 Y5 2.833598 1_555
S2 Y4 2.747741 1_555
S2 Y2 2.770452 1_556
S2 Y3 2.833598 1_655
S3 Y2 2.747741 1_455
S3 Y3 2.770452 1_555
S3 Y1 2.833598 1_565
S4 Y0 2.747741 1_565
S4 Y4 2.770452 1_555
S4 Y2 2.833598 1_555
S5 Y1 2.747741 1_555
S5 Y5 2.770452 1_555
S5 Y0 2.833598 1_455
S6 Y2 2.784301 1_555
S6 Y0 2.852898 1_555
S6 Y5 2.937670 1_655
S7 Y0 2.784301 1_555
S7 Y1 2.852898 1_555
S7 Y3 2.937670 1_545
S8 Y1 2.784301 1_555
S8 Y2 2.852898 1_555
S8 Y4 2.937670 1_555
S9 Y5 2.784301 1_555
S9 Y3 2.852898 1_555
S9 Y2 2.937670 1_456
S10 Y3 2.784301 1_555
S10 Y4 2.852898 1_555
S10 Y0 2.937670 1_566
S11 Y4 2.784301 1_555
S11 Y5 2.852898 1_555
S11 Y1 2.937670 1_556
S12 Y0 2.748774 1_555
S12 Y2 2.748781 1_555
S12 Y1 2.748782 1_555
S13 Y3 2.748774 1_555
S13 Y5 2.748781 1_555
S13 Y4 2.748782 1_555
