# generated using pymatgen
data_Li9Mn2Co5O16
_symmetry_space_group_name_H-M   'P 1'
_cell_length_a   5.87486000
_cell_length_b   5.90897823
_cell_length_c   8.14116653
_cell_angle_alpha   90.72590157
_cell_angle_beta   90.67325000
_cell_angle_gamma   93.21745122
_symmetry_Int_Tables_number   1
_chemical_formula_structural   Li9Mn2Co5O16
_chemical_formula_sum   'Li9 Mn2 Co5 O16'
_cell_volume   282.12576456
_cell_formula_units_Z   1
loop_
 _symmetry_equiv_pos_site_id
 _symmetry_equiv_pos_as_xyz
  1  'x, y, z'
loop_
 _atom_site_type_symbol
 _atom_site_label
 _atom_site_symmetry_multiplicity
 _atom_site_fract_x
 _atom_site_fract_y
 _atom_site_fract_z
 _atom_site_occupancy
  Li  Li0  1  0.50359200  0.99528900  0.99667200  1
  Li  Li1  1  0.25325000  0.75134700  0.74350700  1
  Li  Li2  1  0.74803200  0.74926300  0.25489600  1
  Li  Li3  1  0.50391200  0.50459300  0.99397600  1
  Li  Li4  1  0.99333800  0.50662100  0.50400100  1
  Li  Li5  1  0.74661200  0.24894400  0.25669100  1
  Li  Li6  1  0.25100500  0.24945300  0.74362500  1
  Li  Li7  1  0.99462500  0.99404700  0.50602700  1
  Li  Li8  1  0.75011200  0.74867200  0.74458000  1
  Mn  Mn0  1  0.99545200  0.00232800  0.99867400  1
  Mn  Mn1  1  0.99531900  0.50587600  0.99937100  1
  Co  Co0  1  0.50520600  0.49687300  0.50022500  1
  Co  Co1  1  0.25100800  0.25259100  0.25260200  1
  Co  Co2  1  0.74687900  0.25028900  0.74954800  1
  Co  Co3  1  0.50784400  0.99129300  0.50258300  1
  Co  Co4  1  0.25191200  0.75005100  0.25121900  1
  O  O0  1  0.22208300  0.26464400  0.01206600  1
  O  O1  1  0.97540000  0.02540200  0.76249400  1
  O  O2  1  0.48591900  0.98672600  0.25631600  1
  O  O3  1  0.24611700  0.73444500  0.00526300  1
  O  O4  1  0.72888700  0.73778400  0.49970300  1
  O  O5  1  0.48507700  0.48869200  0.26209000  1
  O  O6  1  0.98980400  0.48368100  0.76349200  1
  O  O7  1  0.74448900  0.22970200  0.51496400  1
  O  O8  1  0.77982100  0.73969000  0.00109500  1
  O  O9  1  0.52777200  0.47150500  0.73449800  1
  O  O10  1  0.01092900  0.51531400  0.23939400  1
  O  O11  1  0.75016900  0.27161100  0.98979900  1
  O  O12  1  0.26948400  0.25723800  0.48756300  1
  O  O13  1  0.01361500  0.01511400  0.24028900  1
  O  O14  1  0.51306700  0.01697700  0.74199200  1
  O  O15  1  0.25927200  0.76394800  0.49078200  1
loop_
_geom_bond_atom_site_label_1
_geom_bond_atom_site_label_2
_geom_bond_distance
_geom_bond_site_symmetry_2
Li0 O14 2.080173 1_565
Li0 O3 2.100505 1_556
Li0 O2 2.118676 1_556
Li0 O11 2.122800 1_565
Li0 O8 2.278381 1_556
Li0 O0 2.362069 1_566
Li1 O15 2.060413 1_555
Li1 O14 2.127361 1_565
Li1 O3 2.135395 1_556
Li1 O6 2.158956 1_455
Li1 O1 2.367934 1_465
Li1 O9 2.374832 1_555
Li2 O4 1.999299 1_555
Li2 O8 2.077186 1_555
Li2 O5 2.120855 1_555
Li2 O10 2.133591 1_655
Li2 O2 2.140741 1_555
Li2 O13 2.156450 1_665
Li3 O11 2.052553 1_555
Li3 O8 2.074507 1_556
Li3 O3 2.092337 1_556
Li3 O9 2.126007 1_555
Li3 O0 2.126233 1_556
Li3 O5 2.189800 1_556
Li4 O6 2.118887 1_555
Li4 O15 2.122715 1_655
Li4 O4 2.125763 1_555
Li4 O7 2.135654 1_555
Li4 O10 2.159022 1_655
Li4 O12 2.256054 1_655
Li5 O7 2.107299 1_555
Li5 O2 2.116547 1_545
Li5 O5 2.148021 1_555
Li5 O13 2.151969 1_655
Li5 O10 2.155201 1_655
Li5 O11 2.178902 1_554
Li6 O9 2.033895 1_555
Li6 O1 2.041650 1_455
Li6 O12 2.089696 1_555
Li6 O14 2.120126 1_555
Li6 O6 2.129569 1_455
Li6 O0 2.195101 1_556
Li7 O7 2.081684 1_565
Li7 O1 2.098730 1_565
Li7 O4 2.112734 1_555
Li7 O15 2.125769 1_655
Li7 O13 2.172384 1_665
Li7 O12 2.185953 1_665
Li8 O4 1.996015 1_555
Li8 O9 2.036953 1_555
Li8 O1 2.047767 1_565
Li8 O8 2.095159 1_556
Li8 O14 2.168250 1_565
Li8 O6 2.169549 1_555
Mn0 O1 1.932013 1_555
Mn0 O8 1.947901 1_546
Mn0 O13 1.968931 1_656
Mn0 O0 1.986905 1_656
Mn0 O11 2.207133 1_555
Mn0 O3 2.222401 1_646
Mn1 O6 1.922914 1_555
Mn1 O8 1.925642 1_556
Mn1 O11 1.940965 1_555
Mn1 O3 1.941824 1_656
Mn1 O10 1.955084 1_656
Mn1 O0 2.007730 1_656
Co0 O4 1.882451 1_555
Co0 O9 1.918646 1_555
Co0 O12 1.925168 1_555
Co0 O5 1.940737 1_555
Co0 O7 2.175503 1_555
Co0 O15 2.200086 1_555
Co1 O5 1.903339 1_555
Co1 O12 1.914422 1_555
Co1 O13 1.922933 1_555
Co1 O0 1.966148 1_555
Co1 O2 2.148746 1_545
Co1 O10 2.158089 1_555
Co2 O9 1.889405 1_555
Co2 O14 1.890642 1_555
Co2 O7 1.911956 1_555
Co2 O6 1.929476 1_555
Co2 O1 1.944177 1_555
Co2 O11 1.958182 1_555
Co3 O7 1.923752 1_565
Co3 O15 1.928643 1_555
Co3 O14 1.952798 1_565
Co3 O2 2.007266 1_555
Co3 O4 2.036917 1_555
Co3 O12 2.166389 1_565
Co4 O2 1.904962 1_555
Co4 O10 1.926266 1_555
Co4 O15 1.950880 1_555
Co4 O3 2.003125 1_555
Co4 O5 2.123054 1_555
Co4 O13 2.160484 1_565
