# generated using pymatgen
data_Ag13As3(IO3)4
_symmetry_space_group_name_H-M   'P 1'
_cell_length_a   7.14040500
_cell_length_b   9.44517300
_cell_length_c   18.11065211
_cell_angle_alpha   89.54897895
_cell_angle_beta   90.00000000
_cell_angle_gamma   90.00000000
_symmetry_Int_Tables_number   1
_chemical_formula_structural   Ag13As3(IO3)4
_chemical_formula_sum   'Ag26 As6 I8 O24'
_cell_volume   1221.38728618
_cell_formula_units_Z   2
loop_
 _symmetry_equiv_pos_site_id
 _symmetry_equiv_pos_as_xyz
  1  'x, y, z'
loop_
 _atom_site_type_symbol
 _atom_site_label
 _atom_site_symmetry_multiplicity
 _atom_site_fract_x
 _atom_site_fract_y
 _atom_site_fract_z
 _atom_site_occupancy
  Ag  Ag0  1  0.25000000  0.70543600  0.33394200  1
  Ag  Ag1  1  0.75000000  0.29456400  0.66605800  1
  Ag  Ag2  1  0.75000000  0.04802900  0.38051600  1
  Ag  Ag3  1  0.25000000  0.95197100  0.61948400  1
  Ag  Ag4  1  0.53890300  0.97587500  0.24430300  1
  Ag  Ag5  1  0.03890300  0.02412500  0.75569700  1
  Ag  Ag6  1  0.46109700  0.02412500  0.75569700  1
  Ag  Ag7  1  0.96109700  0.97587500  0.24430300  1
  Ag  Ag8  1  0.45937000  0.39358700  0.33367700  1
  Ag  Ag9  1  0.95937000  0.60641300  0.66632300  1
  Ag  Ag10  1  0.54063000  0.60641300  0.66632300  1
  Ag  Ag11  1  0.04063000  0.39358700  0.33367700  1
  Ag  Ag12  1  0.48552700  0.76865400  0.47648000  1
  Ag  Ag13  1  0.98552700  0.23134600  0.52352000  1
  Ag  Ag14  1  0.51447300  0.23134600  0.52352000  1
  Ag  Ag15  1  0.01447300  0.76865400  0.47648000  1
  Ag  Ag16  1  0.48758000  0.62860200  0.15360100  1
  Ag  Ag17  1  0.98758000  0.37139800  0.84639900  1
  Ag  Ag18  1  0.51242000  0.37139800  0.84639900  1
  Ag  Ag19  1  0.01242000  0.62860200  0.15360100  1
  Ag  Ag20  1  0.75000000  0.91265800  0.08998400  1
  Ag  Ag21  1  0.25000000  0.08734200  0.91001600  1
  Ag  Ag22  1  0.50378700  0.27332600  0.06854000  1
  Ag  Ag23  1  0.00378700  0.72667400  0.93146000  1
  Ag  Ag24  1  0.49621300  0.72667400  0.93146000  1
  Ag  Ag25  1  0.99621300  0.27332600  0.06854000  1
  As  As0  1  0.75000000  0.68687100  0.32171100  1
  As  As1  1  0.25000000  0.31312900  0.67828900  1
  As  As2  1  0.25000000  0.93057500  0.07279600  1
  As  As3  1  0.75000000  0.06942500  0.92720400  1
  As  As4  1  0.25000000  0.06204200  0.39439600  1
  As  As5  1  0.75000000  0.93795800  0.60560400  1
  I  I0  1  0.75000000  0.21362100  0.21875100  1
  I  I1  1  0.25000000  0.78637900  0.78124900  1
  I  I2  1  0.25000000  0.52715700  0.45743600  1
  I  I3  1  0.75000000  0.47284300  0.54256400  1
  I  I4  1  0.25000000  0.40092500  0.19357500  1
  I  I5  1  0.75000000  0.59907500  0.80642500  1
  I  I6  1  0.75000000  0.53815600  0.04682800  1
  I  I7  1  0.25000000  0.46184400  0.95317200  1
  O  O0  1  0.54995800  0.72931500  0.27107100  1
  O  O1  1  0.04995800  0.27068500  0.72892900  1
  O  O2  1  0.45004200  0.27068500  0.72892900  1
  O  O3  1  0.95004200  0.72931500  0.27107100  1
  O  O4  1  0.75000000  0.79189000  0.40037100  1
  O  O5  1  0.25000000  0.20811000  0.59962900  1
  O  O6  1  0.75000000  0.50894200  0.34293800  1
  O  O7  1  0.25000000  0.49105800  0.65706200  1
  O  O8  1  0.44441100  0.87297100  0.12230300  1
  O  O9  1  0.94441100  0.12702900  0.87769700  1
  O  O10  1  0.55558900  0.12702900  0.87769700  1
  O  O11  1  0.05558900  0.87297100  0.12230300  1
  O  O12  1  0.25000000  0.85904200  0.98486200  1
  O  O13  1  0.75000000  0.14095800  0.01513800  1
  O  O14  1  0.45038200  0.16801900  0.39663900  1
  O  O15  1  0.95038200  0.83198100  0.60336100  1
  O  O16  1  0.54961800  0.83198100  0.60336100  1
  O  O17  1  0.04961800  0.16801900  0.39663900  1
  O  O18  1  0.25000000  0.95251700  0.47130400  1
  O  O19  1  0.75000000  0.04748300  0.52869600  1
  O  O20  1  0.25000000  0.96474000  0.31308900  1
  O  O21  1  0.75000000  0.03526000  0.68691100  1
  O  O22  1  0.25000000  0.11321300  0.06237000  1
  O  O23  1  0.75000000  0.88678700  0.93763000  1
loop_
_geom_bond_atom_site_label_1
_geom_bond_atom_site_label_2
_geom_bond_distance
_geom_bond_site_symmetry_2
Ag0 O3 2.435306 1_455
Ag0 O0 2.435306 1_555
Ag0 O20 2.475178 1_555
Ag0 I2 2.788966 1_555
Ag1 O2 2.435306 1_555
Ag1 O1 2.435306 1_655
Ag1 O21 2.475178 1_555
Ag1 I3 2.788966 1_555
Ag2 O17 2.439653 1_655
Ag2 O14 2.439653 1_555
Ag2 O4 2.443053 1_545
Ag2 O19 2.683601 1_555
Ag2 I0 3.310145 1_555
Ag3 O16 2.439653 1_555
Ag3 O15 2.439653 1_455
Ag3 O5 2.443053 1_565
Ag3 O18 2.683601 1_555
Ag3 I1 3.310145 1_555
Ag4 O0 2.376298 1_555
Ag4 O20 2.411723 1_555
Ag4 O8 2.513088 1_555
Ag4 I0 2.740858 1_565
Ag5 O1 2.376298 1_555
Ag5 O21 2.411723 1_455
Ag5 O9 2.513088 1_455
Ag5 I1 2.740858 1_545
Ag6 O2 2.376298 1_555
Ag6 O21 2.411723 1_555
Ag6 O10 2.513088 1_555
Ag6 I1 2.740858 1_545
Ag7 O3 2.376298 1_555
Ag7 O20 2.411723 1_655
Ag7 O11 2.513088 1_655
Ag7 I0 2.740858 1_565
Ag8 O6 2.350456 1_555
Ag8 O14 2.409413 1_555
Ag8 I4 2.945353 1_555
Ag8 I2 2.982414 1_555
Ag8 I0 3.403489 1_555
Ag9 O7 2.350456 1_655
Ag9 O15 2.409413 1_555
Ag9 I5 2.945353 1_555
Ag9 I3 2.982414 1_555
Ag9 I1 3.403489 1_655
Ag10 O7 2.350456 1_555
Ag10 O16 2.409413 1_555
Ag10 I5 2.945353 1_555
Ag10 I3 2.982414 1_555
Ag10 I1 3.403489 1_555
Ag11 O6 2.350456 1_455
Ag11 O17 2.409413 1_555
Ag11 I4 2.945353 1_555
Ag11 I2 2.982414 1_555
Ag11 I0 3.403489 1_455
Ag12 O4 2.347247 1_555
Ag12 O18 2.418755 1_555
Ag12 O16 2.422636 1_555
Ag12 I2 2.857013 1_555
Ag13 O5 2.347247 1_655
Ag13 O19 2.418755 1_555
Ag13 O17 2.422636 1_655
Ag13 I3 2.857013 1_555
Ag14 O5 2.347247 1_555
Ag14 O19 2.418755 1_555
Ag14 O14 2.422636 1_555
Ag14 I3 2.857013 1_555
Ag15 O4 2.347247 1_455
Ag15 O18 2.418755 1_555
Ag15 O15 2.422636 1_455
Ag15 I2 2.857013 1_555
Ag16 O0 2.379329 1_555
Ag16 O8 2.392294 1_555
Ag16 I4 2.828756 1_555
Ag16 I6 2.829519 1_555
Ag17 O1 2.379329 1_655
Ag17 O9 2.392294 1_555
Ag17 I5 2.828756 1_555
Ag17 I7 2.829519 1_655
Ag18 O2 2.379329 1_555
Ag18 O10 2.392294 1_555
Ag18 I5 2.828756 1_555
Ag18 I7 2.829519 1_555
Ag19 O3 2.379329 1_455
Ag19 O11 2.392294 1_555
Ag19 I4 2.828756 1_555
Ag19 I6 2.829519 1_455
Ag20 O11 2.289303 1_655
Ag20 O8 2.289303 1_555
Ag20 O13 2.537944 1_565
Ag20 O23 2.771945 1_554
Ag21 O9 2.289303 1_455
Ag21 O10 2.289303 1_555
Ag21 O12 2.537944 1_545
Ag21 O22 2.771945 1_556
Ag22 O22 2.363481 1_555
Ag22 O13 2.368181 1_555
Ag22 I6 3.080055 1_555
Ag22 I4 3.147558 1_555
Ag22 I7 3.280445 1_554
Ag22 I0 3.284100 1_555
Ag23 O23 2.363481 1_455
Ag23 O12 2.368181 1_555
Ag23 I7 3.080055 1_555
Ag23 I5 3.147558 1_455
Ag23 I6 3.280445 1_456
Ag23 I1 3.284100 1_555
Ag24 O23 2.363481 1_555
Ag24 O12 2.368181 1_555
Ag24 I7 3.080055 1_555
Ag24 I5 3.147558 1_555
Ag24 I6 3.280445 1_556
Ag24 I1 3.284100 1_555
Ag25 O22 2.363481 1_655
Ag25 O13 2.368181 1_555
Ag25 I6 3.080055 1_555
Ag25 I4 3.147558 1_655
Ag25 I7 3.280445 1_654
Ag25 I0 3.284100 1_555
As0 O6 1.721027 1_555
As0 O4 1.742296 1_555
As0 O3 1.742502 1_555
As0 O0 1.742502 1_555
As1 O7 1.721027 1_555
As1 O5 1.742296 1_555
As1 O2 1.742502 1_555
As1 O1 1.742502 1_555
As2 O22 1.733873 1_565
As2 O12 1.734826 1_554
As2 O8 1.737604 1_555
As2 O11 1.737604 1_555
As3 O23 1.733873 1_545
As3 O13 1.734826 1_556
As3 O9 1.737604 1_555
As3 O10 1.737604 1_555
As4 O18 1.728442 1_545
As4 O20 1.741911 1_545
As4 O17 1.746839 1_555
As4 O14 1.746839 1_555
As5 O19 1.728442 1_565
As5 O21 1.741911 1_565
As5 O15 1.746839 1_555
As5 O16 1.746839 1_555
