# generated using pymatgen
data_BaCe(SnS3)2
_symmetry_space_group_name_H-M   'P 1'
_cell_length_a   4.10017100
_cell_length_b   12.09187000
_cell_length_c   19.89935400
_cell_angle_alpha   90.00000000
_cell_angle_beta   90.00000000
_cell_angle_gamma   90.00000000
_symmetry_Int_Tables_number   1
_chemical_formula_structural   BaCe(SnS3)2
_chemical_formula_sum   'Ba4 Ce4 Sn8 S24'
_cell_volume   986.58479286
_cell_formula_units_Z   4
loop_
 _symmetry_equiv_pos_site_id
 _symmetry_equiv_pos_as_xyz
  1  'x, y, z'
loop_
 _atom_site_type_symbol
 _atom_site_label
 _atom_site_symmetry_multiplicity
 _atom_site_fract_x
 _atom_site_fract_y
 _atom_site_fract_z
 _atom_site_occupancy
  Ba  Ba0  1  0.50000000  0.31869200  0.08006100  1
  Ba  Ba1  1  0.50000000  0.81869200  0.91993900  1
  Ba  Ba2  1  0.50000000  0.75384300  0.35984200  1
  Ba  Ba3  1  0.50000000  0.25384300  0.64015800  1
  Ce  Ce0  1  0.50000000  0.68356700  0.11820400  1
  Ce  Ce1  1  0.50000000  0.18356700  0.88179600  1
  Ce  Ce2  1  0.50000000  0.87292700  0.58170000  1
  Ce  Ce3  1  0.50000000  0.37292700  0.41830000  1
  Sn  Sn0  1  0.50000000  0.10127000  0.25308800  1
  Sn  Sn1  1  0.50000000  0.60127000  0.74691200  1
  Sn  Sn2  1  0.00000000  0.99509500  0.09213500  1
  Sn  Sn3  1  0.00000000  0.49509500  0.90786500  1
  Sn  Sn4  1  0.00000000  0.49920500  0.24845900  1
  Sn  Sn5  1  0.00000000  0.99920500  0.75154100  1
  Sn  Sn6  1  0.00000000  0.54871500  0.57564400  1
  Sn  Sn7  1  0.00000000  0.04871500  0.42435600  1
  S  S0  1  0.50000000  0.06240300  0.01475600  1
  S  S1  1  0.50000000  0.56240300  0.98524400  1
  S  S2  1  0.50000000  0.92003300  0.16677000  1
  S  S3  1  0.50000000  0.42003300  0.83323000  1
  S  S4  1  0.50000000  0.59541000  0.50854000  1
  S  S5  1  0.50000000  0.09541000  0.49146000  1
  S  S6  1  0.50000000  0.88098300  0.74056600  1
  S  S7  1  0.50000000  0.38098300  0.25943400  1
  S  S8  1  0.00000000  0.79267300  0.04331800  1
  S  S9  1  0.00000000  0.29267300  0.95668200  1
  S  S10  1  0.00000000  0.50773700  0.11935800  1
  S  S11  1  0.00000000  0.00773700  0.88064200  1
  S  S12  1  0.00000000  0.17144000  0.16382300  1
  S  S13  1  0.00000000  0.67144000  0.83617700  1
  S  S14  1  0.00000000  0.70190300  0.23074500  1
  S  S15  1  0.00000000  0.20190300  0.76925500  1
  S  S16  1  0.00000000  0.95244100  0.31669400  1
  S  S17  1  0.00000000  0.45244100  0.68330600  1
  S  S18  1  0.00000000  0.53332300  0.37555000  1
  S  S19  1  0.00000000  0.03332300  0.62445000  1
  S  S20  1  0.00000000  0.85173500  0.47831100  1
  S  S21  1  0.00000000  0.35173500  0.52168900  1
  S  S22  1  0.00000000  0.73451400  0.63713200  1
  S  S23  1  0.00000000  0.23451400  0.36286800  1
loop_
_geom_bond_atom_site_label_1
_geom_bond_atom_site_label_2
_geom_bond_distance
_geom_bond_site_symmetry_2
Ba0 S10 3.168552 1_555
Ba0 S10 3.168552 1_655
Ba0 S12 3.186137 1_555
Ba0 S12 3.186137 1_655
Ba0 S9 3.213978 1_554
Ba0 S9 3.213978 1_654
Ba0 S0 3.360455 1_555
Ba0 S1 3.499193 1_554
Ba0 S7 3.648013 1_555
Ba1 S11 3.168552 1_565
Ba1 S11 3.168552 1_665
Ba1 S13 3.186137 1_555
Ba1 S13 3.186137 1_655
Ba1 S8 3.213978 1_556
Ba1 S8 3.213978 1_656
Ba1 S1 3.360455 1_555
Ba1 S0 3.499193 1_566
Ba1 S6 3.648013 1_555
Ba2 S16 3.272140 1_655
Ba2 S16 3.272140 1_555
Ba2 S20 3.340897 1_655
Ba2 S20 3.340897 1_555
Ba2 S14 3.346160 1_555
Ba2 S14 3.346160 1_655
Ba2 S18 3.377984 1_655
Ba2 S18 3.377984 1_555
Ba2 S4 3.525018 1_555
Ba3 S17 3.272140 1_555
Ba3 S17 3.272140 1_655
Ba3 S21 3.340897 1_555
Ba3 S21 3.340897 1_655
Ba3 S15 3.346160 1_655
Ba3 S15 3.346160 1_555
Ba3 S19 3.377984 1_555
Ba3 S19 3.377984 1_655
Ba3 S5 3.525018 1_555
Ce0 S8 2.857278 1_655
Ce0 S8 2.857278 1_555
Ce0 S10 2.953597 1_555
Ce0 S10 2.953597 1_655
Ce0 S2 3.018225 1_555
Ce0 S1 3.024379 1_554
Ce0 S14 3.044230 1_555
Ce0 S14 3.044230 1_655
Ce1 S9 2.857278 1_555
Ce1 S9 2.857278 1_655
Ce1 S11 2.953597 1_555
Ce1 S11 2.953597 1_655
Ce1 S3 3.018225 1_555
Ce1 S0 3.024379 1_556
Ce1 S15 3.044230 1_655
Ce1 S15 3.044230 1_555
Ce2 S22 2.867189 1_655
Ce2 S22 2.867189 1_555
Ce2 S20 2.915700 1_655
Ce2 S20 2.915700 1_555
Ce2 S19 2.947567 1_565
Ce2 S19 2.947567 1_665
Ce2 S6 3.162831 1_555
Ce2 S5 3.234497 1_565
Ce2 S4 3.657893 1_555
Ce3 S23 2.867189 1_655
Ce3 S23 2.867189 1_555
Ce3 S21 2.915700 1_555
Ce3 S21 2.915700 1_655
Ce3 S18 2.947567 1_555
Ce3 S18 2.947567 1_655
Ce3 S7 3.162831 1_555
Ce3 S4 3.234497 1_555
Ce3 S5 3.657893 1_555
S0 Sn2 2.690020 1_645
S0 Sn2 2.690020 1_545
S1 Sn3 2.690020 1_555
S1 Sn3 2.690020 1_655
S2 Sn2 2.689321 1_555
S2 Sn2 2.689321 1_655
S2 Sn0 2.784429 1_565
S3 Sn3 2.689321 1_655
S3 Sn3 2.689321 1_555
S3 Sn1 2.784429 1_555
S4 Sn6 2.510927 1_555
S4 Sn6 2.510927 1_655
S5 Sn7 2.510927 1_555
S5 Sn7 2.510927 1_655
S6 Sn5 2.508802 1_655
S6 Sn5 2.508802 1_555
S7 Sn4 2.508802 1_555
S7 Sn4 2.508802 1_655
S8 Sn2 2.633384 1_555
S9 Sn3 2.633384 1_555
S10 Sn4 2.571097 1_555
S11 Sn5 2.571097 1_545
S12 Sn2 2.565523 1_545
S12 Sn0 2.842196 1_555
S12 Sn0 2.842196 1_455
S13 Sn3 2.565523 1_555
S13 Sn1 2.842196 1_455
S13 Sn1 2.842196 1_555
S14 Sn4 2.476216 1_555
S15 Sn5 2.476216 1_545
S16 Sn7 2.438258 1_565
S16 Sn0 3.007246 1_465
S16 Sn0 3.007246 1_565
S17 Sn6 2.438258 1_555
S17 Sn1 3.007246 1_555
S17 Sn1 3.007246 1_455
S18 Sn4 2.562457 1_555
S19 Sn5 2.562457 1_545
S20 Sn7 2.612663 1_565
S21 Sn6 2.612663 1_555
S22 Sn6 2.558241 1_555
S23 Sn7 2.558241 1_555
