# generated using pymatgen
data_Ba6Mg(IrO3)6
_symmetry_space_group_name_H-M   'P 1'
_cell_length_a   5.79167769
_cell_length_b   5.86266436
_cell_length_c   14.98763626
_cell_angle_alpha   93.98209253
_cell_angle_beta   90.09161267
_cell_angle_gamma   119.40139381
_symmetry_Int_Tables_number   1
_chemical_formula_structural   Ba6Mg(IrO3)6
_chemical_formula_sum   'Ba6 Mg1 Ir6 O18'
_cell_volume   441.91128883
_cell_formula_units_Z   1
loop_
 _symmetry_equiv_pos_site_id
 _symmetry_equiv_pos_as_xyz
  1  'x, y, z'
loop_
 _atom_site_type_symbol
 _atom_site_label
 _atom_site_symmetry_multiplicity
 _atom_site_fract_x
 _atom_site_fract_y
 _atom_site_fract_z
 _atom_site_occupancy
  Ba  Ba0  1  0.01071664  0.01642777  0.74674134  1
  Ba  Ba1  1  0.93700407  0.86220762  0.28865638  1
  Ba  Ba2  1  0.34327146  0.67945668  0.89617363  1
  Ba  Ba3  1  0.33736976  0.66210419  0.58856590  1
  Ba  Ba4  1  0.70680020  0.39588194  0.07696369  1
  Ba  Ba5  1  0.64404529  0.27587872  0.42369379  1
  Mg  Mg0  1  0.12803095  0.23573141  0.15650576  1
  Ir  Ir0  1  0.02500569  0.03813917  0.99097611  1
  Ir  Ir1  1  0.99355479  0.97398237  0.50406225  1
  Ir  Ir2  1  0.37711456  0.73739332  0.15527332  1
  Ir  Ir3  1  0.31413084  0.61568305  0.34373605  1
  Ir  Ir4  1  0.67337854  0.34059564  0.84239363  1
  Ir  Ir5  1  0.67452880  0.33812999  0.65474256  1
  O  O0  1  0.13502348  0.24713757  0.40307430  1
  O  O1  1  0.76191215  0.96772521  0.10305175  1
  O  O2  1  0.85525789  0.70815993  0.60042456  1
  O  O3  1  0.31036943  0.12224636  0.90014835  1
  O  O4  1  0.22802467  0.97096665  0.10106656  1
  O  O5  1  0.11417879  0.72810410  0.43857191  1
  O  O6  1  0.81405757  0.12024207  0.90255097  1
  O  O7  1  0.86923279  0.20939120  0.56830917  1
  O  O8  1  0.62734509  0.73784793  0.43918675  1
  O  O9  1  0.22626491  0.43493026  0.04428736  1
  O  O10  1  0.35225030  0.19753841  0.56780844  1
  O  O11  1  0.82933453  0.65289728  0.94054242  1
  O  O12  1  0.52638634  0.48779553  0.75242649  1
  O  O13  1  0.46683869  0.49551376  0.23195496  1
  O  O14  1  0.52964281  0.04832282  0.73922115  1
  O  O15  1  0.96764010  0.48852512  0.75317390  1
  O  O16  1  0.47802119  0.94388505  0.27501604  1
  O  O17  1  0.04534966  0.49632887  0.23141451  1
loop_
_geom_bond_atom_site_label_1
_geom_bond_atom_site_label_2
_geom_bond_distance
_geom_bond_site_symmetry_2
Ba0 O2 2.594503 1_445
Ba0 O3 2.723081 1_555
Ba0 O6 2.759113 1_455
Ba0 O14 2.885165 1_455
Ba0 O15 2.893608 1_455
Ba0 O12 2.902876 1_555
Ba0 O14 2.921068 1_555
Ba0 O15 2.988886 1_445
Ba0 O12 2.997080 1_445
Ba0 O7 3.228989 1_455
Ba0 O10 3.253050 1_555
Ba1 O0 2.502765 1_665
Ba1 O13 2.598061 1_555
Ba1 O17 2.607417 1_655
Ba1 O5 2.783816 1_655
Ba1 O8 2.792047 1_555
Ba1 Mg0 2.858838 1_665
Ba1 O16 2.932441 1_555
Ba1 O16 2.937979 1_655
Ba1 O1 3.161523 1_555
Ba1 O4 3.218865 1_655
Ba2 O9 2.633471 1_556
Ba2 O6 2.677369 1_565
Ba2 O3 2.691274 1_565
Ba2 O15 2.800040 1_455
Ba2 O12 2.805356 1_555
Ba2 O11 2.971553 1_555
Ba2 O11 2.981943 1_455
Ba2 O14 3.130174 1_565
Ba2 O3 3.182341 1_555
Ba2 O6 3.214067 1_455
Ba3 O7 2.703253 1_455
Ba3 O8 2.729101 1_555
Ba3 O5 2.734416 1_555
Ba3 O10 2.763158 1_555
Ba3 O14 2.876035 1_565
Ba3 O2 2.880554 1_555
Ba3 O2 2.938749 1_455
Ba3 O12 3.116483 1_555
Ba3 O10 3.134977 1_565
Ba3 O15 3.151747 1_455
Ba3 O7 3.210897 1_565
Ba4 O11 2.517380 1_554
Ba4 O4 2.714989 1_545
Ba4 O1 2.734620 1_545
Ba4 O17 2.865726 1_655
Ba4 O13 2.878836 1_555
Ba4 O9 2.945286 1_555
Ba4 O9 2.947508 1_655
Ba4 O6 3.199155 1_554
Ba4 O1 3.203288 1_555
Ba4 O4 3.231853 1_655
Ba4 O3 3.262136 1_554
Ba5 O10 2.668272 1_555
Ba5 O7 2.675476 1_555
Ba5 O16 2.689159 1_545
Ba5 O5 2.705698 1_655
Ba5 O8 2.751086 1_555
Ba5 O0 2.883964 1_555
Ba5 O0 2.945490 1_655
Ba5 O8 3.132904 1_545
Ba5 O5 3.194657 1_545
Mg0 O9 2.034644 1_555
Mg0 O4 2.034757 1_545
Mg0 O1 2.038475 1_445
Mg0 O13 2.065955 1_555
Mg0 O17 2.075030 1_555
Ir0 O3 2.031762 1_555
Ir0 O6 2.035079 1_455
Ir0 O11 2.050303 1_445
Ir0 O9 2.117804 1_556
Ir0 O4 2.190620 1_546
Ir0 O1 2.191045 1_446
Ir1 O10 2.023051 1_665
Ir1 O7 2.035613 1_565
Ir1 O2 2.060775 1_555
Ir1 O8 2.069772 1_555
Ir1 O5 2.079394 1_655
Ir1 O0 2.139877 1_665
Ir2 O16 2.007019 1_555
Ir2 O13 2.133011 1_555
Ir2 O17 2.134580 1_555
Ir2 O4 2.143368 1_555
Ir2 O1 2.144846 1_555
Ir2 O9 2.176972 1_555
Ir3 O16 2.036963 1_555
Ir3 O5 2.102459 1_555
Ir3 O8 2.103328 1_555
Ir3 O17 2.122590 1_555
Ir3 O13 2.130235 1_555
Ir3 O0 2.145839 1_555
Ir4 O15 2.040072 1_555
Ir4 O12 2.041316 1_555
Ir4 O14 2.060945 1_555
Ir4 O3 2.079759 1_555
Ir4 O11 2.080850 1_555
Ir4 O6 2.082917 1_555
Ir5 O14 2.023936 1_555
Ir5 O15 2.043857 1_555
Ir5 O10 2.047799 1_555
Ir5 O12 2.052868 1_555
Ir5 O7 2.055226 1_555
Ir5 O2 2.117315 1_555
