# generated using pymatgen
data_Ca2Ni10H
_symmetry_space_group_name_H-M   'P 1'
_cell_length_a   4.96071007
_cell_length_b   4.95301637
_cell_length_c   7.83333752
_cell_angle_alpha   89.63834675
_cell_angle_beta   89.64271790
_cell_angle_gamma   60.54905745
_symmetry_Int_Tables_number   1
_chemical_formula_structural   Ca2Ni10H
_chemical_formula_sum   'Ca2 Ni10 H1'
_cell_volume   167.59302321
_cell_formula_units_Z   1
loop_
 _symmetry_equiv_pos_site_id
 _symmetry_equiv_pos_as_xyz
  1  'x, y, z'
loop_
 _atom_site_type_symbol
 _atom_site_label
 _atom_site_symmetry_multiplicity
 _atom_site_fract_x
 _atom_site_fract_y
 _atom_site_fract_z
 _atom_site_occupancy
  Ca  Ca0  1  0.99307800  0.99311600  0.98804600  1
  Ca  Ca1  1  0.00211600  0.00216200  0.50196000  1
  Ni  Ni0  1  0.33820700  0.33830200  0.00075700  1
  Ni  Ni1  1  0.66016500  0.66014900  0.00146800  1
  Ni  Ni2  1  0.50130800  0.50132700  0.25636900  1
  Ni  Ni3  1  0.99340300  0.51301700  0.25744200  1
  Ni  Ni4  1  0.51301300  0.99338600  0.25745300  1
  Ni  Ni5  1  0.33522800  0.33527200  0.50487700  1
  Ni  Ni6  1  0.66863900  0.66858100  0.50438500  1
  Ni  Ni7  1  0.49920100  0.49924300  0.75082500  1
  Ni  Ni8  1  0.99894800  0.49811800  0.75251900  1
  Ni  Ni9  1  0.49811400  0.99897100  0.75252400  1
  H  H0  1  0.20248000  0.20255600  0.14857500  1
loop_
_geom_bond_atom_site_label_1
_geom_bond_atom_site_label_2
_geom_bond_distance
_geom_bond_site_symmetry_2
Ca0 H0 2.197464 1_666
Ca0 Ni1 2.851704 1_556
Ca0 Ni1 2.879328 1_566
Ca0 Ni1 2.883972 1_656
Ca0 Ni8 3.066261 1_555
Ca0 Ni9 3.069078 1_555
Ca0 Ni8 3.110281 1_565
Ca0 Ni9 3.113587 1_655
Ca0 Ni7 3.114193 1_565
Ca0 Ni7 3.114524 1_655
Ca0 Ni2 3.266441 1_566
Ca0 Ni2 3.266493 1_656
Ca1 Ni5 2.852251 1_555
Ca1 Ni6 2.855497 1_445
Ca1 Ni6 2.874550 1_455
Ca1 Ni5 2.876426 1_545
Ca1 Ni6 2.879413 1_545
Ca1 Ni5 2.880841 1_455
Ca1 Ni3 3.114943 1_445
Ca1 Ni4 3.117680 1_445
Ca1 Ni3 3.147250 1_455
Ca1 Ni8 3.147903 1_455
Ca1 Ni4 3.150510 1_545
Ca1 Ni9 3.150923 1_545
Ca1 Ni2 3.153602 1_455
Ca1 Ni2 3.153890 1_545
Ca1 Ni7 3.169275 1_545
Ca1 Ni7 3.169532 1_455
Ca1 Ni8 3.171992 1_445
Ca1 Ni9 3.175051 1_445
Ni0 Ni7 2.386021 1_554
Ni0 Ni9 2.438458 1_544
Ni0 Ni8 2.439576 1_454
Ni0 Ni2 2.449262 1_555
Ni1 Ni7 2.406797 1_554
Ni1 Ni2 2.407672 1_555
Ni1 Ni9 2.432471 1_554
Ni1 Ni8 2.433922 1_554
Ni1 Ni4 2.473204 1_555
Ni1 Ni3 2.474390 1_555
Ni2 Ni5 2.402247 1_555
Ni2 Ni6 2.422061 1_555
Ni2 Ni4 2.466313 1_555
Ni2 Ni3 2.470191 1_555
Ni2 Ni4 2.487766 1_545
Ni2 Ni3 2.491573 1_455
Ni3 Ni6 2.385441 1_555
Ni3 Ni5 2.441039 1_655
Ni4 Ni6 2.384046 1_555
Ni4 Ni5 2.439934 1_565
Ni5 Ni7 2.392056 1_555
Ni5 Ni9 2.417835 1_545
Ni5 Ni8 2.419246 1_455
Ni6 Ni7 2.406070 1_555
Ni6 Ni9 2.414553 1_555
Ni6 Ni8 2.415444 1_555
Ni7 Ni9 2.472634 1_555
Ni7 Ni8 2.476483 1_555
Ni7 Ni9 2.480463 1_545
Ni7 Ni8 2.484307 1_455
Ni8 Ni9 2.494758 1_645
Ni8 Ni9 2.503189 1_555
H0 Ni3 1.613923 1_455
H0 Ni4 1.615429 1_545
H0 Ni0 1.634551 1_555
