# generated using pymatgen
data_Zr21S8
_symmetry_space_group_name_H-M   'P 1'
_cell_length_a   3.53729238
_cell_length_b   12.83368106
_cell_length_c   12.83305852
_cell_angle_alpha   88.91372943
_cell_angle_beta   82.07830814
_cell_angle_gamma   82.07869487
_symmetry_Int_Tables_number   1
_chemical_formula_structural   Zr21S8
_chemical_formula_sum   'Zr21 S8'
_cell_volume   571.51067499
_cell_formula_units_Z   1
loop_
 _symmetry_equiv_pos_site_id
 _symmetry_equiv_pos_as_xyz
  1  'x, y, z'
loop_
 _atom_site_type_symbol
 _atom_site_label
 _atom_site_symmetry_multiplicity
 _atom_site_fract_x
 _atom_site_fract_y
 _atom_site_fract_z
 _atom_site_occupancy
  Zr  Zr0  1  0.00000000  -0.00000000  -0.00000000  1
  Zr  Zr1  1  0.54795546  0.53558548  0.36850360  1
  Zr  Zr2  1  0.45204454  0.46441452  0.63149640  1
  Zr  Zr3  1  0.08353556  0.36850272  0.46442516  1
  Zr  Zr4  1  0.91646344  0.63149728  0.53557484  1
  Zr  Zr5  1  0.96630304  0.30736739  0.76002652  1
  Zr  Zr6  1  0.03369696  0.69263261  0.23997348  1
  Zr  Zr7  1  0.27365309  0.76004885  0.69264596  1
  Zr  Zr8  1  0.72634691  0.23995115  0.30735404  1
  Zr  Zr9  1  0.80853766  0.58749820  0.79542647  1
  Zr  Zr10  1  0.19146234  0.41250180  0.20457353  1
  Zr  Zr11  1  0.39603420  0.79543008  0.41250152  1
  Zr  Zr12  1  0.60396580  0.20456992  0.58749848  1
  Zr  Zr13  1  0.80026510  0.39446674  0.00500207  1
  Zr  Zr14  1  0.19973490  0.60553326  0.99499793  1
  Zr  Zr15  1  0.19474854  0.00496995  0.60553298  1
  Zr  Zr16  1  0.80525146  0.99503005  0.39446702  1
  Zr  Zr17  1  0.63548401  0.81921533  0.90981766  1
  Zr  Zr18  1  0.36451599  0.18078467  0.09018234  1
  Zr  Zr19  1  0.45467566  0.90982305  0.18082464  1
  Zr  Zr20  1  0.54532434  0.09017695  0.81917536  1
  S  S0  1  0.93279727  0.20000742  0.93439804  1
  S  S1  1  0.06720273  0.79999258  0.06560196  1
  S  S2  1  0.13280217  0.93443558  0.79995908  1
  S  S3  1  0.86719783  0.06556442  0.20004092  1
  S  S4  1  0.64616353  0.55862946  0.14904249  1
  S  S5  1  0.35383647  0.44137054  0.85095751  1
  S  S6  1  0.20480173  0.14902701  0.44136953  1
  S  S7  1  0.79519827  0.85097299  0.55863047  1
loop_
_geom_bond_atom_site_label_1
_geom_bond_atom_site_label_2
_geom_bond_distance
_geom_bond_site_symmetry_2
S0 Zr5 2.602852 1_555
S0 Zr13 2.629653 1_556
S0 Zr18 2.666212 1_656
S0 Zr18 2.666214 1_556
S0 Zr0 2.675618 1_656
S0 Zr20 2.687359 1_555
S0 Zr20 2.687361 1_655
S1 Zr6 2.602852 1_555
S1 Zr14 2.629653 1_554
S1 Zr17 2.666212 1_454
S1 Zr17 2.666214 1_554
S1 Zr0 2.675618 1_565
S1 Zr19 2.687359 1_555
S1 Zr19 2.687361 1_455
S2 Zr7 2.602679 1_555
S2 Zr15 2.628916 1_565
S2 Zr20 2.665856 1_465
S2 Zr20 2.665861 1_565
S2 Zr0 2.675710 1_566
S2 Zr17 2.687585 1_455
S2 Zr17 2.687590 1_555
S3 Zr8 2.602679 1_555
S3 Zr16 2.628916 1_545
S3 Zr19 2.665856 1_645
S3 Zr19 2.665861 1_545
S3 Zr0 2.675710 1_655
S3 Zr18 2.687585 1_655
S3 Zr18 2.687590 1_555
S4 Zr10 2.660181 1_555
S4 Zr10 2.660183 1_655
S4 Zr14 2.705069 1_554
S4 Zr14 2.705074 1_654
S4 Zr6 2.713888 1_555
S4 Zr6 2.713890 1_655
S4 Zr13 2.775978 1_555
S4 Zr1 2.804829 1_555
S5 Zr9 2.660181 1_555
S5 Zr9 2.660183 1_455
S5 Zr13 2.705069 1_556
S5 Zr13 2.705074 1_456
S5 Zr5 2.713888 1_555
S5 Zr5 2.713890 1_455
S5 Zr14 2.775978 1_555
S5 Zr2 2.804829 1_555
S6 Zr12 2.660143 1_455
S6 Zr12 2.660143 1_555
S6 Zr16 2.704662 1_545
S6 Zr16 2.704662 1_445
S6 Zr8 2.713973 1_555
S6 Zr8 2.713975 1_455
S6 Zr15 2.776206 1_555
S6 Zr3 2.805144 1_555
S7 Zr11 2.660143 1_555
S7 Zr11 2.660143 1_655
S7 Zr15 2.704662 1_565
S7 Zr15 2.704662 1_665
S7 Zr7 2.713973 1_555
S7 Zr7 2.713975 1_655
S7 Zr16 2.776206 1_555
S7 Zr4 2.805144 1_555
