# generated using pymatgen
data_Si2SbO6
_symmetry_space_group_name_H-M   'P 1'
_cell_length_a   6.83553922
_cell_length_b   6.83553922
_cell_length_c   5.49177451
_cell_angle_alpha   75.37744136
_cell_angle_beta   75.37744136
_cell_angle_gamma   85.72500203
_symmetry_Int_Tables_number   1
_chemical_formula_structural   Si2SbO6
_chemical_formula_sum   'Si4 Sb2 O12'
_cell_volume   240.23144567
_cell_formula_units_Z   2
loop_
 _symmetry_equiv_pos_site_id
 _symmetry_equiv_pos_as_xyz
  1  'x, y, z'
loop_
 _atom_site_type_symbol
 _atom_site_label
 _atom_site_symmetry_multiplicity
 _atom_site_fract_x
 _atom_site_fract_y
 _atom_site_fract_z
 _atom_site_occupancy
  Si  Si0  1  0.77781900  0.61841600  0.25991100  1
  Si  Si1  1  0.38158400  0.22218100  0.24008900  1
  Si  Si2  1  0.61841600  0.77781900  0.75991100  1
  Si  Si3  1  0.22218100  0.38158400  0.74008900  1
  Sb  Sb0  1  0.87923800  0.12076200  0.25000000  1
  Sb  Sb1  1  0.12076200  0.87923800  0.75000000  1
  O  O0  1  0.65783100  0.63344700  0.03136300  1
  O  O1  1  0.36655300  0.34216900  0.46863700  1
  O  O2  1  0.34216900  0.36655300  0.96863700  1
  O  O3  1  0.63344700  0.65783100  0.53136300  1
  O  O4  1  0.88609100  0.39760100  0.31717800  1
  O  O5  1  0.60239900  0.11390900  0.18282200  1
  O  O6  1  0.11390900  0.60239900  0.68282200  1
  O  O7  1  0.39760100  0.88609100  0.81717800  1
  O  O8  1  0.80767500  0.94708300  0.64659900  1
  O  O9  1  0.05291700  0.19232500  0.85340100  1
  O  O10  1  0.94708300  0.80767500  0.14659900  1
  O  O11  1  0.19232500  0.05291700  0.35340100  1
loop_
_geom_bond_atom_site_label_1
_geom_bond_atom_site_label_2
_geom_bond_distance
_geom_bond_site_symmetry_2
O0 Si2 1.639873 1_554
O0 Si0 1.643383 1_555
O1 Si3 1.639873 1_555
O1 Si1 1.643383 1_555
O2 Si1 1.639873 1_556
O2 Si3 1.643383 1_555
O3 Si0 1.639873 1_555
O3 Si2 1.643383 1_555
O4 Si0 1.623641 1_555
O4 Sb0 2.023289 1_555
O5 Si1 1.623641 1_555
O5 Sb0 2.023289 1_555
O6 Si3 1.623641 1_555
O6 Sb1 2.023289 1_555
O7 Si2 1.623641 1_555
O7 Sb1 2.023289 1_555
O8 Si2 1.688995 1_555
O8 Sb0 2.153053 1_565
O8 Sb1 2.334588 1_655
O9 Si3 1.688995 1_555
O9 Sb0 2.153053 1_456
O9 Sb1 2.334588 1_545
O10 Si0 1.688995 1_555
O10 Sb1 2.153053 1_654
O10 Sb0 2.334588 1_565
O11 Si1 1.688995 1_555
O11 Sb1 2.153053 1_545
O11 Sb0 2.334588 1_455
