# generated using pymatgen
data_Ta5Ga3B
_symmetry_space_group_name_H-M   'P 1'
_cell_length_a   7.73785487
_cell_length_b   7.73785487
_cell_length_c   5.30888056
_cell_angle_alpha   90.00000000
_cell_angle_beta   90.00000000
_cell_angle_gamma   120.00000114
_symmetry_Int_Tables_number   1
_chemical_formula_structural   Ta5Ga3B
_chemical_formula_sum   'Ta10 Ga6 B2'
_cell_volume   275.28005193
_cell_formula_units_Z   2
loop_
 _symmetry_equiv_pos_site_id
 _symmetry_equiv_pos_as_xyz
  1  'x, y, z'
loop_
 _atom_site_type_symbol
 _atom_site_label
 _atom_site_symmetry_multiplicity
 _atom_site_fract_x
 _atom_site_fract_y
 _atom_site_fract_z
 _atom_site_occupancy
  Ta  Ta0  1  0.24310068  1.00000000  0.25000000  1
  Ta  Ta1  1  0.75689932  0.00000000  0.75000000  1
  Ta  Ta2  1  1.00000000  0.24310068  0.25000000  1
  Ta  Ta3  1  0.00000000  0.75689932  0.75000000  1
  Ta  Ta4  1  0.75689932  0.75689932  0.25000000  1
  Ta  Ta5  1  0.24310068  0.24310068  0.75000000  1
  Ta  Ta6  1  0.33333300  0.66666700  -0.00000000  1
  Ta  Ta7  1  0.66666700  0.33333300  -0.00000000  1
  Ta  Ta8  1  0.66666700  0.33333300  0.50000000  1
  Ta  Ta9  1  0.33333300  0.66666700  0.50000000  1
  Ga  Ga0  1  0.59828582  0.00000000  0.25000000  1
  Ga  Ga1  1  0.40171418  1.00000000  0.75000000  1
  Ga  Ga2  1  0.00000000  0.59828582  0.25000000  1
  Ga  Ga3  1  1.00000000  0.40171418  0.75000000  1
  Ga  Ga4  1  0.40171418  0.40171418  0.25000000  1
  Ga  Ga5  1  0.59828582  0.59828582  0.75000000  1
  B  B0  1  -0.00000000  -0.00000000  -0.00000000  1
  B  B1  1  -0.00000000  -0.00000000  0.50000000  1
loop_
_geom_bond_atom_site_label_1
_geom_bond_atom_site_label_2
_geom_bond_distance
_geom_bond_site_symmetry_2
Ta6 Ta9 2.654440 1_554
Ta6 Ta9 2.654440 1_555
Ta7 Ta8 2.654440 1_554
Ta7 Ta8 2.654440 1_555
Ga0 Ta7 2.707291 1_555
Ga0 Ta8 2.707291 1_555
Ga0 Ta9 2.707293 1_545
Ga0 Ta6 2.707293 1_545
Ga0 Ta2 2.711732 1_555
Ga0 Ta4 2.711732 1_545
Ga0 Ta0 2.748371 1_545
Ga0 Ta1 2.924447 1_554
Ga0 Ta1 2.924447 1_555
Ga1 Ta9 2.707291 1_555
Ga1 Ta6 2.707291 1_556
Ga1 Ta8 2.707293 1_565
Ga1 Ta7 2.707293 1_566
Ga1 Ta3 2.711732 1_555
Ga1 Ta5 2.711732 1_565
Ga1 Ta1 2.748371 1_565
Ga1 Ta0 2.924447 1_556
Ga1 Ta0 2.924447 1_555
Ga2 Ta9 2.707291 1_555
Ga2 Ta6 2.707291 1_555
Ga2 Ta8 2.707293 1_455
Ga2 Ta7 2.707293 1_455
Ga2 Ta0 2.711732 1_555
Ga2 Ta4 2.711732 1_455
Ga2 Ta2 2.748371 1_455
Ga2 Ta3 2.924447 1_555
Ga2 Ta3 2.924447 1_554
Ga3 Ta7 2.707291 1_556
Ga3 Ta8 2.707291 1_555
Ga3 Ta6 2.707293 1_656
Ga3 Ta9 2.707293 1_655
Ga3 Ta1 2.711732 1_555
Ga3 Ta5 2.711732 1_655
Ga3 Ta3 2.748371 1_655
Ga3 Ta2 2.924447 1_555
Ga3 Ta2 2.924447 1_556
Ga4 Ta6 2.707297 1_555
Ga4 Ta7 2.707297 1_555
Ga4 Ta8 2.707297 1_555
Ga4 Ta9 2.707297 1_555
Ga4 Ta2 2.711732 1_455
Ga4 Ta0 2.711732 1_545
Ga4 Ta4 2.748371 1_555
Ga4 Ta5 2.924447 1_555
Ga4 Ta5 2.924447 1_554
Ga5 Ta7 2.707297 1_556
Ga5 Ta8 2.707297 1_555
Ga5 Ta9 2.707297 1_555
Ga5 Ta6 2.707297 1_556
Ga5 Ta1 2.711732 1_565
Ga5 Ta3 2.711732 1_655
Ga5 Ta5 2.748371 1_555
Ga5 Ta4 2.924447 1_556
Ga5 Ta4 2.924447 1_555
B0 Ta5 2.302166 1_554
B0 Ta4 2.302166 1_445
B0 Ta1 2.302166 1_454
B0 Ta3 2.302166 1_544
B0 Ta2 2.302166 1_455
B0 Ta0 2.302166 1_545
B1 Ta5 2.302166 1_555
B1 Ta4 2.302166 1_445
B1 Ta2 2.302166 1_455
B1 Ta3 2.302166 1_545
B1 Ta0 2.302166 1_545
B1 Ta1 2.302166 1_455
