# generated using pymatgen
data_CaH6PtO6
_symmetry_space_group_name_H-M   'P 1'
_cell_length_a   5.98450444
_cell_length_b   5.98450444
_cell_length_c   10.41089700
_cell_angle_alpha   90.00000000
_cell_angle_beta   90.00000000
_cell_angle_gamma   120.00000485
_symmetry_Int_Tables_number   1
_chemical_formula_structural   CaH6PtO6
_chemical_formula_sum   'Ca2 H12 Pt2 O12'
_cell_volume   322.90528054
_cell_formula_units_Z   2
loop_
 _symmetry_equiv_pos_site_id
 _symmetry_equiv_pos_as_xyz
  1  'x, y, z'
loop_
 _atom_site_type_symbol
 _atom_site_label
 _atom_site_symmetry_multiplicity
 _atom_site_fract_x
 _atom_site_fract_y
 _atom_site_fract_z
 _atom_site_occupancy
  Ca  Ca0  1  0.66666700  0.33333300  0.75000000  1
  Ca  Ca1  1  0.33333300  0.66666700  0.25000000  1
  H  H0  1  0.23982600  0.33594600  0.65249200  1
  H  H1  1  0.76017400  0.66405400  0.34750800  1
  H  H2  1  0.66405400  0.90388000  0.65249200  1
  H  H3  1  0.23982600  0.90388000  0.84750800  1
  H  H4  1  0.33594600  0.09612000  0.34750800  1
  H  H5  1  0.76017400  0.09612000  0.15249200  1
  H  H6  1  0.09612000  0.76017400  0.65249200  1
  H  H7  1  0.66405400  0.76017400  0.84750800  1
  H  H8  1  0.90388000  0.23982600  0.34750800  1
  H  H9  1  0.33594600  0.23982600  0.15249200  1
  H  H10  1  0.09612000  0.33594600  0.84750800  1
  H  H11  1  0.90388000  0.66405400  0.15249200  1
  Pt  Pt0  1  0.00000000  0.00000000  0.50000000  1
  Pt  Pt1  1  0.00000000  0.00000000  0.00000000  1
  O  O0  1  0.76713500  0.07427600  0.61328400  1
  O  O1  1  0.23286500  0.92572400  0.38671600  1
  O  O2  1  0.92572400  0.69286000  0.61328400  1
  O  O3  1  0.76713500  0.69286000  0.88671600  1
  O  O4  1  0.07427600  0.30714000  0.38671600  1
  O  O5  1  0.23286500  0.30714000  0.11328400  1
  O  O6  1  0.30714000  0.23286500  0.61328400  1
  O  O7  1  0.92572400  0.23286500  0.88671600  1
  O  O8  1  0.69286000  0.76713500  0.38671600  1
  O  O9  1  0.07427600  0.76713500  0.11328400  1
  O  O10  1  0.30714000  0.07427600  0.88671600  1
  O  O11  1  0.69286000  0.92572400  0.11328400  1
loop_
_geom_bond_atom_site_label_1
_geom_bond_atom_site_label_2
_geom_bond_distance
_geom_bond_site_symmetry_2
Ca0 O7 2.392288 1_555
Ca0 O0 2.392288 1_555
Ca0 O10 2.392295 1_555
Ca0 O2 2.392295 1_555
Ca0 O6 2.392297 1_555
Ca0 O3 2.392297 1_555
Ca1 O9 2.392288 1_555
Ca1 O1 2.392288 1_555
Ca1 O4 2.392295 1_555
Ca1 O11 2.392295 1_555
Ca1 O8 2.392297 1_555
Ca1 O5 2.392297 1_555
H0 O6 0.978754 1_555
H1 O8 0.978754 1_555
H2 O0 0.978759 1_565
H3 O10 0.978759 1_565
H4 O1 0.978759 1_545
H5 O11 0.978759 1_545
H6 O2 0.978759 1_455
H7 O3 0.978754 1_555
H8 O4 0.978759 1_655
H9 O5 0.978754 1_555
H10 O7 0.978759 1_455
H11 O9 0.978759 1_655
O0 Pt0 2.037171 1_655
O1 Pt0 2.037171 1_565
O2 Pt0 2.037166 1_665
O3 Pt1 2.037167 1_666
O4 Pt0 2.037166 1_555
O5 Pt1 2.037167 1_555
O6 Pt0 2.037167 1_555
O7 Pt1 2.037171 1_656
O8 Pt0 2.037167 1_665
O9 Pt1 2.037171 1_565
O10 Pt1 2.037166 1_556
O11 Pt1 2.037166 1_665
