# generated using pymatgen
data_Cs2U2O5
_symmetry_space_group_name_H-M   'P 1'
_cell_length_a   4.37700600
_cell_length_b   4.37700600
_cell_length_c   9.77027900
_cell_angle_alpha   90.00000000
_cell_angle_beta   90.00000000
_cell_angle_gamma   90.00000000
_symmetry_Int_Tables_number   1
_chemical_formula_structural   Cs2U2O5
_chemical_formula_sum   'Cs2 U2 O5'
_cell_volume   187.18077862
_cell_formula_units_Z   1
loop_
 _symmetry_equiv_pos_site_id
 _symmetry_equiv_pos_as_xyz
  1  'x, y, z'
loop_
 _atom_site_type_symbol
 _atom_site_label
 _atom_site_symmetry_multiplicity
 _atom_site_fract_x
 _atom_site_fract_y
 _atom_site_fract_z
 _atom_site_occupancy
  Cs  Cs0  1  0.00000000  0.00000000  0.00000000  1
  Cs  Cs1  1  0.00000000  0.00000000  0.50000000  1
  U  U0  1  0.50000000  0.50000000  0.27404800  1
  U  U1  1  0.50000000  0.50000000  0.72595200  1
  O  O0  1  0.50000000  0.00000000  0.24316500  1
  O  O1  1  0.50000000  0.00000000  0.75683500  1
  O  O2  1  0.50000000  0.50000000  0.50000000  1
  O  O3  1  0.00000000  0.50000000  0.24316500  1
  O  O4  1  0.00000000  0.50000000  0.75683500  1
loop_
_geom_bond_atom_site_label_1
_geom_bond_atom_site_label_2
_geom_bond_distance
_geom_bond_site_symmetry_2
Cs0 O0 3.230158 1_455
Cs0 O0 3.230158 1_555
Cs0 O3 3.230158 1_555
Cs0 O3 3.230158 1_545
Cs0 O4 3.230158 1_544
Cs0 O1 3.230158 1_454
Cs0 O4 3.230158 1_554
Cs0 O1 3.230158 1_554
Cs1 O2 3.095011 1_455
Cs1 O2 3.095011 1_555
Cs1 O2 3.095011 1_545
Cs1 O2 3.095011 1_445
Cs1 O4 3.329622 1_555
Cs1 O1 3.329622 1_555
Cs1 O4 3.329622 1_545
Cs1 O1 3.329622 1_455
Cs1 O3 3.329622 1_545
Cs1 O0 3.329622 1_555
Cs1 O3 3.329622 1_555
Cs1 O0 3.329622 1_455
O0 U0 2.209206 1_555
O0 U0 2.209206 1_545
O1 U1 2.209206 1_555
O1 U1 2.209206 1_545
O2 U1 2.207614 1_555
O2 U0 2.207614 1_555
O3 U0 2.209206 1_555
O3 U0 2.209206 1_455
O4 U1 2.209206 1_455
O4 U1 2.209206 1_555
