# generated using pymatgen
data_SbAu3
_symmetry_space_group_name_H-M   'P 1'
_cell_length_a   5.31190536
_cell_length_b   5.31190536
_cell_length_c   5.31190536
_cell_angle_alpha   132.49934717
_cell_angle_beta   132.49934717
_cell_angle_gamma   69.44149653
_symmetry_Int_Tables_number   1
_chemical_formula_structural   SbAu3
_chemical_formula_sum   'Sb1 Au3'
_cell_volume   79.93282388
_cell_formula_units_Z   1
loop_
 _symmetry_equiv_pos_site_id
 _symmetry_equiv_pos_as_xyz
  1  'x, y, z'
loop_
 _atom_site_type_symbol
 _atom_site_label
 _atom_site_symmetry_multiplicity
 _atom_site_fract_x
 _atom_site_fract_y
 _atom_site_fract_z
 _atom_site_occupancy
  Sb  Sb0  1  0.00000000  0.00000000  0.00000000  1
  Au  Au0  1  0.75000000  0.25000000  0.50000000  1
  Au  Au1  1  0.25000000  0.75000000  0.50000000  1
  Au  Au2  1  0.50000000  0.50000000  0.00000000  1
loop_
_geom_bond_atom_site_label_1
_geom_bond_atom_site_label_2
_geom_bond_distance
_geom_bond_site_symmetry_2
Au0 Au1 3.025540 1_555
Au0 Au1 3.025540 1_656
Au0 Au1 3.025540 1_645
Au0 Au1 3.025540 1_544
Au0 Au2 3.056560 1_555
Au0 Au2 3.056560 1_556
Au0 Au2 3.056560 1_545
Au0 Au2 3.056560 1_656
Au0 Sb0 3.056560 1_656
Au0 Sb0 3.056560 1_655
Au0 Sb0 3.056560 1_666
Au0 Sb0 3.056560 1_555
Au1 Au2 3.056560 1_555
Au1 Au2 3.056560 1_556
Au1 Au2 3.056560 1_455
Au1 Sb0 3.056560 1_566
Au1 Sb0 3.056560 1_565
Au1 Au2 3.056560 1_566
Au1 Sb0 3.056560 1_666
Au1 Sb0 3.056560 1_555
Au2 Sb0 3.025540 1_554
Au2 Sb0 3.025540 1_565
Au2 Sb0 3.025540 1_655
Au2 Sb0 3.025540 1_666
