# generated using pymatgen
data_H5BrNO
_symmetry_space_group_name_H-M   'P 1'
_cell_length_a   6.77042976
_cell_length_b   7.06819200
_cell_length_c   8.33622459
_cell_angle_alpha   90.00000000
_cell_angle_beta   117.48068312
_cell_angle_gamma   90.00000000
_symmetry_Int_Tables_number   1
_chemical_formula_structural   H5BrNO
_chemical_formula_sum   'H20 Br4 N4 O4'
_cell_volume   353.91510225
_cell_formula_units_Z   4
loop_
 _symmetry_equiv_pos_site_id
 _symmetry_equiv_pos_as_xyz
  1  'x, y, z'
loop_
 _atom_site_type_symbol
 _atom_site_label
 _atom_site_symmetry_multiplicity
 _atom_site_fract_x
 _atom_site_fract_y
 _atom_site_fract_z
 _atom_site_occupancy
  H  H0  1  0.20962400  0.10790200  0.57593100  1
  H  H1  1  0.70962400  0.39209800  0.07593100  1
  H  H2  1  0.79037600  0.89209800  0.42406900  1
  H  H3  1  0.29037600  0.60790200  0.92406900  1
  H  H4  1  0.16716200  0.87593000  0.49261000  1
  H  H5  1  0.66716200  0.62407000  0.99261000  1
  H  H6  1  0.83283800  0.12407000  0.50739000  1
  H  H7  1  0.33283800  0.37593000  0.00739000  1
  H  H8  1  0.13929400  0.92852000  0.68540200  1
  H  H9  1  0.63929400  0.57148000  0.18540200  1
  H  H10  1  0.86070600  0.07148000  0.31459800  1
  H  H11  1  0.36070600  0.42852000  0.81459800  1
  H  H12  1  0.22014500  0.92660300  0.96943700  1
  H  H13  1  0.72014500  0.57339700  0.46943700  1
  H  H14  1  0.77985500  0.07339700  0.03056300  1
  H  H15  1  0.27985500  0.42660300  0.53056300  1
  H  H16  1  0.98908500  0.82676500  0.85373800  1
  H  H17  1  0.48908500  0.67323500  0.35373800  1
  H  H18  1  0.01091500  0.17323500  0.14626200  1
  H  H19  1  0.51091500  0.32676500  0.64626200  1
  Br  Br0  1  0.13621200  0.63997200  0.31286300  1
  Br  Br1  1  0.63621200  0.86002800  0.81286300  1
  Br  Br2  1  0.86378800  0.36002800  0.68713700  1
  Br  Br3  1  0.36378800  0.13997200  0.18713700  1
  N  N0  1  0.38261800  0.48169400  0.94270700  1
  N  N1  1  0.88261800  0.01830600  0.44270700  1
  N  N2  1  0.61738200  0.51830600  0.05729300  1
  N  N3  1  0.11738200  0.98169400  0.55729300  1
  O  O0  1  0.14387200  0.83344700  0.86885400  1
  O  O1  1  0.64387200  0.66655300  0.36885400  1
  O  O2  1  0.85612800  0.16655300  0.13114600  1
  O  O3  1  0.35612800  0.33344700  0.63114600  1
loop_
_geom_bond_atom_site_label_1
_geom_bond_atom_site_label_2
_geom_bond_distance
_geom_bond_site_symmetry_2
H0 N3 1.058484 1_545
H1 N2 1.058484 1_555
H2 N1 1.058484 1_565
H3 N0 1.058484 1_555
H4 N3 1.063441 1_555
H5 N2 1.063441 1_556
H6 N1 1.063441 1_555
H7 N0 1.063441 1_554
H8 N3 1.075898 1_555
H9 N2 1.075898 1_555
H10 N1 1.075898 1_555
H11 N0 1.075898 1_555
H12 O0 1.001830 1_555
H13 O1 1.001830 1_555
H14 O2 1.001830 1_555
H15 O3 1.001830 1_555
H16 O0 0.997239 1_655
H17 O1 0.997239 1_555
H18 O2 0.997239 1_455
H19 O3 0.997239 1_555
Br0 H4 2.186530 1_555
Br0 H15 2.210181 1_555
Br0 H17 2.264483 1_555
Br1 H5 2.186530 1_555
Br1 H14 2.210181 1_566
Br1 H16 2.264483 1_555
Br2 H6 2.186530 1_555
Br2 H13 2.210181 1_555
Br2 H19 2.264483 1_555
Br3 H7 2.186530 1_555
Br3 H12 2.210181 1_544
Br3 H18 2.264483 1_555
