# generated using pymatgen
data_ZnCu15H24(ClO3)8
_symmetry_space_group_name_H-M   'P 1'
_cell_length_a   18.91212478
_cell_length_b   18.91212478
_cell_length_c   18.91212546
_cell_angle_alpha   21.21991801
_cell_angle_beta   21.21991801
_cell_angle_gamma   21.21991798
_symmetry_Int_Tables_number   1
_chemical_formula_structural   ZnCu15H24(ClO3)8
_chemical_formula_sum   'Zn1 Cu15 H24 Cl8 O24'
_cell_volume   776.21105847
_cell_formula_units_Z   1
loop_
 _symmetry_equiv_pos_site_id
 _symmetry_equiv_pos_as_xyz
  1  'x, y, z'
loop_
 _atom_site_type_symbol
 _atom_site_label
 _atom_site_symmetry_multiplicity
 _atom_site_fract_x
 _atom_site_fract_y
 _atom_site_fract_z
 _atom_site_occupancy
  Zn  Zn0  1  0.50000000  0.50000000  0.50000000  1
  Cu  Cu0  1  0.12467800  0.62539000  0.12467800  1
  Cu  Cu1  1  0.37532800  0.87412600  0.37532800  1
  Cu  Cu2  1  0.87532200  0.37461000  0.87532200  1
  Cu  Cu3  1  0.62467200  0.12587400  0.62467200  1
  Cu  Cu4  1  0.37532800  0.37532800  0.87412600  1
  Cu  Cu5  1  0.62467200  0.62467200  0.12587400  1
  Cu  Cu6  1  0.12467800  0.12467800  0.62539000  1
  Cu  Cu7  1  0.87532200  0.87532200  0.37461000  1
  Cu  Cu8  1  0.62539000  0.12467800  0.12467800  1
  Cu  Cu9  1  0.87412600  0.37532800  0.37532800  1
  Cu  Cu10  1  0.37461000  0.87532200  0.87532200  1
  Cu  Cu11  1  0.12587400  0.62467200  0.62467200  1
  Cu  Cu12  1  0.25008100  0.25008100  0.25008100  1
  Cu  Cu13  1  0.00000000  0.00000000  0.00000000  1
  Cu  Cu14  1  0.74991900  0.74991900  0.74991900  1
  H  H0  1  0.46834000  0.87045000  0.46834000  1
  H  H1  1  0.72028900  0.11732300  0.72028900  1
  H  H2  1  0.21851200  0.62048800  0.21851200  1
  H  H3  1  0.96786500  0.37187500  0.96786500  1
  H  H4  1  0.46834000  0.46834000  0.87045000  1
  H  H5  1  0.72028900  0.72028900  0.11732300  1
  H  H6  1  0.21851200  0.21851200  0.62048800  1
  H  H7  1  0.96786500  0.96786500  0.37187500  1
  H  H8  1  0.87045000  0.46834000  0.46834000  1
  H  H9  1  0.11732300  0.72028900  0.72028900  1
  H  H10  1  0.62048800  0.21851200  0.21851200  1
  H  H11  1  0.37187500  0.96786500  0.96786500  1
  H  H12  1  0.03213500  0.62812500  0.03213500  1
  H  H13  1  0.27971100  0.88267700  0.27971100  1
  H  H14  1  0.78148800  0.37951200  0.78148800  1
  H  H15  1  0.53166000  0.12955000  0.53166000  1
  H  H16  1  0.03213500  0.03213500  0.62812500  1
  H  H17  1  0.27971100  0.27971100  0.88267700  1
  H  H18  1  0.78148800  0.78148800  0.37951200  1
  H  H19  1  0.53166000  0.53166000  0.12955000  1
  H  H20  1  0.62812500  0.03213500  0.03213500  1
  H  H21  1  0.88267700  0.27971100  0.27971100  1
  H  H22  1  0.37951200  0.78148800  0.78148800  1
  H  H23  1  0.12955000  0.53166000  0.53166000  1
  Cl  Cl0  1  0.32996500  0.32996500  0.32996500  1
  Cl  Cl1  1  0.58005300  0.58005300  0.58005300  1
  Cl  Cl2  1  0.08000900  0.08000900  0.08000900  1
  Cl  Cl3  1  0.82986100  0.82986100  0.82986100  1
  Cl  Cl4  1  0.17013900  0.17013900  0.17013900  1
  Cl  Cl5  1  0.41994700  0.41994700  0.41994700  1
  Cl  Cl6  1  0.91999100  0.91999100  0.91999100  1
  Cl  Cl7  1  0.67003500  0.67003500  0.67003500  1
  O  O0  1  0.40101300  0.02817800  0.40101300  1
  O  O1  1  0.65351400  0.27412200  0.65351400  1
  O  O2  1  0.15096000  0.77841900  0.15096000  1
  O  O3  1  0.90016300  0.52985000  0.90016300  1
  O  O4  1  0.40101300  0.40101300  0.02817800  1
  O  O5  1  0.65351400  0.65351400  0.27412200  1
  O  O6  1  0.15096000  0.15096000  0.77841900  1
  O  O7  1  0.90016300  0.90016300  0.52985000  1
  O  O8  1  0.02817800  0.40101300  0.40101300  1
  O  O9  1  0.27412200  0.65351400  0.65351400  1
  O  O10  1  0.77841900  0.15096000  0.15096000  1
  O  O11  1  0.52985000  0.90016300  0.90016300  1
  O  O12  1  0.09983700  0.47015000  0.09983700  1
  O  O13  1  0.34648600  0.72587800  0.34648600  1
  O  O14  1  0.84904000  0.22158100  0.84904000  1
  O  O15  1  0.59898700  0.97182200  0.59898700  1
  O  O16  1  0.09983700  0.09983700  0.47015000  1
  O  O17  1  0.34648600  0.34648600  0.72587800  1
  O  O18  1  0.84904000  0.84904000  0.22158100  1
  O  O19  1  0.59898700  0.59898700  0.97182200  1
  O  O20  1  0.47015000  0.09983700  0.09983700  1
  O  O21  1  0.72587800  0.34648600  0.34648600  1
  O  O22  1  0.22158100  0.84904000  0.84904000  1
  O  O23  1  0.97182200  0.59898700  0.59898700  1
loop_
_geom_bond_atom_site_label_1
_geom_bond_atom_site_label_2
_geom_bond_distance
_geom_bond_site_symmetry_2
Cu0 O22 1.988923 1_554
Cu0 O18 1.988923 1_455
Cu0 O8 1.989982 1_555
Cu0 O4 1.989982 1_555
Cu1 O9 1.984968 1_555
Cu1 O5 1.984968 1_555
Cu1 O20 1.992597 1_565
Cu1 O16 1.992597 1_565
Cu2 O10 1.988923 1_556
Cu2 O6 1.988923 1_655
Cu2 O23 1.989982 1_555
Cu2 O19 1.989982 1_555
Cu3 O21 1.984968 1_555
Cu3 O17 1.984968 1_555
Cu3 O11 1.992597 1_545
Cu3 O7 1.992597 1_545
Cu4 O1 1.984968 1_555
Cu4 O9 1.984968 1_555
Cu4 O20 1.992597 1_556
Cu4 O12 1.992597 1_556
Cu5 O21 1.984968 1_555
Cu5 O13 1.984968 1_555
Cu5 O11 1.992597 1_554
Cu5 O3 1.992597 1_554
Cu6 O14 1.988923 1_455
Cu6 O22 1.988923 1_545
Cu6 O0 1.989982 1_555
Cu6 O8 1.989982 1_555
Cu7 O10 1.988923 1_565
Cu7 O2 1.988923 1_655
Cu7 O23 1.989982 1_555
Cu7 O15 1.989982 1_555
Cu8 O14 1.988923 1_554
Cu8 O18 1.988923 1_545
Cu8 O0 1.989982 1_555
Cu8 O4 1.989982 1_555
Cu9 O1 1.984968 1_555
Cu9 O5 1.984968 1_555
Cu9 O12 1.992597 1_655
Cu9 O16 1.992597 1_655
Cu10 O2 1.988923 1_556
Cu10 O6 1.988923 1_565
Cu10 O15 1.989982 1_555
Cu10 O19 1.989982 1_555
Cu11 O13 1.984968 1_555
Cu11 O17 1.984968 1_555
Cu11 O3 1.992597 1_455
Cu11 O7 1.992597 1_455
Cu12 O16 2.103707 1_555
Cu12 O20 2.103707 1_555
Cu12 O12 2.103707 1_555
Cu12 O4 2.104946 1_555
Cu12 O0 2.104946 1_555
Cu12 O8 2.104946 1_555
Cu13 O18 2.109016 1_445
Cu13 O6 2.109016 1_554
Cu13 O22 2.109016 1_544
Cu13 O14 2.109016 1_454
Cu13 O2 2.109016 1_545
Cu13 O10 2.109016 1_455
Cu14 O7 2.103707 1_555
Cu14 O11 2.103707 1_555
Cu14 O3 2.103707 1_555
Cu14 O19 2.104946 1_555
Cu14 O23 2.104946 1_555
Cu14 O15 2.104946 1_555
H0 O0 1.000339 1_565
H1 O1 0.996345 1_555
H2 O2 0.999962 1_555
H3 O3 0.998684 1_555
H4 O4 1.000339 1_556
H5 O5 0.996345 1_555
H6 O6 0.999962 1_555
H7 O7 0.998684 1_555
H8 O8 1.000339 1_655
H9 O9 0.996345 1_555
H10 O10 0.999962 1_555
H11 O11 0.998684 1_555
H12 O12 0.998684 1_555
H13 O13 0.996345 1_555
H14 O14 0.999962 1_555
H15 O15 1.000339 1_545
H16 O16 0.998684 1_555
H17 O17 0.996345 1_555
H18 O18 0.999962 1_555
H19 O19 1.000339 1_554
H20 O20 0.998684 1_555
H21 O21 0.996345 1_555
H22 O22 0.999962 1_555
H23 O23 1.000339 1_455
Cl0 H2 2.042968 1_555
Cl0 H10 2.042968 1_555
Cl0 H6 2.042968 1_555
Cl0 Cu6 2.929395 1_555
Cl0 Cu0 2.929395 1_555
Cl0 Cu8 2.929395 1_555
Cl1 H0 2.036116 1_555
Cl1 H8 2.036116 1_555
Cl1 H4 2.036116 1_555
Cl1 Cu4 2.927179 1_555
Cl1 Cu9 2.927179 1_555
Cl1 Cu1 2.927179 1_555
Cl2 H11 2.049005 1_544
Cl2 H3 2.049005 1_454
Cl2 H7 2.049005 1_445
Cl2 Cu7 2.920413 1_445
Cl2 Cu2 2.920413 1_454
Cl2 Cu10 2.920413 1_544
Cl3 H9 2.035294 1_655
Cl3 H1 2.035294 1_565
Cl3 H5 2.035294 1_556
Cl3 Cu5 2.920247 1_556
Cl3 Cu3 2.920247 1_565
Cl3 Cu11 2.920247 1_655
Cl4 H21 2.035294 1_455
Cl4 H13 2.035294 1_545
Cl4 H17 2.035294 1_554
Cl4 Cu4 2.920247 1_554
Cl4 Cu1 2.920247 1_545
Cl4 Cu9 2.920247 1_455
Cl5 H23 2.036116 1_555
Cl5 H15 2.036116 1_555
Cl5 H19 2.036116 1_555
Cl5 Cu5 2.927179 1_555
Cl5 Cu3 2.927179 1_555
Cl5 Cu11 2.927179 1_555
Cl6 H12 2.049005 1_656
Cl6 H20 2.049005 1_566
Cl6 H16 2.049005 1_665
Cl6 Cu6 2.920413 1_665
Cl6 Cu8 2.920413 1_566
Cl6 Cu0 2.920413 1_656
Cl7 H22 2.042968 1_555
Cl7 H14 2.042968 1_555
Cl7 H18 2.042968 1_555
Cl7 Cu7 2.929395 1_555
Cl7 Cu2 2.929395 1_555
Cl7 Cu10 2.929395 1_555
O1 Zn0 2.139149 1_555
O5 Zn0 2.139149 1_555
O9 Zn0 2.139149 1_555
O13 Zn0 2.139149 1_555
O17 Zn0 2.139149 1_555
O21 Zn0 2.139149 1_555
