# generated using pymatgen
data_Li2MnP2O7
_symmetry_space_group_name_H-M   'P 1'
_cell_length_a   10.32651360
_cell_length_b   10.32651360
_cell_length_c   13.64726400
_cell_angle_alpha   90.00000000
_cell_angle_beta   90.00000000
_cell_angle_gamma   119.99999747
_symmetry_Int_Tables_number   1
_chemical_formula_structural   Li2MnP2O7
_chemical_formula_sum   'Li16 Mn8 P16 O56'
_cell_volume   1260.32827240
_cell_formula_units_Z   8
loop_
 _symmetry_equiv_pos_site_id
 _symmetry_equiv_pos_as_xyz
  1  'x, y, z'
loop_
 _atom_site_type_symbol
 _atom_site_label
 _atom_site_symmetry_multiplicity
 _atom_site_fract_x
 _atom_site_fract_y
 _atom_site_fract_z
 _atom_site_occupancy
  Li  Li0  1  0.16411700  0.83178300  0.17131200  1
  Li  Li1  1  0.16742600  0.83427500  0.67395900  1
  Li  Li2  1  0.00133600  0.49909200  0.37837900  1
  Li  Li3  1  0.66666700  0.33333300  0.67806000  1
  Li  Li4  1  0.66666700  0.33333300  0.25543300  1
  Li  Li5  1  0.83205700  0.16784400  0.88049400  1
  Li  Li6  1  0.49775600  0.99866400  0.37837900  1
  Li  Li7  1  0.16821700  0.33233400  0.17131200  1
  Li  Li8  1  0.16572500  0.33315000  0.67395900  1
  Li  Li9  1  0.33333300  0.66666700  0.87876300  1
  Li  Li10  1  0.66766600  0.83588300  0.17131200  1
  Li  Li11  1  0.00000000  0.00000000  0.37943900  1
  Li  Li12  1  0.66685000  0.83257400  0.67395900  1
  Li  Li13  1  0.83215600  0.66421300  0.88049400  1
  Li  Li14  1  0.50090800  0.50224400  0.37837900  1
  Li  Li15  1  0.33578700  0.16794300  0.88049400  1
  Mn  Mn0  1  0.16607300  0.83333700  0.98140500  1
  Mn  Mn1  1  0.16618700  0.83211200  0.48285300  1
  Mn  Mn2  1  0.66666700  0.33333300  0.99548900  1
  Mn  Mn3  1  0.66666700  0.33333300  0.48726500  1
  Mn  Mn4  1  0.16666300  0.33273600  0.98140500  1
  Mn  Mn5  1  0.16788800  0.33407500  0.48285300  1
  Mn  Mn6  1  0.66726400  0.83392700  0.98140500  1
  Mn  Mn7  1  0.66592500  0.83381300  0.48285300  1
  P  P0  1  0.99954700  0.49941200  0.85782000  1
  P  P1  1  0.00026800  0.50024200  0.62258400  1
  P  P2  1  0.83546200  0.16660400  0.11883800  1
  P  P3  1  0.49986400  0.00045300  0.85782000  1
  P  P4  1  0.49997400  0.99973200  0.62258400  1
  P  P5  1  0.83093100  0.16636600  0.35404000  1
  P  P6  1  0.33333300  0.66666700  0.12177900  1
  P  P7  1  0.33333300  0.66666700  0.35713100  1
  P  P8  1  0.00000000  0.00000000  0.85692500  1
  P  P9  1  0.00000000  0.00000000  0.62183600  1
  P  P10  1  0.83339600  0.66885800  0.11883800  1
  P  P11  1  0.50058800  0.50013600  0.85782000  1
  P  P12  1  0.49975800  0.50002600  0.62258400  1
  P  P13  1  0.83363400  0.66456600  0.35404000  1
  P  P14  1  0.33114200  0.16453800  0.11883800  1
  P  P15  1  0.33543400  0.16906900  0.35404000  1
  O  O0  1  0.11907200  0.65867000  0.59390500  1
  O  O1  1  0.13976400  0.64637800  0.88753200  1
  O  O2  1  0.85272700  0.49122400  0.88755000  1
  O  O3  1  0.84112400  0.46087300  0.59461500  1
  O  O4  1  0.00117500  0.49979700  0.74078300  1
  O  O5  1  0.81864000  0.30729900  0.37754800  1
  O  O6  1  0.80311900  0.28981400  0.09244000  1
  O  O7  1  0.03844000  0.38075100  0.59280900  1
  O  O8  1  0.00818700  0.36007500  0.88698600  1
  O  O9  1  0.61974900  0.15887600  0.59461500  1
  O  O10  1  0.63849700  0.14727300  0.88755000  1
  O  O11  1  0.35188900  0.99181300  0.88698600  1
  O  O12  1  0.34231100  0.96156000  0.59280900  1
  O  O13  1  0.83059100  0.15997300  0.23890500  1
  O  O14  1  0.49862200  0.99882500  0.74078300  1
  O  O15  1  0.99387000  0.20085800  0.09411800  1
  O  O16  1  0.97770900  0.17703000  0.38798400  1
  O  O17  1  0.69225300  0.02155900  0.38791600  1
  O  O18  1  0.71382100  0.00912600  0.09043100  1
  O  O19  1  0.32549900  0.80580500  0.38797400  1
  O  O20  1  0.29402400  0.78593800  0.09408600  1
  O  O21  1  0.53959700  0.88092800  0.59390500  1
  O  O22  1  0.50661500  0.86023600  0.88753200  1
  O  O23  1  0.11884600  0.15859500  0.59322900  1
  O  O24  1  0.14057900  0.14601700  0.88682700  1
  O  O25  1  0.85398300  0.99456200  0.88682700  1
  O  O26  1  0.84140500  0.96025200  0.59322900  1
  O  O27  1  0.33333300  0.66666700  0.24127600  1
  O  O28  1  0.00000000  0.00000000  0.74024200  1
  O  O29  1  0.49191400  0.70597600  0.09408600  1
  O  O30  1  0.48030500  0.67450100  0.38797400  1
  O  O31  1  0.19419500  0.51969500  0.38797400  1
  O  O32  1  0.21406200  0.50808600  0.09408600  1
  O  O33  1  0.82297000  0.80067900  0.38798400  1
  O  O34  1  0.79914200  0.79301300  0.09411800  1
  O  O35  1  0.03974800  0.88115400  0.59322900  1
  O  O36  1  0.00543800  0.85942100  0.88682700  1
  O  O37  1  0.61924900  0.65768900  0.59280900  1
  O  O38  1  0.63992500  0.64811100  0.88698600  1
  O  O39  1  0.35362200  0.49338500  0.88753200  1
  O  O40  1  0.34133000  0.46040300  0.59390500  1
  O  O41  1  0.84002700  0.67061900  0.23890500  1
  O  O42  1  0.50020300  0.50137800  0.74078300  1
  O  O43  1  0.99087400  0.70469500  0.09043100  1
  O  O44  1  0.97844100  0.67069400  0.38791600  1
  O  O45  1  0.69270100  0.51134100  0.37754800  1
  O  O46  1  0.71018600  0.51330500  0.09244000  1
  O  O47  1  0.32930600  0.30774700  0.38791600  1
  O  O48  1  0.29530500  0.28617900  0.09043100  1
  O  O49  1  0.53912700  0.38025100  0.59461500  1
  O  O50  1  0.50877600  0.36150300  0.88755000  1
  O  O51  1  0.32938100  0.16940900  0.23890500  1
  O  O52  1  0.48669500  0.19688100  0.09244000  1
  O  O53  1  0.48865900  0.18136000  0.37754800  1
  O  O54  1  0.19932100  0.02229100  0.38798400  1
  O  O55  1  0.20698700  0.00613000  0.09411800  1
loop_
_geom_bond_atom_site_label_1
_geom_bond_atom_site_label_2
_geom_bond_distance
_geom_bond_site_symmetry_2
Li0 O55 1.936547 1_565
Li0 O20 1.941533 1_555
Li0 O43 1.947662 1_455
Li1 O35 1.955713 1_555
Li1 O0 1.955971 1_555
Li1 O12 1.960071 1_555
Li2 O31 1.898686 1_555
Li2 O44 1.905770 1_455
Li2 O5 1.935327 1_455
Li3 O9 1.975924 1_555
Li3 O3 1.975926 1_555
Li3 O49 1.975932 1_555
Li4 O5 2.394658 1_555
Li4 O53 2.394662 1_555
Li4 O45 2.394665 1_555
Li5 O10 1.903943 1_555
Li5 O8 1.909442 1_655
Li5 O25 1.914638 1_545
Li6 O19 1.898690 1_555
Li6 O17 1.905770 1_565
Li6 O53 1.935327 1_565
Li7 O15 1.936544 1_455
Li7 O32 1.941533 1_555
Li7 O48 1.947662 1_555
Li8 O23 1.955697 1_555
Li8 O40 1.955975 1_555
Li8 O7 1.960077 1_555
Li9 O1 1.906566 1_555
Li9 O22 1.906575 1_555
Li9 O39 1.906586 1_555
Li10 O34 1.936538 1_555
Li10 O29 1.941533 1_555
Li10 O18 1.947662 1_565
Li11 O16 1.956873 1_455
Li11 O54 1.956873 1_555
Li11 O33 1.956873 1_445
Li12 O26 1.955701 1_555
Li12 O21 1.955988 1_555
Li12 O37 1.960069 1_555
Li13 O2 1.903943 1_555
Li13 O38 1.909437 1_555
Li13 O36 1.914638 1_655
Li14 O30 1.898696 1_555
Li14 O47 1.905770 1_555
Li14 O45 1.935327 1_555
Li15 O50 1.903944 1_555
Li15 O11 1.909448 1_545
Li15 O24 1.914638 1_555
Mn0 O43 2.201905 1_456
Mn0 O11 2.209134 1_555
Mn0 O1 2.217631 1_555
Mn0 O36 2.221928 1_555
Mn0 O55 2.230394 1_566
Mn0 O20 2.235373 1_556
Mn1 O0 2.206826 1_555
Mn1 O35 2.211680 1_555
Mn1 O19 2.214453 1_555
Mn1 O12 2.217053 1_555
Mn1 O54 2.231191 1_565
Mn1 O44 2.232547 1_455
Mn2 O6 2.138065 1_556
Mn2 O52 2.138070 1_556
Mn2 O46 2.138073 1_556
Mn2 O10 2.321042 1_555
Mn2 O2 2.321045 1_555
Mn2 O50 2.321050 1_555
Mn3 O9 2.180308 1_555
Mn3 O3 2.180310 1_555
Mn3 O49 2.180315 1_555
Mn3 O5 2.280145 1_555
Mn3 O53 2.280150 1_555
Mn3 O45 2.280153 1_555
Mn4 O48 2.201905 1_556
Mn4 O8 2.209129 1_555
Mn4 O39 2.217628 1_555
Mn4 O24 2.221928 1_555
Mn4 O15 2.230391 1_456
Mn4 O32 2.235373 1_556
Mn5 O40 2.206828 1_555
Mn5 O23 2.211672 1_555
Mn5 O31 2.214461 1_555
Mn5 O7 2.217053 1_555
Mn5 O16 2.231191 1_455
Mn5 O47 2.232547 1_555
Mn6 O18 2.201905 1_566
Mn6 O38 2.209137 1_555
Mn6 O22 2.217623 1_555
Mn6 O25 2.221928 1_555
Mn6 O34 2.230386 1_556
Mn6 O29 2.235374 1_556
Mn7 O21 2.206834 1_555
Mn7 O26 2.211674 1_555
Mn7 O30 2.214458 1_555
Mn7 O37 2.217053 1_555
Mn7 O33 2.231191 1_555
Mn7 O17 2.232547 1_565
O0 P1 1.525686 1_555
O1 P0 1.538427 1_455
O2 P0 1.530441 1_555
O3 P1 1.530892 1_655
O4 P0 1.597307 1_455
O4 P1 1.613140 1_555
O5 P5 1.556209 1_555
O6 P2 1.511657 1_555
O7 P1 1.526258 1_555
O8 P0 1.537889 1_455
O9 P4 1.530892 1_545
O10 P3 1.530446 1_555
O11 P3 1.537870 1_565
O12 P4 1.526258 1_555
O13 P5 1.572594 1_555
O13 P2 1.639737 1_555
O14 P3 1.597307 1_565
O14 P4 1.613140 1_555
O15 P2 1.528450 1_555
O16 P5 1.535308 1_555
O17 P5 1.535960 1_555
O18 P2 1.526421 1_555
O19 P7 1.537654 1_555
O20 P6 1.524644 1_555
O21 P4 1.525680 1_555
O22 P3 1.538438 1_565
O23 P9 1.526707 1_555
O24 P8 1.535777 1_555
O25 P8 1.535777 1_665
O26 P9 1.526710 1_665
O27 P7 1.581104 1_555
O27 P6 1.630807 1_555
O28 P8 1.592404 1_555
O28 P9 1.615918 1_555
O29 P6 1.524653 1_555
O30 P7 1.537654 1_555
O31 P7 1.537654 1_555
O32 P6 1.524651 1_555
O33 P13 1.535298 1_555
O34 P10 1.528460 1_555
O35 P9 1.526700 1_565
O36 P8 1.535777 1_565
O37 P12 1.526258 1_555
O38 P11 1.537879 1_555
O39 P11 1.538418 1_555
O40 P12 1.525689 1_555
O41 P13 1.572594 1_555
O41 P10 1.639737 1_555
O42 P11 1.597307 1_555
O42 P12 1.613140 1_555
O43 P10 1.526421 1_555
O44 P13 1.535965 1_555
O45 P13 1.556214 1_555
O46 P10 1.511657 1_555
O47 P15 1.535955 1_555
O48 P14 1.526421 1_555
O49 P12 1.530892 1_555
O50 P11 1.530451 1_555
O51 P15 1.572594 1_555
O51 P14 1.639738 1_555
O52 P14 1.511657 1_555
O53 P15 1.556219 1_555
O54 P15 1.535303 1_555
O55 P14 1.528453 1_555
