# generated using pymatgen
data_TiFeO4
_symmetry_space_group_name_H-M   'P 1'
_cell_length_a   5.52220826
_cell_length_b   7.72954195
_cell_length_c   7.61166458
_cell_angle_alpha   75.74465028
_cell_angle_beta   69.87974518
_cell_angle_gamma   101.70895679
_symmetry_Int_Tables_number   1
_chemical_formula_structural   TiFeO4
_chemical_formula_sum   'Ti4 Fe4 O16'
_cell_volume   280.51805997
_cell_formula_units_Z   4
loop_
 _symmetry_equiv_pos_site_id
 _symmetry_equiv_pos_as_xyz
  1  'x, y, z'
loop_
 _atom_site_type_symbol
 _atom_site_label
 _atom_site_symmetry_multiplicity
 _atom_site_fract_x
 _atom_site_fract_y
 _atom_site_fract_z
 _atom_site_occupancy
  Ti  Ti0  1  0.62469700  0.12640300  0.30870900  1
  Ti  Ti1  1  0.63537600  0.12340900  0.81442700  1
  Ti  Ti2  1  0.11910400  0.62667400  0.56779000  1
  Ti  Ti3  1  0.11752400  0.62463100  0.06011400  1
  Fe  Fe0  1  0.99102400  0.00217500  0.50066400  1
  Fe  Fe1  1  0.48528500  0.50519000  0.25247100  1
  Fe  Fe2  1  0.01663600  0.99503300  0.99779800  1
  Fe  Fe3  1  0.50878000  0.49618200  0.74823300  1
  O  O0  1  0.30893700  0.22922700  0.36630200  1
  O  O1  1  0.32130100  0.22447800  0.86302100  1
  O  O2  1  0.81528500  0.72639500  0.61421900  1
  O  O3  1  0.82061700  0.73122800  0.11176300  1
  O  O4  1  0.93619600  0.02405100  0.26860900  1
  O  O5  1  0.94030600  0.02062100  0.75074500  1
  O  O6  1  0.43321100  0.52490000  0.50194600  1
  O  O7  1  0.42653200  0.51819000  0.02227400  1
  O  O8  1  0.78861200  0.39765800  0.20238100  1
  O  O9  1  0.81505400  0.39291400  0.69974600  1
  O  O10  1  0.30020500  0.90645700  0.44730000  1
  O  O11  1  0.31986900  0.89545500  0.94679100  1
  O  O12  1  0.18632200  0.60520200  0.30210000  1
  O  O13  1  0.19308200  0.60185500  0.80132100  1
  O  O14  1  0.69282300  0.10183700  0.55048900  1
  O  O15  1  0.70322100  0.09983700  0.05078600  1
loop_
_geom_bond_atom_site_label_1
_geom_bond_atom_site_label_2
_geom_bond_distance
_geom_bond_site_symmetry_2
Fe0 O4 1.865954 1_555
Fe0 O5 1.872243 1_555
Fe0 O14 1.917829 1_555
Fe0 O10 1.952191 1_645
Fe0 O0 1.959164 1_655
Fe0 O2 1.977045 1_545
Fe1 O6 1.869860 1_555
Fe1 O7 1.871667 1_555
Fe1 O12 1.923188 1_555
Fe1 O0 1.978693 1_555
Fe1 O8 1.980843 1_555
Fe1 O3 2.007372 1_555
Fe2 O3 1.915487 1_456
Fe2 O1 1.932296 1_565
Fe2 O11 1.941696 1_555
Fe2 O15 2.015964 1_466
Fe2 O4 2.033436 1_466
Fe2 O5 2.036910 1_465
Fe3 O2 1.941020 1_555
Fe3 O1 1.958914 1_555
Fe3 O9 1.974202 1_555
Fe3 O6 2.026973 1_555
Fe3 O13 2.031152 1_555
Fe3 O7 2.034836 1_556
O0 Ti0 2.018046 1_555
O1 Ti1 2.001527 1_555
O2 Ti2 1.945507 1_655
O3 Ti3 1.945779 1_655
O4 Ti0 1.997016 1_555
O5 Ti1 1.967943 1_555
O6 Ti2 2.007152 1_555
O7 Ti3 2.005014 1_555
O8 Ti0 1.939174 1_555
O8 Ti3 1.991835 1_655
O9 Ti1 1.937947 1_555
O9 Ti2 1.951242 1_655
O10 Ti0 1.947780 1_565
O10 Ti2 2.008100 1_555
O11 Ti1 1.956347 1_565
O11 Ti3 1.967977 1_556
O12 Ti3 1.981895 1_555
O12 Ti2 1.982184 1_555
O13 Ti3 1.928865 1_556
O13 Ti2 1.930511 1_555
O14 Ti0 1.974256 1_555
O14 Ti1 1.978011 1_555
O15 Ti0 1.932211 1_555
O15 Ti1 1.933977 1_554
