# generated using pymatgen
data_Cs3Ge2Sb3O13
_symmetry_space_group_name_H-M   'P 1'
_cell_length_a   7.41834812
_cell_length_b   7.41834812
_cell_length_c   16.90095300
_cell_angle_alpha   90.00000000
_cell_angle_beta   90.00000000
_cell_angle_gamma   119.94694758
_symmetry_Int_Tables_number   1
_chemical_formula_structural   Cs3Ge2Sb3O13
_chemical_formula_sum   'Cs6 Ge4 Sb6 O26'
_cell_volume   805.91300957
_cell_formula_units_Z   2
loop_
 _symmetry_equiv_pos_site_id
 _symmetry_equiv_pos_as_xyz
  1  'x, y, z'
loop_
 _atom_site_type_symbol
 _atom_site_label
 _atom_site_symmetry_multiplicity
 _atom_site_fract_x
 _atom_site_fract_y
 _atom_site_fract_z
 _atom_site_occupancy
  Cs  Cs0  1  0.00681000  0.99319000  0.88688900  1
  Cs  Cs1  1  0.99319000  0.00681000  0.11311100  1
  Cs  Cs2  1  0.99319000  0.00681000  0.38688900  1
  Cs  Cs3  1  0.00681000  0.99319000  0.61311100  1
  Cs  Cs4  1  0.66884400  0.33115600  0.75000000  1
  Cs  Cs5  1  0.33115600  0.66884400  0.25000000  1
  Ge  Ge0  1  0.33328800  0.66671200  0.85317000  1
  Ge  Ge1  1  0.66671200  0.33328800  0.14683000  1
  Ge  Ge2  1  0.66671200  0.33328800  0.35317000  1
  Ge  Ge3  1  0.33328800  0.66671200  0.64683000  1
  Sb  Sb0  1  0.50000000  0.50000000  0.00000000  1
  Sb  Sb1  1  0.50000000  0.00000000  0.00000000  1
  Sb  Sb2  1  0.00000000  0.50000000  0.00000000  1
  Sb  Sb3  1  0.50000000  0.50000000  0.50000000  1
  Sb  Sb4  1  0.50000000  0.00000000  0.50000000  1
  Sb  Sb5  1  0.00000000  0.50000000  0.50000000  1
  O  O0  1  0.46646700  0.53353300  0.88091800  1
  O  O1  1  0.46541300  0.93248400  0.88160900  1
  O  O2  1  0.06751600  0.53458700  0.88160900  1
  O  O3  1  0.53353300  0.46646700  0.11908200  1
  O  O4  1  0.53458700  0.06751600  0.11839100  1
  O  O5  1  0.93248400  0.46541300  0.11839100  1
  O  O6  1  0.53353300  0.46646700  0.38091800  1
  O  O7  1  0.53458700  0.06751600  0.38160900  1
  O  O8  1  0.93248400  0.46541300  0.38160900  1
  O  O9  1  0.46646700  0.53353300  0.61908200  1
  O  O10  1  0.46541300  0.93248400  0.61839100  1
  O  O11  1  0.06751600  0.53458700  0.61839100  1
  O  O12  1  0.32845200  0.67154800  0.75000000  1
  O  O13  1  0.67154800  0.32845200  0.25000000  1
  O  O14  1  0.20063500  0.79936500  0.02164800  1
  O  O15  1  0.20185300  0.40312400  0.02140500  1
  O  O16  1  0.59687600  0.79814700  0.02140500  1
  O  O17  1  0.79936500  0.20063500  0.97835200  1
  O  O18  1  0.79814700  0.59687600  0.97859500  1
  O  O19  1  0.40312400  0.20185300  0.97859500  1
  O  O20  1  0.79936500  0.20063500  0.52164800  1
  O  O21  1  0.79814700  0.59687600  0.52140500  1
  O  O22  1  0.40312400  0.20185300  0.52140500  1
  O  O23  1  0.20063500  0.79936500  0.47835200  1
  O  O24  1  0.20185300  0.40312400  0.47859500  1
  O  O25  1  0.59687600  0.79814700  0.47859500  1
loop_
_geom_bond_atom_site_label_1
_geom_bond_atom_site_label_2
_geom_bond_distance
_geom_bond_site_symmetry_2
Cs0 O19 2.983002 1_565
Cs0 O18 2.983002 1_455
Cs0 O17 3.080644 1_465
Cs1 O15 2.983002 1_655
Cs1 O16 2.983002 1_545
Cs1 O14 3.080644 1_645
Cs2 O25 2.983002 1_545
Cs2 O24 2.983002 1_655
Cs2 O23 3.080644 1_645
Cs3 O22 2.983002 1_565
Cs3 O21 2.983002 1_455
Cs3 O20 3.080644 1_465
Cs4 O11 3.393482 1_655
Cs4 O2 3.393482 1_655
Cs4 O1 3.393482 1_545
Cs4 O10 3.393482 1_545
Cs4 O0 3.413779 1_555
Cs4 O9 3.413779 1_555
Cs5 O7 3.393482 1_565
Cs5 O8 3.393482 1_455
Cs5 O4 3.393482 1_565
Cs5 O5 3.393482 1_455
Cs5 O6 3.413779 1_555
Cs5 O3 3.413779 1_555
Ge0 O12 1.744778 1_555
Ge0 O0 1.773868 1_555
Ge0 O2 1.774690 1_555
Ge0 O1 1.774690 1_555
Ge1 O13 1.744778 1_555
Ge1 O3 1.773868 1_555
Ge1 O4 1.774690 1_555
Ge1 O5 1.774690 1_555
Ge2 O13 1.744778 1_555
Ge2 O6 1.773868 1_555
Ge2 O7 1.774690 1_555
Ge2 O8 1.774690 1_555
Ge3 O12 1.744778 1_555
Ge3 O9 1.773868 1_555
Ge3 O11 1.774690 1_555
Ge3 O10 1.774690 1_555
O0 Sb0 2.058179 1_556
O1 Sb1 2.047455 1_566
O2 Sb2 2.047455 1_556
O3 Sb0 2.058179 1_555
O4 Sb1 2.047455 1_555
O5 Sb2 2.047455 1_655
O6 Sb3 2.058179 1_555
O7 Sb4 2.047455 1_555
O8 Sb5 2.047455 1_655
O9 Sb3 2.058179 1_555
O10 Sb4 2.047455 1_565
O11 Sb5 2.047455 1_555
O14 Sb2 1.995239 1_555
O14 Sb1 1.995239 1_565
O15 Sb0 1.988031 1_555
O15 Sb2 1.990981 1_555
O16 Sb0 1.988031 1_555
O16 Sb1 1.990981 1_565
O17 Sb1 1.995239 1_556
O17 Sb2 1.995239 1_656
O18 Sb0 1.988031 1_556
O18 Sb2 1.990981 1_656
O19 Sb0 1.988031 1_556
O19 Sb1 1.990981 1_556
O20 Sb5 1.995239 1_655
O20 Sb4 1.995239 1_555
O21 Sb3 1.988031 1_555
O21 Sb5 1.990981 1_655
O22 Sb3 1.988031 1_555
O22 Sb4 1.990981 1_555
O23 Sb5 1.995239 1_555
O23 Sb4 1.995239 1_565
O24 Sb3 1.988031 1_555
O24 Sb5 1.990981 1_555
O25 Sb3 1.988031 1_555
O25 Sb4 1.990981 1_565
