# generated using pymatgen
data_Ge7HN3O20
_symmetry_space_group_name_H-M   'P 1'
_cell_length_a   7.78199400
_cell_length_b   7.78199400
_cell_length_c   7.78199400
_cell_angle_alpha   90.00000000
_cell_angle_beta   90.00000000
_cell_angle_gamma   90.00000000
_symmetry_Int_Tables_number   1
_chemical_formula_structural   Ge7HN3O20
_chemical_formula_sum   'Ge7 H1 N3 O20'
_cell_volume   471.27312570
_cell_formula_units_Z   1
loop_
 _symmetry_equiv_pos_site_id
 _symmetry_equiv_pos_as_xyz
  1  'x, y, z'
loop_
 _atom_site_type_symbol
 _atom_site_label
 _atom_site_symmetry_multiplicity
 _atom_site_fract_x
 _atom_site_fract_y
 _atom_site_fract_z
 _atom_site_occupancy
  Ge  Ge0  1  0.00000000  0.50000000  0.50000000  1
  Ge  Ge1  1  0.50000000  0.50000000  0.00000000  1
  Ge  Ge2  1  0.50000000  0.00000000  0.50000000  1
  Ge  Ge3  1  0.64899600  0.64899600  0.35100400  1
  Ge  Ge4  1  0.64899600  0.35100400  0.64899600  1
  Ge  Ge5  1  0.35100400  0.64899600  0.64899600  1
  Ge  Ge6  1  0.35100400  0.35100400  0.35100400  1
  H  H0  1  0.50000000  0.50000000  0.50000000  1
  N  N0  1  0.00000000  0.00000000  0.50000000  1
  N  N1  1  0.00000000  0.50000000  0.00000000  1
  N  N2  1  0.50000000  0.00000000  0.00000000  1
  O  O0  1  0.19328000  0.19328000  0.80672000  1
  O  O1  1  0.19328000  0.80672000  0.19328000  1
  O  O2  1  0.80672000  0.19328000  0.19328000  1
  O  O3  1  0.80672000  0.80672000  0.80672000  1
  O  O4  1  0.88091600  0.63629600  0.36370400  1
  O  O5  1  0.63629600  0.63629600  0.11908400  1
  O  O6  1  0.63629600  0.88091600  0.36370400  1
  O  O7  1  0.88091600  0.36370400  0.63629600  1
  O  O8  1  0.63629600  0.36370400  0.88091600  1
  O  O9  1  0.63629600  0.11908400  0.63629600  1
  O  O10  1  0.11908400  0.63629600  0.63629600  1
  O  O11  1  0.36370400  0.63629600  0.88091600  1
  O  O12  1  0.36370400  0.88091600  0.63629600  1
  O  O13  1  0.11908400  0.36370400  0.36370400  1
  O  O14  1  0.36370400  0.36370400  0.11908400  1
  O  O15  1  0.36370400  0.11908400  0.36370400  1
  O  O16  1  0.38669500  0.38669500  0.61330500  1
  O  O17  1  0.38669500  0.61330500  0.38669500  1
  O  O18  1  0.61330500  0.38669500  0.38669500  1
  O  O19  1  0.61330500  0.61330500  0.61330500  1
loop_
_geom_bond_atom_site_label_1
_geom_bond_atom_site_label_2
_geom_bond_distance
_geom_bond_site_symmetry_2
Ge0 O10 1.763170 1_555
Ge0 O4 1.763170 1_455
Ge0 O7 1.763170 1_455
Ge0 O13 1.763170 1_555
Ge1 O5 1.763170 1_555
Ge1 O11 1.763170 1_554
Ge1 O8 1.763170 1_554
Ge1 O14 1.763170 1_555
Ge2 O9 1.763170 1_555
Ge2 O6 1.763170 1_545
Ge2 O12 1.763170 1_545
Ge2 O15 1.763170 1_555
Ge3 O6 1.810204 1_555
Ge3 O4 1.810204 1_555
Ge3 O5 1.810204 1_555
Ge3 O19 2.078674 1_555
Ge3 O17 2.078674 1_555
Ge3 O18 2.078674 1_555
Ge4 O8 1.810204 1_555
Ge4 O7 1.810204 1_555
Ge4 O9 1.810204 1_555
Ge4 O19 2.078674 1_555
Ge4 O18 2.078674 1_555
Ge4 O16 2.078674 1_555
Ge5 O11 1.810204 1_555
Ge5 O12 1.810204 1_555
Ge5 O10 1.810204 1_555
Ge5 O19 2.078674 1_555
Ge5 O17 2.078674 1_555
Ge5 O16 2.078674 1_555
Ge6 O13 1.810204 1_555
Ge6 O14 1.810204 1_555
Ge6 O15 1.810204 1_555
Ge6 O16 2.078674 1_555
Ge6 O17 2.078674 1_555
Ge6 O18 2.078674 1_555
H0 O19 1.527216 1_555
H0 O16 1.527216 1_555
H0 O17 1.527216 1_555
H0 O18 1.527216 1_555
