# generated using pymatgen
data_Li3Mn2SbO6
_symmetry_space_group_name_H-M   'P 1'
_cell_length_a   6.82416501
_cell_length_b   6.82416501
_cell_length_c   6.35415407
_cell_angle_alpha   78.23490127
_cell_angle_beta   78.23490127
_cell_angle_gamma   26.58731155
_symmetry_Int_Tables_number   1
_chemical_formula_structural   Li3Mn2SbO6
_chemical_formula_sum   'Li3 Mn2 Sb1 O6'
_cell_volume   129.49757483
_cell_formula_units_Z   1
loop_
 _symmetry_equiv_pos_site_id
 _symmetry_equiv_pos_as_xyz
  1  'x, y, z'
loop_
 _atom_site_type_symbol
 _atom_site_label
 _atom_site_symmetry_multiplicity
 _atom_site_fract_x
 _atom_site_fract_y
 _atom_site_fract_z
 _atom_site_occupancy
  Li  Li0  1  0.50000000  0.50000000  0.50000000  1
  Li  Li1  1  0.16461300  0.16461300  0.19807100  1
  Li  Li2  1  0.83538700  0.83538700  0.80192900  1
  Mn  Mn0  1  0.17394000  0.17394000  0.65119900  1
  Mn  Mn1  1  0.82606000  0.82606000  0.34880100  1
  Sb  Sb0  1  0.50000000  0.50000000  0.00000000  1
  O  O0  1  0.65053700  0.65053700  0.91909000  1
  O  O1  1  0.33972800  0.33972800  0.57899700  1
  O  O2  1  0.34946300  0.34946300  0.08091000  1
  O  O3  1  0.00393000  0.00393000  0.21459400  1
  O  O4  1  0.99607000  0.99607000  0.78540600  1
  O  O5  1  0.66027200  0.66027200  0.42100300  1
loop_
_geom_bond_atom_site_label_1
_geom_bond_atom_site_label_2
_geom_bond_distance
_geom_bond_site_symmetry_2
Li0 O5 2.082335 1_555
Li0 O1 2.082335 1_555
Li0 O4 2.390431 1_545
Li0 O4 2.390431 1_455
Li0 O3 2.390431 1_655
Li0 O3 2.390431 1_565
Li1 O5 2.106648 1_455
Li1 O5 2.106648 1_545
Li1 O3 2.114787 1_555
Li1 O0 2.403857 1_544
Li1 O0 2.403857 1_454
Li1 O2 2.411794 1_555
Li2 O1 2.106648 1_565
Li2 O1 2.106648 1_655
Li2 O4 2.114787 1_555
Li2 O2 2.403857 1_656
Li2 O2 2.403857 1_566
Li2 O0 2.411794 1_555
Mn0 O1 2.153226 1_555
Mn0 O5 2.178530 1_545
Mn0 O5 2.178530 1_455
Mn0 O0 2.287953 1_545
Mn0 O0 2.287953 1_455
Mn0 O4 2.337684 1_445
Mn1 O5 2.153226 1_555
Mn1 O1 2.178530 1_565
Mn1 O1 2.178530 1_655
Mn1 O2 2.287953 1_655
Mn1 O2 2.287953 1_565
Mn1 O3 2.337684 1_665
O0 Sb0 1.957462 1_556
O2 Sb0 1.957462 1_555
O3 Sb0 2.086654 1_545
O3 Sb0 2.086654 1_455
O4 Sb0 2.086654 1_656
O4 Sb0 2.086654 1_566
