# generated using pymatgen
data_Ho8(AlGe3)3
_symmetry_space_group_name_H-M   'P 1'
_cell_length_a   5.64143213
_cell_length_b   5.64143213
_cell_length_c   20.13578414
_cell_angle_alpha   80.49517675
_cell_angle_beta   80.49517675
_cell_angle_gamma   42.33110744
_symmetry_Int_Tables_number   1
_chemical_formula_structural   Ho8(AlGe3)3
_chemical_formula_sum   'Ho8 Al3 Ge9'
_cell_volume   424.72862147
_cell_formula_units_Z   1
loop_
 _symmetry_equiv_pos_site_id
 _symmetry_equiv_pos_as_xyz
  1  'x, y, z'
loop_
 _atom_site_type_symbol
 _atom_site_label
 _atom_site_symmetry_multiplicity
 _atom_site_fract_x
 _atom_site_fract_y
 _atom_site_fract_z
 _atom_site_occupancy
  Ho  Ho0  1  0.46462500  0.46462500  0.67842800  1
  Ho  Ho1  1  0.70917900  0.70917900  0.92919400  1
  Ho  Ho2  1  0.96569100  0.96569100  0.17872000  1
  Ho  Ho3  1  0.21489600  0.21489600  0.42807300  1
  Ho  Ho4  1  0.78510400  0.78510400  0.57192700  1
  Ho  Ho5  1  0.03430900  0.03430900  0.82128000  1
  Ho  Ho6  1  0.29082100  0.29082100  0.07080600  1
  Ho  Ho7  1  0.53537500  0.53537500  0.32157200  1
  Al  Al0  1  0.25017800  0.25017800  0.25051100  1
  Al  Al1  1  0.50000000  0.50000000  0.50000000  1
  Al  Al2  1  0.74982200  0.74982200  0.74948900  1
  Ge  Ge0  1  0.17868900  0.17868900  0.67827300  1
  Ge  Ge1  1  0.42399900  0.42399900  0.92528800  1
  Ge  Ge2  1  0.68189100  0.68189100  0.17990000  1
  Ge  Ge3  1  0.92918100  0.92918100  0.42845600  1
  Ge  Ge4  1  0.07081900  0.07081900  0.57154400  1
  Ge  Ge5  1  0.31810900  0.31810900  0.82010000  1
  Ge  Ge6  1  0.57600100  0.57600100  0.07471200  1
  Ge  Ge7  1  0.82131100  0.82131100  0.32172700  1
  Ge  Ge8  1  0.00000000  0.00000000  0.00000000  1
loop_
_geom_bond_atom_site_label_1
_geom_bond_atom_site_label_2
_geom_bond_distance
_geom_bond_site_symmetry_2
Al0 Ge2 2.654920 1_455
Al0 Ge2 2.654920 1_545
Al0 Ge7 2.673130 1_455
Al0 Ge7 2.673130 1_545
Al0 Ho7 3.187347 1_455
Al0 Ho7 3.187347 1_545
Al0 Ho2 3.196825 1_545
Al0 Ho2 3.196825 1_455
Al1 Ge4 2.675769 1_565
Al1 Ge4 2.675769 1_655
Al1 Ge3 2.675769 1_545
Al1 Ge3 2.675769 1_455
Al1 Ho3 3.193642 1_565
Al1 Ho3 3.193642 1_655
Al1 Ho4 3.193642 1_455
Al1 Ho4 3.193642 1_545
Al2 Ge5 2.654920 1_655
Al2 Ge5 2.654920 1_565
Al2 Ge0 2.673130 1_565
Al2 Ge0 2.673130 1_655
Al2 Ho0 3.187347 1_565
Al2 Ho0 3.187347 1_655
Al2 Ho5 3.196825 1_655
Al2 Ho5 3.196825 1_565
Ge0 Ge4 2.602022 1_555
Ge0 Ho5 3.008388 1_555
Ge0 Ho0 3.009097 1_555
Ge0 Ho4 3.023078 1_455
Ge0 Ho4 3.023078 1_545
Ge0 Ho0 3.036366 1_545
Ge0 Ho0 3.036366 1_455
Ge1 Ge5 2.561866 1_555
Ge1 Ge8 2.734541 1_656
Ge1 Ge8 2.734541 1_566
Ge1 Ho5 3.003551 1_655
Ge1 Ho5 3.003551 1_565
Ge1 Ho1 3.015509 1_555
Ge1 Ho6 3.015798 1_556
Ge1 Ho1 3.033335 1_545
Ge1 Ho1 3.033335 1_455
Ge2 Ge6 2.561866 1_555
Ge2 Ho2 2.981952 1_555
Ge2 Ho7 2.992800 1_555
Ge2 Ho2 3.056706 1_455
Ge2 Ho2 3.056706 1_545
Ge2 Ho6 3.065366 1_565
Ge2 Ho6 3.065366 1_655
Ge3 Ge7 2.602022 1_555
Ge3 Ho3 3.004861 1_665
Ge3 Ho4 3.015435 1_555
Ge3 Ho7 3.029486 1_565
Ge3 Ho7 3.029486 1_655
Ge3 Ho3 3.039523 1_655
Ge3 Ho3 3.039523 1_565
Ge4 Ho4 3.004861 1_445
Ge4 Ho3 3.015435 1_555
Ge4 Ho0 3.029486 1_545
Ge4 Ho0 3.029486 1_455
Ge4 Ho4 3.039523 1_455
Ge4 Ho4 3.039523 1_545
Ge5 Ho5 2.981952 1_555
Ge5 Ho0 2.992800 1_555
Ge5 Ho5 3.056706 1_565
Ge5 Ho5 3.056706 1_655
Ge5 Ho1 3.065366 1_455
Ge5 Ho1 3.065366 1_545
Ge6 Ge8 2.734541 1_565
Ge6 Ge8 2.734541 1_655
Ge6 Ho2 3.003551 1_455
Ge6 Ho2 3.003551 1_545
Ge6 Ho6 3.015509 1_555
Ge6 Ho1 3.015798 1_554
Ge6 Ho6 3.033335 1_565
Ge6 Ho6 3.033335 1_655
Ge7 Ho2 3.008388 1_555
Ge7 Ho7 3.009097 1_555
Ge7 Ho3 3.023078 1_565
Ge7 Ho3 3.023078 1_655
Ge7 Ho7 3.036366 1_565
Ge7 Ho7 3.036366 1_655
Ge8 Ho6 3.148733 1_545
Ge8 Ho1 3.148733 1_454
Ge8 Ho1 3.148733 1_544
Ge8 Ho6 3.148733 1_455
Ge8 Ho5 3.552555 1_554
Ge8 Ho2 3.552555 1_445
Ge8 Ho6 3.597361 1_555
Ge8 Ho1 3.597361 1_444
