# generated using pymatgen
data_BiSbPt2
_symmetry_space_group_name_H-M   'P 1'
_cell_length_a   4.27592088
_cell_length_b   4.27592088
_cell_length_c   5.55270289
_cell_angle_alpha   90.00000000
_cell_angle_beta   90.00000000
_cell_angle_gamma   120.00001181
_symmetry_Int_Tables_number   1
_chemical_formula_structural   BiSbPt2
_chemical_formula_sum   'Bi1 Sb1 Pt2'
_cell_volume   87.92134801
_cell_formula_units_Z   1
loop_
 _symmetry_equiv_pos_site_id
 _symmetry_equiv_pos_as_xyz
  1  'x, y, z'
loop_
 _atom_site_type_symbol
 _atom_site_label
 _atom_site_symmetry_multiplicity
 _atom_site_fract_x
 _atom_site_fract_y
 _atom_site_fract_z
 _atom_site_occupancy
  Bi  Bi0  1  -0.00000000  0.00000000  -0.00000000  1
  Sb  Sb0  1  0.33333300  0.66666700  0.50000000  1
  Pt  Pt0  1  0.66666700  0.33333300  0.74501822  1
  Pt  Pt1  1  0.66666700  0.33333300  0.25498178  1
loop_
_geom_bond_atom_site_label_1
_geom_bond_atom_site_label_2
_geom_bond_distance
_geom_bond_site_symmetry_2
Bi0 Pt0 2.845889 1_454
Bi0 Pt1 2.845889 1_455
Bi0 Pt1 2.845892 1_445
Bi0 Pt1 2.845892 1_555
Bi0 Pt0 2.845892 1_444
Bi0 Pt0 2.845892 1_554
Pt0 Pt1 2.721027 1_555
Pt0 Sb0 2.818773 1_545
Pt0 Sb0 2.818773 1_655
Pt0 Sb0 2.818780 1_555
Pt0 Pt1 2.831676 1_556
Pt1 Sb0 2.818773 1_545
Pt1 Sb0 2.818773 1_655
Pt1 Sb0 2.818780 1_555
