# generated using pymatgen
data_TiCr(PO4)3
_symmetry_space_group_name_H-M   'P 1'
_cell_length_a   8.77392956
_cell_length_b   8.77392956
_cell_length_c   8.77392939
_cell_angle_alpha   58.84073487
_cell_angle_beta   58.84073487
_cell_angle_gamma   58.84073558
_symmetry_Int_Tables_number   1
_chemical_formula_structural   TiCr(PO4)3
_chemical_formula_sum   'Ti2 Cr2 P6 O24'
_cell_volume   464.96229280
_cell_formula_units_Z   2
loop_
 _symmetry_equiv_pos_site_id
 _symmetry_equiv_pos_as_xyz
  1  'x, y, z'
loop_
 _atom_site_type_symbol
 _atom_site_label
 _atom_site_symmetry_multiplicity
 _atom_site_fract_x
 _atom_site_fract_y
 _atom_site_fract_z
 _atom_site_occupancy
  Ti  Ti0  1  0.86063700  0.86063700  0.86063700  1
  Ti  Ti1  1  0.36063700  0.36063700  0.36063700  1
  Cr  Cr0  1  0.64237000  0.64237000  0.64237000  1
  Cr  Cr1  1  0.14237000  0.14237000  0.14237000  1
  P  P0  1  0.25741300  0.96432900  0.52894600  1
  P  P1  1  0.96432900  0.52894600  0.25741300  1
  P  P2  1  0.52894600  0.25741300  0.96432900  1
  P  P3  1  0.46432900  0.75741300  0.02894600  1
  P  P4  1  0.02894600  0.46432900  0.75741300  1
  P  P5  1  0.75741300  0.02894600  0.46432900  1
  O  O0  1  0.72309900  0.85950800  0.49204600  1
  O  O1  1  0.49204600  0.72309900  0.85950800  1
  O  O2  1  0.08500900  0.93515600  0.71097300  1
  O  O3  1  0.85950800  0.49204600  0.72309900  1
  O  O4  1  0.22309900  0.99204600  0.35950800  1
  O  O5  1  0.42875800  0.78076900  0.55516600  1
  O  O6  1  0.93515600  0.71097300  0.08500900  1
  O  O7  1  0.78076900  0.55516600  0.42875800  1
  O  O8  1  0.63393600  0.79243800  0.99770500  1
  O  O9  1  0.55516600  0.42875800  0.78076900  1
  O  O10  1  0.28076900  0.92875800  0.05516600  1
  O  O11  1  0.99770500  0.63393600  0.79243800  1
  O  O12  1  0.99204600  0.35950800  0.22309900  1
  O  O13  1  0.71097300  0.08500900  0.93515600  1
  O  O14  1  0.43515600  0.58500900  0.21097300  1
  O  O15  1  0.35950800  0.22309900  0.99204600  1
  O  O16  1  0.21097300  0.43515600  0.58500900  1
  O  O17  1  0.05516600  0.28076900  0.92875800  1
  O  O18  1  0.58500900  0.21097300  0.43515600  1
  O  O19  1  0.79243800  0.99770500  0.63393600  1
  O  O20  1  0.13393600  0.49770500  0.29243800  1
  O  O21  1  0.92875800  0.05516600  0.28076900  1
  O  O22  1  0.49770500  0.29243800  0.13393600  1
  O  O23  1  0.29243800  0.13393600  0.49770500  1
loop_
_geom_bond_atom_site_label_1
_geom_bond_atom_site_label_2
_geom_bond_distance
_geom_bond_site_symmetry_2
Cr0 O1 1.923611 1_555
Cr0 O0 1.923612 1_555
Cr0 O3 1.923612 1_555
Cr0 O7 1.933904 1_555
Cr0 O9 1.933904 1_555
Cr0 O5 1.933904 1_555
Cr1 O4 1.923611 1_545
Cr1 O15 1.923612 1_554
Cr1 O12 1.923612 1_455
Cr1 O17 1.933904 1_554
Cr1 O21 1.933904 1_455
Cr1 O10 1.933904 1_545
O0 P5 1.540504 1_565
O1 P3 1.540504 1_556
O2 P0 1.543365 1_555
O2 Ti0 1.948248 1_455
O3 P4 1.540504 1_655
O4 P0 1.540504 1_555
O5 P0 1.541358 1_555
O6 P1 1.543365 1_555
O6 Ti0 1.948248 1_554
O7 P1 1.541358 1_555
O8 P3 1.532329 1_556
O8 Ti0 1.942231 1_555
O9 P2 1.541358 1_555
O10 P3 1.541358 1_555
O11 P4 1.532329 1_655
O11 Ti0 1.942231 1_555
O12 P1 1.540504 1_555
O13 P2 1.543365 1_555
O13 Ti0 1.948248 1_545
O14 P3 1.543365 1_555
O14 Ti1 1.948248 1_555
O15 P2 1.540504 1_555
O16 P4 1.543365 1_555
O16 Ti1 1.948248 1_555
O17 P4 1.541358 1_555
O18 P5 1.543365 1_555
O18 Ti1 1.948248 1_555
O19 P5 1.532329 1_565
O19 Ti0 1.942231 1_555
O20 P1 1.532329 1_455
O20 Ti1 1.942231 1_555
O21 P5 1.541358 1_555
O22 P2 1.532329 1_554
O22 Ti1 1.942231 1_555
O23 P0 1.532329 1_545
O23 Ti1 1.942231 1_555
