# generated using pymatgen
data_Li9Mn2Co5O16
_symmetry_space_group_name_H-M   'P 1'
_cell_length_a   19.49013778
_cell_length_b   19.49013778
_cell_length_c   5.13527572
_cell_angle_alpha   87.61444329
_cell_angle_beta   87.61444329
_cell_angle_gamma   8.44200718
_symmetry_Int_Tables_number   1
_chemical_formula_structural   Li9Mn2Co5O16
_chemical_formula_sum   'Li9 Mn2 Co5 O16'
_cell_volume   286.13142833
_cell_formula_units_Z   1
loop_
 _symmetry_equiv_pos_site_id
 _symmetry_equiv_pos_as_xyz
  1  'x, y, z'
loop_
 _atom_site_type_symbol
 _atom_site_label
 _atom_site_symmetry_multiplicity
 _atom_site_fract_x
 _atom_site_fract_y
 _atom_site_fract_z
 _atom_site_occupancy
  Li  Li0  1  0.44103300  0.44103300  0.17589500  1
  Li  Li1  1  0.31031400  0.31031400  0.56442400  1
  Li  Li2  1  0.18759200  0.18759200  0.94121700  1
  Li  Li3  1  0.05867400  0.05867400  0.33279800  1
  Li  Li4  1  0.94513400  0.94513400  0.65131800  1
  Li  Li5  1  0.81004500  0.81004500  0.06681500  1
  Li  Li6  1  0.68694000  0.68694000  0.43349000  1
  Li  Li7  1  0.56120100  0.56120100  0.82889100  1
  Li  Li8  1  0.50039800  0.50039800  0.49696200  1
  Mn  Mn0  1  0.99999600  0.99999600  0.99994400  1
  Mn  Mn1  1  0.87516900  0.87516900  0.37289400  1
  Co  Co0  1  0.74988700  0.74988700  0.75069700  1
  Co  Co1  1  0.62459700  0.62459700  0.12958000  1
  Co  Co2  1  0.37531300  0.37531300  0.87221100  1
  Co  Co3  1  0.24973500  0.24973500  0.25140000  1
  Co  Co4  1  0.12456700  0.12456700  0.62965600  1
  O  O0  1  0.47181500  0.47181500  0.85253900  1
  O  O1  1  0.34677000  0.34677000  0.24344100  1
  O  O2  1  0.22072000  0.22072000  0.59488900  1
  O  O3  1  0.09558600  0.09558600  0.98632700  1
  O  O4  1  0.97080500  0.97080500  0.30929200  1
  O  O5  1  0.84821700  0.84821700  0.70016800  1
  O  O6  1  0.72091000  0.72091000  0.09115600  1
  O  O7  1  0.59793300  0.59793300  0.48395100  1
  O  O8  1  0.40332200  0.40332200  0.50322100  1
  O  O9  1  0.27999500  0.27999500  0.90539700  1
  O  O10  1  0.15470500  0.15470500  0.27343200  1
  O  O11  1  0.02911300  0.02911300  0.68992600  1
  O  O12  1  0.90101500  0.90101500  0.04617200  1
  O  O13  1  0.77942500  0.77942500  0.40571600  1
  O  O14  1  0.65166400  0.65166400  0.77193500  1
  O  O15  1  0.52741100  0.52741100  0.14424500  1
loop_
_geom_bond_atom_site_label_1
_geom_bond_atom_site_label_2
_geom_bond_distance
_geom_bond_site_symmetry_2
Li0 O4 1.983151 1_455
Li0 O4 1.983151 1_545
Li0 O0 2.005843 1_554
Li0 O8 2.183783 1_555
Li0 O12 2.237935 1_545
Li0 O12 2.237935 1_455
Li1 O13 2.060527 1_545
Li1 O13 2.060527 1_455
Li1 O9 2.069512 1_555
Li1 O1 2.128497 1_555
Li1 O5 2.191046 1_455
Li1 O5 2.191046 1_545
Li2 O10 2.088756 1_556
Li2 O6 2.100391 1_546
Li2 O6 2.100391 1_456
Li2 O2 2.151827 1_555
Li2 O14 2.205834 1_545
Li2 O14 2.205834 1_455
Li3 O11 2.123216 1_555
Li3 O15 2.137931 1_455
Li3 O15 2.137931 1_545
Li3 O3 2.238653 1_554
Li3 O7 2.255778 1_545
Li3 O7 2.255778 1_455
Li4 O4 1.983563 1_555
Li4 O0 2.071464 1_655
Li4 O0 2.071464 1_565
Li4 O8 2.319807 1_655
Li4 O8 2.319807 1_565
Li4 O12 2.600537 1_556
Li5 O9 2.047076 1_564
Li5 O9 2.047076 1_654
Li5 O13 2.067075 1_555
Li5 O1 2.242085 1_655
Li5 O1 2.242085 1_565
Li5 O5 2.348160 1_554
Li6 O10 2.095186 1_565
Li6 O10 2.095186 1_655
Li6 O2 2.135459 1_655
Li6 O2 2.135459 1_565
Li6 O6 2.154206 1_555
Li6 O14 2.168477 1_555
Li7 O15 2.042168 1_556
Li7 O11 2.048784 1_565
Li7 O11 2.048784 1_655
Li7 O3 2.142089 1_655
Li7 O3 2.142089 1_565
Li7 O7 2.228362 1_555
Li8 O15 2.055427 1_555
Li8 O11 2.092434 1_565
Li8 O11 2.092434 1_655
Li8 O0 2.097503 1_555
Li8 O4 2.098265 1_545
Li8 O4 2.098265 1_455
Mn0 O4 1.913340 1_556
Mn0 O11 1.914511 1_665
Mn0 O15 1.951610 1_566
Mn0 O15 1.951610 1_656
Mn0 O0 1.974923 1_565
Mn0 O0 1.974923 1_655
Mn1 O12 1.919335 1_555
Mn1 O8 1.940302 1_655
Mn1 O8 1.940302 1_565
Mn1 O5 1.943024 1_555
Mn1 O1 1.944204 1_655
Mn1 O1 1.944204 1_565
Co0 O2 2.014812 1_565
Co0 O2 2.014812 1_655
Co0 O9 2.033857 1_565
Co0 O9 2.033857 1_655
Co0 O6 2.039917 1_556
Co0 O13 2.070556 1_555
Co1 O3 1.985010 1_564
Co1 O3 1.985010 1_654
Co1 O10 2.011399 1_565
Co1 O10 2.011399 1_655
Co1 O7 2.056362 1_555
Co1 O14 2.078213 1_554
Co2 O12 1.982119 1_546
Co2 O12 1.982119 1_456
Co2 O5 2.006414 1_545
Co2 O5 2.006414 1_455
Co2 O8 2.145660 1_555
Co2 O1 2.165380 1_556
Co3 O6 2.016857 1_455
Co3 O6 2.016857 1_545
Co3 O13 2.023464 1_545
Co3 O13 2.023464 1_455
Co3 O2 2.053670 1_555
Co3 O9 2.089594 1_554
Co4 O7 1.937646 1_545
Co4 O7 1.937646 1_455
Co4 O14 1.940523 1_455
Co4 O14 1.940523 1_545
Co4 O3 2.109929 1_555
Co4 O10 2.130755 1_555
