# generated using pymatgen
data_CsSm2Ti2NbO10
_symmetry_space_group_name_H-M   'P 1'
_cell_length_a   3.87181336
_cell_length_b   3.87181336
_cell_length_c   15.61081109
_cell_angle_alpha   89.40300436
_cell_angle_beta   89.40300436
_cell_angle_gamma   89.66816861
_symmetry_Int_Tables_number   1
_chemical_formula_structural   CsSm2Ti2NbO10
_chemical_formula_sum   'Cs1 Sm2 Ti2 Nb1 O10'
_cell_volume   233.99152601
_cell_formula_units_Z   1
loop_
 _symmetry_equiv_pos_site_id
 _symmetry_equiv_pos_as_xyz
  1  'x, y, z'
loop_
 _atom_site_type_symbol
 _atom_site_label
 _atom_site_symmetry_multiplicity
 _atom_site_fract_x
 _atom_site_fract_y
 _atom_site_fract_z
 _atom_site_occupancy
  Cs  Cs0  1  0.50013000  0.50013000  0.51084500  1
  Sm  Sm0  1  0.48187000  0.48187000  0.84350700  1
  Sm  Sm1  1  0.47112200  0.47112200  0.12778600  1
  Ti  Ti0  1  0.01368800  0.01368800  0.99842300  1
  Ti  Ti1  1  0.99872700  0.99872700  0.71730700  1
  Nb  Nb0  1  0.99861400  0.99861400  0.27871500  1
  O  O0  1  0.50058100  0.99656100  0.75355800  1
  O  O1  1  0.99656100  0.50058100  0.75355800  1
  O  O2  1  0.50642700  0.01244300  0.24521500  1
  O  O3  1  0.01244300  0.50642700  0.24521500  1
  O  O4  1  0.02203300  0.02203300  0.87839100  1
  O  O5  1  0.03188800  0.03188800  0.12752900  1
  O  O6  1  0.00214800  0.00214800  0.60845500  1
  O  O7  1  0.99629700  0.99629700  0.39356000  1
  O  O8  1  0.53132100  0.06015200  0.00896800  1
  O  O9  1  0.06015200  0.53132100  0.00896800  1
loop_
_geom_bond_atom_site_label_1
_geom_bond_atom_site_label_2
_geom_bond_distance
_geom_bond_site_symmetry_2
Cs0 O6 3.110881 1_555
Cs0 O6 3.126429 1_655
Cs0 O6 3.126429 1_565
Cs0 O6 3.169412 1_665
Cs0 O7 3.260275 1_555
Cs0 O7 3.287230 1_545
Cs0 O7 3.287230 1_455
Cs0 O7 3.340062 1_445
Nb0 O7 1.792682 1_555
Nb0 O3 1.981637 1_655
Nb0 O2 1.981637 1_565
Nb0 O2 2.030108 1_665
Nb0 O3 2.030108 1_665
Nb0 O5 2.364520 1_665
O0 Ti1 2.004410 1_555
O0 Ti1 2.029416 1_455
O0 Sm0 2.357750 1_565
O0 Sm0 2.426809 1_555
O1 Ti1 2.004410 1_555
O1 Ti1 2.029416 1_545
O1 Sm0 2.357750 1_655
O1 Sm0 2.426809 1_555
O2 Sm1 2.543153 1_555
O2 Sm1 2.803666 1_545
O3 Sm1 2.543153 1_555
O3 Sm1 2.803666 1_455
O4 Ti0 1.873684 1_555
O4 Sm0 2.575370 1_555
O4 Sm0 2.792989 1_545
O4 Sm0 2.792989 1_455
O4 Sm0 3.023686 1_445
O5 Ti0 2.019392 1_554
O5 Sm1 2.412074 1_555
O5 Sm1 2.750161 1_455
O5 Sm1 2.750161 1_545
O5 Sm1 3.079336 1_445
O6 Ti1 1.699096 1_445
O8 Ti0 1.880915 1_654
O8 Ti0 2.021846 1_554
O8 Sm1 2.464729 1_555
O8 Sm1 2.933424 1_545
O8 Sm0 3.048495 1_554
O9 Ti0 1.880915 1_564
O9 Ti0 2.021846 1_554
O9 Sm1 2.464729 1_555
O9 Sm1 2.933424 1_455
O9 Sm0 3.048495 1_554
