# generated using pymatgen
data_Tl2Mo2P2O11
_symmetry_space_group_name_H-M   'P 1'
_cell_length_a   10.38681600
_cell_length_b   10.13783800
_cell_length_c   10.14154323
_cell_angle_alpha   82.30742660
_cell_angle_beta   90.00000000
_cell_angle_gamma   90.00000000
_symmetry_Int_Tables_number   1
_chemical_formula_structural   Tl2Mo2P2O11
_chemical_formula_sum   'Tl8 Mo8 P8 O44'
_cell_volume   1058.29252980
_cell_formula_units_Z   4
loop_
 _symmetry_equiv_pos_site_id
 _symmetry_equiv_pos_as_xyz
  1  'x, y, z'
loop_
 _atom_site_type_symbol
 _atom_site_label
 _atom_site_symmetry_multiplicity
 _atom_site_fract_x
 _atom_site_fract_y
 _atom_site_fract_z
 _atom_site_occupancy
  Tl  Tl0  1  0.50000200  0.74983500  0.00047500  1
  Tl  Tl1  1  0.00000200  0.25016500  0.99952500  1
  Tl  Tl2  1  0.32045400  0.46936600  0.76015100  1
  Tl  Tl3  1  0.82045400  0.53063400  0.23984900  1
  Tl  Tl4  1  0.67553500  0.03980600  0.24278400  1
  Tl  Tl5  1  0.17553500  0.96019400  0.75721600  1
  Tl  Tl6  1  0.41937800  0.24291800  0.51766700  1
  Tl  Tl7  1  0.91937800  0.75708200  0.48233300  1
  Mo  Mo0  1  0.41473500  0.61544700  0.34643800  1
  Mo  Mo1  1  0.91473500  0.38455300  0.65356200  1
  Mo  Mo2  1  0.58450700  0.88589600  0.65428500  1
  Mo  Mo3  1  0.08450700  0.11410400  0.34571500  1
  Mo  Mo4  1  0.17730800  0.60209200  0.07725900  1
  Mo  Mo5  1  0.67730800  0.39790800  0.92274100  1
  Mo  Mo6  1  0.82248600  0.89794300  0.92322000  1
  Mo  Mo7  1  0.32248600  0.10205700  0.07678000  1
  P  P0  1  0.12475400  0.43500500  0.39530500  1
  P  P1  1  0.62475400  0.56499500  0.60469500  1
  P  P2  1  0.87572900  0.06529900  0.60498200  1
  P  P3  1  0.37572900  0.93470100  0.39501800  1
  P  P4  1  0.42355900  0.39669300  0.12624200  1
  P  P5  1  0.92355900  0.60330700  0.87375800  1
  P  P6  1  0.57638700  0.10316500  0.87451900  1
  P  P7  1  0.07638700  0.89683500  0.12548100  1
  O  O0  1  0.05450600  0.74499300  0.13309500  1
  O  O1  1  0.55450600  0.25500700  0.86690500  1
  O  O2  1  0.94525000  0.75522900  0.86669900  1
  O  O3  1  0.44525000  0.24477100  0.13330100  1
  O  O4  1  0.35060100  0.78279000  0.42410000  1
  O  O5  1  0.85060100  0.21721000  0.57590000  1
  O  O6  1  0.65120200  0.71817600  0.57571200  1
  O  O7  1  0.15120200  0.28182400  0.42428800  1
  O  O8  1  0.28566600  0.43205100  0.07229900  1
  O  O9  1  0.78566600  0.56794900  0.92770100  1
  O  O10  1  0.71439300  0.06808700  0.92746600  1
  O  O11  1  0.21439300  0.93191300  0.07253400  1
  O  O12  1  0.23383400  0.68022200  0.92379500  1
  O  O13  1  0.73383400  0.31977800  0.07620500  1
  O  O14  1  0.76629600  0.81956000  0.07645400  1
  O  O15  1  0.26629600  0.18044000  0.92354600  1
  O  O16  1  0.09251500  0.48029900  0.24654700  1
  O  O17  1  0.59251500  0.51970100  0.75345300  1
  O  O18  1  0.90780900  0.01964400  0.75373100  1
  O  O19  1  0.40780900  0.98035600  0.24626900  1
  O  O20  1  0.50101700  0.53062700  0.52785100  1
  O  O21  1  0.00101700  0.46937300  0.47214900  1
  O  O22  1  0.49918000  0.97175700  0.47245600  1
  O  O23  1  0.99918000  0.02824300  0.52754400  1
  O  O24  1  0.30191700  0.66616000  0.19637000  1
  O  O25  1  0.80191700  0.33384000  0.80363000  1
  O  O26  1  0.69819600  0.83408400  0.80323000  1
  O  O27  1  0.19819600  0.16591600  0.19677000  1
  O  O28  1  0.01946300  0.52672000  0.97480600  1
  O  O29  1  0.51946300  0.47328000  0.02519400  1
  O  O30  1  0.98080600  0.97318800  0.02403900  1
  O  O31  1  0.48080600  0.02681200  0.97596100  1
  O  O32  1  0.44567500  0.43327900  0.26860400  1
  O  O33  1  0.94567500  0.56672100  0.73139600  1
  O  O34  1  0.55304900  0.06543900  0.73266200  1
  O  O35  1  0.05304900  0.93456100  0.26733800  1
  O  O36  1  0.56161700  0.68192800  0.28850300  1
  O  O37  1  0.06161700  0.31807200  0.71149700  1
  O  O38  1  0.43857300  0.81652700  0.71117600  1
  O  O39  1  0.93857300  0.18347300  0.28882400  1
  O  O40  1  0.24485500  0.50641200  0.44181000  1
  O  O41  1  0.74485500  0.49358800  0.55819000  1
  O  O42  1  0.75894400  0.98816000  0.55805000  1
  O  O43  1  0.25894400  0.01184000  0.44195000  1
loop_
_geom_bond_atom_site_label_1
_geom_bond_atom_site_label_2
_geom_bond_distance
_geom_bond_site_symmetry_2
Mo0 O36 1.738105 1_555
Mo0 O24 1.935007 1_555
Mo0 O4 2.073621 1_555
Mo0 O20 2.122248 1_555
Mo0 O32 2.127737 1_555
Mo0 O40 2.232634 1_555
Mo1 O37 1.738105 1_655
Mo1 O25 1.935007 1_555
Mo1 O5 2.073621 1_555
Mo1 O21 2.122248 1_655
Mo1 O33 2.127737 1_555
Mo1 O41 2.232634 1_555
Mo2 O38 1.736791 1_555
Mo2 O26 1.933815 1_555
Mo2 O6 2.090139 1_555
Mo2 O34 2.106881 1_565
Mo2 O22 2.124589 1_555
Mo2 O42 2.244826 1_555
Mo3 O39 1.736791 1_455
Mo3 O27 1.933815 1_555
Mo3 O7 2.090139 1_555
Mo3 O35 2.106881 1_545
Mo3 O23 2.124589 1_455
Mo3 O43 2.244826 1_555
Mo4 O12 1.750522 1_554
Mo4 O24 1.940693 1_555
Mo4 O8 2.064978 1_555
Mo4 O0 2.065426 1_555
Mo4 O28 2.136348 1_554
Mo4 O16 2.163388 1_555
Mo5 O13 1.750522 1_556
Mo5 O25 1.940693 1_555
Mo5 O9 2.064978 1_555
Mo5 O1 2.065426 1_555
Mo5 O29 2.136348 1_556
Mo5 O17 2.163388 1_555
Mo6 O14 1.748280 1_556
Mo6 O26 1.943567 1_555
Mo6 O10 2.063381 1_565
Mo6 O2 2.066351 1_555
Mo6 O30 2.130801 1_556
Mo6 O18 2.166664 1_565
Mo7 O15 1.748280 1_554
Mo7 O27 1.943567 1_555
Mo7 O11 2.063381 1_545
Mo7 O3 2.066351 1_555
Mo7 O31 2.130801 1_554
Mo7 O19 2.166664 1_545
O0 P7 1.547705 1_555
O1 P6 1.547705 1_555
O2 P5 1.548697 1_555
O3 P4 1.548697 1_555
O4 P3 1.550890 1_555
O5 P2 1.550890 1_555
O6 P1 1.565642 1_555
O7 P0 1.565642 1_555
O8 P4 1.557776 1_555
O9 P5 1.557776 1_555
O10 P6 1.555130 1_555
O11 P7 1.555130 1_555
O16 P0 1.553546 1_555
O16 Tl3 2.870739 1_455
O17 P1 1.553546 1_555
O17 Tl2 2.870739 1_555
O18 P2 1.553716 1_555
O18 Tl5 2.844600 1_645
O19 P3 1.553716 1_555
O19 Tl4 2.844600 1_565
O20 P1 1.566284 1_555
O21 P0 1.566284 1_555
O22 P3 1.575141 1_555
O23 P2 1.575141 1_555
O28 P5 1.559581 1_455
O28 Tl1 2.788567 1_555
O29 P4 1.559581 1_555
O29 Tl0 2.788567 1_555
O30 P7 1.558837 1_655
O30 Tl1 2.792713 1_664
O31 P6 1.558837 1_555
O31 Tl0 2.792713 1_546
O32 P4 1.555047 1_555
O33 P5 1.555047 1_555
O34 P6 1.556294 1_555
O35 P7 1.556294 1_555
O40 P0 1.547276 1_555
O41 P1 1.547276 1_555
O42 P2 1.552152 1_565
O43 P3 1.552152 1_545
