# generated using pymatgen
data_Zn(AgO2)2
_symmetry_space_group_name_H-M   'P 1'
_cell_length_a   3.26025276
_cell_length_b   8.10813820
_cell_length_c   7.87131924
_cell_angle_alpha   81.01015955
_cell_angle_beta   78.44478912
_cell_angle_gamma   98.33006258
_symmetry_Int_Tables_number   1
_chemical_formula_structural   Zn(AgO2)2
_chemical_formula_sum   'Zn2 Ag4 O8'
_cell_volume   197.98858076
_cell_formula_units_Z   2
loop_
 _symmetry_equiv_pos_site_id
 _symmetry_equiv_pos_as_xyz
  1  'x, y, z'
loop_
 _atom_site_type_symbol
 _atom_site_label
 _atom_site_symmetry_multiplicity
 _atom_site_fract_x
 _atom_site_fract_y
 _atom_site_fract_z
 _atom_site_occupancy
  Zn  Zn0  1  0.30224600  0.18219000  0.21161100  1
  Zn  Zn1  1  0.69984100  0.79589900  0.82146100  1
  Ag  Ag0  1  0.66896000  0.16774300  0.55846900  1
  Ag  Ag1  1  0.07533400  0.52243200  0.20069900  1
  Ag  Ag2  1  0.92714100  0.45572800  0.83246500  1
  Ag  Ag3  1  0.33334500  0.81028600  0.47455500  1
  O  O0  1  0.84025900  0.63244700  0.63263600  1
  O  O1  1  0.56992000  0.25860800  0.77889600  1
  O  O2  1  0.43270800  0.71972000  0.25393800  1
  O  O3  1  0.16227900  0.34560200  0.40045200  1
  O  O4  1  0.30357400  0.93210000  0.69479400  1
  O  O5  1  0.88409000  0.31475500  0.08421400  1
  O  O6  1  0.69862400  0.04598000  0.33829600  1
  O  O7  1  0.11799100  0.66331100  0.94895700  1
loop_
_geom_bond_atom_site_label_1
_geom_bond_atom_site_label_2
_geom_bond_distance
_geom_bond_site_symmetry_2
Ag0 O1 1.975204 1_555
Ag0 O3 2.044368 1_655
Ag0 O4 2.099691 1_545
Ag0 O6 2.117253 1_555
Ag0 O3 2.703395 1_555
Ag1 O2 1.989234 1_555
Ag1 O3 2.049392 1_555
Ag1 O7 2.094473 1_554
Ag1 O5 2.114759 1_455
Ag2 O1 1.989135 1_555
Ag2 O0 2.049182 1_555
Ag2 O5 2.094557 1_556
Ag2 O7 2.113825 1_655
Ag3 O2 1.975307 1_555
Ag3 O0 2.044032 1_455
Ag3 O6 2.099751 1_565
Ag3 O4 2.117943 1_555
Ag3 O0 2.704150 1_555
O0 Zn1 2.166533 1_555
O3 Zn0 2.166145 1_555
O4 Zn1 2.080332 1_455
O4 Zn1 2.113779 1_555
O5 Zn0 2.017330 1_555
O5 Zn0 2.157518 1_655
O6 Zn0 2.080105 1_655
O6 Zn0 2.114174 1_555
O7 Zn1 2.017580 1_555
O7 Zn1 2.157999 1_455
