# generated using pymatgen
data_Nb5P7O30
_symmetry_space_group_name_H-M   'P 1'
_cell_length_a   15.89900400
_cell_length_b   15.89900400
_cell_length_c   8.93350418
_cell_angle_alpha   88.40364333
_cell_angle_beta   88.40364333
_cell_angle_gamma   32.41439043
_symmetry_Int_Tables_number   1
_chemical_formula_structural   Nb5P7O30
_chemical_formula_sum   'Nb10 P14 O60'
_cell_volume   1209.97139889
_cell_formula_units_Z   2
loop_
 _symmetry_equiv_pos_site_id
 _symmetry_equiv_pos_as_xyz
  1  'x, y, z'
loop_
 _atom_site_type_symbol
 _atom_site_label
 _atom_site_symmetry_multiplicity
 _atom_site_fract_x
 _atom_site_fract_y
 _atom_site_fract_z
 _atom_site_occupancy
  Nb  Nb0  1  0.79360100  0.30403600  0.96195500  1
  Nb  Nb1  1  0.20639900  0.69596400  0.03804500  1
  Nb  Nb2  1  0.69596400  0.20639900  0.53804500  1
  Nb  Nb3  1  0.08136300  0.59436000  0.55354500  1
  Nb  Nb4  1  0.40564000  0.91863700  0.94645500  1
  Nb  Nb5  1  0.59436000  0.08136300  0.05354500  1
  Nb  Nb6  1  0.30403600  0.79360100  0.46195500  1
  Nb  Nb7  1  0.50000000  0.00000000  0.50000000  1
  Nb  Nb8  1  0.00000000  0.50000000  0.00000000  1
  Nb  Nb9  1  0.91863700  0.40564000  0.44645500  1
  P  P0  1  0.74806200  0.96499600  0.40872900  1
  P  P1  1  0.67976000  0.72734200  0.23082900  1
  P  P2  1  0.44783300  0.67278400  0.10346900  1
  P  P3  1  0.32024000  0.27265800  0.76917100  1
  P  P4  1  0.55216700  0.32721600  0.89653100  1
  P  P5  1  0.97050700  0.02949300  0.25000000  1
  P  P6  1  0.02949300  0.97050700  0.75000000  1
  P  P7  1  0.96499600  0.74806200  0.90872900  1
  P  P8  1  0.27265800  0.32024000  0.26917100  1
  P  P9  1  0.67278400  0.44783300  0.60346900  1
  P  P10  1  0.72734200  0.67976000  0.73082900  1
  P  P11  1  0.25193800  0.03500400  0.59127100  1
  P  P12  1  0.03500400  0.25193800  0.09127100  1
  P  P13  1  0.32721600  0.55216700  0.39653100  1
  O  O0  1  0.79654000  0.92215900  0.92679500  1
  O  O1  1  0.66092500  0.31526300  0.93186700  1
  O  O2  1  0.28926000  0.92812400  0.49566300  1
  O  O3  1  0.57638300  0.29402000  0.72500800  1
  O  O4  1  0.10360800  0.96454700  0.33327900  1
  O  O5  1  0.38586200  0.15525400  0.65977500  1
  O  O6  1  0.27063500  0.39745000  0.67849300  1
  O  O7  1  0.10358900  0.84715000  0.86275100  1
  O  O8  1  0.62112200  0.49434800  0.08732500  1
  O  O9  1  0.39078900  0.04407400  0.91409600  1
  O  O10  1  0.02123000  0.35833600  0.02420300  1
  O  O11  1  0.82381100  0.64459200  0.14819300  1
  O  O12  1  0.71074000  0.07187600  0.50433700  1
  O  O13  1  0.58504600  0.22944500  0.99564300  1
  O  O14  1  0.89641100  0.15285000  0.13724900  1
  O  O15  1  0.92812400  0.28926000  0.99566300  1
  O  O16  1  0.72936500  0.60255000  0.32150700  1
  O  O17  1  0.28962900  0.98679400  0.75399400  1
  O  O18  1  0.41495400  0.77055500  0.00435700  1
  O  O19  1  0.64166400  0.97877000  0.47579700  1
  O  O20  1  0.29402000  0.57638300  0.22500800  1
  O  O21  1  0.07784100  0.20346000  0.57320500  1
  O  O22  1  0.04407400  0.39078900  0.41409600  1
  O  O23  1  0.17618900  0.35540800  0.85180700  1
  O  O24  1  0.15525400  0.38586200  0.15977500  1
  O  O25  1  0.61413800  0.84474600  0.34022500  1
  O  O26  1  0.31526300  0.66092500  0.43186700  1
  O  O27  1  0.77055500  0.41495400  0.50435700  1
  O  O28  1  0.92215900  0.79654000  0.42679500  1
  O  O29  1  0.39745000  0.27063500  0.17849300  1
  O  O30  1  0.22944500  0.58504600  0.49564300  1
  O  O31  1  0.42361700  0.70598000  0.27499200  1
  O  O32  1  0.95592600  0.60921100  0.58590400  1
  O  O33  1  0.55143900  0.81000700  0.12397300  1
  O  O34  1  0.01320600  0.71037100  0.74600600  1
  O  O35  1  0.84474600  0.61413800  0.84022500  1
  O  O36  1  0.07187600  0.71074000  0.00433700  1
  O  O37  1  0.03545300  0.89639200  0.16672100  1
  O  O38  1  0.60255000  0.72936500  0.82150700  1
  O  O39  1  0.35540800  0.17618900  0.35180700  1
  O  O40  1  0.50565200  0.37887800  0.41267500  1
  O  O41  1  0.49434800  0.62112200  0.58732500  1
  O  O42  1  0.15285000  0.89641100  0.63724900  1
  O  O43  1  0.96454700  0.10360800  0.83327900  1
  O  O44  1  0.35833600  0.02123000  0.52420300  1
  O  O45  1  0.37887800  0.50565200  0.91267500  1
  O  O46  1  0.97877000  0.64166400  0.97579700  1
  O  O47  1  0.71037100  0.01320600  0.24600600  1
  O  O48  1  0.81000700  0.55143900  0.62397300  1
  O  O49  1  0.44856100  0.18999300  0.87602700  1
  O  O50  1  0.64459200  0.82381100  0.64819300  1
  O  O51  1  0.98679400  0.28962900  0.25399400  1
  O  O52  1  0.70827000  0.42795500  0.77457400  1
  O  O53  1  0.19371700  0.45143600  0.37392300  1
  O  O54  1  0.60921100  0.95592600  0.08590400  1
  O  O55  1  0.84715000  0.10358900  0.36275100  1
  O  O56  1  0.33907500  0.68473700  0.06813300  1
  O  O57  1  0.89639200  0.03545300  0.66672100  1
  O  O58  1  0.68473700  0.33907500  0.56813300  1
  O  O59  1  0.20346000  0.07784100  0.07320500  1
loop_
_geom_bond_atom_site_label_1
_geom_bond_atom_site_label_2
_geom_bond_distance
_geom_bond_site_symmetry_2
Nb0 O15 1.975821 1_555
Nb0 O8 1.984451 1_556
Nb0 O1 1.986691 1_555
Nb0 O52 1.988533 1_555
Nb0 O14 2.049663 1_556
Nb0 O43 2.066389 1_555
Nb1 O20 1.955997 1_555
Nb1 O36 1.975821 1_555
Nb1 O45 1.984451 1_554
Nb1 O56 1.986691 1_555
Nb1 O7 2.049663 1_554
Nb1 O37 2.066389 1_555
Nb2 O3 1.955997 1_555
Nb2 O12 1.975821 1_555
Nb2 O40 1.984451 1_555
Nb2 O58 1.986691 1_555
Nb2 O55 2.049663 1_555
Nb2 O57 2.066389 1_555
Nb3 O32 1.814739 1_455
Nb3 O53 2.029649 1_555
Nb3 O6 2.046665 1_555
Nb3 O34 2.056876 1_555
Nb3 O28 2.059447 1_455
Nb3 O30 2.276019 1_555
Nb4 O9 1.814739 1_565
Nb4 O33 2.040573 1_556
Nb4 O38 2.046665 1_555
Nb4 O17 2.056876 1_555
Nb4 O59 2.059447 1_566
Nb4 O18 2.276019 1_556
Nb5 O54 1.814739 1_545
Nb5 O49 2.040573 1_554
Nb5 O29 2.046665 1_555
Nb5 O47 2.056876 1_555
Nb5 O0 2.059447 1_544
Nb5 O13 2.276019 1_554
Nb6 O31 1.955997 1_555
Nb6 O2 1.975821 1_555
Nb6 O41 1.984451 1_555
Nb6 O26 1.986691 1_555
Nb6 O42 2.049663 1_555
Nb6 O4 2.066389 1_555
Nb7 O5 1.977995 1_555
Nb7 O25 1.977995 1_545
Nb7 O44 1.981658 1_555
Nb7 O19 1.981658 1_545
Nb7 O39 1.993655 1_555
Nb7 O50 1.993655 1_545
Nb8 O24 1.977995 1_555
Nb8 O35 1.977995 1_454
Nb8 O10 1.981658 1_555
Nb8 O46 1.981658 1_454
Nb8 O23 1.993655 1_554
Nb8 O11 1.993655 1_455
Nb9 O22 1.814739 1_655
Nb9 O48 2.040573 1_555
Nb9 O16 2.046665 1_555
Nb9 O51 2.056876 1_555
Nb9 O21 2.059447 1_655
Nb9 O27 2.276019 1_555
O0 P7 1.531344 1_555
O1 P4 1.611818 1_555
O2 P11 1.522947 1_565
O3 P4 1.563279 1_555
O4 P5 1.566367 1_465
O5 P3 1.511482 1_555
O6 P3 1.587087 1_555
O7 P6 1.517892 1_555
O8 P2 1.569641 1_555
O10 P12 1.610559 1_555
O11 P1 1.547169 1_555
O12 P0 1.522947 1_545
O13 P4 1.432034 1_555
O14 P5 1.517892 1_555
O15 P12 1.522947 1_656
O16 P1 1.587087 1_555
O17 P11 1.506904 1_565
O18 P2 1.432034 1_555
O19 P0 1.610559 1_555
O20 P13 1.563279 1_555
O21 P11 1.531344 1_555
O23 P3 1.547169 1_555
O24 P8 1.511482 1_555
O25 P1 1.511482 1_555
O26 P13 1.611818 1_555
O27 P9 1.432034 1_555
O28 P0 1.531344 1_555
O29 P8 1.587087 1_555
O30 P13 1.432034 1_555
O31 P2 1.563279 1_555
O33 P1 1.520635 1_555
O34 P7 1.506904 1_455
O35 P10 1.511482 1_555
O36 P7 1.522947 1_454
O37 P5 1.566367 1_465
O38 P10 1.587087 1_555
O39 P8 1.547169 1_555
O40 P13 1.569641 1_555
O41 P9 1.569641 1_555
O42 P6 1.517892 1_555
O43 P6 1.566367 1_645
O44 P11 1.610559 1_555
O45 P4 1.569641 1_555
O46 P7 1.610559 1_555
O47 P0 1.506904 1_545
O48 P10 1.520635 1_555
O49 P3 1.520635 1_555
O50 P10 1.547169 1_555
O51 P12 1.506904 1_655
O52 P9 1.573148 1_555
O53 P8 1.557263 1_555
O55 P5 1.517892 1_555
O56 P2 1.611818 1_555
O57 P6 1.566367 1_645
O58 P9 1.611818 1_555
O59 P12 1.531344 1_555
