# generated using pymatgen
data_K4Sr(SiO3)3
_symmetry_space_group_name_H-M   'P 1'
_cell_length_a   16.37721873
_cell_length_b   16.37721873
_cell_length_c   16.37721873
_cell_angle_alpha   90.00000000
_cell_angle_beta   90.00000000
_cell_angle_gamma   90.00000000
_symmetry_Int_Tables_number   1
_chemical_formula_structural   K4Sr(SiO3)3
_chemical_formula_sum   'K64 Sr16 Si48 O144'
_cell_volume   4392.58777116
_cell_formula_units_Z   16
loop_
 _symmetry_equiv_pos_site_id
 _symmetry_equiv_pos_as_xyz
  1  'x, y, z'
loop_
 _atom_site_type_symbol
 _atom_site_label
 _atom_site_symmetry_multiplicity
 _atom_site_fract_x
 _atom_site_fract_y
 _atom_site_fract_z
 _atom_site_occupancy
  K  K0  1  0.50000000  0.50000000  -0.00000000  1
  K  K1  1  0.50000000  -0.00000000  0.50000000  1
  K  K2  1  -0.00000000  0.50000000  0.50000000  1
  K  K3  1  -0.00000000  -0.00000000  -0.00000000  1
  K  K4  1  -0.00000000  0.00000000  0.50000000  1
  K  K5  1  -0.00000000  0.50000000  -0.00000000  1
  K  K6  1  0.50000000  0.00000000  -0.00000000  1
  K  K7  1  0.50000000  0.50000000  0.50000000  1
  K  K8  1  0.25095672  0.74904328  0.24904328  1
  K  K9  1  0.74904328  0.24904328  0.25095672  1
  K  K10  1  0.24904328  0.25095672  0.74904328  1
  K  K11  1  0.75095672  0.75095672  0.75095672  1
  K  K12  1  0.74904328  0.25095672  0.75095672  1
  K  K13  1  0.25095672  0.75095672  0.74904328  1
  K  K14  1  0.75095672  0.74904328  0.25095672  1
  K  K15  1  0.24904328  0.24904328  0.24904328  1
  K  K16  1  0.11012479  0.88826399  0.14498445  1
  K  K17  1  0.88987521  0.38826399  0.35501555  1
  K  K18  1  0.38987521  0.11173601  0.64498445  1
  K  K19  1  0.61012479  0.61173601  0.85501555  1
  K  K20  1  0.14498445  0.11012479  0.88826399  1
  K  K21  1  0.35501555  0.88987521  0.38826399  1
  K  K22  1  0.64498445  0.38987521  0.11173601  1
  K  K23  1  0.85501555  0.61012479  0.61173601  1
  K  K24  1  0.88826399  0.14498445  0.11012479  1
  K  K25  1  0.38826399  0.35501555  0.88987521  1
  K  K26  1  0.11173601  0.64498445  0.38987521  1
  K  K27  1  0.61173601  0.85501555  0.61012479  1
  K  K28  1  0.88987521  0.11173601  0.85501555  1
  K  K29  1  0.11012479  0.61173601  0.64498445  1
  K  K30  1  0.61012479  0.88826399  0.35501555  1
  K  K31  1  0.38987521  0.38826399  0.14498445  1
  K  K32  1  0.85501555  0.88987521  0.11173601  1
  K  K33  1  0.64498445  0.11012479  0.61173601  1
  K  K34  1  0.35501555  0.61012479  0.88826399  1
  K  K35  1  0.14498445  0.38987521  0.38826399  1
  K  K36  1  0.11173601  0.85501555  0.88987521  1
  K  K37  1  0.61173601  0.64498445  0.11012479  1
  K  K38  1  0.88826399  0.35501555  0.61012479  1
  K  K39  1  0.38826399  0.14498445  0.38987521  1
  K  K40  1  0.35791978  0.58812813  0.34842142  1
  K  K41  1  0.64208022  0.08812813  0.15157858  1
  K  K42  1  0.14208022  0.41187187  0.84842142  1
  K  K43  1  0.85791978  0.91187187  0.65157858  1
  K  K44  1  0.34842142  0.35791978  0.58812813  1
  K  K45  1  0.15157858  0.64208022  0.08812813  1
  K  K46  1  0.84842142  0.14208022  0.41187187  1
  K  K47  1  0.65157858  0.85791978  0.91187187  1
  K  K48  1  0.58812813  0.34842142  0.35791978  1
  K  K49  1  0.08812813  0.15157858  0.64208022  1
  K  K50  1  0.41187187  0.84842142  0.14208022  1
  K  K51  1  0.91187187  0.65157858  0.85791978  1
  K  K52  1  0.64208022  0.41187187  0.65157858  1
  K  K53  1  0.35791978  0.91187187  0.84842142  1
  K  K54  1  0.85791978  0.58812813  0.15157858  1
  K  K55  1  0.14208022  0.08812813  0.34842142  1
  K  K56  1  0.65157858  0.64208022  0.41187187  1
  K  K57  1  0.84842142  0.35791978  0.91187187  1
  K  K58  1  0.15157858  0.85791978  0.58812813  1
  K  K59  1  0.34842142  0.14208022  0.08812813  1
  K  K60  1  0.41187187  0.65157858  0.64208022  1
  K  K61  1  0.91187187  0.84842142  0.35791978  1
  K  K62  1  0.58812813  0.15157858  0.85791978  1
  K  K63  1  0.08812813  0.34842142  0.14208022  1
  Sr  Sr0  1  0.37666115  0.62333885  0.12333885  1
  Sr  Sr1  1  0.62333885  0.12333885  0.37666115  1
  Sr  Sr2  1  0.12333885  0.37666115  0.62333885  1
  Sr  Sr3  1  0.87666115  0.87666115  0.87666115  1
  Sr  Sr4  1  0.62333885  0.37666115  0.87666115  1
  Sr  Sr5  1  0.37666115  0.87666115  0.62333885  1
  Sr  Sr6  1  0.87666115  0.62333885  0.37666115  1
  Sr  Sr7  1  0.12333885  0.12333885  0.12333885  1
  Sr  Sr8  1  0.12706545  0.87293455  0.37293455  1
  Sr  Sr9  1  0.87293455  0.37293455  0.12706545  1
  Sr  Sr10  1  0.37293455  0.12706545  0.87293455  1
  Sr  Sr11  1  0.62706545  0.62706545  0.62706545  1
  Sr  Sr12  1  0.87293455  0.12706545  0.62706545  1
  Sr  Sr13  1  0.12706545  0.62706545  0.87293455  1
  Sr  Sr14  1  0.62706545  0.87293455  0.12706545  1
  Sr  Sr15  1  0.37293455  0.37293455  0.37293455  1
  Si  Si0  1  0.27799021  0.99063898  0.21691308  1
  Si  Si1  1  0.72200979  0.49063898  0.28308692  1
  Si  Si2  1  0.22200979  0.00936102  0.71691308  1
  Si  Si3  1  0.77799021  0.50936102  0.78308692  1
  Si  Si4  1  0.21691308  0.27799021  0.99063898  1
  Si  Si5  1  0.28308692  0.72200979  0.49063898  1
  Si  Si6  1  0.71691308  0.22200979  0.00936102  1
  Si  Si7  1  0.78308692  0.77799021  0.50936102  1
  Si  Si8  1  0.99063898  0.21691308  0.27799021  1
  Si  Si9  1  0.49063898  0.28308692  0.72200979  1
  Si  Si10  1  0.00936102  0.71691308  0.22200979  1
  Si  Si11  1  0.50936102  0.78308692  0.77799021  1
  Si  Si12  1  0.72200979  0.00936102  0.78308692  1
  Si  Si13  1  0.27799021  0.50936102  0.71691308  1
  Si  Si14  1  0.77799021  0.99063898  0.28308692  1
  Si  Si15  1  0.22200979  0.49063898  0.21691308  1
  Si  Si16  1  0.78308692  0.72200979  0.00936102  1
  Si  Si17  1  0.71691308  0.27799021  0.50936102  1
  Si  Si18  1  0.28308692  0.77799021  0.99063898  1
  Si  Si19  1  0.21691308  0.22200979  0.49063898  1
  Si  Si20  1  0.00936102  0.78308692  0.72200979  1
  Si  Si21  1  0.50936102  0.71691308  0.27799021  1
  Si  Si22  1  0.99063898  0.28308692  0.77799021  1
  Si  Si23  1  0.49063898  0.21691308  0.22200979  1
  Si  Si24  1  0.25643520  0.97024102  0.02310314  1
  Si  Si25  1  0.74356480  0.47024102  0.47689686  1
  Si  Si26  1  0.24356480  0.02975898  0.52310314  1
  Si  Si27  1  0.75643520  0.52975898  0.97689686  1
  Si  Si28  1  0.02310314  0.25643520  0.97024102  1
  Si  Si29  1  0.47689686  0.74356480  0.47024102  1
  Si  Si30  1  0.52310314  0.24356480  0.02975898  1
  Si  Si31  1  0.97689686  0.75643520  0.52975898  1
  Si  Si32  1  0.97024102  0.02310314  0.25643520  1
  Si  Si33  1  0.47024102  0.47689686  0.74356480  1
  Si  Si34  1  0.02975898  0.52310314  0.24356480  1
  Si  Si35  1  0.52975898  0.97689686  0.75643520  1
  Si  Si36  1  0.74356480  0.02975898  0.97689686  1
  Si  Si37  1  0.25643520  0.52975898  0.52310314  1
  Si  Si38  1  0.75643520  0.97024102  0.47689686  1
  Si  Si39  1  0.24356480  0.47024102  0.02310314  1
  Si  Si40  1  0.97689686  0.74356480  0.02975898  1
  Si  Si41  1  0.52310314  0.25643520  0.52975898  1
  Si  Si42  1  0.47689686  0.75643520  0.97024102  1
  Si  Si43  1  0.02310314  0.24356480  0.47024102  1
  Si  Si44  1  0.02975898  0.97689686  0.74356480  1
  Si  Si45  1  0.52975898  0.52310314  0.25643520  1
  Si  Si46  1  0.97024102  0.47689686  0.75643520  1
  Si  Si47  1  0.47024102  0.02310314  0.24356480  1
  O  O0  1  0.07812250  0.76721864  0.27288786  1
  O  O1  1  0.92187750  0.26721864  0.22711214  1
  O  O2  1  0.42187750  0.23278136  0.77288786  1
  O  O3  1  0.57812250  0.73278136  0.72711214  1
  O  O4  1  0.27288786  0.07812250  0.76721864  1
  O  O5  1  0.22711214  0.92187750  0.26721864  1
  O  O6  1  0.77288786  0.42187750  0.23278136  1
  O  O7  1  0.72711214  0.57812250  0.73278136  1
  O  O8  1  0.76721864  0.27288786  0.07812250  1
  O  O9  1  0.26721864  0.22711214  0.92187750  1
  O  O10  1  0.23278136  0.77288786  0.42187750  1
  O  O11  1  0.73278136  0.72711214  0.57812250  1
  O  O12  1  0.92187750  0.23278136  0.72711214  1
  O  O13  1  0.07812250  0.73278136  0.77288786  1
  O  O14  1  0.57812250  0.76721864  0.22711214  1
  O  O15  1  0.42187750  0.26721864  0.27288786  1
  O  O16  1  0.72711214  0.92187750  0.23278136  1
  O  O17  1  0.77288786  0.07812250  0.73278136  1
  O  O18  1  0.22711214  0.57812250  0.76721864  1
  O  O19  1  0.27288786  0.42187750  0.26721864  1
  O  O20  1  0.23278136  0.72711214  0.92187750  1
  O  O21  1  0.73278136  0.77288786  0.07812250  1
  O  O22  1  0.76721864  0.22711214  0.57812250  1
  O  O23  1  0.26721864  0.27288786  0.42187750  1
  O  O24  1  0.02802473  0.82633760  0.48163796  1
  O  O25  1  0.97197527  0.32633760  0.01836204  1
  O  O26  1  0.47197527  0.17366240  0.98163796  1
  O  O27  1  0.52802473  0.67366240  0.51836204  1
  O  O28  1  0.48163796  0.02802473  0.82633760  1
  O  O29  1  0.01836204  0.97197527  0.32633760  1
  O  O30  1  0.98163796  0.47197527  0.17366240  1
  O  O31  1  0.51836204  0.52802473  0.67366240  1
  O  O32  1  0.82633760  0.48163796  0.02802473  1
  O  O33  1  0.32633760  0.01836204  0.97197527  1
  O  O34  1  0.17366240  0.98163796  0.47197527  1
  O  O35  1  0.67366240  0.51836204  0.52802473  1
  O  O36  1  0.97197527  0.17366240  0.51836204  1
  O  O37  1  0.02802473  0.67366240  0.98163796  1
  O  O38  1  0.52802473  0.82633760  0.01836204  1
  O  O39  1  0.47197527  0.32633760  0.48163796  1
  O  O40  1  0.51836204  0.97197527  0.17366240  1
  O  O41  1  0.98163796  0.02802473  0.67366240  1
  O  O42  1  0.01836204  0.52802473  0.82633760  1
  O  O43  1  0.48163796  0.47197527  0.32633760  1
  O  O44  1  0.17366240  0.51836204  0.97197527  1
  O  O45  1  0.67366240  0.98163796  0.02802473  1
  O  O46  1  0.82633760  0.01836204  0.52802473  1
  O  O47  1  0.32633760  0.48163796  0.47197527  1
  O  O48  1  0.04106238  0.61969883  0.21083447  1
  O  O49  1  0.95893762  0.11969883  0.28916553  1
  O  O50  1  0.45893762  0.38030117  0.71083447  1
  O  O51  1  0.54106238  0.88030117  0.78916553  1
  O  O52  1  0.21083447  0.04106238  0.61969883  1
  O  O53  1  0.28916553  0.95893762  0.11969883  1
  O  O54  1  0.71083447  0.45893762  0.38030117  1
  O  O55  1  0.78916553  0.54106238  0.88030117  1
  O  O56  1  0.61969883  0.21083447  0.04106238  1
  O  O57  1  0.11969883  0.28916553  0.95893762  1
  O  O58  1  0.38030117  0.71083447  0.45893762  1
  O  O59  1  0.88030117  0.78916553  0.54106238  1
  O  O60  1  0.95893762  0.38030117  0.78916553  1
  O  O61  1  0.04106238  0.88030117  0.71083447  1
  O  O62  1  0.54106238  0.61969883  0.28916553  1
  O  O63  1  0.45893762  0.11969883  0.21083447  1
  O  O64  1  0.78916553  0.95893762  0.38030117  1
  O  O65  1  0.71083447  0.04106238  0.88030117  1
  O  O66  1  0.28916553  0.54106238  0.61969883  1
  O  O67  1  0.21083447  0.45893762  0.11969883  1
  O  O68  1  0.38030117  0.78916553  0.95893762  1
  O  O69  1  0.88030117  0.71083447  0.04106238  1
  O  O70  1  0.61969883  0.28916553  0.54106238  1
  O  O71  1  0.11969883  0.21083447  0.45893762  1
  O  O72  1  0.25914113  0.58232330  0.21710796  1
  O  O73  1  0.74085887  0.08232330  0.28289204  1
  O  O74  1  0.24085887  0.41767670  0.71710796  1
  O  O75  1  0.75914113  0.91767670  0.78289204  1
  O  O76  1  0.21710796  0.25914113  0.58232330  1
  O  O77  1  0.28289204  0.74085887  0.08232330  1
  O  O78  1  0.71710796  0.24085887  0.41767670  1
  O  O79  1  0.78289204  0.75914113  0.91767670  1
  O  O80  1  0.58232330  0.21710796  0.25914113  1
  O  O81  1  0.08232330  0.28289204  0.74085887  1
  O  O82  1  0.41767670  0.71710796  0.24085887  1
  O  O83  1  0.91767670  0.78289204  0.75914113  1
  O  O84  1  0.74085887  0.41767670  0.78289204  1
  O  O85  1  0.25914113  0.91767670  0.71710796  1
  O  O86  1  0.75914113  0.58232330  0.28289204  1
  O  O87  1  0.24085887  0.08232330  0.21710796  1
  O  O88  1  0.78289204  0.74085887  0.41767670  1
  O  O89  1  0.71710796  0.25914113  0.91767670  1
  O  O90  1  0.28289204  0.75914113  0.58232330  1
  O  O91  1  0.21710796  0.24085887  0.08232330  1
  O  O92  1  0.41767670  0.78289204  0.74085887  1
  O  O93  1  0.91767670  0.71710796  0.25914113  1
  O  O94  1  0.58232330  0.28289204  0.75914113  1
  O  O95  1  0.08232330  0.21710796  0.24085887  1
  O  O96  1  0.33428580  0.51030984  0.02313761  1
  O  O97  1  0.66571420  0.01030984  0.47686239  1
  O  O98  1  0.16571420  0.48969016  0.52313761  1
  O  O99  1  0.83428580  0.98969016  0.97686239  1
  O  O100  1  0.02313761  0.33428580  0.51030984  1
  O  O101  1  0.47686239  0.66571420  0.01030984  1
  O  O102  1  0.52313761  0.16571420  0.48969016  1
  O  O103  1  0.97686239  0.83428580  0.98969016  1
  O  O104  1  0.51030984  0.02313761  0.33428580  1
  O  O105  1  0.01030984  0.47686239  0.66571420  1
  O  O106  1  0.48969016  0.52313761  0.16571420  1
  O  O107  1  0.98969016  0.97686239  0.83428580  1
  O  O108  1  0.66571420  0.48969016  0.97686239  1
  O  O109  1  0.33428580  0.98969016  0.52313761  1
  O  O110  1  0.83428580  0.51030984  0.47686239  1
  O  O111  1  0.16571420  0.01030984  0.02313761  1
  O  O112  1  0.97686239  0.66571420  0.48969016  1
  O  O113  1  0.52313761  0.33428580  0.98969016  1
  O  O114  1  0.47686239  0.83428580  0.51030984  1
  O  O115  1  0.02313761  0.16571420  0.01030984  1
  O  O116  1  0.48969016  0.97686239  0.66571420  1
  O  O117  1  0.98969016  0.52313761  0.33428580  1
  O  O118  1  0.51030984  0.47686239  0.83428580  1
  O  O119  1  0.01030984  0.02313761  0.16571420  1
  O  O120  1  0.01212594  0.75384511  0.12595621  1
  O  O121  1  0.98787406  0.25384511  0.37404379  1
  O  O122  1  0.48787406  0.24615489  0.62595621  1
  O  O123  1  0.51212594  0.74615489  0.87404379  1
  O  O124  1  0.12595621  0.01212594  0.75384511  1
  O  O125  1  0.37404379  0.98787406  0.25384511  1
  O  O126  1  0.62595621  0.48787406  0.24615489  1
  O  O127  1  0.87404379  0.51212594  0.74615489  1
  O  O128  1  0.75384511  0.12595621  0.01212594  1
  O  O129  1  0.25384511  0.37404379  0.98787406  1
  O  O130  1  0.24615489  0.62595621  0.48787406  1
  O  O131  1  0.74615489  0.87404379  0.51212594  1
  O  O132  1  0.98787406  0.24615489  0.87404379  1
  O  O133  1  0.01212594  0.74615489  0.62595621  1
  O  O134  1  0.51212594  0.75384511  0.37404379  1
  O  O135  1  0.48787406  0.25384511  0.12595621  1
  O  O136  1  0.87404379  0.98787406  0.24615489  1
  O  O137  1  0.62595621  0.01212594  0.74615489  1
  O  O138  1  0.37404379  0.51212594  0.75384511  1
  O  O139  1  0.12595621  0.48787406  0.25384511  1
  O  O140  1  0.24615489  0.87404379  0.98787406  1
  O  O141  1  0.74615489  0.62595621  0.01212594  1
  O  O142  1  0.75384511  0.37404379  0.51212594  1
  O  O143  1  0.25384511  0.12595621  0.48787406  1
loop_
_geom_bond_atom_site_label_1
_geom_bond_atom_site_label_2
_geom_bond_distance
_geom_bond_site_symmetry_2
K0 O113 2.745461 1_554
K0 O96 2.745461 1_555
K0 O106 2.745461 1_555
K0 O108 2.745461 1_554
K0 O118 2.745461 1_554
K0 O101 2.745461 1_555
K1 O109 2.745461 1_545
K1 O104 2.745461 1_555
K1 O102 2.745461 1_555
K1 O116 2.745461 1_545
K1 O97 2.745461 1_555
K1 O114 2.745461 1_545
K2 O100 2.745461 1_555
K2 O117 2.745461 1_455
K2 O98 2.745461 1_555
K2 O105 2.745461 1_555
K2 O112 2.745461 1_455
K2 O110 2.745461 1_455
K3 O119 2.745461 1_555
K3 O111 2.745461 1_555
K3 O115 2.745461 1_555
K3 O103 2.745461 1_444
K3 O107 2.745461 1_444
K3 O99 2.745461 1_444
K4 O34 2.896555 1_545
K4 O29 2.896555 1_545
K4 O46 2.896555 1_455
K4 O24 2.896555 1_545
K4 O36 2.896555 1_455
K4 O41 2.896555 1_455
K5 O37 2.896555 1_554
K5 O44 2.896555 1_554
K5 O30 2.896555 1_455
K5 O42 2.896555 1_554
K5 O32 2.896555 1_455
K5 O25 2.896555 1_455
K6 O26 2.896555 1_554
K6 O45 2.896555 1_545
K6 O28 2.896555 1_554
K6 O40 2.896555 1_545
K6 O33 2.896555 1_554
K6 O38 2.896555 1_545
K7 O35 2.896555 1_555
K7 O43 2.896555 1_555
K7 O27 2.896555 1_555
K7 O47 2.896555 1_555
K7 O31 2.896555 1_555
K7 O39 2.896555 1_555
K8 O82 2.783279 1_555
K8 O72 2.783279 1_555
K8 O77 2.783279 1_555
K8 O10 2.872817 1_555
K8 O5 2.872817 1_555
K8 O0 2.872817 1_555
K9 O73 2.783279 1_555
K9 O80 2.783279 1_555
K9 O78 2.783279 1_555
K9 O6 2.872817 1_555
K9 O8 2.872817 1_555
K9 O1 2.872817 1_555
K10 O76 2.783279 1_555
K10 O74 2.783279 1_555
K10 O81 2.783279 1_555
K10 O2 2.872817 1_555
K10 O9 2.872817 1_555
K10 O4 2.872817 1_555
K11 O75 2.783279 1_555
K11 O79 2.783279 1_555
K11 O83 2.783279 1_555
K11 O11 2.872817 1_555
K11 O3 2.872817 1_555
K11 O7 2.872817 1_555
K12 O94 2.783279 1_555
K12 O89 2.783279 1_555
K12 O84 2.783279 1_555
K12 O17 2.872817 1_555
K12 O12 2.872817 1_555
K12 O22 2.872817 1_555
K13 O92 2.783279 1_555
K13 O90 2.783279 1_555
K13 O85 2.783279 1_555
K13 O18 2.872817 1_555
K13 O13 2.872817 1_555
K13 O20 2.872817 1_555
K14 O86 2.783279 1_555
K14 O93 2.783279 1_555
K14 O88 2.783279 1_555
K14 O14 2.872817 1_555
K14 O16 2.872817 1_555
K14 O21 2.872817 1_555
K15 O95 2.783279 1_555
K15 O87 2.783279 1_555
K15 O91 2.783279 1_555
K15 O15 2.872817 1_555
K15 O19 2.872817 1_555
K15 O23 2.872817 1_555
K16 O120 2.742110 1_555
K16 O119 2.768847 1_565
K16 O5 2.825111 1_555
K16 O0 2.931266 1_555
K16 O111 2.967488 1_565
K17 O121 2.742110 1_555
K17 O117 2.768847 1_555
K17 O6 2.825111 1_555
K17 O1 2.931266 1_555
K17 O110 2.967488 1_555
K18 O122 2.742110 1_555
K18 O116 2.768847 1_545
K18 O4 2.825111 1_555
K18 O2 2.931266 1_555
K18 O109 2.967488 1_545
K19 O123 2.742110 1_555
K19 O118 2.768847 1_555
K19 O7 2.825111 1_555
K19 O3 2.931266 1_555
K19 O108 2.967488 1_555
K20 O124 2.742110 1_555
K20 O111 2.768847 1_556
K20 O9 2.825111 1_555
K20 O4 2.931266 1_555
K20 O115 2.967488 1_556
K21 O125 2.742110 1_555
K21 O109 2.768847 1_555
K21 O10 2.825111 1_555
K21 O5 2.931266 1_555
K21 O114 2.967488 1_555
K22 O126 2.742110 1_555
K22 O108 2.768847 1_554
K22 O8 2.825111 1_555
K22 O6 2.931266 1_555
K22 O113 2.967488 1_554
K23 O127 2.742110 1_555
K23 O110 2.768847 1_555
K23 O11 2.825111 1_555
K23 O7 2.931266 1_555
K23 O112 2.967488 1_555
K24 O128 2.742110 1_555
K24 O115 2.768847 1_655
K24 O1 2.825111 1_555
K24 O8 2.931266 1_555
K24 O119 2.967488 1_655
K25 O129 2.742110 1_555
K25 O113 2.768847 1_555
K25 O2 2.825111 1_555
K25 O9 2.931266 1_555
K25 O118 2.967488 1_555
K26 O130 2.742110 1_555
K26 O112 2.768847 1_455
K26 O0 2.825111 1_555
K26 O10 2.931266 1_555
K26 O117 2.967488 1_455
K27 O131 2.742110 1_555
K27 O114 2.768847 1_555
K27 O3 2.825111 1_555
K27 O11 2.931266 1_555
K27 O116 2.967488 1_555
K28 O132 2.742110 1_555
K28 O107 2.768847 1_545
K28 O17 2.825111 1_555
K28 O12 2.931266 1_555
K28 O99 2.967488 1_545
K29 O133 2.742110 1_555
K29 O105 2.768847 1_555
K29 O18 2.825111 1_555
K29 O13 2.931266 1_555
K29 O98 2.967488 1_555
K30 O134 2.742110 1_555
K30 O104 2.768847 1_565
K30 O16 2.825111 1_555
K30 O14 2.931266 1_555
K30 O97 2.967488 1_565
K31 O135 2.742110 1_555
K31 O106 2.768847 1_555
K31 O19 2.825111 1_555
K31 O15 2.931266 1_555
K31 O96 2.967488 1_555
K32 O136 2.742110 1_555
K32 O99 2.768847 1_554
K32 O21 2.825111 1_555
K32 O16 2.931266 1_555
K32 O103 2.967488 1_554
K33 O137 2.742110 1_555
K33 O97 2.768847 1_555
K33 O22 2.825111 1_555
K33 O17 2.931266 1_555
K33 O102 2.967488 1_555
K34 O138 2.742110 1_555
K34 O96 2.768847 1_556
K34 O20 2.825111 1_555
K34 O18 2.931266 1_555
K34 O101 2.967488 1_556
K35 O139 2.742110 1_555
K35 O98 2.768847 1_555
K35 O23 2.825111 1_555
K35 O19 2.931266 1_555
K35 O100 2.967488 1_555
K36 O140 2.742110 1_555
K36 O103 2.768847 1_455
K36 O13 2.825111 1_555
K36 O20 2.931266 1_555
K36 O107 2.967488 1_455
K37 O141 2.742110 1_555
K37 O101 2.768847 1_555
K37 O14 2.825111 1_555
K37 O21 2.931266 1_555
K37 O106 2.967488 1_555
K38 O142 2.742110 1_555
K38 O100 2.768847 1_655
K38 O12 2.825111 1_555
K38 O22 2.931266 1_555
K38 O105 2.967488 1_655
K39 O143 2.742110 1_555
K39 O102 2.768847 1_555
K39 O15 2.825111 1_555
K39 O23 2.931266 1_555
K39 O104 2.967488 1_555
K40 O72 2.692753 1_555
K40 O47 2.720943 1_555
K40 O58 2.729233 1_555
K40 O43 2.802628 1_555
K40 O82 2.919392 1_555
K40 O130 2.991674 1_555
K40 O62 3.194573 1_555
K40 O19 3.334829 1_555
K41 O73 2.692753 1_555
K41 O45 2.720943 1_545
K41 O56 2.729233 1_555
K41 O40 2.802628 1_545
K41 O80 2.919392 1_555
K41 O128 2.991674 1_555
K41 O63 3.194573 1_555
K41 O16 3.334829 1_545
K42 O74 2.692753 1_555
K42 O44 2.720943 1_555
K42 O57 2.729233 1_555
K42 O42 2.802628 1_555
K42 O81 2.919392 1_555
K42 O129 2.991674 1_555
K42 O60 3.194573 1_455
K42 O18 3.334829 1_555
K43 O75 2.692753 1_555
K43 O46 2.720943 1_565
K43 O59 2.729233 1_555
K43 O41 2.802628 1_565
K43 O83 2.919392 1_555
K43 O131 2.991674 1_555
K43 O61 3.194573 1_655
K43 O17 3.334829 1_565
K44 O76 2.692753 1_555
K44 O39 2.720943 1_555
K44 O50 2.729233 1_555
K44 O47 2.802628 1_555
K44 O74 2.919392 1_555
K44 O122 2.991674 1_555
K44 O66 3.194573 1_555
K44 O23 3.334829 1_555
K45 O77 2.692753 1_555
K45 O37 2.720943 1_554
K45 O48 2.729233 1_555
K45 O44 2.802628 1_554
K45 O72 2.919392 1_555
K45 O120 2.991674 1_555
K45 O67 3.194573 1_555
K45 O20 3.334829 1_554
K46 O78 2.692753 1_555
K46 O36 2.720943 1_555
K46 O49 2.729233 1_555
K46 O46 2.802628 1_555
K46 O73 2.919392 1_555
K46 O121 2.991674 1_555
K46 O64 3.194573 1_545
K46 O22 3.334829 1_555
K47 O79 2.692753 1_555
K47 O38 2.720943 1_556
K47 O51 2.729233 1_555
K47 O45 2.802628 1_556
K47 O75 2.919392 1_555
K47 O123 2.991674 1_555
K47 O65 3.194573 1_565
K47 O21 3.334829 1_556
K48 O80 2.692753 1_555
K48 O43 2.720943 1_555
K48 O54 2.729233 1_555
K48 O39 2.802628 1_555
K48 O78 2.919392 1_555
K48 O126 2.991674 1_555
K48 O70 3.194573 1_555
K48 O15 3.334829 1_555
K49 O81 2.692753 1_555
K49 O41 2.720943 1_455
K49 O52 2.729233 1_555
K49 O36 2.802628 1_455
K49 O76 2.919392 1_555
K49 O124 2.991674 1_555
K49 O71 3.194573 1_555
K49 O12 3.334829 1_455
K50 O82 2.692753 1_555
K50 O40 2.720943 1_555
K50 O53 2.729233 1_555
K50 O38 2.802628 1_555
K50 O77 2.919392 1_555
K50 O125 2.991674 1_555
K50 O68 3.194573 1_554
K50 O14 3.334829 1_555
K51 O83 2.692753 1_555
K51 O42 2.720943 1_655
K51 O55 2.729233 1_555
K51 O37 2.802628 1_655
K51 O79 2.919392 1_555
K51 O127 2.991674 1_555
K51 O69 3.194573 1_556
K51 O13 3.334829 1_655
K52 O84 2.692753 1_555
K52 O35 2.720943 1_555
K52 O70 2.729233 1_555
K52 O31 2.802628 1_555
K52 O94 2.919392 1_555
K52 O142 2.991674 1_555
K52 O50 3.194573 1_555
K52 O7 3.334829 1_555
K53 O85 2.692753 1_555
K53 O33 2.720943 1_565
K53 O68 2.729233 1_555
K53 O28 2.802628 1_565
K53 O92 2.919392 1_555
K53 O140 2.991674 1_555
K53 O51 3.194573 1_555
K53 O4 3.334829 1_565
K54 O86 2.692753 1_555
K54 O32 2.720943 1_555
K54 O69 2.729233 1_555
K54 O30 2.802628 1_555
K54 O93 2.919392 1_555
K54 O141 2.991674 1_555
K54 O48 3.194573 1_655
K54 O6 3.334829 1_555
K55 O87 2.692753 1_555
K55 O34 2.720943 1_545
K55 O71 2.729233 1_555
K55 O29 2.802628 1_545
K55 O95 2.919392 1_555
K55 O143 2.991674 1_555
K55 O49 3.194573 1_455
K55 O5 3.334829 1_545
K56 O88 2.692753 1_555
K56 O27 2.720943 1_555
K56 O62 2.729233 1_555
K56 O35 2.802628 1_555
K56 O86 2.919392 1_555
K56 O134 2.991674 1_555
K56 O54 3.194573 1_555
K56 O11 3.334829 1_555
K57 O89 2.692753 1_555
K57 O25 2.720943 1_556
K57 O60 2.729233 1_555
K57 O32 2.802628 1_556
K57 O84 2.919392 1_555
K57 O132 2.991674 1_555
K57 O55 3.194573 1_555
K57 O8 3.334829 1_556
K58 O90 2.692753 1_555
K58 O24 2.720943 1_555
K58 O61 2.729233 1_555
K58 O34 2.802628 1_555
K58 O85 2.919392 1_555
K58 O133 2.991674 1_555
K58 O52 3.194573 1_565
K58 O10 3.334829 1_555
K59 O91 2.692753 1_555
K59 O26 2.720943 1_554
K59 O63 2.729233 1_555
K59 O33 2.802628 1_554
K59 O87 2.919392 1_555
K59 O135 2.991674 1_555
K59 O53 3.194573 1_545
K59 O9 3.334829 1_554
K60 O92 2.692753 1_555
K60 O31 2.720943 1_555
K60 O66 2.729233 1_555
K60 O27 2.802628 1_555
K60 O90 2.919392 1_555
K60 O138 2.991674 1_555
K60 O58 3.194573 1_555
K60 O3 3.334829 1_555
K61 O93 2.692753 1_555
K61 O29 2.720943 1_655
K61 O64 2.729233 1_555
K61 O24 2.802628 1_655
K61 O88 2.919392 1_555
K61 O136 2.991674 1_555
K61 O59 3.194573 1_555
K61 O0 3.334829 1_655
K62 O94 2.692753 1_555
K62 O28 2.720943 1_555
K62 O65 2.729233 1_555
K62 O26 2.802628 1_555
K62 O89 2.919392 1_555
K62 O137 2.991674 1_555
K62 O56 3.194573 1_556
K62 O2 3.334829 1_555
K63 O95 2.692753 1_555
K63 O30 2.720943 1_455
K63 O67 2.729233 1_555
K63 O25 2.802628 1_455
K63 O91 2.919392 1_555
K63 O139 2.991674 1_555
K63 O57 3.194573 1_554
K63 O1 3.334829 1_455
O0 Si10 1.625175 1_555
O0 Sr8 2.514882 1_555
O1 Si8 1.625175 1_555
O1 Sr9 2.514882 1_555
O2 Si9 1.625175 1_555
O2 Sr10 2.514882 1_555
O3 Si11 1.625175 1_555
O3 Sr11 2.514882 1_555
O4 Si2 1.625175 1_555
O4 Sr10 2.514882 1_555
O5 Si0 1.625175 1_555
O5 Sr8 2.514882 1_555
O6 Si1 1.625175 1_555
O6 Sr9 2.514882 1_555
O7 Si3 1.625175 1_555
O7 Sr11 2.514882 1_555
O8 Si6 1.625175 1_555
O8 Sr9 2.514882 1_555
O9 Si4 1.625175 1_555
O9 Sr10 2.514882 1_555
O10 Si5 1.625175 1_555
O10 Sr8 2.514882 1_555
O11 Si7 1.625175 1_555
O11 Sr11 2.514882 1_555
O12 Si22 1.625175 1_555
O12 Sr12 2.514882 1_555
O13 Si20 1.625175 1_555
O13 Sr13 2.514882 1_555
O14 Si21 1.625175 1_555
O14 Sr14 2.514882 1_555
O15 Si23 1.625175 1_555
O15 Sr15 2.514882 1_555
O16 Si14 1.625175 1_555
O16 Sr14 2.514882 1_555
O17 Si12 1.625175 1_555
O17 Sr12 2.514882 1_555
O18 Si13 1.625175 1_555
O18 Sr13 2.514882 1_555
O19 Si15 1.625175 1_555
O19 Sr15 2.514882 1_555
O20 Si18 1.625175 1_555
O20 Sr13 2.514882 1_555
O21 Si16 1.625175 1_555
O21 Sr14 2.514882 1_555
O22 Si17 1.625175 1_555
O22 Sr12 2.514882 1_555
O23 Si19 1.625175 1_555
O23 Sr15 2.514882 1_555
O24 Si31 1.622588 1_455
O24 Sr8 2.526383 1_555
O25 Si28 1.622588 1_654
O25 Sr9 2.526383 1_555
O26 Si30 1.622588 1_556
O26 Sr10 2.526383 1_555
O27 Si29 1.622588 1_555
O27 Sr11 2.526383 1_555
O28 Si35 1.622588 1_545
O28 Sr10 2.526383 1_555
O29 Si32 1.622588 1_465
O29 Sr8 2.526383 1_555
O30 Si34 1.622588 1_655
O30 Sr9 2.526383 1_555
O31 Si33 1.622588 1_555
O31 Sr11 2.526383 1_555
O32 Si27 1.622588 1_554
O32 Sr9 2.526383 1_555
O33 Si24 1.622588 1_546
O33 Sr10 2.526383 1_555
O34 Si26 1.622588 1_565
O34 Sr8 2.526383 1_555
O35 Si25 1.622588 1_555
O35 Sr11 2.526383 1_555
O36 Si43 1.622588 1_655
O36 Sr12 2.526383 1_555
O37 Si40 1.622588 1_456
O37 Sr13 2.526383 1_555
O38 Si42 1.622588 1_554
O38 Sr14 2.526383 1_555
O39 Si41 1.622588 1_555
O39 Sr15 2.526383 1_555
O40 Si47 1.622588 1_565
O40 Sr14 2.526383 1_555
O41 Si44 1.622588 1_645
O41 Sr12 2.526383 1_555
O42 Si46 1.622588 1_455
O42 Sr13 2.526383 1_555
O43 Si45 1.622588 1_555
O43 Sr15 2.526383 1_555
O44 Si39 1.622588 1_556
O44 Sr13 2.526383 1_555
O45 Si36 1.622588 1_564
O45 Sr14 2.526383 1_555
O46 Si38 1.622588 1_545
O46 Sr12 2.526383 1_555
O47 Si37 1.622588 1_555
O47 Sr15 2.526383 1_555
O48 Si34 1.680543 1_555
O48 Si10 1.684584 1_555
O49 Si32 1.680543 1_555
O49 Si8 1.684584 1_555
O50 Si33 1.680543 1_555
O50 Si9 1.684584 1_555
O51 Si35 1.680543 1_555
O51 Si11 1.684584 1_555
O52 Si26 1.680543 1_555
O52 Si2 1.684584 1_555
O53 Si24 1.680543 1_555
O53 Si0 1.684584 1_555
O54 Si25 1.680543 1_555
O54 Si1 1.684584 1_555
O55 Si27 1.680543 1_555
O55 Si3 1.684584 1_555
O56 Si30 1.680543 1_555
O56 Si6 1.684584 1_555
O57 Si28 1.680543 1_555
O57 Si4 1.684584 1_555
O58 Si29 1.680543 1_555
O58 Si5 1.684584 1_555
O59 Si31 1.680543 1_555
O59 Si7 1.684584 1_555
O60 Si46 1.680543 1_555
O60 Si22 1.684584 1_555
O61 Si44 1.680543 1_555
O61 Si20 1.684584 1_555
O62 Si45 1.680543 1_555
O62 Si21 1.684584 1_555
O63 Si47 1.680543 1_555
O63 Si23 1.684584 1_555
O64 Si38 1.680543 1_555
O64 Si14 1.684584 1_555
O65 Si36 1.680543 1_555
O65 Si12 1.684584 1_555
O66 Si37 1.680543 1_555
O66 Si13 1.684584 1_555
O67 Si39 1.680543 1_555
O67 Si15 1.684584 1_555
O68 Si42 1.680543 1_555
O68 Si18 1.684584 1_555
O69 Si40 1.680543 1_555
O69 Si16 1.684584 1_555
O70 Si41 1.680543 1_555
O70 Si17 1.684584 1_555
O71 Si43 1.680543 1_555
O71 Si19 1.684584 1_555
O72 Si15 1.620003 1_555
O72 Sr0 2.552214 1_555
O73 Si14 1.620003 1_545
O73 Sr1 2.552214 1_555
O74 Si13 1.620003 1_555
O74 Sr2 2.552214 1_555
O75 Si12 1.620003 1_565
O75 Sr3 2.552214 1_555
O76 Si19 1.620003 1_555
O76 Sr2 2.552214 1_555
O77 Si18 1.620003 1_554
O77 Sr0 2.552214 1_555
O78 Si17 1.620003 1_555
O78 Sr1 2.552214 1_555
O79 Si16 1.620003 1_556
O79 Sr3 2.552214 1_555
O80 Si23 1.620003 1_555
O80 Sr1 2.552214 1_555
O81 Si22 1.620003 1_455
O81 Sr2 2.552214 1_555
O82 Si21 1.620003 1_555
O82 Sr0 2.552214 1_555
O83 Si20 1.620003 1_655
O83 Sr3 2.552214 1_555
O84 Si3 1.620003 1_555
O84 Sr4 2.552214 1_555
O85 Si2 1.620003 1_565
O85 Sr5 2.552214 1_555
O86 Si1 1.620003 1_555
O86 Sr6 2.552214 1_555
O87 Si0 1.620003 1_545
O87 Sr7 2.552214 1_555
O88 Si7 1.620003 1_555
O88 Sr6 2.552214 1_555
O89 Si6 1.620003 1_556
O89 Sr4 2.552214 1_555
O90 Si5 1.620003 1_555
O90 Sr5 2.552214 1_555
O91 Si4 1.620003 1_554
O91 Sr7 2.552214 1_555
O92 Si11 1.620003 1_555
O92 Sr5 2.552214 1_555
O93 Si10 1.620003 1_655
O93 Sr6 2.552214 1_555
O94 Si9 1.620003 1_555
O94 Sr4 2.552214 1_555
O95 Si8 1.620003 1_455
O95 Sr7 2.552214 1_555
O96 Si39 1.624221 1_555
O96 Sr0 2.569268 1_555
O97 Si38 1.624221 1_545
O97 Sr1 2.569268 1_555
O98 Si37 1.624221 1_555
O98 Sr2 2.569268 1_555
O99 Si36 1.624221 1_565
O99 Sr3 2.569268 1_555
O100 Si43 1.624221 1_555
O100 Sr2 2.569268 1_555
O101 Si42 1.624221 1_554
O101 Sr0 2.569268 1_555
O102 Si41 1.624221 1_555
O102 Sr1 2.569268 1_555
O103 Si40 1.624221 1_556
O103 Sr3 2.569268 1_555
O104 Si47 1.624221 1_555
O104 Sr1 2.569268 1_555
O105 Si46 1.624221 1_455
O105 Sr2 2.569268 1_555
O106 Si45 1.624221 1_555
O106 Sr0 2.569268 1_555
O107 Si44 1.624221 1_655
O107 Sr3 2.569268 1_555
O108 Si27 1.624221 1_555
O108 Sr4 2.569268 1_555
O109 Si26 1.624221 1_565
O109 Sr5 2.569268 1_555
O110 Si25 1.624221 1_555
O110 Sr6 2.569268 1_555
O111 Si24 1.624221 1_545
O111 Sr7 2.569268 1_555
O112 Si31 1.624221 1_555
O112 Sr6 2.569268 1_555
O113 Si30 1.624221 1_556
O113 Sr4 2.569268 1_555
O114 Si29 1.624221 1_555
O114 Sr5 2.569268 1_555
O115 Si28 1.624221 1_554
O115 Sr7 2.569268 1_555
O116 Si35 1.624221 1_555
O116 Sr5 2.569268 1_555
O117 Si34 1.624221 1_655
O117 Sr6 2.569268 1_555
O118 Si33 1.624221 1_555
O118 Sr4 2.569268 1_555
O119 Si32 1.624221 1_455
O119 Sr7 2.569268 1_555
O120 Si10 1.685972 1_555
O120 Si40 1.686192 1_455
O121 Si8 1.685972 1_555
O121 Si43 1.686192 1_655
O122 Si9 1.685972 1_555
O122 Si41 1.686192 1_555
O123 Si11 1.685972 1_555
O123 Si42 1.686192 1_555
O124 Si2 1.685972 1_555
O124 Si44 1.686192 1_545
O125 Si0 1.685972 1_555
O125 Si47 1.686192 1_565
O126 Si1 1.685972 1_555
O126 Si45 1.686192 1_555
O127 Si3 1.685972 1_555
O127 Si46 1.686192 1_555
O128 Si6 1.685972 1_555
O128 Si36 1.686192 1_554
O129 Si4 1.685972 1_555
O129 Si39 1.686192 1_556
O130 Si5 1.685972 1_555
O130 Si37 1.686192 1_555
O131 Si7 1.685972 1_555
O131 Si38 1.686192 1_555
O132 Si22 1.685972 1_555
O132 Si28 1.686192 1_655
O133 Si20 1.685972 1_555
O133 Si31 1.686192 1_455
O134 Si21 1.685972 1_555
O134 Si29 1.686192 1_555
O135 Si23 1.685972 1_555
O135 Si30 1.686192 1_555
O136 Si14 1.685972 1_555
O136 Si32 1.686192 1_565
O137 Si12 1.685972 1_555
O137 Si35 1.686192 1_545
O138 Si13 1.685972 1_555
O138 Si33 1.686192 1_555
O139 Si15 1.685972 1_555
O139 Si34 1.686192 1_555
O140 Si18 1.685972 1_555
O140 Si24 1.686192 1_556
O141 Si16 1.685972 1_555
O141 Si27 1.686192 1_554
O142 Si17 1.685972 1_555
O142 Si25 1.686192 1_555
O143 Si19 1.685972 1_555
O143 Si26 1.686192 1_555
