# generated using pymatgen
data_RbSbS2
_symmetry_space_group_name_H-M   'P 1'
_cell_length_a   6.57823344
_cell_length_b   6.56534199
_cell_length_c   12.19450455
_cell_angle_alpha   99.13982028
_cell_angle_beta   101.15427571
_cell_angle_gamma   104.16940148
_symmetry_Int_Tables_number   1
_chemical_formula_structural   RbSbS2
_chemical_formula_sum   'Rb4 Sb4 S8'
_cell_volume   489.07996331
_cell_formula_units_Z   4
loop_
 _symmetry_equiv_pos_site_id
 _symmetry_equiv_pos_as_xyz
  1  'x, y, z'
loop_
 _atom_site_type_symbol
 _atom_site_label
 _atom_site_symmetry_multiplicity
 _atom_site_fract_x
 _atom_site_fract_y
 _atom_site_fract_z
 _atom_site_occupancy
  Rb  Rb0  1  0.63740366  0.76460721  0.46860519  1
  Rb  Rb1  1  0.50509962  0.10437219  0.16157029  1
  Rb  Rb2  1  0.96589263  0.14798082  0.89560342  1
  Rb  Rb3  1  0.17500268  0.71997266  0.73430530  1
  Sb  Sb0  1  0.65562967  0.62333945  0.96809517  1
  Sb  Sb1  1  0.06175196  0.22472055  0.40324429  1
  Sb  Sb2  1  0.07978428  0.64545347  0.22642689  1
  Sb  Sb3  1  0.48533362  0.24489571  0.66180787  1
  S  S0  1  0.05225519  0.26475134  0.18348321  1
  S  S1  1  0.09055181  0.60552518  0.44663499  1
  S  S2  1  0.49808719  0.23992802  0.90696342  1
  S  S3  1  0.44280881  0.23139379  0.44025910  1
  S  S4  1  0.64295174  0.62822910  0.72329253  1
  S  S5  1  0.09865086  0.19917075  0.63328499  1
  S  S6  1  0.04232884  0.66905665  0.99659772  1
  S  S7  1  0.69847046  0.63760511  0.18982563  1
loop_
_geom_bond_atom_site_label_1
_geom_bond_atom_site_label_2
_geom_bond_distance
_geom_bond_site_symmetry_2
Rb0 S3 3.356138 1_555
Rb0 S4 3.362217 1_555
Rb0 S1 3.434063 1_655
Rb0 S1 3.435420 1_555
Rb0 S7 3.493649 1_555
Rb0 S5 3.600452 1_665
Rb0 S3 3.638121 1_565
Rb1 S7 3.355563 1_555
Rb1 S2 3.358051 1_554
Rb1 S0 3.436315 1_555
Rb1 S0 3.437764 1_655
Rb1 S3 3.495525 1_555
Rb1 S6 3.609291 1_544
Rb1 S7 3.633483 1_545
Rb2 S2 3.301732 1_555
Rb2 S6 3.324586 1_655
Rb2 S2 3.375061 1_655
Rb2 S0 3.375587 1_656
Rb2 S5 3.519506 1_655
Rb2 S4 3.608097 1_545
Rb2 S6 3.663454 1_645
Rb3 S4 3.301306 1_555
Rb3 S5 3.323060 1_555
Rb3 S1 3.373944 1_555
Rb3 S4 3.375037 1_455
Rb3 S6 3.518653 1_555
Rb3 S2 3.610625 1_565
Rb3 S5 3.665139 1_565
S0 Sb2 2.424896 1_555
S0 Sb1 2.724286 1_555
S1 Sb1 2.423942 1_555
S1 Sb2 2.728344 1_555
S2 Sb0 2.407061 1_555
S2 Sb3 2.980065 1_555
S3 Sb1 2.447712 1_555
S3 Sb3 2.646610 1_555
S4 Sb3 2.406925 1_555
S4 Sb0 2.975755 1_555
S5 Sb3 2.435595 1_555
S5 Sb1 2.803990 1_555
S6 Sb0 2.435729 1_455
S6 Sb2 2.798049 1_556
S7 Sb2 2.447457 1_655
S7 Sb0 2.647836 1_554
