# generated using pymatgen
data_TiBe12
_symmetry_space_group_name_H-M   'P 1'
_cell_length_a   4.16367717
_cell_length_b   5.58195730
_cell_length_c   5.58195730
_cell_angle_alpha   82.00432978
_cell_angle_beta   68.10178958
_cell_angle_gamma   68.10178958
_symmetry_Int_Tables_number   1
_chemical_formula_structural   TiBe12
_chemical_formula_sum   'Ti1 Be12'
_cell_volume   111.68726357
_cell_formula_units_Z   1
loop_
 _symmetry_equiv_pos_site_id
 _symmetry_equiv_pos_as_xyz
  1  'x, y, z'
loop_
 _atom_site_type_symbol
 _atom_site_label
 _atom_site_symmetry_multiplicity
 _atom_site_fract_x
 _atom_site_fract_y
 _atom_site_fract_z
 _atom_site_occupancy
  Ti  Ti0  1  0.00000000  0.00000000  -0.00000000  1
  Be  Be0  1  0.00000000  0.00000000  0.50000000  1
  Be  Be1  1  0.50000000  0.00000000  0.50000000  1
  Be  Be2  1  0.50000000  0.50000000  -0.00000000  1
  Be  Be3  1  0.00000000  0.50000000  -0.00000000  1
  Be  Be4  1  -0.00000000  0.35078321  0.64921679  1
  Be  Be5  1  0.00000000  0.64921679  0.35078321  1
  Be  Be6  1  0.64921679  0.35078321  0.35078321  1
  Be  Be7  1  0.35078321  0.64921679  0.64921679  1
  Be  Be8  1  0.50000000  0.78293362  0.21706638  1
  Be  Be9  1  0.50000000  0.21706638  0.78293362  1
  Be  Be10  1  0.71706638  0.78293362  0.78293362  1
  Be  Be11  1  0.28293362  0.21706638  0.21706638  1
loop_
_geom_bond_atom_site_label_1
_geom_bond_atom_site_label_2
_geom_bond_distance
_geom_bond_site_symmetry_2
Be0 Be1 2.081839 1_455
Be0 Be1 2.081839 1_555
Be0 Be8 2.120076 1_545
Be0 Be9 2.120076 1_455
Be0 Be10 2.120077 1_445
Be0 Be11 2.120077 1_555
Be0 Be7 2.231918 1_545
Be0 Be6 2.231918 1_455
Be0 Be5 2.231918 1_545
Be0 Be4 2.231918 1_555
Be0 Ti0 2.790979 1_556
Be0 Ti0 2.790979 1_555
Be1 Be10 2.120077 1_545
Be1 Be11 2.120077 1_555
Be1 Be8 2.120077 1_545
Be1 Be9 2.120077 1_555
Be1 Be5 2.231917 1_645
Be1 Be4 2.231917 1_555
Be1 Be7 2.231918 1_545
Be1 Be6 2.231918 1_555
Be1 Ti0 2.790978 1_556
Be1 Ti0 2.790978 1_655
Be2 Be3 2.081839 1_555
Be2 Be3 2.081839 1_655
Be2 Be8 2.120077 1_555
Be2 Be9 2.120077 1_554
Be2 Be4 2.231917 1_654
Be2 Be5 2.231917 1_555
Be2 Be7 2.231918 1_554
Be2 Be6 2.231918 1_555
Be2 Ti0 2.790978 1_655
Be2 Ti0 2.790978 1_565
Be3 Be8 2.120076 1_455
Be3 Be9 2.120076 1_554
Be3 Be7 2.231918 1_554
Be3 Be6 2.231918 1_455
Be3 Be4 2.231918 1_554
Be3 Be5 2.231918 1_555
Be3 Ti0 2.790979 1_555
Be3 Ti0 2.790979 1_565
Be4 Be5 2.185878 1_555
Be4 Be9 2.300716 1_455
Be4 Be9 2.300716 1_555
Be4 Ti0 2.569313 1_556
Be4 Be6 2.592891 1_555
Be4 Be7 2.592891 1_455
Be4 Be6 2.592891 1_455
Be4 Be7 2.592891 1_555
Be5 Be8 2.300716 1_455
Be5 Be8 2.300716 1_555
Be5 Ti0 2.569313 1_565
Be5 Be6 2.592891 1_555
Be5 Be7 2.592891 1_455
Be5 Be6 2.592891 1_455
Be5 Be7 2.592891 1_555
Be6 Be7 2.185878 1_555
Be6 Be8 2.342893 1_555
Be6 Be9 2.342893 1_555
Be6 Ti0 2.569313 1_655
Be7 Be8 2.342893 1_555
Be7 Be9 2.342893 1_555
Be7 Ti0 2.569313 1_566
Be8 Ti0 2.619513 1_565
Be8 Ti0 2.619513 1_665
Be9 Ti0 2.619513 1_656
Be9 Ti0 2.619513 1_556
Be10 Be3 2.120077 1_656
Be10 Be2 2.120077 1_556
Be10 Be9 2.248464 1_565
Be10 Be8 2.248464 1_556
Be10 Be7 2.300716 1_655
Be10 Be7 2.300717 1_555
Be10 Be4 2.342893 1_655
Be10 Be5 2.342893 1_655
Be10 Ti0 2.619512 1_566
Be10 Ti0 2.619513 1_666
Be11 Be3 2.120077 1_555
Be11 Be2 2.120077 1_555
Be11 Be8 2.248464 1_545
Be11 Be9 2.248464 1_554
Be11 Be6 2.300716 1_455
Be11 Be6 2.300717 1_555
Be11 Be4 2.342893 1_555
Be11 Be5 2.342893 1_555
Be11 Ti0 2.619512 1_655
Be11 Ti0 2.619513 1_555
