# generated using pymatgen
data_Li3Mn2P2(CO7)2
_symmetry_space_group_name_H-M   'P 1'
_cell_length_a   8.20413100
_cell_length_b   8.23713032
_cell_length_c   9.55762544
_cell_angle_alpha   107.48377310
_cell_angle_beta   106.43297330
_cell_angle_gamma   103.95127797
_symmetry_Int_Tables_number   1
_chemical_formula_structural   Li3Mn2P2(CO7)2
_chemical_formula_sum   'Li6 Mn4 P4 C4 O28'
_cell_volume   552.07528681
_cell_formula_units_Z   2
loop_
 _symmetry_equiv_pos_site_id
 _symmetry_equiv_pos_as_xyz
  1  'x, y, z'
loop_
 _atom_site_type_symbol
 _atom_site_label
 _atom_site_symmetry_multiplicity
 _atom_site_fract_x
 _atom_site_fract_y
 _atom_site_fract_z
 _atom_site_occupancy
  Li  Li0  1  0.22014900  0.27100200  0.26448800  1
  Li  Li1  1  0.49080700  0.98440000  0.24300300  1
  Li  Li2  1  0.72974200  0.72300000  0.22444800  1
  Li  Li3  1  0.46776900  0.03639100  0.72726200  1
  Li  Li4  1  0.77899900  0.77698400  0.76619100  1
  Li  Li5  1  0.02812900  0.51923700  0.77937200  1
  Mn  Mn0  1  0.69387500  0.43839500  0.33788800  1
  Mn  Mn1  1  0.18374700  0.93088600  0.33661000  1
  Mn  Mn2  1  0.81761900  0.06830400  0.66654200  1
  Mn  Mn3  1  0.30825800  0.55484700  0.65798000  1
  P  P0  1  0.94069700  0.20210900  0.41933800  1
  P  P1  1  0.46108900  0.69856900  0.42670300  1
  P  P2  1  0.05522200  0.79519600  0.57910000  1
  P  P3  1  0.54420600  0.30346500  0.57312900  1
  C  C0  1  0.51392400  0.25371500  0.05716500  1
  C  C1  1  0.00429900  0.76438000  0.05265900  1
  C  C2  1  0.99711300  0.24377300  0.94825100  1
  C  C3  1  0.48134500  0.73404300  0.94257300  1
  O  O0  1  0.16509200  0.89631700  0.11761800  1
  O  O1  1  0.65303200  0.40698700  0.11351300  1
  O  O2  1  0.10012100  0.32303700  0.08951500  1
  O  O3  1  0.47541300  0.22390500  0.17628800  1
  O  O4  1  0.57140700  0.82315900  0.08887200  1
  O  O5  1  0.94609600  0.73437500  0.15973600  1
  O  O6  1  0.04193500  0.11670600  0.32491300  1
  O  O7  1  0.55663200  0.60103000  0.32680900  1
  O  O8  1  0.37035700  0.79361000  0.33094900  1
  O  O9  1  0.82333100  0.27583100  0.31428600  1
  O  O10  1  0.40208800  0.16330900  0.40725000  1
  O  O11  1  0.32397900  0.55254700  0.45400100  1
  O  O12  1  0.81170500  0.05918300  0.45398300  1
  O  O13  1  0.91101800  0.65337400  0.41391100  1
  O  O14  1  0.07539000  0.35635600  0.58252200  1
  O  O15  1  0.19651400  0.92705400  0.54481900  1
  O  O16  1  0.68891900  0.44041800  0.54424400  1
  O  O17  1  0.60003500  0.83776700  0.59461500  1
  O  O18  1  0.15871700  0.70598100  0.67819500  1
  O  O19  1  0.45566000  0.40869900  0.67358500  1
  O  O20  1  0.63114500  0.20776700  0.67077500  1
  O  O21  1  0.96718500  0.89256700  0.68082800  1
  O  O22  1  0.01508300  0.29887200  0.83474800  1
  O  O23  1  0.43162800  0.14802500  0.91656500  1
  O  O24  1  0.52854400  0.76874800  0.83059100  1
  O  O25  1  0.92077500  0.67865300  0.90505200  1
  O  O26  1  0.85496300  0.08948100  0.88712700  1
  O  O27  1  0.33006000  0.59372600  0.88198300  1
loop_
_geom_bond_atom_site_label_1
_geom_bond_atom_site_label_2
_geom_bond_distance
_geom_bond_site_symmetry_2
Li0 O2 1.911169 1_555
Li0 O6 2.027144 1_555
Li0 O11 2.243918 1_555
Li0 O10 2.256132 1_555
Li0 O3 2.537905 1_555
Li1 O4 2.042147 1_555
Li1 O8 2.160488 1_555
Li1 O10 2.222498 1_565
Li1 O3 2.268271 1_565
Li1 O0 2.415382 1_555
Li1 O12 2.616234 1_565
Li2 O5 2.029208 1_555
Li2 O4 2.062501 1_555
Li2 O7 2.161535 1_555
Li2 O13 2.308980 1_555
Li2 O1 2.338855 1_555
Li3 O23 1.908484 1_555
Li3 O20 2.008924 1_555
Li3 O15 2.167611 1_545
Li3 O17 2.418612 1_545
Li4 O25 1.999289 1_555
Li4 O21 2.103889 1_555
Li4 O17 2.140353 1_555
Li4 O24 2.297599 1_555
Li4 O26 2.319791 1_565
Li5 O22 2.025356 1_555
Li5 O25 2.037495 1_455
Li5 O14 2.153368 1_555
Li5 O27 2.237251 1_555
Li5 O18 2.265920 1_555
Mn0 O9 1.900471 1_555
Mn0 O13 1.952105 1_555
Mn0 O7 1.954165 1_555
Mn0 O16 1.979329 1_555
Mn0 O3 1.996634 1_555
Mn0 O1 1.999082 1_555
Mn1 O15 1.973172 1_555
Mn1 O0 1.981153 1_555
Mn1 O10 2.053119 1_565
Mn1 O5 2.061187 1_455
Mn1 O8 2.114305 1_555
Mn1 O6 2.144021 1_565
Mn2 O26 1.989193 1_555
Mn2 O12 1.996495 1_555
Mn2 O22 2.006055 1_655
Mn2 O17 2.037628 1_545
Mn2 O21 2.121377 1_545
Mn2 O20 2.125162 1_555
Mn3 O19 1.908328 1_555
Mn3 O18 1.954061 1_555
Mn3 O14 1.961886 1_555
Mn3 O11 1.984694 1_555
Mn3 O27 2.015415 1_555
Mn3 O24 2.030599 1_555
C0 O23 1.232823 1_554
C0 O1 1.317344 1_555
C0 O3 1.338086 1_555
C1 O25 1.256822 1_454
C1 O5 1.306910 1_455
C1 O0 1.321608 1_555
C2 O2 1.233721 1_656
C2 O22 1.326129 1_655
C2 O26 1.330526 1_555
C3 O4 1.255838 1_556
C3 O27 1.308114 1_555
C3 O24 1.319895 1_555
O6 P0 1.524320 1_455
O7 P1 1.561300 1_555
O8 P1 1.526628 1_555
O9 P0 1.550915 1_555
O10 P3 1.552765 1_555
O11 P1 1.575544 1_555
O12 P0 1.564399 1_555
O13 P2 1.557418 1_655
O14 P0 1.557275 1_455
O15 P2 1.565998 1_555
O16 P3 1.576432 1_555
O17 P1 1.555207 1_555
O18 P2 1.556312 1_555
O19 P3 1.548908 1_555
O20 P3 1.528932 1_555
O21 P2 1.522620 1_655
