# generated using pymatgen
data_BaTb2ZnO5
_symmetry_space_group_name_H-M   'P 1'
_cell_length_a   5.78106200
_cell_length_b   7.17893100
_cell_length_c   12.49437800
_cell_angle_alpha   90.00000000
_cell_angle_beta   90.00000000
_cell_angle_gamma   90.00000000
_symmetry_Int_Tables_number   1
_chemical_formula_structural   BaTb2ZnO5
_chemical_formula_sum   'Ba4 Tb8 Zn4 O20'
_cell_volume   518.53974169
_cell_formula_units_Z   4
loop_
 _symmetry_equiv_pos_site_id
 _symmetry_equiv_pos_as_xyz
  1  'x, y, z'
loop_
 _atom_site_type_symbol
 _atom_site_label
 _atom_site_symmetry_multiplicity
 _atom_site_fract_x
 _atom_site_fract_y
 _atom_site_fract_z
 _atom_site_occupancy
  Ba  Ba0  1  0.75000000  0.42285300  0.60122000  1
  Ba  Ba1  1  0.75000000  0.07714700  0.10122000  1
  Ba  Ba2  1  0.25000000  0.57714700  0.39878000  1
  Ba  Ba3  1  0.25000000  0.92285300  0.89878000  1
  Tb  Tb0  1  0.25000000  0.11829400  0.29201600  1
  Tb  Tb1  1  0.75000000  0.88170600  0.70798400  1
  Tb  Tb2  1  0.75000000  0.61829400  0.20798400  1
  Tb  Tb3  1  0.25000000  0.38170600  0.79201600  1
  Tb  Tb4  1  0.25000000  0.39952100  0.07449300  1
  Tb  Tb5  1  0.75000000  0.60047900  0.92550700  1
  Tb  Tb6  1  0.75000000  0.89952100  0.42550700  1
  Tb  Tb7  1  0.25000000  0.10047900  0.57449300  1
  Zn  Zn0  1  0.25000000  0.80853300  0.14986500  1
  Zn  Zn1  1  0.75000000  0.30853300  0.35013500  1
  Zn  Zn2  1  0.25000000  0.69146700  0.64986500  1
  Zn  Zn3  1  0.75000000  0.19146700  0.85013500  1
  O  O0  1  0.25000000  0.42617000  0.59996400  1
  O  O1  1  0.75000000  0.57383000  0.40003600  1
  O  O2  1  0.75000000  0.92617000  0.90003600  1
  O  O3  1  0.25000000  0.07383000  0.09996400  1
  O  O4  1  0.00102900  0.85717000  0.27535100  1
  O  O5  1  0.50102900  0.14283000  0.72464900  1
  O  O6  1  0.99897100  0.35717000  0.22464900  1
  O  O7  1  0.49897100  0.64283000  0.77535100  1
  O  O8  1  0.99897100  0.14283000  0.72464900  1
  O  O9  1  0.49897100  0.85717000  0.27535100  1
  O  O10  1  0.00102900  0.64283000  0.77535100  1
  O  O11  1  0.50102900  0.35717000  0.22464900  1
  O  O12  1  0.49767300  0.66370200  0.06606000  1
  O  O13  1  0.99767300  0.33629800  0.93394000  1
  O  O14  1  0.50232700  0.16370200  0.43394000  1
  O  O15  1  0.00232700  0.83629800  0.56606000  1
  O  O16  1  0.99767300  0.16370200  0.43394000  1
  O  O17  1  0.49767300  0.83629800  0.56606000  1
  O  O18  1  0.00232700  0.66370200  0.06606000  1
  O  O19  1  0.50232700  0.33629800  0.93394000  1
loop_
_geom_bond_atom_site_label_1
_geom_bond_atom_site_label_2
_geom_bond_distance
_geom_bond_site_symmetry_2
Ba0 O1 2.737384 1_555
Ba0 O0 2.890672 1_655
Ba0 O0 2.890672 1_555
Ba0 O8 2.913947 1_555
Ba0 O5 2.913947 1_555
Ba0 O10 3.055059 1_655
Ba0 O7 3.055059 1_555
Ba0 O16 3.143187 1_555
Ba0 O14 3.143187 1_555
Ba0 O15 3.336229 1_655
Ba0 O17 3.336229 1_555
Ba1 O2 2.737384 1_544
Ba1 O3 2.890672 1_655
Ba1 O3 2.890672 1_555
Ba1 O6 2.913947 1_555
Ba1 O11 2.913947 1_555
Ba1 O4 3.055059 1_645
Ba1 O9 3.055059 1_545
Ba1 O13 3.143187 1_554
Ba1 O19 3.143187 1_554
Ba1 O12 3.336229 1_545
Ba1 O18 3.336229 1_645
Ba2 O0 2.737384 1_555
Ba2 O1 2.890672 1_555
Ba2 O1 2.890672 1_455
Ba2 O9 2.913947 1_555
Ba2 O4 2.913947 1_555
Ba2 O11 3.055059 1_555
Ba2 O6 3.055059 1_455
Ba2 O15 3.143187 1_555
Ba2 O17 3.143187 1_555
Ba2 O14 3.336229 1_555
Ba2 O16 3.336229 1_455
Ba3 O3 2.737384 1_566
Ba3 O2 2.890672 1_555
Ba3 O2 2.890672 1_455
Ba3 O10 2.913947 1_555
Ba3 O7 2.913947 1_555
Ba3 O5 3.055059 1_565
Ba3 O8 3.055059 1_465
Ba3 O12 3.143187 1_556
Ba3 O18 3.143187 1_556
Ba3 O19 3.336229 1_565
Ba3 O13 3.336229 1_465
O0 Zn2 2.004005 1_555
O0 Tb7 2.359672 1_555
O0 Tb3 2.420708 1_555
O1 Zn1 2.004005 1_555
O1 Tb6 2.359672 1_555
O1 Tb2 2.420708 1_555
O2 Zn3 2.004005 1_565
O2 Tb5 2.359672 1_555
O2 Tb1 2.420708 1_555
O3 Zn0 2.004005 1_545
O3 Tb4 2.359672 1_555
O3 Tb0 2.420708 1_555
O4 Zn0 2.156794 1_555
O4 Tb0 2.372568 1_565
O4 Tb6 2.391283 1_455
O4 Tb2 2.399019 1_455
O5 Zn3 2.156794 1_555
O5 Tb1 2.372568 1_545
O5 Tb7 2.391283 1_555
O5 Tb3 2.399019 1_555
O6 Zn1 2.156794 1_555
O6 Tb2 2.372568 1_555
O6 Tb4 2.391283 1_655
O6 Tb0 2.399019 1_655
O7 Zn2 2.156794 1_555
O7 Tb3 2.372568 1_555
O7 Tb5 2.391283 1_555
O7 Tb1 2.399019 1_555
O8 Zn3 2.156794 1_555
O8 Tb1 2.372568 1_545
O8 Tb7 2.391283 1_655
O8 Tb3 2.399019 1_655
O9 Zn0 2.156794 1_555
O9 Tb0 2.372568 1_565
O9 Tb6 2.391283 1_555
O9 Tb2 2.399019 1_555
O10 Zn2 2.156794 1_555
O10 Tb3 2.372568 1_555
O10 Tb5 2.391283 1_455
O10 Tb1 2.399019 1_455
O11 Zn1 2.156794 1_555
O11 Tb2 2.372568 1_555
O11 Tb4 2.391283 1_555
O11 Tb0 2.399019 1_555
O12 Zn0 2.056096 1_555
O12 Tb2 2.319169 1_555
O12 Tb5 2.327622 1_554
O12 Tb4 2.378664 1_555
O13 Zn3 2.056096 1_555
O13 Tb3 2.319169 1_655
O13 Tb4 2.327622 1_656
O13 Tb5 2.378664 1_555
O14 Zn1 2.056096 1_555
O14 Tb0 2.319169 1_555
O14 Tb7 2.327622 1_555
O14 Tb6 2.378664 1_545
O15 Zn2 2.056096 1_555
O15 Tb1 2.319169 1_455
O15 Tb6 2.327622 1_455
O15 Tb7 2.378664 1_565
O16 Zn1 2.056096 1_555
O16 Tb0 2.319169 1_655
O16 Tb7 2.327622 1_655
O16 Tb6 2.378664 1_545
O17 Zn2 2.056096 1_555
O17 Tb1 2.319169 1_555
O17 Tb6 2.327622 1_555
O17 Tb7 2.378664 1_565
O18 Zn0 2.056096 1_555
O18 Tb2 2.319169 1_455
O18 Tb5 2.327622 1_454
O18 Tb4 2.378664 1_555
O19 Zn3 2.056096 1_555
O19 Tb3 2.319169 1_555
O19 Tb4 2.327622 1_556
O19 Tb5 2.378664 1_555
