# generated using pymatgen
data_MnCoB2O5
_symmetry_space_group_name_H-M   'P 1'
_cell_length_a   3.25657117
_cell_length_b   6.25981940
_cell_length_c   9.51566225
_cell_angle_alpha   104.38744427
_cell_angle_beta   90.33014076
_cell_angle_gamma   91.30751945
_symmetry_Int_Tables_number   1
_chemical_formula_structural   MnCoB2O5
_chemical_formula_sum   'Mn2 Co2 B4 O10'
_cell_volume   187.83623590
_cell_formula_units_Z   2
loop_
 _symmetry_equiv_pos_site_id
 _symmetry_equiv_pos_as_xyz
  1  'x, y, z'
loop_
 _atom_site_type_symbol
 _atom_site_label
 _atom_site_symmetry_multiplicity
 _atom_site_fract_x
 _atom_site_fract_y
 _atom_site_fract_z
 _atom_site_occupancy
  Mn  Mn0  1  0.25293600  0.78443100  0.63770200  1
  Mn  Mn1  1  0.74697500  0.21564900  0.36235700  1
  Co  Co0  1  0.76483500  0.62723300  0.90065500  1
  Co  Co1  1  0.23469700  0.37259900  0.09934800  1
  B  B0  1  0.31789300  0.31953800  0.65277400  1
  B  B1  1  0.68197400  0.68047100  0.34723800  1
  B  B2  1  0.67213500  0.12038100  0.83399500  1
  B  B3  1  0.32815300  0.87962400  0.16598500  1
  O  O0  1  0.78683800  0.90875700  0.82174000  1
  O  O1  1  0.21321200  0.09122400  0.17824100  1
  O  O2  1  0.45723300  0.14162900  0.70628700  1
  O  O3  1  0.54283000  0.85845100  0.29373700  1
  O  O4  1  0.73869700  0.30334200  0.94723200  1
  O  O5  1  0.26200300  0.69663500  0.05272000  1
  O  O6  1  0.27512800  0.52257000  0.74861500  1
  O  O7  1  0.72449500  0.47744300  0.25137100  1
  O  O8  1  0.24298500  0.28052100  0.50840700  1
  O  O9  1  0.75698100  0.71950100  0.49159600  1
loop_
_geom_bond_atom_site_label_1
_geom_bond_atom_site_label_2
_geom_bond_distance
_geom_bond_site_symmetry_2
Mn0 O9 2.090467 1_455
Mn0 O9 2.137389 1_555
Mn0 O6 2.161105 1_555
Mn0 O2 2.251698 1_565
Mn0 O0 2.320288 1_455
Mn0 O0 2.433399 1_555
Mn1 O8 2.090274 1_655
Mn1 O8 2.136910 1_555
Mn1 O7 2.161251 1_555
Mn1 O3 2.251578 1_545
Mn1 O1 2.321192 1_655
Mn1 O1 2.433630 1_555
Co0 O0 2.080191 1_555
Co0 O6 2.126105 1_555
Co0 O5 2.128945 1_656
Co0 O5 2.170564 1_556
Co0 O4 2.180266 1_555
Co0 O6 2.211404 1_655
Co1 O1 2.079170 1_555
Co1 O7 2.126365 1_555
Co1 O4 2.126374 1_454
Co1 O4 2.173721 1_554
Co1 O5 2.181442 1_555
Co1 O7 2.211255 1_455
B0 O8 1.353892 1_555
B0 O6 1.378385 1_555
B0 O2 1.416935 1_555
B1 O9 1.353857 1_555
B1 O7 1.378374 1_555
B1 O3 1.417050 1_555
B2 O0 1.361745 1_545
B2 O4 1.375665 1_555
B2 O2 1.434929 1_555
B3 O1 1.361830 1_565
B3 O5 1.375751 1_555
B3 O3 1.434789 1_555
