# generated using pymatgen
data_ZrAg
_symmetry_space_group_name_H-M   'P 1'
_cell_length_a   6.96506732
_cell_length_b   6.96506732
_cell_length_c   13.20281912
_cell_angle_alpha   90.00000000
_cell_angle_beta   90.00000000
_cell_angle_gamma   90.00000000
_symmetry_Int_Tables_number   1
_chemical_formula_structural   ZrAg
_chemical_formula_sum   'Zr16 Ag16'
_cell_volume   640.49731020
_cell_formula_units_Z   16
loop_
 _symmetry_equiv_pos_site_id
 _symmetry_equiv_pos_as_xyz
  1  'x, y, z'
loop_
 _atom_site_type_symbol
 _atom_site_label
 _atom_site_symmetry_multiplicity
 _atom_site_fract_x
 _atom_site_fract_y
 _atom_site_fract_z
 _atom_site_occupancy
  Zr  Zr0_0  1  0.12500000  0.12500000  0.07193754  1
  Zr  Zr0_1  1  0.12500000  0.12500000  0.57193754  1
  Zr  Zr0_2  1  0.12500000  0.62500000  0.07193754  1
  Zr  Zr0_3  1  0.12500000  0.62500000  0.57193754  1
  Zr  Zr0_4  1  0.62500000  0.12500000  0.07193754  1
  Zr  Zr0_5  1  0.62500000  0.12500000  0.57193754  1
  Zr  Zr0_6  1  0.62500000  0.62500000  0.07193754  1
  Zr  Zr0_7  1  0.62500000  0.62500000  0.57193754  1
  Zr  Zr1_0  1  0.37500000  0.37500000  0.42806246  1
  Zr  Zr1_1  1  0.37500000  0.37500000  0.92806246  1
  Zr  Zr1_2  1  0.37500000  0.87500000  0.42806246  1
  Zr  Zr1_3  1  0.37500000  0.87500000  0.92806246  1
  Zr  Zr1_4  1  0.87500000  0.37500000  0.42806246  1
  Zr  Zr1_5  1  0.87500000  0.37500000  0.92806246  1
  Zr  Zr1_6  1  0.87500000  0.87500000  0.42806246  1
  Zr  Zr1_7  1  0.87500000  0.87500000  0.92806246  1
  Ag  Ag0_0  1  0.12500000  0.12500000  0.30679325  1
  Ag  Ag0_1  1  0.12500000  0.12500000  0.80679325  1
  Ag  Ag0_2  1  0.12500000  0.62500000  0.30679325  1
  Ag  Ag0_3  1  0.12500000  0.62500000  0.80679325  1
  Ag  Ag0_4  1  0.62500000  0.12500000  0.30679325  1
  Ag  Ag0_5  1  0.62500000  0.12500000  0.80679325  1
  Ag  Ag0_6  1  0.62500000  0.62500000  0.30679325  1
  Ag  Ag0_7  1  0.62500000  0.62500000  0.80679325  1
  Ag  Ag1_0  1  0.37500000  0.37500000  0.19320676  1
  Ag  Ag1_1  1  0.37500000  0.37500000  0.69320676  1
  Ag  Ag1_2  1  0.37500000  0.87500000  0.19320676  1
  Ag  Ag1_3  1  0.37500000  0.87500000  0.69320676  1
  Ag  Ag1_4  1  0.87500000  0.37500000  0.19320676  1
  Ag  Ag1_5  1  0.87500000  0.37500000  0.69320676  1
  Ag  Ag1_6  1  0.87500000  0.87500000  0.19320676  1
  Ag  Ag1_7  1  0.87500000  0.87500000  0.69320676  1
loop_
_geom_bond_atom_site_label_1
_geom_bond_atom_site_label_2
_geom_bond_distance
_geom_bond_site_symmetry_2
Zr0_0 Zr1_7 3.110038 1_444
Zr0_0 Zr1_5 3.110038 1_454
Zr0_0 Zr1_3 3.110038 1_544
Zr0_0 Zr1_1 3.110038 1_554
Zr0_0 Zr0_4 3.482534 1_455
Zr0_0 Zr0_2 3.482534 1_545
Zr0_0 Zr0_4 3.482534 1_555
Zr0_0 Zr0_2 3.482534 1_555
Zr0_1 Zr1_6 3.110038 1_445
Zr0_1 Zr1_4 3.110038 1_455
Zr0_1 Zr1_2 3.110038 1_545
Zr0_1 Zr1_0 3.110038 1_555
Zr0_1 Zr0_3 3.482534 1_545
Zr0_1 Zr0_5 3.482534 1_455
Zr0_1 Zr0_5 3.482534 1_555
Zr0_1 Zr0_3 3.482534 1_555
Zr0_2 Zr1_5 3.110038 1_454
Zr0_2 Zr1_1 3.110038 1_554
Zr0_2 Zr1_7 3.110038 1_454
Zr0_2 Zr1_3 3.110038 1_554
Zr0_2 Zr0_6 3.482534 1_555
Zr0_2 Zr0_6 3.482534 1_455
Zr0_3 Zr1_4 3.110038 1_455
Zr0_3 Zr1_0 3.110038 1_555
Zr0_3 Zr1_6 3.110038 1_455
Zr0_3 Zr1_2 3.110038 1_555
Zr0_3 Zr0_7 3.482534 1_555
Zr0_3 Zr0_7 3.482534 1_455
Zr0_4 Zr1_3 3.110038 1_544
Zr0_4 Zr1_1 3.110038 1_554
Zr0_4 Zr1_7 3.110038 1_544
Zr0_4 Zr1_5 3.110038 1_554
Zr0_4 Zr0_6 3.482534 1_545
Zr0_4 Zr0_6 3.482534 1_555
Zr0_5 Zr1_2 3.110038 1_545
Zr0_5 Zr1_6 3.110038 1_545
Zr0_5 Zr1_0 3.110038 1_555
Zr0_5 Zr1_4 3.110038 1_555
Zr0_5 Zr0_7 3.482534 1_555
Zr0_5 Zr0_7 3.482534 1_545
Zr0_6 Zr1_1 3.110038 1_554
Zr0_6 Zr1_5 3.110038 1_554
Zr0_6 Zr1_3 3.110038 1_554
Zr0_6 Zr1_7 3.110038 1_554
Zr0_7 Zr1_0 3.110038 1_555
Zr0_7 Zr1_2 3.110038 1_555
Zr0_7 Zr1_4 3.110038 1_555
Zr0_7 Zr1_6 3.110038 1_555
Zr1_0 Zr1_2 3.482534 1_545
Zr1_0 Zr1_4 3.482534 1_455
Zr1_0 Zr1_2 3.482534 1_555
Zr1_0 Zr1_4 3.482534 1_555
Zr1_1 Zr1_5 3.482534 1_455
Zr1_1 Zr1_3 3.482534 1_545
Zr1_1 Zr1_5 3.482534 1_555
Zr1_1 Zr1_3 3.482534 1_555
Zr1_2 Zr1_6 3.482534 1_455
Zr1_2 Zr1_6 3.482534 1_555
Zr1_3 Zr1_7 3.482534 1_455
Zr1_3 Zr1_7 3.482534 1_555
Zr1_4 Zr1_6 3.482534 1_545
Zr1_4 Zr1_6 3.482534 1_555
Zr1_5 Zr1_7 3.482534 1_545
Zr1_5 Zr1_7 3.482534 1_555
Ag0_0 Ag1_6 2.883228 1_445
Ag0_0 Ag1_2 2.883228 1_545
Ag0_0 Ag1_4 2.883228 1_455
Ag0_0 Ag1_0 2.883228 1_555
Ag0_0 Zr1_6 2.937265 1_445
Ag0_0 Zr1_2 2.937265 1_545
Ag0_0 Zr1_4 2.937265 1_455
Ag0_0 Zr1_0 2.937265 1_555
Ag0_0 Zr0_0 3.100757 1_555
Ag0_0 Zr0_1 3.500652 1_555
Ag0_1 Ag1_7 2.883228 1_445
Ag0_1 Ag1_5 2.883228 1_455
Ag0_1 Ag1_3 2.883228 1_545
Ag0_1 Ag1_1 2.883228 1_555
Ag0_1 Zr1_7 2.937265 1_445
Ag0_1 Zr1_3 2.937265 1_545
Ag0_1 Zr1_5 2.937265 1_455
Ag0_1 Zr1_1 2.937265 1_555
Ag0_1 Zr0_1 3.100757 1_555
Ag0_1 Zr0_0 3.500652 1_556
Ag0_2 Ag1_4 2.883228 1_455
Ag0_2 Ag1_6 2.883228 1_455
Ag0_2 Ag1_0 2.883228 1_555
Ag0_2 Ag1_2 2.883228 1_555
Ag0_2 Zr1_4 2.937265 1_455
Ag0_2 Zr1_6 2.937265 1_455
Ag0_2 Zr1_0 2.937265 1_555
Ag0_2 Zr1_2 2.937265 1_555
Ag0_2 Zr0_2 3.100757 1_555
Ag0_2 Zr0_3 3.500652 1_555
Ag0_3 Ag1_5 2.883228 1_455
Ag0_3 Ag1_7 2.883228 1_455
Ag0_3 Ag1_1 2.883228 1_555
Ag0_3 Ag1_3 2.883228 1_555
Ag0_3 Zr1_5 2.937265 1_455
Ag0_3 Zr1_7 2.937265 1_455
Ag0_3 Zr1_1 2.937265 1_555
Ag0_3 Zr1_3 2.937265 1_555
Ag0_3 Zr0_3 3.100757 1_555
Ag0_3 Zr0_2 3.500652 1_556
Ag0_4 Ag1_2 2.883228 1_545
Ag0_4 Ag1_0 2.883228 1_555
Ag0_4 Ag1_6 2.883228 1_545
Ag0_4 Ag1_4 2.883228 1_555
Ag0_4 Zr1_2 2.937265 1_545
Ag0_4 Zr1_0 2.937265 1_555
Ag0_4 Zr1_6 2.937265 1_545
Ag0_4 Zr1_4 2.937265 1_555
Ag0_4 Zr0_4 3.100757 1_555
Ag0_4 Zr0_5 3.500652 1_555
Ag0_5 Ag1_3 2.883228 1_545
Ag0_5 Ag1_1 2.883228 1_555
Ag0_5 Ag1_7 2.883228 1_545
Ag0_5 Ag1_5 2.883228 1_555
Ag0_5 Zr1_3 2.937265 1_545
Ag0_5 Zr1_1 2.937265 1_555
Ag0_5 Zr1_7 2.937265 1_545
Ag0_5 Zr1_5 2.937265 1_555
Ag0_5 Zr0_5 3.100757 1_555
Ag0_5 Zr0_4 3.500652 1_556
Ag0_6 Ag1_0 2.883228 1_555
Ag0_6 Ag1_2 2.883228 1_555
Ag0_6 Ag1_4 2.883228 1_555
Ag0_6 Ag1_6 2.883228 1_555
Ag0_6 Zr1_0 2.937265 1_555
Ag0_6 Zr1_2 2.937265 1_555
Ag0_6 Zr1_4 2.937265 1_555
Ag0_6 Zr1_6 2.937265 1_555
Ag0_6 Zr0_6 3.100757 1_555
Ag0_6 Zr0_7 3.500652 1_555
Ag0_7 Ag1_1 2.883228 1_555
Ag0_7 Ag1_3 2.883228 1_555
Ag0_7 Ag1_5 2.883228 1_555
Ag0_7 Ag1_7 2.883228 1_555
Ag0_7 Zr1_1 2.937265 1_555
Ag0_7 Zr1_5 2.937265 1_555
Ag0_7 Zr1_3 2.937265 1_555
Ag0_7 Zr1_7 2.937265 1_555
Ag0_7 Zr0_7 3.100757 1_555
Ag0_7 Zr0_6 3.500652 1_556
Ag1_0 Zr0_6 2.937265 1_555
Ag1_0 Zr0_2 2.937265 1_555
Ag1_0 Zr0_0 2.937265 1_555
Ag1_0 Zr0_4 2.937265 1_555
Ag1_0 Zr1_0 3.100757 1_555
Ag1_0 Zr1_1 3.500652 1_554
Ag1_1 Zr0_7 2.937265 1_555
Ag1_1 Zr0_5 2.937265 1_555
Ag1_1 Zr0_3 2.937265 1_555
Ag1_1 Zr0_1 2.937265 1_555
Ag1_1 Zr1_1 3.100757 1_555
Ag1_1 Zr1_0 3.500652 1_555
Ag1_2 Zr0_4 2.937265 1_565
Ag1_2 Zr0_0 2.937265 1_565
Ag1_2 Zr0_6 2.937265 1_555
Ag1_2 Zr0_2 2.937265 1_555
Ag1_2 Zr1_2 3.100757 1_555
Ag1_2 Zr1_3 3.500652 1_554
Ag1_3 Zr0_5 2.937265 1_565
Ag1_3 Zr0_7 2.937265 1_555
Ag1_3 Zr0_1 2.937265 1_565
Ag1_3 Zr0_3 2.937265 1_555
Ag1_3 Zr1_3 3.100757 1_555
Ag1_3 Zr1_2 3.500652 1_555
Ag1_4 Zr0_2 2.937265 1_655
Ag1_4 Zr0_0 2.937265 1_655
Ag1_4 Zr0_6 2.937265 1_555
Ag1_4 Zr0_4 2.937265 1_555
Ag1_4 Zr1_4 3.100757 1_555
Ag1_4 Zr1_5 3.500652 1_554
Ag1_5 Zr0_3 2.937265 1_655
Ag1_5 Zr0_1 2.937265 1_655
Ag1_5 Zr0_7 2.937265 1_555
Ag1_5 Zr0_5 2.937265 1_555
Ag1_5 Zr1_5 3.100757 1_555
Ag1_5 Zr1_4 3.500652 1_555
Ag1_6 Zr0_0 2.937265 1_665
Ag1_6 Zr0_2 2.937265 1_655
Ag1_6 Zr0_4 2.937265 1_565
Ag1_6 Zr0_6 2.937265 1_555
Ag1_6 Zr1_6 3.100757 1_555
Ag1_6 Zr1_7 3.500652 1_554
Ag1_7 Zr0_1 2.937265 1_665
Ag1_7 Zr0_3 2.937265 1_655
Ag1_7 Zr0_5 2.937265 1_565
Ag1_7 Zr0_7 2.937265 1_555
Ag1_7 Zr1_7 3.100757 1_555
Ag1_7 Zr1_6 3.500652 1_555
