# generated using pymatgen
data_CsP8(WO5)8
_symmetry_space_group_name_H-M   'P 1'
_cell_length_a   5.41513776
_cell_length_b   12.52385900
_cell_length_c   13.36835411
_cell_angle_alpha   90.00000000
_cell_angle_beta   90.13443747
_cell_angle_gamma   90.00000000
_symmetry_Int_Tables_number   1
_chemical_formula_structural   CsP8(WO5)8
_chemical_formula_sum   'Cs1 P8 W8 O40'
_cell_volume   906.61818227
_cell_formula_units_Z   1
loop_
 _symmetry_equiv_pos_site_id
 _symmetry_equiv_pos_as_xyz
  1  'x, y, z'
loop_
 _atom_site_type_symbol
 _atom_site_label
 _atom_site_symmetry_multiplicity
 _atom_site_fract_x
 _atom_site_fract_y
 _atom_site_fract_z
 _atom_site_occupancy
  Cs  Cs0  1  0.25422800  0.25000000  0.79686400  1
  P  P0  1  0.26516100  0.36979800  0.51818500  1
  P  P1  1  0.76457300  0.12992000  0.98071500  1
  P  P2  1  0.73647900  0.86878800  0.48062700  1
  P  P3  1  0.23506200  0.63122900  0.01999000  1
  P  P4  1  0.73647900  0.63121200  0.48062700  1
  P  P5  1  0.23506200  0.86877100  0.01999000  1
  P  P6  1  0.26516100  0.13020200  0.51818500  1
  P  P7  1  0.76457300  0.37008000  0.98071500  1
  W  W0  1  0.24806000  0.90265500  0.65178100  1
  W  W1  1  0.74788200  0.59939700  0.84971100  1
  W  W2  1  0.75469700  0.40239100  0.34786800  1
  W  W3  1  0.25402600  0.09797000  0.14993600  1
  W  W4  1  0.75469700  0.09760900  0.34786800  1
  W  W5  1  0.25402600  0.40203000  0.14993600  1
  W  W6  1  0.24806000  0.59734500  0.65178100  1
  W  W7  1  0.74788200  0.90060300  0.84971100  1
  O  O0  1  0.01474600  0.57245200  0.75952700  1
  O  O1  1  0.51561100  0.92782300  0.73348100  1
  O  O2  1  0.98296900  0.07697800  0.24352300  1
  O  O3  1  0.48592500  0.42139400  0.26680700  1
  O  O4  1  0.98296900  0.42302200  0.24352300  1
  O  O5  1  0.48592500  0.07860600  0.26680700  1
  O  O6  1  0.01474600  0.92754800  0.75952700  1
  O  O7  1  0.51561100  0.57217700  0.73348100  1
  O  O8  1  0.24967900  0.25000000  0.56205500  1
  O  O9  1  0.74517900  0.25000000  0.93407200  1
  O  O10  1  0.75606100  0.75000000  0.43430400  1
  O  O11  1  0.25479900  0.75000000  0.06627500  1
  O  O12  1  0.95217500  0.61415800  0.55213100  1
  O  O13  1  0.44524100  0.88540100  0.94726400  1
  O  O14  1  0.04989600  0.11585600  0.44602600  1
  O  O15  1  0.55526700  0.38337500  0.05374200  1
  O  O16  1  0.04989600  0.38414400  0.44602600  1
  O  O17  1  0.55526700  0.11662500  0.05374200  1
  O  O18  1  0.95217500  0.88584200  0.55213100  1
  O  O19  1  0.44524100  0.61459900  0.94726400  1
  O  O20  1  0.23341300  0.43284600  0.61500300  1
  O  O21  1  0.73262800  0.06449400  0.88448900  1
  O  O22  1  0.76534100  0.94062000  0.38775600  1
  O  O23  1  0.26409200  0.55944500  0.11333400  1
  O  O24  1  0.76534100  0.55938000  0.38775600  1
  O  O25  1  0.26409200  0.94055500  0.11333400  1
  O  O26  1  0.23341300  0.06715400  0.61500300  1
  O  O27  1  0.73262800  0.43550600  0.88448900  1
  O  O28  1  0.48268300  0.61900000  0.52713100  1
  O  O29  1  0.97876300  0.88197600  0.97517800  1
  O  O30  1  0.51896700  0.11844100  0.47062700  1
  O  O31  1  0.02286100  0.37996800  0.02426600  1
  O  O32  1  0.51896700  0.38155900  0.47062700  1
  O  O33  1  0.02286100  0.12003200  0.02426600  1
  O  O34  1  0.48268300  0.88100000  0.52713100  1
  O  O35  1  0.97876300  0.61802400  0.97517800  1
  O  O36  1  0.22582500  0.75000000  0.67001900  1
  O  O37  1  0.73733300  0.75000000  0.83580900  1
  O  O38  1  0.76074700  0.25000000  0.33470000  1
  O  O39  1  0.25811300  0.25000000  0.16590800  1
loop_
_geom_bond_atom_site_label_1
_geom_bond_atom_site_label_2
_geom_bond_distance
_geom_bond_site_symmetry_2
Cs0 O8 3.139049 1_555
Cs0 O9 3.226384 1_555
Cs0 O9 3.314644 1_455
Cs0 O20 3.341539 1_555
Cs0 O26 3.341539 1_555
Cs0 O27 3.669694 1_555
Cs0 O21 3.669694 1_555
Cs0 O33 3.671314 1_556
Cs0 O31 3.671314 1_556
O0 W1 1.914127 1_455
O0 W6 1.943372 1_555
O1 W0 1.839541 1_555
O1 W7 2.025674 1_555
O2 W4 1.883789 1_555
O2 W3 1.948709 1_655
O3 W2 1.828070 1_555
O3 W5 2.016819 1_555
O4 W2 1.883789 1_555
O4 W5 1.948709 1_655
O5 W4 1.828070 1_555
O5 W3 2.016819 1_555
O6 W7 1.914127 1_455
O6 W0 1.943372 1_555
O7 W6 1.839541 1_555
O7 W1 2.025674 1_555
O8 P0 1.613135 1_555
O8 P6 1.613135 1_555
O9 P1 1.631298 1_555
O9 P7 1.631298 1_555
O10 P2 1.615005 1_555
O10 P4 1.615005 1_555
O11 P5 1.614478 1_555
O11 P3 1.614478 1_555
O12 P4 1.522624 1_555
O12 W6 2.091935 1_655
O13 P5 1.513002 1_556
O13 W7 2.105426 1_555
O14 P6 1.521966 1_555
O14 W4 2.078369 1_455
O15 P7 1.506859 1_554
O15 W5 2.092636 1_555
O16 P0 1.521966 1_555
O16 W2 2.078369 1_455
O17 P1 1.506859 1_554
O17 W3 2.092636 1_555
O18 P2 1.522624 1_555
O18 W0 2.091935 1_655
O19 P3 1.513002 1_556
O19 W1 2.105426 1_555
O20 P0 1.526198 1_555
O20 W6 2.119459 1_555
O21 P1 1.534619 1_555
O21 W7 2.106208 1_545
O22 P2 1.541443 1_555
O22 W4 2.037916 1_565
O23 P3 1.545691 1_555
O23 W5 2.032021 1_555
O24 P4 1.541443 1_555
O24 W2 2.037916 1_555
O25 P5 1.545691 1_555
O25 W3 2.032021 1_565
O26 P6 1.526198 1_555
O26 W0 2.119459 1_545
O27 P7 1.534619 1_555
O27 W1 2.106208 1_555
O28 P4 1.517465 1_555
O28 W6 2.115295 1_555
O29 P5 1.519400 1_656
O29 W7 2.102618 1_555
O30 P6 1.522814 1_555
O30 W4 2.097746 1_555
O31 P7 1.518796 1_454
O31 W5 2.110890 1_555
O32 P0 1.522814 1_555
O32 W2 2.097746 1_555
O33 P1 1.518796 1_454
O33 W3 2.110890 1_555
O34 P2 1.517465 1_555
O34 W0 2.115295 1_555
O35 P3 1.519400 1_656
O35 W1 2.102618 1_555
O36 W0 1.931107 1_555
O36 W6 1.931107 1_555
O37 W7 1.896112 1_555
O37 W1 1.896112 1_555
O38 W4 1.916912 1_555
O38 W2 1.916912 1_555
O39 W3 1.916059 1_555
O39 W5 1.916059 1_555
