# generated using pymatgen
data_CaAgAsO5
_symmetry_space_group_name_H-M   'P 1'
_cell_length_a   6.01956600
_cell_length_b   7.60872200
_cell_length_c   9.86286600
_cell_angle_alpha   90.00000000
_cell_angle_beta   90.00000000
_cell_angle_gamma   90.00000000
_symmetry_Int_Tables_number   1
_chemical_formula_structural   CaAgAsO5
_chemical_formula_sum   'Ca4 Ag4 As4 O20'
_cell_volume   451.73114020
_cell_formula_units_Z   4
loop_
 _symmetry_equiv_pos_site_id
 _symmetry_equiv_pos_as_xyz
  1  'x, y, z'
loop_
 _atom_site_type_symbol
 _atom_site_label
 _atom_site_symmetry_multiplicity
 _atom_site_fract_x
 _atom_site_fract_y
 _atom_site_fract_z
 _atom_site_occupancy
  Ca  Ca0  1  0.49473900  0.67712300  0.33363800  1
  Ca  Ca1  1  0.00526100  0.32287700  0.83363800  1
  Ca  Ca2  1  0.50526100  0.17712300  0.16636200  1
  Ca  Ca3  1  0.99473900  0.82287700  0.66636200  1
  Ag  Ag0  1  0.74740900  0.75046200  0.00028200  1
  Ag  Ag1  1  0.75259100  0.24953800  0.50028200  1
  Ag  Ag2  1  0.25259100  0.25046200  0.49971800  1
  Ag  Ag3  1  0.24740900  0.74953800  0.99971800  1
  As  As0  1  0.97139700  0.39295500  0.16637200  1
  As  As1  1  0.52860300  0.60704500  0.66637200  1
  As  As2  1  0.02860300  0.89295500  0.33362800  1
  As  As3  1  0.47139700  0.10704500  0.83362800  1
  O  O0  1  0.99898200  0.55630500  0.03205400  1
  O  O1  1  0.50101800  0.44369500  0.53205400  1
  O  O2  1  0.00101800  0.05630500  0.46794600  1
  O  O3  1  0.49898200  0.94369500  0.96794600  1
  O  O4  1  0.88818100  0.22251900  0.06607900  1
  O  O5  1  0.61181900  0.77748100  0.56607900  1
  O  O6  1  0.11181900  0.72251900  0.43392100  1
  O  O7  1  0.38818100  0.27748100  0.93392100  1
  O  O8  1  0.22567600  0.37965100  0.24223000  1
  O  O9  1  0.27432400  0.62034900  0.74223000  1
  O  O10  1  0.77432400  0.87965100  0.25777000  1
  O  O11  1  0.72567600  0.12034900  0.75777000  1
  O  O12  1  0.75339600  0.43626800  0.27214600  1
  O  O13  1  0.74660400  0.56373200  0.77214600  1
  O  O14  1  0.24660400  0.93626800  0.22785400  1
  O  O15  1  0.25339600  0.06373200  0.72785400  1
  O  O16  1  0.49636800  0.62642400  0.09557200  1
  O  O17  1  0.00363200  0.37357600  0.59557200  1
  O  O18  1  0.50363200  0.12642400  0.40442800  1
  O  O19  1  0.99636800  0.87357600  0.90442800  1
loop_
_geom_bond_atom_site_label_1
_geom_bond_atom_site_label_2
_geom_bond_distance
_geom_bond_site_symmetry_2
Ca0 O16 2.379510 1_555
Ca0 O10 2.401449 1_555
Ca0 O12 2.480021 1_555
Ca0 O5 2.517041 1_555
Ca0 O6 2.531928 1_555
Ca0 O1 2.643024 1_555
Ca0 O14 2.684665 1_555
Ca0 O8 2.925564 1_555
Ca1 O17 2.379510 1_555
Ca1 O11 2.401449 1_455
Ca1 O13 2.480021 1_455
Ca1 O4 2.517041 1_456
Ca1 O7 2.531928 1_555
Ca1 O0 2.643024 1_456
Ca1 O15 2.684665 1_555
Ca1 O9 2.925564 1_555
Ca2 O18 2.379510 1_555
Ca2 O8 2.401449 1_555
Ca2 O14 2.480021 1_545
Ca2 O7 2.517041 1_554
Ca2 O4 2.531928 1_555
Ca2 O3 2.643024 1_544
Ca2 O12 2.684665 1_555
Ca2 O10 2.925564 1_545
Ca3 O19 2.379510 1_555
Ca3 O9 2.401449 1_655
Ca3 O15 2.480021 1_665
Ca3 O6 2.517041 1_655
Ca3 O5 2.531928 1_555
Ca3 O2 2.643024 1_665
Ca3 O13 2.684665 1_555
Ca3 O11 2.925564 1_565
Ag0 O19 2.004278 1_554
Ag0 O16 2.014345 1_555
Ag0 O3 2.121239 1_554
Ag0 O0 2.138658 1_555
Ag0 O13 2.661102 1_554
Ag0 O10 2.727981 1_555
Ag1 O18 2.004278 1_555
Ag1 O17 2.014345 1_655
Ag1 O2 2.121239 1_655
Ag1 O1 2.138658 1_555
Ag1 O12 2.661102 1_555
Ag1 O11 2.727981 1_555
Ag2 O17 2.004278 1_555
Ag2 O18 2.014345 1_555
Ag2 O1 2.121239 1_555
Ag2 O2 2.138658 1_555
Ag2 O15 2.661102 1_555
Ag2 O8 2.727981 1_555
Ag3 O16 2.004278 1_556
Ag3 O19 2.014345 1_455
Ag3 O0 2.121239 1_456
Ag3 O3 2.138658 1_555
Ag3 O14 2.661102 1_556
Ag3 O9 2.727981 1_555
As0 O4 1.706190 1_555
As0 O8 1.706723 1_655
As0 O12 1.708509 1_555
As0 O0 1.824096 1_555
As1 O5 1.706190 1_555
As1 O9 1.706723 1_555
As1 O13 1.708509 1_555
As1 O1 1.824096 1_555
As2 O6 1.706190 1_555
As2 O10 1.706723 1_455
As2 O14 1.708509 1_555
As2 O2 1.824096 1_565
As3 O7 1.706190 1_555
As3 O11 1.706723 1_555
As3 O15 1.708509 1_555
As3 O3 1.824096 1_545
