# generated using pymatgen
data_CsSc(WO4)2
_symmetry_space_group_name_H-M   'P 1'
_cell_length_a   5.99945000
_cell_length_b   5.68578716
_cell_length_c   8.81350455
_cell_angle_alpha   93.56418589
_cell_angle_beta   90.00000000
_cell_angle_gamma   121.84229703
_symmetry_Int_Tables_number   1
_chemical_formula_structural   CsSc(WO4)2
_chemical_formula_sum   'Cs1 Sc1 W2 O8'
_cell_volume   254.71223171
_cell_formula_units_Z   1
loop_
 _symmetry_equiv_pos_site_id
 _symmetry_equiv_pos_as_xyz
  1  'x, y, z'
loop_
 _atom_site_type_symbol
 _atom_site_label
 _atom_site_symmetry_multiplicity
 _atom_site_fract_x
 _atom_site_fract_y
 _atom_site_fract_z
 _atom_site_occupancy
  Cs  Cs0  1  0.00000000  0.00000000  0.50000000  1
  Sc  Sc0  1  0.00000000  0.00000000  0.00000000  1
  W  W0  1  0.63265500  0.26530900  0.80850600  1
  W  W1  1  0.36734500  0.73469100  0.19149400  1
  O  O0  1  0.68115100  0.36230200  0.61820300  1
  O  O1  1  0.31884900  0.63769800  0.38179700  1
  O  O2  1  0.27715800  0.05904600  0.83464700  1
  O  O3  1  0.72284200  0.94095400  0.16535300  1
  O  O4  1  0.21811100  0.94095400  0.16535300  1
  O  O5  1  0.78188900  0.05904600  0.83464700  1
  O  O6  1  0.78470500  0.56941000  0.94271900  1
  O  O7  1  0.21529500  0.43059000  0.05728100  1
loop_
_geom_bond_atom_site_label_1
_geom_bond_atom_site_label_2
_geom_bond_distance
_geom_bond_site_symmetry_2
Cs0 O4 3.296130 1_545
Cs0 O5 3.296130 1_455
Cs0 O2 3.296132 1_555
Cs0 O3 3.296132 1_445
Cs0 O0 3.322986 1_445
Cs0 O1 3.322986 1_555
Cs0 O1 3.588757 1_545
Cs0 O0 3.588757 1_555
Cs0 O0 3.588757 1_455
Cs0 O1 3.588757 1_445
O0 W0 1.774149 1_555
O1 W1 1.774149 1_555
O2 W0 1.836189 1_555
O2 Sc0 2.115002 1_556
O3 W1 1.836189 1_555
O3 Sc0 2.115002 1_665
O4 W1 1.836189 1_555
O4 Sc0 2.114998 1_565
O5 W0 1.836189 1_555
O5 Sc0 2.114998 1_656
O6 W0 1.817253 1_555
O6 Sc0 2.103979 1_666
O7 W1 1.817253 1_555
O7 Sc0 2.103979 1_555
