# generated using pymatgen
data_KMg14Zn
_symmetry_space_group_name_H-M   'P 1'
_cell_length_a   6.46028158
_cell_length_b   6.46028104
_cell_length_c   10.41169039
_cell_angle_alpha   90.00000000
_cell_angle_beta   90.00000000
_cell_angle_gamma   120.00000277
_symmetry_Int_Tables_number   1
_chemical_formula_structural   KMg14Zn
_chemical_formula_sum   'K1 Mg14 Zn1'
_cell_volume   376.31776766
_cell_formula_units_Z   1
loop_
 _symmetry_equiv_pos_site_id
 _symmetry_equiv_pos_as_xyz
  1  'x, y, z'
loop_
 _atom_site_type_symbol
 _atom_site_label
 _atom_site_symmetry_multiplicity
 _atom_site_fract_x
 _atom_site_fract_y
 _atom_site_fract_z
 _atom_site_occupancy
  K  K0  1  0.16666700  0.33333300  0.62500000  1
  Mg  Mg0  1  0.15799349  0.82899624  0.12500000  1
  Mg  Mg1  1  0.17436918  0.83718408  0.62500000  1
  Mg  Mg2  1  0.67100376  0.34200651  0.12500000  1
  Mg  Mg3  1  0.66281592  0.32563082  0.62500000  1
  Mg  Mg4  1  0.67100376  0.82899624  0.12500000  1
  Mg  Mg5  1  0.66281592  0.83718408  0.62500000  1
  Mg  Mg6  1  0.33351606  0.16648394  0.35579611  1
  Mg  Mg7  1  0.33351606  0.16648394  0.89420389  1
  Mg  Mg8  1  0.33351606  0.66703312  0.35579611  1
  Mg  Mg9  1  0.33351606  0.66703312  0.89420389  1
  Mg  Mg10  1  0.83296688  0.16648394  0.35579611  1
  Mg  Mg11  1  0.83296688  0.16648394  0.89420389  1
  Mg  Mg12  1  0.83333300  0.66666700  0.38032735  1
  Mg  Mg13  1  0.83333300  0.66666700  0.86967265  1
  Zn  Zn0  1  0.16666700  0.33333300  0.12500000  1
loop_
_geom_bond_atom_site_label_1
_geom_bond_atom_site_label_2
_geom_bond_distance
_geom_bond_site_symmetry_2
K0 Mg1 3.230428 1_555
K0 Mg5 3.230428 1_555
K0 Mg5 3.230428 1_445
K0 Mg1 3.230428 1_545
K0 Mg3 3.230428 1_455
K0 Mg3 3.230428 1_555
K0 Mg6 3.367732 1_555
K0 Mg7 3.367732 1_555
K0 Mg8 3.367738 1_555
K0 Mg9 3.367738 1_555
K0 Mg10 3.367738 1_455
K0 Mg11 3.367738 1_455
Mg0 Mg8 3.056362 1_555
Mg0 Mg9 3.056362 1_554
Mg0 Mg6 3.056368 1_565
Mg0 Mg7 3.056368 1_564
Mg0 Mg2 3.146091 1_455
Mg0 Mg4 3.146091 1_455
Mg0 Mg13 3.219681 1_454
Mg0 Mg12 3.219681 1_455
Mg0 Zn0 3.230505 1_555
Mg0 Zn0 3.230505 1_565
Mg0 Mg2 3.314191 1_565
Mg0 Mg4 3.314191 1_555
Mg1 Mg3 3.155503 1_565
Mg1 Mg5 3.155503 1_555
Mg1 Mg12 3.182776 1_455
Mg1 Mg13 3.182776 1_455
Mg1 Mg3 3.304778 1_455
Mg1 Mg5 3.304778 1_455
Mg1 Mg8 3.354335 1_555
Mg1 Mg9 3.354335 1_555
Mg1 Mg7 3.354341 1_565
Mg1 Mg6 3.354341 1_565
Mg2 Mg7 3.056368 1_554
Mg2 Mg6 3.056368 1_555
Mg2 Mg4 3.146091 1_555
Mg2 Zn0 3.230505 1_655
Mg2 Zn0 3.230505 1_555
Mg2 Mg4 3.314191 1_545
Mg3 Mg5 3.155503 1_545
Mg3 Mg5 3.304778 1_555
Mg3 Mg6 3.354342 1_555
Mg3 Mg7 3.354342 1_555
Mg4 Mg9 3.056369 1_554
Mg4 Mg8 3.056369 1_555
Mg4 Zn0 3.230505 1_665
Mg4 Zn0 3.230505 1_555
Mg5 Mg9 3.354341 1_555
Mg5 Mg8 3.354341 1_555
Mg6 Zn0 3.043001 1_555
Mg6 Mg8 3.226593 1_545
Mg6 Mg8 3.233688 1_555
Mg7 Zn0 3.043001 1_556
Mg7 Mg9 3.226593 1_545
Mg7 Mg9 3.233688 1_555
Mg8 Zn0 3.043008 1_555
Mg9 Zn0 3.043008 1_556
Mg10 Zn0 3.043008 1_655
Mg10 Mg2 3.056362 1_555
Mg10 Mg4 3.056368 1_545
Mg10 Mg8 3.226593 1_545
Mg10 Mg6 3.226593 1_555
Mg10 Mg8 3.233688 1_655
Mg10 Mg6 3.233689 1_655
Mg10 Mg12 3.240223 1_555
Mg10 Mg12 3.240223 1_545
Mg10 Mg3 3.354335 1_555
Mg10 Mg5 3.354341 1_545
Mg11 Zn0 3.043008 1_656
Mg11 Mg2 3.056362 1_556
Mg11 Mg4 3.056368 1_546
Mg11 Mg9 3.226593 1_545
Mg11 Mg7 3.226593 1_555
Mg11 Mg9 3.233688 1_655
Mg11 Mg7 3.233689 1_655
Mg11 Mg13 3.240223 1_555
Mg11 Mg13 3.240223 1_545
Mg11 Mg3 3.354335 1_555
Mg11 Mg5 3.354341 1_545
Mg12 Mg5 3.182770 1_555
Mg12 Mg3 3.182776 1_555
Mg12 Mg4 3.219674 1_555
Mg12 Mg2 3.219680 1_555
Mg12 Mg6 3.240223 1_555
Mg12 Mg6 3.240223 1_665
Mg12 Mg8 3.240224 1_655
Mg12 Mg8 3.240224 1_555
Mg13 Mg5 3.182770 1_555
Mg13 Mg3 3.182776 1_555
Mg13 Mg4 3.219674 1_556
Mg13 Mg2 3.219680 1_556
Mg13 Mg7 3.240223 1_555
Mg13 Mg7 3.240223 1_665
Mg13 Mg9 3.240224 1_555
Mg13 Mg9 3.240224 1_655
