# generated using pymatgen
data_V2FeO4
_symmetry_space_group_name_H-M   'P 1'
_cell_length_a   6.06425359
_cell_length_b   6.09405725
_cell_length_c   6.02638845
_cell_angle_alpha   119.64716835
_cell_angle_beta   89.93565120
_cell_angle_gamma   120.57853312
_symmetry_Int_Tables_number   1
_chemical_formula_structural   V2FeO4
_chemical_formula_sum   'V4 Fe2 O8'
_cell_volume   157.02017993
_cell_formula_units_Z   2
loop_
 _symmetry_equiv_pos_site_id
 _symmetry_equiv_pos_as_xyz
  1  'x, y, z'
loop_
 _atom_site_type_symbol
 _atom_site_label
 _atom_site_symmetry_multiplicity
 _atom_site_fract_x
 _atom_site_fract_y
 _atom_site_fract_z
 _atom_site_occupancy
  V  V0  1  0.50000000  0.00000000  0.50000100  1
  V  V1  1  0.00000000  0.50000000  0.00000000  1
  V  V2  1  0.00000000  0.50000000  0.50000000  1
  V  V3  1  0.00000000  0.00000000  0.50000000  1
  Fe  Fe0  1  0.37041500  0.24966200  0.12463300  1
  Fe  Fe1  1  0.62958400  0.75033800  0.87536700  1
  O  O0  1  0.22956800  0.47712500  0.73879400  1
  O  O1  1  0.24017600  0.50461300  0.25164800  1
  O  O2  1  0.23802100  0.99089200  0.73429600  1
  O  O3  1  0.23645900  0.99002600  0.25473000  1
  O  O4  1  0.76198000  0.00910900  0.26570400  1
  O  O5  1  0.76354100  0.00997400  0.74526900  1
  O  O6  1  0.77043200  0.52287500  0.26120600  1
  O  O7  1  0.75982400  0.49538700  0.74835200  1
loop_
_geom_bond_atom_site_label_1
_geom_bond_atom_site_label_2
_geom_bond_distance
_geom_bond_site_symmetry_2
Fe0 O1 1.922037 1_555
Fe0 O3 1.922533 1_545
Fe0 O2 1.926399 1_544
Fe0 O6 1.968125 1_555
Fe1 O7 1.922042 1_555
Fe1 O5 1.922538 1_565
Fe1 O4 1.926399 1_566
Fe1 O0 1.968120 1_555
O0 V3 2.051777 1_555
O0 V1 2.100205 1_556
O0 V2 2.104487 1_555
O1 V1 2.084018 1_555
O1 V2 2.087397 1_555
O1 V0 2.128873 1_565
O2 V3 2.060047 1_565
O2 V2 2.111583 1_555
O2 V0 2.122135 1_565
O3 V3 2.059051 1_565
O3 V1 2.107926 1_555
O3 V0 2.135471 1_565
O4 V3 2.060047 1_655
O4 V2 2.111579 1_655
O4 V0 2.122147 1_555
O5 V3 2.059047 1_655
O5 V1 2.107927 1_656
O5 V0 2.135459 1_555
O6 V3 2.051777 1_665
O6 V1 2.100205 1_655
O6 V2 2.104487 1_655
O7 V1 2.084018 1_656
O7 V2 2.087397 1_655
O7 V0 2.128873 1_555
