# generated using pymatgen
data_Ce(YS2)3
_symmetry_space_group_name_H-M   'P 1'
_cell_length_a   3.99007148
_cell_length_b   11.08874054
_cell_length_c   11.36674404
_cell_angle_alpha   71.43633236
_cell_angle_beta   90.00000000
_cell_angle_gamma   90.00000000
_symmetry_Int_Tables_number   1
_chemical_formula_structural   Ce(YS2)3
_chemical_formula_sum   'Ce2 Y6 S12'
_cell_volume   476.75339071
_cell_formula_units_Z   2
loop_
 _symmetry_equiv_pos_site_id
 _symmetry_equiv_pos_as_xyz
  1  'x, y, z'
loop_
 _atom_site_type_symbol
 _atom_site_label
 _atom_site_symmetry_multiplicity
 _atom_site_fract_x
 _atom_site_fract_y
 _atom_site_fract_z
 _atom_site_occupancy
  Ce  Ce0  1  0.75000000  0.04935443  0.80647682  1
  Ce  Ce1  1  0.25000000  0.95064557  0.19352318  1
  Y  Y0  1  0.75000000  0.68013195  0.99905441  1
  Y  Y1  1  0.25000000  0.31986805  0.00094559  1
  Y  Y2  1  0.75000000  0.16075051  0.41343158  1
  Y  Y3  1  0.25000000  0.83924949  0.58656842  1
  Y  Y4  1  0.75000000  0.44129391  0.66699962  1
  Y  Y5  1  0.25000000  0.55870609  0.33300038  1
  S  S0  1  0.75000000  0.39444919  0.44149367  1
  S  S1  1  0.25000000  0.60555081  0.55850633  1
  S  S2  1  0.75000000  0.80609742  0.74952408  1
  S  S3  1  0.25000000  0.19390258  0.25047592  1
  S  S4  1  0.75000000  0.47861732  0.88778336  1
  S  S5  1  0.25000000  0.52138268  0.11221664  1
  S  S6  1  0.75000000  0.11834652  0.03582489  1
  S  S7  1  0.25000000  0.88165348  0.96417511  1
  S  S8  1  0.75000000  0.73477728  0.22826854  1
  S  S9  1  0.25000000  0.26522272  0.77173146  1
  S  S10  1  0.75000000  0.91736088  0.40653215  1
  S  S11  1  0.25000000  0.08263912  0.59346785  1
loop_
_geom_bond_atom_site_label_1
_geom_bond_atom_site_label_2
_geom_bond_distance
_geom_bond_site_symmetry_2
Ce0 S7 2.920439 1_545
Ce0 S7 2.920439 1_645
Ce0 S6 2.941307 1_556
Ce0 S2 2.967654 1_545
Ce0 S9 3.043690 1_555
Ce0 S9 3.043690 1_655
Ce0 S11 3.067523 1_555
Ce0 S11 3.067523 1_655
Ce1 S6 2.920439 1_465
Ce1 S6 2.920439 1_565
Ce1 S7 2.941307 1_554
Ce1 S3 2.967654 1_565
Ce1 S8 3.043690 1_555
Ce1 S8 3.043690 1_455
Ce1 S10 3.067523 1_455
Ce1 S10 3.067523 1_555
S0 Y2 2.709895 1_555
S0 Y5 2.718145 1_555
S0 Y5 2.718145 1_655
S0 Y4 2.772716 1_555
S1 Y3 2.709895 1_555
S1 Y4 2.718145 1_555
S1 Y4 2.718145 1_455
S1 Y5 2.772716 1_555
S2 Y3 2.666960 1_655
S2 Y3 2.666960 1_555
S2 Y0 2.733746 1_555
S3 Y2 2.666960 1_555
S3 Y2 2.666960 1_455
S3 Y1 2.733746 1_555
S4 Y4 2.670330 1_555
S4 Y1 2.700324 1_656
S4 Y1 2.700324 1_556
S4 Y0 2.896961 1_555
S5 Y5 2.670330 1_555
S5 Y0 2.700324 1_454
S5 Y0 2.700324 1_554
S5 Y1 2.896961 1_555
S6 Y1 2.926906 1_555
S6 Y1 2.926906 1_655
S7 Y0 2.926906 1_455
S7 Y0 2.926906 1_555
S8 Y5 2.780173 1_655
S8 Y5 2.780173 1_555
S8 Y0 2.856675 1_554
S9 Y4 2.780173 1_455
S9 Y4 2.780173 1_555
S9 Y1 2.856675 1_556
S10 Y2 2.724866 1_565
S10 Y3 2.790996 1_655
S10 Y3 2.790996 1_555
S11 Y3 2.724866 1_545
S11 Y2 2.790996 1_555
S11 Y2 2.790996 1_455
