# generated using pymatgen
data_Bi3IrO2
_symmetry_space_group_name_H-M   'P 1'
_cell_length_a   3.76532200
_cell_length_b   10.12330100
_cell_length_c   13.01459700
_cell_angle_alpha   90.00000000
_cell_angle_beta   90.00000000
_cell_angle_gamma   90.00000000
_symmetry_Int_Tables_number   1
_chemical_formula_structural   Bi3IrO2
_chemical_formula_sum   'Bi12 Ir4 O8'
_cell_volume   496.08374455
_cell_formula_units_Z   4
loop_
 _symmetry_equiv_pos_site_id
 _symmetry_equiv_pos_as_xyz
  1  'x, y, z'
loop_
 _atom_site_type_symbol
 _atom_site_label
 _atom_site_symmetry_multiplicity
 _atom_site_fract_x
 _atom_site_fract_y
 _atom_site_fract_z
 _atom_site_occupancy
  Bi  Bi0  1  0.75000000  0.19703100  0.39567200  1
  Bi  Bi1  1  0.75000000  0.69703100  0.10432800  1
  Bi  Bi2  1  0.25000000  0.80296900  0.60432800  1
  Bi  Bi3  1  0.25000000  0.30296900  0.89567200  1
  Bi  Bi4  1  0.75000000  0.10913200  0.69564500  1
  Bi  Bi5  1  0.75000000  0.60913200  0.80435500  1
  Bi  Bi6  1  0.25000000  0.89086800  0.30435500  1
  Bi  Bi7  1  0.25000000  0.39086800  0.19564500  1
  Bi  Bi8  1  0.75000000  0.12570400  0.09057800  1
  Bi  Bi9  1  0.75000000  0.62570400  0.40942200  1
  Bi  Bi10  1  0.25000000  0.87429600  0.90942200  1
  Bi  Bi11  1  0.25000000  0.37429600  0.59057800  1
  Ir  Ir0  1  0.75000000  0.40687100  0.03413700  1
  Ir  Ir1  1  0.75000000  0.90687100  0.46586300  1
  Ir  Ir2  1  0.25000000  0.59312900  0.96586300  1
  Ir  Ir3  1  0.25000000  0.09312900  0.53413700  1
  O  O0  1  0.75000000  0.89317300  0.02285400  1
  O  O1  1  0.75000000  0.39317300  0.47714600  1
  O  O2  1  0.25000000  0.10682700  0.97714600  1
  O  O3  1  0.25000000  0.60682700  0.52285400  1
  O  O4  1  0.75000000  0.33084200  0.70862400  1
  O  O5  1  0.75000000  0.83084200  0.79137600  1
  O  O6  1  0.25000000  0.66915800  0.29137600  1
  O  O7  1  0.25000000  0.16915800  0.20862400  1
loop_
_geom_bond_atom_site_label_1
_geom_bond_atom_site_label_2
_geom_bond_distance
_geom_bond_site_symmetry_2
Bi0 O1 2.250993 1_555
Bi0 Ir3 2.810374 1_555
Bi0 Ir3 2.810374 1_655
Bi0 Ir1 3.076147 1_545
Bi1 O0 2.250993 1_555
Bi1 Ir2 2.810374 1_554
Bi1 Ir2 2.810374 1_654
Bi1 Ir0 3.076147 1_555
Bi2 O3 2.250993 1_555
Bi2 Ir1 2.810374 1_555
Bi2 Ir1 2.810374 1_455
Bi2 Ir3 3.076147 1_565
Bi3 O2 2.250993 1_555
Bi3 Ir0 2.810374 1_556
Bi3 Ir0 2.810374 1_456
Bi3 Ir2 3.076147 1_555
Bi4 O4 2.250784 1_555
Bi4 Ir3 2.826464 1_555
Bi4 Ir3 2.826464 1_655
Bi5 O5 2.250784 1_555
Bi5 Ir2 2.826464 1_655
Bi5 Ir2 2.826464 1_555
Bi6 O6 2.250784 1_555
Bi6 Ir1 2.826464 1_555
Bi6 Ir1 2.826464 1_455
Bi7 O7 2.250784 1_555
Bi7 Ir0 2.826464 1_455
Bi7 Ir0 2.826464 1_555
Bi8 O2 2.400064 1_554
Bi8 O2 2.400064 1_654
Bi8 O7 2.469454 1_555
Bi8 O7 2.469454 1_655
Bi8 O0 2.513582 1_545
Bi8 Ir0 2.939594 1_555
Bi9 O3 2.400064 1_555
Bi9 O3 2.400064 1_655
Bi9 O6 2.469454 1_655
Bi9 O6 2.469454 1_555
Bi9 O1 2.513582 1_555
Bi9 Ir1 2.939594 1_555
Bi10 O0 2.400064 1_556
Bi10 O0 2.400064 1_456
Bi10 O5 2.469454 1_455
Bi10 O5 2.469454 1_555
Bi10 O2 2.513582 1_565
Bi10 Ir2 2.939594 1_555
Bi11 O1 2.400064 1_455
Bi11 O1 2.400064 1_555
Bi11 O4 2.469454 1_555
Bi11 O4 2.469454 1_455
Bi11 O3 2.513582 1_555
Bi11 Ir3 2.939594 1_555
Ir0 Ir2 2.808778 1_654
Ir0 Ir2 2.808778 1_554
Ir1 Ir3 2.808778 1_565
Ir1 Ir3 2.808778 1_665
