# generated using pymatgen
data_K3Mo2O4F5
_symmetry_space_group_name_H-M   'P 1'
_cell_length_a   6.17135600
_cell_length_b   9.78658200
_cell_length_c   15.33528700
_cell_angle_alpha   90.00000000
_cell_angle_beta   90.00000000
_cell_angle_gamma   90.00000000
_symmetry_Int_Tables_number   1
_chemical_formula_structural   K3Mo2O4F5
_chemical_formula_sum   'K12 Mo8 O16 F20'
_cell_volume   926.19737829
_cell_formula_units_Z   4
loop_
 _symmetry_equiv_pos_site_id
 _symmetry_equiv_pos_as_xyz
  1  'x, y, z'
loop_
 _atom_site_type_symbol
 _atom_site_label
 _atom_site_symmetry_multiplicity
 _atom_site_fract_x
 _atom_site_fract_y
 _atom_site_fract_z
 _atom_site_occupancy
  K  K0  1  0.50000000  0.56677600  0.89198700  1
  K  K1  1  0.50000000  0.43322400  0.10801300  1
  K  K2  1  0.00000000  0.93322400  0.39198700  1
  K  K3  1  0.00000000  0.06677600  0.60801300  1
  K  K4  1  0.50000000  0.84580700  0.70243300  1
  K  K5  1  0.50000000  0.15419300  0.29756700  1
  K  K6  1  0.00000000  0.65419300  0.20243300  1
  K  K7  1  0.00000000  0.34580700  0.79756700  1
  K  K8  1  0.00000000  0.62626400  0.59260400  1
  K  K9  1  0.00000000  0.37373600  0.40739600  1
  K  K10  1  0.50000000  0.87373600  0.09260400  1
  K  K11  1  0.50000000  0.12626400  0.90739600  1
  Mo  Mo0  1  0.50000000  0.44448900  0.67155000  1
  Mo  Mo1  1  0.50000000  0.55551100  0.32845000  1
  Mo  Mo2  1  0.00000000  0.05551100  0.17155000  1
  Mo  Mo3  1  0.00000000  0.94448900  0.82845000  1
  Mo  Mo4  1  0.50000000  0.23253500  0.53089700  1
  Mo  Mo5  1  0.50000000  0.76746500  0.46910300  1
  Mo  Mo6  1  0.00000000  0.26746500  0.03089700  1
  Mo  Mo7  1  0.00000000  0.73253500  0.96910300  1
  O  O0  1  0.50000000  0.09339700  0.59986500  1
  O  O1  1  0.50000000  0.90660300  0.40013500  1
  O  O2  1  0.00000000  0.40660300  0.09986400  1
  O  O3  1  0.00000000  0.59339700  0.90013500  1
  O  O4  1  0.50000000  0.33783600  0.76222500  1
  O  O5  1  0.50000000  0.66216400  0.23777500  1
  O  O6  1  0.00000000  0.16216400  0.26222500  1
  O  O7  1  0.00000000  0.83783600  0.73777500  1
  O  O8  1  0.70969000  0.35620200  0.59064000  1
  O  O9  1  0.70969000  0.64379800  0.40936000  1
  O  O10  1  0.79031000  0.14379800  0.09064000  1
  O  O11  1  0.79031000  0.85620200  0.90936000  1
  O  O12  1  0.29031000  0.64379800  0.40936000  1
  O  O13  1  0.29031000  0.35620200  0.59064000  1
  O  O14  1  0.20969000  0.85620200  0.90936000  1
  O  O15  1  0.20969000  0.14379800  0.09064000  1
  F  F0  1  0.74818500  0.15875400  0.45231400  1
  F  F1  1  0.74818500  0.84124600  0.54768600  1
  F  F2  1  0.75181500  0.34124600  0.95231400  1
  F  F3  1  0.75181500  0.65875400  0.04768600  1
  F  F4  1  0.25181500  0.84124600  0.54768600  1
  F  F5  1  0.25181500  0.15875400  0.45231400  1
  F  F6  1  0.24818500  0.65875400  0.04768600  1
  F  F7  1  0.24818500  0.34124600  0.95231400  1
  F  F8  1  0.73041800  0.56988700  0.72564700  1
  F  F9  1  0.73041800  0.43011300  0.27435300  1
  F  F10  1  0.76958200  0.93011300  0.22564700  1
  F  F11  1  0.76958200  0.06988700  0.77435300  1
  F  F12  1  0.26958200  0.43011300  0.27435300  1
  F  F13  1  0.26958200  0.56988700  0.72564700  1
  F  F14  1  0.23041800  0.06988700  0.77435300  1
  F  F15  1  0.23041800  0.93011300  0.22564700  1
  F  F16  1  0.50000000  0.62196000  0.58069000  1
  F  F17  1  0.50000000  0.37804000  0.41931000  1
  F  F18  1  0.00000000  0.87804000  0.08069000  1
  F  F19  1  0.00000000  0.12196000  0.91931000  1
loop_
_geom_bond_atom_site_label_1
_geom_bond_atom_site_label_2
_geom_bond_distance
_geom_bond_site_symmetry_2
K0 O4 2.996643 1_555
K0 O3 3.099177 1_655
K0 O3 3.099177 1_555
K0 O14 3.362118 1_555
K0 O11 3.362118 1_555
K1 O5 2.996643 1_555
K1 O2 3.099177 1_555
K1 O2 3.099177 1_655
K1 O15 3.362118 1_555
K1 O10 3.362118 1_555
K2 O6 2.996643 1_565
K2 O1 3.099177 1_455
K2 O1 3.099177 1_555
K2 O9 3.362118 1_455
K2 O12 3.362118 1_555
K3 O7 2.996643 1_545
K3 O0 3.099177 1_555
K3 O0 3.099177 1_455
K3 O13 3.362118 1_555
K3 O8 3.362118 1_455
K4 O0 2.888817 1_565
K4 O7 3.133885 1_655
K4 O7 3.133885 1_555
K5 O1 2.888817 1_545
K5 O6 3.133885 1_655
K5 O6 3.133885 1_555
K6 O2 2.888825 1_555
K6 O5 3.133885 1_455
K6 O5 3.133885 1_555
K7 O3 2.888817 1_555
K7 O4 3.133885 1_455
K7 O4 3.133885 1_555
Mo0 O4 1.738683 1_555
Mo0 O13 1.990150 1_555
Mo0 O8 1.990150 1_555
Mo1 O5 1.738683 1_555
Mo1 O12 1.990150 1_555
Mo1 O9 1.990150 1_555
Mo2 O6 1.738683 1_555
Mo2 O10 1.990150 1_455
Mo2 O15 1.990150 1_555
Mo3 O7 1.738683 1_555
Mo3 O11 1.990150 1_455
Mo3 O14 1.990150 1_555
Mo4 O0 1.724180 1_555
Mo4 O13 1.994686 1_555
Mo4 O8 1.994686 1_555
Mo5 O1 1.724180 1_555
Mo5 O12 1.994686 1_555
Mo5 O9 1.994686 1_555
Mo6 O2 1.724171 1_555
Mo6 O10 1.994686 1_455
Mo6 O15 1.994686 1_555
Mo7 O3 1.724180 1_555
Mo7 O11 1.994686 1_455
Mo7 O14 1.994686 1_555
F0 Mo4 2.078350 1_555
F0 K9 2.704827 1_655
F0 K5 2.824794 1_555
F0 K2 2.853506 1_645
F0 K3 2.987703 1_655
F1 Mo5 2.078350 1_555
F1 K8 2.704827 1_655
F1 K4 2.824794 1_555
F1 K3 2.853506 1_665
F1 K2 2.987703 1_655
F2 Mo6 2.078350 1_656
F2 K11 2.704827 1_555
F2 K7 2.824794 1_655
F2 K0 2.853506 1_555
F2 K1 2.987703 1_556
F3 Mo7 2.078350 1_654
F3 K10 2.704827 1_555
F3 K6 2.824794 1_655
F3 K1 2.853506 1_555
F3 K0 2.987703 1_554
F4 Mo5 2.078350 1_555
F4 K8 2.704827 1_555
F4 K4 2.824794 1_555
F4 K3 2.853506 1_565
F4 K2 2.987703 1_555
F5 Mo4 2.078350 1_555
F5 K9 2.704827 1_555
F5 K5 2.824794 1_555
F5 K2 2.853506 1_545
F5 K3 2.987703 1_555
F6 Mo7 2.078350 1_554
F6 K10 2.704827 1_555
F6 K6 2.824794 1_555
F6 K1 2.853506 1_555
F6 K0 2.987703 1_554
F7 Mo6 2.078350 1_556
F7 K11 2.704827 1_555
F7 K7 2.824794 1_555
F7 K0 2.853506 1_555
F7 K1 2.987703 1_556
F8 Mo0 2.053375 1_555
F8 K8 2.689777 1_655
F8 K0 2.920605 1_555
F8 K7 2.965370 1_655
F8 K4 3.072537 1_555
F9 Mo1 2.053375 1_555
F9 K9 2.689777 1_655
F9 K1 2.920605 1_555
F9 K6 2.965370 1_655
F9 K5 3.072537 1_555
F10 Mo2 2.053375 1_665
F10 K10 2.689777 1_555
F10 K2 2.920605 1_655
F10 K5 2.965370 1_565
F10 K6 3.072537 1_655
F11 Mo3 2.053375 1_645
F11 K11 2.689777 1_555
F11 K3 2.920605 1_655
F11 K4 2.965370 1_545
F11 K7 3.072537 1_655
F12 Mo1 2.053375 1_555
F12 K9 2.689777 1_555
F12 K1 2.920605 1_555
F12 K6 2.965370 1_555
F12 K5 3.072537 1_555
F13 Mo0 2.053375 1_555
F13 K8 2.689777 1_555
F13 K0 2.920605 1_555
F13 K7 2.965370 1_555
F13 K4 3.072537 1_555
F14 Mo3 2.053375 1_545
F14 K11 2.689777 1_555
F14 K3 2.920605 1_555
F14 K4 2.965370 1_545
F14 K7 3.072537 1_555
F15 Mo2 2.053375 1_565
F15 K10 2.689777 1_555
F15 K2 2.920605 1_555
F15 K5 2.965370 1_565
F15 K6 3.072537 1_555
F16 Mo5 2.226216 1_555
F16 Mo0 2.226670 1_555
F16 K4 2.878317 1_555
F16 K8 3.091369 1_555
F16 K8 3.091369 1_655
F17 Mo4 2.226216 1_555
F17 Mo1 2.226670 1_555
F17 K5 2.878317 1_555
F17 K9 3.091369 1_655
F17 K9 3.091369 1_555
F18 Mo7 2.226216 1_554
F18 Mo2 2.226670 1_565
F18 K6 2.878317 1_555
F18 K10 3.091369 1_555
F18 K10 3.091369 1_455
F19 Mo6 2.226216 1_556
F19 Mo3 2.226670 1_545
F19 K7 2.878317 1_555
F19 K11 3.091369 1_555
F19 K11 3.091369 1_455
