# generated using pymatgen
data_CaB6(H4O7)2
_symmetry_space_group_name_H-M   'P 1'
_cell_length_a   8.06940900
_cell_length_b   9.87868900
_cell_length_c   14.83452997
_cell_angle_alpha   68.48075152
_cell_angle_beta   90.00000000
_cell_angle_gamma   90.00000000
_symmetry_Int_Tables_number   1
_chemical_formula_structural   CaB6(H4O7)2
_chemical_formula_sum   'Ca4 B24 H32 O56'
_cell_volume   1100.10777385
_cell_formula_units_Z   4
loop_
 _symmetry_equiv_pos_site_id
 _symmetry_equiv_pos_as_xyz
  1  'x, y, z'
loop_
 _atom_site_type_symbol
 _atom_site_label
 _atom_site_symmetry_multiplicity
 _atom_site_fract_x
 _atom_site_fract_y
 _atom_site_fract_z
 _atom_site_occupancy
  Ca  Ca0  1  0.94249300  0.28230000  0.18874700  1
  Ca  Ca1  1  0.05750700  0.71770000  0.81125300  1
  Ca  Ca2  1  0.44249300  0.71770000  0.31125300  1
  Ca  Ca3  1  0.55750700  0.28230000  0.68874700  1
  B  B0  1  0.55236100  0.27064800  0.20351300  1
  B  B1  1  0.44763900  0.72935200  0.79648700  1
  B  B2  1  0.05236100  0.72935200  0.29648700  1
  B  B3  1  0.94763900  0.27064800  0.70351300  1
  B  B4  1  0.61214100  0.48307000  0.24984700  1
  B  B5  1  0.38785900  0.51693000  0.75015300  1
  B  B6  1  0.11214100  0.51693000  0.25015300  1
  B  B7  1  0.88785900  0.48307000  0.74984700  1
  B  B8  1  0.85070800  0.65585300  0.18205800  1
  B  B9  1  0.14929200  0.34414700  0.81794200  1
  B  B10  1  0.35070800  0.34414700  0.31794200  1
  B  B11  1  0.64929200  0.65585300  0.68205800  1
  B  B12  1  0.84846800  0.92049600  0.18340900  1
  B  B13  1  0.15153200  0.07950400  0.81659100  1
  B  B14  1  0.34846800  0.07950400  0.31659100  1
  B  B15  1  0.65153200  0.92049600  0.68340900  1
  B  B16  1  0.76669200  0.87233100  0.03790700  1
  B  B17  1  0.23330800  0.12766900  0.96209300  1
  B  B18  1  0.26669200  0.12766900  0.46209300  1
  B  B19  1  0.73330800  0.87233100  0.53790700  1
  B  B20  1  0.11585800  0.98807400  0.24421100  1
  B  B21  1  0.88414200  0.01192600  0.75578900  1
  B  B22  1  0.61585800  0.01192600  0.25578900  1
  B  B23  1  0.38414200  0.98807400  0.74421100  1
  H  H0  1  0.65032400  0.63351700  0.49512200  1
  H  H1  1  0.34967600  0.36648300  0.50487800  1
  H  H2  1  0.15032400  0.36648300  0.00487800  1
  H  H3  1  0.84967600  0.63351700  0.99512200  1
  H  H4  1  0.82245600  0.20223700  0.01892900  1
  H  H5  1  0.17754400  0.79776300  0.98107100  1
  H  H6  1  0.32245600  0.79776300  0.48107100  1
  H  H7  1  0.67754400  0.20223700  0.51892900  1
  H  H8  1  0.84259200  0.85462500  0.41938900  1
  H  H9  1  0.15740800  0.14537500  0.58061100  1
  H  H10  1  0.34259200  0.14537500  0.08061100  1
  H  H11  1  0.65740800  0.85462500  0.91938900  1
  H  H12  1  0.43983200  0.75167900  0.09171000  1
  H  H13  1  0.56016800  0.24832100  0.90829000  1
  H  H14  1  0.93983200  0.24832100  0.40829000  1
  H  H15  1  0.06016800  0.75167900  0.59171000  1
  H  H16  1  0.36809200  0.89470200  0.10183500  1
  H  H17  1  0.63190800  0.10529800  0.89816500  1
  H  H18  1  0.86809200  0.10529800  0.39816500  1
  H  H19  1  0.13190800  0.89470200  0.60183500  1
  H  H20  1  0.65382300  0.37542900  0.47134500  1
  H  H21  1  0.34617700  0.62457100  0.52865500  1
  H  H22  1  0.15382300  0.62457100  0.02865500  1
  H  H23  1  0.84617700  0.37542900  0.97134500  1
  H  H24  1  0.76183500  0.62847800  0.41159100  1
  H  H25  1  0.23816500  0.37152200  0.58840900  1
  H  H26  1  0.26183500  0.37152200  0.08840900  1
  H  H27  1  0.73816500  0.62847800  0.91159100  1
  H  H28  1  0.54450500  0.32677100  0.06072400  1
  H  H29  1  0.45549500  0.67322900  0.93927600  1
  H  H30  1  0.04450500  0.67322900  0.43927600  1
  H  H31  1  0.95549500  0.32677100  0.56072400  1
  O  O0  1  0.64696900  0.60509400  0.43771000  1
  O  O1  1  0.35303100  0.39490600  0.56229000  1
  O  O2  1  0.14696900  0.39490600  0.06229000  1
  O  O3  1  0.85303100  0.60509400  0.93771000  1
  O  O4  1  0.70134500  0.89930600  0.24560300  1
  O  O5  1  0.29865500  0.10069400  0.75439700  1
  O  O6  1  0.20134500  0.10069400  0.25439700  1
  O  O7  1  0.79865500  0.89930600  0.74560300  1
  O  O8  1  0.80791300  0.92711100  0.44710000  1
  O  O9  1  0.19208700  0.07288900  0.55290000  1
  O  O10  1  0.30791300  0.07288900  0.05290000  1
  O  O11  1  0.69208700  0.92711100  0.94710000  1
  O  O12  1  0.65127700  0.39686600  0.19873600  1
  O  O13  1  0.34872300  0.60313400  0.80126400  1
  O  O14  1  0.15127700  0.60313400  0.30126400  1
  O  O15  1  0.84872300  0.39686600  0.69873600  1
  O  O16  1  0.70565000  0.60096100  0.24450400  1
  O  O17  1  0.29435000  0.39903900  0.75549600  1
  O  O18  1  0.20565000  0.39903900  0.25549600  1
  O  O19  1  0.79435000  0.60096100  0.74450400  1
  O  O20  1  0.97272800  0.54081900  0.19153800  1
  O  O21  1  0.02727200  0.45918100  0.80846200  1
  O  O22  1  0.47272800  0.45918100  0.30846200  1
  O  O23  1  0.52727200  0.54081900  0.69153800  1
  O  O24  1  0.40163800  0.79169400  0.13854900  1
  O  O25  1  0.59836200  0.20830600  0.86145100  1
  O  O26  1  0.90163800  0.20830600  0.36145100  1
  O  O27  1  0.09836200  0.79169400  0.63854900  1
  O  O28  1  0.96050500  0.70235600  0.38804800  1
  O  O29  1  0.03949500  0.29764400  0.61195200  1
  O  O30  1  0.46050500  0.29764400  0.11195200  1
  O  O31  1  0.53949500  0.70235600  0.88804800  1
  O  O32  1  0.17161800  0.84760400  0.27985300  1
  O  O33  1  0.82838200  0.15239600  0.72014700  1
  O  O34  1  0.67161800  0.15239600  0.22014700  1
  O  O35  1  0.32838200  0.84760400  0.77985300  1
  O  O36  1  0.46493200  0.97553600  0.30200300  1
  O  O37  1  0.53506800  0.02446400  0.69799700  1
  O  O38  1  0.96493200  0.02446400  0.19799700  1
  O  O39  1  0.03506800  0.97553600  0.80200300  1
  O  O40  1  0.80124900  0.72565100  0.07985800  1
  O  O41  1  0.19875100  0.27434900  0.92014200  1
  O  O42  1  0.30124900  0.27434900  0.42014200  1
  O  O43  1  0.69875100  0.72565100  0.57985800  1
  O  O44  1  0.93180100  0.77082700  0.21341400  1
  O  O45  1  0.06819900  0.22917300  0.78658600  1
  O  O46  1  0.43180100  0.22917300  0.28658600  1
  O  O47  1  0.56819900  0.77082700  0.71341400  1
  O  O48  1  0.80247700  0.96958800  0.08107500  1
  O  O49  1  0.19752300  0.03041200  0.91892500  1
  O  O50  1  0.30247700  0.03041200  0.41892500  1
  O  O51  1  0.69752300  0.96958800  0.58107500  1
  O  O52  1  0.19931200  0.70463600  0.97324700  1
  O  O53  1  0.80068800  0.29536400  0.02675300  1
  O  O54  1  0.69931200  0.29536400  0.52675300  1
  O  O55  1  0.30068800  0.70463600  0.47324700  1
loop_
_geom_bond_atom_site_label_1
_geom_bond_atom_site_label_2
_geom_bond_distance
_geom_bond_site_symmetry_2
Ca0 O26 2.415134 1_555
Ca0 O2 2.438878 1_655
Ca0 O34 2.490578 1_555
Ca0 O38 2.506558 1_555
Ca0 O20 2.580863 1_555
Ca0 O53 2.621722 1_555
Ca0 O12 2.635925 1_555
Ca0 O6 2.692254 1_655
Ca0 O18 2.767218 1_655
Ca1 O27 2.415134 1_555
Ca1 O3 2.438878 1_455
Ca1 O35 2.490578 1_555
Ca1 O39 2.506558 1_555
Ca1 O21 2.580863 1_555
Ca1 O52 2.621722 1_555
Ca1 O13 2.635925 1_555
Ca1 O7 2.692254 1_455
Ca1 O19 2.767218 1_455
Ca2 O24 2.415134 1_555
Ca2 O0 2.438878 1_555
Ca2 O32 2.490578 1_555
Ca2 O36 2.506558 1_555
Ca2 O22 2.580863 1_555
Ca2 O55 2.621722 1_555
Ca2 O14 2.635925 1_555
Ca2 O4 2.692254 1_555
Ca2 O16 2.767218 1_555
Ca3 O25 2.415134 1_555
Ca3 O1 2.438878 1_555
Ca3 O33 2.490578 1_555
Ca3 O37 2.506558 1_555
Ca3 O23 2.580863 1_555
Ca3 O54 2.621722 1_555
Ca3 O15 2.635925 1_555
Ca3 O5 2.692254 1_555
Ca3 O17 2.767218 1_555
B0 O12 1.460135 1_555
B0 O34 1.462920 1_555
B0 O30 1.483130 1_555
B0 O46 1.504183 1_555
B1 O13 1.460135 1_555
B1 O35 1.462920 1_555
B1 O31 1.483130 1_555
B1 O47 1.504183 1_555
B2 O14 1.460135 1_555
B2 O32 1.462920 1_555
B2 O28 1.483130 1_455
B2 O44 1.504183 1_455
B3 O15 1.460135 1_555
B3 O33 1.462920 1_555
B3 O29 1.483130 1_655
B3 O45 1.504183 1_655
B4 O16 1.365372 1_555
B4 O12 1.368755 1_555
B4 O22 1.388095 1_555
B5 O17 1.365372 1_555
B5 O13 1.368755 1_555
B5 O23 1.388095 1_555
B6 O18 1.365372 1_555
B6 O14 1.368755 1_555
B6 O20 1.388095 1_455
B7 O19 1.365372 1_555
B7 O15 1.368755 1_555
B7 O21 1.388095 1_655
B8 O16 1.467586 1_555
B8 O20 1.470850 1_555
B8 O40 1.471846 1_555
B8 O44 1.523870 1_555
B9 O17 1.467586 1_555
B9 O21 1.470850 1_555
B9 O41 1.471846 1_555
B9 O45 1.523870 1_555
B10 O18 1.467586 1_555
B10 O22 1.470850 1_555
B10 O42 1.471846 1_555
B10 O46 1.523870 1_555
B11 O19 1.467586 1_555
B11 O23 1.470850 1_555
B11 O43 1.471846 1_555
B11 O47 1.523870 1_555
B12 O48 1.461975 1_555
B12 O38 1.465597 1_565
B12 O4 1.470643 1_555
B12 O44 1.534133 1_555
B13 O49 1.461975 1_555
B13 O39 1.465597 1_545
B13 O5 1.470643 1_555
B13 O45 1.534133 1_555
B14 O50 1.461975 1_555
B14 O36 1.465597 1_545
B14 O6 1.470643 1_555
B14 O46 1.534133 1_555
B15 O51 1.461975 1_555
B15 O37 1.465597 1_565
B15 O7 1.470643 1_555
B15 O47 1.534133 1_555
B16 O48 1.366718 1_555
B16 O40 1.379535 1_555
B16 O11 1.391078 1_554
B17 O49 1.366718 1_555
B17 O41 1.379535 1_555
B17 O10 1.391078 1_556
B18 O50 1.366718 1_555
B18 O42 1.379535 1_555
B18 O9 1.391078 1_555
B19 O51 1.366718 1_555
B19 O43 1.379535 1_555
B19 O8 1.391078 1_555
B20 O6 1.363733 1_565
B20 O32 1.367241 1_555
B20 O38 1.379009 1_465
B21 O7 1.363733 1_545
B21 O33 1.367241 1_555
B21 O39 1.379009 1_645
B22 O4 1.363733 1_545
B22 O34 1.367241 1_555
B22 O36 1.379009 1_545
B23 O5 1.363733 1_565
B23 O35 1.367241 1_555
B23 O37 1.379009 1_565
H0 O0 0.990135 1_555
H1 O1 0.990135 1_555
H2 O2 0.990135 1_555
H3 O3 0.990135 1_555
H4 O53 0.984383 1_555
H5 O52 0.984383 1_555
H6 O55 0.984383 1_555
H7 O54 0.984383 1_555
H8 O8 0.987926 1_555
H9 O9 0.987926 1_555
H10 O10 0.987926 1_555
H11 O11 0.987926 1_555
H12 O24 0.967236 1_555
H13 O25 0.967236 1_555
H14 O26 0.967236 1_555
H15 O27 0.967236 1_555
H16 O24 0.999398 1_555
H17 O25 0.999398 1_555
H18 O26 0.999398 1_555
H19 O27 0.999398 1_555
H20 O54 0.979278 1_555
H21 O55 0.979278 1_555
H22 O52 0.979278 1_554
H23 O53 0.979278 1_556
H24 O0 0.998485 1_555
H25 O1 0.998485 1_555
H26 O2 0.998485 1_555
H27 O3 0.998485 1_555
H28 O30 0.979460 1_555
H29 O31 0.979460 1_555
H30 O28 0.979460 1_455
H31 O29 0.979460 1_655
