# generated using pymatgen
data_GdInO3
_symmetry_space_group_name_H-M   'P 1'
_cell_length_a   6.36721447
_cell_length_b   6.36721454
_cell_length_c   12.34803472
_cell_angle_alpha   90.00000308
_cell_angle_beta   90.00000487
_cell_angle_gamma   119.99985170
_symmetry_Int_Tables_number   1
_chemical_formula_structural   GdInO3
_chemical_formula_sum   'Gd6 In6 O18'
_cell_volume   433.53891373
_cell_formula_units_Z   6
loop_
 _symmetry_equiv_pos_site_id
 _symmetry_equiv_pos_as_xyz
  1  'x, y, z'
loop_
 _atom_site_type_symbol
 _atom_site_label
 _atom_site_symmetry_multiplicity
 _atom_site_fract_x
 _atom_site_fract_y
 _atom_site_fract_z
 _atom_site_occupancy
  Gd  Gd0  1  0.66666768  0.33333433  0.96125756  1
  Gd  Gd1  1  0.33333208  0.66666561  0.46125764  1
  Gd  Gd2  1  0.66666562  0.33333218  0.46125753  1
  Gd  Gd3  1  0.33333471  0.66666787  0.96125806  1
  Gd  Gd4  1  -0.00000009  -0.00000066  0.99717603  1
  Gd  Gd5  1  0.00000058  0.00000055  0.49717630  1
  In  In0  1  0.66651516  0.66651527  0.72664941  1
  In  In1  1  0.00000045  0.33348519  0.72664969  1
  In  In2  1  0.33348422  0.33348426  0.22664948  1
  In  In3  1  -0.00000075  0.66651514  0.22664965  1
  In  In4  1  0.33348522  0.00000052  0.72664969  1
  In  In5  1  0.66651533  -0.00000047  0.22664972  1
  O  O0  1  0.69312314  0.69312312  0.89659160  1
  O  O1  1  -0.00000122  0.30687517  0.89659132  1
  O  O2  1  0.30687687  0.30687677  0.39659171  1
  O  O3  1  0.00000141  0.69312494  0.39659152  1
  O  O4  1  0.30687519  -0.00000107  0.89659147  1
  O  O5  1  0.69312502  0.00000141  0.39659157  1
  O  O6  1  0.63947250  0.63947259  0.55809169  1
  O  O7  1  -0.00000031  0.36052633  0.55809170  1
  O  O8  1  0.36052736  0.36052732  0.05809161  1
  O  O9  1  0.00000023  0.63947366  0.05809173  1
  O  O10  1  0.36052623  -0.00000028  0.55809178  1
  O  O11  1  0.63947383  0.00000035  0.05809168  1
  O  O12  1  -0.00000094  -0.00000089  0.69723130  1
  O  O13  1  0.00000088  0.00000095  0.19723064  1
  O  O14  1  0.66666553  0.33333220  0.75248502  1
  O  O15  1  0.33333419  0.66666763  0.25248491  1
  O  O16  1  0.66666762  0.33333428  0.25248498  1
  O  O17  1  0.33333227  0.66666572  0.75248502  1
loop_
_geom_bond_atom_site_label_1
_geom_bond_atom_site_label_2
_geom_bond_distance
_geom_bond_site_symmetry_2
Gd0 O1 2.351189 1_655
Gd0 O0 2.351189 1_555
Gd0 O4 2.351212 1_555
Gd0 O8 2.365760 1_556
Gd0 O9 2.365760 1_656
Gd0 O11 2.365763 1_556
Gd0 O14 2.577931 1_555
Gd1 O3 2.351186 1_555
Gd1 O2 2.351190 1_555
Gd1 O5 2.351214 1_565
Gd1 O7 2.365759 1_555
Gd1 O6 2.365761 1_555
Gd1 O10 2.365763 1_565
Gd1 O15 2.577933 1_555
Gd2 O5 2.351186 1_555
Gd2 O2 2.351188 1_555
Gd2 O3 2.351214 1_655
Gd2 O10 2.365761 1_555
Gd2 O6 2.365762 1_555
Gd2 O7 2.365763 1_655
Gd2 O16 2.577931 1_555
Gd3 O0 2.351190 1_555
Gd3 O4 2.351191 1_565
Gd3 O1 2.351217 1_555
Gd3 O11 2.365756 1_566
Gd3 O8 2.365757 1_556
Gd3 O9 2.365762 1_556
Gd3 O17 2.577937 1_555
Gd4 O4 2.315277 1_555
Gd4 O1 2.315283 1_555
Gd4 O0 2.315285 1_445
Gd4 O9 2.415640 1_546
Gd4 O11 2.415644 1_456
Gd4 O8 2.415656 1_556
Gd4 O13 2.470281 1_556
Gd5 O5 2.315281 1_455
Gd5 O3 2.315281 1_545
Gd5 O2 2.315285 1_555
Gd5 O10 2.415641 1_555
Gd5 O7 2.415641 1_555
Gd5 O6 2.415657 1_445
Gd5 O12 2.470286 1_555
In0 O6 2.088467 1_555
In0 O0 2.105280 1_555
In0 O17 2.145773 1_555
In0 O14 2.145774 1_555
In0 O12 2.154216 1_665
In1 O7 2.088469 1_555
In1 O1 2.105274 1_555
In1 O17 2.145765 1_555
In1 O14 2.145775 1_455
In1 O12 2.154221 1_555
In2 O8 2.088469 1_555
In2 O2 2.105280 1_555
In2 O15 2.145775 1_555
In2 O16 2.145775 1_555
In2 O13 2.154214 1_555
In3 O9 2.088469 1_555
In3 O3 2.105276 1_555
In3 O16 2.145766 1_455
In3 O15 2.145776 1_555
In3 O13 2.154220 1_565
In4 O10 2.088468 1_555
In4 O4 2.105276 1_555
In4 O14 2.145764 1_555
In4 O17 2.145774 1_545
In4 O12 2.154222 1_555
In5 O11 2.088470 1_555
In5 O5 2.105276 1_555
In5 O15 2.145767 1_545
In5 O16 2.145776 1_555
In5 O13 2.154220 1_655
