# generated using pymatgen
data_Mg14CrCu
_symmetry_space_group_name_H-M   'P 1'
_cell_length_a   6.27442625
_cell_length_b   6.27442576
_cell_length_c   9.93544623
_cell_angle_alpha   90.00000000
_cell_angle_beta   90.00000000
_cell_angle_gamma   120.00000263
_symmetry_Int_Tables_number   1
_chemical_formula_structural   Mg14CrCu
_chemical_formula_sum   'Mg14 Cr1 Cu1'
_cell_volume   338.73962438
_cell_formula_units_Z   1
loop_
 _symmetry_equiv_pos_site_id
 _symmetry_equiv_pos_as_xyz
  1  'x, y, z'
loop_
 _atom_site_type_symbol
 _atom_site_label
 _atom_site_symmetry_multiplicity
 _atom_site_fract_x
 _atom_site_fract_y
 _atom_site_fract_z
 _atom_site_occupancy
  Mg  Mg0  1  0.16527244  0.83263572  0.12500000  1
  Mg  Mg1  1  0.16884170  0.83442035  0.62500000  1
  Mg  Mg2  1  0.66736428  0.33472756  0.12500000  1
  Mg  Mg3  1  0.66557965  0.33115830  0.62500000  1
  Mg  Mg4  1  0.66736428  0.83263572  0.12500000  1
  Mg  Mg5  1  0.66557965  0.83442035  0.62500000  1
  Mg  Mg6  1  0.32749808  0.17250192  0.37173710  1
  Mg  Mg7  1  0.32749808  0.17250192  0.87826290  1
  Mg  Mg8  1  0.32749808  0.65499716  0.37173710  1
  Mg  Mg9  1  0.32749808  0.65499716  0.87826290  1
  Mg  Mg10  1  0.84500284  0.17250192  0.37173710  1
  Mg  Mg11  1  0.84500284  0.17250192  0.87826290  1
  Mg  Mg12  1  0.83333300  0.66666700  0.37495675  1
  Mg  Mg13  1  0.83333300  0.66666700  0.87504325  1
  Cr  Cr0  1  0.16666700  0.33333300  0.62500000  1
  Cu  Cu0  1  0.16666700  0.33333300  0.12500000  1
loop_
_geom_bond_atom_site_label_1
_geom_bond_atom_site_label_2
_geom_bond_distance
_geom_bond_site_symmetry_2
Mg0 Mg12 3.069325 1_455
Mg0 Mg13 3.069325 1_454
Mg0 Mg8 3.069597 1_555
Mg0 Mg9 3.069597 1_554
Mg0 Mg6 3.069604 1_565
Mg0 Mg7 3.069604 1_564
Mg0 Mg2 3.124088 1_455
Mg0 Mg4 3.124088 1_455
Mg0 Mg2 3.150338 1_565
Mg0 Mg4 3.150338 1_555
Mg1 Mg12 3.081455 1_455
Mg1 Mg13 3.081455 1_455
Mg1 Mg9 3.116200 1_555
Mg1 Mg8 3.116200 1_555
Mg1 Mg6 3.116206 1_565
Mg1 Mg7 3.116206 1_565
Mg1 Mg3 3.116745 1_565
Mg1 Mg5 3.116746 1_555
Mg1 Mg3 3.157680 1_455
Mg1 Mg5 3.157681 1_455
Mg2 Mg7 3.069604 1_554
Mg2 Mg6 3.069604 1_555
Mg2 Mg4 3.124088 1_555
Mg2 Mg4 3.150338 1_545
Mg3 Mg7 3.116206 1_555
Mg3 Mg6 3.116206 1_555
Mg3 Mg5 3.116745 1_545
Mg3 Mg5 3.157680 1_555
Mg4 Mg8 3.069604 1_555
Mg4 Mg9 3.069604 1_554
Mg5 Mg9 3.116206 1_555
Mg5 Mg8 3.116206 1_555
Mg6 Mg8 3.027381 1_555
Mg6 Mg8 3.247045 1_545
Mg7 Mg9 3.027381 1_555
Mg7 Mg9 3.247045 1_545
Mg10 Mg8 3.027381 1_655
Mg10 Mg6 3.027381 1_655
Mg10 Mg2 3.069597 1_555
Mg10 Mg4 3.069604 1_545
Mg10 Mg3 3.116200 1_555
Mg10 Mg5 3.116206 1_545
Mg10 Mg12 3.138017 1_545
Mg10 Mg12 3.138017 1_555
Mg10 Mg8 3.247045 1_545
Mg10 Mg6 3.247045 1_555
Mg11 Mg9 3.027381 1_655
Mg11 Mg7 3.027381 1_655
Mg11 Mg2 3.069597 1_556
Mg11 Mg4 3.069604 1_546
Mg11 Mg3 3.116200 1_555
Mg11 Mg5 3.116206 1_545
Mg11 Mg13 3.138017 1_545
Mg11 Mg13 3.138017 1_555
Mg11 Mg9 3.247045 1_545
Mg11 Mg7 3.247045 1_555
Mg12 Mg4 3.069319 1_555
Mg12 Mg2 3.069325 1_555
Mg12 Mg5 3.081449 1_555
Mg12 Mg3 3.081455 1_555
Mg12 Mg6 3.138017 1_665
Mg12 Mg6 3.138017 1_555
Mg12 Mg8 3.138017 1_555
Mg12 Mg8 3.138017 1_655
Mg13 Mg4 3.069319 1_556
Mg13 Mg2 3.069325 1_556
Mg13 Mg5 3.081449 1_555
Mg13 Mg3 3.081455 1_555
Mg13 Mg7 3.138017 1_665
Mg13 Mg7 3.138017 1_555
Mg13 Mg9 3.138017 1_555
Mg13 Mg9 3.138017 1_655
Cr0 Mg7 3.063764 1_555
Cr0 Mg6 3.063764 1_555
Cr0 Mg9 3.063770 1_555
Cr0 Mg8 3.063770 1_555
Cr0 Mg10 3.063770 1_455
Cr0 Mg11 3.063770 1_455
Cr0 Mg5 3.137235 1_555
Cr0 Mg5 3.137235 1_445
Cr0 Mg1 3.137235 1_555
Cr0 Mg1 3.137235 1_545
Cr0 Mg3 3.137235 1_455
Cr0 Mg3 3.137235 1_555
Cu0 Mg6 3.010741 1_555
Cu0 Mg7 3.010741 1_554
Cu0 Mg8 3.010747 1_555
Cu0 Mg9 3.010747 1_554
Cu0 Mg10 3.010747 1_455
Cu0 Mg11 3.010747 1_454
Cu0 Mg4 3.137222 1_445
Cu0 Mg4 3.137222 1_555
Cu0 Mg0 3.137222 1_545
Cu0 Mg0 3.137222 1_555
Cu0 Mg2 3.137222 1_555
Cu0 Mg2 3.137222 1_455
