# generated using pymatgen
data_CaNiSnP2O9
_symmetry_space_group_name_H-M   'P 1'
_cell_length_a   6.60833400
_cell_length_b   7.77174500
_cell_length_c   14.32125200
_cell_angle_alpha   90.00000000
_cell_angle_beta   90.00000000
_cell_angle_gamma   90.00000000
_symmetry_Int_Tables_number   1
_chemical_formula_structural   CaNiSnP2O9
_chemical_formula_sum   'Ca4 Ni4 Sn4 P8 O36'
_cell_volume   735.51496645
_cell_formula_units_Z   4
loop_
 _symmetry_equiv_pos_site_id
 _symmetry_equiv_pos_as_xyz
  1  'x, y, z'
loop_
 _atom_site_type_symbol
 _atom_site_label
 _atom_site_symmetry_multiplicity
 _atom_site_fract_x
 _atom_site_fract_y
 _atom_site_fract_z
 _atom_site_occupancy
  Ca  Ca0  1  0.25000000  0.91745700  0.29070900  1
  Ca  Ca1  1  0.25000000  0.58254300  0.79070900  1
  Ca  Ca2  1  0.75000000  0.08254300  0.70929100  1
  Ca  Ca3  1  0.75000000  0.41745700  0.20929100  1
  Ni  Ni0  1  0.00000000  0.00000000  0.50000000  1
  Ni  Ni1  1  0.00000000  0.50000000  0.00000000  1
  Ni  Ni2  1  0.50000000  0.50000000  0.00000000  1
  Ni  Ni3  1  0.50000000  0.00000000  0.50000000  1
  Sn  Sn0  1  0.25000000  0.34613000  0.38294700  1
  Sn  Sn1  1  0.75000000  0.65387000  0.61705300  1
  Sn  Sn2  1  0.75000000  0.84613000  0.11705300  1
  Sn  Sn3  1  0.25000000  0.15387000  0.88294700  1
  P  P0  1  0.75000000  0.34979400  0.43343400  1
  P  P1  1  0.25000000  0.65020600  0.56656600  1
  P  P2  1  0.25000000  0.84979400  0.06656600  1
  P  P3  1  0.75000000  0.15020600  0.93343400  1
  P  P4  1  0.25000000  0.38133200  0.18890300  1
  P  P5  1  0.75000000  0.61866800  0.81109700  1
  P  P6  1  0.75000000  0.88133200  0.31109700  1
  P  P7  1  0.25000000  0.11866800  0.68890300  1
  O  O0  1  0.55537100  0.60582300  0.86881200  1
  O  O1  1  0.05537100  0.39417700  0.13118800  1
  O  O2  1  0.44462900  0.10582300  0.63118800  1
  O  O3  1  0.94462900  0.89417700  0.36881200  1
  O  O4  1  0.44462900  0.39417700  0.13118800  1
  O  O5  1  0.94462900  0.60582300  0.86881200  1
  O  O6  1  0.55537100  0.89417700  0.36881200  1
  O  O7  1  0.05537100  0.10582300  0.63118800  1
  O  O8  1  0.75000000  0.32646400  0.98082300  1
  O  O9  1  0.25000000  0.67353600  0.01917700  1
  O  O10  1  0.25000000  0.82646400  0.51917700  1
  O  O11  1  0.75000000  0.17353600  0.48082300  1
  O  O12  1  0.25000000  0.11541900  0.43808600  1
  O  O13  1  0.75000000  0.88458100  0.56191400  1
  O  O14  1  0.75000000  0.61541900  0.06191400  1
  O  O15  1  0.25000000  0.38458100  0.93808600  1
  O  O16  1  0.25000000  0.21064000  0.24806600  1
  O  O17  1  0.75000000  0.78936000  0.75193400  1
  O  O18  1  0.75000000  0.71064000  0.25193400  1
  O  O19  1  0.25000000  0.28936000  0.74806600  1
  O  O20  1  0.93275900  0.13013000  0.86494900  1
  O  O21  1  0.43275900  0.86987000  0.13505100  1
  O  O22  1  0.06724100  0.63013000  0.63505100  1
  O  O23  1  0.56724100  0.36987000  0.36494900  1
  O  O24  1  0.06724100  0.86987000  0.13505100  1
  O  O25  1  0.56724100  0.13013000  0.86494900  1
  O  O26  1  0.93275900  0.36987000  0.36494900  1
  O  O27  1  0.43275900  0.63013000  0.63505100  1
  O  O28  1  0.25000000  0.97795300  0.77036000  1
  O  O29  1  0.75000000  0.02204700  0.22964000  1
  O  O30  1  0.75000000  0.47795300  0.72964000  1
  O  O31  1  0.25000000  0.52204700  0.27036000  1
  O  O32  1  0.25000000  0.99602500  0.99517100  1
  O  O33  1  0.75000000  0.00397500  0.00482900  1
  O  O34  1  0.75000000  0.49602500  0.50482900  1
  O  O35  1  0.25000000  0.50397500  0.49517100  1
loop_
_geom_bond_atom_site_label_1
_geom_bond_atom_site_label_2
_geom_bond_distance
_geom_bond_site_symmetry_2
Ca0 O6 2.314335 1_555
Ca0 O3 2.314335 1_455
Ca0 O16 2.358965 1_565
Ca0 O24 2.562188 1_555
Ca0 O21 2.562188 1_555
Ca0 O12 2.611847 1_565
Ca0 O31 3.086813 1_555
Ca1 O0 2.314335 1_555
Ca1 O5 2.314335 1_455
Ca1 O19 2.358965 1_555
Ca1 O22 2.562188 1_555
Ca1 O27 2.562188 1_555
Ca1 O15 2.611847 1_555
Ca1 O28 3.086813 1_555
Ca2 O2 2.314335 1_555
Ca2 O7 2.314335 1_655
Ca2 O17 2.358965 1_545
Ca2 O20 2.562188 1_555
Ca2 O25 2.562188 1_555
Ca2 O13 2.611847 1_545
Ca2 O30 3.086813 1_555
Ca3 O4 2.314335 1_555
Ca3 O1 2.314335 1_655
Ca3 O18 2.358965 1_555
Ca3 O26 2.562188 1_555
Ca3 O23 2.562188 1_555
Ca3 O14 2.611847 1_555
Ca3 O29 3.086813 1_555
Ni0 O12 2.078512 1_555
Ni0 O13 2.078512 1_445
Ni0 O7 2.083286 1_555
Ni0 O3 2.083286 1_445
Ni0 O11 2.150288 1_455
Ni0 O10 2.150288 1_545
Ni1 O15 2.078512 1_554
Ni1 O14 2.078512 1_455
Ni1 O1 2.083286 1_555
Ni1 O5 2.083286 1_454
Ni1 O8 2.150288 1_454
Ni1 O9 2.150288 1_555
Ni2 O15 2.078512 1_554
Ni2 O14 2.078512 1_555
Ni2 O0 2.083286 1_554
Ni2 O4 2.083286 1_555
Ni2 O8 2.150288 1_554
Ni2 O9 2.150288 1_555
Ni3 O13 2.078512 1_545
Ni3 O12 2.078512 1_555
Ni3 O2 2.083286 1_555
Ni3 O6 2.083286 1_545
Ni3 O11 2.150288 1_555
Ni3 O10 2.150288 1_545
O0 P5 1.532121 1_555
O1 P4 1.532121 1_555
O2 P7 1.532121 1_555
O3 P6 1.532121 1_555
O4 P4 1.532121 1_555
O5 P5 1.532121 1_555
O6 P6 1.532121 1_555
O7 P7 1.532121 1_555
O8 P3 1.528736 1_555
O9 P2 1.528736 1_555
O10 P1 1.528736 1_555
O11 P0 1.528736 1_555
O12 Sn0 1.959211 1_555
O13 Sn1 1.959211 1_555
O14 Sn2 1.959211 1_555
O15 Sn3 1.959211 1_555
O16 P4 1.574070 1_555
O16 Sn0 2.200028 1_555
O17 P5 1.574070 1_555
O17 Sn1 2.200028 1_555
O18 P6 1.574070 1_555
O18 Sn2 2.200028 1_555
O19 P7 1.574070 1_555
O19 Sn3 2.200028 1_555
O20 P3 1.563622 1_555
O20 Sn3 2.120263 1_655
O21 P2 1.563622 1_555
O21 Sn2 2.120263 1_555
O22 P1 1.563622 1_555
O22 Sn1 2.120263 1_455
O23 P0 1.563622 1_555
O23 Sn0 2.120263 1_555
O24 P2 1.563622 1_555
O24 Sn2 2.120263 1_455
O25 P3 1.563622 1_555
O25 Sn3 2.120263 1_555
O26 P0 1.563622 1_555
O26 Sn0 2.120263 1_655
O27 P1 1.563622 1_555
O27 Sn1 2.120263 1_555
O28 P7 1.599012 1_565
O28 Sn3 2.113996 1_565
O29 P6 1.599012 1_545
O29 Sn2 2.113996 1_545
O30 P5 1.599012 1_555
O30 Sn1 2.113996 1_555
O31 P4 1.599012 1_555
O31 Sn0 2.113996 1_555
O32 P2 1.528725 1_556
O32 Sn3 2.021861 1_565
O33 P3 1.528725 1_554
O33 Sn2 2.021861 1_545
O34 P0 1.528725 1_555
O34 Sn1 2.021861 1_555
O35 P1 1.528725 1_555
O35 Sn0 2.021861 1_555
