# generated using pymatgen
data_Nd2Si4Ru3Rh
_symmetry_space_group_name_H-M   'P 1'
_cell_length_a   4.18612600
_cell_length_b   4.18612600
_cell_length_c   9.94917500
_cell_angle_alpha   90.00000000
_cell_angle_beta   90.00000000
_cell_angle_gamma   90.00000000
_symmetry_Int_Tables_number   1
_chemical_formula_structural   Nd2Si4Ru3Rh
_chemical_formula_sum   'Nd2 Si4 Ru3 Rh1'
_cell_volume   174.34586932
_cell_formula_units_Z   1
loop_
 _symmetry_equiv_pos_site_id
 _symmetry_equiv_pos_as_xyz
  1  'x, y, z'
loop_
 _atom_site_type_symbol
 _atom_site_label
 _atom_site_symmetry_multiplicity
 _atom_site_fract_x
 _atom_site_fract_y
 _atom_site_fract_z
 _atom_site_occupancy
  Nd  Nd0  1  0.00000000  0.00000000  0.99789100  1
  Nd  Nd1  1  0.50000000  0.50000000  0.50210900  1
  Si  Si0  1  0.50000000  0.50000000  0.13045700  1
  Si  Si1  1  0.00000000  0.00000000  0.63488500  1
  Si  Si2  1  0.00000000  0.00000000  0.36954300  1
  Si  Si3  1  0.50000000  0.50000000  0.86511500  1
  Ru  Ru0  1  0.50000000  0.00000000  0.75000000  1
  Ru  Ru1  1  0.50000000  0.00000000  0.25000000  1
  Ru  Ru2  1  0.00000000  0.50000000  0.75000000  1
  Rh  Rh0  1  0.00000000  0.50000000  0.25000000  1
loop_
_geom_bond_atom_site_label_1
_geom_bond_atom_site_label_2
_geom_bond_distance
_geom_bond_site_symmetry_2
Nd0 Ru2 3.234749 1_545
Nd0 Ru0 3.234749 1_555
Nd0 Ru0 3.234749 1_455
Nd0 Ru2 3.234749 1_555
Nd0 Si0 3.240584 1_456
Nd0 Si0 3.240584 1_546
Nd0 Si0 3.240584 1_446
Nd0 Si0 3.240584 1_556
Nd0 Si3 3.241434 1_555
Nd0 Si3 3.241434 1_545
Nd0 Si3 3.241434 1_445
Nd0 Si3 3.241434 1_455
Nd0 Rh0 3.266858 1_556
Nd0 Ru1 3.266858 1_456
Nd0 Rh0 3.266858 1_546
Nd0 Ru1 3.266858 1_556
Nd1 Ru0 3.234749 1_565
Nd1 Ru0 3.234749 1_555
Nd1 Ru2 3.234749 1_655
Nd1 Ru2 3.234749 1_555
Nd1 Si2 3.240584 1_565
Nd1 Si2 3.240584 1_555
Nd1 Si2 3.240584 1_655
Nd1 Si2 3.240584 1_665
Nd1 Si1 3.241434 1_665
Nd1 Si1 3.241434 1_555
Nd1 Si1 3.241434 1_655
Nd1 Si1 3.241434 1_565
Nd1 Ru1 3.266858 1_565
Nd1 Ru1 3.266858 1_555
Nd1 Rh0 3.266858 1_555
Nd1 Rh0 3.266858 1_655
Ru0 Si3 2.385922 1_545
Ru0 Si3 2.385922 1_555
Ru0 Si1 2.385922 1_555
Ru0 Si1 2.385922 1_655
Ru1 Si2 2.407380 1_655
Ru1 Si0 2.407380 1_545
Ru1 Si2 2.407380 1_555
Ru1 Si0 2.407380 1_555
Ru2 Si3 2.385922 1_555
Ru2 Si1 2.385922 1_555
Ru2 Si1 2.385922 1_565
Ru2 Si3 2.385922 1_455
Rh0 Si0 2.407380 1_455
Rh0 Si2 2.407380 1_555
Rh0 Si0 2.407380 1_555
Rh0 Si2 2.407380 1_565
