# generated using pymatgen
data_Ba3TiAl10O20
_symmetry_space_group_name_H-M   'P 1'
_cell_length_a   9.77028385
_cell_length_b   9.77028385
_cell_length_c   5.02803644
_cell_angle_alpha   75.60947615
_cell_angle_beta   75.60947615
_cell_angle_gamma   72.07307242
_symmetry_Int_Tables_number   1
_chemical_formula_structural   Ba3TiAl10O20
_chemical_formula_sum   'Ba3 Ti1 Al10 O20'
_cell_volume   434.56296133
_cell_formula_units_Z   1
loop_
 _symmetry_equiv_pos_site_id
 _symmetry_equiv_pos_as_xyz
  1  'x, y, z'
loop_
 _atom_site_type_symbol
 _atom_site_label
 _atom_site_symmetry_multiplicity
 _atom_site_fract_x
 _atom_site_fract_y
 _atom_site_fract_z
 _atom_site_occupancy
  Ba  Ba0  1  0.00000000  0.00000000  0.00000000  1
  Ba  Ba1  1  0.27826300  0.27826300  0.74984300  1
  Ba  Ba2  1  0.72173700  0.72173700  0.25015700  1
  Ti  Ti0  1  0.50000000  0.50000000  0.00000000  1
  Al  Al0  1  0.84967000  0.42357700  0.83747900  1
  Al  Al1  1  0.57642300  0.15033000  0.16252100  1
  Al  Al2  1  0.15033000  0.57642300  0.16252100  1
  Al  Al3  1  0.42357700  0.84967000  0.83747900  1
  Al  Al4  1  0.36384500  0.63615500  0.50000000  1
  Al  Al5  1  0.63615500  0.36384500  0.50000000  1
  Al  Al6  1  0.99274800  0.71330900  0.65931200  1
  Al  Al7  1  0.28669100  0.00725200  0.34068800  1
  Al  Al8  1  0.00725200  0.28669100  0.34068800  1
  Al  Al9  1  0.71330900  0.99274800  0.65931200  1
  O  O0  1  0.55252600  0.30634800  0.88661900  1
  O  O1  1  0.69365200  0.44747400  0.11338100  1
  O  O2  1  0.44747400  0.69365200  0.11338100  1
  O  O3  1  0.30634800  0.55252600  0.88661900  1
  O  O4  1  0.71002500  0.01316500  0.00086200  1
  O  O5  1  0.98683500  0.28997500  0.99913800  1
  O  O6  1  0.28997500  0.98683500  0.99913800  1
  O  O7  1  0.01316500  0.71002500  0.00086200  1
  O  O8  1  0.43736400  0.43736400  0.39281200  1
  O  O9  1  0.56263600  0.56263600  0.60718800  1
  O  O10  1  0.89322500  0.89322500  0.53302000  1
  O  O11  1  0.10677500  0.10677500  0.46698000  1
  O  O12  1  0.88166200  0.59596300  0.69435800  1
  O  O13  1  0.40403700  0.11833800  0.30564200  1
  O  O14  1  0.11833800  0.40403700  0.30564200  1
  O  O15  1  0.59596300  0.88166200  0.69435800  1
  O  O16  1  0.17003300  0.65806500  0.43400500  1
  O  O17  1  0.34193500  0.82996700  0.56599500  1
  O  O18  1  0.82996700  0.34193500  0.56599500  1
  O  O19  1  0.65806500  0.17003300  0.43400500  1
loop_
_geom_bond_atom_site_label_1
_geom_bond_atom_site_label_2
_geom_bond_distance
_geom_bond_site_symmetry_2
Ba0 O11 2.692544 1_554
Ba0 O10 2.692544 1_445
Ba0 O5 2.795187 1_454
Ba0 O6 2.795187 1_544
Ba0 O7 2.795187 1_545
Ba0 O4 2.795187 1_455
Ba1 O8 2.601681 1_555
Ba1 O5 2.790748 1_455
Ba1 O6 2.790748 1_545
Ba1 O13 2.851009 1_555
Ba1 O14 2.851009 1_555
Ba1 O0 3.031680 1_555
Ba1 O3 3.031680 1_555
Ba1 O13 3.180514 1_556
Ba1 O14 3.180514 1_556
Ba2 O9 2.601681 1_555
Ba2 O4 2.790748 1_565
Ba2 O7 2.790748 1_655
Ba2 O12 2.851009 1_555
Ba2 O15 2.851009 1_555
Ba2 O1 3.031680 1_555
Ba2 O2 3.031680 1_555
Ba2 O12 3.180514 1_554
Ba2 O15 3.180514 1_554
Al0 O12 1.749891 1_555
Al0 O5 1.760033 1_555
Al0 O1 1.787002 1_556
Al0 O18 1.817416 1_555
Al1 O13 1.749891 1_555
Al1 O4 1.760033 1_555
Al1 O0 1.787002 1_554
Al1 O19 1.817416 1_555
Al2 O14 1.749891 1_555
Al2 O7 1.760033 1_555
Al2 O3 1.787002 1_554
Al2 O16 1.817416 1_555
Al3 O15 1.749891 1_555
Al3 O6 1.760033 1_555
Al3 O2 1.787002 1_556
Al3 O17 1.817416 1_555
Al4 O3 1.926742 1_555
Al4 O2 1.926742 1_555
Al4 O17 1.941423 1_555
Al4 O16 1.941423 1_555
Al4 O9 2.011906 1_555
Al4 O8 2.011906 1_555
Al5 O0 1.926742 1_555
Al5 O1 1.926742 1_555
Al5 O18 1.941423 1_555
Al5 O19 1.941423 1_555
Al5 O8 2.011906 1_555
Al5 O9 2.011906 1_555
Al6 O12 1.758987 1_555
Al6 O7 1.768892 1_656
Al6 O10 1.771593 1_555
Al6 O16 1.824275 1_655
Al7 O13 1.758987 1_555
Al7 O6 1.768892 1_544
Al7 O11 1.771593 1_555
Al7 O17 1.824275 1_545
Al8 O14 1.758987 1_555
Al8 O5 1.768892 1_454
Al8 O11 1.771593 1_555
Al8 O18 1.824275 1_455
Al9 O15 1.758987 1_555
Al9 O4 1.768892 1_566
Al9 O10 1.771593 1_555
Al9 O19 1.824275 1_565
O0 Ti0 1.990259 1_556
O1 Ti0 1.990259 1_555
O2 Ti0 1.990259 1_555
O3 Ti0 1.990259 1_556
O8 Ti0 1.918047 1_555
O9 Ti0 1.918047 1_556
