# generated using pymatgen
data_Cs2YbCl5
_symmetry_space_group_name_H-M   'P 1'
_cell_length_a   7.41482584
_cell_length_b   9.47003164
_cell_length_c   15.24823963
_cell_angle_alpha   90.00000000
_cell_angle_beta   90.00000000
_cell_angle_gamma   90.00000000
_symmetry_Int_Tables_number   1
_chemical_formula_structural   Cs2YbCl5
_chemical_formula_sum   'Cs8 Yb4 Cl20'
_cell_volume   1070.71057697
_cell_formula_units_Z   4
loop_
 _symmetry_equiv_pos_site_id
 _symmetry_equiv_pos_as_xyz
  1  'x, y, z'
loop_
 _atom_site_type_symbol
 _atom_site_label
 _atom_site_symmetry_multiplicity
 _atom_site_fract_x
 _atom_site_fract_y
 _atom_site_fract_z
 _atom_site_occupancy
  Cs  Cs0  1  0.25000000  0.66529066  0.91622077  1
  Cs  Cs1  1  0.75000000  0.33470934  0.08377923  1
  Cs  Cs2  1  0.75000000  0.83470934  0.41622077  1
  Cs  Cs3  1  0.25000000  0.16529066  0.58377923  1
  Cs  Cs4  1  0.25000000  0.97234009  0.21086829  1
  Cs  Cs5  1  0.75000000  0.02765991  0.78913171  1
  Cs  Cs6  1  0.75000000  0.52765991  0.71086829  1
  Cs  Cs7  1  0.25000000  0.47234009  0.28913171  1
  Yb  Yb0  1  0.25000000  0.67705243  0.56535078  1
  Yb  Yb1  1  0.75000000  0.32294757  0.43464922  1
  Yb  Yb2  1  0.75000000  0.82294757  0.06535078  1
  Yb  Yb3  1  0.25000000  0.17705243  0.93464922  1
  Cl  Cl0  1  0.25000000  0.51719348  0.69927106  1
  Cl  Cl1  1  0.75000000  0.48280652  0.30072894  1
  Cl  Cl2  1  0.75000000  0.98280652  0.19927106  1
  Cl  Cl3  1  0.25000000  0.01719348  0.80072894  1
  Cl  Cl4  1  0.50154201  0.83283049  0.61935140  1
  Cl  Cl5  1  0.49845799  0.16716951  0.38064860  1
  Cl  Cl6  1  0.49845799  0.66716951  0.11935140  1
  Cl  Cl7  1  0.00154201  0.16716951  0.38064860  1
  Cl  Cl8  1  0.50154201  0.33283049  0.88064860  1
  Cl  Cl9  1  0.99845799  0.83283049  0.61935140  1
  Cl  Cl10  1  0.99845799  0.33283049  0.88064860  1
  Cl  Cl11  1  0.00154201  0.66716951  0.11935140  1
  Cl  Cl12  1  0.25000000  0.79027757  0.41086486  1
  Cl  Cl13  1  0.75000000  0.20972243  0.58913514  1
  Cl  Cl14  1  0.75000000  0.70972243  0.91086486  1
  Cl  Cl15  1  0.25000000  0.29027757  0.08913514  1
  Cl  Cl16  1  0.00000000  0.50000000  0.50000000  1
  Cl  Cl17  1  0.00000000  0.00000000  0.00000000  1
  Cl  Cl18  1  0.50000000  0.50000000  0.50000000  1
  Cl  Cl19  1  0.50000000  0.00000000  0.00000000  1
loop_
_geom_bond_atom_site_label_1
_geom_bond_atom_site_label_2
_geom_bond_distance
_geom_bond_site_symmetry_2
Cl0 Yb0 2.542000 1_555
Cl0 Cs0 3.593118 1_555
Cl0 Cs6 3.712951 1_455
Cl0 Cs6 3.712951 1_555
Cl0 Cs3 3.769224 1_555
Cl1 Yb1 2.542000 1_555
Cl1 Cs1 3.593118 1_555
Cl1 Cs7 3.712951 1_655
Cl1 Cs7 3.712951 1_555
Cl1 Cs2 3.769224 1_555
Cl2 Yb2 2.542000 1_555
Cl2 Cs2 3.593118 1_555
Cl2 Cs4 3.712951 1_655
Cl2 Cs4 3.712951 1_555
Cl2 Cs1 3.769224 1_565
Cl3 Yb3 2.542000 1_555
Cl3 Cs3 3.593118 1_555
Cl3 Cs5 3.712951 1_555
Cl3 Cs5 3.712951 1_455
Cl3 Cs0 3.769224 1_545
Cl4 Yb0 2.516554 1_555
Cl4 Cs2 3.603897 1_555
Cl4 Cs5 3.674274 1_565
Cl4 Cs3 3.699383 1_565
Cl4 Cs6 3.700441 1_555
Cl5 Yb1 2.516554 1_555
Cl5 Cs3 3.603897 1_555
Cl5 Cs4 3.674274 1_545
Cl5 Cs2 3.699383 1_545
Cl5 Cs7 3.700441 1_555
Cl6 Yb2 2.516554 1_555
Cl6 Cs0 3.603897 1_554
Cl6 Cs7 3.674274 1_555
Cl6 Cs1 3.699383 1_555
Cl6 Cs4 3.700441 1_555
Cl7 Yb1 2.516554 1_455
Cl7 Cs3 3.603897 1_555
Cl7 Cs4 3.674274 1_545
Cl7 Cs2 3.699383 1_445
Cl7 Cs7 3.700441 1_555
Cl8 Yb3 2.516554 1_555
Cl8 Cs1 3.603897 1_556
Cl8 Cs6 3.674274 1_555
Cl8 Cs0 3.699383 1_555
Cl8 Cs5 3.700441 1_555
Cl9 Yb0 2.516554 1_655
Cl9 Cs2 3.603897 1_555
Cl9 Cs5 3.674274 1_565
Cl9 Cs3 3.699383 1_665
Cl9 Cs6 3.700441 1_555
Cl10 Yb3 2.516554 1_655
Cl10 Cs1 3.603897 1_556
Cl10 Cs6 3.674274 1_555
Cl10 Cs0 3.699383 1_655
Cl10 Cs5 3.700441 1_555
Cl11 Yb2 2.516554 1_455
Cl11 Cs0 3.603897 1_554
Cl11 Cs7 3.674274 1_555
Cl11 Cs1 3.699383 1_455
Cl11 Cs4 3.700441 1_555
Cl12 Yb0 2.588193 1_555
Cl12 Cs4 3.503239 1_555
Cl12 Cs7 3.537079 1_555
Cl12 Cs2 3.732108 1_555
Cl12 Cs2 3.732108 1_455
Cl13 Yb1 2.588193 1_555
Cl13 Cs5 3.503239 1_555
Cl13 Cs6 3.537079 1_555
Cl13 Cs3 3.732108 1_555
Cl13 Cs3 3.732108 1_655
Cl14 Yb2 2.588193 1_556
Cl14 Cs6 3.503239 1_555
Cl14 Cs5 3.537079 1_565
Cl14 Cs0 3.732108 1_555
Cl14 Cs0 3.732108 1_655
Cl15 Yb3 2.588193 1_554
Cl15 Cs7 3.503239 1_555
Cl15 Cs4 3.537079 1_545
Cl15 Cs1 3.732108 1_555
Cl15 Cs1 3.732108 1_455
Cl16 Yb0 2.690819 1_555
Cl16 Yb1 2.690819 1_455
Cl16 Cs6 3.720678 1_455
Cl16 Cs7 3.720678 1_555
Cl16 Cs3 3.887833 1_555
Cl16 Cs2 3.887833 1_455
Cl17 Yb3 2.690819 1_554
Cl17 Yb2 2.690819 1_445
Cl17 Cs4 3.720678 1_545
Cl17 Cs5 3.720678 1_454
Cl17 Cs1 3.887833 1_455
Cl17 Cs0 3.887833 1_544
Cl18 Yb0 2.690819 1_555
Cl18 Yb1 2.690819 1_555
Cl18 Cs6 3.720678 1_555
Cl18 Cs7 3.720678 1_555
Cl18 Cs3 3.887833 1_555
Cl18 Cs2 3.887833 1_555
Cl19 Yb3 2.690819 1_554
Cl19 Yb2 2.690819 1_545
Cl19 Cs4 3.720678 1_545
Cl19 Cs5 3.720678 1_554
Cl19 Cs1 3.887833 1_555
Cl19 Cs0 3.887833 1_544
