# generated using pymatgen
data_Nd5Mg
_symmetry_space_group_name_H-M   'P 1'
_cell_length_a   18.89508182
_cell_length_b   18.89508182
_cell_length_c   11.76402400
_cell_angle_alpha   90.00000000
_cell_angle_beta   90.00000000
_cell_angle_gamma   157.43462250
_symmetry_Int_Tables_number   1
_chemical_formula_structural   Nd5Mg
_chemical_formula_sum   'Nd40 Mg8'
_cell_volume   1611.71244514
_cell_formula_units_Z   8
loop_
 _symmetry_equiv_pos_site_id
 _symmetry_equiv_pos_as_xyz
  1  'x, y, z'
loop_
 _atom_site_type_symbol
 _atom_site_label
 _atom_site_symmetry_multiplicity
 _atom_site_fract_x
 _atom_site_fract_y
 _atom_site_fract_z
 _atom_site_occupancy
  Nd  Nd0_0  1  0.00190350  0.49809650  0.00000000  1
  Nd  Nd0_1  1  0.00190350  0.49809650  0.50000000  1
  Nd  Nd0_2  1  0.00190350  0.99809650  0.00000000  1
  Nd  Nd0_3  1  0.00190350  0.99809650  0.50000000  1
  Nd  Nd0_4  1  0.50190350  0.49809650  0.00000000  1
  Nd  Nd0_5  1  0.50190350  0.49809650  0.50000000  1
  Nd  Nd0_6  1  0.50190350  0.99809650  0.00000000  1
  Nd  Nd0_7  1  0.50190350  0.99809650  0.50000000  1
  Nd  Nd1_0  1  0.33653400  0.16346600  0.00000000  1
  Nd  Nd1_1  1  0.33653400  0.16346600  0.50000000  1
  Nd  Nd1_2  1  0.33653400  0.66346600  0.00000000  1
  Nd  Nd1_3  1  0.33653400  0.66346600  0.50000000  1
  Nd  Nd1_4  1  0.83653400  0.16346600  0.00000000  1
  Nd  Nd1_5  1  0.83653400  0.16346600  0.50000000  1
  Nd  Nd1_6  1  0.83653400  0.66346600  0.00000000  1
  Nd  Nd1_7  1  0.83653400  0.66346600  0.50000000  1
  Nd  Nd2_0  1  0.16614450  0.33385550  0.00000000  1
  Nd  Nd2_1  1  0.16614450  0.33385550  0.50000000  1
  Nd  Nd2_2  1  0.16614450  0.83385550  0.00000000  1
  Nd  Nd2_3  1  0.16614450  0.83385550  0.50000000  1
  Nd  Nd2_4  1  0.66614450  0.33385550  0.00000000  1
  Nd  Nd2_5  1  0.66614450  0.33385550  0.50000000  1
  Nd  Nd2_6  1  0.66614450  0.83385550  0.00000000  1
  Nd  Nd2_7  1  0.66614450  0.83385550  0.50000000  1
  Nd  Nd3_0  1  0.27775550  0.22224450  0.25000000  1
  Nd  Nd3_1  1  0.27775550  0.22224450  0.75000000  1
  Nd  Nd3_2  1  0.27775550  0.72224450  0.25000000  1
  Nd  Nd3_3  1  0.27775550  0.72224450  0.75000000  1
  Nd  Nd3_4  1  0.77775550  0.22224450  0.25000000  1
  Nd  Nd3_5  1  0.77775550  0.22224450  0.75000000  1
  Nd  Nd3_6  1  0.77775550  0.72224450  0.25000000  1
  Nd  Nd3_7  1  0.77775550  0.72224450  0.75000000  1
  Nd  Nd4_0  1  0.44016300  0.05983700  0.25000000  1
  Nd  Nd4_1  1  0.44016300  0.05983700  0.75000000  1
  Nd  Nd4_2  1  0.44016300  0.55983700  0.25000000  1
  Nd  Nd4_3  1  0.44016300  0.55983700  0.75000000  1
  Nd  Nd4_4  1  0.94016300  0.05983700  0.25000000  1
  Nd  Nd4_5  1  0.94016300  0.05983700  0.75000000  1
  Nd  Nd4_6  1  0.94016300  0.55983700  0.25000000  1
  Nd  Nd4_7  1  0.94016300  0.55983700  0.75000000  1
  Mg  Mg0_0  1  0.11025750  0.38974250  0.25000000  1
  Mg  Mg0_1  1  0.11025750  0.38974250  0.75000000  1
  Mg  Mg0_2  1  0.11025750  0.88974250  0.25000000  1
  Mg  Mg0_3  1  0.11025750  0.88974250  0.75000000  1
  Mg  Mg0_4  1  0.61025750  0.38974250  0.25000000  1
  Mg  Mg0_5  1  0.61025750  0.38974250  0.75000000  1
  Mg  Mg0_6  1  0.61025750  0.88974250  0.25000000  1
  Mg  Mg0_7  1  0.61025750  0.88974250  0.75000000  1
loop_
_geom_bond_atom_site_label_1
_geom_bond_atom_site_label_2
_geom_bond_distance
_geom_bond_site_symmetry_2
Nd0_0 Nd3_3 3.603337 1_554
Nd0_0 Nd3_2 3.603337 1_555
Nd0_0 Nd3_4 3.603337 1_455
Nd0_0 Nd3_5 3.603337 1_454
Nd0_0 Nd1_2 3.640545 1_555
Nd0_0 Nd1_4 3.640545 1_455
Nd0_0 Nd2_2 3.676637 1_555
Nd0_0 Nd2_4 3.676637 1_455
Nd0_0 Nd0_6 3.696820 1_555
Nd0_0 Nd0_6 3.696820 1_445
Nd0_0 Nd4_6 3.726242 1_455
Nd0_0 Nd4_7 3.726242 1_454
Nd0_1 Nd3_2 3.603337 1_555
Nd0_1 Nd3_3 3.603337 1_555
Nd0_1 Nd3_4 3.603337 1_455
Nd0_1 Nd3_5 3.603337 1_455
Nd0_1 Nd1_3 3.640545 1_555
Nd0_1 Nd1_5 3.640545 1_455
Nd0_1 Nd2_3 3.676637 1_555
Nd0_1 Nd2_5 3.676637 1_455
Nd0_1 Nd0_7 3.696820 1_555
Nd0_1 Nd0_7 3.696820 1_445
Nd0_1 Nd4_6 3.726242 1_455
Nd0_1 Nd4_7 3.726242 1_455
Nd0_2 Nd3_6 3.603337 1_455
Nd0_2 Nd3_0 3.603337 1_565
Nd0_2 Nd3_1 3.603337 1_564
Nd0_2 Nd3_7 3.603337 1_454
Nd0_2 Nd1_0 3.640545 1_565
Nd0_2 Nd1_6 3.640545 1_455
Nd0_2 Nd2_6 3.676637 1_455
Nd0_2 Nd2_0 3.676637 1_565
Nd0_2 Nd0_4 3.696820 1_565
Nd0_2 Nd0_4 3.696820 1_455
Nd0_2 Nd4_5 3.726242 1_464
Nd0_2 Nd4_4 3.726242 1_465
Nd0_3 Nd3_1 3.603337 1_565
Nd0_3 Nd3_6 3.603337 1_455
Nd0_3 Nd3_0 3.603337 1_565
Nd0_3 Nd3_7 3.603337 1_455
Nd0_3 Nd1_1 3.640545 1_565
Nd0_3 Nd1_7 3.640545 1_455
Nd0_3 Nd2_7 3.676637 1_455
Nd0_3 Nd2_1 3.676637 1_565
Nd0_3 Nd0_5 3.696820 1_565
Nd0_3 Nd0_5 3.696820 1_455
Nd0_3 Nd4_5 3.726242 1_465
Nd0_3 Nd4_4 3.726242 1_465
Nd0_4 Nd3_1 3.603337 1_554
Nd0_4 Nd3_7 3.603337 1_554
Nd0_4 Nd3_0 3.603337 1_555
Nd0_4 Nd3_6 3.603337 1_555
Nd0_4 Nd1_0 3.640545 1_555
Nd0_4 Nd1_6 3.640545 1_555
Nd0_4 Nd2_6 3.676637 1_555
Nd0_4 Nd2_0 3.676637 1_555
Nd0_4 Nd4_3 3.726242 1_554
Nd0_4 Nd4_2 3.726242 1_555
Nd0_5 Nd3_0 3.603337 1_555
Nd0_5 Nd3_1 3.603337 1_555
Nd0_5 Nd3_6 3.603337 1_555
Nd0_5 Nd3_7 3.603337 1_555
Nd0_5 Nd1_1 3.640545 1_555
Nd0_5 Nd1_7 3.640545 1_555
Nd0_5 Nd2_7 3.676637 1_555
Nd0_5 Nd2_1 3.676637 1_555
Nd0_5 Nd4_2 3.726242 1_555
Nd0_5 Nd4_3 3.726242 1_555
Nd0_6 Nd3_4 3.603337 1_565
Nd0_6 Nd3_2 3.603337 1_555
Nd0_6 Nd3_5 3.603337 1_564
Nd0_6 Nd3_3 3.603337 1_554
Nd0_6 Nd1_2 3.640545 1_555
Nd0_6 Nd1_4 3.640545 1_565
Nd0_6 Nd2_2 3.676637 1_555
Nd0_6 Nd2_4 3.676637 1_565
Nd0_6 Nd4_1 3.726242 1_564
Nd0_6 Nd4_0 3.726242 1_565
Nd0_7 Nd3_5 3.603337 1_565
Nd0_7 Nd3_4 3.603337 1_565
Nd0_7 Nd3_3 3.603337 1_555
Nd0_7 Nd3_2 3.603337 1_555
Nd0_7 Nd1_3 3.640545 1_555
Nd0_7 Nd1_5 3.640545 1_565
Nd0_7 Nd2_3 3.676637 1_555
Nd0_7 Nd2_5 3.676637 1_565
Nd0_7 Nd4_1 3.726242 1_565
Nd0_7 Nd4_0 3.726242 1_565
Nd1_0 Nd2_4 3.481550 1_555
Nd1_0 Nd2_2 3.481550 1_545
Nd1_0 Nd3_1 3.659863 1_554
Nd1_0 Nd3_0 3.659863 1_555
Nd1_0 Nd1_6 3.696820 1_555
Nd1_0 Nd1_6 3.696820 1_445
Nd1_1 Nd2_5 3.481550 1_555
Nd1_1 Nd2_3 3.481550 1_545
Nd1_1 Nd3_0 3.659863 1_555
Nd1_1 Nd3_1 3.659863 1_555
Nd1_1 Nd1_7 3.696820 1_555
Nd1_1 Nd1_7 3.696820 1_445
Nd1_2 Nd2_0 3.481550 1_555
Nd1_2 Nd2_6 3.481550 1_555
Nd1_2 Nd3_3 3.659863 1_554
Nd1_2 Nd3_2 3.659863 1_555
Nd1_2 Nd1_4 3.696820 1_565
Nd1_2 Nd1_4 3.696820 1_455
Nd1_3 Nd2_1 3.481550 1_555
Nd1_3 Nd2_7 3.481550 1_555
Nd1_3 Nd3_2 3.659863 1_555
Nd1_3 Nd3_3 3.659863 1_555
Nd1_3 Nd1_5 3.696820 1_565
Nd1_3 Nd1_5 3.696820 1_455
Nd1_4 Nd2_0 3.481550 1_655
Nd1_4 Nd2_6 3.481550 1_545
Nd1_4 Nd3_4 3.659863 1_555
Nd1_4 Nd3_5 3.659863 1_554
Nd1_5 Nd2_1 3.481550 1_655
Nd1_5 Nd2_7 3.481550 1_545
Nd1_5 Nd3_4 3.659863 1_555
Nd1_5 Nd3_5 3.659863 1_555
Nd1_6 Nd2_4 3.481550 1_555
Nd1_6 Nd2_2 3.481550 1_655
Nd1_6 Nd3_7 3.659863 1_554
Nd1_6 Nd3_6 3.659863 1_555
Nd1_7 Nd2_5 3.481550 1_555
Nd1_7 Nd2_3 3.481550 1_655
Nd1_7 Nd3_6 3.659863 1_555
Nd1_7 Nd3_7 3.659863 1_555
Nd2_0 Nd4_5 3.585868 1_454
Nd2_0 Nd4_3 3.585868 1_554
Nd2_0 Nd4_2 3.585868 1_555
Nd2_0 Nd4_4 3.585868 1_455
Nd2_0 Nd2_6 3.696820 1_555
Nd2_0 Nd2_6 3.696820 1_445
Nd2_1 Nd4_2 3.585868 1_555
Nd2_1 Nd4_4 3.585868 1_455
Nd2_1 Nd4_3 3.585868 1_555
Nd2_1 Nd4_5 3.585868 1_455
Nd2_1 Nd2_7 3.696820 1_555
Nd2_1 Nd2_7 3.696820 1_445
Nd2_2 Nd4_0 3.585868 1_565
Nd2_2 Nd4_1 3.585868 1_564
Nd2_2 Nd4_7 3.585868 1_454
Nd2_2 Nd4_6 3.585868 1_455
Nd2_2 Nd2_4 3.696820 1_565
Nd2_2 Nd2_4 3.696820 1_455
Nd2_3 Nd4_0 3.585868 1_565
Nd2_3 Nd4_1 3.585868 1_565
Nd2_3 Nd4_7 3.585868 1_455
Nd2_3 Nd4_6 3.585868 1_455
Nd2_3 Nd2_5 3.696820 1_565
Nd2_3 Nd2_5 3.696820 1_455
Nd2_4 Nd4_6 3.585868 1_555
Nd2_4 Nd4_7 3.585868 1_554
Nd2_4 Nd4_1 3.585868 1_554
Nd2_4 Nd4_0 3.585868 1_555
Nd2_5 Nd4_6 3.585868 1_555
Nd2_5 Nd4_7 3.585868 1_555
Nd2_5 Nd4_1 3.585868 1_555
Nd2_5 Nd4_0 3.585868 1_555
Nd2_6 Nd4_2 3.585868 1_555
Nd2_6 Nd4_3 3.585868 1_554
Nd2_6 Nd4_4 3.585868 1_565
Nd2_6 Nd4_5 3.585868 1_564
Nd2_7 Nd4_2 3.585868 1_555
Nd2_7 Nd4_3 3.585868 1_555
Nd2_7 Nd4_4 3.585868 1_565
Nd2_7 Nd4_5 3.585868 1_565
Nd3_0 Nd3_6 3.696820 1_555
Nd3_0 Nd3_6 3.696820 1_445
Nd3_0 Nd4_2 3.735531 1_555
Nd3_0 Nd4_4 3.735531 1_455
Nd3_1 Nd3_7 3.696820 1_555
Nd3_1 Nd3_7 3.696820 1_445
Nd3_1 Nd4_3 3.735531 1_555
Nd3_1 Nd4_5 3.735531 1_455
Nd3_2 Nd3_4 3.696820 1_565
Nd3_2 Nd3_4 3.696820 1_455
Nd3_2 Nd4_0 3.735531 1_565
Nd3_2 Nd4_6 3.735531 1_455
Nd3_3 Nd3_5 3.696820 1_565
Nd3_3 Nd3_5 3.696820 1_455
Nd3_3 Nd4_1 3.735531 1_565
Nd3_3 Nd4_7 3.735531 1_455
Nd3_4 Nd4_0 3.735531 1_555
Nd3_4 Nd4_6 3.735531 1_555
Nd3_5 Nd4_1 3.735531 1_555
Nd3_5 Nd4_7 3.735531 1_555
Nd3_6 Nd4_2 3.735531 1_555
Nd3_6 Nd4_4 3.735531 1_565
Nd3_7 Nd4_3 3.735531 1_555
Nd3_7 Nd4_5 3.735531 1_565
Nd4_0 Nd4_6 3.696820 1_555
Nd4_0 Nd4_6 3.696820 1_445
Nd4_1 Nd4_7 3.696820 1_555
Nd4_1 Nd4_7 3.696820 1_445
Nd4_2 Nd4_4 3.696820 1_565
Nd4_2 Nd4_4 3.696820 1_455
Nd4_3 Nd4_5 3.696820 1_565
Nd4_3 Nd4_5 3.696820 1_455
Mg0_0 Nd4_4 3.490820 1_455
Mg0_0 Nd4_2 3.490820 1_555
Mg0_0 Nd3_2 3.572812 1_555
Mg0_0 Nd3_4 3.572812 1_455
Mg0_0 Nd1_4 3.583170 1_455
Mg0_0 Nd1_2 3.583170 1_555
Mg0_0 Nd1_3 3.583170 1_555
Mg0_0 Nd1_5 3.583170 1_455
Mg0_0 Nd2_0 3.597114 1_555
Mg0_0 Nd2_1 3.597114 1_555
Mg0_1 Nd4_5 3.490820 1_455
Mg0_1 Nd4_3 3.490820 1_555
Mg0_1 Nd3_3 3.572812 1_555
Mg0_1 Nd3_5 3.572812 1_455
Mg0_1 Nd1_2 3.583170 1_556
Mg0_1 Nd1_4 3.583170 1_456
Mg0_1 Nd1_3 3.583170 1_555
Mg0_1 Nd1_5 3.583170 1_455
Mg0_1 Nd2_0 3.597114 1_556
Mg0_1 Nd2_1 3.597114 1_555
Mg0_2 Nd4_6 3.490820 1_455
Mg0_2 Nd4_0 3.490820 1_565
Mg0_2 Nd3_0 3.572812 1_565
Mg0_2 Nd3_6 3.572812 1_455
Mg0_2 Nd1_0 3.583170 1_565
Mg0_2 Nd1_1 3.583170 1_565
Mg0_2 Nd1_6 3.583170 1_455
Mg0_2 Nd1_7 3.583170 1_455
Mg0_2 Nd2_3 3.597114 1_555
Mg0_2 Nd2_2 3.597114 1_555
Mg0_3 Nd4_7 3.490820 1_455
Mg0_3 Nd4_1 3.490820 1_565
Mg0_3 Nd3_1 3.572812 1_565
Mg0_3 Nd3_7 3.572812 1_455
Mg0_3 Nd1_1 3.583170 1_565
Mg0_3 Nd1_0 3.583170 1_566
Mg0_3 Nd1_6 3.583170 1_456
Mg0_3 Nd1_7 3.583170 1_455
Mg0_3 Nd2_3 3.597114 1_555
Mg0_3 Nd2_2 3.597114 1_556
Mg0_4 Nd4_6 3.490820 1_555
Mg0_4 Nd4_0 3.490820 1_555
Mg0_4 Nd3_0 3.572812 1_555
Mg0_4 Nd3_6 3.572812 1_555
Mg0_4 Nd1_6 3.583170 1_555
Mg0_4 Nd1_7 3.583170 1_555
Mg0_4 Nd1_1 3.583170 1_555
Mg0_4 Nd1_0 3.583170 1_555
Mg0_4 Nd2_4 3.597114 1_555
Mg0_4 Nd2_5 3.597114 1_555
Mg0_5 Nd4_7 3.490820 1_555
Mg0_5 Nd4_1 3.490820 1_555
Mg0_5 Nd3_1 3.572812 1_555
Mg0_5 Nd3_7 3.572812 1_555
Mg0_5 Nd1_6 3.583170 1_556
Mg0_5 Nd1_7 3.583170 1_555
Mg0_5 Nd1_1 3.583170 1_555
Mg0_5 Nd1_0 3.583170 1_556
Mg0_5 Nd2_4 3.597114 1_556
Mg0_5 Nd2_5 3.597114 1_555
Mg0_6 Nd4_4 3.490820 1_565
Mg0_6 Nd4_2 3.490820 1_555
Mg0_6 Nd3_2 3.572812 1_555
Mg0_6 Nd3_4 3.572812 1_565
Mg0_6 Nd1_4 3.583170 1_565
Mg0_6 Nd1_5 3.583170 1_565
Mg0_6 Nd1_3 3.583170 1_555
Mg0_6 Nd1_2 3.583170 1_555
Mg0_6 Nd2_7 3.597114 1_555
Mg0_6 Nd2_6 3.597114 1_555
Mg0_7 Nd4_5 3.490820 1_565
Mg0_7 Nd4_3 3.490820 1_555
Mg0_7 Nd3_3 3.572812 1_555
Mg0_7 Nd3_5 3.572812 1_565
Mg0_7 Nd1_5 3.583170 1_565
Mg0_7 Nd1_4 3.583170 1_566
Mg0_7 Nd1_2 3.583170 1_556
Mg0_7 Nd1_3 3.583170 1_555
Mg0_7 Nd2_6 3.597114 1_556
Mg0_7 Nd2_7 3.597114 1_555
