# generated using pymatgen
data_Li5Cr3(PO4)4
_symmetry_space_group_name_H-M   'P 1'
_cell_length_a   5.01170500
_cell_length_b   8.01771453
_cell_length_c   8.58815720
_cell_angle_alpha   110.00655203
_cell_angle_beta   90.55505639
_cell_angle_gamma   104.93221906
_symmetry_Int_Tables_number   1
_chemical_formula_structural   Li5Cr3(PO4)4
_chemical_formula_sum   'Li5 Cr3 P4 O16'
_cell_volume   311.49293846
_cell_formula_units_Z   1
loop_
 _symmetry_equiv_pos_site_id
 _symmetry_equiv_pos_as_xyz
  1  'x, y, z'
loop_
 _atom_site_type_symbol
 _atom_site_label
 _atom_site_symmetry_multiplicity
 _atom_site_fract_x
 _atom_site_fract_y
 _atom_site_fract_z
 _atom_site_occupancy
  Li  Li0  1  0.16721500  0.89783600  0.89529600  1
  Li  Li1  1  0.83083300  0.09799600  0.10564500  1
  Li  Li2  1  0.23155900  0.01973800  0.29098700  1
  Li  Li3  1  0.76447900  0.96950200  0.70322600  1
  Li  Li4  1  0.59995300  0.75841700  0.28737700  1
  Cr  Cr0  1  0.00266700  0.50640000  0.00919500  1
  Cr  Cr1  1  0.50086700  0.50378600  0.49719900  1
  Cr  Cr2  1  0.40950000  0.24797500  0.71994500  1
  P  P0  1  0.58808400  0.69655300  0.90888200  1
  P  P1  1  0.41201800  0.30366600  0.09706200  1
  P  P2  1  0.12857800  0.79309700  0.52790200  1
  P  P3  1  0.87146200  0.20507400  0.46335800  1
  O  O0  1  0.73968800  0.66876300  0.05187800  1
  O  O1  1  0.25271900  0.33138100  0.95219500  1
  O  O2  1  0.23964000  0.82344900  0.37197200  1
  O  O3  1  0.76815300  0.17589700  0.62482800  1
  O  O4  1  0.80097300  0.73691200  0.50912200  1
  O  O5  1  0.20094000  0.26743300  0.48893000  1
  O  O6  1  0.24208200  0.65516700  0.57683700  1
  O  O7  1  0.75563500  0.34770000  0.42464000  1
  O  O8  1  0.28949600  0.70363300  0.95005100  1
  O  O9  1  0.70752400  0.29612700  0.04861900  1
  O  O10  1  0.58423400  0.52738000  0.74369000  1
  O  O11  1  0.40958400  0.46919400  0.25673900  1
  O  O12  1  0.74362000  0.87896900  0.88870800  1
  O  O13  1  0.25583900  0.11632100  0.10835800  1
  O  O14  1  0.21033000  0.97728500  0.68783800  1
  O  O15  1  0.79232800  0.02434900  0.30951900  1
loop_
_geom_bond_atom_site_label_1
_geom_bond_atom_site_label_2
_geom_bond_distance
_geom_bond_site_symmetry_2
Li0 O13 2.001025 1_566
Li0 O8 2.002084 1_555
Li0 O14 2.083256 1_555
Li0 O12 2.087881 1_455
Li1 O12 2.023846 1_544
Li1 O15 2.026529 1_555
Li1 O9 2.043939 1_555
Li1 O13 2.096298 1_655
Li2 O2 1.934805 1_545
Li2 O13 1.964866 1_555
Li2 O5 2.170127 1_555
Li2 O15 2.217454 1_455
Li3 O12 1.957192 1_555
Li3 O3 1.984692 1_565
Li3 O4 2.084348 1_555
Li3 O14 2.225699 1_655
Li4 O15 2.042414 1_565
Li4 O2 2.076532 1_555
Li4 O0 2.095171 1_555
Li4 O11 2.189585 1_555
Li4 O4 2.224496 1_555
Cr0 O0 2.033001 1_455
Cr0 O8 2.053623 1_554
Cr0 O1 2.056052 1_554
Cr0 O9 2.063976 1_455
Cr1 O6 1.970640 1_555
Cr1 O7 1.972309 1_555
Cr1 O11 2.018733 1_555
Cr1 O4 2.045377 1_555
Cr1 O5 2.072061 1_555
Cr1 O10 2.088001 1_555
Cr2 O14 2.061893 1_545
Cr2 O1 2.105107 1_555
Cr2 O3 2.114920 1_555
Cr2 O10 2.121287 1_555
Cr2 O5 2.304072 1_555
O0 P0 1.546445 1_554
O1 P1 1.579871 1_556
O2 P2 1.526430 1_555
O3 P3 1.555403 1_555
O4 P2 1.577541 1_655
O5 P3 1.586568 1_455
O6 P2 1.536479 1_555
O7 P3 1.534193 1_555
O8 P0 1.551723 1_555
O9 P1 1.552718 1_555
O10 P0 1.588116 1_555
O11 P1 1.550930 1_555
O12 P0 1.537917 1_555
O13 P1 1.540643 1_555
O14 P2 1.588926 1_555
O15 P3 1.544730 1_555
