# generated using pymatgen
data_YMg6Fe
_symmetry_space_group_name_H-M   'P 1'
_cell_length_a   4.96964100
_cell_length_b   6.32468500
_cell_length_c   11.36507700
_cell_angle_alpha   90.00000000
_cell_angle_beta   90.00000000
_cell_angle_gamma   90.00000000
_symmetry_Int_Tables_number   1
_chemical_formula_structural   YMg6Fe
_chemical_formula_sum   'Y2 Mg12 Fe2'
_cell_volume   357.22043906
_cell_formula_units_Z   2
loop_
 _symmetry_equiv_pos_site_id
 _symmetry_equiv_pos_as_xyz
  1  'x, y, z'
loop_
 _atom_site_type_symbol
 _atom_site_label
 _atom_site_symmetry_multiplicity
 _atom_site_fract_x
 _atom_site_fract_y
 _atom_site_fract_z
 _atom_site_occupancy
  Y  Y0  1  0.00000000  0.00000000  0.81583800  1
  Y  Y1  1  0.00000000  0.50000000  0.31583800  1
  Mg  Mg0  1  0.00000000  0.76136900  0.57727500  1
  Mg  Mg1  1  0.00000000  0.23863100  0.57727500  1
  Mg  Mg2  1  0.00000000  0.50000000  0.83488200  1
  Mg  Mg3  1  0.50000000  0.25416400  0.92613200  1
  Mg  Mg4  1  0.50000000  0.74583600  0.92613200  1
  Mg  Mg5  1  0.50000000  0.50000000  0.67219000  1
  Mg  Mg6  1  0.00000000  0.26136900  0.07727500  1
  Mg  Mg7  1  0.00000000  0.73863100  0.07727500  1
  Mg  Mg8  1  0.00000000  0.00000000  0.33488200  1
  Mg  Mg9  1  0.50000000  0.75416400  0.42613200  1
  Mg  Mg10  1  0.50000000  0.24583600  0.42613200  1
  Mg  Mg11  1  0.50000000  0.00000000  0.17219000  1
  Fe  Fe0  1  0.50000000  0.00000000  0.67027600  1
  Fe  Fe1  1  0.50000000  0.50000000  0.17027600  1
loop_
_geom_bond_atom_site_label_1
_geom_bond_atom_site_label_2
_geom_bond_distance
_geom_bond_site_symmetry_2
Mg0 Mg1 3.018532 1_565
Mg0 Mg9 3.021106 1_455
Mg0 Mg9 3.021106 1_555
Mg0 Y0 3.103057 1_565
Mg0 Mg8 3.141161 1_565
Mg0 Mg5 3.173425 1_555
Mg0 Mg5 3.173425 1_455
Mg0 Mg1 3.306153 1_555
Mg0 Mg2 3.362176 1_555
Mg0 Y1 3.400147 1_555
Mg1 Mg10 3.021106 1_455
Mg1 Mg10 3.021106 1_555
Mg1 Y0 3.103057 1_555
Mg1 Mg8 3.141161 1_555
Mg1 Mg5 3.173425 1_555
Mg1 Mg5 3.173425 1_455
Mg1 Mg2 3.362176 1_555
Mg1 Y1 3.400147 1_555
Mg2 Mg5 3.097283 1_455
Mg2 Mg5 3.097283 1_555
Mg2 Mg3 3.109236 1_555
Mg2 Mg3 3.109236 1_455
Mg2 Mg4 3.109236 1_455
Mg2 Mg4 3.109236 1_555
Mg2 Mg6 3.141161 1_556
Mg2 Mg7 3.141161 1_556
Mg2 Y0 3.169741 1_555
Mg2 Y0 3.169741 1_565
Mg3 Mg6 3.021106 1_556
Mg3 Mg6 3.021106 1_656
Mg3 Mg4 3.109671 1_555
Mg3 Y0 3.213981 1_655
Mg3 Y0 3.213981 1_555
Mg3 Mg4 3.215014 1_545
Mg3 Mg5 3.278249 1_555
Mg4 Mg7 3.021106 1_656
Mg4 Mg7 3.021106 1_556
Mg4 Y0 3.213981 1_565
Mg4 Y0 3.213981 1_665
Mg4 Mg5 3.278249 1_555
Mg5 Mg9 3.225572 1_555
Mg6 Mg7 3.018532 1_555
Mg6 Y1 3.103057 1_555
Mg6 Mg7 3.306153 1_545
Mg6 Mg8 3.362176 1_555
Mg6 Y0 3.400147 1_554
Mg7 Y1 3.103057 1_555
Mg7 Mg8 3.362176 1_565
Mg7 Y0 3.400147 1_564
Mg8 Mg9 3.109236 1_545
Mg8 Mg9 3.109236 1_445
Mg8 Y1 3.169741 1_555
Mg8 Y1 3.169741 1_545
Mg9 Y1 3.213981 1_555
Mg9 Y1 3.213981 1_655
Mg10 Mg8 3.109236 1_555
Mg10 Mg8 3.109236 1_655
Mg10 Mg9 3.109671 1_545
Mg10 Y1 3.213981 1_555
Mg10 Y1 3.213981 1_655
Mg10 Mg9 3.215014 1_555
Mg10 Mg5 3.225572 1_555
Mg10 Mg11 3.278249 1_555
Mg11 Mg8 3.097283 1_555
Mg11 Mg8 3.097283 1_655
Mg11 Mg7 3.173425 1_545
Mg11 Mg7 3.173425 1_645
Mg11 Mg6 3.173425 1_555
Mg11 Mg6 3.173425 1_655
Mg11 Mg4 3.225572 1_544
Mg11 Mg3 3.225572 1_554
Mg11 Mg9 3.278249 1_545
Fe0 Y0 2.985150 1_555
Fe0 Y0 2.985150 1_655
Fe0 Mg1 3.093443 1_555
Fe0 Mg1 3.093443 1_655
Fe0 Mg0 3.093443 1_645
Fe0 Mg0 3.093443 1_545
Fe0 Mg5 3.162417 1_555
Fe0 Mg5 3.162417 1_545
Fe0 Mg9 3.180654 1_545
Fe0 Mg10 3.180654 1_555
Fe0 Mg4 3.322577 1_545
Fe0 Mg3 3.322577 1_555
Fe1 Y1 2.985150 1_555
Fe1 Y1 2.985150 1_655
Fe1 Mg6 3.093443 1_655
Fe1 Mg6 3.093443 1_555
Fe1 Mg7 3.093443 1_655
Fe1 Mg7 3.093443 1_555
Fe1 Mg11 3.162417 1_565
Fe1 Mg11 3.162417 1_555
Fe1 Mg3 3.180654 1_554
Fe1 Mg4 3.180654 1_554
Fe1 Mg9 3.322577 1_555
Fe1 Mg10 3.322577 1_555
