# generated using pymatgen
data_Li3Lu
_symmetry_space_group_name_H-M   'P 1'
_cell_length_a   6.41617924
_cell_length_b   6.41617924
_cell_length_c   5.00358000
_cell_angle_alpha   90.00000000
_cell_angle_beta   90.00000000
_cell_angle_gamma   119.99999218
_symmetry_Int_Tables_number   1
_chemical_formula_structural   Li3Lu
_chemical_formula_sum   'Li6 Lu2'
_cell_volume   178.38752892
_cell_formula_units_Z   2
loop_
 _symmetry_equiv_pos_site_id
 _symmetry_equiv_pos_as_xyz
  1  'x, y, z'
loop_
 _atom_site_type_symbol
 _atom_site_label
 _atom_site_symmetry_multiplicity
 _atom_site_fract_x
 _atom_site_fract_y
 _atom_site_fract_z
 _atom_site_occupancy
  Li  Li0  1  0.84700100  0.15299900  0.75000000  1
  Li  Li1  1  0.30599900  0.15299900  0.75000000  1
  Li  Li2  1  0.84700100  0.69400100  0.75000000  1
  Li  Li3  1  0.15299900  0.84700100  0.25000000  1
  Li  Li4  1  0.69400100  0.84700100  0.25000000  1
  Li  Li5  1  0.15299900  0.30599900  0.25000000  1
  Lu  Lu0  1  0.66666700  0.33333300  0.25000000  1
  Lu  Lu1  1  0.33333300  0.66666700  0.75000000  1
loop_
_geom_bond_atom_site_label_1
_geom_bond_atom_site_label_2
_geom_bond_distance
_geom_bond_site_symmetry_2
Li0 Li1 2.945013 1_655
Li0 Li2 2.945013 1_545
Li0 Li5 3.024893 1_655
Li0 Li5 3.024893 1_656
Li0 Li4 3.024893 1_545
Li0 Li4 3.024893 1_546
Li0 Lu0 3.205508 1_556
Li0 Lu0 3.205508 1_555
Li0 Lu1 3.211684 1_545
Li0 Lu1 3.211684 1_655
Li1 Li2 2.945014 1_445
Li1 Li3 3.024893 1_546
Li1 Li3 3.024893 1_545
Li1 Li5 3.024899 1_555
Li1 Li5 3.024899 1_556
Li1 Lu0 3.205508 1_556
Li1 Lu0 3.205508 1_555
Li1 Lu1 3.211677 1_545
Li1 Lu1 3.211689 1_555
Li2 Li3 3.024893 1_656
Li2 Li3 3.024893 1_655
Li2 Li4 3.024899 1_555
Li2 Li4 3.024899 1_556
Li2 Lu0 3.205508 1_556
Li2 Lu0 3.205508 1_555
Li2 Lu1 3.211677 1_655
Li2 Lu1 3.211689 1_555
Li3 Li5 2.945013 1_565
Li3 Li4 2.945013 1_455
Li3 Lu1 3.205508 1_555
Li3 Lu1 3.205508 1_554
Li3 Lu0 3.211684 1_455
Li3 Lu0 3.211684 1_565
Li4 Li5 2.945014 1_665
Li4 Lu1 3.205508 1_554
Li4 Lu1 3.205508 1_555
Li4 Lu0 3.211677 1_565
Li4 Lu0 3.211689 1_555
Li5 Lu1 3.205508 1_554
Li5 Lu1 3.205508 1_555
Li5 Lu0 3.211677 1_455
Li5 Lu0 3.211689 1_555
