# generated using pymatgen
data_Ho4NiB13
_symmetry_space_group_name_H-M   'P 1'
_cell_length_a   7.30340900
_cell_length_b   7.30340900
_cell_length_c   6.87352800
_cell_angle_alpha   90.00000000
_cell_angle_beta   90.00000000
_cell_angle_gamma   90.00000000
_symmetry_Int_Tables_number   1
_chemical_formula_structural   Ho4NiB13
_chemical_formula_sum   'Ho8 Ni2 B26'
_cell_volume   366.63249211
_cell_formula_units_Z   2
loop_
 _symmetry_equiv_pos_site_id
 _symmetry_equiv_pos_as_xyz
  1  'x, y, z'
loop_
 _atom_site_type_symbol
 _atom_site_label
 _atom_site_symmetry_multiplicity
 _atom_site_fract_x
 _atom_site_fract_y
 _atom_site_fract_z
 _atom_site_occupancy
  Ho  Ho0  1  0.68447800  0.18028200  0.50000000  1
  Ho  Ho1  1  0.31552200  0.81971800  0.50000000  1
  Ho  Ho2  1  0.18447800  0.31971800  0.00000000  1
  Ho  Ho3  1  0.81552200  0.68028200  0.00000000  1
  Ho  Ho4  1  0.81971800  0.68447800  0.50000000  1
  Ho  Ho5  1  0.18028200  0.31552200  0.50000000  1
  Ho  Ho6  1  0.68028200  0.18447800  0.00000000  1
  Ho  Ho7  1  0.31971800  0.81552200  0.00000000  1
  Ni  Ni0  1  0.50000000  0.50000000  0.50000000  1
  Ni  Ni1  1  0.00000000  0.00000000  0.00000000  1
  B  B0  1  0.50000000  0.50000000  0.00000000  1
  B  B1  1  0.00000000  0.00000000  0.50000000  1
  B  B2  1  0.90746700  0.40746700  0.25000000  1
  B  B3  1  0.09253300  0.59253300  0.25000000  1
  B  B4  1  0.40746700  0.09253300  0.75000000  1
  B  B5  1  0.59253300  0.90746700  0.75000000  1
  B  B6  1  0.59253300  0.90746700  0.25000000  1
  B  B7  1  0.40746700  0.09253300  0.25000000  1
  B  B8  1  0.90746700  0.40746700  0.75000000  1
  B  B9  1  0.09253300  0.59253300  0.75000000  1
  B  B10  1  0.53997300  0.67037200  0.24300900  1
  B  B11  1  0.46002700  0.32962800  0.24300900  1
  B  B12  1  0.03997300  0.82962800  0.74300900  1
  B  B13  1  0.96002700  0.17037200  0.74300900  1
  B  B14  1  0.32962800  0.53997300  0.24300900  1
  B  B15  1  0.67037200  0.46002700  0.24300900  1
  B  B16  1  0.17037200  0.03997300  0.74300900  1
  B  B17  1  0.82962800  0.96002700  0.74300900  1
  B  B18  1  0.46002700  0.32962800  0.75699100  1
  B  B19  1  0.53997300  0.67037200  0.75699100  1
  B  B20  1  0.96002700  0.17037200  0.25699100  1
  B  B21  1  0.03997300  0.82962800  0.25699100  1
  B  B22  1  0.67037200  0.46002700  0.75699100  1
  B  B23  1  0.32962800  0.53997300  0.75699100  1
  B  B24  1  0.82962800  0.96002700  0.25699100  1
  B  B25  1  0.17037200  0.03997300  0.25699100  1
loop_
_geom_bond_atom_site_label_1
_geom_bond_atom_site_label_2
_geom_bond_distance
_geom_bond_site_symmetry_2
Ho0 Ni0 2.695856 1_555
Ho1 Ni0 2.695856 1_555
Ho2 Ni1 2.695856 1_555
Ho3 Ni1 2.695856 1_665
Ho4 Ni0 2.695856 1_555
Ho5 Ni0 2.695856 1_555
Ho6 Ni1 2.695856 1_655
Ho7 Ni1 2.695856 1_565
B0 B10 2.103212 1_555
B0 B15 2.103212 1_555
B0 B19 2.103212 1_554
B0 B23 2.103212 1_554
B0 B14 2.103212 1_555
B0 B11 2.103212 1_555
B0 B18 2.103212 1_554
B0 B22 2.103212 1_554
B0 Ho2 2.654020 1_555
B0 Ho3 2.654020 1_555
B0 Ho7 2.654020 1_555
B0 Ho6 2.654020 1_555
B1 B21 2.103212 1_545
B1 B24 2.103212 1_445
B1 B25 2.103212 1_555
B1 B20 2.103212 1_455
B1 B16 2.103212 1_555
B1 B17 2.103212 1_445
B1 B12 2.103212 1_545
B1 B13 2.103212 1_455
B1 Ho4 2.654020 1_445
B1 Ho0 2.654020 1_455
B1 Ho1 2.654020 1_545
B1 Ho5 2.654020 1_555
B2 B20 1.774291 1_555
B2 B3 1.911469 1_655
B2 Ho5 2.715463 1_655
B2 Ho3 2.715463 1_555
B2 Ho2 2.730674 1_655
B2 Ho4 2.730674 1_555
B2 Ho0 2.891044 1_555
B2 Ho6 2.891044 1_555
B3 Ho2 2.715463 1_555
B3 Ho4 2.715463 1_455
B3 Ho5 2.730674 1_555
B3 Ho3 2.730674 1_455
B3 Ho1 2.891044 1_555
B3 Ho7 2.891044 1_555
B4 B5 1.911469 1_545
B4 Ho6 2.715463 1_556
B4 Ho1 2.715463 1_545
B4 Ho0 2.730674 1_555
B4 Ho7 2.730674 1_546
B4 Ho2 2.891044 1_556
B4 Ho5 2.891044 1_555
B5 Ho7 2.715463 1_556
B5 Ho0 2.715463 1_565
B5 Ho6 2.730674 1_566
B5 Ho1 2.730674 1_555
B5 Ho4 2.891044 1_555
B5 Ho3 2.891044 1_556
B6 B7 1.911469 1_565
B6 Ho7 2.715463 1_555
B6 Ho0 2.715463 1_565
B6 Ho6 2.730674 1_565
B6 Ho1 2.730674 1_555
B6 Ho3 2.891044 1_555
B6 Ho4 2.891044 1_555
B7 Ho6 2.715463 1_555
B7 Ho1 2.715463 1_545
B7 Ho0 2.730674 1_555
B7 Ho7 2.730674 1_545
B7 Ho2 2.891044 1_555
B7 Ho5 2.891044 1_555
B8 B9 1.911469 1_655
B8 Ho5 2.715463 1_655
B8 Ho3 2.715463 1_556
B8 Ho2 2.730674 1_656
B8 Ho4 2.730674 1_555
B8 Ho0 2.891044 1_555
B8 Ho6 2.891044 1_556
B9 Ho2 2.715463 1_556
B9 Ho4 2.715463 1_455
B9 Ho5 2.730674 1_555
B9 Ho3 2.730674 1_456
B9 Ho1 2.891044 1_555
B9 Ho7 2.891044 1_556
B10 B6 1.774291 1_555
B10 B15 1.807486 1_555
B10 B14 1.807486 1_555
B10 Ni0 2.180320 1_555
B10 Ho7 2.549789 1_555
B10 Ho3 2.616330 1_555
B10 Ho1 2.645214 1_555
B10 Ho4 2.702801 1_555
B11 B7 1.774291 1_555
B11 B15 1.807486 1_555
B11 B14 1.807486 1_555
B11 Ni0 2.180320 1_555
B11 Ho6 2.549789 1_555
B11 Ho2 2.616330 1_555
B11 Ho0 2.645214 1_555
B11 Ho5 2.702801 1_555
B12 B9 1.774291 1_555
B12 B17 1.807486 1_455
B12 B16 1.807486 1_565
B12 Ni1 2.180320 1_566
B12 Ho4 2.549789 1_455
B12 Ho1 2.616330 1_555
B12 Ho3 2.645214 1_456
B12 Ho7 2.702801 1_556
B13 B8 1.774291 1_555
B13 B17 1.807486 1_545
B13 B16 1.807486 1_655
B13 Ni1 2.180320 1_656
B13 Ho5 2.549789 1_655
B13 Ho0 2.616330 1_555
B13 Ho2 2.645214 1_656
B13 Ho6 2.702801 1_556
B14 B3 1.774291 1_555
B14 Ni0 2.180320 1_555
B14 Ho2 2.549789 1_555
B14 Ho7 2.616330 1_555
B14 Ho5 2.645214 1_555
B14 Ho1 2.702801 1_555
B15 B2 1.774291 1_555
B15 Ni0 2.180320 1_555
B15 Ho3 2.549789 1_555
B15 Ho6 2.616330 1_555
B15 Ho4 2.645214 1_555
B15 Ho0 2.702801 1_555
B16 B4 1.774291 1_555
B16 Ni1 2.180320 1_556
B16 Ho1 2.549789 1_545
B16 Ho5 2.616330 1_555
B16 Ho7 2.645214 1_546
B16 Ho2 2.702801 1_556
B17 B5 1.774291 1_555
B17 Ni1 2.180320 1_666
B17 Ho0 2.549789 1_565
B17 Ho4 2.616330 1_555
B17 Ho6 2.645214 1_566
B17 Ho3 2.702801 1_556
B18 B4 1.774291 1_555
B18 B22 1.807486 1_555
B18 B23 1.807486 1_555
B18 Ni0 2.180320 1_555
B18 Ho6 2.549789 1_556
B18 Ho2 2.616330 1_556
B18 Ho0 2.645214 1_555
B18 Ho5 2.702801 1_555
B19 B5 1.774291 1_555
B19 B22 1.807486 1_555
B19 B23 1.807486 1_555
B19 Ni0 2.180320 1_555
B19 Ho7 2.549789 1_556
B19 Ho3 2.616330 1_556
B19 Ho1 2.645214 1_555
B19 Ho4 2.702801 1_555
B20 B24 1.807486 1_545
B20 B25 1.807486 1_655
B20 Ni1 2.180320 1_655
B20 Ho5 2.549789 1_655
B20 Ho0 2.616330 1_555
B20 Ho2 2.645214 1_655
B20 Ho6 2.702801 1_555
B21 B3 1.774291 1_555
B21 B24 1.807486 1_455
B21 B25 1.807486 1_565
B21 Ni1 2.180320 1_565
B21 Ho4 2.549789 1_455
B21 Ho1 2.616330 1_555
B21 Ho3 2.645214 1_455
B21 Ho7 2.702801 1_555
B22 B8 1.774291 1_555
B22 Ni0 2.180320 1_555
B22 Ho3 2.549789 1_556
B22 Ho6 2.616330 1_556
B22 Ho4 2.645214 1_555
B22 Ho0 2.702801 1_555
B23 B9 1.774291 1_555
B23 Ni0 2.180320 1_555
B23 Ho2 2.549789 1_556
B23 Ho7 2.616330 1_556
B23 Ho5 2.645214 1_555
B23 Ho1 2.702801 1_555
B24 B6 1.774291 1_555
B24 Ni1 2.180320 1_665
B24 Ho0 2.549789 1_565
B24 Ho4 2.616330 1_555
B24 Ho6 2.645214 1_565
B24 Ho3 2.702801 1_555
B25 B7 1.774291 1_555
B25 Ni1 2.180320 1_555
B25 Ho1 2.549789 1_545
B25 Ho5 2.616330 1_555
B25 Ho7 2.645214 1_545
B25 Ho2 2.702801 1_555
