# generated using pymatgen
data_ZnCuP2O7
_symmetry_space_group_name_H-M   'P 1'
_cell_length_a   8.29382000
_cell_length_b   6.99091800
_cell_length_c   9.34012987
_cell_angle_alpha   70.44881206
_cell_angle_beta   90.00000000
_cell_angle_gamma   90.00000000
_symmetry_Int_Tables_number   1
_chemical_formula_structural   ZnCuP2O7
_chemical_formula_sum   'Zn4 Cu4 P8 O28'
_cell_volume   510.32951681
_cell_formula_units_Z   4
loop_
 _symmetry_equiv_pos_site_id
 _symmetry_equiv_pos_as_xyz
  1  'x, y, z'
loop_
 _atom_site_type_symbol
 _atom_site_label
 _atom_site_symmetry_multiplicity
 _atom_site_fract_x
 _atom_site_fract_y
 _atom_site_fract_z
 _atom_site_occupancy
  Zn  Zn0  1  0.94010000  0.31107400  0.81421100  1
  Zn  Zn1  1  0.44010000  0.68892600  0.68578900  1
  Zn  Zn2  1  0.55990000  0.31107400  0.31421100  1
  Zn  Zn3  1  0.05990000  0.68892600  0.18578900  1
  Cu  Cu0  1  0.06811000  0.76562400  0.60981900  1
  Cu  Cu1  1  0.93189000  0.23437600  0.39018100  1
  Cu  Cu2  1  0.56811000  0.23437600  0.89018100  1
  Cu  Cu3  1  0.43189000  0.76562400  0.10981900  1
  P  P0  1  0.73341600  0.92954500  0.24573600  1
  P  P1  1  0.23167300  0.46275100  0.97353100  1
  P  P2  1  0.76658400  0.92954500  0.74573600  1
  P  P3  1  0.26832700  0.46275100  0.47353100  1
  P  P4  1  0.23341600  0.07045500  0.25426400  1
  P  P5  1  0.73167300  0.53724900  0.52646900  1
  P  P6  1  0.76832700  0.53724900  0.02646900  1
  P  P7  1  0.26658400  0.07045500  0.75426400  1
  O  O0  1  0.18684700  0.25307200  0.10106200  1
  O  O1  1  0.60899000  0.88470300  0.68494700  1
  O  O2  1  0.89101000  0.88470300  0.18494700  1
  O  O3  1  0.39392700  0.44690300  0.89635200  1
  O  O4  1  0.81315300  0.74692800  0.89893800  1
  O  O5  1  0.09079600  0.04664800  0.36426700  1
  O  O6  1  0.60607300  0.55309700  0.10364800  1
  O  O7  1  0.09188700  0.50412600  0.86276100  1
  O  O8  1  0.25524400  0.62542300  0.55301200  1
  O  O9  1  0.90920400  0.95335200  0.63573300  1
  O  O10  1  0.40920400  0.04664800  0.86426700  1
  O  O11  1  0.75830200  0.11927900  0.79631600  1
  O  O12  1  0.25830200  0.88072100  0.70368400  1
  O  O13  1  0.31315300  0.25307200  0.60106200  1
  O  O14  1  0.59079600  0.95335200  0.13573300  1
  O  O15  1  0.10899000  0.11529700  0.81505300  1
  O  O16  1  0.24169800  0.88072100  0.20368400  1
  O  O17  1  0.90811300  0.49587400  0.13723900  1
  O  O18  1  0.24475600  0.62542300  0.05301200  1
  O  O19  1  0.75524400  0.37457700  0.94698800  1
  O  O20  1  0.89392700  0.55309700  0.60364800  1
  O  O21  1  0.40811300  0.50412600  0.36276100  1
  O  O22  1  0.59188700  0.49587400  0.63723900  1
  O  O23  1  0.39101000  0.11529700  0.31505300  1
  O  O24  1  0.74169800  0.11927900  0.29631600  1
  O  O25  1  0.10607300  0.44690300  0.39635200  1
  O  O26  1  0.74475600  0.37457700  0.44698800  1
  O  O27  1  0.68684700  0.74692800  0.39893800  1
loop_
_geom_bond_atom_site_label_1
_geom_bond_atom_site_label_2
_geom_bond_distance
_geom_bond_site_symmetry_2
Cu0 O9 1.931455 1_455
Cu0 O8 1.999781 1_555
Cu0 O20 2.086890 1_455
Cu0 O12 2.091997 1_555
Cu0 O7 2.464079 1_555
Cu0 O5 2.477795 1_565
Cu1 O5 1.931455 1_655
Cu1 O26 1.999781 1_555
Cu1 O25 2.086890 1_655
Cu1 O24 2.091997 1_555
Cu1 O17 2.464079 1_555
Cu1 O9 2.477795 1_545
Cu2 O10 1.931455 1_555
Cu2 O19 1.999781 1_555
Cu2 O3 2.086890 1_555
Cu2 O11 2.091997 1_555
Cu2 O22 2.464079 1_555
Cu2 O14 2.477795 1_546
Cu3 O14 1.931455 1_555
Cu3 O18 1.999781 1_555
Cu3 O6 2.086890 1_555
Cu3 O16 2.091997 1_555
Cu3 O21 2.464079 1_555
Cu3 O10 2.477795 1_564
O0 P1 1.592845 1_554
O0 P4 1.613664 1_555
O1 P2 1.499390 1_555
O1 Zn1 1.956572 1_555
O2 P0 1.499390 1_555
O2 Zn3 1.956572 1_655
O3 P1 1.547997 1_555
O3 Zn1 2.156412 1_555
O4 P6 1.592845 1_556
O4 P2 1.613664 1_555
O5 P4 1.538849 1_555
O6 P6 1.547997 1_555
O6 Zn2 2.156412 1_555
O7 P1 1.515882 1_555
O7 Zn0 2.005368 1_455
O8 P3 1.556022 1_555
O8 Zn1 2.110484 1_555
O9 P2 1.538849 1_555
O10 P7 1.538849 1_555
O11 P2 1.551348 1_545
O11 Zn0 2.061358 1_555
O12 P7 1.551348 1_565
O12 Zn1 2.061358 1_555
O13 P3 1.592845 1_555
O13 P7 1.613664 1_555
O14 P0 1.538849 1_555
O15 P7 1.499390 1_555
O15 Zn0 1.956572 1_455
O16 P4 1.551348 1_565
O16 Zn3 2.061358 1_555
O17 P6 1.515882 1_555
O17 Zn3 2.005368 1_655
O18 P1 1.556022 1_554
O18 Zn3 2.110484 1_555
O19 P6 1.556022 1_556
O19 Zn0 2.110484 1_555
O20 P5 1.547997 1_555
O20 Zn0 2.156412 1_555
O21 P3 1.515882 1_555
O21 Zn2 2.005368 1_555
O22 P5 1.515882 1_555
O22 Zn1 2.005368 1_555
O23 P4 1.499390 1_555
O23 Zn2 1.956572 1_555
O24 P0 1.551348 1_545
O24 Zn2 2.061358 1_555
O25 P3 1.547997 1_555
O25 Zn3 2.156412 1_555
O26 P5 1.556022 1_555
O26 Zn2 2.110484 1_555
O27 P5 1.592845 1_555
O27 P0 1.613664 1_555
