# generated using pymatgen
data_Na3YC2(O3F)2
_symmetry_space_group_name_H-M   'P 1'
_cell_length_a   15.06434900
_cell_length_b   7.13273800
_cell_length_c   7.92172054
_cell_angle_alpha   57.35263583
_cell_angle_beta   90.00000000
_cell_angle_gamma   90.00000000
_symmetry_Int_Tables_number   1
_chemical_formula_structural   Na3YC2(O3F)2
_chemical_formula_sum   'Na12 Y4 C8 O24 F8'
_cell_volume   716.70712181
_cell_formula_units_Z   4
loop_
 _symmetry_equiv_pos_site_id
 _symmetry_equiv_pos_as_xyz
  1  'x, y, z'
loop_
 _atom_site_type_symbol
 _atom_site_label
 _atom_site_symmetry_multiplicity
 _atom_site_fract_x
 _atom_site_fract_y
 _atom_site_fract_z
 _atom_site_occupancy
  Na  Na0  1  0.50000000  0.50000000  0.50000000  1
  Na  Na1  1  0.00000000  0.50000000  0.00000000  1
  Na  Na2  1  0.00688900  0.74435800  0.24337900  1
  Na  Na3  1  0.49311100  0.74435800  0.74337900  1
  Na  Na4  1  0.99311100  0.25564200  0.75662100  1
  Na  Na5  1  0.50688900  0.25564200  0.25662100  1
  Na  Na6  1  0.50000000  0.00000000  0.00000000  1
  Na  Na7  1  0.00000000  0.00000000  0.50000000  1
  Na  Na8  1  0.18739800  0.37534100  0.37306900  1
  Na  Na9  1  0.31260200  0.37534100  0.87306900  1
  Na  Na10  1  0.81260200  0.62465900  0.62693100  1
  Na  Na11  1  0.68739800  0.62465900  0.12693100  1
  Y  Y0  1  0.21346900  0.87658100  0.87078700  1
  Y  Y1  1  0.28653100  0.87658100  0.37078700  1
  Y  Y2  1  0.78653100  0.12341900  0.12921300  1
  Y  Y3  1  0.71346900  0.12341900  0.62921300  1
  C  C0  1  0.86781100  0.35646500  0.39211100  1
  C  C1  1  0.63218900  0.35646500  0.89211100  1
  C  C2  1  0.13218900  0.64353500  0.60788900  1
  C  C3  1  0.36781100  0.64353500  0.10788900  1
  C  C4  1  0.13634300  0.11173400  0.13178000  1
  C  C5  1  0.36365700  0.11173400  0.63178000  1
  C  C6  1  0.86365700  0.88826600  0.86822000  1
  C  C7  1  0.63634300  0.88826600  0.36822000  1
  O  O0  1  0.05623800  0.14217500  0.07300100  1
  O  O1  1  0.44376200  0.14217500  0.57300100  1
  O  O2  1  0.94376200  0.85782500  0.92699900  1
  O  O3  1  0.55623800  0.85782500  0.42699900  1
  O  O4  1  0.29990600  0.06372100  0.54600600  1
  O  O5  1  0.20009400  0.06372100  0.04600600  1
  O  O6  1  0.70009400  0.93627900  0.45399400  1
  O  O7  1  0.79990600  0.93627900  0.95399400  1
  O  O8  1  0.15951700  0.63631200  0.45524700  1
  O  O9  1  0.34048300  0.63631200  0.95524700  1
  O  O10  1  0.84048300  0.36368800  0.54475300  1
  O  O11  1  0.65951700  0.36368800  0.04475300  1
  O  O12  1  0.19394000  0.68159700  0.70342200  1
  O  O13  1  0.30606000  0.68159700  0.20342200  1
  O  O14  1  0.80606000  0.31840300  0.29657800  1
  O  O15  1  0.69394000  0.31840300  0.79657800  1
  O  O16  1  0.95012300  0.37707200  0.34479800  1
  O  O17  1  0.54987700  0.37707200  0.84479800  1
  O  O18  1  0.04987700  0.62292800  0.65520200  1
  O  O19  1  0.45012300  0.62292800  0.15520200  1
  O  O20  1  0.16130800  0.11690000  0.28692500  1
  O  O21  1  0.33869200  0.11690000  0.78692500  1
  O  O22  1  0.83869200  0.88310000  0.71307500  1
  O  O23  1  0.66130800  0.88310000  0.21307500  1
  F  F0  1  0.11121000  0.10719300  0.66591800  1
  F  F1  1  0.38879000  0.10719300  0.16591800  1
  F  F2  1  0.88879000  0.89280700  0.33408200  1
  F  F3  1  0.61121000  0.89280700  0.83408200  1
  F  F4  1  0.11798000  0.63797100  0.08620800  1
  F  F5  1  0.38202000  0.63797100  0.58620800  1
  F  F6  1  0.88202000  0.36202900  0.91379200  1
  F  F7  1  0.61798000  0.36202900  0.41379200  1
loop_
_geom_bond_atom_site_label_1
_geom_bond_atom_site_label_2
_geom_bond_distance
_geom_bond_site_symmetry_2
Na0 O3 2.444131 1_555
Na0 O1 2.444131 1_555
Na0 O19 2.491967 1_555
Na0 O17 2.491967 1_555
Na1 O2 2.444131 1_454
Na1 O0 2.444131 1_555
Na1 O16 2.491967 1_455
Na1 O18 2.491967 1_554
Na2 O2 2.377446 1_454
Na2 O16 2.443149 1_455
Na2 O0 2.508743 1_565
Na2 O8 2.702180 1_555
Na3 O3 2.377446 1_555
Na3 O17 2.443149 1_555
Na3 O1 2.508743 1_565
Na3 O9 2.702180 1_555
Na4 O0 2.377446 1_656
Na4 O18 2.443149 1_655
Na4 O2 2.508743 1_545
Na4 O10 2.702180 1_555
Na5 O1 2.377446 1_555
Na5 O19 2.443149 1_555
Na5 O3 2.508743 1_545
Na5 O11 2.702180 1_555
Na6 O19 2.396271 1_545
Na6 O17 2.396271 1_554
Na6 O23 2.816153 1_545
Na6 O21 2.816153 1_554
Na7 O16 2.396271 1_455
Na7 O18 2.396271 1_545
Na7 O22 2.816153 1_445
Na7 O20 2.816153 1_555
Na8 O8 2.317882 1_555
Na8 O20 2.318510 1_555
Na8 O4 2.530688 1_555
Na8 O13 2.570185 1_555
Na9 O9 2.317882 1_555
Na9 O21 2.318510 1_555
Na9 O5 2.530688 1_556
Na9 O12 2.570185 1_555
Na10 O10 2.317882 1_555
Na10 O22 2.318510 1_555
Na10 O6 2.530688 1_555
Na10 O15 2.570185 1_555
Na11 O11 2.317882 1_555
Na11 O23 2.318510 1_555
Na11 O7 2.530688 1_554
Na11 O14 2.570185 1_555
C0 O16 1.280697 1_555
C0 O10 1.304409 1_555
C0 O14 1.316605 1_555
C1 O17 1.280697 1_555
C1 O11 1.304409 1_556
C1 O15 1.316605 1_555
C2 O18 1.280697 1_555
C2 O8 1.304409 1_555
C2 O12 1.316605 1_555
C3 O19 1.280697 1_555
C3 O9 1.304409 1_554
C3 O13 1.316605 1_555
C4 O0 1.269280 1_555
C4 O20 1.304659 1_555
C4 O5 1.323760 1_555
C5 O1 1.269280 1_555
C5 O21 1.304659 1_555
C5 O4 1.323760 1_555
C6 O2 1.269280 1_555
C6 O22 1.304659 1_555
C6 O7 1.323760 1_555
C7 O3 1.269280 1_555
C7 O23 1.304659 1_555
C7 O6 1.323760 1_555
O4 Y1 2.397501 1_545
O4 Y0 2.528110 1_545
O5 Y0 2.397501 1_544
O5 Y1 2.528110 1_545
O6 Y3 2.397501 1_565
O6 Y2 2.528110 1_565
O7 Y2 2.397501 1_566
O7 Y3 2.528110 1_565
O8 Y1 2.410098 1_555
O9 Y0 2.410098 1_555
O10 Y3 2.410098 1_555
O11 Y2 2.410098 1_555
O12 Y0 2.401675 1_555
O12 Y1 2.620917 1_555
O13 Y1 2.401675 1_555
O13 Y0 2.620917 1_554
O14 Y2 2.401675 1_555
O14 Y3 2.620917 1_555
O15 Y3 2.401675 1_555
O15 Y2 2.620917 1_556
O20 Y1 2.389449 1_545
O21 Y0 2.389449 1_545
O22 Y3 2.389449 1_565
O23 Y2 2.389449 1_565
F0 Y0 2.198255 1_545
F0 Na8 2.360069 1_555
F0 Na4 2.371379 1_455
F0 Na7 2.490586 1_555
F1 Y1 2.198255 1_545
F1 Na9 2.360069 1_554
F1 Na5 2.371379 1_555
F1 Na6 2.490586 1_555
F2 Y2 2.198255 1_565
F2 Na10 2.360069 1_555
F2 Na2 2.371379 1_655
F2 Na7 2.490586 1_665
F3 Y3 2.198255 1_565
F3 Na11 2.360069 1_556
F3 Na3 2.371379 1_555
F3 Na6 2.490586 1_566
F4 Y0 2.178156 1_554
F4 Na8 2.274591 1_555
F4 Na1 2.306237 1_555
F4 Na2 2.438448 1_555
F5 Y1 2.178156 1_555
F5 Na9 2.274591 1_555
F5 Na0 2.306237 1_555
F5 Na3 2.438448 1_555
F6 Y2 2.178156 1_556
F6 Na10 2.274591 1_555
F6 Na1 2.306237 1_656
F6 Na4 2.438448 1_555
F7 Y3 2.178156 1_555
F7 Na11 2.274591 1_555
F7 Na0 2.306237 1_555
F7 Na5 2.438448 1_555
