# generated using pymatgen
data_SrEuIn2
_symmetry_space_group_name_H-M   'P 1'
_cell_length_a   5.66366968
_cell_length_b   5.66366968
_cell_length_c   5.66366968
_cell_angle_alpha   60.00000000
_cell_angle_beta   60.00000000
_cell_angle_gamma   60.00000000
_symmetry_Int_Tables_number   1
_chemical_formula_structural   SrEuIn2
_chemical_formula_sum   'Sr1 Eu1 In2'
_cell_volume   128.46320467
_cell_formula_units_Z   1
loop_
 _symmetry_equiv_pos_site_id
 _symmetry_equiv_pos_as_xyz
  1  'x, y, z'
loop_
 _atom_site_type_symbol
 _atom_site_label
 _atom_site_symmetry_multiplicity
 _atom_site_fract_x
 _atom_site_fract_y
 _atom_site_fract_z
 _atom_site_occupancy
  Sr  Sr0  1  -0.00000000  -0.00000000  -0.00000000  1
  Eu  Eu0  1  0.50000000  0.50000000  0.50000000  1
  In  In0  1  0.25000000  0.25000000  0.25000000  1
  In  In1  1  0.75000000  0.75000000  0.75000000  1
loop_
_geom_bond_atom_site_label_1
_geom_bond_atom_site_label_2
_geom_bond_distance
_geom_bond_site_symmetry_2
Eu0 In0 3.468275 1_655
Eu0 In0 3.468275 1_565
Eu0 In1 3.468275 1_545
Eu0 In1 3.468275 1_554
Eu0 In0 3.468275 1_556
Eu0 In0 3.468275 1_555
Eu0 In1 3.468275 1_455
Eu0 In1 3.468275 1_555
In0 Sr0 3.468275 1_555
In0 Sr0 3.468275 1_556
In0 Sr0 3.468275 1_565
In0 Sr0 3.468275 1_655
In1 Sr0 3.468275 1_566
In1 Sr0 3.468275 1_656
In1 Sr0 3.468275 1_665
In1 Sr0 3.468275 1_666
