# generated using pymatgen
data_MgCo(PO3)4
_symmetry_space_group_name_H-M   'P 1'
_cell_length_a   7.28968620
_cell_length_b   7.28968620
_cell_length_c   10.07134225
_cell_angle_alpha   66.96473160
_cell_angle_beta   66.96473160
_cell_angle_gamma   70.23063238
_symmetry_Int_Tables_number   1
_chemical_formula_structural   MgCo(PO3)4
_chemical_formula_sum   'Mg2 Co2 P8 O24'
_cell_volume   442.28103260
_cell_formula_units_Z   2
loop_
 _symmetry_equiv_pos_site_id
 _symmetry_equiv_pos_as_xyz
  1  'x, y, z'
loop_
 _atom_site_type_symbol
 _atom_site_label
 _atom_site_symmetry_multiplicity
 _atom_site_fract_x
 _atom_site_fract_y
 _atom_site_fract_z
 _atom_site_occupancy
  Mg  Mg0  1  0.95320400  0.04679600  0.25000000  1
  Mg  Mg1  1  0.04679600  0.95320400  0.75000000  1
  Co  Co0  1  0.00000000  0.50000000  0.00000000  1
  Co  Co1  1  0.50000000  0.00000000  0.50000000  1
  P  P0  1  0.70464900  0.68425200  0.30568200  1
  P  P1  1  0.31574800  0.29535100  0.19431800  1
  P  P2  1  0.29535100  0.31574800  0.69431800  1
  P  P3  1  0.68425200  0.70464900  0.80568200  1
  P  P4  1  0.74537500  0.26816700  0.52405000  1
  P  P5  1  0.73183300  0.25462500  0.97595000  1
  P  P6  1  0.25462500  0.73183300  0.47595000  1
  P  P7  1  0.26816700  0.74537500  0.02405000  1
  O  O0  1  0.46737200  0.68492300  0.34988300  1
  O  O1  1  0.31507700  0.53262800  0.15011700  1
  O  O2  1  0.53262800  0.31507700  0.65011700  1
  O  O3  1  0.68492300  0.46737200  0.84988300  1
  O  O4  1  0.78482800  0.49514500  0.43587800  1
  O  O5  1  0.50485500  0.21517200  0.06412200  1
  O  O6  1  0.21517200  0.50485500  0.56412200  1
  O  O7  1  0.49514500  0.78482800  0.93587800  1
  O  O8  1  0.80690800  0.65035300  0.15535400  1
  O  O9  1  0.34964700  0.19309200  0.34464600  1
  O  O10  1  0.19309200  0.34964700  0.84464600  1
  O  O11  1  0.65035300  0.80690800  0.65535400  1
  O  O12  1  0.72128100  0.87415700  0.32504300  1
  O  O13  1  0.12584300  0.27871900  0.17495700  1
  O  O14  1  0.27871900  0.12584300  0.67495700  1
  O  O15  1  0.87415700  0.72128100  0.82504300  1
  O  O16  1  0.71518300  0.18580800  0.41783300  1
  O  O17  1  0.81419200  0.28481700  0.08216700  1
  O  O18  1  0.28481700  0.81419200  0.58216700  1
  O  O19  1  0.18580800  0.71518300  0.91783300  1
  O  O20  1  0.90660200  0.15147600  0.59808900  1
  O  O21  1  0.84852400  0.09339800  0.90191100  1
  O  O22  1  0.09339800  0.84852400  0.40191100  1
  O  O23  1  0.15147600  0.90660200  0.09808900  1
loop_
_geom_bond_atom_site_label_1
_geom_bond_atom_site_label_2
_geom_bond_distance
_geom_bond_site_symmetry_2
Mg0 O23 1.991996 1_645
Mg0 O22 1.991996 1_645
Mg0 O13 2.169847 1_655
Mg0 O12 2.169847 1_545
Mg0 O16 2.179546 1_555
Mg0 O17 2.179546 1_555
Mg1 O20 1.991996 1_465
Mg1 O21 1.991996 1_465
Mg1 O14 2.169847 1_565
Mg1 O15 2.169847 1_455
Mg1 O18 2.179546 1_555
Mg1 O19 2.179546 1_555
Co0 O8 2.050730 1_455
Co0 O10 2.050730 1_554
Co0 O19 2.127015 1_554
Co0 O17 2.127015 1_455
Co0 O13 2.141957 1_555
Co0 O15 2.141957 1_454
Co1 O9 2.050730 1_555
Co1 O11 2.050730 1_545
Co1 O18 2.127015 1_545
Co1 O16 2.127015 1_555
Co1 O12 2.141957 1_545
Co1 O14 2.141957 1_555
O0 P6 1.604428 1_555
O0 P0 1.607284 1_555
O1 P7 1.604428 1_555
O1 P1 1.607284 1_555
O2 P4 1.604428 1_555
O2 P2 1.607284 1_555
O3 P5 1.604428 1_555
O3 P3 1.607284 1_555
O4 P4 1.606593 1_555
O4 P0 1.612902 1_555
O5 P5 1.606593 1_554
O5 P1 1.612902 1_555
O6 P6 1.606593 1_555
O6 P2 1.612902 1_555
O7 P7 1.606593 1_556
O7 P3 1.612902 1_555
O8 P0 1.481182 1_555
O9 P1 1.481182 1_555
O10 P2 1.481182 1_555
O11 P3 1.481182 1_555
O12 P0 1.520668 1_555
O13 P1 1.520668 1_555
O14 P2 1.520668 1_555
O15 P3 1.520668 1_555
O16 P4 1.526272 1_555
O17 P5 1.526272 1_554
O18 P6 1.526272 1_555
O19 P7 1.526272 1_556
O20 P4 1.474478 1_555
O21 P5 1.474478 1_555
O22 P6 1.474478 1_555
O23 P7 1.474478 1_555
