# generated using pymatgen
data_Ba2Ca2EuTi3(CuO7)2
_symmetry_space_group_name_H-M   'P 1'
_cell_length_a   3.91365400
_cell_length_b   3.91365400
_cell_length_c   19.73505500
_cell_angle_alpha   90.00000000
_cell_angle_beta   90.00000000
_cell_angle_gamma   90.00000000
_symmetry_Int_Tables_number   1
_chemical_formula_structural   Ba2Ca2EuTi3(CuO7)2
_chemical_formula_sum   'Ba2 Ca2 Eu1 Ti3 Cu2 O14'
_cell_volume   302.27567283
_cell_formula_units_Z   1
loop_
 _symmetry_equiv_pos_site_id
 _symmetry_equiv_pos_as_xyz
  1  'x, y, z'
loop_
 _atom_site_type_symbol
 _atom_site_label
 _atom_site_symmetry_multiplicity
 _atom_site_fract_x
 _atom_site_fract_y
 _atom_site_fract_z
 _atom_site_occupancy
  Ba  Ba0  1  0.50000000  0.50000000  0.30490900  1
  Ba  Ba1  1  0.50000000  0.50000000  0.69509100  1
  Ca  Ca0  1  0.50000000  0.50000000  0.10169600  1
  Ca  Ca1  1  0.50000000  0.50000000  0.89830400  1
  Eu  Eu0  1  0.50000000  0.50000000  0.50000000  1
  Ti  Ti0  1  0.00000000  0.00000000  0.19787500  1
  Ti  Ti1  1  0.00000000  0.00000000  0.80212500  1
  Ti  Ti2  1  0.00000000  0.00000000  0.00000000  1
  Cu  Cu0  1  0.00000000  0.00000000  0.40917000  1
  Cu  Cu1  1  0.00000000  0.00000000  0.59083000  1
  O  O0  1  0.00000000  0.50000000  0.19254700  1
  O  O1  1  0.00000000  0.50000000  0.80745300  1
  O  O2  1  0.50000000  0.00000000  0.19254700  1
  O  O3  1  0.50000000  0.00000000  0.80745300  1
  O  O4  1  0.00000000  0.50000000  0.00000000  1
  O  O5  1  0.50000000  0.00000000  0.00000000  1
  O  O6  1  0.00000000  0.50000000  0.42483400  1
  O  O7  1  0.00000000  0.50000000  0.57516600  1
  O  O8  1  0.50000000  0.00000000  0.42483400  1
  O  O9  1  0.50000000  0.00000000  0.57516600  1
  O  O10  1  0.00000000  0.00000000  0.09758200  1
  O  O11  1  0.00000000  0.00000000  0.90241800  1
  O  O12  1  0.00000000  0.00000000  0.29585600  1
  O  O13  1  0.00000000  0.00000000  0.70414400  1
loop_
_geom_bond_atom_site_label_1
_geom_bond_atom_site_label_2
_geom_bond_distance
_geom_bond_site_symmetry_2
Ba0 O12 2.773132 1_565
Ba0 O12 2.773132 1_655
Ba0 O12 2.773132 1_665
Ba0 O12 2.773132 1_555
Ba0 O0 2.957422 1_655
Ba0 O2 2.957422 1_555
Ba0 O2 2.957422 1_565
Ba0 O0 2.957422 1_555
Ba0 O8 3.070923 1_565
Ba0 O8 3.070923 1_555
Ba0 O6 3.070923 1_555
Ba0 O6 3.070923 1_655
Ba1 O13 2.773132 1_655
Ba1 O13 2.773132 1_565
Ba1 O13 2.773132 1_555
Ba1 O13 2.773132 1_665
Ba1 O3 2.957422 1_565
Ba1 O1 2.957422 1_555
Ba1 O1 2.957422 1_655
Ba1 O3 2.957422 1_555
Ba1 O9 3.070923 1_555
Ba1 O9 3.070923 1_565
Ba1 O7 3.070923 1_555
Ba1 O7 3.070923 1_655
Ca0 O0 2.654023 1_655
Ca0 O2 2.654023 1_555
Ca0 O2 2.654023 1_565
Ca0 O0 2.654023 1_555
Ca0 O10 2.768562 1_555
Ca0 O10 2.768562 1_565
Ca0 O10 2.768562 1_655
Ca0 O10 2.768562 1_665
Ca0 O5 2.803056 1_555
Ca0 O4 2.803056 1_655
Ca0 O5 2.803056 1_565
Ca0 O4 2.803056 1_555
Ca1 O3 2.654023 1_555
Ca1 O3 2.654023 1_565
Ca1 O1 2.654023 1_555
Ca1 O1 2.654023 1_655
Ca1 O11 2.768562 1_555
Ca1 O11 2.768562 1_655
Ca1 O11 2.768562 1_565
Ca1 O11 2.768562 1_665
Ca1 O5 2.803056 1_556
Ca1 O5 2.803056 1_566
Ca1 O4 2.803056 1_556
Ca1 O4 2.803056 1_656
Eu0 O9 2.455537 1_555
Eu0 O9 2.455537 1_565
Eu0 O7 2.455537 1_555
Eu0 O7 2.455537 1_655
Eu0 O8 2.455537 1_555
Eu0 O6 2.455537 1_655
Eu0 O8 2.455537 1_565
Eu0 O6 2.455537 1_555
Cu0 O6 1.981094 1_555
Cu0 O8 1.981094 1_555
Cu0 O8 1.981094 1_455
Cu0 O6 1.981094 1_545
Cu0 O12 2.236258 1_555
Cu1 O9 1.981094 1_455
Cu1 O7 1.981094 1_545
Cu1 O9 1.981094 1_555
Cu1 O7 1.981094 1_555
Cu1 O13 2.236258 1_555
O0 Ti0 1.959650 1_565
O0 Ti0 1.959650 1_555
O1 Ti1 1.959650 1_555
O1 Ti1 1.959650 1_565
O2 Ti0 1.959650 1_655
O2 Ti0 1.959650 1_555
O3 Ti1 1.959650 1_555
O3 Ti1 1.959650 1_655
O4 Ti2 1.956827 1_555
O4 Ti2 1.956827 1_565
O5 Ti2 1.956827 1_555
O5 Ti2 1.956827 1_655
O10 Ti2 1.925786 1_555
O10 Ti0 1.979288 1_555
O11 Ti2 1.925786 1_556
O11 Ti1 1.979288 1_555
O12 Ti0 1.933660 1_555
O13 Ti1 1.933660 1_555
