# generated using pymatgen
data_K2ZnH12(SO7)2
_symmetry_space_group_name_H-M   'P 1'
_cell_length_a   12.26161300
_cell_length_b   7.95641800
_cell_length_c   9.57380063
_cell_angle_alpha   67.61131968
_cell_angle_beta   90.00000000
_cell_angle_gamma   90.00000000
_symmetry_Int_Tables_number   1
_chemical_formula_structural   K2ZnH12(SO7)2
_chemical_formula_sum   'K4 Zn2 H24 S4 O28'
_cell_volume   863.60166291
_cell_formula_units_Z   2
loop_
 _symmetry_equiv_pos_site_id
 _symmetry_equiv_pos_as_xyz
  1  'x, y, z'
loop_
 _atom_site_type_symbol
 _atom_site_label
 _atom_site_symmetry_multiplicity
 _atom_site_fract_x
 _atom_site_fract_y
 _atom_site_fract_z
 _atom_site_occupancy
  K  K0  1  0.68114600  0.35468300  0.83797100  1
  K  K1  1  0.18114600  0.64531700  0.66202900  1
  K  K2  1  0.31885400  0.64531700  0.16202900  1
  K  K3  1  0.81885400  0.35468300  0.33797100  1
  Zn  Zn0  1  0.50000000  0.00000000  0.50000000  1
  Zn  Zn1  1  0.00000000  0.00000000  0.00000000  1
  H  H0  1  0.13800300  0.13837900  0.75586100  1
  H  H1  1  0.20394300  0.30138800  0.96780700  1
  H  H2  1  0.63800300  0.86162100  0.74413900  1
  H  H3  1  0.89618300  0.96518800  0.64334300  1
  H  H4  1  0.96447300  0.64089600  0.85275200  1
  H  H5  1  0.39618300  0.03481200  0.85665700  1
  H  H6  1  0.01932500  0.55500900  0.14225700  1
  H  H7  1  0.53552700  0.64089600  0.35275200  1
  H  H8  1  0.48067500  0.55500900  0.64225700  1
  H  H9  1  0.03552700  0.35910400  0.14724800  1
  H  H10  1  0.78082500  0.05177700  0.61760800  1
  H  H11  1  0.71917500  0.05177700  0.11760800  1
  H  H12  1  0.70394300  0.69861200  0.53219300  1
  H  H13  1  0.51932500  0.44499100  0.35774300  1
  H  H14  1  0.36199700  0.13837900  0.25586100  1
  H  H15  1  0.98067500  0.44499100  0.85774300  1
  H  H16  1  0.10381700  0.03481200  0.35665700  1
  H  H17  1  0.60381700  0.96518800  0.14334300  1
  H  H18  1  0.21917500  0.94822300  0.38239200  1
  H  H19  1  0.46447300  0.35910400  0.64724800  1
  H  H20  1  0.29605700  0.30138800  0.46780700  1
  H  H21  1  0.86199700  0.86162100  0.24413900  1
  H  H22  1  0.79605700  0.69861200  0.03219300  1
  H  H23  1  0.28082500  0.94822300  0.88239200  1
  S  S0  1  0.12035800  0.32338100  0.51232200  1
  S  S1  1  0.37964200  0.32338100  0.01232200  1
  S  S2  1  0.87964200  0.67661900  0.48767800  1
  S  S3  1  0.62035800  0.67661900  0.98767800  1
  O  O0  1  0.97160800  0.57258400  0.78586900  1
  O  O1  1  0.14083300  0.91984100  0.37537700  1
  O  O2  1  0.02839200  0.42741600  0.21413100  1
  O  O3  1  0.50007100  0.76038500  0.48038600  1
  O  O4  1  0.38821500  0.77966400  0.42115500  1
  O  O5  1  0.87219200  0.72607300  0.30473900  1
  O  O6  1  0.12780800  0.27392700  0.69526100  1
  O  O7  1  0.62780800  0.72607300  0.80473900  1
  O  O8  1  0.64083300  0.08015900  0.12462300  1
  O  O9  1  0.85462800  0.03985900  0.08728600  1
  O  O10  1  0.85916700  0.08015900  0.62462300  1
  O  O11  1  0.35462800  0.96014100  0.41271400  1
  O  O12  1  0.61178500  0.22033600  0.57884500  1
  O  O13  1  0.47160800  0.42741600  0.71413100  1
  O  O14  1  0.35916700  0.91984100  0.87537700  1
  O  O15  1  0.00007100  0.23961500  0.01961400  1
  O  O16  1  0.25403300  0.40297200  0.95282300  1
  O  O17  1  0.99992900  0.76038500  0.98038600  1
  O  O18  1  0.75403300  0.59702800  0.54717700  1
  O  O19  1  0.37219200  0.27392700  0.19526100  1
  O  O20  1  0.24596700  0.40297200  0.45282200  1
  O  O21  1  0.52839200  0.57258400  0.28586900  1
  O  O22  1  0.14537200  0.96014100  0.91271400  1
  O  O23  1  0.74596700  0.59702800  0.04717700  1
  O  O24  1  0.11178500  0.77966400  0.92115500  1
  O  O25  1  0.64537200  0.03985900  0.58728600  1
  O  O26  1  0.49992900  0.23961500  0.51961400  1
  O  O27  1  0.88821500  0.22033600  0.07884500  1
loop_
_geom_bond_atom_site_label_1
_geom_bond_atom_site_label_2
_geom_bond_distance
_geom_bond_site_symmetry_2
K0 O13 2.796263 1_555
K0 O8 2.824950 1_556
K0 O18 2.859729 1_555
K0 O7 2.923084 1_555
K0 O12 3.168667 1_555
K0 O27 3.321043 1_556
K0 O23 3.362027 1_556
K1 O0 2.796263 1_455
K1 O1 2.824950 1_555
K1 O16 2.859729 1_555
K1 O6 2.923084 1_555
K1 O24 3.168667 1_555
K1 O4 3.321043 1_555
K1 O20 3.362035 1_555
K2 O21 2.796263 1_555
K2 O14 2.824950 1_554
K2 O20 2.859722 1_555
K2 O19 2.923084 1_555
K2 O4 3.168667 1_555
K2 O24 3.321043 1_554
K2 O16 3.362027 1_554
K3 O2 2.796263 1_655
K3 O10 2.824950 1_555
K3 O23 2.859729 1_555
K3 O5 2.923084 1_555
K3 O27 3.168667 1_555
K3 O12 3.321043 1_555
K3 O18 3.362027 1_555
H0 O6 1.019163 1_555
H0 O22 1.628511 1_545
H1 O16 0.981191 1_555
H2 O7 1.019163 1_555
H2 O25 1.628511 1_565
H3 O10 0.974688 1_565
H4 O0 0.989041 1_555
H5 O14 0.974688 1_545
H6 O2 0.992122 1_555
H7 O21 0.989041 1_555
H8 O13 0.992122 1_555
H9 O2 0.989041 1_555
H10 O10 0.994891 1_555
H10 O25 1.694913 1_555
H10 K3 2.877153 1_555
H11 O8 0.994891 1_555
H11 O9 1.694913 1_555
H11 K0 2.877153 1_554
H12 O18 0.981191 1_555
H13 O21 0.992122 1_555
H14 O19 1.019163 1_555
H14 O11 1.628511 1_545
H15 O0 0.992122 1_555
H16 O1 0.974688 1_545
H17 O8 0.974688 1_565
H18 O1 0.994891 1_555
H18 O11 1.694913 1_555
H18 K1 2.877153 1_555
H19 O13 0.989041 1_555
H20 O20 0.981190 1_555
H21 O5 1.019163 1_555
H21 O9 1.628511 1_565
H22 O23 0.981191 1_555
H23 O14 0.994891 1_555
H23 O22 1.694913 1_555
H23 K2 2.877153 1_556
O3 O4 1.469673 1_555
O3 Zn0 1.985606 1_565
O5 S2 1.644893 1_555
O6 S0 1.644893 1_555
O7 S3 1.644893 1_555
O9 Zn1 2.044033 1_655
O11 O4 1.466182 1_555
O11 Zn0 2.044033 1_565
O12 O25 1.466182 1_555
O12 O26 1.469673 1_555
O15 O27 1.469673 1_455
O15 Zn1 1.985606 1_555
O16 S1 1.680127 1_556
O17 O24 1.469673 1_655
O17 Zn1 1.985606 1_666
O18 S2 1.680127 1_555
O19 S1 1.644893 1_555
O20 S0 1.680129 1_555
O22 O24 1.466182 1_555
O22 Zn1 2.044033 1_566
O23 S3 1.680127 1_554
O25 Zn0 2.044033 1_555
O26 Zn0 1.985606 1_555
O27 O9 1.466182 1_555
