# generated using pymatgen
data_Zr6Zn16Cu7
_symmetry_space_group_name_H-M   'P 1'
_cell_length_a   8.61625028
_cell_length_b   8.61625028
_cell_length_c   8.61625028
_cell_angle_alpha   60.00000000
_cell_angle_beta   60.00000000
_cell_angle_gamma   60.00000000
_symmetry_Int_Tables_number   1
_chemical_formula_structural   Zr6Zn16Cu7
_chemical_formula_sum   'Zr6 Zn16 Cu7'
_cell_volume   452.31388388
_cell_formula_units_Z   1
loop_
 _symmetry_equiv_pos_site_id
 _symmetry_equiv_pos_as_xyz
  1  'x, y, z'
loop_
 _atom_site_type_symbol
 _atom_site_label
 _atom_site_symmetry_multiplicity
 _atom_site_fract_x
 _atom_site_fract_y
 _atom_site_fract_z
 _atom_site_occupancy
  Zr  Zr0  1  0.69588500  0.69588500  0.30411500  1
  Zr  Zr1  1  0.30411500  0.69588500  0.30411500  1
  Zr  Zr2  1  0.69588500  0.30411500  0.30411500  1
  Zr  Zr3  1  0.30411500  0.30411500  0.69588500  1
  Zr  Zr4  1  0.69588500  0.30411500  0.69588500  1
  Zr  Zr5  1  0.30411500  0.69588500  0.69588500  1
  Zn  Zn0  1  0.88016700  0.88016700  0.35950000  1
  Zn  Zn1  1  0.88016700  0.35950000  0.88016700  1
  Zn  Zn2  1  0.35950000  0.88016700  0.88016700  1
  Zn  Zn3  1  0.88016700  0.88016700  0.88016700  1
  Zn  Zn4  1  0.11983300  0.11983300  0.64050000  1
  Zn  Zn5  1  0.11983300  0.64050000  0.11983300  1
  Zn  Zn6  1  0.64050000  0.11983300  0.11983300  1
  Zn  Zn7  1  0.11983300  0.11983300  0.11983300  1
  Zn  Zn8  1  0.66774600  0.66774600  0.99676300  1
  Zn  Zn9  1  0.66774600  0.99676300  0.66774600  1
  Zn  Zn10  1  0.99676300  0.66774600  0.66774600  1
  Zn  Zn11  1  0.66774600  0.66774600  0.66774600  1
  Zn  Zn12  1  0.33225400  0.33225400  0.00323700  1
  Zn  Zn13  1  0.33225400  0.00323700  0.33225400  1
  Zn  Zn14  1  0.00323700  0.33225400  0.33225400  1
  Zn  Zn15  1  0.33225400  0.33225400  0.33225400  1
  Cu  Cu0  1  0.00000000  0.00000000  0.00000000  1
  Cu  Cu1  1  0.00000000  0.00000000  0.50000000  1
  Cu  Cu2  1  0.50000000  0.00000000  0.50000000  1
  Cu  Cu3  1  0.00000000  0.50000000  0.50000000  1
  Cu  Cu4  1  0.50000000  0.50000000  0.00000000  1
  Cu  Cu5  1  0.00000000  0.50000000  0.00000000  1
  Cu  Cu6  1  0.50000000  0.00000000  0.00000000  1
loop_
_geom_bond_atom_site_label_1
_geom_bond_atom_site_label_2
_geom_bond_distance
_geom_bond_site_symmetry_2
Zn0 Zn9 2.716891 1_555
Zn0 Zn10 2.716891 1_555
Zn0 Zn11 2.716891 1_555
Zn0 Zn7 2.920382 1_665
Zn0 Zn5 2.920395 1_655
Zn0 Zn6 2.920395 1_565
Zn0 Zr1 3.050680 1_655
Zn0 Zr2 3.050680 1_565
Zn0 Zr0 3.050688 1_555
Zn1 Zn10 2.716891 1_555
Zn1 Zn8 2.716891 1_555
Zn1 Zn11 2.716891 1_555
Zn1 Zn7 2.920382 1_656
Zn1 Zn4 2.920395 1_655
Zn1 Zn6 2.920395 1_556
Zn1 Zr3 3.050680 1_655
Zn1 Zr2 3.050680 1_556
Zn1 Zr4 3.050688 1_555
Zn2 Zn8 2.716891 1_555
Zn2 Zn9 2.716891 1_555
Zn2 Zn7 2.920382 1_566
Zn2 Zn5 2.920395 1_556
Zn2 Zn4 2.920395 1_565
Zn2 Zr1 3.050680 1_556
Zn2 Zr3 3.050680 1_565
Zn2 Zr5 3.050688 1_555
Zn3 Zn8 2.716891 1_555
Zn3 Zn9 2.716891 1_555
Zn3 Zn4 2.920382 1_665
Zn3 Zn6 2.920382 1_566
Zn3 Zn5 2.920382 1_656
Zn3 Zr4 3.050682 1_565
Zn3 Zr5 3.050682 1_655
Zn3 Zr0 3.050682 1_556
Zn4 Zr4 3.050680 1_455
Zn4 Zr5 3.050680 1_545
Zn4 Zr3 3.050688 1_555
Zn5 Zr0 3.050680 1_455
Zn5 Zr5 3.050680 1_554
Zn5 Zr1 3.050688 1_555
Zn6 Zr4 3.050680 1_554
Zn6 Zr0 3.050680 1_545
Zn6 Zr2 3.050688 1_555
Zn7 Zr3 3.050682 1_554
Zn7 Zr1 3.050682 1_545
Zn7 Zr2 3.050682 1_455
Zn8 Zn9 2.834893 1_555
Zn8 Zr0 2.910939 1_556
Zn8 Zr2 2.910944 1_556
Zn8 Zr1 2.910944 1_556
Zn9 Zr4 2.910939 1_565
Zn9 Zr2 2.910944 1_565
Zn9 Zr3 2.910944 1_565
Zn10 Zn3 2.716891 1_555
Zn10 Zn9 2.834893 1_555
Zn10 Zn8 2.834893 1_555
Zn10 Zn11 2.834893 1_555
Zn10 Zr5 2.910939 1_655
Zn10 Zr1 2.910944 1_655
Zn10 Zr3 2.910944 1_655
Zn11 Zn2 2.716891 1_555
Zn11 Zn9 2.834893 1_555
Zn11 Zn8 2.834893 1_555
Zn11 Zr5 2.910947 1_555
Zn11 Zr0 2.910947 1_555
Zn11 Zr4 2.910947 1_555
Zn12 Zn6 2.716891 1_555
Zn12 Zn5 2.716891 1_555
Zn12 Zn7 2.716891 1_555
Zn12 Zn13 2.834893 1_555
Zn12 Zn14 2.834893 1_555
Zn12 Zn15 2.834893 1_555
Zn12 Zr3 2.910939 1_554
Zn12 Zr5 2.910944 1_554
Zn12 Zr4 2.910944 1_554
Zn13 Zn4 2.716891 1_555
Zn13 Zn6 2.716891 1_555
Zn13 Zn7 2.716891 1_555
Zn13 Zn14 2.834893 1_555
Zn13 Zn15 2.834893 1_555
Zn13 Zr1 2.910939 1_545
Zn13 Zr5 2.910944 1_545
Zn13 Zr0 2.910944 1_545
Zn14 Zn5 2.716891 1_555
Zn14 Zn4 2.716891 1_555
Zn14 Zn7 2.716891 1_555
Zn14 Zn15 2.834893 1_555
Zn14 Zr2 2.910939 1_455
Zn14 Zr4 2.910944 1_455
Zn14 Zr0 2.910944 1_455
Zn15 Zn4 2.716891 1_555
Zn15 Zn6 2.716891 1_555
Zn15 Zn5 2.716891 1_555
Zn15 Zr3 2.910947 1_555
Zn15 Zr2 2.910947 1_555
Zn15 Zr1 2.910947 1_555
Cu0 Zn3 2.529125 1_444
Cu0 Zn7 2.529125 1_555
Cu0 Zn1 2.529132 1_454
Cu0 Zn2 2.529132 1_544
Cu0 Zn0 2.529132 1_445
Cu0 Zn5 2.529132 1_545
Cu0 Zn4 2.529132 1_554
Cu0 Zn6 2.529132 1_455
Cu1 Zn14 2.487399 1_555
Cu1 Zn13 2.487399 1_555
Cu1 Zn9 2.487399 1_445
Cu1 Zn10 2.487399 1_445
Cu1 Zn4 2.676496 1_555
Cu1 Zn0 2.676496 1_445
Cu1 Zn3 2.676503 1_445
Cu1 Zn7 2.676503 1_555
Cu1 Zr5 3.116855 1_545
Cu1 Zr4 3.116855 1_455
Cu1 Zr1 3.116855 1_545
Cu1 Zr2 3.116855 1_455
Cu2 Zn15 2.487402 1_555
Cu2 Zn11 2.487402 1_545
Cu2 Zn9 2.487406 1_545
Cu2 Zn13 2.487406 1_555
Cu2 Zn4 2.676503 1_555
Cu2 Zn6 2.676503 1_555
Cu2 Zn0 2.676503 1_545
Cu2 Zn2 2.676503 1_545
Cu2 Zr5 3.116855 1_545
Cu2 Zr0 3.116855 1_545
Cu2 Zr2 3.116855 1_555
Cu2 Zr3 3.116855 1_555
Cu3 Zn15 2.487402 1_555
Cu3 Zn11 2.487402 1_455
Cu3 Zn10 2.487406 1_455
Cu3 Zn14 2.487406 1_555
Cu3 Zn4 2.676503 1_555
Cu3 Zn5 2.676503 1_555
Cu3 Zn0 2.676503 1_455
Cu3 Zn1 2.676503 1_455
Cu3 Zr1 3.116855 1_555
Cu3 Zr4 3.116855 1_455
Cu3 Zr0 3.116855 1_455
Cu3 Zr3 3.116855 1_555
Cu4 Zn11 2.487402 1_554
Cu4 Zn15 2.487402 1_555
Cu4 Zn8 2.487406 1_554
Cu4 Zn12 2.487406 1_555
Cu4 Zn6 2.676503 1_555
Cu4 Zn5 2.676503 1_555
Cu4 Zn1 2.676503 1_554
Cu4 Zn2 2.676503 1_554
Cu4 Zr1 3.116855 1_555
Cu4 Zr4 3.116855 1_554
Cu4 Zr5 3.116855 1_554
Cu4 Zr2 3.116855 1_555
Cu5 Zn14 2.487399 1_555
Cu5 Zn12 2.487399 1_555
Cu5 Zn10 2.487399 1_454
Cu5 Zn8 2.487399 1_454
Cu5 Zn5 2.676496 1_555
Cu5 Zn1 2.676496 1_454
Cu5 Zn3 2.676503 1_454
Cu5 Zn7 2.676503 1_555
Cu5 Zr2 3.116855 1_455
Cu5 Zr5 3.116855 1_554
Cu5 Zr0 3.116855 1_455
Cu5 Zr3 3.116855 1_554
Cu6 Zn12 2.487399 1_555
Cu6 Zn13 2.487399 1_555
Cu6 Zn8 2.487399 1_544
Cu6 Zn9 2.487399 1_544
Cu6 Zn2 2.676496 1_544
Cu6 Zn6 2.676496 1_555
Cu6 Zn3 2.676503 1_544
Cu6 Zn7 2.676503 1_555
Cu6 Zr4 3.116855 1_554
Cu6 Zr1 3.116855 1_545
Cu6 Zr0 3.116855 1_545
Cu6 Zr3 3.116855 1_554
