# generated using pymatgen
data_Li(NdGe)4
_symmetry_space_group_name_H-M   'P 1'
_cell_length_a   7.42507800
_cell_length_b   7.99583200
_cell_length_c   15.23108000
_cell_angle_alpha   90.00000000
_cell_angle_beta   90.00000000
_cell_angle_gamma   90.00000000
_symmetry_Int_Tables_number   1
_chemical_formula_structural   Li(NdGe)4
_chemical_formula_sum   'Li4 Nd16 Ge16'
_cell_volume   904.26428892
_cell_formula_units_Z   4
loop_
 _symmetry_equiv_pos_site_id
 _symmetry_equiv_pos_as_xyz
  1  'x, y, z'
loop_
 _atom_site_type_symbol
 _atom_site_label
 _atom_site_symmetry_multiplicity
 _atom_site_fract_x
 _atom_site_fract_y
 _atom_site_fract_z
 _atom_site_occupancy
  Li  Li0  1  0.65929800  0.97057500  0.75000000  1
  Li  Li1  1  0.15929800  0.52942500  0.75000000  1
  Li  Li2  1  0.34070200  0.02942500  0.25000000  1
  Li  Li3  1  0.84070200  0.47057500  0.25000000  1
  Nd  Nd0  1  0.52201000  0.31125500  0.10054900  1
  Nd  Nd1  1  0.02201000  0.18874500  0.39945100  1
  Nd  Nd2  1  0.47799000  0.68874500  0.60054900  1
  Nd  Nd3  1  0.97799000  0.81125500  0.89945100  1
  Nd  Nd4  1  0.47799000  0.68874500  0.89945100  1
  Nd  Nd5  1  0.97799000  0.81125500  0.60054900  1
  Nd  Nd6  1  0.52201000  0.31125500  0.39945100  1
  Nd  Nd7  1  0.02201000  0.18874500  0.10054900  1
  Nd  Nd8  1  0.82603100  0.32151300  0.62828600  1
  Nd  Nd9  1  0.32603100  0.17848700  0.87171400  1
  Nd  Nd10  1  0.17396900  0.67848700  0.12828600  1
  Nd  Nd11  1  0.67396900  0.82151300  0.37171400  1
  Nd  Nd12  1  0.17396900  0.67848700  0.37171400  1
  Nd  Nd13  1  0.67396900  0.82151300  0.12828600  1
  Nd  Nd14  1  0.82603100  0.32151300  0.87171400  1
  Nd  Nd15  1  0.32603100  0.17848700  0.62828600  1
  Ge  Ge0  1  0.65927300  0.03275300  0.53611300  1
  Ge  Ge1  1  0.15927300  0.46724700  0.96388700  1
  Ge  Ge2  1  0.34072700  0.96724700  0.03611300  1
  Ge  Ge3  1  0.84072700  0.53275300  0.46388700  1
  Ge  Ge4  1  0.34072700  0.96724700  0.46388700  1
  Ge  Ge5  1  0.84072700  0.53275300  0.03611300  1
  Ge  Ge6  1  0.65927300  0.03275300  0.96388700  1
  Ge  Ge7  1  0.15927300  0.46724700  0.53611300  1
  Ge  Ge8  1  0.51599000  0.41948000  0.75000000  1
  Ge  Ge9  1  0.01599000  0.08052000  0.75000000  1
  Ge  Ge10  1  0.48401000  0.58052000  0.25000000  1
  Ge  Ge11  1  0.98401000  0.91948000  0.25000000  1
  Ge  Ge12  1  0.77503000  0.63261900  0.75000000  1
  Ge  Ge13  1  0.27503000  0.86738100  0.75000000  1
  Ge  Ge14  1  0.22497000  0.36738100  0.25000000  1
  Ge  Ge15  1  0.72497000  0.13261900  0.25000000  1
loop_
_geom_bond_atom_site_label_1
_geom_bond_atom_site_label_2
_geom_bond_distance
_geom_bond_site_symmetry_2
Ge0 Ge4 2.660606 1_545
Ge0 Nd8 2.972364 1_555
Ge0 Nd11 3.022358 1_545
Ge0 Nd15 3.074274 1_555
Ge0 Nd5 3.114511 1_545
Ge0 Nd6 3.214080 1_555
Ge0 Nd2 3.215742 1_545
Ge0 Nd1 3.625264 1_655
Ge1 Ge5 2.660606 1_456
Ge1 Nd9 2.972364 1_555
Ge1 Nd10 3.022358 1_556
Ge1 Nd14 3.074274 1_455
Ge1 Nd4 3.114511 1_555
Ge1 Nd7 3.214080 1_556
Ge1 Nd3 3.215742 1_455
Ge1 Nd0 3.625264 1_556
Ge2 Ge6 2.660606 1_564
Ge2 Nd10 2.972364 1_555
Ge2 Nd9 3.022358 1_564
Ge2 Nd13 3.074274 1_555
Ge2 Nd7 3.114511 1_565
Ge2 Nd4 3.214080 1_554
Ge2 Nd0 3.215742 1_565
Ge2 Nd3 3.625264 1_454
Ge3 Ge7 2.660606 1_655
Ge3 Nd11 2.972364 1_555
Ge3 Nd8 3.022358 1_555
Ge3 Nd12 3.074274 1_655
Ge3 Nd6 3.114511 1_555
Ge3 Nd5 3.214080 1_555
Ge3 Nd1 3.215742 1_655
Ge3 Nd2 3.625264 1_555
Ge4 Nd12 2.972364 1_555
Ge4 Nd15 3.022358 1_565
Ge4 Nd11 3.074274 1_555
Ge4 Nd1 3.114511 1_565
Ge4 Nd2 3.214080 1_555
Ge4 Nd6 3.215742 1_565
Ge4 Nd5 3.625264 1_455
Ge5 Nd13 2.972364 1_555
Ge5 Nd14 3.022358 1_554
Ge5 Nd10 3.074274 1_655
Ge5 Nd0 3.114511 1_555
Ge5 Nd3 3.214080 1_554
Ge5 Nd7 3.215742 1_655
Ge5 Nd4 3.625264 1_554
Ge6 Nd14 2.972364 1_555
Ge6 Nd13 3.022358 1_546
Ge6 Nd9 3.074274 1_555
Ge6 Nd3 3.114511 1_545
Ge6 Nd0 3.214080 1_556
Ge6 Nd4 3.215742 1_545
Ge6 Nd7 3.625264 1_656
Ge7 Nd15 2.972364 1_555
Ge7 Nd12 3.022358 1_555
Ge7 Nd8 3.074274 1_455
Ge7 Nd2 3.114511 1_555
Ge7 Nd1 3.214080 1_555
Ge7 Nd5 3.215742 1_455
Ge7 Nd6 3.625264 1_555
Ge8 Li1 2.790554 1_555
Ge8 Nd9 3.023111 1_555
Ge8 Nd15 3.023111 1_555
Ge8 Nd14 3.057757 1_555
Ge8 Nd8 3.057757 1_555
Ge8 Nd2 3.145879 1_555
Ge8 Nd4 3.145879 1_555
Ge9 Li0 2.790554 1_445
Ge9 Nd14 3.023111 1_455
Ge9 Nd8 3.023111 1_455
Ge9 Nd9 3.057757 1_555
Ge9 Nd15 3.057757 1_555
Ge9 Nd3 3.145879 1_445
Ge9 Nd5 3.145879 1_445
Ge10 Ge14 2.569789 1_555
Ge10 Li3 2.790554 1_555
Ge10 Nd11 3.023111 1_555
Ge10 Nd13 3.023111 1_555
Ge10 Nd12 3.057757 1_555
Ge10 Nd10 3.057757 1_555
Ge10 Nd6 3.145879 1_555
Ge10 Nd0 3.145879 1_555
Ge11 Ge15 2.569789 1_565
Ge11 Li2 2.790554 1_665
Ge11 Nd12 3.023111 1_655
Ge11 Nd10 3.023111 1_655
Ge11 Nd11 3.057757 1_555
Ge11 Nd13 3.057757 1_555
Ge11 Nd7 3.145879 1_665
Ge11 Nd1 3.145879 1_665
Ge12 Ge8 2.569789 1_555
Ge12 Li0 2.835582 1_555
Ge12 Li1 2.970133 1_655
Ge12 Nd3 3.081029 1_555
Ge12 Nd5 3.081029 1_555
Ge12 Nd14 3.125383 1_555
Ge12 Nd8 3.125383 1_555
Ge12 Nd2 3.201151 1_555
Ge12 Nd4 3.201151 1_555
Ge13 Ge9 2.569789 1_565
Ge13 Li1 2.835582 1_555
Ge13 Li0 2.970133 1_555
Ge13 Nd4 3.081029 1_555
Ge13 Nd2 3.081029 1_555
Ge13 Nd9 3.125383 1_565
Ge13 Nd15 3.125383 1_565
Ge13 Nd3 3.201151 1_455
Ge13 Nd5 3.201151 1_455
Ge14 Li2 2.835582 1_555
Ge14 Li3 2.970133 1_455
Ge14 Nd1 3.081029 1_555
Ge14 Nd7 3.081029 1_555
Ge14 Nd12 3.125383 1_555
Ge14 Nd10 3.125383 1_555
Ge14 Nd6 3.201151 1_555
Ge14 Nd0 3.201151 1_555
Ge15 Li3 2.835582 1_555
Ge15 Li2 2.970133 1_555
Ge15 Nd6 3.081029 1_555
Ge15 Nd0 3.081029 1_555
Ge15 Nd13 3.125383 1_545
Ge15 Nd11 3.125383 1_545
Ge15 Nd7 3.201151 1_655
Ge15 Nd1 3.201151 1_655
