# generated using pymatgen
data_Tb4CdIr
_symmetry_space_group_name_H-M   'P 1'
_cell_length_a   9.62477353
_cell_length_b   9.62479066
_cell_length_c   9.62480290
_cell_angle_alpha   59.99991737
_cell_angle_beta   59.99985992
_cell_angle_gamma   59.99981948
_symmetry_Int_Tables_number   1
_chemical_formula_structural   Tb4CdIr
_chemical_formula_sum   'Tb16 Cd4 Ir4'
_cell_volume   630.45970574
_cell_formula_units_Z   4
loop_
 _symmetry_equiv_pos_site_id
 _symmetry_equiv_pos_as_xyz
  1  'x, y, z'
loop_
 _atom_site_type_symbol
 _atom_site_label
 _atom_site_symmetry_multiplicity
 _atom_site_fract_x
 _atom_site_fract_y
 _atom_site_fract_z
 _atom_site_occupancy
  Tb  Tb0  1  0.59881438  0.59880647  0.59880760  1
  Tb  Tb1  1  0.59881391  0.59880374  0.20357341  1
  Tb  Tb2  1  0.59881287  0.20357170  0.59880567  1
  Tb  Tb3  1  0.20356682  0.59880817  0.59881164  1
  Tb  Tb4  1  0.05973508  0.44026175  0.44026703  1
  Tb  Tb5  1  0.44026384  0.05973787  0.05973380  1
  Tb  Tb6  1  0.44026257  0.05973957  0.44026691  1
  Tb  Tb7  1  0.05973308  0.44026329  0.05973859  1
  Tb  Tb8  1  0.44026452  0.44026310  0.05973867  1
  Tb  Tb9  1  0.05973044  0.05974083  0.44026628  1
  Tb  Tb10  1  0.18849463  0.81150124  0.81149726  1
  Tb  Tb11  1  0.81149767  0.18850186  0.18850402  1
  Tb  Tb12  1  0.81150124  0.18850117  0.81149388  1
  Tb  Tb13  1  0.18849507  0.81149860  0.18850565  1
  Tb  Tb14  1  0.81150002  0.81149702  0.18850114  1
  Tb  Tb15  1  0.18849743  0.18850629  0.81149468  1
  Cd  Cd0  1  0.83026577  0.83026888  0.83026437  1
  Cd  Cd1  1  0.83026204  0.83026566  0.50920610  1
  Cd  Cd2  1  0.83026445  0.50920485  0.83026329  1
  Cd  Cd3  1  0.50921067  0.83026457  0.83025907  1
  Ir  Ir0  1  0.39140540  0.39139949  0.39140605  1
  Ir  Ir1  1  0.39140738  0.39140286  0.82578824  1
  Ir  Ir2  1  0.39140480  0.82579194  0.39140530  1
  Ir  Ir3  1  0.82579693  0.39140009  0.39140434  1
loop_
_geom_bond_atom_site_label_1
_geom_bond_atom_site_label_2
_geom_bond_distance
_geom_bond_site_symmetry_2
Cd0 Cd3 3.090129 1_555
Cd0 Cd1 3.090156 1_555
Cd0 Cd2 3.090186 1_555
Cd0 Tb10 3.277210 1_655
Cd0 Tb12 3.277248 1_565
Cd0 Tb14 3.277284 1_556
Cd0 Tb3 3.433548 1_655
Cd0 Tb2 3.433551 1_565
Cd0 Tb1 3.433601 1_556
Cd0 Tb9 3.484665 1_665
Cd0 Tb5 3.484681 1_566
Cd0 Tb7 3.484714 1_656
Cd1 Cd3 3.090053 1_555
Cd1 Cd2 3.090124 1_555
Cd1 Tb13 3.277257 1_655
Cd1 Tb11 3.277288 1_565
Cd1 Tb14 3.277304 1_555
Cd1 Tb2 3.433538 1_565
Cd1 Tb0 3.433545 1_555
Cd1 Tb3 3.433549 1_655
Cd1 Tb6 3.484672 1_565
Cd1 Tb4 3.484713 1_655
Cd1 Tb9 3.484719 1_665
Cd2 Cd3 3.090093 1_555
Cd2 Tb15 3.277245 1_655
Cd2 Tb12 3.277298 1_555
Cd2 Tb11 3.277316 1_556
Cd2 Tb3 3.433522 1_655
Cd2 Tb0 3.433537 1_555
Cd2 Tb1 3.433573 1_556
Cd2 Tb4 3.484671 1_655
Cd2 Tb8 3.484688 1_556
Cd2 Tb7 3.484717 1_656
Cd3 Tb15 3.277356 1_565
Cd3 Tb10 3.277372 1_555
Cd3 Tb13 3.277396 1_556
Cd3 Tb2 3.433562 1_565
Cd3 Tb0 3.433563 1_555
Cd3 Tb1 3.433628 1_556
Cd3 Tb6 3.484659 1_565
Cd3 Tb8 3.484725 1_556
Cd3 Tb5 3.484730 1_566
Ir0 Tb6 2.801966 1_555
Ir0 Tb8 2.802025 1_555
Ir0 Tb4 2.802041 1_555
Ir0 Tb2 2.829353 1_555
Ir0 Tb1 2.829390 1_555
Ir0 Tb3 2.829397 1_555
Ir0 Tb15 3.463691 1_555
Ir0 Tb11 3.463698 1_555
Ir0 Tb13 3.463772 1_555
Ir1 Tb5 2.802008 1_556
Ir1 Tb8 2.802047 1_556
Ir1 Tb7 2.802075 1_556
Ir1 Tb0 2.829376 1_555
Ir1 Tb2 2.829398 1_555
Ir1 Tb3 2.829417 1_555
Ir1 Tb12 3.463707 1_555
Ir1 Tb10 3.463760 1_555
Ir1 Tb15 3.463774 1_555
Ir2 Tb6 2.802031 1_565
Ir2 Tb5 2.802052 1_565
Ir2 Tb9 2.802068 1_565
Ir2 Tb0 2.829387 1_555
Ir2 Tb1 2.829442 1_555
Ir2 Tb3 2.829450 1_555
Ir2 Tb10 3.463713 1_555
Ir2 Tb14 3.463718 1_555
Ir2 Tb13 3.463798 1_555
Ir3 Tb9 2.801930 1_655
Ir3 Tb4 2.801971 1_655
Ir3 Tb7 2.801983 1_655
Ir3 Tb0 2.829370 1_555
Ir3 Tb2 2.829389 1_555
Ir3 Tb1 2.829398 1_555
Ir3 Tb12 3.463682 1_555
Ir3 Tb14 3.463736 1_555
Ir3 Tb11 3.463744 1_555
