# generated using pymatgen
data_Ba2MnWO6
_symmetry_space_group_name_H-M   'P 1'
_cell_length_a   5.90095802
_cell_length_b   10.22075880
_cell_length_c   5.90095754
_cell_angle_alpha   106.77865115
_cell_angle_beta   59.99999774
_cell_angle_gamma   106.77865539
_symmetry_Int_Tables_number   1
_chemical_formula_structural   Ba2MnWO6
_chemical_formula_sum   'Ba4 Mn2 W2 O12'
_cell_volume   290.59124141
_cell_formula_units_Z   2
loop_
 _symmetry_equiv_pos_site_id
 _symmetry_equiv_pos_as_xyz
  1  'x, y, z'
loop_
 _atom_site_type_symbol
 _atom_site_label
 _atom_site_symmetry_multiplicity
 _atom_site_fract_x
 _atom_site_fract_y
 _atom_site_fract_z
 _atom_site_occupancy
  Ba  Ba0  1  0.37500000  0.12500000  0.37500000  1
  Ba  Ba1  1  0.87500000  0.62500000  0.87500000  1
  Ba  Ba2  1  0.12499900  0.37500000  0.12500000  1
  Ba  Ba3  1  0.62499900  0.87500000  0.62500000  1
  Mn  Mn0  1  0.50000000  0.50000000  0.50000000  1
  Mn  Mn1  1  0.00000000  0.00000000  0.00000000  1
  W  W0  1  0.74999900  0.25000000  0.75000000  1
  W  W1  1  0.24999900  0.75000000  0.25000000  1
  O  O0  1  0.10281900  0.36760600  0.63239400  1
  O  O1  1  0.60281900  0.86760600  0.13239400  1
  O  O2  1  0.86760700  0.13239400  0.39718100  1
  O  O3  1  0.36760700  0.63239400  0.89718100  1
  O  O4  1  0.63239400  0.36760600  0.10281800  1
  O  O5  1  0.13239400  0.86760600  0.60281800  1
  O  O6  1  0.63239400  0.36760600  0.63239300  1
  O  O7  1  0.13239400  0.86760600  0.13239300  1
  O  O8  1  0.39718200  0.13239400  0.86760600  1
  O  O9  1  0.89718200  0.63239400  0.36760600  1
  O  O10  1  0.86760600  0.13239300  0.86760500  1
  O  O11  1  0.36760600  0.63239300  0.36760500  1
loop_
_geom_bond_atom_site_label_1
_geom_bond_atom_site_label_2
_geom_bond_distance
_geom_bond_site_symmetry_2
Ba0 O10 2.953055 1_455
Ba0 O6 2.953056 1_555
Ba0 O0 2.953056 1_555
Ba0 O2 2.953056 1_455
Ba0 O4 2.953059 1_555
Ba0 O8 2.953059 1_554
Ba0 O8 2.953059 1_555
Ba0 O5 2.953059 1_545
Ba0 O10 2.953061 1_554
Ba0 O7 2.953062 1_545
Ba0 O1 2.953062 1_545
Ba0 O2 2.953062 1_555
Ba1 O11 2.953055 1_556
Ba1 O7 2.953056 1_656
Ba1 O1 2.953056 1_556
Ba1 O3 2.953056 1_555
Ba1 O5 2.953059 1_655
Ba1 O9 2.953059 1_555
Ba1 O9 2.953059 1_556
Ba1 O4 2.953059 1_556
Ba1 O11 2.953061 1_655
Ba1 O6 2.953062 1_555
Ba1 O0 2.953062 1_655
Ba1 O3 2.953062 1_655
Ba2 O0 2.953052 1_554
Ba2 O11 2.953053 1_555
Ba2 O6 2.953053 1_455
Ba2 O4 2.953053 1_455
Ba2 O2 2.953055 1_455
Ba2 O9 2.953056 1_455
Ba2 O3 2.953061 1_554
Ba2 O8 2.953062 1_554
Ba2 O0 2.953064 1_555
Ba2 O10 2.953064 1_454
Ba2 O6 2.953064 1_554
Ba2 O4 2.953065 1_555
Ba3 O1 2.953052 1_555
Ba3 O10 2.953053 1_565
Ba3 O7 2.953053 1_556
Ba3 O5 2.953053 1_555
Ba3 O3 2.953055 1_555
Ba3 O8 2.953056 1_565
Ba3 O2 2.953061 1_565
Ba3 O9 2.953062 1_555
Ba3 O1 2.953064 1_556
Ba3 O11 2.953064 1_555
Ba3 O7 2.953064 1_655
Ba3 O5 2.953065 1_655
Mn0 O6 2.209708 1_555
Mn0 O11 2.209708 1_555
Mn0 O0 2.209708 1_555
Mn0 O3 2.209708 1_555
Mn0 O9 2.209713 1_555
Mn0 O4 2.209713 1_555
Mn1 O7 2.209708 1_545
Mn1 O10 2.209708 1_454
Mn1 O1 2.209708 1_445
Mn1 O2 2.209708 1_455
Mn1 O8 2.209713 1_554
Mn1 O5 2.209713 1_544
O0 W0 1.962903 1_455
O1 W1 1.962903 1_555
O2 W0 1.962899 1_555
O3 W1 1.962899 1_556
O4 W0 1.962895 1_554
O5 W1 1.962895 1_555
O6 W0 1.962895 1_555
O7 W1 1.962895 1_555
O8 W0 1.962890 1_555
O9 W1 1.962890 1_655
O10 W0 1.962903 1_555
O11 W1 1.962903 1_555
