# generated using pymatgen
data_BaNb2Xe5F22
_symmetry_space_group_name_H-M   'P 1'
_cell_length_a   10.08458493
_cell_length_b   9.51850679
_cell_length_c   9.42126006
_cell_angle_alpha   64.34063963
_cell_angle_beta   58.29736744
_cell_angle_gamma   57.36199293
_symmetry_Int_Tables_number   1
_chemical_formula_structural   BaNb2Xe5F22
_chemical_formula_sum   'Ba1 Nb2 Xe5 F22'
_cell_volume   633.63276950
_cell_formula_units_Z   1
loop_
 _symmetry_equiv_pos_site_id
 _symmetry_equiv_pos_as_xyz
  1  'x, y, z'
loop_
 _atom_site_type_symbol
 _atom_site_label
 _atom_site_symmetry_multiplicity
 _atom_site_fract_x
 _atom_site_fract_y
 _atom_site_fract_z
 _atom_site_occupancy
  Ba  Ba0  1  0.50000000  0.50000000  0.50000000  1
  Nb  Nb0  1  0.00000000  0.50000000  0.00000000  1
  Nb  Nb1  1  0.50000000  0.00000000  0.50000000  1
  Xe  Xe0  1  0.00000000  0.00000000  0.00000000  1
  Xe  Xe1  1  0.00000000  0.00000000  0.50000000  1
  Xe  Xe2  1  0.50000000  0.50000000  0.00000000  1
  Xe  Xe3  1  0.00000000  0.50000000  0.50000000  1
  Xe  Xe4  1  0.50000000  0.00000000  0.00000000  1
  F  F0  1  0.14631200  0.85368800  0.14631200  1
  F  F1  1  0.85368800  0.14631200  0.85368800  1
  F  F2  1  0.19943000  0.80057000  0.57223100  1
  F  F3  1  0.42776900  0.57223100  0.80057000  1
  F  F4  1  0.57223100  0.42776900  0.19943000  1
  F  F5  1  0.80057000  0.19943000  0.42776900  1
  F  F6  1  0.80337500  0.44329200  0.55670800  1
  F  F7  1  0.19662500  0.55670800  0.44329200  1
  F  F8  1  0.55670800  0.19662500  0.80337500  1
  F  F9  1  0.44329200  0.80337500  0.19662500  1
  F  F10  1  0.20710200  0.45480100  0.79289800  1
  F  F11  1  0.54519900  0.79289800  0.45480100  1
  F  F12  1  0.79289800  0.54519900  0.20710200  1
  F  F13  1  0.45480100  0.20710200  0.54519900  1
  F  F14  1  0.91249900  0.73913200  0.89371100  1
  F  F15  1  0.45465800  0.89371100  0.73913200  1
  F  F16  1  0.89371100  0.45465800  0.91249900  1
  F  F17  1  0.73913200  0.91249900  0.45465800  1
  F  F18  1  0.08750100  0.26086800  0.10628900  1
  F  F19  1  0.54534200  0.10628900  0.26086800  1
  F  F20  1  0.10628900  0.54534200  0.08750100  1
  F  F21  1  0.26086800  0.08750100  0.54534200  1
loop_
_geom_bond_atom_site_label_1
_geom_bond_atom_site_label_2
_geom_bond_distance
_geom_bond_site_symmetry_2
Ba0 F4 2.828436 1_555
Ba0 F2 2.828436 1_555
Ba0 F5 2.828436 1_555
Ba0 F3 2.828436 1_555
Ba0 F11 2.881033 1_555
Ba0 F13 2.881033 1_555
Ba0 F12 2.881033 1_555
Ba0 F10 2.881033 1_555
Ba0 F6 3.102203 1_555
Ba0 F8 3.102203 1_555
Ba0 F9 3.102203 1_555
Ba0 F7 3.102203 1_555
F0 Xe0 2.067684 1_565
F1 Xe0 2.067684 1_656
F2 Xe1 2.076774 1_565
F3 Xe2 2.076774 1_556
F4 Xe2 2.076774 1_555
F5 Xe1 2.076774 1_655
F6 Xe3 2.073629 1_655
F7 Xe3 2.073629 1_555
F8 Xe4 2.073629 1_556
F9 Xe4 2.073629 1_565
F10 Nb0 1.956756 1_556
F11 Nb1 1.956756 1_565
F12 Nb0 1.956756 1_655
F13 Nb1 1.956756 1_555
F14 Nb0 1.936651 1_656
F15 Nb1 1.936651 1_565
F16 Nb0 1.936651 1_656
F17 Nb1 1.936651 1_565
F18 Nb0 1.936651 1_555
F19 Nb1 1.936651 1_555
F20 Nb0 1.936651 1_555
F21 Nb1 1.936651 1_555
