# generated using pymatgen
data_Sr2La(FeO3)3
_symmetry_space_group_name_H-M   'P 1'
_cell_length_a   5.54136760
_cell_length_b   5.54136760
_cell_length_c   6.76984800
_cell_angle_alpha   90.00000000
_cell_angle_beta   90.00000000
_cell_angle_gamma   119.99999525
_symmetry_Int_Tables_number   1
_chemical_formula_structural   Sr2La(FeO3)3
_chemical_formula_sum   'Sr2 La1 Fe3 O9'
_cell_volume   180.02942433
_cell_formula_units_Z   1
loop_
 _symmetry_equiv_pos_site_id
 _symmetry_equiv_pos_as_xyz
  1  'x, y, z'
loop_
 _atom_site_type_symbol
 _atom_site_label
 _atom_site_symmetry_multiplicity
 _atom_site_fract_x
 _atom_site_fract_y
 _atom_site_fract_z
 _atom_site_occupancy
  Sr  Sr0  1  0.33333300  0.66666700  0.83500300  1
  Sr  Sr1  1  0.66666700  0.33333300  0.16499700  1
  La  La0  1  0.00000000  0.00000000  0.50000000  1
  Fe  Fe0  1  0.00000000  0.00000000  0.00000000  1
  Fe  Fe1  1  0.33333300  0.66666700  0.33156800  1
  Fe  Fe2  1  0.66666700  0.33333300  0.66843200  1
  O  O0  1  0.16404100  0.32808100  0.17301900  1
  O  O1  1  0.50000000  0.00000000  0.50000000  1
  O  O2  1  0.83595900  0.67191900  0.82698100  1
  O  O3  1  0.16404100  0.83595900  0.17301900  1
  O  O4  1  0.50000000  0.50000000  0.50000000  1
  O  O5  1  0.83595900  0.16404100  0.82698100  1
  O  O6  1  0.00000000  0.50000000  0.50000000  1
  O  O7  1  0.32808100  0.16404100  0.82698100  1
  O  O8  1  0.67191900  0.83595900  0.17301900  1
loop_
_geom_bond_atom_site_label_1
_geom_bond_atom_site_label_2
_geom_bond_distance
_geom_bond_site_symmetry_2
La0 O7 2.716425 1_555
La0 O2 2.716425 1_445
La0 O0 2.716425 1_555
La0 O8 2.716425 1_445
La0 O5 2.716428 1_455
La0 O3 2.716428 1_545
La0 O6 2.770684 1_555
La0 O1 2.770684 1_455
La0 O1 2.770684 1_555
La0 O6 2.770684 1_545
La0 O4 2.770684 1_445
La0 O4 2.770684 1_555
Fe0 O0 1.962362 1_555
Fe0 O8 1.962362 1_445
Fe0 O7 1.962362 1_554
Fe0 O2 1.962362 1_444
Fe0 O3 1.962365 1_545
Fe0 O5 1.962365 1_454
Fe1 O3 1.947365 1_555
Fe1 O8 1.947374 1_555
Fe1 O0 1.947374 1_555
Fe1 O1 1.964455 1_565
Fe1 O6 1.964455 1_555
Fe1 O4 1.964458 1_555
Fe2 O5 1.947365 1_555
Fe2 O2 1.947374 1_555
Fe2 O7 1.947374 1_555
Fe2 O1 1.964455 1_555
Fe2 O6 1.964455 1_655
Fe2 O4 1.964458 1_555
O0 Sr1 2.771331 1_455
O0 Sr1 2.771331 1_555
O0 Sr0 2.806523 1_554
O1 Sr0 2.775311 1_545
O1 Sr1 2.775311 1_555
O2 Sr0 2.771331 1_655
O2 Sr0 2.771331 1_555
O2 Sr1 2.806523 1_556
O3 Sr1 2.771331 1_455
O3 Sr1 2.771331 1_565
O3 Sr0 2.806518 1_554
O4 Sr0 2.775313 1_555
O4 Sr1 2.775313 1_555
O5 Sr0 2.771331 1_545
O5 Sr0 2.771331 1_655
O5 Sr1 2.806518 1_556
O6 Sr0 2.775311 1_555
O6 Sr1 2.775311 1_455
O7 Sr0 2.771331 1_545
O7 Sr0 2.771331 1_555
O7 Sr1 2.806523 1_556
O8 Sr1 2.771331 1_565
O8 Sr1 2.771331 1_555
O8 Sr0 2.806523 1_554
