# generated using pymatgen
data_Sr3MnFeO7
_symmetry_space_group_name_H-M   'P 1'
_cell_length_a   3.89721900
_cell_length_b   3.89757000
_cell_length_c   20.29325100
_cell_angle_alpha   90.00017573
_cell_angle_beta   90.00002035
_cell_angle_gamma   89.99817707
_symmetry_Int_Tables_number   1
_chemical_formula_structural   Sr3MnFeO7
_chemical_formula_sum   'Sr6 Mn2 Fe2 O14'
_cell_volume   308.24806706
_cell_formula_units_Z   2
loop_
 _symmetry_equiv_pos_site_id
 _symmetry_equiv_pos_as_xyz
  1  'x, y, z'
loop_
 _atom_site_type_symbol
 _atom_site_label
 _atom_site_symmetry_multiplicity
 _atom_site_fract_x
 _atom_site_fract_y
 _atom_site_fract_z
 _atom_site_occupancy
  Sr  Sr0  1  0.00000100  0.00000200  0.31687700  1
  Sr  Sr1  1  0.49999900  0.50000000  0.81691300  1
  Sr  Sr2  1  0.50000300  0.49999900  0.18286700  1
  Sr  Sr3  1  0.99999800  0.00000000  0.68292600  1
  Sr  Sr4  1  0.50000100  0.50000000  0.00042300  1
  Sr  Sr5  1  0.99999900  0.00000000  0.50046800  1
  Mn  Mn0  1  0.49998700  0.49999400  0.59816300  1
  Mn  Mn1  1  0.00000700  0.99998800  0.09804600  1
  Fe  Fe0  1  0.50000000  0.50000200  0.40324700  1
  Fe  Fe1  1  0.00000100  0.00000100  0.90326000  1
  O  O0  1  0.50000000  0.50000000  0.30612700  1
  O  O1  1  0.99999900  0.00000200  0.80616100  1
  O  O2  1  0.00000200  0.99999800  0.19291900  1
  O  O3  1  0.49999800  0.49999900  0.69298300  1
  O  O4  1  0.00000000  0.00000000  0.00023100  1
  O  O5  1  0.50000000  0.50000100  0.50028200  1
  O  O6  1  0.00000000  0.50000200  0.40361600  1
  O  O7  1  0.50000100  0.00000200  0.90361000  1
  O  O8  1  0.50000000  0.00000100  0.40361700  1
  O  O9  1  0.00000100  0.50000100  0.90361100  1
  O  O10  1  0.50000100  0.00000200  0.09587200  1
  O  O11  1  0.00000000  0.50000100  0.59595500  1
  O  O12  1  0.00000100  0.50000200  0.09587000  1
  O  O13  1  0.50000000  0.00000100  0.59595500  1
loop_
_geom_bond_atom_site_label_1
_geom_bond_atom_site_label_2
_geom_bond_distance
_geom_bond_site_symmetry_2
Mn0 O3 1.924206 1_555
Mn0 O11 1.949074 1_555
Mn0 O11 1.949175 1_655
Mn0 O13 1.949273 1_555
Mn0 O13 1.949327 1_565
Mn0 O5 1.986324 1_555
Mn1 O2 1.925282 1_555
Mn1 O10 1.949085 1_565
Mn1 O10 1.949132 1_465
Mn1 O12 1.949231 1_555
Mn1 O12 1.949340 1_565
Mn1 O4 1.984984 1_565
Fe0 O6 1.948624 1_655
Fe0 O6 1.948624 1_555
Fe0 O8 1.948796 1_565
Fe0 O8 1.948803 1_555
Fe0 O5 1.969156 1_555
Fe0 O0 1.970881 1_555
Fe1 O7 1.948622 1_555
Fe1 O7 1.948622 1_455
Fe1 O9 1.948798 1_555
Fe1 O9 1.948798 1_545
Fe1 O4 1.967857 1_556
Fe1 O1 1.970454 1_455
O0 Sr2 2.501346 1_555
O0 Sr0 2.764449 1_655
O0 Sr0 2.764454 1_565
O0 Sr0 2.764531 1_555
O0 Sr0 2.764546 1_665
O1 Sr3 2.500839 1_555
O1 Sr1 2.764449 1_555
O1 Sr1 2.764460 1_645
O1 Sr1 2.764536 1_655
O1 Sr1 2.764548 1_545
O2 Sr0 2.515511 1_565
O2 Sr2 2.763369 1_555
O2 Sr2 2.763370 1_465
O2 Sr2 2.763451 1_455
O2 Sr2 2.763463 1_565
O3 Sr1 2.514943 1_555
O3 Sr3 2.763374 1_555
O3 Sr3 2.763380 1_465
O3 Sr3 2.763461 1_455
O3 Sr3 2.763468 1_565
O4 Sr4 2.755830 1_455
O4 Sr4 2.755836 1_545
O4 Sr4 2.755918 1_445
O4 Sr4 2.755923 1_555
O5 Sr5 2.755833 1_465
O5 Sr5 2.755833 1_555
O5 Sr5 2.755915 1_565
O5 Sr5 2.755926 1_455
O6 Sr0 2.626043 1_555
O6 Sr0 2.626051 1_565
O6 Sr5 2.767792 1_465
O6 Sr5 2.767811 1_455
O7 Sr1 2.625474 1_555
O7 Sr1 2.625478 1_545
O7 Sr4 2.767230 1_556
O7 Sr4 2.767249 1_546
O8 Sr0 2.625927 1_555
O8 Sr0 2.625934 1_655
O8 Sr5 2.767660 1_555
O8 Sr5 2.767667 1_455
O9 Sr1 2.625354 1_555
O9 Sr1 2.625365 1_455
O9 Sr4 2.767101 1_556
O9 Sr4 2.767102 1_456
O10 Sr2 2.629520 1_555
O10 Sr2 2.629545 1_545
O10 Sr4 2.747655 1_555
O10 Sr4 2.747658 1_545
O11 Sr3 2.629198 1_465
O11 Sr3 2.629212 1_455
O11 Sr5 2.748199 1_455
O11 Sr5 2.748202 1_465
O12 Sr2 2.629424 1_455
O12 Sr2 2.629435 1_555
O12 Sr4 2.747503 1_455
O12 Sr4 2.747504 1_555
O13 Sr3 2.629069 1_555
O13 Sr3 2.629082 1_455
O13 Sr5 2.748074 1_555
O13 Sr5 2.748078 1_455
