# generated using pymatgen
data_TbCuNi4
_symmetry_space_group_name_H-M   'P 1'
_cell_length_a   4.87206374
_cell_length_b   4.87207418
_cell_length_c   3.91880335
_cell_angle_alpha   90.00000000
_cell_angle_beta   90.00000000
_cell_angle_gamma   119.99591370
_symmetry_Int_Tables_number   1
_chemical_formula_structural   TbCuNi4
_chemical_formula_sum   'Tb1 Cu1 Ni4'
_cell_volume   80.56173996
_cell_formula_units_Z   1
loop_
 _symmetry_equiv_pos_site_id
 _symmetry_equiv_pos_as_xyz
  1  'x, y, z'
loop_
 _atom_site_type_symbol
 _atom_site_label
 _atom_site_symmetry_multiplicity
 _atom_site_fract_x
 _atom_site_fract_y
 _atom_site_fract_z
 _atom_site_occupancy
  Tb  Tb0  1  0.33333260  0.66666740  -0.00000000  1
  Cu  Cu0  1  0.66666724  0.33333276  -0.00000000  1
  Ni  Ni0  1  -0.00000063  0.00000063  -0.00000000  1
  Ni  Ni1  1  0.33241484  0.16620842  0.50000000  1
  Ni  Ni2  1  0.83379338  0.16620662  0.50000000  1
  Ni  Ni3  1  0.83379158  0.66758416  0.50000000  1
loop_
_geom_bond_atom_site_label_1
_geom_bond_atom_site_label_2
_geom_bond_distance
_geom_bond_site_symmetry_2
Cu0 Ni2 2.414163 1_555
Cu0 Ni2 2.414163 1_554
Cu0 Ni3 2.414213 1_554
Cu0 Ni3 2.414213 1_555
Cu0 Ni1 2.414213 1_555
Cu0 Ni1 2.414213 1_554
Cu0 Ni0 2.812822 1_655
Cu0 Tb0 2.812843 1_555
Cu0 Tb0 2.812998 1_655
Cu0 Tb0 2.813004 1_545
Cu0 Ni0 2.813008 1_555
Cu0 Ni0 2.813014 1_665
Ni0 Ni2 2.409635 1_455
Ni0 Ni2 2.409635 1_454
Ni0 Ni1 2.409693 1_555
Ni0 Ni1 2.409693 1_554
Ni0 Ni3 2.409698 1_444
Ni0 Ni3 2.409698 1_445
Ni0 Tb0 2.812832 1_545
Ni0 Tb0 2.813004 1_445
Ni0 Tb0 2.813010 1_555
Ni1 Ni2 2.429311 1_455
Ni1 Ni3 2.429479 1_445
Ni1 Ni2 2.442753 1_555
Ni1 Ni3 2.442890 1_555
Ni1 Tb0 3.126267 1_545
Ni1 Tb0 3.126267 1_546
Ni1 Tb0 3.126268 1_556
Ni1 Tb0 3.126268 1_555
Ni2 Ni3 2.429321 1_545
Ni2 Ni3 2.442753 1_555
Ni2 Tb0 3.126382 1_546
Ni2 Tb0 3.126382 1_545
Ni2 Tb0 3.126382 1_655
Ni2 Tb0 3.126382 1_656
Ni3 Tb0 3.126261 1_656
Ni3 Tb0 3.126261 1_655
Ni3 Tb0 3.126266 1_555
Ni3 Tb0 3.126266 1_556
