# generated using pymatgen
data_La3Ni7P5
_symmetry_space_group_name_H-M   'P 1'
_cell_length_a   3.96222000
_cell_length_b   16.63258200
_cell_length_c   16.63326570
_cell_angle_alpha   60.11795094
_cell_angle_beta   90.00000000
_cell_angle_gamma   90.00000000
_symmetry_Int_Tables_number   1
_chemical_formula_structural   La3Ni7P5
_chemical_formula_sum   'La12 Ni28 P20'
_cell_volume   950.43270297
_cell_formula_units_Z   4
loop_
 _symmetry_equiv_pos_site_id
 _symmetry_equiv_pos_as_xyz
  1  'x, y, z'
loop_
 _atom_site_type_symbol
 _atom_site_label
 _atom_site_symmetry_multiplicity
 _atom_site_fract_x
 _atom_site_fract_y
 _atom_site_fract_z
 _atom_site_occupancy
  La  La0  1  0.50000000  0.64737100  0.11966300  1
  La  La1  1  0.50000000  0.23284100  0.64707900  1
  La  La2  1  0.50000000  0.12080800  0.23596200  1
  La  La3  1  0.00000000  0.35551500  0.87878700  1
  La  La4  1  0.00000000  0.76489300  0.35438900  1
  La  La5  1  0.00000000  0.87970100  0.76634100  1
  La  La6  1  0.50000000  0.44197100  0.38271700  1
  La  La7  1  0.50000000  0.17546500  0.44220400  1
  La  La8  1  0.50000000  0.38364200  0.17465700  1
  La  La9  1  0.00000000  0.55822200  0.61690700  1
  La  La10  1  0.00000000  0.82514700  0.55797800  1
  La  La11  1  0.00000000  0.61673600  0.82525000  1
  Ni  Ni0  1  0.50000000  0.56504100  0.98733200  1
  Ni  Ni1  1  0.50000000  0.44692500  0.56561300  1
  Ni  Ni2  1  0.50000000  0.98694000  0.44712000  1
  Ni  Ni3  1  0.00000000  0.43475700  0.01295100  1
  Ni  Ni4  1  0.00000000  0.55115800  0.43566300  1
  Ni  Ni5  1  0.00000000  0.01358900  0.55284200  1
  Ni  Ni6  1  0.50000000  0.82861100  0.93321100  1
  Ni  Ni7  1  0.50000000  0.23878200  0.82756900  1
  Ni  Ni8  1  0.50000000  0.92615600  0.24637700  1
  Ni  Ni9  1  0.00000000  0.17389200  0.07449800  1
  Ni  Ni10  1  0.00000000  0.75256600  0.17524100  1
  Ni  Ni11  1  0.00000000  0.07396600  0.75098200  1
  Ni  Ni12  1  0.50000000  0.77516200  0.71767100  1
  Ni  Ni13  1  0.50000000  0.50665600  0.77542600  1
  Ni  Ni14  1  0.50000000  0.71703200  0.50780600  1
  Ni  Ni15  1  0.00000000  0.22497400  0.28292300  1
  Ni  Ni16  1  0.00000000  0.49329300  0.22471000  1
  Ni  Ni17  1  0.00000000  0.28244000  0.49289800  1
  Ni  Ni18  1  0.50000000  0.65905000  0.29727700  1
  Ni  Ni19  1  0.50000000  0.04293200  0.66012900  1
  Ni  Ni20  1  0.50000000  0.29944700  0.04199800  1
  Ni  Ni21  1  0.00000000  0.34679300  0.69686000  1
  Ni  Ni22  1  0.00000000  0.95789100  0.34279400  1
  Ni  Ni23  1  0.00000000  0.69763900  0.95619800  1
  Ni  Ni24  1  0.50000000  0.05760100  0.08886600  1
  Ni  Ni25  1  0.00000000  0.14989200  0.94224900  1
  Ni  Ni26  1  0.00000000  0.90920200  0.15067600  1
  Ni  Ni27  1  0.00000000  0.93894800  0.90400900  1
  P  P0  1  0.50000000  0.66636800  0.66709600  1
  P  P1  1  0.00000000  0.33347000  0.33327400  1
  P  P2  1  0.50000000  0.93113000  0.60786600  1
  P  P3  1  0.50000000  0.46127800  0.93116200  1
  P  P4  1  0.50000000  0.60737300  0.46137900  1
  P  P5  1  0.00000000  0.06921100  0.39327500  1
  P  P6  1  0.00000000  0.53931800  0.06908900  1
  P  P7  1  0.00000000  0.39150600  0.53863800  1
  P  P8  1  0.50000000  0.98448200  0.82003900  1
  P  P9  1  0.50000000  0.20088400  0.97953600  1
  P  P10  1  0.50000000  0.81848700  0.19574400  1
  P  P11  1  0.00000000  0.02010400  0.18180700  1
  P  P12  1  0.00000000  0.79663100  0.01704100  1
  P  P13  1  0.00000000  0.18653900  0.79677700  1
  P  P14  1  0.50000000  0.72268900  0.87578400  1
  P  P15  1  0.50000000  0.40179900  0.72289000  1
  P  P16  1  0.50000000  0.87420700  0.40285000  1
  P  P17  1  0.00000000  0.27788600  0.12534800  1
  P  P18  1  0.00000000  0.59707600  0.27830900  1
  P  P19  1  0.00000000  0.12591800  0.59627100  1
loop_
_geom_bond_atom_site_label_1
_geom_bond_atom_site_label_2
_geom_bond_distance
_geom_bond_site_symmetry_2
La0 P12 2.962962 1_655
La0 P12 2.962962 1_555
La0 Ni16 3.013882 1_655
La0 Ni16 3.013882 1_555
La0 Ni18 3.055726 1_555
La0 P6 3.060848 1_555
La0 P6 3.060848 1_655
La0 P18 3.064031 1_655
La0 P18 3.064031 1_555
La0 Ni6 3.064269 1_554
La0 Ni10 3.074478 1_555
La0 Ni10 3.074478 1_655
La0 Ni0 3.118223 1_554
La0 Ni23 3.122722 1_654
La0 Ni23 3.122722 1_554
La1 P13 2.967673 1_655
La1 P13 2.967673 1_555
La1 Ni17 3.012325 1_655
La1 Ni17 3.012325 1_555
La1 P19 3.049475 1_655
La1 P19 3.049475 1_555
La1 Ni7 3.052572 1_555
La1 Ni19 3.056332 1_555
La1 Ni11 3.056771 1_655
La1 Ni11 3.056771 1_555
La1 P7 3.065865 1_555
La1 P7 3.065865 1_655
La1 Ni1 3.115676 1_555
La1 Ni21 3.125124 1_655
La1 Ni21 3.125124 1_555
La2 Ni15 2.980798 1_555
La2 Ni15 2.980798 1_655
La2 P11 3.007506 1_655
La2 P11 3.007506 1_555
La2 P5 3.044746 1_655
La2 P5 3.044746 1_555
La2 P17 3.057114 1_655
La2 P17 3.057114 1_555
La2 Ni2 3.082390 1_545
La2 Ni9 3.091021 1_555
La2 Ni9 3.091021 1_655
La2 Ni22 3.102761 1_545
La2 Ni22 3.102761 1_645
La2 Ni24 3.107171 1_555
La2 Ni20 3.112102 1_555
La2 Ni8 3.154834 1_545
La3 Ni13 2.982210 1_455
La3 Ni13 2.982210 1_555
La3 P9 3.008852 1_555
La3 P9 3.008852 1_455
La3 Ni25 3.035405 1_555
La3 P15 3.041773 1_455
La3 P15 3.041773 1_555
La3 P3 3.050445 1_555
La3 P3 3.050445 1_455
La3 Ni21 3.100868 1_555
La3 Ni20 3.105096 1_556
La3 Ni20 3.105096 1_456
La3 Ni3 3.106095 1_556
La3 Ni9 3.150222 1_556
La3 Ni7 3.173080 1_455
La3 Ni7 3.173080 1_555
La4 Ni14 3.007685 1_555
La4 Ni14 3.007685 1_455
La4 Ni26 3.022994 1_555
La4 P4 3.051250 1_455
La4 P4 3.051250 1_555
La4 P10 3.055937 1_455
La4 P10 3.055937 1_555
La4 P16 3.056245 1_455
La4 P16 3.056245 1_555
La4 Ni10 3.087088 1_555
La4 Ni8 3.089528 1_555
La4 Ni8 3.089528 1_455
La4 Ni18 3.097218 1_455
La4 Ni18 3.097218 1_555
La4 Ni4 3.110730 1_555
La4 Ni22 3.118454 1_555
La5 Ni27 2.909128 1_555
La5 Ni12 3.000998 1_555
La5 Ni12 3.000998 1_455
La5 P8 3.051374 1_555
La5 P8 3.051374 1_455
La5 P14 3.053132 1_555
La5 P14 3.053132 1_455
La5 P2 3.059089 1_455
La5 P2 3.059089 1_555
La5 Ni23 3.100600 1_555
La5 Ni19 3.104442 1_465
La5 Ni19 3.104442 1_565
La5 Ni11 3.111743 1_565
La5 Ni5 3.112890 1_565
La5 Ni6 3.162378 1_555
La5 Ni6 3.162378 1_455
La6 P18 3.021900 1_655
La6 P18 3.021900 1_555
La6 P7 3.030898 1_555
La6 P7 3.030898 1_655
La6 Ni16 3.053735 1_555
La6 Ni16 3.053735 1_655
La6 P1 3.055610 1_655
La6 P1 3.055610 1_555
La6 Ni17 3.078732 1_555
La6 Ni17 3.078732 1_655
La6 Ni1 3.084037 1_555
La6 Ni4 3.097109 1_555
La6 Ni4 3.097109 1_655
La6 Ni18 3.153270 1_555
La7 P19 3.011099 1_555
La7 P19 3.011099 1_655
La7 P5 3.023836 1_555
La7 P5 3.023836 1_655
La7 Ni17 3.049022 1_655
La7 Ni17 3.049022 1_555
La7 P1 3.060972 1_555
La7 P1 3.060972 1_655
La7 Ni15 3.073784 1_555
La7 Ni15 3.073784 1_655
La7 Ni2 3.095731 1_545
La7 Ni5 3.102161 1_555
La7 Ni5 3.102161 1_655
La7 Ni19 3.168051 1_555
La8 P17 3.021435 1_555
La8 P17 3.021435 1_655
La8 P6 3.030205 1_555
La8 P6 3.030205 1_655
La8 P1 3.064001 1_555
La8 P1 3.064001 1_655
La8 Ni15 3.065430 1_555
La8 Ni15 3.065430 1_655
La8 Ni0 3.073133 1_554
La8 Ni16 3.075233 1_655
La8 Ni16 3.075233 1_555
La8 Ni3 3.098954 1_655
La8 Ni3 3.098954 1_555
La8 Ni20 3.147845 1_555
La9 P4 3.029533 1_455
La9 P4 3.029533 1_555
La9 P15 3.038304 1_555
La9 P15 3.038304 1_455
La9 P0 3.058339 1_555
La9 P0 3.058339 1_455
La9 Ni13 3.059277 1_455
La9 Ni13 3.059277 1_555
La9 Ni14 3.068999 1_555
La9 Ni14 3.068999 1_455
La9 Ni4 3.074904 1_555
La9 Ni21 3.078172 1_555
La9 Ni1 3.106968 1_555
La9 Ni1 3.106968 1_455
La10 P16 3.024984 1_555
La10 P16 3.024984 1_455
La10 P2 3.029564 1_555
La10 P2 3.029564 1_455
La10 Ni14 3.057806 1_555
La10 Ni14 3.057806 1_455
La10 P0 3.068753 1_455
La10 P0 3.068753 1_555
La10 Ni12 3.077503 1_555
La10 Ni12 3.077503 1_455
La10 Ni5 3.092602 1_565
La10 Ni2 3.101962 1_555
La10 Ni2 3.101962 1_455
La10 Ni22 3.132286 1_555
La11 P3 3.029044 1_555
La11 P3 3.029044 1_455
La11 P14 3.035276 1_555
La11 P14 3.035276 1_455
La11 P0 3.059830 1_455
La11 P0 3.059830 1_555
La11 Ni12 3.061345 1_555
La11 Ni12 3.061345 1_455
La11 Ni23 3.078188 1_555
La11 Ni13 3.078275 1_455
La11 Ni13 3.078275 1_555
La11 Ni3 3.081014 1_556
La11 Ni0 3.102013 1_455
La11 Ni0 3.102013 1_555
Ni0 P6 2.318921 1_556
Ni0 P6 2.318921 1_656
Ni0 P3 2.336265 1_555
Ni0 P14 2.338849 1_555
Ni1 P7 2.321176 1_555
Ni1 P7 2.321176 1_655
Ni1 P15 2.334624 1_555
Ni1 P4 2.348908 1_555
Ni2 P5 2.319098 1_665
Ni2 P5 2.319098 1_565
Ni2 P16 2.331044 1_555
Ni2 P2 2.353176 1_555
Ni3 P3 2.317792 1_554
Ni3 P3 2.317792 1_454
Ni3 P17 2.332893 1_555
Ni3 P6 2.348311 1_555
Ni4 P4 2.319590 1_555
Ni4 P4 2.319590 1_455
Ni4 P18 2.332768 1_555
Ni4 P7 2.335164 1_555
Ni5 P19 2.314570 1_555
Ni5 P2 2.322220 1_545
Ni5 P2 2.322220 1_445
Ni5 P5 2.335288 1_555
Ni6 P8 2.324203 1_555
Ni6 P12 2.326575 1_656
Ni6 P12 2.326575 1_556
Ni6 P14 2.386004 1_555
Ni7 P9 2.280132 1_555
Ni7 P13 2.320694 1_555
Ni7 P13 2.320694 1_655
Ni7 P15 2.383099 1_555
Ni8 P16 2.297739 1_555
Ni8 P10 2.327902 1_555
Ni8 P11 2.418212 1_665
Ni8 P11 2.418212 1_565
Ni9 P17 2.272654 1_555
Ni9 P11 2.275826 1_555
Ni9 P9 2.432008 1_554
Ni9 P9 2.432008 1_454
Ni10 P18 2.282455 1_555
Ni10 P12 2.353644 1_555
Ni10 P10 2.369780 1_555
Ni10 P10 2.369780 1_455
Ni11 P19 2.270044 1_555
Ni11 P13 2.346735 1_555
Ni11 P8 2.399142 1_445
Ni11 P8 2.399142 1_545
Ni11 Ni27 2.413761 1_545
Ni12 P2 2.311778 1_555
Ni12 P14 2.321886 1_555
Ni12 P0 2.344960 1_555
Ni13 P15 2.307353 1_555
Ni13 P3 2.309043 1_555
Ni13 P0 2.352420 1_555
Ni14 P4 2.307912 1_555
Ni14 P16 2.309616 1_555
Ni14 P0 2.346339 1_555
Ni15 P5 2.311423 1_555
Ni15 P17 2.312072 1_555
Ni15 P1 2.337480 1_555
Ni16 P18 2.303901 1_555
Ni16 P6 2.304738 1_555
Ni16 P1 2.354593 1_555
Ni17 P7 2.290156 1_555
Ni17 P19 2.296435 1_555
Ni17 P1 2.350384 1_555
Ni18 P18 2.326137 1_655
Ni18 P18 2.326137 1_555
Ni18 P10 2.328498 1_555
Ni18 P4 2.418986 1_555
Ni19 P8 2.333068 1_545
Ni19 P19 2.344631 1_555
Ni19 P19 2.344631 1_655
Ni19 P2 2.413378 1_545
Ni20 P9 2.337527 1_554
Ni20 P17 2.340952 1_655
Ni20 P17 2.340952 1_555
Ni20 P3 2.387309 1_554
Ni21 P15 2.311706 1_555
Ni21 P15 2.311706 1_455
Ni21 P13 2.335083 1_555
Ni21 P7 2.351372 1_555
Ni22 P16 2.339777 1_455
Ni22 P16 2.339777 1_555
Ni22 P11 2.340958 1_565
Ni22 P5 2.383769 1_565
Ni23 P14 2.309140 1_555
Ni23 P14 2.309140 1_455
Ni23 P12 2.322811 1_556
Ni23 P6 2.352260 1_556
Ni24 P9 2.160582 1_554
Ni24 P11 2.396436 1_555
Ni24 P11 2.396436 1_655
Ni25 P13 2.180996 1_555
Ni25 P9 2.356461 1_555
Ni25 P9 2.356461 1_455
Ni26 P11 2.149969 1_565
Ni26 P10 2.374083 1_555
Ni26 P10 2.374083 1_455
Ni27 P12 2.168736 1_556
Ni27 P8 2.322740 1_555
Ni27 P8 2.322740 1_455
Ni27 Ni6 2.576903 1_455
Ni27 Ni6 2.576903 1_555
