# generated using pymatgen
data_Sr3Hg2
_symmetry_space_group_name_H-M   'P 1'
_cell_length_a   4.49416387
_cell_length_b   9.01208184
_cell_length_c   9.01208184
_cell_angle_alpha   90.00000000
_cell_angle_beta   90.00000000
_cell_angle_gamma   90.00000000
_symmetry_Int_Tables_number   1
_chemical_formula_structural   Sr3Hg2
_chemical_formula_sum   'Sr6 Hg4'
_cell_volume   365.00528933
_cell_formula_units_Z   2
loop_
 _symmetry_equiv_pos_site_id
 _symmetry_equiv_pos_as_xyz
  1  'x, y, z'
loop_
 _atom_site_type_symbol
 _atom_site_label
 _atom_site_symmetry_multiplicity
 _atom_site_fract_x
 _atom_site_fract_y
 _atom_site_fract_z
 _atom_site_occupancy
  Sr  Sr0  1  0.00000000  0.50000000  0.50000000  1
  Sr  Sr1  1  0.00000000  0.00000000  -0.00000000  1
  Sr  Sr2  1  0.50000000  0.84727239  0.34727239  1
  Sr  Sr3  1  0.50000000  0.65272761  0.84727239  1
  Sr  Sr4  1  0.50000000  0.15272761  0.65272761  1
  Sr  Sr5  1  0.50000000  0.34727239  0.15272761  1
  Hg  Hg0  1  -0.00000000  0.64322522  0.14322522  1
  Hg  Hg1  1  -0.00000000  0.85677478  0.64322522  1
  Hg  Hg2  1  0.00000000  0.14322522  0.35677478  1
  Hg  Hg3  1  0.00000000  0.35677478  0.85677478  1
loop_
_geom_bond_atom_site_label_1
_geom_bond_atom_site_label_2
_geom_bond_distance
_geom_bond_site_symmetry_2
Hg0 Sr2 3.436918 1_455
Hg0 Sr2 3.436918 1_555
Hg0 Sr1 3.464694 1_565
Hg0 Sr0 3.464694 1_555
Hg0 Sr3 3.488611 1_554
Hg0 Sr3 3.488611 1_454
Hg0 Sr5 3.488611 1_555
Hg0 Sr5 3.488611 1_455
Hg1 Sr3 3.436918 1_555
Hg1 Sr3 3.436918 1_455
Hg1 Sr1 3.464694 1_566
Hg1 Sr0 3.464694 1_555
Hg1 Sr4 3.488611 1_465
Hg1 Sr4 3.488611 1_565
Hg1 Sr2 3.488611 1_555
Hg1 Sr2 3.488611 1_455
Hg2 Sr5 3.436918 1_455
Hg2 Sr5 3.436918 1_555
Hg2 Sr0 3.464694 1_555
Hg2 Sr1 3.464694 1_555
Hg2 Sr2 3.488611 1_545
Hg2 Sr4 3.488611 1_455
Hg2 Sr2 3.488611 1_445
Hg2 Sr4 3.488611 1_555
Hg3 Sr4 3.436918 1_555
Hg3 Sr4 3.436918 1_455
Hg3 Sr0 3.464694 1_555
Hg3 Sr1 3.464694 1_556
Hg3 Sr5 3.488611 1_456
Hg3 Sr5 3.488611 1_556
Hg3 Sr3 3.488611 1_555
Hg3 Sr3 3.488611 1_455
