# generated using pymatgen
data_CdP14Pb
_symmetry_space_group_name_H-M   'P 1'
_cell_length_a   9.85157427
_cell_length_b   11.08224188
_cell_length_c   13.24950493
_cell_angle_alpha   90.00000000
_cell_angle_beta   90.00000000
_cell_angle_gamma   90.00000000
_symmetry_Int_Tables_number   1
_chemical_formula_structural   CdP14Pb
_chemical_formula_sum   'Cd4 P56 Pb4'
_cell_volume   1446.54820819
_cell_formula_units_Z   4
loop_
 _symmetry_equiv_pos_site_id
 _symmetry_equiv_pos_as_xyz
  1  'x, y, z'
loop_
 _atom_site_type_symbol
 _atom_site_label
 _atom_site_symmetry_multiplicity
 _atom_site_fract_x
 _atom_site_fract_y
 _atom_site_fract_z
 _atom_site_occupancy
  Cd  Cd0  1  0.25000000  0.50424733  0.31992638  1
  Cd  Cd1  1  0.75000000  0.49575267  0.68007362  1
  Cd  Cd2  1  0.75000000  0.00424733  0.18007362  1
  Cd  Cd3  1  0.25000000  -0.00424733  0.81992638  1
  P  P0  1  0.04866918  0.36324348  0.36314225  1
  P  P1  1  0.95133082  0.63675652  0.63685775  1
  P  P2  1  0.95133082  0.86324348  0.13685775  1
  P  P3  1  0.54866918  0.63675652  0.63685775  1
  P  P4  1  0.04866918  0.13675652  0.86314225  1
  P  P5  1  0.45133082  0.36324348  0.36314225  1
  P  P6  1  0.45133082  0.13675652  0.86314225  1
  P  P7  1  0.54866918  0.86324348  0.13685775  1
  P  P8  1  0.25000000  0.65407978  0.17054704  1
  P  P9  1  0.75000000  0.34592022  0.82945296  1
  P  P10  1  0.75000000  0.15407978  0.32945296  1
  P  P11  1  0.25000000  0.84592022  0.67054704  1
  P  P12  1  0.58271493  0.28806712  0.06103321  1
  P  P13  1  0.41728507  0.71193288  0.93896679  1
  P  P14  1  0.41728507  0.78806712  0.43896679  1
  P  P15  1  0.08271493  0.71193288  0.93896679  1
  P  P16  1  0.58271493  0.21193288  0.56103321  1
  P  P17  1  0.91728507  0.28806712  0.06103321  1
  P  P18  1  0.91728507  0.21193288  0.56103321  1
  P  P19  1  0.08271493  0.78806712  0.43896679  1
  P  P20  1  0.07684331  0.17420508  0.32328482  1
  P  P21  1  0.92315669  0.82579492  0.67671518  1
  P  P22  1  0.92315669  0.67420508  0.17671518  1
  P  P23  1  0.57684331  0.82579492  0.67671518  1
  P  P24  1  0.07684331  0.32579492  0.82328482  1
  P  P25  1  0.42315669  0.17420508  0.32328482  1
  P  P26  1  0.42315669  0.32579492  0.82328482  1
  P  P27  1  0.57684331  0.67420508  0.17671518  1
  P  P28  1  0.07891322  0.59000530  0.07873044  1
  P  P29  1  0.92108678  0.40999470  0.92126956  1
  P  P30  1  0.92108678  0.09000530  0.42126956  1
  P  P31  1  0.57891322  0.40999470  0.92126956  1
  P  P32  1  0.07891322  0.90999470  0.57873044  1
  P  P33  1  0.42108678  0.59000530  0.07873044  1
  P  P34  1  0.42108678  0.90999470  0.57873044  1
  P  P35  1  0.57891322  0.09000530  0.42126956  1
  P  P36  1  0.25000000  0.10679954  0.41252030  1
  P  P37  1  0.75000000  0.89320046  0.58747970  1
  P  P38  1  0.75000000  0.60679954  0.08747970  1
  P  P39  1  0.25000000  0.39320046  0.91252030  1
  P  P40  1  0.07633994  0.15419979  0.02577025  1
  P  P41  1  0.92366006  0.84580021  0.97422975  1
  P  P42  1  0.92366006  0.65419979  0.47422975  1
  P  P43  1  0.57633994  0.84580021  0.97422975  1
  P  P44  1  0.07633994  0.34580021  0.52577025  1
  P  P45  1  0.42366006  0.15419979  0.02577025  1
  P  P46  1  0.42366006  0.34580021  0.52577025  1
  P  P47  1  0.57633994  0.65419979  0.47422975  1
  P  P48  1  0.25000000  0.66290602  0.47107080  1
  P  P49  1  0.75000000  0.33709398  0.52892920  1
  P  P50  1  0.75000000  0.16290602  0.02892920  1
  P  P51  1  0.25000000  0.83709398  0.97107080  1
  P  P52  1  0.25000000  0.27706863  0.05063092  1
  P  P53  1  0.75000000  0.72293137  0.94936908  1
  P  P54  1  0.75000000  0.77706863  0.44936908  1
  P  P55  1  0.25000000  0.22293137  0.55063092  1
  Pb  Pb0  1  0.25000000  0.59319804  0.67289391  1
  Pb  Pb1  1  0.75000000  0.40680196  0.32710609  1
  Pb  Pb2  1  0.75000000  0.09319804  0.82710609  1
  Pb  Pb3  1  0.25000000  0.90680196  0.17289391  1
loop_
_geom_bond_atom_site_label_1
_geom_bond_atom_site_label_2
_geom_bond_distance
_geom_bond_site_symmetry_2
Cd0 P8 2.583493 1_555
Cd0 P5 2.589146 1_555
Cd0 P0 2.589146 1_555
Cd0 P48 2.664950 1_555
Cd1 P9 2.583493 1_555
Cd1 P3 2.589146 1_555
Cd1 P1 2.589146 1_555
Cd1 P49 2.664950 1_555
Cd2 P10 2.583493 1_555
Cd2 P2 2.589146 1_545
Cd2 P7 2.589146 1_545
Cd2 P50 2.664950 1_555
Cd3 P11 2.583493 1_545
Cd3 P4 2.589146 1_555
Cd3 P6 2.589146 1_555
Cd3 P51 2.664950 1_545
P0 P20 2.178260 1_555
P0 P44 2.180501 1_555
P0 Pb1 3.019683 1_455
P1 P21 2.178260 1_555
P1 P42 2.180501 1_555
P1 Pb0 3.019683 1_655
P2 P22 2.178260 1_555
P2 P41 2.180501 1_554
P2 Pb3 3.019683 1_655
P3 P47 2.180501 1_555
P3 Pb0 3.019683 1_555
P4 P40 2.180501 1_556
P4 Pb2 3.019683 1_455
P5 Pb1 3.019683 1_555
P6 Pb2 3.019683 1_555
P7 Pb3 3.019683 1_555
P8 Pb3 2.800901 1_555
P9 Pb2 2.800901 1_555
P10 P35 2.196584 1_555
P10 P30 2.196584 1_555
P10 Pb1 2.800901 1_555
P11 P34 2.196584 1_555
P11 P32 2.196584 1_555
P11 Pb0 2.800901 1_555
P12 P50 2.195645 1_555
P12 P45 2.207831 1_555
P12 P31 2.292681 1_554
P13 P51 2.195645 1_555
P13 P43 2.207831 1_555
P13 P33 2.292681 1_556
P14 P48 2.195645 1_555
P14 P47 2.207831 1_555
P14 P34 2.292681 1_555
P15 P51 2.195645 1_555
P15 P41 2.207831 1_455
P15 P28 2.292681 1_556
P16 P49 2.195645 1_555
P16 P46 2.207831 1_555
P16 P35 2.292681 1_555
P17 P50 2.195645 1_555
P17 P40 2.207831 1_655
P17 P29 2.292681 1_554
P18 P49 2.195645 1_555
P18 P44 2.207831 1_655
P18 P30 2.292681 1_555
P19 P48 2.195645 1_555
P19 P42 2.207831 1_455
P19 P32 2.292681 1_555
P20 P36 2.205876 1_555
P20 P30 2.216009 1_455
P21 P37 2.205876 1_555
P21 P32 2.216009 1_655
P22 P38 2.205876 1_555
P22 P28 2.216009 1_655
P23 P3 2.178260 1_555
P23 P37 2.205876 1_555
P23 P34 2.216009 1_555
P24 P4 2.178260 1_555
P24 P39 2.205876 1_555
P24 P29 2.216009 1_455
P25 P5 2.178260 1_555
P25 P36 2.205876 1_555
P25 P35 2.216009 1_555
P26 P6 2.178260 1_555
P26 P39 2.205876 1_555
P26 P31 2.216009 1_555
P27 P7 2.178260 1_555
P27 P38 2.205876 1_555
P27 P33 2.216009 1_555
P28 P8 2.196584 1_555
P29 P9 2.196584 1_555
P31 P9 2.196584 1_555
P33 P8 2.196584 1_555
P36 P55 2.237162 1_555
P37 P54 2.237162 1_555
P38 P53 2.237162 1_554
P39 P52 2.237162 1_556
P40 P52 2.211232 1_555
P41 P53 2.211232 1_555
P42 P54 2.211232 1_555
P43 P7 2.180501 1_556
P43 P53 2.211232 1_555
P44 P55 2.211232 1_555
P45 P6 2.180501 1_554
P45 P52 2.211232 1_555
P46 P5 2.180501 1_555
P46 P55 2.211232 1_555
P47 P54 2.211232 1_555
P48 Pb0 2.783409 1_555
P49 Pb1 2.783409 1_555
P50 Pb2 2.783409 1_554
P51 Pb3 2.783409 1_556
