# generated using pymatgen
data_Sr4BrN2Cl
_symmetry_space_group_name_H-M   'P 1'
_cell_length_a   3.93821000
_cell_length_b   6.81993800
_cell_length_c   7.61064966
_cell_angle_alpha   72.61090836
_cell_angle_beta   90.00000000
_cell_angle_gamma   90.00000000
_symmetry_Int_Tables_number   1
_chemical_formula_structural   Sr4BrN2Cl
_chemical_formula_sum   'Sr4 Br1 N2 Cl1'
_cell_volume   195.06740096
_cell_formula_units_Z   1
loop_
 _symmetry_equiv_pos_site_id
 _symmetry_equiv_pos_as_xyz
  1  'x, y, z'
loop_
 _atom_site_type_symbol
 _atom_site_label
 _atom_site_symmetry_multiplicity
 _atom_site_fract_x
 _atom_site_fract_y
 _atom_site_fract_z
 _atom_site_occupancy
  Sr  Sr0  1  0.50000000  0.73079000  0.31374000  1
  Sr  Sr1  1  0.00000000  0.22608700  0.31566600  1
  Sr  Sr2  1  0.50000000  0.26921000  0.68626000  1
  Sr  Sr3  1  0.00000000  0.77391300  0.68433400  1
  Br  Br0  1  0.50000000  0.50000000  0.00000000  1
  N  N0  1  0.00000000  0.50000000  0.50000000  1
  N  N1  1  0.50000000  0.00000000  0.50000000  1
  Cl  Cl0  1  0.00000000  0.00000000  0.00000000  1
loop_
_geom_bond_atom_site_label_1
_geom_bond_atom_site_label_2
_geom_bond_distance
_geom_bond_site_symmetry_2
Br0 Sr2 3.228809 1_554
Br0 Sr0 3.228809 1_555
Br0 Sr1 3.233605 1_555
Br0 Sr1 3.233605 1_655
Br0 Sr3 3.233605 1_554
Br0 Sr3 3.233605 1_654
N0 Sr1 2.650334 1_555
N0 Sr3 2.650334 1_555
N0 Sr2 2.651530 1_555
N0 Sr2 2.651530 1_455
N0 Sr0 2.651530 1_455
N0 Sr0 2.651530 1_555
N1 Sr1 2.632492 1_655
N1 Sr3 2.632492 1_545
N1 Sr1 2.632492 1_555
N1 Sr3 2.632492 1_645
N1 Sr2 2.633628 1_555
N1 Sr0 2.633628 1_545
Cl0 Sr0 3.213927 1_445
Cl0 Sr2 3.213927 1_454
Cl0 Sr0 3.213927 1_545
Cl0 Sr2 3.213927 1_554
Cl0 Sr1 3.219195 1_555
Cl0 Sr3 3.219195 1_544
