# generated using pymatgen
data_NbSeOF7
_symmetry_space_group_name_H-M   'P 1'
_cell_length_a   7.00467486
_cell_length_b   7.88239826
_cell_length_c   11.03596631
_cell_angle_alpha   90.00000000
_cell_angle_beta   90.00000000
_cell_angle_gamma   90.00000000
_symmetry_Int_Tables_number   1
_chemical_formula_structural   NbSeOF7
_chemical_formula_sum   'Nb4 Se4 O4 F28'
_cell_volume   609.33583699
_cell_formula_units_Z   4
loop_
 _symmetry_equiv_pos_site_id
 _symmetry_equiv_pos_as_xyz
  1  'x, y, z'
loop_
 _atom_site_type_symbol
 _atom_site_label
 _atom_site_symmetry_multiplicity
 _atom_site_fract_x
 _atom_site_fract_y
 _atom_site_fract_z
 _atom_site_occupancy
  Nb  Nb0  1  0.70051116  0.75000000  0.15037079  1
  Nb  Nb1  1  0.20051116  0.25000000  0.34962921  1
  Nb  Nb2  1  0.29948884  0.25000000  0.84962921  1
  Nb  Nb3  1  0.79948884  0.75000000  0.65037079  1
  Se  Se0  1  0.25442597  0.75000000  0.99650378  1
  Se  Se1  1  0.75442597  0.25000000  0.50349622  1
  Se  Se2  1  0.74557403  0.25000000  0.00349622  1
  Se  Se3  1  0.24557403  0.75000000  0.49650378  1
  O  O0  1  0.48674212  0.75000000  0.01428733  1
  O  O1  1  0.01325788  0.75000000  0.51428733  1
  O  O2  1  0.51325788  0.25000000  0.98571267  1
  O  O3  1  0.98674212  0.25000000  0.48571267  1
  F  F0  1  0.69689785  0.09084648  0.40109454  1
  F  F1  1  0.80310215  0.40915352  0.90109454  1
  F  F2  1  0.30310215  0.59084648  0.59890546  1
  F  F3  1  0.19689785  0.90915352  0.09890546  1
  F  F4  1  0.30310215  0.90915352  0.59890546  1
  F  F5  1  0.80310215  0.09084648  0.90109454  1
  F  F6  1  0.69689785  0.40915352  0.40109454  1
  F  F7  1  0.19689785  0.59084648  0.09890546  1
  F  F8  1  0.86994148  0.75000000  0.01293924  1
  F  F9  1  0.36994148  0.25000000  0.48706076  1
  F  F10  1  0.13005852  0.25000000  0.98706076  1
  F  F11  1  0.63005852  0.75000000  0.51293924  1
  F  F12  1  0.89371388  0.75000000  0.26690481  1
  F  F13  1  0.39371388  0.25000000  0.23309519  1
  F  F14  1  0.10628612  0.25000000  0.73309519  1
  F  F15  1  0.60628612  0.75000000  0.76690481  1
  F  F16  1  0.49324732  0.75000000  0.26124857  1
  F  F17  1  0.99324732  0.25000000  0.23875143  1
  F  F18  1  0.50675268  0.25000000  0.73875143  1
  F  F19  1  0.00675268  0.75000000  0.76124857  1
  F  F20  1  0.69336518  0.50558844  0.13835666  1
  F  F21  1  0.19336518  0.49441156  0.36164334  1
  F  F22  1  0.30663482  0.00558844  0.86164334  1
  F  F23  1  0.80663482  0.99441156  0.63835666  1
  F  F24  1  0.30663482  0.49441156  0.86164334  1
  F  F25  1  0.80663482  0.50558844  0.63835666  1
  F  F26  1  0.69336518  0.99441156  0.13835666  1
  F  F27  1  0.19336518  0.00558844  0.36164334  1
loop_
_geom_bond_atom_site_label_1
_geom_bond_atom_site_label_2
_geom_bond_distance
_geom_bond_site_symmetry_2
Nb0 O0 2.120754 1_555
Nb1 O3 2.120754 1_455
Nb2 O2 2.120754 1_555
Nb3 O1 2.120754 1_655
O0 Se0 1.639091 1_554
O1 Se3 1.639091 1_555
O2 Se2 1.639091 1_556
O3 Se1 1.639091 1_555
F0 Se1 1.735889 1_555
F1 Se2 1.735889 1_556
F2 Se3 1.735889 1_555
F3 Se0 1.735889 1_554
F4 Se3 1.735889 1_555
F5 Se2 1.735889 1_556
F6 Se1 1.735889 1_555
F7 Se0 1.735889 1_554
F8 Nb0 1.925838 1_555
F9 Nb1 1.925838 1_555
F10 Nb2 1.925838 1_555
F11 Nb3 1.925838 1_555
F12 Nb0 1.866935 1_555
F13 Nb1 1.866935 1_555
F14 Nb2 1.866935 1_555
F15 Nb3 1.866935 1_555
F16 Nb0 1.898703 1_555
F17 Nb1 1.898703 1_655
F18 Nb2 1.898703 1_555
F19 Nb3 1.898703 1_455
F20 Nb0 1.931755 1_555
F21 Nb1 1.931755 1_555
F22 Nb2 1.931755 1_555
F23 Nb3 1.931755 1_555
F24 Nb2 1.931755 1_555
F25 Nb3 1.931755 1_555
F26 Nb0 1.931755 1_555
F27 Nb1 1.931755 1_555
