# generated using pymatgen
data_Sr2MnAlCu2O7
_symmetry_space_group_name_H-M   'P 1'
_cell_length_a   5.32611079
_cell_length_b   5.31989352
_cell_length_c   12.26260287
_cell_angle_alpha   102.50318068
_cell_angle_beta   102.46261629
_cell_angle_gamma   89.99583867
_symmetry_Int_Tables_number   1
_chemical_formula_structural   Sr2MnAlCu2O7
_chemical_formula_sum   'Sr4 Mn2 Al2 Cu4 O14'
_cell_volume   330.82294529
_cell_formula_units_Z   2
loop_
 _symmetry_equiv_pos_site_id
 _symmetry_equiv_pos_as_xyz
  1  'x, y, z'
loop_
 _atom_site_type_symbol
 _atom_site_label
 _atom_site_symmetry_multiplicity
 _atom_site_fract_x
 _atom_site_fract_y
 _atom_site_fract_z
 _atom_site_occupancy
  Sr  Sr0  1  0.32755700  0.34054900  0.70268200  1
  Sr  Sr1  1  0.63051700  0.65000500  0.29564600  1
  Sr  Sr2  1  0.82788200  0.85525800  0.70294000  1
  Sr  Sr3  1  0.13093400  0.13951000  0.29591300  1
  Mn  Mn0  1  0.26566700  0.69084100  0.49931000  1
  Mn  Mn1  1  0.76633200  0.30527400  0.49929300  1
  Al  Al0  1  0.98446900  0.01099200  0.99926200  1
  Al  Al1  1  0.48326700  0.49483500  0.99913300  1
  Cu  Cu0  1  0.91844200  0.44503200  0.88270200  1
  Cu  Cu1  1  0.04436600  0.56063100  0.11534000  1
  Cu  Cu2  1  0.41971000  0.93866100  0.88319000  1
  Cu  Cu3  1  0.54424400  0.05721600  0.11567000  1
  O  O0  1  0.12783300  0.33730300  0.49918100  1
  O  O1  1  0.62730100  0.65855300  0.49928000  1
  O  O2  1  0.24444700  0.26618600  0.89444700  1
  O  O3  1  0.36427500  0.72941400  0.10687500  1
  O  O4  1  0.74455000  0.12516500  0.89153600  1
  O  O5  1  0.86229700  0.87718700  0.10453400  1
  O  O6  1  0.59597800  0.61845100  0.88913700  1
  O  O7  1  0.71883800  0.37549000  0.10634100  1
  O  O8  1  0.09983300  0.77156100  0.89194200  1
  O  O9  1  0.21837400  0.23380400  0.10940200  1
  O  O10  1  0.29926500  0.83773800  0.65755900  1
  O  O11  1  0.64545000  0.15897000  0.34062100  1
  O  O12  1  0.80134300  0.31675900  0.65776800  1
  O  O13  1  0.14429600  0.68020500  0.34090200  1
loop_
_geom_bond_atom_site_label_1
_geom_bond_atom_site_label_2
_geom_bond_distance
_geom_bond_site_symmetry_2
Mn0 O10 1.897884 1_555
Mn0 O13 1.898635 1_555
Mn0 O1 1.933806 1_555
Mn0 O0 2.018587 1_555
Mn1 O12 1.899255 1_555
Mn1 O11 1.899960 1_555
Mn1 O0 1.933253 1_655
Mn1 O1 2.019995 1_555
Al0 O8 1.831657 1_645
Al0 O5 1.832224 1_546
Al0 O9 1.833576 1_656
Al0 O4 1.834548 1_555
Al1 O6 1.829157 1_555
Al1 O3 1.830832 1_556
Al1 O7 1.831663 1_556
Al1 O2 1.834350 1_555
Cu0 O8 1.957420 1_655
Cu0 O6 1.958019 1_555
Cu0 O4 1.971931 1_555
Cu0 O2 1.972819 1_655
Cu0 O12 2.627798 1_555
Cu1 O5 1.958276 1_455
Cu1 O3 1.958853 1_555
Cu1 O7 1.964416 1_455
Cu1 O9 1.965028 1_555
Cu1 O13 2.634649 1_555
Cu2 O6 1.952580 1_555
Cu2 O8 1.955709 1_555
Cu2 O4 1.966754 1_565
Cu2 O2 1.969165 1_565
Cu2 O10 2.635503 1_555
Cu3 O3 1.961045 1_545
Cu3 O5 1.961751 1_545
Cu3 O9 1.968314 1_555
Cu3 O7 1.968425 1_555
Cu3 O11 2.627652 1_555
O0 Sr0 2.488931 1_555
O0 Sr3 2.490508 1_555
O1 Sr2 2.488058 1_555
O1 Sr1 2.491401 1_555
O2 Sr0 2.595046 1_555
O3 Sr1 2.560132 1_555
O4 Sr2 2.571441 1_545
O5 Sr3 2.575881 1_665
O6 Sr0 2.565770 1_555
O7 Sr1 2.597330 1_555
O8 Sr2 2.581784 1_455
O9 Sr3 2.579907 1_555
O10 Sr0 2.609058 1_565
O10 Sr2 2.683690 1_455
O10 Sr2 2.747108 1_555
O10 Sr0 2.814696 1_555
O11 Sr1 2.641273 1_545
O11 Sr3 2.673563 1_555
O11 Sr3 2.754010 1_655
O11 Sr1 2.781941 1_555
O12 Sr2 2.628595 1_545
O12 Sr0 2.693829 1_555
O12 Sr0 2.734590 1_655
O12 Sr2 2.795142 1_555
O13 Sr3 2.616598 1_565
O13 Sr1 2.669819 1_455
O13 Sr1 2.760757 1_555
O13 Sr3 2.807011 1_555
