# generated using pymatgen
data_Ta20Te5S3
_symmetry_space_group_name_H-M   'P 1'
_cell_length_a   10.64165808
_cell_length_b   10.64165808
_cell_length_c   10.55009723
_cell_angle_alpha   76.52215828
_cell_angle_beta   76.52215828
_cell_angle_gamma   85.12366654
_symmetry_Int_Tables_number   1
_chemical_formula_structural   Ta20Te5S3
_chemical_formula_sum   'Ta40 Te10 S6'
_cell_volume   1129.24959346
_cell_formula_units_Z   2
loop_
 _symmetry_equiv_pos_site_id
 _symmetry_equiv_pos_as_xyz
  1  'x, y, z'
loop_
 _atom_site_type_symbol
 _atom_site_label
 _atom_site_symmetry_multiplicity
 _atom_site_fract_x
 _atom_site_fract_y
 _atom_site_fract_z
 _atom_site_occupancy
  Ta  Ta0  1  0.18662900  0.97533800  0.77292900  1
  Ta  Ta1  1  0.81337100  0.02466200  0.22707100  1
  Ta  Ta2  1  0.02466200  0.81337100  0.72707100  1
  Ta  Ta3  1  0.97533800  0.18662900  0.27292900  1
  Ta  Ta4  1  0.34931000  0.13510300  0.82984400  1
  Ta  Ta5  1  0.65069000  0.86489700  0.17015600  1
  Ta  Ta6  1  0.86489700  0.65069000  0.67015600  1
  Ta  Ta7  1  0.13510300  0.34931000  0.32984400  1
  Ta  Ta8  1  0.74819300  0.09711200  0.97262900  1
  Ta  Ta9  1  0.25180700  0.90288800  0.02737100  1
  Ta  Ta10  1  0.90288800  0.25180700  0.52737100  1
  Ta  Ta11  1  0.09711200  0.74819300  0.47262900  1
  Ta  Ta12  1  0.30125600  0.81023100  0.59403800  1
  Ta  Ta13  1  0.69874400  0.18976900  0.40596200  1
  Ta  Ta14  1  0.18976900  0.69874400  0.90596200  1
  Ta  Ta15  1  0.81023100  0.30125600  0.09403800  1
  Ta  Ta16  1  0.39328800  0.07071600  0.54631300  1
  Ta  Ta17  1  0.60671200  0.92928400  0.45368700  1
  Ta  Ta18  1  0.92928400  0.60671200  0.95368700  1
  Ta  Ta19  1  0.07071600  0.39328800  0.04631300  1
  Ta  Ta20  1  0.75339500  0.85528900  0.85624600  1
  Ta  Ta21  1  0.24660500  0.14471100  0.14375400  1
  Ta  Ta22  1  0.14471100  0.24660500  0.64375400  1
  Ta  Ta23  1  0.85528900  0.75339500  0.35624600  1
  Ta  Ta24  1  0.87240600  0.96100600  0.50897000  1
  Ta  Ta25  1  0.12759400  0.03899400  0.49103000  1
  Ta  Ta26  1  0.03899400  0.12759400  0.99103000  1
  Ta  Ta27  1  0.96100600  0.87240600  0.00897000  1
  Ta  Ta28  1  0.44527400  0.87142100  0.77917300  1
  Ta  Ta29  1  0.55472600  0.12857900  0.22082700  1
  Ta  Ta30  1  0.12857900  0.55472600  0.72082700  1
  Ta  Ta31  1  0.87142100  0.44527400  0.27917300  1
  Ta  Ta32  1  0.93611600  0.06388400  0.75000000  1
  Ta  Ta33  1  0.06388400  0.93611600  0.25000000  1
  Ta  Ta34  1  0.64582400  0.06852500  0.69804000  1
  Ta  Ta35  1  0.35417600  0.93147500  0.30196000  1
  Ta  Ta36  1  0.93147500  0.35417600  0.80196000  1
  Ta  Ta37  1  0.06852500  0.64582400  0.19804000  1
  Ta  Ta38  1  0.50000000  0.00000000  0.00000000  1
  Ta  Ta39  1  0.00000000  0.50000000  0.50000000  1
  Te  Te0  1  0.48656100  0.26721000  0.97548700  1
  Te  Te1  1  0.51343900  0.73279000  0.02451300  1
  Te  Te2  1  0.73279000  0.51343900  0.52451300  1
  Te  Te3  1  0.26721000  0.48656100  0.47548700  1
  Te  Te4  1  0.40448000  0.59552000  0.75000000  1
  Te  Te5  1  0.59552000  0.40448000  0.25000000  1
  Te  Te6  1  0.49473300  0.28743500  0.59841800  1
  Te  Te7  1  0.50526700  0.71256500  0.40158200  1
  Te  Te8  1  0.71256500  0.50526700  0.90158200  1
  Te  Te9  1  0.28743500  0.49473300  0.09841800  1
  S  S0  1  0.68044400  0.81992400  0.65980100  1
  S  S1  1  0.31955600  0.18007600  0.34019900  1
  S  S2  1  0.18007600  0.31955600  0.84019900  1
  S  S3  1  0.81992400  0.68044400  0.15980100  1
  S  S4  1  0.75861500  0.24138500  0.75000000  1
  S  S5  1  0.24138500  0.75861500  0.25000000  1
loop_
_geom_bond_atom_site_label_1
_geom_bond_atom_site_label_2
_geom_bond_distance
_geom_bond_site_symmetry_2
Ta0 Ta2 2.730957 1_555
Ta0 Ta4 2.776503 1_565
Ta0 Ta32 2.796529 1_465
Ta0 Ta9 2.844942 1_556
Ta0 Ta12 2.871453 1_555
Ta0 Ta28 2.887231 1_555
Ta0 Ta16 2.894841 1_565
Ta0 Ta22 2.935997 1_565
Ta0 Ta14 2.951972 1_555
Ta0 Ta27 3.091042 1_456
Ta0 Ta25 3.091613 1_565
Ta0 Ta26 3.163549 1_565
Ta1 Ta3 2.730957 1_555
Ta1 Ta5 2.776503 1_545
Ta1 Ta33 2.796529 1_645
Ta1 Ta8 2.844942 1_554
Ta1 Ta13 2.871453 1_555
Ta1 Ta29 2.887231 1_555
Ta1 Ta17 2.894841 1_545
Ta1 Ta23 2.935997 1_545
Ta1 Ta15 2.951972 1_555
Ta1 Ta26 3.091042 1_654
Ta1 Ta24 3.091613 1_545
Ta1 Ta27 3.163549 1_545
Ta2 Ta6 2.776503 1_455
Ta2 Ta32 2.796529 1_465
Ta2 Ta30 2.887231 1_555
Ta2 Ta20 2.935997 1_455
Ta2 Ta25 3.091042 1_565
Ta2 Ta27 3.091613 1_456
Ta2 Ta24 3.163549 1_455
Ta3 Ta7 2.776503 1_655
Ta3 Ta33 2.796529 1_645
Ta3 Ta31 2.887231 1_555
Ta4 Te6 2.793612 1_555
Ta4 Te0 2.978723 1_555
Ta5 Te7 2.793612 1_555
Ta5 Te1 2.978723 1_555
Ta6 Te8 2.793612 1_555
Ta6 Te2 2.978723 1_555
Ta7 Te9 2.793612 1_555
Ta7 Te3 2.978723 1_555
Ta8 Te0 3.187275 1_555
Ta9 Te1 3.187275 1_555
Ta10 Ta3 2.844942 1_555
Ta10 Te2 3.187275 1_555
Ta11 Ta2 2.844942 1_555
Ta11 Te3 3.187275 1_555
Ta12 Te4 2.792498 1_555
Ta12 Te7 2.908856 1_555
Ta12 Ta2 2.951972 1_555
Ta13 Te5 2.792498 1_555
Ta13 Te6 2.908856 1_555
Ta13 Ta3 2.951972 1_555
Ta14 Te4 2.792498 1_555
Ta14 Ta2 2.871453 1_555
Ta14 Te9 2.908856 1_556
Ta15 Te5 2.792498 1_555
Ta15 Ta3 2.871453 1_555
Ta15 Te8 2.908856 1_554
Ta16 Te6 2.842049 1_555
Ta17 Te7 2.842049 1_555
Ta18 Te8 2.842049 1_555
Ta18 Ta2 2.894841 1_655
Ta19 Te9 2.842049 1_555
Ta19 Ta3 2.894841 1_455
Ta20 Te1 2.957272 1_556
Ta21 Ta3 2.935997 1_455
Ta21 Te0 2.957272 1_554
Ta22 Te3 2.957272 1_555
Ta23 Te2 2.957272 1_555
Ta24 Ta3 3.091042 1_565
Ta25 Ta3 3.163549 1_455
Ta26 Ta3 3.091613 1_456
Ta28 Te1 2.883664 1_556
Ta28 Te4 3.098990 1_555
Ta29 Te0 2.883664 1_554
Ta29 Te5 3.098990 1_555
Ta30 Te3 2.883664 1_555
Ta30 Te4 3.098990 1_555
Ta31 Te2 2.883664 1_555
Ta31 Te5 3.098990 1_555
Ta34 Te6 2.850677 1_555
Ta35 Te7 2.850677 1_555
Ta36 Te8 2.850677 1_555
Ta37 Te9 2.850677 1_555
Ta38 Te1 2.788990 1_545
Ta38 Te0 2.788990 1_554
Ta39 Te2 2.788990 1_455
Ta39 Te3 2.788990 1_555
S0 Ta17 2.481735 1_555
S0 Ta20 2.490553 1_555
S0 Ta6 2.552540 1_555
S0 Ta28 2.601687 1_555
S0 Ta24 2.617584 1_555
S0 Ta34 2.749510 1_565
S1 Ta16 2.481735 1_555
S1 Ta21 2.490553 1_555
S1 Ta7 2.552540 1_555
S1 Ta29 2.601687 1_555
S1 Ta25 2.617584 1_555
S1 Ta35 2.749510 1_545
S2 Ta19 2.481735 1_556
S2 Ta22 2.490553 1_555
S2 Ta4 2.552540 1_555
S2 Ta30 2.601687 1_555
S2 Ta26 2.617584 1_555
S2 Ta36 2.749510 1_455
S3 Ta18 2.481735 1_554
S3 Ta23 2.490553 1_555
S3 Ta5 2.552540 1_555
S3 Ta31 2.601687 1_555
S3 Ta27 2.617584 1_555
S3 Ta37 2.749510 1_655
S4 Ta8 2.472392 1_555
S4 Ta10 2.472392 1_555
S4 Ta34 2.505422 1_555
S4 Ta36 2.505422 1_555
S4 Ta32 2.555256 1_555
S5 Ta11 2.472392 1_555
S5 Ta9 2.472392 1_555
S5 Ta37 2.505422 1_555
S5 Ta35 2.505422 1_555
S5 Ta33 2.555256 1_555
