# generated using pymatgen
data_TaWO7
_symmetry_space_group_name_H-M   'P 1'
_cell_length_a   7.42501330
_cell_length_b   7.42501330
_cell_length_c   7.42501330
_cell_angle_alpha   120.07555698
_cell_angle_beta   119.73103948
_cell_angle_gamma   90.16783233
_symmetry_Int_Tables_number   1
_chemical_formula_structural   TaWO7
_chemical_formula_sum   'Ta2 W2 O14'
_cell_volume   289.87056973
_cell_formula_units_Z   2
loop_
 _symmetry_equiv_pos_site_id
 _symmetry_equiv_pos_as_xyz
  1  'x, y, z'
loop_
 _atom_site_type_symbol
 _atom_site_label
 _atom_site_symmetry_multiplicity
 _atom_site_fract_x
 _atom_site_fract_y
 _atom_site_fract_z
 _atom_site_occupancy
  Ta  Ta0  1  0.00000000  0.00000000  0.00000000  1
  Ta  Ta1  1  0.50000000  0.00000000  0.50000000  1
  W  W0  1  0.50000000  0.00000000  0.00000000  1
  W  W1  1  0.50000000  0.50000000  0.50000000  1
  O  O0  1  0.18885500  0.93885500  0.25000000  1
  O  O1  1  0.55726300  0.30726300  0.25000000  1
  O  O2  1  0.19610900  0.93941100  0.88242900  1
  O  O3  1  0.55698200  0.31367900  0.61757100  1
  O  O4  1  0.55698200  0.93941100  0.24330300  1
  O  O5  1  0.19610900  0.31367900  0.25669700  1
  O  O6  1  0.81114500  0.06114500  0.75000000  1
  O  O7  1  0.44273700  0.69273700  0.75000000  1
  O  O8  1  0.80389100  0.06058900  0.11757100  1
  O  O9  1  0.44301800  0.68632100  0.38242900  1
  O  O10  1  0.44301800  0.06058900  0.75669700  1
  O  O11  1  0.80389100  0.68632100  0.74330300  1
  O  O12  1  0.87646000  0.62646000  0.25000000  1
  O  O13  1  0.12354000  0.37354000  0.75000000  1
loop_
_geom_bond_atom_site_label_1
_geom_bond_atom_site_label_2
_geom_bond_distance
_geom_bond_site_symmetry_2
O0 Ta1 1.970979 1_565
O0 Ta0 1.970979 1_565
O1 W1 1.948924 1_555
O1 W0 1.948924 1_555
O2 W0 1.924185 1_566
O2 Ta0 1.988900 1_566
O3 W1 1.924192 1_555
O3 Ta1 1.988893 1_555
O4 W0 1.924192 1_565
O4 Ta1 1.988893 1_565
O5 W1 1.924186 1_555
O5 Ta0 1.988895 1_555
O6 Ta0 1.970979 1_656
O6 Ta1 1.970979 1_555
O7 W0 1.948924 1_566
O7 W1 1.948924 1_555
O8 W0 1.924185 1_555
O8 Ta0 1.988900 1_655
O9 W1 1.924192 1_555
O9 Ta1 1.988893 1_565
O10 W0 1.924192 1_556
O10 Ta1 1.988893 1_555
O11 W1 1.924186 1_555
O11 Ta0 1.988895 1_666
