# generated using pymatgen
data_Mg14VCo
_symmetry_space_group_name_H-M   'P 1'
_cell_length_a   6.21898385
_cell_length_b   6.21898336
_cell_length_c   9.84456427
_cell_angle_alpha   90.00000000
_cell_angle_beta   90.00000000
_cell_angle_gamma   120.00000254
_symmetry_Int_Tables_number   1
_chemical_formula_structural   Mg14VCo
_chemical_formula_sum   'Mg14 V1 Co1'
_cell_volume   329.73567953
_cell_formula_units_Z   1
loop_
 _symmetry_equiv_pos_site_id
 _symmetry_equiv_pos_as_xyz
  1  'x, y, z'
loop_
 _atom_site_type_symbol
 _atom_site_label
 _atom_site_symmetry_multiplicity
 _atom_site_fract_x
 _atom_site_fract_y
 _atom_site_fract_z
 _atom_site_occupancy
  Mg  Mg0  1  0.16586261  0.83293081  0.12500000  1
  Mg  Mg1  1  0.17068093  0.83533997  0.62500000  1
  Mg  Mg2  1  0.66706919  0.33413739  0.12500000  1
  Mg  Mg3  1  0.66466003  0.32931907  0.62500000  1
  Mg  Mg4  1  0.66706919  0.83293081  0.12500000  1
  Mg  Mg5  1  0.66466003  0.83533997  0.62500000  1
  Mg  Mg6  1  0.32391101  0.17608899  0.37164137  1
  Mg  Mg7  1  0.32391101  0.17608899  0.87835863  1
  Mg  Mg8  1  0.32391101  0.64782302  0.37164137  1
  Mg  Mg9  1  0.32391101  0.64782302  0.87835863  1
  Mg  Mg10  1  0.85217698  0.17608899  0.37164137  1
  Mg  Mg11  1  0.85217698  0.17608899  0.87835863  1
  Mg  Mg12  1  0.83333300  0.66666700  0.37831700  1
  Mg  Mg13  1  0.83333300  0.66666700  0.87168300  1
  V  V0  1  0.16666700  0.33333300  0.62500000  1
  Co  Co0  1  0.16666700  0.33333300  0.12500000  1
loop_
_geom_bond_atom_site_label_1
_geom_bond_atom_site_label_2
_geom_bond_distance
_geom_bond_site_symmetry_2
Mg0 Mg9 3.052600 1_554
Mg0 Mg8 3.052600 1_555
Mg0 Mg7 3.052607 1_564
Mg0 Mg6 3.052607 1_565
Mg0 Mg12 3.070256 1_455
Mg0 Mg13 3.070256 1_454
Mg0 Mg2 3.101988 1_455
Mg0 Mg4 3.101988 1_455
Mg0 Mg2 3.116995 1_565
Mg0 Mg4 3.116996 1_555
Mg1 Mg13 3.032924 1_455
Mg1 Mg12 3.032924 1_455
Mg1 Mg3 3.072048 1_565
Mg1 Mg5 3.072048 1_555
Mg1 Mg8 3.098446 1_555
Mg1 Mg9 3.098446 1_555
Mg1 Mg6 3.098452 1_565
Mg1 Mg7 3.098452 1_565
Mg1 V0 3.109567 1_565
Mg1 V0 3.109567 1_555
Mg1 Mg3 3.146936 1_455
Mg1 Mg5 3.146936 1_455
Mg2 Mg7 3.052607 1_554
Mg2 Mg6 3.052607 1_555
Mg2 Mg4 3.101988 1_555
Mg2 Mg4 3.116995 1_545
Mg3 Mg5 3.072048 1_545
Mg3 Mg6 3.098452 1_555
Mg3 Mg7 3.098452 1_555
Mg3 V0 3.109567 1_555
Mg3 V0 3.109567 1_655
Mg3 Mg5 3.146936 1_555
Mg4 Mg9 3.052607 1_554
Mg4 Mg8 3.052607 1_555
Mg5 Mg8 3.098452 1_555
Mg5 Mg9 3.098452 1_555
Mg5 V0 3.109567 1_555
Mg5 V0 3.109567 1_665
Mg6 Mg8 2.933706 1_555
Mg6 V0 3.014948 1_555
Mg6 Mg8 3.285277 1_545
Mg7 Mg9 2.933706 1_555
Mg7 V0 3.014948 1_555
Mg7 Mg9 3.285277 1_545
Mg8 V0 3.014954 1_555
Mg9 V0 3.014954 1_555
Mg10 Mg8 2.933706 1_655
Mg10 Mg6 2.933706 1_655
Mg10 V0 3.014954 1_655
Mg10 Mg2 3.052600 1_555
Mg10 Mg4 3.052607 1_545
Mg10 Mg3 3.098446 1_555
Mg10 Mg5 3.098452 1_545
Mg10 Mg12 3.111842 1_545
Mg10 Mg12 3.111842 1_555
Mg10 Mg8 3.285277 1_545
Mg10 Mg6 3.285278 1_555
Mg11 Mg9 2.933706 1_655
Mg11 Mg7 2.933706 1_655
Mg11 V0 3.014954 1_655
Mg11 Mg2 3.052600 1_556
Mg11 Mg4 3.052607 1_546
Mg11 Mg3 3.098446 1_555
Mg11 Mg5 3.098452 1_545
Mg11 Mg13 3.111842 1_545
Mg11 Mg13 3.111842 1_555
Mg11 Mg9 3.285277 1_545
Mg11 Mg7 3.285278 1_555
Mg12 Mg5 3.032918 1_555
Mg12 Mg3 3.032924 1_555
Mg12 Mg4 3.070250 1_555
Mg12 Mg2 3.070256 1_555
Mg12 Mg6 3.111842 1_665
Mg12 Mg6 3.111842 1_555
Mg12 Mg8 3.111842 1_655
Mg12 Mg8 3.111842 1_555
Mg13 Mg5 3.032918 1_555
Mg13 Mg3 3.032924 1_555
Mg13 Mg4 3.070250 1_556
Mg13 Mg2 3.070256 1_556
Mg13 Mg7 3.111842 1_665
Mg13 Mg7 3.111842 1_555
Mg13 Mg9 3.111842 1_655
Mg13 Mg9 3.111842 1_555
Co0 Mg7 2.960475 1_554
Co0 Mg6 2.960475 1_555
Co0 Mg9 2.960481 1_554
Co0 Mg8 2.960481 1_555
Co0 Mg11 2.960481 1_454
Co0 Mg10 2.960481 1_455
Co0 Mg0 3.109495 1_545
Co0 Mg4 3.109495 1_445
Co0 Mg4 3.109495 1_555
Co0 Mg0 3.109495 1_555
Co0 Mg2 3.109495 1_555
Co0 Mg2 3.109495 1_455
