# generated using pymatgen
data_Er5BiPd2
_symmetry_space_group_name_H-M   'P 1'
_cell_length_a   8.70225997
_cell_length_b   8.70225997
_cell_length_c   8.70225997
_cell_angle_alpha   127.45361026
_cell_angle_beta   127.45361026
_cell_angle_gamma   77.51184496
_symmetry_Int_Tables_number   1
_chemical_formula_structural   Er5BiPd2
_chemical_formula_sum   'Er10 Bi2 Pd4'
_cell_volume   402.78633997
_cell_formula_units_Z   2
loop_
 _symmetry_equiv_pos_site_id
 _symmetry_equiv_pos_as_xyz
  1  'x, y, z'
loop_
 _atom_site_type_symbol
 _atom_site_label
 _atom_site_symmetry_multiplicity
 _atom_site_fract_x
 _atom_site_fract_y
 _atom_site_fract_z
 _atom_site_occupancy
  Er  Er0  1  -0.00000000  -0.00000000  -0.00000000  1
  Er  Er1  1  0.50000000  0.50000000  -0.00000000  1
  Er  Er2  1  0.79381948  0.29381948  0.80742756  1
  Er  Er3  1  0.20618052  0.70618052  0.19257244  1
  Er  Er4  1  0.48639193  0.98639193  0.19257244  1
  Er  Er5  1  0.29381948  0.48639193  0.50000000  1
  Er  Er6  1  0.01360807  0.20618052  0.50000000  1
  Er  Er7  1  0.51360807  0.01360807  0.80742756  1
  Er  Er8  1  0.70618052  0.51360807  0.50000000  1
  Er  Er9  1  0.98639193  0.79381948  0.50000000  1
  Bi  Bi0  1  0.25000000  0.25000000  -0.00000000  1
  Bi  Bi1  1  0.75000000  0.75000000  -0.00000000  1
  Pd  Pd0  1  0.13836690  0.63836690  0.77673480  1
  Pd  Pd1  1  0.86163310  0.36163310  0.22326520  1
  Pd  Pd2  1  0.63836690  0.86163310  0.50000000  1
  Pd  Pd3  1  0.36163310  0.13836690  0.50000000  1
loop_
_geom_bond_atom_site_label_1
_geom_bond_atom_site_label_2
_geom_bond_distance
_geom_bond_site_symmetry_2
Er0 Pd0 2.983042 1_544
Er0 Pd1 2.983042 1_455
Er0 Pd2 2.983044 1_444
Er0 Pd3 2.983044 1_555
Er0 Er2 3.483638 1_454
Er0 Er3 3.483638 1_545
Er0 Er6 3.483638 1_555
Er0 Er5 3.483638 1_555
Er0 Er8 3.483638 1_444
Er0 Er9 3.483638 1_444
Er0 Er4 3.483638 1_545
Er0 Er7 3.483638 1_454
Er1 Pd1 2.983042 1_555
Er1 Pd0 2.983042 1_554
Er1 Pd2 2.983044 1_555
Er1 Pd3 2.983044 1_554
Er1 Er3 3.483638 1_555
Er1 Er2 3.483638 1_554
Er1 Er8 3.483638 1_555
Er1 Er5 3.483638 1_554
Er1 Er9 3.483638 1_555
Er1 Er6 3.483638 1_554
Er1 Er4 3.483638 1_555
Er1 Er7 3.483638 1_554
Er2 Pd3 2.948471 1_555
Er2 Pd2 2.948471 1_545
Er2 Pd1 2.957650 1_556
Er2 Er4 3.349516 1_545
Er2 Er3 3.647025 1_656
Er2 Er8 3.808970 1_555
Er2 Er6 3.808970 1_655
Er3 Pd2 2.948471 1_555
Er3 Pd3 2.948471 1_565
Er3 Pd0 2.957650 1_554
Er3 Er7 3.349516 1_565
Er3 Er5 3.808970 1_555
Er3 Er9 3.808970 1_455
Er4 Pd3 2.948471 1_565
Er4 Pd2 2.948471 1_555
Er4 Pd0 2.957659 1_554
Er4 Er7 3.647025 1_564
Er4 Er8 3.808970 1_565
Er4 Er6 3.808970 1_665
Er5 Pd1 2.948470 1_455
Er5 Pd0 2.948478 1_555
Er5 Pd3 2.957659 1_555
Er5 Er9 3.349516 1_455
Er5 Er8 3.647025 1_555
Er5 Er7 3.808970 1_565
Er6 Pd0 2.948470 1_555
Er6 Pd1 2.948478 1_455
Er6 Pd3 2.957659 1_555
Er6 Er8 3.349516 1_455
Er6 Er9 3.647025 1_445
Er7 Pd2 2.948471 1_545
Er7 Pd3 2.948471 1_555
Er7 Pd1 2.957659 1_556
Er7 Er9 3.808970 1_445
Er8 Pd0 2.948470 1_655
Er8 Pd1 2.948478 1_555
Er8 Pd2 2.957659 1_555
Er9 Pd1 2.948470 1_555
Er9 Pd0 2.948478 1_655
Er9 Pd2 2.957659 1_555
Bi0 Er4 3.277868 1_545
Bi0 Er7 3.277868 1_554
Bi0 Er9 3.277868 1_444
Bi0 Er6 3.277868 1_554
Bi0 Er5 3.277868 1_555
Bi0 Er8 3.277868 1_555
Bi0 Er3 3.277868 1_555
Bi0 Er2 3.277868 1_454
Bi0 Er1 3.393097 1_555
Bi0 Er0 3.393097 1_555
Bi1 Er4 3.277868 1_555
Bi1 Er7 3.277868 1_564
Bi1 Er9 3.277868 1_555
Bi1 Er8 3.277868 1_554
Bi1 Er5 3.277868 1_554
Bi1 Er6 3.277868 1_665
Bi1 Er3 3.277868 1_655
Bi1 Er2 3.277868 1_554
Bi1 Er1 3.393097 1_555
Bi1 Er0 3.393097 1_665
Pd0 Pd1 3.015109 1_455
Pd2 Pd3 3.015098 1_565
