# generated using pymatgen
data_KIO3
_symmetry_space_group_name_H-M   'P 1'
_cell_length_a   7.85111293
_cell_length_b   7.85111293
_cell_length_c   9.07698019
_cell_angle_alpha   54.80104569
_cell_angle_beta   54.80104569
_cell_angle_gamma   70.47362089
_symmetry_Int_Tables_number   1
_chemical_formula_structural   KIO3
_chemical_formula_sum   'K4 I4 O12'
_cell_volume   373.60376966
_cell_formula_units_Z   4
loop_
 _symmetry_equiv_pos_site_id
 _symmetry_equiv_pos_as_xyz
  1  'x, y, z'
loop_
 _atom_site_type_symbol
 _atom_site_label
 _atom_site_symmetry_multiplicity
 _atom_site_fract_x
 _atom_site_fract_y
 _atom_site_fract_z
 _atom_site_occupancy
  K  K0  1  0.99720700  0.00279300  0.50000000  1
  K  K1  1  0.49725300  0.50274700  0.00000000  1
  K  K2  1  0.00359800  0.99640200  0.00000000  1
  K  K3  1  0.50656100  0.49343900  0.50000000  1
  I  I0  1  0.48716500  0.97731100  0.03685000  1
  I  I1  1  0.97090300  0.49060700  0.50457900  1
  I  I2  1  0.50939300  0.02909700  0.49542100  1
  I  I3  1  0.02268900  0.51283500  0.96315000  1
  O  O0  1  0.19504900  0.73621300  0.78937400  1
  O  O1  1  0.73685000  0.19533800  0.27790100  1
  O  O2  1  0.69056000  0.77475000  0.05028300  1
  O  O3  1  0.26378700  0.80495100  0.21062600  1
  O  O4  1  0.45581100  0.03780100  0.21945300  1
  O  O5  1  0.76356200  0.68994000  0.50882000  1
  O  O6  1  0.22525000  0.30944000  0.94971700  1
  O  O7  1  0.80466200  0.26315000  0.72209900  1
  O  O8  1  0.01330000  0.47435400  0.29113100  1
  O  O9  1  0.52564600  0.98670000  0.70886900  1
  O  O10  1  0.31006000  0.23643800  0.49118000  1
  O  O11  1  0.96219900  0.54418900  0.78054700  1
loop_
_geom_bond_atom_site_label_1
_geom_bond_atom_site_label_2
_geom_bond_distance
_geom_bond_site_symmetry_2
K0 O11 2.967951 1_545
K0 O4 2.967951 1_655
K0 O8 3.043336 1_655
K0 O9 3.043336 1_545
K0 O1 3.114394 1_555
K0 O7 3.114394 1_555
K0 O0 3.144043 1_645
K0 O3 3.144043 1_645
K1 O11 3.010465 1_554
K1 O4 3.010465 1_555
K1 O9 3.127542 1_554
K1 O8 3.127542 1_555
K1 O5 3.187923 1_554
K1 O10 3.187923 1_555
K1 O3 3.305540 1_555
K1 O0 3.305540 1_554
K1 O7 3.338171 1_554
K1 O1 3.338171 1_555
K1 O2 3.340796 1_555
K1 O6 3.340796 1_554
K2 O0 3.037152 1_554
K2 O3 3.037152 1_555
K2 O7 3.074670 1_464
K2 O1 3.074670 1_465
K2 O6 3.150738 1_564
K2 O2 3.150738 1_455
K2 O5 3.295110 1_455
K2 O10 3.295110 1_564
K2 O9 3.365263 1_554
K2 O8 3.365263 1_555
K3 O2 2.927307 1_555
K3 O6 2.927307 1_555
K3 O5 2.977801 1_555
K3 O10 2.977801 1_555
I0 O3 1.825258 1_555
I0 O4 1.841830 1_565
I0 O2 1.843177 1_555
I1 O7 1.820261 1_555
I1 O8 1.842278 1_655
I1 O5 1.842495 1_555
I2 O1 1.820261 1_555
I2 O9 1.842278 1_545
I2 O10 1.842495 1_555
I3 O0 1.825258 1_555
I3 O11 1.841830 1_455
I3 O6 1.843177 1_555
