# generated using pymatgen
data_Ca(MoO2)2
_symmetry_space_group_name_H-M   'P 1'
_cell_length_a   6.47872508
_cell_length_b   6.47915035
_cell_length_c   6.47879068
_cell_angle_alpha   59.99978085
_cell_angle_beta   59.99749661
_cell_angle_gamma   59.99934731
_symmetry_Int_Tables_number   1
_chemical_formula_structural   Ca(MoO2)2
_chemical_formula_sum   'Ca2 Mo4 O8'
_cell_volume   192.29831640
_cell_formula_units_Z   2
loop_
 _symmetry_equiv_pos_site_id
 _symmetry_equiv_pos_as_xyz
  1  'x, y, z'
loop_
 _atom_site_type_symbol
 _atom_site_label
 _atom_site_symmetry_multiplicity
 _atom_site_fract_x
 _atom_site_fract_y
 _atom_site_fract_z
 _atom_site_occupancy
  Ca  Ca0  1  0.75000942  0.74998712  0.75001020  1
  Ca  Ca1  1  0.49998914  0.50001544  0.49998842  1
  Mo  Mo0  1  0.12499847  0.12500257  0.62500264  1
  Mo  Mo1  1  0.62499846  0.12500372  0.12500058  1
  Mo  Mo2  1  0.12499788  0.12500151  0.12500311  1
  Mo  Mo3  1  0.12499686  0.62500114  0.12500279  1
  O  O0  1  0.92687946  0.35770484  0.35770479  1
  O  O1  1  0.35770713  0.35770923  0.92687902  1
  O  O2  1  0.35771148  0.35771355  0.35770570  1
  O  O3  1  0.32309639  0.89230094  0.89230064  1
  O  O4  1  0.89230220  0.32311282  0.89229330  1
  O  O5  1  0.89230572  0.89229493  0.32309536  1
  O  O6  1  0.35770696  0.92686443  0.35771116  1
  O  O7  1  0.89230143  0.89228875  0.89230231  1
loop_
_geom_bond_atom_site_label_1
_geom_bond_atom_site_label_2
_geom_bond_distance
_geom_bond_site_symmetry_2
Ca0 O7 2.258241 1_555
Ca0 O4 2.258252 1_555
Ca0 O3 2.258256 1_555
Ca0 O5 2.258299 1_555
Ca1 O2 2.258117 1_555
Ca1 O6 2.258118 1_555
Ca1 O0 2.258136 1_555
Ca1 O1 2.258170 1_555
Mo0 O4 2.143833 1_455
Mo0 O3 2.143840 1_545
Mo0 O7 2.143891 1_445
Mo0 O0 2.143928 1_455
Mo0 O2 2.143945 1_555
Mo0 O6 2.143955 1_545
Mo1 O5 2.143865 1_545
Mo1 O4 2.143892 1_554
Mo1 O2 2.143893 1_555
Mo1 O7 2.143897 1_544
Mo1 O1 2.143900 1_554
Mo1 O6 2.143959 1_545
Mo2 O5 2.143865 1_445
Mo2 O4 2.143869 1_454
Mo2 O0 2.143878 1_455
Mo2 O3 2.143882 1_544
Mo2 O6 2.143909 1_545
Mo2 O1 2.143933 1_554
Mo3 O5 2.143809 1_455
Mo3 O7 2.143839 1_454
Mo3 O3 2.143874 1_554
Mo3 O2 2.143931 1_555
Mo3 O1 2.143931 1_554
Mo3 O0 2.143932 1_455
