# generated using pymatgen
data_Sc2InPd2
_symmetry_space_group_name_H-M   'P 1'
_cell_length_a   7.50738060
_cell_length_b   7.50738060
_cell_length_c   6.77337068
_cell_angle_alpha   90.00000000
_cell_angle_beta   90.00000000
_cell_angle_gamma   90.00000000
_symmetry_Int_Tables_number   1
_chemical_formula_structural   Sc2InPd2
_chemical_formula_sum   'Sc8 In4 Pd8'
_cell_volume   381.75234281
_cell_formula_units_Z   4
loop_
 _symmetry_equiv_pos_site_id
 _symmetry_equiv_pos_as_xyz
  1  'x, y, z'
loop_
 _atom_site_type_symbol
 _atom_site_label
 _atom_site_symmetry_multiplicity
 _atom_site_fract_x
 _atom_site_fract_y
 _atom_site_fract_z
 _atom_site_occupancy
  Sc  Sc0  1  0.16086544  0.16086544  -0.00000000  1
  Sc  Sc1  1  0.83913456  0.83913456  -0.00000000  1
  Sc  Sc2  1  0.66086544  0.33913456  0.50000000  1
  Sc  Sc3  1  0.33913456  0.66086544  0.50000000  1
  Sc  Sc4  1  0.68088616  0.31911384  -0.00000000  1
  Sc  Sc5  1  0.31911384  0.68088616  -0.00000000  1
  Sc  Sc6  1  0.81911384  0.81911384  0.50000000  1
  Sc  Sc7  1  0.18088616  0.18088616  0.50000000  1
  In  In0  1  0.50000000  0.00000000  0.25000000  1
  In  In1  1  0.50000000  0.00000000  0.75000000  1
  In  In2  1  -0.00000000  0.50000000  0.25000000  1
  In  In3  1  -0.00000000  0.50000000  0.75000000  1
  Pd  Pd0  1  0.37027029  0.37027029  0.22982807  1
  Pd  Pd1  1  0.62972971  0.62972971  0.77017193  1
  Pd  Pd2  1  0.62972971  0.62972971  0.22982807  1
  Pd  Pd3  1  0.87027029  0.12972971  0.72982807  1
  Pd  Pd4  1  0.87027029  0.12972971  0.27017193  1
  Pd  Pd5  1  0.37027029  0.37027029  0.77017193  1
  Pd  Pd6  1  0.12972971  0.87027029  0.27017193  1
  Pd  Pd7  1  0.12972971  0.87027029  0.72982807  1
loop_
_geom_bond_atom_site_label_1
_geom_bond_atom_site_label_2
_geom_bond_distance
_geom_bond_site_symmetry_2
In0 Pd2 2.948605 1_545
In0 Pd0 2.948605 1_555
In0 Pd4 2.948605 1_555
In0 Pd6 2.948605 1_545
In0 Sc6 3.232792 1_545
In0 Sc7 3.232792 1_555
In0 Sc5 3.232792 1_545
In0 Sc4 3.232792 1_555
In0 Sc0 3.287564 1_555
In0 Sc3 3.287564 1_545
In0 Sc1 3.287564 1_545
In0 Sc2 3.287564 1_555
In0 In1 3.386685 1_554
In0 In1 3.386685 1_555
In1 Pd5 2.948605 1_555
In1 Pd1 2.948605 1_545
In1 Pd3 2.948605 1_555
In1 Pd7 2.948605 1_545
In1 Sc5 3.232792 1_546
In1 Sc6 3.232792 1_545
In1 Sc4 3.232792 1_556
In1 Sc7 3.232792 1_555
In1 Sc0 3.287564 1_556
In1 Sc1 3.287564 1_546
In1 Sc3 3.287564 1_545
In1 Sc2 3.287564 1_555
In2 Pd6 2.948605 1_555
In2 Pd0 2.948605 1_555
In2 Pd4 2.948605 1_455
In2 Pd2 2.948605 1_455
In2 Sc4 3.232792 1_455
In2 Sc7 3.232792 1_555
In2 Sc5 3.232792 1_555
In2 Sc6 3.232792 1_455
In2 Sc2 3.287564 1_455
In2 Sc0 3.287564 1_555
In2 Sc1 3.287564 1_455
In2 Sc3 3.287564 1_555
In2 In3 3.386685 1_554
In2 In3 3.386685 1_555
In3 Pd3 2.948605 1_455
In3 Pd5 2.948605 1_555
In3 Pd1 2.948605 1_455
In3 Pd7 2.948605 1_555
In3 Sc7 3.232792 1_555
In3 Sc5 3.232792 1_556
In3 Sc4 3.232792 1_456
In3 Sc6 3.232792 1_455
In3 Sc2 3.287564 1_455
In3 Sc1 3.287564 1_456
In3 Sc0 3.287564 1_556
In3 Sc3 3.287564 1_555
Pd0 Sc0 2.714080 1_555
Pd0 Sc7 2.718771 1_555
Pd0 Pd2 2.754691 1_555
Pd0 Sc4 2.829957 1_555
Pd0 Sc5 2.829957 1_555
Pd0 Sc2 2.857072 1_555
Pd0 Sc3 2.857072 1_555
Pd0 Pd5 3.113421 1_554
Pd1 Sc1 2.714080 1_556
Pd1 Sc6 2.718771 1_555
Pd1 Pd5 2.754691 1_555
Pd1 Sc5 2.829957 1_556
Pd1 Sc4 2.829957 1_556
Pd1 Sc2 2.857072 1_555
Pd1 Sc3 2.857072 1_555
Pd1 Pd2 3.113421 1_556
Pd2 Sc1 2.714080 1_555
Pd2 Sc6 2.718771 1_555
Pd2 Sc5 2.829957 1_555
Pd2 Sc4 2.829957 1_555
Pd2 Sc2 2.857072 1_555
Pd2 Sc3 2.857072 1_555
Pd3 Sc2 2.714080 1_555
Pd3 Sc4 2.718771 1_556
Pd3 Pd7 2.754691 1_645
Pd3 Sc6 2.829957 1_545
Pd3 Sc7 2.829957 1_655
Pd3 Sc0 2.857072 1_656
Pd3 Sc1 2.857072 1_546
Pd3 Pd4 3.113421 1_555
Pd4 Sc2 2.714080 1_555
Pd4 Sc4 2.718771 1_555
Pd4 Pd6 2.754691 1_645
Pd4 Sc6 2.829957 1_545
Pd4 Sc7 2.829957 1_655
Pd4 Sc1 2.857072 1_545
Pd4 Sc0 2.857072 1_655
Pd5 Sc0 2.714080 1_556
Pd5 Sc7 2.718771 1_555
Pd5 Sc5 2.829957 1_556
Pd5 Sc4 2.829957 1_556
Pd5 Sc3 2.857072 1_555
Pd5 Sc2 2.857072 1_555
Pd6 Sc3 2.714080 1_555
Pd6 Sc5 2.718771 1_555
Pd6 Sc7 2.829957 1_565
Pd6 Sc6 2.829957 1_455
Pd6 Sc0 2.857072 1_565
Pd6 Sc1 2.857072 1_455
Pd6 Pd7 3.113421 1_555
Pd7 Sc3 2.714080 1_555
Pd7 Sc5 2.718771 1_556
Pd7 Sc7 2.829957 1_565
Pd7 Sc6 2.829957 1_455
Pd7 Sc1 2.857072 1_456
Pd7 Sc0 2.857072 1_566
