# generated using pymatgen
data_Tm5(Ge5Ir2)2
_symmetry_space_group_name_H-M   'P 1'
_cell_length_a   12.88450036
_cell_length_b   12.88449628
_cell_length_c   4.26990167
_cell_angle_alpha   89.99999996
_cell_angle_beta   90.00000165
_cell_angle_gamma   90.00200278
_symmetry_Int_Tables_number   1
_chemical_formula_structural   Tm5(Ge5Ir2)2
_chemical_formula_sum   'Tm10 Ge20 Ir8'
_cell_volume   708.84764400
_cell_formula_units_Z   2
loop_
 _symmetry_equiv_pos_site_id
 _symmetry_equiv_pos_as_xyz
  1  'x, y, z'
loop_
 _atom_site_type_symbol
 _atom_site_label
 _atom_site_symmetry_multiplicity
 _atom_site_fract_x
 _atom_site_fract_y
 _atom_site_fract_z
 _atom_site_occupancy
  Tm  Tm0  1  0.50000078  0.49998404  0.00000002  1
  Tm  Tm1  1  -0.00000184  0.00001655  -0.00000001  1
  Tm  Tm2  1  0.67292033  0.17294296  0.50000025  1
  Tm  Tm3  1  0.32707666  0.82706850  0.49999995  1
  Tm  Tm4  1  0.17297716  0.32702890  0.50000008  1
  Tm  Tm5  1  0.82701728  0.67295773  0.50000008  1
  Tm  Tm6  1  0.88468313  0.38467857  0.49999975  1
  Tm  Tm7  1  0.11531876  0.61530298  0.50000007  1
  Tm  Tm8  1  0.38468526  0.11533106  0.49999999  1
  Tm  Tm9  1  0.61531982  0.88468643  0.49999994  1
  Ge  Ge0  1  0.56700470  0.06699458  -0.00000011  1
  Ge  Ge1  1  0.43299865  0.93303092  0.00000008  1
  Ge  Ge2  1  0.06701412  0.43295114  0.00000002  1
  Ge  Ge3  1  0.93298437  0.56702264  -0.00000009  1
  Ge  Ge4  1  0.66465962  0.70046547  -0.00000032  1
  Ge  Ge5  1  0.33534737  0.29953084  0.00000016  1
  Ge  Ge6  1  0.16469471  0.79968931  0.00000002  1
  Ge  Ge7  1  0.83530888  0.20031395  -0.00000007  1
  Ge  Ge8  1  0.29962986  0.66470728  -0.00000007  1
  Ge  Ge9  1  0.70036815  0.33527437  -0.00000012  1
  Ge  Ge10  1  0.20040868  0.16464315  -0.00000012  1
  Ge  Ge11  1  0.79958783  0.83537717  0.00000028  1
  Ge  Ge12  1  0.65469613  0.50652022  0.49999990  1
  Ge  Ge13  1  0.34530185  0.49347145  0.50000010  1
  Ge  Ge14  1  0.15477628  0.99348959  0.49999992  1
  Ge  Ge15  1  0.84521989  0.00651851  0.50000012  1
  Ge  Ge16  1  0.49348585  0.65479256  0.49999996  1
  Ge  Ge17  1  0.50651312  0.34519138  0.50000008  1
  Ge  Ge18  1  0.00652503  0.15468235  0.50000000  1
  Ge  Ge19  1  0.99347450  0.84533259  0.50000001  1
  Ir  Ir0  1  0.74602150  0.51937232  -0.00000002  1
  Ir  Ir1  1  0.25397917  0.48060808  0.00000012  1
  Ir  Ir2  1  0.24609315  0.98060893  -0.00000005  1
  Ir  Ir3  1  0.75390714  0.01941376  -0.00000009  1
  Ir  Ir4  1  0.48060654  0.74609377  0.00000007  1
  Ir  Ir5  1  0.51939626  0.25390356  0.00000009  1
  Ir  Ir6  1  0.01938667  0.24602205  -0.00000002  1
  Ir  Ir7  1  0.98061261  0.75398035  0.00000002  1
loop_
_geom_bond_atom_site_label_1
_geom_bond_atom_site_label_2
_geom_bond_distance
_geom_bond_site_symmetry_2
Ge0 Ge1 2.441353 1_545
Ge0 Ir3 2.484975 1_555
Ge0 Ir5 2.485144 1_555
Ge0 Tm2 2.878138 1_554
Ge0 Tm2 2.878140 1_555
Ge0 Tm9 3.234687 1_544
Ge0 Tm9 3.234688 1_545
Ge0 Tm8 3.234846 1_554
Ge0 Tm8 3.234847 1_555
Ge1 Ir2 2.485004 1_555
Ge1 Ir4 2.485494 1_555
Ge1 Tm3 2.878263 1_555
Ge1 Tm3 2.878264 1_554
Ge1 Tm8 3.234608 1_565
Ge1 Tm8 3.234609 1_564
Ge1 Tm9 3.234882 1_555
Ge1 Tm9 3.234883 1_554
Ge2 Ge3 2.442637 1_455
Ge2 Ir6 2.485414 1_555
Ge2 Ir1 2.485957 1_555
Ge2 Tm4 2.878314 1_554
Ge2 Tm4 2.878314 1_555
Ge2 Tm6 3.234764 1_455
Ge2 Tm6 3.234765 1_454
Ge2 Tm7 3.235039 1_554
Ge2 Tm7 3.235039 1_555
Ge3 Ir7 2.485773 1_555
Ge3 Ir0 2.485909 1_555
Ge3 Tm5 2.878417 1_554
Ge3 Tm5 2.878418 1_555
Ge3 Tm7 3.234815 1_654
Ge3 Tm7 3.234816 1_655
Ge3 Tm6 3.234957 1_555
Ge3 Tm6 3.234958 1_554
Ge4 Ir4 2.443238 1_555
Ge4 Ir0 2.558003 1_555
Ge4 Tm5 3.009935 1_554
Ge4 Tm5 3.009938 1_555
Ge4 Tm9 3.255181 1_554
Ge4 Tm9 3.255183 1_555
Ge4 Tm0 3.342603 1_555
Ge5 Ir5 2.443182 1_555
Ge5 Ir1 2.557849 1_555
Ge5 Tm4 3.010034 1_555
Ge5 Tm4 3.010034 1_554
Ge5 Tm8 3.254978 1_555
Ge5 Tm8 3.254979 1_554
Ge5 Tm0 3.342278 1_555
Ge6 Ir7 2.443811 1_455
Ge6 Ge8 2.459182 1_555
Ge6 Ir2 2.556090 1_555
Ge6 Tm3 3.009942 1_555
Ge6 Tm3 3.009942 1_554
Ge6 Tm7 3.256794 1_554
Ge6 Tm7 3.256794 1_555
Ge6 Tm1 3.341491 1_565
Ge7 Ir6 2.443754 1_655
Ge7 Ge9 2.459036 1_555
Ge7 Ir3 2.555879 1_555
Ge7 Tm2 3.009988 1_554
Ge7 Tm2 3.009990 1_555
Ge7 Tm6 3.256585 1_555
Ge7 Tm6 3.256587 1_554
Ge7 Tm1 3.341135 1_655
Ge8 Ir1 2.443843 1_555
Ge8 Ir4 2.556698 1_555
Ge8 Tm3 3.009858 1_554
Ge8 Tm3 3.009858 1_555
Ge8 Tm7 3.256159 1_554
Ge8 Tm7 3.256160 1_555
Ge8 Tm0 3.342145 1_555
Ge9 Ir0 2.443836 1_555
Ge9 Ir5 2.556559 1_555
Ge9 Tm2 3.009592 1_554
Ge9 Tm2 3.009594 1_555
Ge9 Tm6 3.256195 1_555
Ge9 Tm6 3.256196 1_554
Ge9 Tm0 3.341998 1_555
Ge10 Ir2 2.443175 1_545
Ge10 Ge5 2.458269 1_555
Ge10 Ir6 2.557257 1_555
Ge10 Tm4 3.010071 1_554
Ge10 Tm4 3.010073 1_555
Ge10 Tm8 3.255635 1_554
Ge10 Tm8 3.255635 1_555
Ge10 Tm1 3.341634 1_555
Ge11 Ir3 2.443193 1_565
Ge11 Ge4 2.458392 1_555
Ge11 Ir7 2.557385 1_555
Ge11 Tm5 3.010370 1_555
Ge11 Tm5 3.010371 1_554
Ge11 Tm9 3.255547 1_555
Ge11 Tm9 3.255548 1_554
Ge11 Tm1 3.341736 1_665
Ge12 Ir0 2.443359 1_555
Ge12 Ir0 2.443359 1_556
Ge12 Ge16 2.822120 1_555
Ge12 Ge17 2.822368 1_555
Ge12 Tm0 2.921956 1_555
Ge12 Tm0 2.921957 1_556
Ge12 Tm5 3.086746 1_555
Ge12 Tm6 3.353471 1_555
Ge13 Ir1 2.443352 1_555
Ge13 Ir1 2.443352 1_556
Ge13 Ge17 2.822197 1_555
Ge13 Ge16 2.822303 1_555
Ge13 Tm0 2.921979 1_556
Ge13 Tm0 2.921980 1_555
Ge13 Tm4 3.086823 1_555
Ge13 Tm7 3.353365 1_555
Ge14 Ir2 2.443337 1_555
Ge14 Ir2 2.443337 1_556
Ge14 Ge18 2.821770 1_565
Ge14 Ge19 2.821884 1_455
Ge14 Tm1 2.922685 1_565
Ge14 Tm1 2.922685 1_566
Ge14 Tm3 3.086514 1_555
Ge14 Tm8 3.352484 1_565
Ge15 Ir3 2.443323 1_556
Ge15 Ir3 2.443325 1_555
Ge15 Ge19 2.821735 1_545
Ge15 Ge18 2.821976 1_655
Ge15 Tm1 2.922677 1_656
Ge15 Tm1 2.922677 1_655
Ge15 Tm2 3.086536 1_555
Ge15 Tm9 3.352326 1_545
Ge16 Ir4 2.443238 1_555
Ge16 Ir4 2.443239 1_556
Ge16 Tm0 2.922947 1_555
Ge16 Tm0 2.922947 1_556
Ge16 Tm3 3.086181 1_555
Ge16 Tm9 3.352267 1_555
Ge17 Ir5 2.443158 1_555
Ge17 Ir5 2.443158 1_556
Ge17 Tm0 2.922807 1_556
Ge17 Tm0 2.922807 1_555
Ge17 Tm2 3.085908 1_555
Ge17 Tm8 3.351848 1_555
Ge18 Ir6 2.443456 1_556
Ge18 Ir6 2.443456 1_555
Ge18 Tm1 2.921693 1_556
Ge18 Tm1 2.921693 1_555
Ge18 Tm4 3.087112 1_555
Ge18 Tm6 3.353577 1_455
Ge19 Ir7 2.443534 1_555
Ge19 Ir7 2.443534 1_556
Ge19 Tm1 2.921852 1_666
Ge19 Tm1 2.921852 1_665
Ge19 Tm5 3.087420 1_555
Ge19 Tm7 3.353971 1_655
Ir0 Tm5 3.092390 1_554
Ir0 Tm5 3.092391 1_555
Ir0 Tm0 3.179673 1_555
Ir0 Tm6 3.280540 1_555
Ir0 Tm6 3.280541 1_554
Ir1 Tm4 3.092366 1_555
Ir1 Tm4 3.092367 1_554
Ir1 Tm0 3.179672 1_555
Ir1 Tm7 3.280540 1_555
Ir1 Tm7 3.280540 1_554
Ir2 Tm3 3.092013 1_555
Ir2 Tm3 3.092013 1_554
Ir2 Tm1 3.180664 1_565
Ir2 Tm8 3.280180 1_564
Ir2 Tm8 3.280180 1_565
Ir3 Tm2 3.091934 1_554
Ir3 Tm2 3.091936 1_555
Ir3 Tm1 3.180603 1_655
Ir3 Tm9 3.280182 1_544
Ir3 Tm9 3.280182 1_545
Ir4 Tm3 3.091888 1_555
Ir4 Tm3 3.091889 1_554
Ir4 Tm0 3.180839 1_555
Ir4 Tm9 3.280123 1_555
Ir4 Tm9 3.280124 1_554
Ir5 Tm2 3.091779 1_554
Ir5 Tm2 3.091779 1_555
Ir5 Tm0 3.180465 1_555
Ir5 Tm8 3.279967 1_555
Ir5 Tm8 3.279967 1_554
Ir6 Tm4 3.092481 1_554
Ir6 Tm4 3.092481 1_555
Ir6 Tm1 3.179477 1_555
Ir6 Tm6 3.280571 1_455
Ir6 Tm6 3.280572 1_454
Ir7 Tm5 3.092589 1_554
Ir7 Tm5 3.092590 1_555
Ir7 Tm1 3.179869 1_665
Ir7 Tm7 3.280735 1_654
Ir7 Tm7 3.280736 1_655
