# generated using pymatgen
data_TlV2I3O13
_symmetry_space_group_name_H-M   'P 1'
_cell_length_a   9.67139390
_cell_length_b   9.67139390
_cell_length_c   9.67139390
_cell_angle_alpha   129.67135926
_cell_angle_beta   114.14226031
_cell_angle_gamma   87.28392076
_symmetry_Int_Tables_number   1
_chemical_formula_structural   TlV2I3O13
_chemical_formula_sum   'Tl2 V4 I6 O26'
_cell_volume   605.27466827
_cell_formula_units_Z   2
loop_
 _symmetry_equiv_pos_site_id
 _symmetry_equiv_pos_as_xyz
  1  'x, y, z'
loop_
 _atom_site_type_symbol
 _atom_site_label
 _atom_site_symmetry_multiplicity
 _atom_site_fract_x
 _atom_site_fract_y
 _atom_site_fract_z
 _atom_site_occupancy
  Tl  Tl0  1  0.64112400  0.62410600  0.76523000  1
  Tl  Tl1  1  0.35887600  0.12410600  0.98298300  1
  V  V0  1  0.61237300  0.97331300  0.32826600  1
  V  V1  1  0.38762700  0.71589200  0.36094000  1
  V  V2  1  0.85495300  0.21589200  0.32826600  1
  V  V3  1  0.14504700  0.47331300  0.36094000  1
  I  I0  1  0.97161500  0.34278500  0.81440000  1
  I  I1  1  0.02838500  0.84278500  0.37116900  1
  I  I2  1  0.26468100  0.62556300  0.87178000  1
  I  I3  1  0.73531900  0.60709900  0.36088200  1
  I  I4  1  0.74621600  0.10709900  0.87178000  1
  I  I5  1  0.25378400  0.12556300  0.36088200  1
  O  O0  1  0.90430800  0.54531700  0.94962500  1
  O  O1  1  0.09569200  0.04531700  0.64100900  1
  O  O2  1  0.77071900  0.15867800  0.63276100  1
  O  O3  1  0.22928100  0.86204200  0.38795900  1
  O  O4  1  0.97408200  0.36204200  0.63276100  1
  O  O5  1  0.02591700  0.65867800  0.38795900  1
  O  O6  1  0.24577000  0.57776100  0.02223600  1
  O  O7  1  0.75423000  0.77646600  0.33199100  1
  O  O8  1  0.94447400  0.27646600  0.02223500  1
  O  O9  1  0.05552600  0.07776100  0.33199100  1
  O  O10  1  0.19289300  0.82785000  0.95798600  1
  O  O11  1  0.80710700  0.76509300  0.63495700  1
  O  O12  1  0.63013600  0.26509300  0.95798600  1
  O  O13  1  0.36986400  0.32785000  0.63495700  1
  O  O14  1  0.48758400  0.74569300  0.03170300  1
  O  O15  1  0.51241600  0.54411900  0.25810800  1
  O  O16  1  0.78601100  0.04411900  0.03170300  1
  O  O17  1  0.21398900  0.24569300  0.25810800  1
  O  O18  1  0.76554300  0.01361200  0.27915500  1
  O  O19  1  0.23445700  0.51361200  0.24806900  1
  O  O20  1  0.50000000  0.88876400  0.38876400  1
  O  O21  1  0.00000000  0.38876400  0.38876400  1
  O  O22  1  0.51348700  0.11894000  0.32995400  1
  O  O23  1  0.48651300  0.81646700  0.60545300  1
  O  O24  1  0.71101400  0.31646700  0.32995400  1
  O  O25  1  0.28898600  0.61894000  0.60545300  1
loop_
_geom_bond_atom_site_label_1
_geom_bond_atom_site_label_2
_geom_bond_distance
_geom_bond_site_symmetry_2
I0 O0 1.809899 1_555
I0 O4 1.890420 1_555
I0 O2 1.890424 1_555
I0 O8 2.571814 1_556
I0 O6 2.571819 1_656
I1 O1 1.809905 1_565
I1 O3 1.890420 1_555
I1 O5 1.890430 1_555
I1 O9 2.571814 1_565
I1 O7 2.571823 1_455
I2 O10 1.807447 1_555
I2 O6 1.857195 1_556
I2 O14 1.898692 1_556
I3 O11 1.807447 1_555
I3 O7 1.857195 1_555
I3 O15 1.898690 1_555
I4 O12 1.807439 1_555
I4 O8 1.857197 1_556
I4 O16 1.898689 1_556
I5 O13 1.807446 1_555
I5 O9 1.857195 1_555
I5 O17 1.898699 1_555
O0 Tl0 2.842161 1_555
O1 Tl1 2.842167 1_555
O2 V0 2.015454 1_545
O3 V1 2.015460 1_555
O4 V2 2.015452 1_555
O5 V3 2.015454 1_555
O6 V1 2.303815 1_555
O7 V0 2.303813 1_555
O8 V3 2.303821 1_655
O9 V2 2.303815 1_455
O14 V0 1.971772 1_555
O15 V1 1.971769 1_555
O16 V2 1.971775 1_555
O17 V3 1.971766 1_555
O18 V2 1.854332 1_555
O18 V0 1.854341 1_545
O19 V1 1.854334 1_555
O19 V3 1.854341 1_555
O20 V0 1.845906 1_555
O20 V1 1.845914 1_555
O21 V3 1.845906 1_555
O21 V2 1.845913 1_455
O22 V0 1.659607 1_545
O23 V1 1.659604 1_555
O24 V2 1.659612 1_555
O25 V3 1.659607 1_555
