# generated using pymatgen
data_Y2Cr3(SiO4)3
_symmetry_space_group_name_H-M   'P 1'
_cell_length_a   10.79961391
_cell_length_b   10.79961391
_cell_length_c   10.79961391
_cell_angle_alpha   109.47122063
_cell_angle_beta   109.47122063
_cell_angle_gamma   109.47122063
_symmetry_Int_Tables_number   1
_chemical_formula_structural   Y2Cr3(SiO4)3
_chemical_formula_sum   'Y8 Cr12 Si12 O48'
_cell_volume   969.62275385
_cell_formula_units_Z   4
loop_
 _symmetry_equiv_pos_site_id
 _symmetry_equiv_pos_as_xyz
  1  'x, y, z'
loop_
 _atom_site_type_symbol
 _atom_site_label
 _atom_site_symmetry_multiplicity
 _atom_site_fract_x
 _atom_site_fract_y
 _atom_site_fract_z
 _atom_site_occupancy
  Y  Y0  1  0.00000000  0.00000000  0.00000000  1
  Y  Y1  1  0.50000000  0.00000000  0.00000000  1
  Y  Y2  1  0.50000000  0.50000000  0.00000000  1
  Y  Y3  1  0.00000000  0.50000000  0.50000000  1
  Y  Y4  1  0.00000000  0.00000000  0.50000000  1
  Y  Y5  1  0.50000000  0.50000000  0.50000000  1
  Y  Y6  1  0.00000000  0.50000000  0.00000000  1
  Y  Y7  1  0.50000000  0.00000000  0.50000000  1
  Cr  Cr0  1  0.87500000  0.75000000  0.62500000  1
  Cr  Cr1  1  0.87500000  0.62500000  0.25000000  1
  Cr  Cr2  1  0.62500000  0.87500000  0.75000000  1
  Cr  Cr3  1  0.25000000  0.87500000  0.62500000  1
  Cr  Cr4  1  0.75000000  0.62500000  0.87500000  1
  Cr  Cr5  1  0.62500000  0.25000000  0.87500000  1
  Cr  Cr6  1  0.12500000  0.25000000  0.37500000  1
  Cr  Cr7  1  0.12500000  0.37500000  0.75000000  1
  Cr  Cr8  1  0.37500000  0.12500000  0.25000000  1
  Cr  Cr9  1  0.75000000  0.12500000  0.37500000  1
  Cr  Cr10  1  0.25000000  0.37500000  0.12500000  1
  Cr  Cr11  1  0.37500000  0.75000000  0.12500000  1
  Si  Si0  1  0.12500000  0.75000000  0.87500000  1
  Si  Si1  1  0.75000000  0.87500000  0.12500000  1
  Si  Si2  1  0.25000000  0.62500000  0.37500000  1
  Si  Si3  1  0.62500000  0.75000000  0.37500000  1
  Si  Si4  1  0.87500000  0.12500000  0.75000000  1
  Si  Si5  1  0.37500000  0.25000000  0.62500000  1
  Si  Si6  1  0.37500000  0.62500000  0.75000000  1
  Si  Si7  1  0.25000000  0.12500000  0.87500000  1
  Si  Si8  1  0.62500000  0.37500000  0.25000000  1
  Si  Si9  1  0.12500000  0.87500000  0.25000000  1
  Si  Si10  1  0.75000000  0.37500000  0.62500000  1
  Si  Si11  1  0.87500000  0.25000000  0.12500000  1
  O  O0  1  0.59133600  0.88805400  0.37008500  1
  O  O1  1  0.37008500  0.59133600  0.88805400  1
  O  O2  1  0.27874900  0.29671900  0.90866400  1
  O  O3  1  0.48203000  0.61194600  0.20328100  1
  O  O4  1  0.29671900  0.88805400  0.01797000  1
  O  O5  1  0.12991500  0.01797000  0.22125100  1
  O  O6  1  0.37008500  0.27874900  0.48203000  1
  O  O7  1  0.88805400  0.37008500  0.59133600  1
  O  O8  1  0.20328100  0.22125100  0.59133600  1
  O  O9  1  0.48203000  0.37008500  0.27874900  1
  O  O10  1  0.88805400  0.01797000  0.29671900  1
  O  O11  1  0.61194600  0.90866400  0.12991500  1
  O  O12  1  0.90866400  0.12991500  0.61194600  1
  O  O13  1  0.27874900  0.48203000  0.37008500  1
  O  O14  1  0.59133600  0.20328100  0.22125100  1
  O  O15  1  0.22125100  0.59133600  0.20328100  1
  O  O16  1  0.01797000  0.29671900  0.88805400  1
  O  O17  1  0.90866400  0.27874900  0.29671900  1
  O  O18  1  0.01797000  0.22125100  0.12991500  1
  O  O19  1  0.79671900  0.77874900  0.40866400  1
  O  O20  1  0.29671900  0.90866400  0.27874900  1
  O  O21  1  0.61194600  0.20328100  0.48203000  1
  O  O22  1  0.22125100  0.12991500  0.01797000  1
  O  O23  1  0.12991500  0.61194600  0.90866400  1
  O  O24  1  0.40866400  0.11194600  0.62991500  1
  O  O25  1  0.62991500  0.40866400  0.11194600  1
  O  O26  1  0.72125100  0.70328100  0.09133600  1
  O  O27  1  0.51797000  0.38805400  0.79671900  1
  O  O28  1  0.70328100  0.11194600  0.98203000  1
  O  O29  1  0.87008500  0.98203000  0.77874900  1
  O  O30  1  0.62991500  0.72125100  0.51797000  1
  O  O31  1  0.11194600  0.62991500  0.40866400  1
  O  O32  1  0.87008500  0.38805400  0.09133600  1
  O  O33  1  0.77874900  0.87008500  0.98203000  1
  O  O34  1  0.38805400  0.79671900  0.51797000  1
  O  O35  1  0.70328100  0.09133600  0.72125100  1
  O  O36  1  0.79671900  0.51797000  0.38805400  1
  O  O37  1  0.98203000  0.77874900  0.87008500  1
  O  O38  1  0.09133600  0.72125100  0.70328100  1
  O  O39  1  0.98203000  0.70328100  0.11194600  1
  O  O40  1  0.77874900  0.40866400  0.79671900  1
  O  O41  1  0.40866400  0.79671900  0.77874900  1
  O  O42  1  0.72125100  0.51797000  0.62991500  1
  O  O43  1  0.09133600  0.87008500  0.38805400  1
  O  O44  1  0.38805400  0.09133600  0.87008500  1
  O  O45  1  0.11194600  0.98203000  0.70328100  1
  O  O46  1  0.51797000  0.62991500  0.72125100  1
  O  O47  1  0.20328100  0.48203000  0.61194600  1
loop_
_geom_bond_atom_site_label_1
_geom_bond_atom_site_label_2
_geom_bond_distance
_geom_bond_site_symmetry_2
Cr0 O30 2.368843 1_555
Cr0 O38 2.368843 1_655
Cr0 O19 2.368843 1_555
Cr0 O37 2.368843 1_555
Cr0 O29 2.532319 1_555
Cr0 O42 2.532319 1_555
Cr0 O45 2.532325 1_655
Cr0 O36 2.532325 1_555
Cr1 O36 2.368834 1_555
Cr1 O39 2.368834 1_555
Cr1 O43 2.368844 1_655
Cr1 O25 2.368844 1_555
Cr1 O19 2.532319 1_555
Cr1 O26 2.532319 1_555
Cr1 O31 2.532327 1_655
Cr1 O32 2.532327 1_555
Cr2 O46 2.368843 1_555
Cr2 O35 2.368843 1_565
Cr2 O41 2.368843 1_555
Cr2 O29 2.368843 1_555
Cr2 O33 2.532319 1_555
Cr2 O30 2.532319 1_555
Cr2 O28 2.532325 1_565
Cr2 O34 2.532325 1_555
Cr3 O34 2.368834 1_555
Cr3 O45 2.368834 1_555
Cr3 O44 2.368844 1_565
Cr3 O31 2.368844 1_555
Cr3 O41 2.532319 1_555
Cr3 O38 2.532319 1_555
Cr3 O24 2.532327 1_565
Cr3 O43 2.532327 1_555
Cr4 O42 2.368843 1_555
Cr4 O26 2.368843 1_556
Cr4 O40 2.368843 1_555
Cr4 O33 2.368843 1_555
Cr4 O37 2.532319 1_555
Cr4 O46 2.532319 1_555
Cr4 O39 2.532325 1_556
Cr4 O27 2.532325 1_555
Cr5 O27 2.368834 1_555
Cr5 O28 2.368834 1_555
Cr5 O32 2.368844 1_556
Cr5 O24 2.368844 1_555
Cr5 O40 2.532319 1_555
Cr5 O35 2.532319 1_555
Cr5 O25 2.532327 1_556
Cr5 O44 2.532327 1_555
Cr6 O8 2.368843 1_555
Cr6 O18 2.368843 1_555
Cr6 O17 2.368843 1_455
Cr6 O6 2.368843 1_555
Cr6 O13 2.532319 1_555
Cr6 O5 2.532319 1_555
Cr6 O10 2.532325 1_455
Cr6 O47 2.532325 1_555
Cr7 O47 2.368834 1_555
Cr7 O16 2.368834 1_555
Cr7 O1 2.368844 1_555
Cr7 O12 2.368844 1_455
Cr7 O2 2.532319 1_555
Cr7 O8 2.532319 1_555
Cr7 O23 2.532327 1_555
Cr7 O7 2.532327 1_455
Cr8 O14 2.368843 1_555
Cr8 O5 2.368843 1_555
Cr8 O20 2.368843 1_545
Cr8 O9 2.368843 1_555
Cr8 O6 2.532319 1_555
Cr8 O22 2.532319 1_555
Cr8 O21 2.532325 1_555
Cr8 O4 2.532325 1_545
Cr9 O10 2.368834 1_555
Cr9 O21 2.368834 1_555
Cr9 O7 2.368844 1_555
Cr9 O11 2.368844 1_545
Cr9 O17 2.532319 1_555
Cr9 O14 2.532319 1_555
Cr9 O12 2.532327 1_555
Cr9 O0 2.532327 1_545
Cr10 O15 2.368843 1_555
Cr10 O22 2.368843 1_555
Cr10 O2 2.368843 1_554
Cr10 O13 2.368843 1_555
Cr10 O9 2.532319 1_555
Cr10 O18 2.532319 1_555
Cr10 O3 2.532325 1_555
Cr10 O16 2.532325 1_554
Cr11 O4 2.368834 1_555
Cr11 O3 2.368834 1_555
Cr11 O0 2.368844 1_555
Cr11 O23 2.368844 1_554
Cr11 O20 2.532319 1_555
Cr11 O15 2.532319 1_555
Cr11 O11 2.532327 1_555
Cr11 O1 2.532327 1_554
O0 Si3 1.661059 1_555
O0 Y7 2.233811 1_565
O1 Si6 1.661059 1_555
O1 Y2 2.233811 1_556
O2 Si7 1.661070 1_555
O2 Y2 2.233806 1_556
O3 Si3 1.661068 1_555
O3 Y2 2.233809 1_555
O4 Si0 1.661068 1_554
O4 Y1 2.233809 1_565
O5 Si9 1.661070 1_545
O5 Y0 2.233806 1_555
O6 Si5 1.661070 1_555
O6 Y5 2.233806 1_555
O7 Si10 1.661059 1_555
O7 Y3 2.233811 1_655
O8 Si5 1.661070 1_555
O8 Y4 2.233806 1_555
O9 Si8 1.661070 1_555
O9 Y5 2.233806 1_555
O10 Si1 1.661068 1_545
O10 Y4 2.233809 1_655
O11 Si1 1.661059 1_555
O11 Y1 2.233811 1_565
O12 Si4 1.661059 1_555
O12 Y4 2.233811 1_655
O13 Si2 1.661070 1_555
O13 Y5 2.233806 1_555
O14 Si8 1.661070 1_555
O14 Y1 2.233806 1_555
O15 Si2 1.661070 1_555
O15 Y6 2.233806 1_555
O16 Si4 1.661068 1_455
O16 Y6 2.233809 1_556
O17 Si11 1.661070 1_555
O17 Y3 2.233806 1_655
O18 Si11 1.661070 1_455
O18 Y0 2.233806 1_555
O19 Si3 1.661070 1_555
O19 Y4 2.233806 1_665
O20 Si9 1.661070 1_555
O20 Y7 2.233806 1_565
O21 Si10 1.661068 1_555
O21 Y7 2.233809 1_555
O22 Si7 1.661070 1_554
O22 Y0 2.233806 1_555
O23 Si0 1.661059 1_555
O23 Y6 2.233811 1_556
O24 Si5 1.661059 1_555
O24 Y7 2.233811 1_555
O25 Si8 1.661059 1_555
O25 Y2 2.233811 1_555
O26 Si1 1.661070 1_555
O26 Y2 2.233806 1_555
O27 Si5 1.661068 1_555
O27 Y2 2.233809 1_556
O28 Si11 1.661068 1_556
O28 Y1 2.233809 1_556
O29 Si4 1.661070 1_565
O29 Y0 2.233806 1_666
O30 Si3 1.661070 1_555
O30 Y5 2.233806 1_555
O31 Si2 1.661059 1_555
O31 Y3 2.233811 1_555
O32 Si11 1.661059 1_555
O32 Y6 2.233811 1_655
O33 Si1 1.661070 1_556
O33 Y0 2.233806 1_666
O34 Si2 1.661068 1_555
O34 Y7 2.233809 1_565
O35 Si4 1.661070 1_555
O35 Y7 2.233806 1_555
O36 Si8 1.661068 1_555
O36 Y3 2.233809 1_655
O37 Si0 1.661070 1_655
O37 Y0 2.233806 1_666
O38 Si0 1.661070 1_555
O38 Y3 2.233806 1_555
O39 Si9 1.661068 1_655
O39 Y6 2.233809 1_655
O40 Si10 1.661070 1_555
O40 Y6 2.233806 1_656
O41 Si6 1.661070 1_555
O41 Y1 2.233806 1_566
O42 Si10 1.661070 1_555
O42 Y5 2.233806 1_555
O43 Si9 1.661059 1_555
O43 Y4 2.233811 1_565
O44 Si7 1.661059 1_555
O44 Y1 2.233811 1_556
O45 Si7 1.661068 1_565
O45 Y4 2.233809 1_565
O46 Si6 1.661070 1_555
O46 Y5 2.233806 1_555
O47 Si6 1.661068 1_555
O47 Y3 2.233809 1_555
