# generated using pymatgen
data_Er(BRh)4
_symmetry_space_group_name_H-M   'P 1'
_cell_length_a   9.16373789
_cell_length_b   9.16373789
_cell_length_c   9.16373789
_cell_angle_alpha   131.39696393
_cell_angle_beta   131.39696393
_cell_angle_gamma   71.18314072
_symmetry_Int_Tables_number   1
_chemical_formula_structural   Er(BRh)4
_chemical_formula_sum   'Er4 B16 Rh16'
_cell_volume   423.92499672
_cell_formula_units_Z   4
loop_
 _symmetry_equiv_pos_site_id
 _symmetry_equiv_pos_as_xyz
  1  'x, y, z'
loop_
 _atom_site_type_symbol
 _atom_site_label
 _atom_site_symmetry_multiplicity
 _atom_site_fract_x
 _atom_site_fract_y
 _atom_site_fract_z
 _atom_site_occupancy
  Er  Er0  1  0.25000000  0.25000000  0.00000000  1
  Er  Er1  1  0.00000000  0.50000000  0.50000000  1
  Er  Er2  1  0.50000000  0.00000000  0.50000000  1
  Er  Er3  1  0.75000000  0.75000000  0.00000000  1
  B  B0  1  0.02979700  0.49743800  0.19151500  1
  B  B1  1  0.66171800  0.19407700  0.19151500  1
  B  B2  1  0.00256200  0.47020300  0.80848500  1
  B  B3  1  0.22020300  0.91171800  0.96764100  1
  B  B4  1  0.58828200  0.27979700  0.03235900  1
  B  B5  1  0.30592300  0.83828200  0.80848500  1
  B  B6  1  0.72020300  0.75256200  0.30848500  1
  B  B7  1  0.08828200  0.05592300  0.30848500  1
  B  B8  1  0.74743800  0.77979700  0.69151500  1
  B  B9  1  0.52979700  0.33828200  0.53235900  1
  B  B10  1  0.80592300  0.99743800  0.46764100  1
  B  B11  1  0.50256200  0.69407700  0.53235900  1
  B  B12  1  0.16171800  0.97020300  0.46764100  1
  B  B13  1  0.44407700  0.41171800  0.69151500  1
  B  B14  1  0.94407700  0.25256200  0.03235900  1
  B  B15  1  0.24743800  0.55592300  0.96764100  1
  Rh  Rh0  1  0.21706000  0.17943000  0.26942500  1
  Rh  Rh1  1  0.69763500  0.46706000  0.53763000  1
  Rh  Rh2  1  0.92943000  0.16000400  0.46237000  1
  Rh  Rh3  1  0.03294000  0.80236500  0.46237000  1
  Rh  Rh4  1  0.32057000  0.28294000  0.73057500  1
  Rh  Rh5  1  0.33999600  0.57057000  0.53763000  1
  Rh  Rh6  1  0.71706000  0.44763500  0.03763000  1
  Rh  Rh7  1  0.82057000  0.08999600  0.03763000  1
  Rh  Rh8  1  0.05236500  0.78294000  0.96237000  1
  Rh  Rh9  1  0.53294000  0.07057000  0.23057500  1
  Rh  Rh10  1  0.83999600  0.30236500  0.76942500  1
  Rh  Rh11  1  0.19763500  0.66000400  0.23057500  1
  Rh  Rh12  1  0.42943000  0.96706000  0.76942500  1
  Rh  Rh13  1  0.41000400  0.67943000  0.96237000  1
  Rh  Rh14  1  0.91000400  0.94763500  0.73057500  1
  Rh  Rh15  1  0.55236500  0.58999600  0.26942500  1
loop_
_geom_bond_atom_site_label_1
_geom_bond_atom_site_label_2
_geom_bond_distance
_geom_bond_site_symmetry_2
Er0 Rh11 2.913720 1_555
Er0 Rh10 2.913720 1_454
Er0 Rh9 2.913727 1_555
Er0 Rh12 2.913727 1_544
Er0 Rh0 3.134988 1_555
Er0 Rh4 3.134988 1_554
Er0 Rh15 3.134995 1_555
Er0 Rh14 3.134995 1_444
Er0 Rh2 3.260445 1_454
Er0 Rh5 3.260445 1_555
Er0 Rh1 3.260449 1_555
Er0 Rh3 3.260449 1_544
Er1 Rh13 2.913722 1_555
Er1 Rh7 2.913722 1_455
Er1 Rh6 2.913727 1_455
Er1 Rh8 2.913727 1_555
Er1 Rh3 3.134988 1_555
Er1 Rh1 3.134988 1_455
Er1 Rh5 3.134997 1_555
Er1 Rh2 3.134997 1_455
Er1 Rh4 3.260449 1_555
Er1 Rh0 3.260449 1_555
Er1 Rh15 3.260451 1_455
Er1 Rh14 3.260451 1_455
Er2 Rh14 2.913720 1_545
Er2 Rh15 2.913720 1_545
Er2 Rh4 2.913727 1_555
Er2 Rh0 2.913727 1_555
Er2 Rh12 3.134988 1_545
Er2 Rh9 3.134988 1_555
Er2 Rh10 3.134995 1_555
Er2 Rh11 3.134995 1_545
Er2 Rh13 3.260445 1_544
Er2 Rh7 3.260445 1_556
Er2 Rh6 3.260449 1_556
Er2 Rh8 3.260449 1_544
Er3 Rh2 2.913722 1_565
Er3 Rh5 2.913722 1_554
Er3 Rh1 2.913727 1_554
Er3 Rh3 2.913727 1_655
Er3 Rh8 3.134988 1_654
Er3 Rh6 3.134988 1_555
Er3 Rh7 3.134997 1_565
Er3 Rh13 3.134997 1_554
Er3 Rh9 3.260449 1_565
Er3 Rh12 3.260449 1_554
Er3 Rh11 3.260451 1_655
Er3 Rh10 3.260451 1_554
B0 B14 1.753037 1_455
B0 Rh3 2.180409 1_555
B0 Rh11 2.181198 1_555
B0 Rh6 2.248923 1_455
B0 Rh5 2.254554 1_555
B0 Rh10 2.268336 1_454
B0 Er0 2.960128 1_555
B0 Er1 2.999212 1_555
B0 Er3 3.256259 1_455
B1 B4 1.753037 1_555
B1 Rh2 2.180414 1_555
B1 Rh9 2.181205 1_555
B1 Rh7 2.248924 1_555
B1 Rh1 2.254550 1_555
B1 Rh12 2.268335 1_544
B1 Er0 2.960128 1_555
B1 Er1 2.999212 1_655
B1 Er3 3.256259 1_545
B2 Rh1 2.180409 1_455
B2 Rh10 2.181198 1_455
B2 Rh8 2.248923 1_555
B2 Rh2 2.254554 1_455
B2 Rh11 2.268336 1_556
B2 Er0 2.960128 1_556
B2 Er1 2.999212 1_555
B2 Er3 3.256259 1_456
B3 B5 1.753037 1_555
B3 Rh0 2.180409 1_566
B3 Rh8 2.181205 1_555
B3 Rh9 2.248923 1_566
B3 Rh14 2.254556 1_455
B3 Rh13 2.268331 1_555
B3 Er1 2.960128 1_555
B3 Er0 2.999212 1_566
B3 Er2 3.256259 1_566
B4 Rh4 2.180409 1_554
B4 Rh6 2.181205 1_555
B4 Rh12 2.248923 1_544
B4 Rh15 2.254556 1_555
B4 Rh7 2.268331 1_555
B4 Er1 2.960128 1_655
B4 Er0 2.999212 1_555
B4 Er2 3.256259 1_554
B5 Rh5 2.180414 1_555
B5 Rh12 2.181205 1_555
B5 Rh13 2.248924 1_555
B5 Rh3 2.254550 1_555
B5 Rh9 2.268335 1_566
B5 Er0 2.960128 1_566
B5 Er1 2.999212 1_555
B5 Er3 3.256259 1_556
B6 Rh6 2.180409 1_555
B6 Rh15 2.181198 1_555
B6 Rh3 2.248923 1_655
B6 Rh13 2.254554 1_554
B6 Rh14 2.268336 1_555
B6 Er2 2.960128 1_565
B6 Er3 2.999212 1_555
B6 Er1 3.256259 1_655
B7 Rh7 2.180414 1_455
B7 Rh0 2.181205 1_555
B7 Rh2 2.248924 1_455
B7 Rh8 2.254550 1_544
B7 Rh4 2.268335 1_555
B7 Er2 2.960128 1_555
B7 Er3 2.999212 1_445
B7 Er1 3.256259 1_555
B8 Rh8 2.180409 1_655
B8 Rh14 2.181198 1_555
B8 Rh1 2.248923 1_555
B8 Rh7 2.254554 1_566
B8 Rh15 2.268336 1_555
B8 Er2 2.960128 1_565
B8 Er3 2.999212 1_556
B8 Er1 3.256259 1_655
B9 Rh9 2.180409 1_555
B9 Rh1 2.181205 1_555
B9 Rh0 2.248923 1_555
B9 Rh10 2.254556 1_555
B9 Rh5 2.268331 1_555
B9 Er3 2.960128 1_556
B9 Er2 2.999212 1_555
B9 Er0 3.256259 1_555
B10 B6 1.753037 1_555
B10 Rh10 2.180407 1_565
B10 Rh2 2.181197 1_565
B10 Rh14 2.248926 1_555
B10 Rh9 2.254550 1_565
B10 Rh3 2.268335 1_655
B10 Er3 2.960128 1_555
B10 Er2 2.999212 1_565
B10 Er0 3.256259 1_666
B11 B8 1.753037 1_555
B11 Rh11 2.180407 1_555
B11 Rh5 2.181197 1_555
B11 Rh15 2.248926 1_555
B11 Rh12 2.254550 1_555
B11 Rh1 2.268335 1_555
B11 Er3 2.960128 1_556
B11 Er2 2.999212 1_565
B11 Er0 3.256259 1_555
B12 B7 1.753037 1_565
B12 Rh12 2.180409 1_555
B12 Rh3 2.181205 1_555
B12 Rh4 2.248923 1_565
B12 Rh11 2.254556 1_555
B12 Rh2 2.268331 1_465
B12 Er3 2.960128 1_455
B12 Er2 2.999212 1_565
B12 Er0 3.256259 1_566
B13 B9 1.753037 1_555
B13 Rh13 2.180414 1_555
B13 Rh4 2.181205 1_555
B13 Rh5 2.248924 1_555
B13 Rh6 2.254550 1_556
B13 Rh0 2.268335 1_555
B13 Er2 2.960128 1_555
B13 Er3 2.999212 1_556
B13 Er1 3.256259 1_555
B14 Rh14 2.180407 1_544
B14 Rh7 2.181197 1_555
B14 Rh10 2.248926 1_554
B14 Rh0 2.254550 1_655
B14 Rh6 2.268335 1_555
B14 Er1 2.960128 1_655
B14 Er0 2.999212 1_655
B14 Er2 3.256259 1_554
B15 B2 1.753037 1_555
B15 Rh15 2.180407 1_556
B15 Rh13 2.181197 1_555
B15 Rh11 2.248926 1_556
B15 Rh4 2.254550 1_555
B15 Rh8 2.268335 1_555
B15 Er1 2.960128 1_555
B15 Er0 2.999212 1_556
B15 Er2 3.256259 1_566
