# generated using pymatgen
data_Ca5(FeN2)2
_symmetry_space_group_name_H-M   'P 1'
_cell_length_a   8.00860000
_cell_length_b   8.00860000
_cell_length_c   12.45936100
_cell_angle_alpha   90.00000000
_cell_angle_beta   90.00000000
_cell_angle_gamma   90.00000000
_symmetry_Int_Tables_number   1
_chemical_formula_structural   Ca5(FeN2)2
_chemical_formula_sum   'Ca20 Fe8 N16'
_cell_volume   799.11443357
_cell_formula_units_Z   4
loop_
 _symmetry_equiv_pos_site_id
 _symmetry_equiv_pos_as_xyz
  1  'x, y, z'
loop_
 _atom_site_type_symbol
 _atom_site_label
 _atom_site_symmetry_multiplicity
 _atom_site_fract_x
 _atom_site_fract_y
 _atom_site_fract_z
 _atom_site_occupancy
  Ca  Ca0  1  0.75000000  0.75000000  0.34959400  1
  Ca  Ca1  1  0.75000000  0.75000000  0.84959400  1
  Ca  Ca2  1  0.25000000  0.25000000  0.65040600  1
  Ca  Ca3  1  0.25000000  0.25000000  0.15040600  1
  Ca  Ca4  1  0.13137700  0.57463400  0.40931600  1
  Ca  Ca5  1  0.36862300  0.57463400  0.90931600  1
  Ca  Ca6  1  0.13137700  0.92536600  0.90931600  1
  Ca  Ca7  1  0.36862300  0.92536600  0.40931600  1
  Ca  Ca8  1  0.57463400  0.13137700  0.90931600  1
  Ca  Ca9  1  0.92536600  0.13137700  0.40931600  1
  Ca  Ca10  1  0.57463400  0.36862300  0.40931600  1
  Ca  Ca11  1  0.92536600  0.36862300  0.90931600  1
  Ca  Ca12  1  0.86862300  0.42536600  0.59068400  1
  Ca  Ca13  1  0.63137700  0.42536600  0.09068400  1
  Ca  Ca14  1  0.86862300  0.07463400  0.09068400  1
  Ca  Ca15  1  0.63137700  0.07463400  0.59068400  1
  Ca  Ca16  1  0.42536600  0.86862300  0.09068400  1
  Ca  Ca17  1  0.07463400  0.86862300  0.59068400  1
  Ca  Ca18  1  0.42536600  0.63137700  0.59068400  1
  Ca  Ca19  1  0.07463400  0.63137700  0.09068400  1
  Fe  Fe0  1  0.10515400  0.89484600  0.25000000  1
  Fe  Fe1  1  0.39484600  0.89484600  0.75000000  1
  Fe  Fe2  1  0.10515400  0.60515400  0.75000000  1
  Fe  Fe3  1  0.39484600  0.60515400  0.25000000  1
  Fe  Fe4  1  0.89484600  0.10515400  0.75000000  1
  Fe  Fe5  1  0.60515400  0.10515400  0.25000000  1
  Fe  Fe6  1  0.89484600  0.39484600  0.25000000  1
  Fe  Fe7  1  0.60515400  0.39484600  0.75000000  1
  N  N0  1  0.63814600  0.05236600  0.39286700  1
  N  N1  1  0.86185400  0.05236600  0.89286700  1
  N  N2  1  0.63814600  0.44763400  0.89286700  1
  N  N3  1  0.86185400  0.44763400  0.39286700  1
  N  N4  1  0.05236600  0.63814600  0.89286700  1
  N  N5  1  0.44763400  0.63814600  0.39286700  1
  N  N6  1  0.05236600  0.86185400  0.39286700  1
  N  N7  1  0.44763400  0.86185400  0.89286700  1
  N  N8  1  0.36185400  0.94763400  0.60713300  1
  N  N9  1  0.13814600  0.94763400  0.10713300  1
  N  N10  1  0.36185400  0.55236600  0.10713300  1
  N  N11  1  0.13814600  0.55236600  0.60713300  1
  N  N12  1  0.94763400  0.36185400  0.10713300  1
  N  N13  1  0.55236600  0.36185400  0.60713300  1
  N  N14  1  0.94763400  0.13814600  0.60713300  1
  N  N15  1  0.55236600  0.13814600  0.10713300  1
loop_
_geom_bond_atom_site_label_1
_geom_bond_atom_site_label_2
_geom_bond_distance
_geom_bond_site_symmetry_2
Ca0 N6 2.637600 1_655
Ca0 N0 2.637600 1_565
Ca0 N3 2.637600 1_555
Ca0 N5 2.637600 1_555
Ca1 N4 2.637600 1_655
Ca1 N1 2.637600 1_565
Ca1 N7 2.637600 1_555
Ca1 N2 2.637600 1_555
Ca2 N8 2.637600 1_545
Ca2 N14 2.637600 1_455
Ca2 N11 2.637600 1_555
Ca2 N13 2.637600 1_555
Ca3 N9 2.637600 1_545
Ca3 N15 2.637600 1_555
Ca3 N10 2.637600 1_555
Ca3 N12 2.637600 1_455
Ca4 N6 2.394463 1_555
Ca4 N3 2.394913 1_455
Ca4 N11 2.471711 1_555
Ca4 N5 2.591461 1_555
Ca5 N7 2.394463 1_555
Ca5 N2 2.394913 1_555
Ca5 N10 2.471711 1_556
Ca5 N4 2.591461 1_555
Ca6 N4 2.394463 1_555
Ca6 N1 2.394913 1_465
Ca6 N9 2.471711 1_556
Ca6 N7 2.591461 1_555
Ca7 N5 2.394463 1_555
Ca7 N0 2.394913 1_565
Ca7 N8 2.471711 1_555
Ca7 N6 2.591461 1_555
Ca8 N1 2.394463 1_555
Ca8 N7 2.394913 1_545
Ca8 N15 2.471711 1_556
Ca8 N2 2.591461 1_555
Ca9 N0 2.394463 1_555
Ca9 N6 2.394913 1_645
Ca9 N14 2.471711 1_555
Ca9 N3 2.591461 1_555
Ca10 N3 2.394463 1_555
Ca10 N5 2.394913 1_555
Ca10 N13 2.471711 1_555
Ca10 N0 2.591461 1_555
Ca11 N2 2.394463 1_555
Ca11 N4 2.394913 1_655
Ca11 N12 2.471711 1_556
Ca11 N1 2.591461 1_555
Ca12 N14 2.394463 1_555
Ca12 N11 2.394913 1_655
Ca12 N3 2.471711 1_555
Ca12 N13 2.591461 1_555
Ca13 N15 2.394463 1_555
Ca13 N10 2.394913 1_555
Ca13 N2 2.471711 1_554
Ca13 N12 2.591461 1_555
Ca14 N12 2.394463 1_555
Ca14 N9 2.394913 1_645
Ca14 N1 2.471711 1_554
Ca14 N15 2.591461 1_555
Ca15 N13 2.394463 1_555
Ca15 N8 2.394913 1_545
Ca15 N0 2.471711 1_555
Ca15 N14 2.591461 1_555
Ca16 N9 2.394463 1_555
Ca16 N15 2.394913 1_565
Ca16 N7 2.471711 1_554
Ca16 N10 2.591461 1_555
Ca17 N8 2.394463 1_555
Ca17 N14 2.394913 1_465
Ca17 N6 2.471711 1_555
Ca17 N11 2.591461 1_555
Ca18 N11 2.394463 1_555
Ca18 N13 2.394913 1_555
Ca18 N5 2.471711 1_555
Ca18 N8 2.591461 1_555
Ca19 N10 2.394463 1_555
Ca19 N12 2.394913 1_455
Ca19 N4 2.471711 1_554
Ca19 N9 2.591461 1_555
Fe0 N6 1.848526 1_555
Fe0 N9 1.848526 1_555
Fe1 N7 1.848526 1_555
Fe1 N8 1.848526 1_555
Fe2 N4 1.848526 1_555
Fe2 N11 1.848526 1_555
Fe3 N5 1.848526 1_555
Fe3 N10 1.848526 1_555
Fe4 N1 1.848526 1_555
Fe4 N14 1.848526 1_555
Fe5 N0 1.848526 1_555
Fe5 N15 1.848526 1_555
Fe6 N3 1.848526 1_555
Fe6 N12 1.848526 1_555
Fe7 N2 1.848526 1_555
Fe7 N13 1.848526 1_555
