# generated using pymatgen
data_ErGa3Os
_symmetry_space_group_name_H-M   'P 1'
_cell_length_a   6.35239464
_cell_length_b   6.35239464
_cell_length_c   6.35239464
_cell_angle_alpha   90.00000000
_cell_angle_beta   90.00000000
_cell_angle_gamma   90.00000000
_symmetry_Int_Tables_number   1
_chemical_formula_structural   ErGa3Os
_chemical_formula_sum   'Er3 Ga9 Os3'
_cell_volume   256.33765787
_cell_formula_units_Z   3
loop_
 _symmetry_equiv_pos_site_id
 _symmetry_equiv_pos_as_xyz
  1  'x, y, z'
loop_
 _atom_site_type_symbol
 _atom_site_label
 _atom_site_symmetry_multiplicity
 _atom_site_fract_x
 _atom_site_fract_y
 _atom_site_fract_z
 _atom_site_occupancy
  Er  Er0  1  0.50000000  -0.00000000  0.00000000  1
  Er  Er1  1  -0.00000000  0.50000000  0.00000000  1
  Er  Er2  1  -0.00000000  -0.00000000  0.50000000  1
  Ga  Ga0  1  0.28940104  0.28940104  0.28940104  1
  Ga  Ga1  1  0.71059896  0.71059896  0.71059896  1
  Ga  Ga2  1  0.71059896  0.71059896  0.28940104  1
  Ga  Ga3  1  0.71059896  0.28940104  0.71059896  1
  Ga  Ga4  1  0.28940104  0.28940104  0.71059896  1
  Ga  Ga5  1  0.28940104  0.71059896  0.28940104  1
  Ga  Ga6  1  0.28940104  0.71059896  0.71059896  1
  Ga  Ga7  1  0.71059896  0.28940104  0.28940104  1
  Ga  Ga8  1  -0.00000000  -0.00000000  0.00000000  1
  Os  Os0  1  -0.00000000  0.50000000  0.50000000  1
  Os  Os1  1  0.50000000  -0.00000000  0.50000000  1
  Os  Os2  1  0.50000000  0.50000000  0.00000000  1
loop_
_geom_bond_atom_site_label_1
_geom_bond_atom_site_label_2
_geom_bond_distance
_geom_bond_site_symmetry_2
Er0 Ga1 2.923881 1_544
Er0 Ga7 2.923881 1_555
Er0 Ga0 2.923881 1_555
Er0 Ga3 2.923881 1_554
Er0 Ga4 2.923881 1_554
Er0 Ga6 2.923881 1_544
Er0 Ga2 2.923881 1_545
Er0 Ga5 2.923881 1_545
Er0 Ga8 3.176197 1_655
Er0 Ga8 3.176197 1_555
Er0 Os1 3.176197 1_555
Er0 Os1 3.176197 1_554
Er0 Os2 3.176197 1_555
Er0 Os2 3.176197 1_545
Er1 Ga0 2.923881 1_555
Er1 Ga6 2.923881 1_554
Er1 Ga5 2.923881 1_555
Er1 Ga7 2.923881 1_455
Er1 Ga4 2.923881 1_554
Er1 Ga3 2.923881 1_454
Er1 Ga1 2.923881 1_454
Er1 Ga2 2.923881 1_455
Er1 Ga8 3.176197 1_555
Er1 Os2 3.176197 1_455
Er1 Ga8 3.176197 1_565
Er1 Os0 3.176197 1_554
Er1 Os2 3.176197 1_555
Er1 Os0 3.176197 1_555
Er2 Ga3 2.923881 1_455
Er2 Ga0 2.923881 1_555
Er2 Ga4 2.923881 1_555
Er2 Ga1 2.923881 1_445
Er2 Ga7 2.923881 1_455
Er2 Ga2 2.923881 1_445
Er2 Ga6 2.923881 1_545
Er2 Ga5 2.923881 1_545
Er2 Ga8 3.176197 1_556
Er2 Os0 3.176197 1_545
Er2 Ga8 3.176197 1_555
Er2 Os1 3.176197 1_555
Er2 Os1 3.176197 1_455
Er2 Os0 3.176197 1_555
Ga0 Os1 2.638017 1_555
Ga0 Os2 2.638017 1_555
Ga0 Os0 2.638017 1_555
Ga0 Ga7 2.675615 1_555
Ga0 Ga5 2.675615 1_555
Ga0 Ga4 2.675615 1_555
Ga1 Os2 2.638017 1_556
Ga1 Os0 2.638017 1_655
Ga1 Os1 2.638017 1_565
Ga1 Ga3 2.675615 1_555
Ga1 Ga2 2.675615 1_555
Ga1 Ga6 2.675615 1_555
Ga2 Os0 2.638017 1_655
Ga2 Os2 2.638017 1_555
Ga2 Os1 2.638017 1_565
Ga2 Ga7 2.675615 1_555
Ga2 Ga5 2.675615 1_555
Ga3 Os2 2.638017 1_556
Ga3 Os0 2.638017 1_655
Ga3 Os1 2.638017 1_555
Ga3 Ga7 2.675615 1_555
Ga3 Ga4 2.675615 1_555
Ga4 Os2 2.638017 1_556
Ga4 Os1 2.638017 1_555
Ga4 Os0 2.638017 1_555
Ga4 Ga6 2.675615 1_555
Ga5 Os2 2.638017 1_555
Ga5 Os0 2.638017 1_555
Ga5 Os1 2.638017 1_565
Ga5 Ga6 2.675615 1_555
Ga6 Os2 2.638017 1_556
Ga6 Os0 2.638017 1_555
Ga6 Os1 2.638017 1_565
Ga7 Os0 2.638017 1_655
Ga7 Os1 2.638017 1_555
Ga7 Os2 2.638017 1_555
