# generated using pymatgen
data_Cs6K3AlSb4
_symmetry_space_group_name_H-M   'P 1'
_cell_length_a   11.17576937
_cell_length_b   11.17576937
_cell_length_c   11.71776400
_cell_angle_alpha   90.00000000
_cell_angle_beta   90.00000000
_cell_angle_gamma   119.99999627
_symmetry_Int_Tables_number   1
_chemical_formula_structural   Cs6K3AlSb4
_chemical_formula_sum   'Cs12 K6 Al2 Sb8'
_cell_volume   1267.44830991
_cell_formula_units_Z   2
loop_
 _symmetry_equiv_pos_site_id
 _symmetry_equiv_pos_as_xyz
  1  'x, y, z'
loop_
 _atom_site_type_symbol
 _atom_site_label
 _atom_site_symmetry_multiplicity
 _atom_site_fract_x
 _atom_site_fract_y
 _atom_site_fract_z
 _atom_site_occupancy
  Cs  Cs0  1  0.20888400  0.79111600  0.95645400  1
  Cs  Cs1  1  0.20888400  0.41776700  0.95645400  1
  Cs  Cs2  1  0.58223300  0.79111600  0.95645400  1
  Cs  Cs3  1  0.41776700  0.20888400  0.45645400  1
  Cs  Cs4  1  0.79111600  0.58223300  0.04354600  1
  Cs  Cs5  1  0.79111600  0.20888400  0.45645400  1
  Cs  Cs6  1  0.79111600  0.58223300  0.45645400  1
  Cs  Cs7  1  0.20888400  0.79111600  0.54354600  1
  Cs  Cs8  1  0.58223300  0.79111600  0.54354600  1
  Cs  Cs9  1  0.41776700  0.20888400  0.04354600  1
  Cs  Cs10  1  0.79111600  0.20888400  0.04354600  1
  Cs  Cs11  1  0.20888400  0.41776700  0.54354600  1
  K  K0  1  0.23909000  0.11954500  0.75000000  1
  K  K1  1  0.88045500  0.11954500  0.75000000  1
  K  K2  1  0.76091000  0.88045500  0.25000000  1
  K  K3  1  0.11954500  0.23909000  0.25000000  1
  K  K4  1  0.11954500  0.88045500  0.25000000  1
  K  K5  1  0.88045500  0.76091000  0.75000000  1
  Al  Al0  1  0.33333300  0.66666700  0.25000000  1
  Al  Al1  1  0.66666700  0.33333300  0.75000000  1
  Sb  Sb0  1  0.00000000  0.00000000  0.00000000  1
  Sb  Sb1  1  0.05565000  0.52782500  0.25000000  1
  Sb  Sb2  1  0.47217500  0.94435000  0.25000000  1
  Sb  Sb3  1  0.52782500  0.05565000  0.75000000  1
  Sb  Sb4  1  0.52782500  0.47217500  0.75000000  1
  Sb  Sb5  1  0.00000000  0.00000000  0.50000000  1
  Sb  Sb6  1  0.47217500  0.52782500  0.25000000  1
  Sb  Sb7  1  0.94435000  0.47217500  0.75000000  1
loop_
_geom_bond_atom_site_label_1
_geom_bond_atom_site_label_2
_geom_bond_distance
_geom_bond_site_symmetry_2
Cs0 Sb0 4.075437 1_566
Cs0 Sb7 4.093881 1_455
Cs0 Sb3 4.093881 1_565
Cs0 Sb1 4.287587 1_556
Cs0 Sb2 4.287587 1_556
Cs1 Sb0 4.075428 1_556
Cs1 Sb4 4.093878 1_555
Cs1 Sb7 4.093887 1_455
Cs1 Sb6 4.287587 1_556
Cs1 Sb1 4.287593 1_556
Cs2 Sb0 4.075428 1_666
Cs2 Sb4 4.093878 1_555
Cs2 Sb3 4.093887 1_565
Cs2 Sb6 4.287587 1_556
Cs2 Sb2 4.287593 1_556
Cs3 Sb5 4.075428 1_555
Cs3 Sb6 4.093878 1_555
Cs3 Sb2 4.093887 1_545
Cs3 Sb4 4.287587 1_555
Cs3 Sb3 4.287593 1_555
Cs4 Sb0 4.075428 1_665
Cs4 Sb6 4.093878 1_555
Cs4 Sb1 4.093887 1_655
Cs4 Sb4 4.287587 1_554
Cs4 Sb7 4.287593 1_554
Cs5 Sb5 4.075437 1_655
Cs5 Sb2 4.093881 1_545
Cs5 Sb1 4.093881 1_655
Cs5 Sb7 4.287587 1_555
Cs5 Sb3 4.287587 1_555
Cs6 Sb5 4.075428 1_665
Cs6 Sb6 4.093878 1_555
Cs6 Sb1 4.093887 1_655
Cs6 Sb4 4.287587 1_555
Cs6 Sb7 4.287593 1_555
Cs7 Sb5 4.075437 1_565
Cs7 Sb7 4.093881 1_455
Cs7 Sb3 4.093881 1_565
Cs7 Sb1 4.287587 1_555
Cs7 Sb2 4.287587 1_555
Cs8 Sb5 4.075428 1_665
Cs8 Sb4 4.093878 1_555
Cs8 Sb3 4.093887 1_565
Cs8 Sb6 4.287587 1_555
Cs8 Sb2 4.287593 1_555
Cs9 Sb0 4.075428 1_555
Cs9 Sb6 4.093878 1_555
Cs9 Sb2 4.093887 1_545
Cs9 Sb4 4.287587 1_554
Cs9 Sb3 4.287593 1_554
Cs10 Sb0 4.075437 1_655
Cs10 Sb2 4.093881 1_545
Cs10 Sb1 4.093881 1_655
Cs10 Sb3 4.287587 1_554
Cs10 Sb7 4.287587 1_554
Cs11 Sb5 4.075428 1_555
Cs11 Sb4 4.093878 1_555
Cs11 Sb7 4.093887 1_455
Cs11 Sb6 4.287587 1_555
Cs11 Sb1 4.287593 1_555
K0 Sb3 3.636836 1_555
K0 Sb4 3.636837 1_555
K0 Sb0 3.733145 1_556
K0 Sb5 3.733145 1_555
K1 Sb7 3.636836 1_555
K1 Sb3 3.636836 1_555
K1 Sb0 3.733145 1_656
K1 Sb5 3.733145 1_655
K2 Sb2 3.636836 1_555
K2 Sb6 3.636837 1_555
K2 Sb5 3.733145 1_665
K2 Sb0 3.733145 1_665
K3 Sb1 3.636836 1_555
K3 Sb6 3.636837 1_555
K3 Sb0 3.733145 1_555
K3 Sb5 3.733145 1_555
K4 Sb2 3.636836 1_555
K4 Sb1 3.636836 1_555
K4 Sb0 3.733145 1_565
K4 Sb5 3.733145 1_565
K5 Sb7 3.636836 1_555
K5 Sb4 3.636837 1_555
K5 Sb5 3.733145 1_665
K5 Sb0 3.733145 1_666
Al0 Sb2 2.687555 1_555
Al0 Sb1 2.687555 1_555
Al0 Sb6 2.687565 1_555
Al1 Sb7 2.687555 1_555
Al1 Sb3 2.687555 1_555
Al1 Sb4 2.687565 1_555
