# generated using pymatgen
data_Cu3Rh
_symmetry_space_group_name_H-M   'P 1'
_cell_length_a   4.44032718
_cell_length_b   4.44032718
_cell_length_c   4.44032718
_cell_angle_alpha   131.11303328
_cell_angle_beta   131.11303328
_cell_angle_gamma   71.63355434
_symmetry_Int_Tables_number   1
_chemical_formula_structural   Cu3Rh
_chemical_formula_sum   'Cu3 Rh1'
_cell_volume   48.62276130
_cell_formula_units_Z   1
loop_
 _symmetry_equiv_pos_site_id
 _symmetry_equiv_pos_as_xyz
  1  'x, y, z'
loop_
 _atom_site_type_symbol
 _atom_site_label
 _atom_site_symmetry_multiplicity
 _atom_site_fract_x
 _atom_site_fract_y
 _atom_site_fract_z
 _atom_site_occupancy
  Cu  Cu0  1  0.75000000  0.25000000  0.50000000  1
  Cu  Cu1  1  0.25000000  0.75000000  0.50000000  1
  Cu  Cu2  1  0.50000000  0.50000000  -0.00000000  1
  Rh  Rh0  1  0.00000000  -0.00000000  -0.00000000  1
loop_
_geom_bond_atom_site_label_1
_geom_bond_atom_site_label_2
_geom_bond_distance
_geom_bond_site_symmetry_2
Cu0 Rh0 2.572377 1_666
Cu0 Cu2 2.572377 1_545
Cu0 Cu2 2.572377 1_555
Cu0 Rh0 2.572377 1_555
Cu0 Rh0 2.572377 1_656
Cu0 Rh0 2.572377 1_655
Cu0 Cu2 2.572377 1_556
Cu0 Cu2 2.572377 1_656
Cu0 Cu1 2.598458 1_656
Cu0 Cu1 2.598458 1_544
Cu0 Cu1 2.598458 1_555
Cu0 Cu1 2.598458 1_645
Cu1 Rh0 2.572377 1_666
Cu1 Cu2 2.572377 1_555
Cu1 Rh0 2.572377 1_555
Cu1 Cu2 2.572377 1_455
Cu1 Cu2 2.572377 1_566
Cu1 Cu2 2.572377 1_556
Cu1 Rh0 2.572377 1_565
Cu1 Rh0 2.572377 1_566
Cu2 Rh0 2.598458 1_565
Cu2 Rh0 2.598458 1_666
Cu2 Rh0 2.598458 1_554
Cu2 Rh0 2.598458 1_655
