# generated using pymatgen
data_Sr2Cu2O5
_symmetry_space_group_name_H-M   'P 1'
_cell_length_a   8.86035634
_cell_length_b   8.86035634
_cell_length_c   8.86035634
_cell_angle_alpha   143.71196763
_cell_angle_beta   143.63961052
_cell_angle_gamma   52.31240086
_symmetry_Int_Tables_number   1
_chemical_formula_structural   Sr2Cu2O5
_chemical_formula_sum   'Sr4 Cu4 O10'
_cell_volume   242.65301949
_cell_formula_units_Z   2
loop_
 _symmetry_equiv_pos_site_id
 _symmetry_equiv_pos_as_xyz
  1  'x, y, z'
loop_
 _atom_site_type_symbol
 _atom_site_label
 _atom_site_symmetry_multiplicity
 _atom_site_fract_x
 _atom_site_fract_y
 _atom_site_fract_z
 _atom_site_occupancy
  Sr  Sr0  1  0.38631200  0.88538400  0.49041000  1
  Sr  Sr1  1  0.60502600  0.11461600  0.50092900  1
  Sr  Sr2  1  0.88631200  0.39590200  0.50092900  1
  Sr  Sr3  1  0.10502600  0.60409800  0.49041000  1
  Cu  Cu0  1  0.99477500  0.00000000  0.99477500  1
  Cu  Cu1  1  0.49477500  0.50000000  0.99477500  1
  Cu  Cu2  1  0.77582500  0.80643000  0.08225500  1
  Cu  Cu3  1  0.27582500  0.19357000  0.96939500  1
  O  O0  1  0.75218600  0.75237100  0.49545300  1
  O  O1  1  0.74308100  0.24762900  0.99981500  1
  O  O2  1  0.25218600  0.75673400  0.99981500  1
  O  O3  1  0.24308100  0.24326600  0.49545300  1
  O  O4  1  0.85068900  0.82975200  0.95725000  1
  O  O5  1  0.12749900  0.17024800  0.02093700  1
  O  O6  1  0.35068900  0.39343800  0.02093700  1
  O  O7  1  0.62749900  0.60656200  0.95725000  1
  O  O8  1  0.10060700  0.88910500  0.48971200  1
  O  O9  1  0.60060700  0.11089500  0.21150200  1
loop_
_geom_bond_atom_site_label_1
_geom_bond_atom_site_label_2
_geom_bond_distance
_geom_bond_site_symmetry_2
Cu0 O0 1.951667 1_545
Cu0 O1 1.951671 1_555
Cu0 O2 1.957032 1_645
Cu0 O3 1.957036 1_656
Cu0 O4 2.208692 1_545
Cu0 O5 2.208700 1_656
Cu1 O3 1.951668 1_555
Cu1 O2 1.951671 1_555
Cu1 O1 1.957032 1_555
Cu1 O0 1.957035 1_556
Cu1 O6 2.208700 1_556
Cu1 O7 2.208708 1_555
Cu2 O7 1.851824 1_554
Cu2 O4 1.851839 1_554
Cu2 O8 1.852762 1_655
Cu2 O9 1.939435 1_565
Cu3 O6 1.851830 1_556
Cu3 O5 1.851830 1_556
Cu3 O9 1.852762 1_556
Cu3 O8 1.939435 1_545
O0 Sr3 2.571010 1_655
O0 Sr1 2.595756 1_565
O0 Sr2 2.637260 1_555
O0 Sr0 2.660864 1_555
O1 Sr2 2.571013 1_556
O1 Sr0 2.595756 1_545
O1 Sr3 2.637260 1_656
O1 Sr1 2.660862 1_555
O2 Sr1 2.571003 1_566
O2 Sr3 2.595756 1_555
O2 Sr0 2.637260 1_556
O2 Sr2 2.660872 1_455
O3 Sr0 2.571000 1_545
O3 Sr2 2.595756 1_455
O3 Sr1 2.637260 1_555
O3 Sr3 2.660875 1_555
O4 Sr2 2.596128 1_555
O4 Sr0 2.770867 1_555
O4 Sr0 2.842486 1_656
O4 Sr2 2.999935 1_566
O5 Sr3 2.596136 1_555
O5 Sr1 2.770869 1_454
O5 Sr1 2.842488 1_555
O5 Sr3 2.999932 1_544
O6 Sr0 2.596136 1_555
O6 Sr2 2.770867 1_454
O6 Sr2 2.842485 1_555
O6 Sr0 2.999932 1_544
O7 Sr1 2.596133 1_555
O7 Sr3 2.770870 1_555
O7 Sr3 2.842488 1_656
O7 Sr1 2.999940 1_566
O8 Sr3 2.506476 1_555
O8 Sr0 2.506476 1_555
O9 Sr2 2.506470 1_555
O9 Sr1 2.506485 1_555
