# generated using pymatgen
data_W17O47
_symmetry_space_group_name_H-M   'P 1'
_cell_length_a   3.85156700
_cell_length_b   13.28001642
_cell_length_c   20.77174630
_cell_angle_alpha   103.48327354
_cell_angle_beta   93.77670821
_cell_angle_gamma   91.81988050
_symmetry_Int_Tables_number   1
_chemical_formula_structural   W17O47
_chemical_formula_sum   'W17 O47'
_cell_volume   1029.70842308
_cell_formula_units_Z   1
loop_
 _symmetry_equiv_pos_site_id
 _symmetry_equiv_pos_as_xyz
  1  'x, y, z'
loop_
 _atom_site_type_symbol
 _atom_site_label
 _atom_site_symmetry_multiplicity
 _atom_site_fract_x
 _atom_site_fract_y
 _atom_site_fract_z
 _atom_site_occupancy
  W  W0  1  0.02573600  0.23359500  0.68335900  1
  W  W1  1  0.96992800  0.00383900  0.34460100  1
  W  W2  1  0.76264500  0.11538700  0.99854000  1
  W  W3  1  0.04113000  0.98759300  0.63424400  1
  W  W4  1  0.89626500  0.92452200  0.17898500  1
  W  W5  1  0.98142000  0.78015300  0.46286900  1
  W  W6  1  0.02281800  0.72007500  0.61301600  1
  W  W7  1  0.92148100  0.74567500  0.30893700  1
  W  W8  1  0.22798300  0.90422500  0.95808400  1
  W  W9  1  0.17669700  0.41740500  0.89025200  1
  W  W10  1  0.03893300  0.22236300  0.52911200  1
  W  W11  1  0.96103900  0.16296400  0.19935300  1
  W  W12  1  0.13123900  0.17284700  0.82510400  1
  W  W13  1  0.05988100  0.82793300  0.76794900  1
  W  W14  1  0.83831400  0.65740400  0.13442700  1
  W  W15  1  0.98924100  0.50391800  0.50206700  1
  W  W16  1  0.97501400  0.29343200  0.38217800  1
  O  O0  1  0.99500600  0.15604600  0.40999200  1
  O  O1  1  0.84928700  0.78556700  0.10973400  1
  O  O2  1  0.83595500  0.22677900  0.07114000  1
  O  O3  1  0.11668500  0.46542900  0.26366400  1
  O  O4  1  0.55472900  0.24520000  0.68884500  1
  O  O5  1  0.92646400  0.86911300  0.26897600  1
  O  O6  1  0.73171100  0.95710000  0.97397300  1
  O  O7  1  0.56630000  0.85564400  0.77221800  1
  O  O8  1  0.09703500  0.84948700  0.86037400  1
  O  O9  1  0.99295000  0.25897100  0.28734900  1
  O  O10  1  0.24547900  0.07855900  0.96810400  1
  O  O11  1  0.08408300  0.10181800  0.72006000  1
  O  O12  1  0.99791200  0.66293300  0.50990600  1
  O  O13  1  0.47029600  0.00784500  0.34826800  1
  O  O14  1  0.42145500  0.75084300  0.30887600  1
  O  O15  1  0.05828300  0.31657700  0.61512000  1
  O  O16  1  0.16418000  0.28148600  0.91141600  1
  O  O17  1  0.04266500  0.87327000  0.68572700  1
  O  O18  1  0.91556900  0.02741300  0.12363300  1
  O  O19  1  0.80150000  0.54654900  0.07103900  1
  O  O20  1  0.99029000  0.34282500  0.48894400  1
  O  O21  1  0.87581200  0.64572800  0.22893700  1
  O  O22  1  0.03163500  0.69630100  0.72130200  1
  O  O23  1  0.93509700  0.67255500  0.37550200  1
  O  O24  1  0.51889100  0.19958100  0.51882000  1
  O  O25  1  0.11736800  0.29044900  0.78598600  1
  O  O26  1  0.34622700  0.66672900  0.14784100  1
  O  O27  1  0.12454700  0.77096000  0.97948000  1
  O  O28  1  0.85916300  0.70408200  0.96438700  1
  O  O29  1  0.45531400  0.16274200  0.19433800  1
  O  O30  1  0.82109600  0.43906500  0.23791100  1
  O  O31  1  0.15732200  0.51901500  0.82628300  1
  O  O32  1  0.01104700  0.85239400  0.56213100  1
  O  O33  1  0.95478300  0.26513300  0.13800700  1
  O  O34  1  0.62981400  0.13476700  0.83208600  1
  O  O35  1  0.96739000  0.87430500  0.39385700  1
  O  O36  1  0.40229800  0.91576700  0.18163100  1
  O  O37  1  0.54060600  0.98715900  0.63215000  1
  O  O38  1  0.03470200  0.12012300  0.59524700  1
  O  O39  1  0.02827600  0.56601300  0.59770200  1
  O  O40  1  0.05841600  0.48654900  0.76278500  1
  O  O41  1  0.66785400  0.40940000  0.87423200  1
  O  O42  1  0.94349700  0.43623000  0.39856500  1
  O  O43  1  0.48174300  0.78745300  0.46402700  1
  O  O44  1  0.48833000  0.50218600  0.49594500  1
  O  O45  1  0.95158800  0.05517300  0.25525200  1
  O  O46  1  0.21958700  0.50735500  0.96516100  1
loop_
_geom_bond_atom_site_label_1
_geom_bond_atom_site_label_2
_geom_bond_distance
_geom_bond_site_symmetry_2
O0 W16 2.040364 1_555
O0 W1 2.151740 1_555
O0 W10 2.417802 1_655
O1 W14 1.888671 1_555
O1 W4 2.052760 1_555
O2 O33 1.403429 1_555
O2 W2 1.849126 1_554
O3 O30 1.229630 1_455
O4 W0 1.834271 1_655
O4 W0 2.032050 1_555
O5 W7 2.002787 1_555
O5 W1 2.081456 1_565
O5 W4 2.160406 1_555
O6 W8 2.021679 1_555
O6 W2 2.041838 1_565
O6 W8 2.077454 1_655
O7 W13 1.951600 1_655
O7 W13 1.965750 1_555
O8 W13 1.868984 1_555
O8 W8 2.013942 1_555
O9 W16 1.921912 1_555
O9 W11 1.963504 1_555
O10 W2 2.041007 1_455
O10 W2 2.057812 1_555
O10 W8 2.274062 1_545
O11 W3 2.046986 1_545
O11 W0 2.078150 1_555
O11 W12 2.158884 1_555
O12 W5 2.022192 1_555
O12 W15 2.078811 1_555
O12 W6 2.093479 1_655
O13 W1 1.922237 1_455
O13 W1 1.932806 1_555
O14 W7 1.924821 1_455
O14 W7 1.929211 1_555
O15 W10 1.922724 1_555
O15 W0 1.995573 1_555
O16 W9 1.954719 1_555
O16 W12 2.015960 1_555
O17 W13 1.936730 1_555
O17 W3 2.050717 1_555
O17 W6 2.228884 1_555
O18 W4 1.982906 1_545
O18 W11 2.090050 1_555
O19 W14 1.726048 1_555
O20 W10 1.977697 1_655
O20 W15 2.092787 1_555
O20 W16 2.157311 1_555
O21 W7 1.863376 1_555
O21 W14 2.001207 1_555
O22 W13 1.786234 1_555
O22 W6 2.341348 1_555
O23 W7 1.864730 1_555
O23 W5 2.024571 1_555
O24 W10 1.900512 1_555
O24 W10 2.006014 1_655
O25 W12 1.921853 1_555
O25 W0 2.091017 1_555
O25 W9 2.406853 1_555
O26 W14 1.937406 1_555
O26 W14 1.953623 1_455
O27 O28 1.304662 1_455
O27 W8 1.957962 1_555
O29 W11 1.913478 1_455
O29 W11 1.943625 1_555
O31 O40 1.314864 1_555
O31 W9 2.102717 1_555
O32 W3 2.047089 1_555
O32 W5 2.055296 1_455
O32 W6 2.252075 1_555
O33 W11 2.066282 1_555
O34 W12 2.003908 1_655
O34 W12 2.005865 1_555
O35 W5 2.109763 1_555
O35 W7 2.143672 1_555
O35 W1 2.197047 1_565
O36 W4 1.907598 1_555
O36 W4 1.954093 1_455
O37 W3 1.925221 1_655
O37 W3 1.927280 1_555
O38 W0 2.085008 1_555
O38 W3 2.102217 1_545
O38 W10 2.145282 1_555
O39 W15 1.959005 1_455
O39 W6 1.996909 1_555
O41 W9 1.944185 1_555
O41 W9 1.961472 1_655
O42 W16 1.856296 1_555
O42 W15 2.121332 1_555
O43 W5 1.924670 1_455
O43 W5 1.931499 1_555
O44 W15 1.924153 1_555
O44 W15 1.935326 1_455
O45 W11 2.043516 1_555
O45 W4 2.053233 1_545
O45 W1 2.118964 1_555
O46 W9 1.721096 1_555
