# generated using pymatgen
data_MoWSe3S
_symmetry_space_group_name_H-M   'P 1'
_cell_length_a   3.28620747
_cell_length_b   3.28620747
_cell_length_c   37.36587700
_cell_angle_alpha   90.00000000
_cell_angle_beta   90.00000000
_cell_angle_gamma   119.99998936
_symmetry_Int_Tables_number   1
_chemical_formula_structural   MoWSe3S
_chemical_formula_sum   'Mo2 W2 Se6 S2'
_cell_volume   349.45866669
_cell_formula_units_Z   2
loop_
 _symmetry_equiv_pos_site_id
 _symmetry_equiv_pos_as_xyz
  1  'x, y, z'
loop_
 _atom_site_type_symbol
 _atom_site_label
 _atom_site_symmetry_multiplicity
 _atom_site_fract_x
 _atom_site_fract_y
 _atom_site_fract_z
 _atom_site_occupancy
  Mo  Mo0  1  0.00000000  0.00000000  0.09392300  1
  Mo  Mo1  1  0.33333300  0.66666700  0.65754900  1
  W  W0  1  0.00000000  0.00000000  0.46964700  1
  W  W1  1  0.33333300  0.66666700  0.28179200  1
  Se  Se0  1  0.00000000  0.00000000  0.70267600  1
  Se  Se1  1  0.33333300  0.66666700  0.04879900  1
  Se  Se2  1  0.33333300  0.66666700  0.42425600  1
  Se  Se3  1  0.33333300  0.66666700  0.13905000  1
  Se  Se4  1  0.33333300  0.66666700  0.51505700  1
  Se  Se5  1  0.00000000  0.00000000  0.61241000  1
  S  S0  1  0.00000000  0.00000000  0.32305000  1
  S  S1  1  0.00000000  0.00000000  0.24054000  1
loop_
_geom_bond_atom_site_label_1
_geom_bond_atom_site_label_2
_geom_bond_distance
_geom_bond_site_symmetry_2
Mo0 Se1 2.538235 1_545
Mo0 Se1 2.538238 1_445
Mo0 Se1 2.538238 1_555
Mo0 Se3 2.538310 1_545
Mo0 Se3 2.538312 1_555
Mo0 Se3 2.538312 1_445
Mo1 Se0 2.538310 1_565
Mo1 Se0 2.538312 1_555
Mo1 Se0 2.538312 1_665
Mo1 Se5 2.538608 1_565
Mo1 Se5 2.538610 1_665
Mo1 Se5 2.538610 1_555
Se2 W0 2.544873 1_565
Se2 W0 2.544876 1_665
Se2 W0 2.544876 1_555
Se4 W0 2.545347 1_565
Se4 W0 2.545349 1_665
Se4 W0 2.545349 1_555
S0 W1 2.444662 1_545
S0 W1 2.444664 1_555
S0 W1 2.444664 1_445
S1 W1 2.444520 1_545
S1 W1 2.444523 1_555
S1 W1 2.444523 1_445
