# generated using pymatgen
data_CaMg14SnO16
_symmetry_space_group_name_H-M   'P 1'
_cell_length_a   4.36079232
_cell_length_b   8.63998949
_cell_length_c   8.71740388
_cell_angle_alpha   90.00000000
_cell_angle_beta   90.00000000
_cell_angle_gamma   90.00000000
_symmetry_Int_Tables_number   1
_chemical_formula_structural   CaMg14SnO16
_chemical_formula_sum   'Ca1 Mg14 Sn1 O16'
_cell_volume   328.44736784
_cell_formula_units_Z   1
loop_
 _symmetry_equiv_pos_site_id
 _symmetry_equiv_pos_as_xyz
  1  'x, y, z'
loop_
 _atom_site_type_symbol
 _atom_site_label
 _atom_site_symmetry_multiplicity
 _atom_site_fract_x
 _atom_site_fract_y
 _atom_site_fract_z
 _atom_site_occupancy
  Ca  Ca0  1  -0.00000000  0.00000000  0.00000000  1
  Mg  Mg0  1  0.00000000  0.50000000  0.00000000  1
  Mg  Mg1  1  0.00000000  0.50000000  0.50000000  1
  Mg  Mg2  1  0.50000000  0.00000000  0.24667600  1
  Mg  Mg3  1  0.50000000  0.00000000  0.75332400  1
  Mg  Mg4  1  0.50000000  0.50000000  0.24832607  1
  Mg  Mg5  1  0.50000000  0.50000000  0.75167393  1
  Mg  Mg6  1  0.50000000  0.25815583  -0.00000000  1
  Mg  Mg7  1  0.50000000  0.26020182  0.50000000  1
  Mg  Mg8  1  0.50000000  0.74184417  0.00000000  1
  Mg  Mg9  1  0.50000000  0.73979818  0.50000000  1
  Mg  Mg10  1  0.00000000  0.25898799  0.24868520  1
  Mg  Mg11  1  0.00000000  0.25898799  0.75131480  1
  Mg  Mg12  1  -0.00000000  0.74101201  0.24868520  1
  Mg  Mg13  1  -0.00000000  0.74101201  0.75131480  1
  Sn  Sn0  1  0.00000000  0.00000000  0.50000000  1
  O  O0  1  0.00000000  0.26610846  0.00000000  1
  O  O1  1  0.00000000  0.27440636  0.50000000  1
  O  O2  1  -0.00000000  0.73389154  -0.00000000  1
  O  O3  1  -0.00000000  0.72559364  0.50000000  1
  O  O4  1  0.50000000  0.25127780  0.24950743  1
  O  O5  1  0.50000000  0.25127780  0.75049257  1
  O  O6  1  0.50000000  0.74872220  0.24950743  1
  O  O7  1  0.50000000  0.74872220  0.75049257  1
  O  O8  1  0.50000000  0.00000000  0.00000000  1
  O  O9  1  0.50000000  0.00000000  0.50000000  1
  O  O10  1  0.50000000  0.50000000  0.00000000  1
  O  O11  1  0.50000000  0.50000000  0.50000000  1
  O  O12  1  -0.00000000  0.00000000  0.24373181  1
  O  O13  1  -0.00000000  0.00000000  0.75626819  1
  O  O14  1  0.00000000  0.50000000  0.24738048  1
  O  O15  1  -0.00000000  0.50000000  0.75261952  1
loop_
_geom_bond_atom_site_label_1
_geom_bond_atom_site_label_2
_geom_bond_distance
_geom_bond_site_symmetry_2
Ca0 O12 2.124709 1_555
Ca0 O13 2.124709 1_554
Ca0 O8 2.180396 1_555
Ca0 O8 2.180396 1_455
Ca0 O0 2.299174 1_555
Ca0 O2 2.299174 1_545
Mg0 O0 2.020820 1_555
Mg0 O2 2.020820 1_555
Mg0 O15 2.156516 1_554
Mg0 O14 2.156516 1_555
Mg0 O10 2.180396 1_455
Mg0 O10 2.180396 1_555
Mg1 O1 1.949127 1_555
Mg1 O3 1.949127 1_555
Mg1 O11 2.180396 1_555
Mg1 O11 2.180396 1_455
Mg1 O14 2.202186 1_555
Mg1 O15 2.202186 1_555
Mg2 O8 2.150374 1_555
Mg2 O4 2.171178 1_555
Mg2 O6 2.171178 1_545
Mg2 O12 2.180547 1_655
Mg2 O12 2.180547 1_555
Mg2 O9 2.208328 1_555
Mg3 O8 2.150374 1_556
Mg3 O5 2.171178 1_555
Mg3 O7 2.171178 1_545
Mg3 O13 2.180547 1_555
Mg3 O13 2.180547 1_655
Mg3 O9 2.208328 1_555
Mg4 O6 2.148982 1_555
Mg4 O4 2.148982 1_555
Mg4 O10 2.164759 1_555
Mg4 O14 2.180412 1_555
Mg4 O14 2.180412 1_655
Mg4 O11 2.193943 1_555
Mg5 O7 2.148982 1_555
Mg5 O5 2.148982 1_555
Mg5 O10 2.164759 1_556
Mg5 O15 2.180412 1_555
Mg5 O15 2.180412 1_655
Mg5 O11 2.193943 1_555
Mg6 O10 2.089531 1_555
Mg6 O5 2.175869 1_554
Mg6 O4 2.175869 1_555
Mg6 O0 2.181479 1_555
Mg6 O0 2.181479 1_655
Mg6 O8 2.230464 1_555
Mg7 O11 2.071854 1_555
Mg7 O1 2.183847 1_655
Mg7 O1 2.183847 1_555
Mg7 O4 2.185006 1_555
Mg7 O5 2.185006 1_555
Mg7 O9 2.248141 1_555
Mg8 O10 2.089531 1_555
Mg8 O6 2.175869 1_555
Mg8 O7 2.175869 1_554
Mg8 O2 2.181479 1_555
Mg8 O2 2.181479 1_655
Mg8 O8 2.230464 1_565
Mg9 O11 2.071854 1_555
Mg9 O3 2.183847 1_655
Mg9 O3 2.183847 1_555
Mg9 O6 2.185006 1_555
Mg9 O7 2.185006 1_555
Mg9 O9 2.248141 1_565
Mg10 O14 2.082372 1_555
Mg10 O0 2.168762 1_555
Mg10 O4 2.181425 1_555
Mg10 O4 2.181425 1_455
Mg10 O1 2.194859 1_555
Mg10 O12 2.238070 1_555
Mg11 O15 2.082372 1_555
Mg11 O0 2.168762 1_556
Mg11 O5 2.181425 1_455
Mg11 O5 2.181425 1_555
Mg11 O1 2.194859 1_555
Mg11 O13 2.238070 1_555
Mg12 O14 2.082372 1_555
Mg12 O2 2.168762 1_555
Mg12 O6 2.181425 1_455
Mg12 O6 2.181425 1_555
Mg12 O3 2.194859 1_555
Mg12 O12 2.238070 1_565
Mg13 O15 2.082372 1_555
Mg13 O2 2.168762 1_556
Mg13 O7 2.181425 1_455
Mg13 O7 2.181425 1_555
Mg13 O3 2.194859 1_555
Mg13 O13 2.238070 1_565
O1 Sn0 2.370868 1_555
O3 Sn0 2.370868 1_565
O9 Sn0 2.180396 1_655
O9 Sn0 2.180396 1_555
O12 Sn0 2.233993 1_555
O13 Sn0 2.233993 1_555
