# generated using pymatgen
data_CsRb2AsBr6
_symmetry_space_group_name_H-M   'P 1'
_cell_length_a   8.54339424
_cell_length_b   8.54339424
_cell_length_c   8.54339424
_cell_angle_alpha   60.00000000
_cell_angle_beta   60.00000000
_cell_angle_gamma   60.00000000
_symmetry_Int_Tables_number   1
_chemical_formula_structural   CsRb2AsBr6
_chemical_formula_sum   'Cs1 Rb2 As1 Br6'
_cell_volume   440.93679866
_cell_formula_units_Z   1
loop_
 _symmetry_equiv_pos_site_id
 _symmetry_equiv_pos_as_xyz
  1  'x, y, z'
loop_
 _atom_site_type_symbol
 _atom_site_label
 _atom_site_symmetry_multiplicity
 _atom_site_fract_x
 _atom_site_fract_y
 _atom_site_fract_z
 _atom_site_occupancy
  Cs  Cs0  1  0.50000000  0.50000000  0.50000000  1
  Rb  Rb0  1  0.75000000  0.75000000  0.75000000  1
  Rb  Rb1  1  0.25000000  0.25000000  0.25000000  1
  As  As0  1  0.00000000  0.00000000  0.00000000  1
  Br  Br0  1  0.77934400  0.22065600  0.22065600  1
  Br  Br1  1  0.22065600  0.22065600  0.77934400  1
  Br  Br2  1  0.22065600  0.77934400  0.77934400  1
  Br  Br3  1  0.22065600  0.77934400  0.22065600  1
  Br  Br4  1  0.77934400  0.22065600  0.77934400  1
  Br  Br5  1  0.77934400  0.77934400  0.22065600  1
loop_
_geom_bond_atom_site_label_1
_geom_bond_atom_site_label_2
_geom_bond_distance
_geom_bond_site_symmetry_2
As0 Br4 2.666006 1_454
As0 Br2 2.666006 1_544
As0 Br5 2.666006 1_445
As0 Br0 2.666006 1_455
As0 Br3 2.666006 1_545
As0 Br1 2.666006 1_554
Br0 Cs0 3.375086 1_555
Br1 Cs0 3.375086 1_555
Br2 Cs0 3.375086 1_555
Br3 Cs0 3.375086 1_555
Br4 Cs0 3.375086 1_555
Br5 Cs0 3.375086 1_555
