# generated using pymatgen
data_YSn(WO4)2
_symmetry_space_group_name_H-M   'P 1'
_cell_length_a   5.70939000
_cell_length_b   5.36039100
_cell_length_c   11.14273638
_cell_angle_alpha   68.01808104
_cell_angle_beta   90.00000000
_cell_angle_gamma   90.00000000
_symmetry_Int_Tables_number   1
_chemical_formula_structural   YSn(WO4)2
_chemical_formula_sum   'Y2 Sn2 W4 O16'
_cell_volume   316.22721487
_cell_formula_units_Z   2
loop_
 _symmetry_equiv_pos_site_id
 _symmetry_equiv_pos_as_xyz
  1  'x, y, z'
loop_
 _atom_site_type_symbol
 _atom_site_label
 _atom_site_symmetry_multiplicity
 _atom_site_fract_x
 _atom_site_fract_y
 _atom_site_fract_z
 _atom_site_occupancy
  Y  Y0  1  0.72852700  0.00000000  0.25000000  1
  Y  Y1  1  0.27147300  0.00000000  0.75000000  1
  Sn  Sn0  1  0.32196300  0.50000000  0.25000000  1
  Sn  Sn1  1  0.67803700  0.50000000  0.75000000  1
  W  W0  1  0.17226800  0.24783800  0.00196600  1
  W  W1  1  0.17226800  0.75216200  0.49803400  1
  W  W2  1  0.82773200  0.75216200  0.99803400  1
  W  W3  1  0.82773200  0.24783800  0.50196600  1
  O  O0  1  0.39338800  0.74085800  0.36993800  1
  O  O1  1  0.39338800  0.25914200  0.13006200  1
  O  O2  1  0.60661200  0.25914200  0.63006200  1
  O  O3  1  0.60661200  0.74085800  0.86993800  1
  O  O4  1  0.92925400  0.11937500  0.88597200  1
  O  O5  1  0.92925400  0.88062500  0.61402800  1
  O  O6  1  0.07074600  0.88062500  0.11402800  1
  O  O7  1  0.07074600  0.11937500  0.38597200  1
  O  O8  1  0.60996400  0.24290200  0.36883700  1
  O  O9  1  0.60996400  0.75709800  0.13116300  1
  O  O10  1  0.39003600  0.75709800  0.63116300  1
  O  O11  1  0.39003600  0.24290200  0.86883700  1
  O  O12  1  0.90244600  0.63451000  0.39886400  1
  O  O13  1  0.09755400  0.36549000  0.60113600  1
  O  O14  1  0.90244600  0.36549000  0.10113600  1
  O  O15  1  0.09755400  0.63451000  0.89886400  1
loop_
_geom_bond_atom_site_label_1
_geom_bond_atom_site_label_2
_geom_bond_distance
_geom_bond_site_symmetry_2
O0 W1 1.923415 1_555
O0 Sn0 2.216081 1_555
O0 Y0 2.446862 1_565
O1 W0 1.923415 1_555
O1 Sn0 2.216081 1_555
O1 Y0 2.446862 1_555
O2 W3 1.923415 1_555
O2 Sn1 2.216081 1_555
O2 Y1 2.446862 1_555
O3 W2 1.923415 1_555
O3 Sn1 2.216081 1_555
O3 Y1 2.446862 1_565
O4 W2 1.982354 1_545
O4 W0 2.176250 1_656
O4 Sn1 2.490251 1_555
O4 Y1 2.692280 1_655
O5 W3 1.982354 1_565
O5 W1 2.176250 1_655
O5 Sn1 2.490251 1_555
O5 Y1 2.692280 1_665
O6 W0 1.982354 1_565
O6 W2 2.176250 1_454
O6 Sn0 2.490251 1_555
O6 Y0 2.692280 1_465
O7 W1 1.982354 1_545
O7 W3 2.176250 1_455
O7 Sn0 2.490251 1_555
O7 Y0 2.692280 1_455
O8 W3 1.943315 1_555
O8 Sn0 2.233897 1_555
O8 Y0 2.279850 1_555
O9 W2 1.943315 1_554
O9 Sn0 2.233897 1_555
O9 Y0 2.279850 1_565
O10 W1 1.943315 1_555
O10 Sn1 2.233897 1_555
O10 Y1 2.279850 1_565
O11 W0 1.943315 1_556
O11 Sn1 2.233897 1_555
O11 Y1 2.279850 1_555
O12 W3 2.003819 1_555
O12 W1 2.124554 1_655
O12 Y0 2.267801 1_565
O13 W1 2.003819 1_555
O13 W3 2.124554 1_455
O13 Y1 2.267801 1_555
O14 W2 2.003819 1_554
O14 W0 2.124554 1_655
O14 Y0 2.267801 1_555
O15 W0 2.003819 1_556
O15 W2 2.124554 1_455
O15 Y1 2.267801 1_565
