# generated using pymatgen
data_Yb2(GePt3)3
_symmetry_space_group_name_H-M   'P 1'
_cell_length_a   7.76538821
_cell_length_b   7.76538821
_cell_length_c   10.05836882
_cell_angle_alpha   67.35736487
_cell_angle_beta   67.35736487
_cell_angle_gamma   60.25945925
_symmetry_Int_Tables_number   1
_chemical_formula_structural   Yb2(GePt3)3
_chemical_formula_sum   'Yb4 Ge6 Pt18'
_cell_volume   471.59047861
_cell_formula_units_Z   2
loop_
 _symmetry_equiv_pos_site_id
 _symmetry_equiv_pos_as_xyz
  1  'x, y, z'
loop_
 _atom_site_type_symbol
 _atom_site_label
 _atom_site_symmetry_multiplicity
 _atom_site_fract_x
 _atom_site_fract_y
 _atom_site_fract_z
 _atom_site_occupancy
  Yb  Yb0  1  0.41556900  0.24509900  0.75057000  1
  Yb  Yb1  1  0.58443100  0.75490100  0.24943000  1
  Yb  Yb2  1  0.75490100  0.58443100  0.74943000  1
  Yb  Yb3  1  0.24509900  0.41556900  0.25057000  1
  Ge  Ge0  1  0.50000000  0.00000000  0.50000000  1
  Ge  Ge1  1  0.00000000  0.50000000  0.00000000  1
  Ge  Ge2  1  0.63914500  0.18146100  0.99779400  1
  Ge  Ge3  1  0.36085500  0.81853900  0.00220600  1
  Ge  Ge4  1  0.81853900  0.36085500  0.50220600  1
  Ge  Ge5  1  0.18146100  0.63914500  0.49779400  1
  Pt  Pt0  1  0.29460800  0.91615900  0.75703700  1
  Pt  Pt1  1  0.70539200  0.08384100  0.24296300  1
  Pt  Pt2  1  0.08384100  0.70539200  0.74296300  1
  Pt  Pt3  1  0.91615900  0.29460800  0.25703700  1
  Pt  Pt4  1  0.47712100  0.64094200  0.57722300  1
  Pt  Pt5  1  0.52287900  0.35905800  0.42277700  1
  Pt  Pt6  1  0.35905800  0.52287900  0.92277700  1
  Pt  Pt7  1  0.64094200  0.47712100  0.07722300  1
  Pt  Pt8  1  0.86633900  0.13366100  0.75000000  1
  Pt  Pt9  1  0.13366100  0.86633900  0.25000000  1
  Pt  Pt10  1  0.80504400  0.98019300  0.56850400  1
  Pt  Pt11  1  0.19495600  0.01980700  0.43149600  1
  Pt  Pt12  1  0.01980700  0.19495600  0.93149600  1
  Pt  Pt13  1  0.98019300  0.80504400  0.06850400  1
  Pt  Pt14  1  0.69406200  0.85929900  0.92213900  1
  Pt  Pt15  1  0.30593800  0.14070100  0.07786100  1
  Pt  Pt16  1  0.14070100  0.30593800  0.57786100  1
  Pt  Pt17  1  0.85929900  0.69406200  0.42213900  1
loop_
_geom_bond_atom_site_label_1
_geom_bond_atom_site_label_2
_geom_bond_distance
_geom_bond_site_symmetry_2
Ge0 Pt1 2.492215 1_555
Ge0 Pt0 2.492215 1_545
Ge0 Pt10 2.631201 1_545
Ge0 Pt11 2.631201 1_555
Ge0 Pt4 2.669603 1_545
Ge0 Pt5 2.669603 1_555
Ge0 Pt17 2.686212 1_545
Ge0 Pt16 2.686212 1_555
Ge1 Pt2 2.492215 1_554
Ge1 Pt3 2.492215 1_455
Ge1 Pt13 2.631201 1_455
Ge1 Pt12 2.631201 1_554
Ge1 Pt6 2.669603 1_554
Ge1 Pt7 2.669603 1_455
Ge1 Pt15 2.686212 1_555
Ge1 Pt14 2.686212 1_454
Ge2 Pt1 2.463933 1_556
Ge2 Pt8 2.477768 1_555
Ge2 Pt6 2.516182 1_555
Ge2 Pt15 2.540796 1_556
Ge2 Pt14 2.678982 1_545
Ge2 Pt7 2.713373 1_556
Ge2 Pt12 2.815904 1_655
Ge2 Pt13 2.869307 1_546
Ge3 Pt0 2.463933 1_554
Ge3 Pt9 2.477768 1_555
Ge3 Pt7 2.516182 1_555
Ge3 Pt14 2.540796 1_554
Ge3 Pt15 2.678982 1_565
Ge3 Pt6 2.713373 1_554
Ge3 Pt13 2.815904 1_455
Ge3 Pt12 2.869307 1_564
Ge4 Pt3 2.463933 1_555
Ge4 Pt8 2.477768 1_555
Ge4 Pt4 2.516182 1_555
Ge4 Pt17 2.540796 1_555
Ge4 Pt16 2.678982 1_655
Ge4 Pt5 2.713373 1_555
Ge4 Pt10 2.815904 1_545
Ge4 Pt11 2.869307 1_655
Ge5 Pt2 2.463933 1_555
Ge5 Pt9 2.477768 1_555
Ge5 Pt5 2.516182 1_555
Ge5 Pt16 2.540796 1_555
Ge5 Pt17 2.678982 1_455
Ge5 Pt4 2.713373 1_555
Ge5 Pt11 2.815904 1_565
Ge5 Pt10 2.869307 1_455
Pt0 Yb0 3.101084 1_565
Pt0 Yb2 3.197435 1_555
Pt1 Yb1 3.101084 1_545
Pt1 Yb3 3.197435 1_555
Pt2 Yb2 3.101084 1_455
Pt2 Yb0 3.197435 1_555
Pt3 Yb3 3.101084 1_655
Pt3 Yb1 3.197435 1_555
Pt4 Yb1 2.952592 1_555
Pt4 Yb2 3.032850 1_555
Pt4 Yb0 3.067018 1_555
Pt5 Yb0 2.952592 1_555
Pt5 Yb3 3.032850 1_555
Pt5 Yb1 3.067018 1_555
Pt6 Yb3 2.952592 1_556
Pt6 Yb0 3.032850 1_555
Pt6 Yb2 3.067018 1_555
Pt7 Yb2 2.952592 1_554
Pt7 Yb1 3.032850 1_555
Pt7 Yb3 3.067018 1_555
Pt8 Yb0 3.159867 1_555
Pt8 Yb2 3.159867 1_555
Pt9 Yb3 3.159867 1_555
Pt9 Yb1 3.159867 1_555
Pt10 Yb0 3.032454 1_565
Pt10 Yb2 3.040336 1_555
Pt11 Yb1 3.032454 1_545
Pt11 Yb3 3.040336 1_555
Pt12 Yb2 3.032454 1_455
Pt12 Yb0 3.040336 1_555
Pt13 Yb3 3.032454 1_655
Pt13 Yb1 3.040336 1_555
Pt14 Yb1 2.948101 1_556
Pt14 Yb2 3.003237 1_555
Pt14 Yb0 3.015794 1_565
Pt15 Yb0 2.948101 1_554
Pt15 Yb3 3.003237 1_555
Pt15 Yb1 3.015794 1_545
Pt16 Yb3 2.948101 1_555
Pt16 Yb0 3.003237 1_555
Pt16 Yb2 3.015794 1_455
Pt17 Yb2 2.948101 1_555
Pt17 Yb1 3.003237 1_555
Pt17 Yb3 3.015794 1_655
