# generated using pymatgen
data_Li9Cr4P4(CO7)4
_symmetry_space_group_name_H-M   'P 1'
_cell_length_a   8.17899400
_cell_length_b   8.22918105
_cell_length_c   9.39038974
_cell_angle_alpha   106.55381064
_cell_angle_beta   105.85062973
_cell_angle_gamma   103.70892246
_symmetry_Int_Tables_number   1
_chemical_formula_structural   Li9Cr4P4(CO7)4
_chemical_formula_sum   'Li9 Cr4 P4 C4 O28'
_cell_volume   547.78539965
_cell_formula_units_Z   1
loop_
 _symmetry_equiv_pos_site_id
 _symmetry_equiv_pos_as_xyz
  1  'x, y, z'
loop_
 _atom_site_type_symbol
 _atom_site_label
 _atom_site_symmetry_multiplicity
 _atom_site_fract_x
 _atom_site_fract_y
 _atom_site_fract_z
 _atom_site_occupancy
  Li  Li0  1  0.43518000  0.67990800  0.89460500  1
  Li  Li1  1  0.93920200  0.17876200  0.89639300  1
  Li  Li2  1  0.49532500  0.96106300  0.71890300  1
  Li  Li3  1  0.00195100  0.46562300  0.71871400  1
  Li  Li4  1  0.79658400  0.73911600  0.28716900  1
  Li  Li5  1  0.27977600  0.25619900  0.27152700  1
  Li  Li6  1  0.51127700  0.03274200  0.27264300  1
  Li  Li7  1  0.55981600  0.30593900  0.09226900  1
  Li  Li8  1  0.05783000  0.80838900  0.10363700  1
  Cr  Cr0  1  0.06114400  0.81204200  0.67452600  1
  Cr  Cr1  1  0.56093500  0.31458500  0.67408000  1
  Cr  Cr2  1  0.93758800  0.19088600  0.32504700  1
  Cr  Cr3  1  0.43294800  0.68436500  0.32548200  1
  P  P0  1  0.79989400  0.05560100  0.58073700  1
  P  P1  1  0.30384000  0.55245300  0.58138100  1
  P  P2  1  0.69629500  0.44012200  0.41735600  1
  P  P3  1  0.19831200  0.95167600  0.41363600  1
  C  C0  1  0.75269100  0.51014300  0.95292400  1
  C  C1  1  0.26554100  0.00538500  0.97139000  1
  C  C2  1  0.73693000  0.99690400  0.04602600  1
  C  C3  1  0.24088000  0.49187400  0.04382900  1
  O  O0  1  0.12557100  0.87643600  0.95027400  1
  O  O1  1  0.60943800  0.36986500  0.91757400  1
  O  O2  1  0.62024700  0.90397100  0.90848800  1
  O  O3  1  0.79216800  0.52013600  0.82911900  1
  O  O4  1  0.12253000  0.40269600  0.90598600  1
  O  O5  1  0.29788100  0.02403100  0.84788200  1
  O  O6  1  0.91320400  0.98397700  0.68907900  1
  O  O7  1  0.42756600  0.48613600  0.69167400  1
  O  O8  1  0.70682700  0.14931500  0.68898500  1
  O  O9  1  0.21403200  0.64186900  0.69233100  1
  O  O10  1  0.84800300  0.56846900  0.57205500  1
  O  O11  1  0.91687400  0.19983700  0.53715400  1
  O  O12  1  0.41935700  0.69922600  0.53856500  1
  O  O13  1  0.34774600  0.08236800  0.57464500  1
  O  O14  1  0.65697700  0.90859500  0.42006300  1
  O  O15  1  0.55019000  0.30880900  0.45124700  1
  O  O16  1  0.04851300  0.82342100  0.43624700  1
  O  O17  1  0.16925300  0.40055800  0.42411800  1
  O  O18  1  0.60264500  0.53829000  0.31637300  1
  O  O19  1  0.76000700  0.32197300  0.29707700  1
  O  O20  1  0.28366300  0.84673100  0.30160600  1
  O  O21  1  0.11102400  0.05026600  0.30888400  1
  O  O22  1  0.72121900  0.96753400  0.17426700  1
  O  O23  1  0.84128700  0.62724500  0.09246900  1
  O  O24  1  0.23181400  0.45261600  0.16873000  1
  O  O25  1  0.37472900  0.11942600  0.11458800  1
  O  O26  1  0.38222100  0.63468300  0.07997800  1
  O  O27  1  0.88223200  0.13293700  0.07938000  1
loop_
_geom_bond_atom_site_label_1
_geom_bond_atom_site_label_2
_geom_bond_distance
_geom_bond_site_symmetry_2
Li0 O26 2.015162 1_556
Li0 O2 2.034782 1_555
Li0 O7 2.081943 1_555
Li0 O9 2.119798 1_555
Li1 O27 2.008798 1_556
Li1 O4 2.043101 1_655
Li1 O6 2.058787 1_545
Li1 O8 2.225977 1_555
Li2 O2 2.035821 1_555
Li2 O12 2.146621 1_555
Li2 O8 2.171308 1_565
Li2 O13 2.176457 1_565
Li2 O5 2.334681 1_565
Li3 O4 2.036390 1_555
Li3 O10 2.102470 1_455
Li3 O9 2.102584 1_555
Li3 O11 2.163437 1_455
Li3 O3 2.300354 1_455
Li4 O16 1.969799 1_655
Li4 O23 1.972182 1_555
Li4 O18 2.139132 1_555
Li4 O14 2.312505 1_555
Li4 O22 2.522894 1_555
Li5 O25 2.033748 1_555
Li5 O21 2.096317 1_555
Li5 O17 2.127945 1_555
Li5 O24 2.163575 1_555
Li5 O15 2.240110 1_555
Li6 O25 2.008588 1_555
Li6 O14 2.204991 1_545
Li6 O20 2.246320 1_545
Li6 O22 2.260660 1_545
Li6 O15 2.295606 1_555
Li7 O1 1.971496 1_554
Li7 O25 1.986627 1_555
Li7 O19 2.104751 1_555
Li7 O18 2.279088 1_555
Li8 O0 1.855502 1_554
Li8 O23 1.981915 1_455
Li8 O20 2.116836 1_555
Li8 O21 2.193466 1_565
Cr0 O6 2.067916 1_455
Cr0 O10 2.076296 1_455
Cr0 O9 2.098075 1_555
Cr0 O5 2.121637 1_565
Cr0 O16 2.241361 1_555
Cr0 O0 2.367230 1_555
Cr1 O7 1.976259 1_555
Cr1 O13 2.019535 1_555
Cr1 O8 2.019796 1_555
Cr1 O3 2.033215 1_555
Cr1 O15 2.056546 1_555
Cr1 O1 2.102064 1_555
Cr2 O17 2.001402 1_655
Cr2 O19 2.009457 1_555
Cr2 O11 2.026799 1_555
Cr2 O22 2.030118 1_545
Cr2 O21 2.042038 1_655
Cr2 O27 2.110560 1_555
Cr3 O12 2.004881 1_555
Cr3 O24 2.024988 1_555
Cr3 O20 2.029976 1_555
Cr3 O14 2.031188 1_555
Cr3 O18 2.043471 1_555
Cr3 O26 2.124636 1_555
C0 O23 1.265538 1_556
C0 O3 1.307496 1_555
C0 O1 1.320484 1_555
C1 O0 1.286953 1_545
C1 O5 1.299371 1_555
C1 O25 1.309240 1_556
C2 O2 1.257630 1_554
C2 O27 1.315259 1_565
C2 O22 1.326938 1_555
C3 O4 1.260392 1_554
C3 O24 1.318164 1_555
C3 O26 1.321783 1_555
O6 P0 1.525415 1_565
O7 P1 1.551081 1_555
O8 P0 1.568953 1_555
O9 P1 1.550432 1_555
O10 P2 1.511737 1_555
O11 P0 1.563392 1_555
O12 P1 1.567321 1_555
O13 P3 1.541876 1_545
O14 P0 1.559662 1_565
O15 P2 1.577543 1_555
O16 P3 1.522183 1_555
O17 P1 1.537190 1_555
O18 P2 1.572120 1_555
O19 P2 1.558346 1_555
O20 P3 1.584006 1_555
O21 P3 1.575181 1_545
