# generated using pymatgen
data_Ce2Cu3Sb4
_symmetry_space_group_name_H-M   'P 1'
_cell_length_a   4.49351800
_cell_length_b   4.49351800
_cell_length_c   10.12344500
_cell_angle_alpha   90.00000000
_cell_angle_beta   90.00000000
_cell_angle_gamma   90.00000000
_symmetry_Int_Tables_number   1
_chemical_formula_structural   Ce2Cu3Sb4
_chemical_formula_sum   'Ce2 Cu3 Sb4'
_cell_volume   204.40960507
_cell_formula_units_Z   1
loop_
 _symmetry_equiv_pos_site_id
 _symmetry_equiv_pos_as_xyz
  1  'x, y, z'
loop_
 _atom_site_type_symbol
 _atom_site_label
 _atom_site_symmetry_multiplicity
 _atom_site_fract_x
 _atom_site_fract_y
 _atom_site_fract_z
 _atom_site_occupancy
  Ce  Ce0  1  0.50000000  0.50000000  0.23983400  1
  Ce  Ce1  1  0.00000000  0.00000000  0.74680200  1
  Cu  Cu0  1  0.50000000  0.00000000  0.00102400  1
  Cu  Cu1  1  0.00000000  0.50000000  0.00102400  1
  Cu  Cu2  1  0.50000000  0.50000000  0.62135400  1
  Sb  Sb0  1  0.50000000  0.00000000  0.48585200  1
  Sb  Sb1  1  0.00000000  0.50000000  0.48585200  1
  Sb  Sb2  1  0.50000000  0.50000000  0.86678100  1
  Sb  Sb3  1  0.00000000  0.00000000  0.15147900  1
loop_
_geom_bond_atom_site_label_1
_geom_bond_atom_site_label_2
_geom_bond_distance
_geom_bond_site_symmetry_2
Ce0 Cu0 3.300397 1_555
Ce0 Cu0 3.300397 1_565
Ce0 Cu1 3.300397 1_655
Ce0 Cu1 3.300397 1_555
Ce0 Sb3 3.300895 1_655
Ce0 Sb3 3.300895 1_665
Ce0 Sb3 3.300895 1_555
Ce0 Sb3 3.300895 1_565
Ce0 Sb1 3.354216 1_555
Ce0 Sb1 3.354216 1_655
Ce0 Sb0 3.354216 1_565
Ce0 Sb0 3.354216 1_555
Ce1 Sb2 3.401633 1_455
Ce1 Sb2 3.401633 1_445
Ce1 Sb2 3.401633 1_545
Ce1 Sb2 3.401633 1_555
Ce1 Cu0 3.416337 1_456
Ce1 Cu1 3.416337 1_546
Ce1 Cu0 3.416337 1_556
Ce1 Cu1 3.416337 1_556
Ce1 Cu2 3.421793 1_445
Ce1 Cu2 3.421793 1_555
Ce1 Cu2 3.421793 1_545
Ce1 Cu2 3.421793 1_455
Ce1 Sb0 3.467935 1_555
Ce1 Sb1 3.467935 1_545
Ce1 Sb1 3.467935 1_555
Ce1 Sb0 3.467935 1_455
Cu0 Sb2 2.625797 1_544
Cu0 Sb2 2.625797 1_554
Cu0 Sb3 2.714375 1_655
Cu0 Sb3 2.714375 1_555
Cu1 Sb2 2.625797 1_454
Cu1 Sb2 2.625797 1_554
Cu1 Sb3 2.714375 1_565
Cu1 Sb3 2.714375 1_555
Cu2 Sb2 2.484567 1_555
Cu2 Sb1 2.632416 1_655
Cu2 Sb0 2.632416 1_565
Cu2 Sb1 2.632416 1_555
Cu2 Sb0 2.632416 1_555
Sb0 Sb1 3.177397 1_655
Sb0 Sb1 3.177397 1_645
Sb0 Sb1 3.177397 1_545
Sb0 Sb1 3.177397 1_555
