# generated using pymatgen
data_Ca2Mo3O8
_symmetry_space_group_name_H-M   'P 1'
_cell_length_a   6.45273214
_cell_length_b   6.45273214
_cell_length_c   10.36704300
_cell_angle_alpha   90.00000000
_cell_angle_beta   90.00000000
_cell_angle_gamma   120.00000146
_symmetry_Int_Tables_number   1
_chemical_formula_structural   Ca2Mo3O8
_chemical_formula_sum   'Ca4 Mo6 O16'
_cell_volume   373.82883765
_cell_formula_units_Z   2
loop_
 _symmetry_equiv_pos_site_id
 _symmetry_equiv_pos_as_xyz
  1  'x, y, z'
loop_
 _atom_site_type_symbol
 _atom_site_label
 _atom_site_symmetry_multiplicity
 _atom_site_fract_x
 _atom_site_fract_y
 _atom_site_fract_z
 _atom_site_occupancy
  Ca  Ca0  1  0.66666700  0.33333300  0.02730800  1
  Ca  Ca1  1  0.33333300  0.66666700  0.52730800  1
  Ca  Ca2  1  0.66666700  0.33333300  0.41369900  1
  Ca  Ca3  1  0.33333300  0.66666700  0.91369900  1
  Mo  Mo0  1  0.67191200  0.83595600  0.24448700  1
  Mo  Mo1  1  0.83595600  0.16404400  0.74448700  1
  Mo  Mo2  1  0.16404400  0.32808800  0.24448700  1
  Mo  Mo3  1  0.83595600  0.67191200  0.74448700  1
  Mo  Mo4  1  0.32808800  0.16404400  0.74448700  1
  Mo  Mo5  1  0.16404400  0.83595600  0.24448700  1
  O  O0  1  0.83839400  0.16160600  0.15750400  1
  O  O1  1  0.67678700  0.83839400  0.65750400  1
  O  O2  1  0.16160600  0.32321300  0.65750400  1
  O  O3  1  0.83839400  0.67678700  0.15750400  1
  O  O4  1  0.32321300  0.16160600  0.15750400  1
  O  O5  1  0.16160600  0.83839400  0.65750400  1
  O  O6  1  0.52584400  0.47415600  0.85451300  1
  O  O7  1  0.05168800  0.52584400  0.35451300  1
  O  O8  1  0.47415600  0.94831200  0.35451300  1
  O  O9  1  0.52584400  0.05168800  0.85451300  1
  O  O10  1  0.00000000  0.00000000  0.34746600  1
  O  O11  1  0.00000000  0.00000000  0.84746600  1
  O  O12  1  0.33333300  0.66666700  0.13551800  1
  O  O13  1  0.94831200  0.47415600  0.85451300  1
  O  O14  1  0.47415600  0.52584400  0.35451300  1
  O  O15  1  0.66666700  0.33333300  0.63551800  1
loop_
_geom_bond_atom_site_label_1
_geom_bond_atom_site_label_2
_geom_bond_distance
_geom_bond_site_symmetry_2
Ca0 O3 2.346387 1_555
Ca0 O4 2.346387 1_555
Ca0 O0 2.346387 1_555
Ca0 O13 2.384569 1_554
Ca0 O9 2.384569 1_554
Ca0 O6 2.384573 1_554
Ca1 O1 2.346387 1_555
Ca1 O2 2.346387 1_555
Ca1 O5 2.346387 1_555
Ca1 O8 2.384569 1_555
Ca1 O7 2.384569 1_555
Ca1 O14 2.384573 1_555
Ca2 O7 2.237366 1_655
Ca2 O8 2.237366 1_545
Ca2 O14 2.237371 1_555
Ca2 O15 2.299607 1_555
Ca3 O9 2.237366 1_565
Ca3 O13 2.237366 1_455
Ca3 O6 2.237371 1_555
Ca3 O12 2.299607 1_556
Mo0 O0 2.031113 1_565
Mo0 O3 2.031118 1_555
Mo0 O14 2.092892 1_555
Mo0 O8 2.092892 1_555
Mo0 O10 2.121606 1_665
Mo0 O12 2.203650 1_555
Mo1 O1 2.031113 1_545
Mo1 O2 2.031113 1_655
Mo1 O13 2.092892 1_555
Mo1 O9 2.092892 1_555
Mo1 O11 2.121606 1_655
Mo1 O15 2.203645 1_555
Mo2 O0 2.031113 1_455
Mo2 O4 2.031118 1_555
Mo2 O14 2.092892 1_555
Mo2 O7 2.092892 1_555
Mo2 O10 2.121606 1_555
Mo2 O12 2.203650 1_555
Mo3 O5 2.031113 1_655
Mo3 O1 2.031118 1_555
Mo3 O6 2.092892 1_555
Mo3 O13 2.092892 1_555
Mo3 O11 2.121606 1_665
Mo3 O15 2.203650 1_555
Mo4 O5 2.031113 1_545
Mo4 O2 2.031118 1_555
Mo4 O6 2.092892 1_555
Mo4 O9 2.092892 1_555
Mo4 O11 2.121606 1_555
Mo4 O15 2.203650 1_555
Mo5 O3 2.031113 1_455
Mo5 O4 2.031113 1_565
Mo5 O8 2.092892 1_555
Mo5 O7 2.092892 1_555
Mo5 O10 2.121606 1_565
Mo5 O12 2.203645 1_555
