# generated using pymatgen
data_TiCr2
_symmetry_space_group_name_H-M   'P 1'
_cell_length_a   4.82680715
_cell_length_b   4.82680820
_cell_length_c   4.82680851
_cell_angle_alpha   60.00001191
_cell_angle_beta   60.00000468
_cell_angle_gamma   60.00001031
_symmetry_Int_Tables_number   1
_chemical_formula_structural   TiCr2
_chemical_formula_sum   'Ti2 Cr4'
_cell_volume   79.51794513
_cell_formula_units_Z   2
loop_
 _symmetry_equiv_pos_site_id
 _symmetry_equiv_pos_as_xyz
  1  'x, y, z'
loop_
 _atom_site_type_symbol
 _atom_site_label
 _atom_site_symmetry_multiplicity
 _atom_site_fract_x
 _atom_site_fract_y
 _atom_site_fract_z
 _atom_site_occupancy
  Ti  Ti0  1  0.12500000  0.12500000  0.12500000  1
  Ti  Ti1  1  0.87500000  0.87500000  0.87500000  1
  Cr  Cr0  1  0.00000000  0.50000000  0.50000000  1
  Cr  Cr1  1  0.50000000  -0.00000000  0.50000000  1
  Cr  Cr2  1  0.50000000  0.50000000  0.00000000  1
  Cr  Cr3  1  0.50000000  0.50000000  0.50000000  1
loop_
_geom_bond_atom_site_label_1
_geom_bond_atom_site_label_2
_geom_bond_distance
_geom_bond_site_symmetry_2
Ti0 Ti1 2.955804 1_544
Ti0 Ti1 2.955804 1_444
Ti0 Ti1 2.955805 1_454
Ti0 Ti1 2.955805 1_445
Cr0 Cr3 2.413404 1_555
Cr0 Cr3 2.413404 1_455
Cr0 Cr2 2.413404 1_456
Cr0 Cr2 2.413404 1_555
Cr0 Cr1 2.413404 1_555
Cr0 Cr1 2.413404 1_465
Cr0 Ti0 2.829967 1_555
Cr0 Ti1 2.829967 1_455
Cr0 Ti0 2.829967 1_565
Cr0 Ti1 2.829967 1_445
Cr0 Ti1 2.829968 1_454
Cr0 Ti0 2.829968 1_556
Cr1 Cr3 2.413404 1_555
Cr1 Cr3 2.413404 1_545
Cr1 Cr2 2.413405 1_546
Cr1 Cr2 2.413405 1_555
Cr1 Ti0 2.829967 1_655
Cr1 Ti1 2.829967 1_445
Cr1 Ti0 2.829967 1_555
Cr1 Ti1 2.829967 1_545
Cr1 Ti0 2.829967 1_556
Cr1 Ti1 2.829967 1_544
Cr2 Cr3 2.413404 1_555
Cr2 Cr3 2.413404 1_554
Cr2 Ti1 2.829967 1_554
Cr2 Ti0 2.829967 1_555
Cr2 Ti0 2.829967 1_655
Cr2 Ti1 2.829967 1_454
Cr2 Ti1 2.829967 1_544
Cr2 Ti0 2.829967 1_565
Cr3 Ti0 2.829967 1_655
Cr3 Ti1 2.829967 1_455
Cr3 Ti1 2.829967 1_554
Cr3 Ti0 2.829967 1_556
Cr3 Ti0 2.829968 1_565
Cr3 Ti1 2.829968 1_545
