# generated using pymatgen
data_Ca2TaNiO6
_symmetry_space_group_name_H-M   'P 1'
_cell_length_a   5.45744667
_cell_length_b   5.63265054
_cell_length_c   7.72914400
_cell_angle_alpha   90.00000000
_cell_angle_beta   90.00000000
_cell_angle_gamma   88.32882730
_symmetry_Int_Tables_number   1
_chemical_formula_structural   Ca2TaNiO6
_chemical_formula_sum   'Ca4 Ta2 Ni2 O12'
_cell_volume   237.49197830
_cell_formula_units_Z   2
loop_
 _symmetry_equiv_pos_site_id
 _symmetry_equiv_pos_as_xyz
  1  'x, y, z'
loop_
 _atom_site_type_symbol
 _atom_site_label
 _atom_site_symmetry_multiplicity
 _atom_site_fract_x
 _atom_site_fract_y
 _atom_site_fract_z
 _atom_site_occupancy
  Ca  Ca0  1  0.02358200  0.95700300  0.25000000  1
  Ca  Ca1  1  0.49096600  0.43282800  0.25000000  1
  Ca  Ca2  1  0.50903400  0.56717200  0.75000000  1
  Ca  Ca3  1  0.97641800  0.04299700  0.75000000  1
  Ta  Ta0  1  0.00000000  0.50000000  0.00000000  1
  Ta  Ta1  1  0.00000000  0.50000000  0.50000000  1
  Ni  Ni0  1  0.50000000  0.00000000  0.00000000  1
  Ni  Ni1  1  0.50000000  0.00000000  0.50000000  1
  O  O0  1  0.79627800  0.79152800  0.54711300  1
  O  O1  1  0.28778900  0.69839400  0.45576300  1
  O  O2  1  0.20372200  0.20847200  0.45288700  1
  O  O3  1  0.71221100  0.30160600  0.95576300  1
  O  O4  1  0.09014900  0.47406600  0.75000000  1
  O  O5  1  0.71221100  0.30160600  0.54423700  1
  O  O6  1  0.28778900  0.69839400  0.04423700  1
  O  O7  1  0.79627800  0.79152800  0.95288700  1
  O  O8  1  0.59618000  0.02616500  0.25000000  1
  O  O9  1  0.20372200  0.20847200  0.04711300  1
  O  O10  1  0.40382000  0.97383500  0.75000000  1
  O  O11  1  0.90985100  0.52593400  0.25000000  1
loop_
_geom_bond_atom_site_label_1
_geom_bond_atom_site_label_2
_geom_bond_distance
_geom_bond_site_symmetry_2
Ca0 O9 2.347995 1_565
Ca0 O2 2.347995 1_565
Ca0 O8 2.353599 1_465
Ca0 O11 2.523614 1_455
Ca0 O1 2.570541 1_555
Ca0 O6 2.570541 1_555
Ca0 O7 2.783632 1_454
Ca0 O0 2.783632 1_455
Ca1 O8 2.345164 1_555
Ca1 O11 2.360285 1_555
Ca1 O6 2.428905 1_555
Ca1 O1 2.428905 1_555
Ca1 O9 2.574691 1_555
Ca1 O2 2.574691 1_555
Ca1 O5 2.669108 1_555
Ca1 O3 2.669108 1_554
Ca2 O10 2.345164 1_555
Ca2 O4 2.360285 1_555
Ca2 O5 2.428905 1_555
Ca2 O3 2.428905 1_555
Ca2 O0 2.574691 1_555
Ca2 O7 2.574691 1_555
Ca2 O1 2.669108 1_555
Ca2 O6 2.669108 1_556
Ca3 O0 2.347995 1_545
Ca3 O7 2.347995 1_545
Ca3 O10 2.353599 1_645
Ca3 O4 2.523614 1_655
Ca3 O5 2.570541 1_555
Ca3 O3 2.570541 1_555
Ca3 O9 2.783632 1_656
Ca3 O2 2.783632 1_655
Ni0 O9 2.003785 1_555
Ni0 O7 2.003785 1_544
Ni0 O8 2.008850 1_555
Ni0 O10 2.008850 1_544
Ni0 O3 2.111632 1_554
Ni0 O6 2.111632 1_545
Ni1 O0 2.003785 1_545
Ni1 O2 2.003785 1_555
Ni1 O8 2.008850 1_555
Ni1 O10 2.008850 1_545
Ni1 O5 2.111632 1_555
Ni1 O1 2.111632 1_545
O0 Ta1 1.989631 1_655
O1 Ta1 1.983635 1_555
O2 Ta1 1.989631 1_555
O3 Ta0 1.983635 1_656
O4 Ta1 1.998230 1_555
O4 Ta0 1.998230 1_556
O5 Ta1 1.983635 1_655
O6 Ta0 1.983635 1_555
O7 Ta0 1.989631 1_656
O9 Ta0 1.989631 1_555
O11 Ta1 1.998230 1_655
O11 Ta0 1.998230 1_655
