# generated using pymatgen
data_Mg6TiMn
_symmetry_space_group_name_H-M   'P 1'
_cell_length_a   4.96139900
_cell_length_b   6.11008900
_cell_length_c   10.87376700
_cell_angle_alpha   90.00000000
_cell_angle_beta   90.00000000
_cell_angle_gamma   90.00000000
_symmetry_Int_Tables_number   1
_chemical_formula_structural   Mg6TiMn
_chemical_formula_sum   'Mg12 Ti2 Mn2'
_cell_volume   329.63378243
_cell_formula_units_Z   2
loop_
 _symmetry_equiv_pos_site_id
 _symmetry_equiv_pos_as_xyz
  1  'x, y, z'
loop_
 _atom_site_type_symbol
 _atom_site_label
 _atom_site_symmetry_multiplicity
 _atom_site_fract_x
 _atom_site_fract_y
 _atom_site_fract_z
 _atom_site_occupancy
  Mg  Mg0  1  0.50000000  0.25153000  0.41773900  1
  Mg  Mg1  1  0.50000000  0.74847000  0.41773900  1
  Mg  Mg2  1  0.00000000  0.75100400  0.08840100  1
  Mg  Mg3  1  0.00000000  0.24899600  0.08840100  1
  Mg  Mg4  1  0.00000000  0.00000000  0.32648600  1
  Mg  Mg5  1  0.00000000  0.50000000  0.32793500  1
  Mg  Mg6  1  0.50000000  0.75153000  0.91773900  1
  Mg  Mg7  1  0.50000000  0.24847000  0.91773900  1
  Mg  Mg8  1  0.00000000  0.25100400  0.58840100  1
  Mg  Mg9  1  0.00000000  0.74899600  0.58840100  1
  Mg  Mg10  1  0.00000000  0.50000000  0.82648600  1
  Mg  Mg11  1  0.00000000  0.00000000  0.82793500  1
  Ti  Ti0  1  0.50000000  0.50000000  0.16839000  1
  Ti  Ti1  1  0.50000000  0.00000000  0.66839000  1
  Mn  Mn0  1  0.50000000  0.00000000  0.16490600  1
  Mn  Mn1  1  0.50000000  0.50000000  0.66490600  1
loop_
_geom_bond_atom_site_label_1
_geom_bond_atom_site_label_2
_geom_bond_distance
_geom_bond_site_symmetry_2
Mg0 Mg1 3.036348 1_555
Mg0 Mg5 3.067945 1_555
Mg0 Mg5 3.067945 1_655
Mg0 Mg1 3.073741 1_545
Mg0 Mg4 3.082277 1_555
Mg0 Mg4 3.082277 1_655
Mg0 Mn1 3.086785 1_555
Mg0 Mg8 3.098007 1_555
Mg0 Mg8 3.098007 1_655
Mg0 Ti0 3.107465 1_555
Mg0 Ti1 3.128967 1_555
Mg0 Mn0 3.149656 1_555
Mg1 Mg5 3.067945 1_655
Mg1 Mg5 3.067945 1_555
Mg1 Mg4 3.082277 1_665
Mg1 Mg4 3.082277 1_565
Mg1 Mn1 3.086785 1_555
Mg1 Mg9 3.098007 1_655
Mg1 Mg9 3.098007 1_555
Mg1 Ti0 3.107465 1_555
Mg1 Ti1 3.128967 1_565
Mg1 Mn0 3.149656 1_565
Mg2 Mg4 3.002819 1_565
Mg2 Mg5 3.022621 1_555
Mg2 Mn0 3.026639 1_565
Mg2 Mn0 3.026639 1_465
Mg2 Mg3 3.042775 1_565
Mg2 Ti0 3.043434 1_555
Mg2 Ti0 3.043434 1_455
Mg2 Mg3 3.067314 1_555
Mg2 Mg6 3.098007 1_454
Mg2 Mg6 3.098007 1_554
Mg3 Mg4 3.002819 1_555
Mg3 Mg5 3.022621 1_555
Mg3 Mn0 3.026639 1_455
Mg3 Mn0 3.026639 1_555
Mg3 Ti0 3.043434 1_555
Mg3 Ti0 3.043434 1_455
Mg3 Mg7 3.098007 1_554
Mg3 Mg7 3.098007 1_454
Mg4 Mn0 3.039878 1_455
Mg4 Mn0 3.039878 1_555
Mg4 Mg5 3.055085 1_545
Mg4 Mg5 3.055085 1_555
Mg4 Mg8 3.234690 1_555
Mg4 Mg9 3.234690 1_545
Mg5 Ti0 3.027143 1_455
Mg5 Ti0 3.027143 1_555
Mg5 Mg9 3.215003 1_555
Mg5 Mg8 3.215003 1_555
Mg6 Mg7 3.036348 1_565
Mg6 Mg7 3.073741 1_555
Mg6 Mn0 3.086785 1_566
Mg6 Ti1 3.107465 1_565
Mg6 Ti0 3.128967 1_556
Mg6 Mn1 3.149656 1_555
Mg7 Mn0 3.086785 1_556
Mg7 Ti1 3.107465 1_555
Mg7 Ti0 3.128967 1_556
Mg7 Mn1 3.149656 1_555
Mg8 Mn1 3.026639 1_455
Mg8 Mn1 3.026639 1_555
Mg8 Mg9 3.042775 1_555
Mg8 Ti1 3.043434 1_455
Mg8 Ti1 3.043434 1_555
Mg8 Mg9 3.067314 1_545
Mg9 Mn1 3.026639 1_455
Mg9 Mn1 3.026639 1_555
Mg9 Ti1 3.043434 1_565
Mg9 Ti1 3.043434 1_465
Mg10 Mg8 3.002819 1_555
Mg10 Mg9 3.002819 1_555
Mg10 Mn1 3.039878 1_555
Mg10 Mn1 3.039878 1_455
Mg10 Mg11 3.055085 1_555
Mg10 Mg11 3.055085 1_565
Mg10 Mg7 3.082277 1_555
Mg10 Mg6 3.082277 1_455
Mg10 Mg7 3.082277 1_455
Mg10 Mg6 3.082277 1_555
Mg10 Mg2 3.234690 1_556
Mg10 Mg3 3.234690 1_556
Mg11 Mg9 3.022621 1_545
Mg11 Mg8 3.022621 1_555
Mg11 Ti1 3.027143 1_455
Mg11 Ti1 3.027143 1_555
Mg11 Mg6 3.067945 1_445
Mg11 Mg6 3.067945 1_545
Mg11 Mg7 3.067945 1_455
Mg11 Mg7 3.067945 1_555
Mg11 Mg2 3.215003 1_546
Mg11 Mg3 3.215003 1_556
Mn0 Ti0 3.055279 1_555
Mn0 Ti0 3.055279 1_545
Mn1 Ti1 3.055279 1_565
Mn1 Ti1 3.055279 1_555
