# generated using pymatgen
data_Al3Os2
_symmetry_space_group_name_H-M   'P 1'
_cell_length_a   6.21695002
_cell_length_b   6.21695060
_cell_length_c   14.80848495
_cell_angle_alpha   102.11568380
_cell_angle_beta   102.11568687
_cell_angle_gamma   90.01715873
_symmetry_Int_Tables_number   1
_chemical_formula_structural   Al3Os2
_chemical_formula_sum   'Al24 Os16'
_cell_volume   546.55221919
_cell_formula_units_Z   8
loop_
 _symmetry_equiv_pos_site_id
 _symmetry_equiv_pos_as_xyz
  1  'x, y, z'
loop_
 _atom_site_type_symbol
 _atom_site_label
 _atom_site_symmetry_multiplicity
 _atom_site_fract_x
 _atom_site_fract_y
 _atom_site_fract_z
 _atom_site_occupancy
  Al  Al0_0  1  0.00000000  0.00000000  0.00000000  1
  Al  Al0_1  1  0.00000000  0.00000000  0.50000000  1
  Al  Al0_2  1  0.00000000  0.50000000  0.00000000  1
  Al  Al0_3  1  0.00000000  0.50000000  0.50000000  1
  Al  Al0_4  1  0.50000000  0.00000000  0.00000000  1
  Al  Al0_5  1  0.50000000  0.00000000  0.50000000  1
  Al  Al0_6  1  0.50000000  0.50000000  0.00000000  1
  Al  Al0_7  1  0.50000000  0.50000000  0.50000000  1
  Al  Al1_0  1  0.09784992  0.09784992  0.19582710  1
  Al  Al1_1  1  0.09784992  0.09784992  0.69582710  1
  Al  Al1_2  1  0.09784992  0.59784992  0.19582710  1
  Al  Al1_3  1  0.09784992  0.59784992  0.69582710  1
  Al  Al1_4  1  0.59784992  0.09784992  0.19582710  1
  Al  Al1_5  1  0.59784992  0.09784992  0.69582710  1
  Al  Al1_6  1  0.59784992  0.59784992  0.19582710  1
  Al  Al1_7  1  0.59784992  0.59784992  0.69582710  1
  Al  Al2_0  1  0.40215008  0.40215008  0.30417341  1
  Al  Al2_1  1  0.40215008  0.40215008  0.80417341  1
  Al  Al2_2  1  0.40215008  0.90215008  0.30417341  1
  Al  Al2_3  1  0.40215008  0.90215008  0.80417341  1
  Al  Al2_4  1  0.90215008  0.40215008  0.30417341  1
  Al  Al2_5  1  0.90215008  0.40215008  0.80417341  1
  Al  Al2_6  1  0.90215008  0.90215008  0.30417341  1
  Al  Al2_7  1  0.90215008  0.90215008  0.80417341  1
  Os  Os0_0  1  0.19637957  0.19637957  0.39270102  1
  Os  Os0_1  1  0.19637957  0.19637957  0.89270102  1
  Os  Os0_2  1  0.19637957  0.69637957  0.39270102  1
  Os  Os0_3  1  0.19637957  0.69637957  0.89270102  1
  Os  Os0_4  1  0.69637957  0.19637957  0.39270102  1
  Os  Os0_5  1  0.69637957  0.19637957  0.89270102  1
  Os  Os0_6  1  0.69637957  0.69637957  0.39270102  1
  Os  Os0_7  1  0.69637957  0.69637957  0.89270102  1
  Os  Os1_0  1  0.30362043  0.30362043  0.10729848  1
  Os  Os1_1  1  0.30362043  0.30362043  0.60729848  1
  Os  Os1_2  1  0.30362043  0.80362043  0.10729848  1
  Os  Os1_3  1  0.30362043  0.80362043  0.60729848  1
  Os  Os1_4  1  0.80362043  0.30362043  0.10729848  1
  Os  Os1_5  1  0.80362043  0.30362043  0.60729848  1
  Os  Os1_6  1  0.80362043  0.80362043  0.10729848  1
  Os  Os1_7  1  0.80362043  0.80362043  0.60729848  1
loop_
_geom_bond_atom_site_label_1
_geom_bond_atom_site_label_2
_geom_bond_distance
_geom_bond_site_symmetry_2
Al0_0 Os1_0 2.670312 1_555
Al0_0 Os0_7 2.670315 1_444
Al0_0 Os1_6 2.670867 1_445
Al0_0 Os0_1 2.670873 1_554
Al0_0 Os1_2 2.671132 1_545
Al0_0 Os1_4 2.671132 1_455
Al0_0 Os0_5 2.671136 1_454
Al0_0 Os0_3 2.671136 1_544
Al0_0 Al2_7 2.769163 1_444
Al0_0 Al1_0 2.769170 1_555
Al0_1 Os1_1 2.670312 1_555
Al0_1 Os0_6 2.670315 1_445
Al0_1 Os1_7 2.670867 1_445
Al0_1 Os0_0 2.670873 1_555
Al0_1 Os1_3 2.671132 1_545
Al0_1 Os1_5 2.671132 1_455
Al0_1 Os0_4 2.671136 1_455
Al0_1 Os0_2 2.671136 1_545
Al0_1 Al2_6 2.769163 1_445
Al0_1 Al1_1 2.769170 1_555
Al0_2 Os1_2 2.670312 1_555
Al0_2 Os0_5 2.670315 1_454
Al0_2 Os1_4 2.670867 1_455
Al0_2 Os0_3 2.670873 1_554
Al0_2 Os1_0 2.671132 1_555
Al0_2 Os1_6 2.671132 1_455
Al0_2 Os0_7 2.671136 1_454
Al0_2 Os0_1 2.671136 1_554
Al0_2 Al2_5 2.769163 1_454
Al0_2 Al1_2 2.769170 1_555
Al0_3 Os1_3 2.670312 1_555
Al0_3 Os0_4 2.670315 1_455
Al0_3 Os1_5 2.670867 1_455
Al0_3 Os0_2 2.670873 1_555
Al0_3 Os1_1 2.671132 1_555
Al0_3 Os1_7 2.671132 1_455
Al0_3 Os0_6 2.671136 1_455
Al0_3 Os0_0 2.671136 1_555
Al0_3 Al2_4 2.769163 1_455
Al0_3 Al1_3 2.769170 1_555
Al0_4 Os1_4 2.670312 1_555
Al0_4 Os0_3 2.670315 1_544
Al0_4 Os1_2 2.670867 1_545
Al0_4 Os0_5 2.670873 1_554
Al0_4 Os1_6 2.671132 1_545
Al0_4 Os1_0 2.671132 1_555
Al0_4 Os0_1 2.671136 1_554
Al0_4 Os0_7 2.671136 1_544
Al0_4 Al2_3 2.769163 1_544
Al0_4 Al1_4 2.769170 1_555
Al0_5 Os1_5 2.670312 1_555
Al0_5 Os0_2 2.670315 1_545
Al0_5 Os1_3 2.670867 1_545
Al0_5 Os0_4 2.670873 1_555
Al0_5 Os1_7 2.671132 1_545
Al0_5 Os1_1 2.671132 1_555
Al0_5 Os0_0 2.671136 1_555
Al0_5 Os0_6 2.671136 1_545
Al0_5 Al2_2 2.769163 1_545
Al0_5 Al1_5 2.769170 1_555
Al0_6 Os1_6 2.670312 1_555
Al0_6 Os0_1 2.670315 1_554
Al0_6 Os1_0 2.670867 1_555
Al0_6 Os0_7 2.670873 1_554
Al0_6 Os1_4 2.671132 1_555
Al0_6 Os1_2 2.671132 1_555
Al0_6 Os0_3 2.671136 1_554
Al0_6 Os0_5 2.671136 1_554
Al0_6 Al2_1 2.769163 1_554
Al0_6 Al1_6 2.769170 1_555
Al0_7 Os1_7 2.670312 1_555
Al0_7 Os0_0 2.670315 1_555
Al0_7 Os1_1 2.670867 1_555
Al0_7 Os0_6 2.670873 1_555
Al0_7 Os1_5 2.671132 1_555
Al0_7 Os1_3 2.671132 1_555
Al0_7 Os0_2 2.671136 1_555
Al0_7 Os0_4 2.671136 1_555
Al0_7 Al2_0 2.769163 1_555
Al0_7 Al1_7 2.769170 1_555
Al1_0 Os1_6 2.528913 1_445
Al1_0 Os1_0 2.529565 1_555
Al1_0 Os1_4 2.529811 1_455
Al1_0 Os1_2 2.529811 1_545
Al1_0 Al2_6 2.678190 1_445
Al1_0 Al2_2 2.679576 1_545
Al1_0 Al2_4 2.679576 1_455
Al1_0 Al2_0 2.679883 1_555
Al1_0 Os0_0 2.783974 1_555
Al1_1 Os1_7 2.528913 1_445
Al1_1 Os1_1 2.529565 1_555
Al1_1 Os1_5 2.529811 1_455
Al1_1 Os1_3 2.529811 1_545
Al1_1 Al2_7 2.678190 1_445
Al1_1 Al2_3 2.679576 1_545
Al1_1 Al2_5 2.679576 1_455
Al1_1 Al2_1 2.679883 1_555
Al1_1 Os0_1 2.783974 1_555
Al1_2 Os1_4 2.528913 1_455
Al1_2 Os1_2 2.529565 1_555
Al1_2 Os1_6 2.529811 1_455
Al1_2 Os1_0 2.529811 1_555
Al1_2 Al2_4 2.678190 1_455
Al1_2 Al2_0 2.679576 1_555
Al1_2 Al2_6 2.679576 1_455
Al1_2 Al2_2 2.679883 1_555
Al1_2 Os0_2 2.783974 1_555
Al1_3 Os1_5 2.528913 1_455
Al1_3 Os1_3 2.529565 1_555
Al1_3 Os1_7 2.529811 1_455
Al1_3 Os1_1 2.529811 1_555
Al1_3 Al2_5 2.678190 1_455
Al1_3 Al2_1 2.679576 1_555
Al1_3 Al2_7 2.679576 1_455
Al1_3 Al2_3 2.679883 1_555
Al1_3 Os0_3 2.783974 1_555
Al1_4 Os1_2 2.528913 1_545
Al1_4 Os1_4 2.529565 1_555
Al1_4 Os1_0 2.529811 1_555
Al1_4 Os1_6 2.529811 1_545
Al1_4 Al2_2 2.678190 1_545
Al1_4 Al2_6 2.679576 1_545
Al1_4 Al2_0 2.679576 1_555
Al1_4 Al2_4 2.679883 1_555
Al1_4 Os0_4 2.783974 1_555
Al1_5 Os1_3 2.528913 1_545
Al1_5 Os1_5 2.529565 1_555
Al1_5 Os1_1 2.529811 1_555
Al1_5 Os1_7 2.529811 1_545
Al1_5 Al2_3 2.678190 1_545
Al1_5 Al2_7 2.679576 1_545
Al1_5 Al2_1 2.679576 1_555
Al1_5 Al2_5 2.679883 1_555
Al1_5 Os0_5 2.783974 1_555
Al1_6 Os1_0 2.528913 1_555
Al1_6 Os1_6 2.529565 1_555
Al1_6 Os1_2 2.529811 1_555
Al1_6 Os1_4 2.529811 1_555
Al1_6 Al2_0 2.678190 1_555
Al1_6 Al2_4 2.679576 1_555
Al1_6 Al2_2 2.679576 1_555
Al1_6 Al2_6 2.679883 1_555
Al1_6 Os0_6 2.783974 1_555
Al1_7 Os1_1 2.528913 1_555
Al1_7 Os1_7 2.529565 1_555
Al1_7 Os1_3 2.529811 1_555
Al1_7 Os1_5 2.529811 1_555
Al1_7 Al2_1 2.678190 1_555
Al1_7 Al2_5 2.679576 1_555
Al1_7 Al2_3 2.679576 1_555
Al1_7 Al2_7 2.679883 1_555
Al1_7 Os0_7 2.783974 1_555
Al2_0 Os0_6 2.528910 1_555
Al2_0 Os0_0 2.529554 1_555
Al2_0 Os0_4 2.529804 1_555
Al2_0 Os0_2 2.529804 1_555
Al2_0 Os1_0 2.783988 1_555
Al2_1 Os0_7 2.528910 1_555
Al2_1 Os0_1 2.529554 1_555
Al2_1 Os0_5 2.529804 1_555
Al2_1 Os0_3 2.529804 1_555
Al2_1 Os1_1 2.783988 1_555
Al2_2 Os0_4 2.528910 1_565
Al2_2 Os0_2 2.529554 1_555
Al2_2 Os0_6 2.529804 1_555
Al2_2 Os0_0 2.529804 1_565
Al2_2 Os1_2 2.783988 1_555
Al2_3 Os0_5 2.528910 1_565
Al2_3 Os0_3 2.529554 1_555
Al2_3 Os0_7 2.529804 1_555
Al2_3 Os0_1 2.529804 1_565
Al2_3 Os1_3 2.783988 1_555
Al2_4 Os0_2 2.528910 1_655
Al2_4 Os0_4 2.529554 1_555
Al2_4 Os0_0 2.529804 1_655
Al2_4 Os0_6 2.529804 1_555
Al2_4 Os1_4 2.783988 1_555
Al2_5 Os0_3 2.528910 1_655
Al2_5 Os0_5 2.529554 1_555
Al2_5 Os0_1 2.529804 1_655
Al2_5 Os0_7 2.529804 1_555
Al2_5 Os1_5 2.783988 1_555
Al2_6 Os0_0 2.528910 1_665
Al2_6 Os0_6 2.529554 1_555
Al2_6 Os0_2 2.529804 1_655
Al2_6 Os0_4 2.529804 1_565
Al2_6 Os1_6 2.783988 1_555
Al2_7 Os0_1 2.528910 1_665
Al2_7 Os0_7 2.529554 1_555
Al2_7 Os0_3 2.529804 1_655
Al2_7 Os0_5 2.529804 1_565
Al2_7 Os1_7 2.783988 1_555
Os0_0 Os1_1 3.034600 1_555
Os0_0 Os0_4 3.108475 1_455
Os0_0 Os0_4 3.108475 1_555
Os0_0 Os0_2 3.108475 1_555
Os0_0 Os0_2 3.108475 1_545
Os0_1 Os1_0 3.034600 1_556
Os0_1 Os0_5 3.108475 1_555
Os0_1 Os0_5 3.108475 1_455
Os0_1 Os0_3 3.108475 1_545
Os0_1 Os0_3 3.108475 1_555
Os0_2 Os1_3 3.034600 1_555
Os0_2 Os0_6 3.108475 1_455
Os0_2 Os0_6 3.108475 1_555
Os0_3 Os1_2 3.034600 1_556
Os0_3 Os0_7 3.108475 1_455
Os0_3 Os0_7 3.108475 1_555
Os0_4 Os1_5 3.034600 1_555
Os0_4 Os0_6 3.108475 1_545
Os0_4 Os0_6 3.108475 1_555
Os0_5 Os1_4 3.034600 1_556
Os0_5 Os0_7 3.108475 1_545
Os0_5 Os0_7 3.108475 1_555
Os0_6 Os1_7 3.034600 1_555
Os0_7 Os1_6 3.034600 1_556
Os1_0 Os1_4 3.108475 1_455
Os1_0 Os1_4 3.108475 1_555
Os1_0 Os1_2 3.108475 1_545
Os1_0 Os1_2 3.108475 1_555
Os1_1 Os1_5 3.108475 1_555
Os1_1 Os1_5 3.108475 1_455
Os1_1 Os1_3 3.108475 1_545
Os1_1 Os1_3 3.108475 1_555
Os1_2 Os1_6 3.108475 1_455
Os1_2 Os1_6 3.108475 1_555
Os1_3 Os1_7 3.108475 1_455
Os1_3 Os1_7 3.108475 1_555
Os1_4 Os1_6 3.108475 1_545
Os1_4 Os1_6 3.108475 1_555
Os1_5 Os1_7 3.108475 1_545
Os1_5 Os1_7 3.108475 1_555
