# generated using pymatgen
data_Na2V2O5
_symmetry_space_group_name_H-M   'P 1'
_cell_length_a   5.40470700
_cell_length_b   5.63581700
_cell_length_c   8.21806913
_cell_angle_alpha   69.94481420
_cell_angle_beta   70.80333177
_cell_angle_gamma   89.99733248
_symmetry_Int_Tables_number   1
_chemical_formula_structural   Na2V2O5
_chemical_formula_sum   'Na4 V4 O10'
_cell_volume   220.26843337
_cell_formula_units_Z   2
loop_
 _symmetry_equiv_pos_site_id
 _symmetry_equiv_pos_as_xyz
  1  'x, y, z'
loop_
 _atom_site_type_symbol
 _atom_site_label
 _atom_site_symmetry_multiplicity
 _atom_site_fract_x
 _atom_site_fract_y
 _atom_site_fract_z
 _atom_site_occupancy
  Na  Na0  1  0.39011700  0.92222000  0.21467400  1
  Na  Na1  1  0.60475700  0.07774400  0.78532300  1
  Na  Na2  1  0.89014300  0.36308400  0.21467700  1
  Na  Na3  1  0.10487600  0.63699400  0.78530100  1
  V  V0  1  0.70633600  0.67903300  0.49991800  1
  V  V1  1  0.20626700  0.32092100  0.50007400  1
  V  V2  1  0.49327300  0.50001800  0.99998300  1
  V  V3  1  0.99303800  0.99997500  0.00000000  1
  O  O0  1  0.36279900  0.61819100  0.50003900  1
  O  O1  1  0.86285400  0.38173400  0.49997200  1
  O  O2  1  0.29308200  0.26347400  0.97565600  1
  O  O3  1  0.26841700  0.73684500  0.02436700  1
  O  O4  1  0.79292500  0.26100900  0.97566700  1
  O  O5  1  0.76826000  0.73872400  0.02436100  1
  O  O6  1  0.88188200  0.91787500  0.28174400  1
  O  O7  1  0.16355700  0.08212300  0.71826800  1
  O  O8  1  0.38158300  0.29990700  0.28229300  1
  O  O9  1  0.66383800  0.70012800  0.71768300  1
loop_
_geom_bond_atom_site_label_1
_geom_bond_atom_site_label_2
_geom_bond_distance
_geom_bond_site_symmetry_2
Na0 O0 2.339618 1_555
Na0 O8 2.374057 1_565
Na0 O3 2.401513 1_555
Na0 O2 2.432824 1_564
Na0 O5 2.588350 1_555
Na0 O6 2.616245 1_455
Na0 O4 2.619038 1_564
Na0 O6 2.884906 1_555
Na1 O1 2.339607 1_555
Na1 O9 2.373741 1_545
Na1 O2 2.402059 1_555
Na1 O3 2.432728 1_546
Na1 O4 2.588884 1_555
Na1 O7 2.616333 1_555
Na1 O5 2.618720 1_546
Na1 O7 2.884751 1_655
Na2 O1 2.339110 1_555
Na2 O6 2.374191 1_545
Na2 O5 2.401764 1_555
Na2 O4 2.432864 1_554
Na2 O3 2.588655 1_655
Na2 O8 2.617333 1_555
Na2 O2 2.619024 1_654
Na2 O8 2.885337 1_655
Na3 O0 2.339124 1_555
Na3 O7 2.373775 1_565
Na3 O4 2.402564 1_455
Na3 O5 2.433151 1_456
Na3 O2 2.588622 1_555
Na3 O9 2.617770 1_455
Na3 O3 2.618807 1_556
Na3 O9 2.884874 1_555
O0 V1 1.876753 1_555
O0 V0 1.887746 1_555
O1 V0 1.876855 1_555
O1 V1 1.887628 1_655
O2 V2 1.820169 1_555
O2 V3 2.111445 1_446
O3 V2 1.822543 1_554
O3 V3 2.108681 1_455
O4 V3 1.820525 1_546
O4 V2 2.109226 1_555
O5 V3 1.822600 1_555
O5 V2 2.107055 1_554
O6 V0 1.775658 1_555
O6 V3 2.070397 1_555
O7 V1 1.775544 1_555
O7 V3 2.070246 1_446
O8 V1 1.773457 1_555
O8 V2 2.074470 1_554
O9 V0 1.773468 1_555
O9 V2 2.074397 1_555
