# generated using pymatgen
data_Li9Mn2Co5O16
_symmetry_space_group_name_H-M   'P 1'
_cell_length_a   5.78543700
_cell_length_b   5.17222800
_cell_length_c   9.70945303
_cell_angle_alpha   81.08331257
_cell_angle_beta   90.00000000
_cell_angle_gamma   90.00000000
_symmetry_Int_Tables_number   1
_chemical_formula_structural   Li9Mn2Co5O16
_chemical_formula_sum   'Li9 Mn2 Co5 O16'
_cell_volume   287.03051539
_cell_formula_units_Z   1
loop_
 _symmetry_equiv_pos_site_id
 _symmetry_equiv_pos_as_xyz
  1  'x, y, z'
loop_
 _atom_site_type_symbol
 _atom_site_label
 _atom_site_symmetry_multiplicity
 _atom_site_fract_x
 _atom_site_fract_y
 _atom_site_fract_z
 _atom_site_occupancy
  Li  Li0  1  0.74662400  0.74597800  0.74455500  1
  Li  Li1  1  0.50500000  0.50000000  0.00000000  1
  Li  Li2  1  0.25126400  0.25148500  0.25466600  1
  Li  Li3  1  0.49744800  0.00000000  0.50000000  1
  Li  Li4  1  0.25126400  0.74851500  0.74533400  1
  Li  Li5  1  0.00030400  0.50000000  0.00000000  1
  Li  Li6  1  0.99639600  0.00000000  0.50000000  1
  Li  Li7  1  0.74662400  0.25402200  0.25544500  1
  Li  Li8  1  0.74653300  0.50000000  0.50000000  1
  Mn  Mn0  1  0.00197300  0.24857300  0.74651100  1
  Mn  Mn1  1  0.00197300  0.75142700  0.25348900  1
  Co  Co0  1  0.74760000  0.00000000  0.00000000  1
  Co  Co1  1  0.50492000  0.74566600  0.25811400  1
  Co  Co2  1  0.24851400  0.50000000  0.50000000  1
  Co  Co3  1  0.50492000  0.25433400  0.74188600  1
  Co  Co4  1  0.25649000  0.00000000  0.00000000  1
  O  O0  1  0.75308600  0.12753400  0.63902200  1
  O  O1  1  0.50050200  0.88259100  0.88313500  1
  O  O2  1  0.24880000  0.64795800  0.13309900  1
  O  O3  1  0.48024300  0.40186700  0.37878300  1
  O  O4  1  0.23644600  0.12175900  0.63560200  1
  O  O5  1  0.00133900  0.90512100  0.87428500  1
  O  O6  1  0.01134100  0.42016500  0.37072700  1
  O  O7  1  0.76431900  0.63927400  0.13196700  1
  O  O8  1  0.76431900  0.36072600  0.86803300  1
  O  O9  1  0.50050200  0.11740900  0.11686500  1
  O  O10  1  0.23644600  0.87824100  0.36439800  1
  O  O11  1  0.48024300  0.59813300  0.62121700  1
  O  O12  1  0.24880000  0.35204200  0.86690100  1
  O  O13  1  0.00133900  0.09487900  0.12571500  1
  O  O14  1  0.01134100  0.57983500  0.62927300  1
  O  O15  1  0.75308600  0.87246600  0.36097800  1
loop_
_geom_bond_atom_site_label_1
_geom_bond_atom_site_label_2
_geom_bond_distance
_geom_bond_site_symmetry_2
Li0 O0 2.078258 1_565
Li0 O1 2.152215 1_555
Li0 O14 2.152908 1_655
Li0 O8 2.162819 1_555
Li0 O11 2.162827 1_555
Li0 O5 2.181091 1_655
Li1 O9 2.123202 1_555
Li1 O1 2.123202 1_554
Li1 O8 2.167410 1_554
Li1 O7 2.167410 1_555
Li1 O12 2.181584 1_554
Li1 O2 2.181584 1_555
Li2 O3 2.025535 1_555
Li2 O10 2.057119 1_545
Li2 O6 2.064590 1_555
Li2 O13 2.151465 1_555
Li2 O9 2.153584 1_555
Li2 O2 2.201874 1_555
Li3 O10 2.160385 1_545
Li3 O4 2.160385 1_555
Li3 O0 2.172682 1_555
Li3 O15 2.172682 1_545
Li3 O11 2.226460 1_545
Li3 O3 2.226460 1_555
Li4 O11 2.025535 1_555
Li4 O4 2.057119 1_565
Li4 O14 2.064590 1_555
Li4 O5 2.151465 1_555
Li4 O1 2.153584 1_555
Li4 O12 2.201874 1_555
Li5 O8 2.076252 1_454
Li5 O7 2.076252 1_455
Li5 O12 2.151550 1_554
Li5 O2 2.151550 1_555
Li5 O5 2.255593 1_554
Li5 O13 2.255593 1_555
Li6 O4 2.077470 1_655
Li6 O10 2.077470 1_645
Li6 O0 2.124774 1_555
Li6 O15 2.124774 1_545
Li6 O14 2.336685 1_645
Li6 O6 2.336685 1_655
Li7 O15 2.078258 1_545
Li7 O9 2.152215 1_555
Li7 O6 2.152908 1_655
Li7 O7 2.162819 1_555
Li7 O3 2.162827 1_555
Li7 O13 2.181091 1_655
Li8 O11 2.049752 1_555
Li8 O3 2.049752 1_555
Li8 O6 2.062460 1_655
Li8 O14 2.062460 1_655
Li8 O15 2.174552 1_555
Li8 O0 2.174552 1_555
Mn0 O14 1.905181 1_555
Mn0 O4 1.910233 1_555
Mn0 O0 1.938315 1_455
Mn0 O8 1.957371 1_455
Mn0 O12 1.971266 1_555
Mn0 O5 2.002897 1_545
Mn1 O6 1.905181 1_555
Mn1 O10 1.910233 1_555
Mn1 O15 1.938315 1_455
Mn1 O7 1.957371 1_455
Mn1 O2 1.971266 1_555
Mn1 O13 2.002897 1_565
Co0 O1 1.978278 1_544
Co0 O9 1.978278 1_555
Co0 O5 2.017779 1_644
Co0 O13 2.017779 1_655
Co0 O8 2.095499 1_554
Co0 O7 2.095499 1_545
Co1 O15 1.921474 1_555
Co1 O3 1.977188 1_555
Co1 O2 2.028439 1_555
Co1 O10 2.041335 1_555
Co1 O7 2.064979 1_555
Co1 O9 2.181975 1_565
Co2 O3 1.904042 1_555
Co2 O11 1.904042 1_555
Co2 O14 1.946644 1_555
Co2 O6 1.946644 1_555
Co2 O10 2.183389 1_555
Co2 O4 2.183389 1_555
Co3 O0 1.921474 1_555
Co3 O11 1.977188 1_555
Co3 O12 2.028439 1_555
Co3 O4 2.041335 1_555
Co3 O8 2.064979 1_555
Co3 O1 2.181975 1_545
Co4 O1 1.965415 1_544
Co4 O9 1.965415 1_555
Co4 O5 2.023730 1_544
Co4 O13 2.023730 1_555
Co4 O2 2.063511 1_545
Co4 O12 2.063511 1_554
