# generated using pymatgen
data_Ba2EuMoO6
_symmetry_space_group_name_H-M   'P 1'
_cell_length_a   6.04092141
_cell_length_b   6.04092066
_cell_length_c   6.04091300
_cell_angle_alpha   60.00005022
_cell_angle_beta   60.00003779
_cell_angle_gamma   59.99991199
_symmetry_Int_Tables_number   1
_chemical_formula_structural   Ba2EuMoO6
_chemical_formula_sum   'Ba2 Eu1 Mo1 O6'
_cell_volume   155.88125748
_cell_formula_units_Z   1
loop_
 _symmetry_equiv_pos_site_id
 _symmetry_equiv_pos_as_xyz
  1  'x, y, z'
loop_
 _atom_site_type_symbol
 _atom_site_label
 _atom_site_symmetry_multiplicity
 _atom_site_fract_x
 _atom_site_fract_y
 _atom_site_fract_z
 _atom_site_occupancy
  Ba  Ba0  1  0.25000000  0.25000000  0.25000000  1
  Ba  Ba1  1  0.75000000  0.75000000  0.75000000  1
  Eu  Eu0  1  0.50000000  0.50000000  0.50000000  1
  Mo  Mo0  1  0.00000000  0.00000000  -0.00000000  1
  O  O0  1  0.77290668  0.22709332  0.22709332  1
  O  O1  1  0.22709332  0.77290668  0.77290668  1
  O  O2  1  0.22709288  0.77290712  0.22709288  1
  O  O3  1  0.77290712  0.22709288  0.77290712  1
  O  O4  1  0.22709336  0.22709336  0.77290664  1
  O  O5  1  0.77290664  0.77290664  0.22709336  1
loop_
_geom_bond_atom_site_label_1
_geom_bond_atom_site_label_2
_geom_bond_distance
_geom_bond_site_symmetry_2
Ba0 O4 3.026789 1_554
Ba0 O5 3.026789 1_545
Ba0 O4 3.026789 1_555
Ba0 O5 3.026789 1_455
Ba0 O2 3.026793 1_545
Ba0 O3 3.026793 1_554
Ba0 O3 3.026793 1_455
Ba0 O2 3.026793 1_555
Ba0 O0 3.026794 1_455
Ba0 O1 3.026794 1_545
Ba0 O0 3.026794 1_555
Ba0 O1 3.026794 1_554
Ba1 O4 3.026789 1_655
Ba1 O4 3.026789 1_565
Ba1 O5 3.026789 1_556
Ba1 O5 3.026789 1_555
Ba1 O3 3.026793 1_555
Ba1 O2 3.026793 1_655
Ba1 O2 3.026793 1_556
Ba1 O3 3.026793 1_565
Ba1 O1 3.026794 1_555
Ba1 O0 3.026794 1_556
Ba1 O0 3.026794 1_565
Ba1 O1 3.026794 1_655
Eu0 O0 2.331480 1_555
Eu0 O1 2.331480 1_555
Eu0 O2 2.331484 1_555
Eu0 O3 2.331484 1_555
Eu0 O5 2.331486 1_555
Eu0 O4 2.331486 1_555
Mo0 O3 1.940087 1_454
Mo0 O2 1.940087 1_545
Mo0 O1 1.940090 1_544
Mo0 O0 1.940090 1_455
Mo0 O4 1.940096 1_554
Mo0 O5 1.940096 1_445
