# generated using pymatgen
data_Ce2Mn3Cu9P7
_symmetry_space_group_name_H-M   'P 1'
_cell_length_a   9.48838349
_cell_length_b   9.48838349
_cell_length_c   3.80311000
_cell_angle_alpha   90.00000000
_cell_angle_beta   90.00000000
_cell_angle_gamma   119.99999647
_symmetry_Int_Tables_number   1
_chemical_formula_structural   Ce2Mn3Cu9P7
_chemical_formula_sum   'Ce2 Mn3 Cu9 P7'
_cell_volume   296.52000092
_cell_formula_units_Z   1
loop_
 _symmetry_equiv_pos_site_id
 _symmetry_equiv_pos_as_xyz
  1  'x, y, z'
loop_
 _atom_site_type_symbol
 _atom_site_label
 _atom_site_symmetry_multiplicity
 _atom_site_fract_x
 _atom_site_fract_y
 _atom_site_fract_z
 _atom_site_occupancy
  Ce  Ce0  1  0.00000000  0.00000000  0.00000000  1
  Ce  Ce1  1  0.33333300  0.66666700  0.50000000  1
  Mn  Mn0  1  0.88398100  0.46009900  0.50000000  1
  Mn  Mn1  1  0.53990100  0.42388200  0.50000000  1
  Mn  Mn2  1  0.57611800  0.11601900  0.50000000  1
  Cu  Cu0  1  0.08948100  0.70697200  0.00000000  1
  Cu  Cu1  1  0.29302800  0.38250800  0.00000000  1
  Cu  Cu2  1  0.61749200  0.91051900  0.00000000  1
  Cu  Cu3  1  0.82781100  0.21657300  0.00000000  1
  Cu  Cu4  1  0.78342700  0.61123800  0.00000000  1
  Cu  Cu5  1  0.38876200  0.17218900  0.00000000  1
  Cu  Cu6  1  0.04999300  0.29075900  0.50000000  1
  Cu  Cu7  1  0.70924100  0.75923400  0.50000000  1
  Cu  Cu8  1  0.24076600  0.95000700  0.50000000  1
  P  P0  1  0.08276400  0.45649400  0.00000000  1
  P  P1  1  0.54350600  0.62627000  0.00000000  1
  P  P2  1  0.37373000  0.91723600  0.00000000  1
  P  P3  1  0.78600400  0.04024800  0.50000000  1
  P  P4  1  0.95975200  0.74575500  0.50000000  1
  P  P5  1  0.25424500  0.21399600  0.50000000  1
  P  P6  1  0.66666700  0.33333300  0.00000000  1
loop_
_geom_bond_atom_site_label_1
_geom_bond_atom_site_label_2
_geom_bond_distance
_geom_bond_site_symmetry_2
Ce0 P3 2.942788 1_455
Ce0 P3 2.942788 1_454
Ce0 P5 2.942792 1_554
Ce0 P5 2.942792 1_555
Ce0 P4 2.942795 1_445
Ce0 P4 2.942795 1_444
Ce0 Cu8 3.184874 1_544
Ce0 Cu8 3.184874 1_545
Ce0 Cu6 3.184874 1_555
Ce0 Cu6 3.184874 1_554
Ce0 Cu7 3.184874 1_445
Ce0 Cu7 3.184874 1_444
Ce0 Cu3 3.201460 1_455
Ce0 Cu5 3.201460 1_555
Ce0 Cu4 3.201460 1_445
Ce0 Cu2 3.288133 1_445
Ce0 Cu1 3.288135 1_555
Ce0 Cu0 3.288142 1_545
Ce1 P2 2.916164 1_556
Ce1 P2 2.916164 1_555
Ce1 P0 2.916167 1_556
Ce1 P0 2.916167 1_555
Ce1 P1 2.916171 1_556
Ce1 P1 2.916171 1_555
Ce1 Cu0 3.162357 1_555
Ce1 Cu0 3.162357 1_556
Ce1 Cu2 3.162367 1_555
Ce1 Cu2 3.162367 1_556
Ce1 Cu1 3.162373 1_555
Ce1 Cu1 3.162373 1_556
Ce1 Cu8 3.218760 1_555
Ce1 Cu6 3.218767 1_555
Ce1 Cu7 3.218770 1_555
Mn0 P4 2.431992 1_555
Mn0 P6 2.614228 1_555
Mn0 P6 2.614228 1_556
Mn0 P0 2.690554 1_656
Mn0 P0 2.690554 1_655
Mn1 P5 2.431995 1_555
Mn1 P6 2.614234 1_555
Mn1 P6 2.614234 1_556
Mn1 P1 2.690554 1_556
Mn1 P1 2.690554 1_555
Mn2 P3 2.432001 1_555
Mn2 P6 2.614228 1_555
Mn2 P6 2.614228 1_556
Mn2 P2 2.690554 1_546
Mn2 P2 2.690554 1_545
Cu0 P0 2.345414 1_555
Cu0 P4 2.391537 1_455
Cu0 P4 2.391537 1_454
Cu0 P2 2.423555 1_555
Cu0 Mn0 2.887460 1_455
Cu0 Mn0 2.887460 1_454
Cu1 P1 2.345419 1_555
Cu1 P5 2.391537 1_554
Cu1 P5 2.391537 1_555
Cu1 P0 2.423562 1_555
Cu1 Mn1 2.887458 1_555
Cu1 Mn1 2.887458 1_554
Cu2 P2 2.345424 1_555
Cu2 P3 2.391537 1_565
Cu2 P3 2.391537 1_564
Cu2 P1 2.423553 1_555
Cu2 Mn2 2.887465 1_564
Cu2 Mn2 2.887465 1_565
Cu3 P6 2.293275 1_555
Cu3 P0 2.351024 1_655
Cu3 P3 2.430775 1_554
Cu3 P3 2.430775 1_555
Cu3 Mn2 2.819749 1_554
Cu3 Mn2 2.819749 1_555
Cu3 Mn0 2.829779 1_555
Cu3 Mn0 2.829779 1_554
Cu4 P6 2.293284 1_555
Cu4 P1 2.351024 1_555
Cu4 P4 2.430773 1_554
Cu4 P4 2.430773 1_555
Cu4 Mn0 2.819749 1_555
Cu4 Mn0 2.819749 1_554
Cu4 Mn1 2.829779 1_554
Cu4 Mn1 2.829779 1_555
Cu5 P6 2.293283 1_555
Cu5 P2 2.351024 1_545
Cu5 P5 2.430769 1_555
Cu5 P5 2.430769 1_554
Cu5 Mn1 2.819749 1_554
Cu5 Mn1 2.819749 1_555
Cu5 Mn2 2.829779 1_554
Cu5 Mn2 2.829779 1_555
Cu6 P0 2.386746 1_556
Cu6 P0 2.386746 1_555
Cu6 P5 2.387049 1_555
Cu6 P3 2.443398 1_455
Cu6 Mn0 2.755693 1_455
Cu7 P1 2.386746 1_555
Cu7 P1 2.386746 1_556
Cu7 P3 2.387040 1_565
Cu7 P4 2.443403 1_555
Cu7 Mn1 2.755693 1_555
Cu8 P2 2.386746 1_556
Cu8 P2 2.386746 1_555
Cu8 P4 2.387042 1_455
Cu8 P5 2.443394 1_565
Cu8 Mn2 2.755693 1_565
