# generated using pymatgen
data_Na4Hf(S2O9)2
_symmetry_space_group_name_H-M   'P 1'
_cell_length_a   6.88747488
_cell_length_b   6.88747488
_cell_length_c   17.28288954
_cell_angle_alpha   89.94620657
_cell_angle_beta   89.94620657
_cell_angle_gamma   94.51971211
_symmetry_Int_Tables_number   1
_chemical_formula_structural   Na4Hf(S2O9)2
_chemical_formula_sum   'Na8 Hf2 S8 O36'
_cell_volume   817.30349679
_cell_formula_units_Z   2
loop_
 _symmetry_equiv_pos_site_id
 _symmetry_equiv_pos_as_xyz
  1  'x, y, z'
loop_
 _atom_site_type_symbol
 _atom_site_label
 _atom_site_symmetry_multiplicity
 _atom_site_fract_x
 _atom_site_fract_y
 _atom_site_fract_z
 _atom_site_occupancy
  Na  Na0  1  0.84863800  0.48947000  0.40533500  1
  Na  Na1  1  0.48947000  0.84863800  0.90533500  1
  Na  Na2  1  0.15136200  0.51053000  0.59466500  1
  Na  Na3  1  0.51053000  0.15136200  0.09466500  1
  Na  Na4  1  0.64598800  0.84459300  0.55002100  1
  Na  Na5  1  0.84459300  0.64598800  0.05002100  1
  Na  Na6  1  0.35401200  0.15540700  0.44997900  1
  Na  Na7  1  0.15540700  0.35401200  0.94997900  1
  Hf  Hf0  1  0.14221900  0.85778100  0.25000000  1
  Hf  Hf1  1  0.85778100  0.14221900  0.75000000  1
  S  S0  1  0.90084400  0.97872600  0.37453500  1
  S  S1  1  0.97872600  0.90084400  0.87453500  1
  S  S2  1  0.09915600  0.02127400  0.62546500  1
  S  S3  1  0.02127400  0.09915600  0.12546500  1
  S  S4  1  0.65462700  0.38812600  0.58978300  1
  S  S5  1  0.38812600  0.65462700  0.08978300  1
  S  S6  1  0.34537300  0.61187400  0.41021700  1
  S  S7  1  0.61187400  0.34537300  0.91021700  1
  O  O0  1  0.11788800  0.03004100  0.35800400  1
  O  O1  1  0.03004100  0.11788800  0.85800400  1
  O  O2  1  0.84602300  0.86582600  0.29903500  1
  O  O3  1  0.86582600  0.84602300  0.79903500  1
  O  O4  1  0.79317700  0.15093600  0.37819600  1
  O  O5  1  0.15093600  0.79317700  0.87819600  1
  O  O6  1  0.87418200  0.84772700  0.44039700  1
  O  O7  1  0.84772700  0.87418200  0.94039700  1
  O  O8  1  0.96995900  0.88211200  0.14199600  1
  O  O9  1  0.88211200  0.96995900  0.64199600  1
  O  O10  1  0.20682300  0.84906400  0.62180400  1
  O  O11  1  0.84906400  0.20682300  0.12180400  1
  O  O12  1  0.13417400  0.15397700  0.20096500  1
  O  O13  1  0.15397700  0.13417400  0.70096500  1
  O  O14  1  0.12581800  0.15227300  0.55960300  1
  O  O15  1  0.15227300  0.12581800  0.05960300  1
  O  O16  1  0.82011000  0.49321100  0.54967300  1
  O  O17  1  0.49321100  0.82011000  0.04967300  1
  O  O18  1  0.49960300  0.51842800  0.60413900  1
  O  O19  1  0.51842800  0.49960300  0.10413900  1
  O  O20  1  0.58573600  0.20509000  0.55182800  1
  O  O21  1  0.20509000  0.58573600  0.05182800  1
  O  O22  1  0.32925600  0.73127700  0.17078200  1
  O  O23  1  0.73127700  0.32925600  0.67078200  1
  O  O24  1  0.17989000  0.50678900  0.45032700  1
  O  O25  1  0.50678900  0.17989000  0.95032700  1
  O  O26  1  0.41426400  0.79491000  0.44817200  1
  O  O27  1  0.79491000  0.41426400  0.94817200  1
  O  O28  1  0.50039700  0.48157200  0.39586100  1
  O  O29  1  0.48157200  0.50039700  0.89586100  1
  O  O30  1  0.26872300  0.67074400  0.32921800  1
  O  O31  1  0.67074400  0.26872300  0.82921800  1
  O  O32  1  0.42301700  0.00897700  0.23343800  1
  O  O33  1  0.00897700  0.42301700  0.73343800  1
  O  O34  1  0.99102300  0.57698300  0.26656200  1
  O  O35  1  0.57698300  0.99102300  0.76656200  1
loop_
_geom_bond_atom_site_label_1
_geom_bond_atom_site_label_2
_geom_bond_distance
_geom_bond_site_symmetry_2
Na0 O4 2.380020 1_555
Na0 O28 2.400577 1_555
Na0 O24 2.405138 1_655
Na0 O16 2.502436 1_555
Na0 O6 2.534015 1_555
Na0 O34 2.641410 1_555
Na1 O5 2.380020 1_555
Na1 O29 2.400577 1_555
Na1 O25 2.405138 1_565
Na1 O17 2.502436 1_556
Na1 O7 2.534015 1_555
Na1 O35 2.641410 1_555
Na2 O10 2.380020 1_555
Na2 O18 2.400577 1_555
Na2 O16 2.405138 1_455
Na2 O24 2.502436 1_555
Na2 O14 2.534015 1_555
Na2 O33 2.641410 1_555
Na3 O11 2.380020 1_555
Na3 O19 2.400577 1_555
Na3 O17 2.405138 1_545
Na3 O25 2.502436 1_554
Na3 O15 2.534015 1_555
Na3 O32 2.641410 1_555
Na4 O26 2.383922 1_555
Na4 O9 2.388164 1_555
Na4 O6 2.459515 1_555
Na4 O20 2.549620 1_565
Na4 O18 2.564216 1_555
Na4 O16 2.784377 1_555
Na5 O27 2.383922 1_554
Na5 O8 2.388164 1_555
Na5 O7 2.459515 1_554
Na5 O21 2.549620 1_655
Na5 O19 2.564216 1_555
Na5 O17 2.784377 1_555
Na6 O20 2.383922 1_555
Na6 O0 2.388164 1_555
Na6 O14 2.459515 1_555
Na6 O26 2.549620 1_545
Na6 O28 2.564216 1_555
Na6 O24 2.784377 1_555
Na7 O21 2.383922 1_556
Na7 O1 2.388164 1_555
Na7 O15 2.459515 1_556
Na7 O27 2.549620 1_455
Na7 O29 2.564216 1_555
Na7 O25 2.784377 1_555
Hf0 O22 2.113988 1_555
Hf0 O30 2.113988 1_555
Hf0 O32 2.141883 1_565
Hf0 O34 2.141883 1_455
Hf0 O2 2.213075 1_455
Hf0 O12 2.213075 1_565
Hf0 O0 2.225959 1_565
Hf0 O8 2.225959 1_455
Hf1 O23 2.113988 1_555
Hf1 O31 2.113988 1_555
Hf1 O33 2.141883 1_655
Hf1 O35 2.141883 1_545
Hf1 O3 2.213075 1_545
Hf1 O13 2.213075 1_655
Hf1 O1 2.225959 1_655
Hf1 O9 2.225959 1_545
O0 S0 1.535240 1_445
O1 S1 1.535240 1_445
O2 S0 1.551268 1_555
O3 S1 1.551268 1_555
O4 S0 1.448928 1_545
O5 S1 1.448928 1_455
O6 S0 1.454318 1_555
O7 S1 1.454318 1_555
O8 S3 1.535240 1_665
O9 S2 1.535240 1_665
O10 S2 1.448928 1_565
O11 S3 1.448928 1_655
O12 S3 1.551268 1_555
O13 S2 1.551268 1_555
O14 S2 1.454318 1_555
O15 S3 1.454318 1_555
O16 S4 1.473434 1_555
O17 S5 1.473434 1_555
O18 S4 1.468998 1_555
O19 S5 1.468998 1_555
O20 S4 1.467158 1_555
O21 S5 1.467158 1_555
O22 S5 1.561050 1_555
O23 S4 1.561050 1_555
O24 S6 1.473434 1_555
O25 S7 1.473434 1_555
O26 S6 1.467158 1_555
O27 S7 1.467158 1_555
O28 S6 1.468998 1_555
O29 S7 1.468998 1_555
O30 S6 1.561050 1_555
O31 S7 1.561050 1_555
