# generated using pymatgen
data_HfO2
_symmetry_space_group_name_H-M   'P 1'
_cell_length_a   4.89088365
_cell_length_b   5.08031940
_cell_length_c   5.16486745
_cell_angle_alpha   90.00000000
_cell_angle_beta   90.00000000
_cell_angle_gamma   90.00000000
_symmetry_Int_Tables_number   1
_chemical_formula_structural   HfO2
_chemical_formula_sum   'Hf4 O8'
_cell_volume   128.33275838
_cell_formula_units_Z   4
loop_
 _symmetry_equiv_pos_site_id
 _symmetry_equiv_pos_as_xyz
  1  'x, y, z'
loop_
 _atom_site_type_symbol
 _atom_site_label
 _atom_site_symmetry_multiplicity
 _atom_site_fract_x
 _atom_site_fract_y
 _atom_site_fract_z
 _atom_site_occupancy
  Hf  Hf0  1  0.72793206  0.27740918  0.28179958  1
  Hf  Hf1  1  0.27206794  0.77740918  0.21820042  1
  Hf  Hf2  1  0.72793206  0.72259082  0.71820042  1
  Hf  Hf3  1  0.27206794  0.22259082  0.78179958  1
  O  O0  1  0.42437501  0.50000000  0.50000000  1
  O  O1  1  0.57562499  -0.00000000  0.00000000  1
  O  O2  1  0.51094555  0.50000000  0.00000000  1
  O  O3  1  0.48905445  -0.00000000  0.50000000  1
  O  O4  1  0.89546538  0.31318468  0.66364878  1
  O  O5  1  0.10453462  0.81318468  0.83635122  1
  O  O6  1  0.89546538  0.68681532  0.33635122  1
  O  O7  1  0.10453462  0.18681532  0.16364878  1
loop_
_geom_bond_atom_site_label_1
_geom_bond_atom_site_label_2
_geom_bond_distance
_geom_bond_site_symmetry_2
Hf0 O7 1.994211 1_655
Hf0 O2 2.126829 1_555
Hf0 O4 2.143362 1_555
Hf0 O3 2.149711 1_555
Hf0 O1 2.158578 1_555
Hf0 O0 2.180156 1_555
Hf0 O6 2.253180 1_555
Hf1 O6 1.994211 1_455
Hf1 O3 2.126829 1_565
Hf1 O5 2.143362 1_554
Hf1 O2 2.149711 1_555
Hf1 O0 2.158578 1_555
Hf1 O1 2.180156 1_565
Hf1 O7 2.253180 1_565
Hf2 O5 1.994211 1_655
Hf2 O2 2.126829 1_556
Hf2 O6 2.143362 1_555
Hf2 O3 2.149711 1_565
Hf2 O1 2.158578 1_566
Hf2 O0 2.180156 1_555
Hf2 O4 2.253180 1_555
Hf3 O4 1.994211 1_455
Hf3 O3 2.126829 1_555
Hf3 O7 2.143362 1_556
Hf3 O2 2.149711 1_556
Hf3 O0 2.158578 1_555
Hf3 O1 2.180156 1_556
Hf3 O5 2.253180 1_545
