# generated using pymatgen
data_Ba2ZnCr2CuF14
_symmetry_space_group_name_H-M   'P 1'
_cell_length_a   7.57204369
_cell_length_b   7.57204369
_cell_length_c   14.73557378
_cell_angle_alpha   88.55478888
_cell_angle_beta   88.55478888
_cell_angle_gamma   41.08645701
_symmetry_Int_Tables_number   1
_chemical_formula_structural   Ba2ZnCr2CuF14
_chemical_formula_sum   'Ba4 Zn2 Cr4 Cu2 F28'
_cell_volume   555.04901277
_cell_formula_units_Z   2
loop_
 _symmetry_equiv_pos_site_id
 _symmetry_equiv_pos_as_xyz
  1  'x, y, z'
loop_
 _atom_site_type_symbol
 _atom_site_label
 _atom_site_symmetry_multiplicity
 _atom_site_fract_x
 _atom_site_fract_y
 _atom_site_fract_z
 _atom_site_occupancy
  Ba  Ba0  1  0.74093800  0.88690500  0.62377800  1
  Ba  Ba1  1  0.88690500  0.74093800  0.12377800  1
  Ba  Ba2  1  0.25906200  0.11309500  0.37622200  1
  Ba  Ba3  1  0.11309500  0.25906200  0.87622200  1
  Zn  Zn0  1  0.43202200  0.56797800  0.75000000  1
  Zn  Zn1  1  0.56797800  0.43202200  0.25000000  1
  Cr  Cr0  1  0.86160000  0.89986000  0.87358500  1
  Cr  Cr1  1  0.13840000  0.10014000  0.12641500  1
  Cr  Cr2  1  0.89986000  0.86160000  0.37358500  1
  Cr  Cr3  1  0.10014000  0.13840000  0.62641500  1
  Cu  Cu0  1  0.50000000  0.50000000  0.00000000  1
  Cu  Cu1  1  0.50000000  0.50000000  0.50000000  1
  F  F0  1  0.90649500  0.10596600  0.33912700  1
  F  F1  1  0.59484500  0.13051000  0.45487200  1
  F  F2  1  0.40515500  0.86949000  0.54512800  1
  F  F3  1  0.15211800  0.34766600  0.59617100  1
  F  F4  1  0.51240300  0.39271900  0.62204000  1
  F  F5  1  0.60728100  0.48759700  0.87796000  1
  F  F6  1  0.13051000  0.59484500  0.95487200  1
  F  F7  1  0.89403400  0.09350500  0.16087300  1
  F  F8  1  0.03154700  0.64221800  0.77721700  1
  F  F9  1  0.84788200  0.65233400  0.40382900  1
  F  F10  1  0.58098100  0.19384100  0.78932900  1
  F  F11  1  0.65233400  0.84788200  0.90382900  1
  F  F12  1  0.19384100  0.58098100  0.28932900  1
  F  F13  1  0.41901900  0.80615900  0.21067100  1
  F  F14  1  0.39271900  0.51240300  0.12204000  1
  F  F15  1  0.96845300  0.35778200  0.22278300  1
  F  F16  1  0.28434600  0.87851700  0.01749900  1
  F  F17  1  0.09350500  0.89403400  0.66087300  1
  F  F18  1  0.71565400  0.12148300  0.98250100  1
  F  F19  1  0.87851700  0.28434600  0.51749900  1
  F  F20  1  0.86949000  0.40515500  0.04512800  1
  F  F21  1  0.80615900  0.41901900  0.71067100  1
  F  F22  1  0.64221800  0.03154700  0.27721700  1
  F  F23  1  0.12148300  0.71565400  0.48250100  1
  F  F24  1  0.48759700  0.60728100  0.37796000  1
  F  F25  1  0.10596600  0.90649500  0.83912700  1
  F  F26  1  0.35778200  0.96845300  0.72278300  1
  F  F27  1  0.34766600  0.15211800  0.09617100  1
loop_
_geom_bond_atom_site_label_1
_geom_bond_atom_site_label_2
_geom_bond_distance
_geom_bond_site_symmetry_2
Ba0 F8 2.698323 1_655
Ba0 F3 2.717990 1_655
Ba0 F1 2.766284 1_565
Ba0 F4 2.769610 1_565
Ba0 F17 2.778684 1_655
Ba0 F26 2.838737 1_555
Ba0 F2 2.913237 1_555
Ba0 F23 2.918812 1_655
Ba0 F10 2.951818 1_565
Ba0 F3 2.964407 1_565
Ba1 F22 2.698323 1_565
Ba1 F27 2.717990 1_565
Ba1 F6 2.766284 1_654
Ba1 F14 2.769610 1_655
Ba1 F7 2.778684 1_565
Ba1 F15 2.838737 1_555
Ba1 F20 2.913237 1_555
Ba1 F18 2.918812 1_564
Ba1 F12 2.951818 1_655
Ba1 F27 2.964407 1_655
Ba2 F15 2.698323 1_455
Ba2 F9 2.717990 1_455
Ba2 F2 2.766284 1_545
Ba2 F24 2.769610 1_545
Ba2 F0 2.778684 1_455
Ba2 F22 2.838737 1_555
Ba2 F1 2.913237 1_555
Ba2 F19 2.918812 1_455
Ba2 F13 2.951818 1_545
Ba2 F9 2.964407 1_545
Ba3 F26 2.698323 1_545
Ba3 F11 2.717990 1_545
Ba3 F20 2.766284 1_456
Ba3 F5 2.769610 1_455
Ba3 F25 2.778684 1_545
Ba3 F8 2.838737 1_555
Ba3 F6 2.913237 1_555
Ba3 F16 2.918812 1_546
Ba3 F21 2.951818 1_455
Ba3 F11 2.964407 1_455
Cr0 F8 1.934315 1_655
Cr0 F11 1.939082 1_555
Cr0 F25 1.943089 1_655
Cr0 F6 1.951765 1_655
Cr0 F18 1.965720 1_565
Cr0 F10 1.968553 1_565
Cr1 F15 1.934315 1_455
Cr1 F27 1.939082 1_555
Cr1 F7 1.943089 1_455
Cr1 F20 1.951765 1_455
Cr1 F16 1.965720 1_545
Cr1 F13 1.968553 1_545
Cr2 F22 1.934315 1_565
Cr2 F9 1.939082 1_555
Cr2 F0 1.943089 1_565
Cr2 F1 1.951765 1_565
Cr2 F23 1.965720 1_655
Cr2 F12 1.968553 1_655
Cr3 F26 1.934315 1_545
Cr3 F3 1.939082 1_555
Cr3 F17 1.943089 1_545
Cr3 F2 1.951765 1_545
Cr3 F19 1.965720 1_455
Cr3 F21 1.968553 1_455
Cu0 F14 1.929385 1_555
Cu0 F5 1.929385 1_554
Cu0 F18 1.977029 1_554
Cu0 F16 1.977029 1_555
Cu0 F20 2.413815 1_555
Cu0 F6 2.413815 1_554
Cu1 F24 1.929385 1_555
Cu1 F4 1.929385 1_555
Cu1 F19 1.977029 1_555
Cu1 F23 1.977029 1_555
Cu1 F2 2.413815 1_555
Cu1 F1 2.413815 1_555
F0 Zn1 2.203900 1_555
F4 Zn0 2.130179 1_555
F5 Zn0 2.130179 1_555
F7 Zn1 2.203900 1_555
F10 Zn0 2.183384 1_555
F12 Zn1 2.183384 1_555
F13 Zn1 2.183384 1_555
F14 Zn1 2.130179 1_555
F17 Zn0 2.203900 1_555
F21 Zn0 2.183384 1_555
F24 Zn1 2.130179 1_555
F25 Zn0 2.203900 1_555
