# generated using pymatgen
data_NaFeAsO4F
_symmetry_space_group_name_H-M   'P 1'
_cell_length_a   6.83684693
_cell_length_b   8.85087600
_cell_length_c   7.48127071
_cell_angle_alpha   89.99998591
_cell_angle_beta   115.91476329
_cell_angle_gamma   89.99999694
_symmetry_Int_Tables_number   1
_chemical_formula_structural   NaFeAsO4F
_chemical_formula_sum   'Na4 Fe4 As4 O16 F4'
_cell_volume   407.18539374
_cell_formula_units_Z   4
loop_
 _symmetry_equiv_pos_site_id
 _symmetry_equiv_pos_as_xyz
  1  'x, y, z'
loop_
 _atom_site_type_symbol
 _atom_site_label
 _atom_site_symmetry_multiplicity
 _atom_site_fract_x
 _atom_site_fract_y
 _atom_site_fract_z
 _atom_site_occupancy
  Na  Na0  1  0.49999900  0.83147400  0.74999800  1
  Na  Na1  1  0.00000100  0.33147300  0.74999900  1
  Na  Na2  1  0.50000200  0.16853000  0.24999900  1
  Na  Na3  1  0.99999900  0.66852900  0.24999800  1
  Fe  Fe0  1  0.49998900  0.49999200  0.00002200  1
  Fe  Fe1  1  0.00000000  0.99997800  0.50000900  1
  Fe  Fe2  1  0.00002000  0.99998300  0.00001800  1
  Fe  Fe3  1  0.49998800  0.50000500  0.49998900  1
  As  As0  1  0.50000400  0.18529300  0.74999900  1
  As  As1  1  0.99999700  0.68529300  0.74999800  1
  As  As2  1  0.49999800  0.81470900  0.24999800  1
  As  As3  1  0.00000200  0.31470900  0.24999900  1
  O  O0  1  0.60726000  0.29331300  0.62187700  1
  O  O1  1  0.10726100  0.79331200  0.62187700  1
  O  O2  1  0.39274000  0.70669100  0.37811900  1
  O  O3  1  0.89274000  0.20669000  0.37812000  1
  O  O4  1  0.39273900  0.29331300  0.87812000  1
  O  O5  1  0.89274000  0.79331200  0.87811900  1
  O  O6  1  0.60726100  0.70669100  0.12187800  1
  O  O7  1  0.10726100  0.20669000  0.12187700  1
  O  O8  1  0.69139400  0.06455200  0.91502400  1
  O  O9  1  0.19139300  0.56455100  0.91502500  1
  O  O10  1  0.30860700  0.93545000  0.08497400  1
  O  O11  1  0.80860700  0.43545300  0.08497300  1
  O  O12  1  0.30860700  0.06455100  0.58497200  1
  O  O13  1  0.80860700  0.56455300  0.58497300  1
  O  O14  1  0.69139200  0.93545200  0.41502400  1
  O  O15  1  0.19139300  0.43545100  0.41502300  1
  F  F0  1  0.49999900  0.57703000  0.74999800  1
  F  F1  1  0.00000100  0.07703000  0.75000000  1
  F  F2  1  0.50000000  0.42297300  0.25000100  1
  F  F3  1  0.00000000  0.92297300  0.24999700  1
loop_
_geom_bond_atom_site_label_1
_geom_bond_atom_site_label_2
_geom_bond_distance
_geom_bond_site_symmetry_2
Na0 O1 2.448053 1_555
Na0 O5 2.448072 1_555
Na0 O12 2.465788 1_565
Na0 O8 2.465803 1_565
Na0 O2 2.777503 1_555
Na0 O6 2.777505 1_556
Na1 O4 2.448050 1_555
Na1 O0 2.448069 1_455
Na1 O9 2.465796 1_555
Na1 O13 2.465815 1_455
Na1 O7 2.777494 1_556
Na1 O3 2.777500 1_455
Na2 O3 2.448050 1_555
Na2 O7 2.448068 1_555
Na2 O14 2.465789 1_545
Na2 O10 2.465815 1_545
Na2 O0 2.777497 1_555
Na2 O4 2.777497 1_554
Na3 O6 2.448053 1_555
Na3 O2 2.448072 1_655
Na3 O11 2.465779 1_555
Na3 O15 2.465798 1_655
Na3 O1 2.777499 1_655
Na3 O5 2.777502 1_554
Fe0 O9 2.002387 1_554
Fe0 O11 2.002523 1_555
Fe0 O4 2.032529 1_554
Fe0 O6 2.032613 1_555
Fe1 O14 2.002392 1_455
Fe1 O12 2.002528 1_565
Fe1 O1 2.032363 1_555
Fe1 O3 2.032774 1_465
Fe2 O10 2.002309 1_555
Fe2 O8 2.002603 1_464
Fe2 O5 2.032492 1_454
Fe2 O7 2.032648 1_565
Fe3 O15 2.002402 1_555
Fe3 O13 2.002517 1_555
Fe3 O2 2.032512 1_555
Fe3 O0 2.032626 1_555
As0 O8 1.722330 1_555
As0 O12 1.722363 1_555
As0 O0 1.727686 1_555
As0 O4 1.727722 1_555
As1 O13 1.722325 1_555
As1 O9 1.722359 1_655
As1 O5 1.727681 1_555
As1 O1 1.727712 1_655
As2 O10 1.722330 1_555
As2 O14 1.722356 1_555
As2 O2 1.727680 1_555
As2 O6 1.727698 1_555
As3 O15 1.722336 1_555
As3 O11 1.722364 1_455
As3 O7 1.727695 1_555
As3 O3 1.727703 1_455
F0 Fe3 1.990725 1_555
F0 Fe0 1.990928 1_556
F0 Na0 2.252052 1_555
F1 Fe1 1.990708 1_545
F1 Fe2 1.990832 1_546
F1 Na1 2.252043 1_555
F2 Fe0 1.990495 1_555
F2 Fe3 1.990663 1_555
F2 Na2 2.252043 1_555
F3 Fe2 1.990555 1_555
F3 Fe1 1.990716 1_555
F3 Na3 2.252052 1_455
