# generated using pymatgen
data_Yb3NdS6
_symmetry_space_group_name_H-M   'P 1'
_cell_length_a   4.11865200
_cell_length_b   11.18122800
_cell_length_c   11.54474837
_cell_angle_alpha   73.74528310
_cell_angle_beta   90.00000000
_cell_angle_gamma   90.00000000
_symmetry_Int_Tables_number   1
_chemical_formula_structural   Yb3NdS6
_chemical_formula_sum   'Yb6 Nd2 S12'
_cell_volume   510.40208126
_cell_formula_units_Z   2
loop_
 _symmetry_equiv_pos_site_id
 _symmetry_equiv_pos_as_xyz
  1  'x, y, z'
loop_
 _atom_site_type_symbol
 _atom_site_label
 _atom_site_symmetry_multiplicity
 _atom_site_fract_x
 _atom_site_fract_y
 _atom_site_fract_z
 _atom_site_occupancy
  Yb  Yb0  1  0.25000000  0.94997800  0.20524200  1
  Yb  Yb1  1  0.75000000  0.05002200  0.79475800  1
  Yb  Yb2  1  0.25000000  0.65640200  0.93812700  1
  Yb  Yb3  1  0.75000000  0.34359800  0.06187300  1
  Yb  Yb4  1  0.25000000  0.42956200  0.68659600  1
  Yb  Yb5  1  0.75000000  0.57043800  0.31340400  1
  Nd  Nd0  1  0.25000000  0.82102000  0.53818600  1
  Nd  Nd1  1  0.75000000  0.17898000  0.46181400  1
  S  S0  1  0.25000000  0.92401100  0.96523800  1
  S  S1  1  0.75000000  0.07598900  0.03476200  1
  S  S2  1  0.25000000  0.71102900  0.34342700  1
  S  S3  1  0.75000000  0.28897100  0.65657300  1
  S  S4  1  0.25000000  0.41906700  0.91371900  1
  S  S5  1  0.75000000  0.58093300  0.08628100  1
  S  S6  1  0.25000000  0.37120600  0.37971900  1
  S  S7  1  0.75000000  0.62879400  0.62028100  1
  S  S8  1  0.25000000  0.25632500  0.26274400  1
  S  S9  1  0.75000000  0.74367500  0.73725600  1
  S  S10  1  0.25000000  0.04142100  0.61759900  1
  S  S11  1  0.75000000  0.95857900  0.38240100  1
loop_
_geom_bond_atom_site_label_1
_geom_bond_atom_site_label_2
_geom_bond_distance
_geom_bond_site_symmetry_2
Nd0 S2 2.848860 1_555
Nd0 S10 2.859786 1_565
Nd0 S11 2.879674 1_455
Nd0 S11 2.879674 1_555
Nd0 S7 2.935693 1_455
Nd0 S7 2.935693 1_555
Nd0 S9 3.026196 1_555
Nd0 S9 3.026196 1_455
Nd1 S3 2.848860 1_555
Nd1 S11 2.859786 1_545
Nd1 S10 2.879674 1_555
Nd1 S10 2.879674 1_655
Nd1 S6 2.935693 1_655
Nd1 S6 2.935693 1_555
Nd1 S8 3.026196 1_555
Nd1 S8 3.026196 1_655
S0 Yb0 2.865644 1_556
S0 Yb1 2.923560 1_565
S0 Yb1 2.923560 1_465
S0 Yb2 3.094429 1_555
S1 Yb1 2.865644 1_554
S1 Yb0 2.923560 1_645
S1 Yb0 2.923560 1_545
S1 Yb3 3.094429 1_555
S2 Yb5 2.671536 1_555
S2 Yb5 2.671536 1_455
S2 Yb0 2.701323 1_555
S3 Yb4 2.671536 1_555
S3 Yb4 2.671536 1_655
S3 Yb1 2.701323 1_555
S4 Yb4 2.591681 1_555
S4 Yb3 2.659017 1_456
S4 Yb3 2.659017 1_556
S4 Yb2 2.745928 1_555
S5 Yb5 2.591681 1_555
S5 Yb2 2.659017 1_654
S5 Yb2 2.659017 1_554
S5 Yb3 2.745928 1_555
S6 S8 2.108262 1_555
S6 Yb5 2.972316 1_455
S6 Yb5 2.972316 1_555
S7 S9 2.108262 1_555
S7 Yb4 2.972316 1_555
S7 Yb4 2.972316 1_655
S8 Yb3 3.050247 1_455
S8 Yb3 3.050247 1_555
S9 Yb2 3.050247 1_555
S9 Yb2 3.050247 1_655
S10 Yb1 2.922885 1_555
S10 Yb1 2.922885 1_455
S11 Yb0 2.922885 1_555
S11 Yb0 2.922885 1_655
