# generated using pymatgen
data_BaNaTbBiO6
_symmetry_space_group_name_H-M   'P 1'
_cell_length_a   8.68004366
_cell_length_b   8.60738702
_cell_length_c   8.68056099
_cell_angle_alpha   90.00000000
_cell_angle_beta   90.00000000
_cell_angle_gamma   90.00000000
_symmetry_Int_Tables_number   1
_chemical_formula_structural   BaNaTbBiO6
_chemical_formula_sum   'Ba4 Na4 Tb4 Bi4 O24'
_cell_volume   648.54637071
_cell_formula_units_Z   4
loop_
 _symmetry_equiv_pos_site_id
 _symmetry_equiv_pos_as_xyz
  1  'x, y, z'
loop_
 _atom_site_type_symbol
 _atom_site_label
 _atom_site_symmetry_multiplicity
 _atom_site_fract_x
 _atom_site_fract_y
 _atom_site_fract_z
 _atom_site_occupancy
  Ba  Ba0  1  -0.00000000  -0.00000000  -0.00000000  1
  Ba  Ba1  1  0.50000000  0.50000000  0.50000000  1
  Ba  Ba2  1  -0.00000000  0.50000000  0.50000000  1
  Ba  Ba3  1  0.50000000  -0.00000000  -0.00000000  1
  Na  Na0  1  0.50000000  -0.00000000  0.50000000  1
  Na  Na1  1  0.50000000  0.50000000  0.00000000  1
  Na  Na2  1  0.00000000  0.50000000  -0.00000000  1
  Na  Na3  1  -0.00000000  -0.00000000  0.50000000  1
  Tb  Tb0  1  0.25000000  0.25000000  0.25000000  1
  Tb  Tb1  1  0.75000000  0.75000000  0.25000000  1
  Tb  Tb2  1  0.75000000  0.25000000  0.75000000  1
  Tb  Tb3  1  0.25000000  0.75000000  0.75000000  1
  Bi  Bi0  1  0.75000000  0.75000000  0.75000000  1
  Bi  Bi1  1  0.25000000  0.25000000  0.75000000  1
  Bi  Bi2  1  0.25000000  0.75000000  0.25000000  1
  Bi  Bi3  1  0.75000000  0.25000000  0.25000000  1
  O  O0  1  0.99230087  0.21816804  0.28027324  1
  O  O1  1  0.00769913  0.78183196  0.28027324  1
  O  O2  1  0.00769913  0.21816804  0.71972676  1
  O  O3  1  0.99230087  0.78183196  0.71972676  1
  O  O4  1  0.27336135  0.99334493  0.21417068  1
  O  O5  1  0.27336135  0.00665507  0.78582932  1
  O  O6  1  0.72663865  0.00665507  0.21417068  1
  O  O7  1  0.72663865  0.99334493  0.78582932  1
  O  O8  1  0.21488497  0.27130569  0.99232894  1
  O  O9  1  0.78511503  0.27130569  0.00767106  1
  O  O10  1  0.21488497  0.72869431  0.00767106  1
  O  O11  1  0.78511503  0.72869431  0.99232894  1
  O  O12  1  0.50769913  0.28183196  0.21972676  1
  O  O13  1  0.49230087  0.71816804  0.21972676  1
  O  O14  1  0.49230087  0.28183196  0.78027324  1
  O  O15  1  0.50769913  0.71816804  0.78027324  1
  O  O16  1  0.22663865  0.50665507  0.28582932  1
  O  O17  1  0.22663865  0.49334493  0.71417068  1
  O  O18  1  0.77336135  0.49334493  0.28582932  1
  O  O19  1  0.77336135  0.50665507  0.71417068  1
  O  O20  1  0.28511503  0.22869431  0.50767106  1
  O  O21  1  0.71488497  0.22869431  0.49232894  1
  O  O22  1  0.28511503  0.77130569  0.49232894  1
  O  O23  1  0.71488497  0.77130569  0.50767106  1
loop_
_geom_bond_atom_site_label_1
_geom_bond_atom_site_label_2
_geom_bond_distance
_geom_bond_site_symmetry_2
Ba0 O11 2.989441 1_444
Ba0 O9 2.989441 1_455
Ba0 O10 2.989441 1_545
Ba0 O8 2.989441 1_554
Ba0 O7 3.014920 1_444
Ba0 O6 3.014920 1_455
Ba0 O4 3.014920 1_545
Ba0 O5 3.014920 1_554
Ba0 O0 3.074078 1_455
Ba0 O2 3.074078 1_554
Ba0 O1 3.074078 1_545
Ba0 O3 3.074078 1_444
Ba1 O20 2.989441 1_555
Ba1 O22 2.989441 1_555
Ba1 O23 2.989441 1_555
Ba1 O21 2.989441 1_555
Ba1 O16 3.014920 1_555
Ba1 O17 3.014920 1_555
Ba1 O18 3.014920 1_555
Ba1 O19 3.014920 1_555
Ba1 O13 3.074078 1_555
Ba1 O12 3.074078 1_555
Ba1 O14 3.074078 1_555
Ba1 O15 3.074078 1_555
Ba2 O18 2.707327 1_455
Ba2 O19 2.707327 1_455
Ba2 O16 2.707327 1_555
Ba2 O17 2.707327 1_555
Ba2 O3 3.086607 1_455
Ba2 O0 3.086607 1_455
Ba2 O2 3.086607 1_555
Ba2 O1 3.086607 1_555
Ba3 O7 2.707327 1_544
Ba3 O4 2.707327 1_545
Ba3 O5 2.707327 1_554
Ba3 O6 2.707327 1_555
Ba3 O13 3.086607 1_545
Ba3 O12 3.086607 1_555
Ba3 O15 3.086607 1_544
Ba3 O14 3.086607 1_554
Na0 O22 2.712615 1_545
Na0 O20 2.712615 1_555
Na0 O23 2.712615 1_545
Na0 O21 2.712615 1_555
Na1 O15 2.677462 1_554
Na1 O12 2.677462 1_555
Na1 O14 2.677462 1_554
Na1 O13 2.677462 1_555
Na2 O9 2.712615 1_455
Na2 O11 2.712615 1_454
Na2 O8 2.712615 1_554
Na2 O10 2.712615 1_555
Na3 O3 2.677462 1_445
Na3 O1 2.677462 1_545
Na3 O2 2.677462 1_555
Na3 O0 2.677462 1_455
Bi0 O7 2.127216 1_555
Bi0 O19 2.127216 1_555
Bi0 O23 2.133415 1_555
Bi0 O11 2.133415 1_555
Bi0 O15 2.137172 1_555
Bi0 O3 2.137172 1_555
Bi1 O17 2.127216 1_555
Bi1 O5 2.127216 1_555
Bi1 O20 2.133415 1_555
Bi1 O8 2.133415 1_555
Bi1 O14 2.137172 1_555
Bi1 O2 2.137172 1_555
Bi2 O4 2.127216 1_555
Bi2 O16 2.127216 1_555
Bi2 O10 2.133415 1_555
Bi2 O22 2.133415 1_555
Bi2 O13 2.137172 1_555
Bi2 O1 2.137172 1_555
Bi3 O6 2.127216 1_555
Bi3 O18 2.127216 1_555
Bi3 O21 2.133415 1_555
Bi3 O9 2.133415 1_555
Bi3 O12 2.137172 1_555
Bi3 O0 2.137172 1_555
O0 Tb0 2.268828 1_655
O1 Tb1 2.268828 1_455
O2 Tb2 2.268828 1_455
O3 Tb3 2.268828 1_655
O4 Tb0 2.240113 1_565
O5 Tb3 2.240113 1_545
O6 Tb1 2.240113 1_545
O7 Tb2 2.240113 1_565
O8 Tb0 2.264838 1_556
O9 Tb2 2.264838 1_554
O10 Tb3 2.264838 1_554
O11 Tb1 2.264838 1_556
O12 Tb0 2.268828 1_555
O13 Tb1 2.268828 1_555
O14 Tb2 2.268828 1_555
O15 Tb3 2.268828 1_555
O16 Tb0 2.240113 1_555
O17 Tb3 2.240113 1_555
O18 Tb1 2.240113 1_555
O19 Tb2 2.240113 1_555
O20 Tb0 2.264838 1_555
O21 Tb2 2.264838 1_555
O22 Tb3 2.264838 1_555
O23 Tb1 2.264838 1_555
