# generated using pymatgen
data_Ta3O7F
_symmetry_space_group_name_H-M   'P 1'
_cell_length_a   3.94206000
_cell_length_b   6.20886894
_cell_length_c   6.20886867
_cell_angle_alpha   114.75401877
_cell_angle_beta   90.00000000
_cell_angle_gamma   90.00000000
_symmetry_Int_Tables_number   1
_chemical_formula_structural   Ta3O7F
_chemical_formula_sum   'Ta3 O7 F1'
_cell_volume   138.00298334
_cell_formula_units_Z   1
loop_
 _symmetry_equiv_pos_site_id
 _symmetry_equiv_pos_as_xyz
  1  'x, y, z'
loop_
 _atom_site_type_symbol
 _atom_site_label
 _atom_site_symmetry_multiplicity
 _atom_site_fract_x
 _atom_site_fract_y
 _atom_site_fract_z
 _atom_site_occupancy
  Ta  Ta0  1  0.00000000  0.00000000  0.00000000  1
  Ta  Ta1  1  0.00000000  0.31648800  0.68351200  1
  Ta  Ta2  1  0.00000000  0.68351200  0.31648800  1
  O  O0  1  0.00000000  0.33085100  0.04828000  1
  O  O1  1  0.00000000  0.50000000  0.50000000  1
  O  O2  1  0.50000000  0.30149900  0.69850100  1
  O  O3  1  0.50000000  0.69850100  0.30149900  1
  O  O4  1  0.00000000  0.04828000  0.33085100  1
  O  O5  1  0.00000000  0.66914900  0.95172000  1
  O  O6  1  0.00000000  0.95172000  0.66914900  1
  F  F0  1  0.50000000  0.00000000  0.00000000  1
loop_
_geom_bond_atom_site_label_1
_geom_bond_atom_site_label_2
_geom_bond_distance
_geom_bond_site_symmetry_2
O0 Ta0 1.947808 1_555
O0 Ta2 2.124614 1_555
O0 Ta1 2.228927 1_554
O1 Ta2 1.919291 1_555
O1 Ta1 1.919291 1_555
O2 Ta1 1.977254 1_655
O2 Ta1 1.977254 1_555
O3 Ta2 1.977254 1_655
O3 Ta2 1.977254 1_555
O4 Ta0 1.947808 1_555
O4 Ta1 2.124614 1_555
O4 Ta2 2.228927 1_545
O5 Ta0 1.947808 1_566
O5 Ta1 2.124614 1_555
O5 Ta2 2.228927 1_556
O6 Ta0 1.947808 1_566
O6 Ta2 2.124614 1_555
O6 Ta1 2.228927 1_565
F0 Ta0 1.971030 1_655
F0 Ta0 1.971030 1_555
