# generated using pymatgen
data_Na5InO4
_symmetry_space_group_name_H-M   'P 1'
_cell_length_a   10.50191733
_cell_length_b   10.64990030
_cell_length_c   10.70685626
_cell_angle_alpha   90.00000000
_cell_angle_beta   90.00000000
_cell_angle_gamma   90.00000000
_symmetry_Int_Tables_number   1
_chemical_formula_structural   Na5InO4
_chemical_formula_sum   'Na40 In8 O32'
_cell_volume   1197.50162010
_cell_formula_units_Z   8
loop_
 _symmetry_equiv_pos_site_id
 _symmetry_equiv_pos_as_xyz
  1  'x, y, z'
loop_
 _atom_site_type_symbol
 _atom_site_label
 _atom_site_symmetry_multiplicity
 _atom_site_fract_x
 _atom_site_fract_y
 _atom_site_fract_z
 _atom_site_occupancy
  Na  Na0  1  0.10323523  0.11874673  0.33844255  1
  Na  Na1  1  0.60323523  0.88125327  0.16155745  1
  Na  Na2  1  0.39676477  0.61874673  0.66155745  1
  Na  Na3  1  0.89676477  0.38125327  0.83844255  1
  Na  Na4  1  0.89676477  0.88125327  0.66155745  1
  Na  Na5  1  0.39676477  0.11874673  0.83844255  1
  Na  Na6  1  0.60323523  0.38125327  0.33844255  1
  Na  Na7  1  0.10323523  0.61874673  0.16155745  1
  Na  Na8  1  0.64258031  0.88700808  0.89677730  1
  Na  Na9  1  0.14258031  0.11299192  0.60322270  1
  Na  Na10  1  0.85741969  0.38700808  0.10322270  1
  Na  Na11  1  0.35741969  0.61299192  0.39677730  1
  Na  Na12  1  0.35741969  0.11299192  0.10322270  1
  Na  Na13  1  0.85741969  0.88700808  0.39677730  1
  Na  Na14  1  0.14258031  0.61299192  0.89677730  1
  Na  Na15  1  0.64258031  0.38700808  0.60322270  1
  Na  Na16  1  0.59559600  0.62448316  0.85253831  1
  Na  Na17  1  0.09559600  0.37551684  0.64746169  1
  Na  Na18  1  0.90440400  0.12448316  0.14746169  1
  Na  Na19  1  0.40440400  0.87551684  0.35253831  1
  Na  Na20  1  0.40440400  0.37551684  0.14746169  1
  Na  Na21  1  0.90440400  0.62448316  0.35253831  1
  Na  Na22  1  0.09559600  0.87551684  0.85253831  1
  Na  Na23  1  0.59559600  0.12448316  0.64746169  1
  Na  Na24  1  0.66684084  0.10718377  0.38257171  1
  Na  Na25  1  0.16684084  0.89281623  0.11742829  1
  Na  Na26  1  0.83315916  0.60718377  0.61742829  1
  Na  Na27  1  0.33315916  0.39281623  0.88257171  1
  Na  Na28  1  0.33315916  0.89281623  0.61742829  1
  Na  Na29  1  0.83315916  0.10718377  0.88257171  1
  Na  Na30  1  0.16684084  0.39281623  0.38257171  1
  Na  Na31  1  0.66684084  0.60718377  0.11742829  1
  Na  Na32  1  0.13186703  0.85053604  0.38181371  1
  Na  Na33  1  0.63186703  0.14946396  0.11818629  1
  Na  Na34  1  0.36813297  0.35053604  0.61818629  1
  Na  Na35  1  0.86813297  0.64946396  0.88181371  1
  Na  Na36  1  0.86813297  0.14946396  0.61818629  1
  Na  Na37  1  0.36813297  0.85053604  0.88181371  1
  Na  Na38  1  0.63186703  0.64946396  0.38181371  1
  Na  Na39  1  0.13186703  0.35053604  0.11818629  1
  In  In0  1  0.88477110  0.35231172  0.37865039  1
  In  In1  1  0.38477110  0.64768828  0.12134961  1
  In  In2  1  0.61522890  0.85231172  0.62134961  1
  In  In3  1  0.11522890  0.14768828  0.87865039  1
  In  In4  1  0.11522890  0.64768828  0.62134961  1
  In  In5  1  0.61522890  0.35231172  0.87865039  1
  In  In6  1  0.38477110  0.14768828  0.37865039  1
  In  In7  1  0.88477110  0.85231172  0.12134961  1
  O  O0  1  0.51144282  0.74765252  0.01130279  1
  O  O1  1  0.01144282  0.25234748  0.48869721  1
  O  O2  1  0.98855718  0.24765252  0.98869721  1
  O  O3  1  0.48855718  0.75234748  0.51130279  1
  O  O4  1  0.48855718  0.25234748  0.98869721  1
  O  O5  1  0.98855718  0.74765252  0.51130279  1
  O  O6  1  0.01144282  0.75234748  0.01130279  1
  O  O7  1  0.51144282  0.24765252  0.48869721  1
  O  O8  1  0.23800245  0.51412253  0.54377083  1
  O  O9  1  0.73800245  0.48587747  0.95622917  1
  O  O10  1  0.26199755  0.01412253  0.45622917  1
  O  O11  1  0.76199755  0.98587747  0.04377083  1
  O  O12  1  0.76199755  0.48587747  0.45622917  1
  O  O13  1  0.26199755  0.51412253  0.04377083  1
  O  O14  1  0.73800245  0.98587747  0.54377083  1
  O  O15  1  0.23800245  0.01412253  0.95622917  1
  O  O16  1  0.76731074  0.25249812  0.25649749  1
  O  O17  1  0.26731074  0.74750188  0.24350251  1
  O  O18  1  0.73268926  0.75249812  0.74350251  1
  O  O19  1  0.23268926  0.24750188  0.75649749  1
  O  O20  1  0.23268926  0.74750188  0.74350251  1
  O  O21  1  0.73268926  0.25249812  0.75649749  1
  O  O22  1  0.26731074  0.24750188  0.25649749  1
  O  O23  1  0.76731074  0.75249812  0.24350251  1
  O  O24  1  0.99973123  0.45718316  0.25599419  1
  O  O25  1  0.49973123  0.54281684  0.24400581  1
  O  O26  1  0.50026877  0.95718316  0.74400581  1
  O  O27  1  0.00026877  0.04281684  0.75599419  1
  O  O28  1  0.00026877  0.54281684  0.74400581  1
  O  O29  1  0.50026877  0.45718316  0.75599419  1
  O  O30  1  0.49973123  0.04281684  0.25599419  1
  O  O31  1  0.99973123  0.95718316  0.24400581  1
loop_
_geom_bond_atom_site_label_1
_geom_bond_atom_site_label_2
_geom_bond_distance
_geom_bond_site_symmetry_2
Na0 O31 2.272554 1_445
Na0 O1 2.354111 1_555
Na0 O10 2.368940 1_555
Na0 O22 2.370476 1_555
Na1 O30 2.272554 1_565
Na1 O0 2.354111 1_555
Na1 O11 2.368940 1_555
Na1 O23 2.370476 1_555
Na2 O29 2.272554 1_555
Na2 O3 2.354111 1_555
Na2 O8 2.368940 1_555
Na2 O20 2.370476 1_555
Na3 O28 2.272554 1_655
Na3 O2 2.354111 1_555
Na3 O9 2.368940 1_555
Na3 O21 2.370476 1_555
Na4 O27 2.272554 1_665
Na4 O5 2.354111 1_555
Na4 O14 2.368940 1_555
Na4 O18 2.370476 1_555
Na5 O26 2.272554 1_545
Na5 O4 2.354111 1_555
Na5 O15 2.368940 1_555
Na5 O19 2.370476 1_555
Na6 O25 2.272554 1_555
Na6 O7 2.354111 1_555
Na6 O12 2.368940 1_555
Na6 O16 2.370476 1_555
Na7 O24 2.272554 1_455
Na7 O6 2.354111 1_555
Na7 O13 2.368940 1_555
Na7 O17 2.370476 1_555
Na8 O11 2.271225 1_556
Na8 O26 2.338317 1_555
Na8 O0 2.367039 1_556
Na8 O18 2.375037 1_555
Na9 O10 2.271225 1_555
Na9 O27 2.338317 1_555
Na9 O1 2.367039 1_555
Na9 O19 2.375037 1_555
Na10 O9 2.271225 1_554
Na10 O24 2.338317 1_555
Na10 O2 2.367039 1_554
Na10 O16 2.375037 1_555
Na11 O8 2.271225 1_555
Na11 O25 2.338317 1_555
Na11 O3 2.367039 1_555
Na11 O17 2.375037 1_555
Na12 O15 2.271225 1_554
Na12 O30 2.338317 1_555
Na12 O4 2.367039 1_554
Na12 O22 2.375037 1_555
Na13 O14 2.271225 1_555
Na13 O31 2.338317 1_555
Na13 O5 2.367039 1_555
Na13 O23 2.375037 1_555
Na14 O13 2.271225 1_556
Na14 O28 2.338317 1_555
Na14 O6 2.367039 1_556
Na14 O20 2.375037 1_555
Na15 O12 2.271225 1_555
Na15 O29 2.338317 1_555
Na15 O7 2.367039 1_555
Na15 O21 2.375037 1_555
Na16 O29 2.290261 1_555
Na16 O18 2.300971 1_555
Na16 O0 2.321910 1_556
Na16 O9 2.376589 1_555
Na17 O28 2.290261 1_555
Na17 O19 2.300971 1_555
Na17 O1 2.321910 1_555
Na17 O8 2.376589 1_555
Na18 O31 2.290261 1_545
Na18 O16 2.300971 1_555
Na18 O2 2.321910 1_554
Na18 O11 2.376589 1_545
Na19 O30 2.290261 1_565
Na19 O17 2.300971 1_555
Na19 O3 2.321910 1_555
Na19 O10 2.376589 1_565
Na20 O25 2.290261 1_555
Na20 O22 2.300971 1_555
Na20 O4 2.321910 1_554
Na20 O13 2.376589 1_555
Na21 O24 2.290261 1_555
Na21 O23 2.300971 1_555
Na21 O5 2.321910 1_555
Na21 O12 2.376589 1_555
Na22 O27 2.290261 1_565
Na22 O20 2.300971 1_555
Na22 O6 2.321910 1_556
Na22 O15 2.376589 1_565
Na23 O26 2.290261 1_545
Na23 O21 2.300971 1_555
Na23 O7 2.321910 1_555
Na23 O14 2.376589 1_545
Na24 O14 2.281747 1_545
Na24 O16 2.308771 1_555
Na24 O30 2.320890 1_555
Na24 O7 2.488455 1_555
Na25 O15 2.281747 1_564
Na25 O17 2.308771 1_555
Na25 O31 2.320890 1_455
Na25 O6 2.488455 1_555
Na26 O12 2.281747 1_555
Na26 O18 2.308771 1_555
Na26 O28 2.320890 1_655
Na26 O5 2.488455 1_555
Na27 O13 2.281747 1_556
Na27 O19 2.308771 1_555
Na27 O29 2.320890 1_555
Na27 O4 2.488455 1_555
Na28 O10 2.281747 1_565
Na28 O20 2.308771 1_555
Na28 O26 2.320890 1_555
Na28 O3 2.488455 1_555
Na29 O11 2.281747 1_546
Na29 O21 2.308771 1_555
Na29 O27 2.320890 1_655
Na29 O2 2.488455 1_555
Na30 O8 2.281747 1_555
Na30 O22 2.308771 1_555
Na30 O24 2.320890 1_455
Na30 O1 2.488455 1_555
Na31 O9 2.281747 1_554
Na31 O23 2.308771 1_555
Na31 O25 2.320890 1_555
Na31 O0 2.488455 1_555
Na32 O5 2.321170 1_455
Na32 O31 2.322223 1_455
Na32 O17 2.328164 1_555
Na32 O10 2.353223 1_565
Na33 O4 2.321170 1_554
Na33 O30 2.322223 1_555
Na33 O16 2.328164 1_555
Na33 O11 2.353223 1_545
Na34 O7 2.321170 1_555
Na34 O29 2.322223 1_555
Na34 O19 2.328164 1_555
Na34 O8 2.353223 1_555
Na35 O6 2.321170 1_656
Na35 O28 2.322223 1_655
Na35 O18 2.328164 1_555
Na35 O9 2.353223 1_555
Na36 O1 2.321170 1_655
Na36 O27 2.322223 1_655
Na36 O21 2.328164 1_555
Na36 O14 2.353223 1_545
Na37 O0 2.321170 1_556
Na37 O26 2.322223 1_555
Na37 O20 2.328164 1_555
Na37 O15 2.353223 1_565
Na38 O3 2.321170 1_555
Na38 O25 2.322223 1_555
Na38 O23 2.328164 1_555
Na38 O12 2.353223 1_555
Na39 O2 2.321170 1_454
Na39 O24 2.322223 1_455
Na39 O22 2.328164 1_555
Na39 O13 2.353223 1_555
In0 O1 2.071561 1_655
In0 O16 2.088583 1_555
In0 O12 2.091836 1_555
In0 O24 2.104670 1_555
In1 O0 2.071561 1_555
In1 O17 2.088583 1_555
In1 O13 2.091836 1_555
In1 O25 2.104670 1_555
In2 O3 2.071561 1_555
In2 O18 2.088583 1_555
In2 O14 2.091836 1_555
In2 O26 2.104670 1_555
In3 O2 2.071561 1_455
In3 O19 2.088583 1_555
In3 O15 2.091836 1_555
In3 O27 2.104670 1_555
In4 O5 2.071561 1_455
In4 O20 2.088583 1_555
In4 O8 2.091836 1_555
In4 O28 2.104670 1_555
In5 O4 2.071561 1_555
In5 O21 2.088583 1_555
In5 O9 2.091836 1_555
In5 O29 2.104670 1_555
In6 O7 2.071561 1_555
In6 O22 2.088583 1_555
In6 O10 2.091836 1_555
In6 O30 2.104670 1_555
In7 O6 2.071561 1_655
In7 O23 2.088583 1_555
In7 O11 2.091836 1_555
In7 O31 2.104670 1_555
