# generated using pymatgen
data_LuCoGe
_symmetry_space_group_name_H-M   'P 1'
_cell_length_a   4.18098900
_cell_length_b   6.73141500
_cell_length_c   7.17669600
_cell_angle_alpha   90.00000000
_cell_angle_beta   90.00000000
_cell_angle_gamma   90.00000000
_symmetry_Int_Tables_number   1
_chemical_formula_structural   LuCoGe
_chemical_formula_sum   'Lu4 Co4 Ge4'
_cell_volume   201.98073177
_cell_formula_units_Z   4
loop_
 _symmetry_equiv_pos_site_id
 _symmetry_equiv_pos_as_xyz
  1  'x, y, z'
loop_
 _atom_site_type_symbol
 _atom_site_label
 _atom_site_symmetry_multiplicity
 _atom_site_fract_x
 _atom_site_fract_y
 _atom_site_fract_z
 _atom_site_occupancy
  Lu  Lu0  1  0.75000000  0.48999900  0.70291600  1
  Lu  Lu1  1  0.75000000  0.98999900  0.79708400  1
  Lu  Lu2  1  0.25000000  0.51000100  0.29708400  1
  Lu  Lu3  1  0.25000000  0.01000100  0.20291600  1
  Co  Co0  1  0.75000000  0.68773100  0.08338700  1
  Co  Co1  1  0.75000000  0.18773100  0.41661300  1
  Co  Co2  1  0.25000000  0.31226900  0.91661300  1
  Co  Co3  1  0.25000000  0.81226900  0.58338700  1
  Ge  Ge0  1  0.75000000  0.30347800  0.08863700  1
  Ge  Ge1  1  0.75000000  0.80347800  0.41136300  1
  Ge  Ge2  1  0.25000000  0.69652200  0.91136300  1
  Ge  Ge3  1  0.25000000  0.19652200  0.58863700  1
loop_
_geom_bond_atom_site_label_1
_geom_bond_atom_site_label_2
_geom_bond_distance
_geom_bond_site_symmetry_2
Co0 Ge2 2.428542 1_554
Co0 Ge2 2.428542 1_654
Co0 Ge1 2.479387 1_555
Co0 Ge0 2.586841 1_555
Co0 Lu2 2.855438 1_555
Co0 Lu2 2.855438 1_655
Co0 Lu1 2.891678 1_554
Co0 Lu0 3.037658 1_554
Co0 Lu3 3.132417 1_565
Co0 Lu3 3.132417 1_665
Co1 Ge3 2.428542 1_555
Co1 Ge3 2.428542 1_655
Co1 Ge0 2.479387 1_555
Co1 Ge1 2.586841 1_545
Co1 Lu3 2.855438 1_555
Co1 Lu3 2.855438 1_655
Co1 Lu0 2.891678 1_555
Co1 Lu1 3.037658 1_545
Co1 Lu2 3.132417 1_555
Co1 Lu2 3.132417 1_655
Co2 Ge0 2.428542 1_556
Co2 Ge0 2.428542 1_456
Co2 Ge3 2.479387 1_555
Co2 Ge2 2.586841 1_555
Co2 Lu0 2.855438 1_455
Co2 Lu0 2.855438 1_555
Co2 Lu3 2.891678 1_556
Co2 Lu2 3.037658 1_556
Co2 Lu1 3.132417 1_545
Co2 Lu1 3.132417 1_445
Co3 Ge1 2.428542 1_455
Co3 Ge1 2.428542 1_555
Co3 Ge2 2.479387 1_555
Co3 Ge3 2.586841 1_565
Co3 Lu1 2.855438 1_455
Co3 Lu1 2.855438 1_555
Co3 Lu2 2.891678 1_555
Co3 Lu3 3.037658 1_565
Co3 Lu0 3.132417 1_555
Co3 Lu0 3.132417 1_455
Ge0 Lu2 2.922448 1_555
Ge0 Lu2 2.922448 1_655
Ge0 Lu1 2.971674 1_544
Ge0 Lu3 2.990897 1_555
Ge0 Lu3 2.990897 1_655
Ge0 Lu0 3.039630 1_554
Ge1 Lu3 2.922448 1_665
Ge1 Lu3 2.922448 1_565
Ge1 Lu0 2.971674 1_555
Ge1 Lu2 2.990897 1_555
Ge1 Lu2 2.990897 1_655
Ge1 Lu1 3.039630 1_555
Ge2 Lu0 2.922448 1_555
Ge2 Lu0 2.922448 1_455
Ge2 Lu3 2.971674 1_566
Ge2 Lu1 2.990897 1_455
Ge2 Lu1 2.990897 1_555
Ge2 Lu2 3.039630 1_556
Ge3 Lu1 2.922448 1_445
Ge3 Lu1 2.922448 1_545
Ge3 Lu2 2.971674 1_555
Ge3 Lu0 2.990897 1_455
Ge3 Lu0 2.990897 1_555
Ge3 Lu3 3.039630 1_555
