# generated using pymatgen
data_Er5(Si5Ir2)2
_symmetry_space_group_name_H-M   'P 1'
_cell_length_a   12.61710400
_cell_length_b   12.61710400
_cell_length_c   4.24603500
_cell_angle_alpha   90.00000000
_cell_angle_beta   90.00000000
_cell_angle_gamma   90.00000000
_symmetry_Int_Tables_number   1
_chemical_formula_structural   Er5(Si5Ir2)2
_chemical_formula_sum   'Er10 Si20 Ir8'
_cell_volume   675.93188817
_cell_formula_units_Z   2
loop_
 _symmetry_equiv_pos_site_id
 _symmetry_equiv_pos_as_xyz
  1  'x, y, z'
loop_
 _atom_site_type_symbol
 _atom_site_label
 _atom_site_symmetry_multiplicity
 _atom_site_fract_x
 _atom_site_fract_y
 _atom_site_fract_z
 _atom_site_occupancy
  Er  Er0  1  0.50000000  0.50000000  0.00000000  1
  Er  Er1  1  0.00000000  0.00000000  0.00000000  1
  Er  Er2  1  0.67512900  0.17512900  0.50000000  1
  Er  Er3  1  0.32487100  0.82487100  0.50000000  1
  Er  Er4  1  0.17512900  0.32487100  0.50000000  1
  Er  Er5  1  0.82487100  0.67512900  0.50000000  1
  Er  Er6  1  0.88411500  0.38411500  0.50000000  1
  Er  Er7  1  0.11588500  0.61588500  0.50000000  1
  Er  Er8  1  0.38411500  0.11588500  0.50000000  1
  Er  Er9  1  0.61588500  0.88411500  0.50000000  1
  Si  Si0  1  0.56545400  0.06545400  0.00000000  1
  Si  Si1  1  0.43454600  0.93454600  0.00000000  1
  Si  Si2  1  0.06545400  0.43454600  0.00000000  1
  Si  Si3  1  0.93454600  0.56545400  0.00000000  1
  Si  Si4  1  0.66398400  0.70048500  0.00000000  1
  Si  Si5  1  0.33601600  0.29951500  0.00000000  1
  Si  Si6  1  0.16398400  0.79951500  0.00000000  1
  Si  Si7  1  0.83601600  0.20048500  0.00000000  1
  Si  Si8  1  0.29951500  0.66398400  0.00000000  1
  Si  Si9  1  0.70048500  0.33601600  0.00000000  1
  Si  Si10  1  0.20048500  0.16398400  0.00000000  1
  Si  Si11  1  0.79951500  0.83601600  0.00000000  1
  Si  Si12  1  0.65611300  0.50375500  0.50000000  1
  Si  Si13  1  0.34388700  0.49624500  0.50000000  1
  Si  Si14  1  0.15611300  0.99624500  0.50000000  1
  Si  Si15  1  0.84388700  0.00375500  0.50000000  1
  Si  Si16  1  0.49624500  0.65611300  0.50000000  1
  Si  Si17  1  0.50375500  0.34388700  0.50000000  1
  Si  Si18  1  0.00375500  0.15611300  0.50000000  1
  Si  Si19  1  0.99624500  0.84388700  0.50000000  1
  Ir  Ir0  1  0.74589300  0.52047700  0.00000000  1
  Ir  Ir1  1  0.25410700  0.47952300  0.00000000  1
  Ir  Ir2  1  0.24589300  0.97952300  0.00000000  1
  Ir  Ir3  1  0.75410700  0.02047700  0.00000000  1
  Ir  Ir4  1  0.47952300  0.74589300  0.00000000  1
  Ir  Ir5  1  0.52047700  0.25410700  0.00000000  1
  Ir  Ir6  1  0.02047700  0.24589300  0.00000000  1
  Ir  Ir7  1  0.97952300  0.75410700  0.00000000  1
loop_
_geom_bond_atom_site_label_1
_geom_bond_atom_site_label_2
_geom_bond_distance
_geom_bond_site_symmetry_2
Er0 Si16 2.896402 1_555
Er0 Si12 2.896402 1_554
Er0 Si16 2.896402 1_554
Er0 Si12 2.896402 1_555
Er0 Si17 2.896402 1_555
Er0 Si13 2.896402 1_554
Er0 Si17 2.896402 1_554
Er0 Si13 2.896402 1_555
Er0 Ir0 3.113197 1_555
Er0 Ir4 3.113197 1_555
Er0 Ir5 3.113197 1_555
Er0 Ir1 3.113197 1_555
Er0 Si9 3.267927 1_555
Er0 Si4 3.267927 1_555
Er0 Si5 3.267927 1_555
Er0 Si8 3.267927 1_555
Er1 Si18 2.896402 1_554
Er1 Si18 2.896402 1_555
Er1 Si14 2.896402 1_545
Er1 Si14 2.896402 1_544
Er1 Si15 2.896402 1_455
Er1 Si15 2.896402 1_454
Er1 Si19 2.896402 1_444
Er1 Si19 2.896402 1_445
Er1 Ir6 3.113197 1_555
Er1 Ir3 3.113197 1_455
Er1 Ir2 3.113197 1_545
Er1 Ir7 3.113197 1_445
Er1 Si10 3.267927 1_555
Er1 Si7 3.267927 1_455
Er1 Si11 3.267927 1_445
Er1 Si6 3.267927 1_545
Er2 Si0 2.887369 1_556
Er2 Si0 2.887369 1_555
Er2 Si7 2.954684 1_555
Er2 Si7 2.954684 1_556
Er2 Si9 2.954684 1_556
Er2 Si9 2.954684 1_555
Er2 Si15 3.034625 1_555
Er2 Si17 3.034625 1_555
Er2 Ir3 3.050833 1_556
Er2 Ir3 3.050833 1_555
Er2 Ir5 3.050833 1_555
Er2 Ir5 3.050833 1_556
Er3 Si1 2.887369 1_555
Er3 Si1 2.887369 1_556
Er3 Si8 2.954684 1_556
Er3 Si8 2.954684 1_555
Er3 Si6 2.954684 1_555
Er3 Si6 2.954684 1_556
Er3 Si14 3.034625 1_555
Er3 Si16 3.034625 1_555
Er3 Ir2 3.050833 1_556
Er3 Ir2 3.050833 1_555
Er3 Ir4 3.050833 1_555
Er3 Ir4 3.050833 1_556
Er4 Si2 2.887369 1_556
Er4 Si2 2.887369 1_555
Er4 Si10 2.954684 1_555
Er4 Si10 2.954684 1_556
Er4 Si5 2.954684 1_555
Er4 Si5 2.954684 1_556
Er4 Si18 3.034625 1_555
Er4 Si13 3.034625 1_555
Er4 Ir6 3.050833 1_555
Er4 Ir6 3.050833 1_556
Er4 Ir1 3.050833 1_555
Er4 Ir1 3.050833 1_556
Er5 Si3 2.887369 1_556
Er5 Si3 2.887369 1_555
Er5 Si4 2.954684 1_556
Er5 Si4 2.954684 1_555
Er5 Si11 2.954684 1_556
Er5 Si11 2.954684 1_555
Er5 Si19 3.034625 1_555
Er5 Si12 3.034625 1_555
Er5 Ir0 3.050833 1_556
Er5 Ir7 3.050833 1_556
Er5 Ir0 3.050833 1_555
Er5 Ir7 3.050833 1_555
Er6 Si2 3.185419 1_655
Er6 Si2 3.185419 1_656
Er6 Si3 3.185419 1_555
Er6 Si3 3.185419 1_556
Er6 Si7 3.200535 1_556
Er6 Si7 3.200535 1_555
Er6 Si9 3.200535 1_556
Er6 Si9 3.200535 1_555
Er6 Ir6 3.241713 1_655
Er6 Ir6 3.241713 1_656
Er6 Ir0 3.241713 1_556
Er6 Ir0 3.241713 1_555
Er6 Si18 3.248718 1_655
Er6 Si12 3.248718 1_555
Er7 Si3 3.185419 1_456
Er7 Si3 3.185419 1_455
Er7 Si2 3.185419 1_556
Er7 Si2 3.185419 1_555
Er7 Si6 3.200535 1_555
Er7 Si6 3.200535 1_556
Er7 Si8 3.200535 1_556
Er7 Si8 3.200535 1_555
Er7 Ir7 3.241713 1_456
Er7 Ir7 3.241713 1_455
Er7 Ir1 3.241713 1_555
Er7 Ir1 3.241713 1_556
Er7 Si19 3.248718 1_455
Er7 Si13 3.248718 1_555
Er8 Si1 3.185419 1_546
Er8 Si1 3.185419 1_545
Er8 Si0 3.185419 1_556
Er8 Si0 3.185419 1_555
Er8 Si10 3.200535 1_555
Er8 Si10 3.200535 1_556
Er8 Si5 3.200535 1_555
Er8 Si5 3.200535 1_556
Er8 Ir2 3.241713 1_545
Er8 Ir2 3.241713 1_546
Er8 Ir5 3.241713 1_555
Er8 Ir5 3.241713 1_556
Er8 Si14 3.248718 1_545
Er8 Si17 3.248718 1_555
Er9 Si0 3.185419 1_565
Er9 Si0 3.185419 1_566
Er9 Si1 3.185419 1_555
Er9 Si1 3.185419 1_556
Er9 Si11 3.200535 1_555
Er9 Si11 3.200535 1_556
Er9 Si4 3.200535 1_555
Er9 Si4 3.200535 1_556
Er9 Ir3 3.241713 1_565
Er9 Ir3 3.241713 1_566
Er9 Ir4 3.241713 1_555
Er9 Ir4 3.241713 1_556
Er9 Si15 3.248718 1_565
Er9 Si16 3.248718 1_555
Si0 Si1 2.335828 1_545
Si2 Si3 2.335828 1_455
Si6 Si8 2.418318 1_555
Si7 Si9 2.418318 1_555
Si10 Si5 2.418318 1_555
Si11 Si4 2.418318 1_555
Si12 Si16 2.786374 1_555
Si12 Si17 2.786374 1_555
Si13 Si16 2.786374 1_555
Si13 Si17 2.786374 1_555
Si14 Si19 2.786374 1_455
Si14 Si18 2.786374 1_565
Si15 Si19 2.786374 1_545
Si15 Si18 2.786374 1_655
Ir0 Si9 2.396843 1_555
Ir0 Si12 2.415548 1_554
Ir0 Si12 2.415548 1_555
Ir0 Si3 2.446966 1_555
Ir0 Si4 2.495252 1_555
Ir1 Si8 2.396843 1_555
Ir1 Si13 2.415548 1_554
Ir1 Si13 2.415548 1_555
Ir1 Si2 2.446966 1_555
Ir1 Si5 2.495252 1_555
Ir2 Si10 2.396843 1_565
Ir2 Si14 2.415548 1_555
Ir2 Si14 2.415548 1_554
Ir2 Si1 2.446966 1_555
Ir2 Si6 2.495252 1_555
Ir3 Si11 2.396843 1_545
Ir3 Si15 2.415548 1_554
Ir3 Si15 2.415548 1_555
Ir3 Si0 2.446966 1_555
Ir3 Si7 2.495252 1_555
Ir4 Si4 2.396843 1_555
Ir4 Si16 2.415548 1_554
Ir4 Si16 2.415548 1_555
Ir4 Si1 2.446966 1_555
Ir4 Si8 2.495252 1_555
Ir5 Si5 2.396843 1_555
Ir5 Si17 2.415548 1_554
Ir5 Si17 2.415548 1_555
Ir5 Si0 2.446966 1_555
Ir5 Si9 2.495252 1_555
Ir6 Si7 2.396843 1_455
Ir6 Si18 2.415548 1_554
Ir6 Si18 2.415548 1_555
Ir6 Si2 2.446966 1_555
Ir6 Si10 2.495252 1_555
Ir7 Si6 2.396843 1_655
Ir7 Si19 2.415548 1_554
Ir7 Si19 2.415548 1_555
Ir7 Si3 2.446966 1_555
Ir7 Si11 2.495252 1_555
