# generated using pymatgen
data_Mg2Ta2TiO8
_symmetry_space_group_name_H-M   'P 1'
_cell_length_a   10.03706694
_cell_length_b   10.03706694
_cell_length_c   5.23067051
_cell_angle_alpha   89.92063420
_cell_angle_beta   89.92063420
_cell_angle_gamma   34.80267462
_symmetry_Int_Tables_number   1
_chemical_formula_structural   Mg2Ta2TiO8
_chemical_formula_sum   'Mg4 Ta4 Ti2 O16'
_cell_volume   300.75850208
_cell_formula_units_Z   2
loop_
 _symmetry_equiv_pos_site_id
 _symmetry_equiv_pos_as_xyz
  1  'x, y, z'
loop_
 _atom_site_type_symbol
 _atom_site_label
 _atom_site_symmetry_multiplicity
 _atom_site_fract_x
 _atom_site_fract_y
 _atom_site_fract_z
 _atom_site_occupancy
  Mg  Mg0  1  0.86964900  0.58033700  0.76108600  1
  Mg  Mg1  1  0.41966300  0.13035100  0.73891400  1
  Mg  Mg2  1  0.13035100  0.41966300  0.23891400  1
  Mg  Mg3  1  0.58033700  0.86964900  0.26108600  1
  Ta  Ta0  1  0.03653800  0.72978400  0.74378800  1
  Ta  Ta1  1  0.27021600  0.96346200  0.75621200  1
  Ta  Ta2  1  0.96346200  0.27021600  0.25621200  1
  Ta  Ta3  1  0.72978400  0.03653800  0.24378800  1
  Ti  Ti0  1  0.62597500  0.37402500  0.75000000  1
  Ti  Ti1  1  0.37402500  0.62597500  0.25000000  1
  O  O0  1  0.05078100  0.80808200  0.08124900  1
  O  O1  1  0.19191800  0.94921900  0.41875100  1
  O  O2  1  0.94921900  0.19191800  0.91875100  1
  O  O3  1  0.80808200  0.05078100  0.58124900  1
  O  O4  1  0.31087400  0.57261300  0.58991100  1
  O  O5  1  0.42738700  0.68912600  0.91008900  1
  O  O6  1  0.68912600  0.42738700  0.41008900  1
  O  O7  1  0.57261300  0.31087400  0.08991100  1
  O  O8  1  0.91628800  0.71444600  0.44328300  1
  O  O9  1  0.28555400  0.08371200  0.05671700  1
  O  O10  1  0.45570000  0.15998800  0.37143100  1
  O  O11  1  0.84001200  0.54430000  0.12856900  1
  O  O12  1  0.54430000  0.84001200  0.62856900  1
  O  O13  1  0.15998800  0.45570000  0.87143100  1
  O  O14  1  0.71444600  0.91628800  0.94328300  1
  O  O15  1  0.08371200  0.28555400  0.55671700  1
loop_
_geom_bond_atom_site_label_1
_geom_bond_atom_site_label_2
_geom_bond_distance
_geom_bond_site_symmetry_2
Mg0 O12 1.990271 1_555
Mg0 O15 2.018866 1_655
Mg0 O11 2.021705 1_556
Mg0 O13 2.099077 1_655
Mg0 O8 2.412630 1_555
Mg0 O14 2.466471 1_555
Mg1 O13 1.990271 1_555
Mg1 O14 2.018866 1_545
Mg1 O10 2.021705 1_555
Mg1 O12 2.099077 1_545
Mg1 O9 2.412630 1_556
Mg1 O15 2.466471 1_555
Mg2 O10 1.990271 1_555
Mg2 O8 2.018866 1_455
Mg2 O13 2.021705 1_554
Mg2 O11 2.099077 1_455
Mg2 O15 2.412630 1_555
Mg2 O9 2.466471 1_555
Mg3 O11 1.990271 1_555
Mg3 O9 2.018866 1_565
Mg3 O12 2.021705 1_555
Mg3 O10 2.099077 1_565
Mg3 O14 2.412630 1_554
Mg3 O8 2.466471 1_555
O0 Ta0 1.985658 1_554
O0 Ta3 2.055823 1_465
O0 Ti1 2.216058 1_555
O1 Ta1 1.985658 1_555
O1 Ta2 2.055823 1_465
O1 Ti1 2.216058 1_555
O2 Ta2 1.985658 1_556
O2 Ta1 2.055823 1_645
O2 Ti0 2.216058 1_555
O3 Ta3 1.985658 1_555
O3 Ta0 2.055823 1_645
O3 Ti0 2.216058 1_555
O4 Ta0 1.892665 1_555
O4 Ti0 2.080097 1_555
O4 Ti1 2.097986 1_555
O5 Ta1 1.892665 1_555
O5 Ti0 2.080097 1_555
O5 Ti1 2.097986 1_556
O6 Ta2 1.892665 1_555
O6 Ti1 2.080097 1_555
O6 Ti0 2.097986 1_555
O7 Ta3 1.892665 1_555
O7 Ti1 2.080097 1_555
O7 Ti0 2.097986 1_554
O8 Ta0 2.064511 1_655
O8 Ta3 2.258773 1_565
O9 Ta1 2.064511 1_544
O9 Ta2 2.258773 1_455
O10 Ta3 1.987049 1_555
O11 Ta2 1.987049 1_555
O12 Ta1 1.987049 1_555
O13 Ta0 1.987049 1_555
O14 Ta3 2.064511 1_566
O14 Ta0 2.258773 1_655
O15 Ta2 2.064511 1_455
O15 Ta1 2.258773 1_545
