# generated using pymatgen
data_Na2V2CoH4(OF)6
_symmetry_space_group_name_H-M   'P 1'
_cell_length_a   5.35240900
_cell_length_b   8.41308800
_cell_length_c   10.61067271
_cell_angle_alpha   91.99536443
_cell_angle_beta   90.00000000
_cell_angle_gamma   90.00000000
_symmetry_Int_Tables_number   1
_chemical_formula_structural   Na2V2CoH4(OF)6
_chemical_formula_sum   'Na4 V4 Co2 H8 O12 F12'
_cell_volume   477.51193097
_cell_formula_units_Z   2
loop_
 _symmetry_equiv_pos_site_id
 _symmetry_equiv_pos_as_xyz
  1  'x, y, z'
loop_
 _atom_site_type_symbol
 _atom_site_label
 _atom_site_symmetry_multiplicity
 _atom_site_fract_x
 _atom_site_fract_y
 _atom_site_fract_z
 _atom_site_occupancy
  Na  Na0  1  0.44702200  0.53309000  0.66412400  1
  Na  Na1  1  0.94702200  0.46691000  0.83587600  1
  Na  Na2  1  0.55297800  0.46691000  0.33587600  1
  Na  Na3  1  0.05297800  0.53309000  0.16412400  1
  V  V0  1  0.97464600  0.71014900  0.50640900  1
  V  V1  1  0.47464600  0.28985100  0.99359100  1
  V  V2  1  0.02535400  0.28985100  0.49359100  1
  V  V3  1  0.52535400  0.71014900  0.00640900  1
  Co  Co0  1  0.50000000  0.00000000  0.50000000  1
  Co  Co1  1  0.00000000  0.00000000  0.00000000  1
  H  H0  1  0.53253400  0.84318800  0.27705100  1
  H  H1  1  0.03253400  0.15681200  0.22294900  1
  H  H2  1  0.46746600  0.15681200  0.72294900  1
  H  H3  1  0.96746600  0.84318800  0.77705100  1
  H  H4  1  0.69998200  0.99477900  0.26911200  1
  H  H5  1  0.19998200  0.00522100  0.23088800  1
  H  H6  1  0.30001800  0.00522100  0.73088800  1
  H  H7  1  0.80001800  0.99477900  0.76911200  1
  O  O0  1  0.70537500  0.80518700  0.54247200  1
  O  O1  1  0.20537400  0.19481300  0.95752800  1
  O  O2  1  0.29462500  0.19481300  0.45752800  1
  O  O3  1  0.79462500  0.80518700  0.04247200  1
  O  O4  1  0.18853900  0.85116100  0.48625000  1
  O  O5  1  0.68853900  0.14883900  0.01375000  1
  O  O6  1  0.81146100  0.14883900  0.51375000  1
  O  O7  1  0.31146100  0.85116100  0.98625000  1
  O  O8  1  0.53922100  0.95696700  0.30271000  1
  O  O9  1  0.03922100  0.04303300  0.19729000  1
  O  O10  1  0.46077900  0.04303300  0.69729000  1
  O  O11  1  0.96077900  0.95696700  0.80271000  1
  F  F0  1  0.22344000  0.51868000  0.47000000  1
  F  F1  1  0.72344000  0.48132000  0.03000000  1
  F  F2  1  0.77656000  0.48132000  0.53000000  1
  F  F3  1  0.27656000  0.51868000  0.97000000  1
  F  F4  1  0.88466800  0.66349100  0.33637200  1
  F  F5  1  0.38466800  0.33650900  0.16362800  1
  F  F6  1  0.11533200  0.33650900  0.66362800  1
  F  F7  1  0.61533200  0.66349100  0.83637200  1
  F  F8  1  0.06788000  0.67129100  0.67937300  1
  F  F9  1  0.56788000  0.32870900  0.82062700  1
  F  F10  1  0.93212000  0.32870900  0.32062700  1
  F  F11  1  0.43212000  0.67129100  0.17937300  1
loop_
_geom_bond_atom_site_label_1
_geom_bond_atom_site_label_2
_geom_bond_distance
_geom_bond_site_symmetry_2
Co0 O0 2.036942 1_545
Co0 O2 2.036942 1_555
Co0 O6 2.087024 1_555
Co0 O4 2.087024 1_545
Co0 O8 2.122405 1_545
Co0 O10 2.122405 1_555
Co1 O1 2.036939 1_554
Co1 O3 2.036942 1_445
Co1 O5 2.087024 1_455
Co1 O7 2.087024 1_544
Co1 O9 2.122405 1_555
Co1 O11 2.122405 1_444
H0 O8 0.986687 1_555
H1 O9 0.986687 1_555
H2 O10 0.986687 1_555
H3 O11 0.986687 1_555
H4 O8 0.988218 1_555
H5 O9 0.988218 1_555
H6 O10 0.988218 1_555
H7 O11 0.988218 1_555
O0 V0 1.685709 1_555
O1 V1 1.685714 1_555
O2 V2 1.685709 1_555
O3 V3 1.685709 1_555
O4 V0 1.667785 1_455
O5 V1 1.667785 1_554
O6 V2 1.667785 1_655
O7 V3 1.667785 1_556
F0 V0 2.115187 1_455
F0 V2 2.219584 1_555
F0 Na2 2.298467 1_555
F0 Na0 2.381622 1_555
F1 V1 2.115187 1_554
F1 V3 2.219584 1_555
F1 Na3 2.298467 1_655
F1 Na1 2.381622 1_554
F2 V2 2.115187 1_655
F2 V0 2.219584 1_555
F2 Na0 2.298467 1_555
F2 Na2 2.381622 1_555
F3 V3 2.115187 1_556
F3 V1 2.219584 1_555
F3 Na1 2.298467 1_455
F3 Na3 2.381622 1_556
F4 V0 1.895222 1_555
F4 Na3 2.283827 1_655
F4 Na2 2.426208 1_555
F5 V1 1.895222 1_554
F5 Na2 2.283827 1_555
F5 Na3 2.426208 1_555
F6 V2 1.895222 1_555
F6 Na1 2.283827 1_455
F6 Na0 2.426208 1_555
F7 V3 1.895222 1_556
F7 Na0 2.283827 1_555
F7 Na1 2.426208 1_555
F8 V0 1.940587 1_455
F8 Na0 2.341601 1_555
F8 Na1 2.516245 1_455
F9 V1 1.940587 1_555
F9 Na1 2.341601 1_555
F9 Na0 2.516245 1_555
F10 V2 1.940587 1_655
F10 Na2 2.341601 1_555
F10 Na3 2.516245 1_655
F11 V3 1.940587 1_555
F11 Na3 2.341601 1_555
F11 Na2 2.516245 1_555
