# generated using pymatgen
data_NaNi2P2O9
_symmetry_space_group_name_H-M   'P 1'
_cell_length_a   6.37383200
_cell_length_b   7.34915300
_cell_length_c   14.12923100
_cell_angle_alpha   90.00000000
_cell_angle_beta   90.00000000
_cell_angle_gamma   90.00000000
_symmetry_Int_Tables_number   1
_chemical_formula_structural   NaNi2P2O9
_chemical_formula_sum   'Na4 Ni8 P8 O36'
_cell_volume   661.84520485
_cell_formula_units_Z   4
loop_
 _symmetry_equiv_pos_site_id
 _symmetry_equiv_pos_as_xyz
  1  'x, y, z'
loop_
 _atom_site_type_symbol
 _atom_site_label
 _atom_site_symmetry_multiplicity
 _atom_site_fract_x
 _atom_site_fract_y
 _atom_site_fract_z
 _atom_site_occupancy
  Na  Na0  1  0.75000000  0.88881800  0.78270300  1
  Na  Na1  1  0.75000000  0.61118200  0.28270300  1
  Na  Na2  1  0.25000000  0.38881800  0.71729700  1
  Na  Na3  1  0.25000000  0.11118200  0.21729700  1
  Ni  Ni0  1  0.75000000  0.35619900  0.87425200  1
  Ni  Ni1  1  0.25000000  0.64380100  0.12574800  1
  Ni  Ni2  1  0.25000000  0.85619900  0.62574800  1
  Ni  Ni3  1  0.75000000  0.14380100  0.37425200  1
  Ni  Ni4  1  0.50000000  0.00000000  0.00000000  1
  Ni  Ni5  1  0.50000000  0.50000000  0.50000000  1
  Ni  Ni6  1  0.00000000  0.50000000  0.50000000  1
  Ni  Ni7  1  0.00000000  0.00000000  0.00000000  1
  P  P0  1  0.25000000  0.36612500  0.93707900  1
  P  P1  1  0.75000000  0.63387500  0.06292100  1
  P  P2  1  0.75000000  0.86612500  0.56292100  1
  P  P3  1  0.25000000  0.13387500  0.43707900  1
  P  P4  1  0.75000000  0.40058800  0.68949500  1
  P  P5  1  0.75000000  0.09941200  0.18949500  1
  P  P6  1  0.25000000  0.90058800  0.81050500  1
  P  P7  1  0.25000000  0.59941200  0.31050500  1
  O  O0  1  0.05065800  0.59384800  0.37082300  1
  O  O1  1  0.55065800  0.40615200  0.62917700  1
  O  O2  1  0.94934200  0.09384800  0.12917700  1
  O  O3  1  0.44934200  0.90615200  0.87082300  1
  O  O4  1  0.94934200  0.40615200  0.62917700  1
  O  O5  1  0.44934200  0.59384800  0.37082300  1
  O  O6  1  0.05065800  0.90615200  0.87082300  1
  O  O7  1  0.55065800  0.09384800  0.12917700  1
  O  O8  1  0.25000000  0.31945600  0.48910300  1
  O  O9  1  0.75000000  0.68054400  0.51089700  1
  O  O10  1  0.75000000  0.81945600  0.01089700  1
  O  O11  1  0.25000000  0.18054400  0.98910300  1
  O  O12  1  0.75000000  0.13712300  0.95008800  1
  O  O13  1  0.25000000  0.86287700  0.04991200  1
  O  O14  1  0.25000000  0.63712300  0.54991200  1
  O  O15  1  0.75000000  0.36287700  0.45008800  1
  O  O16  1  0.75000000  0.22556500  0.75367900  1
  O  O17  1  0.25000000  0.77443500  0.24632100  1
  O  O18  1  0.25000000  0.72556500  0.74632100  1
  O  O19  1  0.75000000  0.27443500  0.25367900  1
  O  O20  1  0.43678400  0.12402300  0.36750800  1
  O  O21  1  0.93678400  0.87597700  0.63249200  1
  O  O22  1  0.56321600  0.62402300  0.13249200  1
  O  O23  1  0.06321600  0.37597700  0.86750800  1
  O  O24  1  0.56321600  0.87597700  0.63249200  1
  O  O25  1  0.06321600  0.12402300  0.36750800  1
  O  O26  1  0.43678400  0.37597700  0.86750800  1
  O  O27  1  0.93678400  0.62402300  0.13249200  1
  O  O28  1  0.75000000  0.47216400  0.99571400  1
  O  O29  1  0.25000000  0.04693800  0.72963400  1
  O  O30  1  0.25000000  0.45306200  0.22963400  1
  O  O31  1  0.75000000  0.54693800  0.77036600  1
  O  O32  1  0.75000000  0.02783600  0.49571400  1
  O  O33  1  0.25000000  0.97216400  0.50428600  1
  O  O34  1  0.25000000  0.52783600  0.00428600  1
  O  O35  1  0.75000000  0.95306200  0.27036600  1
loop_
_geom_bond_atom_site_label_1
_geom_bond_atom_site_label_2
_geom_bond_distance
_geom_bond_site_symmetry_2
Na0 O6 2.288841 1_655
Na0 O3 2.288841 1_555
Na0 O21 2.435304 1_555
Na0 O24 2.435304 1_555
Na0 O16 2.508552 1_565
Na0 O31 2.518568 1_555
Na1 O0 2.288841 1_655
Na1 O5 2.288841 1_555
Na1 O27 2.435304 1_555
Na1 O22 2.435304 1_555
Na1 O19 2.508552 1_555
Na1 O35 2.518568 1_555
Na2 O1 2.288841 1_555
Na2 O4 2.288841 1_455
Na2 O26 2.435304 1_555
Na2 O23 2.435304 1_555
Na2 O18 2.508552 1_555
Na2 O29 2.518568 1_555
Na3 O7 2.288841 1_555
Na3 O2 2.288841 1_455
Na3 O20 2.435304 1_555
Na3 O25 2.435304 1_555
Na3 O17 2.508552 1_545
Na3 O30 2.518568 1_555
Ni0 O28 1.916127 1_555
Ni0 O12 1.933984 1_555
Ni0 O16 1.955495 1_555
Ni0 O23 2.003937 1_655
Ni0 O26 2.003937 1_555
Ni0 O31 2.029651 1_555
Ni1 O34 1.916127 1_555
Ni1 O13 1.933984 1_555
Ni1 O17 1.955495 1_555
Ni1 O22 2.003937 1_555
Ni1 O27 2.003937 1_455
Ni1 O30 2.029651 1_555
Ni2 O33 1.916127 1_555
Ni2 O14 1.933984 1_555
Ni2 O18 1.955495 1_555
Ni2 O24 2.003937 1_555
Ni2 O21 2.003937 1_455
Ni2 O29 2.029651 1_565
Ni3 O32 1.916127 1_555
Ni3 O15 1.933984 1_555
Ni3 O19 1.955495 1_555
Ni3 O25 2.003937 1_655
Ni3 O20 2.003937 1_555
Ni3 O35 2.029651 1_545
Ni4 O7 1.977675 1_555
Ni4 O3 1.977675 1_544
Ni4 O13 2.012952 1_545
Ni4 O12 2.012952 1_554
Ni4 O11 2.079263 1_554
Ni4 O10 2.079263 1_545
Ni5 O1 1.977675 1_555
Ni5 O5 1.977675 1_555
Ni5 O14 2.012952 1_555
Ni5 O15 2.012952 1_555
Ni5 O9 2.079263 1_555
Ni5 O8 2.079263 1_555
Ni6 O4 1.977675 1_455
Ni6 O0 1.977675 1_555
Ni6 O14 2.012952 1_555
Ni6 O15 2.012952 1_455
Ni6 O9 2.079263 1_455
Ni6 O8 2.079263 1_555
Ni7 O6 1.977675 1_544
Ni7 O2 1.977675 1_455
Ni7 O13 2.012952 1_545
Ni7 O12 2.012952 1_454
Ni7 O11 2.079263 1_554
Ni7 O10 2.079263 1_445
O0 P7 1.530474 1_555
O1 P4 1.530474 1_555
O2 P5 1.530474 1_555
O3 P6 1.530474 1_555
O4 P4 1.530474 1_555
O5 P7 1.530474 1_555
O6 P6 1.530474 1_555
O7 P5 1.530474 1_555
O8 P3 1.549334 1_555
O9 P2 1.549334 1_555
O10 P1 1.549334 1_555
O11 P0 1.549334 1_555
O16 P4 1.573819 1_555
O17 P7 1.573819 1_555
O18 P6 1.573819 1_555
O19 P5 1.573819 1_555
O20 P3 1.545595 1_555
O21 P2 1.545595 1_555
O22 P1 1.545595 1_555
O23 P0 1.545595 1_555
O24 P2 1.545595 1_555
O25 P3 1.545595 1_555
O26 P0 1.545595 1_555
O27 P1 1.545595 1_555
O28 P1 1.521215 1_556
O29 P6 1.569217 1_545
O30 P7 1.569217 1_555
O31 P4 1.569217 1_555
O32 P2 1.521215 1_545
O33 P3 1.521215 1_565
O34 P0 1.521215 1_554
O35 P5 1.569217 1_565
