# generated using pymatgen
data_RbTb2Cl7
_symmetry_space_group_name_H-M   'P 1'
_cell_length_a   6.97428061
_cell_length_b   12.67041197
_cell_length_c   13.10577922
_cell_angle_alpha   90.00009149
_cell_angle_beta   89.99997811
_cell_angle_gamma   89.99999880
_symmetry_Int_Tables_number   1
_chemical_formula_structural   RbTb2Cl7
_chemical_formula_sum   'Rb4 Tb8 Cl28'
_cell_volume   1158.11850403
_cell_formula_units_Z   4
loop_
 _symmetry_equiv_pos_site_id
 _symmetry_equiv_pos_as_xyz
  1  'x, y, z'
loop_
 _atom_site_type_symbol
 _atom_site_label
 _atom_site_symmetry_multiplicity
 _atom_site_fract_x
 _atom_site_fract_y
 _atom_site_fract_z
 _atom_site_occupancy
  Rb  Rb0  1  0.25000065  0.80387025  0.04003879  1
  Rb  Rb1  1  0.74999971  0.19612894  0.95996058  1
  Rb  Rb2  1  0.75000013  0.30386933  0.45996099  1
  Rb  Rb3  1  0.25000121  0.69612851  0.54004087  1
  Tb  Tb0  1  0.25000083  0.46028153  0.23733582  1
  Tb  Tb1  1  0.74999877  0.53971908  0.76266492  1
  Tb  Tb2  1  0.75000051  0.96028140  0.26266446  1
  Tb  Tb3  1  0.25000044  0.03971834  0.73733418  1
  Tb  Tb4  1  0.25000065  0.15699196  0.24792369  1
  Tb  Tb5  1  0.75000078  0.84300767  0.75207397  1
  Tb  Tb6  1  0.75000054  0.65699216  0.25207666  1
  Tb  Tb7  1  0.24999994  0.34300801  0.74792617  1
  Cl  Cl0  1  0.00745703  0.30704126  0.17357712  1
  Cl  Cl1  1  0.99254306  0.69295913  0.82642190  1
  Cl  Cl2  1  0.99254385  0.80704129  0.32642306  1
  Cl  Cl3  1  0.50745764  0.69295921  0.82642182  1
  Cl  Cl4  1  0.00745801  0.19295901  0.67357780  1
  Cl  Cl5  1  0.49254398  0.30704120  0.17357715  1
  Cl  Cl6  1  0.49254244  0.19295895  0.67357781  1
  Cl  Cl7  1  0.50745684  0.80704126  0.32642278  1
  Cl  Cl8  1  0.01048002  0.57872058  0.12083746  1
  Cl  Cl9  1  0.98951799  0.42128075  0.87916293  1
  Cl  Cl10  1  0.98952013  0.07872076  0.37916269  1
  Cl  Cl11  1  0.51047313  0.42128143  0.87916487  1
  Cl  Cl12  1  0.01047493  0.92128157  0.62083498  1
  Cl  Cl13  1  0.48952014  0.57872058  0.12083757  1
  Cl  Cl14  1  0.48952501  0.92128155  0.62083506  1
  Cl  Cl15  1  0.51048014  0.07872060  0.37916279  1
  Cl  Cl16  1  0.00966132  0.03931804  0.12948306  1
  Cl  Cl17  1  0.99033908  0.96068100  0.87051527  1
  Cl  Cl18  1  0.99033915  0.53931815  0.37051723  1
  Cl  Cl19  1  0.50966125  0.96068090  0.87051536  1
  Cl  Cl20  1  0.00966124  0.46068051  0.62948437  1
  Cl  Cl21  1  0.49033874  0.03931806  0.12948295  1
  Cl  Cl22  1  0.49033895  0.46068030  0.62948463  1
  Cl  Cl23  1  0.50966147  0.53931805  0.37051721  1
  Cl  Cl24  1  0.25000062  0.31128339  0.39381591  1
  Cl  Cl25  1  0.75000041  0.68871577  0.60618349  1
  Cl  Cl26  1  0.75000037  0.81128337  0.10618425  1
  Cl  Cl27  1  0.24999990  0.18871611  0.89381638  1
loop_
_geom_bond_atom_site_label_1
_geom_bond_atom_site_label_2
_geom_bond_distance
_geom_bond_site_symmetry_2
Cl0 Tb0 2.707308 1_555
Cl0 Tb4 2.724943 1_555
Cl0 Rb1 3.610651 1_454
Cl1 Tb1 2.707301 1_555
Cl1 Tb5 2.724937 1_555
Cl1 Rb0 3.610650 1_656
Cl2 Tb2 2.707306 1_555
Cl2 Tb6 2.724937 1_555
Cl2 Rb3 3.610670 1_655
Cl3 Tb1 2.707288 1_555
Cl3 Tb5 2.724939 1_555
Cl3 Rb0 3.610647 1_556
Cl4 Tb3 2.707298 1_555
Cl4 Tb7 2.724939 1_555
Cl4 Rb2 3.610649 1_455
Cl5 Tb0 2.707305 1_555
Cl5 Tb4 2.724940 1_555
Cl5 Rb1 3.610645 1_554
Cl6 Tb3 2.707296 1_555
Cl6 Tb7 2.724942 1_555
Cl6 Rb2 3.610648 1_555
Cl7 Tb2 2.707306 1_555
Cl7 Tb6 2.724937 1_555
Cl7 Rb3 3.610666 1_555
Cl8 Tb6 2.691123 1_455
Cl8 Tb0 2.715450 1_555
Cl8 Rb0 3.471308 1_555
Cl9 Tb7 2.691119 1_655
Cl9 Tb1 2.715436 1_555
Cl9 Rb1 3.471318 1_555
Cl10 Tb4 2.691126 1_655
Cl10 Tb2 2.715444 1_545
Cl10 Rb2 3.471290 1_555
Cl11 Tb7 2.691098 1_555
Cl11 Tb1 2.715472 1_555
Cl11 Rb1 3.471346 1_555
Cl12 Tb5 2.691109 1_455
Cl12 Tb3 2.715458 1_565
Cl12 Rb3 3.471341 1_555
Cl13 Tb6 2.691127 1_555
Cl13 Tb0 2.715442 1_555
Cl13 Rb0 3.471305 1_555
Cl14 Tb5 2.691117 1_555
Cl14 Tb3 2.715453 1_565
Cl14 Rb3 3.471333 1_555
Cl15 Tb4 2.691124 1_555
Cl15 Tb2 2.715446 1_545
Cl15 Rb2 3.471292 1_555
Cl16 Tb2 2.707207 1_445
Cl16 Tb4 2.728028 1_555
Cl16 Rb1 3.487583 1_454
Cl16 Rb0 3.617092 1_545
Cl17 Tb3 2.707210 1_665
Cl17 Tb5 2.728024 1_555
Cl17 Rb0 3.487590 1_656
Cl17 Rb1 3.617098 1_565
Cl18 Tb0 2.707209 1_655
Cl18 Tb6 2.728027 1_555
Cl18 Rb3 3.487586 1_655
Cl18 Rb2 3.617103 1_555
Cl19 Tb3 2.707210 1_565
Cl19 Tb5 2.728029 1_555
Cl19 Rb0 3.487584 1_556
Cl19 Rb1 3.617097 1_565
Cl20 Tb1 2.707215 1_455
Cl20 Tb7 2.728026 1_555
Cl20 Rb2 3.487586 1_455
Cl20 Rb3 3.617096 1_555
Cl21 Tb2 2.707214 1_545
Cl21 Tb4 2.728022 1_555
Cl21 Rb1 3.487579 1_554
Cl21 Rb0 3.617089 1_545
Cl22 Tb1 2.707202 1_555
Cl22 Tb7 2.728024 1_555
Cl22 Rb2 3.487586 1_555
Cl22 Rb3 3.617093 1_555
Cl23 Tb0 2.707205 1_555
Cl23 Tb6 2.728029 1_555
Cl23 Rb3 3.487580 1_555
Cl23 Rb2 3.617101 1_555
Cl24 Tb4 2.734525 1_555
Cl24 Tb0 2.787438 1_555
Cl24 Rb2 3.594501 1_555
Cl24 Rb2 3.594507 1_455
Cl25 Tb5 2.734513 1_555
Cl25 Tb1 2.787439 1_555
Cl25 Rb3 3.594491 1_555
Cl25 Rb3 3.594501 1_655
Cl26 Tb6 2.734529 1_555
Cl26 Tb2 2.787434 1_555
Cl26 Rb0 3.594503 1_555
Cl26 Rb0 3.594506 1_655
Cl27 Tb7 2.734515 1_555
Cl27 Tb3 2.787451 1_555
Cl27 Rb1 3.594500 1_555
Cl27 Rb1 3.594502 1_455
