# generated using pymatgen
data_FeCl3
_symmetry_space_group_name_H-M   'P 1'
_cell_length_a   6.18182209
_cell_length_b   6.18182209
_cell_length_c   73.85290300
_cell_angle_alpha   90.00000000
_cell_angle_beta   90.00000000
_cell_angle_gamma   120.00000099
_symmetry_Int_Tables_number   1
_chemical_formula_structural   FeCl3
_chemical_formula_sum   'Fe24 Cl72'
_cell_volume   2444.16883982
_cell_formula_units_Z   24
loop_
 _symmetry_equiv_pos_site_id
 _symmetry_equiv_pos_as_xyz
  1  'x, y, z'
loop_
 _atom_site_type_symbol
 _atom_site_label
 _atom_site_symmetry_multiplicity
 _atom_site_fract_x
 _atom_site_fract_y
 _atom_site_fract_z
 _atom_site_occupancy
  Fe  Fe0  1  0.33333300  0.66666700  0.70831300  1
  Fe  Fe1  1  0.00000000  0.00000000  0.54144200  1
  Fe  Fe2  1  0.66666700  0.33333300  0.54202900  1
  Fe  Fe3  1  0.33333300  0.66666700  0.04181100  1
  Fe  Fe4  1  0.66666700  0.33333300  0.12457400  1
  Fe  Fe5  1  0.00000000  0.00000000  0.70850200  1
  Fe  Fe6  1  0.33333300  0.66666700  0.87542600  1
  Fe  Fe7  1  0.33333300  0.66666700  0.62490300  1
  Fe  Fe8  1  0.33333300  0.66666700  0.45797100  1
  Fe  Fe9  1  0.00000000  0.00000000  0.04151300  1
  Fe  Fe10  1  0.66666700  0.33333300  0.62557000  1
  Fe  Fe11  1  0.66666700  0.33333300  0.79198600  1
  Fe  Fe12  1  0.33333300  0.66666700  0.12400200  1
  Fe  Fe13  1  0.00000000  0.00000000  0.20855600  1
  Fe  Fe14  1  0.00000000  0.00000000  0.45855800  1
  Fe  Fe15  1  0.33333300  0.66666700  0.20801400  1
  Fe  Fe16  1  0.00000000  0.00000000  0.79144400  1
  Fe  Fe17  1  0.00000000  0.00000000  0.29149800  1
  Fe  Fe18  1  0.00000000  0.00000000  0.95848700  1
  Fe  Fe19  1  0.33333300  0.66666700  0.37443000  1
  Fe  Fe20  1  0.66666700  0.33333300  0.87599800  1
  Fe  Fe21  1  0.66666700  0.33333300  0.95818900  1
  Fe  Fe22  1  0.66666700  0.33333300  0.37509700  1
  Fe  Fe23  1  0.66666700  0.33333300  0.29168700  1
  Cl  Cl0  1  0.03253000  0.69845800  0.47689100  1
  Cl  Cl1  1  0.63263400  0.99956700  0.64392500  1
  Cl  Cl2  1  0.30004700  0.33283700  0.06024600  1
  Cl  Cl3  1  0.69952400  0.66601900  0.27281700  1
  Cl  Cl4  1  0.66592800  0.96747000  0.47689100  1
  Cl  Cl5  1  0.30041400  0.96781100  0.43960800  1
  Cl  Cl6  1  0.00057800  0.63369000  0.39344700  1
  Cl  Cl7  1  0.63173700  0.99931300  0.89447200  1
  Cl  Cl8  1  0.69751800  0.66593300  0.77320000  1
  Cl  Cl9  1  0.36736600  0.00043300  0.35607500  1
  Cl  Cl10  1  0.03188500  0.33291700  0.68988700  1
  Cl  Cl11  1  0.00043300  0.63306700  0.64392500  1
  Cl  Cl12  1  0.36826300  0.00068700  0.10552800  1
  Cl  Cl13  1  0.30103200  0.96811500  0.68988700  1
  Cl  Cl14  1  0.36687300  0.36743200  0.14292500  1
  Cl  Cl15  1  0.96747000  0.30154200  0.52310900  1
  Cl  Cl16  1  0.03279000  0.69995300  0.06024600  1
  Cl  Cl17  1  0.03218900  0.33260300  0.43960800  1
  Cl  Cl18  1  0.33406700  0.03158500  0.77320000  1
  Cl  Cl19  1  0.30248200  0.33406700  0.22680000  1
  Cl  Cl20  1  0.03204100  0.33253300  0.18955500  1
  Cl  Cl21  1  0.66739700  0.69958600  0.43960800  1
  Cl  Cl22  1  0.66746700  0.69950700  0.18955500  1
  Cl  Cl23  1  0.66708300  0.69896800  0.68988700  1
  Cl  Cl24  1  0.33260300  0.30041400  0.56039200  1
  Cl  Cl25  1  0.96649500  0.30047600  0.27281700  1
  Cl  Cl26  1  0.69958600  0.03218900  0.56039200  1
  Cl  Cl27  1  0.99942200  0.36631000  0.60655300  1
  Cl  Cl28  1  0.96721000  0.30004700  0.93975400  1
  Cl  Cl29  1  0.66617900  0.69919100  0.02295700  1
  Cl  Cl30  1  0.69950700  0.03204100  0.81044500  1
  Cl  Cl31  1  0.33382100  0.30080900  0.97704300  1
  Cl  Cl32  1  0.03301200  0.33382100  0.02295700  1
  Cl  Cl33  1  0.33398100  0.03350500  0.27281700  1
  Cl  Cl34  1  0.63369000  0.63311300  0.60655300  1
  Cl  Cl35  1  0.96841500  0.30248200  0.77320000  1
  Cl  Cl36  1  0.96781100  0.66739700  0.56039200  1
  Cl  Cl37  1  0.66601900  0.96649500  0.72718300  1
  Cl  Cl38  1  0.00055800  0.63312700  0.14292500  1
  Cl  Cl39  1  0.69896800  0.03188500  0.31011300  1
  Cl  Cl40  1  0.36688700  0.00057800  0.60655300  1
  Cl  Cl41  1  0.69919100  0.03301200  0.97704300  1
  Cl  Cl42  1  0.66593300  0.96841500  0.22680000  1
  Cl  Cl43  1  0.63306700  0.63263400  0.35607500  1
  Cl  Cl44  1  0.30154200  0.33407200  0.47689100  1
  Cl  Cl45  1  0.69995300  0.66716300  0.93975400  1
  Cl  Cl46  1  0.63242500  0.63173700  0.10552800  1
  Cl  Cl47  1  0.36631000  0.36688700  0.39344700  1
  Cl  Cl48  1  0.63312700  0.63256800  0.85707500  1
  Cl  Cl49  1  0.03350500  0.69952400  0.72718300  1
  Cl  Cl50  1  0.33291700  0.30103200  0.31011300  1
  Cl  Cl51  1  0.36757500  0.36826300  0.89447200  1
  Cl  Cl52  1  0.69845800  0.66592800  0.52310900  1
  Cl  Cl53  1  0.99931300  0.36757500  0.10552800  1
  Cl  Cl54  1  0.66716300  0.96721000  0.06024600  1
  Cl  Cl55  1  0.63256800  0.99944200  0.14292500  1
  Cl  Cl56  1  0.63311300  0.99942200  0.39344700  1
  Cl  Cl57  1  0.03158500  0.69751800  0.22680000  1
  Cl  Cl58  1  0.99944200  0.36687300  0.85707500  1
  Cl  Cl59  1  0.33283700  0.03279000  0.93975400  1
  Cl  Cl60  1  0.00068700  0.63242500  0.89447200  1
  Cl  Cl61  1  0.36693300  0.36736600  0.64392500  1
  Cl  Cl62  1  0.96811500  0.66708300  0.31011300  1
  Cl  Cl63  1  0.99956700  0.36693300  0.35607500  1
  Cl  Cl64  1  0.30049300  0.96795900  0.18955500  1
  Cl  Cl65  1  0.30047600  0.33398100  0.72718300  1
  Cl  Cl66  1  0.30080900  0.96698800  0.02295700  1
  Cl  Cl67  1  0.33407200  0.03253000  0.52310900  1
  Cl  Cl68  1  0.96795900  0.66746700  0.81044500  1
  Cl  Cl69  1  0.36743200  0.00055800  0.85707500  1
  Cl  Cl70  1  0.96698800  0.66617900  0.97704300  1
  Cl  Cl71  1  0.33253300  0.30049300  0.81044500  1
loop_
_geom_bond_atom_site_label_1
_geom_bond_atom_site_label_2
_geom_bond_distance
_geom_bond_site_symmetry_2
Cl0 Fe14 2.392332 1_565
Cl0 Fe8 2.411283 1_555
Cl1 Fe10 2.388489 1_565
Cl1 Fe7 2.413363 1_555
Cl2 Fe3 2.393761 1_555
Cl2 Fe9 2.402399 1_555
Cl3 Fe17 2.404437 1_665
Cl3 Fe23 2.407340 1_555
Cl4 Fe14 2.392332 1_665
Cl4 Fe8 2.411285 1_555
Cl5 Fe8 2.392707 1_555
Cl5 Fe14 2.411765 1_565
Cl6 Fe22 2.390034 1_455
Cl6 Fe19 2.413733 1_555
Cl7 Fe20 2.392875 1_565
Cl7 Fe6 2.411776 1_555
Cl8 Fe16 2.390633 1_665
Cl8 Fe11 2.407606 1_555
Cl9 Fe19 2.388489 1_545
Cl9 Fe22 2.413363 1_555
Cl10 Fe0 2.395084 1_555
Cl10 Fe5 2.399729 1_555
Cl11 Fe10 2.388491 1_455
Cl11 Fe7 2.413361 1_555
Cl12 Fe12 2.392875 1_545
Cl12 Fe4 2.411776 1_555
Cl13 Fe0 2.395081 1_555
Cl13 Fe5 2.399729 1_565
Cl14 Fe4 2.388825 1_555
Cl14 Fe12 2.408612 1_555
Cl15 Fe1 2.392332 1_655
Cl15 Fe2 2.411283 1_555
Cl16 Fe3 2.393756 1_555
Cl16 Fe9 2.402399 1_565
Cl17 Fe8 2.392710 1_555
Cl17 Fe14 2.411765 1_555
Cl18 Fe16 2.390633 1_555
Cl18 Fe11 2.407604 1_555
Cl19 Fe13 2.390633 1_555
Cl19 Fe15 2.407606 1_555
Cl20 Fe15 2.397257 1_555
Cl20 Fe13 2.413917 1_555
Cl21 Fe8 2.392712 1_555
Cl21 Fe14 2.411765 1_665
Cl22 Fe15 2.397261 1_555
Cl22 Fe13 2.413919 1_665
Cl23 Fe0 2.395086 1_555
Cl23 Fe5 2.399729 1_665
Cl24 Fe2 2.392712 1_555
Cl24 Fe1 2.411765 1_555
Cl25 Fe17 2.404437 1_655
Cl25 Fe23 2.407335 1_555
Cl26 Fe2 2.392707 1_555
Cl26 Fe1 2.411765 1_655
Cl27 Fe7 2.390034 1_655
Cl27 Fe10 2.413733 1_555
Cl28 Fe21 2.393756 1_555
Cl28 Fe18 2.402399 1_655
Cl29 Fe9 2.399393 1_665
Cl29 Fe3 2.408167 1_555
Cl30 Fe11 2.397251 1_555
Cl30 Fe16 2.413922 1_655
Cl31 Fe18 2.399393 1_555
Cl31 Fe21 2.408167 1_555
Cl32 Fe9 2.399393 1_555
Cl32 Fe3 2.408164 1_555
Cl33 Fe17 2.404437 1_555
Cl33 Fe23 2.407338 1_555
Cl34 Fe7 2.390034 1_555
Cl34 Fe10 2.413743 1_555
Cl35 Fe16 2.390633 1_655
Cl35 Fe11 2.407601 1_555
Cl36 Fe2 2.392710 1_555
Cl36 Fe1 2.411765 1_665
Cl37 Fe5 2.404437 1_665
Cl37 Fe0 2.407338 1_555
Cl38 Fe4 2.388819 1_455
Cl38 Fe12 2.408612 1_555
Cl39 Fe23 2.395081 1_555
Cl39 Fe17 2.399729 1_655
Cl40 Fe7 2.390034 1_545
Cl40 Fe10 2.413737 1_555
Cl41 Fe18 2.399393 1_655
Cl41 Fe21 2.408162 1_555
Cl42 Fe13 2.390633 1_665
Cl42 Fe15 2.407604 1_555
Cl43 Fe19 2.388494 1_555
Cl43 Fe22 2.413366 1_555
Cl44 Fe14 2.392332 1_555
Cl44 Fe8 2.411288 1_555
Cl45 Fe21 2.393761 1_555
Cl45 Fe18 2.402399 1_665
Cl46 Fe12 2.392885 1_555
Cl46 Fe4 2.411776 1_555
Cl47 Fe22 2.390034 1_555
Cl47 Fe19 2.413743 1_555
Cl48 Fe6 2.388825 1_555
Cl48 Fe20 2.408612 1_555
Cl49 Fe5 2.404437 1_565
Cl49 Fe0 2.407335 1_555
Cl50 Fe23 2.395086 1_555
Cl50 Fe17 2.399729 1_555
Cl51 Fe20 2.392885 1_555
Cl51 Fe6 2.411776 1_555
Cl52 Fe1 2.392332 1_665
Cl52 Fe2 2.411288 1_555
Cl53 Fe12 2.392879 1_655
Cl53 Fe4 2.411776 1_555
Cl54 Fe3 2.393758 1_555
Cl54 Fe9 2.402399 1_665
Cl55 Fe4 2.388815 1_565
Cl55 Fe12 2.408612 1_555
Cl56 Fe22 2.390034 1_565
Cl56 Fe19 2.413737 1_555
Cl57 Fe13 2.390633 1_565
Cl57 Fe15 2.407601 1_555
Cl58 Fe6 2.388819 1_655
Cl58 Fe20 2.408612 1_555
Cl59 Fe21 2.393758 1_555
Cl59 Fe18 2.402399 1_555
Cl60 Fe20 2.392879 1_455
Cl60 Fe6 2.411776 1_555
Cl61 Fe10 2.388494 1_555
Cl61 Fe7 2.413366 1_555
Cl62 Fe23 2.395084 1_555
Cl62 Fe17 2.399729 1_665
Cl63 Fe19 2.388491 1_655
Cl63 Fe22 2.413361 1_555
Cl64 Fe15 2.397251 1_555
Cl64 Fe13 2.413922 1_565
Cl65 Fe5 2.404437 1_555
Cl65 Fe0 2.407340 1_555
Cl66 Fe9 2.399393 1_565
Cl66 Fe3 2.408162 1_555
Cl67 Fe1 2.392332 1_555
Cl67 Fe2 2.411285 1_555
Cl68 Fe11 2.397257 1_555
Cl68 Fe16 2.413917 1_665
Cl69 Fe6 2.388815 1_545
Cl69 Fe20 2.408612 1_555
Cl70 Fe18 2.399393 1_665
Cl70 Fe21 2.408164 1_555
Cl71 Fe11 2.397261 1_555
Cl71 Fe16 2.413919 1_555
