# generated using pymatgen
data_NiAs2Rh3
_symmetry_space_group_name_H-M   'P 1'
_cell_length_a   3.95625400
_cell_length_b   5.78688500
_cell_length_c   7.50879000
_cell_angle_alpha   90.00000000
_cell_angle_beta   90.00000000
_cell_angle_gamma   90.00000000
_symmetry_Int_Tables_number   1
_chemical_formula_structural   NiAs2Rh3
_chemical_formula_sum   'Ni2 As4 Rh6'
_cell_volume   171.90914363
_cell_formula_units_Z   2
loop_
 _symmetry_equiv_pos_site_id
 _symmetry_equiv_pos_as_xyz
  1  'x, y, z'
loop_
 _atom_site_type_symbol
 _atom_site_label
 _atom_site_symmetry_multiplicity
 _atom_site_fract_x
 _atom_site_fract_y
 _atom_site_fract_z
 _atom_site_occupancy
  Ni  Ni0  1  0.50000000  0.46334000  0.56932100  1
  Ni  Ni1  1  0.50000000  0.96334000  0.43067900  1
  As  As0  1  0.50000000  0.27303300  0.85721500  1
  As  As1  1  0.50000000  0.77303300  0.14278500  1
  As  As2  1  0.00000000  0.73100300  0.63981400  1
  As  As3  1  0.00000000  0.23100300  0.36018600  1
  Rh  Rh0  1  0.00000000  0.52846400  0.92890300  1
  Rh  Rh1  1  0.00000000  0.02846400  0.07109700  1
  Rh  Rh2  1  0.50000000  0.35141700  0.18239300  1
  Rh  Rh3  1  0.50000000  0.85141700  0.81760700  1
  Rh  Rh4  1  0.00000000  0.65274200  0.32935300  1
  Rh  Rh5  1  0.00000000  0.15274200  0.67064700  1
loop_
_geom_bond_atom_site_label_1
_geom_bond_atom_site_label_2
_geom_bond_distance
_geom_bond_site_symmetry_2
Ni0 Rh5 2.778936 1_655
Ni0 Rh5 2.778936 1_555
Ni0 Rh4 2.891546 1_555
Ni0 Rh4 2.891546 1_655
Ni0 Rh3 2.918757 1_555
Ni0 Rh2 2.976679 1_555
Ni1 Rh4 2.778936 1_555
Ni1 Rh4 2.778936 1_655
Ni1 Rh5 2.891546 1_565
Ni1 Rh5 2.891546 1_665
Ni1 Rh2 2.918757 1_565
Ni1 Rh3 2.976679 1_555
As0 Ni0 2.426093 1_555
As0 Rh3 2.457903 1_545
As0 Rh2 2.483469 1_556
As0 Rh5 2.521919 1_655
As0 Rh5 2.521919 1_555
As0 Rh0 2.527384 1_655
As0 Rh0 2.527384 1_555
As0 Rh1 2.914663 1_656
As0 Rh1 2.914663 1_556
As1 Ni1 2.426093 1_555
As1 Rh2 2.457903 1_555
As1 Rh3 2.483469 1_554
As1 Rh4 2.521919 1_655
As1 Rh4 2.521919 1_555
As1 Rh1 2.527384 1_565
As1 Rh1 2.527384 1_665
As1 Rh0 2.914663 1_654
As1 Rh0 2.914663 1_554
As2 Rh4 2.374771 1_555
As2 Rh5 2.451512 1_565
As2 Rh0 2.466926 1_555
As2 Rh3 2.486121 1_555
As2 Rh3 2.486121 1_455
As2 Ni0 2.567560 1_455
As2 Ni0 2.567560 1_555
As2 Ni1 2.861239 1_555
As2 Ni1 2.861239 1_455
As3 Rh5 2.374771 1_555
As3 Rh4 2.451512 1_555
As3 Rh1 2.466926 1_555
As3 Rh2 2.486121 1_555
As3 Rh2 2.486121 1_455
As3 Ni1 2.567560 1_545
As3 Ni1 2.567560 1_445
As3 Ni0 2.861239 1_455
As3 Ni0 2.861239 1_555
