# generated using pymatgen
data_Cs2GeSe4
_symmetry_space_group_name_H-M   'P 1'
_cell_length_a   8.64784862
_cell_length_b   8.64784862
_cell_length_c   10.25809384
_cell_angle_alpha   62.03310030
_cell_angle_beta   62.03310030
_cell_angle_gamma   53.15286075
_symmetry_Int_Tables_number   1
_chemical_formula_structural   Cs2GeSe4
_chemical_formula_sum   'Cs4 Ge2 Se8'
_cell_volume   522.73663729
_cell_formula_units_Z   2
loop_
 _symmetry_equiv_pos_site_id
 _symmetry_equiv_pos_as_xyz
  1  'x, y, z'
loop_
 _atom_site_type_symbol
 _atom_site_label
 _atom_site_symmetry_multiplicity
 _atom_site_fract_x
 _atom_site_fract_y
 _atom_site_fract_z
 _atom_site_occupancy
  Cs  Cs0  1  0.15897193  0.15897193  0.71355922  1
  Cs  Cs1  1  0.84102807  0.84102807  0.28644078  1
  Cs  Cs2  1  0.40820943  0.40820943  0.85795812  1
  Cs  Cs3  1  0.59179057  0.59179057  0.14204188  1
  Ge  Ge0  1  0.15721564  0.15721564  0.29726269  1
  Ge  Ge1  1  0.84278436  0.84278436  0.70273731  1
  Se  Se0  1  0.83821512  0.33380180  0.46572339  1
  Se  Se1  1  0.33380180  0.83821512  0.46572339  1
  Se  Se2  1  0.16178488  0.66619820  0.53427661  1
  Se  Se3  1  0.66619820  0.16178488  0.53427661  1
  Se  Se4  1  0.12579777  0.12579777  0.10291149  1
  Se  Se5  1  0.87420223  0.87420223  0.89708851  1
  Se  Se6  1  0.31521931  0.31521931  0.26965467  1
  Se  Se7  1  0.68478069  0.68478069  0.73034533  1
loop_
_geom_bond_atom_site_label_1
_geom_bond_atom_site_label_2
_geom_bond_distance
_geom_bond_site_symmetry_2
Cs0 Se4 3.750475 1_556
Cs0 Se5 3.774959 1_445
Cs0 Se1 3.797733 1_545
Cs0 Se0 3.797733 1_455
Cs0 Se6 3.877478 1_555
Cs0 Se3 3.891435 1_555
Cs0 Se2 3.891435 1_555
Cs0 Se7 3.902571 1_455
Cs0 Se7 3.902571 1_545
Cs1 Se5 3.750475 1_554
Cs1 Se4 3.774959 1_665
Cs1 Se3 3.797733 1_565
Cs1 Se2 3.797733 1_655
Cs1 Se7 3.877478 1_555
Cs1 Se1 3.891435 1_555
Cs1 Se0 3.891435 1_555
Cs1 Se6 3.902571 1_565
Cs1 Se6 3.902571 1_655
Cs2 Se6 3.678843 1_556
Cs2 Se4 3.726286 1_556
Cs2 Se7 3.760622 1_555
Cs2 Se3 3.811812 1_555
Cs2 Se2 3.811812 1_555
Cs2 Se5 3.896836 1_545
Cs2 Se5 3.896836 1_455
Cs2 Se0 3.994560 1_555
Cs2 Se1 3.994560 1_555
Cs3 Se7 3.678843 1_554
Cs3 Se5 3.726286 1_554
Cs3 Se6 3.760622 1_555
Cs3 Se0 3.811812 1_555
Cs3 Se1 3.811812 1_555
Cs3 Se4 3.896836 1_655
Cs3 Se4 3.896836 1_565
Cs3 Se3 3.994560 1_555
Cs3 Se2 3.994560 1_555
Ge0 Se4 2.286264 1_555
Ge0 Se6 2.308161 1_555
Ge0 Se1 2.424825 1_545
Ge0 Se0 2.424825 1_455
Ge1 Se5 2.286264 1_555
Ge1 Se7 2.308161 1_555
Ge1 Se2 2.424825 1_655
Ge1 Se3 2.424825 1_565
