# generated using pymatgen
data_Zr5AlSb3
_symmetry_space_group_name_H-M   'P 1'
_cell_length_a   8.69807342
_cell_length_b   8.69807342
_cell_length_c   5.84025669
_cell_angle_alpha   90.00000000
_cell_angle_beta   90.00000000
_cell_angle_gamma   119.99999937
_symmetry_Int_Tables_number   1
_chemical_formula_structural   Zr5AlSb3
_chemical_formula_sum   'Zr10 Al2 Sb6'
_cell_volume   382.65615929
_cell_formula_units_Z   2
loop_
 _symmetry_equiv_pos_site_id
 _symmetry_equiv_pos_as_xyz
  1  'x, y, z'
loop_
 _atom_site_type_symbol
 _atom_site_label
 _atom_site_symmetry_multiplicity
 _atom_site_fract_x
 _atom_site_fract_y
 _atom_site_fract_z
 _atom_site_occupancy
  Zr  Zr0  1  0.72880447  0.72880447  0.75000000  1
  Zr  Zr1  1  0.27119553  1.00000000  0.75000000  1
  Zr  Zr2  1  1.00000000  0.27119553  0.75000000  1
  Zr  Zr3  1  0.27119553  0.27119553  0.25000000  1
  Zr  Zr4  1  0.72880447  0.00000000  0.25000000  1
  Zr  Zr5  1  0.00000000  0.72880447  0.25000000  1
  Zr  Zr6  1  0.66666700  0.33333300  0.00000000  1
  Zr  Zr7  1  0.33333300  0.66666700  0.00000000  1
  Zr  Zr8  1  0.33333300  0.66666700  0.50000000  1
  Zr  Zr9  1  0.66666700  0.33333300  0.50000000  1
  Al  Al0  1  -0.00000000  0.00000000  0.00000000  1
  Al  Al1  1  -0.00000000  0.00000000  0.50000000  1
  Sb  Sb0  1  0.38688280  0.38688280  0.75000000  1
  Sb  Sb1  1  0.61311720  0.00000000  0.75000000  1
  Sb  Sb2  1  0.00000000  0.61311720  0.75000000  1
  Sb  Sb3  1  0.61311720  0.61311720  0.25000000  1
  Sb  Sb4  1  0.38688280  1.00000000  0.25000000  1
  Sb  Sb5  1  1.00000000  0.38688280  0.25000000  1
loop_
_geom_bond_atom_site_label_1
_geom_bond_atom_site_label_2
_geom_bond_distance
_geom_bond_site_symmetry_2
Al0 Zr4 2.774184 1_455
Al0 Zr5 2.774184 1_545
Al0 Zr1 2.774184 1_544
Al0 Zr2 2.774184 1_454
Al0 Zr0 2.774184 1_444
Al0 Zr3 2.774184 1_555
Al1 Zr4 2.774184 1_455
Al1 Zr5 2.774184 1_545
Al1 Zr1 2.774184 1_545
Al1 Zr2 2.774184 1_455
Al1 Zr0 2.774184 1_445
Al1 Zr3 2.774184 1_555
Sb0 Zr0 2.974060 1_555
Sb0 Zr2 2.991738 1_455
Sb0 Zr1 2.991738 1_545
Sb0 Zr6 3.066689 1_556
Sb0 Zr7 3.066689 1_556
Sb0 Zr9 3.066689 1_555
Sb0 Zr8 3.066689 1_555
Sb0 Zr3 3.088641 1_555
Sb0 Zr3 3.088641 1_556
Sb1 Zr1 2.974060 1_545
Sb1 Zr0 2.991738 1_545
Sb1 Zr2 2.991738 1_555
Sb1 Zr9 3.066682 1_555
Sb1 Zr6 3.066682 1_556
Sb1 Zr8 3.066684 1_545
Sb1 Zr7 3.066684 1_546
Sb1 Zr4 3.088641 1_555
Sb1 Zr4 3.088641 1_556
Sb2 Zr2 2.974060 1_455
Sb2 Zr0 2.991738 1_455
Sb2 Zr1 2.991738 1_555
Sb2 Zr7 3.066682 1_556
Sb2 Zr8 3.066682 1_555
Sb2 Zr6 3.066684 1_456
Sb2 Zr9 3.066684 1_455
Sb2 Zr5 3.088641 1_556
Sb2 Zr5 3.088641 1_555
Sb3 Zr3 2.974060 1_555
Sb3 Zr5 2.991738 1_655
Sb3 Zr4 2.991738 1_565
Sb3 Zr8 3.066689 1_555
Sb3 Zr9 3.066689 1_555
Sb3 Zr7 3.066689 1_555
Sb3 Zr6 3.066689 1_555
Sb3 Zr0 3.088641 1_555
Sb3 Zr0 3.088641 1_554
Sb4 Zr4 2.974060 1_565
Sb4 Zr3 2.991738 1_565
Sb4 Zr5 2.991738 1_555
Sb4 Zr7 3.066682 1_555
Sb4 Zr8 3.066682 1_555
Sb4 Zr6 3.066684 1_565
Sb4 Zr9 3.066684 1_565
Sb4 Zr1 3.088641 1_555
Sb4 Zr1 3.088641 1_554
Sb5 Zr5 2.974060 1_655
Sb5 Zr3 2.991738 1_655
Sb5 Zr4 2.991738 1_555
Sb5 Zr6 3.066682 1_555
Sb5 Zr9 3.066682 1_555
Sb5 Zr7 3.066684 1_655
Sb5 Zr8 3.066684 1_655
Sb5 Zr2 3.088641 1_554
Sb5 Zr2 3.088641 1_555
