# generated using pymatgen
data_TiZnO2
_symmetry_space_group_name_H-M   'P 1'
_cell_length_a   2.90884400
_cell_length_b   7.62232565
_cell_length_c   8.53804553
_cell_angle_alpha   82.22674337
_cell_angle_beta   81.44963362
_cell_angle_gamma   84.39804863
_symmetry_Int_Tables_number   1
_chemical_formula_structural   TiZnO2
_chemical_formula_sum   'Ti4 Zn4 O8'
_cell_volume   184.90138801
_cell_formula_units_Z   4
loop_
 _symmetry_equiv_pos_site_id
 _symmetry_equiv_pos_as_xyz
  1  'x, y, z'
loop_
 _atom_site_type_symbol
 _atom_site_label
 _atom_site_symmetry_multiplicity
 _atom_site_fract_x
 _atom_site_fract_y
 _atom_site_fract_z
 _atom_site_occupancy
  Ti  Ti0  1  0.02861800  0.80347500  0.57354600  1
  Ti  Ti1  1  0.60513700  0.94061600  0.24438700  1
  Ti  Ti2  1  0.39486300  0.05938400  0.75561300  1
  Ti  Ti3  1  0.97138200  0.19652500  0.42645400  1
  Zn  Zn0  1  0.96837100  0.57023300  0.27695400  1
  Zn  Zn1  1  0.03162900  0.42976700  0.72304600  1
  Zn  Zn2  1  0.79179600  0.35054000  0.05306900  1
  Zn  Zn3  1  0.20820400  0.64946000  0.94693100  1
  O  O0  1  0.39252800  0.25306500  0.57941300  1
  O  O1  1  0.92456800  0.87589000  0.79941200  1
  O  O2  1  0.07543200  0.12411000  0.20058800  1
  O  O3  1  0.60747200  0.74693500  0.42058700  1
  O  O4  1  0.50175300  0.61491900  0.70270000  1
  O  O5  1  0.18739100  0.79510100  0.14347500  1
  O  O6  1  0.49824700  0.38508100  0.29730000  1
  O  O7  1  0.81260900  0.20489900  0.85652500  1
loop_
_geom_bond_atom_site_label_1
_geom_bond_atom_site_label_2
_geom_bond_distance
_geom_bond_site_symmetry_2
O0 Ti2 1.960367 1_555
O0 Ti3 2.020681 1_555
O0 Ti3 2.030540 1_455
O0 Zn1 2.051345 1_555
O1 Ti2 2.011835 1_665
O1 Ti2 2.019736 1_565
O1 Ti0 2.048653 1_655
O1 Zn3 2.165383 1_655
O2 Ti1 2.011835 1_445
O2 Ti1 2.019736 1_545
O2 Ti3 2.048653 1_455
O2 Zn2 2.165383 1_455
O3 Ti1 1.960367 1_555
O3 Ti0 2.020681 1_555
O3 Ti0 2.030540 1_655
O3 Zn0 2.051345 1_555
O4 Zn1 1.996551 1_655
O4 Zn1 2.032696 1_555
O4 Zn3 2.172990 1_555
O4 Ti0 2.193665 1_555
O4 Ti0 2.264771 1_655
O5 Zn0 2.027668 1_455
O5 Ti1 2.069338 1_555
O5 Ti1 2.073398 1_455
O5 Zn3 2.124302 1_554
O6 Zn0 1.996551 1_455
O6 Zn0 2.032696 1_555
O6 Zn2 2.172990 1_555
O6 Ti3 2.193665 1_555
O6 Ti3 2.264771 1_455
O7 Zn1 2.027668 1_655
O7 Ti2 2.069338 1_555
O7 Ti2 2.073398 1_655
O7 Zn2 2.124302 1_556
