# generated using pymatgen
data_K2TlPCO7
_symmetry_space_group_name_H-M   'P 1'
_cell_length_a   7.25348900
_cell_length_b   5.60469200
_cell_length_c   9.94146636
_cell_angle_alpha   88.75329132
_cell_angle_beta   90.00000000
_cell_angle_gamma   90.00000000
_symmetry_Int_Tables_number   1
_chemical_formula_structural   K2TlPCO7
_chemical_formula_sum   'K4 Tl2 P2 C2 O14'
_cell_volume   404.06044368
_cell_formula_units_Z   2
loop_
 _symmetry_equiv_pos_site_id
 _symmetry_equiv_pos_as_xyz
  1  'x, y, z'
loop_
 _atom_site_type_symbol
 _atom_site_label
 _atom_site_symmetry_multiplicity
 _atom_site_fract_x
 _atom_site_fract_y
 _atom_site_fract_z
 _atom_site_occupancy
  K  K0  1  0.01696700  0.24011000  0.77434100  1
  K  K1  1  0.48303300  0.24011000  0.77434100  1
  K  K2  1  0.51696700  0.75989000  0.22565900  1
  K  K3  1  0.98303300  0.75989000  0.22565900  1
  Tl  Tl0  1  0.75000000  0.76996700  0.63035800  1
  Tl  Tl1  1  0.25000000  0.23003300  0.36964200  1
  P  P0  1  0.25000000  0.71471100  0.57454700  1
  P  P1  1  0.75000000  0.28528900  0.42545300  1
  C  C0  1  0.75000000  0.72800200  0.90629400  1
  C  C1  1  0.25000000  0.27199800  0.09370600  1
  O  O0  1  0.25000000  0.29748800  0.96784300  1
  O  O1  1  0.75000000  0.93758100  0.84420200  1
  O  O2  1  0.75000000  0.54124800  0.82580200  1
  O  O3  1  0.07642300  0.78544200  0.65594500  1
  O  O4  1  0.42357700  0.78544200  0.65594500  1
  O  O5  1  0.75000000  0.16803700  0.56971200  1
  O  O6  1  0.25000000  0.43260200  0.55848100  1
  O  O7  1  0.75000000  0.56739800  0.44151900  1
  O  O8  1  0.25000000  0.83196300  0.43028800  1
  O  O9  1  0.57642300  0.21455800  0.34405500  1
  O  O10  1  0.92357700  0.21455800  0.34405500  1
  O  O11  1  0.25000000  0.45875200  0.17419800  1
  O  O12  1  0.25000000  0.06241900  0.15579800  1
  O  O13  1  0.75000000  0.70251200  0.03215700  1
loop_
_geom_bond_atom_site_label_1
_geom_bond_atom_site_label_2
_geom_bond_distance
_geom_bond_site_symmetry_2
K0 O0 2.586128 1_555
K0 O2 2.626354 1_455
K0 O1 2.656298 1_445
K0 O5 2.843794 1_455
K0 O3 2.862797 1_545
K0 O6 2.919842 1_555
K1 O0 2.586128 1_555
K1 O2 2.626354 1_555
K1 O1 2.656298 1_545
K1 O5 2.843794 1_555
K1 O4 2.862797 1_545
K1 O6 2.919842 1_555
K2 O13 2.586128 1_555
K2 O11 2.626354 1_555
K2 O12 2.656298 1_565
K2 O8 2.843794 1_555
K2 O9 2.862797 1_565
K2 O7 2.919842 1_555
K3 O13 2.586128 1_555
K3 O11 2.626354 1_655
K3 O12 2.656298 1_665
K3 O8 2.843794 1_655
K3 O10 2.862797 1_565
K3 O7 2.919842 1_555
C0 O13 1.256300 1_556
C0 O1 1.315004 1_555
C0 O2 1.331300 1_555
C1 O0 1.256300 1_554
C1 O12 1.315004 1_555
C1 O11 1.331300 1_555
O1 Tl0 2.342856 1_555
O2 Tl0 2.304372 1_555
O3 P0 1.552778 1_555
O3 Tl0 2.383111 1_455
O4 P0 1.552778 1_555
O4 Tl0 2.383111 1_555
O5 P1 1.564489 1_555
O5 Tl0 2.298390 1_545
O6 P0 1.592634 1_555
O6 Tl1 2.214979 1_555
O7 P1 1.592634 1_555
O7 Tl0 2.214979 1_555
O8 P0 1.564489 1_555
O8 Tl1 2.298390 1_565
O9 P1 1.552778 1_555
O9 Tl1 2.383111 1_555
O10 P1 1.552778 1_555
O10 Tl1 2.383111 1_655
O11 Tl1 2.304372 1_555
O12 Tl1 2.342856 1_555
