# generated using pymatgen
data_KLuBeF6
_symmetry_space_group_name_H-M   'P 1'
_cell_length_a   5.73175400
_cell_length_b   6.39184146
_cell_length_c   7.00500763
_cell_angle_alpha   113.12277400
_cell_angle_beta   90.00000000
_cell_angle_gamma   90.00000000
_symmetry_Int_Tables_number   1
_chemical_formula_structural   KLuBeF6
_chemical_formula_sum   'K2 Lu2 Be2 F12'
_cell_volume   236.02175454
_cell_formula_units_Z   2
loop_
 _symmetry_equiv_pos_site_id
 _symmetry_equiv_pos_as_xyz
  1  'x, y, z'
loop_
 _atom_site_type_symbol
 _atom_site_label
 _atom_site_symmetry_multiplicity
 _atom_site_fract_x
 _atom_site_fract_y
 _atom_site_fract_z
 _atom_site_occupancy
  K  K0  1  0.75000000  0.07113800  0.20316200  1
  K  K1  1  0.25000000  0.92886200  0.79683800  1
  Lu  Lu0  1  0.75000000  0.39054900  0.82173000  1
  Lu  Lu1  1  0.25000000  0.60945100  0.17827000  1
  Be  Be0  1  0.75000000  0.76614100  0.53557600  1
  Be  Be1  1  0.25000000  0.23385900  0.46442400  1
  F  F0  1  0.96918700  0.76501700  0.40150700  1
  F  F1  1  0.03081300  0.23498300  0.59849300  1
  F  F2  1  0.46918700  0.23498300  0.59849300  1
  F  F3  1  0.53081300  0.76501700  0.40150700  1
  F  F4  1  0.75000000  0.55821900  0.59522600  1
  F  F5  1  0.25000000  0.44178100  0.40477400  1
  F  F6  1  0.99893800  0.67497800  0.96601800  1
  F  F7  1  0.00106200  0.32502200  0.03398200  1
  F  F8  1  0.49893800  0.32502200  0.03398200  1
  F  F9  1  0.50106200  0.67497800  0.96601800  1
  F  F10  1  0.75000000  0.99035600  0.73825100  1
  F  F11  1  0.25000000  0.00964400  0.26174900  1
loop_
_geom_bond_atom_site_label_1
_geom_bond_atom_site_label_2
_geom_bond_distance
_geom_bond_site_symmetry_2
Be0 F4 1.541754 1_555
Be0 F3 1.566882 1_555
Be0 F0 1.566882 1_555
Be0 F10 1.572104 1_555
Be1 F5 1.541754 1_555
Be1 F1 1.566882 1_555
Be1 F2 1.566882 1_555
Be1 F11 1.572104 1_555
F0 Lu1 2.191695 1_655
F0 K1 3.013071 1_655
F0 K0 3.077761 1_565
F1 Lu0 2.191695 1_455
F1 K0 3.013071 1_455
F1 K1 3.077761 1_545
F2 Lu0 2.191695 1_555
F2 K0 3.013071 1_555
F2 K1 3.077761 1_545
F3 Lu1 2.191695 1_555
F3 K1 3.013071 1_555
F3 K0 3.077761 1_565
F4 Lu0 2.236432 1_555
F4 K0 3.243464 1_555
F5 Lu1 2.236432 1_555
F5 K1 3.243464 1_555
F6 Lu0 2.217993 1_555
F6 Lu1 2.223955 1_656
F6 K1 2.760287 1_655
F6 K0 2.811350 1_566
F7 Lu1 2.217993 1_555
F7 Lu0 2.223955 1_454
F7 K0 2.760287 1_455
F7 K1 2.811350 1_544
F8 Lu1 2.217993 1_555
F8 Lu0 2.223955 1_554
F8 K0 2.760287 1_555
F8 K1 2.811350 1_544
F9 Lu0 2.217993 1_555
F9 Lu1 2.223955 1_556
F9 K1 2.760287 1_555
F9 K0 2.811350 1_566
F10 Lu0 2.389631 1_565
F10 K1 2.943276 1_555
F10 K1 2.943276 1_655
F10 K0 3.090633 1_566
F11 Lu1 2.389631 1_545
F11 K0 2.943276 1_555
F11 K0 2.943276 1_455
F11 K1 3.090633 1_544
