# generated using pymatgen
data_Mg6CrSb
_symmetry_space_group_name_H-M   'P 1'
_cell_length_a   5.05281500
_cell_length_b   6.35919200
_cell_length_c   10.82975600
_cell_angle_alpha   90.00000000
_cell_angle_beta   90.00000000
_cell_angle_gamma   90.00000000
_symmetry_Int_Tables_number   1
_chemical_formula_structural   Mg6CrSb
_chemical_formula_sum   'Mg12 Cr2 Sb2'
_cell_volume   347.97977829
_cell_formula_units_Z   2
loop_
 _symmetry_equiv_pos_site_id
 _symmetry_equiv_pos_as_xyz
  1  'x, y, z'
loop_
 _atom_site_type_symbol
 _atom_site_label
 _atom_site_symmetry_multiplicity
 _atom_site_fract_x
 _atom_site_fract_y
 _atom_site_fract_z
 _atom_site_occupancy
  Mg  Mg0  1  0.00000000  0.24396000  0.08144400  1
  Mg  Mg1  1  0.00000000  0.75604000  0.08144400  1
  Mg  Mg2  1  0.00000000  0.50000000  0.83407300  1
  Mg  Mg3  1  0.50000000  0.24677700  0.91484700  1
  Mg  Mg4  1  0.50000000  0.75322300  0.91484700  1
  Mg  Mg5  1  0.50000000  0.50000000  0.66789200  1
  Mg  Mg6  1  0.00000000  0.74396000  0.58144400  1
  Mg  Mg7  1  0.00000000  0.25604000  0.58144400  1
  Mg  Mg8  1  0.00000000  0.00000000  0.33407300  1
  Mg  Mg9  1  0.50000000  0.74677700  0.41484700  1
  Mg  Mg10  1  0.50000000  0.25322300  0.41484700  1
  Mg  Mg11  1  0.50000000  0.00000000  0.16789200  1
  Cr  Cr0  1  0.00000000  0.50000000  0.33281200  1
  Cr  Cr1  1  0.00000000  0.00000000  0.83281200  1
  Sb  Sb0  1  0.50000000  0.50000000  0.17264100  1
  Sb  Sb1  1  0.50000000  0.00000000  0.67264100  1
loop_
_geom_bond_atom_site_label_1
_geom_bond_atom_site_label_2
_geom_bond_distance
_geom_bond_site_symmetry_2
Mg0 Mg1 3.102777 1_545
Mg0 Mg3 3.104547 1_554
Mg0 Mg3 3.104547 1_454
Mg0 Mg11 3.109024 1_455
Mg0 Mg11 3.109024 1_555
Mg0 Mg2 3.134952 1_554
Mg0 Mg8 3.145157 1_555
Mg0 Sb0 3.163737 1_455
Mg0 Sb0 3.163737 1_555
Mg0 Mg1 3.256415 1_555
Mg1 Mg4 3.104547 1_554
Mg1 Mg4 3.104547 1_454
Mg1 Mg11 3.109024 1_465
Mg1 Mg11 3.109024 1_565
Mg1 Mg2 3.134952 1_554
Mg1 Mg8 3.145157 1_565
Mg1 Sb0 3.163737 1_455
Mg1 Sb0 3.163737 1_555
Mg2 Mg5 3.101879 1_455
Mg2 Mg5 3.101879 1_555
Mg2 Mg3 3.121056 1_455
Mg2 Mg4 3.121056 1_455
Mg2 Mg3 3.121056 1_555
Mg2 Mg4 3.121056 1_555
Mg2 Mg7 3.145157 1_555
Mg2 Mg6 3.145157 1_555
Mg3 Sb1 3.056633 1_555
Mg3 Mg5 3.121826 1_555
Mg3 Mg4 3.138605 1_545
Mg3 Mg4 3.220587 1_555
Mg3 Sb0 3.222957 1_556
Mg4 Sb1 3.056633 1_565
Mg4 Mg5 3.121826 1_555
Mg4 Sb0 3.222957 1_556
Mg5 Mg7 3.109024 1_655
Mg5 Mg7 3.109024 1_555
Mg5 Mg6 3.109024 1_655
Mg5 Mg6 3.109024 1_555
Mg5 Mg9 3.157940 1_555
Mg5 Sb1 3.180012 1_555
Mg5 Sb1 3.180012 1_565
Mg6 Mg7 3.102777 1_555
Mg6 Mg9 3.104547 1_455
Mg6 Mg9 3.104547 1_555
Mg6 Mg8 3.134952 1_565
Mg6 Sb1 3.163737 1_465
Mg6 Sb1 3.163737 1_565
Mg6 Mg7 3.256415 1_565
Mg7 Mg8 3.134952 1_555
Mg7 Sb1 3.163737 1_555
Mg7 Sb1 3.163737 1_455
Mg8 Mg9 3.121056 1_545
Mg8 Mg9 3.121056 1_445
Mg9 Sb0 3.056633 1_555
Mg9 Sb1 3.222957 1_565
Mg10 Sb0 3.056633 1_555
Mg10 Mg7 3.104547 1_555
Mg10 Mg7 3.104547 1_655
Mg10 Mg8 3.121056 1_655
Mg10 Mg8 3.121056 1_555
Mg10 Mg11 3.121826 1_555
Mg10 Mg9 3.138605 1_555
Mg10 Mg5 3.157940 1_555
Mg10 Mg9 3.220587 1_545
Mg10 Sb1 3.222957 1_555
Mg11 Mg8 3.101879 1_655
Mg11 Mg8 3.101879 1_555
Mg11 Mg9 3.121826 1_545
Mg11 Mg4 3.157940 1_544
Mg11 Mg3 3.157940 1_554
Mg11 Sb0 3.180012 1_555
Mg11 Sb0 3.180012 1_545
Cr0 Sb0 3.064574 1_455
Cr0 Sb0 3.064574 1_555
Cr0 Mg9 3.103987 1_555
Cr0 Mg9 3.103987 1_455
Cr0 Mg10 3.103987 1_455
Cr0 Mg10 3.103987 1_555
Cr0 Mg7 3.107576 1_555
Cr0 Mg6 3.107576 1_555
Cr0 Mg0 3.172023 1_555
Cr0 Mg1 3.172023 1_555
Cr0 Mg8 3.179625 1_565
Cr0 Mg8 3.179625 1_555
Cr1 Sb1 3.064574 1_455
Cr1 Sb1 3.064574 1_555
Cr1 Mg3 3.103987 1_555
Cr1 Mg4 3.103987 1_445
Cr1 Mg3 3.103987 1_455
Cr1 Mg4 3.103987 1_545
Cr1 Mg1 3.107576 1_546
Cr1 Mg0 3.107576 1_556
Cr1 Mg6 3.172023 1_545
Cr1 Mg7 3.172023 1_555
Cr1 Mg2 3.179625 1_555
Cr1 Mg2 3.179625 1_545
