# generated using pymatgen
data_USbRh
_symmetry_space_group_name_H-M   'P 1'
_cell_length_a   4.64014309
_cell_length_b   4.64014335
_cell_length_c   4.64014308
_cell_angle_alpha   60.00000190
_cell_angle_beta   60.00000010
_cell_angle_gamma   60.00001055
_symmetry_Int_Tables_number   1
_chemical_formula_structural   USbRh
_chemical_formula_sum   'U1 Sb1 Rh1'
_cell_volume   70.64463517
_cell_formula_units_Z   1
loop_
 _symmetry_equiv_pos_site_id
 _symmetry_equiv_pos_as_xyz
  1  'x, y, z'
loop_
 _atom_site_type_symbol
 _atom_site_label
 _atom_site_symmetry_multiplicity
 _atom_site_fract_x
 _atom_site_fract_y
 _atom_site_fract_z
 _atom_site_occupancy
  U  U0  1  0.50000000  0.50000000  0.50000000  1
  Sb  Sb0  1  0.00000000  0.00000000  0.00000000  1
  Rh  Rh0  1  0.25000000  0.25000000  0.25000000  1
loop_
_geom_bond_atom_site_label_1
_geom_bond_atom_site_label_2
_geom_bond_distance
_geom_bond_site_symmetry_2
Sb0 U0 3.281077 1_554
Sb0 U0 3.281077 1_445
Sb0 U0 3.281077 1_454
Sb0 U0 3.281077 1_544
Sb0 U0 3.281077 1_545
Sb0 U0 3.281077 1_455
Rh0 Sb0 2.841496 1_556
Rh0 U0 2.841496 1_555
Rh0 Sb0 2.841496 1_555
Rh0 U0 2.841496 1_554
Rh0 Sb0 2.841496 1_655
Rh0 U0 2.841496 1_455
Rh0 U0 2.841496 1_545
Rh0 Sb0 2.841496 1_565
