# generated using pymatgen
data_V(ZnN)4
_symmetry_space_group_name_H-M   'P 1'
_cell_length_a   5.39095402
_cell_length_b   5.34352327
_cell_length_c   8.87383897
_cell_angle_alpha   65.26776606
_cell_angle_beta   91.41511328
_cell_angle_gamma   71.42688852
_symmetry_Int_Tables_number   1
_chemical_formula_structural   V(ZnN)4
_chemical_formula_sum   'V2 Zn8 N8'
_cell_volume   216.35021998
_cell_formula_units_Z   2
loop_
 _symmetry_equiv_pos_site_id
 _symmetry_equiv_pos_as_xyz
  1  'x, y, z'
loop_
 _atom_site_type_symbol
 _atom_site_label
 _atom_site_symmetry_multiplicity
 _atom_site_fract_x
 _atom_site_fract_y
 _atom_site_fract_z
 _atom_site_occupancy
  V  V0  1  0.66350100  0.89664100  0.77647600  1
  V  V1  1  0.33649900  0.10335900  0.22352400  1
  Zn  Zn0  1  0.78042400  0.57931900  0.20030300  1
  Zn  Zn1  1  0.21957600  0.42068100  0.79969700  1
  Zn  Zn2  1  0.76093500  0.23579500  0.99845200  1
  Zn  Zn3  1  0.23906500  0.76420500  0.00154800  1
  Zn  Zn4  1  0.71523000  0.49492800  0.60484800  1
  Zn  Zn5  1  0.28477000  0.50507200  0.39515200  1
  Zn  Zn6  1  0.13848000  0.03992700  0.61918700  1
  Zn  Zn7  1  0.86152000  0.96007300  0.38081300  1
  N  N0  1  0.88795400  0.77791400  0.64304900  1
  N  N1  1  0.11204600  0.22208600  0.35695100  1
  N  N2  1  0.83309700  0.84866500  0.97423800  1
  N  N3  1  0.16690300  0.15133500  0.02576200  1
  N  N4  1  0.44613700  0.67705700  0.82140100  1
  N  N5  1  0.55386300  0.32294300  0.17859900  1
  N  N6  1  0.55908900  0.72162600  0.34918800  1
  N  N7  1  0.44091100  0.27837400  0.65081200  1
loop_
_geom_bond_atom_site_label_1
_geom_bond_atom_site_label_2
_geom_bond_distance
_geom_bond_site_symmetry_2
N0 V0 1.865150 1_555
N0 Zn1 2.062816 1_655
N0 Zn7 2.093518 1_555
N0 Zn4 2.139815 1_555
N0 Zn6 2.190824 1_665
N1 V1 1.865150 1_555
N1 Zn0 2.062816 1_455
N1 Zn6 2.093518 1_555
N1 Zn5 2.139815 1_555
N1 Zn7 2.190824 1_445
N2 V0 1.837480 1_555
N2 Zn0 2.012200 1_556
N2 Zn3 2.074913 1_656
N2 Zn2 2.083311 1_565
N3 V1 1.837480 1_555
N3 Zn1 2.012200 1_554
N3 Zn2 2.074913 1_454
N3 Zn3 2.083311 1_545
N4 V0 1.848333 1_555
N4 Zn3 2.097240 1_556
N4 Zn6 2.150220 1_565
N4 Zn1 2.163489 1_555
N4 Zn2 2.264410 1_555
N5 V1 1.848333 1_555
N5 Zn2 2.097240 1_554
N5 Zn7 2.150220 1_545
N5 Zn0 2.163489 1_555
N5 Zn3 2.264410 1_555
N6 V1 1.820867 1_565
N6 Zn0 2.021884 1_555
N6 Zn4 2.068677 1_555
N6 Zn5 2.101747 1_555
N6 Zn7 2.441377 1_555
N7 V0 1.820867 1_545
N7 Zn1 2.021884 1_555
N7 Zn5 2.068677 1_555
N7 Zn4 2.101747 1_555
N7 Zn6 2.441377 1_555
