# generated using pymatgen
data_ZnFe5O7
_symmetry_space_group_name_H-M   'P 1'
_cell_length_a   5.32448983
_cell_length_b   5.32448983
_cell_length_c   18.27177300
_cell_angle_alpha   90.00000000
_cell_angle_beta   90.00000000
_cell_angle_gamma   147.40977708
_symmetry_Int_Tables_number   1
_chemical_formula_structural   ZnFe5O7
_chemical_formula_sum   'Zn2 Fe10 O14'
_cell_volume   279.01325118
_cell_formula_units_Z   2
loop_
 _symmetry_equiv_pos_site_id
 _symmetry_equiv_pos_as_xyz
  1  'x, y, z'
loop_
 _atom_site_type_symbol
 _atom_site_label
 _atom_site_symmetry_multiplicity
 _atom_site_fract_x
 _atom_site_fract_y
 _atom_site_fract_z
 _atom_site_occupancy
  Zn  Zn0  1  0.21338500  0.78661500  0.75000000  1
  Zn  Zn1  1  0.78661500  0.21338500  0.25000000  1
  Fe  Fe0  1  0.72927700  0.27072300  0.57758200  1
  Fe  Fe1  1  0.53369800  0.46630200  0.16013000  1
  Fe  Fe2  1  0.00000000  0.00000000  0.50000000  1
  Fe  Fe3  1  0.00000000  0.00000000  0.00000000  1
  Fe  Fe4  1  0.46630200  0.53369800  0.83987000  1
  Fe  Fe5  1  0.27072300  0.72927700  0.42241800  1
  Fe  Fe6  1  0.27072300  0.72927700  0.07758200  1
  Fe  Fe7  1  0.72927700  0.27072300  0.92241800  1
  Fe  Fe8  1  0.46630200  0.53369800  0.66013000  1
  Fe  Fe9  1  0.53369800  0.46630200  0.33987000  1
  O  O0  1  0.34918400  0.65081600  0.96502100  1
  O  O1  1  0.65081600  0.34918400  0.03497900  1
  O  O2  1  0.65081600  0.34918400  0.46502100  1
  O  O3  1  0.34918400  0.65081600  0.53497900  1
  O  O4  1  0.81726200  0.18273800  0.82877100  1
  O  O5  1  0.18273800  0.81726200  0.17122900  1
  O  O6  1  0.18273800  0.81726200  0.32877100  1
  O  O7  1  0.81726200  0.18273800  0.67122900  1
  O  O8  1  0.09564900  0.90435100  0.90172600  1
  O  O9  1  0.90435100  0.09564900  0.09827400  1
  O  O10  1  0.90435100  0.09564900  0.40172600  1
  O  O11  1  0.09564900  0.90435100  0.59827400  1
  O  O12  1  0.57579500  0.42420500  0.75000000  1
  O  O13  1  0.42420500  0.57579500  0.25000000  1
loop_
_geom_bond_atom_site_label_1
_geom_bond_atom_site_label_2
_geom_bond_distance
_geom_bond_site_symmetry_2
Fe0 O7 1.933033 1_555
Fe0 O11 2.059225 1_545
Fe0 O11 2.059225 1_655
Fe0 O3 2.083263 1_655
Fe0 O3 2.083263 1_545
Fe0 O2 2.207514 1_555
Fe1 O13 1.987193 1_555
Fe1 O5 2.143298 1_545
Fe1 O5 2.143298 1_655
Fe1 O9 2.292868 1_455
Fe1 O9 2.292868 1_565
Fe1 O1 2.581115 1_555
Fe2 O10 2.044534 1_455
Fe2 O11 2.044534 1_545
Fe2 O2 2.239804 1_555
Fe2 O3 2.239804 1_555
Fe2 O3 2.239804 1_445
Fe2 O2 2.239804 1_445
Fe3 O8 2.044534 1_544
Fe3 O9 2.044534 1_455
Fe3 O1 2.239804 1_555
Fe3 O0 2.239804 1_554
Fe3 O0 2.239804 1_444
Fe3 O1 2.239804 1_445
Fe4 O12 1.987193 1_555
Fe4 O4 2.143298 1_455
Fe4 O4 2.143298 1_565
Fe4 O8 2.292868 1_545
Fe4 O8 2.292868 1_655
Fe4 O0 2.581115 1_555
Fe5 O6 1.933033 1_555
Fe5 O10 2.059225 1_565
Fe5 O10 2.059225 1_455
Fe5 O2 2.083263 1_455
Fe5 O2 2.083263 1_565
Fe5 O3 2.207514 1_555
Fe6 O5 1.933033 1_555
Fe6 O9 2.059225 1_565
Fe6 O9 2.059225 1_455
Fe6 O1 2.083263 1_455
Fe6 O1 2.083263 1_565
Fe6 O0 2.207514 1_554
Fe7 O4 1.933033 1_555
Fe7 O8 2.059225 1_545
Fe7 O8 2.059225 1_655
Fe7 O0 2.083263 1_655
Fe7 O0 2.083263 1_545
Fe7 O1 2.207514 1_556
Fe8 O12 1.987193 1_555
Fe8 O7 2.143298 1_455
Fe8 O7 2.143298 1_565
Fe8 O11 2.292868 1_545
Fe8 O11 2.292868 1_655
Fe8 O3 2.581115 1_555
Fe9 O13 1.987193 1_555
Fe9 O6 2.143298 1_545
Fe9 O6 2.143298 1_655
Fe9 O10 2.292868 1_455
Fe9 O10 2.292868 1_565
Fe9 O2 2.581115 1_555
O4 Zn0 2.330408 1_545
O4 Zn0 2.330408 1_655
O5 Zn1 2.330408 1_565
O5 Zn1 2.330408 1_455
O6 Zn1 2.330408 1_455
O6 Zn1 2.330408 1_565
O7 Zn0 2.330408 1_545
O7 Zn0 2.330408 1_655
O12 Zn0 2.051762 1_655
O12 Zn0 2.051762 1_545
O13 Zn1 2.051762 1_565
O13 Zn1 2.051762 1_455
