# generated using pymatgen
data_Zn3Cr2O7
_symmetry_space_group_name_H-M   'P 1'
_cell_length_a   9.62680021
_cell_length_b   9.62680021
_cell_length_c   5.12102000
_cell_angle_alpha   90.00000000
_cell_angle_beta   90.00000000
_cell_angle_gamma   148.84745925
_symmetry_Int_Tables_number   1
_chemical_formula_structural   Zn3Cr2O7
_chemical_formula_sum   'Zn6 Cr4 O14'
_cell_volume   245.51512105
_cell_formula_units_Z   2
loop_
 _symmetry_equiv_pos_site_id
 _symmetry_equiv_pos_as_xyz
  1  'x, y, z'
loop_
 _atom_site_type_symbol
 _atom_site_label
 _atom_site_symmetry_multiplicity
 _atom_site_fract_x
 _atom_site_fract_y
 _atom_site_fract_z
 _atom_site_occupancy
  Zn  Zn0  1  0.73931400  0.73931400  0.27824300  1
  Zn  Zn1  1  0.26068600  0.26068600  0.77824300  1
  Zn  Zn2  1  0.97855600  0.57716500  0.20940400  1
  Zn  Zn3  1  0.02144400  0.42283500  0.70940400  1
  Zn  Zn4  1  0.57716500  0.97855600  0.20940400  1
  Zn  Zn5  1  0.42283500  0.02144400  0.70940400  1
  Cr  Cr0  1  0.14976600  0.35350200  0.24521900  1
  Cr  Cr1  1  0.85023400  0.64649800  0.74521900  1
  Cr  Cr2  1  0.64649800  0.85023400  0.74521900  1
  Cr  Cr3  1  0.35350200  0.14976600  0.24521900  1
  O  O0  1  0.35189000  0.94664500  0.31994200  1
  O  O1  1  0.64811000  0.05335500  0.81994200  1
  O  O2  1  0.05335500  0.64811000  0.81994200  1
  O  O3  1  0.94664500  0.35189000  0.31994200  1
  O  O4  1  0.54625200  0.28902000  0.92916700  1
  O  O5  1  0.45374800  0.71098000  0.42916700  1
  O  O6  1  0.71098000  0.45374800  0.42916700  1
  O  O7  1  0.28902000  0.54625200  0.92916700  1
  O  O8  1  0.99685700  0.84357000  0.06139900  1
  O  O9  1  0.00314300  0.15643000  0.56139900  1
  O  O10  1  0.36164600  0.36164600  0.17149200  1
  O  O11  1  0.63835400  0.63835400  0.67149200  1
  O  O12  1  0.84357000  0.99685700  0.06139900  1
  O  O13  1  0.15643000  0.00314300  0.56139900  1
loop_
_geom_bond_atom_site_label_1
_geom_bond_atom_site_label_2
_geom_bond_distance
_geom_bond_site_symmetry_2
Cr0 O7 1.897953 1_554
Cr0 O9 1.905229 1_555
Cr0 O3 1.979480 1_455
Cr0 O10 2.008848 1_555
Cr0 O12 2.010193 1_445
Cr0 O5 2.014231 1_555
Cr1 O6 1.897953 1_555
Cr1 O8 1.905229 1_556
Cr1 O2 1.979480 1_655
Cr1 O11 2.008848 1_555
Cr1 O13 2.010193 1_665
Cr1 O4 2.014231 1_555
Cr2 O5 1.897953 1_555
Cr2 O12 1.905229 1_556
Cr2 O1 1.979480 1_565
Cr2 O11 2.008848 1_555
Cr2 O9 2.010193 1_665
Cr2 O7 2.014231 1_555
Cr3 O4 1.897953 1_554
Cr3 O13 1.905229 1_555
Cr3 O0 1.979480 1_545
Cr3 O10 2.008848 1_555
Cr3 O8 2.010193 1_445
Cr3 O6 2.014231 1_555
O0 Zn4 1.994411 1_555
O0 Zn2 2.002191 1_455
O0 Zn5 2.030029 1_565
O1 Zn5 1.994411 1_555
O1 Zn3 2.002191 1_655
O1 Zn4 2.030029 1_546
O2 Zn3 1.994411 1_555
O2 Zn5 2.002191 1_565
O2 Zn2 2.030029 1_456
O3 Zn2 1.994411 1_555
O3 Zn4 2.002191 1_545
O3 Zn3 2.030029 1_655
O4 Zn5 2.018709 1_555
O5 Zn4 2.018709 1_555
O6 Zn2 2.018709 1_555
O7 Zn3 2.018709 1_555
O8 Zn0 2.031844 1_555
O9 Zn1 2.031844 1_555
O10 Zn0 2.027627 1_555
O10 Zn1 2.080380 1_554
O11 Zn1 2.027627 1_555
O11 Zn0 2.080380 1_555
O12 Zn0 2.031844 1_555
O13 Zn1 2.031844 1_555
