# generated using pymatgen
data_LiCoSnO4
_symmetry_space_group_name_H-M   'P 1'
_cell_length_a   6.16295081
_cell_length_b   6.18091450
_cell_length_c   6.17561844
_cell_angle_alpha   91.42342833
_cell_angle_beta   119.24298902
_cell_angle_gamma   57.37913672
_symmetry_Int_Tables_number   1
_chemical_formula_structural   LiCoSnO4
_chemical_formula_sum   'Li2 Co2 Sn2 O8'
_cell_volume   163.52808367
_cell_formula_units_Z   2
loop_
 _symmetry_equiv_pos_site_id
 _symmetry_equiv_pos_as_xyz
  1  'x, y, z'
loop_
 _atom_site_type_symbol
 _atom_site_label
 _atom_site_symmetry_multiplicity
 _atom_site_fract_x
 _atom_site_fract_y
 _atom_site_fract_z
 _atom_site_occupancy
  Li  Li0  1  0.74690500  0.12945400  0.62222700  1
  Li  Li1  1  0.25311000  0.87053800  0.37778000  1
  Co  Co0  1  0.50000500  0.99999300  0.00000200  1
  Co  Co1  1  0.00000000  0.49999500  0.99999400  1
  Sn  Sn0  1  0.49997700  0.50003500  0.99999900  1
  Sn  Sn1  1  0.99996800  0.50003000  0.49999500  1
  O  O0  1  0.54802100  0.72627700  0.79917600  1
  O  O1  1  0.96874700  0.73062500  0.22272000  1
  O  O2  1  0.98295500  0.26759100  0.25258300  1
  O  O3  1  0.51178900  0.75029200  0.23610500  1
  O  O4  1  0.48822500  0.24969500  0.76389700  1
  O  O5  1  0.01705200  0.73239800  0.74741400  1
  O  O6  1  0.03126300  0.26936300  0.77728300  1
  O  O7  1  0.45198600  0.27371300  0.20082600  1
loop_
_geom_bond_atom_site_label_1
_geom_bond_atom_site_label_2
_geom_bond_distance
_geom_bond_site_symmetry_2
Li0 O5 1.955488 1_645
Li0 O4 1.977976 1_555
Li0 O7 2.148889 1_555
Li0 O6 2.165450 1_655
Li1 O2 1.955473 1_465
Li1 O3 1.977994 1_555
Li1 O0 2.148862 1_555
Li1 O1 2.165496 1_455
Co0 O1 2.013755 1_555
Co0 O6 2.013756 1_564
Co0 O0 2.050007 1_554
Co0 O7 2.050017 1_565
Co0 O3 2.097808 1_555
Co0 O4 2.097838 1_564
Co1 O0 1.940086 1_455
Co1 O7 1.940114 1_556
Co1 O6 1.956084 1_555
Co1 O1 1.956141 1_456
Co1 O5 2.223016 1_555
Co1 O2 2.223029 1_456
O0 Sn0 2.114855 1_555
O1 Sn1 2.122324 1_555
O2 Sn1 2.075195 1_555
O2 Sn0 2.078830 1_554
O3 Sn1 2.101804 1_555
O3 Sn0 2.104672 1_554
O4 Sn1 2.102119 1_455
O4 Sn0 2.104999 1_555
O5 Sn1 2.074945 1_455
O5 Sn0 2.078635 1_555
O6 Sn1 2.122369 1_455
O7 Sn0 2.114987 1_554
