# generated using pymatgen
data_Lu2Fe12P7
_symmetry_space_group_name_H-M   'P 1'
_cell_length_a   3.61943300
_cell_length_b   8.92937690
_cell_length_c   8.93069959
_cell_angle_alpha   119.93711500
_cell_angle_beta   90.00000000
_cell_angle_gamma   90.00000000
_symmetry_Int_Tables_number   1
_chemical_formula_structural   Lu2Fe12P7
_chemical_formula_sum   'Lu2 Fe12 P7'
_cell_volume   250.12244191
_cell_formula_units_Z   1
loop_
 _symmetry_equiv_pos_site_id
 _symmetry_equiv_pos_as_xyz
  1  'x, y, z'
loop_
 _atom_site_type_symbol
 _atom_site_label
 _atom_site_symmetry_multiplicity
 _atom_site_fract_x
 _atom_site_fract_y
 _atom_site_fract_z
 _atom_site_occupancy
  Lu  Lu0  1  0.00000000  0.66637400  0.33311300  1
  Lu  Lu1  1  0.50000000  0.33356900  0.66687000  1
  Fe  Fe0  1  0.00000000  0.37169900  0.94387500  1
  Fe  Fe1  1  0.00000000  0.05617100  0.42804000  1
  Fe  Fe2  1  0.00000000  0.57226300  0.62845000  1
  Fe  Fe3  1  0.00000000  0.88073100  0.72367000  1
  Fe  Fe4  1  0.00000000  0.27595500  0.15673800  1
  Fe  Fe5  1  0.00000000  0.84333900  0.11932400  1
  Fe  Fe6  1  0.50000000  0.95146000  0.56691300  1
  Fe  Fe7  1  0.50000000  0.43313100  0.38446900  1
  Fe  Fe8  1  0.50000000  0.61527200  0.04852400  1
  Fe  Fe9  1  0.50000000  0.12013500  0.90454100  1
  Fe  Fe10  1  0.50000000  0.09561900  0.21566500  1
  Fe  Fe11  1  0.50000000  0.78435900  0.87984500  1
  P  P0  1  0.00000000  0.11651100  0.70411400  1
  P  P1  1  0.00000000  0.29660100  0.41255600  1
  P  P2  1  0.00000000  0.58766700  0.88407800  1
  P  P3  1  0.50000000  0.71050700  0.59655200  1
  P  P4  1  0.50000000  0.40315600  0.11413700  1
  P  P5  1  0.50000000  0.88543700  0.28873400  1
  P  P6  1  0.00000000  0.00004500  0.99979300  1
loop_
_geom_bond_atom_site_label_1
_geom_bond_atom_site_label_2
_geom_bond_distance
_geom_bond_site_symmetry_2
Lu0 P5 2.834125 1_555
Lu0 P5 2.834125 1_455
Lu0 P4 2.834795 1_455
Lu0 P4 2.834795 1_555
Lu0 P3 2.835517 1_555
Lu0 P3 2.835517 1_455
Lu1 P0 2.790295 1_655
Lu1 P0 2.790295 1_555
Lu1 P2 2.791611 1_555
Lu1 P2 2.791611 1_655
Lu1 P1 2.791791 1_555
Lu1 P1 2.791791 1_655
Fe0 P0 2.215250 1_555
Fe0 P2 2.243221 1_555
Fe0 P4 2.289055 1_456
Fe0 P4 2.289055 1_556
Fe0 Lu1 2.944527 1_555
Fe0 Lu1 2.944527 1_455
Fe0 Lu0 3.142924 1_556
Fe1 P1 2.219138 1_555
Fe1 P0 2.245721 1_555
Fe1 P5 2.292165 1_445
Fe1 P5 2.292165 1_545
Fe1 Lu1 2.947326 1_555
Fe1 Lu1 2.947326 1_455
Fe1 Lu0 3.144588 1_545
Fe2 P2 2.217499 1_555
Fe2 P1 2.244885 1_555
Fe2 P3 2.287146 1_555
Fe2 P3 2.287146 1_455
Fe2 Lu1 2.943730 1_455
Fe2 Lu1 2.943730 1_555
Fe2 Lu0 3.142486 1_555
Fe3 P6 2.143325 1_565
Fe3 P0 2.197744 1_565
Fe3 P3 2.269793 1_555
Fe3 P3 2.269793 1_455
Fe3 Lu0 3.027534 1_555
Fe4 P6 2.141908 1_554
Fe4 P1 2.198443 1_555
Fe4 P4 2.267428 1_455
Fe4 P4 2.267428 1_555
Fe4 Lu0 3.025530 1_555
Fe5 P6 2.142065 1_564
Fe5 P2 2.199690 1_554
Fe5 P5 2.266660 1_555
Fe5 P5 2.266660 1_455
Fe5 Lu0 3.025500 1_555
Fe6 P5 2.248918 1_555
Fe6 P0 2.268504 1_665
Fe6 P0 2.268504 1_565
Fe6 P3 2.295148 1_555
Fe6 Lu0 2.968149 1_555
Fe6 Lu0 2.968149 1_655
Fe6 Lu1 3.065706 1_565
Fe7 P3 2.244924 1_555
Fe7 P1 2.264837 1_555
Fe7 P1 2.264837 1_655
Fe7 P4 2.292443 1_555
Fe7 Lu0 2.962523 1_555
Fe7 Lu0 2.962523 1_655
Fe7 Lu1 3.064138 1_555
Fe8 P4 2.244681 1_555
Fe8 P2 2.265249 1_554
Fe8 P2 2.265249 1_654
Fe8 P5 2.292687 1_555
Fe8 Lu0 2.964013 1_555
Fe8 Lu0 2.964013 1_655
Fe8 Lu1 3.063895 1_554
Fe9 P4 2.273545 1_556
Fe9 P6 2.461515 1_655
Fe9 P6 2.461515 1_555
Fe9 P0 2.534214 1_555
Fe9 P0 2.534214 1_655
Fe10 P5 2.273890 1_545
Fe10 P6 2.465357 1_654
Fe10 P6 2.465357 1_554
Fe10 P1 2.537331 1_555
Fe10 P1 2.537331 1_655
Fe11 P3 2.273886 1_555
Fe11 P6 2.464275 1_565
Fe11 P6 2.464275 1_665
Fe11 P2 2.535250 1_655
Fe11 P2 2.535250 1_555
