# generated using pymatgen
data_Ca(TiS2)2
_symmetry_space_group_name_H-M   'P 1'
_cell_length_a   3.56129300
_cell_length_b   5.96213100
_cell_length_c   6.94373545
_cell_angle_alpha   72.73114855
_cell_angle_beta   90.00000000
_cell_angle_gamma   90.00000000
_symmetry_Int_Tables_number   1
_chemical_formula_structural   Ca(TiS2)2
_chemical_formula_sum   'Ca1 Ti2 S4'
_cell_volume   140.78955402
_cell_formula_units_Z   1
loop_
 _symmetry_equiv_pos_site_id
 _symmetry_equiv_pos_as_xyz
  1  'x, y, z'
loop_
 _atom_site_type_symbol
 _atom_site_label
 _atom_site_symmetry_multiplicity
 _atom_site_fract_x
 _atom_site_fract_y
 _atom_site_fract_z
 _atom_site_occupancy
  Ca  Ca0  1  0.00000000  0.50000000  0.50000000  1
  Ti  Ti0  1  0.00000000  0.00000000  0.00000000  1
  Ti  Ti1  1  0.50000000  0.50000000  0.00000000  1
  S  S0  1  0.50000000  0.76415900  0.21932300  1
  S  S1  1  0.00000000  0.25884400  0.21355100  1
  S  S2  1  0.50000000  0.23584100  0.78067700  1
  S  S3  1  0.00000000  0.74115600  0.78644900  1
loop_
_geom_bond_atom_site_label_1
_geom_bond_atom_site_label_2
_geom_bond_distance
_geom_bond_site_symmetry_2
Ca0 S0 2.761733 1_455
Ca0 S0 2.761733 1_555
Ca0 S2 2.761733 1_455
Ca0 S2 2.761733 1_555
Ca0 S3 2.778744 1_555
Ca0 S1 2.778744 1_555
S0 Ti0 2.489131 1_565
S0 Ti0 2.489131 1_665
S0 Ti1 2.494752 1_555
S1 Ti0 2.437034 1_555
S1 Ti1 2.484147 1_555
S1 Ti1 2.484147 1_455
S2 Ti0 2.489131 1_656
S2 Ti0 2.489131 1_556
S2 Ti1 2.494752 1_556
S3 Ti0 2.437034 1_566
S3 Ti1 2.484147 1_456
S3 Ti1 2.484147 1_556
