# generated using pymatgen
data_Rb2NdCuF6
_symmetry_space_group_name_H-M   'P 1'
_cell_length_a   6.44325789
_cell_length_b   6.44325807
_cell_length_c   6.44325806
_cell_angle_alpha   59.99999925
_cell_angle_beta   59.99999895
_cell_angle_gamma   59.99999898
_symmetry_Int_Tables_number   1
_chemical_formula_structural   Rb2NdCuF6
_chemical_formula_sum   'Rb2 Nd1 Cu1 F6'
_cell_volume   189.14791546
_cell_formula_units_Z   1
loop_
 _symmetry_equiv_pos_site_id
 _symmetry_equiv_pos_as_xyz
  1  'x, y, z'
loop_
 _atom_site_type_symbol
 _atom_site_label
 _atom_site_symmetry_multiplicity
 _atom_site_fract_x
 _atom_site_fract_y
 _atom_site_fract_z
 _atom_site_occupancy
  Rb  Rb0  1  0.25000000  0.25000000  0.25000000  1
  Rb  Rb1  1  0.75000000  0.75000000  0.75000000  1
  Nd  Nd0  1  0.50000000  0.50000000  0.50000000  1
  Cu  Cu0  1  0.00000000  0.00000000  0.00000000  1
  F  F0  1  0.25019770  0.74980230  0.25019770  1
  F  F1  1  0.74980230  0.74980230  0.25019770  1
  F  F2  1  0.74980230  0.25019770  0.74980230  1
  F  F3  1  0.74980230  0.25019770  0.25019770  1
  F  F4  1  0.25019770  0.74980230  0.74980230  1
  F  F5  1  0.25019770  0.25019770  0.74980230  1
loop_
_geom_bond_atom_site_label_1
_geom_bond_atom_site_label_2
_geom_bond_distance
_geom_bond_site_symmetry_2
Cu0 F2 2.279837 1_454
Cu0 F0 2.279837 1_545
Cu0 F5 2.279837 1_554
Cu0 F1 2.279837 1_445
Cu0 F4 2.279837 1_544
Cu0 F3 2.279837 1_455
F0 Nd0 2.276234 1_555
F0 Rb1 3.221629 1_455
F0 Rb1 3.221629 1_554
F0 Rb0 3.221630 1_565
F0 Rb0 3.221630 1_555
F1 Nd0 2.276234 1_555
F1 Rb0 3.221629 1_655
F1 Rb0 3.221629 1_565
F1 Rb1 3.221630 1_554
F1 Rb1 3.221630 1_555
F2 Nd0 2.276234 1_555
F2 Rb0 3.221629 1_655
F2 Rb0 3.221629 1_556
F2 Rb1 3.221630 1_545
F2 Rb1 3.221630 1_555
F3 Nd0 2.276234 1_555
F3 Rb0 3.221629 1_655
F3 Rb0 3.221629 1_555
F3 Rb1 3.221630 1_554
F3 Rb1 3.221630 1_545
F4 Nd0 2.276234 1_555
F4 Rb1 3.221629 1_455
F4 Rb1 3.221629 1_555
F4 Rb0 3.221630 1_556
F4 Rb0 3.221630 1_565
F5 Nd0 2.276234 1_555
F5 Rb1 3.221629 1_455
F5 Rb1 3.221629 1_545
F5 Rb0 3.221630 1_556
F5 Rb0 3.221630 1_555
