# generated using pymatgen
data_Ca3Lu2(GeO4)3
_symmetry_space_group_name_H-M   'P 1'
_cell_length_a   11.14001349
_cell_length_b   11.14001349
_cell_length_c   11.14001349
_cell_angle_alpha   109.47122063
_cell_angle_beta   109.47122063
_cell_angle_gamma   109.47122063
_symmetry_Int_Tables_number   1
_chemical_formula_structural   Ca3Lu2(GeO4)3
_chemical_formula_sum   'Ca12 Lu8 Ge12 O48'
_cell_volume   1064.22941872
_cell_formula_units_Z   4
loop_
 _symmetry_equiv_pos_site_id
 _symmetry_equiv_pos_as_xyz
  1  'x, y, z'
loop_
 _atom_site_type_symbol
 _atom_site_label
 _atom_site_symmetry_multiplicity
 _atom_site_fract_x
 _atom_site_fract_y
 _atom_site_fract_z
 _atom_site_occupancy
  Ca  Ca0  1  0.87500000  0.62500000  0.75000000  1
  Ca  Ca1  1  0.12500000  0.37500000  0.25000000  1
  Ca  Ca2  1  0.62500000  0.87500000  0.25000000  1
  Ca  Ca3  1  0.62500000  0.75000000  0.87500000  1
  Ca  Ca4  1  0.87500000  0.25000000  0.62500000  1
  Ca  Ca5  1  0.37500000  0.12500000  0.75000000  1
  Ca  Ca6  1  0.37500000  0.25000000  0.12500000  1
  Ca  Ca7  1  0.12500000  0.75000000  0.37500000  1
  Ca  Ca8  1  0.75000000  0.87500000  0.62500000  1
  Ca  Ca9  1  0.25000000  0.12500000  0.37500000  1
  Ca  Ca10  1  0.25000000  0.62500000  0.87500000  1
  Ca  Ca11  1  0.75000000  0.37500000  0.12500000  1
  Lu  Lu0  1  -0.00000000  -0.00000000  -0.00000000  1
  Lu  Lu1  1  0.50000000  -0.00000000  0.50000000  1
  Lu  Lu2  1  0.50000000  0.50000000  -0.00000000  1
  Lu  Lu3  1  -0.00000000  -0.00000000  0.50000000  1
  Lu  Lu4  1  -0.00000000  0.50000000  0.50000000  1
  Lu  Lu5  1  0.50000000  0.50000000  0.50000000  1
  Lu  Lu6  1  0.50000000  -0.00000000  -0.00000000  1
  Lu  Lu7  1  -0.00000000  0.50000000  -0.00000000  1
  Ge  Ge0  1  0.62500000  0.37500000  0.75000000  1
  Ge  Ge1  1  0.37500000  0.62500000  0.25000000  1
  Ge  Ge2  1  0.87500000  0.12500000  0.25000000  1
  Ge  Ge3  1  0.37500000  0.75000000  0.62500000  1
  Ge  Ge4  1  0.62500000  0.25000000  0.37500000  1
  Ge  Ge5  1  0.12500000  0.87500000  0.75000000  1
  Ge  Ge6  1  0.12500000  0.25000000  0.87500000  1
  Ge  Ge7  1  0.87500000  0.75000000  0.12500000  1
  Ge  Ge8  1  0.75000000  0.62500000  0.37500000  1
  Ge  Ge9  1  0.25000000  0.37500000  0.62500000  1
  Ge  Ge10  1  0.25000000  0.87500000  0.12500000  1
  Ge  Ge11  1  0.75000000  0.12500000  0.87500000  1
  O  O0  1  0.71093465  0.62373957  0.51810206  1
  O  O1  1  0.28906535  0.37626043  0.48189794  1
  O  O2  1  0.78906535  0.80716741  0.41280491  1
  O  O3  1  0.39436250  0.87626043  0.08719509  1
  O  O4  1  0.62373957  0.51810206  0.71093465  1
  O  O5  1  0.71093465  0.08719509  0.69283259  1
  O  O6  1  0.21093465  0.19283259  0.58719509  1
  O  O7  1  0.60563750  0.12373957  0.91280491  1
  O  O8  1  0.37626043  0.48189794  0.28906535  1
  O  O9  1  0.28906535  0.91280491  0.30716741  1
  O  O10  1  0.10563750  0.69283259  0.98189794  1
  O  O11  1  0.80716741  0.41280491  0.78906535  1
  O  O12  1  0.78906535  0.98189794  0.87626043  1
  O  O13  1  0.89436250  0.30716741  0.01810206  1
  O  O14  1  0.19283259  0.58719509  0.21093465  1
  O  O15  1  0.21093465  0.01810206  0.12373957  1
  O  O16  1  0.87626043  0.08719509  0.39436250  1
  O  O17  1  0.39436250  0.51810206  0.80716741  1
  O  O18  1  0.12373957  0.91280491  0.60563750  1
  O  O19  1  0.60563750  0.48189794  0.19283259  1
  O  O20  1  0.69283259  0.98189794  0.10563750  1
  O  O21  1  0.10563750  0.41280491  0.62373957  1
  O  O22  1  0.30716741  0.01810206  0.89436250  1
  O  O23  1  0.89436250  0.58719509  0.37626043  1
  O  O24  1  0.51810206  0.71093465  0.62373957  1
  O  O25  1  0.62373957  0.10563750  0.41280491  1
  O  O26  1  0.48189794  0.28906535  0.37626043  1
  O  O27  1  0.37626043  0.89436250  0.58719509  1
  O  O28  1  0.08719509  0.39436250  0.87626043  1
  O  O29  1  0.87626043  0.78906535  0.98189794  1
  O  O30  1  0.91280491  0.60563750  0.12373957  1
  O  O31  1  0.12373957  0.21093465  0.01810206  1
  O  O32  1  0.98189794  0.10563750  0.69283259  1
  O  O33  1  0.69283259  0.71093465  0.08719509  1
  O  O34  1  0.01810206  0.89436250  0.30716741  1
  O  O35  1  0.30716741  0.28906535  0.91280491  1
  O  O36  1  0.41280491  0.78906535  0.80716741  1
  O  O37  1  0.80716741  0.39436250  0.51810206  1
  O  O38  1  0.58719509  0.21093465  0.19283259  1
  O  O39  1  0.19283259  0.60563750  0.48189794  1
  O  O40  1  0.08719509  0.69283259  0.71093465  1
  O  O41  1  0.91280491  0.30716741  0.28906535  1
  O  O42  1  0.98189794  0.87626043  0.78906535  1
  O  O43  1  0.01810206  0.12373957  0.21093465  1
  O  O44  1  0.41280491  0.62373957  0.10563750  1
  O  O45  1  0.58719509  0.37626043  0.89436250  1
  O  O46  1  0.51810206  0.80716741  0.39436250  1
  O  O47  1  0.48189794  0.19283259  0.60563750  1
loop_
_geom_bond_atom_site_label_1
_geom_bond_atom_site_label_2
_geom_bond_distance
_geom_bond_site_symmetry_2
Ca0 O4 2.462200 1_555
Ca0 O42 2.462200 1_555
Ca0 O11 2.462200 1_555
Ca0 O40 2.462200 1_655
Ca0 O37 2.612533 1_555
Ca0 O10 2.612533 1_655
Ca0 O0 2.612533 1_555
Ca0 O29 2.612533 1_555
Ca1 O43 2.462200 1_555
Ca1 O8 2.462200 1_555
Ca1 O14 2.462200 1_555
Ca1 O41 2.462200 1_455
Ca1 O39 2.612533 1_555
Ca1 O13 2.612533 1_455
Ca1 O31 2.612533 1_555
Ca1 O1 2.612533 1_555
Ca2 O44 2.462200 1_555
Ca2 O16 2.462200 1_565
Ca2 O46 2.462200 1_555
Ca2 O20 2.462200 1_555
Ca2 O3 2.612533 1_555
Ca2 O25 2.612533 1_565
Ca2 O33 2.612533 1_555
Ca2 O2 2.612533 1_555
Ca3 O24 2.462200 1_555
Ca3 O29 2.462200 1_555
Ca3 O36 2.462200 1_555
Ca3 O33 2.462200 1_556
Ca3 O17 2.612533 1_555
Ca3 O20 2.612533 1_556
Ca3 O12 2.612533 1_555
Ca3 O4 2.612533 1_555
Ca4 O28 2.462200 1_655
Ca4 O25 2.462200 1_555
Ca4 O32 2.462200 1_555
Ca4 O37 2.462200 1_555
Ca4 O16 2.612533 1_555
Ca4 O21 2.612533 1_655
Ca4 O11 2.612533 1_555
Ca4 O5 2.612533 1_555
Ca5 O18 2.462200 1_545
Ca5 O45 2.462200 1_555
Ca5 O22 2.462200 1_555
Ca5 O47 2.462200 1_555
Ca5 O7 2.612533 1_555
Ca5 O27 2.612533 1_545
Ca5 O6 2.612533 1_555
Ca5 O35 2.612533 1_555
Ca6 O31 2.462200 1_555
Ca6 O26 2.462200 1_555
Ca6 O38 2.462200 1_555
Ca6 O35 2.462200 1_554
Ca6 O19 2.612533 1_555
Ca6 O22 2.612533 1_554
Ca6 O15 2.612533 1_555
Ca6 O8 2.612533 1_555
Ca7 O30 2.462200 1_455
Ca7 O27 2.462200 1_555
Ca7 O34 2.462200 1_555
Ca7 O39 2.462200 1_555
Ca7 O18 2.612533 1_555
Ca7 O23 2.612533 1_455
Ca7 O9 2.612533 1_555
Ca7 O14 2.612533 1_555
Ca8 O12 2.462200 1_555
Ca8 O0 2.462200 1_555
Ca8 O5 2.462200 1_565
Ca8 O2 2.462200 1_555
Ca8 O46 2.612533 1_555
Ca8 O32 2.612533 1_565
Ca8 O24 2.612533 1_555
Ca8 O42 2.612533 1_555
Ca9 O15 2.462200 1_555
Ca9 O1 2.462200 1_555
Ca9 O6 2.462200 1_555
Ca9 O9 2.462200 1_545
Ca9 O47 2.612533 1_555
Ca9 O34 2.612533 1_545
Ca9 O43 2.612533 1_555
Ca9 O26 2.612533 1_555
Ca10 O21 2.462200 1_555
Ca10 O3 2.462200 1_556
Ca10 O10 2.462200 1_555
Ca10 O17 2.462200 1_555
Ca10 O28 2.612533 1_555
Ca10 O44 2.612533 1_556
Ca10 O36 2.612533 1_555
Ca10 O40 2.612533 1_555
Ca11 O7 2.462200 1_554
Ca11 O23 2.462200 1_555
Ca11 O13 2.462200 1_555
Ca11 O19 2.462200 1_555
Ca11 O30 2.612533 1_555
Ca11 O45 2.612533 1_554
Ca11 O41 2.612533 1_555
Ca11 O38 2.612533 1_555
Lu0 O31 2.191303 1_555
Lu0 O15 2.191303 1_555
Lu0 O42 2.191303 1_444
Lu0 O29 2.191303 1_444
Lu0 O43 2.191303 1_555
Lu0 O12 2.191303 1_444
Lu1 O47 2.191303 1_555
Lu1 O9 2.191303 1_545
Lu1 O5 2.191303 1_555
Lu1 O46 2.191303 1_545
Lu1 O25 2.191303 1_555
Lu1 O27 2.191303 1_545
Lu2 O19 2.191303 1_555
Lu2 O35 2.191303 1_554
Lu2 O33 2.191303 1_555
Lu2 O17 2.191303 1_554
Lu2 O44 2.191303 1_555
Lu2 O45 2.191303 1_554
Lu3 O6 2.191303 1_555
Lu3 O34 2.191303 1_545
Lu3 O32 2.191303 1_455
Lu3 O2 2.191303 1_445
Lu3 O18 2.191303 1_545
Lu3 O16 2.191303 1_455
Lu4 O39 2.191303 1_555
Lu4 O40 2.191303 1_555
Lu4 O41 2.191303 1_455
Lu4 O37 2.191303 1_455
Lu4 O21 2.191303 1_555
Lu4 O23 2.191303 1_455
Lu5 O4 2.191303 1_555
Lu5 O8 2.191303 1_555
Lu5 O24 2.191303 1_555
Lu5 O26 2.191303 1_555
Lu5 O1 2.191303 1_555
Lu5 O0 2.191303 1_555
Lu6 O20 2.191303 1_545
Lu6 O22 2.191303 1_554
Lu6 O38 2.191303 1_555
Lu6 O36 2.191303 1_544
Lu6 O7 2.191303 1_554
Lu6 O3 2.191303 1_545
Lu7 O14 2.191303 1_555
Lu7 O11 2.191303 1_454
Lu7 O13 2.191303 1_455
Lu7 O10 2.191303 1_554
Lu7 O30 2.191303 1_455
Lu7 O28 2.191303 1_554
Ge0 O4 1.790051 1_555
Ge0 O11 1.790051 1_555
Ge0 O47 1.790051 1_555
Ge0 O45 1.790051 1_555
Ge1 O8 1.790051 1_555
Ge1 O14 1.790051 1_555
Ge1 O46 1.790051 1_555
Ge1 O44 1.790051 1_555
Ge2 O43 1.790051 1_655
Ge2 O20 1.790051 1_545
Ge2 O41 1.790051 1_555
Ge2 O16 1.790051 1_555
Ge3 O24 1.790051 1_555
Ge3 O36 1.790051 1_555
Ge3 O39 1.790051 1_555
Ge3 O27 1.790051 1_555
Ge4 O26 1.790051 1_555
Ge4 O38 1.790051 1_555
Ge4 O37 1.790051 1_555
Ge4 O25 1.790051 1_555
Ge5 O42 1.790051 1_455
Ge5 O22 1.790051 1_565
Ge5 O40 1.790051 1_555
Ge5 O18 1.790051 1_555
Ge6 O31 1.790051 1_556
Ge6 O32 1.790051 1_455
Ge6 O35 1.790051 1_555
Ge6 O28 1.790051 1_555
Ge7 O29 1.790051 1_554
Ge7 O34 1.790051 1_655
Ge7 O33 1.790051 1_555
Ge7 O30 1.790051 1_555
Ge8 O0 1.790051 1_555
Ge8 O2 1.790051 1_555
Ge8 O19 1.790051 1_555
Ge8 O23 1.790051 1_555
Ge9 O1 1.790051 1_555
Ge9 O6 1.790051 1_555
Ge9 O17 1.790051 1_555
Ge9 O21 1.790051 1_555
Ge10 O15 1.790051 1_565
Ge10 O9 1.790051 1_555
Ge10 O10 1.790051 1_554
Ge10 O3 1.790051 1_555
Ge11 O12 1.790051 1_545
Ge11 O13 1.790051 1_556
Ge11 O5 1.790051 1_555
Ge11 O7 1.790051 1_555
