# generated using pymatgen
data_Gd
_symmetry_space_group_name_H-M   'P 1'
_cell_length_a   7.04812302
_cell_length_b   7.04812617
_cell_length_c   7.04812292
_cell_angle_alpha   109.47121124
_cell_angle_beta   109.47122030
_cell_angle_gamma   109.47123847
_symmetry_Int_Tables_number   1
_chemical_formula_structural   Gd
_chemical_formula_sum   Gd8
_cell_volume   269.52476788
_cell_formula_units_Z   8
loop_
 _symmetry_equiv_pos_site_id
 _symmetry_equiv_pos_as_xyz
  1  'x, y, z'
loop_
 _atom_site_type_symbol
 _atom_site_label
 _atom_site_symmetry_multiplicity
 _atom_site_fract_x
 _atom_site_fract_y
 _atom_site_fract_z
 _atom_site_occupancy
  Gd  Gd0_0  1  0.00000000  0.00000000  0.00000000  1
  Gd  Gd0_1  1  0.00000000  0.00000000  0.50000000  1
  Gd  Gd0_2  1  0.00000000  0.50000000  0.00000000  1
  Gd  Gd0_3  1  0.00000000  0.50000000  0.50000000  1
  Gd  Gd0_4  1  0.50000000  0.00000000  0.00000000  1
  Gd  Gd0_5  1  0.50000000  0.00000000  0.50000000  1
  Gd  Gd0_6  1  0.50000000  0.50000000  0.00000000  1
  Gd  Gd0_7  1  0.50000000  0.50000000  0.50000000  1
loop_
_geom_bond_atom_site_label_1
_geom_bond_atom_site_label_2
_geom_bond_distance
_geom_bond_site_symmetry_2
Gd0_0 Gd0_1 3.524061 1_554
Gd0_0 Gd0_1 3.524061 1_555
Gd0_0 Gd0_4 3.524062 1_555
Gd0_0 Gd0_4 3.524062 1_455
Gd0_0 Gd0_7 3.524062 1_555
Gd0_0 Gd0_7 3.524062 1_444
Gd0_0 Gd0_2 3.524063 1_555
Gd0_0 Gd0_2 3.524063 1_545
Gd0_1 Gd0_5 3.524062 1_455
Gd0_1 Gd0_5 3.524062 1_555
Gd0_1 Gd0_6 3.524062 1_445
Gd0_1 Gd0_6 3.524062 1_556
Gd0_1 Gd0_3 3.524063 1_545
Gd0_1 Gd0_3 3.524063 1_555
Gd0_2 Gd0_3 3.524061 1_554
Gd0_2 Gd0_3 3.524061 1_555
Gd0_2 Gd0_6 3.524062 1_455
Gd0_2 Gd0_6 3.524062 1_555
Gd0_2 Gd0_5 3.524062 1_565
Gd0_2 Gd0_5 3.524062 1_454
Gd0_3 Gd0_7 3.524062 1_455
Gd0_3 Gd0_7 3.524062 1_555
Gd0_3 Gd0_4 3.524062 1_566
Gd0_3 Gd0_4 3.524062 1_455
Gd0_4 Gd0_5 3.524061 1_555
Gd0_4 Gd0_5 3.524061 1_554
Gd0_4 Gd0_6 3.524063 1_555
Gd0_4 Gd0_6 3.524063 1_545
Gd0_5 Gd0_7 3.524063 1_555
Gd0_5 Gd0_7 3.524063 1_545
Gd0_6 Gd0_7 3.524061 1_554
Gd0_6 Gd0_7 3.524061 1_555
