# generated using pymatgen
data_CeCdNi4
_symmetry_space_group_name_H-M   'P 1'
_cell_length_a   4.95609607
_cell_length_b   4.95608258
_cell_length_c   4.95607880
_cell_angle_alpha   60.00192983
_cell_angle_beta   60.00202460
_cell_angle_gamma   60.00206032
_symmetry_Int_Tables_number   1
_chemical_formula_structural   CeCdNi4
_chemical_formula_sum   'Ce1 Cd1 Ni4'
_cell_volume   86.08375382
_cell_formula_units_Z   1
loop_
 _symmetry_equiv_pos_site_id
 _symmetry_equiv_pos_as_xyz
  1  'x, y, z'
loop_
 _atom_site_type_symbol
 _atom_site_label
 _atom_site_symmetry_multiplicity
 _atom_site_fract_x
 _atom_site_fract_y
 _atom_site_fract_z
 _atom_site_occupancy
  Ce  Ce0  1  0.25000184  0.24999965  0.24999949  1
  Cd  Cd0  1  0.99999823  0.00000063  0.00000087  1
  Ni  Ni0  1  0.12160653  0.62613158  0.62613154  1
  Ni  Ni1  1  0.62613214  0.62613195  0.62613196  1
  Ni  Ni2  1  0.62613162  0.62613068  0.12160649  1
  Ni  Ni3  1  0.62613163  0.12160650  0.62613065  1
loop_
_geom_bond_atom_site_label_1
_geom_bond_atom_site_label_2
_geom_bond_distance
_geom_bond_site_symmetry_2
Ce0 Ni3 2.908169 1_555
Ce0 Ni2 2.908169 1_555
Ce0 Ni0 2.908174 1_555
Ce0 Ni0 2.908232 1_554
Ce0 Ni0 2.908233 1_545
Ce0 Ni3 2.908234 1_554
Ce0 Ni2 2.908237 1_545
Ce0 Ni3 2.908247 1_455
Ce0 Ni2 2.908248 1_455
Ce0 Ni1 2.908263 1_554
Ce0 Ni1 2.908266 1_545
Ce0 Ni1 2.908280 1_455
Cd0 Ni0 2.903389 1_644
Cd0 Ni2 2.903390 1_545
Cd0 Ni3 2.903390 1_554
Cd0 Ni3 2.903447 1_555
Cd0 Ni2 2.903450 1_555
Cd0 Ni0 2.903452 1_645
Cd0 Ni0 2.903455 1_654
Cd0 Ni3 2.903469 1_654
Cd0 Ni2 2.903470 1_645
Cd0 Ni1 2.903478 1_545
Cd0 Ni1 2.903482 1_554
Cd0 Ni1 2.903499 1_644
Cd0 Ce0 3.034929 1_655
Cd0 Ce0 3.035041 1_555
Cd0 Ce0 3.035047 1_654
Cd0 Ce0 3.035048 1_645
Ni0 Ni1 2.455617 1_455
Ni0 Ni2 2.455692 1_456
Ni0 Ni3 2.455694 1_465
Ni0 Ni1 2.500479 1_555
Ni0 Ni2 2.500547 1_555
Ni0 Ni3 2.500549 1_555
Ni1 Ni2 2.455606 1_556
Ni1 Ni3 2.455608 1_565
Ni1 Ni2 2.500472 1_555
Ni1 Ni3 2.500474 1_555
Ni2 Ni3 2.455690 1_564
Ni2 Ni3 2.500535 1_555
