# generated using pymatgen
data_U(Al10V)2
_symmetry_space_group_name_H-M   'P 1'
_cell_length_a   10.14854169
_cell_length_b   10.14849734
_cell_length_c   10.14923312
_cell_angle_alpha   59.99739928
_cell_angle_beta   59.99808172
_cell_angle_gamma   60.00438263
_symmetry_Int_Tables_number   1
_chemical_formula_structural   U(Al10V)2
_chemical_formula_sum   'U2 Al40 V4'
_cell_volume   739.13396681
_cell_formula_units_Z   2
loop_
 _symmetry_equiv_pos_site_id
 _symmetry_equiv_pos_as_xyz
  1  'x, y, z'
loop_
 _atom_site_type_symbol
 _atom_site_label
 _atom_site_symmetry_multiplicity
 _atom_site_fract_x
 _atom_site_fract_y
 _atom_site_fract_z
 _atom_site_occupancy
  U  U0  1  0.99999074  0.00001610  0.99999451  1
  U  U1  1  0.24999715  0.24999263  0.25000199  1
  Al  Al0  1  0.12498478  0.62502578  0.12499952  1
  Al  Al1  1  0.12499522  0.12499246  0.62502520  1
  Al  Al2  1  0.62502765  0.12498160  0.12499850  1
  Al  Al3  1  0.12499571  0.12499239  0.12498449  1
  Al  Al4  1  0.36268432  0.36268747  0.63731381  1
  Al  Al5  1  0.61272499  0.88728275  0.88727878  1
  Al  Al6  1  0.88728116  0.61271380  0.61272125  1
  Al  Al7  1  0.61271468  0.61269502  0.88728826  1
  Al  Al8  1  0.61272252  0.88728640  0.61271461  1
  Al  Al9  1  0.88727960  0.61271144  0.88728608  1
  Al  Al10  1  0.63729589  0.36270430  0.63729562  1
  Al  Al11  1  0.63729346  0.36270652  0.36270555  1
  Al  Al12  1  0.36270317  0.63729549  0.63729564  1
  Al  Al13  1  0.36270195  0.63729672  0.36270485  1
  Al  Al14  1  0.88728679  0.88730523  0.61270271  1
  Al  Al15  1  0.63731441  0.63731512  0.36268513  1
  Al  Al16  1  0.80017196  0.06841751  0.33122767  1
  Al  Al17  1  0.44982218  0.44981946  0.18161674  1
  Al  Al18  1  0.18161868  0.91874202  0.44982012  1
  Al  Al19  1  0.44979743  0.91876001  0.44980636  1
  Al  Al20  1  0.91875684  0.44979988  0.18163134  1
  Al  Al21  1  0.91875886  0.44979839  0.44980888  1
  Al  Al22  1  0.18163675  0.44980927  0.44979787  1
  Al  Al23  1  0.33124415  0.06843497  0.80016148  1
  Al  Al24  1  0.80016990  0.06841770  0.80018319  1
  Al  Al25  1  0.06842055  0.80017311  0.33122453  1
  Al  Al26  1  0.80016045  0.80016232  0.33123954  1
  Al  Al27  1  0.06843889  0.33123723  0.80016134  1
  Al  Al28  1  0.33122905  0.80018319  0.06841834  1
  Al  Al29  1  0.80016027  0.80016087  0.06843665  1
  Al  Al30  1  0.80018031  0.33122427  0.80017403  1
  Al  Al31  1  0.18163452  0.44980892  0.91875761  1
  Al  Al32  1  0.44981981  0.44981853  0.91874468  1
  Al  Al33  1  0.44979866  0.91875731  0.18163542  1
  Al  Al34  1  0.44980949  0.18163453  0.91875999  1
  Al  Al35  1  0.91874506  0.18161395  0.44981989  1
  Al  Al36  1  0.44980962  0.18163559  0.44979530  1
  Al  Al37  1  0.33122453  0.80018624  0.80017259  1
  Al  Al38  1  0.06841860  0.80017518  0.80018417  1
  Al  Al39  1  0.80018077  0.33122476  0.06841973  1
  V  V0  1  0.62499364  0.12502995  0.62498997  1
  V  V1  1  0.62499475  0.62498803  0.12502012  1
  V  V2  1  0.12501315  0.62499340  0.62499791  1
  V  V3  1  0.62499293  0.62498617  0.62499803  1
loop_
_geom_bond_atom_site_label_1
_geom_bond_atom_site_label_2
_geom_bond_distance
_geom_bond_site_symmetry_2
Al0 Al28 3.060684 1_555
Al0 Al37 3.060709 1_554
Al0 Al25 3.060810 1_555
Al0 Al21 3.060830 1_455
Al0 Al38 3.060867 1_554
Al0 Al20 3.060885 1_455
Al0 Al26 3.060898 1_455
Al0 Al29 3.060928 1_455
Al0 Al22 3.061060 1_555
Al0 Al31 3.061160 1_554
Al0 Al17 3.061247 1_555
Al0 Al32 3.061288 1_554
Al0 U0 3.107307 1_464
Al0 U1 3.107662 1_555
Al1 Al38 3.060618 1_545
Al1 Al24 3.060710 1_455
Al1 Al37 3.060792 1_545
Al1 Al22 3.060865 1_555
Al1 Al36 3.060877 1_555
Al1 Al30 3.060883 1_455
Al1 Al27 3.060907 1_555
Al1 Al23 3.060933 1_555
Al1 Al21 3.061091 1_455
Al1 Al19 3.061102 1_545
Al1 Al18 3.061235 1_545
Al1 Al35 3.061236 1_455
Al1 U0 3.107161 1_455
Al1 U1 3.107607 1_555
Al2 Al39 3.060646 1_555
Al2 Al30 3.060676 1_554
Al2 Al26 3.060826 1_545
Al2 Al33 3.060854 1_545
Al2 Al24 3.060885 1_554
Al2 Al29 3.060888 1_545
Al2 Al36 3.061079 1_555
Al2 Al34 3.061117 1_554
Al2 Al32 3.061255 1_554
Al2 U0 3.107116 1_554
Al2 U1 3.107675 1_555
Al3 Al31 3.060849 1_554
Al3 Al39 3.060862 1_455
Al3 Al34 3.060868 1_554
Al3 Al33 3.061099 1_545
Al3 Al35 3.061269 1_455
Al3 U0 3.107172 1_454
Al3 U1 3.107570 1_555
Al4 V0 2.543291 1_555
Al4 V2 2.543330 1_555
Al5 V0 2.543406 1_565
Al5 V1 2.543409 1_556
Al5 Al9 2.786592 1_555
Al5 Al8 2.786610 1_555
Al5 Al7 2.786657 1_555
Al6 V2 2.543350 1_655
Al6 V3 2.543384 1_555
Al6 Al7 2.786466 1_555
Al6 Al9 2.786603 1_555
Al6 Al8 2.786619 1_555
Al7 V3 2.543482 1_555
Al7 V1 2.543614 1_556
Al7 Al9 2.786506 1_555
Al7 Al8 2.786591 1_555
Al8 V0 2.543404 1_565
Al8 V3 2.543471 1_555
Al9 V1 2.543355 1_556
Al9 V2 2.543370 1_655
Al10 V0 2.543045 1_555
Al10 V3 2.543072 1_555
Al10 Al24 2.691445 1_555
Al10 Al30 2.691449 1_555
Al10 Al15 2.786877 1_555
Al10 Al11 2.786880 1_555
Al10 Al12 2.786886 1_555
Al10 Al4 2.786900 1_555
Al10 Al34 2.822759 1_555
Al10 Al21 2.822766 1_555
Al10 Al32 2.823064 1_555
Al10 Al35 2.823075 1_555
Al11 V0 2.543060 1_555
Al11 V1 2.543081 1_555
Al11 Al16 2.691489 1_555
Al11 Al39 2.691498 1_555
Al11 Al15 2.786867 1_555
Al11 Al13 2.786875 1_555
Al11 Al4 2.786892 1_555
Al11 Al36 2.822751 1_555
Al11 Al20 2.822765 1_555
Al11 Al17 2.823020 1_555
Al11 Al35 2.823063 1_555
Al12 V3 2.543136 1_555
Al12 V2 2.543168 1_555
Al12 Al38 2.691492 1_555
Al12 Al37 2.691504 1_555
Al12 Al4 2.786862 1_555
Al12 Al13 2.786886 1_555
Al12 Al15 2.786914 1_555
Al12 Al31 2.822745 1_555
Al12 Al19 2.822758 1_555
Al12 Al18 2.823003 1_555
Al12 Al32 2.823048 1_555
Al13 V1 2.543174 1_555
Al13 V2 2.543193 1_555
Al13 Al25 2.691438 1_555
Al13 Al28 2.691449 1_555
Al13 Al4 2.786861 1_555
Al13 Al15 2.786909 1_555
Al13 Al22 2.822722 1_555
Al13 Al33 2.822737 1_555
Al13 Al18 2.823019 1_555
Al13 Al17 2.823050 1_555
Al14 V0 2.543508 1_565
Al14 V2 2.543615 1_655
Al14 Al35 2.691350 1_565
Al14 Al18 2.691500 1_655
Al14 Al8 2.786462 1_555
Al14 Al5 2.786488 1_555
Al14 Al6 2.786625 1_555
Al14 Al9 2.786653 1_555
Al14 Al16 2.823262 1_565
Al14 Al24 2.823299 1_565
Al14 Al25 2.823400 1_655
Al14 Al38 2.823413 1_655
Al15 V3 2.543342 1_555
Al15 V1 2.543347 1_555
Al15 Al26 2.690783 1_555
Al15 Al29 2.690785 1_555
Al15 Al33 2.823022 1_555
Al15 Al19 2.823053 1_555
Al15 Al21 2.823057 1_555
Al15 Al20 2.823073 1_555
Al16 Al39 2.667094 1_555
Al16 Al26 2.722385 1_545
Al16 Al25 2.722485 1_645
Al16 V0 2.787622 1_555
Al16 Al8 2.822954 1_545
Al16 Al35 2.903421 1_555
Al16 Al36 2.903429 1_555
Al16 Al3 3.060699 1_655
Al16 Al2 3.060813 1_555
Al16 U0 3.162955 1_554
Al17 Al32 2.667967 1_554
Al17 Al7 2.691471 1_554
Al17 Al36 2.721628 1_555
Al17 Al22 2.721683 1_555
Al17 V1 2.787111 1_555
Al17 Al39 2.903405 1_555
Al17 Al28 2.903415 1_555
Al17 Al2 3.061252 1_555
Al17 U1 3.162840 1_555
Al18 Al35 2.667946 1_465
Al18 Al19 2.721645 1_555
Al18 Al33 2.721673 1_555
Al18 V2 2.787171 1_555
Al18 Al25 2.903428 1_555
Al18 Al38 2.903444 1_555
Al18 Al3 3.061247 1_565
Al18 U1 3.162657 1_565
Al19 Al36 2.667798 1_565
Al19 Al8 2.692098 1_555
Al19 Al33 2.721737 1_555
Al19 V3 2.787690 1_555
Al19 Al26 2.903442 1_555
Al19 Al37 2.903454 1_555
Al19 Al2 3.060810 1_565
Al19 U1 3.162781 1_565
Al20 Al31 2.667819 1_654
Al20 Al9 2.691979 1_554
Al20 Al35 2.721689 1_555
Al20 Al21 2.721799 1_555
Al20 V1 2.787595 1_555
Al20 Al29 2.903393 1_555
Al20 Al39 2.903422 1_555
Al20 Al3 3.061122 1_655
Al20 U1 3.162860 1_655
Al21 Al22 2.667827 1_655
Al21 Al6 2.692035 1_555
Al21 Al35 2.721683 1_555
Al21 V3 2.787645 1_555
Al21 Al26 2.903417 1_555
Al21 Al30 2.903446 1_555
Al21 U1 3.162879 1_655
Al22 Al6 2.692072 1_455
Al22 Al36 2.721742 1_555
Al22 V2 2.787644 1_555
Al22 Al4 2.823026 1_555
Al22 Al25 2.903408 1_555
Al22 Al27 2.903439 1_555
Al22 U1 3.162928 1_555
Al23 Al27 2.667246 1_555
Al23 Al4 2.690791 1_555
Al23 Al37 2.722365 1_545
Al23 Al28 2.722370 1_546
Al23 V0 2.787159 1_555
Al23 Al8 2.823319 1_545
Al23 Al5 2.823321 1_545
Al23 Al34 2.903435 1_555
Al23 Al36 2.903462 1_555
Al23 Al3 3.060913 1_556
Al23 U0 3.162887 1_455
Al24 Al30 2.667098 1_555
Al24 Al29 2.722378 1_546
Al24 Al38 2.722476 1_645
Al24 V0 2.787559 1_555
Al24 Al5 2.822938 1_545
Al24 Al34 2.903413 1_555
Al24 Al35 2.903438 1_555
Al24 U0 3.162912 1_555
Al25 Al28 2.667125 1_555
Al25 Al26 2.722427 1_455
Al25 V2 2.787608 1_555
Al25 Al6 2.823078 1_455
Al25 Al3 3.060631 1_565
Al25 U0 3.163024 1_464
Al26 Al29 2.667256 1_555
Al26 V3 2.787186 1_555
Al26 Al8 2.823327 1_555
Al26 Al6 2.823341 1_555
Al26 U0 3.162892 1_564
Al27 Al4 2.690794 1_555
Al27 Al30 2.722435 1_455
Al27 Al39 2.722444 1_456
Al27 V2 2.787102 1_555
Al27 Al6 2.823290 1_455
Al27 Al9 2.823305 1_455
Al27 Al31 2.903437 1_555
Al27 Al3 3.060881 1_556
Al27 U0 3.162706 1_455
Al28 Al37 2.722496 1_554
Al28 V1 2.787586 1_555
Al28 Al5 2.823067 1_554
Al28 Al7 2.823464 1_554
Al28 Al33 2.903405 1_555
Al28 Al3 3.060819 1_565
Al28 U0 3.163075 1_464
Al29 Al38 2.722415 1_654
Al29 V1 2.787144 1_555
Al29 Al5 2.823263 1_554
Al29 Al9 2.823342 1_554
Al29 Al33 2.903430 1_555
Al29 U0 3.162889 1_564
Al30 Al39 2.722493 1_556
Al30 V3 2.787535 1_555
Al30 Al6 2.822997 1_555
Al30 Al7 2.823231 1_555
Al30 Al32 2.903421 1_555
Al30 U0 3.162792 1_555
Al31 Al9 2.692048 1_455
Al31 Al32 2.721673 1_555
Al31 Al34 2.721756 1_555
Al31 V2 2.787613 1_555
Al31 Al4 2.823062 1_555
Al31 Al38 2.903428 1_555
Al31 U1 3.162854 1_556
Al32 Al7 2.691412 1_555
Al32 Al34 2.721639 1_555
Al32 V3 2.787122 1_555
Al32 Al37 2.903448 1_555
Al32 U1 3.162789 1_556
Al33 Al34 2.667792 1_564
Al33 Al5 2.692091 1_554
Al33 V1 2.787674 1_555
Al33 U1 3.162799 1_565
Al34 Al5 2.692051 1_545
Al34 V0 2.787655 1_555
Al34 Al4 2.823074 1_555
Al34 U1 3.162843 1_556
Al35 V0 2.787129 1_555
Al35 U1 3.162700 1_655
Al36 Al8 2.692022 1_545
Al36 V0 2.787667 1_555
Al36 Al4 2.823083 1_555
Al36 U1 3.162875 1_555
Al37 Al38 2.667094 1_555
Al37 V3 2.787646 1_555
Al37 Al8 2.823088 1_555
Al37 Al7 2.823400 1_555
Al37 U0 3.163030 1_465
Al38 V2 2.787632 1_555
Al38 Al9 2.823110 1_455
Al38 U0 3.162974 1_465
Al39 V1 2.787558 1_555
Al39 Al9 2.822963 1_554
Al39 Al7 2.823273 1_554
Al39 U0 3.162824 1_554
