# generated using pymatgen
data_Li3Ag3Ge2
_symmetry_space_group_name_H-M   'P 1'
_cell_length_a   4.04719600
_cell_length_b   4.06668400
_cell_length_c   7.96037400
_cell_angle_alpha   90.00000000
_cell_angle_beta   90.00000000
_cell_angle_gamma   90.00000000
_symmetry_Int_Tables_number   1
_chemical_formula_structural   Li3Ag3Ge2
_chemical_formula_sum   'Li3 Ag3 Ge2'
_cell_volume   131.01714660
_cell_formula_units_Z   1
loop_
 _symmetry_equiv_pos_site_id
 _symmetry_equiv_pos_as_xyz
  1  'x, y, z'
loop_
 _atom_site_type_symbol
 _atom_site_label
 _atom_site_symmetry_multiplicity
 _atom_site_fract_x
 _atom_site_fract_y
 _atom_site_fract_z
 _atom_site_occupancy
  Li  Li0  1  0.50000000  0.50000000  0.74855400  1
  Li  Li1  1  0.50000000  0.50000000  0.25144600  1
  Li  Li2  1  0.50000000  0.00000000  0.00000000  1
  Ag  Ag0  1  0.50000000  0.00000000  0.50000000  1
  Ag  Ag1  1  0.00000000  0.50000000  0.00000000  1
  Ag  Ag2  1  0.00000000  0.50000000  0.50000000  1
  Ge  Ge0  1  0.00000000  0.00000000  0.75060600  1
  Ge  Ge1  1  0.00000000  0.00000000  0.24939400  1
loop_
_geom_bond_atom_site_label_1
_geom_bond_atom_site_label_2
_geom_bond_distance
_geom_bond_site_symmetry_2
Ag0 Li0 2.837123 1_555
Ag0 Li0 2.837123 1_545
Ag0 Li1 2.837123 1_555
Ag0 Li1 2.837123 1_545
Ag0 Ge0 2.841592 1_655
Ag0 Ge0 2.841592 1_555
Ag0 Ge1 2.841592 1_655
Ag0 Ge1 2.841592 1_555
Ag0 Ag2 2.868698 1_645
Ag0 Ag2 2.868698 1_655
Ag0 Ag2 2.868698 1_555
Ag0 Ag2 2.868698 1_545
Ag1 Ge1 2.841791 1_565
Ag1 Ge1 2.841791 1_555
Ag1 Ge0 2.841791 1_564
Ag1 Ge0 2.841791 1_554
Ag1 Li1 2.846290 1_455
Ag1 Li1 2.846290 1_555
Ag1 Li0 2.846290 1_554
Ag1 Li0 2.846290 1_454
Ag1 Li2 2.868698 1_455
Ag1 Li2 2.868698 1_555
Ag1 Li2 2.868698 1_565
Ag1 Li2 2.868698 1_465
Ag2 Li0 2.830148 1_455
Ag2 Li0 2.830148 1_555
Ag2 Li1 2.830148 1_555
Ag2 Li1 2.830148 1_455
Ag2 Ge0 2.848539 1_555
Ag2 Ge0 2.848539 1_565
Ag2 Ge1 2.848539 1_565
Ag2 Ge1 2.848539 1_555
Ge0 Li2 2.834827 1_556
Ge0 Li2 2.834827 1_456
Ge0 Li0 2.868745 1_555
Ge0 Li0 2.868745 1_445
Ge0 Li0 2.868745 1_545
Ge0 Li0 2.868745 1_455
Ge1 Li2 2.834827 1_455
Ge1 Li2 2.834827 1_555
Ge1 Li1 2.868745 1_445
Ge1 Li1 2.868745 1_455
Ge1 Li1 2.868745 1_555
Ge1 Li1 2.868745 1_545
