# generated using pymatgen
data_K3Rb
_symmetry_space_group_name_H-M   'P 1'
_cell_length_a   7.71044031
_cell_length_b   7.71044031
_cell_length_c   7.71044031
_cell_angle_alpha   60.00000000
_cell_angle_beta   60.00000000
_cell_angle_gamma   60.00000000
_symmetry_Int_Tables_number   1
_chemical_formula_structural   K3Rb
_chemical_formula_sum   'K3 Rb1'
_cell_volume   324.13247150
_cell_formula_units_Z   1
loop_
 _symmetry_equiv_pos_site_id
 _symmetry_equiv_pos_as_xyz
  1  'x, y, z'
loop_
 _atom_site_type_symbol
 _atom_site_label
 _atom_site_symmetry_multiplicity
 _atom_site_fract_x
 _atom_site_fract_y
 _atom_site_fract_z
 _atom_site_occupancy
  K  K0  1  0.25000000  0.25000000  0.25000000  1
  K  K1  1  0.75000000  0.75000000  0.75000000  1
  K  K2  1  0.50000000  0.50000000  0.50000000  1
  Rb  Rb0  1  -0.00000000  -0.00000000  -0.00000000  1
loop_
_geom_bond_atom_site_label_1
_geom_bond_atom_site_label_2
_geom_bond_distance
_geom_bond_site_symmetry_2
K0 K2 4.721661 1_455
K0 Rb0 4.721661 1_555
K0 K2 4.721661 1_554
K0 Rb0 4.721661 1_655
K0 K2 4.721661 1_555
K0 K2 4.721661 1_545
K0 Rb0 4.721661 1_565
K0 Rb0 4.721661 1_556
K1 Rb0 4.721661 1_656
K1 Rb0 4.721661 1_665
K1 K2 4.721661 1_556
K1 Rb0 4.721661 1_666
K1 K2 4.721661 1_555
K1 Rb0 4.721661 1_566
K1 K2 4.721661 1_655
K1 K2 4.721661 1_565
