# generated using pymatgen
data_CeP4NO12
_symmetry_space_group_name_H-M   'P 1'
_cell_length_a   7.39775323
_cell_length_b   7.39775323
_cell_length_c   10.56213387
_cell_angle_alpha   79.11227221
_cell_angle_beta   79.11227221
_cell_angle_gamma   115.04917682
_symmetry_Int_Tables_number   1
_chemical_formula_structural   CeP4NO12
_chemical_formula_sum   'Ce2 P8 N2 O24'
_cell_volume   490.19274517
_cell_formula_units_Z   2
loop_
 _symmetry_equiv_pos_site_id
 _symmetry_equiv_pos_as_xyz
  1  'x, y, z'
loop_
 _atom_site_type_symbol
 _atom_site_label
 _atom_site_symmetry_multiplicity
 _atom_site_fract_x
 _atom_site_fract_y
 _atom_site_fract_z
 _atom_site_occupancy
  Ce  Ce0  1  0.88368900  0.11631100  0.75000000  1
  Ce  Ce1  1  0.11631100  0.88368900  0.25000000  1
  P  P0  1  0.69440500  0.73974200  0.55868700  1
  P  P1  1  0.30559500  0.26025800  0.44131300  1
  P  P2  1  0.26025800  0.30559500  0.94131300  1
  P  P3  1  0.73974200  0.69440500  0.05868700  1
  P  P4  1  0.62821400  0.28556700  0.99919100  1
  P  P5  1  0.37178600  0.71443300  0.00080900  1
  P  P6  1  0.71443300  0.37178600  0.50080900  1
  P  P7  1  0.28556700  0.62821400  0.49919100  1
  N  N0  1  0.18335400  0.81664600  0.75000000  1
  N  N1  1  0.81664600  0.18335400  0.25000000  1
  O  O0  1  0.15446400  0.14158800  0.58147900  1
  O  O1  1  0.84553600  0.85841200  0.41852100  1
  O  O2  1  0.85841200  0.84553600  0.91852100  1
  O  O3  1  0.14158800  0.15446400  0.08147900  1
  O  O4  1  0.51856100  0.91163100  0.88733800  1
  O  O5  1  0.48143900  0.08836900  0.11266200  1
  O  O6  1  0.08836900  0.48143900  0.61266200  1
  O  O7  1  0.91163100  0.51856100  0.38733800  1
  O  O8  1  0.50284800  0.35978700  0.91007700  1
  O  O9  1  0.49715200  0.64021300  0.08992300  1
  O  O10  1  0.64021300  0.49715200  0.58992300  1
  O  O11  1  0.35978700  0.50284800  0.41007700  1
  O  O12  1  0.70737900  0.19152100  0.60020000  1
  O  O13  1  0.29262100  0.80847900  0.39980000  1
  O  O14  1  0.80847900  0.29262100  0.89980000  1
  O  O15  1  0.19152100  0.70737900  0.10020000  1
  O  O16  1  0.75069000  0.81311200  0.67526900  1
  O  O17  1  0.24931000  0.18688800  0.32473100  1
  O  O18  1  0.18688800  0.24931000  0.82473100  1
  O  O19  1  0.81311200  0.75069000  0.17526900  1
  O  O20  1  0.47073200  0.72550600  0.56479800  1
  O  O21  1  0.52926800  0.27449400  0.43520200  1
  O  O22  1  0.27449400  0.52926800  0.93520200  1
  O  O23  1  0.72550600  0.47073200  0.06479800  1
loop_
_geom_bond_atom_site_label_1
_geom_bond_atom_site_label_2
_geom_bond_distance
_geom_bond_site_symmetry_2
Ce0 O2 2.329342 1_545
Ce0 O0 2.329342 1_655
Ce0 O14 2.361289 1_555
Ce0 O12 2.361289 1_555
Ce0 O18 2.390716 1_655
Ce0 O16 2.390716 1_545
Ce0 O6 2.433045 1_655
Ce0 O4 2.433045 1_545
Ce1 O3 2.329342 1_565
Ce1 O1 2.329342 1_455
Ce1 O13 2.361289 1_555
Ce1 O15 2.361289 1_555
Ce1 O17 2.390716 1_565
Ce1 O19 2.390716 1_455
Ce1 O5 2.433045 1_565
Ce1 O7 2.433045 1_455
O0 P1 1.505001 1_555
O1 P0 1.505001 1_555
O2 P3 1.505001 1_556
O3 P2 1.505001 1_554
O4 P5 1.500039 1_556
O5 P4 1.500039 1_554
O6 P7 1.500039 1_555
O7 P6 1.500039 1_555
O8 P2 1.614732 1_555
O8 P4 1.616553 1_555
O9 P3 1.614732 1_555
O9 P5 1.616553 1_555
O10 P0 1.614732 1_555
O10 P6 1.616553 1_555
O11 P1 1.614732 1_555
O11 P7 1.616553 1_555
O12 P6 1.508196 1_555
O13 P7 1.508196 1_555
O14 P4 1.508196 1_555
O15 P5 1.508196 1_555
O16 P0 1.496331 1_555
O17 P1 1.496331 1_555
O18 P2 1.496331 1_555
O19 P3 1.496331 1_555
O20 P0 1.600855 1_555
O20 P7 1.608325 1_555
O21 P1 1.600855 1_555
O21 P6 1.608325 1_555
O22 P2 1.600855 1_555
O22 P5 1.608325 1_556
O23 P3 1.600855 1_555
O23 P4 1.608325 1_554
