# generated using pymatgen
data_YbCd3
_symmetry_space_group_name_H-M   'P 1'
_cell_length_a   6.60227486
_cell_length_b   6.60227486
_cell_length_c   5.17743200
_cell_angle_alpha   90.00000000
_cell_angle_beta   90.00000000
_cell_angle_gamma   120.00000862
_symmetry_Int_Tables_number   1
_chemical_formula_structural   YbCd3
_chemical_formula_sum   'Yb2 Cd6'
_cell_volume   195.44843562
_cell_formula_units_Z   2
loop_
 _symmetry_equiv_pos_site_id
 _symmetry_equiv_pos_as_xyz
  1  'x, y, z'
loop_
 _atom_site_type_symbol
 _atom_site_label
 _atom_site_symmetry_multiplicity
 _atom_site_fract_x
 _atom_site_fract_y
 _atom_site_fract_z
 _atom_site_occupancy
  Yb  Yb0  1  0.33333300  0.66666700  0.75000000  1
  Yb  Yb1  1  0.66666700  0.33333300  0.25000000  1
  Cd  Cd0  1  0.16331900  0.32663800  0.25000000  1
  Cd  Cd1  1  0.67336200  0.83668100  0.25000000  1
  Cd  Cd2  1  0.16331900  0.83668100  0.25000000  1
  Cd  Cd3  1  0.83668100  0.67336200  0.75000000  1
  Cd  Cd4  1  0.32663800  0.16331900  0.75000000  1
  Cd  Cd5  1  0.83668100  0.16331900  0.75000000  1
loop_
_geom_bond_atom_site_label_1
_geom_bond_atom_site_label_2
_geom_bond_distance
_geom_bond_site_symmetry_2
Cd0 Cd5 3.192099 1_454
Cd0 Cd5 3.192099 1_455
Cd0 Cd4 3.192099 1_554
Cd0 Cd4 3.192099 1_555
Cd0 Cd1 3.234830 1_445
Cd0 Cd2 3.234831 1_545
Cd0 Yb0 3.237491 1_555
Cd0 Yb0 3.237491 1_554
Cd0 Yb1 3.301356 1_455
Cd0 Yb1 3.301363 1_555
Cd0 Cd1 3.367444 1_555
Cd0 Cd2 3.367444 1_555
Cd1 Cd5 3.192099 1_565
Cd1 Cd5 3.192099 1_564
Cd1 Cd3 3.192099 1_555
Cd1 Cd3 3.192099 1_554
Cd1 Cd2 3.234831 1_655
Cd1 Yb0 3.237491 1_554
Cd1 Yb0 3.237491 1_555
Cd1 Yb1 3.301356 1_565
Cd1 Yb1 3.301363 1_555
Cd1 Cd2 3.367444 1_555
Cd2 Cd3 3.192099 1_455
Cd2 Cd3 3.192099 1_454
Cd2 Cd4 3.192099 1_565
Cd2 Cd4 3.192099 1_564
Cd2 Yb0 3.237488 1_555
Cd2 Yb0 3.237488 1_554
Cd2 Yb1 3.301359 1_455
Cd2 Yb1 3.301359 1_565
Cd3 Cd4 3.234830 1_665
Cd3 Cd5 3.234831 1_565
Cd3 Yb1 3.237491 1_556
Cd3 Yb1 3.237491 1_555
Cd3 Yb0 3.301356 1_655
Cd3 Yb0 3.301363 1_555
Cd3 Cd4 3.367444 1_555
Cd3 Cd5 3.367444 1_555
Cd4 Cd5 3.234831 1_455
Cd4 Yb1 3.237491 1_556
Cd4 Yb1 3.237491 1_555
Cd4 Yb0 3.301356 1_545
Cd4 Yb0 3.301363 1_555
Cd4 Cd5 3.367444 1_555
Cd5 Yb1 3.237488 1_555
Cd5 Yb1 3.237488 1_556
Cd5 Yb0 3.301359 1_545
Cd5 Yb0 3.301359 1_655
