# generated using pymatgen
data_Na2GeS3O7
_symmetry_space_group_name_H-M   'P 1'
_cell_length_a   6.82653100
_cell_length_b   7.30959357
_cell_length_c   9.65481136
_cell_angle_alpha   70.26260072
_cell_angle_beta   84.03787552
_cell_angle_gamma   85.92124341
_symmetry_Int_Tables_number   1
_chemical_formula_structural   Na2GeS3O7
_chemical_formula_sum   'Na4 Ge2 S6 O14'
_cell_volume   450.67598155
_cell_formula_units_Z   2
loop_
 _symmetry_equiv_pos_site_id
 _symmetry_equiv_pos_as_xyz
  1  'x, y, z'
loop_
 _atom_site_type_symbol
 _atom_site_label
 _atom_site_symmetry_multiplicity
 _atom_site_fract_x
 _atom_site_fract_y
 _atom_site_fract_z
 _atom_site_occupancy
  Na  Na0  1  0.20938800  0.38796200  0.56128200  1
  Na  Na1  1  0.79061200  0.61203800  0.43871800  1
  Na  Na2  1  0.52862400  0.42574100  0.78902700  1
  Na  Na3  1  0.47137600  0.57425900  0.21097300  1
  Ge  Ge0  1  0.10078600  0.01656700  0.12945000  1
  Ge  Ge1  1  0.89921400  0.98343300  0.87055000  1
  S  S0  1  0.97361600  0.41592000  0.09954700  1
  S  S1  1  0.02638400  0.58408000  0.90045300  1
  S  S2  1  0.21458900  0.94439300  0.42592100  1
  S  S3  1  0.78541100  0.05560700  0.57407900  1
  S  S4  1  0.25510800  0.99930500  0.89072800  1
  S  S5  1  0.74489200  0.00069500  0.10927200  1
  O  O0  1  0.17879400  0.74315500  0.17332900  1
  O  O1  1  0.82120600  0.25684500  0.82667100  1
  O  O2  1  0.04026800  0.81709600  0.46847900  1
  O  O3  1  0.95973200  0.18290400  0.53152100  1
  O  O4  1  0.48351000  0.41026900  0.04119300  1
  O  O5  1  0.51649000  0.58973100  0.95880700  1
  O  O6  1  0.41232900  0.62774500  0.57619500  1
  O  O7  1  0.58767100  0.37225500  0.42380500  1
  O  O8  1  0.33803100  0.18722200  0.77785600  1
  O  O9  1  0.66196900  0.81277800  0.22214400  1
  O  O10  1  0.08684100  0.57526800  0.26881200  1
  O  O11  1  0.91315900  0.42473200  0.73118800  1
  O  O12  1  0.60410800  0.16694300  0.47129200  1
  O  O13  1  0.39589200  0.83305700  0.52870800  1
loop_
_geom_bond_atom_site_label_1
_geom_bond_atom_site_label_2
_geom_bond_distance
_geom_bond_site_symmetry_2
Na0 O8 2.328590 1_555
Na0 O6 2.359945 1_555
Na0 O3 2.447416 1_455
Na0 O11 2.526635 1_455
Na0 O7 2.791456 1_555
Na0 O10 2.874800 1_555
Na1 O9 2.328590 1_555
Na1 O7 2.359945 1_555
Na1 O2 2.447416 1_655
Na1 O10 2.526635 1_655
Na1 O6 2.791456 1_555
Na1 O11 2.874800 1_555
Na2 O1 2.267706 1_555
Na2 O6 2.270631 1_555
Na2 O8 2.285395 1_555
Na2 O5 2.327123 1_555
Na2 O4 2.387092 1_556
Na2 O11 2.626448 1_555
Na3 O0 2.267706 1_555
Na3 O7 2.270631 1_555
Na3 O9 2.285395 1_555
Na3 O4 2.327123 1_555
Na3 O5 2.387092 1_554
Na3 O10 2.626448 1_555
Ge0 O0 1.944427 1_545
Ge0 S5 2.471371 1_455
Ge0 S4 2.472049 1_544
Ge0 S0 2.912137 1_455
Ge1 O1 1.944427 1_565
Ge1 S4 2.471371 1_655
Ge1 S5 2.472049 1_566
Ge1 S1 2.912137 1_655
S0 S1 1.912812 1_654
O0 O10 1.405391 1_555
O1 O11 1.405391 1_555
O2 S2 1.499489 1_555
O3 S3 1.499489 1_555
O4 O5 1.305467 1_554
O8 S4 1.538251 1_545
O9 S5 1.538251 1_565
O10 S0 2.510165 1_455
O11 S1 2.510165 1_655
O12 O7 1.413166 1_555
O12 S3 1.656912 1_555
O13 O6 1.413166 1_555
O13 S2 1.656912 1_555
