# generated using pymatgen
data_CdH16C4S4(N5O3)2
_symmetry_space_group_name_H-M   'P 1'
_cell_length_a   9.36880400
_cell_length_b   13.10273000
_cell_length_c   16.16203654
_cell_angle_alpha   87.96984793
_cell_angle_beta   90.00000000
_cell_angle_gamma   90.00000000
_symmetry_Int_Tables_number   1
_chemical_formula_structural   CdH16C4S4(N5O3)2
_chemical_formula_sum   'Cd4 H64 C16 S16 N40 O24'
_cell_volume   1982.75634022
_cell_formula_units_Z   4
loop_
 _symmetry_equiv_pos_site_id
 _symmetry_equiv_pos_as_xyz
  1  'x, y, z'
loop_
 _atom_site_type_symbol
 _atom_site_label
 _atom_site_symmetry_multiplicity
 _atom_site_fract_x
 _atom_site_fract_y
 _atom_site_fract_z
 _atom_site_occupancy
  Cd  Cd0  1  0.53801300  0.74570800  0.54683200  1
  Cd  Cd1  1  0.03801300  0.25429200  0.95316800  1
  Cd  Cd2  1  0.46198700  0.25429200  0.45316800  1
  Cd  Cd3  1  0.96198700  0.74570800  0.04683200  1
  H  H0  1  0.16654600  0.71892300  0.72335600  1
  H  H1  1  0.66654600  0.28107700  0.77664400  1
  H  H2  1  0.83345400  0.28107700  0.27664400  1
  H  H3  1  0.33345400  0.71892300  0.22335600  1
  H  H4  1  0.33041000  0.78242600  0.73277500  1
  H  H5  1  0.83041000  0.21757400  0.76722500  1
  H  H6  1  0.66959000  0.21757400  0.26722500  1
  H  H7  1  0.16959000  0.78242600  0.23277500  1
  H  H8  1  0.15530000  0.55033500  0.68721500  1
  H  H9  1  0.65530000  0.44966500  0.81278500  1
  H  H10  1  0.84470000  0.44966500  0.31278500  1
  H  H11  1  0.34470000  0.55033500  0.18721500  1
  H  H12  1  0.31480700  0.48816400  0.65989800  1
  H  H13  1  0.81480700  0.51183600  0.84010200  1
  H  H14  1  0.68519300  0.51183600  0.34010200  1
  H  H15  1  0.18519300  0.48816400  0.15989800  1
  H  H16  1  0.47966900  0.88410300  0.28802400  1
  H  H17  1  0.97966900  0.11589700  0.21197600  1
  H  H18  1  0.52033100  0.11589700  0.71197600  1
  H  H19  1  0.02033100  0.88410300  0.78802400  1
  H  H20  1  0.42014200  0.81191400  0.37682500  1
  H  H21  1  0.92014200  0.18808600  0.12317500  1
  H  H22  1  0.57985800  0.18808600  0.62317500  1
  H  H23  1  0.07985800  0.81191400  0.87682500  1
  H  H24  1  0.69955600  0.84962600  0.22979000  1
  H  H25  1  0.19955600  0.15037400  0.27021000  1
  H  H26  1  0.30044400  0.15037400  0.77021000  1
  H  H27  1  0.80044400  0.84962600  0.72979000  1
  H  H28  1  0.81764600  0.76751700  0.28230100  1
  H  H29  1  0.31764600  0.23248300  0.21769900  1
  H  H30  1  0.18235400  0.23248300  0.71769900  1
  H  H31  1  0.68235400  0.76751700  0.78230100  1
  H  H32  1  0.80495600  0.99650300  0.38738400  1
  H  H33  1  0.30495600  0.00349700  0.11261600  1
  H  H34  1  0.19504400  0.00349700  0.61261600  1
  H  H35  1  0.69504400  0.99650300  0.88738400  1
  H  H36  1  0.63126400  0.00979700  0.42726000  1
  H  H37  1  0.13126400  0.99020300  0.07274000  1
  H  H38  1  0.36873600  0.99020300  0.57274000  1
  H  H39  1  0.86873600  0.00979700  0.92726000  1
  H  H40  1  0.96566600  0.89370200  0.46108600  1
  H  H41  1  0.46566600  0.10629800  0.03891400  1
  H  H42  1  0.03433400  0.10629800  0.53891400  1
  H  H43  1  0.53433400  0.89370200  0.96108600  1
  H  H44  1  0.92377200  0.84801500  0.56259800  1
  H  H45  1  0.42377200  0.15198500  0.93740200  1
  H  H46  1  0.07622800  0.15198500  0.43740200  1
  H  H47  1  0.57622800  0.84801500  0.06259800  1
  H  H48  1  0.05725200  0.56493400  0.41179700  1
  H  H49  1  0.55725200  0.43506600  0.08820300  1
  H  H50  1  0.94274800  0.43506600  0.58820300  1
  H  H51  1  0.44274800  0.56493400  0.91179700  1
  H  H52  1  0.01268100  0.67747500  0.46153900  1
  H  H53  1  0.51268100  0.32252500  0.03846100  1
  H  H54  1  0.98731900  0.32252500  0.53846100  1
  H  H55  1  0.48731900  0.67747500  0.96153900  1
  H  H56  1  0.28850800  0.51046700  0.40919000  1
  H  H57  1  0.78850800  0.48953300  0.09081000  1
  H  H58  1  0.71149200  0.48953300  0.59081000  1
  H  H59  1  0.21149200  0.51046700  0.90919000  1
  H  H60  1  0.42713300  0.59832300  0.42666500  1
  H  H61  1  0.92713300  0.40167700  0.07333500  1
  H  H62  1  0.57286700  0.40167700  0.57333500  1
  H  H63  1  0.07286700  0.59832300  0.92666500  1
  C  C0  1  0.34105900  0.63424300  0.69553700  1
  C  C1  1  0.84105900  0.36575700  0.80446300  1
  C  C2  1  0.65894100  0.36575700  0.30446300  1
  C  C3  1  0.15894100  0.63424300  0.19553700  1
  C  C4  1  0.62138900  0.77890700  0.33640800  1
  C  C5  1  0.12138900  0.22109300  0.16359200  1
  C  C6  1  0.37861100  0.22109300  0.66359200  1
  C  C7  1  0.87861100  0.77890700  0.83640800  1
  C  C8  1  0.76829200  0.93170500  0.50381800  1
  C  C9  1  0.26829200  0.06829500  0.99618200  1
  C  C10  1  0.23170800  0.06829500  0.49618200  1
  C  C11  1  0.73170800  0.93170500  0.00381800  1
  C  C12  1  0.22629600  0.64862300  0.45352600  1
  C  C13  1  0.72629600  0.35137700  0.04647400  1
  C  C14  1  0.77370400  0.35137700  0.54647400  1
  C  C15  1  0.27370400  0.64862300  0.95352600  1
  S  S0  1  0.52496700  0.63334100  0.67891200  1
  S  S1  1  0.02496700  0.36665900  0.82108800  1
  S  S2  1  0.47503300  0.36665900  0.32108800  1
  S  S3  1  0.97503300  0.63334100  0.17891200  1
  S  S4  1  0.66497400  0.68709200  0.41254300  1
  S  S5  1  0.16497400  0.31290800  0.08745700  1
  S  S6  1  0.33502600  0.31290800  0.58745700  1
  S  S7  1  0.83502600  0.68709200  0.91254300  1
  S  S8  1  0.64510200  0.91841300  0.58454200  1
  S  S9  1  0.14510200  0.08158700  0.91545800  1
  S  S10  1  0.35489800  0.08158700  0.41545800  1
  S  S11  1  0.85489800  0.91841300  0.08454200  1
  S  S12  1  0.27286500  0.76470500  0.49305300  1
  S  S13  1  0.77286500  0.23529500  0.00694700  1
  S  S14  1  0.72713500  0.23529500  0.50694700  1
  S  S15  1  0.22713500  0.76470500  0.99305300  1
  N  N0  1  0.27564800  0.71591500  0.72408500  1
  N  N1  1  0.77564800  0.28408500  0.77591500  1
  N  N2  1  0.72435200  0.28408500  0.27591500  1
  N  N3  1  0.22435200  0.71591500  0.22408500  1
  N  N4  1  0.26504400  0.55109300  0.68097100  1
  N  N5  1  0.76504400  0.44890700  0.81902900  1
  N  N6  1  0.73495600  0.44890700  0.31902900  1
  N  N7  1  0.23495600  0.55109300  0.18097100  1
  N  N8  1  0.49549200  0.82579600  0.33187200  1
  N  N9  1  0.99549200  0.17420400  0.16812800  1
  N  N10  1  0.50450800  0.17420400  0.66812800  1
  N  N11  1  0.00450800  0.82579600  0.83187200  1
  N  N12  1  0.72044500  0.80190100  0.27946700  1
  N  N13  1  0.22044500  0.19809900  0.22053300  1
  N  N14  1  0.27955500  0.19809900  0.72053300  1
  N  N15  1  0.77955500  0.80190100  0.77946700  1
  N  N16  1  0.73316900  0.98451800  0.43473000  1
  N  N17  1  0.23316900  0.01548200  0.06527000  1
  N  N18  1  0.26683100  0.01548200  0.56527000  1
  N  N19  1  0.76683100  0.98451800  0.93473000  1
  N  N20  1  0.89866800  0.89273300  0.51155300  1
  N  N21  1  0.39866800  0.10726700  0.98844700  1
  N  N22  1  0.10133200  0.10726700  0.48844700  1
  N  N23  1  0.60133200  0.89273300  0.01155300  1
  N  N24  1  0.08761500  0.62577900  0.44592800  1
  N  N25  1  0.58761500  0.37422100  0.05407200  1
  N  N26  1  0.91238500  0.37422100  0.55407200  1
  N  N27  1  0.41238500  0.62577900  0.94592800  1
  N  N28  1  0.32142700  0.57983200  0.42957300  1
  N  N29  1  0.82142700  0.42016800  0.07042700  1
  N  N30  1  0.67857300  0.42016800  0.57042700  1
  N  N31  1  0.17857300  0.57983200  0.92957300  1
  N  N32  1  0.91749700  0.63708600  0.63075600  1
  N  N33  1  0.41749700  0.36291400  0.86924400  1
  N  N34  1  0.08250300  0.36291400  0.36924400  1
  N  N35  1  0.58250300  0.63708600  0.13075600  1
  N  N36  1  0.45979600  0.94087200  0.79403400  1
  N  N37  1  0.95979600  0.05912800  0.70596600  1
  N  N38  1  0.54020400  0.05912800  0.20596600  1
  N  N39  1  0.04020400  0.94087200  0.29403400  1
  O  O0  1  0.81124200  0.63238900  0.58254100  1
  O  O1  1  0.31124200  0.36761100  0.91745900  1
  O  O2  1  0.18875800  0.36761100  0.41745900  1
  O  O3  1  0.68875800  0.63238900  0.08254100  1
  O  O4  1  0.97757800  0.72135700  0.64376600  1
  O  O5  1  0.47757800  0.27864300  0.85623400  1
  O  O6  1  0.02242200  0.27864300  0.35623400  1
  O  O7  1  0.52242200  0.72135700  0.14376600  1
  O  O8  1  0.96413500  0.55464700  0.66597200  1
  O  O9  1  0.46413500  0.44535300  0.83402800  1
  O  O10  1  0.03586500  0.44535300  0.33402800  1
  O  O11  1  0.53586500  0.55464700  0.16597200  1
  O  O12  1  0.52358500  0.02565600  0.80566900  1
  O  O13  1  0.02358500  0.97434400  0.69433100  1
  O  O14  1  0.47641500  0.97434400  0.19433100  1
  O  O15  1  0.97641500  0.02565600  0.30566900  1
  O  O16  1  0.38625200  0.92997000  0.72925500  1
  O  O17  1  0.88625200  0.07003000  0.77074500  1
  O  O18  1  0.61374800  0.07003000  0.27074500  1
  O  O19  1  0.11374800  0.92997000  0.22925500  1
  O  O20  1  0.47121200  0.86826600  0.84728900  1
  O  O21  1  0.97121200  0.13173400  0.65271100  1
  O  O22  1  0.52878800  0.13173400  0.15271100  1
  O  O23  1  0.02878800  0.86826600  0.34728900  1
loop_
_geom_bond_atom_site_label_1
_geom_bond_atom_site_label_2
_geom_bond_distance
_geom_bond_site_symmetry_2
Cd0 S0 2.552810 1_555
Cd0 S8 2.568369 1_555
Cd0 S4 2.614074 1_555
Cd0 S12 2.640634 1_555
Cd1 S1 2.552810 1_555
Cd1 S9 2.568369 1_555
Cd1 S5 2.614074 1_556
Cd1 S13 2.640634 1_456
Cd2 S2 2.552810 1_555
Cd2 S10 2.568369 1_555
Cd2 S6 2.614074 1_555
Cd2 S14 2.640634 1_555
Cd3 S3 2.552810 1_555
Cd3 S11 2.568369 1_555
Cd3 S7 2.614074 1_554
Cd3 S15 2.640634 1_654
H0 N0 1.022967 1_555
H1 N1 1.022967 1_555
H2 N2 1.022967 1_555
H3 N3 1.022967 1_555
H4 N0 1.025228 1_555
H5 N1 1.025228 1_555
H6 N2 1.025228 1_555
H7 N3 1.025228 1_555
H8 N4 1.033124 1_555
H9 N5 1.033124 1_555
H10 N6 1.033124 1_555
H11 N7 1.033124 1_555
H12 N4 1.016427 1_555
H13 N5 1.016427 1_555
H14 N6 1.016427 1_555
H15 N7 1.016427 1_555
H16 N8 1.034167 1_555
H17 N9 1.034167 1_555
H18 N10 1.034167 1_555
H19 N11 1.034167 1_555
H20 N8 1.024657 1_555
H21 N9 1.024657 1_555
H22 N10 1.024657 1_555
H23 N11 1.024657 1_555
H24 N12 1.019010 1_555
H25 N13 1.019010 1_555
H26 N14 1.019010 1_555
H27 N15 1.019010 1_555
H28 N12 1.016319 1_555
H29 N13 1.016319 1_555
H30 N14 1.016319 1_555
H31 N15 1.016319 1_555
H32 N16 1.026657 1_555
H33 N17 1.026657 1_555
H34 N18 1.026657 1_555
H35 N19 1.026657 1_555
H36 N16 1.016345 1_545
H37 N17 1.016345 1_565
H38 N18 1.016345 1_565
H39 N19 1.016345 1_545
H40 N20 1.028935 1_555
H41 N21 1.028935 1_554
H42 N22 1.028935 1_555
H43 N23 1.028935 1_556
H44 N20 1.022248 1_555
H45 N21 1.022248 1_555
H46 N22 1.022248 1_555
H47 N23 1.022248 1_555
H48 N24 1.025649 1_555
H49 N25 1.025649 1_555
H50 N26 1.025649 1_555
H51 N27 1.025649 1_555
H52 N24 1.013629 1_555
H53 N25 1.013629 1_555
H54 N26 1.013629 1_555
H55 N27 1.013629 1_555
H56 N28 1.025135 1_555
H57 N29 1.025135 1_555
H58 N30 1.025135 1_555
H59 N31 1.025135 1_555
H60 N28 1.020232 1_555
H61 N29 1.020232 1_555
H62 N30 1.020232 1_555
H63 N31 1.020232 1_555
C0 N4 1.329576 1_555
C0 N0 1.329883 1_555
C0 S0 1.743928 1_555
C1 N5 1.329576 1_555
C1 N1 1.329883 1_555
C1 S1 1.743928 1_655
C2 N6 1.329576 1_555
C2 N2 1.329883 1_555
C2 S2 1.743928 1_555
C3 N7 1.329576 1_555
C3 N3 1.329883 1_555
C3 S3 1.743928 1_455
C4 N8 1.330740 1_555
C4 N12 1.333904 1_555
C4 S4 1.738751 1_555
C5 N9 1.330740 1_455
C5 N13 1.333904 1_555
C5 S5 1.738751 1_555
C6 N10 1.330740 1_555
C6 N14 1.333904 1_555
C6 S6 1.738751 1_555
C7 N11 1.330740 1_655
C7 N15 1.333904 1_555
C7 S7 1.738751 1_555
C8 N20 1.328097 1_555
C8 N16 1.333864 1_555
C8 S8 1.745975 1_555
C9 N21 1.328097 1_555
C9 N17 1.333864 1_556
C9 S9 1.745975 1_555
C10 N22 1.328097 1_555
C10 N18 1.333864 1_555
C10 S10 1.745975 1_555
C11 N23 1.328097 1_555
C11 N19 1.333864 1_554
C11 S11 1.745975 1_555
C12 N28 1.334681 1_555
C12 N24 1.339922 1_555
C12 S12 1.726477 1_555
C13 N29 1.334681 1_555
C13 N25 1.339922 1_555
C13 S13 1.726477 1_555
C14 N30 1.334681 1_555
C14 N26 1.339922 1_555
C14 S14 1.726477 1_555
C15 N31 1.334681 1_555
C15 N27 1.339922 1_555
C15 S15 1.726477 1_555
N32 O4 1.263613 1_555
N32 O0 1.267046 1_555
N32 O8 1.279877 1_555
N33 O5 1.263613 1_555
N33 O1 1.267046 1_555
N33 O9 1.279877 1_555
N34 O6 1.263613 1_555
N34 O2 1.267046 1_555
N34 O10 1.279877 1_555
N35 O7 1.263613 1_555
N35 O3 1.267046 1_555
N35 O11 1.279877 1_555
N36 O20 1.264629 1_555
N36 O16 1.265652 1_555
N36 O12 1.281180 1_565
N37 O21 1.264629 1_555
N37 O17 1.265652 1_555
N37 O13 1.281180 1_645
N38 O22 1.264629 1_555
N38 O18 1.265652 1_555
N38 O14 1.281180 1_545
N39 O23 1.264629 1_555
N39 O19 1.265652 1_555
N39 O15 1.281180 1_465
