# generated using pymatgen
data_Li9Mn2Co5O16
_symmetry_space_group_name_H-M   'P 1'
_cell_length_a   2.92621820
_cell_length_b   15.43793162
_cell_length_c   6.57825932
_cell_angle_alpha   91.73181945
_cell_angle_beta   77.14902377
_cell_angle_gamma   90.00000027
_symmetry_Int_Tables_number   1
_chemical_formula_structural   Li9Mn2Co5O16
_chemical_formula_sum   'Li9 Mn2 Co5 O16'
_cell_volume   289.58844674
_cell_formula_units_Z   1
loop_
 _symmetry_equiv_pos_site_id
 _symmetry_equiv_pos_as_xyz
  1  'x, y, z'
loop_
 _atom_site_type_symbol
 _atom_site_label
 _atom_site_symmetry_multiplicity
 _atom_site_fract_x
 _atom_site_fract_y
 _atom_site_fract_z
 _atom_site_occupancy
  Li  Li0  1  0.31102669  0.05899245  0.37794662  1
  Li  Li1  1  0.93925227  0.19570863  0.12149545  1
  Li  Li2  1  0.56311584  0.31762407  0.87376831  1
  Li  Li3  1  0.68702730  0.93441030  0.62594540  1
  Li  Li4  1  0.06149012  0.80479890  0.87701977  1
  Li  Li5  1  0.44303037  0.68846585  0.11393926  1
  Li  Li6  1  0.18310548  0.44307983  0.63378904  1
  Li  Li7  1  0.80969474  0.55631639  0.38061051  1
  Li  Li8  1  0.50309869  0.49867584  0.99380261  1
  Mn  Mn0  1  0.99936503  0.00023327  0.00126995  1
  Mn  Mn1  1  0.25247365  0.25122132  0.49505271  1
  Co  Co0  1  0.62624633  0.12526340  0.74750734  1
  Co  Co1  1  0.88860037  0.38460748  0.22279927  1
  Co  Co2  1  0.11856657  0.62071424  0.76286686  1
  Co  Co3  1  0.74627745  0.74863467  0.50744510  1
  Co  Co4  1  0.37193598  0.87160211  0.25612804  1
  O  O0  1  0.46970018  0.08138249  0.06059964  1
  O  O1  1  0.10696693  0.21578891  0.78606615  1
  O  O2  1  0.72534422  0.33176545  0.54931156  1
  O  O3  1  0.85317554  0.96677028  0.29364892  1
  O  O4  1  0.22065062  0.83790141  0.55869875  1
  O  O5  1  0.59784944  0.71549778  0.80430112  1
  O  O6  1  0.34346399  0.46305185  0.31307202  1
  O  O7  1  0.98696444  0.59919618  0.02607111  1
  O  O8  1  0.14447316  0.03096562  0.71105368  1
  O  O9  1  0.78252331  0.16792549  0.43495338  1
  O  O10  1  0.39521852  0.28485963  0.20956297  1
  O  O11  1  0.52488596  0.91760430  0.95022808  1
  O  O12  1  0.89965820  0.78307193  0.20068359  1
  O  O13  1  0.26445428  0.65989543  0.47109143  1
  O  O14  1  0.02591503  0.40335472  0.94816994  1
  O  O15  1  0.65444930  0.54061977  0.69110141  1
loop_
_geom_bond_atom_site_label_1
_geom_bond_atom_site_label_2
_geom_bond_distance
_geom_bond_site_symmetry_2
Li0 O0 2.074980 1_555
Li0 O3 2.100533 1_545
Li0 O3 2.100533 1_445
Li0 O8 2.192857 1_555
Li0 O9 2.250413 1_455
Li0 O9 2.250413 1_555
Li1 O9 2.068566 1_555
Li1 O10 2.075027 1_555
Li1 O10 2.075027 1_655
Li1 O1 2.182982 1_654
Li1 O0 2.316369 1_655
Li1 O0 2.316369 1_555
Li2 O14 2.020122 1_555
Li2 O14 2.020122 1_655
Li2 O2 2.099039 1_555
Li2 O1 2.207673 1_655
Li2 O1 2.207673 1_555
Li2 O10 2.227428 1_556
Li3 O11 2.103868 1_555
Li3 O4 2.122888 1_655
Li3 O4 2.122888 1_555
Li3 O8 2.147119 1_565
Li3 O8 2.147119 1_665
Li3 O3 2.203974 1_555
Li4 O5 2.054007 1_555
Li4 O5 2.054007 1_455
Li4 O12 2.112977 1_456
Li4 O4 2.119847 1_555
Li4 O11 2.311538 1_455
Li4 O11 2.311538 1_555
Li5 O5 2.041855 1_554
Li5 O7 2.075906 1_555
Li5 O7 2.075906 1_455
Li5 O12 2.129072 1_455
Li5 O12 2.129072 1_555
Li5 O13 2.346056 1_555
Li6 O6 2.089325 1_555
Li6 O15 2.123432 1_455
Li6 O15 2.123432 1_555
Li6 O14 2.125591 1_555
Li6 O2 2.308598 1_555
Li6 O2 2.308598 1_455
Li7 O15 2.013462 1_555
Li7 O6 2.088709 1_655
Li7 O6 2.088709 1_555
Li7 O13 2.230887 1_555
Li7 O13 2.230887 1_655
Li7 O7 2.387854 1_555
Li8 O15 2.065464 1_555
Li8 O14 2.089290 1_655
Li8 O14 2.089290 1_555
Li8 O6 2.136600 1_556
Li8 O7 2.138170 1_456
Li8 O7 2.138170 1_556
Mn0 O8 1.935013 1_654
Mn0 O0 1.955856 1_555
Mn0 O0 1.955856 1_655
Mn0 O3 1.960405 1_545
Mn0 O11 1.961930 1_644
Mn0 O11 1.961930 1_544
Mn1 O10 1.918627 1_555
Mn1 O2 1.944502 1_455
Mn1 O2 1.944502 1_555
Mn1 O1 1.961121 1_555
Mn1 O9 1.977905 1_555
Mn1 O9 1.977905 1_455
Co0 O1 2.033101 1_555
Co0 O1 2.033101 1_655
Co0 O8 2.072075 1_655
Co0 O8 2.072075 1_555
Co0 O9 2.129292 1_555
Co0 O0 2.139009 1_556
Co1 O14 1.793782 1_654
Co1 O6 1.974585 1_555
Co1 O6 1.974585 1_655
Co1 O10 2.123931 1_655
Co1 O10 2.123931 1_555
Co1 O2 2.270808 1_555
Co2 O7 1.730507 1_456
Co2 O15 1.961164 1_555
Co2 O15 1.961164 1_455
Co2 O13 1.984390 1_555
Co2 O5 2.080465 1_455
Co2 O5 2.080465 1_555
Co3 O5 1.986667 1_555
Co3 O13 2.012961 1_655
Co3 O13 2.012961 1_555
Co3 O4 2.029729 1_555
Co3 O4 2.029729 1_655
Co3 O12 2.053823 1_555
Co4 O4 2.024584 1_555
Co4 O12 2.026064 1_555
Co4 O12 2.026064 1_455
Co4 O3 2.082120 1_455
Co4 O3 2.082120 1_555
Co4 O11 2.107065 1_554
