# generated using pymatgen
data_MgCd
_symmetry_space_group_name_H-M   'P 1'
_cell_length_a   6.33668667
_cell_length_b   6.33668667
_cell_length_c   9.86538612
_cell_angle_alpha   90.00000000
_cell_angle_beta   90.00000000
_cell_angle_gamma   119.99998864
_symmetry_Int_Tables_number   1
_chemical_formula_structural   MgCd
_chemical_formula_sum   'Mg8 Cd8'
_cell_volume   343.05933042
_cell_formula_units_Z   8
loop_
 _symmetry_equiv_pos_site_id
 _symmetry_equiv_pos_as_xyz
  1  'x, y, z'
loop_
 _atom_site_type_symbol
 _atom_site_label
 _atom_site_symmetry_multiplicity
 _atom_site_fract_x
 _atom_site_fract_y
 _atom_site_fract_z
 _atom_site_occupancy
  Mg  Mg0_0  1  0.00000000  0.00000000  0.25000000  1
  Mg  Mg0_1  1  0.00000000  0.00000000  0.75000000  1
  Mg  Mg0_2  1  0.00000000  0.50000000  0.25000000  1
  Mg  Mg0_3  1  0.00000000  0.50000000  0.75000000  1
  Mg  Mg0_4  1  0.50000000  0.00000000  0.25000000  1
  Mg  Mg0_5  1  0.50000000  0.00000000  0.75000000  1
  Mg  Mg0_6  1  0.50000000  0.50000000  0.25000000  1
  Mg  Mg0_7  1  0.50000000  0.50000000  0.75000000  1
  Cd  Cd0_0  1  0.33333350  0.16666650  0.00000000  1
  Cd  Cd0_1  1  0.33333350  0.16666650  0.50000000  1
  Cd  Cd0_2  1  0.33333350  0.66666650  0.00000000  1
  Cd  Cd0_3  1  0.33333350  0.66666650  0.50000000  1
  Cd  Cd0_4  1  0.83333350  0.16666650  0.00000000  1
  Cd  Cd0_5  1  0.83333350  0.16666650  0.50000000  1
  Cd  Cd0_6  1  0.83333350  0.66666650  0.00000000  1
  Cd  Cd0_7  1  0.83333350  0.66666650  0.50000000  1
loop_
_geom_bond_atom_site_label_1
_geom_bond_atom_site_label_2
_geom_bond_distance
_geom_bond_site_symmetry_2
Mg0_0 Mg0_2 3.168343 1_545
Mg0_0 Mg0_4 3.168343 1_455
Mg0_0 Mg0_4 3.168343 1_555
Mg0_0 Mg0_2 3.168343 1_555
Mg0_0 Mg0_6 3.168344 1_555
Mg0_0 Mg0_6 3.168344 1_445
Mg0_1 Mg0_5 3.168343 1_555
Mg0_1 Mg0_3 3.168343 1_545
Mg0_1 Mg0_3 3.168343 1_555
Mg0_1 Mg0_5 3.168343 1_455
Mg0_1 Mg0_7 3.168344 1_555
Mg0_1 Mg0_7 3.168344 1_445
Mg0_2 Mg0_6 3.168343 1_555
Mg0_2 Mg0_6 3.168343 1_455
Mg0_2 Mg0_4 3.168344 1_455
Mg0_2 Mg0_4 3.168344 1_565
Mg0_3 Mg0_7 3.168343 1_455
Mg0_3 Mg0_7 3.168343 1_555
Mg0_3 Mg0_5 3.168344 1_565
Mg0_3 Mg0_5 3.168344 1_455
Mg0_4 Mg0_6 3.168343 1_545
Mg0_4 Mg0_6 3.168343 1_555
Mg0_5 Mg0_7 3.168343 1_545
Mg0_5 Mg0_7 3.168343 1_555
Cd0_0 Mg0_5 3.070666 1_554
Cd0_0 Mg0_4 3.070666 1_555
Cd0_0 Mg0_1 3.070668 1_554
Cd0_0 Mg0_7 3.070668 1_554
Cd0_0 Mg0_6 3.070668 1_555
Cd0_0 Mg0_0 3.070668 1_555
Cd0_0 Cd0_4 3.168343 1_455
Cd0_0 Cd0_2 3.168343 1_545
Cd0_0 Cd0_4 3.168343 1_555
Cd0_0 Cd0_2 3.168343 1_555
Cd0_0 Cd0_6 3.168344 1_445
Cd0_0 Cd0_6 3.168344 1_555
Cd0_1 Mg0_4 3.070666 1_555
Cd0_1 Mg0_5 3.070666 1_555
Cd0_1 Mg0_7 3.070668 1_555
Cd0_1 Mg0_1 3.070668 1_555
Cd0_1 Mg0_6 3.070668 1_555
Cd0_1 Mg0_0 3.070668 1_555
Cd0_1 Cd0_5 3.168343 1_455
Cd0_1 Cd0_3 3.168343 1_545
Cd0_1 Cd0_3 3.168343 1_555
Cd0_1 Cd0_5 3.168343 1_555
Cd0_1 Cd0_7 3.168344 1_555
Cd0_1 Cd0_7 3.168344 1_445
Cd0_2 Mg0_6 3.070666 1_555
Cd0_2 Mg0_7 3.070666 1_554
Cd0_2 Mg0_4 3.070668 1_565
Cd0_2 Mg0_5 3.070668 1_564
Cd0_2 Mg0_3 3.070668 1_554
Cd0_2 Mg0_2 3.070668 1_555
Cd0_2 Cd0_6 3.168343 1_555
Cd0_2 Cd0_6 3.168343 1_455
Cd0_2 Cd0_4 3.168344 1_565
Cd0_2 Cd0_4 3.168344 1_455
Cd0_3 Mg0_6 3.070666 1_555
Cd0_3 Mg0_7 3.070666 1_555
Cd0_3 Mg0_4 3.070668 1_565
Cd0_3 Mg0_5 3.070668 1_565
Cd0_3 Mg0_3 3.070668 1_555
Cd0_3 Mg0_2 3.070668 1_555
Cd0_3 Cd0_7 3.168343 1_555
Cd0_3 Cd0_7 3.168343 1_455
Cd0_3 Cd0_5 3.168344 1_565
Cd0_3 Cd0_5 3.168344 1_455
Cd0_4 Mg0_0 3.070666 1_655
Cd0_4 Mg0_1 3.070666 1_654
Cd0_4 Mg0_2 3.070668 1_655
Cd0_4 Mg0_4 3.070668 1_555
Cd0_4 Mg0_5 3.070668 1_554
Cd0_4 Mg0_3 3.070668 1_654
Cd0_4 Cd0_6 3.168343 1_545
Cd0_4 Cd0_6 3.168343 1_555
Cd0_5 Mg0_0 3.070666 1_655
Cd0_5 Mg0_1 3.070666 1_655
Cd0_5 Mg0_2 3.070668 1_655
Cd0_5 Mg0_4 3.070668 1_555
Cd0_5 Mg0_3 3.070668 1_655
Cd0_5 Mg0_5 3.070668 1_555
Cd0_5 Cd0_7 3.168343 1_545
Cd0_5 Cd0_7 3.168343 1_555
Cd0_6 Mg0_3 3.070666 1_654
Cd0_6 Mg0_2 3.070666 1_655
Cd0_6 Mg0_0 3.070668 1_665
Cd0_6 Mg0_7 3.070668 1_554
Cd0_6 Mg0_1 3.070668 1_664
Cd0_6 Mg0_6 3.070668 1_555
Cd0_7 Mg0_2 3.070666 1_655
Cd0_7 Mg0_3 3.070666 1_655
Cd0_7 Mg0_0 3.070668 1_665
Cd0_7 Mg0_7 3.070668 1_555
Cd0_7 Mg0_1 3.070668 1_665
Cd0_7 Mg0_6 3.070668 1_555
