# generated using pymatgen
data_Yb4Al2O9
_symmetry_space_group_name_H-M   'P 1'
_cell_length_a   10.64487900
_cell_length_b   7.51177500
_cell_length_c   11.09958056
_cell_angle_alpha   72.99937002
_cell_angle_beta   90.00000000
_cell_angle_gamma   90.00000000
_symmetry_Int_Tables_number   1
_chemical_formula_structural   Yb4Al2O9
_chemical_formula_sum   'Yb16 Al8 O36'
_cell_volume   848.75964739
_cell_formula_units_Z   4
loop_
 _symmetry_equiv_pos_site_id
 _symmetry_equiv_pos_as_xyz
  1  'x, y, z'
loop_
 _atom_site_type_symbol
 _atom_site_label
 _atom_site_symmetry_multiplicity
 _atom_site_fract_x
 _atom_site_fract_y
 _atom_site_fract_z
 _atom_site_occupancy
  Yb  Yb0  1  0.59206200  0.47479900  0.30191500  1
  Yb  Yb1  1  0.40793800  0.52520100  0.69808500  1
  Yb  Yb2  1  0.09206200  0.52520100  0.19808500  1
  Yb  Yb3  1  0.90793800  0.47479900  0.80191500  1
  Yb  Yb4  1  0.60392500  0.98707300  0.26775200  1
  Yb  Yb5  1  0.39607500  0.01292700  0.73224800  1
  Yb  Yb6  1  0.10392500  0.01292700  0.23224800  1
  Yb  Yb7  1  0.89607500  0.98707300  0.76775200  1
  Yb  Yb8  1  0.36588200  0.80603700  0.07309000  1
  Yb  Yb9  1  0.63411800  0.19396300  0.92691000  1
  Yb  Yb10  1  0.86588200  0.19396300  0.42691000  1
  Yb  Yb11  1  0.13411800  0.80603700  0.57309000  1
  Yb  Yb12  1  0.86255900  0.66986900  0.41100300  1
  Yb  Yb13  1  0.13744100  0.33013100  0.58899700  1
  Yb  Yb14  1  0.36255900  0.33013100  0.08899700  1
  Yb  Yb15  1  0.63744100  0.66986900  0.91100300  1
  Al  Al0  1  0.82147200  0.85185100  0.10710500  1
  Al  Al1  1  0.17852800  0.14814900  0.89289500  1
  Al  Al2  1  0.32147200  0.14814900  0.39289500  1
  Al  Al3  1  0.67852800  0.85185100  0.60710500  1
  Al  Al4  1  0.81705900  0.28009100  0.12942200  1
  Al  Al5  1  0.18294100  0.71990900  0.87057800  1
  Al  Al6  1  0.31705900  0.71990900  0.37057800  1
  Al  Al7  1  0.68294100  0.28009100  0.62942200  1
  O  O0  1  0.71918400  0.43262600  0.48101400  1
  O  O1  1  0.28081600  0.56737400  0.51898600  1
  O  O2  1  0.21918400  0.56737400  0.01898600  1
  O  O3  1  0.78081600  0.43262600  0.98101400  1
  O  O4  1  0.70531100  0.85281200  0.45179200  1
  O  O5  1  0.29468900  0.14718800  0.54820800  1
  O  O6  1  0.20531100  0.14718800  0.04820800  1
  O  O7  1  0.79468900  0.85281200  0.95179200  1
  O  O8  1  0.96454700  0.78828300  0.18840700  1
  O  O9  1  0.03545300  0.21171700  0.81159300  1
  O  O10  1  0.46454700  0.21171700  0.31159300  1
  O  O11  1  0.53545300  0.78828300  0.68840700  1
  O  O12  1  0.50709300  0.56536700  0.08787100  1
  O  O13  1  0.49290700  0.43463300  0.91212900  1
  O  O14  1  0.00709300  0.43463300  0.41212900  1
  O  O15  1  0.99290700  0.56536700  0.58787100  1
  O  O16  1  0.73486700  0.70458500  0.23052200  1
  O  O17  1  0.26513300  0.29541500  0.76947800  1
  O  O18  1  0.23486700  0.29541500  0.26947800  1
  O  O19  1  0.76513300  0.70458500  0.73052200  1
  O  O20  1  0.72642800  0.26405000  0.26525500  1
  O  O21  1  0.27357200  0.73595000  0.73474500  1
  O  O22  1  0.22642800  0.73595000  0.23474500  1
  O  O23  1  0.77357200  0.26405000  0.76525500  1
  O  O24  1  0.26011400  0.92950200  0.39617600  1
  O  O25  1  0.73988600  0.07049800  0.60382400  1
  O  O26  1  0.76011400  0.07049800  0.10382400  1
  O  O27  1  0.23988600  0.92950200  0.89617600  1
  O  O28  1  0.47117800  0.72955600  0.31249700  1
  O  O29  1  0.52882200  0.27044400  0.68750300  1
  O  O30  1  0.97117800  0.27044400  0.18750300  1
  O  O31  1  0.02882200  0.72955600  0.81249700  1
  O  O32  1  0.98097400  0.93661000  0.41987800  1
  O  O33  1  0.01902600  0.06339000  0.58012200  1
  O  O34  1  0.48097400  0.06339000  0.08012200  1
  O  O35  1  0.51902500  0.93661000  0.91987800  1
loop_
_geom_bond_atom_site_label_1
_geom_bond_atom_site_label_2
_geom_bond_distance
_geom_bond_site_symmetry_2
Al0 O7 1.745257 1_554
Al0 O16 1.750444 1_555
Al0 O26 1.757987 1_565
Al0 O8 1.763510 1_555
Al1 O6 1.745257 1_556
Al1 O17 1.750444 1_555
Al1 O27 1.757987 1_545
Al1 O9 1.763510 1_555
Al2 O5 1.745257 1_555
Al2 O18 1.750444 1_555
Al2 O24 1.757987 1_545
Al2 O10 1.763510 1_555
Al3 O4 1.745257 1_555
Al3 O19 1.750444 1_555
Al3 O25 1.757987 1_565
Al3 O11 1.763510 1_555
Al4 O3 1.752568 1_554
Al4 O30 1.756427 1_555
Al4 O20 1.764133 1_555
Al4 O26 1.785649 1_555
Al5 O2 1.752568 1_556
Al5 O31 1.756427 1_555
Al5 O21 1.764133 1_555
Al5 O27 1.785649 1_555
Al6 O1 1.752568 1_555
Al6 O28 1.756427 1_555
Al6 O22 1.764133 1_555
Al6 O24 1.785649 1_555
Al7 O0 1.752568 1_555
Al7 O29 1.756427 1_555
Al7 O23 1.764133 1_555
Al7 O25 1.785649 1_555
O0 Yb12 2.302022 1_555
O0 Yb0 2.348421 1_555
O0 Yb10 2.577367 1_555
O1 Yb13 2.302022 1_555
O1 Yb1 2.348421 1_555
O1 Yb11 2.577367 1_555
O2 Yb14 2.302022 1_555
O2 Yb2 2.348421 1_555
O2 Yb8 2.577367 1_555
O3 Yb15 2.302022 1_555
O3 Yb3 2.348421 1_555
O3 Yb9 2.577367 1_555
O4 Yb4 2.269377 1_555
O4 Yb12 2.293292 1_555
O4 Yb10 3.025086 1_565
O5 Yb5 2.269377 1_555
O5 Yb13 2.293292 1_555
O5 Yb11 3.025086 1_545
O6 Yb6 2.269377 1_555
O6 Yb14 2.293292 1_555
O6 Yb8 3.025086 1_545
O7 Yb7 2.269377 1_555
O7 Yb15 2.293292 1_555
O7 Yb9 3.025086 1_565
O8 Yb2 2.373879 1_655
O8 Yb6 2.401209 1_665
O8 Yb12 2.605604 1_555
O9 Yb3 2.373879 1_455
O9 Yb7 2.401209 1_445
O9 Yb13 2.605604 1_555
O10 Yb0 2.373879 1_555
O10 Yb4 2.401209 1_545
O10 Yb14 2.605604 1_555
O11 Yb1 2.373879 1_555
O11 Yb5 2.401209 1_565
O11 Yb15 2.605604 1_555
O12 Yb8 2.319776 1_555
O12 Yb14 2.340256 1_555
O12 Yb15 2.343996 1_554
O12 Yb0 2.445443 1_555
O13 Yb9 2.319776 1_555
O13 Yb15 2.340256 1_555
O13 Yb14 2.343996 1_556
O13 Yb1 2.445443 1_555
O14 Yb10 2.319776 1_455
O14 Yb12 2.340256 1_455
O14 Yb13 2.343996 1_555
O14 Yb2 2.445443 1_555
O15 Yb11 2.319776 1_655
O15 Yb13 2.340256 1_655
O15 Yb12 2.343996 1_555
O15 Yb3 2.445443 1_555
O16 Yb0 2.262378 1_555
O16 Yb12 2.371326 1_555
O16 Yb4 2.670058 1_555
O17 Yb1 2.262378 1_555
O17 Yb13 2.371326 1_555
O17 Yb5 2.670058 1_555
O18 Yb2 2.262378 1_555
O18 Yb14 2.371326 1_555
O18 Yb6 2.670058 1_555
O19 Yb3 2.262378 1_555
O19 Yb15 2.371326 1_555
O19 Yb7 2.670058 1_555
O20 Yb0 2.257046 1_555
O20 Yb10 2.268910 1_555
O20 Yb4 2.448753 1_545
O21 Yb1 2.257046 1_555
O21 Yb11 2.268910 1_555
O21 Yb5 2.448753 1_565
O22 Yb2 2.257046 1_555
O22 Yb8 2.268910 1_555
O22 Yb6 2.448753 1_565
O23 Yb3 2.257046 1_555
O23 Yb9 2.268910 1_555
O23 Yb7 2.448753 1_545
O24 Yb11 2.334531 1_555
O24 Yb6 2.408510 1_565
O25 Yb10 2.334531 1_555
O25 Yb7 2.408510 1_545
O26 Yb9 2.334531 1_554
O26 Yb4 2.408510 1_545
O27 Yb8 2.334531 1_556
O27 Yb5 2.408510 1_565
O28 Yb4 2.328860 1_555
O28 Yb0 2.337357 1_555
O28 Yb8 2.784780 1_555
O29 Yb5 2.328860 1_555
O29 Yb1 2.337357 1_555
O29 Yb9 2.784780 1_555
O30 Yb6 2.328860 1_655
O30 Yb2 2.337357 1_655
O30 Yb10 2.784780 1_555
O31 Yb7 2.328860 1_455
O31 Yb3 2.337357 1_455
O31 Yb11 2.784780 1_555
O32 Yb10 2.309215 1_565
O32 Yb11 2.352914 1_655
O32 Yb6 2.383427 1_665
O32 Yb12 2.393497 1_555
O33 Yb11 2.309215 1_545
O33 Yb10 2.352914 1_455
O33 Yb7 2.383427 1_445
O33 Yb13 2.393497 1_555
O34 Yb8 2.309215 1_545
O34 Yb9 2.352914 1_554
O34 Yb4 2.383427 1_545
O34 Yb14 2.393497 1_555
O35 Yb9 2.309220 1_565
O35 Yb8 2.352907 1_556
O35 Yb5 2.383421 1_565
O35 Yb15 2.393502 1_555
