# generated using pymatgen
data_YMg6Sb
_symmetry_space_group_name_H-M   'P 1'
_cell_length_a   5.38224500
_cell_length_b   6.22884400
_cell_length_c   11.60953500
_cell_angle_alpha   90.00000000
_cell_angle_beta   90.00000000
_cell_angle_gamma   90.00000000
_symmetry_Int_Tables_number   1
_chemical_formula_structural   YMg6Sb
_chemical_formula_sum   'Y2 Mg12 Sb2'
_cell_volume   389.21157035
_cell_formula_units_Z   2
loop_
 _symmetry_equiv_pos_site_id
 _symmetry_equiv_pos_as_xyz
  1  'x, y, z'
loop_
 _atom_site_type_symbol
 _atom_site_label
 _atom_site_symmetry_multiplicity
 _atom_site_fract_x
 _atom_site_fract_y
 _atom_site_fract_z
 _atom_site_occupancy
  Y  Y0  1  0.50000000  0.00000000  0.17051700  1
  Y  Y1  1  0.50000000  0.50000000  0.67051700  1
  Mg  Mg0  1  0.50000000  0.24832500  0.41758200  1
  Mg  Mg1  1  0.50000000  0.75167500  0.41758200  1
  Mg  Mg2  1  0.00000000  0.74931900  0.07806500  1
  Mg  Mg3  1  0.00000000  0.25068100  0.07806500  1
  Mg  Mg4  1  0.00000000  0.00000000  0.33612200  1
  Mg  Mg5  1  0.00000000  0.50000000  0.33556600  1
  Mg  Mg6  1  0.50000000  0.74832500  0.91758200  1
  Mg  Mg7  1  0.50000000  0.25167500  0.91758200  1
  Mg  Mg8  1  0.00000000  0.24931900  0.57806500  1
  Mg  Mg9  1  0.00000000  0.75068100  0.57806500  1
  Mg  Mg10  1  0.00000000  0.50000000  0.83612200  1
  Mg  Mg11  1  0.00000000  0.00000000  0.83556600  1
  Sb  Sb0  1  0.50000000  0.50000000  0.16649700  1
  Sb  Sb1  1  0.50000000  0.00000000  0.66649700  1
loop_
_geom_bond_atom_site_label_1
_geom_bond_atom_site_label_2
_geom_bond_distance
_geom_bond_site_symmetry_2
Mg0 Mg1 3.093555 1_545
Mg0 Mg1 3.135289 1_555
Mg0 Mg4 3.244847 1_555
Mg0 Mg4 3.244847 1_655
Mg0 Mg5 3.256727 1_555
Mg0 Mg5 3.256727 1_655
Mg0 Y0 3.258792 1_555
Mg0 Mg8 3.273140 1_655
Mg0 Mg8 3.273140 1_555
Mg0 Sb1 3.277711 1_555
Mg0 Sb0 3.309776 1_555
Mg0 Y1 3.328707 1_555
Mg1 Mg4 3.244847 1_665
Mg1 Mg4 3.244847 1_565
Mg1 Mg5 3.256727 1_555
Mg1 Mg5 3.256727 1_655
Mg1 Y0 3.258792 1_565
Mg1 Mg9 3.273140 1_555
Mg1 Mg9 3.273140 1_655
Mg1 Sb1 3.277711 1_565
Mg1 Sb0 3.309776 1_555
Mg1 Y1 3.328707 1_555
Mg2 Mg3 3.105938 1_555
Mg2 Mg3 3.122906 1_565
Mg2 Sb0 3.272289 1_555
Mg2 Sb0 3.272289 1_455
Mg2 Mg6 3.273140 1_554
Mg2 Mg6 3.273140 1_454
Mg2 Y0 3.291246 1_565
Mg2 Y0 3.291246 1_465
Mg2 Mg5 3.368772 1_555
Mg2 Mg4 3.378414 1_565
Mg3 Sb0 3.272289 1_455
Mg3 Sb0 3.272289 1_555
Mg3 Mg7 3.273140 1_454
Mg3 Mg7 3.273140 1_554
Mg3 Y0 3.291246 1_455
Mg3 Y0 3.291246 1_555
Mg3 Mg5 3.368772 1_555
Mg3 Mg4 3.378414 1_555
Mg4 Mg5 3.114429 1_545
Mg4 Mg5 3.114429 1_555
Mg4 Mg9 3.209568 1_545
Mg4 Mg8 3.209568 1_555
Mg4 Y0 3.307343 1_455
Mg4 Y0 3.307343 1_555
Mg5 Mg8 3.219325 1_555
Mg5 Mg9 3.219325 1_555
Mg5 Sb0 3.330882 1_455
Mg5 Sb0 3.330882 1_555
Mg6 Mg7 3.093555 1_555
Mg6 Mg7 3.135289 1_565
Mg6 Y1 3.258792 1_555
Mg6 Sb0 3.277711 1_556
Mg6 Sb1 3.309776 1_565
Mg6 Y0 3.328707 1_566
Mg7 Y1 3.258792 1_555
Mg7 Sb0 3.277711 1_556
Mg7 Sb1 3.309776 1_555
Mg7 Y0 3.328707 1_556
Mg8 Mg9 3.105938 1_545
Mg8 Mg9 3.122906 1_555
Mg8 Sb1 3.272289 1_455
Mg8 Sb1 3.272289 1_555
Mg8 Y1 3.291246 1_455
Mg8 Y1 3.291246 1_555
Mg9 Sb1 3.272289 1_565
Mg9 Sb1 3.272289 1_465
Mg9 Y1 3.291246 1_455
Mg9 Y1 3.291246 1_555
Mg10 Mg11 3.114429 1_555
Mg10 Mg11 3.114429 1_565
Mg10 Mg2 3.209568 1_556
Mg10 Mg3 3.209568 1_556
Mg10 Mg6 3.244847 1_455
Mg10 Mg6 3.244847 1_555
Mg10 Mg7 3.244847 1_455
Mg10 Mg7 3.244847 1_555
Mg10 Y1 3.307343 1_455
Mg10 Y1 3.307343 1_555
Mg10 Mg8 3.378414 1_555
Mg10 Mg9 3.378414 1_555
Mg11 Mg3 3.219325 1_556
Mg11 Mg2 3.219325 1_546
Mg11 Mg7 3.256727 1_555
Mg11 Mg6 3.256727 1_445
Mg11 Mg6 3.256727 1_545
Mg11 Mg7 3.256727 1_455
Mg11 Sb1 3.330882 1_455
Mg11 Sb1 3.330882 1_555
Mg11 Mg9 3.368772 1_545
Mg11 Mg8 3.368772 1_555
Sb0 Y0 3.114772 1_555
Sb0 Y0 3.114772 1_565
Sb1 Y1 3.114772 1_545
Sb1 Y1 3.114772 1_555
