# generated using pymatgen
data_Mg2Si5N8
_symmetry_space_group_name_H-M   'P 1'
_cell_length_a   10.48666589
_cell_length_b   9.59685038
_cell_length_c   13.39396346
_cell_angle_alpha   90.00000000
_cell_angle_beta   90.00000000
_cell_angle_gamma   90.00000000
_symmetry_Int_Tables_number   1
_chemical_formula_structural   Mg2Si5N8
_chemical_formula_sum   'Mg16 Si40 N64'
_cell_volume   1347.95460019
_cell_formula_units_Z   8
loop_
 _symmetry_equiv_pos_site_id
 _symmetry_equiv_pos_as_xyz
  1  'x, y, z'
loop_
 _atom_site_type_symbol
 _atom_site_label
 _atom_site_symmetry_multiplicity
 _atom_site_fract_x
 _atom_site_fract_y
 _atom_site_fract_z
 _atom_site_occupancy
  Mg  Mg0  1  0.09852521  0.12691238  0.00711764  1
  Mg  Mg1  1  0.59852521  0.37308762  0.99288236  1
  Mg  Mg2  1  0.90147479  0.62691238  0.49288236  1
  Mg  Mg3  1  0.40147479  0.87308762  0.50711764  1
  Mg  Mg4  1  0.90147479  0.87308762  0.99288236  1
  Mg  Mg5  1  0.40147479  0.62691238  0.00711764  1
  Mg  Mg6  1  0.09852521  0.37308762  0.50711764  1
  Mg  Mg7  1  0.59852521  0.12691238  0.49288236  1
  Mg  Mg8  1  0.37380548  0.06433925  0.07785213  1
  Mg  Mg9  1  0.87380548  0.43566075  0.92214787  1
  Mg  Mg10  1  0.62619452  0.56433925  0.42214787  1
  Mg  Mg11  1  0.12619452  0.93566075  0.57785213  1
  Mg  Mg12  1  0.62619452  0.93566075  0.92214787  1
  Mg  Mg13  1  0.12619452  0.56433925  0.07785213  1
  Mg  Mg14  1  0.37380548  0.43566075  0.57785213  1
  Mg  Mg15  1  0.87380548  0.06433925  0.42214787  1
  Si  Si0  1  0.40608203  0.21572932  0.85290684  1
  Si  Si1  1  0.90608203  0.28427068  0.14709316  1
  Si  Si2  1  0.59391797  0.71572932  0.64709316  1
  Si  Si3  1  0.09391797  0.78427068  0.35290684  1
  Si  Si4  1  0.59391797  0.78427068  0.14709316  1
  Si  Si5  1  0.09391797  0.71572932  0.85290684  1
  Si  Si6  1  0.40608203  0.28427068  0.35290684  1
  Si  Si7  1  0.90608203  0.21572932  0.64709316  1
  Si  Si8  1  0.17099215  0.22777727  0.72388692  1
  Si  Si9  1  0.67099215  0.27222273  0.27611308  1
  Si  Si10  1  0.82900785  0.72777727  0.77611308  1
  Si  Si11  1  0.32900785  0.77222273  0.22388692  1
  Si  Si12  1  0.82900785  0.77222273  0.27611308  1
  Si  Si13  1  0.32900785  0.72777727  0.72388692  1
  Si  Si14  1  0.17099215  0.27222273  0.22388692  1
  Si  Si15  1  0.67099215  0.22777727  0.77611308  1
  Si  Si16  1  0.25471180  0.96143239  0.84818138  1
  Si  Si17  1  0.75471180  0.53856761  0.15181862  1
  Si  Si18  1  0.74528820  0.46143239  0.65181862  1
  Si  Si19  1  0.24528820  0.03856761  0.34818138  1
  Si  Si20  1  0.74528820  0.03856761  0.15181862  1
  Si  Si21  1  0.24528820  0.46143239  0.84818138  1
  Si  Si22  1  0.25471180  0.53856761  0.34818138  1
  Si  Si23  1  0.75471180  0.96143239  0.65181862  1
  Si  Si24  1  0.98587579  0.99012951  0.78351457  1
  Si  Si25  1  0.48587579  0.50987049  0.21648543  1
  Si  Si26  1  0.01412421  0.49012951  0.71648543  1
  Si  Si27  1  0.51412421  0.00987049  0.28351457  1
  Si  Si28  1  0.01412421  0.00987049  0.21648543  1
  Si  Si29  1  0.51412421  0.49012951  0.78351457  1
  Si  Si30  1  0.98587579  0.50987049  0.28351457  1
  Si  Si31  1  0.48587579  0.99012951  0.71648543  1
  Si  Si32  1  0.83590155  0.15781889  0.95478360  1
  Si  Si33  1  0.33590155  0.34218111  0.04521640  1
  Si  Si34  1  0.16409845  0.65781889  0.54521640  1
  Si  Si35  1  0.66409845  0.84218111  0.45478360  1
  Si  Si36  1  0.16409845  0.84218111  0.04521640  1
  Si  Si37  1  0.66409845  0.65781889  0.95478360  1
  Si  Si38  1  0.83590155  0.34218111  0.45478360  1
  Si  Si39  1  0.33590155  0.15781889  0.54521640  1
  N  N0  1  0.93510318  0.27244653  0.02212619  1
  N  N1  1  0.43510318  0.22755347  0.97787381  1
  N  N2  1  0.06489682  0.77244653  0.47787381  1
  N  N3  1  0.56489682  0.72755347  0.52212619  1
  N  N4  1  0.06489682  0.72755347  0.97787381  1
  N  N5  1  0.56489682  0.77244653  0.02212619  1
  N  N6  1  0.93510318  0.22755347  0.52212619  1
  N  N7  1  0.43510318  0.27244653  0.47787381  1
  N  N8  1  0.94570509  0.05091696  0.89712222  1
  N  N9  1  0.44570509  0.44908304  0.10287778  1
  N  N10  1  0.05429491  0.55091696  0.60287778  1
  N  N11  1  0.55429491  0.94908304  0.39712222  1
  N  N12  1  0.05429491  0.94908304  0.10287778  1
  N  N13  1  0.55429491  0.55091696  0.89712222  1
  N  N14  1  0.94570509  0.44908304  0.39712222  1
  N  N15  1  0.44570509  0.05091696  0.60287778  1
  N  N16  1  0.74003047  0.27180245  0.88802620  1
  N  N17  1  0.24003047  0.22819755  0.11197380  1
  N  N18  1  0.25996953  0.77180245  0.61197380  1
  N  N19  1  0.75996953  0.72819755  0.38802620  1
  N  N20  1  0.25996953  0.72819755  0.11197380  1
  N  N21  1  0.75996953  0.77180245  0.88802620  1
  N  N22  1  0.74003047  0.22819755  0.38802620  1
  N  N23  1  0.24003047  0.27180245  0.61197380  1
  N  N24  1  0.25522952  0.95909620  0.97553856  1
  N  N25  1  0.75522952  0.54090380  0.02446144  1
  N  N26  1  0.74477048  0.45909620  0.52446144  1
  N  N27  1  0.24477048  0.04090380  0.47553856  1
  N  N28  1  0.74477048  0.04090380  0.02446144  1
  N  N29  1  0.24477048  0.45909620  0.97553856  1
  N  N30  1  0.25522952  0.54090380  0.47553856  1
  N  N31  1  0.75522952  0.95909620  0.52446144  1
  N  N32  1  0.03683863  0.11793743  0.69628498  1
  N  N33  1  0.53683863  0.38206257  0.30371502  1
  N  N34  1  0.96316137  0.61793743  0.80371502  1
  N  N35  1  0.46316137  0.88206257  0.19628498  1
  N  N36  1  0.96316137  0.88206257  0.30371502  1
  N  N37  1  0.46316137  0.61793743  0.69628498  1
  N  N38  1  0.03683863  0.38206257  0.19628498  1
  N  N39  1  0.53683863  0.11793743  0.80371502  1
  N  N40  1  0.38079581  0.88148782  0.78333720  1
  N  N41  1  0.88079581  0.61851218  0.21666280  1
  N  N42  1  0.61920419  0.38148782  0.71666280  1
  N  N43  1  0.11920419  0.11851218  0.28333720  1
  N  N44  1  0.61920419  0.11851218  0.21666280  1
  N  N45  1  0.11920419  0.38148782  0.78333720  1
  N  N46  1  0.38079581  0.61851218  0.28333720  1
  N  N47  1  0.88079581  0.88148782  0.71666280  1
  N  N48  1  0.26307850  0.13664677  0.81240095  1
  N  N49  1  0.76307850  0.36335323  0.18759905  1
  N  N50  1  0.73692150  0.63664677  0.68759905  1
  N  N51  1  0.23692150  0.86335323  0.31240095  1
  N  N52  1  0.73692150  0.86335323  0.18759905  1
  N  N53  1  0.23692150  0.63664677  0.81240095  1
  N  N54  1  0.26307850  0.36335323  0.31240095  1
  N  N55  1  0.76307850  0.13664677  0.68759905  1
  N  N56  1  0.11676366  0.88164254  0.80074232  1
  N  N57  1  0.61676366  0.61835746  0.19925768  1
  N  N58  1  0.88323634  0.38164254  0.69925768  1
  N  N59  1  0.38323634  0.11835746  0.30074232  1
  N  N60  1  0.88323634  0.11835746  0.19925768  1
  N  N61  1  0.38323634  0.38164254  0.80074232  1
  N  N62  1  0.11676366  0.61835746  0.30074232  1
  N  N63  1  0.61676366  0.88164254  0.69925768  1
loop_
_geom_bond_atom_site_label_1
_geom_bond_atom_site_label_2
_geom_bond_distance
_geom_bond_site_symmetry_2
Mg0 N12 2.184653 1_545
Mg0 N0 2.219920 1_455
Mg0 N17 2.262584 1_555
Mg0 N8 2.295797 1_454
Mg0 N24 2.339463 1_544
Mg1 N13 2.184653 1_555
Mg1 N1 2.219920 1_555
Mg1 N16 2.262584 1_555
Mg1 N9 2.295797 1_556
Mg1 N25 2.339463 1_556
Mg2 N14 2.184653 1_555
Mg2 N2 2.219920 1_655
Mg2 N19 2.262584 1_555
Mg2 N10 2.295797 1_655
Mg2 N26 2.339463 1_555
Mg3 N15 2.184653 1_565
Mg3 N3 2.219920 1_555
Mg3 N18 2.262584 1_555
Mg3 N11 2.295797 1_555
Mg3 N27 2.339463 1_565
Mg4 N8 2.184653 1_565
Mg4 N4 2.219920 1_655
Mg4 N21 2.262584 1_555
Mg4 N12 2.295797 1_656
Mg4 N28 2.339463 1_566
Mg5 N9 2.184653 1_555
Mg5 N5 2.219920 1_555
Mg5 N20 2.262584 1_555
Mg5 N13 2.295797 1_554
Mg5 N29 2.339463 1_554
Mg6 N10 2.184653 1_555
Mg6 N6 2.219920 1_455
Mg6 N23 2.262584 1_555
Mg6 N14 2.295797 1_455
Mg6 N30 2.339463 1_555
Mg7 N11 2.184653 1_545
Mg7 N7 2.219920 1_555
Mg7 N22 2.262584 1_555
Mg7 N15 2.295797 1_555
Mg7 N31 2.339463 1_545
Mg8 N24 2.108143 1_544
Mg8 N17 2.156316 1_555
Mg8 N1 2.158665 1_554
Mg8 N35 2.540540 1_545
Mg9 N25 2.108143 1_556
Mg9 N16 2.156316 1_555
Mg9 N0 2.158665 1_556
Mg9 N34 2.540540 1_555
Mg10 N26 2.108143 1_555
Mg10 N19 2.156316 1_555
Mg10 N3 2.158665 1_555
Mg10 N33 2.540540 1_555
Mg11 N27 2.108143 1_565
Mg11 N18 2.156316 1_555
Mg11 N2 2.158665 1_555
Mg11 N32 2.540540 1_565
Mg12 N28 2.108143 1_566
Mg12 N21 2.156316 1_555
Mg12 N5 2.158665 1_556
Mg12 N39 2.540540 1_565
Mg13 N29 2.108143 1_554
Mg13 N20 2.156316 1_555
Mg13 N4 2.158665 1_554
Mg13 N38 2.540540 1_555
Mg14 N30 2.108143 1_555
Mg14 N23 2.156316 1_555
Mg14 N7 2.158665 1_555
Mg14 N37 2.540540 1_555
Mg15 N31 2.108143 1_545
Mg15 N22 2.156316 1_555
Mg15 N6 2.158665 1_555
Mg15 N36 2.540540 1_545
N0 Si1 1.705026 1_555
N0 Si32 1.762365 1_554
N1 Si0 1.705026 1_555
N1 Si33 1.762365 1_556
N2 Si3 1.705026 1_555
N2 Si34 1.762365 1_555
N3 Si2 1.705026 1_555
N3 Si35 1.762365 1_555
N4 Si5 1.705026 1_555
N4 Si36 1.762365 1_556
N5 Si4 1.705026 1_555
N5 Si37 1.762365 1_554
N6 Si7 1.705026 1_555
N6 Si38 1.762365 1_555
N7 Si6 1.705026 1_555
N7 Si39 1.762365 1_555
N8 Si24 1.683216 1_545
N8 Si32 1.724783 1_555
N9 Si25 1.683216 1_555
N9 Si33 1.724783 1_555
N10 Si26 1.683216 1_555
N10 Si34 1.724783 1_555
N11 Si27 1.683216 1_565
N11 Si35 1.724783 1_555
N12 Si28 1.683216 1_565
N12 Si36 1.724783 1_555
N13 Si29 1.683216 1_555
N13 Si37 1.724783 1_555
N14 Si30 1.683216 1_555
N14 Si38 1.724783 1_555
N15 Si31 1.683216 1_545
N15 Si39 1.724783 1_555
N16 Si15 1.717423 1_555
N16 Si32 1.734025 1_555
N17 Si14 1.717423 1_555
N17 Si33 1.734025 1_555
N18 Si13 1.717423 1_555
N18 Si34 1.734025 1_555
N19 Si12 1.717423 1_555
N19 Si35 1.734025 1_555
N20 Si11 1.717423 1_555
N20 Si36 1.734025 1_555
N21 Si10 1.717423 1_555
N21 Si37 1.734025 1_555
N22 Si9 1.717423 1_555
N22 Si38 1.734025 1_555
N23 Si8 1.717423 1_555
N23 Si39 1.734025 1_555
N24 Si16 1.705973 1_555
N24 Si36 1.744474 1_556
N25 Si17 1.705973 1_555
N25 Si37 1.744474 1_554
N26 Si18 1.705973 1_555
N26 Si38 1.744474 1_555
N27 Si19 1.705973 1_555
N27 Si39 1.744474 1_555
N28 Si20 1.705973 1_555
N28 Si32 1.744474 1_554
N29 Si21 1.705973 1_555
N29 Si33 1.744474 1_556
N30 Si22 1.705973 1_555
N30 Si34 1.744474 1_555
N31 Si23 1.705973 1_555
N31 Si35 1.744474 1_555
N32 Si24 1.776258 1_445
N32 Si7 1.787478 1_455
N32 Si8 1.796383 1_555
N33 Si25 1.776258 1_555
N33 Si6 1.787478 1_555
N33 Si9 1.796383 1_555
N34 Si26 1.776258 1_655
N34 Si5 1.787478 1_655
N34 Si10 1.796383 1_555
N35 Si27 1.776258 1_565
N35 Si4 1.787478 1_555
N35 Si11 1.796383 1_555
N36 Si28 1.776258 1_665
N36 Si3 1.787478 1_655
N36 Si12 1.796383 1_555
N37 Si29 1.776258 1_555
N37 Si2 1.787478 1_555
N37 Si13 1.796383 1_555
N38 Si30 1.776258 1_455
N38 Si1 1.787478 1_455
N38 Si14 1.796383 1_555
N39 Si31 1.776258 1_545
N39 Si0 1.787478 1_555
N39 Si15 1.796383 1_555
N40 Si16 1.758171 1_555
N40 Si31 1.761556 1_555
N40 Si13 1.762107 1_555
N41 Si17 1.758171 1_555
N41 Si30 1.761556 1_555
N41 Si12 1.762107 1_555
N42 Si18 1.758171 1_555
N42 Si29 1.761556 1_555
N42 Si15 1.762107 1_555
N43 Si19 1.758171 1_555
N43 Si28 1.761556 1_555
N43 Si14 1.762107 1_555
N44 Si20 1.758171 1_555
N44 Si27 1.761556 1_555
N44 Si9 1.762107 1_555
N45 Si21 1.758171 1_555
N45 Si26 1.761556 1_555
N45 Si8 1.762107 1_555
N46 Si22 1.758171 1_555
N46 Si25 1.761556 1_555
N46 Si11 1.762107 1_555
N47 Si23 1.758171 1_555
N47 Si24 1.761556 1_555
N47 Si10 1.762107 1_555
N48 Si16 1.750667 1_545
N48 Si8 1.761516 1_555
N48 Si0 1.766134 1_555
N49 Si17 1.750667 1_555
N49 Si9 1.761516 1_555
N49 Si1 1.766134 1_555
N50 Si18 1.750667 1_555
N50 Si10 1.761516 1_555
N50 Si2 1.766134 1_555
N51 Si19 1.750667 1_565
N51 Si11 1.761516 1_555
N51 Si3 1.766134 1_555
N52 Si20 1.750667 1_565
N52 Si12 1.761516 1_555
N52 Si4 1.766134 1_555
N53 Si21 1.750667 1_555
N53 Si13 1.761516 1_555
N53 Si5 1.766134 1_555
N54 Si22 1.750667 1_555
N54 Si14 1.761516 1_555
N54 Si6 1.766134 1_555
N55 Si23 1.750667 1_545
N55 Si15 1.761516 1_555
N55 Si7 1.766134 1_555
N56 Si24 1.738152 1_455
N56 Si5 1.755222 1_555
N56 Si16 1.755782 1_555
N57 Si25 1.738152 1_555
N57 Si4 1.755222 1_555
N57 Si17 1.755782 1_555
N58 Si26 1.738152 1_655
N58 Si7 1.755222 1_555
N58 Si18 1.755782 1_555
N59 Si27 1.738152 1_555
N59 Si6 1.755222 1_555
N59 Si19 1.755782 1_555
N60 Si28 1.738152 1_655
N60 Si1 1.755222 1_555
N60 Si20 1.755782 1_555
N61 Si29 1.738152 1_555
N61 Si0 1.755222 1_555
N61 Si21 1.755782 1_555
N62 Si30 1.738152 1_455
N62 Si3 1.755222 1_555
N62 Si22 1.755782 1_555
N63 Si31 1.738152 1_555
N63 Si2 1.755222 1_555
N63 Si23 1.755782 1_555
