# generated using pymatgen
data_CaCu5
_symmetry_space_group_name_H-M   'P 1'
_cell_length_a   5.04562859
_cell_length_b   5.04562779
_cell_length_c   4.01737319
_cell_angle_alpha   90.00000000
_cell_angle_beta   90.00000000
_cell_angle_gamma   119.99999859
_symmetry_Int_Tables_number   1
_chemical_formula_structural   CaCu5
_chemical_formula_sum   'Ca1 Cu5'
_cell_volume   88.57339757
_cell_formula_units_Z   1
loop_
 _symmetry_equiv_pos_site_id
 _symmetry_equiv_pos_as_xyz
  1  'x, y, z'
loop_
 _atom_site_type_symbol
 _atom_site_label
 _atom_site_symmetry_multiplicity
 _atom_site_fract_x
 _atom_site_fract_y
 _atom_site_fract_z
 _atom_site_occupancy
  Ca  Ca0  1  0.00000000  -0.00000000  -0.00000000  1
  Cu  Cu0  1  0.33333300  0.66666700  0.00000000  1
  Cu  Cu1  1  0.66666700  0.33333300  0.00000000  1
  Cu  Cu2  1  0.50000000  -0.00000000  0.50000000  1
  Cu  Cu3  1  0.50000000  0.50000000  0.50000000  1
  Cu  Cu4  1  0.00000000  0.50000000  0.50000000  1
loop_
_geom_bond_atom_site_label_1
_geom_bond_atom_site_label_2
_geom_bond_distance
_geom_bond_site_symmetry_2
Ca0 Cu0 2.913092 1_545
Ca0 Cu1 2.913092 1_455
Ca0 Cu0 2.913096 1_555
Ca0 Cu1 2.913096 1_445
Ca0 Cu1 2.913097 1_555
Ca0 Cu0 2.913097 1_445
Ca0 Cu4 3.224812 1_554
Ca0 Cu4 3.224812 1_544
Ca0 Cu4 3.224812 1_555
Ca0 Cu4 3.224812 1_545
Ca0 Cu3 3.224812 1_445
Ca0 Cu3 3.224812 1_444
Ca0 Cu3 3.224812 1_555
Ca0 Cu3 3.224812 1_554
Ca0 Cu2 3.224812 1_554
Ca0 Cu2 3.224812 1_455
Ca0 Cu2 3.224812 1_555
Ca0 Cu2 3.224812 1_454
Cu0 Cu2 2.481199 1_564
Cu0 Cu2 2.481199 1_565
Cu0 Cu4 2.481199 1_554
Cu0 Cu4 2.481199 1_555
Cu0 Cu3 2.481201 1_555
Cu0 Cu3 2.481201 1_554
Cu0 Cu1 2.913092 1_565
Cu0 Cu1 2.913092 1_455
Cu0 Cu1 2.913101 1_555
Cu1 Cu2 2.481199 1_555
Cu1 Cu2 2.481199 1_554
Cu1 Cu4 2.481199 1_655
Cu1 Cu4 2.481199 1_654
Cu1 Cu3 2.481201 1_555
Cu1 Cu3 2.481201 1_554
Cu2 Cu3 2.522814 1_555
Cu2 Cu3 2.522814 1_545
Cu2 Cu4 2.522814 1_655
Cu2 Cu4 2.522814 1_545
Cu3 Cu4 2.522814 1_655
Cu3 Cu4 2.522814 1_555
