# generated using pymatgen
data_K2(FeSe)5
_symmetry_space_group_name_H-M   'P 1'
_cell_length_a   9.62517840
_cell_length_b   9.62517840
_cell_length_c   9.62517840
_cell_angle_alpha   128.84921501
_cell_angle_beta   128.84921501
_cell_angle_gamma   75.25331441
_symmetry_Int_Tables_number   1
_chemical_formula_structural   K2(FeSe)5
_chemical_formula_sum   'K4 Fe10 Se10'
_cell_volume   526.47227695
_cell_formula_units_Z   2
loop_
 _symmetry_equiv_pos_site_id
 _symmetry_equiv_pos_as_xyz
  1  'x, y, z'
loop_
 _atom_site_type_symbol
 _atom_site_label
 _atom_site_symmetry_multiplicity
 _atom_site_fract_x
 _atom_site_fract_y
 _atom_site_fract_z
 _atom_site_occupancy
  K  K0  1  0.37961600  0.80695400  0.18657000  1
  K  K1  1  0.80695400  0.62038400  0.42733700  1
  K  K2  1  0.19304600  0.37961600  0.57266300  1
  K  K3  1  0.62038400  0.19304600  0.81343000  1
  Fe  Fe0  1  0.94762300  0.64966500  0.09871900  1
  Fe  Fe1  1  0.35033500  0.44905400  0.29795800  1
  Fe  Fe2  1  0.75000000  0.25000000  0.50000000  1
  Fe  Fe3  1  0.15109700  0.05237700  0.70204200  1
  Fe  Fe4  1  0.55094600  0.84890300  0.90128100  1
  Fe  Fe5  1  0.64966500  0.55094600  0.70204200  1
  Fe  Fe6  1  0.05237700  0.35033500  0.90128100  1
  Fe  Fe7  1  0.44905400  0.15109700  0.09871900  1
  Fe  Fe8  1  0.84890300  0.94762300  0.29795800  1
  Fe  Fe9  1  0.25000000  0.75000000  0.50000000  1
  Se  Se0  1  0.95543400  0.55545900  0.79818000  1
  Se  Se1  1  0.36016800  0.36016800  0.00000000  1
  Se  Se2  1  0.75727800  0.15725400  0.20182000  1
  Se  Se3  1  0.15725400  0.95543400  0.39997500  1
  Se  Se4  1  0.55545900  0.75727800  0.60002500  1
  Se  Se5  1  0.63983200  0.63983200  0.00000000  1
  Se  Se6  1  0.04456600  0.44454100  0.20182000  1
  Se  Se7  1  0.44454100  0.24272200  0.39997500  1
  Se  Se8  1  0.84274600  0.04456600  0.60002500  1
  Se  Se9  1  0.24272200  0.84274600  0.79818000  1
loop_
_geom_bond_atom_site_label_1
_geom_bond_atom_site_label_2
_geom_bond_distance
_geom_bond_site_symmetry_2
K0 Se0 3.321885 1_454
K0 Se9 3.321888 1_554
K0 Se3 3.334325 1_555
K0 Se7 3.334334 1_565
K0 Se1 3.471753 1_555
K0 Se5 3.471753 1_555
K0 Se8 3.529218 1_565
K0 Se4 3.529225 1_555
K1 Se8 3.321882 1_565
K1 Se4 3.321893 1_555
K1 Se9 3.334331 1_655
K1 Se0 3.334334 1_555
K1 Se5 3.471744 1_555
K1 Se1 3.471754 1_555
K1 Se6 3.529211 1_655
K1 Se2 3.529221 1_555
K2 Se3 3.321882 1_545
K2 Se7 3.321893 1_555
K2 Se2 3.334331 1_455
K2 Se6 3.334334 1_555
K2 Se1 3.471744 1_556
K2 Se5 3.471754 1_556
K2 Se0 3.529211 1_455
K2 Se9 3.529221 1_555
K3 Se6 3.321885 1_656
K3 Se2 3.321888 1_556
K3 Se8 3.334325 1_555
K3 Se4 3.334334 1_545
K3 Se1 3.471753 1_556
K3 Se5 3.471753 1_556
K3 Se3 3.529218 1_545
K3 Se7 3.529225 1_555
Fe0 Se6 2.472244 1_655
Fe0 Se3 2.473448 1_655
Fe0 Se0 2.478563 1_554
Fe0 Se5 2.487345 1_555
Fe1 Se4 2.472237 1_555
Fe1 Se6 2.473448 1_555
Fe1 Se7 2.478553 1_555
Fe1 Se1 2.487345 1_555
Fe2 Se2 2.458674 1_555
Fe2 Se7 2.458679 1_555
Fe2 Se0 2.458680 1_555
Fe2 Se8 2.458680 1_555
Fe3 Se3 2.472237 1_545
Fe3 Se9 2.473448 1_545
Fe3 Se8 2.478572 1_455
Fe3 Se1 2.487341 1_556
Fe4 Se9 2.472234 1_555
Fe4 Se4 2.473448 1_555
Fe4 Se2 2.478566 1_566
Fe4 Se5 2.487336 1_556
Fe5 Se7 2.472237 1_555
Fe5 Se0 2.473448 1_555
Fe5 Se4 2.478553 1_555
Fe5 Se5 2.487345 1_556
Fe6 Se0 2.472244 1_455
Fe6 Se8 2.473448 1_455
Fe6 Se6 2.478563 1_556
Fe6 Se1 2.487345 1_556
Fe7 Se2 2.472234 1_555
Fe7 Se7 2.473448 1_555
Fe7 Se9 2.478566 1_544
Fe7 Se1 2.487336 1_555
Fe8 Se8 2.472237 1_565
Fe8 Se2 2.473448 1_565
Fe8 Se3 2.478572 1_655
Fe8 Se5 2.487341 1_555
Fe9 Se9 2.458674 1_555
Fe9 Se4 2.458679 1_555
Fe9 Se6 2.458680 1_555
Fe9 Se3 2.458680 1_555
