# generated using pymatgen
data_NpCuPO
_symmetry_space_group_name_H-M   'P 1'
_cell_length_a   3.79717855
_cell_length_b   3.79717855
_cell_length_c   8.16293116
_cell_angle_alpha   90.00000000
_cell_angle_beta   90.00000000
_cell_angle_gamma   90.00000000
_symmetry_Int_Tables_number   1
_chemical_formula_structural   NpCuPO
_chemical_formula_sum   'Np2 Cu2 P2 O2'
_cell_volume   117.69775304
_cell_formula_units_Z   2
loop_
 _symmetry_equiv_pos_site_id
 _symmetry_equiv_pos_as_xyz
  1  'x, y, z'
loop_
 _atom_site_type_symbol
 _atom_site_label
 _atom_site_symmetry_multiplicity
 _atom_site_fract_x
 _atom_site_fract_y
 _atom_site_fract_z
 _atom_site_occupancy
  Np  Np0  1  0.00000000  0.50000000  0.33729548  1
  Np  Np1  1  0.50000000  0.00000000  0.66286977  1
  Cu  Cu0  1  -0.00000000  0.00000000  -0.00014226  1
  Cu  Cu1  1  0.50000000  0.50000000  -0.00014226  1
  P  P0  1  0.00000000  0.50000000  0.82927311  1
  P  P1  1  0.50000000  0.00000000  0.17067485  1
  O  O0  1  -0.00000000  0.00000000  0.50008565  1
  O  O1  1  0.50000000  0.50000000  0.50008565  1
loop_
_geom_bond_atom_site_label_1
_geom_bond_atom_site_label_2
_geom_bond_distance
_geom_bond_site_symmetry_2
Np0 O0 2.317427 1_565
Np0 O1 2.317427 1_455
Np0 O1 2.317427 1_555
Np0 O0 2.317427 1_555
Np0 P1 3.009849 1_565
Np0 P1 3.009849 1_555
Np0 P1 3.009849 1_455
Np0 P1 3.009849 1_465
Np1 O0 2.317399 1_655
Np1 O1 2.317399 1_555
Np1 O0 2.317399 1_555
Np1 O1 2.317399 1_545
Np1 P0 3.009048 1_555
Np1 P0 3.009048 1_655
Np1 P0 3.009048 1_645
Np1 P0 3.009048 1_545
Cu0 P0 2.354488 1_544
Cu0 P0 2.354488 1_554
Cu0 P1 2.355611 1_455
Cu0 P1 2.355611 1_555
Cu1 P0 2.354488 1_654
Cu1 P0 2.354488 1_554
Cu1 P1 2.355611 1_555
Cu1 P1 2.355611 1_565
