# generated using pymatgen
data_Tb2NiB10
_symmetry_space_group_name_H-M   'P 1'
_cell_length_a   4.14109318
_cell_length_b   5.54119918
_cell_length_c   11.06488049
_cell_angle_alpha   90.00000000
_cell_angle_beta   90.00000000
_cell_angle_gamma   90.00000000
_symmetry_Int_Tables_number   1
_chemical_formula_structural   Tb2NiB10
_chemical_formula_sum   'Tb4 Ni2 B20'
_cell_volume   253.90163155
_cell_formula_units_Z   2
loop_
 _symmetry_equiv_pos_site_id
 _symmetry_equiv_pos_as_xyz
  1  'x, y, z'
loop_
 _atom_site_type_symbol
 _atom_site_label
 _atom_site_symmetry_multiplicity
 _atom_site_fract_x
 _atom_site_fract_y
 _atom_site_fract_z
 _atom_site_occupancy
  Tb  Tb0  1  0.50000000  0.18512363  0.36249356  1
  Tb  Tb1  1  0.50000000  0.81487637  0.63750644  1
  Tb  Tb2  1  0.50000000  0.31487637  0.86249356  1
  Tb  Tb3  1  0.50000000  0.68512363  0.13750644  1
  Ni  Ni0  1  -0.00000000  -0.00000000  -0.00000000  1
  Ni  Ni1  1  -0.00000000  0.50000000  0.50000000  1
  B  B0  1  -0.00000000  0.37341772  0.04094075  1
  B  B1  1  -0.00000000  0.62658228  0.95905925  1
  B  B2  1  -0.00000000  0.12658228  0.54094075  1
  B  B3  1  -0.00000000  0.87341772  0.45905925  1
  B  B4  1  -0.00000000  0.33906912  0.19859143  1
  B  B5  1  -0.00000000  0.66093088  0.80140857  1
  B  B6  1  -0.00000000  0.16093088  0.69859143  1
  B  B7  1  -0.00000000  0.83906912  0.30140857  1
  B  B8  1  -0.00000000  0.02749516  0.18592841  1
  B  B9  1  -0.00000000  0.97250484  0.81407159  1
  B  B10  1  -0.00000000  0.47250484  0.68592841  1
  B  B11  1  -0.00000000  0.52749516  0.31407159  1
  B  B12  1  0.30128425  0.19963147  0.11430167  1
  B  B13  1  0.69871575  0.80036853  0.88569833  1
  B  B14  1  0.30128425  0.80036853  0.88569833  1
  B  B15  1  0.69871575  0.30036853  0.61430167  1
  B  B16  1  0.69871575  0.19963147  0.11430167  1
  B  B17  1  0.30128425  0.69963147  0.38569833  1
  B  B18  1  0.69871575  0.69963147  0.38569833  1
  B  B19  1  0.30128425  0.30036853  0.61430167  1
loop_
_geom_bond_atom_site_label_1
_geom_bond_atom_site_label_2
_geom_bond_distance
_geom_bond_site_symmetry_2
Ni0 Tb3 3.105866 1_445
Ni0 Tb2 3.105866 1_454
Ni0 Tb2 3.105866 1_554
Ni0 Tb3 3.105866 1_545
Ni1 Tb0 3.105866 1_455
Ni1 Tb1 3.105866 1_555
Ni1 Tb0 3.105866 1_555
Ni1 Tb1 3.105866 1_455
B0 B1 1.669970 1_554
B0 B4 1.754739 1_555
B0 B12 1.772813 1_555
B0 B16 1.772813 1_455
B0 Ni0 2.118190 1_555
B0 Tb2 2.879415 1_554
B0 Tb2 2.879415 1_454
B0 Tb3 2.900368 1_455
B0 Tb3 2.900368 1_555
B1 B5 1.754739 1_555
B1 B14 1.772813 1_555
B1 B13 1.772813 1_455
B1 Ni0 2.118190 1_566
B1 Tb3 2.879415 1_456
B1 Tb3 2.879415 1_556
B1 Tb2 2.900368 1_555
B1 Tb2 2.900368 1_455
B2 B3 1.669970 1_545
B2 B6 1.754739 1_555
B2 Ni1 2.118190 1_555
B2 Tb0 2.879415 1_555
B2 Tb0 2.879415 1_455
B2 Tb1 2.900368 1_445
B2 Tb1 2.900368 1_545
B3 B7 1.754739 1_555
B3 Ni1 2.118190 1_555
B3 Tb1 2.879415 1_555
B3 Tb1 2.879415 1_455
B3 Tb0 2.900368 1_565
B3 Tb0 2.900368 1_465
B4 B8 1.732170 1_555
B4 Tb0 2.881638 1_555
B4 Tb0 2.881638 1_455
B4 Tb3 2.901900 1_455
B4 Tb3 2.901900 1_555
B5 B9 1.732170 1_555
B5 Tb1 2.881638 1_555
B5 Tb1 2.881638 1_455
B5 Tb2 2.901900 1_555
B5 Tb2 2.901900 1_455
B6 B9 1.650110 1_545
B6 Tb2 2.881638 1_455
B6 Tb2 2.881638 1_555
B6 Tb1 2.901900 1_445
B6 Tb1 2.901900 1_545
B7 B8 1.650110 1_565
B7 Tb3 2.881638 1_555
B7 Tb3 2.881638 1_455
B7 Tb0 2.901900 1_565
B7 Tb0 2.901900 1_465
B8 Ni0 2.062909 1_555
B8 Tb3 2.858916 1_545
B8 Tb3 2.858916 1_445
B8 Tb0 2.977737 1_455
B8 Tb0 2.977737 1_555
B9 Ni0 2.062909 1_566
B9 Tb2 2.858916 1_465
B9 Tb2 2.858916 1_565
B9 Tb1 2.977737 1_455
B9 Tb1 2.977737 1_555
B10 B5 1.650110 1_555
B10 B6 1.732170 1_555
B10 B15 1.759135 1_455
B10 B19 1.759135 1_555
B10 Ni1 2.062909 1_555
B10 Tb1 2.858916 1_455
B10 Tb1 2.858916 1_555
B10 Tb2 2.977737 1_555
B10 Tb2 2.977737 1_455
B11 B4 1.650110 1_555
B11 B7 1.732170 1_555
B11 B18 1.759135 1_455
B11 B17 1.759135 1_555
B11 Ni1 2.062909 1_555
B11 Tb0 2.858916 1_555
B11 Tb0 2.858916 1_455
B11 Tb3 2.977737 1_455
B11 Tb3 2.977737 1_555
B12 B16 1.645801 1_555
B12 B4 1.738810 1_555
B12 B8 1.759135 1_555
B12 Ni0 2.092808 1_555
B12 Tb3 2.824945 1_555
B12 Tb0 2.867981 1_555
B12 Tb2 2.974563 1_554
B12 Tb3 2.978462 1_545
B13 B14 1.645801 1_555
B13 B5 1.738810 1_655
B13 B9 1.759135 1_655
B13 Ni0 2.092808 1_666
B13 Tb2 2.824945 1_555
B13 Tb1 2.867981 1_555
B13 Tb3 2.974563 1_556
B13 Tb2 2.978462 1_565
B14 B5 1.738810 1_555
B14 B9 1.759135 1_555
B14 Ni0 2.092808 1_566
B14 Tb2 2.824945 1_555
B14 Tb1 2.867981 1_555
B14 Tb3 2.974563 1_556
B14 Tb2 2.978462 1_565
B15 B19 1.645801 1_555
B15 B6 1.738810 1_655
B15 B2 1.772813 1_655
B15 Ni1 2.092808 1_655
B15 Tb1 2.824945 1_545
B15 Tb2 2.867981 1_555
B15 Tb0 2.974563 1_555
B15 Tb1 2.978462 1_555
B16 B4 1.738810 1_655
B16 B8 1.759135 1_655
B16 Ni0 2.092808 1_655
B16 Tb3 2.824945 1_555
B16 Tb0 2.867981 1_555
B16 Tb2 2.974563 1_554
B16 Tb3 2.978462 1_545
B17 B18 1.645801 1_555
B17 B7 1.738810 1_555
B17 B3 1.772813 1_555
B17 Ni1 2.092808 1_555
B17 Tb0 2.824945 1_565
B17 Tb3 2.867981 1_555
B17 Tb1 2.974563 1_555
B17 Tb0 2.978462 1_555
B18 B7 1.738810 1_655
B18 B3 1.772813 1_655
B18 Ni1 2.092808 1_655
B18 Tb0 2.824945 1_565
B18 Tb3 2.867981 1_555
B18 Tb1 2.974563 1_555
B18 Tb0 2.978462 1_555
B19 B6 1.738810 1_555
B19 B2 1.772813 1_555
B19 Ni1 2.092808 1_555
B19 Tb1 2.824945 1_545
B19 Tb2 2.867981 1_555
B19 Tb0 2.974563 1_555
B19 Tb1 2.978462 1_555
