# generated using pymatgen
data_V2O5
_symmetry_space_group_name_H-M   'P 1'
_cell_length_a   9.09988417
_cell_length_b   9.09988417
_cell_length_c   9.09988417
_cell_angle_alpha   156.31830930
_cell_angle_beta   155.64131831
_cell_angle_gamma   34.23140888
_symmetry_Int_Tables_number   1
_chemical_formula_structural   V2O5
_chemical_formula_sum   'V2 O5'
_cell_volume   124.70521870
_cell_formula_units_Z   1
loop_
 _symmetry_equiv_pos_site_id
 _symmetry_equiv_pos_as_xyz
  1  'x, y, z'
loop_
 _atom_site_type_symbol
 _atom_site_label
 _atom_site_symmetry_multiplicity
 _atom_site_fract_x
 _atom_site_fract_y
 _atom_site_fract_z
 _atom_site_occupancy
  V  V0  1  0.79555900  0.79555900  0.00000000  1
  V  V1  1  0.20444100  0.20444100  0.00000000  1
  O  O0  1  0.88793900  0.88793900  0.00000000  1
  O  O1  1  0.11206100  0.11206100  0.00000000  1
  O  O2  1  0.74921600  0.24921600  0.50000000  1
  O  O3  1  0.25078400  0.75078400  0.50000000  1
  O  O4  1  0.50000000  0.00000000  0.50000000  1
loop_
_geom_bond_atom_site_label_1
_geom_bond_atom_site_label_2
_geom_bond_distance
_geom_bond_site_symmetry_2
O0 V0 1.606834 1_555
O1 V1 1.606834 1_555
O2 V0 2.033801 1_545
O2 V0 2.033801 1_556
O2 V1 2.071777 1_656
O2 V1 2.071777 1_555
O3 V1 2.033801 1_566
O3 V1 2.033801 1_555
O3 V0 2.071777 1_455
O3 V0 2.071777 1_556
