# generated using pymatgen
data_Y2Si3(SnO4)3
_symmetry_space_group_name_H-M   'P 1'
_cell_length_a   11.27588458
_cell_length_b   11.27588458
_cell_length_c   11.27588458
_cell_angle_alpha   109.47122063
_cell_angle_beta   109.47122063
_cell_angle_gamma   109.47122063
_symmetry_Int_Tables_number   1
_chemical_formula_structural   Y2Si3(SnO4)3
_chemical_formula_sum   'Y8 Si12 Sn12 O48'
_cell_volume   1103.64646119
_cell_formula_units_Z   4
loop_
 _symmetry_equiv_pos_site_id
 _symmetry_equiv_pos_as_xyz
  1  'x, y, z'
loop_
 _atom_site_type_symbol
 _atom_site_label
 _atom_site_symmetry_multiplicity
 _atom_site_fract_x
 _atom_site_fract_y
 _atom_site_fract_z
 _atom_site_occupancy
  Y  Y0  1  0.00000000  0.00000000  0.50000000  1
  Y  Y1  1  0.00000000  0.00000000  0.00000000  1
  Y  Y2  1  0.50000000  0.00000000  0.00000000  1
  Y  Y3  1  0.00000000  0.50000000  0.00000000  1
  Y  Y4  1  0.50000000  0.50000000  0.00000000  1
  Y  Y5  1  0.00000000  0.50000000  0.50000000  1
  Y  Y6  1  0.50000000  0.00000000  0.50000000  1
  Y  Y7  1  0.50000000  0.50000000  0.50000000  1
  Si  Si0  1  0.12500000  0.87500000  0.25000000  1
  Si  Si1  1  0.25000000  0.12500000  0.87500000  1
  Si  Si2  1  0.75000000  0.37500000  0.62500000  1
  Si  Si3  1  0.62500000  0.37500000  0.25000000  1
  Si  Si4  1  0.62500000  0.75000000  0.37500000  1
  Si  Si5  1  0.37500000  0.62500000  0.75000000  1
  Si  Si6  1  0.12500000  0.75000000  0.87500000  1
  Si  Si7  1  0.75000000  0.87500000  0.12500000  1
  Si  Si8  1  0.87500000  0.25000000  0.12500000  1
  Si  Si9  1  0.37500000  0.25000000  0.62500000  1
  Si  Si10  1  0.25000000  0.62500000  0.37500000  1
  Si  Si11  1  0.87500000  0.12500000  0.75000000  1
  Sn  Sn0  1  0.87500000  0.62500000  0.25000000  1
  Sn  Sn1  1  0.62500000  0.25000000  0.87500000  1
  Sn  Sn2  1  0.87500000  0.75000000  0.62500000  1
  Sn  Sn3  1  0.75000000  0.62500000  0.87500000  1
  Sn  Sn4  1  0.25000000  0.87500000  0.62500000  1
  Sn  Sn5  1  0.62500000  0.87500000  0.75000000  1
  Sn  Sn6  1  0.12500000  0.37500000  0.75000000  1
  Sn  Sn7  1  0.37500000  0.75000000  0.12500000  1
  Sn  Sn8  1  0.12500000  0.25000000  0.37500000  1
  Sn  Sn9  1  0.25000000  0.37500000  0.12500000  1
  Sn  Sn10  1  0.75000000  0.12500000  0.37500000  1
  Sn  Sn11  1  0.37500000  0.12500000  0.25000000  1
  O  O0  1  0.49814200  0.38337500  0.29114900  1
  O  O1  1  0.29300700  0.88523300  0.00185800  1
  O  O2  1  0.61476700  0.90777400  0.11662500  1
  O  O3  1  0.59222600  0.20699300  0.20885100  1
  O  O4  1  0.11662500  0.00185800  0.20885100  1
  O  O5  1  0.20699300  0.20885100  0.59222600  1
  O  O6  1  0.20699300  0.49814200  0.61476700  1
  O  O7  1  0.20885100  0.59222600  0.20699300  1
  O  O8  1  0.38337500  0.59222600  0.88523300  1
  O  O9  1  0.90777400  0.29114900  0.29300700  1
  O  O10  1  0.29114900  0.29300700  0.90777400  1
  O  O11  1  0.20885100  0.11662500  0.00185800  1
  O  O12  1  0.49814200  0.61476700  0.20699300  1
  O  O13  1  0.88523300  0.38337500  0.59222600  1
  O  O14  1  0.00185800  0.20885100  0.11662500  1
  O  O15  1  0.61476700  0.20699300  0.49814200  1
  O  O16  1  0.59222600  0.88523300  0.38337500  1
  O  O17  1  0.00185800  0.29300700  0.88523300  1
  O  O18  1  0.90777400  0.11662500  0.61476700  1
  O  O19  1  0.61662500  0.40777400  0.11476700  1
  O  O20  1  0.38337500  0.29114900  0.49814200  1
  O  O21  1  0.29114900  0.49814200  0.38337500  1
  O  O22  1  0.88523300  0.00185800  0.29300700  1
  O  O23  1  0.29300700  0.90777400  0.29114900  1
  O  O24  1  0.50185800  0.61662500  0.70885100  1
  O  O25  1  0.70699300  0.11476700  0.99814200  1
  O  O26  1  0.38523300  0.09222600  0.88337500  1
  O  O27  1  0.40777400  0.79300700  0.79114900  1
  O  O28  1  0.88337500  0.99814200  0.79114900  1
  O  O29  1  0.79300700  0.79114900  0.40777400  1
  O  O30  1  0.79300700  0.50185800  0.38523300  1
  O  O31  1  0.79114900  0.40777400  0.79300700  1
  O  O32  1  0.70699300  0.09222600  0.70885100  1
  O  O33  1  0.11476700  0.99814200  0.70699300  1
  O  O34  1  0.70885100  0.50185800  0.61662500  1
  O  O35  1  0.61662500  0.70885100  0.50185800  1
  O  O36  1  0.88337500  0.38523300  0.09222600  1
  O  O37  1  0.09222600  0.88337500  0.38523300  1
  O  O38  1  0.99814200  0.70699300  0.11476700  1
  O  O39  1  0.40777400  0.11476700  0.61662500  1
  O  O40  1  0.38523300  0.79300700  0.50185800  1
  O  O41  1  0.99814200  0.79114900  0.88337500  1
  O  O42  1  0.11476700  0.61662500  0.40777400  1
  O  O43  1  0.50185800  0.38523300  0.79300700  1
  O  O44  1  0.79114900  0.88337500  0.99814200  1
  O  O45  1  0.70885100  0.70699300  0.09222600  1
  O  O46  1  0.09222600  0.70885100  0.70699300  1
  O  O47  1  0.11662500  0.61476700  0.90777400  1
loop_
_geom_bond_atom_site_label_1
_geom_bond_atom_site_label_2
_geom_bond_distance
_geom_bond_site_symmetry_2
O0 Si3 1.665434 1_555
O0 Y7 2.271531 1_555
O0 Sn11 2.569754 1_555
O0 Sn9 2.749357 1_555
O1 Si6 1.665434 1_554
O1 Y2 2.271531 1_565
O1 Sn7 2.569754 1_555
O1 Sn11 2.749357 1_565
O2 Si7 1.665434 1_555
O2 Y2 2.271531 1_565
O2 Sn10 2.569754 1_565
O2 Sn7 2.749357 1_555
O3 Si3 1.665434 1_555
O3 Y2 2.271531 1_555
O3 Sn11 2.569754 1_555
O3 Sn10 2.749357 1_555
O4 Si0 1.665434 1_545
O4 Y1 2.271531 1_555
O4 Sn11 2.569754 1_555
O4 Sn8 2.749357 1_555
O5 Si9 1.665434 1_555
O5 Y0 2.271531 1_555
O5 Sn8 2.569754 1_555
O5 Sn6 2.749357 1_555
O6 Si5 1.665434 1_555
O6 Y5 2.271531 1_555
O6 Sn6 2.569754 1_555
O6 Sn8 2.749357 1_555
O7 Si10 1.665434 1_555
O7 Y3 2.271531 1_555
O7 Sn9 2.569754 1_555
O7 Sn7 2.749357 1_555
O8 Si5 1.665434 1_555
O8 Y4 2.271531 1_556
O8 Sn6 2.569754 1_555
O8 Sn7 2.749357 1_556
O9 Si8 1.665434 1_555
O9 Y5 2.271531 1_655
O9 Sn8 2.569754 1_655
O9 Sn10 2.749357 1_555
O10 Si1 1.665434 1_555
O10 Y4 2.271531 1_556
O10 Sn9 2.569754 1_556
O10 Sn6 2.749357 1_555
O11 Si1 1.665434 1_554
O11 Y1 2.271531 1_555
O11 Sn9 2.569754 1_555
O11 Sn11 2.749357 1_555
O12 Si4 1.665434 1_555
O12 Y4 2.271531 1_555
O12 Sn7 2.569754 1_555
O12 Sn9 2.749357 1_555
O13 Si2 1.665434 1_555
O13 Y5 2.271531 1_655
O13 Sn10 2.569754 1_555
O13 Sn6 2.749357 1_655
O14 Si8 1.665434 1_455
O14 Y1 2.271531 1_555
O14 Sn8 2.569754 1_555
O14 Sn9 2.749357 1_555
O15 Si2 1.665434 1_555
O15 Y6 2.271531 1_555
O15 Sn10 2.569754 1_555
O15 Sn11 2.749357 1_555
O16 Si4 1.665434 1_555
O16 Y6 2.271531 1_565
O16 Sn7 2.569754 1_555
O16 Sn10 2.749357 1_565
O17 Si11 1.665434 1_455
O17 Y3 2.271531 1_556
O17 Sn6 2.569754 1_555
O17 Sn9 2.749357 1_556
O18 Si11 1.665434 1_555
O18 Y0 2.271531 1_655
O18 Sn6 2.569754 1_655
O18 Sn10 2.749357 1_555
O19 Si3 1.665434 1_555
O19 Y4 2.271531 1_555
O19 Sn0 2.569754 1_555
O19 Sn1 2.749357 1_554
O20 Si9 1.665434 1_555
O20 Y7 2.271531 1_555
O20 Sn8 2.569754 1_555
O20 Sn11 2.749357 1_555
O21 Si10 1.665434 1_555
O21 Y7 2.271531 1_555
O21 Sn9 2.569754 1_555
O21 Sn8 2.749357 1_555
O22 Si7 1.665434 1_545
O22 Y0 2.271531 1_655
O22 Sn10 2.569754 1_555
O22 Sn8 2.749357 1_655
O23 Si0 1.665434 1_555
O23 Y6 2.271531 1_565
O23 Sn11 2.569754 1_565
O23 Sn7 2.749357 1_555
O24 Si5 1.665434 1_555
O24 Y7 2.271531 1_555
O24 Sn5 2.569754 1_555
O24 Sn3 2.749357 1_555
O25 Si8 1.665434 1_556
O25 Y2 2.271531 1_556
O25 Sn1 2.569754 1_555
O25 Sn5 2.749357 1_545
O26 Si1 1.665434 1_555
O26 Y2 2.271531 1_556
O26 Sn4 2.569754 1_545
O26 Sn1 2.749357 1_555
O27 Si5 1.665434 1_555
O27 Y2 2.271531 1_566
O27 Sn5 2.569754 1_555
O27 Sn4 2.749357 1_555
O28 Si11 1.665434 1_565
O28 Y1 2.271531 1_666
O28 Sn5 2.569754 1_555
O28 Sn2 2.749357 1_555
O29 Si4 1.665434 1_555
O29 Y0 2.271531 1_665
O29 Sn2 2.569754 1_555
O29 Sn0 2.749357 1_555
O30 Si3 1.665434 1_555
O30 Y5 2.271531 1_655
O30 Sn0 2.569754 1_555
O30 Sn2 2.749357 1_555
O31 Si2 1.665434 1_555
O31 Y3 2.271531 1_656
O31 Sn3 2.569754 1_555
O31 Sn1 2.749357 1_555
O32 Si11 1.665434 1_555
O32 Y6 2.271531 1_555
O32 Sn5 2.569754 1_545
O32 Sn1 2.749357 1_555
O33 Si1 1.665434 1_565
O33 Y0 2.271531 1_565
O33 Sn4 2.569754 1_555
O33 Sn2 2.749357 1_455
O34 Si2 1.665434 1_555
O34 Y7 2.271531 1_555
O34 Sn3 2.569754 1_555
O34 Sn2 2.749357 1_555
O35 Si4 1.665434 1_555
O35 Y7 2.271531 1_555
O35 Sn2 2.569754 1_555
O35 Sn5 2.749357 1_555
O36 Si8 1.665434 1_555
O36 Y3 2.271531 1_655
O36 Sn1 2.569754 1_554
O36 Sn0 2.749357 1_555
O37 Si0 1.665434 1_555
O37 Y0 2.271531 1_565
O37 Sn0 2.569754 1_455
O37 Sn4 2.749357 1_555
O38 Si0 1.665434 1_655
O38 Y3 2.271531 1_655
O38 Sn0 2.569754 1_555
O38 Sn3 2.749357 1_554
O39 Si9 1.665434 1_555
O39 Y6 2.271531 1_555
O39 Sn1 2.569754 1_555
O39 Sn4 2.749357 1_545
O40 Si10 1.665434 1_555
O40 Y6 2.271531 1_565
O40 Sn4 2.569754 1_555
O40 Sn5 2.749357 1_555
O41 Si6 1.665434 1_655
O41 Y1 2.271531 1_666
O41 Sn2 2.569754 1_555
O41 Sn3 2.749357 1_555
O42 Si10 1.665434 1_555
O42 Y5 2.271531 1_555
O42 Sn4 2.569754 1_555
O42 Sn0 2.749357 1_455
O43 Si9 1.665434 1_555
O43 Y4 2.271531 1_556
O43 Sn1 2.569754 1_555
O43 Sn3 2.749357 1_555
O44 Si7 1.665434 1_556
O44 Y1 2.271531 1_666
O44 Sn3 2.569754 1_555
O44 Sn5 2.749357 1_555
O45 Si7 1.665434 1_555
O45 Y4 2.271531 1_555
O45 Sn3 2.569754 1_554
O45 Sn0 2.749357 1_555
O46 Si6 1.665434 1_555
O46 Y5 2.271531 1_555
O46 Sn2 2.569754 1_455
O46 Sn4 2.749357 1_555
O47 Si6 1.665434 1_555
O47 Y3 2.271531 1_556
O47 Sn7 2.569754 1_556
O47 Sn6 2.749357 1_555
