# generated using pymatgen
data_Y3Fe2Si3
_symmetry_space_group_name_H-M   'P 1'
_cell_length_a   5.68385405
_cell_length_b   5.68385405
_cell_length_c   13.65460000
_cell_angle_alpha   90.00000000
_cell_angle_beta   90.00000000
_cell_angle_gamma   137.92030552
_symmetry_Int_Tables_number   1
_chemical_formula_structural   Y3Fe2Si3
_chemical_formula_sum   'Y6 Fe4 Si6'
_cell_volume   295.62806894
_cell_formula_units_Z   2
loop_
 _symmetry_equiv_pos_site_id
 _symmetry_equiv_pos_as_xyz
  1  'x, y, z'
loop_
 _atom_site_type_symbol
 _atom_site_label
 _atom_site_symmetry_multiplicity
 _atom_site_fract_x
 _atom_site_fract_y
 _atom_site_fract_z
 _atom_site_occupancy
  Y  Y0  1  0.63664300  0.36335700  0.25000000  1
  Y  Y1  1  0.36335700  0.63664300  0.75000000  1
  Y  Y2  1  0.92107800  0.07892200  0.11228700  1
  Y  Y3  1  0.07892200  0.92107800  0.88771300  1
  Y  Y4  1  0.07892200  0.92107800  0.61228700  1
  Y  Y5  1  0.92107800  0.07892200  0.38771300  1
  Fe  Fe0  1  0.78455300  0.21544700  0.58045400  1
  Fe  Fe1  1  0.21544700  0.78455300  0.41954600  1
  Fe  Fe2  1  0.21544700  0.78455300  0.08045400  1
  Fe  Fe3  1  0.78455300  0.21544700  0.91954600  1
  Si  Si0  1  0.32551000  0.67449000  0.25000000  1
  Si  Si1  1  0.67449000  0.32551000  0.75000000  1
  Si  Si2  1  0.62749100  0.37250900  0.04002500  1
  Si  Si3  1  0.37250900  0.62749100  0.95997500  1
  Si  Si4  1  0.37250900  0.62749100  0.54002500  1
  Si  Si5  1  0.62749100  0.37250900  0.45997500  1
loop_
_geom_bond_atom_site_label_1
_geom_bond_atom_site_label_2
_geom_bond_distance
_geom_bond_site_symmetry_2
Fe0 Si4 2.310771 1_545
Fe0 Si4 2.310771 1_655
Fe0 Si5 2.341629 1_555
Fe0 Si1 2.592923 1_555
Fe0 Y5 3.004089 1_555
Fe0 Y4 3.018750 1_545
Fe0 Y4 3.018750 1_655
Fe0 Y4 3.153308 1_645
Fe0 Y1 3.197299 1_545
Fe0 Y1 3.197299 1_655
Fe1 Si5 2.310771 1_565
Fe1 Si5 2.310771 1_455
Fe1 Si4 2.341629 1_555
Fe1 Si0 2.592923 1_555
Fe1 Y4 3.004089 1_555
Fe1 Y5 3.018750 1_455
Fe1 Y5 3.018750 1_565
Fe1 Y5 3.153308 1_465
Fe1 Y0 3.197299 1_565
Fe1 Y0 3.197299 1_455
Fe2 Si2 2.310771 1_455
Fe2 Si2 2.310771 1_565
Fe2 Si3 2.341629 1_554
Fe2 Si0 2.592923 1_555
Fe2 Y3 3.004089 1_554
Fe2 Y2 3.018750 1_565
Fe2 Y2 3.018750 1_455
Fe2 Y2 3.153308 1_465
Fe2 Y0 3.197299 1_565
Fe2 Y0 3.197299 1_455
Fe3 Si3 2.310771 1_545
Fe3 Si3 2.310771 1_655
Fe3 Si2 2.341629 1_556
Fe3 Si1 2.592923 1_555
Fe3 Y2 3.004089 1_556
Fe3 Y3 3.018750 1_655
Fe3 Y3 3.018750 1_545
Fe3 Y3 3.153308 1_645
Fe3 Y1 3.197299 1_545
Fe3 Y1 3.197299 1_655
Si0 Y0 2.859975 1_565
Si0 Y0 2.859975 1_455
Si0 Y5 2.954341 1_565
Si0 Y5 2.954341 1_455
Si0 Y2 2.954341 1_565
Si0 Y2 2.954341 1_455
Si0 Y0 3.301069 1_555
Si1 Y1 2.859975 1_655
Si1 Y1 2.859975 1_545
Si1 Y4 2.954341 1_545
Si1 Y4 2.954341 1_655
Si1 Y3 2.954341 1_545
Si1 Y3 2.954341 1_655
Si1 Y1 3.301069 1_555
Si2 Y0 2.868768 1_555
Si2 Y3 2.958884 1_544
Si2 Y3 2.958884 1_654
Si2 Y2 3.151790 1_455
Si2 Y2 3.151790 1_565
Si3 Y1 2.868768 1_555
Si3 Y2 2.958884 1_566
Si3 Y2 2.958884 1_456
Si3 Y3 3.151790 1_545
Si3 Y3 3.151790 1_655
Si4 Y1 2.868768 1_555
Si4 Y5 2.958884 1_565
Si4 Y5 2.958884 1_455
Si4 Y4 3.151790 1_545
Si4 Y4 3.151790 1_655
Si5 Y0 2.868768 1_555
Si5 Y4 2.958884 1_545
Si5 Y4 2.958884 1_655
Si5 Y5 3.151790 1_455
Si5 Y5 3.151790 1_565
