# generated using pymatgen
data_CaLaNbCoO6
_symmetry_space_group_name_H-M   'P 1'
_cell_length_a   5.75215555
_cell_length_b   9.73227218
_cell_length_c   9.70181117
_cell_angle_alpha   70.08956945
_cell_angle_beta   90.01605945
_cell_angle_gamma   89.96075148
_symmetry_Int_Tables_number   1
_chemical_formula_structural   CaLaNbCoO6
_chemical_formula_sum   'Ca4 La4 Nb4 Co4 O24'
_cell_volume   510.65765072
_cell_formula_units_Z   4
loop_
 _symmetry_equiv_pos_site_id
 _symmetry_equiv_pos_as_xyz
  1  'x, y, z'
loop_
 _atom_site_type_symbol
 _atom_site_label
 _atom_site_symmetry_multiplicity
 _atom_site_fract_x
 _atom_site_fract_y
 _atom_site_fract_z
 _atom_site_occupancy
  Ca  Ca0  1  0.55489700  0.88243700  0.36959500  1
  Ca  Ca1  1  0.55131900  0.38159700  0.86854300  1
  Ca  Ca2  1  0.94591100  0.88194500  0.86968200  1
  Ca  Ca3  1  0.94722000  0.38251800  0.36860600  1
  La  La0  1  0.44834800  0.11812700  0.62928700  1
  La  La1  1  0.45205400  0.61918600  0.12997800  1
  La  La2  1  0.05080100  0.11885800  0.12926600  1
  La  La3  1  0.04920100  0.61854100  0.62965000  1
  Nb  Nb0  1  0.50482500  0.24950100  0.24934800  1
  Nb  Nb1  1  0.50375000  0.74889100  0.74914800  1
  Nb  Nb2  1  0.99456300  0.24928400  0.74893300  1
  Nb  Nb3  1  0.99679800  0.74925900  0.24934400  1
  Co  Co0  1  0.49986500  0.49962000  0.50016600  1
  Co  Co1  1  0.00008100  0.49953100  0.00020100  1
  Co  Co2  1  0.49920400  0.99982300  0.00044200  1
  Co  Co3  1  0.00061500  0.99959400  0.50065300  1
  O  O0  1  0.30846200  0.08018800  0.37357700  1
  O  O1  1  0.30685600  0.57993100  0.87182300  1
  O  O2  1  0.19225200  0.07993400  0.87299800  1
  O  O3  1  0.19281400  0.57981800  0.37255700  1
  O  O4  1  0.69937200  0.91848000  0.62737700  1
  O  O5  1  0.70163000  0.41867400  0.12980600  1
  O  O6  1  0.79987700  0.91878500  0.12778400  1
  O  O7  1  0.79895100  0.41892500  0.62889100  1
  O  O8  1  0.79139000  0.12604400  0.32248600  1
  O  O9  1  0.78999000  0.62669100  0.82200900  1
  O  O10  1  0.70887700  0.12610100  0.82223400  1
  O  O11  1  0.71048900  0.62689700  0.32184500  1
  O  O12  1  0.21272000  0.87259100  0.68082600  1
  O  O13  1  0.21442600  0.37238000  0.18126400  1
  O  O14  1  0.28717900  0.87261400  0.18116400  1
  O  O15  1  0.28546200  0.37193600  0.68164200  1
  O  O16  1  0.96549300  0.82546500  0.41824600  1
  O  O17  1  0.96432000  0.32602200  0.91874800  1
  O  O18  1  0.53482400  0.32631700  0.41891100  1
  O  O19  1  0.53438300  0.82569600  0.91801200  1
  O  O20  1  0.02928200  0.17755600  0.57871100  1
  O  O21  1  0.03077600  0.67657200  0.07860800  1
  O  O22  1  0.47004000  0.67636200  0.57850000  1
  O  O23  1  0.47068300  0.17730600  0.07914000  1
loop_
_geom_bond_atom_site_label_1
_geom_bond_atom_site_label_2
_geom_bond_distance
_geom_bond_site_symmetry_2
Ca0 O22 2.366787 1_555
Ca0 O0 2.400371 1_565
Ca0 O14 2.416669 1_555
Ca0 O16 2.434688 1_555
Ca0 O8 2.635734 1_565
Ca0 O6 2.655543 1_555
Ca0 O4 2.768609 1_555
Ca0 O11 2.825351 1_555
Ca1 O23 2.361710 1_556
Ca1 O1 2.396320 1_555
Ca1 O15 2.397955 1_555
Ca1 O17 2.447782 1_555
Ca1 O7 2.644637 1_555
Ca1 O9 2.655131 1_555
Ca1 O5 2.815093 1_556
Ca1 O10 2.822098 1_555
Ca2 O21 2.362321 1_656
Ca2 O2 2.401607 1_665
Ca2 O12 2.415738 1_655
Ca2 O19 2.439388 1_555
Ca2 O10 2.639584 1_565
Ca2 O4 2.663062 1_555
Ca2 O6 2.777899 1_556
Ca2 O9 2.823998 1_555
Ca3 O20 2.363398 1_655
Ca3 O3 2.395428 1_655
Ca3 O13 2.408142 1_655
Ca3 O18 2.446455 1_555
Ca3 O5 2.632341 1_555
Ca3 O11 2.641402 1_555
Ca3 O7 2.799991 1_555
Ca3 O8 2.828002 1_555
La0 O18 2.388272 1_555
La0 O10 2.419402 1_555
La0 O4 2.425137 1_545
La0 O20 2.487989 1_555
La0 O12 2.643547 1_545
La0 O2 2.702382 1_555
La0 O0 2.749834 1_555
La0 O15 2.844136 1_555
La1 O19 2.383152 1_554
La1 O11 2.402969 1_555
La1 O5 2.422280 1_555
La1 O21 2.498072 1_555
La1 O13 2.660132 1_555
La1 O3 2.701443 1_555
La1 O1 2.787000 1_554
La1 O14 2.839122 1_555
La2 O17 2.382694 1_454
La2 O8 2.415834 1_455
La2 O6 2.428546 1_445
La2 O23 2.491489 1_555
La2 O14 2.649307 1_545
La2 O0 2.710369 1_555
La2 O2 2.762107 1_554
La2 O13 2.842328 1_555
La3 O16 2.383046 1_455
La3 O9 2.411322 1_455
La3 O7 2.420716 1_455
La3 O22 2.497040 1_555
La3 O15 2.651805 1_555
La3 O1 2.693312 1_555
La3 O3 2.772503 1_555
La3 O12 2.843137 1_555
Nb0 O5 2.010001 1_555
Nb0 O23 2.012308 1_555
Nb0 O8 2.019950 1_555
Nb0 O0 2.023438 1_555
Nb0 O13 2.028643 1_555
Nb0 O18 2.032877 1_555
Nb1 O9 2.012239 1_555
Nb1 O4 2.015245 1_555
Nb1 O22 2.018122 1_555
Nb1 O1 2.018287 1_555
Nb1 O19 2.026786 1_555
Nb1 O12 2.035742 1_555
Nb2 O7 2.008803 1_555
Nb2 O20 2.009905 1_655
Nb2 O10 2.016462 1_555
Nb2 O2 2.025780 1_655
Nb2 O15 2.030660 1_655
Nb2 O17 2.034785 1_555
Nb3 O11 2.014444 1_555
Nb3 O6 2.016786 1_555
Nb3 O3 2.018334 1_655
Nb3 O21 2.020037 1_655
Nb3 O16 2.023712 1_555
Nb3 O14 2.032549 1_655
Co0 O18 2.100437 1_555
Co0 O22 2.110874 1_555
Co0 O7 2.113078 1_555
Co0 O11 2.130461 1_555
Co0 O3 2.144796 1_555
Co0 O15 2.162914 1_555
Co1 O17 2.104176 1_454
Co1 O21 2.114624 1_555
Co1 O5 2.115802 1_455
Co1 O9 2.126086 1_454
Co1 O1 2.148663 1_554
Co1 O13 2.157172 1_555
Co2 O6 2.114916 1_555
Co2 O19 2.115425 1_554
Co2 O23 2.119295 1_565
Co2 O10 2.123723 1_564
Co2 O2 2.143461 1_564
Co2 O14 2.149217 1_555
Co3 O16 2.115446 1_455
Co3 O4 2.116447 1_455
Co3 O20 2.119932 1_565
Co3 O8 2.121013 1_465
Co3 O12 2.144061 1_555
Co3 O0 2.148337 1_565
