# generated using pymatgen
data_Mg2AlV3S8
_symmetry_space_group_name_H-M   'P 1'
_cell_length_a   7.30504471
_cell_length_b   7.31046989
_cell_length_c   7.30829212
_cell_angle_alpha   58.99916886
_cell_angle_beta   59.00245121
_cell_angle_gamma   58.95712992
_symmetry_Int_Tables_number   1
_chemical_formula_structural   Mg2AlV3S8
_chemical_formula_sum   'Mg2 Al1 V3 S8'
_cell_volume   269.59228624
_cell_formula_units_Z   1
loop_
 _symmetry_equiv_pos_site_id
 _symmetry_equiv_pos_as_xyz
  1  'x, y, z'
loop_
 _atom_site_type_symbol
 _atom_site_label
 _atom_site_symmetry_multiplicity
 _atom_site_fract_x
 _atom_site_fract_y
 _atom_site_fract_z
 _atom_site_occupancy
  Mg  Mg0  1  0.87527054  0.87523104  0.87539751  1
  Mg  Mg1  1  0.12472730  0.12476864  0.12460609  1
  Al  Al0  1  0.50000599  0.50001711  0.49997462  1
  V  V0  1  0.50000510  0.49999847  0.99998649  1
  V  V1  1  0.00000244  0.49997475  0.50001926  1
  V  V2  1  0.49999418  0.00000162  0.50001603  1
  S  S0  1  0.73871024  0.73869751  0.73868552  1
  S  S1  1  0.26384540  0.26415742  0.71455390  1
  S  S2  1  0.26390929  0.71452334  0.26416574  1
  S  S3  1  0.71454083  0.26397937  0.26398539  1
  S  S4  1  0.73608125  0.28547567  0.73582791  1
  S  S5  1  0.28545380  0.73601803  0.73600855  1
  S  S6  1  0.26129279  0.26129762  0.26132432  1
  S  S7  1  0.73616484  0.73585441  0.28544967  1
loop_
_geom_bond_atom_site_label_1
_geom_bond_atom_site_label_2
_geom_bond_distance
_geom_bond_site_symmetry_2
Mg0 S5 2.414698 1_655
Mg0 S7 2.416063 1_556
Mg0 S4 2.416772 1_565
Mg0 S0 2.463839 1_555
Mg1 S3 2.414717 1_455
Mg1 S1 2.416064 1_554
Mg1 S2 2.416776 1_545
Mg1 S6 2.463880 1_555
Al0 S2 2.427317 1_555
Al0 S4 2.427420 1_555
Al0 S3 2.429126 1_555
Al0 S5 2.429158 1_555
Al0 S7 2.429804 1_555
Al0 S1 2.429901 1_555
S0 V2 2.448988 1_565
S0 V1 2.449941 1_655
S0 V0 2.451168 1_555
S1 V1 2.458948 1_555
S1 V2 2.461835 1_555
S2 V1 2.461442 1_555
S2 V0 2.461969 1_554
S3 V0 2.460092 1_554
S3 V2 2.462053 1_555
S4 V1 2.461285 1_655
S4 V0 2.461849 1_555
S5 V0 2.460054 1_555
S5 V2 2.462063 1_565
S6 V2 2.449022 1_555
S6 V1 2.449856 1_555
S6 V0 2.451225 1_554
S7 V1 2.459078 1_655
S7 V2 2.461924 1_565
