# generated using pymatgen
data_Na3BiH8O7
_symmetry_space_group_name_H-M   'P 1'
_cell_length_a   6.92083525
_cell_length_b   7.52388633
_cell_length_c   8.45813638
_cell_angle_alpha   94.56270099
_cell_angle_beta   89.32293245
_cell_angle_gamma   115.50871184
_symmetry_Int_Tables_number   1
_chemical_formula_structural   Na3BiH8O7
_chemical_formula_sum   'Na6 Bi2 H16 O14'
_cell_volume   396.11244980
_cell_formula_units_Z   2
loop_
 _symmetry_equiv_pos_site_id
 _symmetry_equiv_pos_as_xyz
  1  'x, y, z'
loop_
 _atom_site_type_symbol
 _atom_site_label
 _atom_site_symmetry_multiplicity
 _atom_site_fract_x
 _atom_site_fract_y
 _atom_site_fract_z
 _atom_site_occupancy
  Na  Na0  1  0.79772900  0.87591200  0.37543500  1
  Na  Na1  1  0.20227100  0.12408800  0.62456500  1
  Na  Na2  1  0.68904700  0.14802500  0.64040200  1
  Na  Na3  1  0.31095300  0.85197500  0.35959800  1
  Na  Na4  1  0.05309900  0.36660300  0.36384100  1
  Na  Na5  1  0.94690100  0.63339700  0.63615900  1
  Bi  Bi0  1  0.54352800  0.37868200  0.32823300  1
  Bi  Bi1  1  0.45647200  0.62131800  0.67176700  1
  H  H0  1  0.03962600  0.35387300  0.75620600  1
  H  H1  1  0.96037400  0.64612700  0.24379400  1
  H  H2  1  0.67550000  0.08427800  0.23342400  1
  H  H3  1  0.32450000  0.91572200  0.76657600  1
  H  H4  1  0.84904200  0.94355900  0.76002100  1
  H  H5  1  0.15095800  0.05644100  0.23997900  1
  H  H6  1  0.18399300  0.53747800  0.08142100  1
  H  H7  1  0.81600700  0.46252200  0.91857900  1
  H  H8  1  0.99212600  0.32363400  0.03012300  1
  H  H9  1  0.00787400  0.67636600  0.96987700  1
  H  H10  1  0.64727800  0.18879000  0.96089000  1
  H  H11  1  0.35272200  0.81121000  0.03911000  1
  H  H12  1  0.76697200  0.74841500  0.02532800  1
  H  H13  1  0.23302800  0.25158500  0.97467200  1
  H  H14  1  0.78024600  0.96486200  0.02138500  1
  H  H15  1  0.21975400  0.03513800  0.97861500  1
  O  O0  1  0.09109500  0.38760400  0.64877000  1
  O  O1  1  0.90890500  0.61239600  0.35123000  1
  O  O2  1  0.56568200  0.38069700  0.57665300  1
  O  O3  1  0.43431800  0.61930300  0.42334700  1
  O  O4  1  0.66976500  0.13002500  0.34445500  1
  O  O5  1  0.33023500  0.86997500  0.65554500  1
  O  O6  1  0.81451700  0.88479800  0.65041200  1
  O  O7  1  0.18548300  0.11520200  0.34958800  1
  O  O8  1  0.14075700  0.39334200  0.08679400  1
  O  O9  1  0.85924300  0.60665800  0.91320600  1
  O  O10  1  0.78772800  0.20853900  0.92203600  1
  O  O11  1  0.21227200  0.79146100  0.07796400  1
  O  O12  1  0.74512100  0.85572700  0.09041400  1
  O  O13  1  0.25487900  0.14427300  0.90958600  1
loop_
_geom_bond_atom_site_label_1
_geom_bond_atom_site_label_2
_geom_bond_distance
_geom_bond_site_symmetry_2
Na0 O6 2.324272 1_555
Na0 O1 2.410502 1_555
Na0 O12 2.425324 1_555
Na0 O4 2.460075 1_565
Na0 O3 2.477013 1_555
Na0 O7 2.525513 1_665
Na1 O7 2.324272 1_555
Na1 O0 2.410502 1_555
Na1 O13 2.425324 1_555
Na1 O5 2.460075 1_545
Na1 O2 2.477013 1_555
Na1 O6 2.525513 1_445
Na2 O2 2.352162 1_555
Na2 O10 2.438482 1_555
Na2 O5 2.473911 1_545
Na2 O6 2.488615 1_545
Na2 O4 2.498070 1_555
Na2 O0 2.580890 1_655
Na3 O3 2.352162 1_555
Na3 O11 2.438482 1_555
Na3 O4 2.473911 1_565
Na3 O7 2.488615 1_565
Na3 O5 2.498070 1_555
Na3 O1 2.580890 1_455
Na4 O0 2.412606 1_555
Na4 O8 2.415753 1_555
Na4 O7 2.426014 1_555
Na4 O1 2.459813 1_455
Na4 O4 2.475915 1_455
Na4 O3 2.527402 1_555
Na5 O1 2.412606 1_555
Na5 O9 2.415753 1_555
Na5 O6 2.426014 1_555
Na5 O0 2.459813 1_655
Na5 O5 2.475915 1_655
Na5 O2 2.527402 1_555
Bi0 O2 2.106940 1_555
Bi0 O3 2.329914 1_555
Bi0 O1 2.377332 1_555
Bi0 O4 2.394522 1_555
Bi0 O7 2.432751 1_555
Bi1 O3 2.106940 1_555
Bi1 O2 2.329914 1_555
Bi1 O0 2.377332 1_555
Bi1 O5 2.394522 1_555
Bi1 O6 2.432751 1_555
H0 O0 0.983983 1_555
H0 Na2 2.413144 1_455
H1 O1 0.983983 1_555
H1 Na3 2.413144 1_655
H2 O4 0.980531 1_555
H2 Na0 2.466160 1_545
H3 O5 0.980531 1_555
H3 Na1 2.466160 1_565
H4 O6 0.980349 1_555
H4 Na2 2.521438 1_565
H4 Na1 2.540725 1_665
H5 O7 0.980349 1_555
H5 Na3 2.521438 1_545
H5 Na0 2.540725 1_445
H6 O8 0.997842 1_555
H7 O9 0.997842 1_555
H8 O8 1.034379 1_655
H8 O10 1.560869 1_554
H9 O9 1.034379 1_455
H9 O11 1.560869 1_556
H10 O10 0.975060 1_555
H11 O11 0.975060 1_555
H12 O12 1.005141 1_555
H13 O13 1.005141 1_555
H14 O12 0.987531 1_555
H15 O13 0.987531 1_555
