# generated using pymatgen
data_Eu2WO6
_symmetry_space_group_name_H-M   'P 1'
_cell_length_a   5.53666340
_cell_length_b   10.15513515
_cell_length_c   10.15513515
_cell_angle_alpha   68.23123960
_cell_angle_beta   75.48039741
_cell_angle_gamma   75.48039741
_symmetry_Int_Tables_number   1
_chemical_formula_structural   Eu2WO6
_chemical_formula_sum   'Eu8 W4 O24'
_cell_volume   505.36291573
_cell_formula_units_Z   4
loop_
 _symmetry_equiv_pos_site_id
 _symmetry_equiv_pos_as_xyz
  1  'x, y, z'
loop_
 _atom_site_type_symbol
 _atom_site_label
 _atom_site_symmetry_multiplicity
 _atom_site_fract_x
 _atom_site_fract_y
 _atom_site_fract_z
 _atom_site_occupancy
  Eu  Eu0  1  0.25000000  0.36740500  0.63259500  1
  Eu  Eu1  1  0.75000000  0.63259500  0.36740500  1
  Eu  Eu2  1  0.25000000  0.88895400  0.11104600  1
  Eu  Eu3  1  0.75000000  0.11104600  0.88895400  1
  Eu  Eu4  1  0.38934300  0.94207200  0.71009400  1
  Eu  Eu5  1  0.61065700  0.05792800  0.28990600  1
  Eu  Eu6  1  0.11065700  0.28990600  0.05792800  1
  Eu  Eu7  1  0.88934300  0.71009400  0.94207200  1
  W  W0  1  0.06251000  0.79940900  0.50543100  1
  W  W1  1  0.93749000  0.20059100  0.49456900  1
  W  W2  1  0.43749000  0.49456900  0.20059100  1
  W  W3  1  0.56251000  0.50543100  0.79940900  1
  O  O0  1  0.07639800  0.16032500  0.68577000  1
  O  O1  1  0.92360200  0.83967500  0.31423000  1
  O  O2  1  0.42360200  0.31423000  0.83967500  1
  O  O3  1  0.57639800  0.68577000  0.16032500  1
  O  O4  1  0.37055100  0.82781300  0.38110600  1
  O  O5  1  0.62944900  0.17218700  0.61889400  1
  O  O6  1  0.12944900  0.61889400  0.17218700  1
  O  O7  1  0.87055100  0.38110600  0.82781300  1
  O  O8  1  0.13455400  0.78684200  0.67915900  1
  O  O9  1  0.86544600  0.21315800  0.32084100  1
  O  O10  1  0.36544600  0.32084100  0.21315800  1
  O  O11  1  0.63455400  0.67915900  0.78684200  1
  O  O12  1  0.23703300  0.06470200  0.47756100  1
  O  O13  1  0.76296800  0.93529800  0.52243900  1
  O  O14  1  0.26296800  0.52243900  0.93529800  1
  O  O15  1  0.73703200  0.47756100  0.06470200  1
  O  O16  1  0.01282300  0.61576600  0.54541000  1
  O  O17  1  0.98717700  0.38423400  0.45459000  1
  O  O18  1  0.48717700  0.45459000  0.38423400  1
  O  O19  1  0.51282300  0.54541000  0.61576600  1
  O  O20  1  0.57096300  0.92238100  0.89791300  1
  O  O21  1  0.42903700  0.07761900  0.10208700  1
  O  O22  1  0.92903700  0.10208700  0.07761900  1
  O  O23  1  0.07096300  0.89791300  0.92238100  1
loop_
_geom_bond_atom_site_label_1
_geom_bond_atom_site_label_2
_geom_bond_distance
_geom_bond_site_symmetry_2
Eu0 O2 2.355574 1_555
Eu0 O0 2.355574 1_555
Eu0 O18 2.476986 1_555
Eu0 O16 2.476986 1_555
Eu0 O5 2.516518 1_555
Eu0 O7 2.516518 1_455
Eu0 O19 2.525764 1_555
Eu0 O17 2.525764 1_455
Eu1 O1 2.355574 1_555
Eu1 O3 2.355574 1_555
Eu1 O17 2.476986 1_555
Eu1 O19 2.476986 1_555
Eu1 O6 2.516518 1_655
Eu1 O4 2.516518 1_555
Eu1 O16 2.525764 1_655
Eu1 O18 2.525764 1_555
Eu2 O21 2.332256 1_565
Eu2 O23 2.332256 1_554
Eu2 O1 2.364651 1_455
Eu2 O3 2.364651 1_555
Eu2 O22 2.405557 1_465
Eu2 O20 2.405557 1_554
Eu2 O6 2.792727 1_555
Eu2 O4 2.792727 1_555
Eu3 O22 2.332256 1_556
Eu3 O20 2.332256 1_545
Eu3 O0 2.364651 1_655
Eu3 O2 2.364651 1_555
Eu3 O21 2.405557 1_556
Eu3 O23 2.405557 1_645
Eu3 O7 2.792727 1_555
Eu3 O5 2.792727 1_555
Eu4 O20 2.295003 1_555
Eu4 O23 2.393688 1_555
Eu4 O0 2.420428 1_565
Eu4 O13 2.442283 1_555
Eu4 O12 2.475668 1_565
Eu4 O8 2.505647 1_555
Eu4 O11 2.597821 1_555
Eu4 O5 2.724141 1_565
Eu5 O21 2.295003 1_555
Eu5 O22 2.393688 1_555
Eu5 O1 2.420428 1_545
Eu5 O12 2.442279 1_555
Eu5 O13 2.475670 1_545
Eu5 O9 2.505647 1_555
Eu5 O10 2.597821 1_555
Eu5 O4 2.724141 1_545
Eu6 O22 2.295003 1_455
Eu6 O21 2.393688 1_555
Eu6 O2 2.420428 1_554
Eu6 O15 2.442283 1_455
Eu6 O14 2.475670 1_554
Eu6 O10 2.505647 1_555
Eu6 O9 2.597821 1_455
Eu6 O7 2.724141 1_454
Eu7 O23 2.295003 1_655
Eu7 O20 2.393688 1_555
Eu7 O3 2.420428 1_556
Eu7 O14 2.442283 1_655
Eu7 O15 2.475670 1_556
Eu7 O11 2.505647 1_555
Eu7 O8 2.597821 1_655
Eu7 O6 2.724141 1_656
O0 W1 2.128610 1_455
O1 W0 2.128610 1_655
O2 W3 2.128610 1_555
O3 W2 2.128610 1_555
O4 W0 1.866240 1_555
O5 W1 1.866240 1_555
O6 W2 1.866240 1_555
O7 W3 1.866240 1_555
O8 W0 1.856945 1_555
O9 W1 1.856945 1_555
O10 W2 1.856945 1_555
O11 W3 1.856945 1_555
O12 W1 1.889511 1_455
O13 W0 1.889507 1_655
O14 W3 1.889507 1_555
O15 W2 1.889507 1_555
O16 W0 1.832509 1_555
O17 W1 1.832509 1_555
O18 W2 1.832509 1_555
O19 W3 1.832509 1_555
