# generated using pymatgen
data_Li9Cr12Ni7O48
_symmetry_space_group_name_H-M   'P 1'
_cell_length_a   5.07085400
_cell_length_b   10.24664077
_cell_length_c   17.34732324
_cell_angle_alpha   89.81791277
_cell_angle_beta   89.80283538
_cell_angle_gamma   89.97784582
_symmetry_Int_Tables_number   1
_chemical_formula_structural   Li9Cr12Ni7O48
_chemical_formula_sum   'Li9 Cr12 Ni7 O48'
_cell_volume   901.34342065
_cell_formula_units_Z   1
loop_
 _symmetry_equiv_pos_site_id
 _symmetry_equiv_pos_as_xyz
  1  'x, y, z'
loop_
 _atom_site_type_symbol
 _atom_site_label
 _atom_site_symmetry_multiplicity
 _atom_site_fract_x
 _atom_site_fract_y
 _atom_site_fract_z
 _atom_site_occupancy
  Li  Li0  1  0.09459100  0.24959600  0.24858000  1
  Li  Li1  1  0.24545700  0.42109900  0.97200500  1
  Li  Li2  1  0.24938000  0.57878600  0.47493400  1
  Li  Li3  1  0.24938400  0.92132000  0.47521400  1
  Li  Li4  1  0.25456000  0.25109900  0.80264000  1
  Li  Li5  1  0.74812600  0.75101700  0.19367400  1
  Li  Li6  1  0.75386500  0.92171800  0.02796200  1
  Li  Li7  1  0.75978800  0.25092400  0.69814200  1
  Li  Li8  1  0.90517500  0.74985700  0.74817700  1
  Cr  Cr0  1  0.22663400  0.74918000  0.94373000  1
  Cr  Cr1  1  0.22676700  0.02896200  0.65443900  1
  Cr  Cr2  1  0.22645400  0.47099800  0.65415100  1
  Cr  Cr3  1  0.27977700  0.52755700  0.15383400  1
  Cr  Cr4  1  0.27692600  0.97229300  0.15656000  1
  Cr  Cr5  1  0.28062600  0.25020500  0.44459500  1
  Cr  Cr6  1  0.72010800  0.75001500  0.55727500  1
  Cr  Cr7  1  0.72319700  0.47328100  0.84425800  1
  Cr  Cr8  1  0.72016900  0.02819200  0.84606100  1
  Cr  Cr9  1  0.77106300  0.53002000  0.34334700  1
  Cr  Cr10  1  0.77133500  0.97071000  0.34410600  1
  Cr  Cr11  1  0.77356100  0.24891800  0.05613600  1
  Ni  Ni0  1  0.25682000  0.75604100  0.30930000  1
  Ni  Ni1  1  0.24509800  0.06944700  0.97540700  1
  Ni  Ni2  1  0.40668100  0.74973800  0.75063200  1
  Ni  Ni3  1  0.59191200  0.25006200  0.24767100  1
  Ni  Ni4  1  0.75411600  0.06976600  0.52685500  1
  Ni  Ni5  1  0.75352900  0.43047900  0.52659700  1
  Ni  Ni6  1  0.75457500  0.56948700  0.02474500  1
  O  O0  1  0.04995600  0.24314900  0.00120200  1
  O  O1  1  0.04989600  0.61144300  0.36596400  1
  O  O2  1  0.05062500  0.89042700  0.36803800  1
  O  O3  1  0.10201600  0.62418800  0.20858100  1
  O  O4  1  0.09616200  0.87266800  0.21201700  1
  O  O5  1  0.09629000  0.12111600  0.46575300  1
  O  O6  1  0.09597200  0.37904000  0.46563000  1
  O  O7  1  0.09575700  0.00511100  0.07801200  1
  O  O8  1  0.09192200  0.49688300  0.07703200  1
  O  O9  1  0.16703700  0.74845800  0.84863100  1
  O  O10  1  0.16765900  0.61150900  0.70127400  1
  O  O11  1  0.16774700  0.88807100  0.70172400  1
  O  O12  1  0.34594100  0.11136300  0.20379700  1
  O  O13  1  0.34668900  0.38854800  0.20158400  1
  O  O14  1  0.35312000  0.25034000  0.35085600  1
  O  O15  1  0.41294100  0.49962600  0.57631100  1
  O  O16  1  0.41354100  0.00087300  0.57665100  1
  O  O17  1  0.39753300  0.88304600  0.96565000  1
  O  O18  1  0.41786800  0.62343500  0.96596300  1
  O  O19  1  0.39691300  0.12578900  0.70966600  1
  O  O20  1  0.39894600  0.37361300  0.70880700  1
  O  O21  1  0.44289300  0.10837400  0.87446700  1
  O  O22  1  0.45276500  0.39320300  0.87007300  1
  O  O23  1  0.45679300  0.75013500  0.50074300  1
  O  O24  1  0.55898700  0.25007900  0.50218400  1
  O  O25  1  0.55760100  0.60726400  0.12594000  1
  O  O26  1  0.54809000  0.89503400  0.13033000  1
  O  O27  1  0.57441300  0.62569100  0.29200200  1
  O  O28  1  0.57490400  0.87467600  0.29309600  1
  O  O29  1  0.58220100  0.12342200  0.03397700  1
  O  O30  1  0.60271000  0.38272500  0.03423500  1
  O  O31  1  0.60466500  0.00526700  0.42411600  1
  O  O32  1  0.60480800  0.49539700  0.42379900  1
  O  O33  1  0.64390700  0.75029400  0.65133000  1
  O  O34  1  0.65266000  0.61205500  0.79582100  1
  O  O35  1  0.65219000  0.88960600  0.79845200  1
  O  O36  1  0.83130300  0.10934400  0.29599400  1
  O  O37  1  0.83109000  0.39096000  0.29567300  1
  O  O38  1  0.83425400  0.24818600  0.15122200  1
  O  O39  1  0.90439400  0.50592800  0.92297600  1
  O  O40  1  0.90870800  0.99713700  0.92289000  1
  O  O41  1  0.90361700  0.61852200  0.53625400  1
  O  O42  1  0.90355700  0.88158500  0.53617200  1
  O  O43  1  0.89309900  0.12539300  0.79048600  1
  O  O44  1  0.90622800  0.37714200  0.79021100  1
  O  O45  1  0.94486600  0.10624300  0.62741000  1
  O  O46  1  0.94467300  0.39351500  0.62717400  1
  O  O47  1  0.95041800  0.74335900  0.99880100  1
loop_
_geom_bond_atom_site_label_1
_geom_bond_atom_site_label_2
_geom_bond_distance
_geom_bond_site_symmetry_2
Li0 O12 2.057440 1_555
Li0 O13 2.076743 1_555
Li0 O36 2.123840 1_455
Li0 O37 2.132940 1_455
Li0 O38 2.147290 1_455
Li0 O14 2.209665 1_555
Li1 O22 2.074529 1_555
Li1 O39 2.115250 1_455
Li1 O8 2.127761 1_556
Li1 O0 2.134512 1_556
Li1 O30 2.147558 1_556
Li1 O18 2.252365 1_555
Li2 O41 2.088251 1_455
Li2 O23 2.097375 1_555
Li2 O15 2.106896 1_555
Li2 O1 2.171974 1_555
Li2 O32 2.181274 1_555
Li2 O6 2.196468 1_555
Li3 O42 2.084296 1_455
Li3 O23 2.091863 1_555
Li3 O16 2.115069 1_565
Li3 O2 2.142333 1_555
Li3 O31 2.180980 1_565
Li3 O5 2.195063 1_565
Li4 O22 2.125746 1_555
Li4 O21 2.144497 1_555
Li4 O20 2.177401 1_555
Li4 O19 2.185283 1_555
Li4 O44 2.198534 1_455
Li4 O43 2.251523 1_455
Li5 O26 2.100060 1_555
Li5 O25 2.122176 1_555
Li5 O4 2.185817 1_655
Li5 O3 2.230545 1_655
Li5 O27 2.304593 1_555
Li5 O28 2.313933 1_555
Li6 O26 2.073992 1_555
Li6 O7 2.122706 1_665
Li6 O40 2.125486 1_554
Li6 O47 2.142508 1_554
Li6 O17 2.146415 1_554
Li6 O29 2.244905 1_565
Li7 O46 2.123913 1_555
Li7 O45 2.141657 1_555
Li7 O43 2.161320 1_555
Li7 O44 2.190204 1_555
Li7 O20 2.227130 1_555
Li7 O19 2.251137 1_555
Li8 O34 2.074404 1_555
Li8 O11 2.101117 1_655
Li8 O10 2.107519 1_655
Li8 O35 2.110840 1_555
Li8 O33 2.143138 1_555
Li8 O9 2.194507 1_655
Cr0 O18 1.657618 1_555
Cr0 O17 1.668411 1_555
Cr0 O9 1.678228 1_555
Cr0 O47 1.693676 1_455
Cr1 O19 1.630643 1_555
Cr1 O16 1.671593 1_555
Cr1 O11 1.684541 1_545
Cr1 O45 1.700499 1_455
Cr2 O20 1.630580 1_555
Cr2 O15 1.671096 1_555
Cr2 O10 1.683901 1_555
Cr2 O46 1.702603 1_455
Cr3 O3 1.641419 1_555
Cr3 O8 1.671192 1_555
Cr3 O13 1.680527 1_555
Cr3 O25 1.696941 1_555
Cr4 O26 1.649728 1_555
Cr4 O4 1.672184 1_555
Cr4 O7 1.679045 1_565
Cr4 O12 1.683555 1_565
Cr5 O6 1.659035 1_555
Cr5 O5 1.659390 1_555
Cr5 O14 1.665916 1_555
Cr5 O24 1.732091 1_555
Cr6 O23 1.659391 1_555
Cr6 O33 1.675450 1_555
Cr6 O42 1.677011 1_555
Cr6 O41 1.677526 1_555
Cr7 O44 1.646224 1_555
Cr7 O22 1.657904 1_555
Cr7 O39 1.683044 1_555
Cr7 O34 1.688204 1_555
Cr8 O43 1.636808 1_555
Cr8 O40 1.672552 1_545
Cr8 O35 1.681436 1_545
Cr8 O21 1.700489 1_555
Cr9 O27 1.657868 1_555
Cr9 O32 1.665342 1_555
Cr9 O37 1.677010 1_555
Cr9 O1 1.689969 1_655
Cr10 O28 1.660076 1_555
Cr10 O31 1.661604 1_565
Cr10 O36 1.672727 1_565
Cr10 O2 1.689906 1_655
Cr11 O29 1.658193 1_555
Cr11 O30 1.665172 1_555
Cr11 O38 1.678987 1_555
Cr11 O0 1.693249 1_655
Ni0 O2 2.007017 1_555
Ni0 O28 2.038278 1_555
Ni0 O1 2.060906 1_555
Ni0 O27 2.113095 1_555
Ni0 O4 2.221640 1_555
Ni0 O3 2.349369 1_555
Ni1 O7 2.039568 1_556
Ni1 O21 2.053048 1_555
Ni1 O17 2.067412 1_545
Ni1 O29 2.067971 1_556
Ni1 O40 2.074758 1_445
Ni1 O0 2.085180 1_556
Ni2 O34 2.039360 1_555
Ni2 O11 2.048184 1_555
Ni2 O10 2.055359 1_555
Ni2 O35 2.075589 1_555
Ni2 O9 2.086290 1_555
Ni2 O33 2.097667 1_555
Ni3 O12 2.041952 1_555
Ni3 O13 2.048736 1_555
Ni3 O36 2.062354 1_555
Ni3 O37 2.065110 1_555
Ni3 O38 2.072661 1_555
Ni3 O14 2.157635 1_555
Ni4 O45 2.033256 1_555
Ni4 O31 2.050533 1_555
Ni4 O16 2.052772 1_555
Ni4 O42 2.077535 1_545
Ni4 O5 2.096541 1_655
Ni4 O24 2.138300 1_555
Ni5 O46 2.033275 1_555
Ni5 O32 2.047582 1_555
Ni5 O15 2.054559 1_555
Ni5 O41 2.079412 1_555
Ni5 O6 2.098073 1_655
Ni5 O24 2.139793 1_555
Ni6 O39 2.028721 1_554
Ni6 O25 2.054530 1_555
Ni6 O18 2.065972 1_554
Ni6 O30 2.068956 1_555
Ni6 O8 2.075539 1_655
Ni6 O47 2.087125 1_554
