# generated using pymatgen
data_LaMg14V
_symmetry_space_group_name_H-M   'P 1'
_cell_length_a   6.53053686
_cell_length_b   6.36508775
_cell_length_c   10.40235472
_cell_angle_alpha   90.00000000
_cell_angle_beta   90.00000000
_cell_angle_gamma   119.16542057
_symmetry_Int_Tables_number   1
_chemical_formula_structural   LaMg14V
_chemical_formula_sum   'La1 Mg14 V1'
_cell_volume   377.57810318
_cell_formula_units_Z   1
loop_
 _symmetry_equiv_pos_site_id
 _symmetry_equiv_pos_as_xyz
  1  'x, y, z'
loop_
 _atom_site_type_symbol
 _atom_site_label
 _atom_site_symmetry_multiplicity
 _atom_site_fract_x
 _atom_site_fract_y
 _atom_site_fract_z
 _atom_site_occupancy
  La  La0  1  0.16371418  0.83185659  0.12500000  1
  Mg  Mg0  1  0.16543635  0.33271768  0.62500000  1
  Mg  Mg1  1  0.16652491  0.83326196  0.62500000  1
  Mg  Mg2  1  0.66104265  0.33588026  0.12500000  1
  Mg  Mg3  1  0.66563794  0.33186592  0.62500000  1
  Mg  Mg4  1  0.66104265  0.82516139  0.12500000  1
  Mg  Mg5  1  0.66563794  0.83377102  0.62500000  1
  Mg  Mg6  1  0.33545334  0.17513476  0.37954518  1
  Mg  Mg7  1  0.33545334  0.17513476  0.87045482  1
  Mg  Mg8  1  0.33545334  0.66031959  0.37954518  1
  Mg  Mg9  1  0.33545334  0.66031959  0.87045482  1
  Mg  Mg10  1  0.83979669  0.16989885  0.36775751  1
  Mg  Mg11  1  0.83979669  0.16989885  0.88224249  1
  Mg  Mg12  1  0.82950822  0.66475461  0.38339884  1
  Mg  Mg13  1  0.82950822  0.66475461  0.86660116  1
  V  V0  1  0.17054018  0.33526959  0.12500000  1
loop_
_geom_bond_atom_site_label_1
_geom_bond_atom_site_label_2
_geom_bond_distance
_geom_bond_site_symmetry_2
La0 V0 3.182782 1_565
La0 V0 3.182782 1_555
La0 Mg2 3.262159 1_455
La0 Mg4 3.262159 1_455
La0 Mg9 3.264162 1_554
La0 Mg8 3.264162 1_555
La0 Mg7 3.264168 1_564
La0 Mg6 3.264168 1_565
La0 Mg2 3.268801 1_565
La0 Mg4 3.268802 1_555
La0 Mg13 3.295043 1_454
La0 Mg12 3.295043 1_455
Mg0 Mg6 3.137463 1_555
Mg0 Mg7 3.137463 1_555
Mg0 Mg8 3.137469 1_555
Mg0 Mg9 3.137469 1_555
Mg0 Mg1 3.182550 1_555
Mg0 Mg1 3.182550 1_545
Mg0 Mg10 3.257142 1_455
Mg0 Mg11 3.257142 1_455
Mg0 Mg5 3.261313 1_445
Mg0 Mg3 3.261313 1_455
Mg0 Mg5 3.269230 1_555
Mg0 Mg3 3.269230 1_555
Mg1 Mg12 3.163832 1_455
Mg1 Mg13 3.163832 1_455
Mg1 Mg8 3.183047 1_555
Mg1 Mg9 3.183047 1_555
Mg1 Mg7 3.183053 1_565
Mg1 Mg6 3.183053 1_565
Mg1 Mg3 3.257898 1_565
Mg1 Mg5 3.257898 1_555
Mg1 Mg3 3.272641 1_455
Mg1 Mg5 3.272641 1_455
Mg2 Mg4 3.114317 1_555
Mg2 V0 3.201352 1_555
Mg2 Mg7 3.233992 1_554
Mg2 Mg6 3.233992 1_555
Mg2 Mg4 3.250770 1_545
Mg2 V0 3.329188 1_655
Mg3 Mg5 3.170418 1_545
Mg3 Mg6 3.172937 1_555
Mg3 Mg7 3.172937 1_555
Mg3 Mg5 3.194670 1_555
Mg4 V0 3.201352 1_555
Mg4 Mg9 3.233992 1_554
Mg4 Mg8 3.233992 1_555
Mg4 V0 3.329188 1_665
Mg5 Mg8 3.172937 1_555
Mg5 Mg9 3.172937 1_555
Mg6 Mg8 3.088244 1_555
Mg6 V0 3.206230 1_555
Mg6 Mg8 3.276844 1_545
Mg7 Mg9 3.088244 1_555
Mg7 V0 3.206230 1_556
Mg7 Mg9 3.276844 1_545
Mg8 V0 3.206236 1_555
Mg9 V0 3.206236 1_556
Mg10 V0 3.151859 1_655
Mg10 Mg2 3.171409 1_555
Mg10 Mg4 3.171415 1_545
Mg10 Mg12 3.187240 1_555
Mg10 Mg12 3.187240 1_545
Mg10 Mg8 3.223127 1_655
Mg10 Mg6 3.223127 1_655
Mg10 Mg3 3.264936 1_555
Mg10 Mg5 3.264942 1_545
Mg10 Mg8 3.312272 1_545
Mg10 Mg6 3.312273 1_555
Mg11 V0 3.151859 1_656
Mg11 Mg2 3.171409 1_556
Mg11 Mg4 3.171415 1_546
Mg11 Mg13 3.187240 1_555
Mg11 Mg13 3.187240 1_545
Mg11 Mg9 3.223127 1_655
Mg11 Mg7 3.223127 1_655
Mg11 Mg3 3.264936 1_555
Mg11 Mg5 3.264942 1_545
Mg11 Mg9 3.312272 1_545
Mg11 Mg7 3.312273 1_555
Mg12 Mg5 3.121057 1_555
Mg12 Mg3 3.121063 1_555
Mg12 Mg6 3.213031 1_555
Mg12 Mg8 3.213031 1_555
Mg12 Mg4 3.251577 1_555
Mg12 Mg2 3.251583 1_555
Mg12 Mg6 3.318184 1_665
Mg12 Mg8 3.318184 1_655
Mg13 Mg5 3.121057 1_555
Mg13 Mg3 3.121063 1_555
Mg13 Mg7 3.213031 1_555
Mg13 Mg9 3.213031 1_555
Mg13 Mg4 3.251577 1_556
Mg13 Mg2 3.251583 1_556
Mg13 Mg7 3.318184 1_665
Mg13 Mg9 3.318184 1_655
