# generated using pymatgen
data_Ti2Al3Ni
_symmetry_space_group_name_H-M   'P 1'
_cell_length_a   5.12227796
_cell_length_b   5.12284200
_cell_length_c   7.84436600
_cell_angle_alpha   90.00000000
_cell_angle_beta   90.00000000
_cell_angle_gamma   59.99635734
_symmetry_Int_Tables_number   1
_chemical_formula_structural   Ti2Al3Ni
_chemical_formula_sum   'Ti4 Al6 Ni2'
_cell_volume   178.25701963
_cell_formula_units_Z   2
loop_
 _symmetry_equiv_pos_site_id
 _symmetry_equiv_pos_as_xyz
  1  'x, y, z'
loop_
 _atom_site_type_symbol
 _atom_site_label
 _atom_site_symmetry_multiplicity
 _atom_site_fract_x
 _atom_site_fract_y
 _atom_site_fract_z
 _atom_site_occupancy
  Ti  Ti0  1  0.33331300  0.33334400  0.56645100  1
  Ti  Ti1  1  0.66668700  0.66665600  0.43354900  1
  Ti  Ti2  1  0.66668700  0.66665600  0.06645100  1
  Ti  Ti3  1  0.33331300  0.33334400  0.93354900  1
  Al  Al0  1  0.83185700  0.33631000  0.75000000  1
  Al  Al1  1  0.33629000  0.83185500  0.75000000  1
  Al  Al2  1  0.83185700  0.83183200  0.75000000  1
  Al  Al3  1  0.16814300  0.66369000  0.25000000  1
  Al  Al4  1  0.66371000  0.16814500  0.25000000  1
  Al  Al5  1  0.16814300  0.16816700  0.25000000  1
  Ni  Ni0  1  0.00000000  0.00000000  0.50000000  1
  Ni  Ni1  1  0.00000000  0.00000000  0.00000000  1
loop_
_geom_bond_atom_site_label_1
_geom_bond_atom_site_label_2
_geom_bond_distance
_geom_bond_site_symmetry_2
Ti0 Ti3 2.879651 1_555
Ti0 Ti1 3.135454 1_455
Ti0 Ti1 3.136013 1_555
Ti0 Ti1 3.136021 1_545
Ti1 Ti2 2.879651 1_555
Ti2 Ti3 3.135454 1_654
Ti2 Ti3 3.136013 1_554
Ti2 Ti3 3.136021 1_564
Al0 Ni0 2.464124 1_655
Al0 Ni1 2.464124 1_656
Al0 Al1 2.538376 1_555
Al0 Al2 2.538481 1_555
Al0 Al1 2.583902 1_645
Al0 Al2 2.584361 1_545
Al0 Ti2 2.882686 1_556
Al0 Ti1 2.882686 1_555
Al0 Ti3 2.938024 1_655
Al0 Ti0 2.938024 1_655
Al0 Ti3 2.938268 1_555
Al0 Ti0 2.938268 1_555
Al1 Ni0 2.463971 1_565
Al1 Ni1 2.463971 1_566
Al1 Al2 2.538373 1_555
Al1 Al2 2.583905 1_455
Al1 Ti2 2.882719 1_556
Al1 Ti1 2.882719 1_555
Al1 Ti3 2.938390 1_555
Al1 Ti0 2.938390 1_555
Al1 Ti3 2.938395 1_565
Al1 Ti0 2.938395 1_565
Al2 Ni1 2.464127 1_666
Al2 Ni0 2.464127 1_665
Al2 Ti2 2.882686 1_556
Al2 Ti1 2.882686 1_555
Al2 Ti3 2.938020 1_655
Al2 Ti0 2.938020 1_655
Al2 Ti3 2.938273 1_565
Al2 Ti0 2.938273 1_565
Al3 Ni0 2.464124 1_565
Al3 Ni1 2.464124 1_565
Al3 Al4 2.538376 1_555
Al3 Al5 2.538486 1_555
Al3 Al4 2.583902 1_465
Al3 Al5 2.584356 1_565
Al3 Ti0 2.882686 1_555
Al3 Ti3 2.882686 1_554
Al3 Ti1 2.938024 1_455
Al3 Ti2 2.938024 1_455
Al3 Ti1 2.938268 1_555
Al3 Ti2 2.938268 1_555
Al4 Ni0 2.463971 1_655
Al4 Ni1 2.463971 1_655
Al4 Al5 2.538376 1_555
Al4 Al5 2.583902 1_655
Al4 Ti0 2.882719 1_555
Al4 Ti3 2.882719 1_554
Al4 Ti1 2.938390 1_555
Al4 Ti2 2.938390 1_555
Al4 Ti1 2.938395 1_545
Al4 Ti2 2.938395 1_545
Al5 Ni0 2.464124 1_555
Al5 Ni1 2.464124 1_555
Al5 Ti0 2.882688 1_555
Al5 Ti3 2.882688 1_554
Al5 Ti1 2.938022 1_455
Al5 Ti2 2.938022 1_455
Al5 Ti1 2.938271 1_545
Al5 Ti2 2.938271 1_545
Ni0 Ti1 3.002919 1_545
Ni0 Ti0 3.002919 1_455
Ni0 Ti1 3.003104 1_455
Ni0 Ti0 3.003104 1_545
Ni0 Ti0 3.003108 1_555
Ni0 Ti1 3.003108 1_445
Ni1 Ti2 3.002919 1_545
Ni1 Ti3 3.002919 1_454
Ni1 Ti2 3.003104 1_455
Ni1 Ti3 3.003104 1_544
Ni1 Ti3 3.003108 1_554
Ni1 Ti2 3.003108 1_445
