# generated using pymatgen
data_KFe3H(CO)11
_symmetry_space_group_name_H-M   'P 1'
_cell_length_a   12.47483600
_cell_length_b   9.19819100
_cell_length_c   15.67669107
_cell_angle_alpha   90.00000000
_cell_angle_beta   96.58200819
_cell_angle_gamma   90.00000000
_symmetry_Int_Tables_number   1
_chemical_formula_structural   KFe3H(CO)11
_chemical_formula_sum   'K4 Fe12 H4 C44 O44'
_cell_volume   1786.97993067
_cell_formula_units_Z   4
loop_
 _symmetry_equiv_pos_site_id
 _symmetry_equiv_pos_as_xyz
  1  'x, y, z'
loop_
 _atom_site_type_symbol
 _atom_site_label
 _atom_site_symmetry_multiplicity
 _atom_site_fract_x
 _atom_site_fract_y
 _atom_site_fract_z
 _atom_site_occupancy
  K  K0  1  0.70951100  0.68808000  0.02279700  1
  K  K1  1  0.29048900  0.18808000  0.47720300  1
  K  K2  1  0.29048900  0.31192000  0.97720300  1
  K  K3  1  0.70951100  0.81192000  0.52279700  1
  Fe  Fe0  1  0.86927400  0.19555700  0.28196700  1
  Fe  Fe1  1  0.13072600  0.69555700  0.21803300  1
  Fe  Fe2  1  0.13072600  0.80444300  0.71803300  1
  Fe  Fe3  1  0.86927400  0.30444300  0.78196700  1
  Fe  Fe4  1  0.71121400  0.27102800  0.39819200  1
  Fe  Fe5  1  0.28878600  0.77102800  0.10180800  1
  Fe  Fe6  1  0.28878600  0.72897200  0.60180800  1
  Fe  Fe7  1  0.71121400  0.22897200  0.89819200  1
  Fe  Fe8  1  0.63640800  0.19819300  0.24143500  1
  Fe  Fe9  1  0.36359200  0.69819300  0.25856500  1
  Fe  Fe10  1  0.36359200  0.80180700  0.75856500  1
  Fe  Fe11  1  0.63640800  0.30180700  0.74143500  1
  H  H0  1  0.65140100  0.34150600  0.30664300  1
  H  H1  1  0.34859900  0.84150600  0.19335700  1
  H  H2  1  0.34859900  0.65849400  0.69335700  1
  H  H3  1  0.65140100  0.15849400  0.80664300  1
  C  C0  1  0.84523300  0.38492400  0.25313400  1
  C  C1  1  0.15476700  0.88492400  0.24686600  1
  C  C2  1  0.15476700  0.61507600  0.74686600  1
  C  C3  1  0.84523300  0.11507600  0.75313400  1
  C  C4  1  0.91690700  0.14681600  0.17949800  1
  C  C5  1  0.08309300  0.64681600  0.32050200  1
  C  C6  1  0.08309300  0.85318400  0.82050200  1
  C  C7  1  0.91690700  0.35318400  0.67949800  1
  C  C8  1  0.99340900  0.23189600  0.35085700  1
  C  C9  1  0.00659100  0.73189600  0.14914300  1
  C  C10  1  0.00659100  0.76810400  0.64914300  1
  C  C11  1  0.99340900  0.26810400  0.85085700  1
  C  C12  1  0.86394900  0.00810800  0.31707300  1
  C  C13  1  0.13605100  0.50810800  0.18292700  1
  C  C14  1  0.13605100  0.99189200  0.68292700  1
  C  C15  1  0.86394900  0.49189200  0.81707300  1
  C  C16  1  0.76645000  0.45009500  0.41753900  1
  C  C17  1  0.23355000  0.95009500  0.08246100  1
  C  C18  1  0.23355000  0.54990500  0.58246100  1
  C  C19  1  0.76645000  0.04990500  0.91753900  1
  C  C20  1  0.80053200  0.16790700  0.47411700  1
  C  C21  1  0.19946800  0.66790700  0.02588300  1
  C  C22  1  0.19946800  0.83209300  0.52588300  1
  C  C23  1  0.80053200  0.33209300  0.97411700  1
  C  C24  1  0.64860300  0.08952800  0.34885200  1
  C  C25  1  0.35139700  0.58952800  0.15114800  1
  C  C26  1  0.35139700  0.91047200  0.65114800  1
  C  C27  1  0.64860300  0.41047200  0.84885200  1
  C  C28  1  0.59481600  0.29241900  0.45480300  1
  C  C29  1  0.40518400  0.79241900  0.04519700  1
  C  C30  1  0.40518400  0.70758100  0.54519700  1
  C  C31  1  0.59481600  0.20758100  0.95480300  1
  C  C32  1  0.49232200  0.17972400  0.23381700  1
  C  C33  1  0.50767800  0.67972400  0.26618300  1
  C  C34  1  0.50767800  0.82027600  0.76618300  1
  C  C35  1  0.49232200  0.32027600  0.73381700  1
  C  C36  1  0.66629200  0.04361700  0.17702100  1
  C  C37  1  0.33370800  0.54361700  0.32297900  1
  C  C38  1  0.33370800  0.95638300  0.82297900  1
  C  C39  1  0.66629200  0.45638300  0.67702100  1
  C  C40  1  0.63655200  0.34172800  0.16418300  1
  C  C41  1  0.36344800  0.84172800  0.33581700  1
  C  C42  1  0.36344800  0.65827200  0.83581700  1
  C  C43  1  0.63655200  0.15827200  0.66418300  1
  O  O0  1  0.84159900  0.50629100  0.23215000  1
  O  O1  1  0.15840100  0.00629100  0.26785000  1
  O  O2  1  0.15840100  0.49370900  0.76785000  1
  O  O3  1  0.84159900  0.99370900  0.73215000  1
  O  O4  1  0.94819200  0.11392600  0.11552800  1
  O  O5  1  0.05180800  0.61392600  0.38447200  1
  O  O6  1  0.05180800  0.88607400  0.88447200  1
  O  O7  1  0.94819200  0.38607400  0.61552800  1
  O  O8  1  0.07418500  0.25314600  0.39377900  1
  O  O9  1  0.92581500  0.75314600  0.10622100  1
  O  O10  1  0.92581500  0.74685400  0.60622100  1
  O  O11  1  0.07418500  0.24685400  0.89377900  1
  O  O12  1  0.86682400  0.88755500  0.33931100  1
  O  O13  1  0.13317600  0.38755500  0.16068900  1
  O  O14  1  0.13317600  0.11244500  0.66068900  1
  O  O15  1  0.86682400  0.61244500  0.83931100  1
  O  O16  1  0.79442300  0.56814300  0.43700000  1
  O  O17  1  0.20557700  0.06814300  0.06300000  1
  O  O18  1  0.20557700  0.43185700  0.56300000  1
  O  O19  1  0.79442300  0.93185700  0.93700000  1
  O  O20  1  0.85103900  0.09356900  0.52437800  1
  O  O21  1  0.14896100  0.59356900  0.97562200  1
  O  O22  1  0.14896100  0.90643100  0.47562200  1
  O  O23  1  0.85103900  0.40643100  0.02437800  1
  O  O24  1  0.63104800  0.96976000  0.37504600  1
  O  O25  1  0.36895200  0.46976000  0.12495400  1
  O  O26  1  0.36895200  0.03024000  0.62495400  1
  O  O27  1  0.63104800  0.53024000  0.87504600  1
  O  O28  1  0.51572900  0.30265900  0.48792000  1
  O  O29  1  0.48427100  0.80265900  0.01208000  1
  O  O30  1  0.48427100  0.69734100  0.51208000  1
  O  O31  1  0.51572900  0.19734100  0.98792000  1
  O  O32  1  0.39915700  0.16541300  0.22904900  1
  O  O33  1  0.60084300  0.66541300  0.27095100  1
  O  O34  1  0.60084300  0.83458700  0.77095100  1
  O  O35  1  0.39915700  0.33458700  0.72904900  1
  O  O36  1  0.68083400  0.94309900  0.13404100  1
  O  O37  1  0.31916600  0.44309900  0.36595900  1
  O  O38  1  0.31916600  0.05690100  0.86595900  1
  O  O39  1  0.68083400  0.55690100  0.63404100  1
  O  O40  1  0.62837500  0.43752000  0.11473300  1
  O  O41  1  0.37162500  0.93752000  0.38526700  1
  O  O42  1  0.37162500  0.56248000  0.88526700  1
  O  O43  1  0.62837500  0.06248000  0.61473300  1
loop_
_geom_bond_atom_site_label_1
_geom_bond_atom_site_label_2
_geom_bond_distance
_geom_bond_site_symmetry_2
K0 O27 2.812680 1_554
K0 O19 2.878482 1_554
K0 O9 2.922444 1_555
K0 O40 2.957657 1_555
K0 O36 2.968955 1_555
K0 O29 2.987626 1_555
K0 O23 3.133566 1_555
K1 O26 2.812680 1_555
K1 O18 2.878482 1_555
K1 O8 2.922444 1_555
K1 O41 2.957657 1_545
K1 O37 2.968955 1_555
K1 O28 2.987626 1_555
K1 O22 3.133566 1_545
K2 O25 2.812680 1_556
K2 O17 2.878482 1_556
K2 O11 2.922444 1_555
K2 O42 2.957657 1_555
K2 O38 2.968955 1_555
K2 O31 2.987626 1_555
K2 O21 3.133566 1_555
K3 O24 2.812680 1_555
K3 O16 2.878482 1_555
K3 O10 2.922444 1_555
K3 O43 2.957657 1_565
K3 O39 2.968955 1_555
K3 O30 2.987626 1_555
K3 O20 3.133566 1_565
Fe4 H0 1.670708 1_555
Fe5 H1 1.670708 1_555
Fe6 H2 1.670708 1_555
Fe7 H3 1.670708 1_555
Fe8 H0 1.665485 1_555
Fe9 H1 1.665485 1_555
Fe10 H2 1.665485 1_555
Fe11 H3 1.665485 1_555
C0 O0 1.163230 1_555
C0 Fe0 1.815809 1_555
C1 O1 1.163230 1_565
C1 Fe1 1.815809 1_555
C2 O2 1.163230 1_555
C2 Fe2 1.815809 1_555
C3 O3 1.163230 1_545
C3 Fe3 1.815809 1_555
C4 O4 1.157258 1_555
C4 Fe0 1.831217 1_555
C5 O5 1.157258 1_555
C5 Fe1 1.831217 1_555
C6 O6 1.157258 1_555
C6 Fe2 1.831217 1_555
C7 O7 1.157258 1_555
C7 Fe3 1.831217 1_555
C8 O8 1.162291 1_655
C8 Fe0 1.814582 1_555
C9 O9 1.162291 1_455
C9 Fe1 1.814582 1_555
C10 O10 1.162291 1_455
C10 Fe2 1.814582 1_555
C11 O11 1.162291 1_655
C11 Fe3 1.814582 1_555
C12 O12 1.161700 1_545
C12 Fe0 1.813425 1_555
C13 O13 1.161700 1_555
C13 Fe1 1.813425 1_555
C14 O14 1.161700 1_565
C14 Fe2 1.813425 1_555
C15 O15 1.161700 1_555
C15 Fe3 1.813425 1_555
C16 O16 1.170241 1_555
C16 Fe4 1.797719 1_555
C17 O17 1.170241 1_565
C17 Fe5 1.797719 1_555
C18 O18 1.170241 1_555
C18 Fe6 1.797719 1_555
C19 O19 1.170241 1_545
C19 Fe7 1.797719 1_555
C20 O20 1.171132 1_555
C20 Fe4 1.803849 1_555
C21 O21 1.171132 1_554
C21 Fe5 1.803849 1_555
C22 O22 1.171132 1_555
C22 Fe6 1.803849 1_555
C23 O23 1.171132 1_556
C23 Fe7 1.803849 1_555
C24 O24 1.204503 1_545
C24 Fe8 1.949134 1_555
C24 Fe4 1.963919 1_555
C25 O25 1.204503 1_555
C25 Fe9 1.949134 1_555
C25 Fe5 1.963919 1_555
C26 O26 1.204503 1_565
C26 Fe10 1.949134 1_555
C26 Fe6 1.963919 1_555
C27 O27 1.204503 1_555
C27 Fe11 1.949134 1_555
C27 Fe7 1.963919 1_555
C28 O28 1.170129 1_555
C28 Fe4 1.797271 1_555
C29 O29 1.170129 1_555
C29 Fe5 1.797271 1_555
C30 O30 1.170129 1_555
C30 Fe6 1.797271 1_555
C31 O31 1.170129 1_555
C31 Fe7 1.797271 1_555
C32 O32 1.163508 1_555
C32 Fe8 1.795755 1_555
C33 O33 1.163508 1_555
C33 Fe9 1.795755 1_555
C34 O34 1.163508 1_555
C34 Fe10 1.795755 1_555
C35 O35 1.163508 1_555
C35 Fe11 1.795755 1_555
C36 O36 1.170372 1_545
C36 Fe8 1.807358 1_555
C37 O37 1.170372 1_555
C37 Fe9 1.807358 1_555
C38 O38 1.170372 1_565
C38 Fe10 1.807358 1_555
C39 O39 1.170372 1_555
C39 Fe11 1.807358 1_555
C40 O40 1.170295 1_555
C40 Fe8 1.791717 1_555
C41 O41 1.170295 1_555
C41 Fe9 1.791717 1_555
C42 O42 1.170295 1_555
C42 Fe10 1.791717 1_555
C43 O43 1.170295 1_555
C43 Fe11 1.791717 1_555
