# generated using pymatgen
data_K9Nd(PS4)4
_symmetry_space_group_name_H-M   'P 1'
_cell_length_a   11.37849772
_cell_length_b   11.37849772
_cell_length_c   17.84046615
_cell_angle_alpha   66.88972421
_cell_angle_beta   66.88972421
_cell_angle_gamma   51.39595519
_symmetry_Int_Tables_number   1
_chemical_formula_structural   K9Nd(PS4)4
_chemical_formula_sum   'K18 Nd2 P8 S32'
_cell_volume   1624.82174195
_cell_formula_units_Z   2
loop_
 _symmetry_equiv_pos_site_id
 _symmetry_equiv_pos_as_xyz
  1  'x, y, z'
loop_
 _atom_site_type_symbol
 _atom_site_label
 _atom_site_symmetry_multiplicity
 _atom_site_fract_x
 _atom_site_fract_y
 _atom_site_fract_z
 _atom_site_occupancy
  K  K0  1  0.41066700  0.42564300  0.60380200  1
  K  K1  1  0.58933300  0.57435700  0.39619800  1
  K  K2  1  0.57435700  0.58933300  0.89619800  1
  K  K3  1  0.42564300  0.41066700  0.10380200  1
  K  K4  1  0.08856800  0.07478900  0.52211900  1
  K  K5  1  0.91143200  0.92521100  0.47788100  1
  K  K6  1  0.92521100  0.91143200  0.97788100  1
  K  K7  1  0.07478900  0.08856800  0.02211900  1
  K  K8  1  0.24906200  0.75093800  0.75000000  1
  K  K9  1  0.75093800  0.24906200  0.25000000  1
  K  K10  1  0.50190000  0.00985900  0.87082700  1
  K  K11  1  0.49810000  0.99014100  0.12917300  1
  K  K12  1  0.99014100  0.49810000  0.62917300  1
  K  K13  1  0.00985900  0.50190000  0.37082700  1
  K  K14  1  0.48621100  0.99488700  0.62827500  1
  K  K15  1  0.51378900  0.00511300  0.37172500  1
  K  K16  1  0.00511300  0.51378900  0.87172500  1
  K  K17  1  0.99488700  0.48621100  0.12827500  1
  Nd  Nd0  1  0.74911800  0.25088200  0.75000000  1
  Nd  Nd1  1  0.25088200  0.74911800  0.25000000  1
  P  P0  1  0.37757200  0.36722900  0.91622900  1
  P  P1  1  0.62242800  0.63277100  0.08377100  1
  P  P2  1  0.63277100  0.62242800  0.58377100  1
  P  P3  1  0.36722900  0.37757200  0.41622900  1
  P  P4  1  0.86506500  0.87992800  0.71127800  1
  P  P5  1  0.13493500  0.12007200  0.28872200  1
  P  P6  1  0.12007200  0.13493500  0.78872200  1
  P  P7  1  0.87992800  0.86506500  0.21127800  1
  S  S0  1  0.41301300  0.37500200  0.79156500  1
  S  S1  1  0.58698700  0.62499800  0.20843500  1
  S  S2  1  0.62499800  0.58698700  0.70843500  1
  S  S3  1  0.37500200  0.41301300  0.29156500  1
  S  S4  1  0.87281200  0.91486500  0.81448900  1
  S  S5  1  0.12718800  0.08513500  0.18551100  1
  S  S6  1  0.08513500  0.12718800  0.68551100  1
  S  S7  1  0.91486500  0.87281200  0.31448900  1
  S  S8  1  0.24352000  0.92431300  0.85992600  1
  S  S9  1  0.75648000  0.07568700  0.14007400  1
  S  S10  1  0.07568700  0.75648000  0.64007400  1
  S  S11  1  0.92431300  0.24352000  0.35992600  1
  S  S12  1  0.75078800  0.10129800  0.64209700  1
  S  S13  1  0.24921200  0.89870200  0.35790300  1
  S  S14  1  0.89870200  0.24921200  0.85790300  1
  S  S15  1  0.10129800  0.75078800  0.14209700  1
  S  S16  1  0.75352600  0.77370300  0.74578700  1
  S  S17  1  0.24647400  0.22629700  0.25421300  1
  S  S18  1  0.22629700  0.24647400  0.75421300  1
  S  S19  1  0.77370300  0.75352600  0.24578700  1
  S  S20  1  0.72952700  0.74349400  0.00950600  1
  S  S21  1  0.27047300  0.25650600  0.99049400  1
  S  S22  1  0.25650600  0.27047300  0.49049400  1
  S  S23  1  0.74349400  0.72952700  0.50950600  1
  S  S24  1  0.59901700  0.25230200  0.93196300  1
  S  S25  1  0.40098300  0.74769800  0.06803700  1
  S  S26  1  0.74769800  0.40098300  0.56803700  1
  S  S27  1  0.25230200  0.59901700  0.43196300  1
  S  S28  1  0.42245700  0.74539900  0.55589700  1
  S  S29  1  0.57754300  0.25460100  0.44410300  1
  S  S30  1  0.25460100  0.57754300  0.94410300  1
  S  S31  1  0.74539900  0.42245700  0.05589700  1
loop_
_geom_bond_atom_site_label_1
_geom_bond_atom_site_label_2
_geom_bond_distance
_geom_bond_site_symmetry_2
K0 S0 3.176404 1_555
K0 S29 3.317396 1_555
K0 S10 3.344978 1_555
K0 S12 3.367153 1_555
K0 S27 3.419104 1_555
K0 S28 3.473336 1_555
K0 S26 3.474090 1_555
K0 S18 3.518700 1_555
K1 S1 3.176404 1_555
K1 S28 3.317396 1_555
K1 S11 3.344978 1_555
K1 S13 3.367153 1_555
K1 S26 3.419104 1_555
K1 S29 3.473336 1_555
K1 S27 3.474090 1_555
K1 S19 3.518700 1_555
K2 S2 3.176404 1_555
K2 S31 3.317396 1_556
K2 S8 3.344978 1_555
K2 S14 3.367153 1_555
K2 S25 3.419104 1_556
K2 S30 3.473336 1_555
K2 S24 3.474090 1_555
K2 S16 3.518700 1_555
K3 S3 3.176404 1_555
K3 S30 3.317396 1_554
K3 S9 3.344978 1_555
K3 S15 3.367153 1_555
K3 S24 3.419104 1_554
K3 S31 3.473336 1_555
K3 S25 3.474090 1_555
K3 S17 3.518700 1_555
K4 S6 3.178057 1_555
K4 S11 3.310386 1_455
K4 S28 3.331612 1_545
K4 S26 3.379212 1_455
K4 S13 3.431131 1_545
K4 S10 3.464830 1_545
K4 S12 3.470831 1_455
K4 S22 3.521985 1_555
K5 S7 3.178057 1_555
K5 S10 3.310386 1_655
K5 S29 3.331612 1_565
K5 S27 3.379212 1_655
K5 S12 3.431131 1_565
K5 S11 3.464830 1_565
K5 S13 3.470831 1_655
K5 S23 3.521985 1_555
K6 S4 3.178057 1_555
K6 S9 3.310386 1_566
K6 S30 3.331612 1_655
K6 S24 3.379212 1_565
K6 S15 3.431131 1_656
K6 S8 3.464830 1_655
K6 S14 3.470831 1_565
K6 S20 3.521985 1_556
K7 S5 3.178057 1_555
K7 S8 3.310386 1_544
K7 S31 3.331612 1_455
K7 S25 3.379212 1_545
K7 S14 3.431131 1_454
K7 S9 3.464830 1_455
K7 S15 3.470831 1_545
K7 S21 3.521985 1_554
K8 S10 3.244451 1_555
K8 S8 3.244451 1_555
K8 S28 3.246699 1_555
K8 S30 3.246699 1_555
K8 S2 3.311465 1_555
K8 S0 3.311465 1_555
K8 S4 3.314279 1_455
K8 S6 3.314279 1_565
K9 S9 3.244451 1_555
K9 S11 3.244451 1_555
K9 S31 3.246699 1_555
K9 S29 3.246699 1_555
K9 S3 3.311465 1_555
K9 S1 3.311465 1_555
K9 S7 3.314279 1_545
K9 S5 3.314279 1_655
K10 S21 3.230562 1_555
K10 S16 3.238148 1_545
K10 S20 3.370996 1_546
K10 S0 3.398775 1_555
K10 S18 3.405849 1_555
K10 S4 3.438146 1_545
K10 S8 3.714467 1_545
K11 S20 3.230562 1_555
K11 S17 3.238148 1_565
K11 S21 3.370996 1_564
K11 S1 3.398775 1_555
K11 S19 3.405849 1_555
K11 S5 3.438146 1_565
K11 S9 3.714467 1_565
K12 S23 3.230562 1_555
K12 S18 3.238148 1_655
K12 S22 3.370996 1_655
K12 S2 3.398775 1_555
K12 S16 3.405849 1_555
K12 S6 3.438146 1_655
K12 S10 3.714467 1_655
K13 S22 3.230562 1_555
K13 S19 3.238148 1_455
K13 S23 3.370996 1_455
K13 S3 3.398775 1_555
K13 S17 3.405849 1_555
K13 S7 3.438146 1_455
K13 S11 3.714467 1_455
K14 S18 3.355237 1_565
K14 S16 3.360377 1_555
K14 S23 3.361445 1_555
K14 S22 3.386993 1_565
K14 S6 3.620958 1_565
K14 S2 3.673791 1_555
K14 S29 3.760110 1_565
K15 S19 3.355237 1_545
K15 S17 3.360377 1_555
K15 S22 3.361445 1_555
K15 S23 3.386993 1_545
K15 S7 3.620958 1_545
K15 S3 3.673791 1_555
K15 S28 3.760110 1_545
K16 S16 3.355237 1_455
K16 S18 3.360377 1_555
K16 S21 3.361445 1_555
K16 S20 3.386993 1_456
K16 S4 3.620958 1_455
K16 S0 3.673791 1_555
K16 S31 3.760110 1_456
K17 S17 3.355237 1_655
K17 S19 3.360377 1_555
K17 S20 3.361445 1_555
K17 S21 3.386993 1_654
K17 S5 3.620958 1_655
K17 S1 3.673791 1_555
K17 S30 3.760110 1_654
Nd0 S4 3.004289 1_545
Nd0 S6 3.004289 1_655
Nd0 S0 3.004371 1_555
Nd0 S2 3.004371 1_555
Nd0 S12 3.017627 1_555
Nd0 S14 3.017627 1_555
Nd0 S26 3.018292 1_555
Nd0 S24 3.018292 1_555
Nd1 S7 3.004289 1_455
Nd1 S5 3.004289 1_565
Nd1 S3 3.004371 1_555
Nd1 S1 3.004371 1_555
Nd1 S15 3.017627 1_555
Nd1 S13 3.017627 1_555
Nd1 S25 3.018292 1_555
Nd1 S27 3.018292 1_555
P0 S30 2.035046 1_555
P0 S21 2.041023 1_555
P0 S24 2.071986 1_555
P0 S0 2.074352 1_555
P1 S31 2.035046 1_555
P1 S20 2.041023 1_555
P1 S25 2.071986 1_555
P1 S1 2.074352 1_555
P2 S28 2.035046 1_555
P2 S23 2.041023 1_555
P2 S26 2.071986 1_555
P2 S2 2.074352 1_555
P3 S29 2.035046 1_555
P3 S22 2.041023 1_555
P3 S27 2.071986 1_555
P3 S3 2.074352 1_555
P4 S10 2.034790 1_655
P4 S16 2.041416 1_555
P4 S12 2.071472 1_565
P4 S4 2.074141 1_555
P5 S11 2.034790 1_455
P5 S17 2.041416 1_555
P5 S13 2.071472 1_545
P5 S5 2.074141 1_555
P6 S8 2.034790 1_545
P6 S18 2.041416 1_555
P6 S14 2.071472 1_455
P6 S6 2.074141 1_555
P7 S9 2.034790 1_565
P7 S19 2.041416 1_555
P7 S15 2.071472 1_655
P7 S7 2.074141 1_555
