# generated using pymatgen
data_Mn3(SO6)2
_symmetry_space_group_name_H-M   'P 1'
_cell_length_a   7.12421900
_cell_length_b   9.68572000
_cell_length_c   12.95510300
_cell_angle_alpha   90.00000000
_cell_angle_beta   90.00000000
_cell_angle_gamma   90.00000000
_symmetry_Int_Tables_number   1
_chemical_formula_structural   Mn3(SO6)2
_chemical_formula_sum   'Mn12 S8 O48'
_cell_volume   893.94343964
_cell_formula_units_Z   4
loop_
 _symmetry_equiv_pos_site_id
 _symmetry_equiv_pos_as_xyz
  1  'x, y, z'
loop_
 _atom_site_type_symbol
 _atom_site_label
 _atom_site_symmetry_multiplicity
 _atom_site_fract_x
 _atom_site_fract_y
 _atom_site_fract_z
 _atom_site_occupancy
  Mn  Mn0  1  0.29383700  0.25208600  0.25000000  1
  Mn  Mn1  1  0.70616300  0.74791400  0.75000000  1
  Mn  Mn2  1  0.70616300  0.75208600  0.25000000  1
  Mn  Mn3  1  0.29383700  0.24791400  0.75000000  1
  Mn  Mn4  1  0.06312800  0.53507500  0.63611400  1
  Mn  Mn5  1  0.93687200  0.46492500  0.36388600  1
  Mn  Mn6  1  0.93687200  0.46492500  0.13611400  1
  Mn  Mn7  1  0.93687200  0.03507500  0.86388600  1
  Mn  Mn8  1  0.06312800  0.53507500  0.86388600  1
  Mn  Mn9  1  0.06312800  0.96492500  0.13611400  1
  Mn  Mn10  1  0.06312800  0.96492500  0.36388600  1
  Mn  Mn11  1  0.93687200  0.03507500  0.63611400  1
  S  S0  1  0.20362300  0.25000000  0.00000000  1
  S  S1  1  0.79637700  0.75000000  0.00000000  1
  S  S2  1  0.79637700  0.75000000  0.50000000  1
  S  S3  1  0.20362300  0.25000000  0.50000000  1
  S  S4  1  0.29640600  0.57464700  0.25000000  1
  S  S5  1  0.70359400  0.42535300  0.75000000  1
  S  S6  1  0.70359400  0.07464700  0.25000000  1
  S  S7  1  0.29640600  0.92535300  0.75000000  1
  O  O0  1  0.08079500  0.12300700  0.99865400  1
  O  O1  1  0.91920500  0.87699300  0.00134600  1
  O  O2  1  0.91920500  0.87699300  0.49865400  1
  O  O3  1  0.91920500  0.62300700  0.50134600  1
  O  O4  1  0.08079500  0.12300700  0.50134600  1
  O  O5  1  0.08079500  0.37699300  0.49865400  1
  O  O6  1  0.08079500  0.37699300  0.00134600  1
  O  O7  1  0.91920500  0.62300700  0.99865400  1
  O  O8  1  0.32281600  0.24667000  0.09211500  1
  O  O9  1  0.67718400  0.75333000  0.90788500  1
  O  O10  1  0.67718400  0.75333000  0.59211500  1
  O  O11  1  0.67718400  0.74667000  0.40788500  1
  O  O12  1  0.32281600  0.24667000  0.40788500  1
  O  O13  1  0.32281600  0.25333000  0.59211500  1
  O  O14  1  0.32281600  0.25333000  0.90788500  1
  O  O15  1  0.67718400  0.74667000  0.09211500  1
  O  O16  1  0.41056300  0.44465900  0.25000000  1
  O  O17  1  0.58943700  0.55534100  0.75000000  1
  O  O18  1  0.58943700  0.94465900  0.25000000  1
  O  O19  1  0.41056300  0.05534100  0.75000000  1
  O  O20  1  0.57917800  0.19415800  0.25000000  1
  O  O21  1  0.42082200  0.80584200  0.75000000  1
  O  O22  1  0.42082200  0.69415800  0.25000000  1
  O  O23  1  0.57917800  0.30584200  0.75000000  1
  O  O24  1  0.73832800  0.39634500  0.08835900  1
  O  O25  1  0.26167200  0.60365500  0.91164100  1
  O  O26  1  0.26167200  0.60365500  0.58835900  1
  O  O27  1  0.26167200  0.89634500  0.41164100  1
  O  O28  1  0.73832800  0.39634500  0.41164100  1
  O  O29  1  0.73832800  0.10365500  0.58835900  1
  O  O30  1  0.73832800  0.10365500  0.91164100  1
  O  O31  1  0.26167200  0.89634500  0.08835900  1
  O  O32  1  0.17410400  0.07237600  0.25000000  1
  O  O33  1  0.82589600  0.92762400  0.75000000  1
  O  O34  1  0.82589600  0.57237600  0.25000000  1
  O  O35  1  0.17410400  0.42762400  0.75000000  1
  O  O36  1  0.02750100  0.35682700  0.25000000  1
  O  O37  1  0.97249900  0.64317300  0.75000000  1
  O  O38  1  0.97249900  0.85682700  0.25000000  1
  O  O39  1  0.02750100  0.14317300  0.75000000  1
  O  O40  1  0.17596600  0.57994300  0.15493300  1
  O  O41  1  0.82403400  0.42005700  0.84506700  1
  O  O42  1  0.82403400  0.42005700  0.65493300  1
  O  O43  1  0.82403400  0.07994300  0.34506700  1
  O  O44  1  0.17596600  0.57994300  0.34506700  1
  O  O45  1  0.17596600  0.92005700  0.65493300  1
  O  O46  1  0.17596600  0.92005700  0.84506700  1
  O  O47  1  0.82403400  0.07994300  0.15493300  1
loop_
_geom_bond_atom_site_label_1
_geom_bond_atom_site_label_2
_geom_bond_distance
_geom_bond_site_symmetry_2
Mn0 O32 1.938395 1_555
Mn0 O16 2.042187 1_555
Mn0 O8 2.056478 1_555
Mn0 O12 2.056478 1_555
Mn0 O20 2.108841 1_555
Mn0 O36 2.151617 1_555
Mn1 O33 1.938395 1_555
Mn1 O17 2.042187 1_555
Mn1 O9 2.056478 1_555
Mn1 O10 2.056478 1_555
Mn1 O21 2.108841 1_555
Mn1 O37 2.151617 1_555
Mn2 O34 1.938395 1_555
Mn2 O18 2.042187 1_555
Mn2 O11 2.056478 1_555
Mn2 O15 2.056478 1_555
Mn2 O22 2.108841 1_555
Mn2 O38 2.151617 1_555
Mn3 O35 1.938395 1_555
Mn3 O19 2.042187 1_555
Mn3 O13 2.056478 1_555
Mn3 O14 2.056478 1_555
Mn3 O23 2.108841 1_555
Mn3 O39 2.151617 1_555
Mn4 O26 1.680686 1_555
Mn4 O37 1.920917 1_455
Mn4 O35 1.971049 1_555
Mn4 O42 2.049862 1_455
Mn4 O3 2.196581 1_455
Mn4 O5 2.351915 1_555
Mn5 O28 1.680686 1_555
Mn5 O36 1.920917 1_655
Mn5 O34 1.971049 1_555
Mn5 O44 2.049862 1_655
Mn5 O5 2.196581 1_655
Mn5 O3 2.351915 1_555
Mn6 O24 1.680686 1_555
Mn6 O36 1.920917 1_655
Mn6 O34 1.971049 1_555
Mn6 O40 2.049862 1_655
Mn6 O6 2.196581 1_655
Mn6 O7 2.351915 1_554
Mn7 O30 1.680686 1_555
Mn7 O39 1.920917 1_655
Mn7 O33 1.971049 1_545
Mn7 O46 2.049862 1_645
Mn7 O0 2.196581 1_655
Mn7 O1 2.351915 1_546
Mn8 O25 1.680686 1_555
Mn8 O37 1.920917 1_455
Mn8 O35 1.971049 1_555
Mn8 O41 2.049862 1_455
Mn8 O7 2.196581 1_455
Mn8 O6 2.351915 1_556
Mn9 O31 1.680686 1_555
Mn9 O38 1.920917 1_455
Mn9 O32 1.971049 1_565
Mn9 O47 2.049862 1_465
Mn9 O1 2.196581 1_455
Mn9 O0 2.351915 1_564
Mn10 O27 1.680686 1_555
Mn10 O38 1.920917 1_455
Mn10 O32 1.971049 1_565
Mn10 O43 2.049862 1_465
Mn10 O2 2.196581 1_455
Mn10 O4 2.351915 1_565
Mn11 O29 1.680686 1_555
Mn11 O39 1.920917 1_655
Mn11 O33 1.971049 1_545
Mn11 O45 2.049862 1_645
Mn11 O4 2.196581 1_655
Mn11 O2 2.351915 1_545
O0 S0 1.509625 1_556
O1 S1 1.509625 1_555
O2 S2 1.509625 1_555
O3 S2 1.509625 1_555
O4 S3 1.509625 1_555
O5 S3 1.509625 1_555
O6 S0 1.509625 1_555
O7 S1 1.509625 1_556
O8 S0 1.464996 1_555
O9 S1 1.464996 1_556
O10 S2 1.464996 1_555
O11 S2 1.464996 1_555
O12 S3 1.464996 1_555
O13 S3 1.464996 1_555
O14 S0 1.464996 1_556
O15 S1 1.464996 1_555
O16 S4 1.498857 1_555
O17 S5 1.498857 1_555
O18 S6 1.498857 1_565
O19 S7 1.498857 1_545
O20 S6 1.457933 1_555
O21 S7 1.457933 1_555
O22 S4 1.457933 1_555
O23 S5 1.457933 1_555
O40 S4 1.501902 1_555
O41 S5 1.501902 1_555
O42 S5 1.501902 1_555
O43 S6 1.501902 1_555
O44 S4 1.501902 1_555
O45 S7 1.501902 1_555
O46 S7 1.501902 1_555
O47 S6 1.501902 1_555
