# generated using pymatgen
data_Cs4KLiGa2F12
_symmetry_space_group_name_H-M   'P 1'
_cell_length_a   11.05654142
_cell_length_b   11.05654142
_cell_length_c   11.05654195
_cell_angle_alpha   33.83235598
_cell_angle_beta   33.83235598
_cell_angle_gamma   33.83235805
_symmetry_Int_Tables_number   1
_chemical_formula_structural   Cs4KLiGa2F12
_chemical_formula_sum   'Cs4 K1 Li1 Ga2 F12'
_cell_volume   373.37184876
_cell_formula_units_Z   1
loop_
 _symmetry_equiv_pos_site_id
 _symmetry_equiv_pos_as_xyz
  1  'x, y, z'
loop_
 _atom_site_type_symbol
 _atom_site_label
 _atom_site_symmetry_multiplicity
 _atom_site_fract_x
 _atom_site_fract_y
 _atom_site_fract_z
 _atom_site_occupancy
  Cs  Cs0  1  0.28555800  0.28555800  0.28555800  1
  Cs  Cs1  1  0.71444200  0.71444200  0.71444200  1
  Cs  Cs2  1  0.86700100  0.86700100  0.86700100  1
  Cs  Cs3  1  0.13299900  0.13299900  0.13299900  1
  K  K0  1  0.00000000  0.00000000  0.00000000  1
  Li  Li0  1  0.50000000  0.50000000  0.50000000  1
  Ga  Ga0  1  0.41563600  0.41563600  0.41563600  1
  Ga  Ga1  1  0.58436400  0.58436400  0.58436400  1
  F  F0  1  0.33244300  0.76112400  0.76112400  1
  F  F1  1  0.23887600  0.66755700  0.23887600  1
  F  F2  1  0.76112400  0.33244300  0.76112400  1
  F  F3  1  0.76112400  0.76112400  0.33244300  1
  F  F4  1  0.23887600  0.23887600  0.66755700  1
  F  F5  1  0.66755700  0.23887600  0.23887600  1
  F  F6  1  0.40808600  0.40808600  0.81805900  1
  F  F7  1  0.18194100  0.59191400  0.59191400  1
  F  F8  1  0.59191400  0.59191400  0.18194100  1
  F  F9  1  0.59191400  0.18194100  0.59191400  1
  F  F10  1  0.40808600  0.81805900  0.40808600  1
  F  F11  1  0.81805900  0.40808600  0.40808600  1
loop_
_geom_bond_atom_site_label_1
_geom_bond_atom_site_label_2
_geom_bond_distance
_geom_bond_site_symmetry_2
Cs0 F11 3.189090 1_455
Cs0 F10 3.189090 1_545
Cs0 F6 3.189090 1_554
Cs0 F2 3.228105 1_554
Cs0 F0 3.228105 1_554
Cs0 F2 3.228105 1_455
Cs0 F0 3.228105 1_545
Cs0 F3 3.228105 1_545
Cs0 F3 3.228105 1_455
Cs0 F1 3.401579 1_555
Cs0 F5 3.401579 1_555
Cs0 F4 3.401580 1_555
Cs1 F9 3.189090 1_565
Cs1 F7 3.189090 1_655
Cs1 F8 3.189090 1_556
Cs1 F5 3.228105 1_556
Cs1 F1 3.228105 1_556
Cs1 F1 3.228105 1_655
Cs1 F5 3.228105 1_565
Cs1 F4 3.228105 1_565
Cs1 F4 3.228105 1_655
Cs1 F2 3.401579 1_555
Cs1 F0 3.401579 1_555
Cs1 F3 3.401580 1_555
Cs2 F10 3.252941 1_655
Cs2 F11 3.252941 1_565
Cs2 F10 3.252941 1_556
Cs2 F11 3.252941 1_556
Cs2 F6 3.252941 1_565
Cs2 F6 3.252941 1_655
Cs2 F8 3.287120 1_556
Cs2 F9 3.287120 1_565
Cs2 F7 3.287120 1_655
Cs2 F0 3.388776 1_655
Cs2 F2 3.388776 1_565
Cs2 F3 3.388776 1_556
Cs3 F7 3.252941 1_545
Cs3 F9 3.252941 1_455
Cs3 F9 3.252941 1_554
Cs3 F7 3.252941 1_554
Cs3 F8 3.252941 1_545
Cs3 F8 3.252941 1_455
Cs3 F6 3.287120 1_554
Cs3 F10 3.287120 1_545
Cs3 F11 3.287120 1_455
Cs3 F1 3.388776 1_545
Cs3 F5 3.388776 1_455
Cs3 F4 3.388776 1_554
F0 Ga1 1.911918 1_555
F0 K0 2.606576 1_566
F1 Ga0 1.911918 1_555
F1 K0 2.606576 1_565
F2 Ga1 1.911918 1_555
F2 K0 2.606576 1_656
F3 Ga1 1.911918 1_555
F3 K0 2.606576 1_665
F4 Ga0 1.911918 1_555
F4 K0 2.606576 1_556
F5 Ga0 1.911918 1_555
F5 K0 2.606576 1_655
F6 Ga1 1.962554 1_555
F6 Li0 2.067239 1_555
F7 Ga0 1.962554 1_555
F7 Li0 2.067239 1_555
F8 Ga0 1.962554 1_555
F8 Li0 2.067239 1_555
F9 Ga0 1.962554 1_555
F9 Li0 2.067239 1_555
F10 Ga1 1.962554 1_555
F10 Li0 2.067239 1_555
F11 Ga1 1.962554 1_555
F11 Li0 2.067239 1_555
