# generated using pymatgen
data_SrMg2N2
_symmetry_space_group_name_H-M   'P 1'
_cell_length_a   3.64360656
_cell_length_b   3.64360656
_cell_length_c   6.39976300
_cell_angle_alpha   90.00000000
_cell_angle_beta   90.00000000
_cell_angle_gamma   120.00001011
_symmetry_Int_Tables_number   1
_chemical_formula_structural   SrMg2N2
_chemical_formula_sum   'Sr1 Mg2 N2'
_cell_volume   73.57960101
_cell_formula_units_Z   1
loop_
 _symmetry_equiv_pos_site_id
 _symmetry_equiv_pos_as_xyz
  1  'x, y, z'
loop_
 _atom_site_type_symbol
 _atom_site_label
 _atom_site_symmetry_multiplicity
 _atom_site_fract_x
 _atom_site_fract_y
 _atom_site_fract_z
 _atom_site_occupancy
  Sr  Sr0  1  0.00000000  0.00000000  0.50000000  1
  Mg  Mg0  1  0.33333300  0.66666700  0.13139600  1
  Mg  Mg1  1  0.66666700  0.33333300  0.86860400  1
  N  N0  1  0.33333300  0.66666700  0.77946300  1
  N  N1  1  0.66666700  0.33333300  0.22053700  1
loop_
_geom_bond_atom_site_label_1
_geom_bond_atom_site_label_2
_geom_bond_distance
_geom_bond_site_symmetry_2
Mg0 N1 2.179617 1_455
Mg0 N1 2.179617 1_565
Mg0 N1 2.179623 1_555
Mg0 N0 2.252288 1_554
Mg1 N0 2.179617 1_545
Mg1 N0 2.179617 1_655
Mg1 N0 2.179623 1_555
Mg1 N1 2.252288 1_556
N0 Sr0 2.761160 1_565
N0 Sr0 2.761162 1_555
N0 Sr0 2.761162 1_665
N1 Sr0 2.761160 1_655
N1 Sr0 2.761162 1_555
N1 Sr0 2.761162 1_665
