# generated using pymatgen
data_Tb2Co17
_symmetry_space_group_name_H-M   'P 1'
_cell_length_a   7.97536790
_cell_length_b   8.21263887
_cell_length_c   8.21263837
_cell_angle_alpha   119.99885923
_cell_angle_beta   89.99980844
_cell_angle_gamma   90.00019156
_symmetry_Int_Tables_number   1
_chemical_formula_structural   Tb2Co17
_chemical_formula_sum   'Tb4 Co34'
_cell_volume   465.85608880
_cell_formula_units_Z   2
loop_
 _symmetry_equiv_pos_site_id
 _symmetry_equiv_pos_as_xyz
  1  'x, y, z'
loop_
 _atom_site_type_symbol
 _atom_site_label
 _atom_site_symmetry_multiplicity
 _atom_site_fract_x
 _atom_site_fract_y
 _atom_site_fract_z
 _atom_site_occupancy
  Tb  Tb0  1  0.74995957  -0.00000630  0.00000630  1
  Tb  Tb1  1  0.25004043  0.00000630  -0.00000630  1
  Tb  Tb2  1  0.25004376  0.66669572  0.33330228  1
  Tb  Tb3  1  0.74995624  0.33330428  0.66669772  1
  Co  Co0  1  0.60783236  0.66666390  0.33333410  1
  Co  Co1  1  0.39216764  0.33333610  0.66666590  1
  Co  Co2  1  0.10791935  0.33333534  0.66666666  1
  Co  Co3  1  0.89208065  0.66666466  0.33333334  1
  Co  Co4  1  0.50000000  0.50000000  0.00000000  1
  Co  Co5  1  0.50000000  0.50000000  0.50000000  1
  Co  Co6  1  0.50000000  0.00000000  0.50000000  1
  Co  Co7  1  0.00000000  0.50000000  0.00000000  1
  Co  Co8  1  0.00000000  0.50000000  0.50000000  1
  Co  Co9  1  0.00000000  0.00000000  0.50000000  1
  Co  Co10  1  0.74992251  0.66999841  0.04558777  1
  Co  Co11  1  0.74992101  0.37557764  0.33001932  1
  Co  Co12  1  0.74992219  0.95434684  0.62437741  1
  Co  Co13  1  0.74992219  0.37562259  0.04565316  1
  Co  Co14  1  0.74992251  0.95441123  0.33000059  1
  Co  Co15  1  0.74992101  0.66997968  0.62442236  1
  Co  Co16  1  0.25007749  0.33000159  0.95441223  1
  Co  Co17  1  0.25007899  0.62442236  0.66998068  1
  Co  Co18  1  0.25007781  0.04565316  0.37562259  1
  Co  Co19  1  0.25007781  0.62437741  0.95434684  1
  Co  Co20  1  0.25007749  0.04558877  0.66999941  1
  Co  Co21  1  0.25007899  0.33002032  0.37557764  1
  Co  Co22  1  0.48183836  0.83408313  0.66817294  1
  Co  Co23  1  0.48182339  0.83409897  0.16589903  1
  Co  Co24  1  0.48183836  0.33182706  0.16591687  1
  Co  Co25  1  0.51816164  0.16591687  0.33182706  1
  Co  Co26  1  0.51817661  0.16590103  0.83410097  1
  Co  Co27  1  0.51816164  0.66817294  0.83408313  1
  Co  Co28  1  0.98181971  0.16591572  0.33182603  1
  Co  Co29  1  0.98180487  0.16590065  0.83410035  1
  Co  Co30  1  0.98182071  0.66817297  0.83408528  1
  Co  Co31  1  0.01818029  0.83408428  0.66817397  1
  Co  Co32  1  0.01819513  0.83409935  0.16589965  1
  Co  Co33  1  0.01817929  0.33182703  0.16591472  1
loop_
_geom_bond_atom_site_label_1
_geom_bond_atom_site_label_2
_geom_bond_distance
_geom_bond_site_symmetry_2
Co0 Co3 2.266985 1_555
Co0 Co5 2.521909 1_555
Co0 Co4 2.521981 1_555
Co0 Co6 2.521994 1_565
Co0 Co24 2.584817 1_555
Co0 Co22 2.584830 1_555
Co0 Co23 2.585049 1_555
Co0 Co13 2.632929 1_555
Co0 Co12 2.632944 1_555
Co0 Co10 2.633276 1_555
Co0 Co14 2.633280 1_555
Co0 Co11 2.633391 1_555
Co0 Co15 2.633402 1_555
Co0 Tb2 2.853496 1_555
Co1 Co2 2.266985 1_555
Co1 Co5 2.521909 1_555
Co1 Co4 2.521981 1_556
Co1 Co6 2.521994 1_555
Co1 Co27 2.584817 1_555
Co1 Co25 2.584830 1_555
Co1 Co26 2.585049 1_555
Co1 Co19 2.632929 1_555
Co1 Co18 2.632944 1_555
Co1 Co16 2.633276 1_555
Co1 Co20 2.633280 1_555
Co1 Co17 2.633391 1_555
Co1 Co21 2.633402 1_555
Co1 Tb3 2.853496 1_555
Co2 Co8 2.522162 1_555
Co2 Co7 2.522209 1_556
Co2 Co9 2.522223 1_555
Co2 Co30 2.585150 1_455
Co2 Co28 2.585173 1_455
Co2 Co29 2.585358 1_455
Co2 Co20 2.633512 1_555
Co2 Co21 2.633647 1_555
Co2 Tb3 2.854888 1_455
Co3 Co8 2.522162 1_655
Co3 Co7 2.522209 1_655
Co3 Co9 2.522223 1_665
Co3 Co33 2.585150 1_655
Co3 Co31 2.585173 1_655
Co3 Co32 2.585358 1_655
Co3 Tb2 2.854888 1_655
Co4 Tb2 3.097369 1_555
Co4 Tb3 3.097369 1_554
Co5 Tb2 3.097843 1_555
Co5 Tb3 3.097843 1_555
Co6 Tb3 3.097380 1_555
Co6 Tb2 3.097380 1_545
Co7 Tb3 3.097825 1_454
Co7 Tb2 3.097825 1_555
Co8 Tb2 3.098281 1_555
Co8 Tb3 3.098281 1_455
Co9 Tb3 3.097836 1_455
Co9 Tb2 3.097836 1_545
Co10 Co14 2.335820 1_555
Co10 Co4 2.353637 1_555
Co10 Co7 2.354689 1_655
Co10 Co13 2.417871 1_555
Co10 Co23 2.456188 1_555
Co10 Co32 2.457392 1_655
Co10 Co27 2.531386 1_554
Co10 Co30 2.532166 1_554
Co10 Co3 2.633508 1_555
Co10 Tb0 2.915379 1_565
Co10 Tb3 2.953753 1_554
Co11 Co13 2.335581 1_555
Co11 Co5 2.353593 1_555
Co11 Co8 2.354663 1_655
Co11 Co15 2.417863 1_555
Co11 Co24 2.456117 1_555
Co11 Co33 2.457340 1_655
Co11 Co25 2.531215 1_555
Co11 Co28 2.532039 1_555
Co11 Co3 2.633636 1_555
Co11 Tb0 2.915528 1_555
Co11 Tb3 2.953941 1_555
Co12 Co15 2.335589 1_555
Co12 Co6 2.353697 1_565
Co12 Co9 2.354740 1_665
Co12 Co14 2.417875 1_555
Co12 Co22 2.455897 1_555
Co12 Co31 2.457113 1_655
Co12 Co26 2.531577 1_565
Co12 Co29 2.532372 1_565
Co12 Co3 2.633179 1_555
Co12 Tb0 2.915602 1_566
Co12 Tb3 2.953842 1_565
Co13 Co4 2.353697 1_555
Co13 Co7 2.354740 1_655
Co13 Co24 2.455897 1_555
Co13 Co33 2.457100 1_655
Co13 Co26 2.531566 1_554
Co13 Co29 2.532367 1_554
Co13 Co3 2.633165 1_555
Co13 Tb0 2.915603 1_555
Co13 Tb3 2.953832 1_554
Co14 Co6 2.353640 1_565
Co14 Co9 2.354692 1_665
Co14 Co23 2.456192 1_555
Co14 Co32 2.457392 1_655
Co14 Co25 2.531389 1_565
Co14 Co28 2.532171 1_565
Co14 Co3 2.633512 1_555
Co14 Tb0 2.915376 1_565
Co14 Tb3 2.953778 1_565
Co15 Co5 2.353590 1_555
Co15 Co8 2.354660 1_655
Co15 Co22 2.456121 1_555
Co15 Co31 2.457345 1_655
Co15 Co27 2.531212 1_555
Co15 Co30 2.532050 1_555
Co15 Co3 2.633647 1_555
Co15 Tb0 2.915531 1_566
Co15 Tb3 2.953927 1_555
Co16 Co20 2.335820 1_555
Co16 Co4 2.353637 1_556
Co16 Co7 2.354689 1_556
Co16 Co19 2.417871 1_555
Co16 Co26 2.456188 1_555
Co16 Co29 2.457392 1_455
Co16 Co24 2.531386 1_556
Co16 Co33 2.532166 1_556
Co16 Co2 2.633508 1_555
Co16 Tb1 2.915379 1_556
Co16 Tb2 2.953753 1_556
Co17 Co19 2.335581 1_555
Co17 Co5 2.353593 1_555
Co17 Co8 2.354663 1_555
Co17 Co21 2.417863 1_555
Co17 Co27 2.456117 1_555
Co17 Co30 2.457340 1_455
Co17 Co22 2.531215 1_555
Co17 Co31 2.532039 1_555
Co17 Co2 2.633636 1_555
Co17 Tb1 2.915528 1_566
Co17 Tb2 2.953941 1_555
Co18 Co21 2.335589 1_555
Co18 Co6 2.353697 1_555
Co18 Co9 2.354740 1_555
Co18 Co20 2.417875 1_555
Co18 Co25 2.455897 1_555
Co18 Co28 2.457113 1_455
Co18 Co23 2.531577 1_545
Co18 Co32 2.532372 1_545
Co18 Co2 2.633179 1_555
Co18 Tb1 2.915602 1_555
Co18 Tb2 2.953842 1_545
Co19 Co4 2.353697 1_556
Co19 Co7 2.354740 1_556
Co19 Co27 2.455897 1_555
Co19 Co30 2.457100 1_455
Co19 Co23 2.531566 1_556
Co19 Co32 2.532367 1_556
Co19 Co2 2.633165 1_555
Co19 Tb1 2.915603 1_566
Co19 Tb2 2.953832 1_556
Co20 Co6 2.353640 1_555
Co20 Co9 2.354692 1_555
Co20 Co26 2.456192 1_555
Co20 Co29 2.457392 1_455
Co20 Co22 2.531389 1_545
Co20 Co31 2.532171 1_545
Co20 Tb1 2.915376 1_556
Co20 Tb2 2.953778 1_545
Co21 Co5 2.353590 1_555
Co21 Co8 2.354660 1_555
Co21 Co25 2.456121 1_555
Co21 Co28 2.457345 1_455
Co21 Co24 2.531212 1_555
Co21 Co33 2.532050 1_555
Co21 Tb1 2.915531 1_555
Co21 Tb2 2.953927 1_555
Co22 Co27 2.377725 1_555
Co22 Co26 2.377761 1_565
Co22 Co5 2.380574 1_555
Co22 Co6 2.380579 1_565
Co22 Tb1 2.997904 1_566
Co22 Tb2 3.015000 1_555
Co22 Tb0 3.184792 1_566
Co23 Co27 2.377746 1_554
Co23 Co25 2.377761 1_565
Co23 Co4 2.380694 1_555
Co23 Co6 2.380708 1_565
Co23 Tb1 2.997762 1_565
Co23 Tb2 3.014526 1_555
Co23 Tb0 3.184591 1_565
Co24 Co25 2.377725 1_555
Co24 Co26 2.377746 1_554
Co24 Co5 2.380574 1_555
Co24 Co4 2.380579 1_555
Co24 Tb1 2.997905 1_555
Co24 Tb2 3.014989 1_555
Co24 Tb0 3.184792 1_555
Co25 Co5 2.380574 1_555
Co25 Co6 2.380579 1_555
Co25 Tb0 2.997904 1_555
Co25 Tb3 3.015000 1_555
Co25 Tb1 3.184792 1_555
Co26 Co4 2.380694 1_556
Co26 Co6 2.380708 1_555
Co26 Tb0 2.997762 1_556
Co26 Tb3 3.014526 1_555
Co26 Tb1 3.184591 1_556
Co27 Co5 2.380574 1_555
Co27 Co4 2.380579 1_556
Co27 Tb0 2.997905 1_566
Co27 Tb3 3.014989 1_555
Co27 Tb1 3.184792 1_566
Co28 Co33 2.377774 1_655
Co28 Co32 2.377787 1_645
Co28 Co9 2.380589 1_655
Co28 Co8 2.380591 1_655
Co28 Tb0 2.998210 1_555
Co28 Tb3 3.015337 1_555
Co28 Tb1 3.185314 1_655
Co29 Co33 2.377772 1_656
Co29 Co31 2.377787 1_645
Co29 Co7 2.380705 1_656
Co29 Co9 2.380712 1_655
Co29 Tb0 2.998059 1_556
Co29 Tb3 3.014873 1_555
Co29 Tb1 3.185137 1_656
Co30 Co32 2.377772 1_656
Co30 Co31 2.377774 1_655
Co30 Co7 2.380574 1_656
Co30 Co8 2.380597 1_655
Co30 Tb0 2.998221 1_566
Co30 Tb3 3.015325 1_555
Co30 Tb1 3.185314 1_666
Co31 Co9 2.380589 1_565
Co31 Co8 2.380591 1_555
Co31 Tb1 2.998210 1_566
Co31 Tb2 3.015337 1_555
Co31 Tb0 3.185314 1_466
Co32 Co7 2.380705 1_555
Co32 Co9 2.380712 1_565
Co32 Tb1 2.998059 1_565
Co32 Tb2 3.014873 1_555
Co32 Tb0 3.185137 1_465
Co33 Co7 2.380574 1_555
Co33 Co8 2.380597 1_555
Co33 Tb1 2.998221 1_555
Co33 Tb2 3.015325 1_555
Co33 Tb0 3.185314 1_455
