# generated using pymatgen
data_Li7Mn2(CoO4)3
_symmetry_space_group_name_H-M   'P 1'
_cell_length_a   3.00288100
_cell_length_b   5.00158641
_cell_length_c   14.49906578
_cell_angle_alpha   87.66424674
_cell_angle_beta   87.62843672
_cell_angle_gamma   86.93634200
_symmetry_Int_Tables_number   1
_chemical_formula_structural   Li7Mn2(CoO4)3
_chemical_formula_sum   'Li7 Mn2 Co3 O12'
_cell_volume   217.10424366
_cell_formula_units_Z   1
loop_
 _symmetry_equiv_pos_site_id
 _symmetry_equiv_pos_as_xyz
  1  'x, y, z'
loop_
 _atom_site_type_symbol
 _atom_site_label
 _atom_site_symmetry_multiplicity
 _atom_site_fract_x
 _atom_site_fract_y
 _atom_site_fract_z
 _atom_site_occupancy
  Li  Li0  1  0.98843000  0.33211900  0.65638600  1
  Li  Li1  1  0.49602400  0.15335700  0.34802600  1
  Li  Li2  1  0.00000000  0.00000000  0.00000000  1
  Li  Li3  1  0.50397600  0.84664300  0.65197400  1
  Li  Li4  1  0.01157000  0.66788100  0.34361400  1
  Li  Li5  1  0.50000000  0.50000000  0.00000000  1
  Li  Li6  1  0.00000000  0.00000000  0.50000000  1
  Mn  Mn0  1  0.99769600  0.66769000  0.83168300  1
  Mn  Mn1  1  0.00230400  0.33231000  0.16831700  1
  Co  Co0  1  0.50000000  0.50000000  0.50000000  1
  Co  Co1  1  0.49643900  0.16704000  0.83175100  1
  Co  Co2  1  0.50356100  0.83296000  0.16824900  1
  O  O0  1  0.48161200  0.49484300  0.75852200  1
  O  O1  1  0.00734000  0.34578100  0.42590600  1
  O  O2  1  0.47855000  0.15747000  0.09092300  1
  O  O3  1  0.96831400  0.00060600  0.75626500  1
  O  O4  1  0.49395500  0.79411700  0.42533300  1
  O  O5  1  0.96702700  0.66263000  0.09024900  1
  O  O6  1  0.50604500  0.20588300  0.57466700  1
  O  O7  1  0.03168600  0.99939400  0.24373500  1
  O  O8  1  0.52145000  0.84253000  0.90907700  1
  O  O9  1  0.99266000  0.65421900  0.57409400  1
  O  O10  1  0.51838800  0.50515700  0.24147800  1
  O  O11  1  0.03297300  0.33737000  0.90975100  1
loop_
_geom_bond_atom_site_label_1
_geom_bond_atom_site_label_2
_geom_bond_distance
_geom_bond_site_symmetry_2
Li0 O9 1.965552 1_555
Li0 O6 2.005525 1_655
Li0 O6 2.049773 1_555
Li0 O3 2.158195 1_555
Li0 O0 2.225070 1_555
Li0 O0 2.336073 1_655
Li1 O1 2.038442 1_555
Li1 O4 2.078761 1_545
Li1 O1 2.224605 1_655
Li1 O7 2.282082 1_545
Li1 O7 2.286501 1_645
Li1 O10 2.295557 1_555
Li2 O5 2.096777 1_445
Li2 O11 2.096777 1_554
Li2 O2 2.142916 1_455
Li2 O8 2.142916 1_544
Li2 O2 2.187617 1_555
Li2 O8 2.187617 1_444
Li3 O9 2.038442 1_555
Li3 O6 2.078761 1_565
Li3 O9 2.224605 1_455
Li3 O3 2.282082 1_565
Li3 O3 2.286501 1_465
Li3 O0 2.295557 1_555
Li4 O1 1.965552 1_555
Li4 O4 2.005525 1_455
Li4 O4 2.049773 1_555
Li4 O7 2.158195 1_555
Li4 O10 2.225070 1_555
Li4 O10 2.336073 1_455
Li5 O2 2.120794 1_555
Li5 O8 2.120794 1_554
Li5 O5 2.168234 1_555
Li5 O11 2.168234 1_554
Li5 O11 2.170165 1_654
Li5 O5 2.170165 1_455
Li6 O9 1.999069 1_445
Li6 O1 1.999069 1_555
Li6 O6 2.056026 1_455
Li6 O4 2.056026 1_545
Li6 O6 2.221674 1_555
Li6 O4 2.221674 1_445
Mn0 O0 1.948620 1_655
Mn0 O3 1.954472 1_565
Mn0 O11 1.964879 1_655
Mn0 O8 1.970437 1_555
Mn0 O0 2.151348 1_555
Mn0 O8 2.206938 1_655
Mn1 O10 1.948620 1_455
Mn1 O7 1.954472 1_545
Mn1 O5 1.964879 1_455
Mn1 O2 1.970437 1_555
Mn1 O10 2.151348 1_555
Mn1 O2 2.206938 1_455
Co0 O6 1.790338 1_555
Co0 O4 1.790338 1_555
Co0 O9 1.968896 1_455
Co0 O1 1.968896 1_655
Co0 O1 2.063672 1_555
Co0 O9 2.063672 1_555
Co1 O0 1.916140 1_555
Co1 O3 1.928342 1_555
Co1 O8 1.934575 1_545
Co1 O11 1.939903 1_555
Co1 O3 2.182869 1_455
Co1 O11 2.230830 1_655
Co2 O10 1.916140 1_555
Co2 O7 1.928342 1_555
Co2 O2 1.934575 1_565
Co2 O5 1.939903 1_555
Co2 O7 2.182869 1_655
Co2 O5 2.230830 1_455
