# generated using pymatgen
data_MgCr4Hg4(H2O9)2
_symmetry_space_group_name_H-M   'P 1'
_cell_length_a   6.45830115
_cell_length_b   6.49924957
_cell_length_c   15.41182966
_cell_angle_alpha   68.97693758
_cell_angle_beta   115.17800911
_cell_angle_gamma   127.38617344
_symmetry_Int_Tables_number   1
_chemical_formula_structural   MgCr4Hg4(H2O9)2
_chemical_formula_sum   'Mg1 Cr4 Hg4 H4 O18'
_cell_volume   460.60588951
_cell_formula_units_Z   1
loop_
 _symmetry_equiv_pos_site_id
 _symmetry_equiv_pos_as_xyz
  1  'x, y, z'
loop_
 _atom_site_type_symbol
 _atom_site_label
 _atom_site_symmetry_multiplicity
 _atom_site_fract_x
 _atom_site_fract_y
 _atom_site_fract_z
 _atom_site_occupancy
  Mg  Mg0  1  0.00000000  0.50000000  0.50000000  1
  Cr  Cr0  1  0.71918300  0.27399300  0.62028500  1
  Cr  Cr1  1  0.34591700  0.72653800  0.90800900  1
  Cr  Cr2  1  0.28081700  0.72600700  0.37971500  1
  Cr  Cr3  1  0.65408300  0.27346200  0.09199100  1
  Hg  Hg0  1  0.95326000  0.89807200  0.62578500  1
  Hg  Hg1  1  0.94082200  0.91109800  0.88684900  1
  Hg  Hg2  1  0.04674000  0.10192800  0.37421500  1
  Hg  Hg3  1  0.05917800  0.08890200  0.11315100  1
  H  H0  1  0.57326200  0.41951000  0.76796200  1
  H  H1  1  0.40211200  0.54309900  0.72968500  1
  H  H2  1  0.42673800  0.58049000  0.23203800  1
  H  H3  1  0.59788800  0.45690100  0.27031500  1
  O  O0  1  0.98560000  0.23100400  0.62733600  1
  O  O1  1  0.20324900  0.91367300  0.84288700  1
  O  O2  1  0.01440000  0.76899600  0.37266400  1
  O  O3  1  0.79675100  0.08632700  0.15711300  1
  O  O4  1  0.57724100  0.14924300  0.70720300  1
  O  O5  1  0.22614300  0.50512000  0.84513000  1
  O  O6  1  0.42275900  0.85075700  0.29279700  1
  O  O7  1  0.77385700  0.49488000  0.15487000  1
  O  O8  1  0.99202400  0.62325700  0.61077400  1
  O  O9  1  0.69751200  0.93072500  0.93332000  1
  O  O10  1  0.00797600  0.37674300  0.38922600  1
  O  O11  1  0.30248800  0.06927500  0.06668000  1
  O  O12  1  0.54541200  0.25317400  0.50383900  1
  O  O13  1  0.27355800  0.58510700  0.01029600  1
  O  O14  1  0.45458800  0.74682600  0.49616100  1
  O  O15  1  0.72644200  0.41489300  0.98970400  1
  O  O16  1  0.58826200  0.58836800  0.74596000  1
  O  O17  1  0.41173800  0.41163200  0.25404000  1
loop_
_geom_bond_atom_site_label_1
_geom_bond_atom_site_label_2
_geom_bond_distance
_geom_bond_site_symmetry_2
Mg0 O0 2.100624 1_455
Mg0 O2 2.100624 1_555
Mg0 O10 2.159908 1_555
Mg0 O8 2.159908 1_455
Mg0 O14 2.357253 1_555
Mg0 O12 2.357253 1_455
Cr0 O4 1.629467 1_555
Cr0 O12 1.665733 1_555
Cr0 O8 1.844687 1_555
Cr0 O0 1.858292 1_555
Cr1 O13 1.616771 1_556
Cr1 O5 1.618429 1_555
Cr1 O9 1.740051 1_555
Cr1 O1 1.741755 1_555
Cr2 O6 1.629467 1_555
Cr2 O14 1.665733 1_555
Cr2 O10 1.844687 1_555
Cr2 O2 1.858292 1_555
Cr3 O15 1.616771 1_554
Cr3 O7 1.618429 1_555
Cr3 O11 1.740051 1_555
Cr3 O3 1.741755 1_555
Hg0 O8 2.048187 1_555
Hg0 O0 2.051903 1_565
Hg1 O9 2.065179 1_555
Hg1 O1 2.065494 1_655
Hg2 O10 2.048187 1_555
Hg2 O2 2.051903 1_545
Hg3 O11 2.065179 1_555
Hg3 O3 2.065494 1_455
H0 O16 0.980105 1_555
H1 O16 0.980628 1_555
H2 O17 0.980105 1_555
H3 O17 0.980628 1_555
