# generated using pymatgen
data_Ca(SbO2)2
_symmetry_space_group_name_H-M   'P 1'
_cell_length_a   6.80478704
_cell_length_b   6.80478704
_cell_length_c   6.80478704
_cell_angle_alpha   123.18417616
_cell_angle_beta   113.62149470
_cell_angle_gamma   92.97929699
_symmetry_Int_Tables_number   1
_chemical_formula_structural   Ca(SbO2)2
_chemical_formula_sum   'Ca2 Sb4 O8'
_cell_volume   225.98680534
_cell_formula_units_Z   2
loop_
 _symmetry_equiv_pos_site_id
 _symmetry_equiv_pos_as_xyz
  1  'x, y, z'
loop_
 _atom_site_type_symbol
 _atom_site_label
 _atom_site_symmetry_multiplicity
 _atom_site_fract_x
 _atom_site_fract_y
 _atom_site_fract_z
 _atom_site_occupancy
  Ca  Ca0  1  0.00000000  0.50000000  0.50000000  1
  Ca  Ca1  1  0.50000000  0.50000000  0.00000000  1
  Sb  Sb0  1  0.10760800  0.85760800  0.25000000  1
  Sb  Sb1  1  0.89239200  0.14239200  0.75000000  1
  Sb  Sb2  1  0.50000000  0.00000000  0.00000000  1
  Sb  Sb3  1  0.50000000  0.50000000  0.50000000  1
  O  O0  1  0.75169400  0.24965900  0.99796500  1
  O  O1  1  0.71910500  0.25002400  0.46908100  1
  O  O2  1  0.75169400  0.75372800  0.50203500  1
  O  O3  1  0.28094300  0.25002400  0.03091900  1
  O  O4  1  0.71905700  0.74997600  0.96908100  1
  O  O5  1  0.28089500  0.74997600  0.53091900  1
  O  O6  1  0.24830600  0.24627200  0.49796500  1
  O  O7  1  0.24830600  0.75034100  0.00203500  1
loop_
_geom_bond_atom_site_label_1
_geom_bond_atom_site_label_2
_geom_bond_distance
_geom_bond_site_symmetry_2
Ca0 O5 2.353573 1_555
Ca0 O1 2.353573 1_455
Ca0 O2 2.476295 1_455
Ca0 O6 2.476295 1_555
Ca0 O0 2.476300 1_454
Ca0 O7 2.476300 1_556
Ca1 O4 2.353573 1_554
Ca1 O3 2.353573 1_555
Ca1 O7 2.476300 1_555
Ca1 O0 2.476300 1_554
Ca1 O6 2.476300 1_554
Ca1 O2 2.476300 1_555
O0 Sb1 2.077413 1_555
O0 Sb2 2.358409 1_556
O1 Sb2 2.298697 1_555
O1 Sb3 2.298697 1_555
O1 Sb1 2.323158 1_555
O2 Sb1 2.077418 1_565
O2 Sb3 2.358404 1_555
O3 Sb2 2.298697 1_555
O3 Sb3 2.298697 1_555
O3 Sb1 2.323158 1_454
O4 Sb3 2.298697 1_555
O4 Sb2 2.298697 1_566
O4 Sb0 2.323158 1_656
O5 Sb3 2.298697 1_555
O5 Sb2 2.298697 1_566
O5 Sb0 2.323158 1_555
O6 Sb0 2.077418 1_545
O6 Sb3 2.358404 1_555
O7 Sb0 2.077413 1_555
O7 Sb2 2.358409 1_565
