# generated using pymatgen
data_CaNd(CoO3)4
_symmetry_space_group_name_H-M   'P 1'
_cell_length_a   5.30331100
_cell_length_b   5.30331100
_cell_length_c   7.52388405
_cell_angle_alpha   90.00000000
_cell_angle_beta   90.00000000
_cell_angle_gamma   89.50505432
_symmetry_Int_Tables_number   1
_chemical_formula_structural   CaNd(CoO3)4
_chemical_formula_sum   'Ca1 Nd1 Co4 O12'
_cell_volume   211.60215264
_cell_formula_units_Z   1
loop_
 _symmetry_equiv_pos_site_id
 _symmetry_equiv_pos_as_xyz
  1  'x, y, z'
loop_
 _atom_site_type_symbol
 _atom_site_label
 _atom_site_symmetry_multiplicity
 _atom_site_fract_x
 _atom_site_fract_y
 _atom_site_fract_z
 _atom_site_occupancy
  Ca  Ca0  1  0.49402444  0.49402444  0.50000000  1
  Nd  Nd0  1  0.00740925  0.00740925  0.00000000  1
  Co  Co0  1  0.50043757  0.99701177  0.74603684  1
  Co  Co1  1  0.50043757  0.99701177  0.25396316  1
  Co  Co2  1  0.99701177  0.50043757  0.25396316  1
  Co  Co3  1  0.99701177  0.50043757  0.74603684  1
  O  O0  1  0.73822223  0.26333321  0.75136091  1
  O  O1  1  0.26333321  0.73822223  0.75136091  1
  O  O2  1  0.26333321  0.73822223  0.24863909  1
  O  O3  1  0.73822223  0.26333321  0.24863909  1
  O  O4  1  0.77270181  0.77270181  0.77318029  1
  O  O5  1  0.23463219  0.23463219  0.73669137  1
  O  O6  1  0.23463219  0.23463219  0.26330863  1
  O  O7  1  0.77270181  0.77270181  0.22681971  1
  O  O8  1  0.47774169  0.01313350  0.00000000  1
  O  O9  1  0.51759221  0.97692136  0.50000000  1
  O  O10  1  0.01313350  0.47774169  0.00000000  1
  O  O11  1  0.97692136  0.51759221  0.50000000  1
loop_
_geom_bond_atom_site_label_1
_geom_bond_atom_site_label_2
_geom_bond_distance
_geom_bond_site_symmetry_2
Ca0 O11 2.565079 1_555
Ca0 O9 2.565079 1_555
Ca0 O1 2.592923 1_555
Ca0 O0 2.592923 1_555
Ca0 O2 2.592923 1_555
Ca0 O3 2.592923 1_555
Ca0 O5 2.643641 1_555
Ca0 O6 2.643641 1_555
Ca0 O9 2.744126 1_545
Ca0 O11 2.744126 1_455
Ca0 O7 2.937816 1_555
Ca0 O4 2.937816 1_555
Nd0 O7 2.457198 1_445
Nd0 O4 2.457198 1_444
Nd0 O8 2.494766 1_555
Nd0 O10 2.494766 1_555
Nd0 O5 2.618028 1_554
Nd0 O6 2.618028 1_555
Nd0 O1 2.710400 1_544
Nd0 O0 2.710400 1_454
Nd0 O2 2.710400 1_545
Nd0 O3 2.710400 1_455
Nd0 O8 2.808894 1_455
Nd0 O10 2.808894 1_545
Co0 O9 1.856402 1_555
Co0 O1 1.869804 1_555
Co0 O4 1.874033 1_555
Co0 O5 1.883986 1_565
Co0 O0 1.901958 1_565
Co0 O8 1.916438 1_566
Co1 O9 1.856402 1_555
Co1 O2 1.869804 1_555
Co1 O7 1.874033 1_555
Co1 O6 1.883986 1_565
Co1 O3 1.901958 1_565
Co1 O8 1.916438 1_565
Co2 O11 1.856402 1_555
Co2 O3 1.869804 1_555
Co2 O7 1.874033 1_555
Co2 O6 1.883986 1_655
Co2 O2 1.901958 1_655
Co2 O10 1.916438 1_655
Co3 O11 1.856402 1_555
Co3 O0 1.869804 1_555
Co3 O4 1.874033 1_555
Co3 O5 1.883986 1_655
Co3 O1 1.901958 1_655
Co3 O10 1.916438 1_656
