# generated using pymatgen
data_Nb2(AlGa)3
_symmetry_space_group_name_H-M   'P 1'
_cell_length_a   3.80940710
_cell_length_b   3.80940710
_cell_length_c   8.60612278
_cell_angle_alpha   90.00000000
_cell_angle_beta   90.00000000
_cell_angle_gamma   90.00000000
_symmetry_Int_Tables_number   1
_chemical_formula_structural   Nb2(AlGa)3
_chemical_formula_sum   'Nb2 Al3 Ga3'
_cell_volume   124.88846033
_cell_formula_units_Z   1
loop_
 _symmetry_equiv_pos_site_id
 _symmetry_equiv_pos_as_xyz
  1  'x, y, z'
loop_
 _atom_site_type_symbol
 _atom_site_label
 _atom_site_symmetry_multiplicity
 _atom_site_fract_x
 _atom_site_fract_y
 _atom_site_fract_z
 _atom_site_occupancy
  Nb  Nb0  1  0.50000000  -0.00000000  0.74961798  1
  Nb  Nb1  1  0.00000000  0.50000000  0.25038202  1
  Al  Al0  1  0.00000000  0.50000000  0.75254068  1
  Al  Al1  1  0.50000000  0.00000000  0.24745932  1
  Al  Al2  1  0.50000000  0.50000000  0.00000000  1
  Ga  Ga0  1  -0.00000000  -0.00000000  0.50000000  1
  Ga  Ga1  1  -0.00000000  0.00000000  0.00000000  1
  Ga  Ga2  1  0.50000000  0.50000000  0.50000000  1
loop_
_geom_bond_atom_site_label_1
_geom_bond_atom_site_label_2
_geom_bond_distance
_geom_bond_site_symmetry_2
Al0 Nb0 2.693775 1_565
Al0 Nb0 2.693775 1_465
Al0 Nb0 2.693775 1_555
Al0 Nb0 2.693775 1_455
Al0 Ga1 2.857161 1_556
Al0 Al2 2.857161 1_456
Al0 Ga1 2.857161 1_566
Al0 Al2 2.857161 1_556
Al0 Ga2 2.889904 1_555
Al0 Ga0 2.889904 1_565
Al0 Ga0 2.889904 1_555
Al0 Ga2 2.889904 1_455
Al1 Nb1 2.693775 1_645
Al1 Nb1 2.693775 1_555
Al1 Nb1 2.693775 1_545
Al1 Nb1 2.693775 1_655
Al1 Al2 2.857161 1_555
Al1 Ga1 2.857161 1_555
Al1 Al2 2.857161 1_545
Al1 Ga1 2.857161 1_655
Al1 Ga2 2.889904 1_545
Al1 Ga2 2.889904 1_555
Al1 Ga0 2.889904 1_655
Al1 Ga0 2.889904 1_555
Al2 Ga1 2.693658 1_565
Al2 Ga1 2.693658 1_555
Al2 Ga1 2.693658 1_665
Al2 Ga1 2.693658 1_655
Al2 Nb0 2.875959 1_564
Al2 Nb1 2.875959 1_555
Al2 Nb1 2.875959 1_655
Al2 Nb0 2.875959 1_554
Ga0 Ga2 2.693658 1_455
Ga0 Ga2 2.693658 1_545
Ga0 Ga2 2.693658 1_445
Ga0 Ga2 2.693658 1_555
Ga0 Nb0 2.871035 1_455
Ga0 Nb0 2.871035 1_555
Ga0 Nb1 2.871035 1_555
Ga0 Nb1 2.871035 1_545
Ga1 Nb1 2.875959 1_555
Ga1 Nb1 2.875959 1_545
Ga1 Nb0 2.875959 1_454
Ga1 Nb0 2.875959 1_554
Ga2 Nb1 2.871035 1_655
Ga2 Nb0 2.871035 1_555
Ga2 Nb0 2.871035 1_565
Ga2 Nb1 2.871035 1_555
