# generated using pymatgen
data_UCrFe
_symmetry_space_group_name_H-M   'P 1'
_cell_length_a   5.08658101
_cell_length_b   5.08658101
_cell_length_c   5.08658101
_cell_angle_alpha   128.34690243
_cell_angle_beta   118.71380348
_cell_angle_gamma   84.21153249
_symmetry_Int_Tables_number   1
_chemical_formula_structural   UCrFe
_chemical_formula_sum   'U2 Cr2 Fe2'
_cell_volume   86.72197006
_cell_formula_units_Z   2
loop_
 _symmetry_equiv_pos_site_id
 _symmetry_equiv_pos_as_xyz
  1  'x, y, z'
loop_
 _atom_site_type_symbol
 _atom_site_label
 _atom_site_symmetry_multiplicity
 _atom_site_fract_x
 _atom_site_fract_y
 _atom_site_fract_z
 _atom_site_occupancy
  U  U0  1  0.11154300  0.86154300  0.25000000  1
  U  U1  1  0.88845700  0.13845700  0.75000000  1
  Cr  Cr0  1  0.50000000  0.50000000  0.50000000  1
  Cr  Cr1  1  0.50000000  0.00000000  0.00000000  1
  Fe  Fe0  1  0.50000000  0.50000000  0.00000000  1
  Fe  Fe1  1  0.00000000  0.50000000  0.50000000  1
loop_
_geom_bond_atom_site_label_1
_geom_bond_atom_site_label_2
_geom_bond_distance
_geom_bond_site_symmetry_2
U0 U1 2.783075 1_465
U0 U1 2.783075 1_454
Cr0 Cr1 2.215960 1_555
Cr0 Cr1 2.215960 1_566
Cr0 Fe1 2.543291 1_655
Cr0 Fe0 2.543291 1_556
Cr0 Fe1 2.543291 1_555
Cr0 Fe0 2.543291 1_555
Cr0 U0 2.942416 1_656
Cr0 U1 2.942416 1_454
Cr0 U1 2.942416 1_555
Cr0 U0 2.942416 1_555
Cr0 U0 3.134272 1_545
Cr0 U1 3.134272 1_565
Cr1 Fe1 2.543291 1_655
Cr1 Fe1 2.543291 1_544
Cr1 Fe0 2.543291 1_545
Cr1 Fe0 2.543291 1_555
Cr1 U0 2.942416 1_645
Cr1 U1 2.942416 1_454
Cr1 U1 2.942416 1_555
Cr1 U0 2.942416 1_544
Cr1 U1 3.134272 1_554
Cr1 U0 3.134272 1_545
Fe0 Fe1 2.592573 1_554
Fe0 Fe1 2.592573 1_655
Fe0 U1 2.771802 1_554
Fe0 U0 2.771802 1_544
Fe0 U0 2.771802 1_555
Fe0 U1 2.771802 1_565
Fe0 U1 3.021013 1_454
Fe0 U0 3.021013 1_655
Fe1 U1 2.771802 1_454
Fe1 U0 2.771802 1_545
Fe1 U0 2.771802 1_556
Fe1 U1 2.771802 1_465
Fe1 U1 3.021013 1_455
Fe1 U0 3.021013 1_555
