# generated using pymatgen
data_Y2Si3Rh
_symmetry_space_group_name_H-M   'P 1'
_cell_length_a   8.18335001
_cell_length_b   8.18335001
_cell_length_c   7.97287600
_cell_angle_alpha   90.00000000
_cell_angle_beta   90.00000000
_cell_angle_gamma   120.00000008
_symmetry_Int_Tables_number   1
_chemical_formula_structural   Y2Si3Rh
_chemical_formula_sum   'Y8 Si12 Rh4'
_cell_volume   462.38942664
_cell_formula_units_Z   4
loop_
 _symmetry_equiv_pos_site_id
 _symmetry_equiv_pos_as_xyz
  1  'x, y, z'
loop_
 _atom_site_type_symbol
 _atom_site_label
 _atom_site_symmetry_multiplicity
 _atom_site_fract_x
 _atom_site_fract_y
 _atom_site_fract_z
 _atom_site_occupancy
  Y  Y0  1  0.00000000  0.00000000  0.25000000  1
  Y  Y1  1  0.00000000  0.00000000  0.75000000  1
  Y  Y2  1  0.00797900  0.50398900  0.25000000  1
  Y  Y3  1  0.49601100  0.50398900  0.25000000  1
  Y  Y4  1  0.50398900  0.00797900  0.75000000  1
  Y  Y5  1  0.49601100  0.99202100  0.25000000  1
  Y  Y6  1  0.50398900  0.49601100  0.75000000  1
  Y  Y7  1  0.99202100  0.49601100  0.75000000  1
  Si  Si0  1  0.16626500  0.33253000  0.99927700  1
  Si  Si1  1  0.66747000  0.83373500  0.99927700  1
  Si  Si2  1  0.16626500  0.33253000  0.50072300  1
  Si  Si3  1  0.33253000  0.16626500  0.00072300  1
  Si  Si4  1  0.16626500  0.83373500  0.99927700  1
  Si  Si5  1  0.66747000  0.83373500  0.50072300  1
  Si  Si6  1  0.83373500  0.66747000  0.00072300  1
  Si  Si7  1  0.33253000  0.16626500  0.49927700  1
  Si  Si8  1  0.16626500  0.83373500  0.50072300  1
  Si  Si9  1  0.83373500  0.66747000  0.49927700  1
  Si  Si10  1  0.83373500  0.16626500  0.00072300  1
  Si  Si11  1  0.83373500  0.16626500  0.49927700  1
  Rh  Rh0  1  0.33333300  0.66666700  0.98600800  1
  Rh  Rh1  1  0.33333300  0.66666700  0.51399200  1
  Rh  Rh2  1  0.66666700  0.33333300  0.01399200  1
  Rh  Rh3  1  0.66666700  0.33333300  0.48600800  1
loop_
_geom_bond_atom_site_label_1
_geom_bond_atom_site_label_2
_geom_bond_distance
_geom_bond_site_symmetry_2
Si0 Si10 2.356665 1_456
Si0 Si3 2.356665 1_556
Si0 Y2 3.075701 1_556
Si0 Y3 3.075706 1_556
Si0 Y1 3.082809 1_555
Si0 Y0 3.090254 1_556
Si0 Y6 3.111350 1_555
Si0 Y7 3.111356 1_455
Si1 Si10 2.356665 1_566
Si1 Si6 2.356665 1_556
Si1 Y5 3.075701 1_556
Si1 Y3 3.075706 1_556
Si1 Y1 3.082809 1_665
Si1 Y0 3.090254 1_666
Si1 Y6 3.111350 1_555
Si1 Y4 3.111356 1_565
Si2 Si7 2.356665 1_555
Si2 Y2 3.075701 1_555
Si2 Y3 3.075706 1_555
Si2 Y1 3.082809 1_555
Si2 Y0 3.090254 1_555
Si2 Y6 3.111350 1_555
Si2 Y7 3.111356 1_455
Si3 Si4 2.356665 1_544
Si3 Y4 3.075701 1_554
Si3 Y6 3.075706 1_554
Si3 Y0 3.082809 1_555
Si3 Y1 3.090254 1_554
Si3 Y3 3.111350 1_555
Si3 Y5 3.111356 1_545
Si4 Si6 2.356665 1_456
Si4 Y5 3.075707 1_556
Si4 Y2 3.075707 1_556
Si4 Y1 3.082809 1_565
Si4 Y0 3.090254 1_566
Si4 Y7 3.111350 1_455
Si4 Y4 3.111350 1_565
Si5 Si9 2.356665 1_555
Si5 Y5 3.075701 1_555
Si5 Y3 3.075706 1_555
Si5 Y1 3.082809 1_665
Si5 Y0 3.090254 1_665
Si5 Y6 3.111350 1_555
Si5 Y4 3.111356 1_565
Si6 Y7 3.075701 1_554
Si6 Y6 3.075706 1_554
Si6 Y0 3.082809 1_665
Si6 Y1 3.090254 1_664
Si6 Y3 3.111350 1_555
Si6 Y2 3.111356 1_655
Si7 Si8 2.356665 1_545
Si7 Y4 3.075701 1_555
Si7 Y6 3.075706 1_555
Si7 Y0 3.082809 1_555
Si7 Y1 3.090254 1_555
Si7 Y3 3.111350 1_555
Si7 Y5 3.111356 1_545
Si8 Si9 2.356665 1_455
Si8 Y2 3.075707 1_555
Si8 Y5 3.075707 1_555
Si8 Y1 3.082809 1_565
Si8 Y0 3.090254 1_565
Si8 Y7 3.111350 1_455
Si8 Y4 3.111350 1_565
Si9 Y7 3.075701 1_555
Si9 Y6 3.075706 1_555
Si9 Y0 3.082809 1_665
Si9 Y1 3.090254 1_665
Si9 Y3 3.111350 1_555
Si9 Y2 3.111356 1_655
Si10 Y4 3.075707 1_554
Si10 Y7 3.075707 1_554
Si10 Y0 3.082809 1_655
Si10 Y1 3.090254 1_654
Si10 Y2 3.111350 1_655
Si10 Y5 3.111350 1_545
Si11 Si5 2.356665 1_545
Si11 Si2 2.356665 1_655
Si11 Y4 3.075707 1_555
Si11 Y7 3.075707 1_555
Si11 Y0 3.082809 1_655
Si11 Y1 3.090254 1_655
Si11 Y2 3.111350 1_655
Si11 Y5 3.111350 1_545
Rh0 Si4 2.370380 1_555
Rh0 Si1 2.370387 1_555
Rh0 Si0 2.370387 1_555
Rh0 Y4 3.064573 1_565
Rh0 Y7 3.064573 1_455
Rh0 Y6 3.064573 1_555
Rh0 Y5 3.121971 1_556
Rh0 Y2 3.121971 1_556
Rh0 Y3 3.121981 1_556
Rh1 Si8 2.370380 1_555
Rh1 Si5 2.370387 1_555
Rh1 Si2 2.370387 1_555
Rh1 Y4 3.064573 1_565
Rh1 Y7 3.064573 1_455
Rh1 Y6 3.064573 1_555
Rh1 Y5 3.121971 1_555
Rh1 Y2 3.121971 1_555
Rh1 Y3 3.121981 1_555
Rh2 Si10 2.370380 1_555
Rh2 Si6 2.370387 1_555
Rh2 Si3 2.370387 1_555
Rh2 Y2 3.064573 1_655
Rh2 Y5 3.064573 1_545
Rh2 Y3 3.064573 1_555
Rh2 Y7 3.121971 1_554
Rh2 Y4 3.121971 1_554
Rh2 Y6 3.121981 1_554
Rh3 Si11 2.370380 1_555
Rh3 Si9 2.370387 1_555
Rh3 Si7 2.370387 1_555
Rh3 Y2 3.064573 1_655
Rh3 Y5 3.064573 1_545
Rh3 Y3 3.064573 1_555
Rh3 Y7 3.121971 1_555
Rh3 Y4 3.121971 1_555
Rh3 Y6 3.121981 1_555
