# generated using pymatgen
data_Ni3Sb4(OF)6
_symmetry_space_group_name_H-M   'P 1'
_cell_length_a   8.20397500
_cell_length_b   8.20399500
_cell_length_c   8.20398200
_cell_angle_alpha   89.99995810
_cell_angle_beta   90.00005587
_cell_angle_gamma   89.99986032
_symmetry_Int_Tables_number   1
_chemical_formula_structural   Ni3Sb4(OF)6
_chemical_formula_sum   'Ni6 Sb8 O12 F12'
_cell_volume   552.17204300
_cell_formula_units_Z   2
loop_
 _symmetry_equiv_pos_site_id
 _symmetry_equiv_pos_as_xyz
  1  'x, y, z'
loop_
 _atom_site_type_symbol
 _atom_site_label
 _atom_site_symmetry_multiplicity
 _atom_site_fract_x
 _atom_site_fract_y
 _atom_site_fract_z
 _atom_site_occupancy
  Ni  Ni0  1  0.50000000  0.00000000  0.50000000  1
  Ni  Ni1  1  0.00000000  0.50000000  0.50000000  1
  Ni  Ni2  1  0.50000000  0.50000000  0.00000000  1
  Ni  Ni3  1  0.00000000  0.50000000  0.00000000  1
  Ni  Ni4  1  0.50000000  0.00000100  0.00000000  1
  Ni  Ni5  1  0.00000000  0.00000000  0.50000000  1
  Sb  Sb0  1  0.16192200  0.16192100  0.83807800  1
  Sb  Sb1  1  0.66191900  0.66191900  0.33808100  1
  Sb  Sb2  1  0.33808100  0.33808100  0.33808100  1
  Sb  Sb3  1  0.83807900  0.83807900  0.83807900  1
  Sb  Sb4  1  0.66191900  0.33808100  0.66191900  1
  Sb  Sb5  1  0.16192100  0.83807900  0.16192100  1
  Sb  Sb6  1  0.33808100  0.66191900  0.66191900  1
  Sb  Sb7  1  0.83807800  0.16192200  0.16192200  1
  O  O0  1  0.00000000  0.25197200  0.00000000  1
  O  O1  1  0.50000000  0.75194500  0.50000000  1
  O  O2  1  0.74802800  0.00000000  0.00000000  1
  O  O3  1  0.24805500  0.50000000  0.50000000  1
  O  O4  1  0.00000000  0.00000000  0.25197200  1
  O  O5  1  0.50000000  0.50000000  0.75194500  1
  O  O6  1  0.00000000  0.74802800  0.00000000  1
  O  O7  1  0.50000000  0.24805500  0.50000000  1
  O  O8  1  0.25197200  0.00000000  0.00000000  1
  O  O9  1  0.75194500  0.50000000  0.50000000  1
  O  O10  1  0.00000000  0.00000000  0.74802800  1
  O  O11  1  0.50000000  0.50000000  0.24805500  1
  F  F0  1  0.00000000  0.50000000  0.75001900  1
  F  F1  1  0.50000000  0.00000000  0.24998100  1
  F  F2  1  0.00000000  0.24998100  0.50000000  1
  F  F3  1  0.50000000  0.75001900  0.00000000  1
  F  F4  1  0.24998100  0.00000000  0.50000000  1
  F  F5  1  0.75001900  0.50000000  0.00000000  1
  F  F6  1  0.50000000  0.00000000  0.75001900  1
  F  F7  1  0.00000000  0.50000000  0.24998100  1
  F  F8  1  0.24998000  0.50000000  0.00000000  1
  F  F9  1  0.75001900  0.00000000  0.50000000  1
  F  F10  1  0.50000000  0.24998100  0.00000000  1
  F  F11  1  0.00000000  0.75001900  0.50000000  1
loop_
_geom_bond_atom_site_label_1
_geom_bond_atom_site_label_2
_geom_bond_distance
_geom_bond_site_symmetry_2
Ni0 O1 2.035042 1_545
Ni0 O7 2.035042 1_555
Ni1 O3 2.035037 1_555
Ni1 O9 2.035037 1_455
Ni2 O5 2.035039 1_554
Ni2 O11 2.035039 1_555
Ni3 O6 2.034820 1_555
Ni3 O0 2.034820 1_555
Ni4 O2 2.034816 1_555
Ni4 O8 2.034816 1_555
Ni5 O10 2.034817 1_555
Ni5 O4 2.034817 1_555
O0 Sb7 2.018689 1_455
O0 Sb0 2.018690 1_554
O1 Sb1 2.018583 1_555
O1 Sb6 2.018585 1_555
O2 Sb3 2.018681 1_544
O2 Sb7 2.018690 1_555
O3 Sb2 2.018584 1_555
O3 Sb6 2.018586 1_555
O4 Sb5 2.018679 1_545
O4 Sb7 2.018685 1_455
O5 Sb6 2.018581 1_555
O5 Sb4 2.018582 1_555
O6 Sb3 2.018677 1_454
O6 Sb5 2.018680 1_555
O7 Sb2 2.018580 1_555
O7 Sb4 2.018584 1_555
O8 Sb0 2.018681 1_554
O8 Sb5 2.018682 1_545
O9 Sb1 2.018582 1_555
O9 Sb4 2.018585 1_555
O10 Sb3 2.018683 1_445
O10 Sb0 2.018685 1_555
O11 Sb1 2.018586 1_555
O11 Sb2 2.018586 1_555
F0 Ni3 2.050840 1_556
F0 Ni1 2.051151 1_555
F1 Ni4 2.050840 1_555
F1 Ni0 2.051151 1_555
F2 Ni5 2.050843 1_555
F2 Ni1 2.051155 1_555
F3 Ni4 2.050851 1_565
F3 Ni2 2.051155 1_555
F4 Ni5 2.050838 1_555
F4 Ni0 2.051150 1_555
F5 Ni3 2.050838 1_655
F5 Ni2 2.051150 1_555
F6 Ni4 2.050840 1_556
F6 Ni0 2.051151 1_555
F7 Ni3 2.050840 1_555
F7 Ni1 2.051151 1_555
F8 Ni3 2.050830 1_555
F8 Ni2 2.051158 1_555
F9 Ni5 2.050838 1_655
F9 Ni0 2.051150 1_555
F10 Ni4 2.050835 1_555
F10 Ni2 2.051155 1_555
F11 Ni5 2.050843 1_565
F11 Ni1 2.051155 1_555
