# generated using pymatgen
data_Zr2GaCo3
_symmetry_space_group_name_H-M   'P 1'
_cell_length_a   5.04530706
_cell_length_b   5.04530706
_cell_length_c   7.66596711
_cell_angle_alpha   90.00000000
_cell_angle_beta   90.00000000
_cell_angle_gamma   120.00000046
_symmetry_Int_Tables_number   1
_chemical_formula_structural   Zr2GaCo3
_chemical_formula_sum   'Zr4 Ga2 Co6'
_cell_volume   168.99458385
_cell_formula_units_Z   2
loop_
 _symmetry_equiv_pos_site_id
 _symmetry_equiv_pos_as_xyz
  1  'x, y, z'
loop_
 _atom_site_type_symbol
 _atom_site_label
 _atom_site_symmetry_multiplicity
 _atom_site_fract_x
 _atom_site_fract_y
 _atom_site_fract_z
 _atom_site_occupancy
  Zr  Zr0  1  0.33333300  0.66666700  0.43913791  1
  Zr  Zr1  1  0.66666700  0.33333300  0.56086209  1
  Zr  Zr2  1  0.66666700  0.33333300  0.93913791  1
  Zr  Zr3  1  0.33333300  0.66666700  0.06086209  1
  Ga  Ga0  1  -0.00000000  -0.00000000  0.50000000  1
  Ga  Ga1  1  -0.00000000  -0.00000000  0.00000000  1
  Co  Co0  1  0.82863101  0.17136899  0.25000000  1
  Co  Co1  1  0.82863101  0.65726302  0.25000000  1
  Co  Co2  1  0.34273698  0.17136899  0.25000000  1
  Co  Co3  1  0.17136899  0.82863101  0.75000000  1
  Co  Co4  1  0.17136899  0.34273698  0.75000000  1
  Co  Co5  1  0.65726302  0.82863101  0.75000000  1
loop_
_geom_bond_atom_site_label_1
_geom_bond_atom_site_label_2
_geom_bond_distance
_geom_bond_site_symmetry_2
Zr0 Zr3 2.899850 1_555
Zr0 Zr1 3.058719 1_455
Zr0 Zr1 3.058719 1_565
Zr0 Zr1 3.058727 1_555
Zr1 Zr2 2.899850 1_555
Zr2 Zr3 3.058719 1_546
Zr2 Zr3 3.058719 1_656
Zr2 Zr3 3.058727 1_556
Ga0 Zr0 2.950035 1_545
Ga0 Zr1 2.950035 1_455
Ga0 Zr1 2.950040 1_445
Ga0 Zr0 2.950040 1_555
Ga0 Zr1 2.950040 1_555
Ga0 Zr0 2.950040 1_445
Ga1 Zr2 2.950035 1_454
Ga1 Zr3 2.950035 1_545
Ga1 Zr2 2.950040 1_554
Ga1 Zr3 2.950040 1_555
Ga1 Zr2 2.950040 1_444
Ga1 Zr3 2.950040 1_445
Co0 Ga1 2.432198 1_655
Co0 Ga0 2.432198 1_655
Co0 Co2 2.451485 1_555
Co0 Co1 2.451485 1_555
Co0 Co1 2.593822 1_545
Co0 Co2 2.593822 1_655
Co0 Zr2 2.771680 1_554
Co0 Zr1 2.771680 1_555
Co0 Zr0 2.909940 1_545
Co0 Zr3 2.909940 1_545
Co0 Zr0 2.909940 1_655
Co0 Zr3 2.909940 1_655
Co1 Ga1 2.432195 1_665
Co1 Ga0 2.432195 1_665
Co1 Co2 2.451485 1_555
Co1 Co2 2.593822 1_665
Co1 Zr2 2.771685 1_554
Co1 Zr1 2.771685 1_555
Co1 Zr0 2.909940 1_655
Co1 Zr3 2.909940 1_655
Co1 Zr3 2.909940 1_555
Co1 Zr0 2.909940 1_555
Co2 Ga1 2.432195 1_555
Co2 Ga0 2.432195 1_555
Co2 Zr2 2.771685 1_554
Co2 Zr1 2.771685 1_555
Co2 Zr0 2.909940 1_545
Co2 Zr3 2.909940 1_545
Co2 Zr3 2.909940 1_555
Co2 Zr0 2.909940 1_555
Co3 Ga0 2.432198 1_565
Co3 Ga1 2.432198 1_566
Co3 Co4 2.451485 1_555
Co3 Co5 2.451485 1_555
Co3 Co5 2.593822 1_455
Co3 Co4 2.593822 1_565
Co3 Zr0 2.771680 1_555
Co3 Zr3 2.771680 1_556
Co3 Zr2 2.909940 1_455
Co3 Zr1 2.909940 1_455
Co3 Zr1 2.909940 1_565
Co3 Zr2 2.909940 1_565
Co4 Ga0 2.432195 1_555
Co4 Ga1 2.432195 1_556
Co4 Co5 2.451485 1_555
Co4 Co5 2.593822 1_445
Co4 Zr0 2.771685 1_555
Co4 Zr3 2.771685 1_556
Co4 Zr1 2.909940 1_455
Co4 Zr2 2.909940 1_455
Co4 Zr2 2.909940 1_555
Co4 Zr1 2.909940 1_555
Co5 Ga1 2.432195 1_666
Co5 Ga0 2.432195 1_665
Co5 Zr0 2.771685 1_555
Co5 Zr3 2.771685 1_556
Co5 Zr1 2.909940 1_565
Co5 Zr2 2.909940 1_565
Co5 Zr2 2.909940 1_555
Co5 Zr1 2.909940 1_555
