# generated using pymatgen
data_Sr2As2O7
_symmetry_space_group_name_H-M   'P 1'
_cell_length_a   7.24380400
_cell_length_b   7.24380400
_cell_length_c   26.12124500
_cell_angle_alpha   90.00000000
_cell_angle_beta   90.00000000
_cell_angle_gamma   90.00000000
_symmetry_Int_Tables_number   1
_chemical_formula_structural   Sr2As2O7
_chemical_formula_sum   'Sr16 As16 O56'
_cell_volume   1370.65215822
_cell_formula_units_Z   8
loop_
 _symmetry_equiv_pos_site_id
 _symmetry_equiv_pos_as_xyz
  1  'x, y, z'
loop_
 _atom_site_type_symbol
 _atom_site_label
 _atom_site_symmetry_multiplicity
 _atom_site_fract_x
 _atom_site_fract_y
 _atom_site_fract_z
 _atom_site_occupancy
  Sr  Sr0  1  0.12379500  0.75701100  0.51230100  1
  Sr  Sr1  1  0.87620500  0.24298900  0.01230100  1
  Sr  Sr2  1  0.75701100  0.87620500  0.26230100  1
  Sr  Sr3  1  0.24298900  0.12379500  0.76230100  1
  Sr  Sr4  1  0.23289200  0.72739600  0.87457600  1
  Sr  Sr5  1  0.76710800  0.27260400  0.37457600  1
  Sr  Sr6  1  0.72739600  0.76710800  0.62457600  1
  Sr  Sr7  1  0.27260400  0.23289200  0.12457600  1
  Sr  Sr8  1  0.10371700  0.34663800  0.62677400  1
  Sr  Sr9  1  0.89628300  0.65336200  0.12677400  1
  Sr  Sr10  1  0.34663800  0.89628300  0.37677400  1
  Sr  Sr11  1  0.65336200  0.10371700  0.87677400  1
  Sr  Sr12  1  0.52629300  0.15386800  0.52151000  1
  Sr  Sr13  1  0.47370700  0.84613200  0.02151000  1
  Sr  Sr14  1  0.15386800  0.47370700  0.27151000  1
  Sr  Sr15  1  0.84613200  0.52629300  0.77151000  1
  As  As0  1  0.25022300  0.85543600  0.63724300  1
  As  As1  1  0.74977700  0.14456400  0.13724300  1
  As  As2  1  0.85543600  0.74977700  0.38724300  1
  As  As3  1  0.14456400  0.25022300  0.88724300  1
  As  As4  1  0.01760200  0.27783100  0.49632700  1
  As  As5  1  0.98239800  0.72216900  0.99632700  1
  As  As6  1  0.27783100  0.98239800  0.24632700  1
  As  As7  1  0.72216900  0.01760200  0.74632700  1
  As  As8  1  0.31185300  0.60539200  0.73862900  1
  As  As9  1  0.68814700  0.39460800  0.23862900  1
  As  As10  1  0.60539200  0.68814700  0.48862900  1
  As  As11  1  0.39460800  0.31185300  0.98862900  1
  As  As12  1  0.26534400  0.35404100  0.39408300  1
  As  As13  1  0.73465600  0.64595900  0.89408300  1
  As  As14  1  0.35404100  0.73465600  0.14408300  1
  As  As15  1  0.64595900  0.26534400  0.64408300  1
  O  O0  1  0.20089300  0.76499200  0.77546200  1
  O  O1  1  0.79910700  0.23500800  0.27546200  1
  O  O2  1  0.76499200  0.79910700  0.52546200  1
  O  O3  1  0.23500800  0.20089300  0.02546200  1
  O  O4  1  0.40801300  0.88702500  0.58962800  1
  O  O5  1  0.59198700  0.11297500  0.08962800  1
  O  O6  1  0.88702500  0.59198700  0.33962800  1
  O  O7  1  0.11297500  0.40801300  0.83962800  1
  O  O8  1  0.07891700  0.71552200  0.61427200  1
  O  O9  1  0.92108300  0.28447800  0.11427200  1
  O  O10  1  0.71552200  0.92108300  0.36427200  1
  O  O11  1  0.28447800  0.07891700  0.86427200  1
  O  O12  1  0.98589100  0.44558100  0.54089200  1
  O  O13  1  0.01410900  0.55441900  0.04089200  1
  O  O14  1  0.44558100  0.01410900  0.29089200  1
  O  O15  1  0.55441900  0.98589100  0.79089200  1
  O  O16  1  0.16712400  0.11487300  0.51855400  1
  O  O17  1  0.83287600  0.88512700  0.01855400  1
  O  O18  1  0.11487300  0.83287600  0.26855400  1
  O  O19  1  0.88512700  0.16712400  0.76855400  1
  O  O20  1  0.13172100  0.42413500  0.44901200  1
  O  O21  1  0.86827900  0.57586500  0.94901200  1
  O  O22  1  0.42413500  0.86827900  0.19901200  1
  O  O23  1  0.57586500  0.13172100  0.69901200  1
  O  O24  1  0.49834900  0.49930900  0.76306400  1
  O  O25  1  0.50165100  0.50069100  0.26306400  1
  O  O26  1  0.49930900  0.50165100  0.51306400  1
  O  O27  1  0.50069100  0.49834900  0.01306400  1
  O  O28  1  0.17139000  0.04359400  0.66878800  1
  O  O29  1  0.82861000  0.95640600  0.16878800  1
  O  O30  1  0.04359400  0.82861000  0.41878800  1
  O  O31  1  0.95640600  0.17139000  0.91878800  1
  O  O32  1  0.15385300  0.44385700  0.71864500  1
  O  O33  1  0.84614700  0.55614300  0.21864500  1
  O  O34  1  0.44385700  0.84614700  0.46864500  1
  O  O35  1  0.55614300  0.15385300  0.96864500  1
  O  O36  1  0.82408400  0.19778800  0.46772700  1
  O  O37  1  0.17591600  0.80221200  0.96772700  1
  O  O38  1  0.19778800  0.17591600  0.21772700  1
  O  O39  1  0.80221200  0.82408400  0.71772700  1
  O  O40  1  0.32869700  0.55290800  0.36529200  1
  O  O41  1  0.67130300  0.44709200  0.86529200  1
  O  O42  1  0.55290800  0.67130300  0.11529200  1
  O  O43  1  0.44709200  0.32869700  0.61529200  1
  O  O44  1  0.39304900  0.72511800  0.68125400  1
  O  O45  1  0.60695100  0.27488200  0.18125400  1
  O  O46  1  0.72511800  0.60695100  0.43125400  1
  O  O47  1  0.27488200  0.39304900  0.93125400  1
  O  O48  1  0.12043100  0.22693100  0.35624100  1
  O  O49  1  0.87956900  0.77306900  0.85624100  1
  O  O50  1  0.22693100  0.87956900  0.10624100  1
  O  O51  1  0.77306900  0.12043100  0.60624100  1
  O  O52  1  0.44372900  0.21750000  0.41432400  1
  O  O53  1  0.55627100  0.78250100  0.91432400  1
  O  O54  1  0.21750000  0.55627100  0.16432400  1
  O  O55  1  0.78250100  0.44372900  0.66432400  1
loop_
_geom_bond_atom_site_label_1
_geom_bond_atom_site_label_2
_geom_bond_distance
_geom_bond_site_symmetry_2
As0 O28 1.691975 1_565
As0 O4 1.704628 1_555
As0 O8 1.710874 1_555
As0 O44 1.811951 1_555
As1 O29 1.691975 1_545
As1 O5 1.704628 1_555
As1 O9 1.710874 1_555
As1 O45 1.811951 1_555
As2 O30 1.691975 1_655
As2 O6 1.704628 1_555
As2 O10 1.710874 1_555
As2 O46 1.811951 1_555
As3 O31 1.691975 1_455
As3 O7 1.704628 1_555
As3 O11 1.710874 1_555
As3 O47 1.811951 1_555
As4 O36 1.690964 1_455
As4 O12 1.698371 1_455
As4 O16 1.704008 1_555
As4 O20 1.825937 1_555
As5 O37 1.690964 1_655
As5 O13 1.698371 1_656
As5 O17 1.704008 1_556
As5 O21 1.825937 1_555
As6 O38 1.690964 1_565
As6 O14 1.698371 1_565
As6 O18 1.704008 1_555
As6 O22 1.825937 1_555
As7 O39 1.690964 1_545
As7 O15 1.698371 1_545
As7 O19 1.704008 1_555
As7 O23 1.825937 1_555
As8 O24 1.680160 1_555
As8 O0 1.705381 1_555
As8 O32 1.718028 1_555
As8 O44 1.828722 1_555
As9 O25 1.680160 1_555
As9 O1 1.705381 1_555
As9 O33 1.718028 1_555
As9 O45 1.828722 1_555
As10 O26 1.680160 1_555
As10 O2 1.705381 1_555
As10 O34 1.718028 1_555
As10 O46 1.828722 1_555
As11 O27 1.680160 1_556
As11 O3 1.705381 1_556
As11 O35 1.718028 1_555
As11 O47 1.828722 1_555
As12 O40 1.688605 1_555
As12 O48 1.710791 1_555
As12 O52 1.711012 1_555
As12 O20 1.803719 1_555
As13 O41 1.688605 1_555
As13 O49 1.710791 1_555
As13 O53 1.711016 1_555
As13 O21 1.803719 1_555
As14 O42 1.688605 1_555
As14 O50 1.710791 1_555
As14 O54 1.711012 1_555
As14 O22 1.803719 1_555
As15 O43 1.688605 1_555
As15 O51 1.710791 1_555
As15 O55 1.711016 1_555
As15 O23 1.803719 1_555
O0 Sr4 2.613565 1_555
O0 Sr3 2.639410 1_565
O0 Sr15 3.099093 1_455
O1 Sr5 2.613565 1_555
O1 Sr2 2.639410 1_545
O1 Sr14 3.099093 1_655
O2 Sr6 2.613565 1_555
O2 Sr0 2.639410 1_655
O2 Sr12 3.099093 1_565
O3 Sr7 2.613565 1_555
O3 Sr1 2.639410 1_455
O3 Sr13 3.099093 1_545
O4 Sr6 2.634469 1_555
O4 Sr12 2.763410 1_565
O4 Sr0 3.034077 1_555
O5 Sr7 2.634469 1_555
O5 Sr13 2.763410 1_545
O5 Sr1 3.034077 1_555
O6 Sr5 2.634469 1_555
O6 Sr14 2.763410 1_655
O6 Sr2 3.034077 1_555
O7 Sr4 2.634469 1_555
O7 Sr15 2.763410 1_455
O7 Sr3 3.034077 1_555
O8 Sr6 2.587658 1_455
O8 Sr8 2.697992 1_555
O8 Sr0 2.700152 1_555
O9 Sr7 2.587658 1_655
O9 Sr9 2.697992 1_555
O9 Sr1 2.700152 1_555
O10 Sr5 2.587658 1_565
O10 Sr10 2.697992 1_555
O10 Sr2 2.700152 1_555
O11 Sr4 2.587658 1_545
O11 Sr11 2.697992 1_555
O11 Sr3 2.700152 1_555
O12 Sr8 2.504948 1_655
O12 Sr0 2.577773 1_655
O13 Sr9 2.504948 1_455
O13 Sr1 2.577773 1_455
O14 Sr10 2.504948 1_545
O14 Sr2 2.577773 1_545
O15 Sr11 2.504948 1_565
O15 Sr3 2.577773 1_565
O16 Sr0 2.616318 1_545
O16 Sr12 2.618178 1_555
O17 Sr1 2.616318 1_565
O17 Sr13 2.618178 1_555
O18 Sr2 2.616318 1_455
O18 Sr14 2.618178 1_555
O19 Sr3 2.616318 1_655
O19 Sr15 2.618178 1_555
O20 Sr0 2.924147 1_555
O21 Sr1 2.924147 1_556
O22 Sr2 2.924147 1_555
O23 Sr3 2.924147 1_555
O24 Sr15 2.536456 1_555
O24 Sr3 3.289573 1_555
O25 Sr14 2.536456 1_555
O25 Sr2 3.289573 1_555
O26 Sr12 2.536456 1_555
O26 Sr0 3.289573 1_555
O27 Sr13 2.536456 1_555
O27 Sr1 3.289573 1_555
O28 Sr8 2.502715 1_555
O28 Sr3 2.563821 1_555
O29 Sr9 2.502715 1_555
O29 Sr2 2.563821 1_555
O30 Sr10 2.502715 1_555
O30 Sr0 2.563821 1_555
O31 Sr11 2.502715 1_555
O31 Sr1 2.563821 1_556
O32 Sr8 2.527214 1_555
O32 Sr3 2.663192 1_555
O32 Sr15 2.689280 1_455
O33 Sr9 2.527214 1_555
O33 Sr2 2.663192 1_555
O33 Sr14 2.689280 1_655
O34 Sr10 2.527214 1_555
O34 Sr0 2.663192 1_555
O34 Sr12 2.689280 1_565
O35 Sr11 2.527214 1_555
O35 Sr1 2.663192 1_556
O35 Sr13 2.689280 1_546
O36 Sr5 2.526779 1_555
O36 Sr12 2.593869 1_555
O37 Sr4 2.526779 1_555
O37 Sr13 2.593869 1_556
O38 Sr7 2.526779 1_555
O38 Sr14 2.593869 1_555
O39 Sr6 2.526779 1_555
O39 Sr15 2.593869 1_555
O40 Sr10 2.508727 1_555
O40 Sr14 2.816741 1_555
O41 Sr11 2.508727 1_555
O41 Sr15 2.816741 1_555
O42 Sr9 2.508727 1_555
O42 Sr13 2.816741 1_555
O43 Sr8 2.508727 1_555
O43 Sr12 2.816741 1_555
O44 Sr6 2.854857 1_555
O45 Sr7 2.854857 1_555
O46 Sr5 2.854857 1_555
O47 Sr4 2.854857 1_555
O48 Sr5 2.624762 1_455
O48 Sr14 2.855306 1_555
O48 Sr10 2.951172 1_545
O49 Sr4 2.624762 1_655
O49 Sr15 2.855306 1_555
O49 Sr11 2.951172 1_565
O50 Sr7 2.624762 1_565
O50 Sr13 2.855306 1_555
O50 Sr9 2.951172 1_455
O51 Sr6 2.624762 1_545
O51 Sr12 2.855306 1_555
O51 Sr8 2.951172 1_655
O52 Sr5 2.593185 1_555
O52 Sr10 2.621234 1_545
O52 Sr12 2.899865 1_555
O53 Sr4 2.593186 1_555
O53 Sr11 2.621227 1_565
O53 Sr13 2.899864 1_556
O54 Sr7 2.593185 1_555
O54 Sr9 2.621234 1_455
O54 Sr14 2.899865 1_555
O55 Sr6 2.593186 1_555
O55 Sr8 2.621227 1_655
O55 Sr15 2.899864 1_555
