# generated using pymatgen
data_CeAlCu4
_symmetry_space_group_name_H-M   'P 1'
_cell_length_a   5.08966118
_cell_length_b   5.08966118
_cell_length_c   4.14485220
_cell_angle_alpha   90.00000000
_cell_angle_beta   90.00000000
_cell_angle_gamma   119.31185501
_symmetry_Int_Tables_number   1
_chemical_formula_structural   CeAlCu4
_chemical_formula_sum   'Ce1 Al1 Cu4'
_cell_volume   93.62403150
_cell_formula_units_Z   1
loop_
 _symmetry_equiv_pos_site_id
 _symmetry_equiv_pos_as_xyz
  1  'x, y, z'
loop_
 _atom_site_type_symbol
 _atom_site_label
 _atom_site_symmetry_multiplicity
 _atom_site_fract_x
 _atom_site_fract_y
 _atom_site_fract_z
 _atom_site_occupancy
  Ce  Ce0  1  0.50000000  0.50000000  -0.00000000  1
  Al  Al0  1  -0.00000000  0.00000000  0.50000000  1
  Cu  Cu0  1  0.16738195  0.83261805  -0.00000000  1
  Cu  Cu1  1  0.83261805  0.16738195  0.00000000  1
  Cu  Cu2  1  -0.00000000  0.50000000  0.50000000  1
  Cu  Cu3  1  0.50000000  0.00000000  0.50000000  1
loop_
_geom_bond_atom_site_label_1
_geom_bond_atom_site_label_2
_geom_bond_distance
_geom_bond_site_symmetry_2
Ce0 Cu0 2.921993 1_555
Ce0 Cu1 2.921993 1_555
Ce0 Cu0 2.962007 1_655
Ce0 Cu1 2.962007 1_455
Ce0 Cu1 2.962007 1_565
Ce0 Cu0 2.962007 1_545
Ce0 Cu3 3.281937 1_554
Ce0 Cu2 3.281937 1_654
Ce0 Cu3 3.281937 1_565
Ce0 Cu2 3.281937 1_655
Ce0 Cu3 3.281937 1_555
Ce0 Cu3 3.281937 1_564
Ce0 Cu2 3.281937 1_554
Ce0 Cu2 3.281937 1_555
Al0 Cu1 2.541080 1_456
Al0 Cu1 2.541080 1_455
Al0 Cu0 2.541080 1_546
Al0 Cu0 2.541080 1_545
Al0 Cu3 2.544831 1_455
Al0 Cu2 2.544831 1_555
Al0 Cu2 2.544831 1_545
Al0 Cu3 2.544831 1_555
Al0 Ce0 3.302468 1_445
Al0 Ce0 3.302468 1_446
Al0 Ce0 3.302468 1_555
Al0 Ce0 3.302468 1_556
Cu0 Cu2 2.544514 1_555
Cu0 Cu3 2.544514 1_565
Cu0 Cu3 2.544514 1_564
Cu0 Cu2 2.544514 1_554
Cu0 Cu1 2.940843 1_465
Cu0 Cu1 2.952695 1_565
Cu0 Cu1 2.952695 1_455
Cu1 Cu3 2.544514 1_554
Cu1 Cu2 2.544514 1_654
Cu1 Cu2 2.544514 1_655
Cu1 Cu3 2.544514 1_555
Cu2 Cu3 2.571254 1_565
Cu2 Cu3 2.571254 1_455
