# generated using pymatgen
data_K4SnO3
_symmetry_space_group_name_H-M   'P 1'
_cell_length_a   6.47875451
_cell_length_b   11.22487629
_cell_length_c   18.87698213
_cell_angle_alpha   90.00000000
_cell_angle_beta   90.00000000
_cell_angle_gamma   90.00000000
_symmetry_Int_Tables_number   1
_chemical_formula_structural   K4SnO3
_chemical_formula_sum   'K32 Sn8 O24'
_cell_volume   1372.79488451
_cell_formula_units_Z   8
loop_
 _symmetry_equiv_pos_site_id
 _symmetry_equiv_pos_as_xyz
  1  'x, y, z'
loop_
 _atom_site_type_symbol
 _atom_site_label
 _atom_site_symmetry_multiplicity
 _atom_site_fract_x
 _atom_site_fract_y
 _atom_site_fract_z
 _atom_site_occupancy
  K  K0  1  0.87495374  0.32448684  0.34505035  1
  K  K1  1  0.37495374  0.17551316  0.65494965  1
  K  K2  1  0.12504626  0.82448684  0.15494965  1
  K  K3  1  0.62504626  0.67551316  0.84505035  1
  K  K4  1  0.12504626  0.67551316  0.65494965  1
  K  K5  1  0.62504626  0.82448684  0.34505035  1
  K  K6  1  0.87495374  0.17551316  0.84505035  1
  K  K7  1  0.37495374  0.32448684  0.15494965  1
  K  K8  1  0.74263694  0.05653666  0.46383684  1
  K  K9  1  0.24263694  0.44346334  0.53616316  1
  K  K10  1  0.25736306  0.55653666  0.03616316  1
  K  K11  1  0.75736306  0.94346334  0.96383684  1
  K  K12  1  0.25736306  0.94346334  0.53616316  1
  K  K13  1  0.75736306  0.55653666  0.46383684  1
  K  K14  1  0.74263694  0.44346334  0.96383684  1
  K  K15  1  0.24263694  0.05653666  0.03616316  1
  K  K16  1  0.72703977  0.18923072  0.05611610  1
  K  K17  1  0.22703977  0.31076928  0.94388390  1
  K  K18  1  0.27296023  0.68923072  0.44388390  1
  K  K19  1  0.77296023  0.81076928  0.55611610  1
  K  K20  1  0.27296023  0.81076928  0.94388390  1
  K  K21  1  0.77296023  0.68923072  0.05611610  1
  K  K22  1  0.72703977  0.31076928  0.55611610  1
  K  K23  1  0.22703977  0.18923072  0.44388390  1
  K  K24  1  0.54654428  0.11323226  0.29687838  1
  K  K25  1  0.04654428  0.38676774  0.70312162  1
  K  K26  1  0.45345572  0.61323226  0.20312162  1
  K  K27  1  0.95345572  0.88676774  0.79687838  1
  K  K28  1  0.45345572  0.88676774  0.70312162  1
  K  K29  1  0.95345572  0.61323226  0.29687838  1
  K  K30  1  0.54654428  0.38676774  0.79687838  1
  K  K31  1  0.04654428  0.11323226  0.20312162  1
  Sn  Sn0  1  0.89025282  0.43173281  0.14962401  1
  Sn  Sn1  1  0.39025282  0.06826719  0.85037599  1
  Sn  Sn2  1  0.10974718  0.93173281  0.35037599  1
  Sn  Sn3  1  0.60974718  0.56826719  0.64962401  1
  Sn  Sn4  1  0.10974718  0.56826719  0.85037599  1
  Sn  Sn5  1  0.60974718  0.93173281  0.14962401  1
  Sn  Sn6  1  0.89025282  0.06826719  0.64962401  1
  Sn  Sn7  1  0.39025282  0.43173281  0.35037599  1
  O  O0  1  0.95981539  0.09343949  0.34396151  1
  O  O1  1  0.45981539  0.40656051  0.65603849  1
  O  O2  1  0.04018461  0.59343949  0.15603849  1
  O  O3  1  0.54018461  0.90656051  0.84396151  1
  O  O4  1  0.04018461  0.90656051  0.65603849  1
  O  O5  1  0.54018461  0.59343949  0.34396151  1
  O  O6  1  0.95981539  0.40656051  0.84396151  1
  O  O7  1  0.45981539  0.09343949  0.15603849  1
  O  O8  1  0.62444589  0.48126106  0.09827706  1
  O  O9  1  0.12444589  0.01873894  0.90172294  1
  O  O10  1  0.37555411  0.98126106  0.40172294  1
  O  O11  1  0.87555411  0.51873894  0.59827706  1
  O  O12  1  0.37555411  0.51873894  0.90172294  1
  O  O13  1  0.87555411  0.98126106  0.09827706  1
  O  O14  1  0.62444589  0.01873894  0.59827706  1
  O  O15  1  0.12444589  0.48126106  0.40172294  1
  O  O16  1  0.54305246  0.35145661  0.43338232  1
  O  O17  1  0.04305246  0.14854339  0.56661768  1
  O  O18  1  0.45694754  0.85145661  0.06661768  1
  O  O19  1  0.95694754  0.64854339  0.93338232  1
  O  O20  1  0.45694754  0.64854339  0.56661768  1
  O  O21  1  0.95694754  0.85145661  0.43338232  1
  O  O22  1  0.54305246  0.14854339  0.93338232  1
  O  O23  1  0.04305246  0.35145661  0.06661768  1
loop_
_geom_bond_atom_site_label_1
_geom_bond_atom_site_label_2
_geom_bond_distance
_geom_bond_site_symmetry_2
K0 O15 2.618020 1_655
K0 O0 2.651194 1_555
K0 O16 2.737851 1_555
K1 O14 2.618020 1_555
K1 O1 2.651194 1_555
K1 O17 2.737851 1_555
K2 O13 2.618020 1_455
K2 O2 2.651194 1_555
K2 O18 2.737851 1_555
K3 O12 2.618020 1_555
K3 O3 2.651194 1_555
K3 O19 2.737851 1_555
K4 O11 2.618020 1_455
K4 O4 2.651194 1_555
K4 O20 2.737851 1_555
K5 O10 2.618020 1_555
K5 O5 2.651194 1_555
K5 O21 2.737851 1_555
K6 O9 2.618020 1_655
K6 O6 2.651194 1_555
K6 O22 2.737851 1_555
K7 O8 2.618020 1_555
K7 O7 2.651194 1_555
K7 O23 2.737851 1_555
K8 O14 2.684569 1_555
K8 O0 2.696667 1_555
K8 O21 2.749096 1_545
K8 O10 2.782946 1_545
K8 O17 2.935831 1_655
K9 O15 2.684569 1_555
K9 O1 2.696667 1_555
K9 O20 2.749096 1_555
K9 O11 2.782946 1_455
K9 O16 2.935831 1_555
K10 O12 2.684569 1_554
K10 O2 2.696667 1_555
K10 O23 2.749096 1_555
K10 O8 2.782946 1_555
K10 O19 2.935831 1_454
K11 O13 2.684569 1_556
K11 O3 2.696667 1_555
K11 O22 2.749096 1_565
K11 O9 2.782946 1_665
K11 O18 2.935831 1_556
K12 O10 2.684569 1_555
K12 O4 2.696667 1_555
K12 O17 2.749096 1_565
K12 O14 2.782946 1_565
K12 O21 2.935831 1_455
K13 O11 2.684569 1_555
K13 O5 2.696667 1_555
K13 O16 2.749096 1_555
K13 O15 2.782946 1_655
K13 O20 2.935831 1_555
K14 O8 2.684569 1_556
K14 O6 2.696667 1_555
K14 O19 2.749096 1_555
K14 O12 2.782946 1_555
K14 O23 2.935831 1_656
K15 O9 2.684569 1_554
K15 O7 2.696667 1_555
K15 O18 2.749096 1_545
K15 O13 2.782946 1_445
K15 O22 2.935831 1_554
K16 O22 2.645228 1_554
K16 O13 2.647413 1_545
K16 O23 2.747168 1_655
K16 O7 2.776934 1_555
K17 O23 2.645228 1_556
K17 O12 2.647413 1_555
K17 O22 2.747168 1_555
K17 O6 2.776934 1_455
K18 O20 2.645228 1_555
K18 O15 2.647413 1_555
K18 O21 2.747168 1_455
K18 O5 2.776934 1_555
K19 O21 2.645228 1_555
K19 O14 2.647413 1_565
K19 O20 2.747168 1_555
K19 O4 2.776934 1_655
K20 O18 2.645228 1_556
K20 O9 2.647413 1_565
K20 O19 2.747168 1_455
K20 O3 2.776934 1_555
K21 O19 2.645228 1_554
K21 O8 2.647413 1_555
K21 O18 2.747168 1_555
K21 O2 2.776934 1_655
K22 O16 2.645228 1_555
K22 O11 2.647413 1_555
K22 O17 2.747168 1_655
K22 O1 2.776934 1_555
K23 O17 2.645228 1_555
K23 O10 2.647413 1_545
K23 O16 2.747168 1_555
K23 O0 2.776934 1_455
K24 O10 2.709001 1_545
K24 O7 2.726428 1_555
K24 O0 2.829879 1_555
K25 O11 2.709001 1_455
K25 O6 2.726428 1_455
K25 O1 2.829879 1_555
K26 O8 2.709001 1_555
K26 O5 2.726428 1_555
K26 O2 2.829879 1_555
K27 O9 2.709001 1_665
K27 O4 2.726428 1_655
K27 O3 2.829879 1_555
K28 O14 2.709001 1_565
K28 O3 2.726428 1_555
K28 O4 2.829879 1_555
K29 O15 2.709001 1_655
K29 O2 2.726428 1_655
K29 O5 2.829879 1_555
K30 O12 2.709001 1_555
K30 O1 2.726428 1_555
K30 O6 2.829879 1_555
K31 O13 2.709001 1_445
K31 O0 2.726428 1_455
K31 O7 2.829879 1_555
O0 Sn2 2.062268 1_645
O1 Sn3 2.062268 1_555
O2 Sn0 2.062268 1_455
O3 Sn1 2.062268 1_565
O4 Sn6 2.062268 1_465
O5 Sn7 2.062268 1_555
O6 Sn4 2.062268 1_655
O7 Sn5 2.062268 1_545
O8 Sn0 2.052850 1_555
O9 Sn1 2.052850 1_555
O10 Sn2 2.052850 1_555
O11 Sn3 2.052850 1_555
O12 Sn4 2.052850 1_555
O13 Sn5 2.052850 1_555
O14 Sn6 2.052850 1_555
O15 Sn7 2.052850 1_555
O16 Sn7 2.060867 1_555
O17 Sn6 2.060867 1_455
O18 Sn5 2.060867 1_555
O19 Sn4 2.060867 1_655
O20 Sn3 2.060867 1_555
O21 Sn2 2.060867 1_655
O22 Sn1 2.060867 1_555
O23 Sn0 2.060867 1_455
