# generated using pymatgen
data_BaAl9Fe2
_symmetry_space_group_name_H-M   'P 1'
_cell_length_a   7.94126109
_cell_length_b   7.94125808
_cell_length_c   3.95048738
_cell_angle_alpha   90.00000000
_cell_angle_beta   90.00000000
_cell_angle_gamma   119.99998548
_symmetry_Int_Tables_number   1
_chemical_formula_structural   BaAl9Fe2
_chemical_formula_sum   'Ba1 Al9 Fe2'
_cell_volume   215.75464740
_cell_formula_units_Z   1
loop_
 _symmetry_equiv_pos_site_id
 _symmetry_equiv_pos_as_xyz
  1  'x, y, z'
loop_
 _atom_site_type_symbol
 _atom_site_label
 _atom_site_symmetry_multiplicity
 _atom_site_fract_x
 _atom_site_fract_y
 _atom_site_fract_z
 _atom_site_occupancy
  Ba  Ba0  1  -0.00000000  -0.00000000  -0.00000000  1
  Al  Al0  1  0.50000000  -0.00000000  -0.00000000  1
  Al  Al1  1  0.50000000  0.50000000  -0.00000000  1
  Al  Al2  1  -0.00000000  0.50000000  -0.00000000  1
  Al  Al3  1  0.21834627  0.43669054  0.50000000  1
  Al  Al4  1  0.78165373  0.21834627  0.50000000  1
  Al  Al5  1  0.43669054  0.21834627  0.50000000  1
  Al  Al6  1  0.56330946  0.78165373  0.50000000  1
  Al  Al7  1  0.21834627  0.78165373  0.50000000  1
  Al  Al8  1  0.78165373  0.56330946  0.50000000  1
  Fe  Fe0  1  0.66666700  0.33333300  -0.00000000  1
  Fe  Fe1  1  0.33333300  0.66666700  -0.00000000  1
loop_
_geom_bond_atom_site_label_1
_geom_bond_atom_site_label_2
_geom_bond_distance
_geom_bond_site_symmetry_2
Al0 Fe1 2.292442 1_545
Al0 Fe0 2.292442 1_555
Al0 Al4 2.834189 1_555
Al0 Al7 2.834189 1_544
Al0 Al7 2.834189 1_545
Al0 Al4 2.834189 1_554
Al0 Al6 2.834196 1_545
Al0 Al5 2.834196 1_554
Al0 Al5 2.834196 1_555
Al0 Al6 2.834196 1_544
Al1 Fe1 2.292449 1_555
Al1 Fe0 2.292449 1_555
Al1 Al5 2.834185 1_554
Al1 Al5 2.834185 1_555
Al1 Al6 2.834185 1_555
Al1 Al6 2.834185 1_554
Al1 Al3 2.834185 1_554
Al1 Al3 2.834185 1_555
Al1 Al8 2.834185 1_554
Al1 Al8 2.834185 1_555
Al2 Fe1 2.292443 1_555
Al2 Fe0 2.292443 1_455
Al2 Al4 2.834189 1_454
Al2 Al4 2.834189 1_455
Al2 Al7 2.834189 1_554
Al2 Al7 2.834189 1_555
Al2 Al8 2.834196 1_455
Al2 Al3 2.834196 1_554
Al2 Al8 2.834196 1_454
Al2 Al3 2.834196 1_555
Al3 Fe1 2.530439 1_555
Al3 Fe1 2.530439 1_556
Al3 Al7 2.739442 1_555
Al3 Al6 2.739443 1_555
Al3 Al5 3.003252 1_555
Al3 Al4 3.003281 1_455
Al3 Ba0 3.594606 1_556
Al3 Ba0 3.594606 1_555
Al4 Fe0 2.530427 1_555
Al4 Fe0 2.530427 1_556
Al4 Al8 2.739442 1_555
Al4 Al5 2.739443 1_555
Al4 Al6 3.003280 1_545
Al4 Ba0 3.594618 1_656
Al4 Ba0 3.594618 1_655
Al5 Fe0 2.530440 1_555
Al5 Fe0 2.530440 1_556
Al5 Al8 2.739443 1_555
Al5 Al7 3.003280 1_545
Al5 Ba0 3.594607 1_556
Al5 Ba0 3.594607 1_555
Al6 Fe1 2.530440 1_555
Al6 Fe1 2.530440 1_556
Al6 Al7 2.739443 1_555
Al6 Al8 3.003252 1_555
Al6 Ba0 3.594607 1_665
Al6 Ba0 3.594607 1_666
Al7 Fe1 2.530427 1_556
Al7 Fe1 2.530427 1_555
Al7 Al8 3.003281 1_455
Al7 Ba0 3.594618 1_566
Al7 Ba0 3.594618 1_565
Al8 Fe0 2.530439 1_555
Al8 Fe0 2.530439 1_556
Al8 Ba0 3.594606 1_666
Al8 Ba0 3.594606 1_665
