# generated using pymatgen
data_Mn4Zn3(NiO6)2
_symmetry_space_group_name_H-M   'P 1'
_cell_length_a   6.00672561
_cell_length_b   6.00672561
_cell_length_c   13.24515179
_cell_angle_alpha   77.50423509
_cell_angle_beta   77.50423509
_cell_angle_gamma   90.36386972
_symmetry_Int_Tables_number   1
_chemical_formula_structural   Mn4Zn3(NiO6)2
_chemical_formula_sum   'Mn8 Zn6 Ni4 O24'
_cell_volume   454.81332149
_cell_formula_units_Z   2
loop_
 _symmetry_equiv_pos_site_id
 _symmetry_equiv_pos_as_xyz
  1  'x, y, z'
loop_
 _atom_site_type_symbol
 _atom_site_label
 _atom_site_symmetry_multiplicity
 _atom_site_fract_x
 _atom_site_fract_y
 _atom_site_fract_z
 _atom_site_occupancy
  Mn  Mn0  1  0.50000000  0.00000000  0.00000000  1
  Mn  Mn1  1  0.00000000  0.50000000  0.50000000  1
  Mn  Mn2  1  0.50000000  0.50000000  0.50000000  1
  Mn  Mn3  1  0.16041400  0.16794900  0.16610200  1
  Mn  Mn4  1  0.83958600  0.83205100  0.83389800  1
  Mn  Mn5  1  0.16794900  0.16041400  0.66610200  1
  Mn  Mn6  1  0.83205100  0.83958600  0.33389800  1
  Mn  Mn7  1  0.50000000  0.50000000  0.00000000  1
  Zn  Zn0  1  0.30068100  0.02264400  0.41610800  1
  Zn  Zn1  1  0.97735600  0.69931900  0.08389200  1
  Zn  Zn2  1  0.63443300  0.36556700  0.75000000  1
  Zn  Zn3  1  0.02264400  0.30068100  0.91610800  1
  Zn  Zn4  1  0.69931900  0.97735600  0.58389200  1
  Zn  Zn5  1  0.36556700  0.63443300  0.25000000  1
  Ni  Ni0  1  0.16698100  0.66406600  0.66769300  1
  Ni  Ni1  1  0.83301900  0.33593400  0.33230700  1
  Ni  Ni2  1  0.66406600  0.16698100  0.16769300  1
  Ni  Ni3  1  0.33593400  0.83301900  0.83230700  1
  O  O0  1  0.07616000  0.07155000  0.82271700  1
  O  O1  1  0.75485000  0.76341000  0.48745700  1
  O  O2  1  0.39961400  0.39571200  0.16266700  1
  O  O3  1  0.92845000  0.92384000  0.67728300  1
  O  O4  1  0.60428800  0.60038600  0.33733300  1
  O  O5  1  0.23659000  0.24515000  0.01254300  1
  O  O6  1  0.38467700  0.92645900  0.67159800  1
  O  O7  1  0.05182500  0.59540600  0.34305800  1
  O  O8  1  0.70479600  0.25117200  0.00406400  1
  O  O9  1  0.07354100  0.61532300  0.82840200  1
  O  O10  1  0.74882800  0.29520400  0.49593600  1
  O  O11  1  0.40459400  0.94817500  0.15694200  1
  O  O12  1  0.24515000  0.23659000  0.51254300  1
  O  O13  1  0.92384000  0.92845000  0.17728300  1
  O  O14  1  0.60038600  0.60428800  0.83733300  1
  O  O15  1  0.39571200  0.39961400  0.66266700  1
  O  O16  1  0.07155000  0.07616100  0.32271700  1
  O  O17  1  0.76341000  0.75485000  0.98745700  1
  O  O18  1  0.94817500  0.40459400  0.65694200  1
  O  O19  1  0.61532300  0.07354100  0.32840200  1
  O  O20  1  0.29520400  0.74882800  0.99593600  1
  O  O21  1  0.25117200  0.70479600  0.50406400  1
  O  O22  1  0.92645900  0.38467700  0.17159800  1
  O  O23  1  0.59540600  0.05182500  0.84305800  1
loop_
_geom_bond_atom_site_label_1
_geom_bond_atom_site_label_2
_geom_bond_distance
_geom_bond_site_symmetry_2
Mn0 O20 1.957713 1_544
Mn0 O8 1.957713 1_555
Mn0 O11 1.987111 1_545
Mn0 O23 1.987111 1_554
Mn0 O17 2.172824 1_544
Mn0 O5 2.172824 1_555
Mn1 O21 1.957713 1_555
Mn1 O10 1.957713 1_455
Mn1 O7 1.987111 1_555
Mn1 O18 1.987111 1_455
Mn1 O12 2.172824 1_555
Mn1 O1 2.172824 1_455
Mn2 O21 1.940959 1_555
Mn2 O10 1.940959 1_555
Mn2 O4 2.060837 1_555
Mn2 O15 2.060837 1_555
Mn2 O1 2.149391 1_555
Mn2 O12 2.149391 1_555
Mn3 O22 1.922213 1_455
Mn3 O5 1.935883 1_555
Mn3 O2 1.964185 1_555
Mn3 O13 1.975254 1_445
Mn3 O16 1.978429 1_555
Mn3 O11 1.981316 1_545
Mn4 O9 1.922213 1_655
Mn4 O17 1.935883 1_555
Mn4 O14 1.964185 1_555
Mn4 O0 1.975254 1_665
Mn4 O3 1.978430 1_555
Mn4 O23 1.981316 1_565
Mn5 O6 1.922213 1_545
Mn5 O12 1.935883 1_555
Mn5 O15 1.964185 1_555
Mn5 O3 1.975254 1_445
Mn5 O0 1.978430 1_555
Mn5 O18 1.981316 1_455
Mn6 O19 1.922213 1_565
Mn6 O1 1.935883 1_555
Mn6 O4 1.964185 1_555
Mn6 O16 1.975258 1_665
Mn6 O13 1.978430 1_555
Mn6 O7 1.981316 1_655
Mn7 O8 1.940959 1_555
Mn7 O20 1.940959 1_554
Mn7 O2 2.060837 1_555
Mn7 O14 2.060837 1_554
Mn7 O17 2.149391 1_554
Mn7 O5 2.149391 1_555
Ni0 O9 2.035429 1_555
Ni0 O6 2.057943 1_555
Ni0 O21 2.075437 1_555
Ni0 O18 2.080350 1_455
Ni0 O15 2.109337 1_555
Ni0 O3 2.130552 1_455
Ni1 O22 2.035429 1_555
Ni1 O19 2.057943 1_555
Ni1 O10 2.075437 1_555
Ni1 O7 2.080350 1_655
Ni1 O4 2.109337 1_555
Ni1 O16 2.130548 1_655
Ni2 O19 2.035429 1_555
Ni2 O22 2.057943 1_555
Ni2 O8 2.075437 1_555
Ni2 O11 2.080350 1_545
Ni2 O2 2.109337 1_555
Ni2 O13 2.130552 1_545
Ni3 O6 2.035429 1_555
Ni3 O9 2.057943 1_555
Ni3 O20 2.075437 1_555
Ni3 O23 2.080350 1_565
Ni3 O14 2.109337 1_555
Ni3 O0 2.130552 1_565
O0 Zn3 2.024352 1_555
O1 Zn4 1.981329 1_555
O2 Zn5 2.013741 1_555
O3 Zn4 2.024352 1_555
O4 Zn5 2.013741 1_555
O5 Zn3 1.981329 1_554
O6 Zn4 1.975812 1_555
O7 Zn5 1.997480 1_555
O8 Zn3 1.992774 1_654
O9 Zn3 1.975812 1_555
O10 Zn4 1.992774 1_545
O11 Zn5 1.997480 1_555
O12 Zn0 1.981329 1_555
O13 Zn1 2.024352 1_555
O14 Zn2 2.013741 1_555
O15 Zn2 2.013741 1_555
O16 Zn0 2.024352 1_555
O17 Zn1 1.981329 1_556
O18 Zn2 1.997480 1_555
O19 Zn0 1.975812 1_555
O20 Zn1 1.992774 1_456
O21 Zn0 1.992774 1_565
O22 Zn1 1.975812 1_555
O23 Zn2 1.997480 1_555
