# generated using pymatgen
data_NaMg6Nb
_symmetry_space_group_name_H-M   'P 1'
_cell_length_a   6.32647070
_cell_length_b   6.32647070
_cell_length_c   5.10744200
_cell_angle_alpha   90.00000000
_cell_angle_beta   90.00000000
_cell_angle_gamma   119.23378191
_symmetry_Int_Tables_number   1
_chemical_formula_structural   NaMg6Nb
_chemical_formula_sum   'Na1 Mg6 Nb1'
_cell_volume   178.38515698
_cell_formula_units_Z   1
loop_
 _symmetry_equiv_pos_site_id
 _symmetry_equiv_pos_as_xyz
  1  'x, y, z'
loop_
 _atom_site_type_symbol
 _atom_site_label
 _atom_site_symmetry_multiplicity
 _atom_site_fract_x
 _atom_site_fract_y
 _atom_site_fract_z
 _atom_site_occupancy
  Na  Na0  1  0.83470900  0.16529100  0.00000000  1
  Mg  Mg0  1  0.82409900  0.64406700  0.00000000  1
  Mg  Mg1  1  0.35593300  0.17590100  0.00000000  1
  Mg  Mg2  1  0.33356000  0.66644000  0.00000000  1
  Mg  Mg3  1  0.66665500  0.83213300  0.50000000  1
  Mg  Mg4  1  0.16786700  0.33334500  0.50000000  1
  Mg  Mg5  1  0.16303500  0.83696500  0.50000000  1
  Nb  Nb0  1  0.65414200  0.34585800  0.50000000  1
loop_
_geom_bond_atom_site_label_1
_geom_bond_atom_site_label_2
_geom_bond_distance
_geom_bond_site_symmetry_2
Na0 Nb0 3.225841 1_555
Na0 Nb0 3.225841 1_554
Mg0 Mg1 2.996074 1_555
Mg0 Nb0 3.042291 1_555
Mg0 Nb0 3.042291 1_554
Mg0 Na0 3.062304 1_555
Mg0 Mg2 3.156382 1_655
Mg0 Mg5 3.170603 1_654
Mg0 Mg5 3.170603 1_655
Mg0 Mg2 3.174910 1_555
Mg0 Mg3 3.175973 1_554
Mg0 Mg3 3.175973 1_555
Mg0 Na0 3.265252 1_565
Mg0 Mg1 3.403524 1_665
Mg1 Nb0 3.042291 1_555
Mg1 Nb0 3.042291 1_554
Mg1 Na0 3.062304 1_555
Mg1 Mg2 3.156382 1_545
Mg1 Mg5 3.170603 1_545
Mg1 Mg5 3.170603 1_544
Mg1 Mg2 3.174910 1_555
Mg1 Mg4 3.175973 1_554
Mg1 Mg4 3.175973 1_555
Mg1 Na0 3.265252 1_455
Mg2 Mg3 3.146978 1_554
Mg2 Mg3 3.146978 1_555
Mg2 Mg4 3.146978 1_555
Mg2 Mg4 3.146978 1_554
Mg2 Mg5 3.160063 1_555
Mg2 Mg5 3.160063 1_554
Mg2 Na0 3.199824 1_455
Mg2 Na0 3.199824 1_565
Mg3 Nb0 3.038529 1_555
Mg3 Mg5 3.125518 1_655
Mg3 Na0 3.147305 1_565
Mg3 Na0 3.147305 1_566
Mg3 Mg4 3.192043 1_555
Mg3 Mg5 3.201178 1_555
Mg3 Mg4 3.207555 1_665
Mg3 Nb0 3.289453 1_565
Mg4 Nb0 3.038529 1_555
Mg4 Mg5 3.125518 1_545
Mg4 Na0 3.147305 1_455
Mg4 Na0 3.147305 1_456
Mg4 Mg5 3.201178 1_555
Mg4 Nb0 3.289453 1_455
Mg5 Nb0 3.201271 1_565
Mg5 Nb0 3.201271 1_455
