# generated using pymatgen
data_Sr2Bi2Se3O2
_symmetry_space_group_name_H-M   'P 1'
_cell_length_a   4.13642900
_cell_length_b   9.72265742
_cell_length_c   11.62119645
_cell_angle_alpha   100.23200214
_cell_angle_beta   90.00000000
_cell_angle_gamma   90.00000000
_symmetry_Int_Tables_number   1
_chemical_formula_structural   Sr2Bi2Se3O2
_chemical_formula_sum   'Sr4 Bi4 Se6 O4'
_cell_volume   459.93780428
_cell_formula_units_Z   2
loop_
 _symmetry_equiv_pos_site_id
 _symmetry_equiv_pos_as_xyz
  1  'x, y, z'
loop_
 _atom_site_type_symbol
 _atom_site_label
 _atom_site_symmetry_multiplicity
 _atom_site_fract_x
 _atom_site_fract_y
 _atom_site_fract_z
 _atom_site_occupancy
  Sr  Sr0  1  0.50839600  0.71111000  0.60724200  1
  Sr  Sr1  1  0.00839600  0.78889000  0.89275800  1
  Sr  Sr2  1  0.49160400  0.28889000  0.39275800  1
  Sr  Sr3  1  0.99160400  0.21111000  0.10724200  1
  Bi  Bi0  1  0.50203200  0.44647100  0.80934900  1
  Bi  Bi1  1  0.00203200  0.05352900  0.69065100  1
  Bi  Bi2  1  0.49796800  0.55352900  0.19065100  1
  Bi  Bi3  1  0.99796800  0.94647100  0.30934900  1
  Se  Se0  1  0.50000000  0.00000000  0.50000000  1
  Se  Se1  1  0.00000000  0.50000000  0.00000000  1
  Se  Se2  1  0.49959800  0.08730700  0.87043700  1
  Se  Se3  1  0.99959800  0.41269300  0.62956300  1
  Se  Se4  1  0.50040200  0.91269300  0.12956300  1
  Se  Se5  1  0.00040200  0.58730700  0.37043700  1
  O  O0  1  0.49632700  0.33363500  0.18727200  1
  O  O1  1  0.99632700  0.16636500  0.31272800  1
  O  O2  1  0.50367300  0.66636500  0.81272800  1
  O  O3  1  0.00367300  0.83363500  0.68727200  1
loop_
_geom_bond_atom_site_label_1
_geom_bond_atom_site_label_2
_geom_bond_distance
_geom_bond_site_symmetry_2
Bi0 O2 2.131340 1_555
Bi0 Se3 2.909526 1_555
Bi0 Se3 2.923805 1_455
Bi0 Se1 3.002144 1_656
Bi0 Se1 3.013703 1_556
Bi1 O3 2.131340 1_545
Bi1 Se2 2.909526 1_555
Bi1 Se2 2.923805 1_455
Bi1 Se0 3.002144 1_555
Bi1 Se0 3.013703 1_455
Bi2 O0 2.131340 1_555
Bi2 Se5 2.909526 1_555
Bi2 Se5 2.923805 1_655
Bi2 Se1 3.002144 1_555
Bi2 Se1 3.013703 1_655
Bi3 O1 2.131340 1_565
Bi3 Se4 2.909526 1_555
Bi3 Se4 2.923805 1_655
Bi3 Se0 3.002144 1_565
Bi3 Se0 3.013703 1_665
Se0 Sr0 3.269141 1_545
Se0 Sr2 3.269141 1_555
Se1 Sr3 3.269141 1_455
Se1 Sr1 3.269141 1_554
Se2 Sr3 3.462245 1_556
Se2 Sr3 3.501528 1_456
Se2 Sr1 3.589029 1_545
Se2 Sr1 3.630729 1_645
Se3 Sr2 3.462245 1_655
Se3 Sr2 3.501528 1_555
Se3 Sr0 3.589029 1_555
Se3 Sr0 3.630729 1_655
Se4 Sr1 3.462245 1_554
Se4 Sr1 3.501528 1_654
Se4 Sr3 3.589029 1_565
Se4 Sr3 3.630729 1_465
Se5 Sr0 3.462245 1_455
Se5 Sr0 3.501528 1_555
Se5 Sr2 3.589029 1_555
Se5 Sr2 3.630729 1_455
O0 Sr3 2.467300 1_555
O0 Sr3 2.499839 1_455
O0 Sr2 2.502245 1_555
O1 Sr2 2.467300 1_655
O1 Sr2 2.499839 1_555
O1 Sr3 2.502245 1_555
O2 Sr1 2.467300 1_555
O2 Sr1 2.499839 1_655
O2 Sr0 2.502245 1_555
O3 Sr0 2.467300 1_455
O3 Sr0 2.499839 1_555
O3 Sr1 2.502245 1_555
