# generated using pymatgen
data_Np(Al2Cr)4
_symmetry_space_group_name_H-M   'P 1'
_cell_length_a   4.96800100
_cell_length_b   6.69102177
_cell_length_c   6.69102177
_cell_angle_alpha   97.92182972
_cell_angle_beta   111.79234292
_cell_angle_gamma   68.20765708
_symmetry_Int_Tables_number   1
_chemical_formula_structural   Np(Al2Cr)4
_chemical_formula_sum   'Np1 Al8 Cr4'
_cell_volume   191.76243544
_cell_formula_units_Z   1
loop_
 _symmetry_equiv_pos_site_id
 _symmetry_equiv_pos_as_xyz
  1  'x, y, z'
loop_
 _atom_site_type_symbol
 _atom_site_label
 _atom_site_symmetry_multiplicity
 _atom_site_fract_x
 _atom_site_fract_y
 _atom_site_fract_z
 _atom_site_occupancy
  Np  Np0  1  0.00000000  0.00000000  0.00000000  1
  Al  Al0  1  0.66017300  0.33982700  0.66017300  1
  Al  Al1  1  0.33982700  0.66017300  0.33982700  1
  Al  Al2  1  0.00000000  0.33982700  0.33982700  1
  Al  Al3  1  0.00000000  0.66017300  0.66017300  1
  Al  Al4  1  0.71702000  0.78298000  0.21702000  1
  Al  Al5  1  0.28298000  0.21702000  0.78298000  1
  Al  Al6  1  0.50000000  0.78298000  0.78298000  1
  Al  Al7  1  0.50000000  0.21702000  0.21702000  1
  Cr  Cr0  1  0.50000000  0.00000000  0.50000000  1
  Cr  Cr1  1  0.00000000  0.00000000  0.50000000  1
  Cr  Cr2  1  0.50000000  0.50000000  0.00000000  1
  Cr  Cr3  1  0.00000000  0.50000000  0.00000000  1
loop_
_geom_bond_atom_site_label_1
_geom_bond_atom_site_label_2
_geom_bond_distance
_geom_bond_site_symmetry_2
Al0 Cr2 2.643939 1_556
Al0 Cr0 2.643939 1_555
Al0 Cr3 2.643939 1_656
Al0 Cr1 2.643939 1_655
Al0 Al5 2.708236 1_555
Al0 Al5 2.708236 1_655
Al0 Al1 2.814655 1_555
Al0 Al7 2.857007 1_555
Al0 Al6 2.857007 1_555
Al0 Np0 2.985821 1_656
Al1 Cr0 2.643939 1_565
Al1 Cr2 2.643939 1_555
Al1 Cr3 2.643939 1_555
Al1 Cr1 2.643939 1_565
Al1 Al4 2.708236 1_555
Al1 Al4 2.708236 1_455
Al1 Al7 2.857007 1_555
Al1 Al6 2.857007 1_555
Al1 Np0 2.985821 1_565
Al2 Cr1 2.643939 1_555
Al2 Cr3 2.643939 1_555
Al2 Cr0 2.643939 1_555
Al2 Cr2 2.643939 1_455
Al2 Al7 2.708236 1_555
Al2 Al7 2.708236 1_455
Al2 Al3 2.814655 1_555
Al2 Al4 2.857007 1_455
Al2 Al5 2.857007 1_555
Al2 Np0 2.985821 1_555
Al3 Cr1 2.643939 1_565
Al3 Cr3 2.643939 1_556
Al3 Cr0 2.643939 1_465
Al3 Cr2 2.643939 1_556
Al3 Al6 2.708236 1_555
Al3 Al6 2.708236 1_455
Al3 Al4 2.857007 1_455
Al3 Al5 2.857007 1_555
Al3 Np0 2.985821 1_566
Al4 Cr0 2.539975 1_565
Al4 Cr2 2.539975 1_555
Al4 Cr3 2.539975 1_655
Al4 Cr1 2.539975 1_665
Al4 Al7 2.696626 1_565
Al4 Al6 2.696626 1_554
Al4 Np0 3.131478 1_665
Al4 Np0 3.131478 1_565
Al5 Cr0 2.539975 1_555
Al5 Cr2 2.539975 1_556
Al5 Cr1 2.539975 1_555
Al5 Cr3 2.539975 1_556
Al5 Al6 2.696626 1_545
Al5 Al7 2.696626 1_556
Al5 Np0 3.131478 1_556
Al5 Np0 3.131478 1_656
Al6 Cr2 2.539975 1_556
Al6 Cr0 2.539975 1_565
Al6 Cr1 2.539975 1_565
Al6 Cr3 2.539975 1_656
Al6 Np0 3.131478 1_566
Al6 Np0 3.131478 1_666
Al7 Cr2 2.539975 1_555
Al7 Cr0 2.539975 1_555
Al7 Cr1 2.539975 1_655
Al7 Cr3 2.539975 1_555
Al7 Np0 3.131478 1_555
Al7 Np0 3.131478 1_655
Cr0 Cr1 2.484001 1_655
Cr0 Cr1 2.484001 1_555
Cr0 Np0 3.345511 1_656
Cr0 Np0 3.345511 1_555
Cr1 Np0 3.345511 1_555
Cr1 Np0 3.345511 1_556
Cr2 Cr3 2.484001 1_555
Cr2 Cr3 2.484001 1_655
Cr2 Np0 3.345511 1_565
Cr2 Np0 3.345511 1_655
Cr3 Np0 3.345511 1_565
Cr3 Np0 3.345511 1_555
