# generated using pymatgen
data_Al5CuMo2
_symmetry_space_group_name_H-M   'P 1'
_cell_length_a   3.76951200
_cell_length_b   3.76951200
_cell_length_c   8.26474800
_cell_angle_alpha   90.00000000
_cell_angle_beta   90.00000000
_cell_angle_gamma   90.00000000
_symmetry_Int_Tables_number   1
_chemical_formula_structural   Al5CuMo2
_chemical_formula_sum   'Al5 Cu1 Mo2'
_cell_volume   117.43562851
_cell_formula_units_Z   1
loop_
 _symmetry_equiv_pos_site_id
 _symmetry_equiv_pos_as_xyz
  1  'x, y, z'
loop_
 _atom_site_type_symbol
 _atom_site_label
 _atom_site_symmetry_multiplicity
 _atom_site_fract_x
 _atom_site_fract_y
 _atom_site_fract_z
 _atom_site_occupancy
  Al  Al0  1  0.00000000  0.50000000  0.26230900  1
  Al  Al1  1  0.50000000  0.00000000  0.73769100  1
  Al  Al2  1  0.50000000  0.00000000  0.26230900  1
  Al  Al3  1  0.00000000  0.50000000  0.73769100  1
  Al  Al4  1  0.50000000  0.50000000  0.00000000  1
  Cu  Cu0  1  0.00000000  0.00000000  0.50000000  1
  Mo  Mo0  1  0.00000000  0.00000000  0.00000000  1
  Mo  Mo1  1  0.50000000  0.50000000  0.50000000  1
loop_
_geom_bond_atom_site_label_1
_geom_bond_atom_site_label_2
_geom_bond_distance
_geom_bond_site_symmetry_2
Al0 Al2 2.665447 1_555
Al0 Al2 2.665447 1_465
Al0 Al2 2.665447 1_455
Al0 Al2 2.665447 1_565
Al0 Cu0 2.722387 1_555
Al0 Mo1 2.722387 1_555
Al0 Mo1 2.722387 1_455
Al0 Cu0 2.722387 1_565
Al0 Al4 2.872660 1_555
Al0 Mo0 2.872660 1_555
Al0 Mo0 2.872660 1_565
Al0 Al4 2.872660 1_455
Al1 Al3 2.665447 1_645
Al1 Al3 2.665447 1_545
Al1 Al3 2.665447 1_555
Al1 Al3 2.665447 1_655
Al1 Cu0 2.722387 1_555
Al1 Mo1 2.722387 1_555
Al1 Cu0 2.722387 1_655
Al1 Mo1 2.722387 1_545
Al1 Mo0 2.872660 1_656
Al1 Mo0 2.872660 1_556
Al1 Al4 2.872660 1_556
Al1 Al4 2.872660 1_546
Al2 Cu0 2.722387 1_555
Al2 Mo1 2.722387 1_555
Al2 Mo1 2.722387 1_545
Al2 Cu0 2.722387 1_655
Al2 Al4 2.872660 1_545
Al2 Mo0 2.872660 1_555
Al2 Mo0 2.872660 1_655
Al2 Al4 2.872660 1_555
Al3 Cu0 2.722387 1_555
Al3 Mo1 2.722387 1_555
Al3 Mo1 2.722387 1_455
Al3 Cu0 2.722387 1_565
Al3 Al4 2.872660 1_456
Al3 Mo0 2.872660 1_556
Al3 Mo0 2.872660 1_566
Al3 Al4 2.872660 1_556
Al4 Mo0 2.665447 1_655
Al4 Mo0 2.665447 1_665
Al4 Mo0 2.665447 1_555
Al4 Mo0 2.665447 1_565
Cu0 Mo1 2.665447 1_555
Cu0 Mo1 2.665447 1_445
Cu0 Mo1 2.665447 1_455
Cu0 Mo1 2.665447 1_545
