# generated using pymatgen
data_UGe2Ir
_symmetry_space_group_name_H-M   'P 1'
_cell_length_a   4.34107800
_cell_length_b   8.79616400
_cell_length_c   9.39900152
_cell_angle_alpha   117.90006184
_cell_angle_beta   103.35200370
_cell_angle_gamma   90.00000000
_symmetry_Int_Tables_number   1
_chemical_formula_structural   UGe2Ir
_chemical_formula_sum   'U4 Ge8 Ir4'
_cell_volume   306.16252439
_cell_formula_units_Z   4
loop_
 _symmetry_equiv_pos_site_id
 _symmetry_equiv_pos_as_xyz
  1  'x, y, z'
loop_
 _atom_site_type_symbol
 _atom_site_label
 _atom_site_symmetry_multiplicity
 _atom_site_fract_x
 _atom_site_fract_y
 _atom_site_fract_z
 _atom_site_occupancy
  U  U0  1  0.00000000  0.73783300  0.00000000  1
  U  U1  1  0.00000000  0.26216700  0.00000000  1
  U  U2  1  0.79535700  0.29535700  0.59071300  1
  U  U3  1  0.20464300  0.70464300  0.40928700  1
  Ge  Ge0  1  0.42476000  0.92476000  0.84952000  1
  Ge  Ge1  1  0.57524000  0.07524000  0.15048000  1
  Ge  Ge2  1  0.42455700  0.42455700  0.84911300  1
  Ge  Ge3  1  0.57544300  0.57544300  0.15088700  1
  Ge  Ge4  1  0.19916300  0.35239900  0.39832600  1
  Ge  Ge5  1  0.80083700  0.64760100  0.60167400  1
  Ge  Ge6  1  0.19916300  0.04592700  0.39832600  1
  Ge  Ge7  1  0.80083700  0.95407300  0.60167400  1
  Ir  Ir0  1  0.35361900  0.60372900  0.70723900  1
  Ir  Ir1  1  0.64638100  0.39627100  0.29276100  1
  Ir  Ir2  1  0.35361900  0.10351000  0.70723900  1
  Ir  Ir3  1  0.64638100  0.89649000  0.29276100  1
loop_
_geom_bond_atom_site_label_1
_geom_bond_atom_site_label_2
_geom_bond_distance
_geom_bond_site_symmetry_2
Ge0 Ge1 2.413070 1_566
Ge0 Ir0 2.476482 1_555
Ge0 Ir2 2.476482 1_565
Ge0 U0 3.388937 1_556
Ge0 U1 3.388937 1_566
Ge0 U0 3.388937 1_656
Ge0 U1 3.388937 1_666
Ge1 Ir3 2.476482 1_545
Ge1 Ir1 2.476482 1_555
Ge1 U1 3.388937 1_655
Ge1 U0 3.388937 1_645
Ge1 U1 3.388937 1_555
Ge1 U0 3.388937 1_545
Ge2 Ge3 2.419596 1_556
Ge2 Ir0 2.476687 1_555
Ge2 Ir2 2.476695 1_555
Ge2 U2 3.000618 1_455
Ge2 U2 3.000618 1_555
Ge2 U0 3.248286 1_656
Ge2 U0 3.248289 1_556
Ge2 U1 3.248292 1_656
Ge2 U1 3.248295 1_556
Ge3 Ir1 2.476687 1_555
Ge3 Ir3 2.476695 1_555
Ge3 U3 3.000618 1_555
Ge3 U3 3.000618 1_655
Ge3 U1 3.248286 1_555
Ge3 U1 3.248289 1_655
Ge3 U0 3.248292 1_555
Ge3 U0 3.248295 1_655
Ge4 Ir1 2.480013 1_455
Ge4 Ir1 2.480016 1_555
Ge4 Ir0 2.619316 1_555
Ge4 Ge6 2.695778 1_555
Ge4 U2 2.984536 1_455
Ge4 U2 2.984539 1_555
Ge4 U3 3.051454 1_555
Ge4 U1 3.334379 1_555
Ge5 Ir0 2.480013 1_655
Ge5 Ir0 2.480016 1_555
Ge5 Ir1 2.619316 1_555
Ge5 Ge7 2.695778 1_555
Ge5 U3 2.984536 1_655
Ge5 U3 2.984539 1_555
Ge5 U2 3.051454 1_555
Ge5 U0 3.334379 1_656
Ge6 Ir3 2.480013 1_445
Ge6 Ir3 2.480016 1_545
Ge6 Ir2 2.619316 1_555
Ge6 U2 2.984540 1_455
Ge6 U2 2.984543 1_555
Ge6 U3 3.051463 1_545
Ge6 U0 3.334379 1_545
Ge7 Ir2 2.480013 1_665
Ge7 Ir2 2.480016 1_565
Ge7 Ir3 2.619316 1_555
Ge7 U3 2.984540 1_655
Ge7 U3 2.984543 1_555
Ge7 U2 3.051463 1_565
Ge7 U1 3.334379 1_666
Ir0 U0 3.198883 1_556
Ir0 U0 3.198886 1_656
Ir0 U2 3.228642 1_455
Ir0 U2 3.228647 1_555
Ir0 U3 3.246324 1_555
Ir1 U1 3.198883 1_655
Ir1 U1 3.198886 1_555
Ir1 U3 3.228642 1_655
Ir1 U3 3.228647 1_555
Ir1 U2 3.246324 1_555
Ir2 U1 3.198883 1_556
Ir2 U1 3.198886 1_656
Ir2 U2 3.228648 1_455
Ir2 U2 3.228653 1_555
Ir2 U3 3.246330 1_545
Ir3 U0 3.198883 1_655
Ir3 U0 3.198886 1_555
Ir3 U3 3.228648 1_655
Ir3 U3 3.228653 1_555
Ir3 U2 3.246330 1_565
