# generated using pymatgen
data_MgScIr2
_symmetry_space_group_name_H-M   'P 1'
_cell_length_a   10.71771294
_cell_length_b   10.71771294
_cell_length_c   10.71771294
_cell_angle_alpha   127.65089979
_cell_angle_beta   117.56977061
_cell_angle_gamma   85.77478022
_symmetry_Int_Tables_number   1
_chemical_formula_structural   MgScIr2
_chemical_formula_sum   'Mg1 Sc1 Ir2'
_cell_volume   824.84803574
_cell_formula_units_Z   1
loop_
 _symmetry_equiv_pos_site_id
 _symmetry_equiv_pos_as_xyz
  1  'x, y, z'
loop_
 _atom_site_type_symbol
 _atom_site_label
 _atom_site_symmetry_multiplicity
 _atom_site_fract_x
 _atom_site_fract_y
 _atom_site_fract_z
 _atom_site_occupancy
  Mg  Mg0  1  0.00000000  0.00000000  0.00000000  1
  Sc  Sc0  1  0.00000000  0.50000000  0.50000000  1
  Ir  Ir0  1  0.00000000  0.26601300  0.26601300  1
  Ir  Ir1  1  0.00000000  0.73398700  0.73398700  1
loop_
_geom_bond_atom_site_label_1
_geom_bond_atom_site_label_2
_geom_bond_distance
_geom_bond_site_symmetry_2
Ir0 Sc0 2.212422 1_555
Ir0 Mg0 2.515239 1_555
Ir1 Sc0 2.212422 1_555
Ir1 Mg0 2.515239 1_566
