# generated using pymatgen
data_SrCa2Al6(SiO5)6
_symmetry_space_group_name_H-M   'P 1'
_cell_length_a   5.90450800
_cell_length_b   13.71931858
_cell_length_c   14.14559346
_cell_angle_alpha   69.36493523
_cell_angle_beta   78.05431620
_cell_angle_gamma   77.90959223
_symmetry_Int_Tables_number   1
_chemical_formula_structural   SrCa2Al6(SiO5)6
_chemical_formula_sum   'Sr2 Ca4 Al12 Si12 O60'
_cell_volume   1037.41118902
_cell_formula_units_Z   2
loop_
 _symmetry_equiv_pos_site_id
 _symmetry_equiv_pos_as_xyz
  1  'x, y, z'
loop_
 _atom_site_type_symbol
 _atom_site_label
 _atom_site_symmetry_multiplicity
 _atom_site_fract_x
 _atom_site_fract_y
 _atom_site_fract_z
 _atom_site_occupancy
  Sr  Sr0  1  0.13255800  0.46838400  0.25003400  1
  Sr  Sr1  1  0.46548700  0.80157500  0.25002500  1
  Ca  Ca0  1  0.53393000  0.19306400  0.74998700  1
  Ca  Ca1  1  0.86712300  0.52676700  0.74981100  1
  Ca  Ca2  1  0.20063100  0.85971100  0.75004900  1
  Ca  Ca3  1  0.79753100  0.14041100  0.25005300  1
  Al  Al0  1  0.99958500  0.99986500  0.50046700  1
  Al  Al1  1  0.66671200  0.66645000  0.50170900  1
  Al  Al2  1  0.33326700  0.33242000  0.50182700  1
  Al  Al3  1  0.50116800  0.50027300  0.99818500  1
  Al  Al4  1  0.16657400  0.16680600  0.99949900  1
  Al  Al5  1  0.83449400  0.83426700  0.99831700  1
  Al  Al6  1  0.50001100  0.99974800  0.50066600  1
  Al  Al7  1  0.83203400  0.33224400  0.50219900  1
  Al  Al8  1  0.16472100  0.66640500  0.50200800  1
  Al  Al9  1  0.66718400  0.16681400  0.99929400  1
  Al  Al10  1  0.00015000  0.50034200  0.99782000  1
  Al  Al11  1  0.33267400  0.83445500  0.99799500  1
  Si  Si0  1  0.21976100  0.19467800  0.37025000  1
  Si  Si1  1  0.88450200  0.86382600  0.37078300  1
  Si  Si2  1  0.55155300  0.52875200  0.37176700  1
  Si  Si3  1  0.36789800  0.39034200  0.86933200  1
  Si  Si4  1  0.03473900  0.05751700  0.86854600  1
  Si  Si5  1  0.70137800  0.72381700  0.86877400  1
  Si  Si6  1  0.44722700  0.46939100  0.63158600  1
  Si  Si7  1  0.11416500  0.13656500  0.63072900  1
  Si  Si8  1  0.78051300  0.80354100  0.63101700  1
  Si  Si9  1  0.29996800  0.27483700  0.12973900  1
  Si  Si10  1  0.96512600  0.94441500  0.12919000  1
  Si  Si11  1  0.63279600  0.60986100  0.12826400  1
  O  O0  1  0.09241600  0.05317900  0.74952600  1
  O  O1  1  0.75867200  0.72014800  0.74987000  1
  O  O2  1  0.42549500  0.38591100  0.75057300  1
  O  O3  1  0.57964400  0.60578800  0.25001800  1
  O  O4  1  0.24508900  0.27497500  0.25000000  1
  O  O5  1  0.90956600  0.94474300  0.24998800  1
  O  O6  1  0.47478000  0.61643700  0.43253000  1
  O  O7  1  0.14250200  0.28078000  0.43322500  1
  O  O8  1  0.80772400  0.94933200  0.43371400  1
  O  O9  1  0.06947600  0.92979100  0.93107100  1
  O  O10  1  0.73620500  0.59617700  0.93131600  1
  O  O11  1  0.40150800  0.26317300  0.93407800  1
  O  O12  1  0.19083300  0.05255200  0.56597600  1
  O  O13  1  0.85691600  0.71715700  0.56879600  1
  O  O14  1  0.52369900  0.38362500  0.56883500  1
  O  O15  1  0.59647000  0.73806500  0.06748900  1
  O  O16  1  0.26464300  0.40288600  0.06674100  1
  O  O17  1  0.93016400  0.07181000  0.06626300  1
  O  O18  1  0.68626000  0.78996800  0.38877100  1
  O  O19  1  0.35145400  0.45576700  0.38970600  1
  O  O20  1  0.01837400  0.12250000  0.38516700  1
  O  O21  1  0.89070800  0.78685500  0.88433400  1
  O  O22  1  0.55786500  0.45358900  0.88404000  1
  O  O23  1  0.22397500  0.12053900  0.88432200  1
  O  O24  1  0.98042500  0.87687400  0.61546500  1
  O  O25  1  0.64680100  0.54295500  0.61582300  1
  O  O26  1  0.31394900  0.20962400  0.61592000  1
  O  O27  1  0.77878600  0.88245800  0.11124100  1
  O  O28  1  0.44469700  0.54883500  0.11035700  1
  O  O29  1  0.10850500  0.21257100  0.11485000  1
  O  O30  1  0.30241900  0.95319600  0.44048400  1
  O  O31  1  0.96872800  0.62016300  0.44067500  1
  O  O32  1  0.63562700  0.28616600  0.44072600  1
  O  O33  1  0.23827000  0.58648500  0.93895600  1
  O  O34  1  0.90434900  0.25396400  0.93929100  1
  O  O35  1  0.57145900  0.92040600  0.93873400  1
  O  O36  1  0.36379700  0.71289400  0.56134700  1
  O  O37  1  0.03080800  0.37919000  0.56100200  1
  O  O38  1  0.69713300  0.04694000  0.56058000  1
  O  O39  1  0.42931500  0.08018400  0.05951100  1
  O  O40  1  0.09574400  0.74730400  0.05936100  1
  O  O41  1  0.76264700  0.41329200  0.05934700  1
  O  O42  1  0.24686200  0.67691900  0.74965500  1
  O  O43  1  0.91346800  0.34345100  0.75007100  1
  O  O44  1  0.58014000  0.01013800  0.74991900  1
  O  O45  1  0.41916800  0.99863300  0.25015100  1
  O  O46  1  0.08832200  0.66549800  0.25016400  1
  O  O47  1  0.75597100  0.32339000  0.25011600  1
  O  O48  1  0.23185900  0.88652400  0.10758300  1
  O  O49  1  0.89995400  0.55225800  0.10701400  1
  O  O50  1  0.56859200  0.21574100  0.11190900  1
  O  O51  1  0.52454800  0.87562800  0.61332000  1
  O  O52  1  0.19153500  0.54168000  0.61362300  1
  O  O53  1  0.85767200  0.20831200  0.61377700  1
  O  O54  1  0.43364200  0.78409300  0.88655500  1
  O  O55  1  0.10010000  0.45084100  0.88621300  1
  O  O56  1  0.76696300  0.11786300  0.88647300  1
  O  O57  1  0.13690600  0.79158100  0.39241500  1
  O  O58  1  0.80447900  0.45694200  0.39301700  1
  O  O59  1  0.47646600  0.12371300  0.38808500  1
loop_
_geom_bond_atom_site_label_1
_geom_bond_atom_site_label_2
_geom_bond_distance
_geom_bond_site_symmetry_2
Ca0 O53 2.401857 1_555
Ca0 O56 2.405462 1_555
Ca0 O26 2.434681 1_555
Ca0 O23 2.437387 1_555
Ca0 O44 2.467263 1_555
Ca0 O2 2.591048 1_555
Ca1 O52 2.404370 1_655
Ca1 O55 2.404616 1_655
Ca1 O22 2.436512 1_555
Ca1 O25 2.436584 1_555
Ca1 O43 2.470946 1_555
Ca1 O1 2.595845 1_555
Ca2 O54 2.405752 1_555
Ca2 O51 2.406731 1_555
Ca2 O21 2.438244 1_455
Ca2 O24 2.439430 1_455
Ca2 O42 2.466976 1_555
Ca2 O0 2.594422 1_565
Ca3 O59 2.406877 1_555
Ca3 O50 2.408077 1_555
Ca3 O20 2.445428 1_655
Ca3 O29 2.445919 1_655
Ca3 O47 2.470929 1_555
Ca3 O5 2.627045 1_545
Al0 O20 1.890054 1_665
Al0 O24 1.890846 1_555
Al0 O30 1.897996 1_655
Al0 O38 1.898593 1_565
Al0 O8 1.972012 1_555
Al0 O12 1.975743 1_665
Al1 O18 1.880067 1_555
Al1 O25 1.888724 1_555
Al1 O36 1.895650 1_555
Al1 O31 1.898251 1_555
Al1 O13 1.969665 1_555
Al1 O6 1.992680 1_555
Al2 O19 1.872049 1_555
Al2 O26 1.882493 1_555
Al2 O37 1.892467 1_555
Al2 O32 1.900050 1_555
Al2 O14 1.974253 1_555
Al2 O7 1.995921 1_555
Al3 O28 1.872384 1_556
Al3 O22 1.882731 1_555
Al3 O33 1.892432 1_555
Al3 O41 1.899911 1_556
Al3 O10 1.973858 1_555
Al3 O16 1.995925 1_556
Al4 O29 1.890650 1_556
Al4 O23 1.892730 1_555
Al4 O39 1.897746 1_556
Al4 O34 1.898673 1_455
Al4 O17 1.971747 1_456
Al4 O11 1.975616 1_555
Al5 O27 1.879544 1_556
Al5 O21 1.886845 1_555
Al5 O35 1.894738 1_555
Al5 O40 1.898118 1_656
Al5 O9 1.970797 1_655
Al5 O15 1.993008 1_556
Al6 O59 1.879234 1_565
Al6 O51 1.881411 1_555
Al6 O30 1.897440 1_555
Al6 O38 1.898140 1_565
Al6 O8 1.974691 1_555
Al6 O12 1.982539 1_565
Al7 O58 1.861088 1_555
Al7 O53 1.872051 1_555
Al7 O37 1.892778 1_655
Al7 O32 1.900702 1_555
Al7 O14 1.979947 1_555
Al7 O7 2.003463 1_655
Al8 O57 1.868227 1_555
Al8 O52 1.879271 1_555
Al8 O36 1.895484 1_555
Al8 O31 1.898821 1_455
Al8 O13 1.975650 1_455
Al8 O6 1.997943 1_555
Al9 O50 1.879683 1_556
Al9 O56 1.882954 1_555
Al9 O39 1.897681 1_556
Al9 O34 1.898684 1_555
Al9 O17 1.974378 1_556
Al9 O11 1.982479 1_555
Al10 O49 1.861116 1_456
Al10 O55 1.871905 1_555
Al10 O33 1.893319 1_555
Al10 O41 1.901059 1_456
Al10 O10 1.979709 1_455
Al10 O16 2.003467 1_556
Al11 O48 1.867645 1_556
Al11 O54 1.877199 1_555
Al11 O35 1.895129 1_555
Al11 O40 1.899112 1_556
Al11 O9 1.976570 1_555
Al11 O15 1.998981 1_556
O0 Si7 1.663240 1_555
O0 Si4 1.666984 1_555
O1 Si5 1.662223 1_555
O1 Si8 1.663876 1_555
O2 Si3 1.663816 1_555
O2 Si6 1.665709 1_555
O3 Si2 1.668171 1_555
O3 Si11 1.668422 1_555
O3 Sr1 2.628876 1_555
O4 Si0 1.665026 1_555
O4 Si9 1.665166 1_555
O4 Sr0 2.597004 1_555
O5 Si10 1.673393 1_555
O5 Si1 1.673664 1_555
O6 Si2 1.652419 1_555
O7 Si0 1.656731 1_555
O8 Si1 1.649329 1_555
O9 Si4 1.651391 1_565
O10 Si5 1.650445 1_555
O11 Si3 1.651073 1_555
O12 Si7 1.651155 1_555
O13 Si8 1.652145 1_555
O14 Si6 1.650451 1_555
O15 Si11 1.652647 1_555
O16 Si9 1.656450 1_555
O17 Si10 1.648652 1_545
O18 Si1 1.628938 1_555
O18 Sr1 2.515642 1_555
O19 Si2 1.629507 1_555
O19 Sr0 2.515224 1_555
O20 Si0 1.637418 1_555
O21 Si5 1.639245 1_555
O22 Si3 1.638867 1_555
O23 Si4 1.640044 1_555
O24 Si8 1.639474 1_555
O25 Si6 1.639424 1_555
O26 Si7 1.638616 1_555
O27 Si10 1.630045 1_555
O27 Sr1 2.515661 1_555
O28 Si11 1.629140 1_555
O28 Sr0 2.515241 1_555
O29 Si9 1.637694 1_555
O45 Sr1 2.660297 1_555
O46 Sr0 2.662464 1_555
O48 Si10 1.628632 1_455
O48 Sr1 2.478530 1_555
O49 Si11 1.628534 1_555
O49 Sr0 2.480056 1_655
O50 Si9 1.635990 1_555
O51 Si8 1.637348 1_555
O52 Si6 1.637500 1_555
O53 Si7 1.636914 1_655
O54 Si5 1.637240 1_555
O55 Si3 1.637002 1_555
O56 Si4 1.638053 1_655
O57 Si1 1.628897 1_455
O57 Sr1 2.477677 1_555
O58 Si2 1.628488 1_555
O58 Sr0 2.479851 1_655
O59 Si0 1.635825 1_555
