# generated using pymatgen
data_La3Ce
_symmetry_space_group_name_H-M   'P 1'
_cell_length_a   6.34558325
_cell_length_b   6.34558325
_cell_length_c   6.34558325
_cell_angle_alpha   133.04872088
_cell_angle_beta   133.04872088
_cell_angle_gamma   68.57764500
_symmetry_Int_Tables_number   1
_chemical_formula_structural   La3Ce
_chemical_formula_sum   'La3 Ce1'
_cell_volume   134.00274055
_cell_formula_units_Z   1
loop_
 _symmetry_equiv_pos_site_id
 _symmetry_equiv_pos_as_xyz
  1  'x, y, z'
loop_
 _atom_site_type_symbol
 _atom_site_label
 _atom_site_symmetry_multiplicity
 _atom_site_fract_x
 _atom_site_fract_y
 _atom_site_fract_z
 _atom_site_occupancy
  La  La0  1  0.75000000  0.25000000  0.50000000  1
  La  La1  1  0.25000000  0.75000000  0.50000000  1
  La  La2  1  0.50000000  0.50000000  0.00000000  1
  Ce  Ce0  1  0.00000000  0.00000000  0.00000000  1
loop_
_geom_bond_atom_site_label_1
_geom_bond_atom_site_label_2
_geom_bond_distance
_geom_bond_site_symmetry_2
La0 La1 3.574879 1_555
La0 La1 3.574879 1_656
La0 La1 3.574879 1_544
La0 La1 3.574879 1_645
La0 La2 3.641641 1_656
La0 La2 3.641641 1_555
La0 La2 3.641641 1_545
La0 La2 3.641641 1_556
La1 La2 3.641641 1_566
La1 La2 3.641641 1_455
La1 La2 3.641641 1_555
La1 La2 3.641641 1_556
Ce0 La2 3.574879 1_455
Ce0 La2 3.574879 1_545
Ce0 La2 3.574879 1_556
Ce0 La2 3.574879 1_444
Ce0 La0 3.641641 1_454
Ce0 La0 3.641641 1_555
Ce0 La1 3.641641 1_444
Ce0 La0 3.641641 1_444
Ce0 La1 3.641641 1_545
Ce0 La1 3.641641 1_555
Ce0 La1 3.641641 1_544
Ce0 La0 3.641641 1_455
