# generated using pymatgen
data_Dy3Mg2CrS8
_symmetry_space_group_name_H-M   'P 1'
_cell_length_a   7.79011992
_cell_length_b   7.68739852
_cell_length_c   7.79124910
_cell_angle_alpha   59.53639485
_cell_angle_beta   59.99946658
_cell_angle_gamma   59.54991878
_symmetry_Int_Tables_number   1
_chemical_formula_structural   Dy3Mg2CrS8
_chemical_formula_sum   'Dy3 Mg2 Cr1 S8'
_cell_volume   327.62741877
_cell_formula_units_Z   1
loop_
 _symmetry_equiv_pos_site_id
 _symmetry_equiv_pos_as_xyz
  1  'x, y, z'
loop_
 _atom_site_type_symbol
 _atom_site_label
 _atom_site_symmetry_multiplicity
 _atom_site_fract_x
 _atom_site_fract_y
 _atom_site_fract_z
 _atom_site_occupancy
  Dy  Dy0  1  0.49994100  0.50005200  0.49999500  1
  Dy  Dy1  1  0.49991600  0.50000000  0.00001000  1
  Dy  Dy2  1  0.99998700  0.49999000  0.49997900  1
  Mg  Mg0  1  0.87506700  0.87457100  0.87521000  1
  Mg  Mg1  1  0.12483000  0.12547200  0.12483200  1
  Cr  Cr0  1  0.50048400  0.99975600  0.49995300  1
  S  S0  1  0.72891100  0.77129100  0.72879200  1
  S  S1  1  0.27099600  0.22887700  0.72912400  1
  S  S2  1  0.25429500  0.73719900  0.25410500  1
  S  S3  1  0.72899100  0.22879700  0.27120700  1
  S  S4  1  0.74560300  0.26285200  0.74587500  1
  S  S5  1  0.27097200  0.77124500  0.72878100  1
  S  S6  1  0.27105800  0.22872300  0.27127100  1
  S  S7  1  0.72895500  0.77117000  0.27086700  1
loop_
_geom_bond_atom_site_label_1
_geom_bond_atom_site_label_2
_geom_bond_distance
_geom_bond_site_symmetry_2
Dy0 S2 2.691548 1_555
Dy0 S4 2.691564 1_555
Dy0 S1 2.743076 1_555
Dy0 S7 2.743126 1_555
Dy0 S5 2.743127 1_555
Dy0 S3 2.743462 1_555
Dy1 S4 2.690923 1_554
Dy1 S2 2.690968 1_555
Dy1 S6 2.743264 1_555
Dy1 S5 2.743365 1_554
Dy1 S3 2.743839 1_555
Dy1 S0 2.744013 1_554
Dy2 S2 2.691477 1_655
Dy2 S4 2.691529 1_555
Dy2 S7 2.743108 1_555
Dy2 S6 2.743114 1_655
Dy2 S1 2.743127 1_655
Dy2 S0 2.743831 1_555
Mg0 S4 2.420176 1_565
Mg0 S7 2.520675 1_556
Mg0 S0 2.522223 1_555
Mg0 S5 2.522233 1_655
Mg1 S2 2.420126 1_545
Mg1 S1 2.521005 1_554
Mg1 S3 2.521803 1_455
Mg1 S6 2.522657 1_555
Cr0 S0 2.501973 1_555
Cr0 S3 2.503514 1_565
Cr0 S7 2.504963 1_555
Cr0 S5 2.506228 1_555
Cr0 S6 2.506569 1_565
Cr0 S1 2.508322 1_565
