# generated using pymatgen
data_MgSi
_symmetry_space_group_name_H-M   'P 1'
_cell_length_a   5.04582800
_cell_length_b   5.05103688
_cell_length_c   9.26022423
_cell_angle_alpha   97.57137535
_cell_angle_beta   94.34579985
_cell_angle_gamma   104.74036021
_symmetry_Int_Tables_number   1
_chemical_formula_structural   MgSi
_chemical_formula_sum   'Mg6 Si6'
_cell_volume   224.77941511
_cell_formula_units_Z   6
loop_
 _symmetry_equiv_pos_site_id
 _symmetry_equiv_pos_as_xyz
  1  'x, y, z'
loop_
 _atom_site_type_symbol
 _atom_site_label
 _atom_site_symmetry_multiplicity
 _atom_site_fract_x
 _atom_site_fract_y
 _atom_site_fract_z
 _atom_site_occupancy
  Mg  Mg0  1  0.79041100  0.17869200  0.04822400  1
  Mg  Mg1  1  0.61734000  0.98886400  0.70764800  1
  Mg  Mg2  1  0.00776400  0.61812000  0.60676400  1
  Mg  Mg3  1  0.69456500  0.08796900  0.37237800  1
  Mg  Mg4  1  0.23671700  0.32923200  0.83859700  1
  Mg  Mg5  1  0.07016900  0.72050700  0.28006900  1
  Si  Si0  1  0.29235600  0.27225800  0.20336700  1
  Si  Si1  1  0.80323200  0.59005300  0.87917000  1
  Si  Si2  1  0.25764500  0.87380400  0.95995500  1
  Si  Si3  1  0.56068500  0.65728600  0.10218100  1
  Si  Si4  1  0.48473900  0.53270100  0.45512600  1
  Si  Si5  1  0.18456100  0.15039500  0.54659400  1
loop_
_geom_bond_atom_site_label_1
_geom_bond_atom_site_label_2
_geom_bond_distance
_geom_bond_site_symmetry_2
Mg0 Si0 2.713405 1_655
Mg0 Si3 2.722206 1_545
Mg0 Si2 2.737692 1_544
Mg0 Si1 2.752503 1_554
Mg0 Si3 2.938117 1_555
Mg0 Si0 3.094456 1_555
Mg0 Mg4 3.098054 1_654
Mg0 Mg3 3.150243 1_555
Mg0 Mg1 3.160398 1_544
Mg0 Mg5 3.180899 1_655
Mg0 Si1 3.190878 1_544
Mg0 Si2 3.225807 1_644
Mg1 Si5 2.896961 1_565
Mg1 Si4 2.963653 1_555
Mg1 Si1 3.006548 1_555
Mg1 Si2 3.091021 1_555
Mg1 Si1 3.110865 1_565
Mg2 Si5 2.736530 1_555
Mg2 Si5 2.753928 1_565
Mg2 Si4 2.796791 1_455
Mg2 Si1 2.804056 1_455
Mg2 Si4 2.971740 1_555
Mg3 Si4 2.762943 1_555
Mg3 Si5 2.771238 1_655
Mg3 Si0 2.880733 1_555
Mg3 Si4 2.958469 1_545
Mg3 Si3 3.001796 1_545
Mg4 Si5 2.706368 1_555
Mg4 Si2 2.711592 1_545
Mg4 Si1 2.799715 1_555
Mg4 Si2 2.803530 1_555
Mg4 Si1 2.849819 1_455
Mg4 Si3 2.885605 1_556
Mg5 Si0 2.806467 1_555
Mg5 Si3 2.868136 1_455
Mg5 Si0 2.929273 1_565
Mg5 Si4 2.967268 1_555
Mg5 Si5 2.978848 1_565
Mg5 Si3 3.134152 1_555
Si0 Si3 2.413686 1_555
Si0 Si4 2.511381 1_555
Si0 Si2 2.779805 1_544
Si1 Si2 2.378307 1_655
Si1 Si3 2.507514 1_556
Si2 Si3 2.488797 1_556
Si4 Si5 2.424370 1_555
