# generated using pymatgen
data_Rb(AsIr)2
_symmetry_space_group_name_H-M   'P 1'
_cell_length_a   7.56956847
_cell_length_b   7.56956847
_cell_length_c   7.56956847
_cell_angle_alpha   149.10176296
_cell_angle_beta   149.10176296
_cell_angle_gamma   44.26153777
_symmetry_Int_Tables_number   1
_chemical_formula_structural   Rb(AsIr)2
_chemical_formula_sum   'Rb1 As2 Ir2'
_cell_volume   114.03781026
_cell_formula_units_Z   1
loop_
 _symmetry_equiv_pos_site_id
 _symmetry_equiv_pos_as_xyz
  1  'x, y, z'
loop_
 _atom_site_type_symbol
 _atom_site_label
 _atom_site_symmetry_multiplicity
 _atom_site_fract_x
 _atom_site_fract_y
 _atom_site_fract_z
 _atom_site_occupancy
  Rb  Rb0  1  0.00000000  0.00000000  0.00000000  1
  As  As0  1  0.34880110  0.34880110  -0.00000000  1
  As  As1  1  0.65119890  0.65119890  0.00000000  1
  Ir  Ir0  1  0.75000000  0.25000000  0.50000000  1
  Ir  Ir1  1  0.25000000  0.75000000  0.50000000  1
loop_
_geom_bond_atom_site_label_1
_geom_bond_atom_site_label_2
_geom_bond_distance
_geom_bond_site_symmetry_2
As0 Ir0 2.446561 1_555
As0 Ir1 2.446561 1_544
As0 Ir1 2.446561 1_555
As0 Ir0 2.446561 1_454
As0 Rb0 3.553556 1_666
As0 Rb0 3.553556 1_565
As0 Rb0 3.553556 1_655
As0 Rb0 3.553556 1_554
As1 Ir0 2.446561 1_565
As1 Ir1 2.446561 1_554
As1 Ir0 2.446561 1_554
As1 Ir1 2.446561 1_655
As1 Rb0 3.553556 1_666
As1 Rb0 3.553556 1_565
As1 Rb0 3.553556 1_655
As1 Rb0 3.553556 1_554
