# generated using pymatgen
data_Sr4Ca(FeO3)5
_symmetry_space_group_name_H-M   'P 1'
_cell_length_a   3.89427500
_cell_length_b   8.73156045
_cell_length_c   17.48065925
_cell_angle_alpha   89.91242618
_cell_angle_beta   90.00000987
_cell_angle_gamma   90.00001973
_symmetry_Int_Tables_number   1
_chemical_formula_structural   Sr4Ca(FeO3)5
_chemical_formula_sum   'Sr8 Ca2 Fe10 O30'
_cell_volume   594.39586796
_cell_formula_units_Z   2
loop_
 _symmetry_equiv_pos_site_id
 _symmetry_equiv_pos_as_xyz
  1  'x, y, z'
loop_
 _atom_site_type_symbol
 _atom_site_label
 _atom_site_symmetry_multiplicity
 _atom_site_fract_x
 _atom_site_fract_y
 _atom_site_fract_z
 _atom_site_occupancy
  Sr  Sr0  1  0.99999800  0.39865700  0.09902300  1
  Sr  Sr1  1  0.00000000  0.39874000  0.59900100  1
  Sr  Sr2  1  0.00000000  0.80043100  0.20004700  1
  Sr  Sr3  1  0.00000200  0.80044700  0.69982700  1
  Sr  Sr4  1  0.99999900  0.19950800  0.30018700  1
  Sr  Sr5  1  0.00000100  0.19955800  0.80000100  1
  Sr  Sr6  1  0.00000000  0.60129800  0.40105000  1
  Sr  Sr7  1  0.00000100  0.60122600  0.90088000  1
  Ca  Ca0  1  0.99999900  0.00024800  0.99999800  1
  Ca  Ca1  1  0.00000100  0.99985600  0.49992600  1
  Fe  Fe0  1  0.50000000  0.50011300  0.74996600  1
  Fe  Fe1  1  0.50000000  0.90018100  0.35105300  1
  Fe  Fe2  1  0.49999900  0.29849000  0.45006400  1
  Fe  Fe3  1  0.50000000  0.70157900  0.04992300  1
  Fe  Fe4  1  0.49999900  0.09981100  0.14901000  1
  Fe  Fe5  1  0.49999900  0.50001100  0.25002300  1
  Fe  Fe6  1  0.50000100  0.90013000  0.85102600  1
  Fe  Fe7  1  0.50000100  0.29855700  0.95005600  1
  Fe  Fe8  1  0.50000000  0.70146800  0.54995400  1
  Fe  Fe9  1  0.50000000  0.09978800  0.64896200  1
  O  O0  1  0.00000100  0.49997200  0.25003700  1
  O  O1  1  0.00000100  0.49996700  0.74993500  1
  O  O2  1  0.49999900  0.49999400  0.00001400  1
  O  O3  1  0.50000000  0.50007800  0.49999600  1
  O  O4  1  0.49999900  0.99996800  0.25010400  1
  O  O5  1  0.50000100  0.99997500  0.74992700  1
  O  O6  1  0.00000000  0.90443800  0.35253000  1
  O  O7  1  0.00000100  0.90433500  0.85246400  1
  O  O8  1  0.99999900  0.29114600  0.45076300  1
  O  O9  1  0.00000000  0.29120600  0.95073600  1
  O  O10  1  0.99999900  0.70884000  0.04927400  1
  O  O11  1  0.00000100  0.70884100  0.54922800  1
  O  O12  1  0.99999900  0.09558700  0.14757000  1
  O  O13  1  0.00000100  0.09561800  0.64747800  1
  O  O14  1  0.49999900  0.29697100  0.19676500  1
  O  O15  1  0.50000000  0.29692900  0.69668800  1
  O  O16  1  0.49999900  0.70301900  0.30330700  1
  O  O17  1  0.50000100  0.70295200  0.80324500  1
  O  O18  1  0.50000000  0.39742400  0.35092200  1
  O  O19  1  0.50000100  0.39761100  0.85085800  1
  O  O20  1  0.49999900  0.60247400  0.14911400  1
  O  O21  1  0.50000200  0.60252700  0.64911400  1
  O  O22  1  0.49999900  0.09678500  0.39896000  1
  O  O23  1  0.50000000  0.09688400  0.89889900  1
  O  O24  1  0.49999900  0.90319600  0.10113600  1
  O  O25  1  0.50000200  0.90309800  0.60100300  1
  O  O26  1  0.50000100  0.80886500  0.45298300  1
  O  O27  1  0.50000000  0.80904400  0.95291300  1
  O  O28  1  0.49999900  0.19092700  0.04705800  1
  O  O29  1  0.50000000  0.19123000  0.54699900  1
loop_
_geom_bond_atom_site_label_1
_geom_bond_atom_site_label_2
_geom_bond_distance
_geom_bond_site_symmetry_2
Ca0 O9 2.681248 1_655
Ca0 O10 2.685047 1_546
Ca0 O28 2.691513 1_656
Ca0 O28 2.691514 1_556
Ca0 O27 2.694484 1_545
Ca0 O27 2.694491 1_645
Ca0 O12 2.711858 1_556
Ca0 O7 2.712776 1_645
Ca0 O23 2.760799 1_555
Ca0 O23 2.760804 1_655
Ca0 O24 2.762346 1_646
Ca0 O24 2.762346 1_546
Ca1 O11 2.681943 1_555
Ca1 O8 2.683441 1_465
Ca1 O26 2.692574 1_455
Ca1 O26 2.692575 1_555
Ca1 O29 2.695340 1_565
Ca1 O29 2.695347 1_465
Ca1 O6 2.709143 1_555
Ca1 O13 2.712667 1_565
Ca1 O22 2.760090 1_565
Ca1 O22 2.760101 1_465
Ca1 O25 2.760877 1_455
Ca1 O25 2.760883 1_555
Fe0 O1 1.947134 1_555
Fe0 O1 1.947142 1_655
Fe0 O21 1.975566 1_555
Fe0 O19 1.976536 1_555
Fe0 O17 2.002313 1_555
Fe0 O15 2.004972 1_555
Fe1 O22 1.911186 1_565
Fe1 O16 1.914334 1_555
Fe1 O6 1.947664 1_655
Fe1 O6 1.947664 1_555
Fe1 O26 1.950953 1_555
Fe1 O4 1.966841 1_555
Fe2 O29 1.934828 1_555
Fe2 O18 1.935247 1_555
Fe2 O8 1.948231 1_455
Fe2 O8 1.948231 1_555
Fe2 O3 1.965904 1_555
Fe2 O22 1.976025 1_555
Fe3 O20 1.936678 1_555
Fe3 O27 1.936839 1_554
Fe3 O10 1.948198 1_555
Fe3 O10 1.948206 1_455
Fe3 O2 1.965702 1_555
Fe3 O24 1.976205 1_555
Fe4 O24 1.911019 1_545
Fe4 O14 1.914387 1_555
Fe4 O12 1.947650 1_455
Fe4 O12 1.947650 1_555
Fe4 O28 1.950594 1_555
Fe4 O4 1.969330 1_545
Fe5 O0 1.947130 1_555
Fe5 O0 1.947145 1_655
Fe5 O20 1.976648 1_555
Fe5 O18 1.976981 1_555
Fe5 O16 2.003660 1_555
Fe5 O14 2.003696 1_555
Fe6 O23 1.912102 1_565
Fe6 O17 1.914727 1_555
Fe6 O7 1.947647 1_655
Fe6 O7 1.947647 1_555
Fe6 O27 1.949450 1_555
Fe6 O5 1.969416 1_555
Fe7 O19 1.936589 1_555
Fe7 O28 1.937413 1_556
Fe7 O9 1.948227 1_655
Fe7 O9 1.948235 1_555
Fe7 O2 1.964926 1_556
Fe7 O23 1.976196 1_555
Fe8 O21 1.935556 1_555
Fe8 O26 1.935956 1_555
Fe8 O11 1.948238 1_555
Fe8 O11 1.948246 1_655
Fe8 O3 1.964558 1_555
Fe8 O25 1.975005 1_555
Fe9 O25 1.912260 1_545
Fe9 O15 1.914016 1_555
Fe9 O13 1.947647 1_555
Fe9 O13 1.947655 1_655
Fe9 O29 1.951928 1_555
Fe9 O5 1.967192 1_545
O0 Sr2 2.763919 1_555
O0 Sr4 2.764841 1_455
O0 Sr0 2.785390 1_455
O0 Sr6 2.785404 1_555
O1 Sr5 2.763923 1_555
O1 Sr3 2.764742 1_555
O1 Sr1 2.783818 1_555
O1 Sr7 2.784090 1_555
O2 Sr0 2.750462 1_555
O2 Sr0 2.750468 1_455
O2 Sr7 2.751540 1_554
O2 Sr7 2.751551 1_654
O3 Sr6 2.749445 1_655
O3 Sr6 2.749445 1_555
O3 Sr1 2.750424 1_555
O3 Sr1 2.750424 1_655
O4 Sr2 2.756296 1_555
O4 Sr2 2.756302 1_655
O4 Sr4 2.756460 1_565
O4 Sr4 2.756461 1_465
O5 Sr3 2.756485 1_555
O5 Sr3 2.756492 1_655
O5 Sr5 2.756647 1_665
O5 Sr5 2.756648 1_565
O6 Sr4 2.732755 1_465
O6 Sr6 2.778222 1_555
O6 Sr2 2.817274 1_555
O7 Sr5 2.734713 1_565
O7 Sr7 2.777412 1_555
O7 Sr3 2.819486 1_555
O8 Sr4 2.752267 1_555
O8 Sr1 2.757691 1_655
O8 Sr6 2.842861 1_655
O9 Sr5 2.754952 1_555
O9 Sr0 2.758069 1_456
O9 Sr7 2.842526 1_555
O10 Sr2 2.755442 1_655
O10 Sr7 2.760315 1_654
O10 Sr0 2.843310 1_555
O11 Sr3 2.752570 1_555
O11 Sr6 2.756552 1_555
O11 Sr1 2.842756 1_555
O12 Sr2 2.734244 1_645
O12 Sr0 2.777783 1_555
O12 Sr4 2.819249 1_555
O13 Sr3 2.733621 1_545
O13 Sr1 2.777844 1_555
O13 Sr5 2.817747 1_555
O14 Sr0 2.737574 1_555
O14 Sr0 2.737580 1_455
O14 Sr4 2.789139 1_555
O14 Sr4 2.789139 1_455
O15 Sr1 2.737331 1_655
O15 Sr1 2.737331 1_555
O15 Sr5 2.787658 1_555
O15 Sr5 2.787664 1_655
O16 Sr6 2.737684 1_555
O16 Sr6 2.737690 1_655
O16 Sr2 2.787167 1_555
O16 Sr2 2.787173 1_655
O17 Sr7 2.736524 1_555
O17 Sr7 2.736524 1_655
O17 Sr3 2.789176 1_555
O17 Sr3 2.789181 1_655
O18 Sr4 2.751174 1_555
O18 Sr4 2.751179 1_455
O18 Sr6 2.780801 1_655
O18 Sr6 2.780802 1_555
O19 Sr5 2.752618 1_555
O19 Sr5 2.752619 1_655
O19 Sr7 2.778767 1_655
O19 Sr7 2.778768 1_555
O20 Sr2 2.752520 1_555
O20 Sr2 2.752525 1_655
O20 Sr0 2.780276 1_555
O20 Sr0 2.780280 1_455
O21 Sr3 2.751073 1_655
O21 Sr3 2.751074 1_555
O21 Sr1 2.780227 1_655
O21 Sr1 2.780237 1_555
O22 Sr4 2.751782 1_555
O22 Sr4 2.751782 1_455
O23 Sr5 2.753011 1_555
O23 Sr5 2.753016 1_655
O24 Sr2 2.753411 1_555
O24 Sr2 2.753417 1_655
O25 Sr3 2.752137 1_555
O25 Sr3 2.752137 1_655
O26 Sr6 2.811626 1_655
O26 Sr6 2.811630 1_555
O27 Sr7 2.813605 1_555
O27 Sr7 2.813612 1_655
O28 Sr0 2.812724 1_555
O28 Sr0 2.812731 1_455
O29 Sr1 2.811697 1_655
O29 Sr1 2.811698 1_555
