# generated using pymatgen
data_BaNaCrF6
_symmetry_space_group_name_H-M   'P 1'
_cell_length_a   5.65119300
_cell_length_b   10.09572200
_cell_length_c   19.43098700
_cell_angle_alpha   90.00000000
_cell_angle_beta   90.00000000
_cell_angle_gamma   90.00000000
_symmetry_Int_Tables_number   1
_chemical_formula_structural   BaNaCrF6
_chemical_formula_sum   'Ba8 Na8 Cr8 F48'
_cell_volume   1108.59364322
_cell_formula_units_Z   8
loop_
 _symmetry_equiv_pos_site_id
 _symmetry_equiv_pos_as_xyz
  1  'x, y, z'
loop_
 _atom_site_type_symbol
 _atom_site_label
 _atom_site_symmetry_multiplicity
 _atom_site_fract_x
 _atom_site_fract_y
 _atom_site_fract_z
 _atom_site_occupancy
  Ba  Ba0  1  0.75714900  0.36648600  0.11342300  1
  Ba  Ba1  1  0.24285100  0.86648600  0.88657700  1
  Ba  Ba2  1  0.74285100  0.36648600  0.61342300  1
  Ba  Ba3  1  0.25714900  0.86648600  0.38657700  1
  Ba  Ba4  1  0.25756800  0.00152100  0.13594400  1
  Ba  Ba5  1  0.74243200  0.50152100  0.86405600  1
  Ba  Ba6  1  0.24243200  0.00152100  0.63594400  1
  Ba  Ba7  1  0.75756800  0.50152100  0.36405600  1
  Na  Na0  1  0.25845000  0.63598400  0.06436600  1
  Na  Na1  1  0.74155000  0.13598400  0.93563400  1
  Na  Na2  1  0.24155000  0.63598400  0.56436600  1
  Na  Na3  1  0.75845000  0.13598400  0.43563400  1
  Na  Na4  1  0.25997600  0.23090800  0.31329600  1
  Na  Na5  1  0.74002400  0.73090800  0.68670400  1
  Na  Na6  1  0.24002400  0.23090800  0.81329600  1
  Na  Na7  1  0.75997600  0.73090800  0.18670400  1
  Cr  Cr0  1  0.26311800  0.26146900  0.49424700  1
  Cr  Cr1  1  0.73688200  0.76146900  0.50575300  1
  Cr  Cr2  1  0.23688200  0.26146900  0.99424700  1
  Cr  Cr3  1  0.76311800  0.76146900  0.00575300  1
  Cr  Cr4  1  0.25270700  0.60595600  0.24543500  1
  Cr  Cr5  1  0.74729300  0.10595600  0.75456500  1
  Cr  Cr6  1  0.24729300  0.60595600  0.74543500  1
  Cr  Cr7  1  0.75270700  0.10595600  0.25456500  1
  F  F0  1  0.02170400  0.17487600  0.05901800  1
  F  F1  1  0.97829600  0.67487600  0.94098200  1
  F  F2  1  0.47829600  0.17487600  0.55901800  1
  F  F3  1  0.52170400  0.67487600  0.44098200  1
  F  F4  1  0.32927200  0.11703700  0.42970600  1
  F  F5  1  0.67072800  0.61703700  0.57029400  1
  F  F6  1  0.17072800  0.11703700  0.92970600  1
  F  F7  1  0.82927200  0.61703700  0.07029400  1
  F  F8  1  0.49837500  0.16325700  0.03604600  1
  F  F9  1  0.50162500  0.66325700  0.96395400  1
  F  F10  1  0.00162500  0.16325700  0.53604600  1
  F  F11  1  0.99837500  0.66325700  0.46395400  1
  F  F12  1  0.47907700  0.53809300  0.17973800  1
  F  F13  1  0.52092300  0.03809300  0.82026200  1
  F  F14  1  0.02092300  0.53809300  0.67973800  1
  F  F15  1  0.97907700  0.03809300  0.32026200  1
  F  F16  1  0.52928500  0.19156800  0.19173400  1
  F  F17  1  0.47071500  0.69156800  0.80826600  1
  F  F18  1  0.97071500  0.19156800  0.69173400  1
  F  F19  1  0.02928500  0.69156800  0.30826600  1
  F  F20  1  0.30151000  0.46234700  0.31107100  1
  F  F21  1  0.69849000  0.96234700  0.68892900  1
  F  F22  1  0.19849000  0.46234700  0.81107100  1
  F  F23  1  0.80151000  0.96234700  0.18892900  1
  F  F24  1  0.04634800  0.32891500  0.42570500  1
  F  F25  1  0.95365200  0.82891500  0.57429500  1
  F  F26  1  0.45365200  0.32891500  0.92570500  1
  F  F27  1  0.54634800  0.82891500  0.07429500  1
  F  F28  1  0.01065800  0.20268700  0.21080800  1
  F  F29  1  0.98934200  0.70268700  0.78919200  1
  F  F30  1  0.48934200  0.20268700  0.71080800  1
  F  F31  1  0.51065800  0.70268700  0.28919200  1
  F  F32  1  0.54301700  0.35366600  0.46118800  1
  F  F33  1  0.45698300  0.85366600  0.53881200  1
  F  F34  1  0.95698300  0.35366600  0.96118800  1
  F  F35  1  0.04301700  0.85366600  0.03881200  1
  F  F36  1  0.19811700  0.75124600  0.18064900  1
  F  F37  1  0.80188300  0.25124600  0.81935100  1
  F  F38  1  0.30188300  0.75124600  0.68064900  1
  F  F39  1  0.69811700  0.25124600  0.31935100  1
  F  F40  1  0.29619700  0.40442900  0.05974100  1
  F  F41  1  0.70380300  0.90442900  0.94025900  1
  F  F42  1  0.20380300  0.40442900  0.55974100  1
  F  F43  1  0.79619700  0.90442900  0.44025900  1
  F  F44  1  0.47902300  0.01515600  0.29228600  1
  F  F45  1  0.52097700  0.51515600  0.70771400  1
  F  F46  1  0.02097700  0.01515600  0.79228600  1
  F  F47  1  0.97902300  0.51515600  0.20771400  1
loop_
_geom_bond_atom_site_label_1
_geom_bond_atom_site_label_2
_geom_bond_distance
_geom_bond_site_symmetry_2
Ba0 F16 2.663103 1_555
Ba0 F0 2.663605 1_655
Ba0 F12 2.670462 1_555
Ba0 F47 2.679884 1_555
Ba0 F7 2.695694 1_555
Ba0 F40 2.832037 1_555
Ba0 F28 2.892714 1_655
Ba0 F8 2.934069 1_555
Ba0 F34 3.168957 1_554
Ba0 F40 3.242608 1_655
Ba1 F17 2.663103 1_555
Ba1 F1 2.663605 1_455
Ba1 F13 2.670462 1_565
Ba1 F46 2.679884 1_565
Ba1 F6 2.695694 1_565
Ba1 F41 2.832037 1_555
Ba1 F29 2.892714 1_455
Ba1 F9 2.934069 1_555
Ba1 F35 3.168957 1_556
Ba1 F41 3.242608 1_455
Ba2 F18 2.663103 1_555
Ba2 F2 2.663605 1_555
Ba2 F14 2.670462 1_655
Ba2 F45 2.679884 1_555
Ba2 F5 2.695694 1_555
Ba2 F42 2.832037 1_655
Ba2 F30 2.892714 1_555
Ba2 F10 2.934069 1_655
Ba2 F32 3.168957 1_555
Ba2 F42 3.242608 1_555
Ba3 F19 2.663103 1_555
Ba3 F3 2.663605 1_555
Ba3 F15 2.670462 1_465
Ba3 F44 2.679884 1_565
Ba3 F4 2.695694 1_565
Ba3 F43 2.832037 1_455
Ba3 F31 2.892714 1_555
Ba3 F11 2.934069 1_455
Ba3 F33 3.168957 1_555
Ba3 F43 3.242608 1_555
Ba4 F0 2.659687 1_555
Ba4 F27 2.671109 1_545
Ba4 F16 2.685940 1_555
Ba4 F36 2.692897 1_545
Ba4 F35 2.694515 1_545
Ba4 F23 2.803340 1_445
Ba4 F28 2.861412 1_555
Ba4 F8 2.878543 1_555
Ba4 F23 3.265789 1_545
Ba4 F44 3.288446 1_555
Ba5 F1 2.659687 1_555
Ba5 F26 2.671109 1_555
Ba5 F17 2.685940 1_555
Ba5 F37 2.692897 1_555
Ba5 F34 2.694515 1_555
Ba5 F22 2.803340 1_655
Ba5 F29 2.861412 1_555
Ba5 F9 2.878543 1_555
Ba5 F22 3.265789 1_555
Ba5 F45 3.288446 1_555
Ba6 F2 2.659687 1_555
Ba6 F25 2.671109 1_445
Ba6 F18 2.685940 1_455
Ba6 F38 2.692897 1_545
Ba6 F33 2.694515 1_545
Ba6 F21 2.803340 1_545
Ba6 F30 2.861412 1_555
Ba6 F10 2.878543 1_555
Ba6 F21 3.265789 1_445
Ba6 F46 3.288446 1_555
Ba7 F3 2.659687 1_555
Ba7 F24 2.671109 1_655
Ba7 F19 2.685940 1_655
Ba7 F39 2.692897 1_555
Ba7 F32 2.694515 1_555
Ba7 F20 2.803340 1_555
Ba7 F31 2.861412 1_555
Ba7 F11 2.878543 1_555
Ba7 F20 3.265789 1_655
Ba7 F47 3.288446 1_555
Cr0 F24 1.933414 1_555
Cr0 F32 1.944478 1_555
Cr0 F42 1.953196 1_555
Cr0 F10 1.956148 1_555
Cr0 F2 1.956254 1_555
Cr0 F4 1.959262 1_555
Cr1 F25 1.933414 1_555
Cr1 F33 1.944478 1_555
Cr1 F43 1.953196 1_555
Cr1 F11 1.956148 1_555
Cr1 F3 1.956254 1_555
Cr1 F5 1.959262 1_555
Cr2 F26 1.933414 1_555
Cr2 F34 1.944478 1_455
Cr2 F40 1.953196 1_556
Cr2 F8 1.956148 1_556
Cr2 F0 1.956254 1_556
Cr2 F6 1.959262 1_555
Cr3 F27 1.933414 1_555
Cr3 F35 1.944478 1_655
Cr3 F41 1.953196 1_554
Cr3 F9 1.956148 1_554
Cr3 F1 1.956254 1_554
Cr3 F7 1.959262 1_555
Cr4 F12 1.932745 1_555
Cr4 F47 1.941558 1_455
Cr4 F31 1.949764 1_555
Cr4 F20 1.950555 1_555
Cr4 F36 1.957400 1_555
Cr4 F19 1.957478 1_555
Cr5 F13 1.932745 1_555
Cr5 F46 1.941558 1_655
Cr5 F30 1.949764 1_555
Cr5 F21 1.950555 1_545
Cr5 F37 1.957400 1_555
Cr5 F18 1.957478 1_555
Cr6 F14 1.932745 1_555
Cr6 F45 1.941558 1_555
Cr6 F29 1.949764 1_455
Cr6 F22 1.950555 1_555
Cr6 F38 1.957400 1_555
Cr6 F17 1.957478 1_555
Cr7 F15 1.932745 1_555
Cr7 F44 1.941558 1_555
Cr7 F28 1.949764 1_655
Cr7 F23 1.950555 1_545
Cr7 F39 1.957400 1_555
Cr7 F16 1.957478 1_555
F0 Na1 2.899755 1_454
F1 Na0 2.899755 1_656
F2 Na3 2.899755 1_555
F3 Na2 2.899755 1_555
F4 Na3 2.435624 1_555
F4 Na4 2.567377 1_555
F5 Na2 2.435624 1_555
F5 Na5 2.567377 1_555
F6 Na1 2.435624 1_455
F6 Na6 2.567377 1_555
F7 Na0 2.435624 1_655
F7 Na7 2.567377 1_555
F8 Na1 2.402317 1_554
F9 Na0 2.402317 1_556
F10 Na3 2.402317 1_455
F11 Na2 2.402317 1_655
F12 Na7 2.515449 1_555
F12 Na0 2.748973 1_555
F13 Na6 2.515449 1_555
F13 Na1 2.748973 1_555
F14 Na5 2.515449 1_455
F14 Na2 2.748973 1_555
F15 Na4 2.515449 1_655
F15 Na3 2.748973 1_555
F16 Na4 2.837842 1_555
F17 Na5 2.837842 1_555
F18 Na6 2.837842 1_655
F19 Na7 2.837842 1_455
F20 Na4 2.348701 1_555
F21 Na5 2.348701 1_555
F22 Na6 2.348701 1_555
F23 Na7 2.348701 1_555
F24 Na3 2.545208 1_455
F24 Na4 2.684638 1_555
F25 Na2 2.545208 1_655
F25 Na5 2.684638 1_555
F26 Na1 2.545208 1_555
F26 Na6 2.684638 1_555
F27 Na0 2.545208 1_555
F27 Na7 2.684638 1_555
F28 Na4 2.456042 1_555
F29 Na5 2.456042 1_555
F30 Na6 2.456042 1_555
F31 Na7 2.456042 1_555
F32 Na3 2.560945 1_555
F33 Na2 2.560945 1_555
F34 Na1 2.560945 1_555
F35 Na0 2.560945 1_555
F36 Na7 2.487302 1_455
F36 Na0 2.564303 1_555
F37 Na6 2.487302 1_655
F37 Na1 2.564303 1_555
F38 Na5 2.487302 1_555
F38 Na2 2.564303 1_555
F39 Na4 2.487302 1_555
F39 Na3 2.564303 1_555
F40 Na0 2.349147 1_555
F41 Na1 2.349147 1_565
F42 Na2 2.349147 1_555
F43 Na3 2.349147 1_565
F44 Na4 2.538393 1_555
F45 Na5 2.538393 1_555
F46 Na6 2.538393 1_555
F47 Na7 2.538393 1_555
