# generated using pymatgen
data_Rb2NaMnO4
_symmetry_space_group_name_H-M   'P 1'
_cell_length_a   5.95661411
_cell_length_b   5.89920686
_cell_length_c   7.85510872
_cell_angle_alpha   87.30917361
_cell_angle_beta   90.00000000
_cell_angle_gamma   90.00000000
_symmetry_Int_Tables_number   1
_chemical_formula_structural   Rb2NaMnO4
_chemical_formula_sum   'Rb4 Na2 Mn2 O8'
_cell_volume   275.71867088
_cell_formula_units_Z   2
loop_
 _symmetry_equiv_pos_site_id
 _symmetry_equiv_pos_as_xyz
  1  'x, y, z'
loop_
 _atom_site_type_symbol
 _atom_site_label
 _atom_site_symmetry_multiplicity
 _atom_site_fract_x
 _atom_site_fract_y
 _atom_site_fract_z
 _atom_site_occupancy
  Rb  Rb0  1  0.75000000  0.12821628  0.82647299  1
  Rb  Rb1  1  0.25000000  0.87178372  0.17352701  1
  Rb  Rb2  1  0.25000000  0.30617464  0.48593810  1
  Rb  Rb3  1  0.75000000  0.69382536  0.51406190  1
  Na  Na0  1  0.75000000  0.61740303  0.03147640  1
  Na  Na1  1  0.25000000  0.38259697  0.96852360  1
  Mn  Mn0  1  0.25000000  0.80299725  0.74463000  1
  Mn  Mn1  1  0.75000000  0.19700275  0.25537000  1
  O  O0  1  0.52134331  0.33697584  0.17352676  1
  O  O1  1  0.02134331  0.66302416  0.82647224  1
  O  O2  1  0.47865669  0.66302416  0.82647224  1
  O  O3  1  0.97865669  0.33697584  0.17352676  1
  O  O4  1  0.75000000  0.19917371  0.47007259  1
  O  O5  1  0.75000000  0.92761458  0.18823873  1
  O  O6  1  0.25000000  0.80082629  0.52992741  1
  O  O7  1  0.25000000  0.07238542  0.81176127  1
loop_
_geom_bond_atom_site_label_1
_geom_bond_atom_site_label_2
_geom_bond_distance
_geom_bond_site_symmetry_2
Na0 O5 2.253175 1_555
Na0 O2 2.288512 1_554
Na0 O1 2.288512 1_654
Na0 O3 2.379819 1_555
Na0 O0 2.379819 1_555
Na1 O7 2.253175 1_555
Na1 O0 2.288506 1_556
Na1 O3 2.288506 1_456
Na1 O1 2.379822 1_555
Na1 O2 2.379822 1_555
Mn0 O6 1.687162 1_555
Mn0 O7 1.697715 1_565
Mn0 O1 1.703050 1_555
Mn0 O2 1.703050 1_555
Mn1 O4 1.687162 1_555
Mn1 O5 1.697715 1_545
Mn1 O3 1.703053 1_555
Mn1 O0 1.703053 1_555
O0 Rb2 2.936967 1_555
O0 Rb1 3.184866 1_545
O1 Rb3 2.936960 1_455
O1 Rb0 3.184866 1_465
O2 Rb3 2.936960 1_555
O2 Rb0 3.184866 1_565
O3 Rb2 2.936967 1_655
O3 Rb1 3.184866 1_645
O4 Rb0 2.811182 1_555
O4 Rb3 2.954505 1_555
O4 Rb3 2.984956 1_545
O4 Rb2 3.048224 1_555
O4 Rb2 3.048224 1_655
O5 Rb3 2.849753 1_555
O5 Rb1 2.999286 1_655
O5 Rb1 2.999286 1_555
O5 Rb0 3.026545 1_564
O6 Rb1 2.811182 1_555
O6 Rb2 2.954505 1_555
O6 Rb2 2.984956 1_565
O6 Rb3 3.048224 1_455
O6 Rb3 3.048224 1_555
O7 Rb2 2.849753 1_555
O7 Rb0 2.999286 1_455
O7 Rb0 2.999286 1_555
O7 Rb1 3.026545 1_546
