# generated using pymatgen
data_CsLiMg14
_symmetry_space_group_name_H-M   'P 1'
_cell_length_a   6.57766833
_cell_length_b   6.44248767
_cell_length_c   10.88620216
_cell_angle_alpha   90.00000000
_cell_angle_beta   90.00000000
_cell_angle_gamma   119.32246610
_symmetry_Int_Tables_number   1
_chemical_formula_structural   CsLiMg14
_chemical_formula_sum   'Cs1 Li1 Mg14'
_cell_volume   402.21414552
_cell_formula_units_Z   1
loop_
 _symmetry_equiv_pos_site_id
 _symmetry_equiv_pos_as_xyz
  1  'x, y, z'
loop_
 _atom_site_type_symbol
 _atom_site_label
 _atom_site_symmetry_multiplicity
 _atom_site_fract_x
 _atom_site_fract_y
 _atom_site_fract_z
 _atom_site_occupancy
  Cs  Cs0  1  0.16211873  0.83105886  0.12500000  1
  Li  Li0  1  0.16807303  0.33403601  0.12500000  1
  Mg  Mg0  1  0.16318071  0.33158985  0.62500000  1
  Mg  Mg1  1  0.16475784  0.83237842  0.62500000  1
  Mg  Mg2  1  0.66512105  0.33376550  0.12500000  1
  Mg  Mg3  1  0.66700565  0.33204672  0.62500000  1
  Mg  Mg4  1  0.66512105  0.83135455  0.12500000  1
  Mg  Mg5  1  0.66700565  0.83495792  0.62500000  1
  Mg  Mg6  1  0.34064843  0.17787140  0.39419749  1
  Mg  Mg7  1  0.34064843  0.17787140  0.85580251  1
  Mg  Mg8  1  0.34064843  0.66277804  0.39419749  1
  Mg  Mg9  1  0.34064843  0.66277804  0.85580251  1
  Mg  Mg10  1  0.83523448  0.16761774  0.37194056  1
  Mg  Mg11  1  0.83523448  0.16761774  0.87805944  1
  Mg  Mg12  1  0.82227681  0.66113890  0.39292092  1
  Mg  Mg13  1  0.82227681  0.66113890  0.85707908  1
loop_
_geom_bond_atom_site_label_1
_geom_bond_atom_site_label_2
_geom_bond_distance
_geom_bond_site_symmetry_2
Cs0 Li0 3.221425 1_565
Cs0 Li0 3.221425 1_555
Cs0 Mg2 3.270019 1_455
Cs0 Mg4 3.270019 1_455
Cs0 Mg2 3.307650 1_565
Cs0 Mg4 3.307650 1_555
Cs0 Mg12 3.507886 1_455
Cs0 Mg13 3.507886 1_454
Cs0 Mg8 3.519857 1_555
Cs0 Mg9 3.519857 1_554
Cs0 Mg6 3.519863 1_565
Cs0 Mg7 3.519863 1_564
Li0 Mg4 3.270271 1_555
Li0 Mg2 3.270271 1_555
Li0 Mg10 3.296997 1_455
Li0 Mg11 3.296997 1_454
Li0 Mg4 3.307398 1_445
Li0 Mg2 3.307398 1_455
Li0 Mg6 3.465170 1_555
Li0 Mg7 3.465170 1_554
Li0 Mg8 3.465176 1_555
Li0 Mg9 3.465176 1_554
Mg0 Mg7 3.128681 1_555
Mg0 Mg6 3.128681 1_555
Mg0 Mg8 3.128687 1_555
Mg0 Mg9 3.128687 1_555
Mg0 Mg1 3.221257 1_545
Mg0 Mg1 3.221257 1_555
Mg0 Mg5 3.265117 1_445
Mg0 Mg3 3.265117 1_455
Mg0 Mg5 3.312553 1_555
Mg0 Mg3 3.312553 1_555
Mg0 Mg10 3.335631 1_455
Mg0 Mg11 3.335631 1_455
Mg1 Mg8 3.175460 1_555
Mg1 Mg9 3.175460 1_555
Mg1 Mg7 3.175466 1_565
Mg1 Mg6 3.175466 1_565
Mg1 Mg12 3.200108 1_455
Mg1 Mg13 3.200108 1_455
Mg1 Mg3 3.282219 1_455
Mg1 Mg5 3.282219 1_455
Mg1 Mg3 3.295513 1_565
Mg1 Mg5 3.295513 1_555
Mg2 Mg4 3.205711 1_555
Mg2 Mg4 3.236776 1_545
Mg2 Mg6 3.471655 1_555
Mg2 Mg7 3.471655 1_554
Mg3 Mg7 3.133583 1_555
Mg3 Mg6 3.133583 1_555
Mg3 Mg5 3.202488 1_545
Mg3 Mg5 3.239999 1_555
Mg4 Mg8 3.471655 1_555
Mg4 Mg9 3.471655 1_554
Mg5 Mg9 3.133583 1_555
Mg5 Mg8 3.133583 1_555
Mg6 Mg8 3.124005 1_555
Mg6 Mg8 3.318483 1_545
Mg7 Mg9 3.124005 1_555
Mg7 Mg9 3.318483 1_545
Mg10 Mg12 3.230186 1_555
Mg10 Mg12 3.230186 1_545
Mg10 Mg2 3.285969 1_555
Mg10 Mg4 3.285975 1_545
Mg10 Mg8 3.294999 1_545
Mg10 Mg6 3.294999 1_555
Mg10 Mg8 3.301501 1_655
Mg10 Mg6 3.301501 1_655
Mg10 Mg3 3.329263 1_555
Mg10 Mg5 3.329269 1_545
Mg11 Mg13 3.230186 1_555
Mg11 Mg13 3.230186 1_545
Mg11 Mg2 3.285969 1_556
Mg11 Mg4 3.285975 1_546
Mg11 Mg9 3.294999 1_545
Mg11 Mg7 3.294999 1_555
Mg11 Mg9 3.301501 1_655
Mg11 Mg7 3.301501 1_655
Mg11 Mg3 3.329263 1_555
Mg11 Mg5 3.329269 1_545
Mg12 Mg5 3.130545 1_555
Mg12 Mg3 3.130551 1_555
Mg12 Mg6 3.173207 1_555
Mg12 Mg8 3.173207 1_555
Mg12 Mg6 3.404546 1_665
Mg12 Mg8 3.404546 1_655
Mg12 Mg4 3.447930 1_555
Mg12 Mg2 3.447936 1_555
Mg13 Mg5 3.130545 1_555
Mg13 Mg3 3.130551 1_555
Mg13 Mg7 3.173207 1_555
Mg13 Mg9 3.173207 1_555
Mg13 Mg7 3.404546 1_665
Mg13 Mg9 3.404546 1_655
Mg13 Mg4 3.447930 1_556
Mg13 Mg2 3.447936 1_556
