# generated using pymatgen
data_Sm3Ga2Sn3
_symmetry_space_group_name_H-M   'P 1'
_cell_length_a   6.39082043
_cell_length_b   6.39081978
_cell_length_c   10.05441978
_cell_angle_alpha   89.99658077
_cell_angle_beta   89.99658077
_cell_angle_gamma   102.37529203
_symmetry_Int_Tables_number   1
_chemical_formula_structural   Sm3Ga2Sn3
_chemical_formula_sum   'Sm6 Ga4 Sn6'
_cell_volume   401.10695500
_cell_formula_units_Z   2
loop_
 _symmetry_equiv_pos_site_id
 _symmetry_equiv_pos_as_xyz
  1  'x, y, z'
loop_
 _atom_site_type_symbol
 _atom_site_label
 _atom_site_symmetry_multiplicity
 _atom_site_fract_x
 _atom_site_fract_y
 _atom_site_fract_z
 _atom_site_occupancy
  Sm  Sm0  1  0.64127829  0.64127829  0.25002625  1
  Sm  Sm1  1  0.35872171  0.35872171  0.74997375  1
  Sm  Sm2  1  0.79861196  0.20138804  -0.00000000  1
  Sm  Sm3  1  0.20138804  0.79861196  0.00000000  1
  Sm  Sm4  1  0.20139245  0.79860755  0.50000000  1
  Sm  Sm5  1  0.79860755  0.20139245  0.50000000  1
  Ga  Ga0  1  0.31930506  0.31930506  0.04324293  1
  Ga  Ga1  1  0.68069494  0.68069494  0.95675707  1
  Ga  Ga2  1  0.68068935  0.68068935  0.54321765  1
  Ga  Ga3  1  0.31931065  0.31931065  0.45678235  1
  Sn  Sn0  1  0.09497271  0.49435792  0.25003932  1
  Sn  Sn1  1  0.90502729  0.50564208  0.74996068  1
  Sn  Sn2  1  0.49435792  0.09497271  0.25003932  1
  Sn  Sn3  1  0.50564208  0.90502729  0.74996068  1
  Sn  Sn4  1  0.02845640  0.02845640  0.25002725  1
  Sn  Sn5  1  0.97154360  0.97154360  0.74997275  1
loop_
_geom_bond_atom_site_label_1
_geom_bond_atom_site_label_2
_geom_bond_distance
_geom_bond_site_symmetry_2
Sm0 Sn4 3.101750 1_665
Sm0 Sn2 3.233498 1_565
Sm0 Sn0 3.233498 1_655
Sm0 Sn2 3.415546 1_555
Sm0 Sn0 3.415547 1_555
Sm1 Sn5 3.101750 1_445
Sm1 Sn3 3.233498 1_545
Sm1 Sn1 3.233498 1_455
Sm1 Sn3 3.415546 1_555
Sm1 Sn1 3.415547 1_555
Sm2 Sn1 3.161635 1_554
Sm2 Sn2 3.161635 1_555
Sm2 Sn5 3.224064 1_544
Sm2 Sn4 3.224064 1_655
Sm2 Sn3 3.448784 1_544
Sm2 Sn0 3.448784 1_655
Sm3 Sn0 3.161635 1_555
Sm3 Sn3 3.161635 1_554
Sm3 Sn4 3.224064 1_565
Sm3 Sn5 3.224064 1_454
Sm3 Sn2 3.448784 1_565
Sm3 Sn1 3.448784 1_454
Sm4 Sn0 3.161241 1_555
Sm4 Sn3 3.161241 1_555
Sm4 Sn4 3.223630 1_565
Sm4 Sn5 3.223630 1_455
Sm4 Sn2 3.447881 1_565
Sm4 Sn1 3.447881 1_455
Sm5 Sn1 3.161241 1_555
Sm5 Sn2 3.161241 1_555
Sm5 Sn5 3.223630 1_545
Sm5 Sn4 3.223630 1_655
Sm5 Sn3 3.447881 1_545
Sm5 Sn0 3.447881 1_655
Ga0 Sn2 2.884008 1_555
Ga0 Sn0 2.884008 1_555
Ga0 Sm1 2.965482 1_554
Ga0 Ga1 3.022846 1_554
Ga0 Sn4 3.122627 1_555
Ga0 Sm3 3.279569 1_545
Ga0 Sm2 3.279569 1_455
Ga0 Sm0 3.313131 1_555
Ga0 Sm3 3.336047 1_555
Ga0 Sm2 3.336047 1_555
Ga1 Sn3 2.884008 1_555
Ga1 Sn1 2.884008 1_555
Ga1 Sm0 2.965482 1_556
Ga1 Sn5 3.122627 1_555
Ga1 Sm2 3.279569 1_566
Ga1 Sm3 3.279569 1_656
Ga1 Sm1 3.313131 1_555
Ga1 Sm2 3.336047 1_556
Ga1 Sm3 3.336047 1_556
Ga2 Sn3 2.883652 1_555
Ga2 Sn1 2.883652 1_555
Ga2 Sm0 2.964759 1_555
Ga2 Ga3 3.022772 1_555
Ga2 Sn5 3.122760 1_555
Ga2 Sm5 3.279532 1_565
Ga2 Sm4 3.279533 1_655
Ga2 Sm1 3.312616 1_555
Ga2 Sm5 3.335991 1_555
Ga2 Sm4 3.335992 1_555
Ga3 Sn2 2.883652 1_555
Ga3 Sn0 2.883652 1_555
Ga3 Sm1 2.964759 1_555
Ga3 Sn4 3.122760 1_555
Ga3 Sm4 3.279532 1_545
Ga3 Sm5 3.279533 1_455
Ga3 Sm0 3.312616 1_555
Ga3 Sm4 3.335991 1_555
Ga3 Sm5 3.335992 1_555
Sn0 Sn4 2.916101 1_555
Sn1 Sn5 2.916101 1_555
Sn2 Sn4 2.916102 1_555
Sn3 Sn5 2.916102 1_555
