# generated using pymatgen
data_BaMg14Sb
_symmetry_space_group_name_H-M   'P 1'
_cell_length_a   6.64151649
_cell_length_b   6.60950939
_cell_length_c   10.58671193
_cell_angle_alpha   90.00000000
_cell_angle_beta   90.00000000
_cell_angle_gamma   119.84071414
_symmetry_Int_Tables_number   1
_chemical_formula_structural   BaMg14Sb
_chemical_formula_sum   'Ba1 Mg14 Sb1'
_cell_volume   403.10951033
_cell_formula_units_Z   1
loop_
 _symmetry_equiv_pos_site_id
 _symmetry_equiv_pos_as_xyz
  1  'x, y, z'
loop_
 _atom_site_type_symbol
 _atom_site_label
 _atom_site_symmetry_multiplicity
 _atom_site_fract_x
 _atom_site_fract_y
 _atom_site_fract_z
 _atom_site_occupancy
  Ba  Ba0  1  0.16732083  0.33365991  0.12500000  1
  Mg  Mg0  1  0.16555895  0.33277897  0.62500000  1
  Mg  Mg1  1  0.16174932  0.83087416  0.62500000  1
  Mg  Mg2  1  0.66370125  0.32455428  0.12500000  1
  Mg  Mg3  1  0.66867521  0.33756938  0.62500000  1
  Mg  Mg4  1  0.66370125  0.83914597  0.12500000  1
  Mg  Mg5  1  0.66867521  0.83110484  0.62500000  1
  Mg  Mg6  1  0.33995582  0.16137513  0.39030391  1
  Mg  Mg7  1  0.33995582  0.16137513  0.85969609  1
  Mg  Mg8  1  0.33995582  0.67858169  0.39030391  1
  Mg  Mg9  1  0.33995582  0.67858169  0.85969609  1
  Mg  Mg10  1  0.82016552  0.16008326  0.38979408  1
  Mg  Mg11  1  0.82016552  0.16008326  0.86020592  1
  Mg  Mg12  1  0.83023506  0.66511803  0.37188740  1
  Mg  Mg13  1  0.83023506  0.66511803  0.87811260  1
  Sb  Sb0  1  0.17999353  0.83999627  0.12500000  1
loop_
_geom_bond_atom_site_label_1
_geom_bond_atom_site_label_2
_geom_bond_distance
_geom_bond_site_symmetry_2
Ba0 Sb0 3.305561 1_545
Ba0 Sb0 3.305561 1_555
Ba0 Mg4 3.315262 1_445
Ba0 Mg2 3.315262 1_455
Ba0 Mg4 3.327075 1_555
Ba0 Mg2 3.327075 1_555
Ba0 Mg7 3.435020 1_554
Ba0 Mg6 3.435020 1_555
Ba0 Mg9 3.435026 1_554
Ba0 Mg8 3.435026 1_555
Ba0 Mg11 3.443579 1_454
Ba0 Mg10 3.443579 1_455
Mg0 Mg6 3.178744 1_555
Mg0 Mg7 3.178744 1_555
Mg0 Mg8 3.178751 1_555
Mg0 Mg9 3.178751 1_555
Mg0 Mg10 3.187419 1_455
Mg0 Mg11 3.187419 1_455
Mg0 Mg1 3.304828 1_545
Mg0 Mg1 3.304828 1_555
Mg0 Mg5 3.315930 1_445
Mg0 Mg3 3.315930 1_455
Mg0 Mg5 3.325813 1_555
Mg0 Mg3 3.325813 1_555
Mg1 Mg9 3.126205 1_555
Mg1 Mg8 3.126205 1_555
Mg1 Mg6 3.126212 1_565
Mg1 Mg7 3.126212 1_565
Mg1 Mg3 3.275518 1_455
Mg1 Mg5 3.275519 1_455
Mg1 Mg13 3.290573 1_455
Mg1 Mg12 3.290573 1_455
Mg1 Mg3 3.365998 1_565
Mg1 Mg5 3.365998 1_555
Mg2 Mg4 3.208311 1_545
Mg2 Sb0 3.215353 1_545
Mg2 Mg7 3.371551 1_554
Mg2 Mg6 3.371551 1_555
Mg2 Mg4 3.401199 1_555
Mg2 Sb0 3.426170 1_655
Mg3 Mg6 3.125039 1_555
Mg3 Mg7 3.125039 1_555
Mg3 Mg5 3.262027 1_555
Mg3 Mg5 3.347482 1_545
Mg4 Sb0 3.215353 1_555
Mg4 Mg9 3.371551 1_554
Mg4 Mg8 3.371551 1_555
Mg4 Sb0 3.426171 1_655
Mg5 Mg8 3.125039 1_555
Mg5 Mg9 3.125039 1_555
Mg6 Mg8 3.191028 1_545
Mg6 Sb0 3.359119 1_545
Mg6 Mg8 3.418482 1_555
Mg7 Mg9 3.191028 1_545
Mg7 Sb0 3.359119 1_546
Mg7 Mg9 3.418482 1_555
Mg8 Sb0 3.359113 1_555
Mg9 Sb0 3.359113 1_556
Mg10 Mg3 3.124648 1_555
Mg10 Mg5 3.124655 1_545
Mg10 Mg8 3.193582 1_545
Mg10 Mg6 3.193583 1_555
Mg10 Mg12 3.310696 1_555
Mg10 Mg12 3.310696 1_545
Mg10 Mg2 3.353247 1_555
Mg10 Mg4 3.353253 1_545
Mg10 Mg8 3.447959 1_655
Mg10 Mg6 3.447959 1_655
Mg11 Mg3 3.124648 1_555
Mg11 Mg5 3.124655 1_545
Mg11 Mg9 3.193582 1_545
Mg11 Mg7 3.193583 1_555
Mg11 Mg13 3.310696 1_555
Mg11 Mg13 3.310696 1_545
Mg11 Mg2 3.353247 1_556
Mg11 Mg4 3.353253 1_546
Mg11 Mg9 3.447959 1_655
Mg11 Mg7 3.447959 1_655
Mg12 Mg4 3.262515 1_555
Mg12 Mg2 3.262522 1_555
Mg12 Mg5 3.272135 1_555
Mg12 Mg3 3.272142 1_555
Mg12 Sb0 3.300231 1_655
Mg12 Mg6 3.307132 1_555
Mg12 Mg8 3.307132 1_555
Mg12 Mg6 3.347613 1_665
Mg12 Mg8 3.347613 1_655
Mg13 Mg4 3.262515 1_556
Mg13 Mg2 3.262522 1_556
Mg13 Mg5 3.272135 1_555
Mg13 Mg3 3.272142 1_555
Mg13 Sb0 3.300231 1_656
Mg13 Mg7 3.307132 1_555
Mg13 Mg9 3.307132 1_555
Mg13 Mg7 3.347613 1_665
Mg13 Mg9 3.347613 1_655
