# generated using pymatgen
data_Li9Mn7O16
_symmetry_space_group_name_H-M   'P 1'
_cell_length_a   6.06115700
_cell_length_b   6.50378540
_cell_length_c   8.01493084
_cell_angle_alpha   85.48722612
_cell_angle_beta   74.85121218
_cell_angle_gamma   76.67587525
_symmetry_Int_Tables_number   1
_chemical_formula_structural   Li9Mn7O16
_chemical_formula_sum   'Li9 Mn7 O16'
_cell_volume   296.70651281
_cell_formula_units_Z   1
loop_
 _symmetry_equiv_pos_site_id
 _symmetry_equiv_pos_as_xyz
  1  'x, y, z'
loop_
 _atom_site_type_symbol
 _atom_site_label
 _atom_site_symmetry_multiplicity
 _atom_site_fract_x
 _atom_site_fract_y
 _atom_site_fract_z
 _atom_site_occupancy
  Li  Li0  1  0.93488200  0.87746700  0.36908800  1
  Li  Li1  1  0.68230700  0.36920000  0.87820300  1
  Li  Li2  1  0.44053000  0.87497000  0.37434200  1
  Li  Li3  1  0.80606200  0.63089300  0.12538100  1
  Li  Li4  1  0.55947000  0.12503000  0.62565800  1
  Li  Li5  1  0.31769300  0.63080000  0.12179700  1
  Li  Li6  1  0.19393800  0.36910700  0.87461900  1
  Li  Li7  1  0.06511800  0.12253300  0.63091200  1
  Li  Li8  1  0.50000000  0.00000000  0.00000000  1
  Mn  Mn0  1  0.87426600  0.75180900  0.75523100  1
  Mn  Mn1  1  0.00000000  0.00000000  0.00000000  1
  Mn  Mn2  1  0.61797800  0.24923200  0.24325900  1
  Mn  Mn3  1  0.38202200  0.75076800  0.75674100  1
  Mn  Mn4  1  0.12573400  0.24819100  0.24476900  1
  Mn  Mn5  1  0.25003800  0.49984000  0.49956600  1
  Mn  Mn6  1  0.74996200  0.50016000  0.50043400  1
  O  O0  1  0.15612700  0.79524400  0.57256800  1
  O  O1  1  0.89354100  0.29548800  0.06069700  1
  O  O2  1  0.64456900  0.80066600  0.56572000  1
  O  O3  1  0.01596500  0.54733200  0.31780300  1
  O  O4  1  0.81051200  0.04152500  0.82938000  1
  O  O5  1  0.51993900  0.54688400  0.31344800  1
  O  O6  1  0.39793900  0.30677600  0.08128000  1
  O  O7  1  0.27103500  0.04446800  0.81722000  1
  O  O8  1  0.72896500  0.95553200  0.18278000  1
  O  O9  1  0.48006100  0.45311600  0.68655200  1
  O  O10  1  0.18948800  0.95847500  0.17062000  1
  O  O11  1  0.60206100  0.69322400  0.91872000  1
  O  O12  1  0.35543100  0.19933400  0.43428000  1
  O  O13  1  0.10645900  0.70451200  0.93930300  1
  O  O14  1  0.98403500  0.45266800  0.68219700  1
  O  O15  1  0.84387300  0.20475600  0.42743200  1
loop_
_geom_bond_atom_site_label_1
_geom_bond_atom_site_label_2
_geom_bond_distance
_geom_bond_site_symmetry_2
Li0 O10 2.036979 1_655
Li0 O15 2.129456 1_565
Li0 O3 2.137188 1_655
Li0 O8 2.146625 1_555
Li0 O2 2.159025 1_555
Li0 O0 2.327937 1_655
Li1 O11 2.082255 1_555
Li1 O4 2.123129 1_555
Li1 O6 2.130060 1_556
Li1 O1 2.143361 1_556
Li1 O9 2.168853 1_555
Li1 O14 2.220143 1_555
Li2 O12 2.115573 1_565
Li2 O8 2.140314 1_555
Li2 O5 2.142592 1_555
Li2 O0 2.148374 1_555
Li2 O2 2.171435 1_555
Li2 O10 2.460574 1_555
Li3 O8 2.115107 1_555
Li3 O5 2.125810 1_555
Li3 O13 2.153804 1_654
Li3 O1 2.193082 1_555
Li3 O3 2.206229 1_655
Li3 O11 2.273880 1_554
Li4 O2 2.115573 1_545
Li4 O7 2.140314 1_555
Li4 O9 2.142592 1_555
Li4 O15 2.148374 1_555
Li4 O12 2.171435 1_555
Li4 O4 2.460574 1_555
Li5 O6 2.082255 1_555
Li5 O10 2.123129 1_555
Li5 O11 2.130060 1_554
Li5 O13 2.143361 1_554
Li5 O5 2.168853 1_555
Li5 O3 2.220143 1_555
Li6 O7 2.115107 1_555
Li6 O9 2.125810 1_555
Li6 O1 2.153804 1_456
Li6 O13 2.193082 1_555
Li6 O14 2.206229 1_455
Li6 O6 2.273880 1_556
Li7 O4 2.036979 1_455
Li7 O0 2.129456 1_545
Li7 O14 2.137188 1_455
Li7 O7 2.146625 1_555
Li7 O12 2.159025 1_555
Li7 O15 2.327937 1_455
Li8 O6 2.052543 1_555
Li8 O11 2.052543 1_544
Li8 O10 2.077538 1_545
Li8 O4 2.077538 1_554
Li8 O8 2.228603 1_545
Li8 O7 2.228603 1_554
Mn0 O11 1.914563 1_555
Mn0 O4 1.942550 1_565
Mn0 O14 1.987336 1_555
Mn0 O0 1.997989 1_655
Mn0 O13 2.250799 1_655
Mn0 O2 2.274153 1_555
Mn1 O13 1.938504 1_544
Mn1 O1 1.938504 1_455
Mn1 O8 1.955251 1_445
Mn1 O7 1.955251 1_554
Mn1 O10 1.970254 1_545
Mn1 O4 1.970254 1_454
Mn2 O8 1.928530 1_545
Mn2 O12 1.966766 1_555
Mn2 O5 1.970684 1_555
Mn2 O1 1.976411 1_555
Mn2 O6 2.050045 1_555
Mn2 O15 2.223489 1_555
Mn3 O7 1.928530 1_565
Mn3 O2 1.966766 1_555
Mn3 O9 1.970684 1_555
Mn3 O13 1.976411 1_555
Mn3 O11 2.050045 1_555
Mn3 O0 2.223489 1_555
Mn4 O6 1.914563 1_555
Mn4 O10 1.942550 1_545
Mn4 O3 1.987336 1_555
Mn4 O15 1.997989 1_455
Mn4 O1 2.250799 1_455
Mn4 O12 2.274153 1_555
Mn5 O14 1.939091 1_455
Mn5 O0 1.963746 1_555
Mn5 O5 1.969390 1_555
Mn5 O12 1.977986 1_555
Mn5 O3 2.244559 1_555
Mn5 O9 2.259937 1_555
Mn6 O3 1.939091 1_655
Mn6 O15 1.963746 1_555
Mn6 O9 1.969390 1_555
Mn6 O2 1.977986 1_555
Mn6 O14 2.244559 1_555
Mn6 O5 2.259937 1_555
