# generated using pymatgen
data_Mg2PHO5
_symmetry_space_group_name_H-M   'P 1'
_cell_length_a   11.56233179
_cell_length_b   11.56233179
_cell_length_c   4.66620000
_cell_angle_alpha   90.00000000
_cell_angle_beta   90.00000000
_cell_angle_gamma   119.99999882
_symmetry_Int_Tables_number   1
_chemical_formula_structural   Mg2PHO5
_chemical_formula_sum   'Mg12 P6 H6 O30'
_cell_volume   540.23764272
_cell_formula_units_Z   6
loop_
 _symmetry_equiv_pos_site_id
 _symmetry_equiv_pos_as_xyz
  1  'x, y, z'
loop_
 _atom_site_type_symbol
 _atom_site_label
 _atom_site_symmetry_multiplicity
 _atom_site_fract_x
 _atom_site_fract_y
 _atom_site_fract_z
 _atom_site_occupancy
  Mg  Mg0  1  0.51692500  0.85430200  0.91868500  1
  Mg  Mg1  1  0.33737700  0.48307500  0.91868500  1
  Mg  Mg2  1  0.14569800  0.66262300  0.91868500  1
  Mg  Mg3  1  0.48307500  0.33737700  0.91868500  1
  Mg  Mg4  1  0.85430200  0.51692500  0.91868500  1
  Mg  Mg5  1  0.66262300  0.14569800  0.91868500  1
  Mg  Mg6  1  0.67805200  0.85560900  0.45465600  1
  Mg  Mg7  1  0.17755600  0.32194800  0.45465600  1
  Mg  Mg8  1  0.14439100  0.82244400  0.45465600  1
  Mg  Mg9  1  0.32194800  0.17755600  0.45465600  1
  Mg  Mg10  1  0.85560900  0.67805200  0.45465600  1
  Mg  Mg11  1  0.82244400  0.14439100  0.45465600  1
  P  P0  1  0.33333300  0.66666700  0.41161500  1
  P  P1  1  0.66666700  0.33333300  0.41161500  1
  P  P2  1  0.00000000  0.34948600  0.98090200  1
  P  P3  1  0.34948600  0.00000000  0.98090200  1
  P  P4  1  0.65051400  0.65051400  0.98090200  1
  P  P5  1  0.00000000  0.00000000  0.07739600  1
  H  H0  1  0.00000000  0.53621500  0.44326200  1
  H  H1  1  0.53621500  0.00000000  0.44326200  1
  H  H2  1  0.46378500  0.46378500  0.44326200  1
  H  H3  1  0.00000000  0.11071000  0.96274500  1
  H  H4  1  0.11071000  0.00000000  0.96274500  1
  H  H5  1  0.88929000  0.88929000  0.96274500  1
  O  O0  1  0.00000000  0.79710900  0.77250000  1
  O  O1  1  0.79710900  0.00000000  0.77250000  1
  O  O2  1  0.20289100  0.20289100  0.77250000  1
  O  O3  1  0.47745900  0.75749800  0.30220900  1
  O  O4  1  0.28003900  0.52254100  0.30220900  1
  O  O5  1  0.24250200  0.71996100  0.30220900  1
  O  O6  1  0.52254100  0.28003900  0.30220900  1
  O  O7  1  0.75749800  0.47745900  0.30220900  1
  O  O8  1  0.71996100  0.24250200  0.30220900  1
  O  O9  1  0.00000000  0.26984100  0.25150400  1
  O  O10  1  0.26984100  0.00000000  0.25150400  1
  O  O11  1  0.73015900  0.73015900  0.25150400  1
  O  O12  1  0.60605900  0.73439800  0.80321400  1
  O  O13  1  0.12833900  0.39394100  0.80321400  1
  O  O14  1  0.26560200  0.87166100  0.80321400  1
  O  O15  1  0.39394100  0.12833900  0.80321400  1
  O  O16  1  0.73439800  0.60605900  0.80321400  1
  O  O17  1  0.87166100  0.26560200  0.80321400  1
  O  O18  1  0.00000000  0.47822400  0.07970700  1
  O  O19  1  0.47822400  0.00000000  0.07970700  1
  O  O20  1  0.52177600  0.52177600  0.07970700  1
  O  O21  1  0.33333300  0.66666700  0.74824800  1
  O  O22  1  0.66666700  0.33333300  0.74824800  1
  O  O23  1  0.00000000  0.72307000  0.05016800  1
  O  O24  1  0.72307000  0.00000000  0.05016800  1
  O  O25  1  0.27693000  0.27693000  0.05016800  1
  O  O26  1  0.00000000  0.59988000  0.58324600  1
  O  O27  1  0.59988000  0.00000000  0.58324600  1
  O  O28  1  0.40012000  0.40012000  0.58324600  1
  O  O29  1  0.00000000  0.00000000  0.40895500  1
loop_
_geom_bond_atom_site_label_1
_geom_bond_atom_site_label_2
_geom_bond_distance
_geom_bond_site_symmetry_2
Mg0 O3 2.037875 1_556
Mg0 O19 2.087223 1_566
Mg0 O27 2.142899 1_565
Mg0 O12 2.168699 1_555
Mg0 O24 2.209113 1_566
Mg0 O21 2.289101 1_555
Mg1 O4 2.037875 1_556
Mg1 O20 2.087223 1_556
Mg1 O28 2.142899 1_555
Mg1 O13 2.168699 1_555
Mg1 O25 2.209113 1_556
Mg1 O21 2.289106 1_555
Mg2 O5 2.037875 1_556
Mg2 O18 2.087223 1_556
Mg2 O26 2.142899 1_555
Mg2 O14 2.168699 1_555
Mg2 O23 2.209113 1_556
Mg2 O21 2.289095 1_555
Mg3 O6 2.037875 1_556
Mg3 O20 2.087223 1_556
Mg3 O28 2.142899 1_555
Mg3 O15 2.168699 1_555
Mg3 O25 2.209113 1_556
Mg3 O22 2.289106 1_555
Mg4 O7 2.037875 1_556
Mg4 O18 2.087223 1_656
Mg4 O26 2.142899 1_655
Mg4 O16 2.168699 1_555
Mg4 O23 2.209113 1_656
Mg4 O22 2.289101 1_555
Mg5 O8 2.037875 1_556
Mg5 O19 2.087223 1_556
Mg5 O27 2.142899 1_555
Mg5 O17 2.168699 1_555
Mg5 O24 2.209113 1_556
Mg5 O22 2.289095 1_555
Mg6 O12 2.033657 1_555
Mg6 O11 2.058983 1_555
Mg6 O3 2.130985 1_555
Mg6 O1 2.140946 1_565
Mg6 O27 2.339481 1_565
Mg6 O24 2.398233 1_565
Mg7 O13 2.033651 1_555
Mg7 O9 2.058973 1_555
Mg7 O4 2.130986 1_555
Mg7 O2 2.140951 1_555
Mg7 O28 2.339492 1_555
Mg7 O25 2.398239 1_555
Mg8 O14 2.033658 1_555
Mg8 O10 2.058976 1_565
Mg8 O5 2.130995 1_555
Mg8 O0 2.140943 1_555
Mg8 O26 2.339490 1_555
Mg8 O23 2.398234 1_555
Mg9 O15 2.033651 1_555
Mg9 O10 2.058973 1_555
Mg9 O6 2.130986 1_555
Mg9 O2 2.140951 1_555
Mg9 O28 2.339492 1_555
Mg9 O25 2.398239 1_555
Mg10 O16 2.033657 1_555
Mg10 O11 2.058983 1_555
Mg10 O7 2.130985 1_555
Mg10 O0 2.140946 1_655
Mg10 O26 2.339481 1_655
Mg10 O23 2.398233 1_655
Mg11 O17 2.033658 1_555
Mg11 O9 2.058976 1_655
Mg11 O8 2.130995 1_555
Mg11 O1 2.140943 1_555
Mg11 O27 2.339490 1_555
Mg11 O24 2.398234 1_555
H0 O26 0.984138 1_555
H1 O27 0.984138 1_555
H2 O28 0.984138 1_555
H3 P5 1.387363 1_556
H4 P5 1.387363 1_556
H5 P5 1.387363 1_666
O0 O23 1.552921 1_556
O1 O24 1.552921 1_556
O2 O25 1.552921 1_556
O3 P0 1.546111 1_555
O4 P0 1.546113 1_555
O5 P0 1.546102 1_555
O6 P1 1.546113 1_555
O7 P1 1.546111 1_555
O8 P1 1.546102 1_555
O9 P2 1.562815 1_554
O10 P3 1.562815 1_554
O11 P4 1.562815 1_554
O12 P4 1.546246 1_555
O13 P2 1.546246 1_555
O14 P3 1.546246 1_565
O15 P3 1.546246 1_555
O16 P4 1.546246 1_555
O17 P2 1.546246 1_655
O18 P2 1.558277 1_554
O19 P3 1.558277 1_554
O20 P4 1.558277 1_554
O21 P0 1.570797 1_555
O22 P1 1.570797 1_555
O29 P5 1.547121 1_555
