# generated using pymatgen
data_Li5V3P8O29
_symmetry_space_group_name_H-M   'P 1'
_cell_length_a   9.75790900
_cell_length_b   9.76749008
_cell_length_c   14.11644277
_cell_angle_alpha   90.02768836
_cell_angle_beta   90.03642771
_cell_angle_gamma   119.52543060
_symmetry_Int_Tables_number   1
_chemical_formula_structural   Li5V3P8O29
_chemical_formula_sum   'Li10 V6 P16 O58'
_cell_volume   1170.71829540
_cell_formula_units_Z   2
loop_
 _symmetry_equiv_pos_site_id
 _symmetry_equiv_pos_as_xyz
  1  'x, y, z'
loop_
 _atom_site_type_symbol
 _atom_site_label
 _atom_site_symmetry_multiplicity
 _atom_site_fract_x
 _atom_site_fract_y
 _atom_site_fract_z
 _atom_site_occupancy
  Li  Li0  1  0.09721000  0.33528400  0.06008100  1
  Li  Li1  1  0.23457500  0.90591200  0.05904600  1
  Li  Li2  1  0.66957200  0.76760800  0.06054900  1
  Li  Li3  1  0.33615700  0.09843800  0.43998300  1
  Li  Li4  1  0.66853800  0.90522200  0.56098500  1
  Li  Li5  1  0.90664600  0.23550900  0.43999400  1
  Li  Li6  1  0.76968200  0.67054500  0.44034600  1
  Li  Li7  1  0.89880400  0.66250200  0.94154800  1
  Li  Li8  1  0.01921200  0.04247100  0.99597700  1
  Li  Li9  1  0.04450600  0.01383800  0.50152600  1
  V  V0  1  0.43500000  0.99982200  0.24918000  1
  V  V1  1  0.56555700  0.00085900  0.75424400  1
  V  V2  1  0.43293100  0.43128700  0.75100900  1
  V  V3  1  0.55833800  0.55813500  0.25037200  1
  V  V4  1  0.99937000  0.43442300  0.25035700  1
  V  V5  1  0.00189700  0.56573200  0.74458400  1
  P  P0  1  0.08749800  0.31139100  0.84029500  1
  P  P1  1  0.22220500  0.30501300  0.34237900  1
  P  P2  1  0.08600200  0.77817700  0.34007500  1
  P  P3  1  0.33244400  0.66553400  0.13177200  1
  P  P4  1  0.33765900  0.66622400  0.63192600  1
  P  P5  1  0.21968600  0.90943900  0.84185400  1
  P  P6  1  0.31079900  0.08649100  0.66021700  1
  P  P7  1  0.68541700  0.77229300  0.84161100  1
  P  P8  1  0.30495100  0.22252300  0.15660700  1
  P  P9  1  0.68620800  0.91280100  0.34428800  1
  P  P10  1  0.77817000  0.08437700  0.16028300  1
  P  P11  1  0.66554400  0.33234900  0.36919900  1
  P  P12  1  0.67361200  0.34065800  0.86754400  1
  P  P13  1  0.91123200  0.22196000  0.65785200  1
  P  P14  1  0.77280400  0.68617300  0.65896300  1
  P  P15  1  0.91302800  0.68580200  0.15651800  1
  O  O0  1  0.98990200  0.21830000  0.56781600  1
  O  O1  1  0.08042700  0.33626800  0.33939300  1
  O  O2  1  0.20218800  0.20866400  0.07376700  1
  O  O3  1  0.25958900  0.34385600  0.83251000  1
  O  O4  1  0.08227600  0.46556200  0.82687000  1
  O  O5  1  0.18811800  0.51046800  0.17059300  1
  O  O6  1  0.08216000  0.61994900  0.33154900  1
  O  O7  1  0.99799600  0.76431900  0.06572900  1
  O  O8  1  0.07669500  0.73788600  0.83356200  1
  O  O9  1  0.33696000  0.52027400  0.67960900  1
  O  O10  1  0.37684800  0.46199100  0.33237000  1
  O  O11  1  0.18743000  0.66408700  0.67893000  1
  O  O12  1  0.33816500  0.66525600  0.02578400  1
  O  O13  1  0.32893100  0.65881300  0.52711200  1
  O  O14  1  0.32123200  0.80975200  0.17086700  1
  O  O15  1  0.53131900  0.61663000  0.82827400  1
  O  O16  1  0.48616600  0.67312600  0.17565500  1
  O  O17  1  0.25748000  0.91861800  0.33952800  1
  O  O18  1  0.19941800  0.99754600  0.74974900  1
  O  O19  1  0.22643000  0.01674700  0.56921100  1
  O  O20  1  0.20043200  0.98060800  0.93132000  1
  O  O21  1  0.37455300  0.90840400  0.83043400  1
  O  O22  1  0.48832300  0.81446200  0.66917900  1
  O  O23  1  0.33901300  0.08284300  0.15871300  1
  O  O24  1  0.52861500  0.90999100  0.32778400  1
  O  O25  1  0.66324500  0.74543600  0.34228600  1
  O  O26  1  0.20103200  0.20020200  0.24982900  1
  O  O27  1  0.21035100  0.20434900  0.42579700  1
  O  O28  1  0.77849900  0.77613400  0.57078400  1
  O  O29  1  0.34515000  0.25889400  0.66932400  1
  O  O30  1  0.46435200  0.08029600  0.67281900  1
  O  O31  1  0.65473600  0.91236600  0.83675100  1
  O  O32  1  0.51059800  0.18871800  0.33000700  1
  O  O33  1  0.61947000  0.08154500  0.16949400  1
  O  O34  1  0.79240100  0.99295700  0.07886400  1
  O  O35  1  0.76740900  0.99806900  0.43490500  1
  O  O36  1  0.80052900  0.00863100  0.25777100  1
  O  O37  1  0.74217800  0.08081800  0.66260600  1
  O  O38  1  0.52556100  0.34110800  0.82116600  1
  O  O39  1  0.45979800  0.37971600  0.16586400  1
  O  O40  1  0.67335800  0.19448600  0.82592500  1
  O  O41  1  0.68007400  0.36187700  0.97199900  1
  O  O42  1  0.66581300  0.34025600  0.47515300  1
  O  O43  1  0.80933800  0.32146600  0.32973200  1
  O  O44  1  0.61687300  0.53232400  0.67108300  1
  O  O45  1  0.67212500  0.48576200  0.32484600  1
  O  O46  1  0.91777100  0.25578100  0.15990700  1
  O  O47  1  0.99916100  0.20229300  0.74968500  1
  O  O48  1  0.01550300  0.22711500  0.93077400  1
  O  O49  1  0.91127800  0.38004100  0.67329600  1
  O  O50  1  0.82001200  0.49142200  0.82273800  1
  O  O51  1  0.90941700  0.52733700  0.17374100  1
  O  O52  1  0.74605500  0.66339800  0.15886900  1
  O  O53  1  0.77409800  0.77557300  0.92986900  1
  O  O54  1  0.79552700  0.79443600  0.75049500  1
  O  O55  1  0.91429600  0.65577500  0.66239900  1
  O  O56  1  0.99549100  0.79517400  0.42125300  1
  O  O57  1  0.00984800  0.80030100  0.24248500  1
loop_
_geom_bond_atom_site_label_1
_geom_bond_atom_site_label_2
_geom_bond_distance
_geom_bond_site_symmetry_2
Li0 O2 1.965930 1_555
Li0 O48 2.061528 1_554
Li0 O46 2.078152 1_455
Li0 O5 2.155948 1_555
Li1 O7 2.025951 1_455
Li1 O20 2.033306 1_554
Li1 O23 2.065092 1_565
Li1 O14 2.207133 1_555
Li2 O34 1.935731 1_555
Li2 O52 2.065954 1_555
Li2 O53 2.091348 1_554
Li2 O16 2.252133 1_555
Li3 O27 1.966935 1_555
Li3 O19 2.067069 1_555
Li3 O17 2.086240 1_545
Li3 O32 2.147193 1_555
Li4 O35 2.015516 1_555
Li4 O28 2.023275 1_555
Li4 O37 2.073036 1_565
Li4 O22 2.163142 1_555
Li5 O0 2.019185 1_555
Li5 O35 2.030716 1_545
Li5 O1 2.054361 1_655
Li5 O43 2.194159 1_555
Li6 O56 1.940865 1_555
Li6 O25 2.068312 1_555
Li6 O28 2.090940 1_555
Li6 O45 2.263595 1_555
Li7 O7 2.011535 1_556
Li7 O53 2.013014 1_555
Li7 O8 2.150290 1_655
Li7 O50 2.219397 1_555
Li8 O48 2.041335 1_555
Li8 O2 2.041555 1_556
Li8 O20 2.319446 1_545
Li8 O34 2.334542 1_446
Li9 O19 2.003288 1_555
Li9 O27 2.064076 1_555
Li9 O56 2.250468 1_445
Li9 O0 2.489081 1_455
O0 P13 1.494733 1_555
O1 P1 1.557285 1_555
O1 V4 1.967684 1_455
O2 P8 1.501970 1_555
O3 P0 1.551754 1_555
O3 V2 1.869142 1_555
O4 P0 1.543383 1_555
O4 V5 1.917822 1_555
O5 P3 1.573888 1_555
O5 V4 1.966422 1_455
O6 P2 1.532038 1_555
O6 V4 1.950384 1_455
O7 P15 1.514501 1_555
O8 P5 1.569565 1_555
O8 V5 1.930031 1_555
O9 P4 1.573758 1_555
O9 V2 1.857487 1_555
O10 P1 1.538836 1_555
O10 V3 1.929386 1_555
O11 P4 1.600226 1_555
O11 V5 1.829820 1_555
O12 P3 1.497301 1_555
O13 P4 1.481679 1_555
O14 P3 1.565904 1_555
O14 V0 1.966284 1_555
O15 P7 1.534343 1_555
O15 V2 1.916350 1_555
O16 P3 1.590095 1_555
O16 V3 1.910438 1_555
O17 P2 1.555415 1_555
O17 V0 1.976346 1_555
O18 P6 1.614168 1_565
O18 P5 1.624418 1_555
O19 P6 1.495755 1_555
O20 P5 1.497238 1_555
O21 P5 1.524833 1_555
O21 V1 1.946947 1_565
O22 P4 1.560323 1_555
O22 V1 1.992233 1_565
O23 P8 1.555540 1_555
O23 V0 1.978343 1_545
O24 P9 1.541990 1_555
O24 V0 1.903996 1_555
O25 P9 1.536973 1_555
O25 V3 2.056335 1_555
O26 P1 1.608573 1_555
O26 P8 1.609853 1_555
O27 P1 1.501994 1_555
O28 P14 1.509195 1_555
O29 P6 1.551759 1_555
O29 V2 1.863859 1_555
O30 P6 1.539289 1_555
O30 V1 1.911310 1_555
O31 P7 1.539474 1_555
O31 V1 1.897874 1_565
O32 P11 1.570923 1_555
O32 V0 1.976264 1_545
O33 P10 1.540718 1_555
O33 V0 1.931305 1_545
O34 P10 1.503016 1_565
O35 P9 1.518240 1_555
O36 P9 1.608056 1_545
O36 P10 1.627439 1_555
O37 P13 1.544359 1_555
O37 V1 1.982626 1_555
O38 P12 1.587692 1_555
O38 V2 1.832505 1_555
O39 P8 1.539650 1_555
O39 V3 1.931234 1_555
O40 P12 1.542498 1_555
O40 V1 1.934741 1_555
O41 P12 1.485895 1_555
O42 P11 1.497583 1_555
O43 P11 1.561541 1_555
O43 V4 1.974501 1_555
O44 P14 1.532829 1_555
O44 V2 1.930372 1_555
O45 P11 1.596130 1_555
O45 V3 1.900162 1_555
O46 P10 1.552665 1_555
O46 V4 1.983962 1_555
O47 P0 1.614488 1_655
O47 P13 1.617060 1_555
O48 P0 1.494880 1_555
O49 P13 1.559047 1_555
O49 V5 1.870992 1_655
O50 P12 1.593101 1_555
O50 V5 1.904614 1_655
O51 P15 1.550056 1_555
O51 V4 1.883798 1_555
O52 P15 1.533718 1_555
O52 V3 2.056424 1_555
O53 P7 1.507762 1_555
O54 P14 1.613734 1_555
O54 P7 1.621292 1_555
O55 P14 1.549425 1_555
O55 V5 1.894961 1_655
O56 P2 1.505460 1_655
O57 P15 1.603700 1_455
O57 P2 1.629112 1_555
