# generated using pymatgen
data_BaMnOF5
_symmetry_space_group_name_H-M   'P 1'
_cell_length_a   8.07713400
_cell_length_b   5.62392900
_cell_length_c   6.30960655
_cell_angle_alpha   68.54082494
_cell_angle_beta   90.00000000
_cell_angle_gamma   90.00000000
_symmetry_Int_Tables_number   1
_chemical_formula_structural   BaMnOF5
_chemical_formula_sum   'Ba2 Mn2 O2 F10'
_cell_volume   266.74670606
_cell_formula_units_Z   2
loop_
 _symmetry_equiv_pos_site_id
 _symmetry_equiv_pos_as_xyz
  1  'x, y, z'
loop_
 _atom_site_type_symbol
 _atom_site_label
 _atom_site_symmetry_multiplicity
 _atom_site_fract_x
 _atom_site_fract_y
 _atom_site_fract_z
 _atom_site_occupancy
  Ba  Ba0  1  0.25000000  0.90695300  0.37715500  1
  Ba  Ba1  1  0.75000000  0.09304700  0.62284500  1
  Mn  Mn0  1  0.00000000  0.50000000  0.00000000  1
  Mn  Mn1  1  0.50000000  0.50000000  0.00000000  1
  O  O0  1  0.25000000  0.32992200  0.57482500  1
  O  O1  1  0.75000000  0.67007800  0.42517500  1
  F  F0  1  0.25000000  0.39026200  0.03460000  1
  F  F1  1  0.75000000  0.60973800  0.96540000  1
  F  F2  1  0.03635800  0.70462700  0.17233700  1
  F  F3  1  0.53635800  0.29537300  0.82766300  1
  F  F4  1  0.96364200  0.29537300  0.82766300  1
  F  F5  1  0.46364200  0.70462700  0.17233700  1
  F  F6  1  0.03181300  0.78855300  0.72318800  1
  F  F7  1  0.53181300  0.21144700  0.27681200  1
  F  F8  1  0.96818700  0.21144700  0.27681200  1
  F  F9  1  0.46818700  0.78855300  0.72318800  1
loop_
_geom_bond_atom_site_label_1
_geom_bond_atom_site_label_2
_geom_bond_distance
_geom_bond_site_symmetry_2
Ba0 F2 2.649246 1_555
Ba0 F5 2.649246 1_555
Ba0 F9 2.693026 1_555
Ba0 F6 2.693026 1_555
Ba0 F7 2.778729 1_565
Ba0 F8 2.778729 1_465
Ba0 F0 2.785883 1_565
Ba0 O0 3.020817 1_555
Ba0 O0 3.063454 1_565
Ba1 F4 2.649246 1_555
Ba1 F3 2.649246 1_555
Ba1 F7 2.693026 1_555
Ba1 F8 2.693026 1_555
Ba1 F9 2.778729 1_545
Ba1 F6 2.778729 1_645
Ba1 F1 2.785883 1_545
Ba1 O1 3.020817 1_555
Ba1 O1 3.063454 1_545
F0 Mn1 2.099397 1_555
F0 Mn0 2.099397 1_555
F1 Mn1 2.099397 1_556
F1 Mn0 2.099397 1_656
F2 Mn0 1.873122 1_555
F3 Mn1 1.873122 1_556
F4 Mn0 1.873122 1_656
F5 Mn1 1.873122 1_555
F6 Mn0 1.917345 1_556
F7 Mn1 1.917345 1_555
F8 Mn0 1.917345 1_655
F9 Mn1 1.917345 1_556
