# generated using pymatgen
data_SrCrP2O7
_symmetry_space_group_name_H-M   'P 1'
_cell_length_a   8.43837600
_cell_length_b   5.49471700
_cell_length_c   13.85387169
_cell_angle_alpha   67.06201867
_cell_angle_beta   90.00000000
_cell_angle_gamma   90.00000000
_symmetry_Int_Tables_number   1
_chemical_formula_structural   SrCrP2O7
_chemical_formula_sum   'Sr4 Cr4 P8 O28'
_cell_volume   591.56257219
_cell_formula_units_Z   4
loop_
 _symmetry_equiv_pos_site_id
 _symmetry_equiv_pos_as_xyz
  1  'x, y, z'
loop_
 _atom_site_type_symbol
 _atom_site_label
 _atom_site_symmetry_multiplicity
 _atom_site_fract_x
 _atom_site_fract_y
 _atom_site_fract_z
 _atom_site_occupancy
  Sr  Sr0  1  0.41008800  0.98837200  0.22204300  1
  Sr  Sr1  1  0.91363600  0.00889400  0.27644500  1
  Sr  Sr2  1  0.08636400  0.00889400  0.77644500  1
  Sr  Sr3  1  0.58991200  0.98837200  0.72204300  1
  Cr  Cr0  1  0.39554900  0.31815800  0.89081300  1
  Cr  Cr1  1  0.10371200  0.67865000  0.10995500  1
  Cr  Cr2  1  0.89628800  0.67865000  0.60995500  1
  Cr  Cr3  1  0.60445100  0.31815800  0.39081300  1
  P  P0  1  0.55160100  0.66990500  0.51644300  1
  P  P1  1  0.05113600  0.32758000  0.98408600  1
  P  P2  1  0.94886400  0.32758000  0.48408600  1
  P  P3  1  0.44839900  0.66990500  0.01644300  1
  P  P4  1  0.21213300  0.41123400  0.33624200  1
  P  P5  1  0.78786700  0.41123400  0.83624200  1
  P  P6  1  0.29012100  0.59173000  0.66342300  1
  P  P7  1  0.70987900  0.59173000  0.16342300  1
  O  O0  1  0.56335200  0.87434800  0.40463400  1
  O  O1  1  0.06224800  0.12536300  0.09622200  1
  O  O2  1  0.93775200  0.12536300  0.59622200  1
  O  O3  1  0.43664800  0.87434800  0.90463400  1
  O  O4  1  0.41534400  0.38190500  0.02966500  1
  O  O5  1  0.91760800  0.61624800  0.47075900  1
  O  O6  1  0.08239200  0.61624800  0.97075900  1
  O  O7  1  0.58465600  0.38190500  0.52966500  1
  O  O8  1  0.68879300  0.81648600  0.20081000  1
  O  O9  1  0.18987400  0.19332400  0.29528800  1
  O  O10  1  0.81012600  0.19332400  0.79528800  1
  O  O11  1  0.31120700  0.81648600  0.70081000  1
  O  O12  1  0.63298200  0.68163600  0.04815200  1
  O  O13  1  0.13252600  0.31530000  0.45085100  1
  O  O14  1  0.86747400  0.31530000  0.95085100  1
  O  O15  1  0.36701800  0.68163600  0.54815200  1
  O  O16  1  0.61568800  0.47511000  0.85074600  1
  O  O17  1  0.11752700  0.52425500  0.65149100  1
  O  O18  1  0.88247300  0.52425500  0.15149100  1
  O  O19  1  0.38431200  0.47511000  0.35074600  1
  O  O20  1  0.65112700  0.74071400  0.59577100  1
  O  O21  1  0.15178200  0.25312800  0.90623500  1
  O  O22  1  0.62436800  0.33528900  0.23523800  1
  O  O23  1  0.34887300  0.74071400  0.09577100  1
  O  O24  1  0.37563200  0.33528900  0.73523800  1
  O  O25  1  0.86969500  0.67244500  0.76466900  1
  O  O26  1  0.13030500  0.67244500  0.26466900  1
  O  O27  1  0.84821800  0.25312800  0.40623500  1
loop_
_geom_bond_atom_site_label_1
_geom_bond_atom_site_label_2
_geom_bond_distance
_geom_bond_site_symmetry_2
Cr0 O16 2.032108 1_555
Cr0 O21 2.084480 1_555
Cr0 O4 2.091931 1_556
Cr0 O24 2.127053 1_555
Cr0 O3 2.395788 1_545
Cr1 O18 2.038535 1_455
Cr1 O23 2.093430 1_555
Cr1 O6 2.093817 1_554
Cr1 O26 2.142118 1_555
Cr1 O1 2.412361 1_565
Cr2 O17 2.038535 1_655
Cr2 O20 2.093430 1_555
Cr2 O5 2.093817 1_555
Cr2 O25 2.142118 1_555
Cr2 O2 2.412361 1_565
Cr3 O19 2.032108 1_555
Cr3 O27 2.084480 1_555
Cr3 O7 2.091931 1_555
Cr3 O22 2.127053 1_555
Cr3 O0 2.395788 1_545
O0 P0 1.521446 1_555
O0 Sr0 2.688614 1_555
O1 P1 1.520305 1_554
O1 Sr1 2.640198 1_455
O2 P2 1.520305 1_555
O2 Sr2 2.640198 1_655
O3 P3 1.521446 1_556
O3 Sr3 2.688614 1_555
O4 P3 1.545849 1_555
O4 Sr0 2.699777 1_545
O5 P2 1.546367 1_555
O5 Sr1 2.715806 1_565
O6 P1 1.546367 1_555
O6 Sr2 2.715806 1_565
O7 P0 1.545849 1_555
O7 Sr3 2.699777 1_545
O8 P7 1.524363 1_555
O8 Sr1 2.584371 1_565
O8 Sr0 2.593481 1_555
O9 P4 1.523278 1_555
O9 Sr0 2.577151 1_545
O9 Sr1 2.595163 1_455
O10 P5 1.523278 1_555
O10 Sr3 2.577151 1_545
O10 Sr2 2.595163 1_655
O11 P6 1.524363 1_555
O11 Sr2 2.584371 1_565
O11 Sr3 2.593481 1_555
O12 P7 1.612581 1_555
O12 P3 1.626426 1_555
O13 P4 1.611760 1_555
O13 P2 1.625631 1_455
O14 P5 1.611760 1_555
O14 P1 1.625631 1_655
O15 P6 1.612581 1_555
O15 P0 1.626426 1_555
O16 P5 1.526265 1_555
O16 Sr3 2.694551 1_555
O17 P6 1.527644 1_555
O17 Sr2 2.695130 1_555
O18 P7 1.527644 1_555
O18 Sr1 2.695130 1_555
O19 P4 1.526265 1_555
O19 Sr0 2.694551 1_555
O20 P0 1.548485 1_555
O20 Sr3 2.652252 1_555
O21 P1 1.547841 1_555
O21 Sr2 2.686952 1_555
O22 P7 1.550246 1_555
O22 Sr0 2.684803 1_545
O22 Sr1 2.950009 1_555
O23 P3 1.548485 1_555
O23 Sr0 2.652252 1_555
O24 P6 1.550246 1_555
O24 Sr3 2.684803 1_545
O24 Sr2 2.950009 1_555
O25 P5 1.552641 1_555
O25 Sr2 2.649938 1_665
O25 Sr3 2.852550 1_555
O26 P4 1.552641 1_555
O26 Sr1 2.649938 1_465
O26 Sr0 2.852550 1_555
O27 P2 1.547841 1_555
O27 Sr1 2.686952 1_555
