# generated using pymatgen
data_In3GaTe4
_symmetry_space_group_name_H-M   'P 1'
_cell_length_a   7.02996228
_cell_length_b   7.02996228
_cell_length_c   7.02996228
_cell_angle_alpha   104.43600361
_cell_angle_beta   104.43600361
_cell_angle_gamma   120.09286816
_symmetry_Int_Tables_number   1
_chemical_formula_structural   In3GaTe4
_chemical_formula_sum   'In3 Ga1 Te4'
_cell_volume   260.44503907
_cell_formula_units_Z   1
loop_
 _symmetry_equiv_pos_site_id
 _symmetry_equiv_pos_as_xyz
  1  'x, y, z'
loop_
 _atom_site_type_symbol
 _atom_site_label
 _atom_site_symmetry_multiplicity
 _atom_site_fract_x
 _atom_site_fract_y
 _atom_site_fract_z
 _atom_site_occupancy
  In  In0  1  0.50000000  0.00000000  0.50000000  1
  In  In1  1  0.00000000  0.50000000  0.50000000  1
  In  In2  1  0.50000000  0.50000000  0.00000000  1
  Ga  Ga0  1  0.00000000  0.00000000  0.00000000  1
  Te  Te0  1  0.40869100  0.40869100  0.35159200  1
  Te  Te1  1  0.05709900  0.05709900  0.64840800  1
  Te  Te2  1  0.59130900  0.94290100  0.00000000  1
  Te  Te3  1  0.94290100  0.59130900  0.00000000  1
loop_
_geom_bond_atom_site_label_1
_geom_bond_atom_site_label_2
_geom_bond_distance
_geom_bond_site_symmetry_2
In2 Te2 2.846434 1_555
In2 Te3 2.846434 1_555
In2 Te0 2.846434 1_555
In2 Te1 2.846434 1_554
Ga0 Te3 2.694295 1_445
Ga0 Te2 2.694295 1_445
Ga0 Te0 2.694295 1_555
Ga0 Te1 2.694295 1_554
