# generated using pymatgen
data_Na3Sr4Cr5F26
_symmetry_space_group_name_H-M   'P 1'
_cell_length_a   7.58119648
_cell_length_b   10.84518943
_cell_length_c   28.05557244
_cell_angle_alpha   86.07544453
_cell_angle_beta   82.23500003
_cell_angle_gamma   69.54211358
_symmetry_Int_Tables_number   1
_chemical_formula_structural   Na3Sr4Cr5F26
_chemical_formula_sum   'Na12 Sr16 Cr20 F104'
_cell_volume   2140.85268698
_cell_formula_units_Z   4
loop_
 _symmetry_equiv_pos_site_id
 _symmetry_equiv_pos_as_xyz
  1  'x, y, z'
loop_
 _atom_site_type_symbol
 _atom_site_label
 _atom_site_symmetry_multiplicity
 _atom_site_fract_x
 _atom_site_fract_y
 _atom_site_fract_z
 _atom_site_occupancy
  Na  Na0  1  0.50306230  0.75000000  0.75000000  1
  Na  Na1  1  0.49693770  0.25000000  0.25000000  1
  Na  Na2  1  0.99832854  0.75000000  0.75000000  1
  Na  Na3  1  0.00167146  0.25000000  0.25000000  1
  Na  Na4  1  0.61598158  0.12676869  0.12600636  1
  Na  Na5  1  0.36875663  0.37323131  0.37399364  1
  Na  Na6  1  0.38401842  0.87323131  0.87399364  1
  Na  Na7  1  0.63124337  0.62676869  0.62600636  1
  Na  Na8  1  0.25272458  0.49661048  0.49762038  1
  Na  Na9  1  0.74695544  0.00338952  0.00237962  1
  Na  Na10  1  0.74727542  0.50338952  0.50237962  1
  Na  Na11  1  0.25304456  0.99661048  0.99762038  1
  Sr  Sr0  1  0.51316095  0.13761849  0.75362186  1
  Sr  Sr1  1  0.90440130  0.36238151  0.74637814  1
  Sr  Sr2  1  0.48683905  0.86238151  0.24637814  1
  Sr  Sr3  1  0.09559870  0.63761849  0.25362186  1
  Sr  Sr4  1  0.37948506  0.47436259  0.84958489  1
  Sr  Sr5  1  0.20343254  0.02563741  0.65041511  1
  Sr  Sr6  1  0.62051494  0.52563741  0.15041511  1
  Sr  Sr7  1  0.79656746  0.97436259  0.34958489  1
  Sr  Sr8  1  0.58585547  0.24019640  0.59333018  1
  Sr  Sr9  1  0.91938205  0.25980360  0.90666982  1
  Sr  Sr10  1  0.41414453  0.75980360  0.40666982  1
  Sr  Sr11  1  0.08061795  0.74019640  0.09333018  1
  Sr  Sr12  1  0.81632090  0.86569659  0.50651839  1
  Sr  Sr13  1  0.68853588  0.63430341  0.99348161  1
  Sr  Sr14  1  0.18367910  0.13430341  0.49348161  1
  Sr  Sr15  1  0.31146412  0.36569659  0.00651839  1
  Cr  Cr0  1  0.42925336  0.16812026  0.89934997  1
  Cr  Cr1  1  0.99672360  0.33187974  0.60065003  1
  Cr  Cr2  1  0.57074664  0.83187974  0.10065003  1
  Cr  Cr3  1  0.00327640  0.66812026  0.39934997  1
  Cr  Cr4  1  0.40806911  0.46786084  0.72034663  1
  Cr  Cr5  1  0.09627658  0.03213916  0.77965337  1
  Cr  Cr6  1  0.59193089  0.53213916  0.27965337  1
  Cr  Cr7  1  0.90372342  0.96786084  0.22034663  1
  Cr  Cr8  1  0.72085221  0.91242191  0.65732495  1
  Cr  Cr9  1  0.79059907  0.58757809  0.84267505  1
  Cr  Cr10  1  0.27914779  0.08757809  0.34267505  1
  Cr  Cr11  1  0.20940093  0.41242191  0.15732495  1
  Cr  Cr12  1  0.62934033  0.19813655  0.46559278  1
  Cr  Cr13  1  0.79306966  0.30186345  0.03440722  1
  Cr  Cr14  1  0.37065967  0.80186345  0.53440722  1
  Cr  Cr15  1  0.20693034  0.69813655  0.96559278  1
  Cr  Cr16  1  0.13844308  0.61269164  0.61263499  1
  Cr  Cr17  1  0.86376971  0.88730836  0.88736501  1
  Cr  Cr18  1  0.86155692  0.38730836  0.38736501  1
  Cr  Cr19  1  0.13623029  0.11269164  0.11263499  1
  F  F0  1  0.03074794  0.60894512  0.98707678  1
  F  F1  1  0.12676984  0.89105488  0.51292322  1
  F  F2  1  0.96925206  0.39105488  0.01292322  1
  F  F3  1  0.87323016  0.10894512  0.48707678  1
  F  F4  1  0.52584995  0.83016068  0.66023567  1
  F  F5  1  0.51624629  0.66983932  0.83976433  1
  F  F6  1  0.47415005  0.16983932  0.33976433  1
  F  F7  1  0.48375371  0.33016068  0.16023567  1
  F  F8  1  0.22131877  0.32420512  0.92181238  1
  F  F9  1  0.96733628  0.17579488  0.57818762  1
  F  F10  1  0.77868123  0.67579488  0.07818762  1
  F  F11  1  0.03266372  0.82420512  0.42181238  1
  F  F12  1  0.64584663  0.03926408  0.20272731  1
  F  F13  1  0.38783801  0.46073592  0.29727269  1
  F  F14  1  0.35415337  0.96073592  0.79727269  1
  F  F15  1  0.61216199  0.53926408  0.70272731  1
  F  F16  1  0.25073381  0.58272144  0.67427575  1
  F  F17  1  0.00773101  0.91727856  0.82572425  1
  F  F18  1  0.74926619  0.41727856  0.32572425  1
  F  F19  1  0.99226899  0.08272144  0.17427575  1
  F  F20  1  0.29881407  0.60692946  0.76783538  1
  F  F21  1  0.17357891  0.89307054  0.73216462  1
  F  F22  1  0.70118593  0.39307054  0.23216462  1
  F  F23  1  0.82642109  0.10692946  0.26783538  1
  F  F24  1  0.52156112  0.12345912  0.52145278  1
  F  F25  1  0.66647301  0.37654088  0.97854722  1
  F  F26  1  0.47843888  0.87654088  0.47854722  1
  F  F27  1  0.33352699  0.62345912  0.02145278  1
  F  F28  1  0.33006001  0.96220536  0.56768201  1
  F  F29  1  0.35994739  0.53779464  0.93231799  1
  F  F30  1  0.66993999  0.03779464  0.43231799  1
  F  F31  1  0.64005261  0.46220536  0.06768201  1
  F  F32  1  0.82262302  0.60838537  0.77188304  1
  F  F33  1  0.70289142  0.89161463  0.72811696  1
  F  F34  1  0.17737698  0.39161463  0.22811696  1
  F  F35  1  0.29710858  0.10838537  0.27188304  1
  F  F36  1  0.99680450  0.49244202  0.63091190  1
  F  F37  1  0.62015842  0.00755798  0.86908810  1
  F  F38  1  0.00319550  0.50755798  0.36908810  1
  F  F39  1  0.37984158  0.99244202  0.13091190  1
  F  F40  1  0.73038257  0.95062717  0.58912965  1
  F  F41  1  0.77013940  0.54937283  0.91087035  1
  F  F42  1  0.26961743  0.04937283  0.41087035  1
  F  F43  1  0.22986060  0.45062717  0.08912965  1
  F  F44  1  0.37663282  0.22860520  0.83416317  1
  F  F45  1  0.93940120  0.27139480  0.66583683  1
  F  F46  1  0.62336718  0.77139480  0.16583683  1
  F  F47  1  0.06059880  0.72860520  0.33416317  1
  F  F48  1  0.21996164  0.38585458  0.74199068  1
  F  F49  1  0.84780691  0.11414542  0.75800932  1
  F  F50  1  0.78003836  0.61414542  0.25800932  1
  F  F51  1  0.15219309  0.88585458  0.24199068  1
  F  F52  1  0.51380417  0.07811917  0.66627288  1
  F  F53  1  0.75819622  0.42188083  0.83372712  1
  F  F54  1  0.48619583  0.92188083  0.33372712  1
  F  F55  1  0.24180378  0.57811917  0.16627288  1
  F  F56  1  0.89848126  0.02723660  0.91738354  1
  F  F57  1  0.34310139  0.47276340  0.58261646  1
  F  F58  1  0.10151874  0.97276340  0.08261646  1
  F  F59  1  0.65689861  0.52723660  0.41738354  1
  F  F60  1  0.25864935  0.22873133  0.60817859  1
  F  F61  1  0.59555926  0.27126867  0.89182141  1
  F  F62  1  0.74135065  0.77126867  0.39182141  1
  F  F63  1  0.40444074  0.72873133  0.10817859  1
  F  F64  1  0.75015746  0.92456441  0.09124421  1
  F  F65  1  0.26596608  0.57543559  0.40875579  1
  F  F66  1  0.24984254  0.07543559  0.90875579  1
  F  F67  1  0.73403392  0.42456441  0.59124421  1
  F  F68  1  0.05810133  0.50030186  0.84120937  1
  F  F69  1  0.89961256  0.99969814  0.65879063  1
  F  F70  1  0.94189867  0.49969814  0.15879063  1
  F  F71  1  0.10038744  0.00030186  0.34120937  1
  F  F72  1  0.81466273  0.75984975  0.84820830  1
  F  F73  1  0.92272078  0.74015025  0.65179170  1
  F  F74  1  0.18533727  0.24015025  0.15179170  1
  F  F75  1  0.07727922  0.25984975  0.34820830  1
  F  F76  1  0.74231328  0.83606729  0.94473753  1
  F  F77  1  0.02311811  0.66393271  0.55526247  1
  F  F78  1  0.25768672  0.16393271  0.05526247  1
  F  F79  1  0.97688189  0.33606729  0.44473753  1
  F  F80  1  0.92923571  0.62826583  0.46547186  1
  F  F81  1  0.52297341  0.87173417  0.03452814  1
  F  F82  1  0.07076429  0.37173417  0.53452814  1
  F  F83  1  0.47702659  0.12826583  0.96547186  1
  F  F84  1  0.89037601  0.23627867  0.09747086  1
  F  F85  1  0.72412554  0.26372133  0.40252914  1
  F  F86  1  0.10962399  0.76372133  0.90252914  1
  F  F87  1  0.27587446  0.73627867  0.59747086  1
  F  F88  1  0.19091693  0.13863844  0.73127563  1
  F  F89  1  0.56083100  0.36136156  0.76872437  1
  F  F90  1  0.80908307  0.86136156  0.26872437  1
  F  F91  1  0.43916900  0.63863844  0.23127563  1
  F  F92  1  0.97632068  0.82068422  0.17825837  1
  F  F93  1  0.47526327  0.67931578  0.32174163  1
  F  F94  1  0.02367932  0.17931578  0.82174163  1
  F  F95  1  0.52473673  0.32068422  0.67825837  1
  F  F96  1  0.05257157  0.84633558  0.00499469  1
  F  F97  1  0.40390185  0.65366442  0.49500531  1
  F  F98  1  0.94742843  0.15366442  0.99500531  1
  F  F99  1  0.59609815  0.34633558  0.50499469  1
  F  F100  1  0.60476704  0.21693793  0.05058656  1
  F  F101  1  0.37229153  0.28306207  0.44941344  1
  F  F102  1  0.39523296  0.78306207  0.94941344  1
  F  F103  1  0.62770847  0.71693793  0.55058656  1
loop_
_geom_bond_atom_site_label_1
_geom_bond_atom_site_label_2
_geom_bond_distance
_geom_bond_site_symmetry_2
Cr0 F83 1.929173 1_555
Cr0 F66 1.937126 1_555
Cr0 F8 1.939033 1_555
Cr0 F61 1.940943 1_555
Cr0 F44 1.945288 1_555
Cr0 F37 1.989048 1_555
Cr1 F82 1.929173 1_655
Cr1 F67 1.937126 1_555
Cr1 F9 1.939033 1_555
Cr1 F60 1.940943 1_655
Cr1 F45 1.945288 1_555
Cr1 F36 1.989048 1_555
Cr2 F81 1.929173 1_555
Cr2 F64 1.937126 1_555
Cr2 F10 1.939033 1_555
Cr2 F63 1.940943 1_555
Cr2 F46 1.945288 1_555
Cr2 F39 1.989048 1_555
Cr3 F80 1.929173 1_455
Cr3 F65 1.937126 1_555
Cr3 F11 1.939033 1_555
Cr3 F62 1.940943 1_455
Cr3 F47 1.945288 1_555
Cr3 F38 1.989048 1_555
Cr4 F95 1.926976 1_555
Cr4 F48 1.942189 1_555
Cr4 F89 1.947447 1_555
Cr4 F16 1.950052 1_555
Cr4 F15 1.953600 1_555
Cr4 F20 1.959460 1_555
Cr5 F94 1.926976 1_555
Cr5 F49 1.942189 1_455
Cr5 F88 1.947447 1_555
Cr5 F17 1.950051 1_545
Cr5 F14 1.953600 1_545
Cr5 F21 1.959460 1_545
Cr6 F93 1.926976 1_555
Cr6 F50 1.942189 1_555
Cr6 F91 1.947447 1_555
Cr6 F18 1.950052 1_555
Cr6 F13 1.953600 1_555
Cr6 F22 1.959460 1_555
Cr7 F92 1.926976 1_555
Cr7 F51 1.942189 1_655
Cr7 F90 1.947447 1_555
Cr7 F19 1.950051 1_565
Cr7 F12 1.953600 1_565
Cr7 F23 1.959460 1_565
Cr8 F69 1.910836 1_555
Cr8 F40 1.926789 1_555
Cr8 F52 1.933815 1_565
Cr8 F73 1.957961 1_555
Cr8 F4 1.966586 1_555
Cr8 F33 1.975133 1_555
Cr9 F68 1.910836 1_655
Cr9 F41 1.926789 1_555
Cr9 F53 1.933815 1_555
Cr9 F72 1.957961 1_555
Cr9 F5 1.966586 1_555
Cr9 F32 1.975133 1_555
Cr10 F71 1.910836 1_555
Cr10 F42 1.926789 1_555
Cr10 F54 1.933815 1_545
Cr10 F75 1.957961 1_555
Cr10 F6 1.966586 1_555
Cr10 F35 1.975133 1_555
Cr11 F70 1.910836 1_455
Cr11 F43 1.926789 1_555
Cr11 F55 1.933815 1_555
Cr11 F74 1.957961 1_555
Cr11 F7 1.966586 1_555
Cr11 F34 1.975133 1_555
Cr12 F3 1.920622 1_555
Cr12 F24 1.929367 1_555
Cr12 F99 1.937405 1_555
Cr12 F30 1.939219 1_555
Cr12 F101 1.943979 1_555
Cr12 F85 1.998531 1_555
Cr13 F2 1.920622 1_555
Cr13 F25 1.929367 1_554
Cr13 F98 1.937405 1_554
Cr13 F31 1.939219 1_555
Cr13 F100 1.943979 1_555
Cr13 F84 1.998531 1_555
Cr14 F1 1.920622 1_555
Cr14 F26 1.929367 1_555
Cr14 F97 1.937405 1_555
Cr14 F28 1.939219 1_555
Cr14 F103 1.943979 1_555
Cr14 F87 1.998531 1_555
Cr15 F0 1.920622 1_555
Cr15 F27 1.929367 1_556
Cr15 F96 1.937405 1_556
Cr15 F29 1.939219 1_555
Cr15 F102 1.943979 1_555
Cr15 F86 1.998531 1_555
Cr16 F77 1.892696 1_555
Cr16 F57 1.896175 1_555
Cr16 F87 1.959941 1_555
Cr16 F36 1.963490 1_455
Cr16 F73 1.983521 1_455
Cr16 F16 1.987088 1_555
Cr17 F76 1.892696 1_555
Cr17 F56 1.896175 1_565
Cr17 F86 1.959941 1_655
Cr17 F37 1.963490 1_565
Cr17 F72 1.983521 1_555
Cr17 F17 1.987088 1_655
Cr18 F79 1.892696 1_555
Cr18 F59 1.896175 1_555
Cr18 F85 1.959941 1_555
Cr18 F38 1.963490 1_655
Cr18 F75 1.983521 1_655
Cr18 F18 1.987088 1_555
Cr19 F78 1.892696 1_555
Cr19 F58 1.896175 1_545
Cr19 F84 1.959941 1_455
Cr19 F39 1.963490 1_545
Cr19 F74 1.983521 1_555
Cr19 F19 1.987088 1_455
F0 Sr13 2.494142 1_455
F0 Sr15 2.824565 1_556
F1 Sr12 2.494142 1_455
F1 Sr14 2.824565 1_565
F2 Sr15 2.494142 1_655
F2 Sr13 2.824565 1_554
F3 Sr14 2.494142 1_655
F3 Sr12 2.824565 1_545
F4 Na7 2.297147 1_555
F4 Na0 2.610678 1_555
F4 Sr5 2.650392 1_565
F5 Na6 2.297147 1_555
F5 Na0 2.610678 1_555
F5 Sr4 2.650391 1_555
F6 Na5 2.297147 1_555
F6 Na1 2.610678 1_555
F6 Sr7 2.650392 1_545
F7 Na4 2.297147 1_555
F7 Na1 2.610678 1_555
F7 Sr6 2.650391 1_555
F8 Sr15 2.667843 1_556
F8 Sr9 2.707217 1_455
F8 Sr4 2.907357 1_555
F9 Sr14 2.667843 1_655
F9 Sr8 2.707217 1_555
F9 Sr5 2.907357 1_655
F10 Sr13 2.667843 1_554
F10 Sr11 2.707217 1_655
F10 Sr6 2.907357 1_555
F11 Sr12 2.667843 1_455
F11 Sr10 2.707217 1_555
F11 Sr7 2.907357 1_455
F12 Na4 2.299302 1_555
F12 Na1 2.542350 1_555
F12 Sr2 2.743883 1_545
F13 Na5 2.299302 1_555
F13 Na1 2.542350 1_555
F13 Sr3 2.743883 1_555
F14 Na6 2.299302 1_555
F14 Na0 2.542350 1_555
F14 Sr0 2.743883 1_565
F15 Na7 2.299302 1_555
F15 Na0 2.542350 1_555
F15 Sr1 2.743883 1_555
F20 Na2 2.361836 1_455
F20 Na0 2.533669 1_555
F20 Sr4 2.648460 1_555
F21 Na2 2.361836 1_455
F21 Na0 2.533669 1_555
F21 Sr5 2.648460 1_565
F22 Na3 2.361836 1_655
F22 Na1 2.533669 1_555
F22 Sr6 2.648460 1_555
F23 Na3 2.361836 1_655
F23 Na1 2.533669 1_555
F23 Sr7 2.648460 1_545
F24 Sr8 2.636934 1_555
F24 Sr14 2.740650 1_555
F24 Sr12 2.919655 1_545
F25 Sr9 2.636934 1_555
F25 Sr15 2.740650 1_556
F25 Sr13 2.919655 1_555
F26 Sr10 2.636934 1_555
F26 Sr12 2.740650 1_555
F26 Sr14 2.919655 1_565
F27 Sr11 2.636934 1_555
F27 Sr13 2.740650 1_554
F27 Sr15 2.919655 1_555
F28 Sr5 2.436648 1_565
F28 Sr14 2.773669 1_565
F29 Sr4 2.436648 1_555
F29 Sr15 2.773669 1_556
F30 Sr7 2.436648 1_545
F30 Sr12 2.773669 1_545
F31 Sr6 2.436648 1_555
F31 Sr13 2.773669 1_554
F32 Na2 2.364349 1_555
F32 Na0 2.505361 1_555
F32 Sr1 2.645672 1_555
F33 Na2 2.364350 1_555
F33 Na0 2.505361 1_555
F33 Sr0 2.645672 1_565
F34 Na3 2.364349 1_555
F34 Na1 2.505361 1_555
F34 Sr3 2.645672 1_555
F35 Na3 2.364350 1_555
F35 Na1 2.505361 1_555
F35 Sr2 2.645672 1_545
F36 Na7 2.659919 1_555
F37 Na6 2.659919 1_545
F38 Na5 2.659919 1_555
F39 Na4 2.659919 1_565
F40 Sr12 2.471706 1_555
F40 Sr8 2.947400 1_565
F41 Sr13 2.471706 1_555
F41 Sr9 2.947400 1_555
F42 Sr14 2.471706 1_555
F42 Sr10 2.947400 1_545
F43 Sr15 2.471706 1_555
F43 Sr11 2.947400 1_555
F44 Sr0 2.471888 1_555
F44 Sr4 2.737167 1_555
F45 Sr1 2.471888 1_555
F45 Sr5 2.737167 1_655
F46 Sr2 2.471888 1_555
F46 Sr6 2.737167 1_555
F47 Sr3 2.471888 1_555
F47 Sr7 2.737167 1_455
F48 Sr1 2.478918 1_455
F48 Sr0 2.861415 1_555
F49 Sr0 2.478919 1_555
F49 Sr1 2.861415 1_555
F50 Sr3 2.478918 1_655
F50 Sr2 2.861415 1_555
F51 Sr2 2.478919 1_555
F51 Sr3 2.861415 1_555
F52 Sr0 2.575464 1_555
F52 Sr5 2.704105 1_555
F52 Sr8 2.729974 1_555
F53 Sr1 2.575464 1_555
F53 Sr4 2.704105 1_555
F53 Sr9 2.729974 1_555
F54 Sr2 2.575464 1_555
F54 Sr7 2.704105 1_555
F54 Sr10 2.729974 1_555
F55 Sr3 2.575464 1_555
F55 Sr6 2.704105 1_555
F55 Sr11 2.729974 1_555
F56 Na9 2.540852 1_556
F56 Sr9 2.576789 1_555
F57 Na8 2.540852 1_555
F57 Sr8 2.576789 1_555
F58 Na11 2.540852 1_554
F58 Sr11 2.576789 1_555
F59 Na10 2.540852 1_555
F59 Sr10 2.576789 1_555
F60 Sr8 2.504342 1_555
F60 Sr5 2.565934 1_555
F61 Sr9 2.504342 1_555
F61 Sr4 2.565934 1_555
F62 Sr10 2.504342 1_555
F62 Sr7 2.565934 1_555
F63 Sr11 2.504342 1_555
F63 Sr6 2.565934 1_555
F64 Na4 2.293519 1_565
F64 Na9 2.580170 1_565
F64 Sr11 2.607642 1_655
F65 Na5 2.293519 1_555
F65 Na8 2.580170 1_555
F65 Sr10 2.607641 1_555
F66 Na6 2.293519 1_545
F66 Na11 2.580170 1_545
F66 Sr9 2.607642 1_455
F67 Na7 2.293519 1_555
F67 Na10 2.580170 1_555
F67 Sr8 2.607641 1_555
F68 Sr4 2.395262 1_555
F69 Sr5 2.395262 1_665
F70 Sr6 2.395262 1_555
F71 Sr7 2.395262 1_445
F76 Na9 2.524117 1_566
F76 Sr13 2.624463 1_555
F77 Na8 2.524117 1_555
F77 Sr12 2.624463 1_455
F78 Na11 2.524117 1_544
F78 Sr15 2.624463 1_555
F79 Na10 2.524117 1_555
F79 Sr14 2.624463 1_655
F80 Na10 2.353151 1_555
F80 Na8 2.615391 1_655
F80 Sr12 2.699653 1_555
F81 Na11 2.353151 1_554
F81 Na9 2.615391 1_565
F81 Sr13 2.699653 1_554
F82 Na8 2.353151 1_555
F82 Na10 2.615391 1_455
F82 Sr14 2.699653 1_555
F83 Na9 2.353151 1_556
F83 Na11 2.615391 1_545
F83 Sr15 2.699653 1_556
F84 Na4 2.743304 1_555
F85 Na5 2.743304 1_555
F86 Na6 2.743304 1_555
F87 Na7 2.743304 1_555
F88 Sr0 2.599121 1_555
F88 Sr5 2.626501 1_555
F88 Sr1 2.644493 1_455
F89 Sr1 2.599121 1_555
F89 Sr4 2.626501 1_555
F89 Sr0 2.644493 1_555
F90 Sr2 2.599121 1_555
F90 Sr7 2.626501 1_555
F90 Sr3 2.644493 1_655
F91 Sr3 2.599121 1_555
F91 Sr6 2.626501 1_555
F91 Sr2 2.644493 1_555
F92 Sr11 2.521428 1_655
F92 Sr3 2.813720 1_655
F93 Sr10 2.521428 1_555
F93 Sr2 2.813720 1_555
F94 Sr9 2.521428 1_455
F94 Sr1 2.813720 1_455
F95 Sr8 2.521428 1_555
F95 Sr0 2.813720 1_555
F96 Na9 2.354759 1_465
F96 Na11 2.570826 1_554
F96 Sr11 2.663273 1_555
F97 Na8 2.354759 1_555
F97 Na10 2.570826 1_555
F97 Sr10 2.663273 1_555
F98 Na11 2.354759 1_645
F98 Na9 2.570826 1_556
F98 Sr9 2.663273 1_555
F99 Na10 2.354759 1_555
F99 Na8 2.570826 1_555
F99 Sr8 2.663273 1_555
F100 Na4 2.268920 1_555
F100 Na9 2.577703 1_555
F100 Sr15 2.652896 1_555
F101 Na5 2.268920 1_555
F101 Na8 2.577703 1_555
F101 Sr14 2.652896 1_555
F102 Na6 2.268920 1_555
F102 Na11 2.577703 1_555
F102 Sr13 2.652896 1_555
F103 Na7 2.268920 1_555
F103 Na10 2.577703 1_555
F103 Sr12 2.652896 1_555
