# generated using pymatgen
data_ZnS
_symmetry_space_group_name_H-M   'P 1'
_cell_length_a   12.86503228
_cell_length_b   12.83719873
_cell_length_c   14.45846089
_cell_angle_alpha   90.22144637
_cell_angle_beta   95.56551039
_cell_angle_gamma   91.15363652
_symmetry_Int_Tables_number   1
_chemical_formula_structural   ZnS
_chemical_formula_sum   'Zn50 S50'
_cell_volume   2376.05027598
_cell_formula_units_Z   50
loop_
 _symmetry_equiv_pos_site_id
 _symmetry_equiv_pos_as_xyz
  1  'x, y, z'
loop_
 _atom_site_type_symbol
 _atom_site_label
 _atom_site_symmetry_multiplicity
 _atom_site_fract_x
 _atom_site_fract_y
 _atom_site_fract_z
 _atom_site_occupancy
  Zn  Zn0  1  0.02469249  0.36439435  0.01098613  1
  Zn  Zn1  1  0.51035295  0.14394914  0.26054560  1
  Zn  Zn2  1  0.43768447  0.01048059  0.05411386  1
  Zn  Zn3  1  0.93355679  0.74353560  0.06074070  1
  Zn  Zn4  1  0.25792313  0.14100251  0.64193480  1
  Zn  Zn5  1  0.64502831  0.62261062  0.78047688  1
  Zn  Zn6  1  0.83874218  0.32179093  0.17954207  1
  Zn  Zn7  1  0.41210658  0.68228780  0.35700932  1
  Zn  Zn8  1  0.89931873  0.46505856  0.77890792  1
  Zn  Zn9  1  0.14770232  0.69677535  0.30843893  1
  Zn  Zn10  1  0.34460298  0.96839949  0.28963114  1
  Zn  Zn11  1  0.06104963  0.07660706  0.04576846  1
  Zn  Zn12  1  0.41570604  0.46298608  0.44891893  1
  Zn  Zn13  1  0.74709244  0.46710216  0.38850386  1
  Zn  Zn14  1  0.79442627  0.19421266  0.90495026  1
  Zn  Zn15  1  0.30876736  0.36366986  0.55179726  1
  Zn  Zn16  1  0.75222361  0.49367867  0.98878423  1
  Zn  Zn17  1  0.57320199  0.33306970  0.73479985  1
  Zn  Zn18  1  0.94620508  0.11639167  0.18360462  1
  Zn  Zn19  1  0.62817529  0.03806724  0.76734382  1
  Zn  Zn20  1  0.08351646  0.13720034  0.45527830  1
  Zn  Zn21  1  0.91463161  0.76349949  0.48499179  1
  Zn  Zn22  1  0.49481975  0.76614229  0.17836192  1
  Zn  Zn23  1  0.68288284  0.09002840  0.59469295  1
  Zn  Zn24  1  0.73434887  0.86284289  0.65601812  1
  Zn  Zn25  1  0.75220701  0.20195243  0.38886178  1
  Zn  Zn26  1  0.05113336  0.94307714  0.17148388  1
  Zn  Zn27  1  0.82681471  0.49084431  0.55098560  1
  Zn  Zn28  1  0.18473973  0.61419683  0.57272385  1
  Zn  Zn29  1  0.86683663  0.07553573  0.59881884  1
  Zn  Zn30  1  0.20438867  0.39364364  0.35544063  1
  Zn  Zn31  1  0.63052264  0.89108674  0.41539573  1
  Zn  Zn32  1  0.79394716  0.61339810  0.26067582  1
  Zn  Zn33  1  0.14399947  0.32225514  0.15304279  1
  Zn  Zn34  1  0.93118474  0.55074329  0.38035477  1
  Zn  Zn35  1  0.24959880  0.89377729  0.15190845  1
  Zn  Zn36  1  0.67402509  0.38573725  0.60607850  1
  Zn  Zn37  1  0.02842330  0.49091350  0.14388757  1
  Zn  Zn38  1  0.20292577  0.86546580  0.52596326  1
  Zn  Zn39  1  0.47209358  0.16266508  0.50123048  1
  Zn  Zn40  1  0.10735090  0.59709114  0.83717264  1
  Zn  Zn41  1  0.21653820  0.78475734  0.82293523  1
  Zn  Zn42  1  0.12350339  0.35123554  0.73549088  1
  Zn  Zn43  1  0.02956580  0.70258376  0.71271682  1
  Zn  Zn44  1  0.64450019  0.01499365  0.15713181  1
  Zn  Zn45  1  0.87987174  0.88611574  0.96014013  1
  Zn  Zn46  1  0.00968003  0.10579676  0.78213575  1
  Zn  Zn47  1  0.35164004  0.54381032  0.78724939  1
  Zn  Zn48  1  0.38587718  0.49371172  0.18085401  1
  Zn  Zn49  1  0.83517024  0.95938017  0.31848745  1
  S  S0  1  0.55861618  0.87678563  0.07539871  1
  S  S1  1  0.51633640  0.00783938  0.62055968  1
  S  S2  1  0.80324171  0.57241866  0.85515048  1
  S  S3  1  0.51790921  0.49237892  0.78970728  1
  S  S4  1  0.56783879  0.48516238  0.14317648  1
  S  S5  1  0.71351351  0.33052938  0.28076363  1
  S  S6  1  0.57856024  0.77894588  0.82312389  1
  S  S7  1  0.02518600  0.95824413  0.33223870  1
  S  S8  1  0.00028009  0.26632013  0.24843259  1
  S  S9  1  0.57247723  0.50259005  0.00240638  1
  S  S10  1  0.41284182  0.23956696  0.63333680  1
  S  S11  1  0.23689620  0.47135066  0.66558368  1
  S  S12  1  0.00598633  0.97224421  0.65787769  1
  S  S13  1  0.62422198  0.19189621  0.84050844  1
  S  S14  1  0.06082393  0.82388112  0.40619910  1
  S  S15  1  0.14647527  0.22549736  0.01839614  1
  S  S16  1  0.10002675  0.77055275  0.15753100  1
  S  S17  1  0.53051570  0.15494388  0.10775966  1
  S  S18  1  0.83794143  0.32768589  0.01601169  1
  S  S19  1  0.90233906  0.11948630  0.45041294  1
  S  S20  1  0.26973642  0.69431771  0.44775341  1
  S  S21  1  0.17147263  0.18256016  0.76581535  1
  S  S22  1  0.22703968  0.03990401  0.51188730  1
  S  S23  1  0.14569411  0.30864930  0.47724253  1
  S  S24  1  0.30594404  0.35247541  0.23814308  1
  S  S25  1  0.87532172  0.22762077  0.71211323  1
  S  S26  1  0.05626314  0.42985367  0.86667080  1
  S  S27  1  0.77850757  0.79804310  0.37552995  1
  S  S28  1  0.27910572  0.63804028  0.89693854  1
  S  S29  1  0.34437955  0.66004026  0.19777353  1
  S  S30  1  0.19887055  0.77097975  0.65950014  1
  S  S31  1  0.86673000  0.58637302  0.11577732  1
  S  S32  1  0.47863737  0.84507081  0.32781362  1
  S  S33  1  0.66258036  0.04459093  0.32841294  1
  S  S34  1  0.08146495  0.52576668  0.30464242  1
  S  S35  1  0.63993201  0.23606995  0.50269201  1
  S  S36  1  0.17579214  0.92957967  0.90217835  1
  S  S37  1  0.61334092  0.62178436  0.21891578  1
  S  S38  1  0.98685710  0.60153501  0.53817279  1
  S  S39  1  0.57338421  0.86982007  0.56793045  1
  S  S40  1  0.82277345  0.99318401  0.15093412  1
  S  S41  1  0.71478790  0.64678919  0.61989537  1
  S  S42  1  0.38647904  0.13143012  0.35776719  1
  S  S43  1  0.30249982  0.90012108  0.00052373  1
  S  S44  1  0.94525704  0.35923084  0.65432832  1
  S  S45  1  0.91509877  0.83410011  0.64210106  1
  S  S46  1  0.70463467  0.88172708  0.81495114  1
  S  S47  1  0.91938810  0.06101690  0.91225052  1
  S  S48  1  0.56575119  0.57917169  0.41736669  1
  S  S49  1  0.57069343  0.58642936  0.56608460  1
loop_
_geom_bond_atom_site_label_1
_geom_bond_atom_site_label_2
_geom_bond_distance
_geom_bond_site_symmetry_2
Zn3 Zn45 2.412343 1_554
Zn17 Zn36 2.458854 1_555
S0 Zn22 2.261330 1_555
S0 Zn44 2.327380 1_565
S0 Zn2 2.340834 1_565
S1 S39 2.099319 1_545
S1 Zn23 2.431328 1_555
S1 Zn19 2.470558 1_555
S1 Zn39 2.670681 1_555
S2 Zn8 2.227900 1_555
S2 Zn5 2.314238 1_555
S2 Zn16 2.328097 1_555
S3 Zn47 2.248343 1_555
S3 Zn5 2.328354 1_555
S3 Zn17 2.339698 1_555
S4 S9 2.054915 1_555
S4 Zn48 2.458873 1_555
S5 Zn6 2.283273 1_555
S5 Zn25 2.305872 1_555
S5 Zn13 2.346240 1_555
S6 Zn5 2.302371 1_555
S7 Zn26 2.387713 1_555
S7 Zn49 2.433679 1_455
S8 Zn18 2.207375 1_455
S8 Zn6 2.341287 1_455
S8 Zn33 2.507033 1_555
S9 Zn16 2.344801 1_554
S10 Zn39 2.345652 1_555
S10 Zn15 2.348384 1_555
S10 Zn4 2.352941 1_555
S10 Zn17 2.673688 1_555
S11 Zn28 2.347188 1_555
S11 Zn47 2.359482 1_555
S11 Zn42 2.394740 1_555
S11 Zn15 2.408587 1_555
S12 S45 2.103749 1_455
S12 Zn29 2.345181 1_465
S12 Zn46 2.474998 1_565
S13 Zn19 2.240431 1_555
S13 Zn14 2.294592 1_555
S13 Zn17 2.434304 1_555
S14 S7 2.068771 1_555
S14 Zn21 2.408249 1_455
S14 Zn38 2.442350 1_555
S14 Zn9 2.504304 1_555
S15 Zn11 2.241264 1_555
S15 Zn33 2.308402 1_555
S15 Zn0 2.393077 1_555
S16 Zn26 2.327798 1_555
S16 Zn9 2.411149 1_555
S16 Zn3 2.459745 1_455
S16 Zn35 2.473942 1_555
S17 Zn1 2.253706 1_555
S17 Zn2 2.277524 1_555
S17 Zn44 2.408435 1_555
S18 Zn6 2.364931 1_555
S18 Zn14 2.365054 1_554
S18 Zn16 2.434875 1_554
S18 Zn0 2.447073 1_655
S19 Zn29 2.306541 1_555
S19 Zn25 2.323664 1_555
S19 Zn20 2.331580 1_655
S19 Zn49 2.861438 1_545
S20 Zn7 2.361342 1_555
S20 Zn28 2.422956 1_555
S20 Zn9 2.431501 1_555
S20 Zn38 2.662689 1_555
S21 Zn4 2.265522 1_555
S21 Zn42 2.295724 1_555
S21 Zn46 2.318130 1_555
S22 Zn38 2.267137 1_545
S22 Zn4 2.278847 1_555
S22 Zn20 2.333854 1_555
S23 Zn30 2.258681 1_555
S23 Zn20 2.336497 1_555
S23 Zn15 2.357541 1_555
S24 Zn48 2.265523 1_555
S24 Zn30 2.305028 1_555
S24 Zn33 2.339148 1_555
S25 S44 2.111269 1_555
S25 Zn46 2.498029 1_655
S25 Zn29 2.537486 1_555
S26 Zn40 2.286376 1_555
S26 Zn0 2.321442 1_556
S26 Zn8 2.331385 1_455
S26 Zn42 2.388051 1_555
S27 Zn21 2.295073 1_555
S27 Zn49 2.360116 1_555
S27 Zn31 2.383808 1_555
S27 Zn32 2.909990 1_555
S28 Zn47 2.273083 1_555
S28 Zn41 2.291214 1_555
S28 Zn40 2.341979 1_555
S29 Zn48 2.229597 1_555
S29 Zn22 2.383689 1_555
S29 Zn7 2.395234 1_555
S30 Zn38 2.288400 1_555
S30 Zn41 2.357494 1_555
S30 Zn28 2.362092 1_555
S30 Zn43 2.521981 1_555
S31 Zn3 2.349047 1_555
S31 Zn32 2.402945 1_555
S31 Zn37 2.436507 1_655
S31 Zn16 2.518984 1_554
S32 Zn31 2.288757 1_555
S32 Zn7 2.298352 1_555
S32 Zn10 2.390966 1_555
S32 Zn22 2.412058 1_555
S33 Zn31 2.392050 1_545
S33 Zn25 2.423058 1_555
S33 Zn1 2.482458 1_555
S33 Zn44 2.491739 1_555
S33 Zn49 2.511094 1_545
S34 Zn9 2.337318 1_555
S34 Zn34 2.339184 1_455
S34 Zn37 2.395846 1_555
S34 Zn30 2.410266 1_555
S35 Zn39 2.336624 1_555
S35 Zn25 2.338349 1_555
S35 Zn23 2.346892 1_555
S35 Zn36 2.436176 1_555
S36 S43 2.097971 1_556
S36 Zn41 2.276634 1_555
S37 S4 2.106491 1_555
S37 Zn32 2.348038 1_555
S37 Zn22 2.460017 1_555
S38 Zn21 2.393560 1_555
S38 Zn34 2.407789 1_555
S38 Zn27 2.500186 1_555
S38 Zn28 2.548124 1_655
S38 Zn43 2.833790 1_655
S39 Zn24 2.327051 1_555
S39 Zn31 2.406196 1_555
S40 Zn18 2.234705 1_565
S40 Zn44 2.326380 1_565
S40 Zn49 2.453269 1_555
S41 S49 2.073634 1_555
S41 Zn5 2.586672 1_555
S41 Zn27 2.730693 1_555
S41 Zn24 2.822011 1_555
S42 Zn1 2.228764 1_555
S42 Zn39 2.282349 1_555
S42 Zn10 2.340194 1_545
S43 Zn2 2.294123 1_565
S43 Zn35 2.355568 1_555
S44 Zn8 2.378910 1_555
S44 Zn42 2.476805 1_655
S44 Zn27 2.662810 1_555
S45 Zn24 2.389275 1_555
S45 Zn43 2.425532 1_655
S45 Zn21 2.441851 1_555
S46 S6 2.082732 1_555
S46 Zn19 2.329836 1_565
S46 Zn24 2.378063 1_555
S46 Zn45 2.927170 1_555
S47 Zn14 2.366101 1_555
S47 Zn46 2.371554 1_655
S47 Zn45 2.411083 1_545
S47 Zn11 2.527466 1_656
S48 S49 2.146606 1_555
S48 Zn7 2.490104 1_555
S48 Zn12 2.493795 1_555
S48 Zn13 2.829478 1_555
S49 Zn12 2.924632 1_555
S49 Zn36 2.956240 1_555
