# generated using pymatgen
data_Th4Ir
_symmetry_space_group_name_H-M   'P 1'
_cell_length_a   7.88126652
_cell_length_b   7.88126652
_cell_length_c   7.88126652
_cell_angle_alpha   60.00000000
_cell_angle_beta   60.00000000
_cell_angle_gamma   60.00000000
_symmetry_Int_Tables_number   1
_chemical_formula_structural   Th4Ir
_chemical_formula_sum   'Th8 Ir2'
_cell_volume   346.15694134
_cell_formula_units_Z   2
loop_
 _symmetry_equiv_pos_site_id
 _symmetry_equiv_pos_as_xyz
  1  'x, y, z'
loop_
 _atom_site_type_symbol
 _atom_site_label
 _atom_site_symmetry_multiplicity
 _atom_site_fract_x
 _atom_site_fract_y
 _atom_site_fract_z
 _atom_site_occupancy
  Th  Th0  1  0.61109600  0.61109600  0.61109600  1
  Th  Th1  1  0.16671200  0.61109600  0.61109600  1
  Th  Th2  1  0.61109600  0.16671200  0.61109600  1
  Th  Th3  1  0.58328800  0.13890400  0.13890400  1
  Th  Th4  1  0.13890400  0.13890400  0.13890400  1
  Th  Th5  1  0.61109600  0.61109600  0.16671200  1
  Th  Th6  1  0.13890400  0.58328800  0.13890400  1
  Th  Th7  1  0.13890400  0.13890400  0.58328800  1
  Ir  Ir0  1  0.00000000  0.00000000  0.00000000  1
  Ir  Ir1  1  0.75000000  0.75000000  0.75000000  1
loop_
_geom_bond_atom_site_label_1
_geom_bond_atom_site_label_2
_geom_bond_distance
_geom_bond_site_symmetry_2
Ir0 Th6 2.681553 1_545
Ir0 Th3 2.681553 1_455
Ir0 Th4 2.681553 1_555
Ir0 Th7 2.681553 1_554
Ir1 Th2 2.681553 1_565
Ir1 Th5 2.681553 1_556
Ir1 Th1 2.681553 1_655
Ir1 Th0 2.681553 1_555
