# generated using pymatgen
data_Mg(AgO2)2
_symmetry_space_group_name_H-M   'P 1'
_cell_length_a   6.27532763
_cell_length_b   6.27532763
_cell_length_c   6.27532785
_cell_angle_alpha   61.81537716
_cell_angle_beta   61.81537716
_cell_angle_gamma   61.81537401
_symmetry_Int_Tables_number   1
_chemical_formula_structural   Mg(AgO2)2
_chemical_formula_sum   'Mg2 Ag4 O8'
_cell_volume   181.84565404
_cell_formula_units_Z   2
loop_
 _symmetry_equiv_pos_site_id
 _symmetry_equiv_pos_as_xyz
  1  'x, y, z'
loop_
 _atom_site_type_symbol
 _atom_site_label
 _atom_site_symmetry_multiplicity
 _atom_site_fract_x
 _atom_site_fract_y
 _atom_site_fract_z
 _atom_site_occupancy
  Mg  Mg0  1  0.98977400  0.98977400  0.98977400  1
  Mg  Mg1  1  0.37348900  0.37348900  0.37348900  1
  Ag  Ag0  1  0.75710300  0.75710300  0.75710300  1
  Ag  Ag1  1  0.87844300  0.37321200  0.37321200  1
  Ag  Ag2  1  0.37321200  0.37321200  0.87844300  1
  Ag  Ag3  1  0.37321200  0.87844300  0.37321200  1
  O  O0  1  0.61057300  0.17557800  0.61057300  1
  O  O1  1  0.61057300  0.61057300  0.17557800  1
  O  O2  1  0.17557800  0.61057300  0.61057300  1
  O  O3  1  0.61905600  0.61905600  0.61905600  1
  O  O4  1  0.12198700  0.12198700  0.12198700  1
  O  O5  1  0.59386900  0.13656600  0.13656600  1
  O  O6  1  0.13656600  0.13656600  0.59386900  1
  O  O7  1  0.13656600  0.59386900  0.13656600  1
loop_
_geom_bond_atom_site_label_1
_geom_bond_atom_site_label_2
_geom_bond_distance
_geom_bond_site_symmetry_2
Mg0 O4 2.003962 1_666
Mg0 O7 2.085032 1_656
Mg0 O5 2.085032 1_566
Mg0 O6 2.085032 1_665
Mg1 O7 2.130035 1_555
Mg1 O5 2.130035 1_555
Mg1 O6 2.130035 1_555
Mg1 O2 2.137632 1_555
Mg1 O0 2.137632 1_555
Mg1 O1 2.137632 1_555
Ag0 O3 2.092389 1_555
Ag0 O2 2.196346 1_655
Ag0 O0 2.196346 1_565
Ag0 O1 2.196346 1_556
Ag1 O1 2.107504 1_555
Ag1 O0 2.107504 1_555
Ag1 O6 2.156500 1_655
Ag1 O7 2.156500 1_655
Ag1 O3 2.216686 1_555
Ag1 O4 2.258839 1_655
Ag2 O0 2.107504 1_555
Ag2 O2 2.107504 1_555
Ag2 O7 2.156500 1_556
Ag2 O5 2.156500 1_556
Ag2 O3 2.216686 1_555
Ag2 O4 2.258839 1_556
Ag3 O1 2.107504 1_555
Ag3 O2 2.107504 1_555
Ag3 O6 2.156500 1_565
Ag3 O5 2.156500 1_565
Ag3 O3 2.216686 1_555
Ag3 O4 2.258839 1_565
