# generated using pymatgen
data_CaSm4Tm4O12
_symmetry_space_group_name_H-M   'P 1'
_cell_length_a   6.38021619
_cell_length_b   7.61506100
_cell_length_c   6.56255382
_cell_angle_alpha   90.00000000
_cell_angle_beta   86.86415316
_cell_angle_gamma   90.00000000
_symmetry_Int_Tables_number   1
_chemical_formula_structural   CaSm4Tm4O12
_chemical_formula_sum   'Ca1 Sm4 Tm4 O12'
_cell_volume   318.36907610
_cell_formula_units_Z   1
loop_
 _symmetry_equiv_pos_site_id
 _symmetry_equiv_pos_as_xyz
  1  'x, y, z'
loop_
 _atom_site_type_symbol
 _atom_site_label
 _atom_site_symmetry_multiplicity
 _atom_site_fract_x
 _atom_site_fract_y
 _atom_site_fract_z
 _atom_site_occupancy
  Ca  Ca0  1  0.67554500  0.25000000  0.78049300  1
  Sm  Sm0  1  0.01081000  0.25000000  0.13139600  1
  Sm  Sm1  1  0.48792100  0.75000000  0.50297400  1
  Sm  Sm2  1  0.50901300  0.25000000  0.35885300  1
  Sm  Sm3  1  0.87699900  0.75000000  0.04595000  1
  Tm  Tm0  1  0.07780300  0.01913400  0.56582300  1
  Tm  Tm1  1  0.07780300  0.48086600  0.56582300  1
  Tm  Tm2  1  0.38364500  0.95881800  0.98736400  1
  Tm  Tm3  1  0.38364500  0.54118200  0.98736400  1
  O  O0  1  0.14096500  0.75000000  0.62994400  1
  O  O1  1  0.12863300  0.53103400  0.23447600  1
  O  O2  1  0.12863300  0.96896600  0.23447600  1
  O  O3  1  0.40996200  0.45136600  0.64080400  1
  O  O4  1  0.40996200  0.04863400  0.64080400  1
  O  O5  1  0.38130600  0.25000000  0.03777700  1
  O  O6  1  0.58234600  0.75000000  0.84154700  1
  O  O7  1  0.60923300  0.94882700  0.22815300  1
  O  O8  1  0.60923300  0.55117300  0.22815300  1
  O  O9  1  0.92629100  0.04881100  0.86960400  1
  O  O10  1  0.92629100  0.45118900  0.86960400  1
  O  O11  1  0.85771200  0.25000000  0.47278500  1
loop_
_geom_bond_atom_site_label_1
_geom_bond_atom_site_label_2
_geom_bond_distance
_geom_bond_site_symmetry_2
Ca0 O11 2.274171 1_555
Ca0 O10 2.313217 1_555
Ca0 O9 2.313217 1_555
Ca0 O5 2.455265 1_556
Ca0 O3 2.496583 1_555
Ca0 O4 2.496583 1_555
O0 Tm0 2.135031 1_565
O0 Tm1 2.135031 1_555
O0 Sm1 2.322232 1_555
O0 Sm3 3.128353 1_456
O1 Tm1 2.214124 1_555
O1 Tm3 2.234814 1_554
O1 Sm0 2.378727 1_555
O1 Sm3 2.665695 1_455
O2 Tm0 2.214124 1_565
O2 Tm2 2.234814 1_554
O2 Sm0 2.378727 1_565
O2 Sm3 2.665695 1_455
O3 Tm1 2.213118 1_555
O3 Tm3 2.372073 1_555
O3 Sm2 2.458960 1_555
O3 Sm1 2.487556 1_555
O4 Tm0 2.213118 1_555
O4 Tm2 2.372073 1_545
O4 Sm2 2.458960 1_555
O4 Sm1 2.487556 1_545
O5 Tm3 2.241843 1_554
O5 Tm2 2.241843 1_544
O5 Sm2 2.300328 1_555
O5 Sm0 2.409633 1_555
O6 Tm3 2.217839 1_555
O6 Tm2 2.217839 1_555
O6 Sm1 2.333721 1_555
O6 Sm3 2.368434 1_556
O7 Tm2 2.196180 1_554
O7 Sm1 2.447753 1_555
O7 Sm2 2.518823 1_565
O7 Sm3 2.533245 1_555
O8 Tm3 2.196180 1_554
O8 Sm1 2.447753 1_555
O8 Sm2 2.518823 1_555
O8 Sm3 2.533245 1_555
O9 Tm0 2.179233 1_655
O9 Sm0 2.385578 1_656
O9 Sm3 2.564395 1_546
O10 Tm1 2.179233 1_655
O10 Sm0 2.385578 1_656
O10 Sm3 2.564395 1_556
O11 Tm0 2.351430 1_655
O11 Tm1 2.351430 1_655
O11 Sm2 2.385508 1_555
O11 Sm0 2.394583 1_655
