# generated using pymatgen
data_Ga2Fe2S5
_symmetry_space_group_name_H-M   'P 1'
_cell_length_a   3.62802901
_cell_length_b   3.62802901
_cell_length_c   15.08350900
_cell_angle_alpha   90.00000000
_cell_angle_beta   90.00000000
_cell_angle_gamma   119.99998191
_symmetry_Int_Tables_number   1
_chemical_formula_structural   Ga2Fe2S5
_chemical_formula_sum   'Ga2 Fe2 S5'
_cell_volume   171.93908024
_cell_formula_units_Z   1
loop_
 _symmetry_equiv_pos_site_id
 _symmetry_equiv_pos_as_xyz
  1  'x, y, z'
loop_
 _atom_site_type_symbol
 _atom_site_label
 _atom_site_symmetry_multiplicity
 _atom_site_fract_x
 _atom_site_fract_y
 _atom_site_fract_z
 _atom_site_occupancy
  Ga  Ga0  1  0.66666700  0.33333300  0.17506800  1
  Ga  Ga1  1  0.33333300  0.66666700  0.82493200  1
  Fe  Fe0  1  0.66666700  0.33333300  0.59057400  1
  Fe  Fe1  1  0.33333300  0.66666700  0.40942600  1
  S  S0  1  0.00000000  0.00000000  0.50000000  1
  S  S1  1  0.66666700  0.33333300  0.32284600  1
  S  S2  1  0.33333300  0.66666700  0.67715400  1
  S  S3  1  0.66666700  0.33333300  0.89483600  1
  S  S4  1  0.33333300  0.66666700  0.10516400  1
loop_
_geom_bond_atom_site_label_1
_geom_bond_atom_site_label_2
_geom_bond_distance
_geom_bond_site_symmetry_2
Ga0 S1 2.229011 1_555
Ga0 S4 2.345054 1_545
Ga0 S4 2.345054 1_655
Ga0 S4 2.345059 1_555
Ga1 S2 2.229011 1_555
Ga1 S3 2.345054 1_455
Ga1 S3 2.345054 1_565
Ga1 S3 2.345059 1_555
Fe0 S2 2.468396 1_545
Fe0 S2 2.468396 1_655
Fe0 S2 2.468401 1_555
Fe0 S0 2.500790 1_655
Fe0 S0 2.500794 1_555
Fe0 S0 2.500794 1_665
Fe1 S1 2.468396 1_455
Fe1 S1 2.468396 1_565
Fe1 S1 2.468401 1_555
Fe1 S0 2.500790 1_565
Fe1 S0 2.500794 1_665
Fe1 S0 2.500794 1_555
