# generated using pymatgen
data_CsMg14C
_symmetry_space_group_name_H-M   'P 1'
_cell_length_a   6.34564779
_cell_length_b   6.34564729
_cell_length_c   10.98243466
_cell_angle_alpha   90.00000000
_cell_angle_beta   90.00000000
_cell_angle_gamma   120.00000266
_symmetry_Int_Tables_number   1
_chemical_formula_structural   CsMg14C
_chemical_formula_sum   'Cs1 Mg14 C1'
_cell_volume   382.98444958
_cell_formula_units_Z   1
loop_
 _symmetry_equiv_pos_site_id
 _symmetry_equiv_pos_as_xyz
  1  'x, y, z'
loop_
 _atom_site_type_symbol
 _atom_site_label
 _atom_site_symmetry_multiplicity
 _atom_site_fract_x
 _atom_site_fract_y
 _atom_site_fract_z
 _atom_site_occupancy
  Cs  Cs0  1  0.16666700  0.33333300  0.12500000  1
  Mg  Mg0  1  0.17221000  0.83610450  0.12500000  1
  Mg  Mg1  1  0.15211994  0.82605947  0.62500000  1
  Mg  Mg2  1  0.66389550  0.32779000  0.12500000  1
  Mg  Mg3  1  0.67394053  0.34788006  0.62500000  1
  Mg  Mg4  1  0.66389550  0.83610450  0.12500000  1
  Mg  Mg5  1  0.67394053  0.82605947  0.62500000  1
  Mg  Mg6  1  0.32632588  0.17367412  0.41671982  1
  Mg  Mg7  1  0.32632588  0.17367412  0.83328018  1
  Mg  Mg8  1  0.32632588  0.65265276  0.41671982  1
  Mg  Mg9  1  0.32632588  0.65265276  0.83328018  1
  Mg  Mg10  1  0.84734724  0.17367412  0.41671982  1
  Mg  Mg11  1  0.84734724  0.17367412  0.83328018  1
  Mg  Mg12  1  0.83333300  0.66666700  0.36544003  1
  Mg  Mg13  1  0.83333300  0.66666700  0.88455997  1
  C  C0  1  0.16666700  0.33333300  0.62500000  1
loop_
_geom_bond_atom_site_label_1
_geom_bond_atom_site_label_2
_geom_bond_distance
_geom_bond_site_symmetry_2
Cs0 Mg4 3.172970 1_555
Cs0 Mg0 3.172970 1_555
Cs0 Mg4 3.172970 1_445
Cs0 Mg0 3.172970 1_545
Cs0 Mg2 3.172970 1_455
Cs0 Mg2 3.172970 1_555
Cs0 Mg6 3.652896 1_555
Cs0 Mg7 3.652896 1_554
Cs0 Mg9 3.652901 1_554
Cs0 Mg8 3.652901 1_555
Cs0 Mg11 3.652901 1_454
Cs0 Mg10 3.652901 1_455
Mg0 Mg2 3.120063 1_565
Mg0 Mg4 3.120063 1_555
Mg0 Mg2 3.225585 1_455
Mg0 Mg4 3.225585 1_455
Mg0 Mg13 3.231254 1_454
Mg0 Mg12 3.231254 1_455
Mg1 Mg8 2.980196 1_555
Mg1 Mg9 2.980196 1_555
Mg1 Mg6 2.980203 1_565
Mg1 Mg7 2.980203 1_565
Mg1 Mg3 3.034358 1_455
Mg1 Mg5 3.034358 1_455
Mg1 Mg3 3.311289 1_565
Mg1 Mg5 3.311290 1_555
Mg1 Mg12 3.345900 1_455
Mg1 Mg13 3.345900 1_455
Mg2 Mg4 3.120063 1_545
Mg2 Mg4 3.225585 1_555
Mg3 Mg6 2.980203 1_555
Mg3 Mg7 2.980203 1_555
Mg3 Mg5 3.034358 1_555
Mg3 Mg5 3.311289 1_545
Mg5 Mg8 2.980203 1_555
Mg5 Mg9 2.980203 1_555
Mg10 Mg3 2.980196 1_555
Mg10 Mg5 2.980203 1_545
Mg10 Mg12 3.223338 1_545
Mg10 Mg12 3.223338 1_555
Mg11 Mg3 2.980196 1_555
Mg11 Mg5 2.980203 1_545
Mg11 Mg13 3.223338 1_545
Mg11 Mg13 3.223338 1_555
Mg12 Mg6 3.223338 1_665
Mg12 Mg6 3.223338 1_555
Mg12 Mg8 3.223338 1_555
Mg12 Mg8 3.223338 1_655
Mg12 Mg4 3.231248 1_555
Mg12 Mg2 3.231254 1_555
Mg12 Mg5 3.345894 1_555
Mg12 Mg3 3.345900 1_555
Mg13 Mg7 3.223338 1_665
Mg13 Mg7 3.223338 1_555
Mg13 Mg9 3.223338 1_555
Mg13 Mg9 3.223338 1_655
Mg13 Mg4 3.231248 1_556
Mg13 Mg2 3.231254 1_556
Mg13 Mg5 3.345894 1_555
Mg13 Mg3 3.345900 1_555
C0 Mg6 2.882995 1_555
C0 Mg7 2.882995 1_555
C0 Mg8 2.883001 1_555
C0 Mg9 2.883001 1_555
C0 Mg10 2.883001 1_455
C0 Mg11 2.883001 1_455
