# generated using pymatgen
data_DyInCu
_symmetry_space_group_name_H-M   'P 1'
_cell_length_a   7.41937354
_cell_length_b   7.41937354
_cell_length_c   3.91611616
_cell_angle_alpha   90.00000000
_cell_angle_beta   90.00000000
_cell_angle_gamma   119.99999927
_symmetry_Int_Tables_number   1
_chemical_formula_structural   DyInCu
_chemical_formula_sum   'Dy3 In3 Cu3'
_cell_volume   186.68983581
_cell_formula_units_Z   3
loop_
 _symmetry_equiv_pos_site_id
 _symmetry_equiv_pos_as_xyz
  1  'x, y, z'
loop_
 _atom_site_type_symbol
 _atom_site_label
 _atom_site_symmetry_multiplicity
 _atom_site_fract_x
 _atom_site_fract_y
 _atom_site_fract_z
 _atom_site_occupancy
  Dy  Dy0  1  0.41053384  0.00000000  0.50000000  1
  Dy  Dy1  1  0.00000000  0.41053384  0.50000000  1
  Dy  Dy2  1  0.58946616  0.58946616  0.50000000  1
  In  In0  1  0.74636161  0.00000000  -0.00000000  1
  In  In1  1  0.00000000  0.74636161  -0.00000000  1
  In  In2  1  0.25363839  0.25363839  0.00000000  1
  Cu  Cu0  1  -0.00000000  -0.00000000  0.50000000  1
  Cu  Cu1  1  0.33333300  0.66666700  -0.00000000  1
  Cu  Cu2  1  0.66666700  0.33333300  -0.00000000  1
loop_
_geom_bond_atom_site_label_1
_geom_bond_atom_site_label_2
_geom_bond_distance
_geom_bond_site_symmetry_2
Dy0 In0 3.168946 1_555
Dy0 In0 3.168946 1_556
Dy0 In2 3.304684 1_556
Dy0 In2 3.304684 1_555
Dy0 In1 3.304684 1_545
Dy0 In1 3.304684 1_546
Dy1 In1 3.168946 1_555
Dy1 In1 3.168946 1_556
Dy1 In2 3.304684 1_556
Dy1 In2 3.304684 1_555
Dy1 In0 3.304684 1_455
Dy1 In0 3.304684 1_456
Dy2 In2 3.168946 1_556
Dy2 In2 3.168946 1_555
Dy2 In1 3.304684 1_656
Dy2 In0 3.304684 1_565
Dy2 In0 3.304684 1_566
Dy2 In1 3.304684 1_655
Cu0 In1 2.715751 1_546
Cu0 In0 2.715751 1_455
Cu0 In0 2.715751 1_456
Cu0 In1 2.715751 1_545
Cu0 In2 2.715751 1_556
Cu0 In2 2.715751 1_555
Cu0 Dy0 3.045904 1_555
Cu0 Dy1 3.045904 1_555
Cu0 Dy2 3.045904 1_445
Cu1 In1 2.815718 1_555
Cu1 In0 2.815723 1_565
Cu1 In2 2.815725 1_555
Cu1 Dy0 2.976885 1_565
Cu1 Dy0 2.976885 1_564
Cu1 Dy1 2.976887 1_555
Cu1 Dy1 2.976887 1_554
Cu1 Dy2 2.976890 1_555
Cu1 Dy2 2.976890 1_554
Cu2 In0 2.815718 1_555
Cu2 In1 2.815723 1_655
Cu2 In2 2.815725 1_555
Cu2 Dy1 2.976885 1_655
Cu2 Dy1 2.976885 1_654
Cu2 Dy0 2.976887 1_554
Cu2 Dy0 2.976887 1_555
Cu2 Dy2 2.976890 1_555
Cu2 Dy2 2.976890 1_554
