# generated using pymatgen
data_CsErP2O7
_symmetry_space_group_name_H-M   'P 1'
_cell_length_a   10.96953900
_cell_length_b   8.00211000
_cell_length_c   8.86254219
_cell_angle_alpha   75.58095390
_cell_angle_beta   90.00000000
_cell_angle_gamma   90.00000000
_symmetry_Int_Tables_number   1
_chemical_formula_structural   CsErP2O7
_chemical_formula_sum   'Cs4 Er4 P8 O28'
_cell_volume   753.44409075
_cell_formula_units_Z   4
loop_
 _symmetry_equiv_pos_site_id
 _symmetry_equiv_pos_as_xyz
  1  'x, y, z'
loop_
 _atom_site_type_symbol
 _atom_site_label
 _atom_site_symmetry_multiplicity
 _atom_site_fract_x
 _atom_site_fract_y
 _atom_site_fract_z
 _atom_site_occupancy
  Cs  Cs0  1  0.80726100  0.30148200  0.05125700  1
  Cs  Cs1  1  0.30726100  0.69851800  0.44874300  1
  Cs  Cs2  1  0.19273900  0.69851800  0.94874300  1
  Cs  Cs3  1  0.69273900  0.30148200  0.55125700  1
  Er  Er0  1  0.09967200  0.26342400  0.75369300  1
  Er  Er1  1  0.59967200  0.73657600  0.74630700  1
  Er  Er2  1  0.90032800  0.73657600  0.24630700  1
  Er  Er3  1  0.40032800  0.26342400  0.25369300  1
  P  P0  1  0.90419400  0.63192600  0.67739200  1
  P  P1  1  0.40419400  0.36807400  0.82260800  1
  P  P2  1  0.09580600  0.36807400  0.32260800  1
  P  P3  1  0.59580600  0.63192600  0.17739200  1
  P  P4  1  0.36947400  0.07359400  0.68216500  1
  P  P5  1  0.86947400  0.92640600  0.81783500  1
  P  P6  1  0.63052600  0.92640600  0.31783500  1
  P  P7  1  0.13052600  0.07359400  0.18216500  1
  O  O0  1  0.99820900  0.50423800  0.77033000  1
  O  O1  1  0.49820900  0.49576200  0.72967000  1
  O  O2  1  0.00179100  0.49576200  0.22967000  1
  O  O3  1  0.50179100  0.50423800  0.27033000  1
  O  O4  1  0.08510400  0.34697800  0.49773500  1
  O  O5  1  0.58510400  0.65302200  0.00226500  1
  O  O6  1  0.91489600  0.65302200  0.50226500  1
  O  O7  1  0.41489600  0.34697800  0.99773500  1
  O  O8  1  0.23421000  0.06210300  0.72659500  1
  O  O9  1  0.73421000  0.93789700  0.77340500  1
  O  O10  1  0.76579000  0.93789700  0.27340500  1
  O  O11  1  0.26579000  0.06210300  0.22659500  1
  O  O12  1  0.27438600  0.41363400  0.76038400  1
  O  O13  1  0.77438600  0.58636600  0.73961600  1
  O  O14  1  0.72561400  0.58636600  0.23961600  1
  O  O15  1  0.22561400  0.41363400  0.26038400  1
  O  O16  1  0.92943900  0.10518200  0.77349200  1
  O  O17  1  0.42943900  0.89481800  0.72650800  1
  O  O18  1  0.07056100  0.89481800  0.22650800  1
  O  O19  1  0.57056100  0.10518200  0.27349200  1
  O  O20  1  0.93880200  0.81998900  0.70671100  1
  O  O21  1  0.43880200  0.18001100  0.79328900  1
  O  O22  1  0.06119800  0.18001100  0.29328900  1
  O  O23  1  0.56119800  0.81998900  0.20671100  1
  O  O24  1  0.10568000  0.17316200  0.01406700  1
  O  O25  1  0.60568000  0.82683800  0.48593300  1
  O  O26  1  0.89432000  0.82683800  0.98593300  1
  O  O27  1  0.39432000  0.17316200  0.51406700  1
loop_
_geom_bond_atom_site_label_1
_geom_bond_atom_site_label_2
_geom_bond_distance
_geom_bond_site_symmetry_2
Cs0 O10 3.113721 1_545
Cs0 O13 3.133611 1_554
Cs0 O14 3.268182 1_555
Cs0 O2 3.270305 1_655
Cs0 O0 3.347654 1_554
Cs0 O19 3.398178 1_555
Cs0 O24 3.470950 1_655
Cs0 O16 3.499925 1_554
Cs0 O22 3.502422 1_655
Cs0 O5 3.665013 1_555
Cs1 O11 3.113721 1_565
Cs1 O12 3.133611 1_555
Cs1 O15 3.268182 1_555
Cs1 O3 3.270305 1_555
Cs1 O1 3.347654 1_555
Cs1 O18 3.398178 1_555
Cs1 O25 3.470950 1_555
Cs1 O17 3.499925 1_555
Cs1 O23 3.502422 1_555
Cs1 O4 3.665013 1_555
Cs2 O8 3.113721 1_565
Cs2 O15 3.133611 1_556
Cs2 O12 3.268182 1_555
Cs2 O0 3.270305 1_455
Cs2 O2 3.347654 1_556
Cs2 O17 3.398178 1_555
Cs2 O26 3.470950 1_455
Cs2 O18 3.499925 1_556
Cs2 O20 3.502422 1_455
Cs2 O7 3.665013 1_555
Cs3 O9 3.113721 1_545
Cs3 O14 3.133611 1_555
Cs3 O13 3.268182 1_555
Cs3 O1 3.270305 1_555
Cs3 O3 3.347654 1_555
Cs3 O16 3.398178 1_555
Cs3 O27 3.470950 1_555
Cs3 O19 3.499925 1_555
Cs3 O21 3.502422 1_555
Cs3 O6 3.665013 1_555
Er0 O4 2.205229 1_555
Er0 O16 2.238453 1_455
Er0 O24 2.240731 1_556
Er0 O8 2.241361 1_555
Er0 O0 2.261731 1_455
Er0 O12 2.270882 1_555
Er1 O5 2.205229 1_556
Er1 O17 2.238453 1_555
Er1 O25 2.240731 1_555
Er1 O9 2.241361 1_555
Er1 O1 2.261731 1_555
Er1 O13 2.270882 1_555
Er2 O6 2.205229 1_555
Er2 O18 2.238453 1_655
Er2 O26 2.240731 1_554
Er2 O10 2.241361 1_555
Er2 O2 2.261731 1_655
Er2 O14 2.270882 1_555
Er3 O7 2.205229 1_554
Er3 O19 2.238453 1_555
Er3 O27 2.240731 1_555
Er3 O11 2.241361 1_555
Er3 O3 2.261731 1_555
Er3 O15 2.270882 1_555
O0 P0 1.538471 1_555
O1 P1 1.538471 1_555
O2 P2 1.538471 1_555
O3 P3 1.538471 1_555
O4 P2 1.523389 1_555
O5 P3 1.523389 1_555
O6 P0 1.523389 1_555
O7 P1 1.523389 1_555
O8 P4 1.532020 1_555
O9 P5 1.532020 1_555
O10 P6 1.532020 1_555
O11 P7 1.532020 1_555
O12 P1 1.537689 1_555
O13 P0 1.537689 1_555
O14 P3 1.537689 1_555
O15 P2 1.537689 1_555
O16 P5 1.534180 1_545
O17 P4 1.534180 1_565
O18 P7 1.534180 1_565
O19 P6 1.534180 1_545
O20 P0 1.634353 1_555
O20 P5 1.640454 1_555
O21 P1 1.634353 1_555
O21 P4 1.640454 1_555
O22 P2 1.634353 1_555
O22 P7 1.640454 1_555
O23 P3 1.634353 1_555
O23 P6 1.640454 1_555
O24 P7 1.528851 1_555
O25 P6 1.528851 1_555
O26 P5 1.528851 1_555
O27 P4 1.528851 1_555
