# generated using pymatgen
data_SnPO4F
_symmetry_space_group_name_H-M   'P 1'
_cell_length_a   6.40032883
_cell_length_b   7.28969304
_cell_length_c   7.73490025
_cell_angle_alpha   90.00000000
_cell_angle_beta   90.00000000
_cell_angle_gamma   90.00000000
_symmetry_Int_Tables_number   1
_chemical_formula_structural   SnPO4F
_chemical_formula_sum   'Sn4 P4 O16 F4'
_cell_volume   360.88285161
_cell_formula_units_Z   4
loop_
 _symmetry_equiv_pos_site_id
 _symmetry_equiv_pos_as_xyz
  1  'x, y, z'
loop_
 _atom_site_type_symbol
 _atom_site_label
 _atom_site_symmetry_multiplicity
 _atom_site_fract_x
 _atom_site_fract_y
 _atom_site_fract_z
 _atom_site_occupancy
  Sn  Sn0  1  0.75000000  0.24593096  0.87225796  1
  Sn  Sn1  1  0.75000000  0.25406904  0.37225796  1
  Sn  Sn2  1  0.25000000  0.75406904  0.12774204  1
  Sn  Sn3  1  0.25000000  0.74593096  0.62774204  1
  P  P0  1  0.75000000  0.87352343  0.12812542  1
  P  P1  1  0.75000000  0.62647657  0.62812542  1
  P  P2  1  0.25000000  0.12647657  0.87187458  1
  P  P3  1  0.25000000  0.37352343  0.37187458  1
  O  O0  1  0.75000000  0.98721625  0.96122062  1
  O  O1  1  0.75000000  0.51278375  0.46122062  1
  O  O2  1  0.25000000  0.01278375  0.03877938  1
  O  O3  1  0.25000000  0.48721625  0.53877938  1
  O  O4  1  0.93911642  0.74605526  0.13094703  1
  O  O5  1  0.56088358  0.75394474  0.63094703  1
  O  O6  1  0.43911642  0.25394474  0.86905297  1
  O  O7  1  0.06088358  0.24605526  0.36905297  1
  O  O8  1  0.06088358  0.25394474  0.86905297  1
  O  O9  1  0.43911642  0.24605526  0.36905297  1
  O  O10  1  0.56088358  0.74605526  0.13094703  1
  O  O11  1  0.93911642  0.75394474  0.63094703  1
  O  O12  1  0.75000000  0.99536649  0.28843801  1
  O  O13  1  0.75000000  0.50463351  0.78843801  1
  O  O14  1  0.25000000  0.00463351  0.71156199  1
  O  O15  1  0.25000000  0.49536649  0.21156199  1
  F  F0  1  0.75000000  0.34686954  0.12049727  1
  F  F1  1  0.75000000  0.15313046  0.62049727  1
  F  F2  1  0.25000000  0.65313046  0.87950273  1
  F  F3  1  0.25000000  0.84686954  0.37950273  1
loop_
_geom_bond_atom_site_label_1
_geom_bond_atom_site_label_2
_geom_bond_distance
_geom_bond_site_symmetry_2
O0 P0 1.534127 1_556
O0 Sn0 2.007565 1_565
O1 P1 1.534127 1_555
O1 Sn1 2.007565 1_555
O2 P2 1.534127 1_554
O2 Sn2 2.007565 1_545
O3 P3 1.534127 1_555
O3 Sn3 2.007565 1_555
O4 P0 1.526100 1_555
O4 Sn2 1.990769 1_655
O5 P1 1.526100 1_555
O5 Sn3 1.990769 1_555
O6 P2 1.526100 1_555
O6 Sn0 1.990769 1_555
O7 P3 1.526100 1_555
O7 Sn1 1.990769 1_455
O8 P2 1.526100 1_555
O8 Sn0 1.990769 1_455
O9 P3 1.526100 1_555
O9 Sn1 1.990769 1_555
O10 P0 1.526100 1_555
O10 Sn2 1.990769 1_555
O11 P1 1.526100 1_555
O11 Sn3 1.990769 1_655
O12 P0 1.525287 1_555
O12 Sn1 1.994196 1_565
O13 P1 1.525287 1_555
O13 Sn0 1.994196 1_555
O14 P2 1.525287 1_555
O14 Sn3 1.994196 1_545
O15 P3 1.525287 1_555
O15 Sn2 1.994196 1_555
F0 Sn0 2.056265 1_554
F0 Sn1 2.061500 1_555
F1 Sn1 2.056265 1_555
F1 Sn0 2.061500 1_555
F2 Sn2 2.056265 1_556
F2 Sn3 2.061500 1_555
F3 Sn3 2.056265 1_555
F3 Sn2 2.061500 1_555
