# generated using pymatgen
data_DyAlCu4
_symmetry_space_group_name_H-M   'P 1'
_cell_length_a   5.15946632
_cell_length_b   5.15946632
_cell_length_c   4.04554700
_cell_angle_alpha   90.00000000
_cell_angle_beta   90.00000000
_cell_angle_gamma   120.00000415
_symmetry_Int_Tables_number   1
_chemical_formula_structural   DyAlCu4
_chemical_formula_sum   'Dy1 Al1 Cu4'
_cell_volume   93.26472819
_cell_formula_units_Z   1
loop_
 _symmetry_equiv_pos_site_id
 _symmetry_equiv_pos_as_xyz
  1  'x, y, z'
loop_
 _atom_site_type_symbol
 _atom_site_label
 _atom_site_symmetry_multiplicity
 _atom_site_fract_x
 _atom_site_fract_y
 _atom_site_fract_z
 _atom_site_occupancy
  Dy  Dy0  1  0.33333300  0.66666700  0.00000000  1
  Al  Al0  1  0.66666700  0.33333300  0.00000000  1
  Cu  Cu0  1  0.00000000  0.00000000  0.00000000  1
  Cu  Cu1  1  0.33179500  0.16589700  0.50000000  1
  Cu  Cu2  1  0.83410300  0.16589700  0.50000000  1
  Cu  Cu3  1  0.83410300  0.66820500  0.50000000  1
loop_
_geom_bond_atom_site_label_1
_geom_bond_atom_site_label_2
_geom_bond_distance
_geom_bond_site_symmetry_2
Al0 Cu3 2.516045 1_554
Al0 Cu3 2.516045 1_555
Al0 Cu1 2.516045 1_555
Al0 Cu1 2.516045 1_554
Al0 Cu2 2.516045 1_554
Al0 Cu2 2.516045 1_555
Al0 Dy0 2.978816 1_545
Al0 Dy0 2.978816 1_655
Al0 Cu0 2.978816 1_655
Al0 Cu0 2.978821 1_555
Al0 Cu0 2.978821 1_665
Al0 Dy0 2.978825 1_555
Cu0 Cu2 2.507890 1_454
Cu0 Cu2 2.507890 1_455
Cu0 Cu1 2.507893 1_555
Cu0 Cu1 2.507893 1_554
Cu0 Cu3 2.507893 1_445
Cu0 Cu3 2.507893 1_444
Cu0 Dy0 2.978816 1_545
Cu0 Dy0 2.978821 1_445
Cu0 Dy0 2.978821 1_555
Cu1 Cu3 2.567825 1_445
Cu1 Cu2 2.567825 1_455
Cu1 Cu3 2.591641 1_555
Cu1 Cu2 2.591641 1_555
Cu1 Dy0 3.278209 1_546
Cu1 Dy0 3.278209 1_545
Cu1 Dy0 3.278217 1_555
Cu1 Dy0 3.278217 1_556
Cu2 Cu3 2.567825 1_545
Cu2 Cu3 2.591641 1_555
Cu2 Dy0 3.278213 1_545
Cu2 Dy0 3.278213 1_546
Cu2 Dy0 3.278213 1_655
Cu2 Dy0 3.278213 1_656
Cu3 Dy0 3.278209 1_656
Cu3 Dy0 3.278209 1_655
Cu3 Dy0 3.278217 1_555
Cu3 Dy0 3.278217 1_556
