# generated using pymatgen
data_CeMn2Cu9
_symmetry_space_group_name_H-M   'P 1'
_cell_length_a   4.90831300
_cell_length_b   8.28933900
_cell_length_c   8.28933900
_cell_angle_alpha   90.00000000
_cell_angle_beta   90.00000000
_cell_angle_gamma   90.00000000
_symmetry_Int_Tables_number   1
_chemical_formula_structural   CeMn2Cu9
_chemical_formula_sum   'Ce2 Mn4 Cu18'
_cell_volume   337.26560352
_cell_formula_units_Z   2
loop_
 _symmetry_equiv_pos_site_id
 _symmetry_equiv_pos_as_xyz
  1  'x, y, z'
loop_
 _atom_site_type_symbol
 _atom_site_label
 _atom_site_symmetry_multiplicity
 _atom_site_fract_x
 _atom_site_fract_y
 _atom_site_fract_z
 _atom_site_occupancy
  Ce  Ce0  1  0.00000000  0.00000000  0.00000000  1
  Ce  Ce1  1  0.00000000  0.50000000  0.50000000  1
  Mn  Mn0  1  0.00000000  0.61600800  0.11600800  1
  Mn  Mn1  1  0.00000000  0.38399200  0.88399200  1
  Mn  Mn2  1  0.00000000  0.88399200  0.61600800  1
  Mn  Mn3  1  0.00000000  0.11600800  0.38399200  1
  Cu  Cu0  1  0.24046500  0.17867700  0.67867700  1
  Cu  Cu1  1  0.75953500  0.82132300  0.32132300  1
  Cu  Cu2  1  0.24046500  0.82132300  0.32132300  1
  Cu  Cu3  1  0.24046500  0.32132300  0.17867700  1
  Cu  Cu4  1  0.75953500  0.32132300  0.17867700  1
  Cu  Cu5  1  0.75953500  0.17867700  0.67867700  1
  Cu  Cu6  1  0.75953500  0.67867700  0.82132300  1
  Cu  Cu7  1  0.24046500  0.67867700  0.82132300  1
  Cu  Cu8  1  0.50000000  0.06491000  0.21013200  1
  Cu  Cu9  1  0.50000000  0.93509000  0.78986800  1
  Cu  Cu10  1  0.50000000  0.78986800  0.06491000  1
  Cu  Cu11  1  0.50000000  0.43509000  0.71013200  1
  Cu  Cu12  1  0.50000000  0.21013200  0.93509000  1
  Cu  Cu13  1  0.50000000  0.56491000  0.28986800  1
  Cu  Cu14  1  0.50000000  0.71013200  0.56491000  1
  Cu  Cu15  1  0.50000000  0.28986800  0.43509000  1
  Cu  Cu16  1  0.50000000  0.00000000  0.50000000  1
  Cu  Cu17  1  0.50000000  0.50000000  0.00000000  1
loop_
_geom_bond_atom_site_label_1
_geom_bond_atom_site_label_2
_geom_bond_distance
_geom_bond_site_symmetry_2
Ce0 Cu10 3.057197 1_445
Ce0 Cu9 3.057197 1_544
Ce0 Cu10 3.057197 1_545
Ce0 Cu8 3.057197 1_455
Ce0 Cu9 3.057197 1_444
Ce0 Cu12 3.057197 1_454
Ce0 Cu12 3.057197 1_554
Ce0 Cu8 3.057197 1_555
Ce0 Cu5 3.268223 1_454
Ce0 Cu7 3.268223 1_544
Ce0 Cu4 3.268223 1_455
Ce0 Cu3 3.268223 1_555
Ce0 Cu6 3.268223 1_444
Ce0 Cu2 3.268223 1_545
Ce0 Cu1 3.268223 1_445
Ce0 Cu0 3.268223 1_554
Ce0 Mn3 3.325128 1_555
Ce0 Mn1 3.325128 1_554
Ce0 Mn0 3.325128 1_545
Ce0 Mn2 3.325128 1_544
Ce1 Cu11 3.057197 1_455
Ce1 Cu13 3.057197 1_455
Ce1 Cu14 3.057197 1_455
Ce1 Cu13 3.057197 1_555
Ce1 Cu15 3.057197 1_555
Ce1 Cu14 3.057197 1_555
Ce1 Cu15 3.057197 1_455
Ce1 Cu11 3.057197 1_555
Ce1 Cu1 3.268223 1_455
Ce1 Cu7 3.268223 1_555
Ce1 Cu4 3.268223 1_455
Ce1 Cu3 3.268223 1_555
Ce1 Cu6 3.268223 1_455
Ce1 Cu0 3.268223 1_555
Ce1 Cu2 3.268223 1_555
Ce1 Cu5 3.268223 1_455
Ce1 Mn3 3.325128 1_555
Ce1 Mn0 3.325128 1_555
Ce1 Mn1 3.325128 1_555
Ce1 Mn2 3.325128 1_555
Mn0 Mn1 2.719899 1_554
Mn2 Mn3 2.719899 1_565
Cu0 Cu5 2.360555 1_455
Cu0 Cu16 2.451564 1_555
Cu0 Cu11 2.491682 1_555
Cu0 Cu12 2.491682 1_555
Cu0 Cu5 2.547758 1_555
Cu0 Cu15 2.559173 1_555
Cu0 Cu9 2.559173 1_545
Cu0 Mn1 2.680701 1_555
Cu0 Mn2 2.762230 1_545
Cu0 Mn3 2.762230 1_555
Cu1 Cu2 2.360555 1_655
Cu1 Cu16 2.451564 1_565
Cu1 Cu10 2.491682 1_555
Cu1 Cu13 2.491682 1_555
Cu1 Cu2 2.547758 1_555
Cu1 Cu8 2.559173 1_565
Cu1 Cu14 2.559173 1_555
Cu1 Mn0 2.680701 1_655
Cu1 Mn3 2.762230 1_665
Cu1 Mn2 2.762230 1_655
Cu2 Cu8 2.559173 1_565
Cu2 Mn0 2.680701 1_555
Cu2 Mn3 2.762230 1_565
Cu2 Mn2 2.762230 1_555
Cu3 Cu4 2.360555 1_455
Cu3 Cu8 2.491682 1_555
Cu3 Cu4 2.547758 1_555
Cu3 Mn3 2.680701 1_555
Cu3 Mn1 2.762230 1_554
Cu3 Mn0 2.762230 1_555
Cu4 Cu8 2.491682 1_555
Cu4 Mn3 2.680701 1_655
Cu4 Mn1 2.762230 1_654
Cu4 Mn0 2.762230 1_655
Cu5 Cu9 2.559173 1_545
Cu5 Mn1 2.680701 1_655
Cu5 Mn3 2.762230 1_655
Cu5 Mn2 2.762230 1_645
Cu6 Cu7 2.360555 1_655
Cu6 Cu9 2.491682 1_555
Cu6 Cu7 2.547758 1_555
Cu6 Mn2 2.680701 1_655
Cu6 Mn0 2.762230 1_656
Cu6 Mn1 2.762230 1_655
Cu7 Cu9 2.491682 1_555
Cu7 Mn2 2.680701 1_555
Cu7 Mn0 2.762230 1_556
Cu7 Mn1 2.762230 1_555
Cu8 Mn3 2.877379 1_555
Cu8 Mn3 2.877379 1_655
Cu9 Mn2 2.877379 1_655
Cu9 Mn2 2.877379 1_555
Cu10 Cu17 2.462321 1_555
Cu10 Cu2 2.491682 1_555
Cu10 Cu6 2.559173 1_554
Cu10 Cu7 2.559173 1_554
Cu10 Cu9 2.578205 1_554
Cu10 Cu8 2.578205 1_565
Cu10 Cu13 2.637159 1_555
Cu10 Mn0 2.877379 1_555
Cu10 Mn0 2.877379 1_655
Cu11 Cu17 2.462321 1_556
Cu11 Cu5 2.491682 1_555
Cu11 Cu7 2.559173 1_555
Cu11 Cu6 2.559173 1_555
Cu11 Cu14 2.578205 1_555
Cu11 Cu15 2.578205 1_555
Cu11 Cu12 2.637159 1_555
Cu11 Mn1 2.877379 1_655
Cu11 Mn1 2.877379 1_555
Cu12 Cu17 2.462321 1_556
Cu12 Cu5 2.491682 1_555
Cu12 Cu4 2.559173 1_556
Cu12 Cu3 2.559173 1_556
Cu12 Cu9 2.578205 1_545
Cu12 Cu8 2.578205 1_556
Cu12 Mn1 2.877379 1_655
Cu12 Mn1 2.877379 1_555
Cu13 Cu17 2.462321 1_555
Cu13 Cu2 2.491682 1_555
Cu13 Cu4 2.559173 1_555
Cu13 Cu3 2.559173 1_555
Cu13 Cu14 2.578205 1_555
Cu13 Cu15 2.578205 1_555
Cu13 Mn0 2.877379 1_555
Cu13 Mn0 2.877379 1_655
Cu14 Cu16 2.462321 1_565
Cu14 Cu6 2.491682 1_555
Cu14 Cu7 2.491682 1_555
Cu14 Cu2 2.559173 1_555
Cu14 Cu9 2.637159 1_555
Cu14 Mn2 2.877379 1_655
Cu14 Mn2 2.877379 1_555
Cu15 Cu16 2.462321 1_555
Cu15 Cu4 2.491682 1_555
Cu15 Cu3 2.491682 1_555
Cu15 Cu5 2.559173 1_555
Cu15 Cu8 2.637159 1_555
Cu15 Mn3 2.877379 1_555
Cu15 Mn3 2.877379 1_655
Cu16 Cu5 2.451564 1_555
Cu16 Cu2 2.451564 1_545
Cu16 Cu8 2.462321 1_555
Cu16 Cu9 2.462321 1_545
Cu16 Mn3 2.805770 1_555
Cu16 Mn3 2.805770 1_655
Cu16 Mn2 2.805770 1_545
Cu16 Mn2 2.805770 1_645
Cu17 Cu3 2.451564 1_555
Cu17 Cu4 2.451564 1_555
Cu17 Cu7 2.451564 1_554
Cu17 Cu6 2.451564 1_554
Cu17 Mn0 2.805770 1_555
Cu17 Mn0 2.805770 1_655
Cu17 Mn1 2.805770 1_654
Cu17 Mn1 2.805770 1_554
