# generated using pymatgen
data_Ba2YCoCu2O7
_symmetry_space_group_name_H-M   'P 1'
_cell_length_a   3.86629601
_cell_length_b   3.91930101
_cell_length_c   11.81992400
_cell_angle_alpha   90.00012149
_cell_angle_beta   89.99999516
_cell_angle_gamma   89.99256716
_symmetry_Int_Tables_number   1
_chemical_formula_structural   Ba2YCoCu2O7
_chemical_formula_sum   'Ba2 Y1 Co1 Cu2 O7'
_cell_volume   179.10940895
_cell_formula_units_Z   1
loop_
 _symmetry_equiv_pos_site_id
 _symmetry_equiv_pos_as_xyz
  1  'x, y, z'
loop_
 _atom_site_type_symbol
 _atom_site_label
 _atom_site_symmetry_multiplicity
 _atom_site_fract_x
 _atom_site_fract_y
 _atom_site_fract_z
 _atom_site_occupancy
  Ba  Ba0  1  0.50000000  0.49999700  0.18383600  1
  Ba  Ba1  1  0.50000000  0.50000200  0.81615400  1
  Y  Y0  1  0.50000100  0.50000100  0.50001000  1
  Co  Co0  1  0.99999900  0.00000100  0.00000600  1
  Cu  Cu0  1  0.00000100  0.99999700  0.35978500  1
  Cu  Cu1  1  0.00000100  0.00000200  0.64021300  1
  O  O0  1  0.00000000  0.50000100  0.00000000  1
  O  O1  1  0.49999900  0.99999900  0.37776300  1
  O  O2  1  0.50000000  0.99999800  0.62223600  1
  O  O3  1  0.99999900  0.99999900  0.15265300  1
  O  O4  1  0.99999900  0.00000200  0.84734700  1
  O  O5  1  0.00000000  0.49999900  0.37796700  1
  O  O6  1  0.00000100  0.50000000  0.62203300  1
loop_
_geom_bond_atom_site_label_1
_geom_bond_atom_site_label_2
_geom_bond_distance
_geom_bond_site_symmetry_2
Ba0 O3 2.777069 1_545
Ba0 O3 2.777086 1_455
Ba0 O3 2.777428 1_445
Ba0 O3 2.777435 1_555
Ba0 O0 2.908380 1_655
Ba0 O0 2.908380 1_555
Ba0 O5 3.000385 1_555
Ba0 O5 3.000386 1_655
Ba0 O1 3.015694 1_545
Ba0 O1 3.015698 1_555
Ba1 O4 2.777091 1_555
Ba1 O4 2.777095 1_465
Ba1 O4 2.777444 1_565
Ba1 O4 2.777450 1_455
Ba1 O0 2.908468 1_556
Ba1 O0 2.908469 1_656
Ba1 O6 3.000293 1_555
Ba1 O6 3.000297 1_655
Ba1 O2 3.015608 1_555
Ba1 O2 3.015622 1_545
Co0 O3 1.804276 1_545
Co0 O4 1.804418 1_554
Co0 O0 1.959651 1_645
Co0 O0 1.959651 1_655
Cu0 O1 1.944785 1_555
Cu0 O1 1.944800 1_455
Cu0 O5 1.971392 1_555
Cu0 O5 1.971407 1_565
Cu0 O3 2.448284 1_455
Cu1 O2 1.944787 1_545
Cu1 O2 1.944795 1_445
Cu1 O6 1.971390 1_555
Cu1 O6 1.971404 1_545
Cu1 O4 2.448308 1_455
O1 Y0 2.434767 1_555
O1 Y0 2.434775 1_565
O2 Y0 2.434612 1_555
O2 Y0 2.434636 1_565
O5 Y0 2.412046 1_455
O5 Y0 2.412052 1_555
O6 Y0 2.411907 1_555
O6 Y0 2.411908 1_455
