# generated using pymatgen
data_Cr3N4
_symmetry_space_group_name_H-M   'P 1'
_cell_length_a   4.81213300
_cell_length_b   5.89242300
_cell_length_c   9.94836300
_cell_angle_alpha   90.00000000
_cell_angle_beta   90.00000000
_cell_angle_gamma   90.00000000
_symmetry_Int_Tables_number   1
_chemical_formula_structural   Cr3N4
_chemical_formula_sum   'Cr12 N16'
_cell_volume   282.08705819
_cell_formula_units_Z   4
loop_
 _symmetry_equiv_pos_site_id
 _symmetry_equiv_pos_as_xyz
  1  'x, y, z'
loop_
 _atom_site_type_symbol
 _atom_site_label
 _atom_site_symmetry_multiplicity
 _atom_site_fract_x
 _atom_site_fract_y
 _atom_site_fract_z
 _atom_site_occupancy
  Cr  Cr0  1  0.00000000  0.50000000  0.00000000  1
  Cr  Cr1  1  0.50000000  0.00000000  0.50000000  1
  Cr  Cr2  1  0.00000000  0.00000000  0.00000000  1
  Cr  Cr3  1  0.50000000  0.50000000  0.50000000  1
  Cr  Cr4  1  0.01036800  0.75000000  0.26183700  1
  Cr  Cr5  1  0.48963200  0.75000000  0.76183700  1
  Cr  Cr6  1  0.98963200  0.25000000  0.73816300  1
  Cr  Cr7  1  0.51036800  0.25000000  0.23816300  1
  Cr  Cr8  1  0.58553400  0.75000000  0.09121300  1
  Cr  Cr9  1  0.91446600  0.75000000  0.59121300  1
  Cr  Cr10  1  0.41446600  0.25000000  0.90878700  1
  Cr  Cr11  1  0.08553400  0.25000000  0.40878700  1
  N  N0  1  0.22067600  0.75000000  0.08532200  1
  N  N1  1  0.27932400  0.75000000  0.58532200  1
  N  N2  1  0.77932400  0.25000000  0.91467800  1
  N  N3  1  0.72067600  0.25000000  0.41467800  1
  N  N4  1  0.75570100  0.75000000  0.42907400  1
  N  N5  1  0.74429900  0.75000000  0.92907400  1
  N  N6  1  0.24429900  0.25000000  0.57092600  1
  N  N7  1  0.25570100  0.25000000  0.07092600  1
  N  N8  1  0.74964500  0.51416100  0.16718200  1
  N  N9  1  0.75035500  0.98583900  0.66718200  1
  N  N10  1  0.25035500  0.01416100  0.83281800  1
  N  N11  1  0.24964500  0.48583900  0.33281800  1
  N  N12  1  0.25035500  0.48583900  0.83281800  1
  N  N13  1  0.24964500  0.01416100  0.33281800  1
  N  N14  1  0.74964500  0.98583900  0.16718200  1
  N  N15  1  0.75035500  0.51416100  0.66718200  1
loop_
_geom_bond_atom_site_label_1
_geom_bond_atom_site_label_2
_geom_bond_distance
_geom_bond_site_symmetry_2
Cr0 N0 2.004546 1_555
Cr0 N2 2.004546 1_454
Cr0 N7 2.044984 1_555
Cr0 N5 2.044984 1_454
Cr0 N8 2.055373 1_455
Cr0 N12 2.055373 1_554
Cr1 N3 2.004546 1_555
Cr1 N1 2.004546 1_545
Cr1 N4 2.044984 1_545
Cr1 N6 2.044984 1_555
Cr1 N13 2.055373 1_555
Cr1 N9 2.055373 1_545
Cr2 N0 2.004546 1_545
Cr2 N2 2.004546 1_454
Cr2 N5 2.044984 1_444
Cr2 N7 2.044984 1_555
Cr2 N14 2.055373 1_445
Cr2 N10 2.055373 1_554
Cr3 N3 2.004546 1_555
Cr3 N1 2.004546 1_555
Cr3 N4 2.044984 1_555
Cr3 N6 2.044984 1_555
Cr3 N11 2.055373 1_555
Cr3 N15 2.055373 1_555
Cr4 N0 2.026787 1_555
Cr4 N11 2.060893 1_555
Cr4 N13 2.060893 1_565
Cr4 N4 2.066359 1_455
Cr4 N8 2.095709 1_455
Cr4 N14 2.095709 1_455
Cr5 N1 2.026787 1_555
Cr5 N12 2.060893 1_555
Cr5 N10 2.060893 1_565
Cr5 N5 2.066359 1_555
Cr5 N15 2.095709 1_555
Cr5 N9 2.095709 1_555
Cr6 N2 2.026787 1_555
Cr6 N15 2.060893 1_555
Cr6 N9 2.060893 1_545
Cr6 N6 2.066359 1_655
Cr6 N12 2.095709 1_655
Cr6 N10 2.095709 1_655
Cr7 N3 2.026787 1_555
Cr7 N14 2.060893 1_545
Cr7 N8 2.060893 1_555
Cr7 N7 2.066359 1_555
Cr7 N13 2.095709 1_555
Cr7 N11 2.095709 1_555
Cr8 N0 1.756723 1_555
Cr8 N14 1.768053 1_555
Cr8 N8 1.768053 1_555
Cr8 N5 1.784802 1_554
Cr9 N1 1.756723 1_655
Cr9 N15 1.768053 1_555
Cr9 N9 1.768053 1_555
Cr9 N4 1.784802 1_555
Cr10 N2 1.756723 1_555
Cr10 N10 1.768053 1_555
Cr10 N12 1.768053 1_555
Cr10 N7 1.784802 1_556
Cr11 N3 1.756723 1_455
Cr11 N13 1.768053 1_555
Cr11 N11 1.768053 1_555
Cr11 N6 1.784802 1_555
