# generated using pymatgen
data_RbTl3O5
_symmetry_space_group_name_H-M   'P 1'
_cell_length_a   3.48268833
_cell_length_b   9.98583503
_cell_length_c   17.45584615
_cell_angle_alpha   90.00000000
_cell_angle_beta   90.00000000
_cell_angle_gamma   90.00000000
_symmetry_Int_Tables_number   1
_chemical_formula_structural   RbTl3O5
_chemical_formula_sum   'Rb4 Tl12 O20'
_cell_volume   607.07158190
_cell_formula_units_Z   4
loop_
 _symmetry_equiv_pos_site_id
 _symmetry_equiv_pos_as_xyz
  1  'x, y, z'
loop_
 _atom_site_type_symbol
 _atom_site_label
 _atom_site_symmetry_multiplicity
 _atom_site_fract_x
 _atom_site_fract_y
 _atom_site_fract_z
 _atom_site_occupancy
  Rb  Rb0  1  0.75000000  0.47752901  0.36961152  1
  Rb  Rb1  1  0.25000000  0.52247099  0.63038848  1
  Rb  Rb2  1  0.25000000  0.02247099  0.86961152  1
  Rb  Rb3  1  0.75000000  -0.02247099  0.13038848  1
  Tl  Tl0  1  0.75000000  0.82525067  0.31680836  1
  Tl  Tl1  1  0.25000000  0.17474933  0.68319164  1
  Tl  Tl2  1  0.25000000  0.67474933  0.81680836  1
  Tl  Tl3  1  0.75000000  0.32525067  0.18319164  1
  Tl  Tl4  1  0.75000000  0.65444089  0.98575120  1
  Tl  Tl5  1  0.25000000  0.34555911  0.01424880  1
  Tl  Tl6  1  0.25000000  0.84555911  0.48575120  1
  Tl  Tl7  1  0.75000000  0.15444089  0.51424880  1
  Tl  Tl8  1  0.75000000  0.87543095  0.65659195  1
  Tl  Tl9  1  0.25000000  0.12456905  0.34340805  1
  Tl  Tl10  1  0.25000000  0.62456905  0.15659195  1
  Tl  Tl11  1  0.75000000  0.37543095  0.84340805  1
  O  O0  1  0.75000000  0.97992977  0.42556457  1
  O  O1  1  0.25000000  0.02007023  0.57443543  1
  O  O2  1  0.25000000  0.52007023  0.92556457  1
  O  O3  1  0.75000000  0.47992977  0.07443543  1
  O  O4  1  0.75000000  0.75495989  0.55085018  1
  O  O5  1  0.25000000  0.24504011  0.44914982  1
  O  O6  1  0.25000000  0.74504011  0.05085018  1
  O  O7  1  0.75000000  0.25495989  0.94914982  1
  O  O8  1  0.75000000  0.72437899  0.20575798  1
  O  O9  1  0.25000000  0.27562101  0.79424202  1
  O  O10  1  0.25000000  0.77562101  0.70575798  1
  O  O11  1  0.75000000  0.22437899  0.29424202  1
  O  O12  1  0.75000000  0.77794680  0.88079661  1
  O  O13  1  0.25000000  0.22205320  0.11920339  1
  O  O14  1  0.25000000  0.72205320  0.38079661  1
  O  O15  1  0.75000000  0.27794680  0.61920339  1
  O  O16  1  0.75000000  0.54961609  0.77148982  1
  O  O17  1  0.25000000  0.45038391  0.22851018  1
  O  O18  1  0.25000000  0.95038391  0.27148982  1
  O  O19  1  0.75000000  0.04961609  0.72851018  1
loop_
_geom_bond_atom_site_label_1
_geom_bond_atom_site_label_2
_geom_bond_distance
_geom_bond_site_symmetry_2
O0 Tl7 2.330939 1_565
O0 Tl6 2.436492 1_555
O0 Tl6 2.436492 1_655
O0 Tl0 2.447413 1_555
O0 Tl9 2.678635 1_665
O0 Tl9 2.678635 1_565
O1 Tl6 2.330939 1_545
O1 Tl7 2.436492 1_555
O1 Tl7 2.436492 1_455
O1 Tl1 2.447413 1_555
O1 Tl8 2.678635 1_445
O1 Tl8 2.678635 1_545
O2 Tl5 2.330939 1_556
O2 Tl4 2.436492 1_455
O2 Tl4 2.436492 1_555
O2 Tl2 2.447413 1_555
O2 Tl11 2.678635 1_555
O2 Tl11 2.678635 1_455
O3 Tl4 2.330939 1_554
O3 Tl5 2.436492 1_655
O3 Tl5 2.436492 1_555
O3 Tl3 2.447413 1_555
O3 Tl10 2.678635 1_555
O3 Tl10 2.678635 1_655
O4 Tl8 2.203234 1_555
O4 Tl6 2.267617 1_555
O4 Tl6 2.267617 1_655
O4 Rb1 3.217105 1_655
O4 Rb1 3.217105 1_555
O5 Tl9 2.203234 1_555
O5 Tl7 2.267617 1_555
O5 Tl7 2.267617 1_455
O5 Rb0 3.217105 1_455
O5 Rb0 3.217105 1_555
O6 Tl10 2.203234 1_555
O6 Tl4 2.267617 1_454
O6 Tl4 2.267617 1_554
O6 Rb3 3.217105 1_465
O6 Rb3 3.217105 1_565
O7 Tl11 2.203234 1_555
O7 Tl5 2.267617 1_656
O7 Tl5 2.267617 1_556
O7 Rb2 3.217105 1_555
O7 Rb2 3.217105 1_655
O8 Tl10 2.182253 1_655
O8 Tl10 2.182253 1_555
O8 Tl0 2.184566 1_555
O8 Rb3 2.849782 1_565
O9 Tl11 2.182253 1_555
O9 Tl11 2.182253 1_455
O9 Tl1 2.184566 1_555
O9 Rb2 2.849782 1_555
O10 Tl8 2.182253 1_455
O10 Tl8 2.182253 1_555
O10 Tl2 2.184566 1_555
O10 Rb1 2.849782 1_555
O11 Tl9 2.182253 1_555
O11 Tl9 2.182253 1_655
O11 Tl3 2.184566 1_555
O11 Rb0 2.849782 1_555
O12 Tl4 2.208515 1_555
O12 Tl2 2.311246 1_555
O12 Tl2 2.311246 1_655
O12 Rb2 3.005442 1_565
O12 Rb2 3.005442 1_665
O13 Tl5 2.208515 1_555
O13 Tl3 2.311246 1_455
O13 Tl3 2.311246 1_555
O13 Rb3 3.005442 1_555
O13 Rb3 3.005442 1_455
O14 Tl6 2.208515 1_555
O14 Tl0 2.311246 1_455
O14 Tl0 2.311246 1_555
O14 Rb0 3.005442 1_455
O14 Rb0 3.005442 1_555
O15 Tl7 2.208515 1_555
O15 Tl1 2.311246 1_555
O15 Tl1 2.311246 1_655
O15 Rb1 3.005442 1_555
O15 Rb1 3.005442 1_655
O16 Tl11 2.145104 1_555
O16 Tl2 2.284617 1_655
O16 Tl2 2.284617 1_555
O16 Rb1 3.028587 1_655
O16 Rb1 3.028587 1_555
O17 Tl10 2.145104 1_555
O17 Tl3 2.284617 1_555
O17 Tl3 2.284617 1_455
O17 Rb0 3.028587 1_455
O17 Rb0 3.028587 1_555
O18 Tl9 2.145104 1_565
O18 Tl0 2.284617 1_555
O18 Tl0 2.284617 1_455
O18 Rb3 3.028587 1_465
O18 Rb3 3.028587 1_565
O19 Tl8 2.145104 1_545
O19 Tl1 2.284617 1_555
O19 Tl1 2.284617 1_655
O19 Rb2 3.028587 1_655
O19 Rb2 3.028587 1_555
