# generated using pymatgen
data_LiMn2O4
_symmetry_space_group_name_H-M   'P 1'
_cell_length_a   6.02769573
_cell_length_b   5.79379855
_cell_length_c   6.01463521
_cell_angle_alpha   61.36123101
_cell_angle_beta   57.95262250
_cell_angle_gamma   61.08547649
_symmetry_Int_Tables_number   1
_chemical_formula_structural   LiMn2O4
_chemical_formula_sum   'Li2 Mn4 O8'
_cell_volume   148.65876348
_cell_formula_units_Z   2
loop_
 _symmetry_equiv_pos_site_id
 _symmetry_equiv_pos_as_xyz
  1  'x, y, z'
loop_
 _atom_site_type_symbol
 _atom_site_label
 _atom_site_symmetry_multiplicity
 _atom_site_fract_x
 _atom_site_fract_y
 _atom_site_fract_z
 _atom_site_occupancy
  Li  Li0  1  0.13761300  0.11311200  0.13668900  1
  Li  Li1  1  0.86236600  0.88692600  0.86321900  1
  Mn  Mn0  1  0.50011900  0.49995000  0.99993100  1
  Mn  Mn1  1  0.49999500  0.99994000  0.50006900  1
  Mn  Mn2  1  0.99995200  0.49998500  0.50006700  1
  Mn  Mn3  1  0.50001800  0.49995500  0.50011400  1
  O  O0  1  0.28090500  0.24997600  0.72210400  1
  O  O1  1  0.27603900  0.69906400  0.27742000  1
  O  O2  1  0.72247300  0.24667300  0.28124300  1
  O  O3  1  0.27765800  0.24758700  0.27587300  1
  O  O4  1  0.71913300  0.75004400  0.27778700  1
  O  O5  1  0.72392000  0.30104000  0.72261800  1
  O  O6  1  0.27750600  0.75333900  0.71873400  1
  O  O7  1  0.72230300  0.75240800  0.72413100  1
loop_
_geom_bond_atom_site_label_1
_geom_bond_atom_site_label_2
_geom_bond_distance
_geom_bond_site_symmetry_2
Li0 O3 2.007879 1_555
Li0 O1 2.008719 1_545
Li0 O0 2.018412 1_554
Li0 O2 2.019898 1_455
Li1 O7 2.007689 1_555
Li1 O5 2.008975 1_565
Li1 O4 2.018342 1_556
Li1 O6 2.019915 1_655
Mn0 O5 1.970105 1_555
Mn0 O1 1.971613 1_556
Mn0 O7 1.973727 1_555
Mn0 O3 1.974454 1_556
Mn0 O2 2.221994 1_556
Mn0 O6 2.222542 1_555
Mn1 O6 1.936348 1_555
Mn1 O2 1.936833 1_565
Mn1 O0 1.938795 1_565
Mn1 O4 1.939194 1_555
Mn1 O7 1.968244 1_555
Mn1 O3 1.968974 1_565
Mn2 O7 1.971000 1_555
Mn2 O3 1.971409 1_655
Mn2 O5 1.975027 1_555
Mn2 O1 1.975769 1_655
Mn2 O0 2.218852 1_655
Mn2 O4 2.219246 1_555
Mn3 O0 1.936337 1_555
Mn3 O4 1.936760 1_555
Mn3 O6 1.938517 1_555
Mn3 O2 1.939105 1_555
Mn3 O5 1.968477 1_555
Mn3 O1 1.969622 1_555
