# generated using pymatgen
data_Na2FePCO7
_symmetry_space_group_name_H-M   'P 1'
_cell_length_a   8.40473800
_cell_length_b   8.40572043
_cell_length_c   8.94887075
_cell_angle_alpha   89.71194513
_cell_angle_beta   88.64219495
_cell_angle_gamma   77.87389895
_symmetry_Int_Tables_number   1
_chemical_formula_structural   Na2FePCO7
_chemical_formula_sum   'Na8 Fe4 P4 C4 O28'
_cell_volume   617.93887909
_cell_formula_units_Z   4
loop_
 _symmetry_equiv_pos_site_id
 _symmetry_equiv_pos_as_xyz
  1  'x, y, z'
loop_
 _atom_site_type_symbol
 _atom_site_label
 _atom_site_symmetry_multiplicity
 _atom_site_fract_x
 _atom_site_fract_y
 _atom_site_fract_z
 _atom_site_occupancy
  Na  Na0  1  0.76737600  0.49501800  0.91708100  1
  Na  Na1  1  0.22159300  0.03755900  0.90811600  1
  Na  Na2  1  0.62098700  0.87870900  0.74138600  1
  Na  Na3  1  0.36948500  0.62592100  0.74238500  1
  Na  Na4  1  0.61903800  0.36860500  0.26587300  1
  Na  Na5  1  0.12091600  0.86833000  0.26327500  1
  Na  Na6  1  0.23505200  0.47446400  0.08084900  1
  Na  Na7  1  0.75444700  0.99181100  0.08221300  1
  Fe  Fe0  1  0.98456600  0.76470700  0.65384900  1
  Fe  Fe1  1  0.48481400  0.26517800  0.65416700  1
  Fe  Fe2  1  0.02259100  0.23924000  0.35146300  1
  Fe  Fe3  1  0.52207900  0.74114300  0.33992400  1
  P  P0  1  0.76296400  0.48593600  0.57298100  1
  P  P1  1  0.27106000  0.97770200  0.57637600  1
  P  P2  1  0.73557800  0.01831600  0.42483300  1
  P  P3  1  0.23635600  0.51904900  0.42448400  1
  C  C0  1  0.51482500  0.24348700  0.93469900  1
  C  C1  1  0.00916800  0.73932800  0.93441100  1
  C  C2  1  0.98827700  0.25497600  0.07223600  1
  C  C3  1  0.48499800  0.75947100  0.05988600  1
  O  O0  1  0.97777000  0.26493400  0.93197800  1
  O  O1  1  0.46728900  0.77636100  0.91869500  1
  O  O2  1  0.40297500  0.35649400  0.87329400  1
  O  O3  1  0.88753100  0.84070200  0.87295800  1
  O  O4  1  0.60079500  0.13884700  0.84024100  1
  O  O5  1  0.10470100  0.64214300  0.84000600  1
  O  O6  1  0.82453400  0.61293800  0.66983200  1
  O  O7  1  0.34354200  0.09677300  0.67274100  1
  O  O8  1  0.63683900  0.42571100  0.67778700  1
  O  O9  1  0.15337900  0.90671000  0.68143500  1
  O  O10  1  0.31924800  0.43969500  0.56652700  1
  O  O11  1  0.81034700  0.93159700  0.56702700  1
  O  O12  1  0.90232400  0.34449900  0.52415000  1
  O  O13  1  0.41468000  0.83290400  0.53065300  1
  O  O14  1  0.60041500  0.16755800  0.47224900  1
  O  O15  1  0.09947600  0.66680400  0.47233000  1
  O  O16  1  0.18666700  0.05588300  0.43570600  1
  O  O17  1  0.67867300  0.56423300  0.43026400  1
  O  O18  1  0.86469400  0.07694100  0.32443900  1
  O  O19  1  0.16843200  0.39705500  0.32924400  1
  O  O20  1  0.35885900  0.58341000  0.31880900  1
  O  O21  1  0.66302900  0.90291000  0.32397800  1
  O  O22  1  0.89122900  0.35327800  0.16558600  1
  O  O23  1  0.39102900  0.85457600  0.15572400  1
  O  O24  1  0.60031400  0.64861300  0.11801100  1
  O  O25  1  0.10235800  0.14630000  0.13765900  1
  O  O26  1  0.53770200  0.23556800  0.07424800  1
  O  O27  1  0.03253200  0.73515000  0.07394100  1
loop_
_geom_bond_atom_site_label_1
_geom_bond_atom_site_label_2
_geom_bond_distance
_geom_bond_site_symmetry_2
Na0 O0 2.335998 1_555
Na0 O24 2.452272 1_556
Na0 O6 2.497296 1_555
Na0 O8 2.553653 1_555
Na0 O22 2.647745 1_556
Na1 O25 2.365540 1_556
Na1 O7 2.415866 1_555
Na1 O9 2.448649 1_545
Na1 O0 2.497167 1_455
Na1 O1 2.682551 1_545
Na1 O23 2.915234 1_546
Na2 O1 2.298382 1_555
Na2 O11 2.310358 1_555
Na2 O4 2.334362 1_565
Na2 O3 2.515465 1_555
Na2 O6 2.585395 1_555
Na2 O13 2.674683 1_555
Na2 O7 2.726823 1_565
Na3 O1 2.298355 1_555
Na3 O10 2.332211 1_555
Na3 O5 2.348600 1_555
Na3 O2 2.510326 1_555
Na3 O8 2.564182 1_555
Na3 O13 2.640428 1_555
Na3 O9 2.720321 1_555
Na4 O26 2.248220 1_555
Na4 O17 2.350524 1_555
Na4 O22 2.415700 1_555
Na4 O14 2.521359 1_555
Na4 O20 2.562631 1_555
Na4 O24 2.671763 1_555
Na4 O18 2.908585 1_555
Na5 O27 2.259176 1_555
Na5 O16 2.367010 1_565
Na5 O23 2.425064 1_555
Na5 O18 2.525713 1_465
Na5 O15 2.546042 1_555
Na5 O25 2.564405 1_565
Na5 O20 2.829329 1_555
Na6 O2 2.394034 1_554
Na6 O19 2.399483 1_555
Na6 O27 2.477758 1_555
Na6 O20 2.642165 1_555
Na6 O5 2.695304 1_554
Na6 O26 2.890394 1_555
Na7 O3 2.387227 1_554
Na7 O26 2.440976 1_565
Na7 O21 2.444544 1_555
Na7 O18 2.541395 1_565
Na7 O4 2.705399 1_564
Na7 O27 2.827994 1_655
Fe0 O15 1.963112 1_655
Fe0 O11 1.973737 1_555
Fe0 O6 2.041318 1_555
Fe0 O9 2.056664 1_655
Fe0 O5 2.116961 1_655
Fe0 O3 2.153084 1_555
Fe1 O14 1.967512 1_555
Fe1 O10 1.971277 1_555
Fe1 O7 2.033638 1_555
Fe1 O8 2.058684 1_555
Fe1 O4 2.115382 1_555
Fe1 O2 2.153363 1_555
Fe2 O12 1.938213 1_455
Fe2 O19 1.992656 1_555
Fe2 O16 1.997525 1_555
Fe2 O25 2.110619 1_555
Fe2 O18 2.111856 1_455
Fe2 O22 2.128626 1_455
Fe3 O17 1.952740 1_555
Fe3 O21 1.984823 1_555
Fe3 O13 1.992646 1_555
Fe3 O20 2.110557 1_555
Fe3 O23 2.113880 1_555
Fe3 O24 2.172504 1_555
C0 O26 1.267313 1_556
C0 O4 1.312166 1_555
C0 O2 1.316084 1_555
C1 O27 1.267741 1_556
C1 O5 1.313384 1_555
C1 O3 1.315155 1_455
C2 O0 1.261467 1_554
C2 O22 1.318113 1_555
C2 O25 1.322811 1_655
C3 O1 1.279442 1_554
C3 O23 1.306877 1_555
C3 O24 1.310657 1_555
O6 P0 1.556042 1_555
O7 P1 1.551216 1_545
O8 P0 1.559867 1_555
O9 P1 1.554519 1_555
O10 P3 1.544105 1_555
O11 P2 1.543232 1_565
O12 P0 1.540204 1_555
O13 P1 1.571702 1_555
O14 P2 1.558230 1_555
O15 P3 1.559193 1_555
O16 P1 1.535517 1_545
O17 P0 1.550713 1_555
O18 P2 1.549718 1_555
O19 P3 1.543257 1_555
O20 P3 1.558780 1_555
O21 P2 1.552677 1_565
