# generated using pymatgen
data_Ta2In(ReSe4)2
_symmetry_space_group_name_H-M   'P 1'
_cell_length_a   3.47059417
_cell_length_b   3.47075600
_cell_length_c   31.78804301
_cell_angle_alpha   90.00000000
_cell_angle_beta   90.00077057
_cell_angle_gamma   59.99845752
_symmetry_Int_Tables_number   1
_chemical_formula_structural   Ta2In(ReSe4)2
_chemical_formula_sum   'Ta2 In1 Re2 Se8'
_cell_volume   331.60081488
_cell_formula_units_Z   1
loop_
 _symmetry_equiv_pos_site_id
 _symmetry_equiv_pos_as_xyz
  1  'x, y, z'
loop_
 _atom_site_type_symbol
 _atom_site_label
 _atom_site_symmetry_multiplicity
 _atom_site_fract_x
 _atom_site_fract_y
 _atom_site_fract_z
 _atom_site_occupancy
  Ta  Ta0  1  0.00001600  0.99999200  0.38534300  1
  Ta  Ta1  1  0.00009000  0.99995500  0.87489700  1
  In  In0  1  0.99989000  0.00005500  0.25520800  1
  Re  Re0  1  0.99986200  0.00006900  0.11324400  1
  Re  Re1  1  0.00007600  0.99996200  0.62495900  1
  Se  Se0  1  0.33330400  0.33334800  0.33201600  1
  Se  Se1  1  0.33341300  0.33329400  0.82208400  1
  Se  Se2  1  0.66648200  0.66675900  0.16222500  1
  Se  Se3  1  0.66677200  0.66661400  0.67385300  1
  Se  Se4  1  0.66658300  0.66670900  0.06447100  1
  Se  Se5  1  0.66672600  0.66663700  0.57607400  1
  Se  Se6  1  0.33336600  0.33331700  0.43789300  1
  Se  Se7  1  0.33341900  0.33329100  0.92773300  1
loop_
_geom_bond_atom_site_label_1
_geom_bond_atom_site_label_2
_geom_bond_distance
_geom_bond_site_symmetry_2
In0 Se0 3.158379 1_555
In0 Se0 3.158633 1_645
In0 Se0 3.158633 1_655
Re0 Se4 2.533498 1_545
Re0 Se4 2.533500 1_555
Re0 Se4 2.533647 1_645
Re0 Se2 2.537421 1_645
Re0 Se2 2.537689 1_555
Re0 Se2 2.537689 1_545
Re1 Se5 2.535659 1_555
Re1 Se5 2.535764 1_455
Re1 Se5 2.535764 1_465
Re1 Se3 2.535903 1_455
Re1 Se3 2.535903 1_465
Re1 Se3 2.535905 1_555
Se0 Ta0 2.624616 1_545
Se0 Ta0 2.624616 1_555
Se0 Ta0 2.624670 1_645
Se1 Ta1 2.614067 1_645
Se1 Ta1 2.614132 1_555
Se1 Ta1 2.614134 1_545
Se6 Ta0 2.608683 1_645
Se6 Ta0 2.608783 1_545
Se6 Ta0 2.608783 1_555
Se7 Ta1 2.614563 1_645
Se7 Ta1 2.614588 1_555
Se7 Ta1 2.614591 1_545
