# generated using pymatgen
data_Li2Pr5Sn7
_symmetry_space_group_name_H-M   'P 1'
_cell_length_a   6.29966694
_cell_length_b   13.96365041
_cell_length_c   17.60430685
_cell_angle_alpha   90.00000000
_cell_angle_beta   90.00000000
_cell_angle_gamma   90.00000000
_symmetry_Int_Tables_number   1
_chemical_formula_structural   Li2Pr5Sn7
_chemical_formula_sum   'Li8 Pr20 Sn28'
_cell_volume   1548.58656241
_cell_formula_units_Z   4
loop_
 _symmetry_equiv_pos_site_id
 _symmetry_equiv_pos_as_xyz
  1  'x, y, z'
loop_
 _atom_site_type_symbol
 _atom_site_label
 _atom_site_symmetry_multiplicity
 _atom_site_fract_x
 _atom_site_fract_y
 _atom_site_fract_z
 _atom_site_occupancy
  Li  Li0  1  0.41661727  0.23163004  0.01990811  1
  Li  Li1  1  0.08338273  0.76836996  0.51990811  1
  Li  Li2  1  0.58338273  0.73163004  0.48009189  1
  Li  Li3  1  0.91661727  0.26836996  0.98009189  1
  Li  Li4  1  0.12216253  0.76832651  0.22957669  1
  Li  Li5  1  0.37783747  0.23167349  0.72957669  1
  Li  Li6  1  0.87783747  0.26832651  0.27042331  1
  Li  Li7  1  0.62216253  0.73167349  0.77042331  1
  Pr  Pr0  1  0.36079490  0.18104968  0.54205550  1
  Pr  Pr1  1  0.13920510  0.81895032  0.04205550  1
  Pr  Pr2  1  0.63920510  0.68104968  0.95794450  1
  Pr  Pr3  1  0.86079490  0.31895032  0.45794450  1
  Pr  Pr4  1  0.63605419  0.00226123  0.01709295  1
  Pr  Pr5  1  0.86394581  0.99773877  0.51709295  1
  Pr  Pr6  1  0.36394581  0.50226123  0.48290705  1
  Pr  Pr7  1  0.13605419  0.49773877  0.98290705  1
  Pr  Pr8  1  0.14165805  0.49649682  0.26303545  1
  Pr  Pr9  1  0.35834195  0.50350318  0.76303545  1
  Pr  Pr10  1  0.85834195  0.99649682  0.23696455  1
  Pr  Pr11  1  0.64165805  0.00350318  0.73696455  1
  Pr  Pr12  1  0.64792214  0.42513025  0.12264663  1
  Pr  Pr13  1  0.85207786  0.57486975  0.62264663  1
  Pr  Pr14  1  0.35207786  0.92513025  0.37735337  1
  Pr  Pr15  1  0.14792214  0.07486975  0.87735337  1
  Pr  Pr16  1  0.36292949  0.17676149  0.21608965  1
  Pr  Pr17  1  0.13707051  0.82323851  0.71608965  1
  Pr  Pr18  1  0.63707051  0.67676149  0.28391035  1
  Pr  Pr19  1  0.86292949  0.32323851  0.78391035  1
  Sn  Sn0  1  0.13668393  0.06188343  0.06638118  1
  Sn  Sn1  1  0.36331607  0.93811657  0.56638118  1
  Sn  Sn2  1  0.86331607  0.56188343  0.43361882  1
  Sn  Sn3  1  0.63668393  0.43811657  0.93361882  1
  Sn  Sn4  1  0.09722873  0.12165224  0.37880921  1
  Sn  Sn5  1  0.40277127  0.87834776  0.87880921  1
  Sn  Sn6  1  0.90277127  0.62165224  0.12119079  1
  Sn  Sn7  1  0.59722873  0.37834776  0.62119079  1
  Sn  Sn8  1  0.15010252  0.05621708  0.68804892  1
  Sn  Sn9  1  0.34989748  0.94378292  0.18804892  1
  Sn  Sn10  1  0.84989748  0.55621708  0.81195108  1
  Sn  Sn11  1  0.65010252  0.44378292  0.31195108  1
  Sn  Sn12  1  0.19580480  0.68973834  0.37264444  1
  Sn  Sn13  1  0.30419520  0.31026166  0.87264444  1
  Sn  Sn14  1  0.80419520  0.18973834  0.12735556  1
  Sn  Sn15  1  0.69580480  0.81026166  0.62735556  1
  Sn  Sn16  1  0.13313697  0.34722100  0.12112092  1
  Sn  Sn17  1  0.36686303  0.65277900  0.62112092  1
  Sn  Sn18  1  0.86686303  0.84722100  0.37887908  1
  Sn  Sn19  1  0.63313697  0.15277900  0.87887908  1
  Sn  Sn20  1  0.32959524  0.31159875  0.37718751  1
  Sn  Sn21  1  0.17040476  0.68840125  0.87718751  1
  Sn  Sn22  1  0.67040476  0.81159875  0.12281249  1
  Sn  Sn23  1  0.82959524  0.18840125  0.62281249  1
  Sn  Sn24  1  0.61336537  0.12714932  0.37903974  1
  Sn  Sn25  1  0.88663463  0.87285068  0.87903974  1
  Sn  Sn26  1  0.38663463  0.62714932  0.12096026  1
  Sn  Sn27  1  0.11336537  0.37285068  0.62096026  1
loop_
_geom_bond_atom_site_label_1
_geom_bond_atom_site_label_2
_geom_bond_distance
_geom_bond_site_symmetry_2
Li0 Sn13 2.903114 1_554
Li0 Sn16 2.994857 1_555
Li0 Sn19 3.039194 1_554
Li0 Sn0 3.065527 1_555
Li0 Sn14 3.143495 1_555
Li0 Pr4 3.488771 1_555
Li0 Pr16 3.553734 1_555
Li0 Pr12 3.563016 1_555
Li0 Pr15 3.735594 1_554
Li1 Sn12 2.903114 1_555
Li1 Sn17 2.994857 1_555
Li1 Sn18 3.039194 1_455
Li1 Sn1 3.065527 1_555
Li1 Sn15 3.143495 1_455
Li1 Pr5 3.488771 1_455
Li1 Pr17 3.553734 1_555
Li1 Pr13 3.563016 1_455
Li1 Pr14 3.735594 1_555
Li2 Sn15 2.903114 1_555
Li2 Sn18 2.994857 1_555
Li2 Sn17 3.039194 1_555
Li2 Sn2 3.065527 1_555
Li2 Sn12 3.143495 1_555
Li2 Pr6 3.488771 1_555
Li2 Pr18 3.553734 1_555
Li2 Pr14 3.563016 1_555
Li2 Pr13 3.735594 1_555
Li3 Sn14 2.903114 1_556
Li3 Sn19 2.994857 1_555
Li3 Sn16 3.039194 1_656
Li3 Sn3 3.065527 1_555
Li3 Sn13 3.143495 1_655
Li3 Pr7 3.488771 1_655
Li3 Pr19 3.553734 1_555
Li3 Pr15 3.563016 1_655
Li3 Pr12 3.735594 1_556
Li4 Sn12 2.786189 1_555
Li4 Sn9 2.931766 1_555
Li4 Sn6 3.121796 1_455
Li4 Sn26 3.212203 1_555
Li4 Sn18 3.272397 1_455
Li4 Pr1 3.377724 1_555
Li4 Pr18 3.447943 1_455
Li4 Sn22 3.463660 1_455
Li4 Pr10 3.595869 1_455
Li4 Pr18 3.615464 1_555
Li4 Pr14 3.695918 1_555
Li4 Pr8 3.843127 1_555
Li5 Sn13 2.786189 1_555
Li5 Sn8 2.931766 1_555
Li5 Sn7 3.121796 1_555
Li5 Sn27 3.212203 1_555
Li5 Sn19 3.272397 1_555
Li5 Pr0 3.377724 1_555
Li5 Pr19 3.447943 1_555
Li5 Sn23 3.463660 1_555
Li5 Pr11 3.595869 1_555
Li5 Pr19 3.615464 1_455
Li5 Pr15 3.695918 1_555
Li5 Pr9 3.843127 1_555
Li6 Sn14 2.786189 1_555
Li6 Sn11 2.931766 1_555
Li6 Sn4 3.121796 1_655
Li6 Sn24 3.212203 1_555
Li6 Sn16 3.272397 1_655
Li6 Pr3 3.377724 1_555
Li6 Pr16 3.447943 1_655
Li6 Sn20 3.463660 1_655
Li6 Pr8 3.595869 1_655
Li6 Pr16 3.615464 1_555
Li6 Pr12 3.695918 1_555
Li6 Pr10 3.843127 1_545
Li7 Sn15 2.786189 1_555
Li7 Sn10 2.931766 1_555
Li7 Sn5 3.121796 1_555
Li7 Sn25 3.212203 1_555
Li7 Sn17 3.272397 1_555
Li7 Pr2 3.377724 1_555
Li7 Pr17 3.447943 1_555
Li7 Sn21 3.463660 1_555
Li7 Pr9 3.595869 1_555
Li7 Pr17 3.615464 1_655
Li7 Pr13 3.695918 1_555
Li7 Pr11 3.843127 1_565
Pr0 Sn23 3.279266 1_555
Pr0 Sn24 3.366562 1_555
Pr0 Sn8 3.377225 1_555
Pr0 Sn27 3.395894 1_555
Pr0 Sn1 3.419193 1_545
Pr0 Sn4 3.421069 1_555
Pr0 Sn7 3.427725 1_555
Pr0 Sn20 3.433015 1_555
Pr0 Sn23 3.637300 1_455
Pr1 Sn22 3.279266 1_455
Pr1 Sn25 3.366562 1_454
Pr1 Sn9 3.377225 1_555
Pr1 Sn26 3.395894 1_555
Pr1 Sn0 3.419193 1_565
Pr1 Sn5 3.421069 1_554
Pr1 Sn6 3.427725 1_455
Pr1 Sn21 3.433015 1_554
Pr1 Sn22 3.637300 1_555
Pr2 Sn21 3.279266 1_555
Pr2 Sn26 3.366562 1_556
Pr2 Sn10 3.377225 1_555
Pr2 Sn25 3.395894 1_555
Pr2 Sn3 3.419193 1_555
Pr2 Sn6 3.421069 1_556
Pr2 Sn5 3.427725 1_555
Pr2 Sn22 3.433015 1_556
Pr2 Sn21 3.637300 1_655
Pr3 Sn20 3.279266 1_655
Pr3 Sn27 3.366562 1_655
Pr3 Sn11 3.377225 1_555
Pr3 Sn24 3.395894 1_555
Pr3 Sn2 3.419193 1_555
Pr3 Sn7 3.421069 1_555
Pr3 Sn4 3.427725 1_655
Pr3 Sn23 3.433015 1_555
Pr3 Sn20 3.637300 1_555
Pr4 Sn19 3.215287 1_554
Pr4 Sn22 3.255560 1_545
Pr4 Sn5 3.328644 1_544
Pr4 Sn0 3.367860 1_555
Pr4 Sn0 3.375273 1_655
Pr4 Sn25 3.415232 1_544
Pr4 Sn14 3.426813 1_555
Pr4 Sn9 3.601936 1_545
Pr5 Sn18 3.215287 1_555
Pr5 Sn23 3.255560 1_565
Pr5 Sn4 3.328644 1_665
Pr5 Sn1 3.367860 1_655
Pr5 Sn1 3.375273 1_555
Pr5 Sn24 3.415232 1_565
Pr5 Sn15 3.426813 1_555
Pr5 Sn8 3.601936 1_665
Pr6 Sn17 3.215287 1_555
Pr6 Sn20 3.255560 1_555
Pr6 Sn7 3.328644 1_555
Pr6 Sn2 3.367860 1_555
Pr6 Sn2 3.375273 1_455
Pr6 Sn27 3.415232 1_555
Pr6 Sn12 3.426813 1_555
Pr6 Sn11 3.601936 1_555
Pr7 Sn16 3.215287 1_556
Pr7 Sn21 3.255560 1_555
Pr7 Sn6 3.328644 1_456
Pr7 Sn3 3.367860 1_455
Pr7 Sn3 3.375273 1_555
Pr7 Sn26 3.415232 1_556
Pr7 Sn13 3.426813 1_555
Pr7 Sn10 3.601936 1_455
Pr8 Sn16 3.254119 1_555
Pr8 Sn11 3.297348 1_455
Pr8 Sn12 3.334787 1_555
Pr8 Sn11 3.397463 1_555
Pr8 Sn6 3.399167 1_455
Pr8 Sn26 3.459154 1_555
Pr8 Sn20 3.479374 1_555
Pr8 Sn2 3.595314 1_455
Pr9 Sn17 3.254119 1_555
Pr9 Sn10 3.297348 1_555
Pr9 Sn13 3.334787 1_555
Pr9 Sn10 3.397463 1_455
Pr9 Sn7 3.399167 1_555
Pr9 Sn27 3.459154 1_555
Pr9 Sn21 3.479374 1_555
Pr9 Sn3 3.595314 1_555
Pr10 Sn18 3.254119 1_555
Pr10 Sn9 3.297348 1_655
Pr10 Sn14 3.334787 1_565
Pr10 Sn9 3.397463 1_555
Pr10 Sn4 3.399167 1_665
Pr10 Sn24 3.459154 1_565
Pr10 Sn22 3.479374 1_555
Pr10 Sn0 3.595314 1_665
Pr11 Sn19 3.254119 1_555
Pr11 Sn8 3.297348 1_555
Pr11 Sn15 3.334787 1_545
Pr11 Sn8 3.397463 1_655
Pr11 Sn5 3.399167 1_545
Pr11 Sn25 3.459154 1_545
Pr11 Sn23 3.479374 1_555
Pr11 Sn1 3.595314 1_545
Pr12 Sn6 3.179404 1_555
Pr12 Sn16 3.244627 1_655
Pr12 Sn26 3.266173 1_555
Pr12 Sn3 3.333393 1_554
Pr12 Sn11 3.342765 1_555
Pr12 Sn16 3.420691 1_555
Pr12 Sn14 3.432195 1_555
Pr13 Sn7 3.179404 1_555
Pr13 Sn17 3.244627 1_555
Pr13 Sn27 3.266173 1_655
Pr13 Sn2 3.333393 1_555
Pr13 Sn10 3.342765 1_555
Pr13 Sn17 3.420691 1_655
Pr13 Sn15 3.432195 1_555
Pr14 Sn4 3.179404 1_565
Pr14 Sn18 3.244627 1_455
Pr14 Sn24 3.266173 1_565
Pr14 Sn1 3.333393 1_555
Pr14 Sn9 3.342765 1_555
Pr14 Sn18 3.420691 1_555
Pr14 Sn12 3.432195 1_555
Pr15 Sn5 3.179404 1_545
Pr15 Sn19 3.244627 1_555
Pr15 Sn25 3.266173 1_445
Pr15 Sn0 3.333393 1_556
Pr15 Sn8 3.342765 1_555
Pr15 Sn19 3.420691 1_455
Pr15 Sn13 3.432195 1_555
Pr16 Sn14 3.193812 1_555
Pr16 Sn16 3.249036 1_555
Pr16 Sn9 3.291494 1_545
Pr16 Sn24 3.346333 1_555
Pr16 Sn0 3.398606 1_555
Pr16 Sn4 3.405818 1_555
Pr16 Sn20 3.410586 1_555
Pr17 Sn15 3.193812 1_455
Pr17 Sn17 3.249036 1_555
Pr17 Sn8 3.291494 1_565
Pr17 Sn25 3.346333 1_455
Pr17 Sn1 3.398606 1_555
Pr17 Sn5 3.405818 1_555
Pr17 Sn21 3.410586 1_555
Pr18 Sn12 3.193812 1_555
Pr18 Sn18 3.249036 1_555
Pr18 Sn11 3.291494 1_555
Pr18 Sn26 3.346333 1_555
Pr18 Sn2 3.398606 1_555
Pr18 Sn6 3.405818 1_555
Pr18 Sn22 3.410586 1_555
Pr19 Sn13 3.193812 1_655
Pr19 Sn19 3.249036 1_555
Pr19 Sn10 3.291494 1_555
Pr19 Sn27 3.346333 1_655
Pr19 Sn3 3.398606 1_555
Pr19 Sn7 3.405818 1_555
Pr19 Sn23 3.410586 1_555
Sn0 Sn14 2.954116 1_455
Sn0 Sn9 3.018498 1_545
Sn1 Sn15 2.954116 1_555
Sn1 Sn8 3.018498 1_565
Sn10 Sn21 2.966904 1_655
Sn10 Sn3 3.018498 1_555
Sn11 Sn20 2.966904 1_555
Sn11 Sn2 3.018498 1_555
Sn12 Sn2 2.954116 1_455
Sn12 Sn18 3.023558 1_455
Sn13 Sn3 2.954116 1_555
Sn13 Sn19 3.023558 1_555
Sn14 Sn16 3.023558 1_655
Sn15 Sn17 3.023558 1_555
Sn20 Sn4 3.029614 1_555
Sn20 Sn24 3.135352 1_555
Sn21 Sn5 3.029614 1_555
Sn21 Sn25 3.135352 1_455
Sn22 Sn9 2.966904 1_555
Sn22 Sn6 3.029614 1_555
Sn22 Sn26 3.135352 1_555
Sn23 Sn8 2.966904 1_655
Sn23 Sn7 3.029614 1_555
Sn23 Sn27 3.135352 1_655
Sn24 Sn4 3.049147 1_655
Sn24 Sn4 3.252397 1_555
Sn25 Sn5 3.049147 1_555
Sn25 Sn5 3.252397 1_655
Sn26 Sn6 3.049147 1_455
Sn26 Sn6 3.252397 1_555
Sn27 Sn7 3.049147 1_555
Sn27 Sn7 3.252397 1_455
