# generated using pymatgen
data_KBa2Bi2O7
_symmetry_space_group_name_H-M   'P 1'
_cell_length_a   11.57884223
_cell_length_b   11.57884223
_cell_length_c   11.57884223
_cell_angle_alpha   158.23587119
_cell_angle_beta   158.23587119
_cell_angle_gamma   30.97006256
_symmetry_Int_Tables_number   1
_chemical_formula_structural   KBa2Bi2O7
_chemical_formula_sum   'K1 Ba2 Bi2 O7'
_cell_volume   213.27814232
_cell_formula_units_Z   1
loop_
 _symmetry_equiv_pos_site_id
 _symmetry_equiv_pos_as_xyz
  1  'x, y, z'
loop_
 _atom_site_type_symbol
 _atom_site_label
 _atom_site_symmetry_multiplicity
 _atom_site_fract_x
 _atom_site_fract_y
 _atom_site_fract_z
 _atom_site_occupancy
  K  K0  1  0.68613900  0.68613900  0.00000000  1
  Ba  Ba0  1  0.50503100  0.50503100  0.00000000  1
  Ba  Ba1  1  0.31113900  0.31113900  0.00000000  1
  Bi  Bi0  1  0.90279400  0.90279400  0.00000000  1
  Bi  Bi1  1  0.10332900  0.10332900  0.00000000  1
  O  O0  1  0.80785200  0.80785200  0.00000000  1
  O  O1  1  0.19713100  0.19713100  0.00000000  1
  O  O2  1  0.90354900  0.40354900  0.50000000  1
  O  O3  1  0.40354900  0.90354900  0.50000000  1
  O  O4  1  0.08980300  0.58980300  0.50000000  1
  O  O5  1  0.58980300  0.08980300  0.50000000  1
  O  O6  1  0.99988100  0.99988100  0.00000000  1
loop_
_geom_bond_atom_site_label_1
_geom_bond_atom_site_label_2
_geom_bond_distance
_geom_bond_site_symmetry_2
K0 O0 2.716277 1_555
K0 O4 3.066039 1_655
K0 O5 3.066039 1_565
K0 O5 3.066039 1_554
K0 O4 3.066039 1_554
K0 O1 3.101114 1_655
K0 O1 3.101114 1_565
K0 O1 3.101114 1_666
K0 O1 3.101114 1_554
Ba0 O4 2.890935 1_554
Ba0 O5 2.890935 1_554
Ba0 O5 2.890935 1_565
Ba0 O4 2.890935 1_655
Ba0 O6 3.093532 1_545
Ba0 O6 3.093532 1_455
Ba0 O6 3.093532 1_556
Ba0 O6 3.093532 1_444
Ba0 O3 3.147633 1_544
Ba0 O2 3.147633 1_555
Ba0 O2 3.147633 1_454
Ba0 O3 3.147633 1_555
Ba1 O1 2.544324 1_555
Ba1 O3 3.005250 1_544
Ba1 O2 3.005250 1_454
Ba1 O3 3.005250 1_555
Ba1 O2 3.005250 1_555
Ba1 O0 3.092266 1_455
Ba1 O0 3.092266 1_556
Ba1 O0 3.092266 1_545
Ba1 O0 3.092266 1_444
Bi0 O0 2.118827 1_555
Bi0 O6 2.166697 1_555
Bi0 O3 2.186012 1_655
Bi0 O2 2.186012 1_565
Bi0 O2 2.186012 1_554
Bi0 O3 2.186012 1_554
Bi1 O1 2.093385 1_555
Bi1 O5 2.206691 1_555
Bi1 O4 2.206691 1_555
Bi1 O4 2.206691 1_544
Bi1 O5 2.206691 1_454
Bi1 O6 2.308656 1_445
