# generated using pymatgen
data_MgSb2
_symmetry_space_group_name_H-M   'P 1'
_cell_length_a   12.83744842
_cell_length_b   12.83744842
_cell_length_c   16.40506701
_cell_angle_alpha   72.67143402
_cell_angle_beta   72.67143402
_cell_angle_gamma   28.84018675
_symmetry_Int_Tables_number   1
_chemical_formula_structural   MgSb2
_chemical_formula_sum   'Mg16 Sb32'
_cell_volume   1240.90629094
_cell_formula_units_Z   16
loop_
 _symmetry_equiv_pos_site_id
 _symmetry_equiv_pos_as_xyz
  1  'x, y, z'
loop_
 _atom_site_type_symbol
 _atom_site_label
 _atom_site_symmetry_multiplicity
 _atom_site_fract_x
 _atom_site_fract_y
 _atom_site_fract_z
 _atom_site_occupancy
  Mg  Mg0_0  1  0.26717200  0.26717200  0.34877000  1
  Mg  Mg0_1  1  0.26717200  0.26717200  0.84877000  1
  Mg  Mg0_2  1  0.26717200  0.76717200  0.34877000  1
  Mg  Mg0_3  1  0.26717200  0.76717200  0.84877000  1
  Mg  Mg0_4  1  0.76717200  0.26717200  0.34877000  1
  Mg  Mg0_5  1  0.76717200  0.26717200  0.84877000  1
  Mg  Mg0_6  1  0.76717200  0.76717200  0.34877000  1
  Mg  Mg0_7  1  0.76717200  0.76717200  0.84877000  1
  Mg  Mg1_0  1  0.23282800  0.23282800  0.15123000  1
  Mg  Mg1_1  1  0.23282800  0.23282800  0.65123000  1
  Mg  Mg1_2  1  0.23282800  0.73282800  0.15123000  1
  Mg  Mg1_3  1  0.23282800  0.73282800  0.65123000  1
  Mg  Mg1_4  1  0.73282800  0.23282800  0.15123000  1
  Mg  Mg1_5  1  0.73282800  0.23282800  0.65123000  1
  Mg  Mg1_6  1  0.73282800  0.73282800  0.15123000  1
  Mg  Mg1_7  1  0.73282800  0.73282800  0.65123000  1
  Sb  Sb0_0  1  0.41294500  0.41294500  0.30647200  1
  Sb  Sb0_1  1  0.41294500  0.41294500  0.80647200  1
  Sb  Sb0_2  1  0.41294500  0.91294500  0.30647200  1
  Sb  Sb0_3  1  0.41294500  0.91294500  0.80647200  1
  Sb  Sb0_4  1  0.91294500  0.41294500  0.30647200  1
  Sb  Sb0_5  1  0.91294500  0.41294500  0.80647200  1
  Sb  Sb0_6  1  0.91294500  0.91294500  0.30647200  1
  Sb  Sb0_7  1  0.91294500  0.91294500  0.80647200  1
  Sb  Sb1_0  1  0.06208350  0.06208350  0.49685600  1
  Sb  Sb1_1  1  0.06208350  0.06208350  0.99685600  1
  Sb  Sb1_2  1  0.06208350  0.56208350  0.49685600  1
  Sb  Sb1_3  1  0.06208350  0.56208350  0.99685600  1
  Sb  Sb1_4  1  0.56208350  0.06208350  0.49685600  1
  Sb  Sb1_5  1  0.56208350  0.06208350  0.99685600  1
  Sb  Sb1_6  1  0.56208350  0.56208350  0.49685600  1
  Sb  Sb1_7  1  0.56208350  0.56208350  0.99685600  1
  Sb  Sb2_0  1  0.43791650  0.43791650  0.00314400  1
  Sb  Sb2_1  1  0.43791650  0.43791650  0.50314400  1
  Sb  Sb2_2  1  0.43791650  0.93791650  0.00314400  1
  Sb  Sb2_3  1  0.43791650  0.93791650  0.50314400  1
  Sb  Sb2_4  1  0.93791650  0.43791650  0.00314400  1
  Sb  Sb2_5  1  0.93791650  0.43791650  0.50314400  1
  Sb  Sb2_6  1  0.93791650  0.93791650  0.00314400  1
  Sb  Sb2_7  1  0.93791650  0.93791650  0.50314400  1
  Sb  Sb3_0  1  0.08705500  0.08705500  0.19352800  1
  Sb  Sb3_1  1  0.08705500  0.08705500  0.69352800  1
  Sb  Sb3_2  1  0.08705500  0.58705500  0.19352800  1
  Sb  Sb3_3  1  0.08705500  0.58705500  0.69352800  1
  Sb  Sb3_4  1  0.58705500  0.08705500  0.19352800  1
  Sb  Sb3_5  1  0.58705500  0.08705500  0.69352800  1
  Sb  Sb3_6  1  0.58705500  0.58705500  0.19352800  1
  Sb  Sb3_7  1  0.58705500  0.58705500  0.69352800  1
loop_
_geom_bond_atom_site_label_1
_geom_bond_atom_site_label_2
_geom_bond_distance
_geom_bond_site_symmetry_2
Mg0_0 Sb3_4 3.055913 1_555
Mg0_0 Sb3_2 3.055913 1_555
Mg0_0 Sb2_3 3.127740 1_545
Mg0_0 Sb2_5 3.127740 1_455
Mg0_0 Mg0_6 3.196904 1_455
Mg0_0 Mg0_6 3.196904 1_545
Mg0_0 Sb0_4 3.295402 1_455
Mg0_0 Sb0_2 3.295402 1_545
Mg0_0 Sb1_4 3.372351 1_555
Mg0_0 Sb1_2 3.372351 1_555
Mg0_0 Sb0_0 3.474704 1_555
Mg0_1 Sb3_5 3.055913 1_555
Mg0_1 Sb3_3 3.055913 1_555
Mg0_1 Sb2_2 3.127740 1_546
Mg0_1 Sb2_4 3.127740 1_456
Mg0_1 Mg0_7 3.196904 1_455
Mg0_1 Mg0_7 3.196904 1_545
Mg0_1 Sb0_5 3.295402 1_455
Mg0_1 Sb0_3 3.295402 1_545
Mg0_1 Sb1_3 3.372351 1_555
Mg0_1 Sb1_5 3.372351 1_555
Mg0_1 Sb0_1 3.474704 1_555
Mg0_2 Sb3_6 3.055913 1_555
Mg0_2 Sb3_0 3.055913 1_565
Mg0_2 Sb2_7 3.127740 1_455
Mg0_2 Sb2_1 3.127740 1_555
Mg0_2 Mg0_4 3.196904 1_555
Mg0_2 Mg0_4 3.196904 1_465
Mg0_2 Sb0_0 3.295402 1_555
Mg0_2 Sb0_6 3.295402 1_455
Mg0_2 Sb1_0 3.372351 1_565
Mg0_2 Sb1_6 3.372351 1_555
Mg0_2 Sb0_2 3.474704 1_555
Mg0_3 Sb3_7 3.055913 1_555
Mg0_3 Sb3_1 3.055913 1_565
Mg0_3 Sb2_0 3.127740 1_556
Mg0_3 Sb2_6 3.127740 1_456
Mg0_3 Mg0_5 3.196904 1_465
Mg0_3 Mg0_5 3.196904 1_555
Mg0_3 Sb0_1 3.295402 1_555
Mg0_3 Sb0_7 3.295402 1_455
Mg0_3 Sb1_7 3.372351 1_555
Mg0_3 Sb1_1 3.372351 1_565
Mg0_3 Sb0_3 3.474704 1_555
Mg0_4 Sb3_6 3.055913 1_555
Mg0_4 Sb3_0 3.055913 1_655
Mg0_4 Sb2_7 3.127740 1_545
Mg0_4 Sb2_1 3.127740 1_555
Mg0_4 Sb0_0 3.295402 1_555
Mg0_4 Sb0_6 3.295402 1_545
Mg0_4 Sb1_0 3.372351 1_655
Mg0_4 Sb1_6 3.372351 1_555
Mg0_4 Sb0_4 3.474704 1_555
Mg0_5 Sb3_7 3.055913 1_555
Mg0_5 Sb3_1 3.055913 1_655
Mg0_5 Sb2_0 3.127740 1_556
Mg0_5 Sb2_6 3.127740 1_546
Mg0_5 Sb0_1 3.295402 1_555
Mg0_5 Sb0_7 3.295402 1_545
Mg0_5 Sb1_7 3.372351 1_555
Mg0_5 Sb1_1 3.372351 1_655
Mg0_5 Sb0_5 3.474704 1_555
Mg0_6 Sb3_2 3.055913 1_655
Mg0_6 Sb3_4 3.055913 1_565
Mg0_6 Sb2_3 3.127740 1_555
Mg0_6 Sb2_5 3.127740 1_555
Mg0_6 Sb0_4 3.295402 1_555
Mg0_6 Sb0_2 3.295402 1_555
Mg0_6 Sb1_2 3.372351 1_655
Mg0_6 Sb1_4 3.372351 1_565
Mg0_6 Sb0_6 3.474704 1_555
Mg0_7 Sb3_5 3.055913 1_565
Mg0_7 Sb3_3 3.055913 1_655
Mg0_7 Sb2_4 3.127740 1_556
Mg0_7 Sb2_2 3.127740 1_556
Mg0_7 Sb0_5 3.295402 1_555
Mg0_7 Sb0_3 3.295402 1_555
Mg0_7 Sb1_5 3.372351 1_565
Mg0_7 Sb1_3 3.372351 1_655
Mg0_7 Sb0_7 3.474704 1_555
Mg1_0 Sb0_4 3.055913 1_455
Mg1_0 Sb0_2 3.055913 1_545
Mg1_0 Sb1_5 3.127740 1_554
Mg1_0 Sb1_3 3.127740 1_554
Mg1_0 Mg1_6 3.196904 1_545
Mg1_0 Mg1_6 3.196904 1_455
Mg1_0 Sb3_2 3.295402 1_555
Mg1_0 Sb3_4 3.295402 1_555
Mg1_0 Sb2_2 3.372351 1_545
Mg1_0 Sb2_4 3.372351 1_455
Mg1_0 Sb3_0 3.474704 1_555
Mg1_1 Sb0_5 3.055913 1_455
Mg1_1 Sb0_3 3.055913 1_545
Mg1_1 Sb1_2 3.127740 1_555
Mg1_1 Sb1_4 3.127740 1_555
Mg1_1 Mg1_7 3.196904 1_455
Mg1_1 Mg1_7 3.196904 1_545
Mg1_1 Sb3_3 3.295402 1_555
Mg1_1 Sb3_5 3.295402 1_555
Mg1_1 Sb2_5 3.372351 1_455
Mg1_1 Sb2_3 3.372351 1_545
Mg1_1 Sb3_1 3.474704 1_555
Mg1_2 Sb0_0 3.055913 1_555
Mg1_2 Sb0_6 3.055913 1_455
Mg1_2 Sb1_7 3.127740 1_554
Mg1_2 Sb1_1 3.127740 1_564
Mg1_2 Mg1_4 3.196904 1_555
Mg1_2 Mg1_4 3.196904 1_465
Mg1_2 Sb3_6 3.295402 1_555
Mg1_2 Sb3_0 3.295402 1_565
Mg1_2 Sb2_0 3.372351 1_555
Mg1_2 Sb2_6 3.372351 1_455
Mg1_2 Sb3_2 3.474704 1_555
Mg1_3 Sb0_1 3.055913 1_555
Mg1_3 Sb0_7 3.055913 1_455
Mg1_3 Sb1_0 3.127740 1_565
Mg1_3 Sb1_6 3.127740 1_555
Mg1_3 Mg1_5 3.196904 1_555
Mg1_3 Mg1_5 3.196904 1_465
Mg1_3 Sb3_7 3.295402 1_555
Mg1_3 Sb3_1 3.295402 1_565
Mg1_3 Sb2_7 3.372351 1_455
Mg1_3 Sb2_1 3.372351 1_555
Mg1_3 Sb3_3 3.474704 1_555
Mg1_4 Sb0_0 3.055913 1_555
Mg1_4 Sb0_6 3.055913 1_545
Mg1_4 Sb1_7 3.127740 1_554
Mg1_4 Sb1_1 3.127740 1_654
Mg1_4 Sb3_6 3.295402 1_555
Mg1_4 Sb3_0 3.295402 1_655
Mg1_4 Sb2_0 3.372351 1_555
Mg1_4 Sb2_6 3.372351 1_545
Mg1_4 Sb3_4 3.474704 1_555
Mg1_5 Sb0_1 3.055913 1_555
Mg1_5 Sb0_7 3.055913 1_545
Mg1_5 Sb1_6 3.127740 1_555
Mg1_5 Sb1_0 3.127740 1_655
Mg1_5 Sb3_7 3.295402 1_555
Mg1_5 Sb3_1 3.295402 1_655
Mg1_5 Sb2_7 3.372351 1_545
Mg1_5 Sb2_1 3.372351 1_555
Mg1_5 Sb3_5 3.474704 1_555
Mg1_6 Sb0_2 3.055913 1_555
Mg1_6 Sb0_4 3.055913 1_555
Mg1_6 Sb1_5 3.127740 1_564
Mg1_6 Sb1_3 3.127740 1_654
Mg1_6 Sb3_4 3.295402 1_565
Mg1_6 Sb3_2 3.295402 1_655
Mg1_6 Sb2_2 3.372351 1_555
Mg1_6 Sb2_4 3.372351 1_555
Mg1_6 Sb3_6 3.474704 1_555
Mg1_7 Sb0_3 3.055913 1_555
Mg1_7 Sb0_5 3.055913 1_555
Mg1_7 Sb1_4 3.127740 1_565
Mg1_7 Sb1_2 3.127740 1_655
Mg1_7 Sb3_3 3.295402 1_655
Mg1_7 Sb3_5 3.295402 1_565
Mg1_7 Sb2_3 3.372351 1_555
Mg1_7 Sb2_5 3.372351 1_555
Mg1_7 Sb3_7 3.474704 1_555
Sb1_0 Sb2_7 3.057392 1_445
Sb1_0 Sb1_6 3.196904 1_455
Sb1_0 Sb1_6 3.196904 1_545
Sb1_1 Sb2_6 3.057392 1_446
Sb1_1 Sb1_7 3.196904 1_455
Sb1_1 Sb1_7 3.196904 1_545
Sb1_2 Sb2_5 3.057392 1_455
Sb1_2 Sb1_4 3.196904 1_555
Sb1_2 Sb1_4 3.196904 1_465
Sb1_3 Sb2_4 3.057392 1_456
Sb1_3 Sb1_5 3.196904 1_555
Sb1_3 Sb1_5 3.196904 1_465
Sb1_4 Sb2_3 3.057392 1_545
Sb1_5 Sb2_2 3.057392 1_546
Sb1_6 Sb2_1 3.057392 1_555
Sb1_7 Sb2_0 3.057392 1_556
Sb2_0 Sb2_6 3.196904 1_455
Sb2_0 Sb2_6 3.196904 1_545
Sb2_1 Sb2_7 3.196904 1_455
Sb2_1 Sb2_7 3.196904 1_545
Sb2_2 Sb2_4 3.196904 1_555
Sb2_2 Sb2_4 3.196904 1_465
Sb2_3 Sb2_5 3.196904 1_465
Sb2_3 Sb2_5 3.196904 1_555
