# generated using pymatgen
data_Gd2B6Os
_symmetry_space_group_name_H-M   'P 1'
_cell_length_a   3.78634300
_cell_length_b   9.14631600
_cell_length_c   11.56575100
_cell_angle_alpha   90.00000000
_cell_angle_beta   90.00000000
_cell_angle_gamma   90.00000000
_symmetry_Int_Tables_number   1
_chemical_formula_structural   Gd2B6Os
_chemical_formula_sum   'Gd8 B24 Os4'
_cell_volume   400.53455874
_cell_formula_units_Z   4
loop_
 _symmetry_equiv_pos_site_id
 _symmetry_equiv_pos_as_xyz
  1  'x, y, z'
loop_
 _atom_site_type_symbol
 _atom_site_label
 _atom_site_symmetry_multiplicity
 _atom_site_fract_x
 _atom_site_fract_y
 _atom_site_fract_z
 _atom_site_occupancy
  Gd  Gd0  1  0.00000000  0.32294600  0.41366500  1
  Gd  Gd1  1  0.00000000  0.67705400  0.58633500  1
  Gd  Gd2  1  0.00000000  0.82294600  0.08633500  1
  Gd  Gd3  1  0.00000000  0.17705400  0.91366500  1
  Gd  Gd4  1  0.00000000  0.94538300  0.37308400  1
  Gd  Gd5  1  0.00000000  0.05461700  0.62691600  1
  Gd  Gd6  1  0.00000000  0.44538300  0.12691600  1
  Gd  Gd7  1  0.00000000  0.55461700  0.87308400  1
  B  B0  1  0.50000000  0.55500900  0.43306300  1
  B  B1  1  0.50000000  0.44499100  0.56693700  1
  B  B2  1  0.50000000  0.05500900  0.06693700  1
  B  B3  1  0.50000000  0.94499100  0.93306300  1
  B  B4  1  0.50000000  0.74829000  0.42033200  1
  B  B5  1  0.50000000  0.25171000  0.57966800  1
  B  B6  1  0.50000000  0.24829000  0.07966800  1
  B  B7  1  0.50000000  0.75171000  0.92033200  1
  B  B8  1  0.50000000  0.79160300  0.26741400  1
  B  B9  1  0.50000000  0.20839700  0.73258600  1
  B  B10  1  0.50000000  0.29160300  0.23258600  1
  B  B11  1  0.50000000  0.70839700  0.76741400  1
  B  B12  1  0.50000000  0.63382300  0.18683700  1
  B  B13  1  0.50000000  0.36617700  0.81316300  1
  B  B14  1  0.50000000  0.13382300  0.31316300  1
  B  B15  1  0.50000000  0.86617700  0.68683700  1
  B  B16  1  0.50000000  0.98613600  0.21191900  1
  B  B17  1  0.50000000  0.01386400  0.78808100  1
  B  B18  1  0.50000000  0.48613600  0.28808100  1
  B  B19  1  0.50000000  0.51386400  0.71191900  1
  B  B20  1  0.50000000  0.61214500  0.03150200  1
  B  B21  1  0.50000000  0.38785500  0.96849800  1
  B  B22  1  0.50000000  0.11214500  0.46849800  1
  B  B23  1  0.50000000  0.88785500  0.53150200  1
  Os  Os0  1  0.00000000  0.63911000  0.32219600  1
  Os  Os1  1  0.00000000  0.36089000  0.67780400  1
  Os  Os2  1  0.00000000  0.13911000  0.17780400  1
  Os  Os3  1  0.00000000  0.86089000  0.82219600  1
loop_
_geom_bond_atom_site_label_1
_geom_bond_atom_site_label_2
_geom_bond_distance
_geom_bond_site_symmetry_2
Gd0 Os1 3.074615 1_555
Gd0 Os0 3.079173 1_555
Gd0 Os2 3.204477 1_555
Gd1 Os0 3.074615 1_555
Gd1 Os1 3.079173 1_555
Gd1 Os3 3.204477 1_555
Gd2 Os3 3.074615 1_554
Gd2 Os2 3.079173 1_565
Gd2 Os0 3.204477 1_555
Gd3 Os2 3.074615 1_556
Gd3 Os3 3.079173 1_545
Gd3 Os1 3.204477 1_555
Gd4 Os0 2.862431 1_555
Gd4 Os2 2.870659 1_565
Gd5 Os1 2.862431 1_555
Gd5 Os3 2.870659 1_545
Gd6 Os2 2.862431 1_555
Gd6 Os0 2.870659 1_555
Gd7 Os3 2.862431 1_555
Gd7 Os1 2.870659 1_555
B0 B4 1.773931 1_555
B0 B18 1.791246 1_555
B0 B1 1.846607 1_555
B0 Os0 2.412463 1_555
B0 Os0 2.412463 1_655
B0 Gd1 2.823584 1_655
B0 Gd1 2.823584 1_555
B0 Gd0 2.852986 1_555
B0 Gd0 2.852986 1_655
B1 B5 1.773931 1_555
B1 B19 1.791246 1_555
B1 Os1 2.412463 1_655
B1 Os1 2.412463 1_555
B1 Gd0 2.823584 1_555
B1 Gd0 2.823584 1_655
B1 Gd1 2.852986 1_655
B1 Gd1 2.852986 1_555
B2 B6 1.773931 1_555
B2 B3 1.846607 1_544
B2 Os2 2.412463 1_555
B2 Os2 2.412463 1_655
B2 Gd3 2.823584 1_554
B2 Gd3 2.823584 1_654
B2 Gd2 2.852986 1_545
B2 Gd2 2.852986 1_645
B3 B7 1.773931 1_555
B3 Os3 2.412463 1_655
B3 Os3 2.412463 1_555
B3 Gd2 2.823584 1_556
B3 Gd2 2.823584 1_656
B3 Gd3 2.852986 1_665
B3 Gd3 2.852986 1_565
B4 B8 1.812436 1_555
B4 Os0 2.422716 1_655
B4 Os0 2.422716 1_555
B4 Gd4 2.670646 1_555
B4 Gd4 2.670646 1_655
B4 Gd1 2.773953 1_655
B4 Gd1 2.773953 1_555
B5 B9 1.812436 1_555
B5 Os1 2.422716 1_655
B5 Os1 2.422716 1_555
B5 Gd5 2.670646 1_555
B5 Gd5 2.670646 1_655
B5 Gd0 2.773953 1_655
B5 Gd0 2.773953 1_555
B6 Os2 2.422716 1_655
B6 Os2 2.422716 1_555
B6 Gd6 2.670646 1_655
B6 Gd6 2.670646 1_555
B6 Gd3 2.773953 1_554
B6 Gd3 2.773953 1_654
B7 Os3 2.422716 1_555
B7 Os3 2.422716 1_655
B7 Gd7 2.670646 1_555
B7 Gd7 2.670646 1_655
B7 Gd2 2.773953 1_556
B7 Gd2 2.773953 1_656
B8 Os0 2.435337 1_555
B8 Os0 2.435337 1_655
B8 Gd4 2.656324 1_555
B8 Gd4 2.656324 1_655
B8 Gd2 2.837681 1_555
B8 Gd2 2.837681 1_655
B9 Os1 2.435337 1_655
B9 Os1 2.435337 1_555
B9 Gd5 2.656324 1_555
B9 Gd5 2.656324 1_655
B9 Gd3 2.837681 1_555
B9 Gd3 2.837681 1_655
B10 B14 1.717863 1_555
B10 B6 1.812436 1_555
B10 B18 1.891488 1_555
B10 Os2 2.435337 1_655
B10 Os2 2.435337 1_555
B10 Gd6 2.656324 1_655
B10 Gd6 2.656324 1_555
B10 Gd0 2.837681 1_655
B10 Gd0 2.837681 1_555
B11 B15 1.717863 1_555
B11 B7 1.812436 1_555
B11 B19 1.891488 1_555
B11 Os3 2.435337 1_555
B11 Os3 2.435337 1_655
B11 Gd7 2.656324 1_655
B11 Gd7 2.656324 1_555
B11 Gd1 2.837681 1_655
B11 Gd1 2.837681 1_555
B12 B8 1.717863 1_555
B12 B18 1.787678 1_555
B12 B20 1.807474 1_555
B12 Os0 2.457095 1_555
B12 Os0 2.457095 1_655
B12 Gd6 2.652349 1_555
B12 Gd6 2.652349 1_655
B12 Gd2 2.815557 1_655
B12 Gd2 2.815557 1_555
B13 B9 1.717863 1_555
B13 B19 1.787678 1_555
B13 B21 1.807474 1_555
B13 Os1 2.457095 1_655
B13 Os1 2.457095 1_555
B13 Gd7 2.652349 1_555
B13 Gd7 2.652349 1_655
B13 Gd3 2.815557 1_555
B13 Gd3 2.815557 1_655
B14 B16 1.787678 1_545
B14 B22 1.807474 1_555
B14 Os2 2.457095 1_555
B14 Os2 2.457095 1_655
B14 Gd4 2.652349 1_545
B14 Gd4 2.652349 1_645
B14 Gd0 2.815557 1_655
B14 Gd0 2.815557 1_555
B15 B17 1.787678 1_565
B15 B23 1.807474 1_555
B15 Os3 2.457095 1_555
B15 Os3 2.457095 1_655
B15 Gd5 2.652349 1_565
B15 Gd5 2.652349 1_665
B15 Gd1 2.815557 1_655
B15 Gd1 2.815557 1_555
B16 B2 1.791246 1_565
B16 B8 1.891488 1_555
B16 Os2 2.386922 1_565
B16 Os2 2.386922 1_665
B16 Gd4 2.682817 1_555
B16 Gd4 2.682817 1_655
B16 Gd2 2.814533 1_555
B16 Gd2 2.814533 1_655
B17 B3 1.791246 1_545
B17 B9 1.891488 1_555
B17 Os3 2.386922 1_545
B17 Os3 2.386922 1_645
B17 Gd5 2.682817 1_655
B17 Gd5 2.682817 1_555
B17 Gd3 2.814533 1_555
B17 Gd3 2.814533 1_655
B18 Os0 2.386922 1_655
B18 Os0 2.386922 1_555
B18 Gd6 2.682817 1_655
B18 Gd6 2.682817 1_555
B18 Gd0 2.814533 1_655
B18 Gd0 2.814533 1_555
B19 Os1 2.386922 1_655
B19 Os1 2.386922 1_555
B19 Gd7 2.682817 1_555
B19 Gd7 2.682817 1_655
B19 Gd1 2.814533 1_655
B19 Gd1 2.814533 1_555
B20 B7 1.811810 1_554
B20 B21 2.177003 1_554
B20 Gd6 2.669887 1_655
B20 Gd6 2.669887 1_555
B20 Gd7 2.686632 1_654
B20 Gd7 2.686632 1_554
B20 Gd2 2.775550 1_655
B20 Gd2 2.775550 1_555
B21 B6 1.811810 1_556
B21 Gd7 2.669887 1_555
B21 Gd7 2.669887 1_655
B21 Gd6 2.686632 1_656
B21 Gd6 2.686632 1_556
B21 Gd3 2.775550 1_655
B21 Gd3 2.775550 1_555
B22 B5 1.811810 1_555
B22 B23 2.177003 1_545
B22 Gd4 2.669887 1_545
B22 Gd4 2.669887 1_645
B22 Gd5 2.686632 1_555
B22 Gd5 2.686632 1_655
B22 Gd0 2.775550 1_655
B22 Gd0 2.775550 1_555
B23 B4 1.811810 1_555
B23 Gd5 2.669887 1_565
B23 Gd5 2.669887 1_665
B23 Gd4 2.686632 1_555
B23 Gd4 2.686632 1_655
B23 Gd1 2.775550 1_655
B23 Gd1 2.775550 1_555
