# generated using pymatgen
data_MnP2H9C2NO7
_symmetry_space_group_name_H-M   'P 1'
_cell_length_a   5.65491063
_cell_length_b   5.65491063
_cell_length_c   13.11476696
_cell_angle_alpha   92.95951337
_cell_angle_beta   92.95951337
_cell_angle_gamma   105.86093250
_symmetry_Int_Tables_number   1
_chemical_formula_structural   MnP2H9C2NO7
_chemical_formula_sum   'Mn2 P4 H18 C4 N2 O14'
_cell_volume   401.93481221
_cell_formula_units_Z   2
loop_
 _symmetry_equiv_pos_site_id
 _symmetry_equiv_pos_as_xyz
  1  'x, y, z'
loop_
 _atom_site_type_symbol
 _atom_site_label
 _atom_site_symmetry_multiplicity
 _atom_site_fract_x
 _atom_site_fract_y
 _atom_site_fract_z
 _atom_site_occupancy
  Mn  Mn0  1  0.73055900  0.65774300  0.24289300  1
  Mn  Mn1  1  0.65774300  0.73055900  0.74289300  1
  P  P0  1  0.33334000  0.04946700  0.27901400  1
  P  P1  1  0.04946700  0.33334000  0.77901400  1
  P  P2  1  0.83237600  0.55785700  0.50635400  1
  P  P3  1  0.55785700  0.83237600  0.00635400  1
  H  H0  1  0.52532800  0.88519500  0.46167300  1
  H  H1  1  0.88519500  0.52532800  0.96167300  1
  H  H2  1  0.47698000  0.05589000  0.56107600  1
  H  H3  1  0.05589000  0.47698000  0.06107600  1
  H  H4  1  0.18602800  0.59361600  0.22749500  1
  H  H5  1  0.59361600  0.18602800  0.72749500  1
  H  H6  1  0.02143800  0.30786600  0.21379000  1
  H  H7  1  0.30786600  0.02143800  0.71379000  1
  H  H8  1  0.16576100  0.59022300  0.61253700  1
  H  H9  1  0.59022300  0.16576100  0.11253700  1
  H  H10  1  0.15646800  0.02509700  0.43935100  1
  H  H11  1  0.02509700  0.15646800  0.93935100  1
  H  H12  1  0.35297600  0.32979700  0.43240700  1
  H  H13  1  0.32979700  0.35297600  0.93240700  1
  H  H14  1  0.89304400  0.15969300  0.54040400  1
  H  H15  1  0.15969300  0.89304400  0.04040400  1
  H  H16  1  0.84962400  0.19115500  0.40727900  1
  H  H17  1  0.19115500  0.84962400  0.90727900  1
  C  C0  1  0.33586900  0.13325900  0.41705500  1
  C  C1  1  0.13325900  0.33586900  0.91705500  1
  C  C2  1  0.78233400  0.22314400  0.48216900  1
  C  C3  1  0.22314400  0.78233400  0.98216900  1
  N  N0  1  0.52473000  0.06391800  0.48396400  1
  N  N1  1  0.06391800  0.52473000  0.98396400  1
  O  O0  1  0.02697400  0.47772900  0.19471100  1
  O  O1  1  0.47772900  0.02697400  0.69471100  1
  O  O2  1  0.06179800  0.00873600  0.24022800  1
  O  O3  1  0.00873600  0.06179800  0.74022800  1
  O  O4  1  0.41428900  0.80991300  0.27475100  1
  O  O5  1  0.80991300  0.41428900  0.77475100  1
  O  O6  1  0.51075200  0.25696600  0.22614900  1
  O  O7  1  0.25696600  0.51075200  0.72614900  1
  O  O8  1  0.11793300  0.64302400  0.54317700  1
  O  O9  1  0.64302400  0.11793300  0.04317700  1
  O  O10  1  0.80408900  0.67252700  0.40638800  1
  O  O11  1  0.67252700  0.80408900  0.90638800  1
  O  O12  1  0.66762300  0.60907300  0.58699200  1
  O  O13  1  0.60907300  0.66762300  0.08699200  1
loop_
_geom_bond_atom_site_label_1
_geom_bond_atom_site_label_2
_geom_bond_distance
_geom_bond_site_symmetry_2
Mn0 O13 2.131484 1_555
Mn0 O10 2.155898 1_555
Mn0 O4 2.234940 1_555
Mn0 O6 2.260580 1_555
Mn0 O0 2.284911 1_655
Mn0 O2 2.330475 1_665
Mn1 O12 2.131484 1_555
Mn1 O11 2.155898 1_555
Mn1 O5 2.234940 1_555
Mn1 O7 2.260580 1_555
Mn1 O1 2.284911 1_565
Mn1 O3 2.330475 1_665
H0 N0 1.038448 1_565
H1 N1 1.038448 1_655
H2 N0 1.060165 1_555
H3 N1 1.060165 1_554
H4 O0 1.015919 1_555
H4 O4 1.588219 1_555
H5 O1 1.015919 1_555
H5 O5 1.588219 1_555
H6 O0 0.997725 1_555
H7 O1 0.997725 1_555
H8 O8 1.018102 1_555
H8 O7 1.674675 1_555
H9 O9 1.018102 1_555
H9 O6 1.674675 1_555
C0 H10 1.094870 1_555
C0 H12 1.096006 1_555
C0 N0 1.493997 1_555
C0 P0 1.845868 1_555
C1 H11 1.094870 1_555
C1 H13 1.096006 1_555
C1 N1 1.493997 1_555
C1 P1 1.845868 1_555
C2 H16 1.095462 1_555
C2 H14 1.098042 1_555
C2 N0 1.490677 1_555
C2 P2 1.843701 1_555
C3 H17 1.095462 1_555
C3 H15 1.098042 1_556
C3 N1 1.490677 1_555
C3 P3 1.843701 1_556
O2 P0 1.543897 1_555
O3 P1 1.543897 1_555
O4 P0 1.543224 1_565
O5 P1 1.543224 1_655
O6 P0 1.541556 1_555
O7 P1 1.541556 1_555
O8 P2 1.594711 1_455
O9 P3 1.594711 1_545
O10 P2 1.512515 1_555
O11 P3 1.512515 1_556
O12 P2 1.512577 1_555
O13 P3 1.512577 1_555
