# generated using pymatgen
data_TiNbFe4
_symmetry_space_group_name_H-M   'P 1'
_cell_length_a   4.73575960
_cell_length_b   4.73575960
_cell_length_c   7.84504200
_cell_angle_alpha   90.00000000
_cell_angle_beta   90.00000000
_cell_angle_gamma   119.99999436
_symmetry_Int_Tables_number   1
_chemical_formula_structural   TiNbFe4
_chemical_formula_sum   'Ti2 Nb2 Fe8'
_cell_volume   152.37202010
_cell_formula_units_Z   2
loop_
 _symmetry_equiv_pos_site_id
 _symmetry_equiv_pos_as_xyz
  1  'x, y, z'
loop_
 _atom_site_type_symbol
 _atom_site_label
 _atom_site_symmetry_multiplicity
 _atom_site_fract_x
 _atom_site_fract_y
 _atom_site_fract_z
 _atom_site_occupancy
  Ti  Ti0  1  0.66666700  0.33333300  0.93874000  1
  Ti  Ti1  1  0.33333300  0.66666700  0.06126000  1
  Nb  Nb0  1  0.33333300  0.66666700  0.42904400  1
  Nb  Nb1  1  0.66666700  0.33333300  0.57095600  1
  Fe  Fe0  1  0.00000000  0.00000000  0.50000000  1
  Fe  Fe1  1  0.00000000  0.00000000  0.00000000  1
  Fe  Fe2  1  0.82971200  0.17028800  0.24719600  1
  Fe  Fe3  1  0.82971200  0.65942300  0.24719600  1
  Fe  Fe4  1  0.34057700  0.17028800  0.24719600  1
  Fe  Fe5  1  0.17028800  0.82971200  0.75280400  1
  Fe  Fe6  1  0.17028800  0.34057700  0.75280400  1
  Fe  Fe7  1  0.65942300  0.82971200  0.75280400  1
loop_
_geom_bond_atom_site_label_1
_geom_bond_atom_site_label_2
_geom_bond_distance
_geom_bond_site_symmetry_2
Ti0 Ti1 2.898215 1_546
Ti0 Ti1 2.898215 1_656
Ti0 Ti1 2.898222 1_556
Nb0 Ti1 2.885281 1_555
Nb0 Nb1 2.952159 1_455
Nb0 Nb1 2.952159 1_565
Nb0 Nb1 2.952166 1_555
Nb1 Ti0 2.885281 1_555
Fe0 Fe2 2.425771 1_455
Fe0 Fe5 2.425771 1_545
Fe0 Fe3 2.425773 1_445
Fe0 Fe6 2.425773 1_555
Fe0 Fe7 2.425773 1_445
Fe0 Fe4 2.425773 1_555
Fe0 Nb0 2.790278 1_545
Fe0 Nb1 2.790278 1_455
Fe0 Nb0 2.790283 1_555
Fe0 Nb0 2.790283 1_445
Fe0 Nb1 2.790283 1_555
Fe0 Nb1 2.790283 1_445
Fe1 Fe5 2.389936 1_544
Fe1 Fe2 2.389936 1_455
Fe1 Fe7 2.389938 1_444
Fe1 Fe6 2.389938 1_554
Fe1 Fe4 2.389938 1_555
Fe1 Fe3 2.389938 1_445
Fe1 Ti0 2.776104 1_454
Fe1 Ti1 2.776104 1_545
Fe1 Ti0 2.776109 1_444
Fe1 Ti0 2.776109 1_554
Fe1 Ti1 2.776109 1_445
Fe1 Ti1 2.776109 1_555
Fe2 Fe3 2.316426 1_555
Fe2 Fe4 2.316426 1_555
Fe2 Fe3 2.419334 1_545
Fe2 Fe4 2.419334 1_655
Fe2 Nb0 2.764587 1_545
Fe2 Nb0 2.764587 1_655
Fe2 Ti0 2.764830 1_554
Fe2 Ti1 2.781272 1_545
Fe2 Ti1 2.781272 1_655
Fe2 Nb1 2.870498 1_555
Fe3 Fe4 2.316426 1_555
Fe3 Fe4 2.419334 1_665
Fe3 Nb0 2.764583 1_655
Fe3 Nb0 2.764591 1_555
Fe3 Ti0 2.764830 1_554
Fe3 Ti1 2.781268 1_655
Fe3 Ti1 2.781276 1_555
Fe3 Nb1 2.870498 1_555
Fe4 Nb0 2.764583 1_545
Fe4 Nb0 2.764591 1_555
Fe4 Ti0 2.764830 1_554
Fe4 Ti1 2.781268 1_545
Fe4 Ti1 2.781276 1_555
Fe4 Nb1 2.870498 1_555
Fe5 Fe7 2.316426 1_555
Fe5 Fe6 2.316426 1_555
Fe5 Fe7 2.419334 1_455
Fe5 Fe6 2.419334 1_565
Fe5 Nb1 2.764587 1_565
Fe5 Nb1 2.764587 1_455
Fe5 Ti1 2.764830 1_556
Fe5 Ti0 2.781272 1_565
Fe5 Ti0 2.781272 1_455
Fe5 Nb0 2.870498 1_555
Fe6 Fe7 2.316426 1_555
Fe6 Fe7 2.419334 1_445
Fe6 Nb1 2.764583 1_455
Fe6 Nb1 2.764591 1_555
Fe6 Ti1 2.764830 1_556
Fe6 Ti0 2.781268 1_455
Fe6 Ti0 2.781276 1_555
Fe6 Nb0 2.870498 1_555
Fe7 Nb1 2.764583 1_565
Fe7 Nb1 2.764591 1_555
Fe7 Ti1 2.764830 1_556
Fe7 Ti0 2.781268 1_565
Fe7 Ti0 2.781276 1_555
Fe7 Nb0 2.870498 1_555
