# generated using pymatgen
data_LiGd2In
_symmetry_space_group_name_H-M   'P 1'
_cell_length_a   5.30255698
_cell_length_b   5.30255698
_cell_length_c   5.30255698
_cell_angle_alpha   60.00000000
_cell_angle_beta   60.00000000
_cell_angle_gamma   60.00000000
_symmetry_Int_Tables_number   1
_chemical_formula_structural   LiGd2In
_chemical_formula_sum   'Li1 Gd2 In1'
_cell_volume   105.42437497
_cell_formula_units_Z   1
loop_
 _symmetry_equiv_pos_site_id
 _symmetry_equiv_pos_as_xyz
  1  'x, y, z'
loop_
 _atom_site_type_symbol
 _atom_site_label
 _atom_site_symmetry_multiplicity
 _atom_site_fract_x
 _atom_site_fract_y
 _atom_site_fract_z
 _atom_site_occupancy
  Li  Li0  1  0.00000000  0.00000000  0.00000000  1
  Gd  Gd0  1  0.25000000  0.25000000  0.25000000  1
  Gd  Gd1  1  0.75000000  0.75000000  0.75000000  1
  In  In0  1  0.50000000  0.50000000  0.50000000  1
loop_
_geom_bond_atom_site_label_1
_geom_bond_atom_site_label_2
_geom_bond_distance
_geom_bond_site_symmetry_2
Gd0 Li0 3.247140 1_556
Gd0 In0 3.247140 1_554
Gd0 Li0 3.247140 1_565
Gd0 Li0 3.247140 1_555
Gd0 Li0 3.247140 1_655
Gd0 In0 3.247140 1_455
Gd0 In0 3.247140 1_555
Gd0 In0 3.247140 1_545
Gd1 In0 3.247140 1_655
Gd1 Li0 3.247140 1_666
Gd1 Li0 3.247140 1_656
Gd1 Li0 3.247140 1_665
Gd1 Li0 3.247140 1_566
Gd1 In0 3.247140 1_555
Gd1 In0 3.247140 1_556
Gd1 In0 3.247140 1_565
