# generated using pymatgen
data_Pr4V5(Si2O11)2
_symmetry_space_group_name_H-M   'P 1'
_cell_length_a   7.36303736
_cell_length_b   7.36303736
_cell_length_c   11.18415732
_cell_angle_alpha   80.36521095
_cell_angle_beta   80.36521095
_cell_angle_gamma   45.63544241
_symmetry_Int_Tables_number   1
_chemical_formula_structural   Pr4V5(Si2O11)2
_chemical_formula_sum   'Pr4 V5 Si4 O22'
_cell_volume   426.27095834
_cell_formula_units_Z   1
loop_
 _symmetry_equiv_pos_site_id
 _symmetry_equiv_pos_as_xyz
  1  'x, y, z'
loop_
 _atom_site_type_symbol
 _atom_site_label
 _atom_site_symmetry_multiplicity
 _atom_site_fract_x
 _atom_site_fract_y
 _atom_site_fract_z
 _atom_site_occupancy
  Pr  Pr0  1  0.07332800  0.07332800  0.25114000  1
  Pr  Pr1  1  0.92667200  0.92667200  0.74886000  1
  Pr  Pr2  1  0.35625200  0.35625200  0.25635800  1
  Pr  Pr3  1  0.64374800  0.64374800  0.74364200  1
  V  V0  1  0.50000000  0.50000000  0.50000000  1
  V  V1  1  0.00000000  0.50000000  0.00000000  1
  V  V2  1  0.50000000  0.50000000  0.00000000  1
  V  V3  1  0.00000000  0.00000000  0.00000000  1
  V  V4  1  0.50000000  0.00000000  0.00000000  1
  Si  Si0  1  0.86146500  0.86146500  0.45763400  1
  Si  Si1  1  0.13853500  0.13853500  0.54236600  1
  Si  Si2  1  0.70341300  0.70341300  0.27076100  1
  Si  Si3  1  0.29658700  0.29658700  0.72923900  1
  O  O0  1  0.77859000  0.77859000  0.36822000  1
  O  O1  1  0.22141000  0.22141000  0.63178000  1
  O  O2  1  0.30589300  0.83455100  0.58762200  1
  O  O3  1  0.16544900  0.69410700  0.41237800  1
  O  O4  1  0.69410700  0.16544900  0.41237800  1
  O  O5  1  0.83455100  0.30589300  0.58762200  1
  O  O6  1  0.18712600  0.18712600  0.40041400  1
  O  O7  1  0.81287400  0.81287400  0.59958600  1
  O  O8  1  0.58803500  0.58803500  0.33730700  1
  O  O9  1  0.41196500  0.41196500  0.66269300  1
  O  O10  1  0.51150700  0.03525200  0.81146100  1
  O  O11  1  0.96474800  0.48849300  0.18853900  1
  O  O12  1  0.48849300  0.96474800  0.18853900  1
  O  O13  1  0.65006000  0.65006000  0.98279900  1
  O  O14  1  0.34994000  0.34994000  0.01720100  1
  O  O15  1  0.85727200  0.85727200  0.97623000  1
  O  O16  1  0.14272800  0.14272800  0.02377000  1
  O  O17  1  0.03525200  0.51150700  0.81146100  1
  O  O18  1  0.73621200  0.21846600  0.13060000  1
  O  O19  1  0.21846600  0.73621200  0.13060000  1
  O  O20  1  0.26378800  0.78153400  0.86940000  1
  O  O21  1  0.78153400  0.26378800  0.86940000  1
loop_
_geom_bond_atom_site_label_1
_geom_bond_atom_site_label_2
_geom_bond_distance
_geom_bond_site_symmetry_2
O0 Si2 1.622741 1_555
O0 Si0 1.635239 1_555
O1 Si3 1.622741 1_555
O1 Si1 1.635239 1_555
O2 Si1 1.660394 1_565
O2 V0 2.118200 1_555
O2 Pr3 2.636663 1_555
O2 Pr1 2.753888 1_455
O3 Si0 1.660394 1_455
O3 V0 2.118200 1_555
O3 Pr2 2.636663 1_555
O3 Pr0 2.753888 1_565
O4 Si0 1.660394 1_545
O4 V0 2.118200 1_555
O4 Pr2 2.636663 1_555
O4 Pr0 2.753888 1_655
O5 Si1 1.660394 1_655
O5 V0 2.118200 1_555
O5 Pr3 2.636663 1_555
O5 Pr1 2.753888 1_545
O6 Si1 1.604764 1_555
O6 Pr0 2.471782 1_555
O6 Pr2 2.553950 1_555
O7 Si0 1.604764 1_555
O7 Pr1 2.471782 1_555
O7 Pr3 2.553950 1_555
O8 Si2 1.607268 1_555
O8 V0 1.987258 1_555
O8 Pr0 3.031782 1_655
O8 Pr0 3.031782 1_565
O9 Si3 1.607268 1_555
O9 V0 1.987258 1_555
O9 Pr1 3.031782 1_455
O9 Pr1 3.031782 1_545
O10 Si3 1.639811 1_555
O10 V4 2.075740 1_556
O10 Pr3 2.528361 1_545
O10 Pr1 2.554827 1_545
O11 Si2 1.639811 1_555
O11 V1 2.075740 1_655
O11 Pr2 2.528361 1_655
O11 Pr0 2.554827 1_655
O12 Si2 1.639811 1_555
O12 V4 2.075740 1_565
O12 Pr2 2.528361 1_565
O12 Pr0 2.554827 1_565
O13 V4 2.002581 1_566
O13 V1 2.002581 1_656
O13 V2 2.010851 1_556
O13 Pr3 2.691645 1_555
O14 V1 2.002581 1_555
O14 V4 2.002581 1_555
O14 V2 2.010851 1_555
O14 Pr2 2.691645 1_555
O15 V3 2.002749 1_666
O15 V4 2.022020 1_566
O15 V1 2.022020 1_656
O15 Pr1 2.546372 1_555
O16 V3 2.002749 1_555
O16 V1 2.022020 1_555
O16 V4 2.022020 1_555
O16 Pr0 2.546372 1_555
O17 Si3 1.639811 1_555
O17 V1 2.075740 1_556
O17 Pr3 2.528361 1_455
O17 Pr1 2.554827 1_455
O18 V3 1.990264 1_655
O18 V2 2.061680 1_555
O18 Pr2 2.454730 1_555
O18 Pr0 2.459505 1_655
O19 V3 1.990264 1_565
O19 V2 2.061680 1_555
O19 Pr2 2.454730 1_555
O19 Pr0 2.459505 1_565
O20 V3 1.990264 1_566
O20 V2 2.061680 1_556
O20 Pr3 2.454730 1_555
O20 Pr1 2.459505 1_455
O21 V3 1.990264 1_656
O21 V2 2.061680 1_556
O21 Pr3 2.454730 1_555
O21 Pr1 2.459505 1_545
