# generated using pymatgen
data_Dy5Co19P12
_symmetry_space_group_name_H-M   'P 1'
_cell_length_a   11.96639296
_cell_length_b   11.96639296
_cell_length_c   3.66953200
_cell_angle_alpha   90.00000000
_cell_angle_beta   90.00000000
_cell_angle_gamma   119.99999427
_symmetry_Int_Tables_number   1
_chemical_formula_structural   Dy5Co19P12
_chemical_formula_sum   'Dy5 Co19 P12'
_cell_volume   455.05915614
_cell_formula_units_Z   1
loop_
 _symmetry_equiv_pos_site_id
 _symmetry_equiv_pos_as_xyz
  1  'x, y, z'
loop_
 _atom_site_type_symbol
 _atom_site_label
 _atom_site_symmetry_multiplicity
 _atom_site_fract_x
 _atom_site_fract_y
 _atom_site_fract_z
 _atom_site_occupancy
  Dy  Dy0  1  0.66666700  0.33333300  0.00000000  1
  Dy  Dy1  1  0.33333300  0.66666700  0.00000000  1
  Dy  Dy2  1  0.18680300  0.18680300  0.50000000  1
  Dy  Dy3  1  0.81319700  0.00000000  0.50000000  1
  Dy  Dy4  1  0.00000000  0.81319700  0.50000000  1
  Co  Co0  1  0.55165900  0.55165900  0.00000000  1
  Co  Co1  1  0.44834100  0.00000000  0.00000000  1
  Co  Co2  1  0.00000000  0.44834100  0.00000000  1
  Co  Co3  1  0.82254100  0.20038800  0.00000000  1
  Co  Co4  1  0.79961200  0.62215300  0.00000000  1
  Co  Co5  1  0.37784700  0.17745900  0.00000000  1
  Co  Co6  1  0.20038800  0.82254100  0.00000000  1
  Co  Co7  1  0.62215300  0.79961200  0.00000000  1
  Co  Co8  1  0.17745900  0.37784700  0.00000000  1
  Co  Co9  1  0.64239700  0.12550800  0.50000000  1
  Co  Co10  1  0.87449200  0.51688900  0.50000000  1
  Co  Co11  1  0.48311100  0.35760300  0.50000000  1
  Co  Co12  1  0.12550800  0.64239700  0.50000000  1
  Co  Co13  1  0.51688900  0.87449200  0.50000000  1
  Co  Co14  1  0.35760300  0.48311100  0.50000000  1
  Co  Co15  1  0.71445200  0.71445200  0.50000000  1
  Co  Co16  1  0.28554800  0.00000000  0.50000000  1
  Co  Co17  1  0.00000000  0.28554800  0.50000000  1
  Co  Co18  1  0.00000000  0.00000000  0.00000000  1
  P  P0  1  0.36743900  0.36743900  0.00000000  1
  P  P1  1  0.63256100  0.00000000  0.00000000  1
  P  P2  1  0.00000000  0.63256100  0.00000000  1
  P  P3  1  0.83458400  0.31485500  0.50000000  1
  P  P4  1  0.68514500  0.51972900  0.50000000  1
  P  P5  1  0.48027100  0.16541600  0.50000000  1
  P  P6  1  0.31485500  0.83458400  0.50000000  1
  P  P7  1  0.51972900  0.68514500  0.50000000  1
  P  P8  1  0.16541600  0.48027100  0.50000000  1
  P  P9  1  0.81910100  0.81910100  0.00000000  1
  P  P10  1  0.18089900  0.00000000  0.00000000  1
  P  P11  1  0.00000000  0.18089900  0.00000000  1
loop_
_geom_bond_atom_site_label_1
_geom_bond_atom_site_label_2
_geom_bond_distance
_geom_bond_site_symmetry_2
Dy0 P3 2.810176 1_554
Dy0 P3 2.810176 1_555
Dy0 P5 2.810181 1_554
Dy0 P5 2.810181 1_555
Dy0 P4 2.810185 1_555
Dy0 P4 2.810185 1_554
Dy1 P6 2.810176 1_554
Dy1 P6 2.810176 1_555
Dy1 P8 2.810181 1_555
Dy1 P8 2.810181 1_554
Dy1 P7 2.810185 1_555
Dy1 P7 2.810185 1_554
Dy2 P0 2.835263 1_555
Dy2 P0 2.835263 1_556
Dy2 P10 2.865354 1_555
Dy2 P11 2.865354 1_555
Dy2 P10 2.865354 1_556
Dy2 P11 2.865354 1_556
Dy3 P1 2.835263 1_556
Dy3 P1 2.835263 1_555
Dy3 P9 2.865354 1_546
Dy3 P9 2.865354 1_545
Dy3 P11 2.865355 1_655
Dy3 P11 2.865355 1_656
Dy4 P2 2.835263 1_556
Dy4 P2 2.835263 1_555
Dy4 P9 2.865354 1_456
Dy4 P9 2.865354 1_455
Dy4 P10 2.865355 1_565
Dy4 P10 2.865355 1_566
Co0 P0 2.204449 1_555
Co0 P7 2.583446 1_555
Co0 P7 2.583446 1_554
Co0 P4 2.583446 1_554
Co0 P4 2.583446 1_555
Co1 P1 2.204449 1_555
Co1 P5 2.583447 1_554
Co1 P5 2.583447 1_555
Co1 P6 2.583447 1_544
Co1 P6 2.583447 1_545
Co2 P2 2.204449 1_555
Co2 P8 2.583447 1_555
Co2 P8 2.583447 1_554
Co2 P3 2.583447 1_454
Co2 P3 2.583447 1_455
Co3 P11 2.249237 1_655
Co3 P3 2.250771 1_555
Co3 P3 2.250771 1_554
Co3 P1 2.338138 1_555
Co3 Dy3 2.976705 1_555
Co3 Dy3 2.976705 1_554
Co3 Dy0 2.996231 1_555
Co4 P9 2.249237 1_555
Co4 P4 2.250771 1_555
Co4 P4 2.250771 1_554
Co4 P2 2.338138 1_655
Co4 Dy4 2.976706 1_655
Co4 Dy4 2.976706 1_654
Co4 Dy0 2.996242 1_555
Co5 P10 2.249237 1_555
Co5 P5 2.250771 1_554
Co5 P5 2.250771 1_555
Co5 P0 2.338138 1_555
Co5 Dy2 2.976705 1_554
Co5 Dy2 2.976705 1_555
Co5 Dy0 2.996242 1_555
Co6 P10 2.249237 1_565
Co6 P6 2.250771 1_555
Co6 P6 2.250771 1_554
Co6 P2 2.338138 1_555
Co6 Dy4 2.976705 1_554
Co6 Dy4 2.976705 1_555
Co6 Dy1 2.996231 1_555
Co7 P9 2.249237 1_555
Co7 P7 2.250771 1_555
Co7 P7 2.250771 1_554
Co7 P1 2.338138 1_565
Co7 Dy3 2.976706 1_564
Co7 Dy3 2.976706 1_565
Co7 Dy1 2.996242 1_555
Co8 P11 2.249237 1_555
Co8 P8 2.250771 1_555
Co8 P8 2.250771 1_554
Co8 P0 2.338138 1_555
Co8 Dy2 2.976705 1_554
Co8 Dy2 2.976705 1_555
Co8 Dy1 2.996242 1_555
Co9 P5 2.217745 1_555
Co9 P3 2.282983 1_555
Co9 P1 2.336468 1_555
Co9 P1 2.336468 1_556
Co9 Dy0 2.985498 1_556
Co9 Dy0 2.985498 1_555
Co9 Dy3 3.082633 1_555
Co10 P3 2.217745 1_555
Co10 P4 2.282983 1_555
Co10 P2 2.336468 1_655
Co10 P2 2.336468 1_656
Co10 Dy0 2.985502 1_555
Co10 Dy0 2.985502 1_556
Co10 Dy4 3.082634 1_655
Co11 P4 2.217745 1_555
Co11 P5 2.282983 1_555
Co11 P0 2.336468 1_555
Co11 P0 2.336468 1_556
Co11 Dy0 2.985508 1_556
Co11 Dy0 2.985508 1_555
Co11 Dy2 3.082634 1_555
Co12 P8 2.217745 1_555
Co12 P6 2.282983 1_555
Co12 P2 2.336468 1_555
Co12 P2 2.336468 1_556
Co12 Dy1 2.985498 1_555
Co12 Dy1 2.985498 1_556
Co12 Dy4 3.082633 1_555
Co13 P6 2.217745 1_555
Co13 P7 2.282983 1_555
Co13 P1 2.336468 1_565
Co13 P1 2.336468 1_566
Co13 Dy1 2.985502 1_556
Co13 Dy1 2.985502 1_555
Co13 Dy3 3.082634 1_565
Co14 P7 2.217745 1_555
Co14 P8 2.282983 1_555
Co14 P0 2.336468 1_555
Co14 P0 2.336468 1_556
Co14 Dy1 2.985508 1_555
Co14 Dy1 2.985508 1_556
Co14 Dy2 3.082634 1_555
Co15 P4 2.176081 1_555
Co15 P7 2.176081 1_555
Co15 P9 2.221385 1_556
Co15 P9 2.221385 1_555
Co15 Dy3 3.005728 1_565
Co15 Dy4 3.005728 1_655
Co16 P6 2.176081 1_545
Co16 P5 2.176081 1_555
Co16 P10 2.221384 1_556
Co16 P10 2.221384 1_555
Co16 Dy2 3.005728 1_555
Co16 Dy4 3.005728 1_545
Co17 P3 2.176081 1_455
Co17 P8 2.176081 1_555
Co17 P11 2.221384 1_556
Co17 P11 2.221384 1_555
Co17 Dy2 3.005728 1_555
Co17 Dy3 3.005728 1_455
Co18 P10 2.164709 1_555
Co18 P11 2.164709 1_555
Co18 P9 2.164709 1_445
Co18 Dy3 2.891918 1_455
Co18 Dy4 2.891918 1_545
Co18 Dy4 2.891918 1_544
Co18 Dy3 2.891918 1_454
Co18 Dy2 2.891919 1_554
Co18 Dy2 2.891919 1_555
