# generated using pymatgen
data_Se
_symmetry_space_group_name_H-M   'P 1'
_cell_length_a   5.90091732
_cell_length_b   5.90091979
_cell_length_c   5.90091820
_cell_angle_alpha   109.47120174
_cell_angle_beta   109.47121034
_cell_angle_gamma   109.47122246
_symmetry_Int_Tables_number   1
_chemical_formula_structural   Se
_chemical_formula_sum   Se8
_cell_volume   158.17472597
_cell_formula_units_Z   8
loop_
 _symmetry_equiv_pos_site_id
 _symmetry_equiv_pos_as_xyz
  1  'x, y, z'
loop_
 _atom_site_type_symbol
 _atom_site_label
 _atom_site_symmetry_multiplicity
 _atom_site_fract_x
 _atom_site_fract_y
 _atom_site_fract_z
 _atom_site_occupancy
  Se  Se0_0  1  0.00000000  0.00000000  0.00000000  1
  Se  Se0_1  1  0.00000000  0.00000000  0.50000000  1
  Se  Se0_2  1  0.00000000  0.50000000  0.00000000  1
  Se  Se0_3  1  0.00000000  0.50000000  0.50000000  1
  Se  Se0_4  1  0.50000000  0.00000000  0.00000000  1
  Se  Se0_5  1  0.50000000  0.00000000  0.50000000  1
  Se  Se0_6  1  0.50000000  0.50000000  0.00000000  1
  Se  Se0_7  1  0.50000000  0.50000000  0.50000000  1
loop_
_geom_bond_atom_site_label_1
_geom_bond_atom_site_label_2
_geom_bond_distance
_geom_bond_site_symmetry_2
Se0_0 Se0_4 2.950459 1_455
Se0_0 Se0_4 2.950459 1_555
Se0_0 Se0_1 2.950459 1_555
Se0_0 Se0_1 2.950459 1_554
Se0_0 Se0_2 2.950460 1_545
Se0_0 Se0_2 2.950460 1_555
Se0_0 Se0_7 2.950461 1_444
Se0_0 Se0_7 2.950461 1_555
Se0_1 Se0_5 2.950459 1_455
Se0_1 Se0_5 2.950459 1_555
Se0_1 Se0_3 2.950460 1_545
Se0_1 Se0_3 2.950460 1_555
Se0_1 Se0_6 2.950461 1_445
Se0_1 Se0_6 2.950461 1_556
Se0_2 Se0_6 2.950459 1_455
Se0_2 Se0_6 2.950459 1_555
Se0_2 Se0_3 2.950459 1_554
Se0_2 Se0_3 2.950459 1_555
Se0_2 Se0_5 2.950461 1_565
Se0_2 Se0_5 2.950461 1_454
Se0_3 Se0_7 2.950459 1_455
Se0_3 Se0_7 2.950459 1_555
Se0_3 Se0_4 2.950461 1_566
Se0_3 Se0_4 2.950461 1_455
Se0_4 Se0_5 2.950459 1_554
Se0_4 Se0_5 2.950459 1_555
Se0_4 Se0_6 2.950460 1_545
Se0_4 Se0_6 2.950460 1_555
Se0_5 Se0_7 2.950460 1_545
Se0_5 Se0_7 2.950460 1_555
Se0_6 Se0_7 2.950459 1_554
Se0_6 Se0_7 2.950459 1_555
