# generated using pymatgen
data_V2(CrSi)3
_symmetry_space_group_name_H-M   'P 1'
_cell_length_a   6.90842078
_cell_length_b   6.90842078
_cell_length_c   6.90842078
_cell_angle_alpha   140.58516300
_cell_angle_beta   96.94010278
_cell_angle_gamma   96.11930844
_symmetry_Int_Tables_number   1
_chemical_formula_structural   V2(CrSi)3
_chemical_formula_sum   'V4 Cr6 Si6'
_cell_volume   197.07666311
_cell_formula_units_Z   2
loop_
 _symmetry_equiv_pos_site_id
 _symmetry_equiv_pos_as_xyz
  1  'x, y, z'
loop_
 _atom_site_type_symbol
 _atom_site_label
 _atom_site_symmetry_multiplicity
 _atom_site_fract_x
 _atom_site_fract_y
 _atom_site_fract_z
 _atom_site_occupancy
  V  V0  1  0.30782700  0.57791100  0.72991600  1
  V  V1  1  0.69217300  0.42208900  0.27008400  1
  V  V2  1  0.84799500  0.07791100  0.77008400  1
  V  V3  1  0.15200500  0.92208900  0.22991600  1
  Cr  Cr0  1  0.85192900  0.27564200  0.57628600  1
  Cr  Cr1  1  0.14807100  0.72435800  0.42371400  1
  Cr  Cr2  1  0.30064400  0.22435800  0.07628600  1
  Cr  Cr3  1  0.69935600  0.77564200  0.92371400  1
  Cr  Cr4  1  0.50000000  0.25000000  0.75000000  1
  Cr  Cr5  1  0.50000000  0.75000000  0.25000000  1
  Si  Si0  1  0.00000000  0.25000000  0.25000000  1
  Si  Si1  1  0.00000000  0.75000000  0.75000000  1
  Si  Si2  1  0.82992000  0.66592000  0.16400000  1
  Si  Si3  1  0.17008000  0.33408000  0.83600000  1
  Si  Si4  1  0.50192000  0.16592000  0.33600000  1
  Si  Si5  1  0.49808000  0.83408000  0.66400000  1
loop_
_geom_bond_atom_site_label_1
_geom_bond_atom_site_label_2
_geom_bond_distance
_geom_bond_site_symmetry_2
Cr0 Si4 2.423207 1_555
Cr0 Si3 2.439598 1_655
Cr0 Si0 2.477443 1_655
Cr0 Si1 2.477445 1_655
Cr0 V2 2.546750 1_555
Cr0 Si2 2.664489 1_545
Cr0 Si2 2.664493 1_556
Cr1 Si5 2.423207 1_555
Cr1 Si2 2.439598 1_455
Cr1 Si1 2.477443 1_555
Cr1 Si0 2.477445 1_555
Cr1 V3 2.546750 1_555
Cr1 Si3 2.664489 1_565
Cr1 Si3 2.664493 1_554
Cr2 Si3 2.423201 1_554
Cr2 Si4 2.439603 1_555
Cr2 Si1 2.477446 1_544
Cr2 Si0 2.477446 1_555
Cr2 V1 2.546750 1_555
Cr2 Si5 2.664491 1_544
Cr2 Si5 2.664491 1_555
Cr3 Si2 2.423201 1_556
Cr3 Si5 2.439603 1_555
Cr3 Si0 2.477446 1_666
Cr3 Si1 2.477446 1_655
Cr3 V0 2.546750 1_555
Cr3 Si4 2.664491 1_566
Cr3 Si4 2.664491 1_555
Cr4 Cr5 2.329638 1_556
Cr4 Cr5 2.329638 1_545
Cr4 Si4 2.441623 1_555
Cr4 Si3 2.441623 1_555
Cr4 Si5 2.441623 1_545
Cr4 Si2 2.441623 1_556
Cr5 Si2 2.441623 1_555
Cr5 Si4 2.441623 1_565
Cr5 Si3 2.441623 1_554
Cr5 Si5 2.441623 1_555
Si0 Si1 2.329638 1_544
Si0 Si1 2.329638 1_555
Si0 V3 2.512074 1_545
Si0 V1 2.512074 1_455
Si0 V0 2.512074 1_555
Si0 V2 2.512074 1_454
Si1 V3 2.512074 1_556
Si1 V1 2.512074 1_455
Si1 V2 2.512074 1_465
Si1 V0 2.512074 1_555
Si2 V3 2.441463 1_655
Si2 V1 2.452438 1_555
Si2 V2 2.651819 1_565
Si2 V2 2.651819 1_554
Si3 V2 2.441463 1_455
Si3 V0 2.452438 1_555
Si3 V3 2.651819 1_545
Si3 V3 2.651819 1_556
Si4 V1 2.441463 1_555
Si4 V3 2.452438 1_545
Si4 V0 2.651819 1_544
Si4 V0 2.651819 1_555
Si5 V0 2.441463 1_555
Si5 V2 2.452438 1_565
Si5 V1 2.651819 1_566
Si5 V1 2.651819 1_555
