# generated using pymatgen
data_Zn2CrFe3O8
_symmetry_space_group_name_H-M   'P 1'
_cell_length_a   6.03905317
_cell_length_b   6.03905317
_cell_length_c   6.03905306
_cell_angle_alpha   59.85565271
_cell_angle_beta   59.85565271
_cell_angle_gamma   59.85564919
_symmetry_Int_Tables_number   1
_chemical_formula_structural   Zn2CrFe3O8
_chemical_formula_sum   'Zn2 Cr1 Fe3 O8'
_cell_volume   155.22676255
_cell_formula_units_Z   1
loop_
 _symmetry_equiv_pos_site_id
 _symmetry_equiv_pos_as_xyz
  1  'x, y, z'
loop_
 _atom_site_type_symbol
 _atom_site_label
 _atom_site_symmetry_multiplicity
 _atom_site_fract_x
 _atom_site_fract_y
 _atom_site_fract_z
 _atom_site_occupancy
  Zn  Zn0  1  0.62526500  0.62526500  0.62526500  1
  Zn  Zn1  1  0.37473500  0.37473500  0.37473500  1
  Cr  Cr0  1  0.00000000  0.00000000  0.00000000  1
  Fe  Fe0  1  0.00000000  0.50000000  0.00000000  1
  Fe  Fe1  1  0.50000000  0.00000000  0.00000000  1
  Fe  Fe2  1  0.00000000  0.00000000  0.50000000  1
  O  O0  1  0.23978300  0.23978300  0.23978300  1
  O  O1  1  0.23872500  0.78210800  0.23872500  1
  O  O2  1  0.78210800  0.23872500  0.23872500  1
  O  O3  1  0.23872500  0.23872500  0.78210800  1
  O  O4  1  0.76021700  0.76021700  0.76021700  1
  O  O5  1  0.76127500  0.21789200  0.76127500  1
  O  O6  1  0.21789200  0.76127500  0.76127500  1
  O  O7  1  0.76127500  0.76127500  0.21789200  1
loop_
_geom_bond_atom_site_label_1
_geom_bond_atom_site_label_2
_geom_bond_distance
_geom_bond_site_symmetry_2
Cr0 O5 2.040879 1_454
Cr0 O6 2.040879 1_544
Cr0 O2 2.040879 1_455
Cr0 O1 2.040879 1_545
Cr0 O7 2.040880 1_445
Cr0 O3 2.040880 1_554
Fe0 O7 2.048131 1_455
Fe0 O3 2.048131 1_554
Fe0 O6 2.048132 1_554
Fe0 O2 2.048132 1_455
Fe0 O4 2.048974 1_454
Fe0 O0 2.048974 1_555
Fe1 O7 2.048131 1_545
Fe1 O3 2.048131 1_554
Fe1 O1 2.048132 1_545
Fe1 O5 2.048132 1_554
Fe1 O4 2.048974 1_544
Fe1 O0 2.048974 1_555
Fe2 O1 2.048131 1_545
Fe2 O2 2.048131 1_455
Fe2 O6 2.048131 1_545
Fe2 O5 2.048131 1_455
Fe2 O4 2.048974 1_445
Fe2 O0 2.048974 1_555
O0 Zn1 1.998466 1_555
O1 Zn1 2.005045 1_555
O2 Zn1 2.005045 1_555
O3 Zn1 2.005046 1_555
O4 Zn0 1.998466 1_555
O5 Zn0 2.005045 1_555
O6 Zn0 2.005045 1_555
O7 Zn0 2.005046 1_555
