# generated using pymatgen
data_Ba3YbIrRuO9
_symmetry_space_group_name_H-M   'P 1'
_cell_length_a   5.94918604
_cell_length_b   5.94912900
_cell_length_c   14.62862500
_cell_angle_alpha   90.00000000
_cell_angle_beta   90.00000000
_cell_angle_gamma   60.00032274
_symmetry_Int_Tables_number   1
_chemical_formula_structural   Ba3YbIrRuO9
_chemical_formula_sum   'Ba6 Yb2 Ir2 Ru2 O18'
_cell_volume   448.38026332
_cell_formula_units_Z   2
loop_
 _symmetry_equiv_pos_site_id
 _symmetry_equiv_pos_as_xyz
  1  'x, y, z'
loop_
 _atom_site_type_symbol
 _atom_site_label
 _atom_site_symmetry_multiplicity
 _atom_site_fract_x
 _atom_site_fract_y
 _atom_site_fract_z
 _atom_site_occupancy
  Ba  Ba0  1  0.33335000  0.33332500  0.40855300  1
  Ba  Ba1  1  0.66666200  0.66666900  0.59262300  1
  Ba  Ba2  1  0.66665000  0.66667500  0.90855300  1
  Ba  Ba3  1  0.33333800  0.33333100  0.09262300  1
  Ba  Ba4  1  0.99998800  0.00000600  0.74928800  1
  Ba  Ba5  1  0.00001200  0.99999400  0.24928800  1
  Yb  Yb0  1  0.00000200  0.99999900  0.50093200  1
  Yb  Yb1  1  0.99999800  0.00000100  0.00093200  1
  Ir  Ir0  1  0.33334000  0.33333000  0.66369200  1
  Ir  Ir1  1  0.66666000  0.66667000  0.16369200  1
  Ru  Ru0  1  0.66666100  0.66666900  0.33881300  1
  Ru  Ru1  1  0.33333900  0.33333100  0.83881300  1
  O  O0  1  0.48917200  0.02167400  0.74994600  1
  O  O1  1  0.02168800  0.48915600  0.74994700  1
  O  O2  1  0.48917200  0.48915400  0.74994600  1
  O  O3  1  0.51082800  0.97832600  0.24994600  1
  O  O4  1  0.97831200  0.51084400  0.24994700  1
  O  O5  1  0.51082800  0.51084600  0.24994600  1
  O  O6  1  0.17749400  0.64502700  0.91030900  1
  O  O7  1  0.64502500  0.17748700  0.91031400  1
  O  O8  1  0.17749400  0.17747900  0.91030900  1
  O  O9  1  0.82281000  0.35436500  0.08844300  1
  O  O10  1  0.35435900  0.82282000  0.08844200  1
  O  O11  1  0.82281000  0.82282600  0.08844300  1
  O  O12  1  0.82250600  0.35497300  0.41030900  1
  O  O13  1  0.35497500  0.82251300  0.41031400  1
  O  O14  1  0.82250600  0.82252100  0.41030900  1
  O  O15  1  0.17719000  0.64563500  0.58844300  1
  O  O16  1  0.64564100  0.17718000  0.58844200  1
  O  O17  1  0.17719000  0.17717400  0.58844300  1
loop_
_geom_bond_atom_site_label_1
_geom_bond_atom_site_label_2
_geom_bond_distance
_geom_bond_site_symmetry_2
Ba0 O5 2.954414 1_555
Ba0 O3 2.954414 1_545
Ba0 O4 2.954538 1_455
Ba0 O12 2.976674 1_555
Ba0 O14 2.976674 1_545
Ba0 O13 2.976759 1_545
Ba0 O13 2.976765 1_555
Ba0 O12 2.976914 1_455
Ba0 O14 2.976914 1_455
Ba0 O16 3.084435 1_555
Ba0 O15 3.084491 1_555
Ba0 O17 3.084493 1_555
Ba1 O2 2.939705 1_555
Ba1 O0 2.939705 1_565
Ba1 O1 2.939795 1_655
Ba1 O17 2.977125 1_565
Ba1 O15 2.977128 1_555
Ba1 O16 2.977161 1_555
Ba1 O16 2.977167 1_565
Ba1 O15 2.977261 1_655
Ba1 O17 2.977264 1_655
Ba1 O13 3.113087 1_555
Ba1 O14 3.113165 1_555
Ba1 O12 3.113165 1_555
Ba2 O2 2.954414 1_555
Ba2 O0 2.954414 1_565
Ba2 O1 2.954538 1_655
Ba2 O6 2.976674 1_555
Ba2 O8 2.976674 1_565
Ba2 O7 2.976759 1_565
Ba2 O7 2.976765 1_555
Ba2 O6 2.976914 1_655
Ba2 O8 2.976914 1_655
Ba2 O10 3.084435 1_556
Ba2 O9 3.084491 1_556
Ba2 O11 3.084493 1_556
Ba3 O5 2.939705 1_555
Ba3 O3 2.939705 1_545
Ba3 O4 2.939795 1_455
Ba3 O11 2.977125 1_545
Ba3 O9 2.977128 1_555
Ba3 O10 2.977161 1_555
Ba3 O10 2.977167 1_545
Ba3 O9 2.977261 1_455
Ba3 O11 2.977264 1_455
Ba3 O7 3.113087 1_554
Ba3 O8 3.113165 1_554
Ba3 O6 3.113165 1_554
Ba4 O0 2.976597 1_555
Ba4 O2 2.976597 1_555
Ba4 O1 2.976680 1_655
Ba4 O1 2.976680 1_645
Ba4 O0 2.976808 1_655
Ba4 O2 2.976809 1_645
Ba4 O16 2.978156 1_555
Ba4 O17 2.978206 1_655
Ba4 O15 2.978209 1_645
Ba4 O8 2.982164 1_655
Ba4 O6 2.982164 1_645
Ba4 O7 2.982182 1_555
Ba5 O3 2.976597 1_555
Ba5 O5 2.976597 1_555
Ba5 O4 2.976680 1_455
Ba5 O4 2.976680 1_465
Ba5 O3 2.976808 1_455
Ba5 O5 2.976809 1_465
Ba5 O10 2.978156 1_555
Ba5 O11 2.978206 1_455
Ba5 O9 2.978209 1_465
Ba5 O14 2.982164 1_455
Ba5 O12 2.982164 1_465
Ba5 O13 2.982182 1_555
Ir0 O15 1.949543 1_555
Ir0 O16 1.949547 1_555
Ir0 O17 1.949547 1_555
Ir0 O2 2.042134 1_555
Ir0 O0 2.042135 1_555
Ir0 O1 2.042139 1_555
Ir1 O9 1.949543 1_555
Ir1 O10 1.949547 1_555
Ir1 O11 1.949547 1_555
Ir1 O5 2.042134 1_555
Ir1 O3 2.042135 1_555
Ir1 O4 2.042139 1_555
O0 Ru1 2.065975 1_555
O1 Ru1 2.065954 1_555
O2 Ru1 2.065971 1_555
O3 Ru0 2.065975 1_555
O4 Ru0 2.065954 1_555
O5 Ru0 2.065971 1_555
O6 Ru1 1.916449 1_555
O6 Yb1 2.258806 1_466
O7 Ru1 1.916458 1_555
O7 Yb1 2.258773 1_556
O8 Ru1 1.916453 1_555
O8 Yb1 2.258806 1_456
O9 Yb1 2.229819 1_555
O10 Yb1 2.229812 1_465
O11 Yb1 2.229814 1_565
O12 Ru0 1.916449 1_555
O12 Yb0 2.258806 1_645
O13 Ru0 1.916458 1_555
O13 Yb0 2.258773 1_555
O14 Ru0 1.916453 1_555
O14 Yb0 2.258806 1_655
O15 Yb0 2.229819 1_555
O16 Yb0 2.229812 1_645
O17 Yb0 2.229814 1_545
