# generated using pymatgen
data_Tm3Ga8Rh3
_symmetry_space_group_name_H-M   'P 1'
_cell_length_a   8.12651054
_cell_length_b   8.12651054
_cell_length_c   8.12651054
_cell_angle_alpha   150.17134634
_cell_angle_beta   104.86005708
_cell_angle_gamma   82.87838411
_symmetry_Int_Tables_number   1
_chemical_formula_structural   Tm3Ga8Rh3
_chemical_formula_sum   'Tm3 Ga8 Rh3'
_cell_volume   252.54492026
_cell_formula_units_Z   1
loop_
 _symmetry_equiv_pos_site_id
 _symmetry_equiv_pos_as_xyz
  1  'x, y, z'
loop_
 _atom_site_type_symbol
 _atom_site_label
 _atom_site_symmetry_multiplicity
 _atom_site_fract_x
 _atom_site_fract_y
 _atom_site_fract_z
 _atom_site_occupancy
  Tm  Tm0  1  0.50000000  0.50000000  0.00000000  1
  Tm  Tm1  1  0.17149500  0.17149500  0.00000000  1
  Tm  Tm2  1  0.82850500  0.82850500  0.00000000  1
  Ga  Ga0  1  0.08813600  0.37431000  0.71382600  1
  Ga  Ga1  1  0.91186400  0.62569000  0.28617400  1
  Ga  Ga2  1  0.66048400  0.37431000  0.28617400  1
  Ga  Ga3  1  0.33951600  0.62569000  0.71382600  1
  Ga  Ga4  1  0.79178000  0.16429200  0.62748800  1
  Ga  Ga5  1  0.20822000  0.83570800  0.37251200  1
  Ga  Ga6  1  0.53680300  0.16429200  0.37251200  1
  Ga  Ga7  1  0.46319700  0.83570800  0.62748800  1
  Rh  Rh0  1  0.00000000  0.50000000  0.50000000  1
  Rh  Rh1  1  0.78683300  0.00000000  0.78683300  1
  Rh  Rh2  1  0.21316700  0.00000000  0.21316700  1
loop_
_geom_bond_atom_site_label_1
_geom_bond_atom_site_label_2
_geom_bond_distance
_geom_bond_site_symmetry_2
Ga0 Rh2 2.592285 1_555
Ga0 Rh2 2.592285 1_566
Ga0 Rh0 2.614474 1_555
Ga0 Ga5 2.658722 1_556
Ga0 Ga5 2.658722 1_545
Ga0 Ga4 2.698157 1_455
Ga0 Tm2 3.029235 1_445
Ga0 Tm2 3.029235 1_456
Ga0 Tm0 3.223045 1_556
Ga1 Rh1 2.592285 1_565
Ga1 Rh1 2.592285 1_554
Ga1 Rh0 2.614474 1_655
Ga1 Ga4 2.658722 1_554
Ga1 Ga4 2.658722 1_565
Ga1 Ga5 2.698157 1_655
Ga1 Tm1 3.029235 1_655
Ga1 Tm1 3.029235 1_666
Ga1 Tm0 3.223045 1_555
Ga2 Rh1 2.592285 1_554
Ga2 Rh1 2.592285 1_565
Ga2 Rh0 2.614474 1_655
Ga2 Ga7 2.658716 1_555
Ga2 Ga7 2.658719 1_544
Ga2 Ga6 2.698162 1_555
Ga2 Tm2 3.029235 1_545
Ga2 Tm2 3.029235 1_556
Ga2 Tm0 3.223045 1_555
Ga3 Rh2 2.592285 1_566
Ga3 Rh2 2.592285 1_555
Ga3 Rh0 2.614474 1_555
Ga3 Ga6 2.658716 1_555
Ga3 Ga6 2.658719 1_566
Ga3 Ga7 2.698162 1_555
Ga3 Tm1 3.029235 1_566
Ga3 Tm1 3.029235 1_555
Ga3 Tm0 3.223045 1_556
Ga4 Ga6 2.526805 1_555
Ga4 Rh1 2.549635 1_555
Ga4 Tm2 3.158166 1_545
Ga4 Tm2 3.158166 1_556
Ga4 Tm0 3.158776 1_556
Ga4 Tm0 3.158776 1_545
Ga5 Ga7 2.526805 1_555
Ga5 Rh2 2.549635 1_565
Ga5 Tm1 3.158166 1_555
Ga5 Tm1 3.158166 1_566
Ga5 Tm0 3.158776 1_555
Ga5 Tm0 3.158776 1_566
Ga6 Rh2 2.549628 1_555
Ga6 Tm2 3.158171 1_556
Ga6 Tm2 3.158173 1_545
Ga6 Tm0 3.158773 1_556
Ga6 Tm0 3.158776 1_545
Ga7 Rh1 2.549628 1_565
Ga7 Tm1 3.158171 1_555
Ga7 Tm1 3.158173 1_566
Ga7 Tm0 3.158773 1_555
Ga7 Tm0 3.158776 1_566
Rh0 Tm1 2.956476 1_566
Rh0 Tm2 2.956476 1_456
Rh0 Tm1 2.956476 1_555
Rh0 Tm2 2.956476 1_445
Rh1 Tm2 2.971312 1_546
Rh1 Tm1 2.971312 1_656
Rh2 Tm1 2.971312 1_555
Rh2 Tm2 2.971312 1_445
