# generated using pymatgen
data_Y3CBr3
_symmetry_space_group_name_H-M   'P 1'
_cell_length_a   10.70345696
_cell_length_b   10.70345695
_cell_length_c   10.70345675
_cell_angle_alpha   35.64770160
_cell_angle_beta   35.64770164
_cell_angle_gamma   35.64770031
_symmetry_Int_Tables_number   1
_chemical_formula_structural   Y3CBr3
_chemical_formula_sum   'Y6 C2 Br6'
_cell_volume   372.29644814
_cell_formula_units_Z   2
loop_
 _symmetry_equiv_pos_site_id
 _symmetry_equiv_pos_as_xyz
  1  'x, y, z'
loop_
 _atom_site_type_symbol
 _atom_site_label
 _atom_site_symmetry_multiplicity
 _atom_site_fract_x
 _atom_site_fract_y
 _atom_site_fract_z
 _atom_site_occupancy
  Y  Y0  1  0.95449634  0.60148846  0.30749567  1
  Y  Y1  1  0.60148846  0.30749567  0.95449634  1
  Y  Y2  1  0.30749567  0.95449634  0.60148846  1
  Y  Y3  1  0.69250433  0.04550366  0.39851154  1
  Y  Y4  1  0.39851154  0.69250433  0.04550366  1
  Y  Y5  1  0.04550366  0.39851154  0.69250433  1
  C  C0  1  0.66666693  0.66666693  0.66666693  1
  C  C1  1  0.33333307  0.33333307  0.33333307  1
  Br  Br0  1  0.21753849  0.56559315  0.89135473  1
  Br  Br1  1  0.56559315  0.89135473  0.21753849  1
  Br  Br2  1  0.89135473  0.21753849  0.56559315  1
  Br  Br3  1  0.10864527  0.78246151  0.43440685  1
  Br  Br4  1  0.43440685  0.10864527  0.78246151  1
  Br  Br5  1  0.78246151  0.43440685  0.10864527  1
loop_
_geom_bond_atom_site_label_1
_geom_bond_atom_site_label_2
_geom_bond_distance
_geom_bond_site_symmetry_2
C0 Y5 2.524684 1_655
C0 Y4 2.524684 1_556
C0 Y3 2.524684 1_565
C0 Y2 2.524716 1_555
C0 Y0 2.524716 1_555
C0 Y1 2.524716 1_555
C1 Y0 2.524684 1_455
C1 Y1 2.524684 1_554
C1 Y2 2.524684 1_545
C1 Y3 2.524716 1_555
C1 Y5 2.524716 1_555
C1 Y4 2.524716 1_555
Br0 Y1 2.829418 1_555
Br0 Y2 2.923975 1_555
Br0 Y0 2.925048 1_456
Br1 Y2 2.829418 1_555
Br1 Y0 2.923975 1_555
Br1 Y1 2.925048 1_564
Br2 Y0 2.829418 1_555
Br2 Y1 2.923975 1_555
Br2 Y2 2.925048 1_645
Br3 Y5 2.829418 1_555
Br3 Y4 2.923975 1_555
Br3 Y3 2.925048 1_465
Br4 Y3 2.829418 1_555
Br4 Y5 2.923975 1_555
Br4 Y4 2.925048 1_546
Br5 Y4 2.829418 1_555
Br5 Y3 2.923975 1_555
Br5 Y5 2.925048 1_654
