# generated using pymatgen
data_Yb5CdCu2
_symmetry_space_group_name_H-M   'P 1'
_cell_length_a   8.38053300
_cell_length_b   8.38053300
_cell_length_c   8.38053300
_cell_angle_alpha   125.28895404
_cell_angle_beta   125.28895404
_cell_angle_gamma   81.05997280
_symmetry_Int_Tables_number   1
_chemical_formula_structural   Yb5CdCu2
_chemical_formula_sum   'Yb10 Cd2 Cu4'
_cell_volume   377.84789314
_cell_formula_units_Z   2
loop_
 _symmetry_equiv_pos_site_id
 _symmetry_equiv_pos_as_xyz
  1  'x, y, z'
loop_
 _atom_site_type_symbol
 _atom_site_label
 _atom_site_symmetry_multiplicity
 _atom_site_fract_x
 _atom_site_fract_y
 _atom_site_fract_z
 _atom_site_occupancy
  Yb  Yb0  1  0.50000000  0.50000000  0.00000000  1
  Yb  Yb1  1  0.00000000  0.00000000  0.00000000  1
  Yb  Yb2  1  0.52105758  0.02105758  0.81966510  1
  Yb  Yb3  1  0.20139348  0.70139348  0.18033490  1
  Yb  Yb4  1  0.02105758  0.20139348  0.50000000  1
  Yb  Yb5  1  0.70139348  0.52105758  0.50000000  1
  Yb  Yb6  1  0.47894242  0.97894242  0.18033490  1
  Yb  Yb7  1  0.79860652  0.29860652  0.81966510  1
  Yb  Yb8  1  0.97894242  0.79860652  0.50000000  1
  Yb  Yb9  1  0.29860652  0.47894242  0.50000000  1
  Cd  Cd0  1  0.25000000  0.25000000  0.00000000  1
  Cd  Cd1  1  0.75000000  0.75000000  0.00000000  1
  Cu  Cu0  1  0.12725571  0.62725571  0.75451242  1
  Cu  Cu1  1  0.87274429  0.37274429  0.24548758  1
  Cu  Cu2  1  0.62725571  0.87274429  0.50000000  1
  Cu  Cu3  1  0.37274429  0.12725571  0.50000000  1
loop_
_geom_bond_atom_site_label_1
_geom_bond_atom_site_label_2
_geom_bond_distance
_geom_bond_site_symmetry_2
Cd0 Yb1 3.184879 1_555
Cd0 Yb0 3.184879 1_555
Cd0 Yb6 3.222915 1_545
Cd0 Yb2 3.222915 1_554
Cd0 Yb4 3.222920 1_554
Cd0 Yb9 3.222920 1_555
Cd0 Yb5 3.222920 1_555
Cd0 Yb8 3.222920 1_444
Cd0 Yb7 3.222921 1_454
Cd0 Yb3 3.222921 1_555
Cd1 Yb1 3.184879 1_665
Cd1 Yb0 3.184879 1_555
Cd1 Yb2 3.222915 1_564
Cd1 Yb6 3.222915 1_555
Cd1 Yb4 3.222920 1_665
Cd1 Yb9 3.222920 1_554
Cd1 Yb8 3.222920 1_555
Cd1 Yb5 3.222920 1_554
Cd1 Yb7 3.222921 1_554
Cd1 Yb3 3.222921 1_655
Cu0 Cu1 2.772177 1_455
Cu0 Yb5 2.842098 1_455
Cu0 Yb4 2.842098 1_555
Cu0 Yb8 2.842106 1_455
Cu0 Yb9 2.842106 1_555
Cu0 Yb3 2.916076 1_556
Cu0 Yb6 2.916092 1_556
Cu0 Yb0 3.033527 1_556
Cu0 Yb1 3.033527 1_566
Cu1 Yb8 2.842098 1_555
Cu1 Yb9 2.842098 1_655
Cu1 Yb4 2.842106 1_655
Cu1 Yb5 2.842106 1_555
Cu1 Yb7 2.916076 1_554
Cu1 Yb2 2.916092 1_554
Cu1 Yb1 3.033527 1_655
Cu1 Yb0 3.033527 1_555
Cu2 Cu3 2.772167 1_565
Cu2 Yb3 2.842099 1_555
Cu2 Yb7 2.842099 1_565
Cu2 Yb2 2.842107 1_565
Cu2 Yb6 2.842107 1_555
Cu2 Yb8 2.916093 1_555
Cu2 Yb5 2.916093 1_555
Cu2 Yb1 3.033529 1_666
Cu2 Yb0 3.033529 1_555
Cu3 Yb3 2.842099 1_545
Cu3 Yb7 2.842099 1_555
Cu3 Yb2 2.842107 1_555
Cu3 Yb6 2.842107 1_545
Cu3 Yb9 2.916093 1_555
Cu3 Yb4 2.916093 1_555
Cu3 Yb0 3.033529 1_556
Cu3 Yb1 3.033529 1_555
