# generated using pymatgen
data_Sr3GdRhO6
_symmetry_space_group_name_H-M   'P 1'
_cell_length_a   6.82351686
_cell_length_b   6.82351686
_cell_length_c   6.82351711
_cell_angle_alpha   91.87044572
_cell_angle_beta   91.87044572
_cell_angle_gamma   91.87044548
_symmetry_Int_Tables_number   1
_chemical_formula_structural   Sr3GdRhO6
_chemical_formula_sum   'Sr6 Gd2 Rh2 O12'
_cell_volume   317.18639398
_cell_formula_units_Z   2
loop_
 _symmetry_equiv_pos_site_id
 _symmetry_equiv_pos_as_xyz
  1  'x, y, z'
loop_
 _atom_site_type_symbol
 _atom_site_label
 _atom_site_symmetry_multiplicity
 _atom_site_fract_x
 _atom_site_fract_y
 _atom_site_fract_z
 _atom_site_occupancy
  Sr  Sr0  1  0.38064731  0.11935269  0.75000000  1
  Sr  Sr1  1  0.11935269  0.75000000  0.38064731  1
  Sr  Sr2  1  0.75000000  0.38064731  0.11935269  1
  Sr  Sr3  1  0.61935269  0.88064731  0.25000000  1
  Sr  Sr4  1  0.25000000  0.61935269  0.88064731  1
  Sr  Sr5  1  0.88064731  0.25000000  0.61935269  1
  Gd  Gd0  1  0.25000000  0.25000000  0.25000000  1
  Gd  Gd1  1  0.75000000  0.75000000  0.75000000  1
  Rh  Rh0  1  0.00000000  0.00000000  -0.00000000  1
  Rh  Rh1  1  0.50000000  0.50000000  0.50000000  1
  O  O0  1  0.08730960  0.29086284  0.95311584  1
  O  O1  1  0.95311584  0.08730960  0.29086284  1
  O  O2  1  0.29086284  0.95311584  0.08730960  1
  O  O3  1  0.41269040  0.54688416  0.20913716  1
  O  O4  1  0.20913716  0.41269040  0.54688416  1
  O  O5  1  0.54688416  0.20913716  0.41269040  1
  O  O6  1  0.91269040  0.70913716  0.04688416  1
  O  O7  1  0.04688416  0.91269040  0.70913716  1
  O  O8  1  0.70913716  0.04688416  0.91269040  1
  O  O9  1  0.58730960  0.45311584  0.79086284  1
  O  O10  1  0.45311584  0.79086284  0.58730960  1
  O  O11  1  0.79086284  0.58730960  0.45311584  1
loop_
_geom_bond_atom_site_label_1
_geom_bond_atom_site_label_2
_geom_bond_distance
_geom_bond_site_symmetry_2
Gd0 O1 2.307429 1_455
Gd0 O3 2.307429 1_555
Gd0 O5 2.307429 1_555
Gd0 O2 2.307429 1_545
Gd0 O4 2.307429 1_555
Gd0 O0 2.307429 1_554
Gd1 O9 2.307429 1_555
Gd1 O7 2.307429 1_655
Gd1 O10 2.307429 1_555
Gd1 O8 2.307429 1_565
Gd1 O11 2.307429 1_555
Gd1 O6 2.307429 1_556
O0 Rh0 2.091182 1_556
O0 Sr4 2.539049 1_555
O0 Sr5 2.641262 1_455
O0 Sr2 2.678930 1_456
O0 Sr0 2.743176 1_555
O1 Rh0 2.091182 1_655
O1 Sr5 2.539049 1_555
O1 Sr3 2.641262 1_545
O1 Sr1 2.678930 1_645
O1 Sr2 2.743176 1_555
O2 Rh0 2.091182 1_565
O2 Sr3 2.539049 1_555
O2 Sr4 2.641262 1_554
O2 Sr0 2.678931 1_564
O2 Sr1 2.743176 1_555
O3 Rh1 2.091182 1_555
O3 Sr4 2.539049 1_554
O3 Sr3 2.641262 1_555
O3 Sr2 2.678930 1_555
O3 Sr1 2.743176 1_555
O4 Rh1 2.091182 1_555
O4 Sr5 2.539049 1_455
O4 Sr4 2.641262 1_555
O4 Sr1 2.678930 1_555
O4 Sr0 2.743176 1_555
O5 Rh1 2.091182 1_555
O5 Sr3 2.539049 1_545
O5 Sr5 2.641262 1_555
O5 Sr0 2.678931 1_555
O5 Sr2 2.743176 1_555
O6 Rh0 2.091182 1_665
O6 Sr2 2.539049 1_555
O6 Sr1 2.641262 1_655
O6 Sr4 2.678930 1_654
O6 Sr3 2.743176 1_555
O7 Rh0 2.091182 1_566
O7 Sr1 2.539049 1_555
O7 Sr0 2.641262 1_565
O7 Sr5 2.678930 1_465
O7 Sr4 2.743176 1_555
O8 Rh0 2.091182 1_656
O8 Sr0 2.539049 1_555
O8 Sr2 2.641262 1_556
O8 Sr3 2.678931 1_546
O8 Sr5 2.743176 1_555
O9 Rh1 2.091182 1_555
O9 Sr2 2.539049 1_556
O9 Sr0 2.641262 1_555
O9 Sr4 2.678930 1_555
O9 Sr5 2.743176 1_555
O10 Rh1 2.091182 1_555
O10 Sr0 2.539049 1_565
O10 Sr1 2.641262 1_555
O10 Sr3 2.678931 1_555
O10 Sr4 2.743176 1_555
O11 Rh1 2.091182 1_555
O11 Sr1 2.539049 1_655
O11 Sr2 2.641262 1_555
O11 Sr5 2.678930 1_555
O11 Sr3 2.743176 1_555
