# generated using pymatgen
data_BaLaAgTe3
_symmetry_space_group_name_H-M   'P 1'
_cell_length_a   7.96477140
_cell_length_b   7.96477140
_cell_length_c   11.88845300
_cell_angle_alpha   90.00000000
_cell_angle_beta   90.00000000
_cell_angle_gamma   146.19403818
_symmetry_Int_Tables_number   1
_chemical_formula_structural   BaLaAgTe3
_chemical_formula_sum   'Ba2 La2 Ag2 Te6'
_cell_volume   419.60930424
_cell_formula_units_Z   2
loop_
 _symmetry_equiv_pos_site_id
 _symmetry_equiv_pos_as_xyz
  1  'x, y, z'
loop_
 _atom_site_type_symbol
 _atom_site_label
 _atom_site_symmetry_multiplicity
 _atom_site_fract_x
 _atom_site_fract_y
 _atom_site_fract_z
 _atom_site_occupancy
  Ba  Ba0  1  0.24999500  0.75000500  0.25000000  1
  Ba  Ba1  1  0.75000500  0.24999500  0.75000000  1
  La  La0  1  0.00000000  0.00000000  0.00000000  1
  La  La1  1  0.00000000  0.00000000  0.50000000  1
  Ag  Ag0  1  0.53300100  0.46699900  0.25000000  1
  Ag  Ag1  1  0.46699900  0.53300100  0.75000000  1
  Te  Te0  1  0.64260000  0.35740000  0.05968200  1
  Te  Te1  1  0.35740000  0.64260000  0.94031800  1
  Te  Te2  1  0.35740000  0.64260000  0.55968200  1
  Te  Te3  1  0.64260000  0.35740000  0.44031800  1
  Te  Te4  1  0.92154700  0.07845300  0.25000000  1
  Te  Te5  1  0.07845300  0.92154700  0.75000000  1
loop_
_geom_bond_atom_site_label_1
_geom_bond_atom_site_label_2
_geom_bond_distance
_geom_bond_site_symmetry_2
Ba0 Te4 3.492762 1_455
Ba0 Te4 3.492762 1_565
Ba0 Te3 3.627860 1_455
Ba0 Te0 3.627860 1_455
Ba0 Te0 3.627860 1_565
Ba0 Te3 3.627860 1_565
Ba0 Te2 4.029173 1_555
Ba0 Te1 4.029173 1_554
Ba1 Te5 3.492762 1_545
Ba1 Te5 3.492762 1_655
Ba1 Te1 3.627860 1_545
Ba1 Te2 3.627860 1_545
Ba1 Te2 3.627860 1_655
Ba1 Te1 3.627860 1_655
Ba1 Te3 4.029173 1_555
Ba1 Te0 4.029173 1_556
La0 Te4 3.203627 1_455
La0 Te5 3.203627 1_544
La0 Te1 3.254225 1_554
La0 Te0 3.254225 1_445
La0 Te0 3.254225 1_555
La0 Te1 3.254225 1_444
La1 Te4 3.203627 1_455
La1 Te5 3.203627 1_545
La1 Te2 3.254225 1_555
La1 Te2 3.254225 1_445
La1 Te3 3.254225 1_555
La1 Te3 3.254225 1_445
Ag0 Te3 2.812412 1_555
Ag0 Te0 2.812412 1_555
Ag0 Te4 2.872007 1_455
Ag0 Te4 2.872007 1_565
Ag0 Ba0 4.037441 1_655
Ag0 Ba0 4.037441 1_545
Ag1 Te2 2.812412 1_555
Ag1 Te1 2.812412 1_555
Ag1 Te5 2.872007 1_545
Ag1 Te5 2.872007 1_655
Ag1 Ba1 4.037441 1_565
Ag1 Ba1 4.037441 1_455
