# generated using pymatgen
data_Ge(SbTe2)2
_symmetry_space_group_name_H-M   'P 1'
_cell_length_a   15.06204892
_cell_length_b   15.06204892
_cell_length_c   15.06204967
_cell_angle_alpha   16.34373727
_cell_angle_beta   16.34373727
_cell_angle_gamma   16.34373661
_symmetry_Int_Tables_number   1
_chemical_formula_structural   Ge(SbTe2)2
_chemical_formula_sum   'Ge1 Sb2 Te4'
_cell_volume   235.91924788
_cell_formula_units_Z   1
loop_
 _symmetry_equiv_pos_site_id
 _symmetry_equiv_pos_as_xyz
  1  'x, y, z'
loop_
 _atom_site_type_symbol
 _atom_site_label
 _atom_site_symmetry_multiplicity
 _atom_site_fract_x
 _atom_site_fract_y
 _atom_site_fract_z
 _atom_site_occupancy
  Ge  Ge0  1  0.38141100  0.38141100  0.38141100  1
  Sb  Sb0  1  0.87089400  0.87089400  0.87089400  1
  Sb  Sb1  1  0.62757300  0.62757300  0.62757300  1
  Te  Te0  1  0.49889800  0.49889800  0.49889800  1
  Te  Te1  1  0.24974500  0.24974500  0.24974500  1
  Te  Te2  1  0.00002600  0.00002600  0.00002600  1
  Te  Te3  1  0.74645200  0.74645200  0.74645200  1
loop_
_geom_bond_atom_site_label_1
_geom_bond_atom_site_label_2
_geom_bond_distance
_geom_bond_site_symmetry_2
Ge0 Te3 2.847648 1_554
Ge0 Te3 2.847648 1_455
Ge0 Te3 2.847648 1_545
Ge0 Te2 3.270939 1_556
Ge0 Te2 3.270940 1_565
Ge0 Te2 3.270940 1_655
Sb0 Te0 3.013550 1_556
Sb0 Te0 3.013550 1_565
Sb0 Te0 3.013550 1_655
Sb0 Te1 3.198119 1_665
Sb0 Te1 3.198120 1_566
Sb0 Te1 3.198120 1_656
Sb1 Te2 3.025245 1_665
Sb1 Te2 3.025245 1_566
Sb1 Te2 3.025245 1_656
Sb1 Te1 3.169388 1_556
Sb1 Te1 3.169388 1_565
Sb1 Te1 3.169388 1_655
