# generated using pymatgen
data_Li3Ni3TeO8
_symmetry_space_group_name_H-M   'P 1'
_cell_length_a   6.02351373
_cell_length_b   6.02351373
_cell_length_c   6.02351360
_cell_angle_alpha   59.73720935
_cell_angle_beta   59.73720935
_cell_angle_gamma   59.73720896
_symmetry_Int_Tables_number   1
_chemical_formula_structural   Li3Ni3TeO8
_chemical_formula_sum   'Li3 Ni3 Te1 O8'
_cell_volume   153.61552781
_cell_formula_units_Z   1
loop_
 _symmetry_equiv_pos_site_id
 _symmetry_equiv_pos_as_xyz
  1  'x, y, z'
loop_
 _atom_site_type_symbol
 _atom_site_label
 _atom_site_symmetry_multiplicity
 _atom_site_fract_x
 _atom_site_fract_y
 _atom_site_fract_z
 _atom_site_occupancy
  Li  Li0  1  0.00000000  0.00000000  0.50000000  1
  Li  Li1  1  0.00000000  0.50000000  0.00000000  1
  Li  Li2  1  0.50000000  0.00000000  0.00000000  1
  Ni  Ni0  1  0.50000000  0.50000000  0.00000000  1
  Ni  Ni1  1  0.50000000  0.00000000  0.50000000  1
  Ni  Ni2  1  0.00000000  0.50000000  0.50000000  1
  Te  Te0  1  0.00000000  0.00000000  0.00000000  1
  O  O0  1  0.73715700  0.73715700  0.73715700  1
  O  O1  1  0.22937300  0.22937300  0.76646800  1
  O  O2  1  0.22937300  0.76646800  0.22937300  1
  O  O3  1  0.26284300  0.26284300  0.26284300  1
  O  O4  1  0.76646800  0.22937300  0.22937300  1
  O  O5  1  0.77062700  0.77062700  0.23353200  1
  O  O6  1  0.77062700  0.23353200  0.77062700  1
  O  O7  1  0.23353200  0.77062700  0.77062700  1
loop_
_geom_bond_atom_site_label_1
_geom_bond_atom_site_label_2
_geom_bond_distance
_geom_bond_site_symmetry_2
Li0 O7 2.151092 1_545
Li0 O6 2.151092 1_455
Li0 O4 2.151092 1_455
Li0 O2 2.151092 1_545
Li0 O3 2.240809 1_555
Li0 O0 2.240809 1_445
Li1 O5 2.151092 1_455
Li1 O1 2.151092 1_554
Li1 O7 2.151092 1_554
Li1 O4 2.151092 1_455
Li1 O3 2.240809 1_555
Li1 O0 2.240809 1_454
Li2 O5 2.151092 1_545
Li2 O1 2.151092 1_554
Li2 O6 2.151092 1_554
Li2 O2 2.151092 1_545
Li2 O3 2.240809 1_555
Li2 O0 2.240809 1_544
Ni0 O0 2.021280 1_554
Ni0 O3 2.021280 1_555
Ni0 O2 2.114322 1_555
Ni0 O4 2.114322 1_555
Ni0 O7 2.114322 1_554
Ni0 O6 2.114322 1_554
Ni1 O0 2.021280 1_545
Ni1 O3 2.021280 1_555
Ni1 O1 2.114322 1_555
Ni1 O5 2.114322 1_545
Ni1 O4 2.114322 1_555
Ni1 O7 2.114322 1_545
Ni2 O0 2.021280 1_455
Ni2 O3 2.021280 1_555
Ni2 O1 2.114322 1_555
Ni2 O5 2.114322 1_455
Ni2 O2 2.114322 1_555
Ni2 O6 2.114322 1_455
O1 Te0 1.950063 1_556
O2 Te0 1.950063 1_565
O4 Te0 1.950063 1_655
O5 Te0 1.950063 1_665
O6 Te0 1.950063 1_656
O7 Te0 1.950063 1_566
