# generated using pymatgen
data_KMg6WO8
_symmetry_space_group_name_H-M   'P 1'
_cell_length_a   8.96777234
_cell_length_b   4.47747452
_cell_length_c   4.47747452
_cell_angle_alpha   90.00000000
_cell_angle_beta   90.00000000
_cell_angle_gamma   90.00000000
_symmetry_Int_Tables_number   1
_chemical_formula_structural   KMg6WO8
_chemical_formula_sum   'K1 Mg6 W1 O8'
_cell_volume   179.78390972
_cell_formula_units_Z   1
loop_
 _symmetry_equiv_pos_site_id
 _symmetry_equiv_pos_as_xyz
  1  'x, y, z'
loop_
 _atom_site_type_symbol
 _atom_site_label
 _atom_site_symmetry_multiplicity
 _atom_site_fract_x
 _atom_site_fract_y
 _atom_site_fract_z
 _atom_site_occupancy
  K  K0  1  -0.00000000  0.00000000  0.00000000  1
  Mg  Mg0  1  -0.00000000  0.50000000  0.50000000  1
  Mg  Mg1  1  0.50000000  0.50000000  0.50000000  1
  Mg  Mg2  1  0.23426547  0.00000000  0.50000000  1
  Mg  Mg3  1  0.76573453  -0.00000000  0.50000000  1
  Mg  Mg4  1  0.23426547  0.50000000  0.00000000  1
  Mg  Mg5  1  0.76573453  0.50000000  -0.00000000  1
  W  W0  1  0.50000000  0.00000000  0.00000000  1
  O  O0  1  0.26655792  0.00000000  -0.00000000  1
  O  O1  1  0.73344208  0.00000000  0.00000000  1
  O  O2  1  0.25460812  0.50000000  0.50000000  1
  O  O3  1  0.74539188  0.50000000  0.50000000  1
  O  O4  1  -0.00000000  0.00000000  0.50000000  1
  O  O5  1  0.50000000  0.00000000  0.50000000  1
  O  O6  1  -0.00000000  0.50000000  0.00000000  1
  O  O7  1  0.50000000  0.50000000  0.00000000  1
loop_
_geom_bond_atom_site_label_1
_geom_bond_atom_site_label_2
_geom_bond_distance
_geom_bond_site_symmetry_2
K0 O4 2.238737 1_555
K0 O4 2.238737 1_554
K0 O6 2.238737 1_545
K0 O6 2.238737 1_555
K0 O0 2.390431 1_555
K0 O1 2.390431 1_455
Mg0 O4 2.238737 1_555
Mg0 O4 2.238737 1_565
Mg0 O6 2.238737 1_556
Mg0 O6 2.238737 1_555
Mg0 O3 2.283268 1_455
Mg0 O2 2.283268 1_555
Mg1 O2 2.200619 1_555
Mg1 O3 2.200619 1_555
Mg1 O7 2.238737 1_555
Mg1 O7 2.238737 1_556
Mg1 O5 2.238737 1_555
Mg1 O5 2.238737 1_565
Mg2 O4 2.100839 1_555
Mg2 O2 2.246158 1_555
Mg2 O2 2.246158 1_545
Mg2 O0 2.257390 1_555
Mg2 O0 2.257390 1_556
Mg2 O5 2.383047 1_555
Mg3 O4 2.100839 1_655
Mg3 O3 2.246158 1_545
Mg3 O3 2.246158 1_555
Mg3 O1 2.257390 1_555
Mg3 O1 2.257390 1_556
Mg3 O5 2.383047 1_555
Mg4 O6 2.100839 1_555
Mg4 O2 2.246158 1_554
Mg4 O2 2.246158 1_555
Mg4 O0 2.257390 1_555
Mg4 O0 2.257390 1_565
Mg4 O7 2.383047 1_555
Mg5 O6 2.100839 1_655
Mg5 O3 2.246158 1_554
Mg5 O3 2.246158 1_555
Mg5 O1 2.257390 1_555
Mg5 O1 2.257390 1_565
Mg5 O7 2.383047 1_555
O0 W0 2.093455 1_555
O1 W0 2.093455 1_555
O5 W0 2.238737 1_555
O5 W0 2.238737 1_556
O7 W0 2.238737 1_555
O7 W0 2.238737 1_565
