# generated using pymatgen
data_BaHfS3
_symmetry_space_group_name_H-M   'P 1'
_cell_length_a   7.01916792
_cell_length_b   7.04466639
_cell_length_c   9.97598706
_cell_angle_alpha   90.00000000
_cell_angle_beta   90.00000000
_cell_angle_gamma   90.00000000
_symmetry_Int_Tables_number   1
_chemical_formula_structural   BaHfS3
_chemical_formula_sum   'Ba4 Hf4 S12'
_cell_volume   493.28957875
_cell_formula_units_Z   4
loop_
 _symmetry_equiv_pos_site_id
 _symmetry_equiv_pos_as_xyz
  1  'x, y, z'
loop_
 _atom_site_type_symbol
 _atom_site_label
 _atom_site_symmetry_multiplicity
 _atom_site_fract_x
 _atom_site_fract_y
 _atom_site_fract_z
 _atom_site_occupancy
  Ba  Ba0  1  0.49298446  0.53714955  0.25000000  1
  Ba  Ba1  1  0.00701554  0.03714955  0.25000000  1
  Ba  Ba2  1  0.50701554  0.46285045  0.75000000  1
  Ba  Ba3  1  0.99298446  0.96285045  0.75000000  1
  Hf  Hf0  1  0.00000000  0.50000000  0.00000000  1
  Hf  Hf1  1  0.50000000  0.00000000  0.50000000  1
  Hf  Hf2  1  0.00000000  0.50000000  0.50000000  1
  Hf  Hf3  1  0.50000000  0.00000000  0.00000000  1
  S  S0  1  0.94683129  0.49781956  0.25000000  1
  S  S1  1  0.55316871  0.99781956  0.25000000  1
  S  S2  1  0.05316871  0.50218044  0.75000000  1
  S  S3  1  0.44683129  0.00218044  0.75000000  1
  S  S4  1  0.71625125  0.71581474  0.97242793  1
  S  S5  1  0.78374875  0.21581474  0.52757207  1
  S  S6  1  0.28374875  0.28418526  0.47242793  1
  S  S7  1  0.21625125  0.78418526  0.02757207  1
  S  S8  1  0.28374875  0.28418526  0.02757207  1
  S  S9  1  0.21625125  0.78418526  0.47242793  1
  S  S10  1  0.71625125  0.71581474  0.52757207  1
  S  S11  1  0.78374875  0.21581474  0.97242793  1
loop_
_geom_bond_atom_site_label_1
_geom_bond_atom_site_label_2
_geom_bond_distance
_geom_bond_site_symmetry_2
Ba0 S0 3.197653 1_555
Ba0 S6 3.202554 1_555
Ba0 S8 3.202554 1_555
Ba0 S1 3.272646 1_555
Ba0 S10 3.421664 1_555
Ba0 S4 3.421664 1_554
Ba0 S9 3.424228 1_555
Ba0 S7 3.424228 1_555
Ba1 S1 3.197653 1_445
Ba1 S7 3.202554 1_545
Ba1 S9 3.202554 1_545
Ba1 S0 3.272646 1_455
Ba1 S11 3.421664 1_454
Ba1 S5 3.421664 1_455
Ba1 S8 3.424228 1_555
Ba1 S6 3.424228 1_555
Ba2 S2 3.197653 1_555
Ba2 S10 3.202554 1_555
Ba2 S4 3.202554 1_555
Ba2 S3 3.272646 1_555
Ba2 S8 3.421664 1_556
Ba2 S6 3.421664 1_555
Ba2 S11 3.424228 1_555
Ba2 S5 3.424228 1_555
Ba3 S3 3.197653 1_665
Ba3 S5 3.202554 1_565
Ba3 S11 3.202554 1_565
Ba3 S2 3.272646 1_655
Ba3 S7 3.421664 1_656
Ba3 S9 3.421664 1_655
Ba3 S10 3.424228 1_555
Ba3 S4 3.424228 1_555
Hf0 S4 2.520692 1_454
Hf0 S8 2.520692 1_555
Hf0 S2 2.521812 1_554
Hf0 S0 2.521812 1_455
Hf0 S11 2.527381 1_454
Hf0 S7 2.527381 1_555
Hf1 S5 2.520692 1_555
Hf1 S9 2.520692 1_545
Hf1 S1 2.521812 1_545
Hf1 S3 2.521812 1_555
Hf1 S10 2.527381 1_545
Hf1 S6 2.527381 1_555
Hf2 S10 2.520692 1_455
Hf2 S6 2.520692 1_555
Hf2 S2 2.521812 1_555
Hf2 S0 2.521812 1_455
Hf2 S5 2.527381 1_455
Hf2 S9 2.527381 1_555
Hf3 S7 2.520692 1_545
Hf3 S11 2.520692 1_554
Hf3 S1 2.521812 1_545
Hf3 S3 2.521812 1_554
Hf3 S8 2.527381 1_555
Hf3 S4 2.527381 1_544
