# generated using pymatgen
data_LiCeSi2
_symmetry_space_group_name_H-M   'P 1'
_cell_length_a   3.88861869
_cell_length_b   7.75775569
_cell_length_c   10.56184520
_cell_angle_alpha   90.00170809
_cell_angle_beta   90.00000000
_cell_angle_gamma   90.00000000
_symmetry_Int_Tables_number   1
_chemical_formula_structural   LiCeSi2
_chemical_formula_sum   'Li4 Ce4 Si8'
_cell_volume   318.61869579
_cell_formula_units_Z   4
loop_
 _symmetry_equiv_pos_site_id
 _symmetry_equiv_pos_as_xyz
  1  'x, y, z'
loop_
 _atom_site_type_symbol
 _atom_site_label
 _atom_site_symmetry_multiplicity
 _atom_site_fract_x
 _atom_site_fract_y
 _atom_site_fract_z
 _atom_site_occupancy
  Li  Li0  1  0.25000000  0.99533279  0.39084083  1
  Li  Li1  1  0.25000000  0.49533371  0.10932022  1
  Li  Li2  1  0.75000000  0.00469635  0.60913150  1
  Li  Li3  1  0.75000000  0.50463472  0.89066755  1
  Ce  Ce0  1  0.25000000  0.13765533  0.86620244  1
  Ce  Ce1  1  0.25000000  0.63760121  0.63377818  1
  Ce  Ce2  1  0.75000000  0.86240653  0.13378207  1
  Ce  Ce3  1  0.75000000  0.36234138  0.36623378  1
  Si  Si0  1  0.25000000  0.23014912  0.57326315  1
  Si  Si1  1  0.25000000  0.73018692  0.92675926  1
  Si  Si2  1  0.75000000  0.76981062  0.42674544  1
  Si  Si3  1  0.75000000  0.26987682  0.07324159  1
  Si  Si4  1  0.25000000  0.66534421  0.32085495  1
  Si  Si5  1  0.25000000  0.16542858  0.17913956  1
  Si  Si6  1  0.75000000  0.33458996  0.67916782  1
  Si  Si7  1  0.75000000  0.83461177  0.82087366  1
loop_
_geom_bond_atom_site_label_1
_geom_bond_atom_site_label_2
_geom_bond_distance
_geom_bond_site_symmetry_2
Li0 Si5 2.596328 1_565
Li0 Si2 2.642933 1_455
Li0 Si2 2.642933 1_555
Li0 Si0 2.651495 1_565
Li0 Si4 2.664531 1_555
Li1 Si4 2.594409 1_555
Li1 Si3 2.642847 1_455
Li1 Si3 2.642847 1_555
Li1 Si1 2.652835 1_554
Li1 Si5 2.663464 1_555
Li2 Si7 2.596656 1_545
Li2 Si0 2.642522 1_655
Li2 Si0 2.642522 1_555
Li2 Si2 2.651587 1_545
Li2 Si6 2.663971 1_555
Li3 Si6 2.594226 1_555
Li3 Si1 2.643357 1_555
Li3 Si1 2.643357 1_655
Li3 Si3 2.652428 1_556
Li3 Si7 2.663925 1_555
Ce0 Si7 3.088104 1_445
Ce0 Si7 3.088104 1_545
Ce0 Si3 3.100657 1_456
Ce0 Si3 3.100657 1_556
Ce0 Si6 3.164953 1_555
Ce0 Si6 3.164953 1_455
Ce0 Si0 3.176116 1_555
Ce0 Si1 3.225116 1_545
Ce0 Si5 3.312202 1_556
Ce1 Si6 3.088035 1_555
Ce1 Si6 3.088035 1_455
Ce1 Si2 3.100622 1_455
Ce1 Si2 3.100622 1_555
Ce1 Si7 3.165582 1_455
Ce1 Si7 3.165582 1_555
Ce1 Si1 3.176665 1_555
Ce1 Si0 3.224867 1_555
Ce1 Si4 3.312053 1_555
Ce2 Si5 3.088024 1_665
Ce2 Si5 3.088024 1_565
Ce2 Si1 3.100531 1_554
Ce2 Si1 3.100531 1_654
Ce2 Si4 3.165684 1_555
Ce2 Si4 3.165684 1_655
Ce2 Si2 3.176543 1_555
Ce2 Si3 3.225096 1_565
Ce2 Si7 3.311910 1_554
Ce3 Si4 3.087967 1_555
Ce3 Si4 3.087967 1_655
Ce3 Si0 3.100553 1_655
Ce3 Si0 3.100553 1_555
Ce3 Si5 3.165208 1_555
Ce3 Si5 3.165208 1_655
Ce3 Si3 3.176567 1_555
Ce3 Si2 3.224991 1_555
Ce3 Si6 3.312172 1_555
Si0 Si6 2.384933 1_555
Si0 Si6 2.384933 1_455
Si1 Si7 2.384819 1_555
Si1 Si7 2.384819 1_455
Si2 Si4 2.384930 1_655
Si2 Si4 2.384930 1_555
Si3 Si5 2.384941 1_655
Si3 Si5 2.384941 1_555
