# generated using pymatgen
data_Ca(CoO2)2
_symmetry_space_group_name_H-M   'P 1'
_cell_length_a   6.18713519
_cell_length_b   6.18713519
_cell_length_c   6.18713519
_cell_angle_alpha   120.43359324
_cell_angle_beta   119.57090551
_cell_angle_gamma   89.99772777
_symmetry_Int_Tables_number   1
_chemical_formula_structural   Ca(CoO2)2
_chemical_formula_sum   'Ca2 Co4 O8'
_cell_volume   167.45891842
_cell_formula_units_Z   2
loop_
 _symmetry_equiv_pos_site_id
 _symmetry_equiv_pos_as_xyz
  1  'x, y, z'
loop_
 _atom_site_type_symbol
 _atom_site_label
 _atom_site_symmetry_multiplicity
 _atom_site_fract_x
 _atom_site_fract_y
 _atom_site_fract_z
 _atom_site_occupancy
  Ca  Ca0  1  0.00000000  0.50000000  0.50000000  1
  Ca  Ca1  1  0.50000000  0.50000000  0.00000000  1
  Co  Co0  1  0.13587600  0.88587600  0.25000000  1
  Co  Co1  1  0.86412400  0.11412400  0.75000000  1
  Co  Co2  1  0.50000000  0.00000000  0.00000000  1
  Co  Co3  1  0.50000000  0.50000000  0.50000000  1
  O  O0  1  0.72627800  0.21035800  0.98408000  1
  O  O1  1  0.72804900  0.23927800  0.48877100  1
  O  O2  1  0.72627800  0.74219900  0.51592000  1
  O  O3  1  0.25050700  0.23927800  0.01122900  1
  O  O4  1  0.74949300  0.76072200  0.98877100  1
  O  O5  1  0.27195100  0.76072200  0.51122900  1
  O  O6  1  0.27372200  0.25780100  0.48408000  1
  O  O7  1  0.27372200  0.78964200  0.01592000  1
loop_
_geom_bond_atom_site_label_1
_geom_bond_atom_site_label_2
_geom_bond_distance
_geom_bond_site_symmetry_2
Ca0 O7 2.266777 1_556
Ca0 O0 2.266777 1_454
Ca0 O6 2.266781 1_555
Ca0 O2 2.266781 1_455
Ca0 O5 2.282416 1_555
Ca0 O1 2.282416 1_455
Ca1 O6 2.266777 1_554
Ca1 O2 2.266777 1_555
Ca1 O7 2.266777 1_555
Ca1 O0 2.266777 1_554
Ca1 O3 2.282416 1_555
Ca1 O4 2.282416 1_554
Co0 O6 1.877476 1_565
Co0 O7 1.877481 1_555
Co0 O5 1.960999 1_555
Co0 O4 1.960999 1_454
Co1 O2 1.877476 1_545
Co1 O0 1.877481 1_555
Co1 O1 1.960999 1_555
Co1 O3 1.960999 1_656
Co2 O0 1.982373 1_554
Co2 O7 1.982373 1_545
Co2 O5 2.140295 1_544
Co2 O4 2.140295 1_544
Co2 O1 2.140295 1_555
Co2 O3 2.140295 1_555
Co3 O6 1.982377 1_555
Co3 O2 1.982377 1_555
Co3 O4 2.140295 1_555
Co3 O5 2.140295 1_555
Co3 O1 2.140295 1_555
Co3 O3 2.140295 1_555
