# generated using pymatgen
data_La5Sm3VCr7O20
_symmetry_space_group_name_H-M   'P 1'
_cell_length_a   11.03746008
_cell_length_b   11.48266102
_cell_length_c   17.73626245
_cell_angle_alpha   108.53865052
_cell_angle_beta   108.07246423
_cell_angle_gamma   90.75746909
_symmetry_Int_Tables_number   1
_chemical_formula_structural   La5Sm3VCr7O20
_chemical_formula_sum   'La20 Sm12 V4 Cr28 O80'
_cell_volume   2010.43318287
_cell_formula_units_Z   4
loop_
 _symmetry_equiv_pos_site_id
 _symmetry_equiv_pos_as_xyz
  1  'x, y, z'
loop_
 _atom_site_type_symbol
 _atom_site_label
 _atom_site_symmetry_multiplicity
 _atom_site_fract_x
 _atom_site_fract_y
 _atom_site_fract_z
 _atom_site_occupancy
  La  La0  1  0.31095597  0.06021270  0.61553821  1
  La  La1  1  0.31115483  0.56433244  0.61723138  1
  La  La2  1  0.81175058  0.06343468  0.61792762  1
  La  La3  1  0.81142126  0.56420945  0.61898631  1
  La  La4  1  0.19252726  0.43557531  0.38207826  1
  La  La5  1  0.18592943  0.43819784  0.88410721  1
  La  La6  1  0.19448393  0.93633261  0.38284037  1
  La  La7  1  0.68968728  0.43615166  0.38074668  1
  La  La8  1  0.69158369  0.93629235  0.38124838  1
  La  La9  1  0.05766200  0.30697479  0.11976363  1
  La  La10  1  0.05661544  0.30030346  0.61492858  1
  La  La11  1  0.05732119  0.80804262  0.61775368  1
  La  La12  1  0.56271279  0.30329884  0.61765449  1
  La  La13  1  0.44067816  0.19527899  0.37959458  1
  La  La14  1  0.44748640  0.19393118  0.88548291  1
  La  La15  1  0.43984346  0.69264710  0.37860904  1
  La  La16  1  0.44278869  0.69436576  0.88196554  1
  La  La17  1  0.94128995  0.19692060  0.38098984  1
  La  La18  1  0.94224386  0.19381722  0.88245091  1
  La  La19  1  0.94492988  0.69349218  0.38245000  1
  Sm  Sm0  1  0.30668111  0.06365821  0.11467480  1
  Sm  Sm1  1  0.30655302  0.56265438  0.11569995  1
  Sm  Sm2  1  0.80116874  0.06285601  0.11262514  1
  Sm  Sm3  1  0.79955132  0.56132620  0.11456701  1
  Sm  Sm4  1  0.18931263  0.94118229  0.88674393  1
  Sm  Sm5  1  0.69787333  0.43643974  0.88891738  1
  Sm  Sm6  1  0.69436260  0.93754128  0.88407325  1
  Sm  Sm7  1  0.05533295  0.80004511  0.11210315  1
  Sm  Sm8  1  0.55432064  0.30311505  0.11635552  1
  Sm  Sm9  1  0.55051930  0.80330312  0.11495846  1
  Sm  Sm10  1  0.56139769  0.80029744  0.61340960  1
  Sm  Sm11  1  0.93993416  0.69657560  0.88379483  1
  V  V0  1  0.11929292  0.62066443  0.75252625  1
  V  V1  1  0.36032474  0.38807873  0.75208571  1
  V  V2  1  0.35972693  0.88244327  0.75054153  1
  V  V3  1  0.86149281  0.88782538  0.24556929  1
  Cr  Cr0  1  0.00655526  0.99807620  0.00089048  1
  Cr  Cr1  1  0.00381357  0.99749764  0.49739649  1
  Cr  Cr2  1  0.00533180  0.50456750  0.00281954  1
  Cr  Cr3  1  0.00434776  0.50143814  0.50122880  1
  Cr  Cr4  1  0.50691899  0.99619683  0.99852139  1
  Cr  Cr5  1  0.50570264  0.99898883  0.49990775  1
  Cr  Cr6  1  0.50511355  0.50130333  0.00075839  1
  Cr  Cr7  1  0.50522836  0.50128846  0.50122139  1
  Cr  Cr8  1  0.25690960  0.25033363  0.00120021  1
  Cr  Cr9  1  0.25543995  0.25036487  0.50098094  1
  Cr  Cr10  1  0.25420134  0.75167976  0.00021021  1
  Cr  Cr11  1  0.25888203  0.74977837  0.50201925  1
  Cr  Cr12  1  0.75702255  0.25028116  0.00146990  1
  Cr  Cr13  1  0.75285631  0.24988624  0.49844124  1
  Cr  Cr14  1  0.75712088  0.75057274  0.00169341  1
  Cr  Cr15  1  0.75299849  0.74968204  0.49935862  1
  Cr  Cr16  1  0.11744850  0.11766072  0.24790724  1
  Cr  Cr17  1  0.12740970  0.12708534  0.75130162  1
  Cr  Cr18  1  0.11877471  0.62418724  0.24874655  1
  Cr  Cr19  1  0.61931019  0.12061383  0.24669219  1
  Cr  Cr20  1  0.61820641  0.11729324  0.75059314  1
  Cr  Cr21  1  0.62335589  0.62466054  0.24788278  1
  Cr  Cr22  1  0.62169288  0.62097056  0.75248237  1
  Cr  Cr23  1  0.37247125  0.37863709  0.24872156  1
  Cr  Cr24  1  0.36427541  0.87838700  0.24741906  1
  Cr  Cr25  1  0.86729393  0.37934848  0.24879760  1
  Cr  Cr26  1  0.86774927  0.37840171  0.75195834  1
  Cr  Cr27  1  0.87193055  0.87350852  0.75152073  1
  O  O0  1  0.11743866  0.11666784  0.47725863  1
  O  O1  1  0.11765865  0.10849784  0.97464699  1
  O  O2  1  0.12044081  0.61724621  0.48152134  1
  O  O3  1  0.11120665  0.62117911  0.97441106  1
  O  O4  1  0.61515665  0.11383378  0.47531448  1
  O  O5  1  0.62055230  0.10757364  0.97532556  1
  O  O6  1  0.61504493  0.61723463  0.47792850  1
  O  O7  1  0.62062122  0.61256335  0.97497441  1
  O  O8  1  0.13737849  0.39201866  0.02429437  1
  O  O9  1  0.13841234  0.38422530  0.52221136  1
  O  O10  1  0.14283298  0.88403675  0.02830400  1
  O  O11  1  0.14347053  0.87896969  0.52241729  1
  O  O12  1  0.63484720  0.38689283  0.02581293  1
  O  O13  1  0.63866111  0.38900034  0.52315297  1
  O  O14  1  0.64137492  0.88079276  0.02857077  1
  O  O15  1  0.63879722  0.88272452  0.52256498  1
  O  O16  1  0.36890792  0.11246576  0.48105978  1
  O  O17  1  0.36811928  0.09876578  0.97242380  1
  O  O18  1  0.36876364  0.61183499  0.47859525  1
  O  O19  1  0.36414455  0.61330502  0.97539184  1
  O  O20  1  0.86652566  0.11429360  0.47865999  1
  O  O21  1  0.86797930  0.10045280  0.97526468  1
  O  O22  1  0.86681952  0.61350873  0.47890348  1
  O  O23  1  0.86662477  0.61527801  0.97526111  1
  O  O24  1  0.39191280  0.39678578  0.02884009  1
  O  O25  1  0.39042480  0.38969725  0.52409821  1
  O  O26  1  0.38979234  0.89113572  0.02588588  1
  O  O27  1  0.39453560  0.88645086  0.52434949  1
  O  O28  1  0.88625648  0.40212063  0.02808992  1
  O  O29  1  0.88894103  0.38880914  0.52227994  1
  O  O30  1  0.89222055  0.89252819  0.02986698  1
  O  O31  1  0.88787918  0.88488300  0.52042649  1
  O  O32  1  0.08853215  0.10547391  0.12494751  1
  O  O33  1  0.07221169  0.09818015  0.62567289  1
  O  O34  1  0.09035534  0.60915864  0.12604532  1
  O  O35  1  0.06774277  0.60481167  0.62615844  1
  O  O36  1  0.58244306  0.10619123  0.12292212  1
  O  O37  1  0.57746027  0.10117482  0.62545562  1
  O  O38  1  0.58424723  0.61065850  0.12443960  1
  O  O39  1  0.57529336  0.60623309  0.62634720  1
  O  O40  1  0.44975661  0.39926056  0.37582563  1
  O  O41  1  0.45849541  0.39669037  0.87375904  1
  O  O42  1  0.44576925  0.89736952  0.37371107  1
  O  O43  1  0.46527852  0.89471753  0.87334509  1
  O  O44  1  0.94952617  0.40140015  0.37478957  1
  O  O45  1  0.94665655  0.39765854  0.87715695  1
  O  O46  1  0.94764889  0.89528643  0.36937498  1
  O  O47  1  0.95566616  0.89213062  0.87597338  1
  O  O48  1  0.34093732  0.26603718  0.12592951  1
  O  O49  1  0.32536782  0.27495337  0.62805920  1
  O  O50  1  0.33637360  0.76687612  0.12451790  1
  O  O51  1  0.34002606  0.77713130  0.62780343  1
  O  O52  1  0.83111012  0.26744347  0.12648436  1
  O  O53  1  0.82335152  0.27483126  0.62615823  1
  O  O54  1  0.83720052  0.76680668  0.12615231  1
  O  O55  1  0.81933323  0.77520817  0.62541536  1
  O  O56  1  0.19945946  0.22486958  0.37419187  1
  O  O57  1  0.19734081  0.23067303  0.87492687  1
  O  O58  1  0.19737336  0.72540015  0.37522737  1
  O  O59  1  0.19662131  0.73624129  0.87676065  1
  O  O60  1  0.69665279  0.22573617  0.37261205  1
  O  O61  1  0.70088046  0.22991107  0.87484608  1
  O  O62  1  0.69476387  0.72588753  0.37421397  1
  O  O63  1  0.71011708  0.73529033  0.87695669  1
  O  O64  1  0.41642163  0.06496520  0.24487775  1
  O  O65  1  0.41733719  0.06100840  0.75055537  1
  O  O66  1  0.42415711  0.56821811  0.24456651  1
  O  O67  1  0.42412275  0.55882534  0.74986870  1
  O  O68  1  0.90925296  0.06403940  0.24431490  1
  O  O69  1  0.93199745  0.06312562  0.75055332  1
  O  O70  1  0.91598429  0.57094785  0.24524132  1
  O  O71  1  0.93349483  0.56849380  0.75571348  1
  O  O72  1  0.17555929  0.43982589  0.25071726  1
  O  O73  1  0.17848640  0.44393375  0.74949442  1
  O  O74  1  0.14927610  0.92368234  0.24519530  1
  O  O75  1  0.17891500  0.93406653  0.75598600  1
  O  O76  1  0.66704766  0.42979736  0.24562138  1
  O  O77  1  0.66568737  0.42895956  0.75590396  1
  O  O78  1  0.67460961  0.92702792  0.24458095  1
  O  O79  1  0.66264278  0.92311000  0.74938791  1
loop_
_geom_bond_atom_site_label_1
_geom_bond_atom_site_label_2
_geom_bond_distance
_geom_bond_site_symmetry_2
La0 O65 2.314004 1_555
La0 O49 2.402970 1_555
La0 O11 2.508912 1_545
La0 O27 2.523925 1_545
La0 O33 2.727768 1_555
La0 O16 2.881753 1_555
La0 O37 2.914543 1_555
La0 O0 2.965628 1_555
La1 O67 2.317257 1_555
La1 O51 2.399662 1_555
La1 O25 2.520314 1_555
La1 O9 2.537396 1_555
La1 O35 2.776573 1_555
La1 O39 2.894527 1_555
La1 O2 2.900686 1_555
La1 O18 2.926039 1_555
La2 O69 2.315856 1_555
La2 O53 2.384284 1_555
La2 O15 2.543800 1_545
La2 O31 2.567608 1_545
La2 O37 2.664568 1_555
La2 O33 2.851752 1_655
La2 O20 2.939793 1_555
La2 O4 3.000007 1_555
La3 O71 2.365113 1_555
La3 O55 2.388152 1_555
La3 O13 2.507161 1_555
La3 O29 2.547524 1_555
La3 O39 2.691978 1_555
La3 O35 2.818101 1_655
La3 O22 2.948741 1_555
La3 O6 2.994499 1_555
La4 O72 2.295104 1_555
La4 O56 2.382342 1_555
La4 O18 2.537184 1_555
La4 O2 2.582728 1_555
La4 O44 2.662562 1_455
La4 O40 2.905899 1_555
La4 O9 2.953891 1_555
La4 O25 2.975578 1_555
La5 O57 2.344077 1_555
La5 O73 2.385334 1_555
La5 O19 2.526437 1_555
La5 O3 2.526983 1_555
La5 O45 2.633553 1_455
La5 O8 2.899664 1_556
La5 O24 3.027945 1_556
La5 O41 3.104256 1_555
La6 O74 2.290602 1_555
La6 O58 2.383779 1_555
La6 O16 2.531277 1_565
La6 O0 2.557437 1_565
La6 O46 2.681880 1_455
La6 O42 2.860831 1_555
La6 O11 2.961631 1_555
La6 O27 3.002015 1_555
La7 O76 2.308311 1_555
La7 O60 2.377927 1_555
La7 O22 2.555213 1_555
La7 O6 2.573045 1_555
La7 O40 2.646428 1_555
La7 O44 2.930367 1_555
La7 O13 2.955311 1_555
La7 O29 2.984592 1_555
La8 O78 2.340039 1_555
La8 O62 2.380582 1_555
La8 O4 2.531211 1_565
La8 O20 2.543889 1_565
La8 O42 2.698853 1_555
La8 O46 2.931807 1_555
La8 O31 2.962819 1_555
La8 O15 2.979413 1_555
La9 O72 2.287861 1_555
La9 O32 2.369546 1_555
La9 O8 2.558913 1_555
La9 O52 2.581157 1_455
La9 O28 2.586937 1_455
La10 O73 2.381639 1_555
La10 O33 2.392497 1_555
La10 O9 2.520669 1_555
La10 O29 2.526454 1_455
La10 O53 2.662572 1_455
La10 O20 2.873706 1_455
La10 O49 2.928393 1_555
La10 O0 2.939317 1_555
La11 O75 2.357395 1_555
La11 O35 2.387249 1_555
La11 O31 2.503030 1_455
La11 O11 2.505878 1_555
La11 O55 2.699715 1_455
La11 O22 2.939506 1_455
La11 O2 2.973562 1_555
La12 O77 2.316025 1_555
La12 O37 2.373296 1_555
La12 O13 2.525713 1_555
La12 O25 2.548083 1_555
La12 O49 2.705243 1_555
La12 O53 2.862260 1_555
La12 O16 2.920923 1_555
La12 O4 2.981454 1_555
La13 O64 2.310592 1_555
La13 O40 2.366044 1_555
La13 O4 2.548387 1_555
La13 O16 2.592899 1_555
La13 O56 2.664500 1_555
La13 O60 2.887651 1_555
La13 O13 3.004031 1_555
La13 O25 3.022681 1_555
La14 O65 2.310226 1_555
La14 O41 2.407205 1_555
La14 O17 2.494708 1_555
La14 O5 2.517473 1_555
La14 O57 2.756143 1_555
La14 O61 2.893942 1_555
La14 O12 2.925639 1_556
La14 O24 3.083213 1_556
La15 O66 2.302513 1_555
La15 O42 2.380589 1_555
La15 O6 2.548172 1_555
La15 O18 2.551829 1_555
La15 O58 2.692349 1_555
La15 O62 2.862714 1_555
La15 O15 2.992646 1_555
La15 O27 3.009593 1_555
La16 O67 2.308082 1_555
La16 O43 2.368490 1_555
La16 O19 2.493478 1_555
La16 O7 2.545853 1_555
La16 O59 2.743958 1_555
La16 O14 2.991379 1_556
La16 O63 3.014538 1_555
La16 O26 3.042520 1_556
La17 O68 2.330530 1_555
La17 O44 2.387062 1_555
La17 O20 2.548210 1_555
La17 O0 2.555946 1_655
La17 O60 2.688577 1_555
La17 O56 2.907056 1_655
La17 O9 2.950051 1_655
La17 O29 2.981527 1_555
La18 O69 2.310082 1_555
La18 O45 2.372628 1_555
La18 O21 2.543086 1_555
La18 O1 2.546936 1_655
La18 O61 2.669994 1_555
La18 O57 2.891742 1_655
La18 O8 3.002548 1_656
La18 O28 3.142605 1_556
La19 O70 2.309237 1_555
La19 O46 2.401659 1_555
La19 O22 2.531125 1_555
La19 O2 2.553033 1_655
La19 O62 2.755972 1_555
La19 O58 2.852827 1_655
La19 O11 2.939422 1_655
La19 O31 2.964423 1_555
Cr0 O21 1.970770 1_464
Cr0 O1 2.004106 1_564
Cr0 O30 2.020791 1_455
Cr0 O32 2.047118 1_565
Cr0 O47 2.049409 1_454
Cr0 O10 2.053488 1_555
Cr1 O31 2.023076 1_455
Cr1 O0 2.028854 1_565
Cr1 O20 2.056679 1_465
Cr1 O33 2.078814 1_565
Cr1 O46 2.080945 1_455
Cr1 O11 2.107253 1_555
Cr2 O8 1.989434 1_555
Cr2 O28 1.992973 1_455
Cr2 O34 2.031821 1_555
Cr2 O3 2.040929 1_554
Cr2 O23 2.044789 1_454
Cr2 O45 2.058519 1_454
Cr3 O29 1.998277 1_455
Cr3 O2 2.015147 1_555
Cr3 O22 2.029724 1_455
Cr3 O35 2.037622 1_555
Cr3 O9 2.041835 1_555
Cr3 O44 2.053380 1_455
Cr4 O17 1.975549 1_565
Cr4 O5 1.997556 1_565
Cr4 O26 2.020537 1_556
Cr4 O43 2.050812 1_555
Cr4 O36 2.053606 1_566
Cr4 O14 2.062240 1_556
Cr5 O27 2.001911 1_555
Cr5 O4 2.009824 1_565
Cr5 O16 2.026116 1_565
Cr5 O15 2.031882 1_555
Cr5 O37 2.045057 1_565
Cr5 O42 2.051617 1_555
Cr6 O24 1.994011 1_555
Cr6 O12 1.999992 1_555
Cr6 O7 2.038843 1_554
Cr6 O38 2.045085 1_555
Cr6 O19 2.064916 1_554
Cr6 O41 2.079770 1_554
Cr7 O13 1.999122 1_555
Cr7 O25 2.004704 1_555
Cr7 O6 2.007529 1_555
Cr7 O18 2.010099 1_555
Cr7 O40 2.042822 1_555
Cr7 O39 2.045798 1_555
Cr8 O1 2.057566 1_554
Cr8 O24 2.060335 1_555
Cr8 O48 2.062908 1_555
Cr8 O57 2.064000 1_554
Cr8 O8 2.126861 1_555
Cr8 O17 2.162525 1_554
Cr9 O0 1.995936 1_555
Cr9 O25 2.021983 1_555
Cr9 O9 2.039379 1_555
Cr9 O16 2.042515 1_555
Cr9 O56 2.058867 1_555
Cr9 O49 2.065363 1_555
Cr10 O3 1.999815 1_554
Cr10 O10 2.004235 1_555
Cr10 O26 2.015306 1_555
Cr10 O59 2.028850 1_554
Cr10 O19 2.031898 1_554
Cr10 O50 2.055360 1_555
Cr11 O11 1.987173 1_555
Cr11 O2 2.006252 1_555
Cr11 O27 2.009053 1_555
Cr11 O18 2.024203 1_555
Cr11 O51 2.045774 1_555
Cr11 O58 2.060066 1_555
Cr12 O5 2.046296 1_554
Cr12 O52 2.053492 1_555
Cr12 O61 2.069094 1_554
Cr12 O28 2.071324 1_555
Cr12 O12 2.109995 1_555
Cr12 O21 2.139190 1_554
Cr13 O4 2.015382 1_555
Cr13 O29 2.023185 1_555
Cr13 O20 2.024524 1_555
Cr13 O60 2.045810 1_555
Cr13 O13 2.069599 1_555
Cr13 O53 2.075250 1_555
Cr14 O7 2.005523 1_554
Cr14 O23 2.008028 1_554
Cr14 O14 2.017497 1_555
Cr14 O30 2.021317 1_555
Cr14 O54 2.052365 1_555
Cr14 O63 2.057449 1_554
Cr15 O6 1.997009 1_555
Cr15 O31 1.997747 1_555
Cr15 O15 2.016191 1_555
Cr15 O22 2.031954 1_555
Cr15 O62 2.034446 1_555
Cr15 O55 2.045153 1_555
Cr16 O32 2.061660 1_555
Cr16 O56 2.076270 1_555
Cr16 O74 2.247226 1_545
Cr16 O68 2.347455 1_455
Cr17 O57 2.021272 1_555
Cr17 O33 2.031816 1_555
Cr17 O69 2.264010 1_455
Cr17 O75 2.315919 1_545
Cr18 O34 2.049513 1_555
Cr18 O58 2.060029 1_555
Cr18 O72 2.223534 1_555
Cr18 O70 2.289291 1_455
Cr19 O36 2.055435 1_555
Cr19 O60 2.061372 1_555
Cr19 O78 2.304837 1_545
Cr19 O64 2.308360 1_555
Cr20 O61 2.066523 1_555
Cr20 O37 2.068780 1_555
Cr20 O79 2.284265 1_545
Cr20 O65 2.300889 1_555
Cr21 O38 2.047852 1_555
Cr21 O62 2.053464 1_555
Cr21 O66 2.261727 1_555
Cr21 O76 2.285662 1_555
Cr22 O63 2.082337 1_555
Cr22 O39 2.083734 1_555
Cr22 O67 2.267553 1_555
Cr22 O77 2.279411 1_555
Cr23 O48 2.064751 1_555
Cr23 O40 2.080361 1_555
Cr23 O66 2.272666 1_555
Cr23 O72 2.300197 1_555
Cr24 O50 2.069822 1_555
Cr24 O42 2.075630 1_555
Cr24 O64 2.228932 1_565
Cr24 O74 2.427144 1_555
Cr25 O52 2.047716 1_555
Cr25 O44 2.063298 1_555
Cr25 O76 2.280598 1_555
Cr25 O70 2.282788 1_555
Cr26 O45 2.054523 1_555
Cr26 O53 2.061970 1_555
Cr26 O71 2.265208 1_555
Cr26 O77 2.328341 1_555
Cr27 O55 2.045811 1_555
Cr27 O47 2.049659 1_555
Cr27 O69 2.274460 1_565
Cr27 O79 2.378281 1_555
O1 Sm4 2.376512 1_545
O3 Sm11 2.439113 1_455
O5 Sm6 2.438416 1_545
O6 Sm10 2.871771 1_555
O7 Sm5 2.457010 1_555
O8 Sm1 2.441141 1_555
O10 Sm7 2.418553 1_555
O10 Sm0 2.458593 1_565
O12 Sm3 2.432679 1_555
O12 Sm8 2.477821 1_555
O12 Sm5 2.935771 1_554
O14 Sm9 2.437544 1_555
O14 Sm2 2.448063 1_565
O15 Sm10 2.454411 1_555
O17 Sm4 2.403075 1_545
O18 Sm10 2.890477 1_555
O21 Sm6 2.417805 1_545
O23 Sm11 2.432155 1_555
O23 Sm5 2.482109 1_555
O24 Sm1 2.443507 1_555
O24 Sm8 2.483103 1_555
O26 Sm9 2.445763 1_555
O26 Sm0 2.491276 1_565
O27 Sm10 2.470348 1_555
O28 Sm3 2.405055 1_555
O28 Sm5 2.833283 1_554
O30 Sm7 2.429540 1_655
O30 Sm2 2.476166 1_565
O32 Sm0 2.511657 1_555
O34 Sm7 2.307095 1_555
O34 Sm1 2.501232 1_555
O35 V0 2.080115 1_555
O36 Sm8 2.320899 1_555
O36 Sm2 2.521257 1_555
O38 Sm9 2.297738 1_555
O38 Sm3 2.495909 1_555
O39 Sm10 2.313911 1_555
O41 V1 2.061949 1_555
O41 Sm5 2.590519 1_555
O43 V2 2.085004 1_555
O43 Sm6 2.506087 1_555
O45 Sm5 2.847911 1_555
O46 V3 2.077512 1_555
O47 Sm11 2.300945 1_555
O47 Sm4 2.567450 1_655
O47 Sm6 2.976563 1_555
O48 Sm0 2.284305 1_555
O48 Sm8 2.454528 1_555
O49 V1 2.078057 1_555
O50 Sm1 2.312207 1_555
O50 Sm9 2.461305 1_555
O51 V2 2.067356 1_555
O51 Sm10 2.553245 1_555
O52 Sm2 2.291351 1_555
O54 V3 2.062799 1_555
O54 Sm3 2.322665 1_555
O54 Sm7 2.532357 1_655
O55 Sm10 2.813903 1_555
O59 V0 2.070909 1_555
O59 Sm4 2.307520 1_555
O59 Sm11 2.910535 1_455
O61 Sm5 2.306135 1_555
O63 Sm6 2.297283 1_555
O63 Sm11 2.553406 1_555
O64 Sm0 2.245507 1_555
O65 V2 2.138596 1_545
O66 Sm1 2.230974 1_555
O67 V1 2.090730 1_555
O68 V3 2.092906 1_545
O68 Sm2 2.264814 1_555
O70 Sm3 2.240715 1_555
O71 V0 2.151412 1_655
O71 Sm11 2.258577 1_555
O73 V1 2.106464 1_555
O73 V0 2.129655 1_555
O74 Sm7 2.230320 1_555
O75 V2 2.111395 1_555
O75 Sm4 2.261075 1_555
O76 Sm8 2.232056 1_555
O77 Sm5 2.247126 1_555
O78 V3 2.113024 1_555
O78 Sm9 2.257814 1_555
O79 Sm6 2.254844 1_555
O79 Sm10 2.275410 1_555
