# generated using pymatgen
data_Nd(PRh)2
_symmetry_space_group_name_H-M   'P 1'
_cell_length_a   4.15593722
_cell_length_b   4.15593722
_cell_length_c   9.55057955
_cell_angle_alpha   90.00000000
_cell_angle_beta   90.00000000
_cell_angle_gamma   90.00000000
_symmetry_Int_Tables_number   1
_chemical_formula_structural   Nd(PRh)2
_chemical_formula_sum   'Nd2 P4 Rh4'
_cell_volume   164.95583527
_cell_formula_units_Z   2
loop_
 _symmetry_equiv_pos_site_id
 _symmetry_equiv_pos_as_xyz
  1  'x, y, z'
loop_
 _atom_site_type_symbol
 _atom_site_label
 _atom_site_symmetry_multiplicity
 _atom_site_fract_x
 _atom_site_fract_y
 _atom_site_fract_z
 _atom_site_occupancy
  Nd  Nd0  1  -0.00000000  0.50000000  0.25759770  1
  Nd  Nd1  1  0.50000000  -0.00000000  0.74240230  1
  P  P0  1  0.00000000  0.00000000  0.50000000  1
  P  P1  1  0.50000000  0.50000000  0.50000000  1
  P  P2  1  -0.00000000  0.50000000  0.86162898  1
  P  P3  1  0.50000000  -0.00000000  0.13837102  1
  Rh  Rh0  1  -0.00000000  0.00000000  0.00000000  1
  Rh  Rh1  1  0.50000000  0.50000000  0.00000000  1
  Rh  Rh2  1  0.00000000  0.50000000  0.61117587  1
  Rh  Rh3  1  0.50000000  -0.00000000  0.38882413  1
loop_
_geom_bond_atom_site_label_1
_geom_bond_atom_site_label_2
_geom_bond_distance
_geom_bond_site_symmetry_2
Nd0 P0 3.110878 1_565
Nd0 P0 3.110878 1_555
Nd0 P1 3.110878 1_555
Nd0 P1 3.110878 1_455
Nd0 P3 3.151588 1_565
Nd0 P3 3.151588 1_555
Nd0 P3 3.151588 1_455
Nd0 P3 3.151588 1_465
Nd0 Rh3 3.194783 1_455
Nd0 Rh3 3.194783 1_555
Nd0 Rh3 3.194783 1_565
Nd0 Rh3 3.194783 1_465
Nd0 Rh0 3.220338 1_565
Nd0 Rh1 3.220338 1_455
Nd0 Rh0 3.220338 1_555
Nd0 Rh1 3.220338 1_555
Nd1 P0 3.110878 1_555
Nd1 P1 3.110878 1_545
Nd1 P0 3.110878 1_655
Nd1 P1 3.110878 1_555
Nd1 P2 3.151588 1_645
Nd1 P2 3.151588 1_555
Nd1 P2 3.151588 1_545
Nd1 P2 3.151588 1_655
Nd1 Rh2 3.194783 1_655
Nd1 Rh2 3.194783 1_555
Nd1 Rh2 3.194783 1_545
Nd1 Rh2 3.194783 1_645
Nd1 Rh0 3.220338 1_556
Nd1 Rh0 3.220338 1_656
Nd1 Rh1 3.220338 1_556
Nd1 Rh1 3.220338 1_546
P0 Rh2 2.333530 1_555
P0 Rh2 2.333530 1_545
P0 Rh3 2.333530 1_555
P0 Rh3 2.333530 1_455
P1 Rh2 2.333530 1_655
P1 Rh2 2.333530 1_555
P1 Rh3 2.333530 1_555
P1 Rh3 2.333530 1_565
P2 Rh2 2.391972 1_555
P2 Rh1 2.462596 1_556
P2 Rh0 2.462596 1_566
P2 Rh0 2.462596 1_556
P2 Rh1 2.462596 1_456
P3 Rh3 2.391972 1_555
P3 Rh1 2.462596 1_545
P3 Rh1 2.462596 1_555
P3 Rh0 2.462596 1_655
P3 Rh0 2.462596 1_555
