# generated using pymatgen
data_Nb3(OF)5
_symmetry_space_group_name_H-M   'P 1'
_cell_length_a   4.05388200
_cell_length_b   3.96802100
_cell_length_c   12.50637301
_cell_angle_alpha   80.87203893
_cell_angle_beta   80.67277931
_cell_angle_gamma   90.00000000
_symmetry_Int_Tables_number   1
_chemical_formula_structural   Nb3(OF)5
_chemical_formula_sum   'Nb3 O5 F5'
_cell_volume   195.93416984
_cell_formula_units_Z   1
loop_
 _symmetry_equiv_pos_site_id
 _symmetry_equiv_pos_as_xyz
  1  'x, y, z'
loop_
 _atom_site_type_symbol
 _atom_site_label
 _atom_site_symmetry_multiplicity
 _atom_site_fract_x
 _atom_site_fract_y
 _atom_site_fract_z
 _atom_site_occupancy
  Nb  Nb0  1  0.16002000  0.16002000  0.67996100  1
  Nb  Nb1  1  0.83998000  0.83998000  0.32003900  1
  Nb  Nb2  1  0.00000000  0.00000000  0.00000000  1
  O  O0  1  0.08013500  0.08013500  0.83973100  1
  O  O1  1  0.91986500  0.91986500  0.16026900  1
  O  O2  1  0.15943000  0.65943000  0.68114000  1
  O  O3  1  0.84057000  0.34057000  0.31886000  1
  O  O4  1  0.50000000  0.00000000  0.00000000  1
  F  F0  1  0.23878100  0.23878100  0.52243800  1
  F  F1  1  0.76121900  0.76121900  0.47756200  1
  F  F2  1  0.65949300  0.15949300  0.68101400  1
  F  F3  1  0.34050700  0.84050700  0.31898600  1
  F  F4  1  0.00000000  0.50000000  0.00000000  1
loop_
_geom_bond_atom_site_label_1
_geom_bond_atom_site_label_2
_geom_bond_distance
_geom_bond_site_symmetry_2
Nb0 O0 1.946078 1_555
Nb0 O2 1.984060 1_555
Nb0 O2 1.984064 1_545
Nb1 O1 1.946078 1_555
Nb1 O3 1.984060 1_555
Nb1 O3 1.984064 1_565
Nb2 O1 1.952157 1_445
Nb2 O0 1.952157 1_554
Nb2 O4 2.026941 1_455
Nb2 O4 2.026941 1_555
F0 Nb0 1.918709 1_555
F1 Nb1 1.918709 1_555
F2 Nb0 2.026980 1_555
F2 Nb0 2.026984 1_655
F3 Nb1 2.026980 1_555
F3 Nb1 2.026984 1_455
F4 Nb2 1.984010 1_565
F4 Nb2 1.984010 1_555
