# generated using pymatgen
data_Al2(CuS2)3
_symmetry_space_group_name_H-M   'P 1'
_cell_length_a   16.30642702
_cell_length_b   16.30642702
_cell_length_c   16.30642702
_cell_angle_alpha   161.59585618
_cell_angle_beta   161.59585618
_cell_angle_gamma   26.14180254
_symmetry_Int_Tables_number   1
_chemical_formula_structural   Al2(CuS2)3
_chemical_formula_sum   'Al4 Cu6 S12'
_cell_volume   432.04061127
_cell_formula_units_Z   2
loop_
 _symmetry_equiv_pos_site_id
 _symmetry_equiv_pos_as_xyz
  1  'x, y, z'
loop_
 _atom_site_type_symbol
 _atom_site_label
 _atom_site_symmetry_multiplicity
 _atom_site_fract_x
 _atom_site_fract_y
 _atom_site_fract_z
 _atom_site_occupancy
  Al  Al0  1  0.91896400  0.41896400  0.50000000  1
  Al  Al1  1  0.58103600  0.08103600  0.50000000  1
  Al  Al2  1  0.83103600  0.83103600  0.00000000  1
  Al  Al3  1  0.16896400  0.16896400  0.00000000  1
  Cu  Cu0  1  0.33142100  0.33142100  0.00000000  1
  Cu  Cu1  1  0.00000000  0.00000000  0.00000000  1
  Cu  Cu2  1  0.66857900  0.66857900  0.00000000  1
  Cu  Cu3  1  0.75000000  0.25000000  0.50000000  1
  Cu  Cu4  1  0.41857900  0.91857900  0.50000000  1
  Cu  Cu5  1  0.08142100  0.58142100  0.50000000  1
  S  S0  1  0.53705700  0.03762700  0.99316200  1
  S  S1  1  0.21294300  0.70610500  0.00057000  1
  S  S2  1  0.87500000  0.37706400  0.00206400  1
  S  S3  1  0.62293600  0.62500000  0.49793600  1
  S  S4  1  0.29389500  0.29446500  0.50683800  1
  S  S5  1  0.96237300  0.95553500  0.49943000  1
  S  S6  1  0.04446500  0.54389500  0.00683800  1
  S  S7  1  0.70553500  0.21237300  0.99943000  1
  S  S8  1  0.37500000  0.87293600  0.99793600  1
  S  S9  1  0.12706400  0.12500000  0.50206400  1
  S  S10  1  0.78762700  0.78705700  0.49316200  1
  S  S11  1  0.45610500  0.46294300  0.50057000  1
loop_
_geom_bond_atom_site_label_1
_geom_bond_atom_site_label_2
_geom_bond_distance
_geom_bond_site_symmetry_2
Al0 S7 2.246190 1_554
Al0 S1 2.246190 1_656
Al0 S3 2.319219 1_555
Al0 S9 2.319219 1_655
Al1 S4 2.246190 1_555
Al1 S10 2.246190 1_545
Al1 S2 2.319219 1_556
Al1 S8 2.319219 1_544
Al2 S0 2.246190 1_564
Al2 S6 2.246190 1_655
Al2 S3 2.319219 1_554
Al2 S9 2.319219 1_665
Al3 S5 2.246190 1_444
Al3 S11 2.246190 1_555
Al3 S2 2.319219 1_455
Al3 S8 2.319219 1_544
Cu0 S0 2.249736 1_554
Cu0 S6 2.249736 1_555
Cu0 S3 2.299701 1_555
Cu0 S9 2.299701 1_554
Cu1 S10 2.273842 1_444
Cu1 S7 2.273842 1_454
Cu1 S1 2.273842 1_545
Cu1 S4 2.273842 1_555
Cu2 S11 2.249736 1_554
Cu2 S5 2.249736 1_555
Cu2 S2 2.299701 1_555
Cu2 S8 2.299701 1_554
Cu3 S5 2.273842 1_545
Cu3 S0 2.273842 1_554
Cu3 S11 2.273842 1_555
Cu3 S6 2.273842 1_656
Cu4 S1 2.249736 1_555
Cu4 S7 2.249736 1_565
Cu4 S9 2.299701 1_565
Cu4 S3 2.299701 1_555
Cu5 S10 2.249736 1_455
Cu5 S4 2.249736 1_555
Cu5 S2 2.299701 1_455
Cu5 S8 2.299701 1_555
