# generated using pymatgen
data_MgAg2(PS3)2
_symmetry_space_group_name_H-M   'P 1'
_cell_length_a   6.37268410
_cell_length_b   6.37268410
_cell_length_c   13.70545779
_cell_angle_alpha   85.83138677
_cell_angle_beta   85.83138677
_cell_angle_gamma   119.66526060
_symmetry_Int_Tables_number   1
_chemical_formula_structural   MgAg2(PS3)2
_chemical_formula_sum   'Mg2 Ag4 P4 S12'
_cell_volume   478.55529793
_cell_formula_units_Z   2
loop_
 _symmetry_equiv_pos_site_id
 _symmetry_equiv_pos_as_xyz
  1  'x, y, z'
loop_
 _atom_site_type_symbol
 _atom_site_label
 _atom_site_symmetry_multiplicity
 _atom_site_fract_x
 _atom_site_fract_y
 _atom_site_fract_z
 _atom_site_occupancy
  Mg  Mg0  1  0.42293500  0.57706500  0.25000000  1
  Mg  Mg1  1  0.57706500  0.42293500  0.75000000  1
  Ag  Ag0  1  0.03524400  0.85640800  0.40022200  1
  Ag  Ag1  1  0.96475600  0.14359200  0.59977800  1
  Ag  Ag2  1  0.14359200  0.96475600  0.09977800  1
  Ag  Ag3  1  0.85640800  0.03524400  0.90022200  1
  P  P0  1  0.21583100  0.72287900  0.83367400  1
  P  P1  1  0.78416900  0.27712100  0.16632600  1
  P  P2  1  0.27712100  0.78416900  0.66632600  1
  P  P3  1  0.72287900  0.21583100  0.33367400  1
  S  S0  1  0.47597200  0.65114100  0.87853900  1
  S  S1  1  0.52402800  0.34885900  0.12146100  1
  S  S2  1  0.34885900  0.52402800  0.62146100  1
  S  S3  1  0.65114100  0.47597200  0.37853900  1
  S  S4  1  0.04048000  0.25560000  0.37970000  1
  S  S5  1  0.95952000  0.74440000  0.62030000  1
  S  S6  1  0.74440000  0.95952000  0.12030000  1
  S  S7  1  0.25560000  0.04048000  0.87970000  1
  S  S8  1  0.12957900  0.56407200  0.12517300  1
  S  S9  1  0.87042100  0.43592800  0.87482700  1
  S  S10  1  0.43592800  0.87042100  0.37482700  1
  S  S11  1  0.56407200  0.12957900  0.62517300  1
loop_
_geom_bond_atom_site_label_1
_geom_bond_atom_site_label_2
_geom_bond_distance
_geom_bond_site_symmetry_2
Mg0 S10 2.600189 1_555
Mg0 S8 2.600189 1_555
Mg0 S3 2.601613 1_555
Mg0 S1 2.601613 1_555
Mg0 S4 2.682387 1_555
Mg0 S6 2.682387 1_555
Mg1 S9 2.600189 1_555
Mg1 S11 2.600189 1_555
Mg1 S0 2.601613 1_555
Mg1 S2 2.601613 1_555
Mg1 S7 2.682387 1_555
Mg1 S5 2.682387 1_555
Ag0 S10 2.507927 1_555
Ag0 S3 2.508759 1_455
Ag0 S4 2.522372 1_565
Ag0 S5 2.995775 1_455
Ag1 S11 2.507927 1_555
Ag1 S2 2.508759 1_655
Ag1 S5 2.522372 1_545
Ag1 S4 2.995775 1_655
Ag2 S8 2.507927 1_555
Ag2 S1 2.508759 1_565
Ag2 S6 2.522372 1_455
Ag2 S7 2.995775 1_564
Ag3 S9 2.507927 1_555
Ag3 S0 2.508759 1_545
Ag3 S7 2.522372 1_655
Ag3 S6 2.995775 1_546
P0 S9 2.047550 1_455
P0 S0 2.047661 1_555
P0 S7 2.063908 1_565
P0 P2 2.270272 1_555
P1 S8 2.047550 1_655
P1 S1 2.047661 1_555
P1 S6 2.063908 1_545
P1 P3 2.270272 1_555
P2 S11 2.047550 1_565
P2 S2 2.047661 1_555
P2 S5 2.063908 1_455
P3 S10 2.047550 1_545
P3 S3 2.047661 1_555
P3 S4 2.063908 1_655
