# generated using pymatgen
data_Ba(CuP)2
_symmetry_space_group_name_H-M   'P 1'
_cell_length_a   5.36484700
_cell_length_b   12.23684781
_cell_length_c   11.42773789
_cell_angle_alpha   87.05056058
_cell_angle_beta   76.42433824
_cell_angle_gamma   77.33743720
_symmetry_Int_Tables_number   1
_chemical_formula_structural   Ba(CuP)2
_chemical_formula_sum   'Ba4 Cu8 P8'
_cell_volume   711.51998670
_cell_formula_units_Z   4
loop_
 _symmetry_equiv_pos_site_id
 _symmetry_equiv_pos_as_xyz
  1  'x, y, z'
loop_
 _atom_site_type_symbol
 _atom_site_label
 _atom_site_symmetry_multiplicity
 _atom_site_fract_x
 _atom_site_fract_y
 _atom_site_fract_z
 _atom_site_occupancy
  Ba  Ba0  1  0.37500000  0.25000000  0.25000000  1
  Ba  Ba1  1  0.37500000  0.75000000  0.25000000  1
  Ba  Ba2  1  0.37500000  0.25000000  0.75000000  1
  Ba  Ba3  1  0.87500000  0.75000000  0.75000000  1
  Cu  Cu0  1  0.02618900  0.27530500  0.04951900  1
  Cu  Cu1  1  0.92429200  0.72469500  0.04951900  1
  Cu  Cu2  1  0.69850600  0.27530500  0.95048100  1
  Cu  Cu3  1  0.72381100  0.22469500  0.45048100  1
  Cu  Cu4  1  0.35101300  0.72469500  0.95048100  1
  Cu  Cu5  1  0.82570800  0.77530500  0.45048100  1
  Cu  Cu6  1  0.05149400  0.22469500  0.54951900  1
  Cu  Cu7  1  0.39898700  0.77530500  0.54951900  1
  P  P0  1  0.77469800  0.56273300  0.08691500  1
  P  P1  1  0.13838700  0.43726700  0.08691500  1
  P  P2  1  0.66256900  0.56273300  0.91308500  1
  P  P3  1  0.97530200  0.93726700  0.41308500  1
  P  P4  1  0.42434500  0.43726700  0.91308500  1
  P  P5  1  0.61161300  0.06273300  0.41308500  1
  P  P6  1  0.08743100  0.93726700  0.58691500  1
  P  P7  1  0.32565500  0.06273300  0.58691500  1
loop_
_geom_bond_atom_site_label_1
_geom_bond_atom_site_label_2
_geom_bond_distance
_geom_bond_site_symmetry_2
Ba0 P5 3.119577 1_555
Ba0 P1 3.119577 1_555
Ba0 Cu3 3.245342 1_555
Ba0 Cu0 3.245342 1_555
Ba0 Cu6 3.487334 1_555
Ba0 Cu2 3.487334 1_554
Ba0 Cu0 3.767402 1_655
Ba0 Cu3 3.767402 1_455
Ba1 P3 3.119577 1_455
Ba1 P0 3.119577 1_555
Ba1 Cu5 3.245342 1_455
Ba1 Cu1 3.245342 1_555
Ba1 Cu7 3.487334 1_555
Ba1 Cu4 3.487334 1_554
Ba1 Cu5 3.767402 1_555
Ba1 Cu1 3.767402 1_455
Ba2 P4 3.119575 1_555
Ba2 P7 3.119575 1_555
Ba2 Cu2 3.245342 1_555
Ba2 Cu6 3.245342 1_555
Ba2 Cu0 3.487334 1_556
Ba2 Cu3 3.487334 1_555
Ba2 Cu2 3.767402 1_455
Ba2 Cu6 3.767402 1_655
Ba3 P6 3.119577 1_655
Ba3 P2 3.119577 1_555
Ba3 Cu7 3.245342 1_655
Ba3 Cu4 3.245342 1_555
Ba3 Cu1 3.487334 1_556
Ba3 Cu5 3.487334 1_555
Ba3 Cu4 3.767402 1_655
Ba3 Cu7 3.767402 1_555
Cu0 P1 2.281189 1_555
Cu0 Cu2 2.303353 1_454
Cu1 P0 2.281189 1_555
Cu1 Cu4 2.303352 1_654
Cu2 P4 2.281192 1_555
Cu3 P5 2.281189 1_555
Cu3 Cu6 2.303353 1_655
Cu4 P2 2.281189 1_555
Cu5 P3 2.281189 1_555
Cu5 Cu7 2.303352 1_555
Cu6 P7 2.281192 1_555
Cu7 P6 2.281189 1_555
P0 P1 2.202449 1_655
P0 P2 2.206576 1_554
P1 P4 2.206574 1_554
P2 P4 2.202453 1_555
P3 P5 2.202449 1_565
P3 P6 2.206576 1_655
P5 P7 2.206574 1_555
P6 P7 2.202453 1_565
