# generated using pymatgen
data_TeC2(NO2)4
_symmetry_space_group_name_H-M   'P 1'
_cell_length_a   8.85536620
_cell_length_b   8.85536620
_cell_length_c   10.33513477
_cell_angle_alpha   58.91337995
_cell_angle_beta   58.91337995
_cell_angle_gamma   54.62406178
_symmetry_Int_Tables_number   1
_chemical_formula_structural   TeC2(NO2)4
_chemical_formula_sum   'Te2 C4 N8 O16'
_cell_volume   537.79079126
_cell_formula_units_Z   2
loop_
 _symmetry_equiv_pos_site_id
 _symmetry_equiv_pos_as_xyz
  1  'x, y, z'
loop_
 _atom_site_type_symbol
 _atom_site_label
 _atom_site_symmetry_multiplicity
 _atom_site_fract_x
 _atom_site_fract_y
 _atom_site_fract_z
 _atom_site_occupancy
  Te  Te0  1  0.39722600  0.60277400  0.75000000  1
  Te  Te1  1  0.60277400  0.39722600  0.25000000  1
  C  C0  1  0.88855300  0.82591400  0.00698700  1
  C  C1  1  0.17408600  0.11144700  0.49301300  1
  C  C2  1  0.11144700  0.17408600  0.99301300  1
  C  C3  1  0.82591400  0.88855300  0.50698700  1
  N  N0  1  0.72136200  0.98740700  0.01316400  1
  N  N1  1  0.01259300  0.27863800  0.48683600  1
  N  N2  1  0.27863800  0.01259300  0.98683600  1
  N  N3  1  0.98740700  0.72136200  0.51316400  1
  N  N4  1  0.02549300  0.69642400  0.06778100  1
  N  N5  1  0.30357600  0.97450700  0.43221900  1
  N  N6  1  0.97450700  0.30357600  0.93221900  1
  N  N7  1  0.69642400  0.02549300  0.56778100  1
  O  O0  1  0.17532100  0.54721100  0.03333900  1
  O  O1  1  0.45278900  0.82467900  0.46666100  1
  O  O2  1  0.82467900  0.45278900  0.96666100  1
  O  O3  1  0.54721100  0.17532100  0.53333900  1
  O  O4  1  0.16731400  0.65995600  0.73039600  1
  O  O5  1  0.34004400  0.83268600  0.76960400  1
  O  O6  1  0.83268600  0.34004400  0.26960400  1
  O  O7  1  0.65995600  0.16731400  0.23039600  1
  O  O8  1  0.46563000  0.36478800  0.73768200  1
  O  O9  1  0.63521200  0.53437000  0.76231800  1
  O  O10  1  0.53437000  0.63521200  0.26231800  1
  O  O11  1  0.36478800  0.46563000  0.23768200  1
  O  O12  1  0.80671500  0.87365700  0.90090200  1
  O  O13  1  0.12634300  0.19328500  0.59909800  1
  O  O14  1  0.19328500  0.12634300  0.09909800  1
  O  O15  1  0.87365700  0.80671500  0.40090200  1
loop_
_geom_bond_atom_site_label_1
_geom_bond_atom_site_label_2
_geom_bond_distance
_geom_bond_site_symmetry_2
C0 N4 1.270012 1_655
C0 N0 1.336529 1_555
C0 O12 1.375907 1_554
C1 N5 1.270012 1_545
C1 N1 1.336529 1_555
C1 O13 1.375907 1_555
C2 N6 1.270012 1_455
C2 N2 1.336529 1_555
C2 O14 1.375907 1_556
C3 N7 1.270012 1_565
C3 N3 1.336529 1_555
C3 O15 1.375907 1_555
N0 O12 1.533571 1_554
N1 O13 1.533571 1_555
N2 O14 1.533571 1_556
N3 O15 1.533571 1_555
N4 O0 1.265339 1_555
N5 O1 1.265339 1_555
N6 O2 1.265339 1_555
N7 O3 1.265339 1_555
O0 Te0 2.523493 1_554
O1 Te0 2.523493 1_555
O2 Te1 2.523493 1_556
O3 Te1 2.523493 1_555
O4 Te0 1.889153 1_555
O5 Te0 1.889153 1_555
O6 Te1 1.889153 1_555
O7 Te1 1.889153 1_555
O8 Te0 1.882498 1_555
O9 Te0 1.882498 1_555
O10 Te1 1.882498 1_555
O11 Te1 1.882498 1_555
