# generated using pymatgen
data_CeU4C5
_symmetry_space_group_name_H-M   'P 1'
_cell_length_a   12.64284670
_cell_length_b   12.64284670
_cell_length_c   12.64284670
_cell_angle_alpha   163.93854729
_cell_angle_beta   163.93854729
_cell_angle_gamma   22.78996397
_symmetry_Int_Tables_number   1
_chemical_formula_structural   CeU4C5
_chemical_formula_sum   'Ce1 U4 C5'
_cell_volume   154.65609743
_cell_formula_units_Z   1
loop_
 _symmetry_equiv_pos_site_id
 _symmetry_equiv_pos_as_xyz
  1  'x, y, z'
loop_
 _atom_site_type_symbol
 _atom_site_label
 _atom_site_symmetry_multiplicity
 _atom_site_fract_x
 _atom_site_fract_y
 _atom_site_fract_z
 _atom_site_occupancy
  Ce  Ce0  1  0.00000000  0.00000000  0.00000000  1
  U  U0  1  0.40048800  0.40048800  0.00000000  1
  U  U1  1  0.79936700  0.79936700  0.00000000  1
  U  U2  1  0.20063300  0.20063300  0.00000000  1
  U  U3  1  0.59951200  0.59951200  0.00000000  1
  C  C0  1  0.30000200  0.30000200  0.00000000  1
  C  C1  1  0.69999800  0.69999800  0.00000000  1
  C  C2  1  0.10512900  0.10512900  0.00000000  1
  C  C3  1  0.50000000  0.50000000  0.00000000  1
  C  C4  1  0.89487100  0.89487100  0.00000000  1
loop_
_geom_bond_atom_site_label_1
_geom_bond_atom_site_label_2
_geom_bond_distance
_geom_bond_site_symmetry_2
C0 U2 2.463087 1_555
C0 U0 2.490774 1_555
C0 U1 2.497916 1_444
C0 U1 2.497916 1_556
C0 U1 2.497916 1_545
C0 U1 2.497916 1_455
C1 U1 2.463087 1_555
C1 U3 2.490774 1_555
C1 U2 2.497916 1_666
C1 U2 2.497916 1_554
C1 U2 2.497916 1_565
C1 U2 2.497916 1_655
C2 U2 2.367284 1_555
C2 U3 2.501743 1_455
C2 U3 2.501743 1_545
C2 U3 2.501743 1_444
C2 U3 2.501743 1_556
C2 Ce0 2.605861 1_555
C3 U0 2.466631 1_555
C3 U3 2.466631 1_555
C3 Ce0 2.497866 1_565
C3 Ce0 2.497866 1_554
C3 Ce0 2.497866 1_666
C3 Ce0 2.497866 1_655
C4 U1 2.367284 1_555
C4 U0 2.501743 1_554
C4 U0 2.501743 1_565
C4 U0 2.501743 1_655
C4 U0 2.501743 1_666
C4 Ce0 2.605861 1_665
