# generated using pymatgen
data_V4Cd9O19
_symmetry_space_group_name_H-M   'P 1'
_cell_length_a   8.74566000
_cell_length_b   8.76980585
_cell_length_c   13.16380228
_cell_angle_alpha   95.59100795
_cell_angle_beta   102.51467110
_cell_angle_gamma   108.48391949
_symmetry_Int_Tables_number   1
_chemical_formula_structural   V4Cd9O19
_chemical_formula_sum   'V8 Cd18 O38'
_cell_volume   919.62852181
_cell_formula_units_Z   2
loop_
 _symmetry_equiv_pos_site_id
 _symmetry_equiv_pos_as_xyz
  1  'x, y, z'
loop_
 _atom_site_type_symbol
 _atom_site_label
 _atom_site_symmetry_multiplicity
 _atom_site_fract_x
 _atom_site_fract_y
 _atom_site_fract_z
 _atom_site_occupancy
  V  V0  1  0.47372400  0.23171300  0.35200500  1
  V  V1  1  0.53018500  0.77809600  0.64628100  1
  V  V2  1  0.01039300  0.25830800  0.56790100  1
  V  V3  1  0.99369200  0.76211800  0.43469000  1
  V  V4  1  0.36942200  0.00502100  0.84514900  1
  V  V5  1  0.62842200  0.98514900  0.14243800  1
  V  V6  1  0.08178100  0.37722100  0.11469900  1
  V  V7  1  0.93578400  0.62077400  0.88018400  1
  Cd  Cd0  1  0.20602100  0.02664500  0.08209800  1
  Cd  Cd1  1  0.79416300  0.97476300  0.91737800  1
  Cd  Cd2  1  0.86231600  0.72539900  0.12192300  1
  Cd  Cd3  1  0.15306700  0.27419100  0.87755900  1
  Cd  Cd4  1  0.26883100  0.80239100  0.26771200  1
  Cd  Cd5  1  0.73654000  0.22332300  0.73887500  1
  Cd  Cd6  1  0.04754100  0.10313800  0.31860600  1
  Cd  Cd7  1  0.94692200  0.91430200  0.68070000  1
  Cd  Cd8  1  0.25213700  0.50599400  0.42373400  1
  Cd  Cd9  1  0.73602700  0.50360600  0.56641000  1
  Cd  Cd10  1  0.59927800  0.34560700  0.99867200  1
  Cd  Cd11  1  0.37260600  0.66091800  0.99034500  1
  Cd  Cd12  1  0.65068700  0.89766100  0.42734300  1
  Cd  Cd13  1  0.35051500  0.12260600  0.57466500  1
  Cd  Cd14  1  0.51867700  0.54642000  0.24639700  1
  Cd  Cd15  1  0.49164300  0.47293100  0.76121800  1
  Cd  Cd16  1  0.83341400  0.39694500  0.26357100  1
  Cd  Cd17  1  0.14522800  0.63507400  0.70298500  1
  O  O0  1  0.67446000  0.38604400  0.38938400  1
  O  O1  1  0.32761000  0.62717700  0.60359800  1
  O  O2  1  0.34347700  0.28719900  0.42148000  1
  O  O3  1  0.65890000  0.72959800  0.57230000  1
  O  O4  1  0.39652300  0.23151800  0.22028600  1
  O  O5  1  0.61093200  0.76429100  0.77638800  1
  O  O6  1  0.47843500  0.04257800  0.37980100  1
  O  O7  1  0.52771200  0.96988900  0.62795500  1
  O  O8  1  0.93294300  0.38802400  0.63767200  1
  O  O9  1  0.05990900  0.63146000  0.35729600  1
  O  O10  1  0.01793100  0.30476300  0.44280700  1
  O  O11  1  0.98713700  0.70920400  0.55992400  1
  O  O12  1  0.20571900  0.28542400  0.64564400  1
  O  O13  1  0.79812900  0.74499900  0.36670200  1
  O  O14  1  0.87653600  0.05599200  0.55161400  1
  O  O15  1  0.12922200  0.96376900  0.45066900  1
  O  O16  1  0.42279400  0.67874000  0.34940400  1
  O  O17  1  0.57442900  0.33673600  0.64818800  1
  O  O18  1  0.09280200  0.92008000  0.20766500  1
  O  O19  1  0.90986200  0.09678400  0.79530800  1
  O  O20  1  0.41054100  0.88320300  0.12660900  1
  O  O21  1  0.58499600  0.11372400  0.86686700  1
  O  O22  1  0.06826300  0.33145200  0.24202200  1
  O  O23  1  0.92468900  0.68657400  0.75732900  1
  O  O24  1  0.74816700  0.99710600  0.26745800  1
  O  O25  1  0.24734100  0.00853300  0.72338200  1
  O  O26  1  0.03657500  0.19135100  0.02654300  1
  O  O27  1  0.97120800  0.79504900  0.97480700  1
  O  O28  1  0.68271000  0.86481800  0.04746800  1
  O  O29  1  0.30588100  0.09925500  0.94460200  1
  O  O30  1  0.94551200  0.47628600  0.07997000  1
  O  O31  1  0.08890100  0.53050700  0.89344500  1
  O  O32  1  0.67310800  0.18146400  0.11785600  1
  O  O33  1  0.33314600  0.79913300  0.85215400  1
  O  O34  1  0.28068000  0.51090700  0.11677700  1
  O  O35  1  0.74566800  0.47048900  0.87282800  1
  O  O36  1  0.68266700  0.51640000  0.15372600  1
  O  O37  1  0.40664200  0.44567900  0.90478000  1
loop_
_geom_bond_atom_site_label_1
_geom_bond_atom_site_label_2
_geom_bond_distance
_geom_bond_site_symmetry_2
Cd0 O29 2.236338 1_554
Cd0 O18 2.238214 1_545
Cd0 O4 2.337648 1_555
Cd0 O27 2.424158 1_444
Cd0 O26 2.431199 1_555
Cd0 O20 2.498245 1_545
Cd1 O19 2.259264 1_565
Cd1 O28 2.293810 1_556
Cd1 O5 2.363801 1_555
Cd1 O26 2.400411 1_666
Cd1 O21 2.513544 1_565
Cd1 O27 2.593292 1_555
Cd2 O36 2.147518 1_555
Cd2 O18 2.169893 1_655
Cd2 O27 2.385667 1_554
Cd2 O28 2.388925 1_555
Cd2 O30 2.560109 1_555
Cd3 O19 2.166192 1_455
Cd3 O37 2.178095 1_555
Cd3 O29 2.443637 1_555
Cd3 O26 2.467036 1_556
Cd3 O31 2.484059 1_555
Cd4 O16 2.161243 1_555
Cd4 O18 2.167759 1_555
Cd4 O6 2.397546 1_565
Cd4 O20 2.487086 1_555
Cd4 O9 2.553002 1_555
Cd5 O17 2.194636 1_555
Cd5 O19 2.195510 1_555
Cd5 O21 2.448410 1_555
Cd5 O7 2.458748 1_545
Cd5 O8 2.570018 1_555
Cd5 O35 2.626537 1_555
Cd6 O18 2.250190 1_545
Cd6 O22 2.302321 1_555
Cd6 O15 2.335771 1_545
Cd6 O24 2.396535 1_445
Cd6 O10 2.403588 1_555
Cd6 O2 2.558146 1_555
Cd7 O19 2.238877 1_565
Cd7 O14 2.292069 1_565
Cd7 O23 2.296778 1_555
Cd7 O25 2.407215 1_665
Cd7 O11 2.443939 1_555
Cd7 O3 2.531753 1_555
Cd8 O16 2.228919 1_555
Cd8 O2 2.300401 1_555
Cd8 O10 2.321654 1_555
Cd8 O9 2.350553 1_555
Cd8 O1 2.357691 1_555
Cd8 O22 2.590272 1_555
Cd9 O17 2.225474 1_555
Cd9 O3 2.286774 1_555
Cd9 O0 2.327962 1_555
Cd9 O8 2.337796 1_555
Cd9 O11 2.383639 1_555
Cd9 O23 2.711414 1_555
Cd10 O36 2.237851 1_556
Cd10 O37 2.320043 1_555
Cd10 O32 2.353928 1_556
Cd10 O35 2.442627 1_555
Cd10 O21 2.493778 1_555
Cd10 O29 2.674335 1_555
Cd10 O30 2.789977 1_556
Cd11 O37 2.237776 1_555
Cd11 O33 2.306587 1_555
Cd11 O34 2.341564 1_556
Cd11 O31 2.374066 1_555
Cd11 O20 2.403834 1_556
Cd11 O28 2.626293 1_556
Cd12 O14 2.218910 1_565
Cd12 O16 2.239345 1_555
Cd12 O6 2.288366 1_565
Cd12 O13 2.329145 1_555
Cd12 O3 2.524756 1_555
Cd12 O24 2.565339 1_555
Cd13 O17 2.188768 1_555
Cd13 O15 2.197441 1_545
Cd13 O7 2.390686 1_545
Cd13 O12 2.432039 1_555
Cd13 O25 2.494452 1_555
Cd13 O2 2.592933 1_555
Cd14 O36 2.132950 1_555
Cd14 O16 2.166006 1_555
Cd14 O34 2.299363 1_555
Cd14 O13 2.569121 1_555
Cd14 O4 2.582872 1_555
Cd15 O37 2.182973 1_555
Cd15 O17 2.198539 1_555
Cd15 O35 2.390891 1_555
Cd15 O5 2.403579 1_555
Cd15 O12 2.555020 1_555
Cd16 O36 2.295905 1_555
Cd16 O9 2.353514 1_655
Cd16 O22 2.365938 1_655
Cd16 O0 2.372546 1_555
Cd16 O32 2.379981 1_555
Cd17 O33 2.275627 1_555
Cd17 O1 2.284171 1_555
Cd17 O8 2.296711 1_455
Cd17 O23 2.350153 1_455
Cd17 O11 2.358149 1_455
O0 V0 1.773477 1_555
O1 V1 1.772871 1_555
O2 V0 1.756974 1_555
O3 V1 1.759118 1_555
O4 V0 1.718629 1_555
O5 V1 1.736996 1_555
O6 V0 1.744090 1_555
O7 V1 1.728472 1_555
O8 V2 1.775124 1_655
O9 V3 1.770667 1_455
O10 V2 1.744341 1_555
O11 V3 1.763381 1_555
O12 V2 1.720284 1_555
O13 V3 1.701875 1_555
O14 V2 1.750584 1_655
O15 V3 1.751262 1_455
O20 V5 1.784690 1_555
O21 V4 1.765982 1_555
O22 V6 1.780763 1_555
O23 V7 1.762727 1_555
O24 V5 1.722207 1_555
O25 V4 1.731766 1_555
O26 V6 1.784372 1_555
O27 V7 1.773402 1_555
O28 V5 1.794384 1_555
O29 V4 1.761078 1_555
O30 V6 1.697604 1_655
O31 V7 1.745893 1_455
O32 V5 1.719952 1_545
O33 V4 1.746779 1_565
O34 V6 1.755317 1_555
O35 V7 1.739775 1_555
