# generated using pymatgen
data_Mg3V4(PO4)6
_symmetry_space_group_name_H-M   'P 1'
_cell_length_a   6.42348600
_cell_length_b   8.01991252
_cell_length_c   9.46364456
_cell_angle_alpha   105.34087024
_cell_angle_beta   108.78688976
_cell_angle_gamma   101.06704843
_symmetry_Int_Tables_number   1
_chemical_formula_structural   Mg3V4(PO4)6
_chemical_formula_sum   'Mg3 V4 P6 O24'
_cell_volume   424.10211838
_cell_formula_units_Z   1
loop_
 _symmetry_equiv_pos_site_id
 _symmetry_equiv_pos_as_xyz
  1  'x, y, z'
loop_
 _atom_site_type_symbol
 _atom_site_label
 _atom_site_symmetry_multiplicity
 _atom_site_fract_x
 _atom_site_fract_y
 _atom_site_fract_z
 _atom_site_occupancy
  Mg  Mg0  1  0.00000000  0.00000000  0.00000000  1
  Mg  Mg1  1  0.72164900  0.19027500  0.71081000  1
  Mg  Mg2  1  0.27835100  0.80972500  0.28919000  1
  V  V0  1  0.61176200  0.53846900  0.88372200  1
  V  V1  1  0.38823800  0.46153100  0.11627800  1
  V  V2  1  0.04736500  0.71732500  0.52382900  1
  V  V3  1  0.95263500  0.28267500  0.47617100  1
  P  P0  1  0.77121600  0.85438000  0.23007800  1
  P  P1  1  0.22878400  0.14562000  0.76992200  1
  P  P2  1  0.91306800  0.41016500  0.16676300  1
  P  P3  1  0.08693200  0.58983500  0.83323700  1
  P  P4  1  0.39301200  0.22766500  0.36625600  1
  P  P5  1  0.60698800  0.77233500  0.63374400  1
  O  O0  1  0.77093200  0.80026200  0.05799700  1
  O  O1  1  0.22906800  0.19973800  0.94200300  1
  O  O2  1  0.45029000  0.36326200  0.28604900  1
  O  O3  1  0.54971000  0.63673800  0.71395100  1
  O  O4  1  0.98347200  0.81691800  0.33884800  1
  O  O5  1  0.01652800  0.18308200  0.66115200  1
  O  O6  1  0.89829400  0.21723700  0.08647100  1
  O  O7  1  0.10170600  0.78276300  0.91352900  1
  O  O8  1  0.26862600  0.03631000  0.23559100  1
  O  O9  1  0.73137400  0.96369000  0.76440900  1
  O  O10  1  0.62558000  0.22829900  0.49142800  1
  O  O11  1  0.37442000  0.77170100  0.50857200  1
  O  O12  1  0.93769100  0.45808400  0.34525600  1
  O  O13  1  0.06230900  0.54191600  0.65474400  1
  O  O14  1  0.54229000  0.73778500  0.22816800  1
  O  O15  1  0.45771000  0.26221500  0.77183200  1
  O  O16  1  0.12332300  0.54269400  0.16491300  1
  O  O17  1  0.87667700  0.45730600  0.83508700  1
  O  O18  1  0.24575000  0.27701900  0.46070500  1
  O  O19  1  0.75425000  0.72298100  0.53929500  1
  O  O20  1  0.78662500  0.05330300  0.29085200  1
  O  O21  1  0.21337500  0.94669700  0.70914800  1
  O  O22  1  0.69214900  0.45983900  0.08068400  1
  O  O23  1  0.30785100  0.54016100  0.91931600  1
loop_
_geom_bond_atom_site_label_1
_geom_bond_atom_site_label_2
_geom_bond_distance
_geom_bond_site_symmetry_2
Mg0 O6 2.039303 1_455
Mg0 O7 2.039303 1_544
Mg0 O8 2.240252 1_555
Mg0 O9 2.240252 1_444
Mg0 O0 2.261156 1_445
Mg0 O1 2.261156 1_554
Mg1 O17 2.013798 1_555
Mg1 O9 2.018484 1_545
Mg1 O10 2.089557 1_555
Mg1 O15 2.090608 1_555
Mg1 O5 2.100698 1_655
Mg2 O16 2.013798 1_555
Mg2 O8 2.018484 1_565
Mg2 O11 2.089557 1_555
Mg2 O14 2.090608 1_555
Mg2 O4 2.100698 1_455
O0 P0 1.569786 1_555
O0 V0 2.105028 1_554
O1 P1 1.569786 1_555
O1 V1 2.105028 1_556
O2 P4 1.535306 1_555
O2 V1 1.933760 1_555
O3 P5 1.535306 1_555
O3 V0 1.933760 1_555
O4 P0 1.557469 1_555
O4 V2 2.067345 1_655
O5 P1 1.557469 1_555
O5 V3 2.067345 1_455
O6 P2 1.501836 1_555
O7 P3 1.501836 1_555
O8 P4 1.552870 1_555
O9 P5 1.552870 1_555
O10 P4 1.577677 1_555
O10 V3 2.121672 1_555
O11 P5 1.577677 1_555
O11 V2 2.121672 1_555
O12 P2 1.577078 1_555
O12 V3 2.102522 1_555
O12 V2 2.118160 1_655
O13 P3 1.577078 1_555
O13 V2 2.102522 1_555
O13 V3 2.118160 1_455
O14 P0 1.575792 1_555
O14 V1 2.061827 1_555
O15 P1 1.575792 1_555
O15 V0 2.061827 1_555
O16 P2 1.558208 1_455
O16 V1 2.074233 1_555
O17 P3 1.558208 1_655
O17 V0 2.074233 1_555
O18 P4 1.533471 1_555
O18 V3 1.943005 1_455
O19 P5 1.533471 1_555
O19 V2 1.943005 1_655
O20 P0 1.517540 1_545
O20 V3 1.982958 1_555
O21 P1 1.517540 1_565
O21 V2 1.982958 1_555
O22 P2 1.574881 1_555
O22 V0 2.065365 1_554
O22 V1 2.087082 1_555
O23 P3 1.574881 1_555
O23 V1 2.065365 1_556
O23 V0 2.087082 1_555
