# generated using pymatgen
data_Sr7PrFe4(MoO6)4
_symmetry_space_group_name_H-M   'P 1'
_cell_length_a   5.61864700
_cell_length_b   5.68186256
_cell_length_c   18.79492136
_cell_angle_alpha   97.92251447
_cell_angle_beta   89.96095822
_cell_angle_gamma   119.60197390
_symmetry_Int_Tables_number   1
_chemical_formula_structural   Sr7PrFe4(MoO6)4
_chemical_formula_sum   'Sr7 Pr1 Fe4 Mo4 O24'
_cell_volume   515.13620255
_cell_formula_units_Z   1
loop_
 _symmetry_equiv_pos_site_id
 _symmetry_equiv_pos_as_xyz
  1  'x, y, z'
loop_
 _atom_site_type_symbol
 _atom_site_label
 _atom_site_symmetry_multiplicity
 _atom_site_fract_x
 _atom_site_fract_y
 _atom_site_fract_z
 _atom_site_occupancy
  Sr  Sr0  1  0.06352400  0.93638100  0.19163300  1
  Sr  Sr1  1  0.81380800  0.18591900  0.43679600  1
  Sr  Sr2  1  0.56593300  0.44233400  0.69103500  1
  Sr  Sr3  1  0.30932300  0.68692100  0.92993300  1
  Sr  Sr4  1  0.43234900  0.56213400  0.31185900  1
  Sr  Sr5  1  0.69361800  0.31509400  0.06650100  1
  Sr  Sr6  1  0.18757700  0.81157400  0.56135500  1
  Pr  Pr0  1  0.93985100  0.06440600  0.80969300  1
  Fe  Fe0  1  0.75478900  0.25164800  0.25054300  1
  Fe  Fe1  1  0.49621900  0.49996000  0.50045500  1
  Fe  Fe2  1  0.24979900  0.74784200  0.75215300  1
  Fe  Fe3  1  0.62565500  0.37848600  0.87072900  1
  Mo  Mo0  1  0.00238600  0.00340500  0.99633000  1
  Mo  Mo1  1  0.37646300  0.62668600  0.12555000  1
  Mo  Mo2  1  0.12399000  0.87369300  0.37623100  1
  Mo  Mo3  1  0.87545300  0.12449200  0.62512000  1
  O  O0  1  0.18665200  0.32031500  0.05879200  1
  O  O1  1  0.92763500  0.55999900  0.31390100  1
  O  O2  1  0.69320100  0.80892300  0.56398200  1
  O  O3  1  0.44533100  0.06196000  0.81231900  1
  O  O4  1  0.60740400  0.46239600  0.17721400  1
  O  O5  1  0.36592100  0.71696300  0.42849700  1
  O  O6  1  0.10927600  0.97760200  0.67654200  1
  O  O7  1  0.87207700  0.21549100  0.91934700  1
  O  O8  1  0.67180900  0.85607300  0.04693500  1
  O  O9  1  0.39781800  0.08038100  0.30673000  1
  O  O10  1  0.15761600  0.34120200  0.55246100  1
  O  O11  1  0.90635200  0.62710800  0.80161400  1
  O  O12  1  0.55676400  0.93676900  0.18726400  1
  O  O13  1  0.32071400  0.18605000  0.43958600  1
  O  O14  1  0.05338100  0.43080900  0.69074800  1
  O  O15  1  0.81303000  0.69320700  0.93422000  1
  O  O16  1  0.08835900  0.39816400  0.20019600  1
  O  O17  1  0.85369800  0.66316600  0.44767600  1
  O  O18  1  0.60392600  0.90878800  0.70233600  1
  O  O19  1  0.33980600  0.15244900  0.94963100  1
  O  O20  1  0.13387300  0.78531500  0.07232500  1
  O  O21  1  0.88266000  0.02799200  0.32397000  1
  O  O22  1  0.64779100  0.27725900  0.57533900  1
  O  O23  1  0.35417000  0.50064500  0.82245800  1
loop_
_geom_bond_atom_site_label_1
_geom_bond_atom_site_label_2
_geom_bond_distance
_geom_bond_site_symmetry_2
Fe0 O1 1.782187 1_555
Fe0 O12 1.817124 1_545
Fe0 O16 1.942788 1_655
Fe0 O9 2.106448 1_555
Fe0 O21 2.328612 1_555
Fe0 O4 2.335646 1_555
Fe1 O13 1.778720 1_555
Fe1 O2 1.799103 1_555
Fe1 O10 1.983341 1_555
Fe1 O17 2.070981 1_555
Fe1 O5 2.288697 1_555
Fe1 O22 2.421669 1_555
Fe2 O3 1.783062 1_565
Fe2 O14 1.805369 1_555
Fe2 O11 1.980931 1_455
Fe2 O18 2.026768 1_555
Fe2 O23 2.321435 1_555
Fe2 O6 2.424543 1_555
Fe3 O3 1.767265 1_555
Fe3 O15 1.812067 1_555
Fe3 O11 2.114790 1_555
Fe3 O23 2.202977 1_555
Fe3 O19 2.216318 1_555
Fe3 O7 2.260858 1_555
Mo0 O15 1.784101 1_445
Mo0 O0 1.808191 1_556
Mo0 O19 1.923080 1_555
Mo0 O8 1.932944 1_446
Mo0 O7 2.331397 1_455
Mo0 O20 2.348441 1_546
Mo1 O12 1.775021 1_555
Mo1 O0 1.818665 1_555
Mo1 O16 2.167297 1_555
Mo1 O4 2.224004 1_555
Mo1 O8 2.241972 1_555
Mo1 O20 2.266059 1_555
Mo2 O1 1.802733 1_455
Mo2 O13 1.808485 1_565
Mo2 O9 2.021807 1_565
Mo2 O17 2.045886 1_455
Mo2 O21 2.232856 1_465
Mo2 O5 2.246030 1_555
Mo3 O2 1.789864 1_545
Mo3 O14 1.800266 1_655
Mo3 O10 2.103924 1_655
Mo3 O18 2.139119 1_545
Mo3 O22 2.141842 1_555
Mo3 O6 2.159626 1_645
O4 Sr5 2.276864 1_555
O4 Sr0 2.622071 1_655
O4 Sr4 2.800830 1_555
O4 Sr0 3.089244 1_545
O5 Sr4 2.347466 1_555
O5 Sr1 2.591992 1_565
O5 Sr6 2.772562 1_555
O5 Sr1 3.103798 1_455
O6 Sr6 2.369834 1_555
O6 Sr2 2.596003 1_565
O6 Pr0 2.744560 1_465
O6 Sr2 3.114195 1_455
O7 Pr0 2.227908 1_555
O7 Sr3 2.569533 1_655
O8 Sr5 2.524349 1_565
O8 Sr3 2.719780 1_554
O9 Sr0 2.622277 1_545
O9 Sr4 2.634788 1_555
O10 Sr6 2.575154 1_555
O10 Sr1 2.651249 1_455
O11 Pr0 2.380350 1_565
O11 Sr2 2.549531 1_555
O12 Sr0 2.771423 1_555
O12 Sr0 2.849643 1_655
O16 Sr0 2.539990 1_545
O16 Sr4 2.587593 1_555
O17 Sr1 2.586867 1_555
O17 Sr6 2.596392 1_655
O18 Pr0 2.506042 1_565
O18 Sr2 2.529991 1_555
O19 Sr3 2.538768 1_545
O19 Sr5 2.694853 1_556
O20 Sr0 2.392625 1_555
O20 Sr5 2.580610 1_455
O20 Sr3 2.928320 1_554
O20 Sr5 3.114733 1_565
O21 Sr1 2.295404 1_555
O21 Sr4 2.584186 1_545
O21 Sr0 2.766287 1_645
O21 Sr4 3.119384 1_655
O22 Sr2 2.383754 1_555
O22 Sr6 2.608883 1_545
O22 Sr1 2.832346 1_555
O22 Sr6 3.099430 1_655
O23 Sr3 2.222038 1_555
O23 Pr0 2.399324 1_455
O23 Sr2 2.790450 1_555
