# generated using pymatgen
data_NdHCO4
_symmetry_space_group_name_H-M   'P 1'
_cell_length_a   4.99121700
_cell_length_b   7.33697800
_cell_length_c   8.66358800
_cell_angle_alpha   90.00000000
_cell_angle_beta   90.00000000
_cell_angle_gamma   90.00000000
_symmetry_Int_Tables_number   1
_chemical_formula_structural   NdHCO4
_chemical_formula_sum   'Nd4 H4 C4 O16'
_cell_volume   317.26448530
_cell_formula_units_Z   4
loop_
 _symmetry_equiv_pos_site_id
 _symmetry_equiv_pos_as_xyz
  1  'x, y, z'
loop_
 _atom_site_type_symbol
 _atom_site_label
 _atom_site_symmetry_multiplicity
 _atom_site_fract_x
 _atom_site_fract_y
 _atom_site_fract_z
 _atom_site_occupancy
  Nd  Nd0  1  0.75151100  0.14202900  0.33641500  1
  Nd  Nd1  1  0.74848900  0.64202900  0.16358500  1
  Nd  Nd2  1  0.25151100  0.85797100  0.66358500  1
  Nd  Nd3  1  0.24848900  0.35797100  0.83641500  1
  H  H0  1  0.85475800  0.50275500  0.47323900  1
  H  H1  1  0.64524200  0.00275500  0.02676100  1
  H  H2  1  0.35475800  0.49724500  0.52676100  1
  H  H3  1  0.14524200  0.99724500  0.97323900  1
  C  C0  1  0.25117300  0.30376000  0.17616700  1
  C  C1  1  0.24882700  0.80376000  0.32383300  1
  C  C2  1  0.75117300  0.69624000  0.82383300  1
  C  C3  1  0.74882700  0.19624000  0.67616700  1
  O  O0  1  0.74171400  0.46012200  0.38843400  1
  O  O1  1  0.75828600  0.96012200  0.11156600  1
  O  O2  1  0.24171400  0.53987800  0.61156600  1
  O  O3  1  0.25828600  0.03987800  0.88843400  1
  O  O4  1  0.02802900  0.34761000  0.10889200  1
  O  O5  1  0.47197100  0.84761000  0.39110800  1
  O  O6  1  0.52802900  0.65239000  0.89110800  1
  O  O7  1  0.97197100  0.15239000  0.60889200  1
  O  O8  1  0.97782100  0.65159000  0.88739400  1
  O  O9  1  0.52217900  0.15159000  0.61260600  1
  O  O10  1  0.47782100  0.34841000  0.11260600  1
  O  O11  1  0.02217900  0.84841000  0.38739400  1
  O  O12  1  0.24943600  0.20718900  0.30095000  1
  O  O13  1  0.25056400  0.70718900  0.19905000  1
  O  O14  1  0.74943600  0.79281100  0.69905000  1
  O  O15  1  0.75056400  0.29281100  0.80095000  1
loop_
_geom_bond_atom_site_label_1
_geom_bond_atom_site_label_2
_geom_bond_distance
_geom_bond_site_symmetry_2
Nd0 O1 2.361594 1_545
Nd0 O0 2.377459 1_555
Nd0 O12 2.549400 1_655
Nd0 O12 2.569596 1_555
Nd0 O11 2.580905 1_645
Nd0 O7 2.605599 1_555
Nd0 O5 2.614854 1_545
Nd0 O9 2.653422 1_555
Nd0 O10 2.814001 1_555
Nd0 O4 2.839972 1_655
Nd1 O0 2.361594 1_555
Nd1 O1 2.377459 1_555
Nd1 O13 2.549400 1_555
Nd1 O13 2.569596 1_655
Nd1 O10 2.580905 1_555
Nd1 O6 2.605599 1_554
Nd1 O4 2.614854 1_655
Nd1 O8 2.653422 1_554
Nd1 O11 2.814001 1_655
Nd1 O5 2.839972 1_555
Nd2 O3 2.361594 1_565
Nd2 O2 2.377459 1_555
Nd2 O14 2.549400 1_555
Nd2 O14 2.569596 1_455
Nd2 O9 2.580905 1_565
Nd2 O5 2.605599 1_555
Nd2 O7 2.614854 1_465
Nd2 O11 2.653422 1_555
Nd2 O8 2.814001 1_455
Nd2 O6 2.839972 1_555
Nd3 O2 2.361594 1_555
Nd3 O3 2.377459 1_555
Nd3 O15 2.549400 1_455
Nd3 O15 2.569596 1_555
Nd3 O8 2.580905 1_455
Nd3 O4 2.605599 1_556
Nd3 O6 2.614854 1_555
Nd3 O10 2.653422 1_556
Nd3 O9 2.814001 1_555
Nd3 O7 2.839972 1_455
H0 O0 0.977753 1_555
H1 O1 0.977753 1_545
H2 O2 0.977753 1_555
H3 O3 0.977753 1_565
C0 O12 1.292599 1_555
C0 O4 1.297565 1_555
C0 O10 1.300107 1_555
C1 O13 1.292599 1_555
C1 O5 1.297565 1_555
C1 O11 1.300107 1_555
C2 O14 1.292599 1_555
C2 O6 1.297565 1_555
C2 O8 1.300107 1_555
C3 O15 1.292599 1_555
C3 O7 1.297565 1_555
C3 O9 1.300107 1_555
