# generated using pymatgen
data_Ca2Co9O13
_symmetry_space_group_name_H-M   'P 1'
_cell_length_a   5.23532238
_cell_length_b   5.23532238
_cell_length_c   16.61302982
_cell_angle_alpha   81.31589150
_cell_angle_beta   81.31589150
_cell_angle_gamma   33.88239266
_symmetry_Int_Tables_number   1
_chemical_formula_structural   Ca2Co9O13
_chemical_formula_sum   'Ca2 Co9 O13'
_cell_volume   250.66555219
_cell_formula_units_Z   1
loop_
 _symmetry_equiv_pos_site_id
 _symmetry_equiv_pos_as_xyz
  1  'x, y, z'
loop_
 _atom_site_type_symbol
 _atom_site_label
 _atom_site_symmetry_multiplicity
 _atom_site_fract_x
 _atom_site_fract_y
 _atom_site_fract_z
 _atom_site_occupancy
  Ca  Ca0  1  0.78289900  0.78289900  0.22784600  1
  Ca  Ca1  1  0.21710100  0.21710100  0.77215400  1
  Co  Co0  1  0.50000000  0.50000000  0.50000000  1
  Co  Co1  1  0.35487400  0.35487400  0.03788800  1
  Co  Co2  1  0.64512600  0.64512600  0.96211200  1
  Co  Co3  1  0.24557600  0.24557600  0.42100400  1
  Co  Co4  1  0.75442400  0.75442400  0.57899600  1
  Co  Co5  1  0.06226800  0.06226800  0.12425400  1
  Co  Co6  1  0.93773200  0.93773200  0.87574600  1
  Co  Co7  1  0.99896000  0.99896000  0.33898900  1
  Co  Co8  1  0.00104000  0.00104000  0.66101100  1
  O  O0  1  0.00000000  0.00000000  0.00000000  1
  O  O1  1  0.10821600  0.10821600  0.22501300  1
  O  O2  1  0.89178400  0.89178400  0.77498700  1
  O  O3  1  0.70198800  0.70198800  0.07534300  1
  O  O4  1  0.29801200  0.29801200  0.92465700  1
  O  O5  1  0.42496200  0.42496200  0.14214900  1
  O  O6  1  0.57503800  0.57503800  0.85785100  1
  O  O7  1  0.36644300  0.36644300  0.31904200  1
  O  O8  1  0.63355700  0.63355700  0.68095800  1
  O  O9  1  0.61632800  0.61632800  0.38701900  1
  O  O10  1  0.38367200  0.38367200  0.61298100  1
  O  O11  1  0.86934200  0.86934200  0.46584000  1
  O  O12  1  0.13065800  0.13065800  0.53416000  1
loop_
_geom_bond_atom_site_label_1
_geom_bond_atom_site_label_2
_geom_bond_distance
_geom_bond_site_symmetry_2
Ca0 O1 2.327396 1_655
Ca0 O1 2.327396 1_565
Ca0 O7 2.392280 1_655
Ca0 O7 2.392280 1_565
Ca0 O5 2.395697 1_655
Ca0 O5 2.395697 1_565
Ca0 O3 2.779164 1_555
Ca0 O9 2.895424 1_555
Ca1 O2 2.327396 1_455
Ca1 O2 2.327396 1_545
Ca1 O8 2.392280 1_545
Ca1 O8 2.392280 1_455
Ca1 O6 2.395697 1_545
Ca1 O6 2.395697 1_455
Ca1 O4 2.779164 1_555
Ca1 O10 2.895424 1_555
Co0 O9 2.047004 1_555
Co0 O10 2.047004 1_555
Co0 O12 2.143928 1_655
Co0 O12 2.143928 1_565
Co0 O11 2.143928 1_545
Co0 O11 2.143928 1_455
Co1 O5 1.968963 1_555
Co1 O4 2.049673 1_554
Co1 O0 2.132507 1_565
Co1 O0 2.132507 1_655
Co1 O3 2.181428 1_545
Co1 O3 2.181428 1_455
Co2 O6 1.968963 1_555
Co2 O3 2.049673 1_556
Co2 O0 2.132507 1_656
Co2 O0 2.132507 1_566
Co2 O4 2.181428 1_655
Co2 O4 2.181428 1_565
Co3 O7 1.920308 1_555
Co3 O12 2.043464 1_555
Co3 O9 2.133694 1_545
Co3 O9 2.133694 1_455
Co3 O11 2.170325 1_545
Co3 O11 2.170325 1_455
Co4 O8 1.920308 1_555
Co4 O11 2.043464 1_555
Co4 O10 2.133694 1_565
Co4 O10 2.133694 1_655
Co4 O12 2.170325 1_565
Co4 O12 2.170325 1_655
Co5 O1 1.804710 1_555
Co5 O5 2.044006 1_545
Co5 O5 2.044006 1_455
Co5 O3 2.141734 1_545
Co5 O3 2.141734 1_455
Co5 O0 2.248660 1_555
Co6 O2 1.804710 1_555
Co6 O6 2.044006 1_565
Co6 O6 2.044006 1_655
Co6 O4 2.141734 1_655
Co6 O4 2.141734 1_565
Co6 O0 2.248660 1_666
Co7 O1 2.031934 1_665
Co7 O7 2.082707 1_655
Co7 O7 2.082707 1_565
Co7 O9 2.154534 1_565
Co7 O9 2.154534 1_655
Co7 O11 2.294107 1_555
Co8 O2 2.031934 1_445
Co8 O8 2.082707 1_545
Co8 O8 2.082707 1_455
Co8 O10 2.154534 1_455
Co8 O10 2.154534 1_545
Co8 O12 2.294107 1_555
