# generated using pymatgen
data_Sr5Al11TlSi13O48
_symmetry_space_group_name_H-M   'P 1'
_cell_length_a   12.51125068
_cell_length_b   12.36882330
_cell_length_c   12.37870557
_cell_angle_alpha   90.15687375
_cell_angle_beta   89.66950524
_cell_angle_gamma   88.99353974
_symmetry_Int_Tables_number   1
_chemical_formula_structural   Sr5Al11TlSi13O48
_chemical_formula_sum   'Sr5 Al11 Tl1 Si13 O48'
_cell_volume   1915.26274211
_cell_formula_units_Z   1
loop_
 _symmetry_equiv_pos_site_id
 _symmetry_equiv_pos_as_xyz
  1  'x, y, z'
loop_
 _atom_site_type_symbol
 _atom_site_label
 _atom_site_symmetry_multiplicity
 _atom_site_fract_x
 _atom_site_fract_y
 _atom_site_fract_z
 _atom_site_occupancy
  Sr  Sr0  1  0.22067630  0.76988145  0.21196754  1
  Sr  Sr1  1  0.77288657  0.21169912  0.20834585  1
  Sr  Sr2  1  0.76132452  0.20418104  0.79494122  1
  Sr  Sr3  1  0.76882669  0.80272879  0.21159246  1
  Sr  Sr4  1  0.85114664  0.85356306  0.82509465  1
  Al  Al0  1  0.19142553  0.61618097  0.99188105  1
  Al  Al1  1  0.61356074  0.01418625  0.18384975  1
  Al  Al2  1  0.60531219  0.19267234  0.99990710  1
  Al  Al3  1  0.62091367  0.81536282  0.99771766  1
  Al  Al4  1  0.62070492  0.98623191  0.81276124  1
  Al  Al5  1  0.82663664  0.01901786  0.62088210  1
  Al  Al6  1  0.82853313  0.36421298  0.99170596  1
  Al  Al7  1  0.82594092  0.63045519  0.01424316  1
  Al  Al8  1  0.82605109  0.00655999  0.36704085  1
  Al  Al9  1  0.99672268  0.62995867  0.81432073  1
  Al  Al10  1  0.00826847  0.81422341  0.37495976  1
  Tl  Tl0  1  0.66577286  0.58963256  0.84792146  1
  Si  Si0  1  0.00789450  0.36929181  0.17999003  1
  Si  Si1  1  0.01066228  0.19247127  0.62267557  1
  Si  Si2  1  0.18881726  0.99909994  0.62204880  1
  Si  Si3  1  0.18416594  0.37076605  0.99217525  1
  Si  Si4  1  0.18811667  0.00280265  0.37085445  1
  Si  Si5  1  0.36890499  0.00551632  0.17869829  1
  Si  Si6  1  0.36337441  0.18161864  0.98923409  1
  Si  Si7  1  0.36331331  0.82017750  0.99397825  1
  Si  Si8  1  0.36717592  0.99229114  0.81042690  1
  Si  Si9  1  0.01076418  0.18954791  0.36911483  1
  Si  Si10  1  0.00414607  0.37488016  0.80582063  1
  Si  Si11  1  0.01107897  0.62061298  0.19000710  1
  Si  Si12  1  0.01294637  0.82463891  0.62641505  1
  O  O0  1  0.01621406  0.29423865  0.28874001  1
  O  O1  1  0.99117879  0.49408232  0.22336180  1
  O  O2  1  0.02831581  0.29704188  0.69969867  1
  O  O3  1  0.03428246  0.69958984  0.29257582  1
  O  O4  1  0.00222164  0.77472891  0.50747154  1
  O  O5  1  0.98932349  0.73543174  0.71821671  1
  O  O6  1  0.11291215  0.10878783  0.34727635  1
  O  O7  1  0.11254595  0.35660358  0.10446618  1
  O  O8  1  0.10528213  0.10141259  0.64152459  1
  O  O9  1  0.11980413  0.63211283  0.11896470  1
  O  O10  1  0.10391285  0.36196291  0.88877316  1
  O  O11  1  0.12649490  0.88937753  0.34719315  1
  O  O12  1  0.10822875  0.64745933  0.88955259  1
  O  O13  1  0.12928252  0.88433498  0.64002716  1
  O  O14  1  0.23216465  0.00579699  0.49518777  1
  O  O15  1  0.24493610  0.48432571  0.99414404  1
  O  O16  1  0.28297830  0.00023363  0.27985939  1
  O  O17  1  0.26378867  0.26672836  0.98801972  1
  O  O18  1  0.28739397  0.00441917  0.70578519  1
  O  O19  1  0.28499839  0.71988049  0.02118381  1
  O  O20  1  0.35249796  0.11115045  0.10304644  1
  O  O21  1  0.34860743  0.09902870  0.88703775  1
  O  O22  1  0.33578838  0.89689526  0.10548193  1
  O  O23  1  0.33055547  0.88753054  0.88515697  1
  O  O24  1  0.47535699  0.24388162  0.98317427  1
  O  O25  1  0.48868144  0.97846403  0.76797553  1
  O  O26  1  0.48634894  0.78143646  0.99469232  1
  O  O27  1  0.48458059  0.98944178  0.23144721  1
  O  O28  1  0.61883463  0.14434928  0.13133291  1
  O  O29  1  0.63485025  0.10017216  0.89636192  1
  O  O30  1  0.65157498  0.90580794  0.10063761  1
  O  O31  1  0.66426245  0.86168416  0.87092290  1
  O  O32  1  0.72563015  0.01528258  0.26958625  1
  O  O33  1  0.73430001  0.01348319  0.72838072  1
  O  O34  1  0.72012762  0.27670185  0.98910659  1
  O  O35  1  0.70650903  0.70581755  0.03552322  1
  O  O36  1  0.77648308  0.01291930  0.49484534  1
  O  O37  1  0.78853804  0.49782645  0.99536455  1
  O  O38  1  0.90054811  0.12797457  0.33791836  1
  O  O39  1  0.89279096  0.14433346  0.65268439  1
  O  O40  1  0.90061008  0.33109289  0.11384364  1
  O  O41  1  0.89755177  0.32616670  0.86956253  1
  O  O42  1  0.90196641  0.66610539  0.13018217  1
  O  O43  1  0.87806737  0.67285652  0.88968935  1
  O  O44  1  0.89621958  0.88613063  0.32954335  1
  O  O45  1  0.92116286  0.91781461  0.65401330  1
  O  O46  1  0.01180428  0.23017489  0.49490225  1
  O  O47  1  0.97982600  0.49686109  0.76739310  1
loop_
_geom_bond_atom_site_label_1
_geom_bond_atom_site_label_2
_geom_bond_distance
_geom_bond_site_symmetry_2
Al0 O12 1.685645 1_555
Al0 O15 1.752404 1_555
Al0 O19 1.789529 1_556
Al0 O9 1.814486 1_556
Al1 O28 1.740093 1_555
Al1 O30 1.746019 1_545
Al1 O27 1.747063 1_545
Al1 O32 1.763598 1_555
Al2 O28 1.742859 1_556
Al2 O24 1.748165 1_555
Al2 O29 1.749322 1_555
Al2 O34 1.792372 1_555
Al3 O30 1.742031 1_556
Al3 O26 1.742805 1_555
Al3 O31 1.758387 1_555
Al3 O35 1.777640 1_556
Al4 O25 1.749514 1_555
Al4 O29 1.758211 1_565
Al4 O31 1.780339 1_555
Al4 O33 1.796142 1_565
Al5 O36 1.686972 1_555
Al5 O45 1.757884 1_545
Al5 O33 1.759423 1_555
Al5 O39 1.813292 1_555
Al6 O37 1.718703 1_555
Al6 O34 1.750443 1_555
Al6 O41 1.794420 1_555
Al6 O40 1.809148 1_556
Al7 O37 1.729405 1_554
Al7 O43 1.755680 1_554
Al7 O35 1.765283 1_555
Al7 O42 1.784913 1_555
Al8 O36 1.697046 1_555
Al8 O32 1.748972 1_555
Al8 O44 1.774978 1_545
Al8 O38 1.817198 1_555
Al9 O12 1.698490 1_655
Al9 O47 1.760885 1_555
Al9 O5 1.769540 1_555
Al9 O43 1.819180 1_555
Al10 O4 1.714431 1_555
Al10 O44 1.743670 1_455
Al10 O3 1.768719 1_555
Al10 O11 1.792858 1_555
O0 Si9 1.637281 1_555
O0 Si0 1.640088 1_555
O1 Si0 1.642327 1_655
O1 Si11 1.642511 1_655
O2 Si1 1.623724 1_555
O2 Si10 1.649943 1_555
O3 Si11 1.630336 1_555
O3 Sr0 2.690540 1_555
O4 Si12 1.602240 1_555
O5 Si12 1.615746 1_655
O5 Sr4 2.597734 1_555
O6 Si4 1.628160 1_555
O6 Si9 1.629069 1_555
O7 Si0 1.609603 1_555
O7 Si3 1.660791 1_554
O8 Si1 1.637732 1_555
O8 Si2 1.643421 1_545
O9 Si11 1.624089 1_555
O9 Sr0 2.429698 1_555
O10 Si10 1.626849 1_555
O10 Si3 1.635930 1_555
O11 Si4 1.639133 1_565
O11 Sr0 2.505500 1_555
O13 Si2 1.629816 1_555
O13 Si12 1.652875 1_555
O14 Si4 1.638308 1_555
O14 Si2 1.661183 1_545
O15 Si3 1.609071 1_555
O16 Si4 1.631389 1_555
O16 Si5 1.647878 1_555
O16 Sr0 3.082888 1_545
O17 Si3 1.613985 1_555
O17 Si6 1.617101 1_555
O18 Si2 1.617733 1_545
O18 Si8 1.645432 1_545
O19 Si7 1.628993 1_554
O19 Sr0 2.561272 1_555
O20 Si5 1.620413 1_555
O20 Si6 1.664859 1_554
O21 Si8 1.635888 1_545
O21 Si6 1.637163 1_555
O22 Si5 1.677899 1_565
O22 Si7 1.702948 1_554
O22 Sr0 2.519662 1_555
O23 Si7 1.636184 1_555
O23 Si8 1.663489 1_555
O24 Si6 1.612029 1_555
O25 Si8 1.611681 1_555
O26 Si7 1.604212 1_555
O27 Si5 1.600599 1_565
O28 Sr1 2.321816 1_555
O29 Sr2 2.406750 1_555
O30 Sr3 2.372994 1_555
O31 Sr4 2.403126 1_555
O32 Sr1 2.623319 1_555
O32 Sr3 2.766689 1_545
O33 Sr2 2.525327 1_555
O33 Sr4 2.722970 1_545
O34 Sr2 2.608604 1_555
O34 Sr1 2.908840 1_556
O35 Sr3 2.614021 1_555
O35 Tl0 2.781899 1_554
O37 Tl0 2.638593 1_555
O38 Si9 1.634641 1_655
O38 Sr1 2.485286 1_555
O39 Si1 1.641046 1_655
O39 Sr2 2.504196 1_555
O40 Si0 1.651722 1_655
O40 Sr1 2.484679 1_555
O41 Si10 1.668198 1_655
O41 Sr2 2.477003 1_555
O42 Si11 1.647905 1_655
O42 Sr3 2.553107 1_555
O43 Sr4 2.394795 1_555
O44 Sr3 2.410953 1_555
O45 Si12 1.646325 1_655
O45 Sr4 2.428196 1_555
O46 Si9 1.635047 1_555
O46 Si1 1.650265 1_555
O47 Si10 1.607697 1_655
