# generated using pymatgen
data_Ba2NbVO6
_symmetry_space_group_name_H-M   'P 1'
_cell_length_a   5.80689969
_cell_length_b   5.79440054
_cell_length_c   10.06140097
_cell_angle_alpha   73.08323375
_cell_angle_beta   90.30977849
_cell_angle_gamma   119.75657617
_symmetry_Int_Tables_number   1
_chemical_formula_structural   Ba2NbVO6
_chemical_formula_sum   'Ba4 Nb2 V2 O12'
_cell_volume   277.21777229
_cell_formula_units_Z   2
loop_
 _symmetry_equiv_pos_site_id
 _symmetry_equiv_pos_as_xyz
  1  'x, y, z'
loop_
 _atom_site_type_symbol
 _atom_site_label
 _atom_site_symmetry_multiplicity
 _atom_site_fract_x
 _atom_site_fract_y
 _atom_site_fract_z
 _atom_site_occupancy
  Ba  Ba0  1  0.62540000  0.25122800  0.12424900  1
  Ba  Ba1  1  0.12445600  0.24844100  0.62582400  1
  Ba  Ba2  1  0.87554400  0.75155900  0.37417600  1
  Ba  Ba3  1  0.37460000  0.74877300  0.87575100  1
  Nb  Nb0  1  0.25052200  0.49836900  0.25230100  1
  Nb  Nb1  1  0.74947800  0.50163100  0.74770000  1
  V  V0  1  0.50000000  0.00000000  0.50000000  1
  V  V1  1  0.00000000  0.00000000  0.00000000  1
  O  O0  1  0.12528400  0.25507200  0.12409100  1
  O  O1  1  0.62719400  0.24985300  0.62840900  1
  O  O2  1  0.37347100  0.25839700  0.37199100  1
  O  O3  1  0.87917600  0.23922800  0.87934100  1
  O  O4  1  0.62259800  0.75255700  0.12469800  1
  O  O5  1  0.11575600  0.73879000  0.62936300  1
  O  O6  1  0.37280600  0.75014700  0.37159100  1
  O  O7  1  0.87471600  0.74492800  0.87590900  1
  O  O8  1  0.12082400  0.76077200  0.12065900  1
  O  O9  1  0.62653000  0.74160300  0.62800900  1
  O  O10  1  0.88424400  0.26121000  0.37063700  1
  O  O11  1  0.37740200  0.24744300  0.87530200  1
loop_
_geom_bond_atom_site_label_1
_geom_bond_atom_site_label_2
_geom_bond_distance
_geom_bond_site_symmetry_2
Ba0 O7 2.879419 1_554
Ba0 O4 2.880144 1_545
Ba0 O11 2.882669 1_554
Ba0 O0 2.891792 1_655
Ba0 O10 2.892220 1_555
Ba0 O6 2.895132 1_545
Ba0 O8 2.907893 1_545
Ba0 O3 2.913597 1_554
Ba0 O4 2.914325 1_555
Ba0 O0 2.915231 1_555
Ba0 O8 2.915931 1_655
Ba0 O2 2.918065 1_555
Ba1 O5 2.877163 1_555
Ba1 O1 2.891899 1_455
Ba1 O11 2.901415 1_555
Ba1 O3 2.902128 1_455
Ba1 O9 2.903849 1_555
Ba1 O2 2.913440 1_555
Ba1 O10 2.914893 1_455
Ba1 O1 2.915294 1_555
Ba1 O7 2.917841 1_445
Ba1 O5 2.918130 1_545
Ba1 O9 2.918864 1_445
Ba1 O6 2.936793 1_555
Ba2 O10 2.877163 1_555
Ba2 O6 2.891899 1_655
Ba2 O4 2.901415 1_555
Ba2 O8 2.902128 1_655
Ba2 O2 2.903846 1_555
Ba2 O9 2.913437 1_555
Ba2 O5 2.914893 1_655
Ba2 O6 2.915294 1_555
Ba2 O0 2.917841 1_665
Ba2 O10 2.918130 1_565
Ba2 O2 2.918867 1_665
Ba2 O1 2.936793 1_555
Ba3 O0 2.879422 1_556
Ba3 O11 2.880138 1_565
Ba3 O4 2.882669 1_556
Ba3 O7 2.891789 1_455
Ba3 O5 2.892220 1_555
Ba3 O1 2.895129 1_565
Ba3 O3 2.907890 1_565
Ba3 O8 2.913594 1_556
Ba3 O11 2.914331 1_555
Ba3 O7 2.915234 1_555
Ba3 O3 2.915934 1_455
Ba3 O9 2.918071 1_555
Nb0 O2 1.973589 1_555
Nb0 O10 2.000945 1_455
Nb0 O6 2.013617 1_555
Nb0 O0 2.052033 1_555
Nb0 O4 2.063142 1_555
Nb0 O8 2.141790 1_555
Nb1 O9 1.973589 1_555
Nb1 O5 2.000949 1_655
Nb1 O1 2.013625 1_555
Nb1 O7 2.052024 1_555
Nb1 O11 2.063138 1_555
Nb1 O3 2.141786 1_555
O0 V1 2.066229 1_555
O1 V0 2.080263 1_555
O2 V0 2.097603 1_555
O3 V1 1.965808 1_656
O4 V1 2.072797 1_665
O5 V0 2.120415 1_565
O6 V0 2.080263 1_565
O7 V1 2.066229 1_666
O8 V1 1.965808 1_565
O9 V0 2.097607 1_565
O10 V0 2.120415 1_555
O11 V1 2.072797 1_556
