# generated using pymatgen
data_Pb3C6(N3O4)2
_symmetry_space_group_name_H-M   'P 1'
_cell_length_a   8.75403913
_cell_length_b   8.75403913
_cell_length_c   11.99749413
_cell_angle_alpha   62.73431405
_cell_angle_beta   62.73431405
_cell_angle_gamma   47.38293761
_symmetry_Int_Tables_number   1
_chemical_formula_structural   Pb3C6(N3O4)2
_chemical_formula_sum   'Pb6 C12 N12 O16'
_cell_volume   585.83225765
_cell_formula_units_Z   2
loop_
 _symmetry_equiv_pos_site_id
 _symmetry_equiv_pos_as_xyz
  1  'x, y, z'
loop_
 _atom_site_type_symbol
 _atom_site_label
 _atom_site_symmetry_multiplicity
 _atom_site_fract_x
 _atom_site_fract_y
 _atom_site_fract_z
 _atom_site_occupancy
  Pb  Pb0  1  0.70115300  0.05393300  0.06340600  1
  Pb  Pb1  1  0.05393300  0.70115300  0.56340600  1
  Pb  Pb2  1  0.91721200  0.54141700  0.29003500  1
  Pb  Pb3  1  0.54141700  0.91721200  0.79003500  1
  Pb  Pb4  1  0.56303400  0.03398300  0.42745800  1
  Pb  Pb5  1  0.03398300  0.56303400  0.92745800  1
  C  C0  1  0.46371200  0.42920100  0.23613200  1
  C  C1  1  0.42920100  0.46371200  0.73613200  1
  C  C2  1  0.59467100  0.62727000  0.12714300  1
  C  C3  1  0.62727000  0.59467100  0.62714300  1
  C  C4  1  0.68240500  0.38883800  0.32650200  1
  C  C5  1  0.38883800  0.68240500  0.82650200  1
  C  C6  1  0.03476700  0.94707300  0.22656600  1
  C  C7  1  0.94707300  0.03476700  0.72656600  1
  C  C8  1  0.16773900  0.14668100  0.12197300  1
  C  C9  1  0.14668100  0.16773900  0.62197300  1
  C  C10  1  0.94491500  0.19505600  0.02931700  1
  C  C11  1  0.19505600  0.94491500  0.52931700  1
  N  N0  1  0.47186500  0.57873400  0.13564300  1
  N  N1  1  0.57873400  0.47186500  0.63564300  1
  N  N2  1  0.56174700  0.33476700  0.33569900  1
  N  N3  1  0.33476700  0.56174700  0.83569900  1
  N  N4  1  0.69365800  0.53983100  0.22224900  1
  N  N5  1  0.53983100  0.69365800  0.72224900  1
  N  N6  1  0.16006900  0.99192900  0.21879600  1
  N  N7  1  0.99192900  0.16006900  0.71879600  1
  N  N8  1  0.93355300  0.04168100  0.13109100  1
  N  N9  1  0.04168100  0.93355300  0.63109100  1
  N  N10  1  0.06731000  0.24608400  0.02183200  1
  N  N11  1  0.24608400  0.06731000  0.52183200  1
  O  O0  1  0.37517700  0.35049800  0.24495000  1
  O  O1  1  0.35049800  0.37517700  0.74495000  1
  O  O2  1  0.62943400  0.75085500  0.02318100  1
  O  O3  1  0.75085500  0.62943400  0.52318100  1
  O  O4  1  0.78858000  0.30216400  0.40831400  1
  O  O5  1  0.30216400  0.78858000  0.90831400  1
  O  O6  1  0.00045100  0.82105200  0.32778500  1
  O  O7  1  0.82105200  0.00045100  0.82778500  1
  O  O8  1  0.25571200  0.22159800  0.11694600  1
  O  O9  1  0.22159800  0.25571200  0.61694600  1
  O  O10  1  0.83626500  0.28868600  0.94759900  1
  O  O11  1  0.28868600  0.83626500  0.44759900  1
  O  O12  1  0.89488200  0.65772300  0.77852200  1
  O  O13  1  0.65772300  0.89488200  0.27852200  1
  O  O14  1  0.70160500  0.95403100  0.57246000  1
  O  O15  1  0.95403100  0.70160500  0.07246000  1
loop_
_geom_bond_atom_site_label_1
_geom_bond_atom_site_label_2
_geom_bond_distance
_geom_bond_site_symmetry_2
C0 O0 1.291416 1_555
C0 N0 1.331853 1_555
C0 N2 1.385868 1_555
C1 O1 1.291416 1_555
C1 N1 1.331853 1_555
C1 N3 1.385868 1_555
C2 O2 1.296328 1_555
C2 N0 1.350950 1_555
C2 N4 1.358757 1_555
C3 O3 1.296328 1_555
C3 N1 1.350950 1_555
C3 N5 1.358757 1_555
C4 O4 1.265515 1_555
C4 N4 1.367459 1_555
C4 N2 1.369045 1_555
C5 O5 1.265515 1_555
C5 N5 1.367459 1_555
C5 N3 1.369045 1_555
C6 O6 1.291917 1_555
C6 N6 1.349858 1_555
C6 N8 1.360155 1_465
C7 O7 1.291917 1_555
C7 N7 1.349858 1_555
C7 N9 1.360155 1_645
C8 O8 1.277492 1_555
C8 N6 1.341264 1_545
C8 N10 1.395525 1_555
C9 O9 1.277492 1_555
C9 N7 1.341264 1_455
C9 N11 1.395525 1_555
C10 O10 1.264938 1_554
C10 N8 1.367846 1_555
C10 N10 1.370708 1_655
C11 O11 1.264938 1_555
C11 N9 1.367846 1_555
C11 N11 1.370708 1_565
N2 Pb4 2.336761 1_555
N3 Pb5 2.336761 1_555
N4 Pb2 2.448840 1_555
N5 Pb3 2.448840 1_555
N8 Pb0 2.438906 1_555
N9 Pb1 2.438906 1_555
N10 Pb5 2.322405 1_554
N11 Pb4 2.322405 1_555
O0 Pb4 2.597333 1_555
O1 Pb5 2.597333 1_555
O2 Pb5 2.585057 1_654
O2 Pb3 2.694721 1_554
O3 Pb4 2.585057 1_565
O3 Pb2 2.694721 1_555
O4 Pb2 2.583579 1_555
O5 Pb3 2.583579 1_555
O6 Pb1 2.672197 1_555
O6 Pb4 2.783565 1_465
O7 Pb0 2.672197 1_556
O7 Pb5 2.783565 1_645
O8 Pb5 2.798280 1_554
O9 Pb4 2.798280 1_555
O10 Pb0 2.592748 1_556
O11 Pb1 2.592748 1_555
O12 Pb5 2.152297 1_655
O12 Pb3 2.265178 1_555
O12 Pb1 2.295508 1_655
O13 Pb4 2.152297 1_565
O13 Pb2 2.265178 1_555
O13 Pb0 2.295508 1_565
O14 Pb4 2.157773 1_565
O14 Pb1 2.256653 1_655
O14 Pb3 2.317669 1_555
O15 Pb5 2.157773 1_654
O15 Pb0 2.256653 1_565
O15 Pb2 2.317669 1_555
