# generated using pymatgen
data_LiV2P2O9
_symmetry_space_group_name_H-M   'P 1'
_cell_length_a   6.38197400
_cell_length_b   7.71325200
_cell_length_c   13.93807300
_cell_angle_alpha   90.00000000
_cell_angle_beta   90.00000000
_cell_angle_gamma   90.00000000
_symmetry_Int_Tables_number   1
_chemical_formula_structural   LiV2P2O9
_chemical_formula_sum   'Li4 V8 P8 O36'
_cell_volume   686.11242758
_cell_formula_units_Z   4
loop_
 _symmetry_equiv_pos_site_id
 _symmetry_equiv_pos_as_xyz
  1  'x, y, z'
loop_
 _atom_site_type_symbol
 _atom_site_label
 _atom_site_symmetry_multiplicity
 _atom_site_fract_x
 _atom_site_fract_y
 _atom_site_fract_z
 _atom_site_occupancy
  Li  Li0  1  0.75000000  0.95310800  0.76648000  1
  Li  Li1  1  0.75000000  0.54689200  0.26648000  1
  Li  Li2  1  0.25000000  0.45310800  0.73352000  1
  Li  Li3  1  0.25000000  0.04689200  0.23352000  1
  V  V0  1  0.75000000  0.35036600  0.88112100  1
  V  V1  1  0.25000000  0.64963400  0.11887900  1
  V  V2  1  0.25000000  0.85036600  0.61887900  1
  V  V3  1  0.75000000  0.14963400  0.38112100  1
  V  V4  1  0.50000000  0.00000000  0.00000000  1
  V  V5  1  0.50000000  0.50000000  0.50000000  1
  V  V6  1  0.00000000  0.50000000  0.50000000  1
  V  V7  1  0.00000000  0.00000000  0.00000000  1
  P  P0  1  0.25000000  0.35184100  0.93554900  1
  P  P1  1  0.75000000  0.64815900  0.06445100  1
  P  P2  1  0.75000000  0.85184100  0.56445100  1
  P  P3  1  0.25000000  0.14815900  0.43554900  1
  P  P4  1  0.75000000  0.38395800  0.69235600  1
  P  P5  1  0.75000000  0.11604200  0.19235600  1
  P  P6  1  0.25000000  0.88395800  0.80764400  1
  P  P7  1  0.25000000  0.61604200  0.30764400  1
  O  O0  1  0.04732300  0.59651600  0.36856800  1
  O  O1  1  0.54732300  0.40348400  0.63143200  1
  O  O2  1  0.95267700  0.09651600  0.13143200  1
  O  O3  1  0.45267700  0.90348400  0.86856800  1
  O  O4  1  0.95267700  0.40348400  0.63143200  1
  O  O5  1  0.45267700  0.59651600  0.36856800  1
  O  O6  1  0.04732300  0.90348400  0.86856800  1
  O  O7  1  0.54732300  0.09651600  0.13143200  1
  O  O8  1  0.25000000  0.33411900  0.48201900  1
  O  O9  1  0.75000000  0.66588100  0.51798100  1
  O  O10  1  0.75000000  0.83411900  0.01798100  1
  O  O11  1  0.25000000  0.16588100  0.98201900  1
  O  O12  1  0.75000000  0.14699500  0.94687300  1
  O  O13  1  0.25000000  0.85300500  0.05312700  1
  O  O14  1  0.25000000  0.64699500  0.55312700  1
  O  O15  1  0.75000000  0.35300500  0.44687300  1
  O  O16  1  0.75000000  0.21230000  0.75118800  1
  O  O17  1  0.25000000  0.78770000  0.24881200  1
  O  O18  1  0.25000000  0.71230000  0.74881200  1
  O  O19  1  0.75000000  0.28770000  0.25118800  1
  O  O20  1  0.44033700  0.13364200  0.36852500  1
  O  O21  1  0.94033700  0.86635800  0.63147500  1
  O  O22  1  0.55966300  0.63364200  0.13147500  1
  O  O23  1  0.05966300  0.36635800  0.86852500  1
  O  O24  1  0.55966300  0.86635800  0.63147500  1
  O  O25  1  0.05966300  0.13364200  0.36852500  1
  O  O26  1  0.44033700  0.36635800  0.86852500  1
  O  O27  1  0.94033700  0.63364200  0.13147500  1
  O  O28  1  0.75000000  0.51510400  0.98396200  1
  O  O29  1  0.25000000  0.02103300  0.72524300  1
  O  O30  1  0.25000000  0.47896700  0.22524300  1
  O  O31  1  0.75000000  0.52103300  0.77475700  1
  O  O32  1  0.75000000  0.98489600  0.48396200  1
  O  O33  1  0.25000000  0.01510400  0.51603800  1
  O  O34  1  0.25000000  0.48489600  0.01603800  1
  O  O35  1  0.75000000  0.97896700  0.27475700  1
loop_
_geom_bond_atom_site_label_1
_geom_bond_atom_site_label_2
_geom_bond_distance
_geom_bond_site_symmetry_2
Li0 O16 2.010543 1_565
Li0 O21 2.337545 1_555
Li0 O24 2.337545 1_555
Li0 O3 2.402439 1_555
Li0 O6 2.402439 1_655
Li1 O19 2.010543 1_555
Li1 O27 2.337545 1_555
Li1 O22 2.337545 1_555
Li1 O5 2.402439 1_555
Li1 O0 2.402439 1_655
Li2 O18 2.010543 1_555
Li2 O26 2.337545 1_555
Li2 O23 2.337545 1_555
Li2 O1 2.402439 1_555
Li2 O4 2.402439 1_455
Li3 O17 2.010543 1_545
Li3 O20 2.337545 1_555
Li3 O25 2.337545 1_555
Li3 O7 2.402439 1_555
Li3 O2 2.402439 1_455
O0 P7 1.554622 1_555
O0 V6 2.000328 1_555
O1 P4 1.554622 1_555
O1 V5 2.000328 1_555
O2 P5 1.554622 1_555
O2 V7 2.000328 1_655
O3 P6 1.554622 1_555
O3 V4 2.000328 1_566
O4 P4 1.554622 1_555
O4 V6 2.000328 1_655
O5 P7 1.554622 1_555
O5 V5 2.000328 1_555
O6 P6 1.554622 1_555
O6 V7 2.000328 1_566
O7 P5 1.554622 1_555
O7 V4 2.000328 1_555
O8 P3 1.573816 1_555
O8 V5 2.060457 1_555
O8 V6 2.060457 1_555
O9 P2 1.573816 1_555
O9 V6 2.060457 1_655
O9 V5 2.060457 1_555
O10 P1 1.573816 1_555
O10 V4 2.060457 1_565
O10 V7 2.060457 1_665
O11 P0 1.573816 1_555
O11 V4 2.060457 1_556
O11 V7 2.060457 1_556
O12 V0 1.816744 1_555
O12 V4 2.092713 1_556
O12 V7 2.092713 1_656
O13 V1 1.816744 1_555
O13 V4 2.092713 1_565
O13 V7 2.092713 1_565
O14 V2 1.816744 1_555
O14 V5 2.092713 1_555
O14 V6 2.092713 1_555
O15 V3 1.816744 1_555
O15 V5 2.092713 1_555
O15 V6 2.092713 1_655
O16 P4 1.557400 1_555
O16 V0 2.100921 1_555
O17 P7 1.557400 1_555
O17 V1 2.100921 1_555
O18 P6 1.557400 1_555
O18 V2 2.100921 1_555
O19 P5 1.557400 1_555
O19 V3 2.100921 1_555
O20 P3 1.536489 1_555
O20 V3 1.987875 1_555
O21 P2 1.536489 1_555
O21 V2 1.987875 1_655
O22 P1 1.536489 1_555
O22 V1 1.987875 1_555
O23 P0 1.536489 1_555
O23 V0 1.987875 1_455
O24 P2 1.536489 1_555
O24 V2 1.987875 1_555
O25 P3 1.536489 1_555
O25 V3 1.987875 1_455
O26 P0 1.536489 1_555
O26 V0 1.987875 1_555
O27 P1 1.536489 1_555
O27 V1 1.987875 1_655
O28 P1 1.520473 1_556
O28 V0 1.915527 1_555
O29 P6 1.561073 1_545
O29 V2 1.982608 1_545
O30 P7 1.561073 1_555
O30 V1 1.982608 1_555
O31 P4 1.561073 1_555
O31 V0 1.982608 1_555
O32 P2 1.520473 1_555
O32 V3 1.915527 1_565
O33 P3 1.520473 1_555
O33 V2 1.915527 1_545
O34 P0 1.520473 1_554
O34 V1 1.915527 1_555
O35 P5 1.561073 1_565
O35 V3 1.982608 1_565
