# generated using pymatgen
data_TmTc2
_symmetry_space_group_name_H-M   'P 1'
_cell_length_a   5.30906548
_cell_length_b   5.30906548
_cell_length_c   8.77141650
_cell_angle_alpha   90.00000000
_cell_angle_beta   90.00000000
_cell_angle_gamma   120.00200910
_symmetry_Int_Tables_number   1
_chemical_formula_structural   TmTc2
_chemical_formula_sum   'Tm4 Tc8'
_cell_volume   214.10545712
_cell_formula_units_Z   4
loop_
 _symmetry_equiv_pos_site_id
 _symmetry_equiv_pos_as_xyz
  1  'x, y, z'
loop_
 _atom_site_type_symbol
 _atom_site_label
 _atom_site_symmetry_multiplicity
 _atom_site_fract_x
 _atom_site_fract_y
 _atom_site_fract_z
 _atom_site_occupancy
  Tm  Tm0  1  0.66666544  0.33333456  0.56292452  1
  Tm  Tm1  1  0.33333424  0.66666576  0.43709646  1
  Tm  Tm2  1  0.33333424  0.66666576  0.06290354  1
  Tm  Tm3  1  0.66666544  0.33333456  0.93707548  1
  Tc  Tc0  1  0.00000009  -0.00000009  0.49991133  1
  Tc  Tc1  1  0.00000009  -0.00000009  0.00008867  1
  Tc  Tc2  1  0.17183472  0.34366687  0.75000000  1
  Tc  Tc3  1  0.17182389  0.82817611  0.75000000  1
  Tc  Tc4  1  0.65633313  0.82816528  0.75000000  1
  Tc  Tc5  1  0.82814778  0.65630295  0.25000000  1
  Tc  Tc6  1  0.82816190  0.17183810  0.25000000  1
  Tc  Tc7  1  0.34369705  0.17185222  0.25000000  1
loop_
_geom_bond_atom_site_label_1
_geom_bond_atom_site_label_2
_geom_bond_distance
_geom_bond_site_symmetry_2
Tc0 Tc6 2.702244 1_455
Tc0 Tc7 2.702272 1_555
Tc0 Tc5 2.702272 1_445
Tc0 Tc3 2.703429 1_545
Tc0 Tc2 2.703453 1_555
Tc0 Tc4 2.703453 1_445
Tc0 Tm1 3.114252 1_555
Tc0 Tm1 3.114252 1_445
Tc0 Tm1 3.114354 1_545
Tc0 Tm0 3.114557 1_555
Tc0 Tm0 3.114557 1_445
Tc0 Tm0 3.114667 1_455
Tc1 Tc6 2.702244 1_455
Tc1 Tc7 2.702272 1_555
Tc1 Tc5 2.702272 1_445
Tc1 Tc3 2.703429 1_544
Tc1 Tc2 2.703453 1_554
Tc1 Tc4 2.703453 1_444
Tc1 Tm2 3.114252 1_445
Tc1 Tm2 3.114252 1_555
Tc1 Tm2 3.114354 1_545
Tc1 Tm3 3.114557 1_444
Tc1 Tm3 3.114557 1_554
Tc1 Tm3 3.114667 1_454
Tc2 Tc4 2.572156 1_555
Tc2 Tc3 2.572320 1_555
Tc2 Tc3 2.736745 1_545
Tc2 Tc4 2.736749 1_445
Tc2 Tm1 3.120616 1_555
Tc2 Tm2 3.120616 1_556
Tc2 Tm0 3.121110 1_555
Tc2 Tm3 3.121110 1_555
Tc2 Tm0 3.121136 1_455
Tc2 Tm3 3.121136 1_455
Tc3 Tc4 2.572320 1_555
Tc3 Tc4 2.736745 1_455
Tc3 Tm1 3.120685 1_555
Tc3 Tm2 3.120685 1_556
Tc3 Tm0 3.121053 1_455
Tc3 Tm0 3.121053 1_565
Tc3 Tm3 3.121053 1_455
Tc3 Tm3 3.121053 1_565
Tc4 Tm1 3.120616 1_555
Tc4 Tm2 3.120616 1_556
Tc4 Tm0 3.121110 1_555
Tc4 Tm3 3.121110 1_555
Tc4 Tm0 3.121136 1_565
Tc4 Tm3 3.121136 1_565
Tc5 Tc7 2.571903 1_555
Tc5 Tc6 2.572093 1_555
Tc5 Tc6 2.736972 1_565
Tc5 Tc7 2.737002 1_665
Tc5 Tm3 3.120711 1_554
Tc5 Tm0 3.120711 1_555
Tc5 Tm2 3.121201 1_555
Tc5 Tm1 3.121201 1_555
Tc5 Tm2 3.121243 1_655
Tc5 Tm1 3.121243 1_655
Tc6 Tc7 2.572093 1_555
Tc6 Tc7 2.736972 1_655
Tc6 Tm3 3.120786 1_554
Tc6 Tm0 3.120786 1_555
Tc6 Tm2 3.121152 1_655
Tc6 Tm2 3.121152 1_545
Tc6 Tm1 3.121152 1_655
Tc6 Tm1 3.121152 1_545
Tc7 Tm3 3.120711 1_554
Tc7 Tm0 3.120711 1_555
Tc7 Tm2 3.121201 1_555
Tc7 Tm1 3.121201 1_555
Tc7 Tm2 3.121243 1_545
Tc7 Tm1 3.121243 1_545
