# generated using pymatgen
data_LaCe(GePt)4
_symmetry_space_group_name_H-M   'P 1'
_cell_length_a   4.39873000
_cell_length_b   4.40018300
_cell_length_c   10.03538230
_cell_angle_alpha   89.85020862
_cell_angle_beta   90.00000000
_cell_angle_gamma   90.00000000
_symmetry_Int_Tables_number   1
_chemical_formula_structural   LaCe(GePt)4
_chemical_formula_sum   'La1 Ce1 Ge4 Pt4'
_cell_volume   194.23633789
_cell_formula_units_Z   1
loop_
 _symmetry_equiv_pos_site_id
 _symmetry_equiv_pos_as_xyz
  1  'x, y, z'
loop_
 _atom_site_type_symbol
 _atom_site_label
 _atom_site_symmetry_multiplicity
 _atom_site_fract_x
 _atom_site_fract_y
 _atom_site_fract_z
 _atom_site_occupancy
  La  La0  1  0.50000000  0.74661000  0.74916700  1
  Ce  Ce0  1  0.00000000  0.24745700  0.25315100  1
  Ge  Ge0  1  0.50000000  0.26185400  0.49716400  1
  Ge  Ge1  1  0.00000000  0.76044100  0.49773800  1
  Ge  Ge2  1  0.00000000  0.23482900  0.86931600  1
  Ge  Ge3  1  0.50000000  0.73122000  0.13088900  1
  Pt  Pt0  1  0.00000000  0.25946100  0.62145200  1
  Pt  Pt1  1  0.50000000  0.76286000  0.37477600  1
  Pt  Pt2  1  0.50000000  0.23088500  0.00436900  1
  Pt  Pt3  1  0.00000000  0.73238300  0.00197800  1
loop_
_geom_bond_atom_site_label_1
_geom_bond_atom_site_label_2
_geom_bond_distance
_geom_bond_site_symmetry_2
La0 Pt0 3.330020 1_655
La0 Pt0 3.330020 1_555
La0 Pt2 3.335902 1_566
La0 Pt3 3.358116 1_556
La0 Pt3 3.358116 1_656
La0 Pt0 3.399585 1_565
La0 Pt0 3.399585 1_665
La0 Pt2 3.417344 1_556
Ce0 Ge1 3.254145 1_545
Ce0 Ge0 3.292184 1_555
Ce0 Ge0 3.292184 1_455
Ce0 Ge3 3.295463 1_455
Ce0 Ge3 3.295463 1_555
Ce0 Pt1 3.295469 1_545
Ce0 Pt1 3.295469 1_445
Ce0 Pt3 3.298232 1_555
Ce0 Pt2 3.328153 1_455
Ce0 Pt2 3.328153 1_555
Ce0 Ge1 3.338969 1_555
Ce0 Pt1 3.388901 1_455
Ce0 Pt1 3.388901 1_555
Ce0 Ge3 3.393679 1_545
Ce0 Ge3 3.393679 1_445
Ce0 Pt3 3.394118 1_545
Ge0 Pt1 2.518640 1_545
Ge0 Pt1 2.520762 1_555
Ge0 Pt0 2.528428 1_555
Ge0 Pt0 2.528428 1_655
Ge0 La0 3.312632 1_555
Ge0 La0 3.391997 1_545
Ge1 Pt1 2.521891 1_455
Ge1 Pt1 2.521891 1_555
Ge1 Pt0 2.525285 1_565
Ge1 Pt0 2.527143 1_555
Ge1 La0 3.347622 1_555
Ge1 La0 3.347622 1_455
Ge2 Pt0 2.489487 1_555
Ge2 Pt3 2.565306 1_556
Ge2 Pt3 2.577767 1_546
Ge2 Pt2 2.583456 1_456
Ge2 Pt2 2.583456 1_556
Ge2 La0 3.304475 1_445
Ge2 La0 3.304475 1_545
Ge2 La0 3.368681 1_455
Ge2 La0 3.368681 1_555
Ge3 Pt1 2.451819 1_555
Ge3 Pt2 2.536021 1_565
Ge3 Pt2 2.544324 1_555
Ge3 Pt3 2.551624 1_555
Ge3 Pt3 2.551624 1_655
