# generated using pymatgen
data_HgH20C6(NCl2)2
_symmetry_space_group_name_H-M   'P 1'
_cell_length_a   13.73744600
_cell_length_b   6.66765000
_cell_length_c   20.04248732
_cell_angle_alpha   72.71495270
_cell_angle_beta   90.00000000
_cell_angle_gamma   90.00000000
_symmetry_Int_Tables_number   1
_chemical_formula_structural   HgH20C6(NCl2)2
_chemical_formula_sum   'Hg4 H80 C24 N8 Cl16'
_cell_volume   1752.91264904
_cell_formula_units_Z   4
loop_
 _symmetry_equiv_pos_site_id
 _symmetry_equiv_pos_as_xyz
  1  'x, y, z'
loop_
 _atom_site_type_symbol
 _atom_site_label
 _atom_site_symmetry_multiplicity
 _atom_site_fract_x
 _atom_site_fract_y
 _atom_site_fract_z
 _atom_site_occupancy
  Hg  Hg0  1  0.24266700  0.06432100  0.15552800  1
  Hg  Hg1  1  0.74266700  0.93567900  0.34447200  1
  Hg  Hg2  1  0.75733300  0.93567900  0.84447200  1
  Hg  Hg3  1  0.25733300  0.06432100  0.65552800  1
  H  H0  1  0.74003800  0.40793600  0.95963000  1
  H  H1  1  0.24003800  0.59206400  0.54037000  1
  H  H2  1  0.25996200  0.59206400  0.04037000  1
  H  H3  1  0.75996200  0.40793600  0.45963000  1
  H  H4  1  0.41527500  0.46442300  0.69712900  1
  H  H5  1  0.91527500  0.53557700  0.80287100  1
  H  H6  1  0.58472500  0.53557700  0.30287100  1
  H  H7  1  0.08472500  0.46442300  0.19712900  1
  H  H8  1  0.83277400  0.09219600  0.99346800  1
  H  H9  1  0.33277400  0.90780400  0.50653200  1
  H  H10  1  0.16722600  0.90780400  0.00653200  1
  H  H11  1  0.66722600  0.09219600  0.49346800  1
  H  H12  1  0.81570100  0.08606600  0.08349500  1
  H  H13  1  0.31570100  0.91393400  0.41650500  1
  H  H14  1  0.18429900  0.91393400  0.91650500  1
  H  H15  1  0.68429900  0.08606600  0.58349500  1
  H  H16  1  0.88679100  0.29152400  0.02488400  1
  H  H17  1  0.38679100  0.70847600  0.47511600  1
  H  H18  1  0.11320900  0.70847600  0.97511600  1
  H  H19  1  0.61320900  0.29152400  0.52488400  1
  H  H20  1  0.58184700  0.27237600  0.00191600  1
  H  H21  1  0.08184700  0.72762400  0.49808400  1
  H  H22  1  0.41815300  0.72762400  0.99808400  1
  H  H23  1  0.91815300  0.27237600  0.50191600  1
  H  H24  1  0.64224000  0.07537800  0.07010400  1
  H  H25  1  0.14224000  0.92462200  0.42989600  1
  H  H26  1  0.35776000  0.92462200  0.92989600  1
  H  H27  1  0.85776000  0.07537800  0.57010400  1
  H  H28  1  0.65714100  0.08104100  0.97996000  1
  H  H29  1  0.15714100  0.91895900  0.52004000  1
  H  H30  1  0.34285900  0.91895900  0.02004000  1
  H  H31  1  0.84285900  0.08104100  0.47996000  1
  H  H32  1  0.65352700  0.53894700  0.04374500  1
  H  H33  1  0.15352700  0.46105300  0.45625500  1
  H  H34  1  0.34647300  0.46105300  0.95625500  1
  H  H35  1  0.84647300  0.53894700  0.54374500  1
  H  H36  1  0.78301100  0.55978400  0.04892000  1
  H  H37  1  0.28301100  0.44021600  0.45108000  1
  H  H38  1  0.21698900  0.44021600  0.95108000  1
  H  H39  1  0.71698900  0.55978400  0.54892000  1
  H  H40  1  0.71965500  0.34690100  0.11156500  1
  H  H41  1  0.21965500  0.65309900  0.38843500  1
  H  H42  1  0.28034500  0.65309900  0.88843500  1
  H  H43  1  0.78034500  0.34690100  0.61156500  1
  H  H44  1  0.55083800  0.26085800  0.67310700  1
  H  H45  1  0.05083800  0.73914200  0.82689300  1
  H  H46  1  0.44916200  0.73914200  0.32689300  1
  H  H47  1  0.94916200  0.26085800  0.17310700  1
  H  H48  1  0.50475100  0.15562800  0.76015100  1
  H  H49  1  0.00475100  0.84437200  0.73984900  1
  H  H50  1  0.49524900  0.84437200  0.23984900  1
  H  H51  1  0.99524900  0.15562800  0.26015100  1
  H  H52  1  0.61414400  0.31111100  0.74565800  1
  H  H53  1  0.11414400  0.68888900  0.75434200  1
  H  H54  1  0.38585600  0.68888900  0.25434200  1
  H  H55  1  0.88585600  0.31111100  0.24565800  1
  H  H56  1  0.44277800  0.39360100  0.82132000  1
  H  H57  1  0.94277800  0.60639900  0.67868000  1
  H  H58  1  0.55722200  0.60639900  0.17868000  1
  H  H59  1  0.05722200  0.39360100  0.32132000  1
  H  H60  1  0.42762900  0.66761300  0.77513100  1
  H  H61  1  0.92762900  0.33238700  0.72486900  1
  H  H62  1  0.57237100  0.33238700  0.22486900  1
  H  H63  1  0.07237100  0.66761300  0.27513100  1
  H  H64  1  0.54748600  0.56282000  0.79973300  1
  H  H65  1  0.04748600  0.43718000  0.70026700  1
  H  H66  1  0.45251400  0.43718000  0.20026700  1
  H  H67  1  0.95251400  0.56282000  0.29973300  1
  H  H68  1  0.53638100  0.62930600  0.61254200  1
  H  H69  1  0.03638100  0.37069400  0.88745800  1
  H  H70  1  0.46361900  0.37069400  0.38745800  1
  H  H71  1  0.96361900  0.62930600  0.11254200  1
  H  H72  1  0.60178300  0.69250300  0.68205100  1
  H  H73  1  0.10178300  0.30749700  0.81794900  1
  H  H74  1  0.39821700  0.30749700  0.31794900  1
  H  H75  1  0.89821700  0.69250300  0.18205100  1
  H  H76  1  0.48303600  0.80289300  0.65521200  1
  H  H77  1  0.98303600  0.19710700  0.84478800  1
  H  H78  1  0.51696400  0.19710700  0.34478800  1
  H  H79  1  0.01696400  0.80289300  0.15521200  1
  C  C0  1  0.82440700  0.18643800  0.02953100  1
  C  C1  1  0.32440700  0.81356200  0.47046900  1
  C  C2  1  0.17559300  0.81356200  0.97046900  1
  C  C3  1  0.67559300  0.18643800  0.52953100  1
  C  C4  1  0.64718900  0.17517200  0.01585100  1
  C  C5  1  0.14718900  0.82482800  0.48414900  1
  C  C6  1  0.35281100  0.82482800  0.98414900  1
  C  C7  1  0.85281100  0.17517200  0.51585100  1
  C  C8  1  0.72150200  0.45074100  0.05771000  1
  C  C9  1  0.22150200  0.54925900  0.44229000  1
  C  C10  1  0.27849800  0.54925900  0.94229000  1
  C  C11  1  0.77849800  0.45074100  0.55771000  1
  C  C12  1  0.54304600  0.28749900  0.72394100  1
  C  C13  1  0.04304600  0.71250100  0.77605900  1
  C  C14  1  0.45695400  0.71250100  0.27605900  1
  C  C15  1  0.95695400  0.28749900  0.22394100  1
  C  C16  1  0.47466800  0.53065700  0.78292900  1
  C  C17  1  0.97466800  0.46934300  0.71707100  1
  C  C18  1  0.52533200  0.46934300  0.21707100  1
  C  C19  1  0.02533200  0.53065700  0.28292900  1
  C  C20  1  0.53018500  0.66563800  0.66211600  1
  C  C21  1  0.03018500  0.33436200  0.83788400  1
  C  C22  1  0.46981500  0.33436200  0.33788400  1
  C  C23  1  0.96981500  0.66563800  0.16211600  1
  N  N0  1  0.73364500  0.31442700  0.01115200  1
  N  N1  1  0.23364500  0.68557300  0.48884800  1
  N  N2  1  0.26635500  0.68557300  0.98884800  1
  N  N3  1  0.76635500  0.31442700  0.51115200  1
  N  N4  1  0.48495300  0.48299500  0.71508900  1
  N  N5  1  0.98495300  0.51700500  0.78491100  1
  N  N6  1  0.51504700  0.51700500  0.28491100  1
  N  N7  1  0.01504700  0.48299500  0.21508900  1
  Cl  Cl0  1  0.22981300  0.67547000  0.15411500  1
  Cl  Cl1  1  0.72981300  0.32453000  0.34588500  1
  Cl  Cl2  1  0.77018700  0.32453000  0.84588500  1
  Cl  Cl3  1  0.27018700  0.67547000  0.65411500  1
  Cl  Cl4  1  0.39701300  0.22547300  0.09460600  1
  Cl  Cl5  1  0.89701300  0.77452700  0.40539400  1
  Cl  Cl6  1  0.60298700  0.77452700  0.90539400  1
  Cl  Cl7  1  0.10298700  0.22547300  0.59460600  1
  Cl  Cl8  1  0.10285300  0.25384700  0.07529700  1
  Cl  Cl9  1  0.60285300  0.74615300  0.42470300  1
  Cl  Cl10  1  0.89714700  0.74615300  0.92470300  1
  Cl  Cl11  1  0.39714700  0.25384700  0.57529700  1
  Cl  Cl12  1  0.21519300  0.06228300  0.28061000  1
  Cl  Cl13  1  0.71519300  0.93771700  0.21939000  1
  Cl  Cl14  1  0.78480700  0.93771700  0.71939000  1
  Cl  Cl15  1  0.28480700  0.06228300  0.78061000  1
loop_
_geom_bond_atom_site_label_1
_geom_bond_atom_site_label_2
_geom_bond_distance
_geom_bond_site_symmetry_2
H0 N0 1.039314 1_556
H1 N1 1.039314 1_555
H2 N2 1.039314 1_554
H3 N3 1.039314 1_555
H4 N4 1.042892 1_555
H5 N5 1.042892 1_555
H6 N6 1.042892 1_555
H7 N7 1.042892 1_555
C0 H16 1.093291 1_555
C0 H8 1.095624 1_554
C0 H12 1.096290 1_555
C0 N0 1.493907 1_555
C1 H17 1.093291 1_555
C1 H9 1.095624 1_555
C1 H13 1.096290 1_555
C1 N1 1.493907 1_555
C2 H18 1.093291 1_555
C2 H10 1.095624 1_556
C2 H14 1.096290 1_555
C2 N2 1.493907 1_555
C3 H19 1.093291 1_555
C3 H11 1.095624 1_555
C3 H15 1.096290 1_555
C3 N3 1.493907 1_555
C4 H20 1.093728 1_555
C4 H28 1.094699 1_554
C4 H24 1.095343 1_555
C4 N0 1.493191 1_555
C5 H21 1.093728 1_555
C5 H29 1.094699 1_555
C5 H25 1.095343 1_555
C5 N1 1.493191 1_555
C6 H22 1.093728 1_555
C6 H30 1.094699 1_556
C6 H26 1.095343 1_555
C6 N2 1.493191 1_555
C7 H23 1.093728 1_555
C7 H31 1.094699 1_555
C7 H27 1.095343 1_555
C7 N3 1.493191 1_555
C8 H36 1.094314 1_555
C8 H32 1.094714 1_555
C8 H40 1.095898 1_555
C8 N0 1.492870 1_555
C9 H37 1.094314 1_555
C9 H33 1.094714 1_555
C9 H41 1.095898 1_555
C9 N1 1.492870 1_555
C10 H38 1.094314 1_555
C10 H34 1.094714 1_555
C10 H42 1.095898 1_555
C10 N2 1.492870 1_555
C11 H39 1.094314 1_555
C11 H35 1.094714 1_555
C11 H43 1.095898 1_555
C11 N3 1.492870 1_555
C12 H44 1.090226 1_555
C12 H48 1.094241 1_555
C12 H52 1.099506 1_555
C12 N4 1.493332 1_555
C13 H45 1.090226 1_555
C13 H49 1.094241 1_555
C13 H53 1.099506 1_555
C13 N5 1.493332 1_455
C14 H46 1.090226 1_555
C14 H50 1.094241 1_555
C14 H54 1.099506 1_555
C14 N6 1.493332 1_555
C15 H47 1.090226 1_555
C15 H51 1.094241 1_555
C15 H55 1.099506 1_555
C15 N7 1.493332 1_655
C16 H60 1.091362 1_555
C16 H56 1.096006 1_555
C16 H64 1.096817 1_555
C16 N4 1.492135 1_555
C17 H61 1.091362 1_555
C17 H57 1.096006 1_555
C17 H65 1.096817 1_655
C17 N5 1.492135 1_555
C18 H62 1.091362 1_555
C18 H58 1.096006 1_555
C18 H66 1.096817 1_555
C18 N6 1.492135 1_555
C19 H63 1.091362 1_555
C19 H59 1.096006 1_555
C19 H67 1.096817 1_455
C19 N7 1.492135 1_555
C20 H68 1.093699 1_555
C20 H76 1.095879 1_555
C20 H72 1.096208 1_555
C20 N4 1.492659 1_555
C21 H69 1.093699 1_555
C21 H77 1.095879 1_455
C21 H73 1.096208 1_555
C21 N5 1.492659 1_455
C22 H70 1.093699 1_555
C22 H78 1.095879 1_555
C22 H74 1.096208 1_555
C22 N6 1.492659 1_555
C23 H71 1.093699 1_555
C23 H79 1.095879 1_655
C23 H75 1.096208 1_555
C23 N7 1.492659 1_655
Cl0 Hg0 2.607264 1_565
Cl1 Hg1 2.607264 1_545
Cl2 Hg2 2.607264 1_545
Cl3 Hg3 2.607264 1_565
Cl4 Hg0 2.522215 1_555
Cl5 Hg1 2.522215 1_555
Cl6 Hg2 2.522215 1_555
Cl7 Hg3 2.522215 1_555
Cl8 Hg0 2.581504 1_555
Cl9 Hg1 2.581504 1_555
Cl10 Hg2 2.581504 1_555
Cl11 Hg3 2.581504 1_555
Cl12 Hg0 2.531247 1_555
Cl13 Hg1 2.531247 1_555
Cl14 Hg2 2.531247 1_555
Cl15 Hg3 2.531247 1_555
