# generated using pymatgen
data_Li4V3P8O29
_symmetry_space_group_name_H-M   'P 1'
_cell_length_a   9.76599700
_cell_length_b   9.77071666
_cell_length_c   14.26062329
_cell_angle_alpha   89.93929356
_cell_angle_beta   90.24255699
_cell_angle_gamma   119.91594182
_symmetry_Int_Tables_number   1
_chemical_formula_structural   Li4V3P8O29
_chemical_formula_sum   'Li8 V6 P16 O58'
_cell_volume   1179.43814525
_cell_formula_units_Z   2
loop_
 _symmetry_equiv_pos_site_id
 _symmetry_equiv_pos_as_xyz
  1  'x, y, z'
loop_
 _atom_site_type_symbol
 _atom_site_label
 _atom_site_symmetry_multiplicity
 _atom_site_fract_x
 _atom_site_fract_y
 _atom_site_fract_z
 _atom_site_occupancy
  Li  Li0  1  0.09858800  0.77655300  0.94187800  1
  Li  Li1  1  0.08643500  0.31212600  0.44436600  1
  Li  Li2  1  0.67546500  0.91088100  0.93442300  1
  Li  Li3  1  0.32974100  0.23156200  0.55852700  1
  Li  Li4  1  0.66963100  0.76041600  0.44126300  1
  Li  Li5  1  0.77706100  0.68588600  0.05794500  1
  Li  Li6  1  0.93288000  0.21918600  0.05232600  1
  Li  Li7  1  0.98903600  0.93459400  0.51395700  1
  V  V0  1  0.43142400  0.43119400  0.75584900  1
  V  V1  1  0.56416700  0.56599900  0.24439900  1
  V  V2  1  0.43097700  0.99740000  0.25500400  1
  V  V3  1  0.56635000  0.00517700  0.74664900  1
  V  V4  1  0.99632100  0.56570300  0.74178700  1
  V  V5  1  0.00144300  0.43807700  0.25574400  1
  P  P0  1  0.09056500  0.77180700  0.15945000  1
  P  P1  1  0.22079100  0.92028900  0.66004800  1
  P  P2  1  0.08718500  0.31213400  0.65857700  1
  P  P3  1  0.33089800  0.66895700  0.86769200  1
  P  P4  1  0.33584700  0.66682100  0.37056400  1
  P  P5  1  0.22195500  0.31040000  0.16066900  1
  P  P6  1  0.31838300  0.23088500  0.34135600  1
  P  P7  1  0.68134600  0.91681600  0.15356600  1
  P  P8  1  0.31372800  0.08499400  0.84359900  1
  P  P9  1  0.68345900  0.77164200  0.65889700  1
  P  P10  1  0.77438000  0.68550000  0.83918600  1
  P  P11  1  0.66224500  0.33416600  0.63179700  1
  P  P12  1  0.66812500  0.32892300  0.13465000  1
  P  P13  1  0.91522500  0.69704600  0.33954700  1
  P  P14  1  0.77841600  0.08075600  0.33729100  1
  P  P15  1  0.91260800  0.23228500  0.83916700  1
  O  O0  1  0.99740800  0.79576400  0.42188400  1
  O  O1  1  0.08252100  0.74556600  0.66690000  1
  O  O2  1  0.23216600  0.99840800  0.92952200  1
  O  O3  1  0.25775500  0.91550000  0.16693000  1
  O  O4  1  0.09788500  0.61919100  0.18154700  1
  O  O5  1  0.18257300  0.66697300  0.82250300  1
  O  O6  1  0.08893400  0.47221700  0.67130400  1
  O  O7  1  0.99976700  0.24743400  0.92750500  1
  O  O8  1  0.07811500  0.34028100  0.16787600  1
  O  O9  1  0.32820700  0.81038300  0.32416400  1
  O  O10  1  0.37904900  0.92553500  0.66462800  1
  O  O11  1  0.18683500  0.51093500  0.32964300  1
  O  O12  1  0.32033300  0.65737600  0.97159200  1
  O  O13  1  0.32923000  0.66407100  0.47463300  1
  O  O14  1  0.33796300  0.52283200  0.82127400  1
  O  O15  1  0.52224300  0.90504700  0.17736900  1
  O  O16  1  0.48377800  0.81688200  0.83262100  1
  O  O17  1  0.25928500  0.34147000  0.66436400  1
  O  O18  1  0.20168000  0.21023000  0.25621200  1
  O  O19  1  0.23861200  0.23089900  0.43168500  1
  O  O20  1  0.21624200  0.22457200  0.07503400  1
  O  O21  1  0.37715000  0.47310600  0.17720000  1
  O  O22  1  0.48797600  0.67509300  0.33113600  1
  O  O23  1  0.34213400  0.25734000  0.83588500  1
  O  O24  1  0.53158100  0.61199500  0.67329700  1
  O  O25  1  0.64842500  0.90842600  0.66912300  1
  O  O26  1  0.20084100  0.99977200  0.75416100  1
  O  O27  1  0.19465900  0.00316600  0.57922200  1
  O  O28  1  0.79239000  0.98537000  0.41422700  1
  O  O29  1  0.34106600  0.08396100  0.33437600  1
  O  O30  1  0.47633000  0.38010000  0.32433900  1
  O  O31  1  0.66635400  0.75130500  0.15669500  1
  O  O32  1  0.50983400  0.32646500  0.67655500  1
  O  O33  1  0.62181900  0.52390700  0.82345000  1
  O  O34  1  0.76305000  0.76256200  0.92780300  1
  O  O35  1  0.76883400  0.78399100  0.56962600  1
  O  O36  1  0.79574300  0.79283000  0.74900400  1
  O  O37  1  0.74038900  0.65708400  0.33247200  1
  O  O38  1  0.52505500  0.18573600  0.18374200  1
  O  O39  1  0.47359400  0.09345900  0.82374500  1
  O  O40  1  0.66913500  0.48510400  0.16162200  1
  O  O41  1  0.68503700  0.31364100  0.03243000  1
  O  O42  1  0.65383000  0.34161200  0.52803700  1
  O  O43  1  0.81175500  0.48991100  0.67391000  1
  O  O44  1  0.61779600  0.07658500  0.33040400  1
  O  O45  1  0.67811500  0.19754000  0.67449200  1
  O  O46  1  0.92039400  0.66319300  0.83925000  1
  O  O47  1  0.99100900  0.79076400  0.24241100  1
  O  O48  1  0.00647500  0.75533500  0.06821600  1
  O  O49  1  0.92311200  0.54190700  0.33067900  1
  O  O50  1  0.81780100  0.33824300  0.18743300  1
  O  O51  1  0.90377400  0.38340400  0.81565600  1
  O  O52  1  0.74623900  0.08430400  0.83695900  1
  O  O53  1  0.75132600  0.99977200  0.06259400  1
  O  O54  1  0.80221800  0.01870900  0.23654800  1
  O  O55  1  0.91713600  0.25569200  0.34177600  1
  O  O56  1  0.01180500  0.23084600  0.56898200  1
  O  O57  1  0.00143800  0.20889000  0.74928700  1
loop_
_geom_bond_atom_site_label_1
_geom_bond_atom_site_label_2
_geom_bond_distance
_geom_bond_site_symmetry_2
Li0 O2 1.900581 1_555
Li0 O48 1.981186 1_556
Li0 O46 2.111031 1_455
Li0 O5 2.368274 1_555
Li1 O56 1.936652 1_555
Li1 O19 2.012539 1_555
Li1 O55 2.061534 1_455
Li1 O11 2.349115 1_555
Li2 O53 1.998534 1_556
Li2 O34 2.019422 1_555
Li2 O52 2.028719 1_565
Li2 O16 2.172655 1_555
Li3 O27 1.967959 1_555
Li3 O19 2.011131 1_555
Li3 O17 2.157292 1_555
Li3 O32 2.266646 1_555
Li4 O28 1.946977 1_555
Li4 O35 2.026280 1_555
Li4 O37 2.147577 1_555
Li4 O22 2.193768 1_555
Li5 O48 1.995633 1_655
Li5 O34 2.030156 1_554
Li5 O31 2.065120 1_555
Li5 O40 2.256115 1_555
Li6 O7 1.870918 1_554
Li6 O53 1.992799 1_545
Li6 O8 2.106514 1_655
Li7 O0 1.919900 1_555
Li7 O27 1.997784 1_665
Li7 O35 2.067786 1_555
O0 P13 1.474941 1_555
O1 P1 1.564852 1_555
O1 V4 1.861601 1_455
O2 P8 1.478344 1_565
O3 P0 1.536485 1_555
O3 V2 1.927051 1_555
O4 P0 1.559850 1_555
O4 V5 1.865523 1_555
O5 P3 1.574180 1_555
O5 V4 1.949872 1_455
O6 P2 1.566412 1_555
O6 V4 1.869860 1_455
O7 P15 1.482926 1_555
O8 P5 1.574633 1_555
O8 V5 1.941136 1_555
O9 P4 1.585241 1_555
O9 V2 1.869301 1_555
O10 P1 1.521756 1_555
O10 V3 1.970686 1_565
O11 P4 1.600623 1_555
O11 V5 1.896111 1_555
O12 P3 1.485973 1_555
O13 P4 1.485400 1_555
O14 P3 1.606874 1_555
O14 V0 1.824668 1_555
O15 P7 1.539124 1_555
O15 V2 1.909735 1_555
O16 P3 1.555829 1_555
O16 V3 2.015425 1_565
O17 P2 1.559539 1_555
O17 V0 1.952068 1_555
O18 P6 1.604171 1_555
O18 P5 1.630857 1_555
O19 P6 1.508256 1_555
O20 P5 1.467187 1_555
O21 P5 1.573038 1_555
O21 V1 1.847006 1_555
O22 P4 1.554722 1_555
O22 V1 2.005378 1_555
O23 P8 1.568003 1_555
O23 V0 1.864253 1_555
O24 P9 1.539311 1_555
O24 V0 1.935245 1_555
O25 P9 1.543191 1_555
O25 V3 1.877208 1_565
O26 P1 1.611732 1_555
O26 P8 1.615611 1_565
O27 P1 1.500357 1_545
O28 P14 1.488089 1_565
O29 P6 1.561243 1_555
O29 V2 1.875821 1_545
O30 P6 1.524160 1_555
O30 V1 1.945345 1_555
O31 P7 1.549958 1_555
O31 V1 2.010439 1_555
O32 P11 1.588949 1_555
O32 V0 1.924450 1_555
O33 P10 1.553886 1_555
O33 V0 1.874540 1_555
O34 P10 1.504162 1_555
O35 P9 1.496239 1_555
O36 P10 1.605736 1_555
O36 P9 1.630549 1_555
O37 P13 1.552948 1_555
O37 V1 1.946187 1_555
O38 P12 1.567183 1_555
O38 V2 1.892268 1_545
O39 P8 1.549000 1_555
O39 V3 1.887645 1_555
O40 P12 1.569369 1_555
O40 V1 1.972178 1_555
O41 P12 1.483787 1_555
O42 P11 1.485332 1_555
O43 P11 1.608273 1_555
O43 V4 1.841087 1_555
O44 P14 1.551386 1_555
O44 V2 1.913277 1_545
O45 P11 1.542928 1_555
O45 V3 1.934414 1_555
O46 P10 1.546253 1_555
O46 V4 2.026080 1_555
O47 P0 1.602842 1_655
O47 P13 1.623296 1_555
O48 P0 1.500871 1_555
O49 P13 1.560955 1_555
O49 V5 1.881397 1_655
O50 P12 1.602999 1_555
O50 V5 1.832809 1_655
O51 P15 1.557497 1_555
O51 V4 1.870167 1_555
O52 P15 1.545261 1_555
O52 V3 1.992702 1_555
O53 P7 1.503270 1_555
O54 P7 1.613510 1_545
O54 P14 1.621970 1_555
O55 P14 1.565484 1_555
O55 V5 1.974631 1_655
O56 P2 1.488692 1_555
O57 P2 1.598755 1_555
O57 P15 1.629581 1_455
