# generated using pymatgen
data_Zr5Sn3Se
_symmetry_space_group_name_H-M   'P 1'
_cell_length_a   8.62217466
_cell_length_b   8.62217466
_cell_length_c   6.05886379
_cell_angle_alpha   90.00000000
_cell_angle_beta   90.00000000
_cell_angle_gamma   120.00000749
_symmetry_Int_Tables_number   1
_chemical_formula_structural   Zr5Sn3Se
_chemical_formula_sum   'Zr10 Sn6 Se2'
_cell_volume   390.08155932
_cell_formula_units_Z   2
loop_
 _symmetry_equiv_pos_site_id
 _symmetry_equiv_pos_as_xyz
  1  'x, y, z'
loop_
 _atom_site_type_symbol
 _atom_site_label
 _atom_site_symmetry_multiplicity
 _atom_site_fract_x
 _atom_site_fract_y
 _atom_site_fract_z
 _atom_site_occupancy
  Zr  Zr0  1  0.66666700  0.33333300  0.00000000  1
  Zr  Zr1  1  0.33333300  0.66666700  0.00000000  1
  Zr  Zr2  1  0.33333300  0.66666700  0.50000000  1
  Zr  Zr3  1  0.66666700  0.33333300  0.50000000  1
  Zr  Zr4  1  0.73710188  0.73710188  0.75000000  1
  Zr  Zr5  1  0.26289812  -0.00000000  0.75000000  1
  Zr  Zr6  1  -0.00000000  0.26289812  0.75000000  1
  Zr  Zr7  1  0.26289812  0.26289812  0.25000000  1
  Zr  Zr8  1  0.73710188  0.00000000  0.25000000  1
  Zr  Zr9  1  0.00000000  0.73710188  0.25000000  1
  Sn  Sn0  1  0.39600672  0.39600672  0.75000000  1
  Sn  Sn1  1  0.60399328  0.00000000  0.75000000  1
  Sn  Sn2  1  0.00000000  0.60399328  0.75000000  1
  Sn  Sn3  1  0.60399328  0.60399328  0.25000000  1
  Sn  Sn4  1  0.39600672  -0.00000000  0.25000000  1
  Sn  Sn5  1  -0.00000000  0.39600672  0.25000000  1
  Se  Se0  1  -0.00000000  0.00000000  0.00000000  1
  Se  Se1  1  -0.00000000  0.00000000  0.50000000  1
loop_
_geom_bond_atom_site_label_1
_geom_bond_atom_site_label_2
_geom_bond_distance
_geom_bond_site_symmetry_2
Sn0 Zr4 2.940982 1_555
Sn0 Zr5 3.009464 1_555
Sn0 Zr6 3.009464 1_555
Sn0 Zr2 3.048528 1_555
Sn0 Zr3 3.048528 1_555
Sn0 Zr0 3.048528 1_556
Sn0 Zr1 3.048528 1_556
Sn0 Zr7 3.239543 1_555
Sn0 Zr7 3.239543 1_556
Sn1 Zr5 2.940982 1_555
Sn1 Zr6 3.009464 1_655
Sn1 Zr4 3.009464 1_545
Sn1 Zr3 3.048521 1_555
Sn1 Zr0 3.048521 1_556
Sn1 Zr1 3.048523 1_546
Sn1 Zr2 3.048523 1_545
Sn1 Zr8 3.239543 1_555
Sn1 Zr8 3.239543 1_556
Sn2 Zr6 2.940982 1_555
Sn2 Zr5 3.009464 1_565
Sn2 Zr4 3.009464 1_455
Sn2 Zr2 3.048521 1_555
Sn2 Zr1 3.048521 1_556
Sn2 Zr3 3.048523 1_455
Sn2 Zr0 3.048523 1_456
Sn2 Zr9 3.239543 1_556
Sn2 Zr9 3.239543 1_555
Sn3 Zr7 2.940982 1_555
Sn3 Zr9 3.009464 1_655
Sn3 Zr8 3.009464 1_565
Sn3 Zr0 3.048528 1_555
Sn3 Zr2 3.048528 1_555
Sn3 Zr1 3.048528 1_555
Sn3 Zr3 3.048528 1_555
Sn3 Zr4 3.239543 1_555
Sn3 Zr4 3.239543 1_554
Sn4 Zr8 2.940982 1_555
Sn4 Zr9 3.009464 1_545
Sn4 Zr7 3.009464 1_555
Sn4 Zr2 3.048521 1_545
Sn4 Zr1 3.048521 1_545
Sn4 Zr0 3.048523 1_555
Sn4 Zr3 3.048523 1_555
Sn4 Zr5 3.239543 1_555
Sn4 Zr5 3.239543 1_554
Sn5 Zr9 2.940982 1_555
Sn5 Zr8 3.009464 1_455
Sn5 Zr7 3.009464 1_555
Sn5 Zr3 3.048521 1_455
Sn5 Zr0 3.048521 1_455
Sn5 Zr2 3.048523 1_555
Sn5 Zr1 3.048523 1_555
Sn5 Zr6 3.239543 1_554
Sn5 Zr6 3.239543 1_555
Se0 Zr4 2.726268 1_444
Se0 Zr7 2.726268 1_555
Se0 Zr6 2.726268 1_554
Se0 Zr9 2.726268 1_545
Se0 Zr8 2.726268 1_455
Se0 Zr5 2.726268 1_554
Se1 Zr4 2.726268 1_445
Se1 Zr7 2.726268 1_555
Se1 Zr6 2.726268 1_555
Se1 Zr9 2.726268 1_545
Se1 Zr8 2.726268 1_455
Se1 Zr5 2.726268 1_555
