# generated using pymatgen
data_Ga(SiNi3)2
_symmetry_space_group_name_H-M   'P 1'
_cell_length_a   3.71186030
_cell_length_b   4.94195579
_cell_length_c   21.36375849
_cell_angle_alpha   90.51949491
_cell_angle_beta   90.00000000
_cell_angle_gamma   90.00000000
_symmetry_Int_Tables_number   1
_chemical_formula_structural   Ga(SiNi3)2
_chemical_formula_sum   'Ga4 Si8 Ni24'
_cell_volume   391.87746238
_cell_formula_units_Z   4
loop_
 _symmetry_equiv_pos_site_id
 _symmetry_equiv_pos_as_xyz
  1  'x, y, z'
loop_
 _atom_site_type_symbol
 _atom_site_label
 _atom_site_symmetry_multiplicity
 _atom_site_fract_x
 _atom_site_fract_y
 _atom_site_fract_z
 _atom_site_occupancy
  Ga  Ga0  1  0.75000000  0.30158125  0.29635220  1
  Ga  Ga1  1  0.75000000  0.29544802  0.62973652  1
  Ga  Ga2  1  0.75000000  0.29521021  0.96210640  1
  Ga  Ga3  1  0.75000000  0.80142556  0.20406712  1
  Si  Si0  1  0.75000000  0.79222191  0.53922096  1
  Si  Si1  1  0.75000000  0.79282658  0.87108884  1
  Si  Si2  1  0.25000000  0.69456199  0.03493968  1
  Si  Si3  1  0.25000000  0.69604880  0.37081453  1
  Si  Si4  1  0.25000000  0.69525740  0.70315821  1
  Si  Si5  1  0.25000000  0.19493295  0.13029927  1
  Si  Si6  1  0.25000000  0.21052789  0.46355844  1
  Si  Si7  1  0.25000000  0.21005573  0.79581613  1
  Ni  Ni0  1  0.75000000  0.45359194  0.07048798  1
  Ni  Ni1  1  0.75000000  0.45663219  0.40592671  1
  Ni  Ni2  1  0.75000000  0.45675842  0.73806209  1
  Ni  Ni3  1  0.75000000  0.95364010  0.09381779  1
  Ni  Ni4  1  0.75000000  0.95512659  0.43355930  1
  Ni  Ni5  1  0.75000000  0.95504449  0.76469575  1
  Ni  Ni6  1  0.25000000  0.56577275  0.26202915  1
  Ni  Ni7  1  0.25000000  0.55911707  0.59470873  1
  Ni  Ni8  1  0.25000000  0.55812528  0.92644960  1
  Ni  Ni9  1  0.25000000  0.06499660  0.23830565  1
  Ni  Ni10  1  0.25000000  0.04893783  0.56792914  1
  Ni  Ni11  1  0.25000000  0.04891218  0.89990205  1
  Ni  Ni12  1  0.75000000  0.32713181  0.18402598  1
  Ni  Ni13  1  0.75000000  0.33499141  0.51930822  1
  Ni  Ni14  1  0.75000000  0.33473940  0.85125463  1
  Ni  Ni15  1  0.75000000  0.82735108  0.31718167  1
  Ni  Ni16  1  0.75000000  0.82213115  0.64773129  1
  Ni  Ni17  1  0.75000000  0.82168790  0.97920452  1
  Ni  Ni18  1  0.25000000  0.65968625  0.14164762  1
  Ni  Ni19  1  0.25000000  0.67237950  0.47948713  1
  Ni  Ni20  1  0.25000000  0.67306171  0.81137973  1
  Ni  Ni21  1  0.25000000  0.15716299  0.02301286  1
  Ni  Ni22  1  0.25000000  0.15734663  0.35838199  1
  Ni  Ni23  1  0.25000000  0.15557344  0.69035213  1
loop_
_geom_bond_atom_site_label_1
_geom_bond_atom_site_label_2
_geom_bond_distance
_geom_bond_site_symmetry_2
Ga0 Ni6 2.388341 1_655
Ga0 Ni6 2.388341 1_555
Ga0 Ni15 2.389458 1_545
Ga0 Ni22 2.392868 1_655
Ga0 Ni22 2.392868 1_555
Ga0 Ni12 2.404173 1_555
Ga0 Ni1 2.456530 1_555
Ga0 Ni9 2.514562 1_555
Ga0 Ni9 2.514562 1_655
Ga0 Ni15 2.632182 1_555
Ga1 Ni13 2.369009 1_555
Ga1 Ni23 2.369706 1_655
Ga1 Ni23 2.369706 1_555
Ga1 Ni16 2.373929 1_545
Ga1 Ni7 2.391666 1_555
Ga1 Ni7 2.391666 1_655
Ga1 Ni2 2.440854 1_555
Ga1 Ni10 2.577398 1_555
Ga1 Ni10 2.577398 1_655
Ga1 Ni16 2.627631 1_555
Ga2 Ni21 2.370464 1_556
Ga2 Ni21 2.370464 1_656
Ga2 Ni17 2.371734 1_545
Ga2 Ni14 2.378019 1_555
Ga2 Ni8 2.393935 1_555
Ga2 Ni8 2.393935 1_655
Ga2 Ni0 2.437423 1_556
Ga2 Ni11 2.581227 1_555
Ga2 Ni11 2.581227 1_655
Ga2 Ni17 2.624064 1_555
Ga3 Ni9 2.378843 1_565
Ga3 Ni9 2.378843 1_665
Ga3 Ni12 2.378900 1_555
Ga3 Ni18 2.386725 1_555
Ga3 Ni18 2.386725 1_655
Ga3 Ni15 2.418786 1_555
Ga3 Ni3 2.479035 1_555
Ga3 Ni6 2.521952 1_655
Ga3 Ni6 2.521952 1_555
Ga3 Ni12 2.636888 1_565
Ni0 Si2 2.335763 1_555
Ni0 Si2 2.335763 1_655
Ni0 Ni12 2.510297 1_555
Ni0 Ni3 2.516543 1_555
Ni0 Ni3 2.524936 1_545
Ni0 Ni21 2.567543 1_655
Ni0 Ni21 2.567543 1_555
Ni0 Si5 2.596316 1_555
Ni0 Si5 2.596316 1_655
Ni0 Ni18 2.600939 1_655
Ni0 Ni18 2.600939 1_555
Ni0 Ni17 2.678922 1_554
Ni1 Si3 2.328775 1_555
Ni1 Si3 2.328775 1_655
Ni1 Ni13 2.501019 1_555
Ni1 Ni4 2.528071 1_555
Ni1 Si6 2.542989 1_655
Ni1 Si6 2.542989 1_555
Ni1 Ni4 2.552956 1_545
Ni1 Ni22 2.576151 1_555
Ni1 Ni22 2.576151 1_655
Ni1 Ni15 2.648402 1_555
Ni1 Ni19 2.649642 1_655
Ni1 Ni19 2.649642 1_555
Ni2 Si4 2.325009 1_655
Ni2 Si4 2.325009 1_555
Ni2 Ni5 2.522358 1_555
Ni2 Si7 2.545694 1_555
Ni2 Si7 2.545694 1_655
Ni2 Ni5 2.548921 1_545
Ni2 Ni23 2.582891 1_555
Ni2 Ni23 2.582891 1_655
Ni2 Ni20 2.647681 1_555
Ni2 Ni20 2.647681 1_655
Ni3 Si5 2.336026 1_665
Ni3 Si5 2.336026 1_565
Ni3 Si2 2.576195 1_555
Ni3 Si2 2.576195 1_655
Ni4 Si6 2.331021 1_665
Ni4 Si6 2.331021 1_565
Ni4 Si0 2.403462 1_555
Ni4 Si3 2.617154 1_655
Ni4 Si3 2.617154 1_555
Ni5 Si7 2.336567 1_665
Ni5 Si7 2.336567 1_565
Ni5 Si1 2.417034 1_555
Ni5 Si4 2.605863 1_655
Ni5 Si4 2.605863 1_555
Ni6 Si3 2.405960 1_555
Ni6 Ni9 2.521672 1_555
Ni6 Ni9 2.523160 1_565
Ni7 Si4 2.406733 1_555
Ni7 Si0 2.490295 1_555
Ni7 Si0 2.490295 1_455
Ni8 Si2 2.407963 1_556
Ni8 Si1 2.492688 1_455
Ni8 Si1 2.492688 1_555
Ni9 Si5 2.400710 1_555
Ni10 Si0 2.327245 1_545
Ni10 Si0 2.327245 1_445
Ni10 Si6 2.375246 1_555
Ni10 Ni7 2.492405 1_545
Ni10 Ni13 2.559004 1_455
Ni10 Ni13 2.559004 1_555
Ni10 Ni7 2.580315 1_555
Ni10 Ni19 2.639953 1_545
Ni10 Ni23 2.663291 1_555
Ni10 Ni16 2.764429 1_545
Ni10 Ni16 2.764429 1_445
Ni11 Si1 2.326137 1_445
Ni11 Si1 2.326137 1_545
Ni11 Si7 2.368755 1_555
Ni11 Ni8 2.495877 1_545
Ni11 Ni14 2.558615 1_455
Ni11 Ni14 2.558615 1_555
Ni11 Ni8 2.574607 1_555
Ni11 Ni20 2.638730 1_545
Ni11 Ni21 2.679208 1_556
Ni11 Ni17 2.758670 1_445
Ni11 Ni17 2.758670 1_545
Ni12 Si5 2.274898 1_555
Ni12 Si5 2.274898 1_655
Ni12 Ni9 2.548460 1_655
Ni12 Ni9 2.548460 1_555
Ni12 Ni18 2.644263 1_655
Ni12 Ni18 2.644263 1_555
Ni12 Ni3 2.656397 1_545
Ni12 Ni6 2.752587 1_655
Ni12 Ni6 2.752587 1_555
Ni13 Si6 2.286498 1_555
Ni13 Si6 2.286498 1_655
Ni13 Si0 2.295516 1_555
Ni13 Ni4 2.611078 1_545
Ni13 Ni19 2.640836 1_555
Ni13 Ni19 2.640836 1_655
Ni13 Ni7 2.689562 1_655
Ni13 Ni7 2.689562 1_555
Ni13 Si0 2.719675 1_545
Ni14 Si7 2.283345 1_555
Ni14 Si7 2.283345 1_655
Ni14 Si1 2.299382 1_555
Ni14 Ni2 2.497568 1_555
Ni14 Ni5 2.622539 1_545
Ni14 Ni20 2.644144 1_555
Ni14 Ni20 2.644144 1_655
Ni14 Ni8 2.685465 1_555
Ni14 Ni8 2.685465 1_655
Ni14 Si1 2.715216 1_545
Ni15 Si3 2.278568 1_555
Ni15 Si3 2.278568 1_655
Ni15 Ni6 2.544850 1_555
Ni15 Ni6 2.544850 1_655
Ni15 Ni4 2.559645 1_555
Ni15 Ni22 2.617780 1_665
Ni15 Ni22 2.617780 1_565
Ni15 Ni9 2.774740 1_665
Ni15 Ni9 2.774740 1_565
Ni16 Si4 2.291993 1_555
Ni16 Si4 2.291993 1_655
Ni16 Si0 2.321558 1_555
Ni16 Ni7 2.527927 1_555
Ni16 Ni7 2.527927 1_655
Ni16 Ni5 2.577925 1_555
Ni16 Ni23 2.638520 1_565
Ni16 Ni23 2.638520 1_665
Ni16 Ni2 2.654756 1_555
Ni17 Si2 2.295765 1_656
Ni17 Si2 2.295765 1_556
Ni17 Si1 2.312866 1_555
Ni17 Ni8 2.526782 1_655
Ni17 Ni8 2.526782 1_555
Ni17 Ni3 2.528197 1_556
Ni17 Ni21 2.653472 1_566
Ni17 Ni21 2.653472 1_666
Ni18 Si2 2.287746 1_555
Ni18 Si5 2.307364 1_555
Ni18 Ni3 2.574078 1_455
Ni18 Ni3 2.574078 1_555
Ni18 Si5 2.658441 1_565
Ni18 Ni9 2.863782 1_565
Ni19 Si6 2.304625 1_555
Ni19 Si3 2.325659 1_555
Ni19 Si0 2.325956 1_455
Ni19 Si0 2.325956 1_555
Ni19 Ni4 2.526774 1_455
Ni19 Ni4 2.526774 1_555
Ni19 Ni7 2.529348 1_555
Ni19 Si6 2.684247 1_565
Ni20 Si7 2.309202 1_555
Ni20 Si4 2.315612 1_555
Ni20 Si1 2.325571 1_455
Ni20 Si1 2.325571 1_555
Ni20 Ni8 2.528106 1_555
Ni20 Ni5 2.531077 1_555
Ni20 Ni5 2.531077 1_455
Ni20 Si7 2.677539 1_565
Ni21 Si5 2.297941 1_555
Ni21 Si2 2.302604 1_545
Ni21 Ni3 2.602276 1_545
Ni21 Ni3 2.602276 1_445
Ni21 Si2 2.665696 1_555
Ni21 Ni8 2.873395 1_554
Ni22 Si6 2.259915 1_555
Ni22 Si3 2.297525 1_545
Ni22 Ni9 2.601487 1_555
Ni22 Ni4 2.655516 1_445
Ni22 Ni4 2.655516 1_545
Ni22 Si3 2.673062 1_555
Ni23 Si7 2.266713 1_555
Ni23 Si4 2.293715 1_545
Ni23 Ni5 2.641529 1_445
Ni23 Ni5 2.641529 1_545
Ni23 Si4 2.678621 1_555
Ni23 Ni7 2.868134 1_555
