# generated using pymatgen
data_Mo3O10
_symmetry_space_group_name_H-M   'P 1'
_cell_length_a   11.14413900
_cell_length_b   11.14413834
_cell_length_c   3.67524100
_cell_angle_alpha   90.00000000
_cell_angle_beta   90.00000000
_cell_angle_gamma   119.99999900
_symmetry_Int_Tables_number   1
_chemical_formula_structural   Mo3O10
_chemical_formula_sum   'Mo6 O20'
_cell_volume   395.28421667
_cell_formula_units_Z   2
loop_
 _symmetry_equiv_pos_site_id
 _symmetry_equiv_pos_as_xyz
  1  'x, y, z'
loop_
 _atom_site_type_symbol
 _atom_site_label
 _atom_site_symmetry_multiplicity
 _atom_site_fract_x
 _atom_site_fract_y
 _atom_site_fract_z
 _atom_site_occupancy
  Mo  Mo0  1  0.64703800  0.10810000  0.25000000  1
  Mo  Mo1  1  0.89190000  0.53893800  0.25000000  1
  Mo  Mo2  1  0.46106200  0.35296200  0.25000000  1
  Mo  Mo3  1  0.35296200  0.89190000  0.75000000  1
  Mo  Mo4  1  0.10810000  0.46106200  0.75000000  1
  Mo  Mo5  1  0.53893800  0.64703800  0.75000000  1
  O  O0  1  0.42494100  0.92274200  0.25000000  1
  O  O1  1  0.07725800  0.50220000  0.25000000  1
  O  O2  1  0.49780000  0.57505900  0.25000000  1
  O  O3  1  0.57505900  0.07725800  0.75000000  1
  O  O4  1  0.92274200  0.49780000  0.75000000  1
  O  O5  1  0.50220000  0.42494100  0.75000000  1
  O  O6  1  0.73188900  0.01653300  0.25000000  1
  O  O7  1  0.98346700  0.71535600  0.25000000  1
  O  O8  1  0.28464400  0.26811100  0.25000000  1
  O  O9  1  0.26811100  0.98346700  0.75000000  1
  O  O10  1  0.01653300  0.28464400  0.75000000  1
  O  O11  1  0.71535600  0.73188900  0.75000000  1
  O  O12  1  0.49918300  0.21865700  0.25000000  1
  O  O13  1  0.78134300  0.28052600  0.25000000  1
  O  O14  1  0.71947400  0.50081700  0.25000000  1
  O  O15  1  0.50081700  0.78134300  0.75000000  1
  O  O16  1  0.21865700  0.71947400  0.75000000  1
  O  O17  1  0.28052600  0.49918300  0.75000000  1
  O  O18  1  0.00000000  0.00000000  0.25000000  1
  O  O19  1  0.00000000  0.00000000  0.75000000  1
loop_
_geom_bond_atom_site_label_1
_geom_bond_atom_site_label_2
_geom_bond_distance
_geom_bond_site_symmetry_2
Mo0 O6 1.703040 1_555
Mo0 O13 1.748276 1_555
Mo0 O3 1.965379 1_555
Mo0 O3 1.965379 1_554
Mo0 O0 2.297888 1_545
Mo0 O12 2.502606 1_555
Mo1 O7 1.703040 1_555
Mo1 O14 1.748277 1_555
Mo1 O4 1.965383 1_554
Mo1 O4 1.965383 1_555
Mo1 O1 2.297881 1_655
Mo1 O13 2.502606 1_555
Mo2 O8 1.703040 1_555
Mo2 O12 1.748276 1_555
Mo2 O5 1.965380 1_555
Mo2 O5 1.965380 1_554
Mo2 O2 2.297892 1_555
Mo2 O14 2.502606 1_555
Mo3 O9 1.703040 1_555
Mo3 O16 1.748276 1_555
Mo3 O0 1.965379 1_555
Mo3 O0 1.965379 1_556
Mo3 O3 2.297888 1_565
Mo3 O15 2.502606 1_555
Mo4 O10 1.703040 1_555
Mo4 O17 1.748277 1_555
Mo4 O1 1.965383 1_556
Mo4 O1 1.965383 1_555
Mo4 O4 2.297881 1_455
Mo4 O16 2.502606 1_555
Mo5 O11 1.703040 1_555
Mo5 O15 1.748276 1_555
Mo5 O2 1.965380 1_555
Mo5 O2 1.965380 1_556
Mo5 O5 2.297892 1_555
Mo5 O17 2.502606 1_555
O18 O19 1.837621 1_555
O18 O19 1.837621 1_554
