# generated using pymatgen
data_K2Mo4O13
_symmetry_space_group_name_H-M   'P 1'
_cell_length_a   8.24881100
_cell_length_b   8.53380644
_cell_length_c   10.33278121
_cell_angle_alpha   107.36828166
_cell_angle_beta   103.10106821
_cell_angle_gamma   109.50356039
_symmetry_Int_Tables_number   1
_chemical_formula_structural   K2Mo4O13
_chemical_formula_sum   'K4 Mo8 O26'
_cell_volume   609.79944511
_cell_formula_units_Z   2
loop_
 _symmetry_equiv_pos_site_id
 _symmetry_equiv_pos_as_xyz
  1  'x, y, z'
loop_
 _atom_site_type_symbol
 _atom_site_label
 _atom_site_symmetry_multiplicity
 _atom_site_fract_x
 _atom_site_fract_y
 _atom_site_fract_z
 _atom_site_occupancy
  K  K0  1  0.31089000  0.35139300  0.43033300  1
  K  K1  1  0.68911000  0.64860700  0.56966700  1
  K  K2  1  0.37552500  0.92589700  0.30943200  1
  K  K3  1  0.62447500  0.07410300  0.69056800  1
  Mo  Mo0  1  0.76503200  0.45590800  0.05094100  1
  Mo  Mo1  1  0.23496800  0.54409200  0.94905900  1
  Mo  Mo2  1  0.76925500  0.84607400  0.06204300  1
  Mo  Mo3  1  0.23074500  0.15392600  0.93795700  1
  Mo  Mo4  1  0.04798600  0.87516500  0.73104400  1
  Mo  Mo5  1  0.95201400  0.12483500  0.26895600  1
  Mo  Mo6  1  0.06518900  0.49353100  0.70985800  1
  Mo  Mo7  1  0.93481100  0.50646900  0.29014200  1
  O  O0  1  0.69464700  0.97812100  0.96202200  1
  O  O1  1  0.30535300  0.02187900  0.03797800  1
  O  O2  1  0.06807600  0.97985400  0.88293800  1
  O  O3  1  0.93192400  0.02014600  0.11706200  1
  O  O4  1  0.28626700  0.00706200  0.61123000  1
  O  O5  1  0.71373300  0.99293800  0.38877000  1
  O  O6  1  0.76893200  0.68995400  0.94587500  1
  O  O7  1  0.23106800  0.31004600  0.05412500  1
  O  O8  1  0.53458600  0.32682100  0.18326000  1
  O  O9  1  0.46541400  0.67317900  0.81674000  1
  O  O10  1  0.29567800  0.61517200  0.57082000  1
  O  O11  1  0.70432200  0.38482800  0.42918000  1
  O  O12  1  0.97813500  0.68243100  0.66432200  1
  O  O13  1  0.02186500  0.31756900  0.33567800  1
  O  O14  1  0.87799200  0.63941400  0.14526200  1
  O  O15  1  0.12200800  0.36058600  0.85473800  1
  O  O16  1  0.77501200  0.37615000  0.90948300  1
  O  O17  1  0.22498800  0.62385000  0.09051700  1
  O  O18  1  0.95241900  0.33905000  0.64721000  1
  O  O19  1  0.04758100  0.66095000  0.35279000  1
  O  O20  1  0.93250900  0.98499500  0.65880000  1
  O  O21  1  0.06749100  0.01500500  0.34120000  1
  O  O22  1  0.09842800  0.64985100  0.86425300  1
  O  O23  1  0.90157200  0.35014900  0.13574700  1
  O  O24  1  0.57051200  0.71627000  0.22779000  1
  O  O25  1  0.42948800  0.28373000  0.77221000  1
loop_
_geom_bond_atom_site_label_1
_geom_bond_atom_site_label_2
_geom_bond_distance
_geom_bond_site_symmetry_2
K0 O13 2.244715 1_555
K0 O10 2.347432 1_555
K0 O21 2.618163 1_555
K0 O11 3.164660 1_555
K1 O12 2.244715 1_555
K1 O11 2.347432 1_555
K1 O20 2.618163 1_555
K1 O10 3.164660 1_555
K2 O5 2.529791 1_555
K2 O17 2.532012 1_555
K2 O24 2.852061 1_555
K2 O21 2.943046 1_565
K2 O19 3.114607 1_555
K2 O1 3.134562 1_565
K2 O4 3.292142 1_565
K3 O4 2.529791 1_555
K3 O16 2.532012 1_555
K3 O25 2.852061 1_555
K3 O20 2.943046 1_545
K3 O18 3.114607 1_555
K3 O0 3.134562 1_545
K3 O5 3.292142 1_545
Mo0 O14 1.404713 1_555
Mo0 O16 1.450686 1_554
Mo0 O23 1.885327 1_555
Mo0 O8 2.715774 1_555
Mo1 O15 1.404713 1_555
Mo1 O17 1.450686 1_556
Mo1 O22 1.885327 1_555
Mo1 O9 2.715774 1_555
Mo2 O3 1.466085 1_565
Mo2 O6 1.502415 1_554
Mo2 O0 1.893863 1_554
Mo2 O24 2.835597 1_555
Mo3 O2 1.466085 1_545
Mo3 O7 1.502415 1_556
Mo3 O1 1.893863 1_556
Mo3 O25 2.835597 1_555
Mo4 O12 1.422197 1_455
Mo4 O2 1.494994 1_555
Mo4 O20 1.741998 1_455
Mo4 O4 2.668473 1_565
Mo5 O13 1.422197 1_655
Mo5 O3 1.494994 1_555
Mo5 O21 1.741998 1_655
Mo5 O5 2.668473 1_545
Mo6 O18 1.192042 1_455
Mo6 O22 1.639122 1_555
Mo6 O12 2.099600 1_455
Mo6 O10 2.750837 1_555
Mo7 O19 1.192042 1_655
Mo7 O23 1.639122 1_555
Mo7 O13 2.099600 1_655
Mo7 O11 2.750837 1_555
