# generated using pymatgen
data_Fe5Si3
_symmetry_space_group_name_H-M   'P 1'
_cell_length_a   7.70305694
_cell_length_b   7.70305694
_cell_length_c   7.70305694
_cell_angle_alpha   109.47122063
_cell_angle_beta   109.47122063
_cell_angle_gamma   109.47122063
_symmetry_Int_Tables_number   1
_chemical_formula_structural   Fe5Si3
_chemical_formula_sum   'Fe20 Si12'
_cell_volume   351.85800360
_cell_formula_units_Z   4
loop_
 _symmetry_equiv_pos_site_id
 _symmetry_equiv_pos_as_xyz
  1  'x, y, z'
loop_
 _atom_site_type_symbol
 _atom_site_label
 _atom_site_symmetry_multiplicity
 _atom_site_fract_x
 _atom_site_fract_y
 _atom_site_fract_z
 _atom_site_occupancy
  Fe  Fe0  1  0.12500000  0.37500000  0.75000000  1
  Fe  Fe1  1  0.37500000  0.12500000  0.25000000  1
  Fe  Fe2  1  0.37500000  0.75000000  0.12500000  1
  Fe  Fe3  1  0.12500000  0.25000000  0.37500000  1
  Fe  Fe4  1  0.75000000  0.12500000  0.37500000  1
  Fe  Fe5  1  0.25000000  0.37500000  0.12500000  1
  Fe  Fe6  1  0.87500000  0.62500000  0.25000000  1
  Fe  Fe7  1  0.62500000  0.87500000  0.75000000  1
  Fe  Fe8  1  0.62500000  0.25000000  0.87500000  1
  Fe  Fe9  1  0.87500000  0.75000000  0.62500000  1
  Fe  Fe10  1  0.25000000  0.87500000  0.62500000  1
  Fe  Fe11  1  0.75000000  0.62500000  0.87500000  1
  Fe  Fe12  1  0.00000000  0.50000000  0.00000000  1
  Fe  Fe13  1  0.00000000  0.00000000  0.50000000  1
  Fe  Fe14  1  0.50000000  0.00000000  0.00000000  1
  Fe  Fe15  1  0.50000000  0.50000000  0.50000000  1
  Fe  Fe16  1  0.50000000  0.50000000  0.00000000  1
  Fe  Fe17  1  0.50000000  0.00000000  0.50000000  1
  Fe  Fe18  1  0.00000000  0.50000000  0.50000000  1
  Fe  Fe19  1  0.00000000  0.00000000  0.00000000  1
  Si  Si0  1  0.37500000  0.62500000  0.75000000  1
  Si  Si1  1  0.12500000  0.87500000  0.25000000  1
  Si  Si2  1  0.62500000  0.75000000  0.37500000  1
  Si  Si3  1  0.87500000  0.25000000  0.12500000  1
  Si  Si4  1  0.75000000  0.37500000  0.62500000  1
  Si  Si5  1  0.25000000  0.12500000  0.87500000  1
  Si  Si6  1  0.62500000  0.37500000  0.25000000  1
  Si  Si7  1  0.87500000  0.12500000  0.75000000  1
  Si  Si8  1  0.37500000  0.25000000  0.62500000  1
  Si  Si9  1  0.12500000  0.75000000  0.87500000  1
  Si  Si10  1  0.25000000  0.62500000  0.37500000  1
  Si  Si11  1  0.75000000  0.87500000  0.12500000  1
loop_
_geom_bond_atom_site_label_1
_geom_bond_atom_site_label_2
_geom_bond_distance
_geom_bond_site_symmetry_2
Fe0 Si0 2.223681 1_555
Fe0 Si7 2.223681 1_455
Fe0 Fe12 2.486151 1_556
Fe0 Fe16 2.486151 1_556
Fe0 Fe13 2.486151 1_555
Fe0 Fe18 2.486151 1_555
Fe0 Si4 2.723442 1_455
Fe0 Si9 2.723442 1_555
Fe0 Si5 2.723442 1_555
Fe0 Si8 2.723442 1_555
Fe1 Si6 2.223681 1_555
Fe1 Si1 2.223681 1_545
Fe1 Fe17 2.486151 1_555
Fe1 Fe14 2.486151 1_555
Fe1 Fe15 2.486151 1_555
Fe1 Fe19 2.486151 1_555
Fe1 Si4 2.723442 1_555
Fe1 Si5 2.723442 1_554
Fe1 Si8 2.723442 1_555
Fe1 Si9 2.723442 1_544
Fe2 Si9 2.223681 1_554
Fe2 Si2 2.223681 1_555
Fe2 Si1 2.723442 1_555
Fe2 Si0 2.723442 1_554
Fe2 Si10 2.723442 1_555
Fe2 Si11 2.723442 1_555
Fe3 Si8 2.223681 1_555
Fe3 Si3 2.223681 1_455
Fe3 Si1 2.723442 1_545
Fe3 Si0 2.723442 1_555
Fe3 Si10 2.723442 1_555
Fe3 Si11 2.723442 1_445
Fe4 Si4 2.223681 1_555
Fe4 Si11 2.223681 1_545
Fe4 Si7 2.723442 1_555
Fe4 Si6 2.723442 1_555
Fe4 Si2 2.723442 1_545
Fe4 Si3 2.723442 1_555
Fe5 Si5 2.223681 1_554
Fe5 Si10 2.223681 1_555
Fe5 Si7 2.723442 1_454
Fe5 Si6 2.723442 1_555
Fe5 Si2 2.723442 1_555
Fe5 Si3 2.723442 1_455
Fe6 Si6 2.223681 1_555
Fe6 Si1 2.223681 1_655
Fe6 Si3 2.723442 1_555
Fe6 Si10 2.723442 1_655
Fe6 Si11 2.723442 1_555
Fe6 Si2 2.723442 1_555
Fe7 Si7 2.223681 1_565
Fe7 Si0 2.223681 1_555
Fe7 Si3 2.723442 1_566
Fe7 Si10 2.723442 1_555
Fe7 Si2 2.723442 1_555
Fe7 Si11 2.723442 1_556
Fe8 Si8 2.223681 1_555
Fe8 Si3 2.223681 1_556
Fe8 Si7 2.723442 1_555
Fe8 Si6 2.723442 1_556
Fe8 Si5 2.723442 1_555
Fe8 Si4 2.723442 1_555
Fe9 Si9 2.223681 1_655
Fe9 Si2 2.223681 1_555
Fe9 Si6 2.723442 1_555
Fe9 Si7 2.723442 1_565
Fe9 Si4 2.723442 1_555
Fe9 Si5 2.723442 1_665
Fe10 Si10 2.223681 1_555
Fe10 Si5 2.223681 1_565
Fe10 Fe14 2.486151 1_566
Fe10 Fe13 2.486151 1_565
Fe10 Fe17 2.486151 1_565
Fe10 Fe18 2.486151 1_555
Fe10 Si1 2.723442 1_555
Fe10 Si0 2.723442 1_555
Fe10 Si9 2.723442 1_555
Fe10 Si8 2.723442 1_565
Fe11 Si4 2.223681 1_555
Fe11 Si11 2.223681 1_556
Fe11 Fe12 2.486151 1_656
Fe11 Fe19 2.486151 1_666
Fe11 Fe15 2.486151 1_555
Fe11 Fe16 2.486151 1_556
Fe11 Si1 2.723442 1_656
Fe11 Si0 2.723442 1_555
Fe11 Si9 2.723442 1_655
Fe11 Si8 2.723442 1_555
Fe12 Si3 2.486151 1_455
Fe12 Fe8 2.486151 1_454
Fe12 Si4 2.486151 1_454
Fe12 Fe5 2.486151 1_555
Fe12 Fe2 2.486151 1_555
Fe12 Fe6 2.486151 1_455
Fe12 Si7 2.486151 1_454
Fe12 Si10 2.486151 1_555
Fe12 Si1 2.486151 1_555
Fe12 Si9 2.486151 1_554
Fe13 Fe3 2.486151 1_555
Fe13 Fe9 2.486151 1_445
Fe13 Fe6 2.486151 1_445
Fe13 Si11 2.486151 1_445
Fe13 Si7 2.486151 1_455
Fe13 Si2 2.486151 1_445
Fe13 Si1 2.486151 1_545
Fe13 Si8 2.486151 1_555
Fe13 Fe4 2.486151 1_455
Fe13 Si5 2.486151 1_555
Fe14 Si3 2.486151 1_555
Fe14 Si0 2.486151 1_544
Fe14 Si9 2.486151 1_544
Fe14 Fe2 2.486151 1_545
Fe14 Si6 2.486151 1_555
Fe14 Si5 2.486151 1_554
Fe14 Fe7 2.486151 1_544
Fe14 Fe8 2.486151 1_554
Fe14 Fe4 2.486151 1_555
Fe14 Si11 2.486151 1_545
Fe15 Si2 2.486151 1_555
Fe15 Fe3 2.486151 1_555
Fe15 Fe7 2.486151 1_555
Fe15 Si0 2.486151 1_555
Fe15 Si6 2.486151 1_555
Fe15 Fe5 2.486151 1_555
Fe15 Si10 2.486151 1_555
Fe15 Si4 2.486151 1_555
Fe15 Si8 2.486151 1_555
Fe15 Fe9 2.486151 1_555
Fe16 Si2 2.486151 1_555
Fe16 Si8 2.486151 1_554
Fe16 Si6 2.486151 1_555
Fe16 Fe5 2.486151 1_555
Fe16 Si5 2.486151 1_554
Fe16 Fe6 2.486151 1_555
Fe16 Fe2 2.486151 1_555
Fe16 Fe8 2.486151 1_554
Fe16 Si11 2.486151 1_555
Fe16 Si0 2.486151 1_554
Fe17 Fe2 2.486151 1_545
Fe17 Fe8 2.486151 1_555
Fe17 Fe4 2.486151 1_555
Fe17 Fe7 2.486151 1_545
Fe17 Si10 2.486151 1_545
Fe17 Si7 2.486151 1_555
Fe17 Si4 2.486151 1_555
Fe17 Si1 2.486151 1_545
Fe17 Si8 2.486151 1_555
Fe17 Si2 2.486151 1_545
Fe18 Si6 2.486151 1_455
Fe18 Fe3 2.486151 1_555
Fe18 Fe4 2.486151 1_455
Fe18 Si3 2.486151 1_455
Fe18 Si0 2.486151 1_555
Fe18 Si9 2.486151 1_555
Fe18 Si4 2.486151 1_455
Fe18 Fe6 2.486151 1_455
Fe18 Fe9 2.486151 1_455
Fe18 Si10 2.486151 1_555
Fe19 Fe3 2.486151 1_555
Fe19 Si3 2.486151 1_455
Fe19 Fe7 2.486151 1_444
Fe19 Si9 2.486151 1_544
Fe19 Fe5 2.486151 1_555
Fe19 Si5 2.486151 1_554
Fe19 Si7 2.486151 1_454
Fe19 Si11 2.486151 1_445
Fe19 Si1 2.486151 1_545
Fe19 Fe9 2.486151 1_444
Si0 Si10 2.723442 1_555
Si0 Si8 2.723442 1_555
Si0 Si11 2.723442 1_556
Si0 Si9 2.723442 1_555
Si1 Si8 2.723442 1_565
Si1 Si10 2.723442 1_555
Si1 Si11 2.723442 1_455
Si1 Si9 2.723442 1_554
Si2 Si7 2.723442 1_565
Si2 Si6 2.723442 1_555
Si3 Si6 2.723442 1_555
Si3 Si7 2.723442 1_554
Si4 Si7 2.723442 1_555
Si4 Si6 2.723442 1_555
Si4 Si9 2.723442 1_655
Si4 Si8 2.723442 1_555
Si5 Si7 2.723442 1_455
Si5 Si6 2.723442 1_556
Si5 Si9 2.723442 1_545
Si5 Si8 2.723442 1_555
Si10 Si2 2.723442 1_555
Si10 Si3 2.723442 1_455
Si11 Si3 2.723442 1_565
Si11 Si2 2.723442 1_555
