# generated using pymatgen
data_Tm2MgSe4
_symmetry_space_group_name_H-M   'P 1'
_cell_length_a   3.96765300
_cell_length_b   13.03408700
_cell_length_c   13.87382600
_cell_angle_alpha   90.00000000
_cell_angle_beta   90.00000000
_cell_angle_gamma   90.00000000
_symmetry_Int_Tables_number   1
_chemical_formula_structural   Tm2MgSe4
_chemical_formula_sum   'Tm8 Mg4 Se16'
_cell_volume   717.48122653
_cell_formula_units_Z   4
loop_
 _symmetry_equiv_pos_site_id
 _symmetry_equiv_pos_as_xyz
  1  'x, y, z'
loop_
 _atom_site_type_symbol
 _atom_site_label
 _atom_site_symmetry_multiplicity
 _atom_site_fract_x
 _atom_site_fract_y
 _atom_site_fract_z
 _atom_site_occupancy
  Tm  Tm0  1  0.25000000  0.11376300  0.07573000  1
  Tm  Tm1  1  0.75000000  0.88623700  0.92427000  1
  Tm  Tm2  1  0.75000000  0.38623700  0.57573000  1
  Tm  Tm3  1  0.25000000  0.61376300  0.42427000  1
  Tm  Tm4  1  0.25000000  0.14418800  0.70207100  1
  Tm  Tm5  1  0.75000000  0.85581200  0.29792900  1
  Tm  Tm6  1  0.75000000  0.35581200  0.20207100  1
  Tm  Tm7  1  0.25000000  0.64418800  0.79792900  1
  Mg  Mg0  1  0.75000000  0.11588300  0.44235100  1
  Mg  Mg1  1  0.25000000  0.88411700  0.55764900  1
  Mg  Mg2  1  0.25000000  0.38411700  0.94235100  1
  Mg  Mg3  1  0.75000000  0.61588300  0.05764900  1
  Se  Se0  1  0.75000000  0.01520800  0.61414900  1
  Se  Se1  1  0.25000000  0.98479200  0.38585100  1
  Se  Se2  1  0.25000000  0.48479200  0.11414900  1
  Se  Se3  1  0.75000000  0.51520800  0.88585100  1
  Se  Se4  1  0.25000000  0.03095900  0.88078300  1
  Se  Se5  1  0.75000000  0.96904100  0.11921700  1
  Se  Se6  1  0.75000000  0.46904100  0.38078300  1
  Se  Se7  1  0.25000000  0.53095900  0.61921700  1
  Se  Se8  1  0.25000000  0.21934800  0.25200300  1
  Se  Se9  1  0.75000000  0.78065200  0.74799700  1
  Se  Se10  1  0.75000000  0.28065200  0.75200300  1
  Se  Se11  1  0.25000000  0.71934800  0.24799700  1
  Se  Se12  1  0.75000000  0.25671700  0.01521900  1
  Se  Se13  1  0.25000000  0.74328300  0.98478100  1
  Se  Se14  1  0.25000000  0.24328300  0.51521900  1
  Se  Se15  1  0.75000000  0.75671700  0.48478100  1
loop_
_geom_bond_atom_site_label_1
_geom_bond_atom_site_label_2
_geom_bond_distance
_geom_bond_site_symmetry_2
Mg0 Se0 2.720834 1_555
Mg0 Se1 2.733041 1_645
Mg0 Se1 2.733041 1_545
Mg0 Se14 2.777590 1_655
Mg0 Se14 2.777590 1_555
Mg1 Se1 2.720834 1_555
Mg1 Se0 2.733041 1_565
Mg1 Se0 2.733041 1_465
Mg1 Se15 2.777590 1_555
Mg1 Se15 2.777590 1_455
Mg2 Se2 2.720834 1_556
Mg2 Se3 2.733041 1_455
Mg2 Se3 2.733041 1_555
Mg2 Se12 2.777590 1_556
Mg2 Se12 2.777590 1_456
Mg3 Se3 2.720834 1_554
Mg3 Se2 2.733041 1_655
Mg3 Se2 2.733041 1_555
Mg3 Se13 2.777590 1_554
Mg3 Se13 2.777590 1_654
Se0 Tm4 2.872235 1_555
Se0 Tm4 2.872235 1_655
Se1 Tm5 2.872235 1_455
Se1 Tm5 2.872235 1_555
Se2 Tm6 2.872235 1_555
Se2 Tm6 2.872235 1_455
Se3 Tm7 2.872235 1_555
Se3 Tm7 2.872235 1_655
Se4 Tm1 2.803172 1_445
Se4 Tm1 2.803172 1_545
Se4 Tm4 2.885414 1_555
Se4 Tm0 2.912048 1_556
Se5 Tm0 2.803172 1_565
Se5 Tm0 2.803172 1_665
Se5 Tm5 2.885414 1_555
Se5 Tm1 2.912048 1_554
Se6 Tm3 2.803172 1_555
Se6 Tm3 2.803172 1_655
Se6 Tm6 2.885414 1_555
Se6 Tm2 2.912048 1_555
Se7 Tm2 2.803172 1_455
Se7 Tm2 2.803172 1_555
Se7 Tm7 2.885414 1_555
Se7 Tm3 2.912048 1_555
Se8 Tm6 2.753032 1_555
Se8 Tm6 2.753032 1_455
Se8 Tm0 2.806208 1_555
Se9 Tm7 2.753032 1_555
Se9 Tm7 2.753032 1_655
Se9 Tm1 2.806208 1_555
Se10 Tm4 2.753032 1_655
Se10 Tm4 2.753032 1_555
Se10 Tm2 2.806208 1_555
Se11 Tm5 2.753032 1_455
Se11 Tm5 2.753032 1_555
Se11 Tm3 2.806208 1_555
Se12 Tm0 2.848184 1_555
Se12 Tm0 2.848184 1_655
Se12 Tm6 2.896300 1_555
Se13 Tm1 2.848184 1_455
Se13 Tm1 2.848184 1_555
Se13 Tm7 2.896300 1_555
Se14 Tm2 2.848184 1_555
Se14 Tm2 2.848184 1_455
Se14 Tm4 2.896300 1_555
Se15 Tm3 2.848184 1_655
Se15 Tm3 2.848184 1_555
Se15 Tm5 2.896300 1_555
