# generated using pymatgen
data_Li(MnS2)2
_symmetry_space_group_name_H-M   'P 1'
_cell_length_a   7.08299506
_cell_length_b   7.08307649
_cell_length_c   7.08316638
_cell_angle_alpha   59.99974443
_cell_angle_beta   59.99958733
_cell_angle_gamma   59.99974872
_symmetry_Int_Tables_number   1
_chemical_formula_structural   Li(MnS2)2
_chemical_formula_sum   'Li2 Mn4 S8'
_cell_volume   251.27443090
_cell_formula_units_Z   2
loop_
 _symmetry_equiv_pos_site_id
 _symmetry_equiv_pos_as_xyz
  1  'x, y, z'
loop_
 _atom_site_type_symbol
 _atom_site_label
 _atom_site_symmetry_multiplicity
 _atom_site_fract_x
 _atom_site_fract_y
 _atom_site_fract_z
 _atom_site_occupancy
  Li  Li0  1  0.24996642  0.24998013  0.25001951  1
  Li  Li1  1  0.00003358  0.00001987  -0.00001951  1
  Mn  Mn0  1  0.12500000  0.62500000  0.62500000  1
  Mn  Mn1  1  0.62500000  0.62500000  0.12500000  1
  Mn  Mn2  1  0.62500000  0.62500000  0.62500000  1
  Mn  Mn3  1  0.62500000  0.12500000  0.62500000  1
  S  S0  1  0.40641352  0.86453157  0.86452675  1
  S  S1  1  0.86453123  0.86452641  0.40641492  1
  S  S2  1  0.86453043  0.86452519  0.86452594  1
  S  S3  1  0.84358648  0.38546843  0.38547325  1
  S  S4  1  0.38546432  0.84359019  0.38547377  1
  S  S5  1  0.38546877  0.38547359  0.84358508  1
  S  S6  1  0.86453568  0.40640981  0.86452623  1
  S  S7  1  0.38546957  0.38547481  0.38547406  1
loop_
_geom_bond_atom_site_label_1
_geom_bond_atom_site_label_2
_geom_bond_distance
_geom_bond_site_symmetry_2
Li0 S3 2.350183 1_455
Li0 S4 2.350272 1_545
Li0 S5 2.350555 1_554
Li0 S7 2.350646 1_555
Li1 S0 2.350183 1_544
Li1 S6 2.350272 1_454
Li1 S1 2.350555 1_445
Li1 S2 2.350646 1_444
Mn0 S6 2.403896 1_455
Mn0 S4 2.403896 1_555
Mn0 S7 2.403910 1_555
Mn0 S2 2.403910 1_455
Mn0 S5 2.403914 1_555
Mn0 S1 2.403914 1_455
Mn1 S7 2.403908 1_555
Mn1 S2 2.403908 1_554
Mn1 S0 2.403951 1_554
Mn1 S3 2.403951 1_555
Mn1 S4 2.403978 1_555
Mn1 S6 2.403978 1_554
Mn2 S1 2.403916 1_555
Mn2 S5 2.403916 1_555
Mn2 S0 2.403951 1_555
Mn2 S3 2.403951 1_555
Mn2 S6 2.403958 1_555
Mn2 S4 2.403958 1_555
Mn3 S0 2.403903 1_545
Mn3 S3 2.403903 1_555
Mn3 S7 2.403931 1_555
Mn3 S2 2.403931 1_545
Mn3 S5 2.403949 1_555
Mn3 S1 2.403949 1_545
