# generated using pymatgen
data_Y2Sc2TiCo10
_symmetry_space_group_name_H-M   'P 1'
_cell_length_a   20.50961827
_cell_length_b   20.50961827
_cell_length_c   20.50961846
_cell_angle_alpha   13.83113156
_cell_angle_beta   13.83113156
_cell_angle_gamma   13.83113049
_symmetry_Int_Tables_number   1
_chemical_formula_structural   Y2Sc2TiCo10
_chemical_formula_sum   'Y4 Sc4 Ti2 Co20'
_cell_volume   429.06676104
_cell_formula_units_Z   2
loop_
 _symmetry_equiv_pos_site_id
 _symmetry_equiv_pos_as_xyz
  1  'x, y, z'
loop_
 _atom_site_type_symbol
 _atom_site_label
 _atom_site_symmetry_multiplicity
 _atom_site_fract_x
 _atom_site_fract_y
 _atom_site_fract_z
 _atom_site_occupancy
  Y  Y0  1  0.39981600  0.39981600  0.39981600  1
  Y  Y1  1  0.79951300  0.79951300  0.79951300  1
  Y  Y2  1  0.20003200  0.20003200  0.20003200  1
  Y  Y3  1  0.60054000  0.60054000  0.60054000  1
  Sc  Sc0  1  0.84989200  0.84989200  0.84989200  1
  Sc  Sc1  1  0.25032500  0.25032500  0.25032500  1
  Sc  Sc2  1  0.65103300  0.65103300  0.65103300  1
  Sc  Sc3  1  0.00024700  0.00024700  0.00024700  1
  Ti  Ti0  1  0.04883300  0.04883300  0.04883300  1
  Ti  Ti1  1  0.44967100  0.44967100  0.44967100  1
  Co  Co0  1  0.12520200  0.62757400  0.12520200  1
  Co  Co1  1  0.32607100  0.82079600  0.32607100  1
  Co  Co2  1  0.72591100  0.22352700  0.72591100  1
  Co  Co3  1  0.52475000  0.02561900  0.52475000  1
  Co  Co4  1  0.92561800  0.42329400  0.92561800  1
  Co  Co5  1  0.62757400  0.12520200  0.12520200  1
  Co  Co6  1  0.82079600  0.32607100  0.32607100  1
  Co  Co7  1  0.22352700  0.72591100  0.72591100  1
  Co  Co8  1  0.02561900  0.52475000  0.52475000  1
  Co  Co9  1  0.42329400  0.92561800  0.92561800  1
  Co  Co10  1  0.32522200  0.32522200  0.32522200  1
  Co  Co11  1  0.52462400  0.52462400  0.52462400  1
  Co  Co12  1  0.92518800  0.92518800  0.92518800  1
  Co  Co13  1  0.72465100  0.72465100  0.72465100  1
  Co  Co14  1  0.12449800  0.12449800  0.12449800  1
  Co  Co15  1  0.12520200  0.12520200  0.62757400  1
  Co  Co16  1  0.32607100  0.32607100  0.82079600  1
  Co  Co17  1  0.72591100  0.72591100  0.22352700  1
  Co  Co18  1  0.52475000  0.52475000  0.02561900  1
  Co  Co19  1  0.92561800  0.92561800  0.42329400  1
loop_
_geom_bond_atom_site_label_1
_geom_bond_atom_site_label_2
_geom_bond_distance
_geom_bond_site_symmetry_2
Sc0 Y2 3.029830 1_656
Sc0 Y2 3.029830 1_566
Sc0 Y2 3.029830 1_665
Sc0 Y1 3.069656 1_555
Sc1 Y3 3.031378 1_455
Sc1 Y3 3.031378 1_545
Sc1 Y3 3.031378 1_554
Sc1 Y2 3.064416 1_555
Sc2 Sc3 3.011228 1_566
Sc2 Sc3 3.011228 1_656
Sc2 Sc3 3.011228 1_665
Sc2 Y3 3.076602 1_555
Sc3 Ti0 2.960407 1_555
Ti0 Y0 3.047574 1_545
Ti0 Y0 3.047574 1_455
Ti0 Y0 3.047574 1_554
Ti1 Y1 3.023741 1_455
Ti1 Y1 3.023741 1_545
Ti1 Y1 3.023741 1_554
Ti1 Y0 3.037728 1_555
Co0 Co10 2.447186 1_555
Co0 Co5 2.457777 1_465
Co0 Co15 2.457777 1_564
Co0 Co5 2.481207 1_555
Co0 Co15 2.481207 1_555
Co0 Co12 2.517986 1_454
Co0 Sc3 2.868875 1_565
Co0 Sc2 2.902812 1_554
Co0 Sc2 2.902812 1_455
Co0 Y3 2.916096 1_455
Co0 Y3 2.916096 1_554
Co0 Sc1 2.950571 1_555
Co1 Co6 2.443439 1_555
Co1 Co16 2.443439 1_555
Co1 Co14 2.480989 1_565
Co1 Co11 2.488510 1_555
Co1 Co6 2.495545 1_465
Co1 Co16 2.495545 1_564
Co1 Ti1 2.885353 1_555
Co1 Y1 2.895162 1_455
Co1 Y1 2.895163 1_554
Co1 Sc0 2.920239 1_554
Co1 Sc0 2.920239 1_455
Co1 Y2 2.957348 1_565
Co2 Co7 2.457717 1_645
Co2 Co7 2.481267 1_555
Co2 Y2 2.904222 1_556
Co2 Y2 2.904222 1_655
Co2 Sc1 2.908216 1_655
Co2 Sc1 2.908216 1_556
Co2 Sc0 2.920372 1_545
Co2 Y3 2.937599 1_555
Co3 Co8 2.465200 1_555
Co3 Co8 2.473784 1_645
Co3 Sc2 2.860372 1_545
Co3 Ti0 2.863598 1_655
Co3 Ti0 2.863598 1_556
Co3 Sc3 2.894902 1_556
Co3 Sc3 2.894902 1_655
Co3 Y0 2.898662 1_555
Co4 Co9 2.458014 1_645
Co4 Co9 2.480970 1_555
Co4 Ti1 2.896022 1_655
Co4 Ti1 2.896022 1_556
Co4 Y1 2.897492 1_555
Co4 Y0 2.902395 1_556
Co4 Y0 2.902396 1_655
Co4 Ti0 2.962404 1_656
Co5 Sc3 2.868875 1_655
Co5 Sc2 2.902812 1_554
Co5 Sc2 2.902812 1_545
Co5 Y3 2.916096 1_545
Co5 Y3 2.916096 1_554
Co5 Sc1 2.950571 1_555
Co6 Ti1 2.885353 1_555
Co6 Y1 2.895162 1_545
Co6 Y1 2.895163 1_554
Co6 Sc0 2.920239 1_554
Co6 Sc0 2.920239 1_545
Co6 Y2 2.957348 1_655
Co7 Y2 2.904222 1_556
Co7 Y2 2.904222 1_565
Co7 Sc1 2.908216 1_565
Co7 Sc1 2.908216 1_556
Co7 Sc0 2.920372 1_455
Co7 Y3 2.937599 1_555
Co8 Sc2 2.860372 1_455
Co8 Ti0 2.863598 1_565
Co8 Ti0 2.863598 1_556
Co8 Sc3 2.894902 1_556
Co8 Sc3 2.894902 1_565
Co8 Y0 2.898662 1_555
Co9 Ti1 2.896022 1_565
Co9 Ti1 2.896022 1_556
Co9 Y1 2.897492 1_555
Co9 Y0 2.902395 1_556
Co9 Y0 2.902396 1_565
Co9 Ti0 2.962404 1_566
Co10 Co5 2.447186 1_555
Co10 Co15 2.447186 1_555
Co10 Co8 2.471005 1_555
Co10 Co3 2.471005 1_555
Co10 Co18 2.471005 1_555
Co10 Sc2 2.888125 1_455
Co10 Sc2 2.888125 1_545
Co10 Sc2 2.888126 1_554
Co10 Sc3 2.896646 1_565
Co10 Sc3 2.896646 1_655
Co10 Sc3 2.896646 1_556
Co11 Co6 2.488510 1_555
Co11 Co16 2.488510 1_555
Co11 Co7 2.510003 1_555
Co11 Co2 2.510003 1_555
Co11 Co17 2.510003 1_555
Co11 Sc0 2.893561 1_545
Co11 Sc0 2.893561 1_455
Co11 Sc0 2.893561 1_554
Co11 Y2 2.900840 1_565
Co11 Y2 2.900840 1_655
Co11 Y2 2.900840 1_556
Co12 Co7 2.481199 1_655
Co12 Co2 2.481199 1_565
Co12 Co17 2.481199 1_556
Co12 Co5 2.517986 1_566
Co12 Co15 2.517986 1_665
Co12 Sc1 2.894927 1_656
Co12 Sc1 2.894927 1_566
Co12 Sc1 2.894927 1_665
Co12 Y3 2.900215 1_565
Co12 Y3 2.900215 1_655
Co12 Y3 2.900216 1_556
Co13 Co8 2.463608 1_655
Co13 Co3 2.463608 1_565
Co13 Co18 2.463608 1_556
Co13 Co9 2.494917 1_555
Co13 Co4 2.494917 1_555
Co13 Co19 2.494917 1_555
Co13 Y0 2.898158 1_565
Co13 Y0 2.898158 1_655
Co13 Y0 2.898158 1_556
Co13 Ti0 2.905531 1_656
Co13 Ti0 2.905531 1_566
Co13 Ti0 2.905531 1_665
Co14 Co9 2.460497 1_544
Co14 Co4 2.460497 1_454
Co14 Co19 2.460497 1_445
Co14 Co6 2.480989 1_455
Co14 Co16 2.480989 1_554
Co14 Ti1 2.894549 1_545
Co14 Ti1 2.894549 1_455
Co14 Ti1 2.894549 1_554
Co14 Y1 2.896539 1_544
Co14 Y1 2.896539 1_454
Co14 Y1 2.896539 1_445
Co15 Co5 2.457777 1_456
Co15 Co5 2.481207 1_555
Co15 Sc3 2.868875 1_556
Co15 Sc2 2.902812 1_545
Co15 Sc2 2.902812 1_455
Co15 Y3 2.916096 1_455
Co15 Y3 2.916096 1_545
Co15 Sc1 2.950571 1_555
Co16 Co6 2.443439 1_555
Co16 Co6 2.495545 1_456
Co16 Ti1 2.885354 1_555
Co16 Y1 2.895162 1_455
Co16 Y1 2.895162 1_545
Co16 Sc0 2.920238 1_455
Co16 Sc0 2.920238 1_545
Co16 Y2 2.957348 1_556
Co17 Co7 2.457718 1_654
Co17 Co2 2.457718 1_564
Co17 Co7 2.481267 1_555
Co17 Co2 2.481267 1_555
Co17 Y2 2.904222 1_565
Co17 Y2 2.904222 1_655
Co17 Sc1 2.908216 1_565
Co17 Sc1 2.908216 1_655
Co17 Sc0 2.920372 1_554
Co17 Y3 2.937599 1_555
Co18 Co3 2.465200 1_555
Co18 Co8 2.465200 1_555
Co18 Co8 2.473784 1_654
Co18 Co3 2.473784 1_564
Co18 Sc2 2.860372 1_554
Co18 Ti0 2.863598 1_655
Co18 Ti0 2.863598 1_565
Co18 Sc3 2.894902 1_655
Co18 Sc3 2.894902 1_565
Co18 Y0 2.898662 1_555
Co19 Co9 2.458014 1_654
Co19 Co4 2.458014 1_564
Co19 Co4 2.480970 1_555
Co19 Co9 2.480970 1_555
Co19 Ti1 2.896022 1_565
Co19 Ti1 2.896022 1_655
Co19 Y1 2.897493 1_555
Co19 Y0 2.902395 1_655
Co19 Y0 2.902395 1_565
Co19 Ti0 2.962404 1_665
