# generated using pymatgen
data_TaZn2FeO6
_symmetry_space_group_name_H-M   'P 1'
_cell_length_a   7.71650900
_cell_length_b   5.26218900
_cell_length_c   5.34078928
_cell_angle_alpha   89.17900396
_cell_angle_beta   90.00000000
_cell_angle_gamma   90.00000000
_symmetry_Int_Tables_number   1
_chemical_formula_structural   TaZn2FeO6
_chemical_formula_sum   'Ta2 Zn4 Fe2 O12'
_cell_volume   216.84437766
_cell_formula_units_Z   2
loop_
 _symmetry_equiv_pos_site_id
 _symmetry_equiv_pos_as_xyz
  1  'x, y, z'
loop_
 _atom_site_type_symbol
 _atom_site_label
 _atom_site_symmetry_multiplicity
 _atom_site_fract_x
 _atom_site_fract_y
 _atom_site_fract_z
 _atom_site_occupancy
  Ta  Ta0  1  0.00000000  0.00000000  0.50000000  1
  Ta  Ta1  1  0.50000000  0.00000000  0.50000000  1
  Zn  Zn0  1  0.75000000  0.01589400  0.01747400  1
  Zn  Zn1  1  0.75000000  0.50337600  0.54630100  1
  Zn  Zn2  1  0.25000000  0.49662400  0.45369900  1
  Zn  Zn3  1  0.25000000  0.98410600  0.98252600  1
  Fe  Fe0  1  0.00000000  0.50000000  0.00000000  1
  Fe  Fe1  1  0.50000000  0.50000000  0.00000000  1
  O  O0  1  0.43631200  0.16709200  0.17948400  1
  O  O1  1  0.56482500  0.68015400  0.32745400  1
  O  O2  1  0.56368800  0.83290800  0.82051600  1
  O  O3  1  0.06482500  0.31984600  0.67254600  1
  O  O4  1  0.25000000  0.87924800  0.56519000  1
  O  O5  1  0.43517500  0.31984600  0.67254600  1
  O  O6  1  0.93517500  0.68015400  0.32745400  1
  O  O7  1  0.06368800  0.16709200  0.17948400  1
  O  O8  1  0.75000000  0.38519900  0.92022500  1
  O  O9  1  0.93631200  0.83290800  0.82051600  1
  O  O10  1  0.25000000  0.61480100  0.07977500  1
  O  O11  1  0.75000000  0.12075200  0.43481000  1
loop_
_geom_bond_atom_site_label_1
_geom_bond_atom_site_label_2
_geom_bond_distance
_geom_bond_site_symmetry_2
Fe0 O9 2.044793 1_454
Fe0 O7 2.044793 1_555
Fe0 O6 2.062757 1_455
Fe0 O3 2.062757 1_554
Fe0 O8 2.067699 1_454
Fe0 O10 2.067699 1_555
Fe1 O0 2.044793 1_555
Fe1 O2 2.044793 1_554
Fe1 O5 2.062757 1_554
Fe1 O1 2.062757 1_555
Fe1 O8 2.067699 1_554
Fe1 O10 2.067699 1_555
O0 Ta1 1.975295 1_555
O0 Zn3 2.032155 1_544
O1 Ta1 1.994162 1_565
O1 Zn1 2.059632 1_555
O2 Ta1 1.975295 1_565
O2 Zn0 2.032155 1_566
O3 Ta0 1.994162 1_555
O3 Zn2 2.059632 1_555
O4 Ta0 2.059167 1_565
O4 Ta1 2.059167 1_565
O4 Zn2 2.107809 1_555
O4 Zn3 2.303849 1_555
O5 Ta1 1.994162 1_555
O5 Zn2 2.059632 1_555
O6 Ta0 1.994162 1_665
O6 Zn1 2.059632 1_555
O7 Ta0 1.975295 1_555
O7 Zn3 2.032155 1_544
O8 Zn0 2.004359 1_556
O8 Zn1 2.083108 1_555
O9 Ta0 1.975295 1_665
O9 Zn0 2.032155 1_566
O10 Zn3 2.004359 1_554
O10 Zn2 2.083108 1_555
O11 Ta1 2.059167 1_555
O11 Ta0 2.059167 1_655
O11 Zn1 2.107809 1_555
O11 Zn0 2.303849 1_555
