# generated using pymatgen
data_Ca3Ti2(SiO4)3
_symmetry_space_group_name_H-M   'P 1'
_cell_length_a   10.62958888
_cell_length_b   10.62958888
_cell_length_c   10.62958888
_cell_angle_alpha   109.47122063
_cell_angle_beta   109.47122063
_cell_angle_gamma   109.47122063
_symmetry_Int_Tables_number   1
_chemical_formula_structural   Ca3Ti2(SiO4)3
_chemical_formula_sum   'Ca12 Ti8 Si12 O48'
_cell_volume   924.54384560
_cell_formula_units_Z   4
loop_
 _symmetry_equiv_pos_site_id
 _symmetry_equiv_pos_as_xyz
  1  'x, y, z'
loop_
 _atom_site_type_symbol
 _atom_site_label
 _atom_site_symmetry_multiplicity
 _atom_site_fract_x
 _atom_site_fract_y
 _atom_site_fract_z
 _atom_site_occupancy
  Ca  Ca0  1  0.75000000  0.12500000  0.37500000  1
  Ca  Ca1  1  0.25000000  0.37500000  0.12500000  1
  Ca  Ca2  1  0.12500000  0.25000000  0.37500000  1
  Ca  Ca3  1  0.37500000  0.75000000  0.12500000  1
  Ca  Ca4  1  0.75000000  0.62500000  0.87500000  1
  Ca  Ca5  1  0.12500000  0.37500000  0.75000000  1
  Ca  Ca6  1  0.62500000  0.87500000  0.75000000  1
  Ca  Ca7  1  0.25000000  0.87500000  0.62500000  1
  Ca  Ca8  1  0.87500000  0.62500000  0.25000000  1
  Ca  Ca9  1  0.62500000  0.25000000  0.87500000  1
  Ca  Ca10  1  0.87500000  0.75000000  0.62500000  1
  Ca  Ca11  1  0.37500000  0.12500000  0.25000000  1
  Ti  Ti0  1  0.00000000  0.00000000  0.00000000  1
  Ti  Ti1  1  0.50000000  0.00000000  0.00000000  1
  Ti  Ti2  1  0.00000000  0.50000000  0.00000000  1
  Ti  Ti3  1  0.50000000  0.50000000  0.00000000  1
  Ti  Ti4  1  0.00000000  0.50000000  0.50000000  1
  Ti  Ti5  1  0.50000000  0.00000000  0.50000000  1
  Ti  Ti6  1  0.50000000  0.50000000  0.50000000  1
  Ti  Ti7  1  0.00000000  0.00000000  0.50000000  1
  Si  Si0  1  0.12500000  0.87500000  0.25000000  1
  Si  Si1  1  0.87500000  0.12500000  0.75000000  1
  Si  Si2  1  0.25000000  0.62500000  0.37500000  1
  Si  Si3  1  0.37500000  0.25000000  0.62500000  1
  Si  Si4  1  0.75000000  0.87500000  0.12500000  1
  Si  Si5  1  0.12500000  0.75000000  0.87500000  1
  Si  Si6  1  0.37500000  0.62500000  0.75000000  1
  Si  Si7  1  0.62500000  0.75000000  0.37500000  1
  Si  Si8  1  0.87500000  0.25000000  0.12500000  1
  Si  Si9  1  0.25000000  0.12500000  0.87500000  1
  Si  Si10  1  0.75000000  0.37500000  0.62500000  1
  Si  Si11  1  0.62500000  0.37500000  0.25000000  1
  O  O0  1  0.49208400  0.38377600  0.29582700  1
  O  O1  1  0.30374300  0.89169200  0.00791600  1
  O  O2  1  0.60830800  0.91205100  0.11622400  1
  O  O3  1  0.58794900  0.19625700  0.20417300  1
  O  O4  1  0.11622400  0.00791600  0.20417300  1
  O  O5  1  0.19625700  0.20417300  0.58794900  1
  O  O6  1  0.19625700  0.49208400  0.60830800  1
  O  O7  1  0.20417300  0.58794900  0.19625700  1
  O  O8  1  0.38377600  0.58794900  0.89169200  1
  O  O9  1  0.91205100  0.29582700  0.30374300  1
  O  O10  1  0.29582700  0.30374300  0.91205100  1
  O  O11  1  0.20417300  0.11622400  0.00791600  1
  O  O12  1  0.49208400  0.60830800  0.19625700  1
  O  O13  1  0.89169200  0.38377600  0.58794900  1
  O  O14  1  0.00791600  0.20417300  0.11622400  1
  O  O15  1  0.60830800  0.19625700  0.49208400  1
  O  O16  1  0.58794900  0.89169200  0.38377600  1
  O  O17  1  0.00791600  0.30374300  0.89169200  1
  O  O18  1  0.91205100  0.11622400  0.60830800  1
  O  O19  1  0.61622400  0.41205100  0.10830800  1
  O  O20  1  0.11622400  0.60830800  0.91205100  1
  O  O21  1  0.29582700  0.49208400  0.38377600  1
  O  O22  1  0.89169200  0.00791600  0.30374300  1
  O  O23  1  0.30374300  0.91205100  0.29582700  1
  O  O24  1  0.50791600  0.61622400  0.70417300  1
  O  O25  1  0.69625700  0.10830800  0.99208400  1
  O  O26  1  0.39169200  0.08794900  0.88377600  1
  O  O27  1  0.41205100  0.80374300  0.79582700  1
  O  O28  1  0.88377600  0.99208400  0.79582700  1
  O  O29  1  0.80374300  0.79582700  0.41205100  1
  O  O30  1  0.80374300  0.50791600  0.39169200  1
  O  O31  1  0.79582700  0.41205100  0.80374300  1
  O  O32  1  0.69625700  0.08794900  0.70417300  1
  O  O33  1  0.10830800  0.99208400  0.69625700  1
  O  O34  1  0.70417300  0.50791600  0.61622400  1
  O  O35  1  0.61622400  0.70417300  0.50791600  1
  O  O36  1  0.88377600  0.39169200  0.08794900  1
  O  O37  1  0.08794900  0.88377600  0.39169200  1
  O  O38  1  0.99208400  0.69625700  0.10830800  1
  O  O39  1  0.41205100  0.10830800  0.61622400  1
  O  O40  1  0.39169200  0.80374300  0.50791600  1
  O  O41  1  0.99208400  0.79582700  0.88377600  1
  O  O42  1  0.10830800  0.61622400  0.41205100  1
  O  O43  1  0.50791600  0.39169200  0.80374300  1
  O  O44  1  0.79582700  0.88377600  0.99208400  1
  O  O45  1  0.70417300  0.69625700  0.08794900  1
  O  O46  1  0.08794900  0.70417300  0.69625700  1
  O  O47  1  0.38377600  0.29582700  0.49208400  1
loop_
_geom_bond_atom_site_label_1
_geom_bond_atom_site_label_2
_geom_bond_distance
_geom_bond_site_symmetry_2
Ca0 O2 2.402657 1_545
Ca0 O13 2.402657 1_555
Ca0 O22 2.402657 1_555
Ca0 O15 2.402657 1_555
Ca0 O16 2.557252 1_545
Ca0 O18 2.557252 1_555
Ca0 O3 2.557252 1_555
Ca0 O9 2.557252 1_555
Ca1 O11 2.402657 1_555
Ca1 O7 2.402657 1_555
Ca1 O21 2.402657 1_555
Ca1 O10 2.402657 1_554
Ca1 O17 2.557252 1_554
Ca1 O14 2.557252 1_555
Ca1 O0 2.557252 1_555
Ca1 O12 2.557252 1_555
Ca2 O14 2.402657 1_555
Ca2 O47 2.402657 1_555
Ca2 O5 2.402657 1_555
Ca2 O9 2.402657 1_455
Ca2 O6 2.557252 1_555
Ca2 O4 2.557252 1_555
Ca2 O22 2.557252 1_455
Ca2 O21 2.557252 1_555
Ca3 O16 2.402657 1_555
Ca3 O20 2.402657 1_554
Ca3 O12 2.402657 1_555
Ca3 O1 2.402657 1_555
Ca3 O8 2.557252 1_554
Ca3 O2 2.557252 1_555
Ca3 O23 2.557252 1_555
Ca3 O7 2.557252 1_555
Ca4 O31 2.402657 1_555
Ca4 O45 2.402657 1_556
Ca4 O44 2.402657 1_555
Ca4 O34 2.402657 1_555
Ca4 O24 2.557252 1_555
Ca4 O41 2.557252 1_555
Ca4 O43 2.557252 1_555
Ca4 O38 2.557252 1_556
Ca5 O18 2.402657 1_455
Ca5 O17 2.402657 1_555
Ca5 O8 2.402657 1_555
Ca5 O6 2.402657 1_555
Ca5 O5 2.557252 1_555
Ca5 O20 2.557252 1_555
Ca5 O10 2.557252 1_555
Ca5 O13 2.557252 1_455
Ca6 O27 2.402657 1_555
Ca6 O32 2.402657 1_565
Ca6 O24 2.402657 1_555
Ca6 O28 2.402657 1_555
Ca6 O35 2.557252 1_555
Ca6 O44 2.557252 1_555
Ca6 O40 2.557252 1_555
Ca6 O25 2.557252 1_565
Ca7 O33 2.402657 1_555
Ca7 O40 2.402657 1_555
Ca7 O42 2.402657 1_555
Ca7 O26 2.402657 1_565
Ca7 O27 2.557252 1_555
Ca7 O39 2.557252 1_565
Ca7 O46 2.557252 1_555
Ca7 O37 2.557252 1_555
Ca8 O38 2.402657 1_555
Ca8 O30 2.402657 1_555
Ca8 O19 2.402657 1_555
Ca8 O37 2.402657 1_655
Ca8 O45 2.557252 1_555
Ca8 O29 2.557252 1_555
Ca8 O36 2.557252 1_555
Ca8 O42 2.557252 1_655
Ca9 O43 2.402657 1_555
Ca9 O25 2.402657 1_555
Ca9 O39 2.402657 1_555
Ca9 O36 2.402657 1_556
Ca9 O26 2.557252 1_555
Ca9 O32 2.557252 1_555
Ca9 O31 2.557252 1_555
Ca9 O19 2.557252 1_556
Ca10 O29 2.402657 1_555
Ca10 O41 2.402657 1_555
Ca10 O35 2.402657 1_555
Ca10 O46 2.402657 1_655
Ca10 O30 2.557252 1_555
Ca10 O34 2.557252 1_555
Ca10 O28 2.557252 1_555
Ca10 O33 2.557252 1_655
Ca11 O0 2.402657 1_555
Ca11 O4 2.402657 1_555
Ca11 O3 2.402657 1_555
Ca11 O23 2.402657 1_545
Ca11 O11 2.557252 1_555
Ca11 O1 2.557252 1_545
Ca11 O47 2.557252 1_555
Ca11 O15 2.557252 1_555
O0 Si11 1.660874 1_555
O0 Ti6 2.065168 1_555
O1 Si5 1.660874 1_554
O1 Ti1 2.065168 1_565
O2 Si4 1.660874 1_555
O2 Ti1 2.065168 1_565
O3 Si11 1.660874 1_555
O3 Ti1 2.065168 1_555
O4 Si0 1.660874 1_545
O4 Ti0 2.065168 1_555
O5 Si3 1.660874 1_555
O5 Ti7 2.065168 1_555
O6 Si6 1.660874 1_555
O6 Ti4 2.065168 1_555
O7 Si2 1.660874 1_555
O7 Ti2 2.065168 1_555
O8 Si6 1.660874 1_555
O8 Ti3 2.065168 1_556
O9 Si8 1.660874 1_555
O9 Ti4 2.065168 1_655
O10 Si9 1.660874 1_555
O10 Ti3 2.065168 1_556
O11 Si9 1.660874 1_554
O11 Ti0 2.065168 1_555
O12 Si7 1.660874 1_555
O12 Ti3 2.065168 1_555
O13 Si10 1.660874 1_555
O13 Ti4 2.065168 1_655
O14 Si8 1.660874 1_455
O14 Ti0 2.065168 1_555
O15 Si10 1.660874 1_555
O15 Ti5 2.065168 1_555
O16 Si7 1.660874 1_555
O16 Ti5 2.065168 1_565
O17 Si1 1.660874 1_455
O17 Ti2 2.065168 1_556
O18 Si1 1.660874 1_555
O18 Ti7 2.065168 1_655
O19 Si11 1.660874 1_555
O19 Ti3 2.065168 1_555
O20 Si5 1.660874 1_555
O20 Ti2 2.065168 1_556
O21 Si2 1.660874 1_555
O21 Ti6 2.065168 1_555
O22 Si4 1.660874 1_545
O22 Ti7 2.065168 1_655
O23 Si0 1.660874 1_555
O23 Ti5 2.065168 1_565
O24 Si6 1.660874 1_555
O24 Ti6 2.065168 1_555
O25 Si8 1.660874 1_556
O25 Ti1 2.065168 1_556
O26 Si9 1.660874 1_555
O26 Ti1 2.065168 1_556
O27 Si6 1.660874 1_555
O27 Ti1 2.065168 1_566
O28 Si1 1.660874 1_565
O28 Ti0 2.065168 1_666
O29 Si7 1.660874 1_555
O29 Ti7 2.065168 1_665
O30 Si11 1.660874 1_555
O30 Ti4 2.065168 1_655
O31 Si10 1.660874 1_555
O31 Ti2 2.065168 1_656
O32 Si1 1.660874 1_555
O32 Ti5 2.065168 1_555
O33 Si9 1.660874 1_565
O33 Ti7 2.065168 1_565
O34 Si10 1.660874 1_555
O34 Ti6 2.065168 1_555
O35 Si7 1.660874 1_555
O35 Ti6 2.065168 1_555
O36 Si8 1.660874 1_555
O36 Ti2 2.065168 1_655
O37 Si0 1.660874 1_555
O37 Ti7 2.065168 1_565
O38 Si0 1.660874 1_655
O38 Ti2 2.065168 1_655
O39 Si3 1.660874 1_555
O39 Ti5 2.065168 1_555
O40 Si2 1.660874 1_555
O40 Ti5 2.065168 1_565
O41 Si5 1.660874 1_655
O41 Ti0 2.065168 1_666
O42 Si2 1.660874 1_555
O42 Ti4 2.065168 1_555
O43 Si3 1.660874 1_555
O43 Ti3 2.065168 1_556
O44 Si4 1.660874 1_556
O44 Ti0 2.065168 1_666
O45 Si4 1.660874 1_555
O45 Ti3 2.065168 1_555
O46 Si5 1.660874 1_555
O46 Ti4 2.065168 1_555
O47 Si3 1.660874 1_555
O47 Ti6 2.065168 1_555
