# generated using pymatgen
data_VO2
_symmetry_space_group_name_H-M   'P 1'
_cell_length_a   2.84559348
_cell_length_b   7.24028145
_cell_length_c   7.24456825
_cell_angle_alpha   87.69719675
_cell_angle_beta   78.67570450
_cell_angle_gamma   78.67205910
_symmetry_Int_Tables_number   1
_chemical_formula_structural   VO2
_chemical_formula_sum   'V4 O8'
_cell_volume   143.50193441
_cell_formula_units_Z   4
loop_
 _symmetry_equiv_pos_site_id
 _symmetry_equiv_pos_as_xyz
  1  'x, y, z'
loop_
 _atom_site_type_symbol
 _atom_site_label
 _atom_site_symmetry_multiplicity
 _atom_site_fract_x
 _atom_site_fract_y
 _atom_site_fract_z
 _atom_site_occupancy
  V  V0  1  0.63762911  0.18431579  0.54010185  1
  V  V1  1  0.17766758  0.46045879  0.18442851  1
  V  V2  1  0.82233613  0.53953121  0.81557208  1
  V  V3  1  0.36237956  0.81567714  0.45989636  1
  O  O0  1  0.83863590  0.70541744  0.61685107  1
  O  O1  1  0.45556206  0.38235329  0.70612896  1
  O  O2  1  0.54443966  0.61764568  0.29387380  1
  O  O3  1  0.16136253  0.29458463  0.38314690  1
  O  O4  1  0.15688579  0.04538845  0.64083132  1
  O  O5  1  0.79733545  0.35922636  0.04617785  1
  O  O6  1  0.84309774  0.95464524  0.35917861  1
  O  O7  1  0.20267150  0.64075798  0.95381870  1
loop_
_geom_bond_atom_site_label_1
_geom_bond_atom_site_label_2
_geom_bond_distance
_geom_bond_site_symmetry_2
O0 V2 1.836844 1_555
O0 V3 1.968272 1_555
O0 V3 1.969856 1_655
O1 V0 1.836595 1_555
O1 V2 1.968866 1_455
O1 V2 1.969033 1_555
O2 V3 1.836542 1_555
O2 V1 1.968901 1_655
O2 V1 1.969083 1_555
O3 V1 1.836775 1_555
O3 V0 1.968311 1_555
O3 V0 1.969870 1_455
O4 V0 1.872235 1_555
O4 V0 1.873013 1_455
O4 V3 2.078072 1_545
O5 V1 1.872789 1_555
O5 V1 1.872961 1_655
O5 V2 2.077224 1_554
O6 V3 1.872357 1_555
O6 V3 1.873131 1_655
O6 V0 2.077793 1_565
O7 V2 1.872762 1_555
O7 V2 1.872927 1_455
O7 V1 2.077222 1_556
