# generated using pymatgen
data_Li3Co2O5
_symmetry_space_group_name_H-M   'P 1'
_cell_length_a   6.45825564
_cell_length_b   6.45825564
_cell_length_c   9.75767552
_cell_angle_alpha   80.07378909
_cell_angle_beta   80.07378909
_cell_angle_gamma   26.12911920
_symmetry_Int_Tables_number   1
_chemical_formula_structural   Li3Co2O5
_chemical_formula_sum   'Li6 Co4 O10'
_cell_volume   176.40505702
_cell_formula_units_Z   2
loop_
 _symmetry_equiv_pos_site_id
 _symmetry_equiv_pos_as_xyz
  1  'x, y, z'
loop_
 _atom_site_type_symbol
 _atom_site_label
 _atom_site_symmetry_multiplicity
 _atom_site_fract_x
 _atom_site_fract_y
 _atom_site_fract_z
 _atom_site_occupancy
  Li  Li0  1  0.90371900  0.90371900  0.29985300  1
  Li  Li1  1  0.09628100  0.09628100  0.70014700  1
  Li  Li2  1  0.30174100  0.30174100  0.09634600  1
  Li  Li3  1  0.50000000  0.50000000  0.50000000  1
  Li  Li4  1  0.69825900  0.69825900  0.90365400  1
  Li  Li5  1  0.00000000  0.00000000  0.00000000  1
  Co  Co0  1  0.40595200  0.40595200  0.80744300  1
  Co  Co1  1  0.59404800  0.59404800  0.19255700  1
  Co  Co2  1  0.80117700  0.80117700  0.60010400  1
  Co  Co3  1  0.19882300  0.19882300  0.39989600  1
  O  O0  1  0.65566900  0.65566900  0.54265000  1
  O  O1  1  0.85378100  0.85378100  0.93652000  1
  O  O2  1  0.05709900  0.05709900  0.33942900  1
  O  O3  1  0.26272700  0.26272700  0.74613000  1
  O  O4  1  0.46326200  0.46326200  0.15617800  1
  O  O5  1  0.14621900  0.14621900  0.06348000  1
  O  O6  1  0.34433100  0.34433100  0.45735000  1
  O  O7  1  0.53673800  0.53673800  0.84382200  1
  O  O8  1  0.73727300  0.73727300  0.25387000  1
  O  O9  1  0.94290100  0.94290100  0.66057100  1
loop_
_geom_bond_atom_site_label_1
_geom_bond_atom_site_label_2
_geom_bond_distance
_geom_bond_site_symmetry_2
Li0 O2 2.034017 1_665
Li0 O4 2.070319 1_565
Li0 O4 2.070319 1_655
Li0 O6 2.155215 1_565
Li0 O6 2.155215 1_655
Li0 O8 2.218059 1_555
Li1 O9 2.034017 1_445
Li1 O7 2.070319 1_455
Li1 O7 2.070319 1_545
Li1 O0 2.155215 1_455
Li1 O0 2.155215 1_545
Li1 O3 2.218059 1_555
Li2 O5 2.038145 1_555
Li2 O1 2.151910 1_454
Li2 O1 2.151910 1_544
Li2 O8 2.170375 1_455
Li2 O8 2.170375 1_545
Li2 O4 2.211551 1_555
Li3 O0 2.073165 1_555
Li3 O6 2.073165 1_555
Li3 O2 2.168841 1_655
Li3 O9 2.168841 1_455
Li3 O2 2.168841 1_565
Li3 O9 2.168841 1_545
Li4 O1 2.038145 1_555
Li4 O5 2.151910 1_566
Li4 O5 2.151910 1_656
Li4 O3 2.170375 1_565
Li4 O3 2.170375 1_655
Li4 O7 2.211551 1_555
Li5 O1 2.042472 1_444
Li5 O5 2.042472 1_555
Li5 O4 2.101901 1_545
Li5 O4 2.101901 1_455
Li5 O7 2.101901 1_454
Li5 O7 2.101901 1_544
Co0 O7 1.743747 1_555
Co0 O1 1.963634 1_545
Co0 O1 1.963634 1_455
Co0 O3 1.996749 1_555
Co0 O9 2.040941 1_545
Co0 O9 2.040941 1_455
Co1 O4 1.743747 1_555
Co1 O5 1.963634 1_655
Co1 O5 1.963634 1_565
Co1 O8 1.996749 1_555
Co1 O2 2.040941 1_655
Co1 O2 2.040941 1_565
Co2 O9 1.974912 1_555
Co2 O0 2.007338 1_555
Co2 O6 2.024523 1_655
Co2 O6 2.024523 1_565
Co2 O3 2.037547 1_655
Co2 O3 2.037547 1_565
Co3 O2 1.974912 1_555
Co3 O6 2.007338 1_555
Co3 O0 2.024523 1_455
Co3 O0 2.024523 1_545
Co3 O8 2.037547 1_545
Co3 O8 2.037547 1_455
