# generated using pymatgen
data_K2TaF7
_symmetry_space_group_name_H-M   'P 1'
_cell_length_a   5.72278604
_cell_length_b   9.60307287
_cell_length_c   11.50858272
_cell_angle_alpha   90.00000000
_cell_angle_beta   90.00000000
_cell_angle_gamma   90.00000000
_symmetry_Int_Tables_number   1
_chemical_formula_structural   K2TaF7
_chemical_formula_sum   'K8 Ta4 F28'
_cell_volume   632.46948546
_cell_formula_units_Z   4
loop_
 _symmetry_equiv_pos_site_id
 _symmetry_equiv_pos_as_xyz
  1  'x, y, z'
loop_
 _atom_site_type_symbol
 _atom_site_label
 _atom_site_symmetry_multiplicity
 _atom_site_fract_x
 _atom_site_fract_y
 _atom_site_fract_z
 _atom_site_occupancy
  K  K0  1  0.75000000  0.12982114  0.04596267  1
  K  K1  1  0.75000000  0.62982114  0.45403733  1
  K  K2  1  0.25000000  0.87017886  0.95403733  1
  K  K3  1  0.25000000  0.37017886  0.54596267  1
  K  K4  1  0.25000000  0.45134825  0.16468475  1
  K  K5  1  0.25000000  0.95134825  0.33531525  1
  K  K6  1  0.75000000  0.54865175  0.83531525  1
  K  K7  1  0.75000000  0.04865175  0.66468475  1
  Ta  Ta0  1  0.25000000  0.24235362  0.87017908  1
  Ta  Ta1  1  0.25000000  0.74235362  0.62982092  1
  Ta  Ta2  1  0.75000000  0.75764638  0.12982092  1
  Ta  Ta3  1  0.75000000  0.25764638  0.37017908  1
  F  F0  1  0.02671469  0.35958065  0.95503346  1
  F  F1  1  0.47328531  0.85958065  0.54496654  1
  F  F2  1  0.52671469  0.64041935  0.04496654  1
  F  F3  1  0.97328531  0.14041935  0.45503346  1
  F  F4  1  0.97328531  0.64041935  0.04496654  1
  F  F5  1  0.52671469  0.14041935  0.45503346  1
  F  F6  1  0.47328531  0.35958065  0.95503346  1
  F  F7  1  0.02671469  0.85958065  0.54496654  1
  F  F8  1  0.02774270  0.08782729  0.85138472  1
  F  F9  1  0.47225730  0.58782729  0.64861528  1
  F  F10  1  0.52774270  0.91217271  0.14861528  1
  F  F11  1  0.97225730  0.41217271  0.35138472  1
  F  F12  1  0.97225730  0.91217271  0.14861528  1
  F  F13  1  0.52774270  0.41217271  0.35138472  1
  F  F14  1  0.47225730  0.08782729  0.85138472  1
  F  F15  1  0.02774270  0.58782729  0.64861528  1
  F  F16  1  0.04077439  0.30611849  0.74680288  1
  F  F17  1  0.45922561  0.80611849  0.75319712  1
  F  F18  1  0.54077439  0.69388151  0.25319712  1
  F  F19  1  0.95922561  0.19388151  0.24680288  1
  F  F20  1  0.95922561  0.69388151  0.25319712  1
  F  F21  1  0.54077439  0.19388151  0.24680288  1
  F  F22  1  0.45922561  0.30611849  0.74680288  1
  F  F23  1  0.04077439  0.80611849  0.75319712  1
  F  F24  1  0.25000000  0.15451488  0.02654882  1
  F  F25  1  0.25000000  0.65451488  0.47345118  1
  F  F26  1  0.75000000  0.84548512  0.97345118  1
  F  F27  1  0.75000000  0.34548512  0.52654882  1
loop_
_geom_bond_atom_site_label_1
_geom_bond_atom_site_label_2
_geom_bond_distance
_geom_bond_site_symmetry_2
F0 Ta0 1.963098 1_555
F0 K6 2.775365 1_455
F0 K4 2.868966 1_556
F0 K0 2.910499 1_456
F1 Ta1 1.963098 1_555
F1 K7 2.775365 1_565
F1 K5 2.868966 1_555
F1 K1 2.910499 1_555
F2 Ta2 1.963098 1_555
F2 K4 2.775365 1_555
F2 K6 2.868966 1_554
F2 K2 2.910499 1_554
F3 Ta3 1.963098 1_555
F3 K5 2.775365 1_645
F3 K7 2.868966 1_555
F3 K3 2.910499 1_655
F4 Ta2 1.963098 1_555
F4 K4 2.775365 1_655
F4 K6 2.868966 1_554
F4 K2 2.910499 1_654
F5 Ta3 1.963098 1_555
F5 K5 2.775365 1_545
F5 K7 2.868966 1_555
F5 K3 2.910499 1_555
F6 Ta0 1.963098 1_555
F6 K6 2.775365 1_555
F6 K4 2.868966 1_556
F6 K0 2.910499 1_556
F7 Ta1 1.963098 1_555
F7 K7 2.775365 1_465
F7 K5 2.868966 1_555
F7 K1 2.910499 1_455
F8 Ta0 1.966376 1_555
F8 K7 2.699005 1_455
F8 K2 2.716979 1_545
F8 K0 2.775528 1_456
F9 Ta1 1.966376 1_555
F9 K6 2.699005 1_555
F9 K3 2.716979 1_555
F9 K1 2.775528 1_555
F10 Ta2 1.966376 1_555
F10 K5 2.699005 1_555
F10 K0 2.716979 1_565
F10 K2 2.775528 1_554
F11 Ta3 1.966376 1_555
F11 K4 2.699005 1_655
F11 K1 2.716979 1_555
F11 K3 2.775528 1_655
F12 Ta2 1.966376 1_555
F12 K5 2.699005 1_655
F12 K0 2.716979 1_565
F12 K2 2.775528 1_654
F13 Ta3 1.966376 1_555
F13 K4 2.699005 1_555
F13 K1 2.716979 1_555
F13 K3 2.775528 1_555
F14 Ta0 1.966376 1_555
F14 K7 2.699005 1_555
F14 K2 2.716979 1_545
F14 K0 2.775528 1_556
F15 Ta1 1.966376 1_555
F15 K6 2.699005 1_455
F15 K3 2.716979 1_555
F15 K1 2.775528 1_455
F16 Ta0 1.955681 1_555
F16 K3 2.674809 1_555
F16 K6 3.038293 1_455
F16 K7 3.126546 1_455
F17 Ta1 1.955681 1_555
F17 K2 2.674809 1_555
F17 K7 3.038293 1_565
F17 K6 3.126546 1_555
F18 Ta2 1.955681 1_555
F18 K1 2.674809 1_555
F18 K4 3.038293 1_555
F18 K5 3.126546 1_555
F19 Ta3 1.955681 1_555
F19 K0 2.674809 1_555
F19 K5 3.038293 1_645
F19 K4 3.126546 1_655
F20 Ta2 1.955681 1_555
F20 K1 2.674809 1_555
F20 K4 3.038293 1_655
F20 K5 3.126546 1_655
F21 Ta3 1.955681 1_555
F21 K0 2.674809 1_555
F21 K5 3.038293 1_545
F21 K4 3.126546 1_555
F22 Ta0 1.955681 1_555
F22 K3 2.674809 1_555
F22 K6 3.038293 1_555
F22 K7 3.126546 1_555
F23 Ta1 1.955681 1_555
F23 K2 2.674809 1_555
F23 K7 3.038293 1_465
F23 K6 3.126546 1_455
F24 Ta0 1.987478 1_554
F24 K2 2.855175 1_544
F24 K0 2.879882 1_455
F24 K0 2.879882 1_555
F25 Ta1 1.987478 1_555
F25 K3 2.855175 1_555
F25 K1 2.879882 1_555
F25 K1 2.879882 1_455
F26 Ta2 1.987478 1_556
F26 K0 2.855175 1_566
F26 K2 2.879882 1_655
F26 K2 2.879882 1_555
F27 Ta3 1.987478 1_555
F27 K1 2.855175 1_555
F27 K3 2.879882 1_655
F27 K3 2.879882 1_555
