# generated using pymatgen
data_RbUAgS3
_symmetry_space_group_name_H-M   'P 1'
_cell_length_a   7.72451422
_cell_length_b   7.72451422
_cell_length_c   10.53495000
_cell_angle_alpha   90.00000000
_cell_angle_beta   90.00000000
_cell_angle_gamma   149.06578606
_symmetry_Int_Tables_number   1
_chemical_formula_structural   RbUAgS3
_chemical_formula_sum   'Rb2 U2 Ag2 S6'
_cell_volume   323.13440096
_cell_formula_units_Z   2
loop_
 _symmetry_equiv_pos_site_id
 _symmetry_equiv_pos_as_xyz
  1  'x, y, z'
loop_
 _atom_site_type_symbol
 _atom_site_label
 _atom_site_symmetry_multiplicity
 _atom_site_fract_x
 _atom_site_fract_y
 _atom_site_fract_z
 _atom_site_occupancy
  Rb  Rb0  1  0.26195000  0.73805000  0.25000000  1
  Rb  Rb1  1  0.73805000  0.26195000  0.75000000  1
  U  U0  1  0.00000000  0.00000000  0.00000000  1
  U  U1  1  0.00000000  0.00000000  0.50000000  1
  Ag  Ag0  1  0.45298200  0.54701800  0.75000000  1
  Ag  Ag1  1  0.54701800  0.45298200  0.25000000  1
  S  S0  1  0.61881500  0.38118500  0.03713400  1
  S  S1  1  0.38118500  0.61881500  0.96286600  1
  S  S2  1  0.38118500  0.61881500  0.53713400  1
  S  S3  1  0.94366200  0.05633800  0.25000000  1
  S  S4  1  0.05633800  0.94366200  0.75000000  1
  S  S5  1  0.61881500  0.38118500  0.46286600  1
loop_
_geom_bond_atom_site_label_1
_geom_bond_atom_site_label_2
_geom_bond_distance
_geom_bond_site_symmetry_2
Rb0 S3 3.400581 1_565
Rb0 S3 3.400581 1_455
Rb0 S2 3.507442 1_555
Rb0 S1 3.507442 1_554
Rb0 S5 3.716809 1_565
Rb0 S0 3.716809 1_565
Rb0 S5 3.716809 1_455
Rb0 S0 3.716809 1_455
Rb1 S4 3.400581 1_655
Rb1 S4 3.400581 1_545
Rb1 S5 3.507442 1_555
Rb1 S0 3.507442 1_556
Rb1 S2 3.716809 1_655
Rb1 S1 3.716809 1_655
Rb1 S1 3.716809 1_545
Rb1 S2 3.716809 1_545
Ag0 S1 2.484303 1_555
Ag0 S2 2.484303 1_555
Ag0 S4 2.571368 1_545
Ag0 S4 2.571368 1_655
Ag0 Rb1 3.805937 1_455
Ag0 Rb1 3.805937 1_565
Ag1 S5 2.484303 1_555
Ag1 S0 2.484303 1_555
Ag1 S3 2.571368 1_455
Ag1 S3 2.571368 1_565
Ag1 Rb0 3.805937 1_545
Ag1 Rb0 3.805937 1_655
S0 U0 2.743429 1_665
S0 U0 2.743429 1_555
S1 U0 2.743429 1_556
S1 U0 2.743429 1_666
S2 U1 2.743429 1_555
S2 U1 2.743429 1_665
S3 U0 2.764098 1_655
S3 U1 2.764098 1_655
S4 U0 2.764098 1_566
S4 U1 2.764098 1_565
S5 U1 2.743429 1_555
S5 U1 2.743429 1_665
