# generated using pymatgen
data_Mg6VNi
_symmetry_space_group_name_H-M   'P 1'
_cell_length_a   4.79537200
_cell_length_b   6.10350600
_cell_length_c   10.43429900
_cell_angle_alpha   90.00000000
_cell_angle_beta   90.00000000
_cell_angle_gamma   90.00000000
_symmetry_Int_Tables_number   1
_chemical_formula_structural   Mg6VNi
_chemical_formula_sum   'Mg12 V2 Ni2'
_cell_volume   305.39713354
_cell_formula_units_Z   2
loop_
 _symmetry_equiv_pos_site_id
 _symmetry_equiv_pos_as_xyz
  1  'x, y, z'
loop_
 _atom_site_type_symbol
 _atom_site_label
 _atom_site_symmetry_multiplicity
 _atom_site_fract_x
 _atom_site_fract_y
 _atom_site_fract_z
 _atom_site_occupancy
  Mg  Mg0  1  0.00000000  0.25866100  0.09025900  1
  Mg  Mg1  1  0.00000000  0.74133900  0.09025900  1
  Mg  Mg2  1  0.00000000  0.50000000  0.83637300  1
  Mg  Mg3  1  0.50000000  0.23636100  0.91301900  1
  Mg  Mg4  1  0.50000000  0.76363900  0.91301900  1
  Mg  Mg5  1  0.50000000  0.50000000  0.66485100  1
  Mg  Mg6  1  0.00000000  0.75866100  0.59025900  1
  Mg  Mg7  1  0.00000000  0.24133900  0.59025900  1
  Mg  Mg8  1  0.00000000  0.00000000  0.33637300  1
  Mg  Mg9  1  0.50000000  0.73636100  0.41301900  1
  Mg  Mg10  1  0.50000000  0.26363900  0.41301900  1
  Mg  Mg11  1  0.50000000  0.00000000  0.16485100  1
  V  V0  1  0.50000000  0.50000000  0.17305900  1
  V  V1  1  0.50000000  0.00000000  0.67305900  1
  Ni  Ni0  1  0.00000000  0.50000000  0.31916000  1
  Ni  Ni1  1  0.00000000  0.00000000  0.81916000  1
loop_
_geom_bond_atom_site_label_1
_geom_bond_atom_site_label_2
_geom_bond_distance
_geom_bond_site_symmetry_2
Mg0 Ni0 2.806123 1_555
Mg0 V0 2.943653 1_455
Mg0 V0 2.943653 1_555
Mg0 Mg1 2.946028 1_555
Mg0 Mg11 2.974406 1_455
Mg0 Mg11 2.974406 1_555
Mg0 Mg8 3.014495 1_555
Mg0 Mg3 3.031107 1_554
Mg0 Mg3 3.031107 1_454
Mg0 Mg2 3.031109 1_554
Mg0 Mg1 3.157478 1_545
Mg0 Ni1 3.239463 1_554
Mg1 Ni0 2.806123 1_555
Mg1 V0 2.943653 1_455
Mg1 V0 2.943653 1_555
Mg1 Mg11 2.974406 1_565
Mg1 Mg11 2.974406 1_465
Mg1 Mg8 3.014495 1_565
Mg1 Mg4 3.031107 1_554
Mg1 Mg4 3.031107 1_454
Mg1 Mg2 3.031109 1_554
Mg1 Ni1 3.239463 1_564
Mg2 Mg5 2.991984 1_555
Mg2 Mg5 2.991984 1_455
Mg2 Mg3 2.996292 1_455
Mg2 Mg4 2.996292 1_455
Mg2 Mg3 2.996292 1_555
Mg2 Mg4 2.996292 1_555
Mg2 Mg6 3.014495 1_555
Mg2 Mg7 3.014495 1_555
Mg2 Ni1 3.057034 1_555
Mg2 Ni1 3.057034 1_565
Mg3 Mg4 2.885262 1_545
Mg3 V1 2.889683 1_555
Mg3 Ni1 2.964661 1_555
Mg3 Ni1 2.964661 1_655
Mg3 Mg5 3.048700 1_555
Mg3 V0 3.154594 1_556
Mg3 Mg4 3.218244 1_555
Mg4 V1 2.889683 1_565
Mg4 Ni1 2.964661 1_665
Mg4 Ni1 2.964661 1_565
Mg4 Mg5 3.048700 1_555
Mg4 V0 3.154594 1_556
Mg5 Mg6 2.974406 1_555
Mg5 Mg6 2.974406 1_655
Mg5 Mg7 2.974406 1_555
Mg5 Mg7 2.974406 1_655
Mg5 Mg9 2.997656 1_555
Mg5 V1 3.052955 1_555
Mg5 V1 3.052955 1_565
Mg6 Ni1 2.806123 1_565
Mg6 V1 2.943653 1_465
Mg6 V1 2.943653 1_565
Mg6 Mg7 2.946028 1_565
Mg6 Mg9 3.031107 1_455
Mg6 Mg9 3.031107 1_555
Mg6 Mg8 3.031109 1_565
Mg6 Mg7 3.157478 1_555
Mg6 Ni0 3.239463 1_555
Mg7 Ni1 2.806123 1_555
Mg7 V1 2.943653 1_555
Mg7 V1 2.943653 1_455
Mg7 Mg8 3.031109 1_555
Mg7 Ni0 3.239463 1_555
Mg8 Mg9 2.996292 1_445
Mg8 Mg9 2.996292 1_545
Mg8 Ni0 3.057034 1_545
Mg8 Ni0 3.057034 1_555
Mg9 V0 2.889683 1_555
Mg9 Ni0 2.964661 1_655
Mg9 Ni0 2.964661 1_555
Mg9 V1 3.154594 1_565
Mg10 Mg9 2.885262 1_555
Mg10 V0 2.889683 1_555
Mg10 Ni0 2.964661 1_655
Mg10 Ni0 2.964661 1_555
Mg10 Mg8 2.996292 1_555
Mg10 Mg8 2.996292 1_655
Mg10 Mg5 2.997656 1_555
Mg10 Mg7 3.031107 1_655
Mg10 Mg7 3.031107 1_555
Mg10 Mg11 3.048700 1_555
Mg10 V1 3.154594 1_555
Mg10 Mg9 3.218244 1_545
Mg11 Mg8 2.991984 1_655
Mg11 Mg8 2.991984 1_555
Mg11 Mg3 2.997656 1_554
Mg11 Mg4 2.997656 1_544
Mg11 Mg9 3.048700 1_545
Mg11 V0 3.052955 1_545
Mg11 V0 3.052955 1_555
Ni0 V0 2.841282 1_555
Ni0 V0 2.841282 1_455
Ni1 V1 2.841282 1_455
Ni1 V1 2.841282 1_555
