# generated using pymatgen
data_SmPbAu
_symmetry_space_group_name_H-M   'P 1'
_cell_length_a   4.88992501
_cell_length_b   4.88992501
_cell_length_c   7.50911900
_cell_angle_alpha   90.00000000
_cell_angle_beta   90.00000000
_cell_angle_gamma   119.99998666
_symmetry_Int_Tables_number   1
_chemical_formula_structural   SmPbAu
_chemical_formula_sum   'Sm2 Pb2 Au2'
_cell_volume   155.49773793
_cell_formula_units_Z   2
loop_
 _symmetry_equiv_pos_site_id
 _symmetry_equiv_pos_as_xyz
  1  'x, y, z'
loop_
 _atom_site_type_symbol
 _atom_site_label
 _atom_site_symmetry_multiplicity
 _atom_site_fract_x
 _atom_site_fract_y
 _atom_site_fract_z
 _atom_site_occupancy
  Sm  Sm0  1  0.00000000  0.00000000  0.50000000  1
  Sm  Sm1  1  0.00000000  0.00000000  0.00000000  1
  Pb  Pb0  1  0.33333300  0.66666700  0.25000000  1
  Pb  Pb1  1  0.66666700  0.33333300  0.75000000  1
  Au  Au0  1  0.33333300  0.66666700  0.75000000  1
  Au  Au1  1  0.66666700  0.33333300  0.25000000  1
loop_
_geom_bond_atom_site_label_1
_geom_bond_atom_site_label_2
_geom_bond_distance
_geom_bond_site_symmetry_2
Pb0 Sm0 3.390371 1_565
Pb0 Sm1 3.390371 1_565
Pb0 Sm0 3.390375 1_665
Pb0 Sm1 3.390375 1_665
Pb0 Sm1 3.390375 1_555
Pb0 Sm0 3.390375 1_555
Pb1 Sm1 3.390371 1_656
Pb1 Sm0 3.390371 1_655
Pb1 Sm0 3.390375 1_665
Pb1 Sm1 3.390375 1_556
Pb1 Sm1 3.390375 1_666
Pb1 Sm0 3.390375 1_555
Au0 Pb1 2.823197 1_455
Au0 Pb1 2.823197 1_565
Au0 Pb1 2.823205 1_555
Au0 Sm1 3.390371 1_566
Au0 Sm0 3.390371 1_565
Au0 Sm0 3.390375 1_665
Au0 Sm1 3.390375 1_556
Au0 Sm1 3.390375 1_666
Au0 Sm0 3.390375 1_555
Au1 Pb0 2.823197 1_545
Au1 Pb0 2.823197 1_655
Au1 Pb0 2.823205 1_555
Au1 Sm0 3.390371 1_655
Au1 Sm1 3.390371 1_655
Au1 Sm0 3.390375 1_665
Au1 Sm1 3.390375 1_665
Au1 Sm1 3.390375 1_555
Au1 Sm0 3.390375 1_555
