# generated using pymatgen
data_Al5O8
_symmetry_space_group_name_H-M   'P 1'
_cell_length_a   5.64950882
_cell_length_b   5.64950882
_cell_length_c   5.64950882
_cell_angle_alpha   60.00000000
_cell_angle_beta   60.00000000
_cell_angle_gamma   60.00000000
_symmetry_Int_Tables_number   1
_chemical_formula_structural   Al5O8
_chemical_formula_sum   'Al5 O8'
_cell_volume   127.50202318
_cell_formula_units_Z   1
loop_
 _symmetry_equiv_pos_site_id
 _symmetry_equiv_pos_as_xyz
  1  'x, y, z'
loop_
 _atom_site_type_symbol
 _atom_site_label
 _atom_site_symmetry_multiplicity
 _atom_site_fract_x
 _atom_site_fract_y
 _atom_site_fract_z
 _atom_site_occupancy
  Al  Al0  1  0.61572600  0.12809100  0.12809100  1
  Al  Al1  1  0.12809100  0.61572600  0.12809100  1
  Al  Al2  1  0.12809100  0.12809100  0.61572600  1
  Al  Al3  1  0.12809100  0.12809100  0.12809100  1
  Al  Al4  1  0.75000000  0.75000000  0.75000000  1
  O  O0  1  0.35077700  0.88307400  0.88307400  1
  O  O1  1  0.88307400  0.35077700  0.88307400  1
  O  O2  1  0.88307400  0.88307400  0.35077700  1
  O  O3  1  0.88307400  0.88307400  0.88307400  1
  O  O4  1  0.91496500  0.36167800  0.36167800  1
  O  O5  1  0.36167800  0.91496500  0.36167800  1
  O  O6  1  0.36167800  0.36167800  0.91496500  1
  O  O7  1  0.36167800  0.36167800  0.36167800  1
loop_
_geom_bond_atom_site_label_1
_geom_bond_atom_site_label_2
_geom_bond_distance
_geom_bond_site_symmetry_2
Al0 O7 1.869846 1_555
Al0 O6 1.869846 1_554
Al0 O5 1.869846 1_545
Al0 O3 1.961652 1_544
Al0 O1 1.961652 1_554
Al0 O2 1.961652 1_545
Al1 O7 1.869846 1_555
Al1 O6 1.869846 1_554
Al1 O4 1.869846 1_455
Al1 O3 1.961652 1_454
Al1 O2 1.961652 1_455
Al1 O0 1.961652 1_554
Al2 O5 1.869846 1_545
Al2 O4 1.869846 1_455
Al2 O7 1.869846 1_555
Al2 O3 1.961652 1_445
Al2 O0 1.961652 1_545
Al2 O1 1.961652 1_455
Al3 O5 1.869846 1_545
Al3 O4 1.869846 1_455
Al3 O6 1.869846 1_554
Al3 O2 1.961652 1_445
Al3 O1 1.961652 1_454
Al3 O0 1.961652 1_544
Al4 O3 1.841533 1_555
Al4 O0 1.841538 1_555
Al4 O2 1.841538 1_555
Al4 O1 1.841538 1_555
