# generated using pymatgen
data_Mg30CdCO32
_symmetry_space_group_name_H-M   'P 1'
_cell_length_a   8.55530000
_cell_length_b   8.55530000
_cell_length_c   8.55735800
_cell_angle_alpha   90.00000000
_cell_angle_beta   90.00000000
_cell_angle_gamma   90.00000000
_symmetry_Int_Tables_number   1
_chemical_formula_structural   Mg30CdCO32
_chemical_formula_sum   'Mg30 Cd1 C1 O32'
_cell_volume   626.34005693
_cell_formula_units_Z   1
loop_
 _symmetry_equiv_pos_site_id
 _symmetry_equiv_pos_as_xyz
  1  'x, y, z'
loop_
 _atom_site_type_symbol
 _atom_site_label
 _atom_site_symmetry_multiplicity
 _atom_site_fract_x
 _atom_site_fract_y
 _atom_site_fract_z
 _atom_site_occupancy
  Mg  Mg0  1  0.00000000  0.50000000  0.00000000  1
  Mg  Mg1  1  0.50000000  0.00000000  0.00000000  1
  Mg  Mg2  1  0.00000000  0.00000000  0.50000000  1
  Mg  Mg3  1  0.00000000  0.50000000  0.50000000  1
  Mg  Mg4  1  0.50000000  0.00000000  0.50000000  1
  Mg  Mg5  1  0.50000000  0.50000000  0.50000000  1
  Mg  Mg6  1  0.25379300  0.25379300  0.00000000  1
  Mg  Mg7  1  0.25379300  0.74620700  0.00000000  1
  Mg  Mg8  1  0.74620700  0.25379300  0.00000000  1
  Mg  Mg9  1  0.74620700  0.74620700  0.00000000  1
  Mg  Mg10  1  0.25009700  0.25009700  0.50000000  1
  Mg  Mg11  1  0.25009700  0.74990300  0.50000000  1
  Mg  Mg12  1  0.74990300  0.25009700  0.50000000  1
  Mg  Mg13  1  0.74990300  0.74990300  0.50000000  1
  Mg  Mg14  1  0.00000000  0.25223000  0.25189600  1
  Mg  Mg15  1  0.00000000  0.74777000  0.25189600  1
  Mg  Mg16  1  0.50000000  0.25159900  0.24827000  1
  Mg  Mg17  1  0.50000000  0.74840100  0.24827000  1
  Mg  Mg18  1  0.00000000  0.25223000  0.74810400  1
  Mg  Mg19  1  0.00000000  0.74777000  0.74810400  1
  Mg  Mg20  1  0.50000000  0.25159900  0.75173000  1
  Mg  Mg21  1  0.50000000  0.74840100  0.75173000  1
  Mg  Mg22  1  0.25223000  0.00000000  0.25189600  1
  Mg  Mg23  1  0.25159900  0.50000000  0.24827000  1
  Mg  Mg24  1  0.74777000  0.00000000  0.25189600  1
  Mg  Mg25  1  0.74840100  0.50000000  0.24827000  1
  Mg  Mg26  1  0.25223000  0.00000000  0.74810400  1
  Mg  Mg27  1  0.25159900  0.50000000  0.75173000  1
  Mg  Mg28  1  0.74777000  0.00000000  0.74810400  1
  Mg  Mg29  1  0.74840100  0.50000000  0.75173000  1
  Cd  Cd0  1  0.00000000  0.00000000  0.00000000  1
  C  C0  1  0.50000000  0.50000000  0.00000000  1
  O  O0  1  0.00000000  0.00000000  0.26384600  1
  O  O1  1  0.00000000  0.50000000  0.25118000  1
  O  O2  1  0.50000000  0.00000000  0.25118000  1
  O  O3  1  0.50000000  0.50000000  0.25195100  1
  O  O4  1  0.00000000  0.00000000  0.73615400  1
  O  O5  1  0.00000000  0.50000000  0.74882000  1
  O  O6  1  0.50000000  0.00000000  0.74882000  1
  O  O7  1  0.50000000  0.50000000  0.74804900  1
  O  O8  1  0.24989700  0.24989700  0.24914700  1
  O  O9  1  0.24989700  0.75010300  0.24914700  1
  O  O10  1  0.75010300  0.24989700  0.24914700  1
  O  O11  1  0.75010300  0.75010300  0.24914700  1
  O  O12  1  0.24989700  0.24989700  0.75085300  1
  O  O13  1  0.24989700  0.75010300  0.75085300  1
  O  O14  1  0.75010300  0.24989700  0.75085300  1
  O  O15  1  0.75010300  0.75010300  0.75085300  1
  O  O16  1  0.00000000  0.26414700  0.00000000  1
  O  O17  1  0.00000000  0.73585300  0.00000000  1
  O  O18  1  0.50000000  0.24985700  0.00000000  1
  O  O19  1  0.50000000  0.75014300  0.00000000  1
  O  O20  1  0.00000000  0.25163800  0.50000000  1
  O  O21  1  0.00000000  0.74836200  0.50000000  1
  O  O22  1  0.50000000  0.25077900  0.50000000  1
  O  O23  1  0.50000000  0.74922100  0.50000000  1
  O  O24  1  0.26414700  0.00000000  0.00000000  1
  O  O25  1  0.24985700  0.50000000  0.00000000  1
  O  O26  1  0.73585300  0.00000000  0.00000000  1
  O  O27  1  0.75014300  0.50000000  0.00000000  1
  O  O28  1  0.25163800  0.00000000  0.50000000  1
  O  O29  1  0.25077900  0.50000000  0.50000000  1
  O  O30  1  0.74836200  0.00000000  0.50000000  1
  O  O31  1  0.74922100  0.50000000  0.50000000  1
loop_
_geom_bond_atom_site_label_1
_geom_bond_atom_site_label_2
_geom_bond_distance
_geom_bond_site_symmetry_2
Mg0 O17 2.017793 1_555
Mg0 O16 2.017793 1_555
Mg0 O27 2.137602 1_455
Mg0 O25 2.137602 1_555
Mg0 O5 2.149437 1_554
Mg0 O1 2.149437 1_555
Mg1 O26 2.017793 1_555
Mg1 O24 2.017793 1_555
Mg1 O19 2.137602 1_545
Mg1 O18 2.137602 1_555
Mg1 O6 2.149437 1_554
Mg1 O2 2.149437 1_555
Mg2 O4 2.020854 1_555
Mg2 O0 2.020854 1_555
Mg2 O20 2.152839 1_555
Mg2 O28 2.152839 1_555
Mg2 O30 2.152839 1_455
Mg2 O21 2.152839 1_545
Mg3 O21 2.124811 1_555
Mg3 O20 2.124811 1_555
Mg3 O1 2.129242 1_555
Mg3 O5 2.129242 1_555
Mg3 O29 2.145490 1_555
Mg3 O31 2.145490 1_455
Mg4 O30 2.124811 1_555
Mg4 O28 2.124811 1_555
Mg4 O2 2.129242 1_555
Mg4 O6 2.129242 1_555
Mg4 O22 2.145490 1_555
Mg4 O23 2.145490 1_545
Mg5 O7 2.122644 1_555
Mg5 O3 2.122644 1_555
Mg5 O31 2.132160 1_555
Mg5 O23 2.132160 1_555
Mg5 O29 2.132160 1_555
Mg5 O22 2.132160 1_555
Mg6 O25 2.106644 1_555
Mg6 O18 2.106644 1_555
Mg6 O8 2.132561 1_555
Mg6 O12 2.132561 1_554
Mg6 O24 2.173081 1_555
Mg6 O16 2.173081 1_555
Mg7 O25 2.106644 1_555
Mg7 O19 2.106644 1_555
Mg7 O9 2.132561 1_555
Mg7 O13 2.132561 1_554
Mg7 O24 2.173081 1_565
Mg7 O17 2.173081 1_555
Mg8 O27 2.106644 1_555
Mg8 O18 2.106644 1_555
Mg8 O10 2.132561 1_555
Mg8 O14 2.132561 1_554
Mg8 O26 2.173081 1_555
Mg8 O16 2.173081 1_655
Mg9 O27 2.106644 1_555
Mg9 O19 2.106644 1_555
Mg9 O11 2.132561 1_555
Mg9 O15 2.132561 1_554
Mg9 O26 2.173081 1_565
Mg9 O17 2.173081 1_655
Mg10 O22 2.138003 1_555
Mg10 O29 2.138003 1_555
Mg10 O20 2.139695 1_555
Mg10 O28 2.139695 1_555
Mg10 O12 2.146640 1_555
Mg10 O8 2.146640 1_555
Mg11 O23 2.138003 1_555
Mg11 O29 2.138003 1_555
Mg11 O28 2.139695 1_565
Mg11 O21 2.139695 1_555
Mg11 O13 2.146640 1_555
Mg11 O9 2.146640 1_555
Mg12 O22 2.138003 1_555
Mg12 O31 2.138003 1_555
Mg12 O30 2.139695 1_555
Mg12 O20 2.139695 1_655
Mg12 O14 2.146640 1_555
Mg12 O10 2.146640 1_555
Mg13 O23 2.138003 1_555
Mg13 O31 2.138003 1_555
Mg13 O30 2.139695 1_565
Mg13 O21 2.139695 1_655
Mg13 O15 2.146640 1_555
Mg13 O11 2.146640 1_555
Mg14 O1 2.119756 1_555
Mg14 O20 2.123121 1_555
Mg14 O8 2.138166 1_555
Mg14 O10 2.138166 1_455
Mg14 O16 2.157974 1_555
Mg14 O0 2.160325 1_555
Mg15 O1 2.119756 1_555
Mg15 O21 2.123121 1_555
Mg15 O9 2.138166 1_555
Mg15 O11 2.138166 1_455
Mg15 O17 2.157974 1_555
Mg15 O0 2.160325 1_565
Mg16 O18 2.124588 1_555
Mg16 O3 2.125379 1_555
Mg16 O10 2.139769 1_555
Mg16 O8 2.139769 1_555
Mg16 O2 2.152649 1_555
Mg16 O22 2.154155 1_555
Mg17 O19 2.124588 1_555
Mg17 O3 2.125379 1_555
Mg17 O11 2.139769 1_555
Mg17 O9 2.139769 1_555
Mg17 O2 2.152649 1_565
Mg17 O23 2.154155 1_555
Mg18 O5 2.119756 1_555
Mg18 O20 2.123121 1_555
Mg18 O12 2.138166 1_555
Mg18 O14 2.138166 1_455
Mg18 O16 2.157974 1_556
Mg18 O4 2.160325 1_555
Mg19 O5 2.119756 1_555
Mg19 O21 2.123121 1_555
Mg19 O13 2.138166 1_555
Mg19 O15 2.138166 1_455
Mg19 O17 2.157974 1_556
Mg19 O4 2.160325 1_565
Mg20 O18 2.124588 1_556
Mg20 O7 2.125379 1_555
Mg20 O14 2.139769 1_555
Mg20 O12 2.139769 1_555
Mg20 O6 2.152649 1_555
Mg20 O22 2.154155 1_555
Mg21 O19 2.124588 1_556
Mg21 O7 2.125379 1_555
Mg21 O15 2.139769 1_555
Mg21 O13 2.139769 1_555
Mg21 O6 2.152649 1_565
Mg21 O23 2.154155 1_555
Mg22 O2 2.119756 1_555
Mg22 O28 2.123121 1_555
Mg22 O8 2.138166 1_555
Mg22 O9 2.138166 1_545
Mg22 O24 2.157974 1_555
Mg22 O0 2.160325 1_555
Mg23 O25 2.124588 1_555
Mg23 O3 2.125379 1_555
Mg23 O9 2.139769 1_555
Mg23 O8 2.139769 1_555
Mg23 O1 2.152649 1_555
Mg23 O29 2.154155 1_555
Mg24 O2 2.119756 1_555
Mg24 O30 2.123121 1_555
Mg24 O10 2.138166 1_555
Mg24 O11 2.138166 1_545
Mg24 O26 2.157974 1_555
Mg24 O0 2.160325 1_655
Mg25 O27 2.124588 1_555
Mg25 O3 2.125379 1_555
Mg25 O11 2.139769 1_555
Mg25 O10 2.139769 1_555
Mg25 O1 2.152649 1_655
Mg25 O31 2.154155 1_555
Mg26 O6 2.119756 1_555
Mg26 O28 2.123121 1_555
Mg26 O12 2.138166 1_555
Mg26 O13 2.138166 1_545
Mg26 O24 2.157974 1_556
Mg26 O4 2.160325 1_555
Mg27 O25 2.124588 1_556
Mg27 O7 2.125379 1_555
Mg27 O13 2.139769 1_555
Mg27 O12 2.139769 1_555
Mg27 O5 2.152649 1_555
Mg27 O29 2.154155 1_555
Mg28 O6 2.119756 1_555
Mg28 O30 2.123121 1_555
Mg28 O14 2.138166 1_555
Mg28 O15 2.138166 1_545
Mg28 O26 2.157974 1_556
Mg28 O4 2.160325 1_655
Mg29 O27 2.124588 1_556
Mg29 O7 2.125379 1_555
Mg29 O15 2.139769 1_555
Mg29 O14 2.139769 1_555
Mg29 O5 2.152649 1_655
Mg29 O31 2.154155 1_555
Cd0 O0 2.257825 1_555
Cd0 O4 2.257825 1_554
Cd0 O24 2.259857 1_555
Cd0 O16 2.259857 1_555
Cd0 O26 2.259857 1_455
Cd0 O17 2.259857 1_545
C0 O25 2.140048 1_555
C0 O18 2.140048 1_555
C0 O19 2.140048 1_555
C0 O27 2.140048 1_555
C0 O3 2.156035 1_555
C0 O7 2.156035 1_554
