# generated using pymatgen
data_SbPd6Se
_symmetry_space_group_name_H-M   'P 1'
_cell_length_a   7.86077029
_cell_length_b   7.86077029
_cell_length_c   7.86076928
_cell_angle_alpha   33.56167944
_cell_angle_beta   33.56167944
_cell_angle_gamma   33.56168080
_symmetry_Int_Tables_number   1
_chemical_formula_structural   SbPd6Se
_chemical_formula_sum   'Sb1 Pd6 Se1'
_cell_volume   132.23041619
_cell_formula_units_Z   1
loop_
 _symmetry_equiv_pos_site_id
 _symmetry_equiv_pos_as_xyz
  1  'x, y, z'
loop_
 _atom_site_type_symbol
 _atom_site_label
 _atom_site_symmetry_multiplicity
 _atom_site_fract_x
 _atom_site_fract_y
 _atom_site_fract_z
 _atom_site_occupancy
  Sb  Sb0  1  0.00000000  0.00000000  0.00000000  1
  Pd  Pd0  1  0.25128500  0.25128500  0.25128500  1
  Pd  Pd1  1  0.74871500  0.74871500  0.74871500  1
  Pd  Pd2  1  0.62389600  0.62389600  0.62389600  1
  Pd  Pd3  1  0.12609800  0.12609800  0.12609800  1
  Pd  Pd4  1  0.87390200  0.87390200  0.87390200  1
  Pd  Pd5  1  0.37610400  0.37610400  0.37610400  1
  Se  Se0  1  0.50000000  0.50000000  0.50000000  1
loop_
_geom_bond_atom_site_label_1
_geom_bond_atom_site_label_2
_geom_bond_distance
_geom_bond_site_symmetry_2
Pd0 Pd2 2.762261 1_545
Pd0 Pd2 2.762261 1_455
Pd0 Pd2 2.762261 1_554
Pd0 Pd5 2.775134 1_555
Pd0 Pd3 2.783316 1_555
Pd0 Pd4 2.797614 1_454
Pd0 Pd4 2.797614 1_544
Pd0 Pd4 2.797614 1_445
Pd0 Sb0 3.192991 1_556
Pd0 Sb0 3.192992 1_655
Pd0 Sb0 3.192992 1_565
Pd0 Se0 3.225977 1_554
Pd0 Se0 3.225977 1_545
Pd0 Se0 3.225977 1_455
Pd1 Pd5 2.762261 1_565
Pd1 Pd5 2.762261 1_655
Pd1 Pd5 2.762261 1_556
Pd1 Pd2 2.775134 1_555
Pd1 Pd4 2.783316 1_555
Pd1 Pd3 2.797614 1_566
Pd1 Pd3 2.797614 1_656
Pd1 Pd3 2.797614 1_665
Pd1 Sb0 3.192991 1_665
Pd1 Sb0 3.192992 1_566
Pd1 Sb0 3.192992 1_656
Pd1 Se0 3.225977 1_556
Pd1 Se0 3.225977 1_655
Pd1 Se0 3.225977 1_565
Pd2 Se0 2.754612 1_555
Pd2 Sb0 2.787786 1_656
Pd2 Sb0 2.787786 1_566
Pd2 Sb0 2.787786 1_665
Pd3 Se0 2.771469 1_545
Pd3 Se0 2.771469 1_455
Pd3 Se0 2.771469 1_554
Pd3 Sb0 2.803570 1_555
Pd4 Se0 2.771469 1_565
Pd4 Se0 2.771469 1_655
Pd4 Se0 2.771469 1_556
Pd4 Sb0 2.803570 1_666
Pd5 Se0 2.754612 1_555
Pd5 Sb0 2.787786 1_565
Pd5 Sb0 2.787786 1_655
Pd5 Sb0 2.787786 1_556
