# generated using pymatgen
data_KCr(SO4)2
_symmetry_space_group_name_H-M   'P 1'
_cell_length_a   5.07501143
_cell_length_b   8.79120897
_cell_length_c   7.98759205
_cell_angle_alpha   89.99075936
_cell_angle_beta   89.99641324
_cell_angle_gamma   90.00213773
_symmetry_Int_Tables_number   1
_chemical_formula_structural   KCr(SO4)2
_chemical_formula_sum   'K2 Cr2 S4 O16'
_cell_volume   356.37029591
_cell_formula_units_Z   2
loop_
 _symmetry_equiv_pos_site_id
 _symmetry_equiv_pos_as_xyz
  1  'x, y, z'
loop_
 _atom_site_type_symbol
 _atom_site_label
 _atom_site_symmetry_multiplicity
 _atom_site_fract_x
 _atom_site_fract_y
 _atom_site_fract_z
 _atom_site_occupancy
  K  K0  1  0.00002800  0.99993900  0.50004500  1
  K  K1  1  0.49999200  0.49999200  0.49999100  1
  Cr  Cr0  1  0.49957700  0.50002300  0.99968000  1
  Cr  Cr1  1  0.00011500  0.99975800  0.00024500  1
  S  S0  1  0.50013200  0.16667200  0.78088600  1
  S  S1  1  0.99978900  0.66685200  0.78070700  1
  S  S2  1  0.99978200  0.33336700  0.21912200  1
  S  S3  1  0.50004300  0.83314300  0.21928600  1
  O  O0  1  0.49960300  0.16669400  0.59845100  1
  O  O1  1  0.99905700  0.66731200  0.59830500  1
  O  O2  1  0.99954000  0.33332400  0.40157600  1
  O  O3  1  0.49935600  0.83260900  0.40169300  1
  O  O4  1  0.76004500  0.11020900  0.84214500  1
  O  O5  1  0.25984800  0.61018300  0.84144300  1
  O  O6  1  0.28582500  0.06514700  0.84292800  1
  O  O7  1  0.78572700  0.56510900  0.84260700  1
  O  O8  1  0.25964500  0.38995800  0.15779400  1
  O  O9  1  0.76012700  0.88974900  0.15837300  1
  O  O10  1  0.45523100  0.32481700  0.84234400  1
  O  O11  1  0.95519200  0.82478700  0.84281800  1
  O  O12  1  0.78527000  0.43483900  0.15718000  1
  O  O13  1  0.28595000  0.93501000  0.15759300  1
  O  O14  1  0.95517700  0.17521200  0.15765400  1
  O  O15  1  0.45494300  0.67529800  0.15713300  1
loop_
_geom_bond_atom_site_label_1
_geom_bond_atom_site_label_2
_geom_bond_distance
_geom_bond_site_symmetry_2
K0 O1 3.027573 1_455
K0 O0 3.032370 1_565
K0 O3 3.033668 1_555
K0 O2 3.034439 1_465
K0 O0 3.035987 1_465
K0 O3 3.039358 1_455
K0 O9 3.141665 1_455
K0 O4 3.144909 1_465
K0 O14 3.147122 1_465
K0 O13 3.148601 1_555
K0 O11 3.149215 1_455
K0 O6 3.151884 1_565
K1 O3 3.027565 1_555
K1 O2 3.031913 1_555
K1 O1 3.032422 1_555
K1 O0 3.033681 1_555
K1 O2 3.035742 1_455
K1 O1 3.040363 1_455
K1 O5 3.140515 1_555
K1 O8 3.145764 1_555
K1 O10 3.146370 1_555
K1 O7 3.149740 1_555
K1 O12 3.149946 1_555
K1 O15 3.150578 1_555
Cr0 O10 2.000777 1_555
Cr0 O15 2.001991 1_556
Cr0 O7 2.002476 1_555
Cr0 O12 2.003326 1_556
Cr0 O8 2.003326 1_556
Cr0 O5 2.003863 1_555
Cr1 O11 1.999976 1_454
Cr1 O13 2.001993 1_555
Cr1 O6 2.002842 1_564
Cr1 O14 2.003157 1_465
Cr1 O9 2.003332 1_455
Cr1 O4 2.005462 1_464
O0 S0 1.457219 1_555
O1 S1 1.456963 1_555
O2 S2 1.457369 1_555
O3 S3 1.457003 1_555
O4 S0 1.491909 1_555
O5 S1 1.491803 1_455
O6 S0 1.491578 1_555
O7 S1 1.491444 1_555
O8 S2 1.492153 1_455
O9 S3 1.492104 1_555
O10 S0 1.491990 1_555
O11 S1 1.491762 1_555
O12 S2 1.491887 1_555
O13 S3 1.491759 1_555
O14 S2 1.491863 1_555
O15 S3 1.491521 1_555
