# generated using pymatgen
data_Mg14GaC
_symmetry_space_group_name_H-M   'P 1'
_cell_length_a   6.33796356
_cell_length_b   6.33796356
_cell_length_c   8.80692400
_cell_angle_alpha   90.00000000
_cell_angle_beta   90.00000000
_cell_angle_gamma   104.73042367
_symmetry_Int_Tables_number   1
_chemical_formula_structural   Mg14GaC
_chemical_formula_sum   'Mg14 Ga1 C1'
_cell_volume   342.14474178
_cell_formula_units_Z   1
loop_
 _symmetry_equiv_pos_site_id
 _symmetry_equiv_pos_as_xyz
  1  'x, y, z'
loop_
 _atom_site_type_symbol
 _atom_site_label
 _atom_site_symmetry_multiplicity
 _atom_site_fract_x
 _atom_site_fract_y
 _atom_site_fract_z
 _atom_site_occupancy
  Mg  Mg0  1  0.87059200  0.12940800  0.00000000  1
  Mg  Mg1  1  0.33461900  0.66538100  0.00000000  1
  Mg  Mg2  1  0.36405100  0.07355400  0.50000000  1
  Mg  Mg3  1  0.38198800  0.19074000  0.00000000  1
  Mg  Mg4  1  0.92644600  0.63594900  0.50000000  1
  Mg  Mg5  1  0.80926000  0.61801200  0.00000000  1
  Mg  Mg6  1  0.20505200  0.42325300  0.31784500  1
  Mg  Mg7  1  0.20505200  0.42325300  0.68215500  1
  Mg  Mg8  1  0.57674700  0.79494800  0.31784500  1
  Mg  Mg9  1  0.57674700  0.79494800  0.68215500  1
  Mg  Mg10  1  0.67888000  0.32112000  0.27356200  1
  Mg  Mg11  1  0.67888000  0.32112000  0.72643800  1
  Mg  Mg12  1  0.10567600  0.89432400  0.23899400  1
  Mg  Mg13  1  0.10567600  0.89432400  0.76100600  1
  Ga  Ga0  1  0.89328800  0.10671200  0.50000000  1
  C  C0  1  0.28705500  0.71294500  0.50000000  1
loop_
_geom_bond_atom_site_label_1
_geom_bond_atom_site_label_2
_geom_bond_distance
_geom_bond_site_symmetry_2
Mg0 Mg10 3.083504 1_555
Mg0 Mg11 3.083504 1_554
Mg0 Mg12 3.162129 1_645
Mg0 Mg13 3.162129 1_644
Mg0 Mg5 3.164777 1_545
Mg0 Mg3 3.164777 1_655
Mg0 Mg3 3.217633 1_555
Mg0 Mg5 3.217633 1_555
Mg1 Mg3 3.098231 1_555
Mg1 Mg5 3.098231 1_555
Mg1 Mg12 3.116395 1_555
Mg1 Mg13 3.116395 1_554
Mg1 Mg8 3.197532 1_555
Mg1 Mg9 3.197532 1_554
Mg1 Mg6 3.197532 1_555
Mg1 Mg7 3.197532 1_554
Mg1 Mg3 3.266299 1_565
Mg1 Mg5 3.266299 1_455
Mg3 Mg5 3.307193 1_555
Mg3 Mg6 3.479278 1_555
Mg3 Mg7 3.479278 1_554
Mg5 Mg8 3.479278 1_555
Mg5 Mg9 3.479278 1_554
Mg10 Mg5 3.039292 1_555
Mg10 Mg3 3.039292 1_555
Mg11 Mg3 3.039292 1_556
Mg11 Mg5 3.039292 1_556
Mg12 Mg4 2.882685 1_455
Mg12 Mg2 2.882685 1_565
Mg12 Mg5 3.058329 1_455
Mg12 Mg3 3.058329 1_565
Mg12 Mg6 3.278602 1_555
Mg12 Mg8 3.278602 1_555
Mg12 Mg8 3.323149 1_455
Mg12 Mg6 3.323149 1_565
Mg13 Mg4 2.882685 1_455
Mg13 Mg2 2.882685 1_565
Mg13 Mg5 3.058329 1_456
Mg13 Mg3 3.058329 1_566
Mg13 Mg7 3.278602 1_555
Mg13 Mg9 3.278602 1_555
Mg13 Mg9 3.323149 1_455
Mg13 Mg7 3.323149 1_565
Ga0 Mg7 2.913226 1_655
Ga0 Mg6 2.913226 1_655
Ga0 Mg9 2.913226 1_545
Ga0 Mg8 2.913226 1_545
Ga0 Mg11 2.934159 1_555
Ga0 Mg10 2.934159 1_555
Ga0 Mg2 3.043908 1_655
Ga0 Mg4 3.043908 1_545
Ga0 Mg13 3.135176 1_645
Ga0 Mg12 3.135176 1_645
C0 Mg4 2.212370 1_455
C0 Mg2 2.212370 1_565
C0 Mg7 2.393634 1_555
C0 Mg6 2.393634 1_555
C0 Mg8 2.393634 1_555
C0 Mg9 2.393634 1_555
C0 Mg13 2.932392 1_555
C0 Mg12 2.932392 1_555
