# generated using pymatgen
data_Cr3Pb5ClO12
_symmetry_space_group_name_H-M   'P 1'
_cell_length_a   10.41523020
_cell_length_b   10.41523020
_cell_length_c   7.37997700
_cell_angle_alpha   90.00000000
_cell_angle_beta   90.00000000
_cell_angle_gamma   120.00000129
_symmetry_Int_Tables_number   1
_chemical_formula_structural   Cr3Pb5ClO12
_chemical_formula_sum   'Cr6 Pb10 Cl2 O24'
_cell_volume   693.30348164
_cell_formula_units_Z   2
loop_
 _symmetry_equiv_pos_site_id
 _symmetry_equiv_pos_as_xyz
  1  'x, y, z'
loop_
 _atom_site_type_symbol
 _atom_site_label
 _atom_site_symmetry_multiplicity
 _atom_site_fract_x
 _atom_site_fract_y
 _atom_site_fract_z
 _atom_site_occupancy
  Cr  Cr0  1  0.97282700  0.38247500  0.75000000  1
  Cr  Cr1  1  0.02717300  0.61752500  0.25000000  1
  Cr  Cr2  1  0.40964800  0.02717300  0.75000000  1
  Cr  Cr3  1  0.59035200  0.97282700  0.25000000  1
  Cr  Cr4  1  0.61752500  0.59035200  0.75000000  1
  Cr  Cr5  1  0.38247500  0.40964800  0.25000000  1
  Pb  Pb0  1  0.66666700  0.33333300  0.00706200  1
  Pb  Pb1  1  0.33333300  0.66666700  0.99293800  1
  Pb  Pb2  1  0.33333300  0.66666700  0.50706200  1
  Pb  Pb3  1  0.66666700  0.33333300  0.49293800  1
  Pb  Pb4  1  0.75716300  0.01400300  0.75000000  1
  Pb  Pb5  1  0.24283700  0.98599700  0.25000000  1
  Pb  Pb6  1  0.25684000  0.24283700  0.75000000  1
  Pb  Pb7  1  0.74316000  0.75716300  0.25000000  1
  Pb  Pb8  1  0.98599700  0.74316000  0.75000000  1
  Pb  Pb9  1  0.01400300  0.25684000  0.25000000  1
  Cl  Cl0  1  0.00000000  0.00000000  0.00000000  1
  Cl  Cl1  1  0.00000000  0.00000000  0.50000000  1
  O  O0  1  0.51050600  0.67483900  0.75000000  1
  O  O1  1  0.48949400  0.32516100  0.25000000  1
  O  O2  1  0.16433300  0.48949400  0.75000000  1
  O  O3  1  0.83566700  0.51050600  0.25000000  1
  O  O4  1  0.32516100  0.83566700  0.75000000  1
  O  O5  1  0.67483900  0.16433300  0.25000000  1
  O  O6  1  0.90923300  0.26834000  0.93666800  1
  O  O7  1  0.09076700  0.73166000  0.06333200  1
  O  O8  1  0.35910700  0.09076700  0.93666800  1
  O  O9  1  0.09076700  0.73166000  0.43666800  1
  O  O10  1  0.64089300  0.90923300  0.06333200  1
  O  O11  1  0.90923300  0.26834000  0.56333200  1
  O  O12  1  0.73166000  0.64089300  0.93666800  1
  O  O13  1  0.64089300  0.90923300  0.43666800  1
  O  O14  1  0.26834000  0.35910700  0.06333200  1
  O  O15  1  0.35910700  0.09076700  0.56333200  1
  O  O16  1  0.26834000  0.35910700  0.43666800  1
  O  O17  1  0.73166000  0.64089300  0.56333200  1
  O  O18  1  0.87516800  0.47897800  0.75000000  1
  O  O19  1  0.12483200  0.52102200  0.25000000  1
  O  O20  1  0.60380900  0.12483200  0.75000000  1
  O  O21  1  0.39619100  0.87516800  0.25000000  1
  O  O22  1  0.52102200  0.39619100  0.75000000  1
  O  O23  1  0.47897800  0.60380900  0.25000000  1
loop_
_geom_bond_atom_site_label_1
_geom_bond_atom_site_label_2
_geom_bond_distance
_geom_bond_site_symmetry_2
Cr0 O11 1.721118 1_555
Cr0 O6 1.721118 1_555
Cr0 O2 1.731337 1_655
Cr0 O18 1.751323 1_555
Cr1 O7 1.721118 1_555
Cr1 O9 1.721118 1_555
Cr1 O3 1.731337 1_455
Cr1 O19 1.751323 1_555
Cr2 O15 1.721118 1_555
Cr2 O8 1.721118 1_555
Cr2 O4 1.731337 1_545
Cr2 O20 1.751314 1_555
Cr3 O10 1.721118 1_555
Cr3 O13 1.721118 1_555
Cr3 O5 1.731337 1_565
Cr3 O21 1.751314 1_555
Cr4 O12 1.721118 1_555
Cr4 O17 1.721118 1_555
Cr4 O0 1.731337 1_555
Cr4 O22 1.751314 1_555
Cr5 O14 1.721118 1_555
Cr5 O16 1.721118 1_555
Cr5 O1 1.731337 1_555
Cr5 O23 1.751314 1_555
Cl0 Pb7 3.192337 1_445
Cl0 Pb6 3.192337 1_554
Cl0 Pb8 3.192337 1_444
Cl0 Pb9 3.192337 1_555
Cl0 Pb4 3.192337 1_454
Cl0 Pb5 3.192337 1_545
Cl1 Pb7 3.192337 1_445
Cl1 Pb6 3.192337 1_555
Cl1 Pb8 3.192337 1_445
Cl1 Pb9 3.192337 1_555
Cl1 Pb4 3.192337 1_455
Cl1 Pb5 3.192337 1_545
O0 Pb2 2.543564 1_555
O0 Pb1 2.543564 1_555
O1 Pb3 2.543564 1_555
O1 Pb0 2.543564 1_555
O2 Pb2 2.543560 1_555
O2 Pb1 2.543560 1_555
O3 Pb0 2.543560 1_555
O3 Pb3 2.543560 1_555
O4 Pb2 2.543556 1_555
O4 Pb1 2.543556 1_555
O5 Pb0 2.543556 1_555
O5 Pb3 2.543556 1_555
O6 Pb9 2.585128 1_656
O6 Pb4 2.688471 1_555
O7 Pb8 2.585128 1_454
O7 Pb5 2.688471 1_555
O8 Pb5 2.585128 1_546
O8 Pb6 2.688471 1_555
O9 Pb8 2.585128 1_455
O9 Pb5 2.688471 1_555
O10 Pb4 2.585128 1_564
O10 Pb7 2.688471 1_555
O11 Pb9 2.585128 1_655
O11 Pb4 2.688471 1_555
O12 Pb7 2.585128 1_556
O12 Pb8 2.688471 1_555
O13 Pb4 2.585128 1_565
O13 Pb7 2.688471 1_555
O14 Pb6 2.585128 1_554
O14 Pb9 2.688471 1_555
O15 Pb5 2.585128 1_545
O15 Pb6 2.688471 1_555
O16 Pb6 2.585128 1_555
O16 Pb9 2.688471 1_555
O17 Pb7 2.585128 1_555
O17 Pb8 2.688471 1_555
O18 Pb8 2.393151 1_555
O18 Pb0 2.705873 1_556
O18 Pb3 2.705873 1_555
O19 Pb9 2.393151 1_555
O19 Pb2 2.705873 1_555
O19 Pb1 2.705873 1_554
O20 Pb4 2.393160 1_555
O20 Pb0 2.705869 1_556
O20 Pb3 2.705869 1_555
O21 Pb5 2.393160 1_555
O21 Pb2 2.705869 1_555
O21 Pb1 2.705869 1_554
O22 Pb6 2.393152 1_555
O22 Pb0 2.705884 1_556
O22 Pb3 2.705884 1_555
O23 Pb7 2.393152 1_555
O23 Pb2 2.705884 1_555
O23 Pb1 2.705884 1_554
