# generated using pymatgen
data_MgV3CoSn2(PO4)6
_symmetry_space_group_name_H-M   'P 1'
_cell_length_a   9.23017995
_cell_length_b   8.63331885
_cell_length_c   8.58777253
_cell_angle_alpha   59.28270502
_cell_angle_beta   62.15994125
_cell_angle_gamma   61.83780470
_symmetry_Int_Tables_number   1
_chemical_formula_structural   MgV3CoSn2(PO4)6
_chemical_formula_sum   'Mg1 V3 Co1 Sn2 P6 O24'
_cell_volume   495.09430409
_cell_formula_units_Z   1
loop_
 _symmetry_equiv_pos_site_id
 _symmetry_equiv_pos_as_xyz
  1  'x, y, z'
loop_
 _atom_site_type_symbol
 _atom_site_label
 _atom_site_symmetry_multiplicity
 _atom_site_fract_x
 _atom_site_fract_y
 _atom_site_fract_z
 _atom_site_occupancy
  Mg  Mg0  1  0.66322400  0.75943100  0.16630600  1
  V  V0  1  0.05663500  0.64460200  0.63221600  1
  V  V1  1  0.46128100  0.85834500  0.83700100  1
  V  V2  1  0.94841800  0.35260400  0.35485800  1
  Co  Co0  1  0.55500200  0.16415300  0.15157400  1
  Sn  Sn0  1  0.05497500  0.97262000  0.98830100  1
  Sn  Sn1  1  0.47813200  0.41144200  0.62218100  1
  P  P0  1  0.24758100  0.25194300  0.53835600  1
  P  P1  1  0.25571700  0.95347300  0.25210300  1
  P  P2  1  0.24508200  0.54298400  0.95794400  1
  P  P3  1  0.75780800  0.47433200  0.02657500  1
  P  P4  1  0.75748500  0.02926800  0.74001200  1
  P  P5  1  0.75604800  0.75274400  0.45455500  1
  O  O0  1  0.10784500  0.12663800  0.27776100  1
  O  O1  1  0.08364100  0.51677900  0.12603000  1
  O  O2  1  0.07655300  0.29616400  0.51625600  1
  O  O3  1  0.27201600  0.05541600  0.71089800  1
  O  O4  1  0.40344500  0.25334100  0.36599000  1
  O  O5  1  0.22887400  0.39813400  0.61134200  1
  O  O6  1  0.27651600  0.94540800  0.06202700  1
  O  O7  1  0.21448500  0.76815000  0.41370800  1
  O  O8  1  0.61771500  0.67608200  0.00598700  1
  O  O9  1  0.20854900  0.61024800  0.76932000  1
  O  O10  1  0.71041200  0.33109800  0.02456600  1
  O  O11  1  0.57571200  0.05925800  0.73701000  1
  O  O12  1  0.43188700  0.94379800  0.24032600  1
  O  O13  1  0.28453700  0.70455300  0.95167600  1
  O  O14  1  0.78670600  0.42669400  0.21221700  1
  O  O15  1  0.40758600  0.36553800  0.95420500  1
  O  O16  1  0.78628100  0.22414900  0.60679600  1
  O  O17  1  0.74636600  0.97818800  0.94547900  1
  O  O18  1  0.75566200  0.60822300  0.39425600  1
  O  O19  1  0.60846000  0.75461600  0.64017800  1
  O  O20  1  0.73014000  0.94353500  0.28873100  1
  O  O21  1  0.93604300  0.68430900  0.47612700  1
  O  O22  1  0.92645400  0.50317000  0.85957500  1
  O  O23  1  0.90101700  0.87732200  0.66568400  1
loop_
_geom_bond_atom_site_label_1
_geom_bond_atom_site_label_2
_geom_bond_distance
_geom_bond_site_symmetry_2
Mg0 O12 2.013632 1_555
Mg0 O17 2.025330 1_554
Mg0 O18 2.040151 1_555
Mg0 O8 2.104129 1_555
Mg0 O14 2.424578 1_555
Co0 O4 1.991534 1_555
Co0 O20 2.051469 1_545
Co0 O10 2.051556 1_555
Co0 O15 2.158147 1_554
Co0 O12 2.289485 1_545
Co0 O17 2.477145 1_544
O0 P1 1.508639 1_545
O0 V2 2.027141 1_455
O1 P2 1.526721 1_554
O1 V2 1.990482 1_455
O2 P0 1.520110 1_555
O2 V2 1.963295 1_455
O3 P0 1.583581 1_555
O3 V1 2.048999 1_545
O3 Sn0 2.313874 1_545
O4 P0 1.506683 1_555
O5 P0 1.586499 1_555
O5 V0 2.004394 1_555
O5 Sn1 2.403233 1_555
O6 P1 1.586507 1_555
O6 V1 2.098471 1_554
O6 Sn0 2.289400 1_554
O7 P1 1.563256 1_555
O7 V0 1.910577 1_555
O8 P3 1.584308 1_555
O8 V1 2.036302 1_554
O9 P2 1.561802 1_555
O9 V0 2.057457 1_555
O9 Sn1 2.445757 1_555
O10 P3 1.503434 1_555
O11 P4 1.583109 1_555
O11 V1 2.054801 1_545
O11 Sn1 2.491960 1_555
O12 P1 1.545368 1_555
O13 P2 1.570252 1_555
O13 V1 2.145308 1_555
O13 Sn0 2.331733 1_555
O14 P3 1.551038 1_555
O14 V2 2.035610 1_555
O15 P2 1.560121 1_555
O15 Sn1 2.462979 1_555
O16 P4 1.543335 1_555
O16 V2 2.059557 1_555
O16 Sn1 2.499582 1_555
O17 P4 1.548263 1_565
O18 P5 1.578255 1_555
O18 V2 2.155086 1_555
O19 P5 1.540913 1_555
O19 V1 1.938508 1_555
O20 P5 1.532381 1_555
O21 P5 1.546833 1_555
O21 V0 1.928021 1_655
O22 P3 1.567742 1_556
O22 V0 1.872185 1_655
O23 P4 1.519383 1_565
O23 V0 1.913817 1_655
