# generated using pymatgen
data_Dy3Lu
_symmetry_space_group_name_H-M   'P 1'
_cell_length_a   7.20758270
_cell_length_b   7.20758270
_cell_length_c   5.54998905
_cell_angle_alpha   90.00000000
_cell_angle_beta   90.00000000
_cell_angle_gamma   120.00000280
_symmetry_Int_Tables_number   1
_chemical_formula_structural   Dy3Lu
_chemical_formula_sum   'Dy6 Lu2'
_cell_volume   249.69049750
_cell_formula_units_Z   2
loop_
 _symmetry_equiv_pos_site_id
 _symmetry_equiv_pos_as_xyz
  1  'x, y, z'
loop_
 _atom_site_type_symbol
 _atom_site_label
 _atom_site_symmetry_multiplicity
 _atom_site_fract_x
 _atom_site_fract_y
 _atom_site_fract_z
 _atom_site_occupancy
  Dy  Dy0  1  0.83227490  0.16772510  0.75000000  1
  Dy  Dy1  1  0.33544920  0.16772510  0.75000000  1
  Dy  Dy2  1  0.83227490  0.66455080  0.75000000  1
  Dy  Dy3  1  0.16772510  0.83227490  0.25000000  1
  Dy  Dy4  1  0.66455080  0.83227490  0.25000000  1
  Dy  Dy5  1  0.16772510  0.33544920  0.25000000  1
  Lu  Lu0  1  0.66666700  0.33333300  0.25000000  1
  Lu  Lu1  1  0.33333300  0.66666700  0.75000000  1
loop_
_geom_bond_atom_site_label_1
_geom_bond_atom_site_label_2
_geom_bond_distance
_geom_bond_site_symmetry_2
Dy0 Lu0 3.460473 1_555
Dy0 Lu0 3.460473 1_556
Dy0 Dy4 3.476328 1_546
Dy0 Dy4 3.476328 1_545
Dy0 Dy5 3.476328 1_656
Dy0 Dy5 3.476328 1_655
Dy0 Dy1 3.580912 1_555
Dy0 Dy2 3.580912 1_555
Dy0 Lu1 3.603815 1_545
Dy0 Lu1 3.603815 1_655
Dy0 Dy2 3.626670 1_545
Dy0 Dy1 3.626670 1_655
Dy1 Lu0 3.460480 1_555
Dy1 Lu0 3.460480 1_556
Dy1 Dy5 3.476321 1_555
Dy1 Dy5 3.476321 1_556
Dy1 Dy3 3.476328 1_546
Dy1 Dy3 3.476328 1_545
Dy1 Dy2 3.580912 1_555
Dy1 Lu1 3.603816 1_545
Dy1 Lu1 3.603816 1_555
Dy1 Dy2 3.626670 1_445
Dy2 Lu0 3.460480 1_555
Dy2 Lu0 3.460480 1_556
Dy2 Dy4 3.476321 1_556
Dy2 Dy4 3.476321 1_555
Dy2 Dy3 3.476328 1_655
Dy2 Dy3 3.476328 1_656
Dy2 Lu1 3.603816 1_655
Dy2 Lu1 3.603816 1_555
Dy3 Lu1 3.460473 1_554
Dy3 Lu1 3.460473 1_555
Dy3 Dy5 3.580912 1_555
Dy3 Dy4 3.580912 1_555
Dy3 Lu0 3.603815 1_455
Dy3 Lu0 3.603815 1_565
Dy3 Dy4 3.626670 1_455
Dy3 Dy5 3.626670 1_565
Dy4 Lu1 3.460480 1_554
Dy4 Lu1 3.460480 1_555
Dy4 Dy5 3.580912 1_555
Dy4 Lu0 3.603816 1_565
Dy4 Lu0 3.603816 1_555
Dy4 Dy5 3.626670 1_665
Dy5 Lu1 3.460480 1_554
Dy5 Lu1 3.460480 1_555
Dy5 Lu0 3.603816 1_455
Dy5 Lu0 3.603816 1_555
