# generated using pymatgen
data_Tb6GaNi2
_symmetry_space_group_name_H-M   'P 1'
_cell_length_a   8.34356362
_cell_length_b   8.34356362
_cell_length_c   8.34356362
_cell_angle_alpha   106.33114512
_cell_angle_beta   110.00366318
_cell_angle_gamma   112.13136290
_symmetry_Int_Tables_number   1
_chemical_formula_structural   Tb6GaNi2
_chemical_formula_sum   'Tb12 Ga2 Ni4'
_cell_volume   445.96562486
_cell_formula_units_Z   2
loop_
 _symmetry_equiv_pos_site_id
 _symmetry_equiv_pos_as_xyz
  1  'x, y, z'
loop_
 _atom_site_type_symbol
 _atom_site_label
 _atom_site_symmetry_multiplicity
 _atom_site_fract_x
 _atom_site_fract_y
 _atom_site_fract_z
 _atom_site_occupancy
  Tb  Tb0  1  0.69662600  0.26610800  0.96273400  1
  Tb  Tb1  1  0.30337400  0.73389200  0.03726600  1
  Tb  Tb2  1  0.69662600  0.73389200  0.43051900  1
  Tb  Tb3  1  0.30337400  0.26610800  0.56948100  1
  Tb  Tb4  1  0.80780700  0.13005500  0.32224800  1
  Tb  Tb5  1  0.80780700  0.48556000  0.67775200  1
  Tb  Tb6  1  0.19219300  0.86994500  0.67775200  1
  Tb  Tb7  1  0.19219300  0.51444000  0.32224800  1
  Tb  Tb8  1  0.60381600  0.78625000  0.81756600  1
  Tb  Tb9  1  0.96868300  0.78625000  0.18243400  1
  Tb  Tb10  1  0.03131700  0.21375000  0.81756600  1
  Tb  Tb11  1  0.39618400  0.21375000  0.18243400  1
  Ga  Ga0  1  0.50000000  0.50000000  0.00000000  1
  Ga  Ga1  1  0.50000000  0.00000000  0.50000000  1
  Ni  Ni0  1  0.85625100  0.50000000  0.35625100  1
  Ni  Ni1  1  0.14374900  0.50000000  0.64374900  1
  Ni  Ni2  1  0.00000000  0.12090400  0.12090400  1
  Ni  Ni3  1  0.00000000  0.87909600  0.87909600  1
loop_
_geom_bond_atom_site_label_1
_geom_bond_atom_site_label_2
_geom_bond_distance
_geom_bond_site_symmetry_2
Ga0 Tb0 3.002739 1_554
Ga0 Tb1 3.002739 1_555
Ga0 Tb3 3.002746 1_554
Ga0 Tb2 3.002746 1_555
Ga0 Tb9 3.187345 1_555
Ga0 Tb10 3.187345 1_554
Ga0 Tb8 3.187351 1_554
Ga0 Tb11 3.187351 1_555
Ga1 Tb2 3.260142 1_545
Ga1 Tb3 3.260142 1_555
Ga1 Tb0 3.260143 1_555
Ga1 Tb1 3.260143 1_545
Ga1 Tb6 3.374001 1_545
Ga1 Tb4 3.374001 1_555
Ga1 Tb7 3.374008 1_545
Ga1 Tb5 3.374008 1_555
Ga1 Tb11 3.633554 1_555
Ga1 Tb8 3.633554 1_545
Ga1 Tb9 3.633560 1_445
Ga1 Tb10 3.633560 1_655
Ni0 Ni1 2.751616 1_655
Ni0 Tb0 2.794454 1_554
Ni0 Tb2 2.794456 1_555
Ni0 Tb5 2.874084 1_555
Ni0 Tb6 2.874086 1_655
Ni0 Tb4 2.874086 1_555
Ni0 Tb7 2.874088 1_655
Ni0 Tb9 3.142928 1_555
Ni0 Tb11 3.142930 1_555
Ni1 Tb1 2.794454 1_556
Ni1 Tb3 2.794456 1_555
Ni1 Tb7 2.874084 1_555
Ni1 Tb6 2.874086 1_555
Ni1 Tb4 2.874086 1_455
Ni1 Tb5 2.874088 1_455
Ni1 Tb10 3.142928 1_555
Ni1 Tb8 3.142930 1_555
Ni2 Ni3 2.419050 1_544
Ni2 Tb7 2.694915 1_555
Ni2 Tb4 2.694922 1_455
Ni2 Tb9 2.911435 1_445
Ni2 Tb11 2.911437 1_555
Ni2 Tb8 2.911437 1_444
Ni2 Tb10 2.911439 1_554
Ni2 Tb3 3.246653 1_555
Ni2 Tb0 3.246659 1_454
Ni3 Tb5 2.694915 1_455
Ni3 Tb6 2.694922 1_555
Ni3 Tb10 2.911435 1_565
Ni3 Tb8 2.911437 1_455
Ni3 Tb11 2.911437 1_566
Ni3 Tb9 2.911439 1_456
Ni3 Tb2 3.246653 1_455
Ni3 Tb1 3.246659 1_556
