# generated using pymatgen
data_ReH12N3Cl4O3
_symmetry_space_group_name_H-M   'P 1'
_cell_length_a   9.33158000
_cell_length_b   9.33049588
_cell_length_c   7.88252800
_cell_angle_alpha   90.00000000
_cell_angle_beta   90.00000000
_cell_angle_gamma   120.00090839
_symmetry_Int_Tables_number   1
_chemical_formula_structural   ReH12N3Cl4O3
_chemical_formula_sum   'Re2 H24 N6 Cl8 O6'
_cell_volume   594.36343971
_cell_formula_units_Z   2
loop_
 _symmetry_equiv_pos_site_id
 _symmetry_equiv_pos_as_xyz
  1  'x, y, z'
loop_
 _atom_site_type_symbol
 _atom_site_label
 _atom_site_symmetry_multiplicity
 _atom_site_fract_x
 _atom_site_fract_y
 _atom_site_fract_z
 _atom_site_occupancy
  Re  Re0  1  0.66679200  0.33308300  0.99994700  1
  Re  Re1  1  0.33320800  0.66691700  0.49994700  1
  H  H0  1  0.21461900  0.10731700  0.52434400  1
  H  H1  1  0.89264100  0.10728100  0.52432900  1
  H  H2  1  0.89273900  0.78539800  0.52436000  1
  H  H3  1  0.78538100  0.89268300  0.02434400  1
  H  H4  1  0.10735800  0.89271900  0.02432900  1
  H  H5  1  0.10726100  0.21460200  0.02436000  1
  H  H6  1  0.41964400  0.20981000  0.56134200  1
  H  H7  1  0.79021200  0.20984100  0.56133000  1
  H  H8  1  0.79015500  0.58035200  0.56135900  1
  H  H9  1  0.58035600  0.79019000  0.06134200  1
  H  H10  1  0.20978800  0.79015800  0.06133000  1
  H  H11  1  0.20984500  0.41964800  0.06135900  1
  H  H12  1  0.34654000  0.26365500  0.39184200  1
  H  H13  1  0.73632000  0.08284200  0.39182000  1
  H  H14  1  0.91714000  0.65348100  0.39184700  1
  H  H15  1  0.73640800  0.65352500  0.39184000  1
  H  H16  1  0.91713900  0.26362200  0.39180900  1
  H  H17  1  0.34646400  0.08284800  0.39181900  1
  H  H18  1  0.65346000  0.73634500  0.89184200  1
  H  H19  1  0.26368000  0.91715800  0.89182000  1
  H  H20  1  0.08286000  0.34651900  0.89184700  1
  H  H21  1  0.26359200  0.34647500  0.89184000  1
  H  H22  1  0.08286100  0.73637800  0.89180900  1
  H  H23  1  0.65353600  0.91715200  0.89181900  1
  N  N0  1  0.33192400  0.16597100  0.46590900  1
  N  N1  1  0.83404400  0.16595400  0.46593800  1
  N  N2  1  0.83404000  0.66809000  0.46593200  1
  N  N3  1  0.66807600  0.83402800  0.96590900  1
  N  N4  1  0.16595600  0.83404600  0.96593800  1
  N  N5  1  0.16596000  0.33191000  0.96593200  1
  Cl  Cl0  1  0.54953100  0.45043500  0.77849700  1
  Cl  Cl1  1  0.54950100  0.09898900  0.77849500  1
  Cl  Cl2  1  0.90094100  0.45042600  0.77848900  1
  Cl  Cl3  1  0.45046900  0.54956500  0.27849700  1
  Cl  Cl4  1  0.45049900  0.90101100  0.27849500  1
  Cl  Cl5  1  0.09905900  0.54957400  0.27848900  1
  Cl  Cl6  1  0.99999100  0.99999600  0.18018500  1
  Cl  Cl7  1  0.00000900  0.00000400  0.68018500  1
  O  O0  1  0.47115800  0.23546500  0.09248500  1
  O  O1  1  0.76430100  0.23553600  0.09242400  1
  O  O2  1  0.76440000  0.52869400  0.09240900  1
  O  O3  1  0.52884200  0.76453500  0.59248500  1
  O  O4  1  0.23569900  0.76446400  0.59242400  1
  O  O5  1  0.23560000  0.47130600  0.59240900  1
loop_
_geom_bond_atom_site_label_1
_geom_bond_atom_site_label_2
_geom_bond_distance
_geom_bond_site_symmetry_2
H0 N0 1.053959 1_555
H1 N1 1.053515 1_555
H2 N2 1.053858 1_555
H3 N3 1.053959 1_554
H4 N4 1.053522 1_554
H5 N5 1.053858 1_554
H6 N0 1.033641 1_555
H7 N1 1.033379 1_555
H8 N2 1.033650 1_555
H9 N3 1.033641 1_554
H10 N4 1.033384 1_554
H11 N5 1.033650 1_554
H12 N0 1.032412 1_555
H13 N1 1.033006 1_555
H14 N2 1.032784 1_555
H15 N2 1.032366 1_555
H16 N1 1.032715 1_555
H17 N0 1.032590 1_555
H18 N3 1.032404 1_555
H19 N4 1.033006 1_555
H20 N5 1.032784 1_555
H21 N5 1.032366 1_555
H22 N4 1.032715 1_555
H23 N3 1.032597 1_555
Cl0 Re0 2.577110 1_555
Cl1 Re0 2.573938 1_555
Cl2 Re0 2.574458 1_555
Cl3 Re1 2.577110 1_555
Cl4 Re1 2.573938 1_555
Cl5 Re1 2.574458 1_555
O0 Re0 1.741141 1_554
O1 Re0 1.736634 1_554
O2 Re0 1.740554 1_554
O3 Re1 1.741141 1_555
O4 Re1 1.736634 1_555
O5 Re1 1.740554 1_555
