# generated using pymatgen
data_Li2Ni3SbO8
_symmetry_space_group_name_H-M   'P 1'
_cell_length_a   5.87234843
_cell_length_b   10.47115715
_cell_length_c   5.86117634
_cell_angle_alpha   106.13447994
_cell_angle_beta   120.08479583
_cell_angle_gamma   90.01885417
_symmetry_Int_Tables_number   1
_chemical_formula_structural   Li2Ni3SbO8
_chemical_formula_sum   'Li4 Ni6 Sb2 O16'
_cell_volume   295.31280765
_cell_formula_units_Z   2
loop_
 _symmetry_equiv_pos_site_id
 _symmetry_equiv_pos_as_xyz
  1  'x, y, z'
loop_
 _atom_site_type_symbol
 _atom_site_label
 _atom_site_symmetry_multiplicity
 _atom_site_fract_x
 _atom_site_fract_y
 _atom_site_fract_z
 _atom_site_occupancy
  Li  Li0  1  0.06377700  0.19179300  0.12862800  1
  Li  Li1  1  0.56345000  0.69039700  0.12695500  1
  Li  Li2  1  0.43654000  0.30954900  0.87309200  1
  Li  Li3  1  0.93628900  0.80819000  0.87148900  1
  Ni  Ni0  1  0.49998100  0.99999100  0.49997200  1
  Ni  Ni1  1  0.00005700  0.00002900  0.49999400  1
  Ni  Ni2  1  0.99976800  0.49999100  0.99996000  1
  Ni  Ni3  1  0.00007100  0.50007000  0.50015000  1
  Ni  Ni4  1  0.49999200  0.49996500  0.49982300  1
  Ni  Ni5  1  0.50001300  0.99992500  0.99994200  1
  Sb  Sb0  1  0.24993900  0.75019700  0.49962500  1
  Sb  Sb1  1  0.75011100  0.24980500  0.50034600  1
  O  O0  1  0.13532300  0.40681100  0.27120100  1
  O  O1  1  0.63578900  0.90652400  0.27084700  1
  O  O2  1  0.36428900  0.09338500  0.72916000  1
  O  O3  1  0.86457700  0.59324200  0.72885400  1
  O  O4  1  0.34053400  0.62157100  0.72125000  1
  O  O5  1  0.87994300  0.12146000  0.72214000  1
  O  O6  1  0.90034100  0.62196000  0.23976500  1
  O  O7  1  0.40015600  0.12172800  0.28065300  1
  O  O8  1  0.38154600  0.62176300  0.28180100  1
  O  O9  1  0.84048300  0.12189200  0.24132100  1
  O  O10  1  0.15950700  0.87804600  0.75865200  1
  O  O11  1  0.61823700  0.37824800  0.71796400  1
  O  O12  1  0.59996100  0.87826700  0.71929600  1
  O  O13  1  0.09960800  0.37815300  0.76053800  1
  O  O14  1  0.12003500  0.87856900  0.27784200  1
  O  O15  1  0.65968500  0.37847900  0.27873900  1
loop_
_geom_bond_atom_site_label_1
_geom_bond_atom_site_label_2
_geom_bond_distance
_geom_bond_site_symmetry_2
Li0 O9 1.956481 1_455
Li0 O5 1.956981 1_454
Li0 O7 1.958017 1_555
Li0 O0 2.132071 1_555
Li1 O4 1.952840 1_554
Li1 O8 1.953262 1_555
Li1 O6 1.953818 1_555
Li1 O1 2.143069 1_555
Li2 O15 1.952690 1_556
Li2 O11 1.954043 1_555
Li2 O13 1.954929 1_555
Li2 O2 2.143436 1_555
Li3 O14 1.956368 1_656
Li3 O10 1.956542 1_655
Li3 O12 1.957899 1_555
Li3 O3 2.131377 1_555
Ni0 O2 1.933732 1_565
Ni0 O1 1.934208 1_555
Ni0 O12 1.943259 1_555
Ni0 O7 1.943380 1_565
Ni0 O14 2.110817 1_555
Ni0 O5 2.111082 1_565
Ni1 O2 1.929557 1_555
Ni1 O1 1.930206 1_445
Ni1 O14 1.951733 1_545
Ni1 O5 1.952124 1_455
Ni1 O9 2.111095 1_455
Ni1 O10 2.111986 1_545
Ni2 O3 1.925294 1_555
Ni2 O0 1.925346 1_656
Ni2 O13 1.941887 1_655
Ni2 O6 1.942455 1_556
Ni2 O11 2.119233 1_555
Ni2 O8 2.120241 1_656
Ni3 O3 1.929963 1_455
Ni3 O0 1.930259 1_555
Ni3 O4 1.944145 1_555
Ni3 O15 1.944218 1_455
Ni3 O6 2.118534 1_455
Ni3 O13 2.118870 1_555
Ni4 O0 1.930851 1_555
Ni4 O3 1.930874 1_555
Ni4 O11 1.938417 1_555
Ni4 O8 1.938702 1_555
Ni4 O15 2.116531 1_555
Ni4 O4 2.117379 1_555
Ni5 O2 1.925466 1_565
Ni5 O1 1.925557 1_556
Ni5 O10 1.946062 1_555
Ni5 O9 1.946355 1_566
Ni5 O12 2.115856 1_555
Ni5 O7 2.116371 1_566
O4 Sb0 2.016045 1_555
O5 Sb1 2.013787 1_555
O6 Sb0 2.015981 1_655
O7 Sb1 2.016265 1_555
O8 Sb0 2.017801 1_555
O9 Sb1 2.014594 1_555
O10 Sb0 2.014523 1_555
O11 Sb1 2.018173 1_555
O12 Sb0 2.016511 1_555
O13 Sb1 2.016249 1_455
O14 Sb0 2.014009 1_555
O15 Sb1 2.016456 1_555
