# generated using pymatgen
data_CoPH8C3N3O7
_symmetry_space_group_name_H-M   'P 1'
_cell_length_a   7.48945100
_cell_length_b   8.94002456
_cell_length_c   15.64528356
_cell_angle_alpha   101.48790436
_cell_angle_beta   90.00000000
_cell_angle_gamma   90.00000000
_symmetry_Int_Tables_number   1
_chemical_formula_structural   CoPH8C3N3O7
_chemical_formula_sum   'Co4 P4 H32 C12 N12 O28'
_cell_volume   1026.55798239
_cell_formula_units_Z   4
loop_
 _symmetry_equiv_pos_site_id
 _symmetry_equiv_pos_as_xyz
  1  'x, y, z'
loop_
 _atom_site_type_symbol
 _atom_site_label
 _atom_site_symmetry_multiplicity
 _atom_site_fract_x
 _atom_site_fract_y
 _atom_site_fract_z
 _atom_site_occupancy
  Co  Co0  1  0.97344200  0.28810100  0.60505500  1
  Co  Co1  1  0.52655800  0.78810100  0.10505500  1
  Co  Co2  1  0.02655800  0.71189900  0.39494500  1
  Co  Co3  1  0.47344200  0.21189900  0.89494500  1
  P  P0  1  0.62256600  0.36795300  0.73440700  1
  P  P1  1  0.87743400  0.86795300  0.23440700  1
  P  P2  1  0.37743400  0.63204700  0.26559300  1
  P  P3  1  0.12256600  0.13204700  0.76559300  1
  H  H0  1  0.55724300  0.50406500  0.78633900  1
  H  H1  1  0.94275700  0.00406500  0.28633900  1
  H  H2  1  0.44275700  0.49593500  0.21366100  1
  H  H3  1  0.05724300  0.99593500  0.71366100  1
  H  H4  1  0.35376700  0.28822000  0.68153100  1
  H  H5  1  0.14623300  0.78822000  0.18153100  1
  H  H6  1  0.64623300  0.71178000  0.31846900  1
  H  H7  1  0.85376700  0.21178000  0.81846900  1
  H  H8  1  0.62736300  0.77023000  0.52618300  1
  H  H9  1  0.87263700  0.27023000  0.02618300  1
  H  H10  1  0.37263700  0.22977000  0.47381700  1
  H  H11  1  0.12736300  0.72977000  0.97381700  1
  H  H12  1  0.42199600  0.67407800  0.52713800  1
  H  H13  1  0.07800400  0.17407800  0.02713800  1
  H  H14  1  0.57800400  0.32592200  0.47286200  1
  H  H15  1  0.92199600  0.82592200  0.97286200  1
  H  H16  1  0.68562600  0.97006100  0.64348600  1
  H  H17  1  0.81437400  0.47006100  0.14348600  1
  H  H18  1  0.31437400  0.02993900  0.35651400  1
  H  H19  1  0.18562600  0.52993900  0.85651400  1
  H  H20  1  0.56979400  0.97917900  0.74024100  1
  H  H21  1  0.93020600  0.47917900  0.24024100  1
  H  H22  1  0.43020600  0.02082100  0.25975900  1
  H  H23  1  0.06979400  0.52082100  0.75975900  1
  H  H24  1  0.33419100  0.81992100  0.74875000  1
  H  H25  1  0.16580900  0.31992100  0.24875000  1
  H  H26  1  0.66580900  0.18007900  0.25125000  1
  H  H27  1  0.83419100  0.68007900  0.75125000  1
  H  H28  1  0.28432400  0.66755300  0.66218600  1
  H  H29  1  0.21567600  0.16755300  0.16218600  1
  H  H30  1  0.71567600  0.33244700  0.33781400  1
  H  H31  1  0.78432400  0.83244700  0.83781400  1
  C  C0  1  0.08624900  0.02453700  0.47937100  1
  C  C1  1  0.41375100  0.52453700  0.97937100  1
  C  C2  1  0.91375100  0.97546300  0.52062900  1
  C  C3  1  0.58624900  0.47546300  0.02062900  1
  C  C4  1  0.07471400  0.54203200  0.52981100  1
  C  C5  1  0.42528600  0.04203200  0.02981100  1
  C  C6  1  0.92528600  0.45796800  0.47018900  1
  C  C7  1  0.57471400  0.95796800  0.97018900  1
  C  C8  1  0.49769800  0.80281900  0.64316600  1
  C  C9  1  0.00230200  0.30281900  0.14316600  1
  C  C10  1  0.50230200  0.19718100  0.35683400  1
  C  C11  1  0.99769800  0.69718100  0.85683400  1
  N  N0  1  0.52592200  0.73245400  0.56043300  1
  N  N1  1  0.97407800  0.23245400  0.06043300  1
  N  N2  1  0.47407800  0.26754600  0.43956700  1
  N  N3  1  0.02592200  0.76754600  0.93956700  1
  N  N4  1  0.60698700  0.91520000  0.68168600  1
  N  N5  1  0.89301300  0.41520000  0.18168600  1
  N  N6  1  0.39301300  0.08480000  0.31831400  1
  N  N7  1  0.10698700  0.58480000  0.81831400  1
  N  N8  1  0.36583400  0.75592500  0.68958700  1
  N  N9  1  0.13416600  0.25592500  0.18958700  1
  N  N10  1  0.63416600  0.24407500  0.31041300  1
  N  N11  1  0.86583400  0.74407500  0.81041300  1
  O  O0  1  0.47583300  0.31620300  0.66172700  1
  O  O1  1  0.02416700  0.81620300  0.16172700  1
  O  O2  1  0.52416700  0.68379700  0.33827300  1
  O  O3  1  0.97583300  0.18379700  0.83827300  1
  O  O4  1  0.64591700  0.25098100  0.79365900  1
  O  O5  1  0.85408300  0.75098100  0.29365900  1
  O  O6  1  0.35408300  0.74901900  0.20634100  1
  O  O7  1  0.14591700  0.24901900  0.70634100  1
  O  O8  1  0.79164100  0.40820200  0.69061700  1
  O  O9  1  0.70835900  0.90820200  0.19061700  1
  O  O10  1  0.20835900  0.59179800  0.30938300  1
  O  O11  1  0.29164100  0.09179800  0.80938300  1
  O  O12  1  0.14668900  0.15640400  0.51054300  1
  O  O13  1  0.35331100  0.65640400  0.01054300  1
  O  O14  1  0.85331100  0.84359600  0.48945700  1
  O  O15  1  0.64668900  0.34359600  0.98945700  1
  O  O16  1  0.15411500  0.92952200  0.41649000  1
  O  O17  1  0.34588500  0.42952200  0.91649000  1
  O  O18  1  0.84588500  0.07047800  0.58351000  1
  O  O19  1  0.65411500  0.57047800  0.08351000  1
  O  O20  1  0.10996500  0.49597900  0.59978100  1
  O  O21  1  0.39003500  0.99597900  0.09978100  1
  O  O22  1  0.89003500  0.50402100  0.40021900  1
  O  O23  1  0.60996500  0.00402100  0.90021900  1
  O  O24  1  0.15183500  0.65188500  0.50473200  1
  O  O25  1  0.34816500  0.15188500  0.00473200  1
  O  O26  1  0.84816500  0.34811500  0.49526800  1
  O  O27  1  0.65183500  0.84811500  0.99526800  1
loop_
_geom_bond_atom_site_label_1
_geom_bond_atom_site_label_2
_geom_bond_distance
_geom_bond_site_symmetry_2
Co0 O8 2.055778 1_555
Co0 O26 2.117919 1_555
Co0 O7 2.126576 1_655
Co0 O18 2.133130 1_555
Co0 O12 2.136067 1_655
Co0 O20 2.137086 1_655
Co1 O9 2.055778 1_555
Co1 O27 2.117919 1_554
Co1 O6 2.126576 1_555
Co1 O19 2.133130 1_555
Co1 O13 2.136067 1_555
Co1 O21 2.137086 1_555
Co2 O10 2.055778 1_555
Co2 O24 2.117919 1_555
Co2 O5 2.126576 1_455
Co2 O16 2.133130 1_555
Co2 O14 2.136067 1_455
Co2 O22 2.137086 1_455
Co3 O11 2.055778 1_555
Co3 O25 2.117919 1_556
Co3 O4 2.126576 1_555
Co3 O17 2.133130 1_555
Co3 O15 2.136067 1_555
Co3 O23 2.137086 1_555
H0 P0 1.409394 1_555
H1 P1 1.409394 1_545
H2 P2 1.409394 1_555
H3 P3 1.409394 1_565
H4 O0 1.012539 1_555
H4 O7 1.658594 1_555
H5 O1 1.012539 1_555
H5 O6 1.658594 1_555
H6 O2 1.012539 1_555
H6 O5 1.658594 1_555
H7 O3 1.012539 1_555
H7 O4 1.658594 1_555
H8 N0 1.024926 1_555
H9 N1 1.024926 1_555
H10 N2 1.024926 1_555
H11 N3 1.024926 1_555
H12 N0 1.020417 1_555
H13 N1 1.020417 1_455
H14 N2 1.020417 1_555
H15 N3 1.020417 1_655
H16 N4 1.030228 1_555
H17 N5 1.030228 1_555
H18 N6 1.030228 1_555
H19 N7 1.030228 1_555
H20 N4 1.017490 1_555
H21 N5 1.017490 1_555
H22 N6 1.017490 1_555
H23 N7 1.017490 1_555
H24 N8 1.014558 1_555
H25 N9 1.014558 1_555
H26 N10 1.014558 1_555
H27 N11 1.014558 1_555
H28 N8 1.022603 1_555
H29 N9 1.022603 1_555
H30 N10 1.022603 1_555
H31 N11 1.022603 1_555
C0 O12 1.266305 1_555
C0 O16 1.270775 1_545
C1 O13 1.266305 1_556
C1 O17 1.270775 1_555
C2 O14 1.266305 1_555
C2 O18 1.270775 1_565
C3 O15 1.266305 1_554
C3 O19 1.270775 1_555
C4 O24 1.267105 1_555
C4 O20 1.271655 1_555
C5 O25 1.267105 1_555
C5 O21 1.271655 1_545
C6 O26 1.267105 1_555
C6 O22 1.271655 1_555
C7 O27 1.267105 1_555
C7 O23 1.271655 1_565
C8 N0 1.338467 1_555
C8 N8 1.341580 1_555
C8 N4 1.342156 1_555
C9 N1 1.338467 1_455
C9 N9 1.341580 1_555
C9 N5 1.342156 1_455
C10 N2 1.338467 1_555
C10 N10 1.341580 1_555
C10 N6 1.342156 1_555
C11 N3 1.338467 1_655
C11 N11 1.341580 1_555
C11 N7 1.342156 1_655
O0 P0 1.582776 1_555
O1 P1 1.582776 1_455
O2 P2 1.582776 1_555
O3 P3 1.582776 1_655
O4 P0 1.539362 1_555
O5 P1 1.539362 1_555
O6 P2 1.539362 1_555
O7 P3 1.539362 1_555
O8 P0 1.516741 1_555
O9 P1 1.516741 1_555
O10 P2 1.516741 1_555
O11 P3 1.516741 1_555
