# generated using pymatgen
data_ZnCr3P3O13
_symmetry_space_group_name_H-M   'P 1'
_cell_length_a   6.31695800
_cell_length_b   7.51654300
_cell_length_c   10.16285366
_cell_angle_alpha   79.53458982
_cell_angle_beta   90.00000000
_cell_angle_gamma   90.00000000
_symmetry_Int_Tables_number   1
_chemical_formula_structural   ZnCr3P3O13
_chemical_formula_sum   'Zn2 Cr6 P6 O26'
_cell_volume   474.52209805
_cell_formula_units_Z   2
loop_
 _symmetry_equiv_pos_site_id
 _symmetry_equiv_pos_as_xyz
  1  'x, y, z'
loop_
 _atom_site_type_symbol
 _atom_site_label
 _atom_site_symmetry_multiplicity
 _atom_site_fract_x
 _atom_site_fract_y
 _atom_site_fract_z
 _atom_site_occupancy
  Zn  Zn0  1  0.75000000  0.37108700  0.17965600  1
  Zn  Zn1  1  0.25000000  0.62891300  0.82034400  1
  Cr  Cr0  1  0.25000000  0.64053100  0.20125800  1
  Cr  Cr1  1  0.75000000  0.35946900  0.79874200  1
  Cr  Cr2  1  0.25000000  0.22690000  0.43650600  1
  Cr  Cr3  1  0.50000000  0.00000000  0.00000000  1
  Cr  Cr4  1  0.75000000  0.77310000  0.56349400  1
  Cr  Cr5  1  0.00000000  0.00000000  0.00000000  1
  P  P0  1  0.25000000  0.78792800  0.49116800  1
  P  P1  1  0.75000000  0.21207200  0.50883200  1
  P  P2  1  0.25000000  0.26652600  0.76382500  1
  P  P3  1  0.75000000  0.73347400  0.23617500  1
  P  P4  1  0.75000000  0.68313400  0.88920900  1
  P  P5  1  0.25000000  0.31686600  0.11079100  1
  O  O0  1  0.75000000  0.63636100  0.74647800  1
  O  O1  1  0.56021600  0.25125900  0.41009800  1
  O  O2  1  0.25000000  0.20787400  0.62980600  1
  O  O3  1  0.54161400  0.78658700  0.90353500  1
  O  O4  1  0.75000000  0.34416600  0.60808500  1
  O  O5  1  0.75000000  0.11997300  0.90126800  1
  O  O6  1  0.25000000  0.65583400  0.39191500  1
  O  O7  1  0.04161400  0.21341300  0.09646500  1
  O  O8  1  0.25000000  0.98170200  0.40866600  1
  O  O9  1  0.75000000  0.01829800  0.59133400  1
  O  O10  1  0.06321400  0.38953800  0.78947000  1
  O  O11  1  0.25000000  0.88002700  0.09873200  1
  O  O12  1  0.56321400  0.61046200  0.21053000  1
  O  O13  1  0.75000000  0.48738900  0.97318200  1
  O  O14  1  0.75000000  0.79212600  0.37019400  1
  O  O15  1  0.45838600  0.21341300  0.09646500  1
  O  O16  1  0.93978400  0.25125900  0.41009800  1
  O  O17  1  0.43978400  0.74874100  0.58990200  1
  O  O18  1  0.43678600  0.38953800  0.78947000  1
  O  O19  1  0.25000000  0.36363900  0.25352200  1
  O  O20  1  0.75000000  0.90908300  0.12492200  1
  O  O21  1  0.25000000  0.09091700  0.87507800  1
  O  O22  1  0.93678600  0.61046200  0.21053000  1
  O  O23  1  0.95838600  0.78658700  0.90353500  1
  O  O24  1  0.06021600  0.74874100  0.58990200  1
  O  O25  1  0.25000000  0.51261100  0.02681800  1
loop_
_geom_bond_atom_site_label_1
_geom_bond_atom_site_label_2
_geom_bond_distance
_geom_bond_site_symmetry_2
Cr0 O11 1.909166 1_555
Cr0 O6 1.961776 1_555
Cr0 O12 1.991714 1_555
Cr0 O22 1.991714 1_455
Cr0 O19 2.052367 1_555
Cr0 O25 2.164858 1_555
Cr1 O5 1.909166 1_555
Cr1 O4 1.961776 1_555
Cr1 O18 1.991714 1_555
Cr1 O10 1.991714 1_655
Cr1 O0 2.052367 1_555
Cr1 O13 2.164858 1_555
Cr2 O8 1.914756 1_545
Cr2 O2 1.943597 1_555
Cr2 O19 1.954554 1_555
Cr2 O1 1.981872 1_555
Cr2 O16 1.981872 1_455
Cr3 O11 1.996322 1_545
Cr3 O5 1.996322 1_554
Cr3 O3 2.043219 1_544
Cr3 O15 2.043219 1_555
Cr3 O21 2.063399 1_554
Cr3 O20 2.063399 1_545
Cr4 O9 1.914756 1_565
Cr4 O14 1.943597 1_555
Cr4 O0 1.954554 1_555
Cr4 O17 1.981872 1_555
Cr4 O24 1.981872 1_655
Cr5 O11 1.996322 1_545
Cr5 O5 1.996322 1_454
Cr5 O23 2.043219 1_444
Cr5 O7 2.043219 1_555
Cr5 O21 2.063399 1_554
Cr5 O20 2.063399 1_445
O0 P4 1.553375 1_555
O1 P1 1.556759 1_555
O2 P2 1.505849 1_555
O3 P4 1.549135 1_555
O3 Zn1 2.424212 1_555
O4 P1 1.538548 1_555
O6 P0 1.538548 1_555
O7 P5 1.549135 1_555
O7 Zn0 2.424212 1_455
O8 P0 1.542978 1_555
O9 P1 1.542978 1_555
O10 P2 1.550036 1_555
O10 Zn1 2.221066 1_555
O12 P3 1.550036 1_555
O12 Zn0 2.221066 1_555
O13 P4 1.561072 1_555
O13 Zn0 2.121543 1_556
O14 P3 1.505849 1_555
O15 P5 1.549135 1_555
O15 Zn0 2.424212 1_555
O16 P1 1.556759 1_555
O17 P0 1.556759 1_555
O18 P2 1.550036 1_555
O18 Zn1 2.221066 1_555
O19 P5 1.553375 1_555
O20 P3 1.574331 1_555
O21 P2 1.574331 1_555
O22 P3 1.550036 1_555
O22 Zn0 2.221066 1_555
O23 P4 1.549135 1_555
O23 Zn1 2.424212 1_655
O24 P0 1.556759 1_555
O25 P5 1.561072 1_555
O25 Zn1 2.121543 1_554
