# generated using pymatgen
data_Mg(Mo3O8)2
_symmetry_space_group_name_H-M   'P 1'
_cell_length_a   6.17990412
_cell_length_b   6.17990412
_cell_length_c   9.56048000
_cell_angle_alpha   90.00000000
_cell_angle_beta   90.00000000
_cell_angle_gamma   120.00000133
_symmetry_Int_Tables_number   1
_chemical_formula_structural   Mg(Mo3O8)2
_chemical_formula_sum   'Mg1 Mo6 O16'
_cell_volume   316.20868786
_cell_formula_units_Z   1
loop_
 _symmetry_equiv_pos_site_id
 _symmetry_equiv_pos_as_xyz
  1  'x, y, z'
loop_
 _atom_site_type_symbol
 _atom_site_label
 _atom_site_symmetry_multiplicity
 _atom_site_fract_x
 _atom_site_fract_y
 _atom_site_fract_z
 _atom_site_occupancy
  Mg  Mg0  1  0.66666700  0.33333300  0.03060300  1
  Mo  Mo0  1  0.66264700  0.83132400  0.25046600  1
  Mo  Mo1  1  0.83377500  0.16622500  0.74628600  1
  Mo  Mo2  1  0.16867600  0.33735300  0.25046600  1
  Mo  Mo3  1  0.83377500  0.66754900  0.74628600  1
  Mo  Mo4  1  0.33245100  0.16622500  0.74628600  1
  Mo  Mo5  1  0.16867600  0.83132400  0.25046600  1
  O  O0  1  0.84141400  0.15858600  0.14261200  1
  O  O1  1  0.69936100  0.84968100  0.64616900  1
  O  O2  1  0.15031900  0.30063900  0.64616900  1
  O  O3  1  0.84141400  0.68282800  0.14261200  1
  O  O4  1  0.31717200  0.15858600  0.14261200  1
  O  O5  1  0.15031900  0.84968100  0.64616900  1
  O  O6  1  0.52734000  0.47266000  0.86583800  1
  O  O7  1  0.04583700  0.52291800  0.35616700  1
  O  O8  1  0.47708200  0.95416300  0.35616700  1
  O  O9  1  0.52734000  0.05467900  0.86583800  1
  O  O10  1  0.00000000  0.00000000  0.35475000  1
  O  O11  1  0.00000000  0.00000000  0.86122600  1
  O  O12  1  0.33333300  0.66666700  0.13224600  1
  O  O13  1  0.94532100  0.47266000  0.86583800  1
  O  O14  1  0.47708200  0.52291800  0.35616700  1
  O  O15  1  0.66666700  0.33333300  0.63456700  1
loop_
_geom_bond_atom_site_label_1
_geom_bond_atom_site_label_2
_geom_bond_distance
_geom_bond_site_symmetry_2
Mg0 O0 2.155324 1_555
Mg0 O3 2.155328 1_555
Mg0 O4 2.155328 1_555
Mg0 O9 2.169208 1_554
Mg0 O13 2.169208 1_554
Mg0 O6 2.169208 1_554
Mo0 O8 1.945031 1_555
Mo0 O14 1.945039 1_555
Mo0 O0 2.034628 1_565
Mo0 O3 2.034633 1_555
Mo0 O10 2.062484 1_665
Mo0 O12 2.093742 1_555
Mo1 O1 1.951404 1_545
Mo1 O2 1.951404 1_655
Mo1 O9 2.015539 1_555
Mo1 O13 2.015539 1_555
Mo1 O15 2.083336 1_555
Mo1 O11 2.091243 1_655
Mo2 O7 1.945031 1_555
Mo2 O14 1.945039 1_555
Mo2 O0 2.034628 1_455
Mo2 O4 2.034633 1_555
Mo2 O10 2.062484 1_555
Mo2 O12 2.093742 1_555
Mo3 O5 1.951405 1_655
Mo3 O1 1.951414 1_555
Mo3 O6 2.015539 1_555
Mo3 O13 2.015539 1_555
Mo3 O15 2.083336 1_555
Mo3 O11 2.091247 1_665
Mo4 O5 1.951405 1_545
Mo4 O2 1.951414 1_555
Mo4 O6 2.015539 1_555
Mo4 O9 2.015539 1_555
Mo4 O15 2.083336 1_555
Mo4 O11 2.091247 1_555
Mo5 O7 1.945040 1_555
Mo5 O8 1.945040 1_555
Mo5 O3 2.034628 1_455
Mo5 O4 2.034628 1_565
Mo5 O10 2.062480 1_565
Mo5 O12 2.093742 1_555
