# generated using pymatgen
data_Ca10P6O25
_symmetry_space_group_name_H-M   'P 1'
_cell_length_a   9.59226597
_cell_length_b   9.59226597
_cell_length_c   6.89958500
_cell_angle_alpha   90.00000000
_cell_angle_beta   90.00000000
_cell_angle_gamma   119.99999979
_symmetry_Int_Tables_number   1
_chemical_formula_structural   Ca10P6O25
_chemical_formula_sum   'Ca10 P6 O25'
_cell_volume   549.78897451
_cell_formula_units_Z   1
loop_
 _symmetry_equiv_pos_site_id
 _symmetry_equiv_pos_as_xyz
  1  'x, y, z'
loop_
 _atom_site_type_symbol
 _atom_site_label
 _atom_site_symmetry_multiplicity
 _atom_site_fract_x
 _atom_site_fract_y
 _atom_site_fract_z
 _atom_site_occupancy
  Ca  Ca0  1  0.33333300  0.66666700  0.50453400  1
  Ca  Ca1  1  0.00000000  0.00000000  0.99826100  1
  Ca  Ca2  1  0.00000000  0.00000000  0.50601800  1
  Ca  Ca3  1  0.33333300  0.66666700  0.99047500  1
  Ca  Ca4  1  0.67034500  0.56181400  0.74731100  1
  Ca  Ca5  1  0.43818600  0.10853100  0.74731100  1
  Ca  Ca6  1  0.89146900  0.32965500  0.74731100  1
  Ca  Ca7  1  0.66854500  0.05676200  0.24959000  1
  Ca  Ca8  1  0.94323800  0.61178300  0.24959000  1
  Ca  Ca9  1  0.38821700  0.33145500  0.24959000  1
  P  P0  1  0.04325500  0.74004400  0.75045700  1
  P  P1  1  0.25995600  0.30321100  0.75045700  1
  P  P2  1  0.69678900  0.95674500  0.75045700  1
  P  P3  1  0.30992700  0.94661300  0.24812700  1
  P  P4  1  0.05338700  0.36331400  0.24812700  1
  P  P5  1  0.63668600  0.69007300  0.24812700  1
  O  O0  1  0.93650400  0.69018600  0.56526700  1
  O  O1  1  0.30981400  0.24631700  0.56526700  1
  O  O2  1  0.75368300  0.06349600  0.56526700  1
  O  O3  1  0.42409100  0.00976100  0.07082200  1
  O  O4  1  0.99023900  0.41433000  0.07082200  1
  O  O5  1  0.58567000  0.57590900  0.07082200  1
  O  O6  1  0.42096700  0.00280600  0.42824700  1
  O  O7  1  0.99719400  0.41816100  0.42824700  1
  O  O8  1  0.58183900  0.57903300  0.42824700  1
  O  O9  1  0.93173300  0.68058200  0.93104600  1
  O  O10  1  0.31941800  0.25115100  0.93104600  1
  O  O11  1  0.74884900  0.06826700  0.93104600  1
  O  O12  1  0.13796300  0.92781600  0.75626500  1
  O  O13  1  0.07218400  0.21014700  0.75626500  1
  O  O14  1  0.78985300  0.86203700  0.75626500  1
  O  O15  1  0.21836800  0.75715500  0.24429200  1
  O  O16  1  0.24284500  0.46121300  0.24429200  1
  O  O17  1  0.53878700  0.78163200  0.24429200  1
  O  O18  1  0.15776500  0.66945100  0.74826000  1
  O  O19  1  0.33054900  0.48831400  0.74826000  1
  O  O20  1  0.51168600  0.84223500  0.74826000  1
  O  O21  1  0.18455300  0.00464100  0.24972600  1
  O  O22  1  0.99535900  0.17991200  0.24972600  1
  O  O23  1  0.82008800  0.81544700  0.24972600  1
  O  O24  1  0.66666700  0.33333300  0.73048700  1
loop_
_geom_bond_atom_site_label_1
_geom_bond_atom_site_label_2
_geom_bond_distance
_geom_bond_site_symmetry_2
Ca0 O18 2.389491 1_555
Ca0 O20 2.389495 1_555
Ca0 O19 2.389498 1_555
Ca0 O15 2.480069 1_555
Ca0 O17 2.480075 1_555
Ca0 O16 2.480075 1_555
Ca0 O6 2.944418 1_565
Ca0 O7 2.944420 1_455
Ca0 O8 2.944427 1_555
Ca1 O12 2.436161 1_545
Ca1 O13 2.436161 1_555
Ca1 O14 2.436161 1_445
Ca1 O22 2.463191 1_456
Ca1 O21 2.463191 1_556
Ca1 O23 2.463191 1_446
Ca1 O11 2.832886 1_455
Ca1 O9 2.832886 1_445
Ca1 O10 2.832886 1_555
Ca2 O12 2.475525 1_545
Ca2 O13 2.475525 1_555
Ca2 O14 2.475525 1_445
Ca2 O22 2.486762 1_455
Ca2 O21 2.486762 1_555
Ca2 O23 2.486762 1_445
Ca2 O2 2.749488 1_455
Ca2 O1 2.749494 1_555
Ca2 O0 2.749497 1_445
Ca3 O18 2.382166 1_555
Ca3 O20 2.382170 1_555
Ca3 O19 2.382173 1_555
Ca3 O15 2.448166 1_556
Ca3 O17 2.448171 1_556
Ca3 O16 2.448172 1_556
Ca4 O24 2.177321 1_555
Ca4 O8 2.394674 1_555
Ca4 O5 2.402090 1_556
Ca4 O14 2.511973 1_555
Ca4 O9 2.516956 1_555
Ca4 O0 2.543278 1_555
Ca4 O19 2.970337 1_555
Ca5 O24 2.177317 1_555
Ca5 O6 2.394674 1_555
Ca5 O3 2.402090 1_556
Ca5 O12 2.511973 1_545
Ca5 O10 2.516956 1_555
Ca5 O1 2.543271 1_555
Ca5 O20 2.970337 1_545
Ca6 O24 2.177312 1_555
Ca6 O7 2.394674 1_555
Ca6 O4 2.402090 1_556
Ca6 O13 2.511973 1_655
Ca6 O11 2.516956 1_555
Ca6 O2 2.543278 1_555
Ca6 O18 2.970337 1_655
Ca7 O17 2.287064 1_545
Ca7 O11 2.313211 1_554
Ca7 O2 2.315648 1_555
Ca7 O3 2.483109 1_555
Ca7 O6 2.489585 1_555
Ca7 O22 2.742217 1_555
Ca8 O15 2.287064 1_655
Ca8 O9 2.313211 1_554
Ca8 O0 2.315644 1_555
Ca8 O4 2.483109 1_555
Ca8 O7 2.489585 1_555
Ca8 O23 2.742217 1_555
Ca9 O16 2.287064 1_555
Ca9 O10 2.313211 1_554
Ca9 O1 2.315646 1_555
Ca9 O5 2.483109 1_555
Ca9 O8 2.489585 1_555
Ca9 O21 2.742217 1_555
O0 P0 1.555683 1_655
O1 P1 1.555688 1_555
O2 P2 1.555683 1_545
O3 P3 1.548981 1_545
O4 P4 1.548981 1_655
O5 P5 1.548981 1_555
O6 P3 1.547691 1_545
O7 P4 1.547691 1_655
O8 P5 1.547691 1_555
O9 P0 1.553068 1_655
O10 P1 1.553068 1_555
O11 P2 1.553068 1_545
O12 P0 1.560384 1_555
O13 P1 1.560384 1_555
O14 P2 1.560384 1_555
O15 P3 1.574371 1_555
O16 P4 1.574371 1_555
O17 P5 1.574371 1_555
O18 P0 1.552111 1_555
O19 P1 1.552111 1_555
O20 P2 1.552111 1_555
O21 P3 1.557449 1_545
O22 P4 1.557449 1_655
O23 P5 1.557449 1_555
