# generated using pymatgen
data_UFeCo
_symmetry_space_group_name_H-M   'P 1'
_cell_length_a   4.83884628
_cell_length_b   4.83869162
_cell_length_c   4.84143728
_cell_angle_alpha   121.63221104
_cell_angle_beta   119.12945022
_cell_angle_gamma   89.33629302
_symmetry_Int_Tables_number   1
_chemical_formula_structural   UFeCo
_chemical_formula_sum   'U2 Fe2 Co2'
_cell_volume   79.65283368
_cell_formula_units_Z   2
loop_
 _symmetry_equiv_pos_site_id
 _symmetry_equiv_pos_as_xyz
  1  'x, y, z'
loop_
 _atom_site_type_symbol
 _atom_site_label
 _atom_site_symmetry_multiplicity
 _atom_site_fract_x
 _atom_site_fract_y
 _atom_site_fract_z
 _atom_site_occupancy
  U  U0  1  0.12004568  0.86985973  0.25034409  1
  U  U1  1  0.87995432  0.13014027  0.74965591  1
  Fe  Fe0  1  0.50000000  0.50000000  -0.00000000  1
  Fe  Fe1  1  -0.00000000  0.50000000  0.50000000  1
  Co  Co0  1  0.50000000  0.50000000  0.50000000  1
  Co  Co1  1  0.50000000  -0.00000000  -0.00000000  1
loop_
_geom_bond_atom_site_label_1
_geom_bond_atom_site_label_2
_geom_bond_distance
_geom_bond_site_symmetry_2
U0 U1 2.878617 1_465
U0 U1 2.879349 1_454
U0 U1 3.034906 1_565
U0 U1 3.039486 1_464
Fe0 Fe1 2.451845 1_655
Fe0 Fe1 2.451845 1_554
Fe0 U1 2.805361 1_554
Fe0 U0 2.805361 1_555
Fe0 U0 2.806292 1_544
Fe0 U1 2.806292 1_565
Fe0 U1 2.825330 1_454
Fe0 U0 2.825330 1_655
Fe1 U0 2.805694 1_545
Fe1 U1 2.805694 1_465
Fe1 U1 2.808437 1_454
Fe1 U0 2.808437 1_556
Fe1 U1 2.824494 1_455
Fe1 U0 2.824494 1_555
Co0 Co1 2.360085 1_555
Co0 Co1 2.360085 1_566
Co0 Fe1 2.419423 1_655
Co0 Fe1 2.419423 1_555
Co0 Fe0 2.420719 1_556
Co0 Fe0 2.420719 1_555
Co0 U1 2.841340 1_555
Co0 U0 2.841340 1_555
Co0 U1 2.845207 1_454
Co0 U0 2.845207 1_656
Co0 U0 2.870293 1_545
Co0 U1 2.870293 1_565
Co1 Fe0 2.419346 1_545
Co1 Fe0 2.419346 1_555
Co1 Fe1 2.420180 1_544
Co1 Fe1 2.420180 1_655
Co1 U1 2.842968 1_555
Co1 U0 2.842968 1_544
Co1 U1 2.843209 1_454
Co1 U0 2.843209 1_645
Co1 U0 2.870996 1_545
Co1 U1 2.870996 1_554
