# generated using pymatgen
data_LuZr3
_symmetry_space_group_name_H-M   'P 1'
_cell_length_a   6.61720810
_cell_length_b   6.61720810
_cell_length_c   5.17676627
_cell_angle_alpha   90.00000000
_cell_angle_beta   90.00000000
_cell_angle_gamma   119.99996216
_symmetry_Int_Tables_number   1
_chemical_formula_structural   LuZr3
_chemical_formula_sum   'Lu2 Zr6'
_cell_volume   196.30842521
_cell_formula_units_Z   2
loop_
 _symmetry_equiv_pos_site_id
 _symmetry_equiv_pos_as_xyz
  1  'x, y, z'
loop_
 _atom_site_type_symbol
 _atom_site_label
 _atom_site_symmetry_multiplicity
 _atom_site_fract_x
 _atom_site_fract_y
 _atom_site_fract_z
 _atom_site_occupancy
  Lu  Lu0  1  0.33333300  0.66666700  0.75000000  1
  Lu  Lu1  1  0.66666700  0.33333300  0.25000000  1
  Zr  Zr0  1  0.16360317  0.32720733  0.25000000  1
  Zr  Zr1  1  0.67279267  0.83639683  0.25000000  1
  Zr  Zr2  1  0.16360317  0.83639683  0.25000000  1
  Zr  Zr3  1  0.83639683  0.67279267  0.75000000  1
  Zr  Zr4  1  0.32720733  0.16360317  0.75000000  1
  Zr  Zr5  1  0.83639683  0.16360317  0.75000000  1
loop_
_geom_bond_atom_site_label_1
_geom_bond_atom_site_label_2
_geom_bond_distance
_geom_bond_site_symmetry_2
Lu0 Zr2 3.237907 1_555
Lu0 Zr2 3.237907 1_556
Lu0 Zr0 3.237907 1_556
Lu0 Zr1 3.237907 1_555
Lu0 Zr1 3.237907 1_556
Lu0 Zr0 3.237907 1_555
Lu0 Zr4 3.308784 1_565
Lu0 Zr3 3.308784 1_455
Lu0 Zr5 3.308792 1_565
Lu0 Zr5 3.308792 1_455
Lu0 Zr4 3.308797 1_555
Lu0 Zr3 3.308797 1_555
Lu1 Zr5 3.237907 1_554
Lu1 Zr5 3.237907 1_555
Lu1 Zr4 3.237907 1_554
Lu1 Zr4 3.237907 1_555
Lu1 Zr3 3.237907 1_555
Lu1 Zr3 3.237907 1_554
Lu1 Zr0 3.308784 1_655
Lu1 Zr1 3.308784 1_545
Lu1 Zr2 3.308792 1_655
Lu1 Zr2 3.308792 1_545
Lu1 Zr1 3.308797 1_555
Lu1 Zr0 3.308797 1_555
Zr0 Zr5 3.196212 1_455
Zr0 Zr5 3.196212 1_454
Zr0 Zr4 3.196218 1_554
Zr0 Zr4 3.196218 1_555
Zr0 Zr2 3.247795 1_545
Zr0 Zr1 3.247797 1_445
Zr0 Zr2 3.369413 1_555
Zr0 Zr1 3.369415 1_555
Zr1 Zr5 3.196212 1_565
Zr1 Zr5 3.196212 1_564
Zr1 Zr3 3.196218 1_555
Zr1 Zr3 3.196218 1_554
Zr1 Zr2 3.247795 1_655
Zr1 Zr2 3.369413 1_555
Zr2 Zr3 3.196212 1_454
Zr2 Zr4 3.196212 1_565
Zr2 Zr4 3.196212 1_564
Zr2 Zr3 3.196212 1_455
Zr3 Zr5 3.247795 1_565
Zr3 Zr4 3.247797 1_665
Zr3 Zr5 3.369413 1_555
Zr3 Zr4 3.369415 1_555
Zr4 Zr5 3.247795 1_455
Zr4 Zr5 3.369413 1_555
