# generated using pymatgen
data_KSmGeSe4
_symmetry_space_group_name_H-M   'P 1'
_cell_length_a   7.11327600
_cell_length_b   6.89854000
_cell_length_c   9.15959467
_cell_angle_alpha   72.32913540
_cell_angle_beta   90.00000000
_cell_angle_gamma   90.00000000
_symmetry_Int_Tables_number   1
_chemical_formula_structural   KSmGeSe4
_chemical_formula_sum   'K2 Sm2 Ge2 Se8'
_cell_volume   428.26454942
_cell_formula_units_Z   2
loop_
 _symmetry_equiv_pos_site_id
 _symmetry_equiv_pos_as_xyz
  1  'x, y, z'
loop_
 _atom_site_type_symbol
 _atom_site_label
 _atom_site_symmetry_multiplicity
 _atom_site_fract_x
 _atom_site_fract_y
 _atom_site_fract_z
 _atom_site_occupancy
  K  K0  1  0.70756000  0.75454000  0.93764200  1
  K  K1  1  0.20756000  0.24546000  0.06235800  1
  Sm  Sm0  1  0.20306200  0.27096900  0.55116000  1
  Sm  Sm1  1  0.70306200  0.72903100  0.44884000  1
  Ge  Ge0  1  0.23701200  0.72265200  0.67369600  1
  Ge  Ge1  1  0.73701200  0.27734800  0.32630400  1
  Se  Se0  1  0.97609200  0.53295900  0.27572200  1
  Se  Se1  1  0.47609200  0.46704100  0.72427800  1
  Se  Se2  1  0.46227400  0.48604700  0.29375000  1
  Se  Se3  1  0.24080700  0.92591900  0.83869900  1
  Se  Se4  1  0.74080700  0.07408100  0.16130100  1
  Se  Se5  1  0.80908300  0.06598800  0.57811200  1
  Se  Se6  1  0.30908300  0.93401200  0.42188800  1
  Se  Se7  1  0.96227400  0.51395300  0.70625000  1
loop_
_geom_bond_atom_site_label_1
_geom_bond_atom_site_label_2
_geom_bond_distance
_geom_bond_site_symmetry_2
K0 Se5 3.418636 1_565
K0 Se4 3.442910 1_566
K0 Se3 3.548515 1_555
K0 Se7 3.558801 1_555
K0 Se0 3.563833 1_556
K0 Se1 3.580093 1_555
K0 Se2 3.666951 1_556
K1 Se6 3.418636 1_545
K1 Se3 3.442910 1_544
K1 Se4 3.548515 1_455
K1 Se2 3.558801 1_555
K1 Se1 3.563833 1_554
K1 Se0 3.580093 1_455
K1 Se7 3.666951 1_454
Ge0 Se3 2.353264 1_555
Ge0 Se6 2.380524 1_555
Ge0 Se1 2.391701 1_555
Ge0 Se7 2.391718 1_455
Ge1 Se4 2.353264 1_555
Ge1 Se5 2.380524 1_555
Ge1 Se0 2.391701 1_555
Ge1 Se2 2.391718 1_555
Se0 Sm1 3.068874 1_555
Se0 Sm0 3.077325 1_655
Se1 Sm0 3.068874 1_555
Se1 Sm1 3.077325 1_555
Se2 Sm0 3.006076 1_555
Se2 Sm1 3.034309 1_555
Se3 Sm0 2.978034 1_565
Se4 Sm1 2.978034 1_545
Se5 Sm1 3.007512 1_545
Se5 Sm0 3.114885 1_655
Se6 Sm0 3.007512 1_565
Se6 Sm1 3.114885 1_555
Se7 Sm1 3.006076 1_555
Se7 Sm0 3.034309 1_655
