# generated using pymatgen
data_Al3BC3
_symmetry_space_group_name_H-M   'P 1'
_cell_length_a   3.42745466
_cell_length_b   3.42745466
_cell_length_c   15.88766400
_cell_angle_alpha   90.00000000
_cell_angle_beta   90.00000000
_cell_angle_gamma   120.00001280
_symmetry_Int_Tables_number   1
_chemical_formula_structural   Al3BC3
_chemical_formula_sum   'Al6 B2 C6'
_cell_volume   161.63449845
_cell_formula_units_Z   2
loop_
 _symmetry_equiv_pos_site_id
 _symmetry_equiv_pos_as_xyz
  1  'x, y, z'
loop_
 _atom_site_type_symbol
 _atom_site_label
 _atom_site_symmetry_multiplicity
 _atom_site_fract_x
 _atom_site_fract_y
 _atom_site_fract_z
 _atom_site_occupancy
  Al  Al0  1  0.00000000  0.00000000  0.75000000  1
  Al  Al1  1  0.00000000  0.00000000  0.25000000  1
  Al  Al2  1  0.66666700  0.33333300  0.87787900  1
  Al  Al3  1  0.33333300  0.66666700  0.12212100  1
  Al  Al4  1  0.33333300  0.66666700  0.37787900  1
  Al  Al5  1  0.66666700  0.33333300  0.62212100  1
  B  B0  1  0.00000000  0.00000000  0.00000000  1
  B  B1  1  0.00000000  0.00000000  0.50000000  1
  C  C0  1  0.66666700  0.33333300  0.75000000  1
  C  C1  1  0.33333300  0.66666700  0.25000000  1
  C  C2  1  0.00000000  0.00000000  0.90924000  1
  C  C3  1  0.00000000  0.00000000  0.09076000  1
  C  C4  1  0.00000000  0.00000000  0.40924000  1
  C  C5  1  0.00000000  0.00000000  0.59076000  1
loop_
_geom_bond_atom_site_label_1
_geom_bond_atom_site_label_2
_geom_bond_distance
_geom_bond_site_symmetry_2
Al0 C0 1.978840 1_455
Al0 C0 1.978843 1_555
Al0 C0 1.978843 1_445
Al0 C2 2.529952 1_555
Al0 C5 2.529952 1_555
Al1 C1 1.978840 1_545
Al1 C1 1.978843 1_555
Al1 C1 1.978843 1_445
Al1 C4 2.529952 1_555
Al1 C3 2.529952 1_555
Al2 C0 2.031699 1_555
Al2 C2 2.040604 1_655
Al2 C2 2.040606 1_555
Al2 C2 2.040606 1_665
Al3 C1 2.031699 1_555
Al3 C3 2.040604 1_565
Al3 C3 2.040606 1_555
Al3 C3 2.040606 1_665
Al4 C1 2.031699 1_555
Al4 C4 2.040604 1_565
Al4 C4 2.040606 1_555
Al4 C4 2.040606 1_665
Al5 C0 2.031699 1_555
Al5 C5 2.040604 1_655
Al5 C5 2.040606 1_665
Al5 C5 2.040606 1_555
B0 C2 1.441964 1_554
B0 C3 1.441964 1_555
B1 C5 1.441964 1_555
B1 C4 1.441964 1_555
