# generated using pymatgen
data_Nb2O5
_symmetry_space_group_name_H-M   'P 1'
_cell_length_a   7.82638001
_cell_length_b   3.85710100
_cell_length_c   6.80290659
_cell_angle_alpha   90.00000000
_cell_angle_beta   89.87991585
_cell_angle_gamma   90.00000000
_symmetry_Int_Tables_number   1
_chemical_formula_structural   Nb2O5
_chemical_formula_sum   'Nb4 O10'
_cell_volume   205.35983035
_cell_formula_units_Z   2
loop_
 _symmetry_equiv_pos_site_id
 _symmetry_equiv_pos_as_xyz
  1  'x, y, z'
loop_
 _atom_site_type_symbol
 _atom_site_label
 _atom_site_symmetry_multiplicity
 _atom_site_fract_x
 _atom_site_fract_y
 _atom_site_fract_z
 _atom_site_occupancy
  Nb  Nb0  1  0.09391100  0.25000000  0.80515700  1
  Nb  Nb1  1  0.27670900  0.25000000  0.26809100  1
  Nb  Nb2  1  0.72329100  0.75000000  0.73190900  1
  Nb  Nb3  1  0.90608900  0.75000000  0.19484300  1
  O  O0  1  0.03115500  0.75000000  0.85596200  1
  O  O1  1  0.17435800  0.25000000  0.55375300  1
  O  O2  1  0.18718700  0.75000000  0.25558000  1
  O  O3  1  0.28449600  0.25000000  0.96945800  1
  O  O4  1  0.49355900  0.25000000  0.31796500  1
  O  O5  1  0.50644100  0.75000000  0.68203500  1
  O  O6  1  0.71550400  0.75000000  0.03054200  1
  O  O7  1  0.81281300  0.25000000  0.74442000  1
  O  O8  1  0.82564200  0.75000000  0.44624700  1
  O  O9  1  0.96884500  0.25000000  0.14403800  1
loop_
_geom_bond_atom_site_label_1
_geom_bond_atom_site_label_2
_geom_bond_distance
_geom_bond_site_symmetry_2
Nb0 O1 1.821248 1_555
Nb0 O3 1.865781 1_555
Nb0 O0 2.019723 1_555
Nb0 O0 2.019723 1_545
Nb0 O7 2.239296 1_455
Nb0 O9 2.502674 1_456
Nb1 O4 1.731430 1_555
Nb1 O3 2.032359 1_554
Nb1 O2 2.053701 1_555
Nb1 O2 2.053701 1_545
Nb1 O1 2.100399 1_555
Nb1 O9 2.554648 1_455
Nb2 O5 1.731430 1_555
Nb2 O6 2.032359 1_556
Nb2 O7 2.053701 1_555
Nb2 O7 2.053701 1_565
Nb2 O8 2.100399 1_555
Nb2 O0 2.554648 1_655
Nb3 O8 1.821248 1_555
Nb3 O6 1.865781 1_555
Nb3 O9 2.019723 1_555
Nb3 O9 2.019723 1_565
Nb3 O2 2.239296 1_655
Nb3 O0 2.502674 1_654
