# generated using pymatgen
data_Na5Y2(SiO4)6
_symmetry_space_group_name_H-M   'P 1'
_cell_length_a   9.03836300
_cell_length_b   9.35350800
_cell_length_c   13.85284397
_cell_angle_alpha   67.53869156
_cell_angle_beta   90.00000000
_cell_angle_gamma   90.00000000
_symmetry_Int_Tables_number   1
_chemical_formula_structural   Na5Y2(SiO4)6
_chemical_formula_sum   'Na10 Y4 Si12 O48'
_cell_volume   1082.28079825
_cell_formula_units_Z   2
loop_
 _symmetry_equiv_pos_site_id
 _symmetry_equiv_pos_as_xyz
  1  'x, y, z'
loop_
 _atom_site_type_symbol
 _atom_site_label
 _atom_site_symmetry_multiplicity
 _atom_site_fract_x
 _atom_site_fract_y
 _atom_site_fract_z
 _atom_site_occupancy
  Na  Na0  1  0.84574100  0.56860700  0.65741200  1
  Na  Na1  1  0.65425900  0.56860700  0.15741200  1
  Na  Na2  1  0.15425900  0.43139300  0.34258800  1
  Na  Na3  1  0.34574100  0.43139300  0.84258800  1
  Na  Na4  1  0.92714300  0.91415800  0.21902200  1
  Na  Na5  1  0.57285700  0.91415800  0.71902200  1
  Na  Na6  1  0.07285700  0.08584200  0.78097800  1
  Na  Na7  1  0.42714300  0.08584200  0.28097800  1
  Na  Na8  1  0.50000000  0.50000000  0.50000000  1
  Na  Na9  1  0.00000000  0.50000000  0.00000000  1
  Y  Y0  1  0.79373000  0.23764600  0.61648000  1
  Y  Y1  1  0.70627000  0.23764600  0.11648000  1
  Y  Y2  1  0.20627000  0.76235400  0.38352000  1
  Y  Y3  1  0.29373000  0.76235400  0.88352000  1
  Si  Si0  1  0.83328200  0.58919100  0.39536200  1
  Si  Si1  1  0.66671800  0.58919100  0.89536200  1
  Si  Si2  1  0.16671800  0.41080900  0.60463800  1
  Si  Si3  1  0.33328200  0.41080900  0.10463800  1
  Si  Si4  1  0.42241500  0.18157900  0.72973000  1
  Si  Si5  1  0.07758500  0.18157900  0.22973000  1
  Si  Si6  1  0.57758500  0.81842100  0.27027000  1
  Si  Si7  1  0.92241500  0.81842100  0.77027000  1
  Si  Si8  1  0.83863600  0.29359800  0.34628900  1
  Si  Si9  1  0.66136400  0.29359800  0.84628900  1
  Si  Si10  1  0.16136400  0.70640200  0.65371100  1
  Si  Si11  1  0.33863600  0.70640200  0.15371100  1
  O  O0  1  0.78204600  0.18998800  0.46449300  1
  O  O1  1  0.71795400  0.18998800  0.96449300  1
  O  O2  1  0.21795400  0.81001200  0.53550700  1
  O  O3  1  0.28204600  0.81001200  0.03550700  1
  O  O4  1  0.99825200  0.22265900  0.32501300  1
  O  O5  1  0.50174800  0.22265900  0.82501300  1
  O  O6  1  0.00174800  0.77734100  0.67498700  1
  O  O7  1  0.49825200  0.77734100  0.17498700  1
  O  O8  1  0.54412500  0.70474400  0.59610900  1
  O  O9  1  0.95587500  0.70474400  0.09610900  1
  O  O10  1  0.45587500  0.29525600  0.40389100  1
  O  O11  1  0.04412500  0.29525600  0.90389100  1
  O  O12  1  0.89697100  0.46293800  0.34670400  1
  O  O13  1  0.60302900  0.46293800  0.84670400  1
  O  O14  1  0.10302900  0.53706200  0.65329600  1
  O  O15  1  0.39697100  0.53706200  0.15329600  1
  O  O16  1  0.72233300  0.31641900  0.25355800  1
  O  O17  1  0.77766700  0.31641900  0.75355800  1
  O  O18  1  0.27766700  0.68358100  0.74644200  1
  O  O19  1  0.22233300  0.68358100  0.24644200  1
  O  O20  1  0.69981700  0.67545400  0.30962000  1
  O  O21  1  0.80018300  0.67545400  0.80962000  1
  O  O22  1  0.30018300  0.32454600  0.69038000  1
  O  O23  1  0.19981700  0.32454600  0.19038000  1
  O  O24  1  0.75965600  0.49928100  0.51028200  1
  O  O25  1  0.74034400  0.49928100  0.01028200  1
  O  O26  1  0.24034400  0.50071900  0.48971800  1
  O  O27  1  0.25965600  0.50071900  0.98971800  1
  O  O28  1  0.96242700  0.71373700  0.38396800  1
  O  O29  1  0.53757300  0.71373700  0.88396800  1
  O  O30  1  0.03757300  0.28626300  0.61603200  1
  O  O31  1  0.46242700  0.28626300  0.11603200  1
  O  O32  1  0.54545900  0.19491000  0.64147400  1
  O  O33  1  0.95454100  0.19491000  0.14147400  1
  O  O34  1  0.45454100  0.80509000  0.35852600  1
  O  O35  1  0.04545900  0.80509000  0.85852600  1
  O  O36  1  0.02968700  0.97560700  0.47048000  1
  O  O37  1  0.47031300  0.97560700  0.97048000  1
  O  O38  1  0.97031300  0.02439300  0.52952000  1
  O  O39  1  0.52968700  0.02439300  0.02952000  1
  O  O40  1  0.33955200  0.01483500  0.77700700  1
  O  O41  1  0.16044800  0.01483500  0.27700700  1
  O  O42  1  0.66044800  0.98516500  0.22299300  1
  O  O43  1  0.83955200  0.98516500  0.72299300  1
  O  O44  1  0.61962900  0.82338400  0.55449000  1
  O  O45  1  0.88037100  0.82338400  0.05449000  1
  O  O46  1  0.38037100  0.17661600  0.44551000  1
  O  O47  1  0.11962900  0.17661600  0.94551000  1
loop_
_geom_bond_atom_site_label_1
_geom_bond_atom_site_label_2
_geom_bond_distance
_geom_bond_site_symmetry_2
Na0 O17 2.305644 1_555
Na0 O14 2.347539 1_655
Na0 O24 2.487947 1_555
Na0 O6 2.494508 1_655
Na0 O21 2.687816 1_555
Na1 O16 2.305644 1_555
Na1 O15 2.347539 1_555
Na1 O25 2.487947 1_555
Na1 O7 2.494508 1_555
Na1 O20 2.687816 1_555
Na2 O19 2.305644 1_555
Na2 O12 2.347539 1_455
Na2 O26 2.487947 1_555
Na2 O4 2.494508 1_455
Na2 O23 2.687816 1_555
Na3 O18 2.305644 1_555
Na3 O13 2.347539 1_555
Na3 O27 2.487947 1_555
Na3 O5 2.494508 1_555
Na3 O22 2.687816 1_555
Na4 O28 2.358807 1_555
Na4 O33 2.440434 1_565
Na4 O42 2.506492 1_555
Na4 O41 2.560581 1_665
Na4 O45 2.751953 1_555
Na5 O29 2.358807 1_555
Na5 O32 2.440434 1_565
Na5 O43 2.506492 1_555
Na5 O40 2.560581 1_565
Na5 O44 2.751953 1_555
Na6 O30 2.358807 1_555
Na6 O35 2.440434 1_545
Na6 O40 2.506492 1_555
Na6 O43 2.560581 1_445
Na6 O47 2.751953 1_555
Na7 O31 2.358807 1_555
Na7 O34 2.440434 1_545
Na7 O41 2.506492 1_555
Na7 O42 2.560581 1_545
Na7 O46 2.751953 1_555
Na8 O24 2.351037 1_555
Na8 O26 2.351037 1_555
Na8 O8 2.747257 1_555
Na8 O10 2.747257 1_555
Na8 O32 2.807068 1_555
Na8 O34 2.807068 1_555
Na9 O27 2.351037 1_554
Na9 O25 2.351037 1_455
Na9 O9 2.747257 1_455
Na9 O11 2.747257 1_554
Na9 O33 2.807068 1_455
Na9 O35 2.807068 1_554
O0 Si8 1.633863 1_555
O0 Y0 2.315157 1_555
O1 Si9 1.633863 1_555
O1 Y1 2.315157 1_556
O2 Si10 1.633863 1_555
O2 Y2 2.315157 1_555
O3 Si11 1.633863 1_555
O3 Y3 2.315157 1_554
O4 Si8 1.660681 1_555
O4 Si5 1.670801 1_655
O5 Si9 1.660681 1_555
O5 Si4 1.670801 1_555
O6 Si10 1.660681 1_555
O6 Si7 1.670801 1_455
O7 Si11 1.660681 1_555
O7 Si6 1.670801 1_555
O10 O46 1.241239 1_555
O11 O47 1.241239 1_555
O12 Si0 1.669877 1_555
O12 Si8 1.671466 1_555
O13 Si1 1.669877 1_555
O13 Si9 1.671466 1_555
O14 Si2 1.669877 1_555
O14 Si10 1.671466 1_555
O15 Si3 1.669877 1_555
O15 Si11 1.671466 1_555
O16 Si8 1.609722 1_555
O16 Y1 2.288877 1_555
O17 Si9 1.609722 1_555
O17 Y0 2.288877 1_555
O18 Si10 1.609722 1_555
O18 Y3 2.288877 1_555
O19 Si11 1.609722 1_555
O19 Y2 2.288877 1_555
O20 Si6 1.657979 1_555
O20 Si0 1.668739 1_555
O21 Si7 1.657979 1_555
O21 Si1 1.668739 1_555
O22 Si4 1.657979 1_555
O22 Si2 1.668739 1_555
O23 Si5 1.657979 1_555
O23 Si3 1.668739 1_555
O24 Si0 1.631389 1_555
O24 Y0 2.344558 1_555
O25 Si1 1.631389 1_554
O25 Y1 2.344558 1_555
O26 Si2 1.631389 1_555
O26 Y2 2.344558 1_555
O27 Si3 1.631389 1_556
O27 Y3 2.344558 1_555
O28 Si0 1.613690 1_555
O28 Y2 2.249895 1_655
O29 Si1 1.613690 1_555
O29 Y3 2.249895 1_555
O30 Si2 1.613690 1_555
O30 Y0 2.249895 1_455
O31 Si3 1.613690 1_555
O31 Y1 2.249895 1_555
O32 Si4 1.621914 1_555
O32 Y0 2.282385 1_555
O33 Si5 1.621914 1_655
O33 Y1 2.282385 1_555
O34 Si6 1.621914 1_555
O34 Y2 2.282385 1_555
O35 Si7 1.621914 1_455
O35 Y3 2.282385 1_555
O36 O38 1.204287 1_465
O37 O39 1.204287 1_566
O40 Si4 1.625367 1_555
O40 Y3 2.294150 1_545
O41 Si5 1.625367 1_555
O41 Y2 2.294150 1_545
O42 Si6 1.625367 1_555
O42 Y1 2.294150 1_565
O43 Si7 1.625367 1_555
O43 Y0 2.294150 1_565
O44 O8 1.241239 1_555
O45 O9 1.241239 1_555
