# generated using pymatgen
data_Eu2Si3Ni
_symmetry_space_group_name_H-M   'P 1'
_cell_length_a   4.04045777
_cell_length_b   4.04045777
_cell_length_c   8.80309000
_cell_angle_alpha   90.00000000
_cell_angle_beta   90.00000000
_cell_angle_gamma   119.99999616
_symmetry_Int_Tables_number   1
_chemical_formula_structural   Eu2Si3Ni
_chemical_formula_sum   'Eu2 Si3 Ni1'
_cell_volume   124.45917946
_cell_formula_units_Z   1
loop_
 _symmetry_equiv_pos_site_id
 _symmetry_equiv_pos_as_xyz
  1  'x, y, z'
loop_
 _atom_site_type_symbol
 _atom_site_label
 _atom_site_symmetry_multiplicity
 _atom_site_fract_x
 _atom_site_fract_y
 _atom_site_fract_z
 _atom_site_occupancy
  Eu  Eu0  1  0.33333300  0.66666700  0.24181100  1
  Eu  Eu1  1  0.33333300  0.66666700  0.75818900  1
  Si  Si0  1  0.66666700  0.33333300  0.50000000  1
  Si  Si1  1  0.00000000  0.00000000  0.00000000  1
  Si  Si2  1  0.00000000  0.00000000  0.50000000  1
  Ni  Ni0  1  0.66666700  0.33333300  0.00000000  1
loop_
_geom_bond_atom_site_label_1
_geom_bond_atom_site_label_2
_geom_bond_distance
_geom_bond_site_symmetry_2
Eu0 Si1 3.158014 1_565
Eu0 Ni0 3.158014 1_455
Eu0 Ni0 3.158014 1_565
Eu0 Si1 3.158016 1_665
Eu0 Si1 3.158016 1_555
Eu0 Ni0 3.158019 1_555
Eu0 Si2 3.256939 1_565
Eu0 Si0 3.256939 1_455
Eu0 Si0 3.256939 1_565
Eu0 Si2 3.256942 1_665
Eu0 Si2 3.256942 1_555
Eu0 Si0 3.256944 1_555
Eu1 Si1 3.158014 1_566
Eu1 Ni0 3.158014 1_456
Eu1 Ni0 3.158014 1_566
Eu1 Si1 3.158016 1_666
Eu1 Si1 3.158016 1_556
Eu1 Ni0 3.158019 1_556
Eu1 Si2 3.256939 1_565
Eu1 Si0 3.256939 1_455
Eu1 Si0 3.256939 1_565
Eu1 Si2 3.256942 1_665
Eu1 Si2 3.256942 1_555
Eu1 Si0 3.256944 1_555
Si0 Si2 2.332757 1_655
Si0 Si2 2.332761 1_665
Si0 Si2 2.332761 1_555
Ni0 Si1 2.332757 1_655
Ni0 Si1 2.332761 1_555
Ni0 Si1 2.332761 1_665
