# generated using pymatgen
data_KSm3
_symmetry_space_group_name_H-M   'P 1'
_cell_length_a   6.61746367
_cell_length_b   6.61746367
_cell_length_c   6.61746367
_cell_angle_alpha   132.95525333
_cell_angle_beta   132.95525333
_cell_angle_gamma   68.72442850
_symmetry_Int_Tables_number   1
_chemical_formula_structural   KSm3
_chemical_formula_sum   'K1 Sm3'
_cell_volume   152.41346852
_cell_formula_units_Z   1
loop_
 _symmetry_equiv_pos_site_id
 _symmetry_equiv_pos_as_xyz
  1  'x, y, z'
loop_
 _atom_site_type_symbol
 _atom_site_label
 _atom_site_symmetry_multiplicity
 _atom_site_fract_x
 _atom_site_fract_y
 _atom_site_fract_z
 _atom_site_occupancy
  K  K0  1  0.00000000  0.00000000  0.00000000  1
  Sm  Sm0  1  0.75000000  0.25000000  0.50000000  1
  Sm  Sm1  1  0.25000000  0.75000000  0.50000000  1
  Sm  Sm2  1  0.50000000  0.50000000  0.00000000  1
loop_
_geom_bond_atom_site_label_1
_geom_bond_atom_site_label_2
_geom_bond_distance
_geom_bond_site_symmetry_2
K0 Sm2 3.735047 1_455
K0 Sm2 3.735047 1_556
K0 Sm2 3.735047 1_444
K0 Sm2 3.735047 1_545
K0 Sm0 3.799388 1_555
K0 Sm0 3.799388 1_455
K0 Sm0 3.799388 1_454
K0 Sm1 3.799388 1_544
K0 Sm1 3.799388 1_545
K0 Sm1 3.799388 1_444
K0 Sm0 3.799388 1_444
K0 Sm1 3.799388 1_555
Sm0 Sm1 3.735047 1_645
Sm0 Sm1 3.735047 1_555
Sm0 Sm1 3.735047 1_656
Sm0 Sm1 3.735047 1_544
Sm0 Sm2 3.799388 1_556
Sm0 Sm2 3.799388 1_545
Sm0 Sm2 3.799388 1_555
Sm0 Sm2 3.799388 1_656
Sm1 Sm2 3.799388 1_556
Sm1 Sm2 3.799388 1_555
Sm1 Sm2 3.799388 1_455
Sm1 Sm2 3.799388 1_566
