# generated using pymatgen
data_MnSb4
_symmetry_space_group_name_H-M   'P 1'
_cell_length_a   6.16100000
_cell_length_b   6.16100000
_cell_length_c   29.98840600
_cell_angle_alpha   90.00000000
_cell_angle_beta   90.00000000
_cell_angle_gamma   90.00000000
_symmetry_Int_Tables_number   1
_chemical_formula_structural   MnSb4
_chemical_formula_sum   'Mn8 Sb32'
_cell_volume   1138.29754586
_cell_formula_units_Z   8
loop_
 _symmetry_equiv_pos_site_id
 _symmetry_equiv_pos_as_xyz
  1  'x, y, z'
loop_
 _atom_site_type_symbol
 _atom_site_label
 _atom_site_symmetry_multiplicity
 _atom_site_fract_x
 _atom_site_fract_y
 _atom_site_fract_z
 _atom_site_occupancy
  Mn  Mn0_0  1  0.00000000  0.00000000  0.00000000  1
  Mn  Mn0_1  1  0.00000000  0.00000000  0.50000000  1
  Mn  Mn0_2  1  0.00000000  0.50000000  0.00000000  1
  Mn  Mn0_3  1  0.00000000  0.50000000  0.50000000  1
  Mn  Mn0_4  1  0.50000000  0.00000000  0.00000000  1
  Mn  Mn0_5  1  0.50000000  0.00000000  0.50000000  1
  Mn  Mn0_6  1  0.50000000  0.50000000  0.00000000  1
  Mn  Mn0_7  1  0.50000000  0.50000000  0.50000000  1
  Sb  Sb0_0  1  0.00000000  0.00000000  0.09015900  1
  Sb  Sb0_1  1  0.00000000  0.00000000  0.59015900  1
  Sb  Sb0_2  1  0.00000000  0.50000000  0.09015900  1
  Sb  Sb0_3  1  0.00000000  0.50000000  0.59015900  1
  Sb  Sb0_4  1  0.50000000  0.00000000  0.09015900  1
  Sb  Sb0_5  1  0.50000000  0.00000000  0.59015900  1
  Sb  Sb0_6  1  0.50000000  0.50000000  0.09015900  1
  Sb  Sb0_7  1  0.50000000  0.50000000  0.59015900  1
  Sb  Sb1_0  1  0.00000000  0.00000000  0.19972450  1
  Sb  Sb1_1  1  0.00000000  0.00000000  0.69972450  1
  Sb  Sb1_2  1  0.00000000  0.50000000  0.19972450  1
  Sb  Sb1_3  1  0.00000000  0.50000000  0.69972450  1
  Sb  Sb1_4  1  0.50000000  0.00000000  0.19972450  1
  Sb  Sb1_5  1  0.50000000  0.00000000  0.69972450  1
  Sb  Sb1_6  1  0.50000000  0.50000000  0.19972450  1
  Sb  Sb1_7  1  0.50000000  0.50000000  0.69972450  1
  Sb  Sb2_0  1  0.00000000  0.00000000  0.30027550  1
  Sb  Sb2_1  1  0.00000000  0.00000000  0.80027550  1
  Sb  Sb2_2  1  0.00000000  0.50000000  0.30027550  1
  Sb  Sb2_3  1  0.00000000  0.50000000  0.80027550  1
  Sb  Sb2_4  1  0.50000000  0.00000000  0.30027550  1
  Sb  Sb2_5  1  0.50000000  0.00000000  0.80027550  1
  Sb  Sb2_6  1  0.50000000  0.50000000  0.30027550  1
  Sb  Sb2_7  1  0.50000000  0.50000000  0.80027550  1
  Sb  Sb3_0  1  0.00000000  0.00000000  0.40984100  1
  Sb  Sb3_1  1  0.00000000  0.00000000  0.90984100  1
  Sb  Sb3_2  1  0.00000000  0.50000000  0.40984100  1
  Sb  Sb3_3  1  0.00000000  0.50000000  0.90984100  1
  Sb  Sb3_4  1  0.50000000  0.00000000  0.40984100  1
  Sb  Sb3_5  1  0.50000000  0.00000000  0.90984100  1
  Sb  Sb3_6  1  0.50000000  0.50000000  0.40984100  1
  Sb  Sb3_7  1  0.50000000  0.50000000  0.90984100  1
loop_
_geom_bond_atom_site_label_1
_geom_bond_atom_site_label_2
_geom_bond_distance
_geom_bond_site_symmetry_2
Mn0_0 Sb0_0 2.703725 1_555
Mn0_0 Sb3_1 2.703725 1_554
Mn0_1 Sb0_1 2.703725 1_555
Mn0_1 Sb3_0 2.703725 1_555
Mn0_2 Sb0_2 2.703725 1_555
Mn0_2 Sb3_3 2.703725 1_554
Mn0_3 Sb0_3 2.703725 1_555
Mn0_3 Sb3_2 2.703725 1_555
Mn0_4 Sb0_4 2.703725 1_555
Mn0_4 Sb3_5 2.703725 1_554
Mn0_5 Sb0_5 2.703725 1_555
Mn0_5 Sb3_4 2.703725 1_555
Mn0_6 Sb0_6 2.703725 1_555
Mn0_6 Sb3_7 2.703725 1_554
Mn0_7 Sb0_7 2.703725 1_555
Mn0_7 Sb3_6 2.703725 1_555
Sb0_0 Sb1_0 3.285695 1_555
Sb0_1 Sb1_1 3.285695 1_555
Sb0_2 Sb1_2 3.285695 1_555
Sb0_3 Sb1_3 3.285695 1_555
Sb0_4 Sb1_4 3.285695 1_555
Sb0_5 Sb1_5 3.285695 1_555
Sb0_6 Sb1_6 3.285695 1_555
Sb0_7 Sb1_7 3.285695 1_555
Sb1_0 Sb2_0 3.015364 1_555
Sb1_0 Sb1_4 3.080500 1_455
Sb1_0 Sb1_4 3.080500 1_555
Sb1_0 Sb1_2 3.080500 1_545
Sb1_0 Sb1_2 3.080500 1_555
Sb1_1 Sb2_1 3.015364 1_555
Sb1_1 Sb1_3 3.080500 1_555
Sb1_1 Sb1_3 3.080500 1_545
Sb1_1 Sb1_5 3.080500 1_455
Sb1_1 Sb1_5 3.080500 1_555
Sb1_2 Sb2_2 3.015364 1_555
Sb1_2 Sb1_6 3.080500 1_455
Sb1_2 Sb1_6 3.080500 1_555
Sb1_3 Sb2_3 3.015364 1_555
Sb1_3 Sb1_7 3.080500 1_455
Sb1_3 Sb1_7 3.080500 1_555
Sb1_4 Sb2_4 3.015364 1_555
Sb1_4 Sb1_6 3.080500 1_545
Sb1_4 Sb1_6 3.080500 1_555
Sb1_5 Sb2_5 3.015364 1_555
Sb1_5 Sb1_7 3.080500 1_545
Sb1_5 Sb1_7 3.080500 1_555
Sb1_6 Sb2_6 3.015364 1_555
Sb1_7 Sb2_7 3.015364 1_555
Sb2_0 Sb2_2 3.080500 1_555
Sb2_0 Sb2_2 3.080500 1_545
Sb2_0 Sb2_4 3.080500 1_455
Sb2_0 Sb2_4 3.080500 1_555
Sb2_0 Sb3_0 3.285695 1_555
Sb2_1 Sb2_5 3.080500 1_455
Sb2_1 Sb2_5 3.080500 1_555
Sb2_1 Sb2_3 3.080500 1_545
Sb2_1 Sb2_3 3.080500 1_555
Sb2_1 Sb3_1 3.285695 1_555
Sb2_2 Sb2_6 3.080500 1_455
Sb2_2 Sb2_6 3.080500 1_555
Sb2_2 Sb3_2 3.285695 1_555
Sb2_3 Sb2_7 3.080500 1_555
Sb2_3 Sb2_7 3.080500 1_455
Sb2_3 Sb3_3 3.285695 1_555
Sb2_4 Sb2_6 3.080500 1_545
Sb2_4 Sb2_6 3.080500 1_555
Sb2_4 Sb3_4 3.285695 1_555
Sb2_5 Sb2_7 3.080500 1_555
Sb2_5 Sb2_7 3.080500 1_545
Sb2_5 Sb3_5 3.285695 1_555
Sb2_6 Sb3_6 3.285695 1_555
Sb2_7 Sb3_7 3.285695 1_555
