# generated using pymatgen
data_Na3PrTi2Nb2O12
_symmetry_space_group_name_H-M   'P 1'
_cell_length_a   5.53899000
_cell_length_b   5.61941600
_cell_length_c   15.64710300
_cell_angle_alpha   90.00000000
_cell_angle_beta   90.00000000
_cell_angle_gamma   90.00000000
_symmetry_Int_Tables_number   1
_chemical_formula_structural   Na3PrTi2Nb2O12
_chemical_formula_sum   'Na6 Pr2 Ti4 Nb4 O24'
_cell_volume   487.02999162
_cell_formula_units_Z   2
loop_
 _symmetry_equiv_pos_site_id
 _symmetry_equiv_pos_as_xyz
  1  'x, y, z'
loop_
 _atom_site_type_symbol
 _atom_site_label
 _atom_site_symmetry_multiplicity
 _atom_site_fract_x
 _atom_site_fract_y
 _atom_site_fract_z
 _atom_site_occupancy
  Na  Na0  1  0.99956000  0.99242400  0.37162900  1
  Na  Na1  1  0.99956000  0.99242400  0.87837100  1
  Na  Na2  1  0.50044000  0.49242400  0.87837100  1
  Na  Na3  1  0.50044000  0.49242400  0.37162900  1
  Na  Na4  1  0.50496700  0.52982600  0.62500000  1
  Na  Na5  1  0.99503300  0.02982600  0.62500000  1
  Pr  Pr0  1  0.50537100  0.53796200  0.12500000  1
  Pr  Pr1  1  0.99462900  0.03796200  0.12500000  1
  Ti  Ti0  1  0.00661900  0.52001900  0.99562900  1
  Ti  Ti1  1  0.00661900  0.52001900  0.25437100  1
  Ti  Ti2  1  0.49338100  0.02001900  0.25437100  1
  Ti  Ti3  1  0.49338100  0.02001900  0.99562900  1
  Nb  Nb0  1  0.00514700  0.52093100  0.75117900  1
  Nb  Nb1  1  0.49485300  0.02093100  0.75117900  1
  Nb  Nb2  1  0.49485300  0.02093100  0.49882100  1
  Nb  Nb3  1  0.00514700  0.52093100  0.49882100  1
  O  O0  1  0.06891400  0.47420300  0.12500000  1
  O  O1  1  0.06642700  0.47500600  0.62500000  1
  O  O2  1  0.20765100  0.20225600  0.48147000  1
  O  O3  1  0.21994700  0.20713500  0.99013800  1
  O  O4  1  0.21994700  0.20713500  0.25986200  1
  O  O5  1  0.20765100  0.20225600  0.76853000  1
  O  O6  1  0.28005300  0.70713500  0.25986200  1
  O  O7  1  0.29234900  0.70225600  0.48147000  1
  O  O8  1  0.29234900  0.70225600  0.76853000  1
  O  O9  1  0.28005300  0.70713500  0.99013800  1
  O  O10  1  0.43108600  0.97420300  0.12500000  1
  O  O11  1  0.43357300  0.97500600  0.62500000  1
  O  O12  1  0.56619600  0.00315000  0.37222100  1
  O  O13  1  0.56619600  0.00315000  0.87777900  1
  O  O14  1  0.71938400  0.26466900  0.02445300  1
  O  O15  1  0.71938400  0.26466900  0.22554700  1
  O  O16  1  0.70961300  0.28091700  0.51631100  1
  O  O17  1  0.70961300  0.28091700  0.73368900  1
  O  O18  1  0.78061600  0.76466900  0.22554700  1
  O  O19  1  0.79038700  0.78091700  0.73368900  1
  O  O20  1  0.78061600  0.76466900  0.02445300  1
  O  O21  1  0.79038700  0.78091700  0.51631100  1
  O  O22  1  0.93380400  0.50315000  0.37222100  1
  O  O23  1  0.93380400  0.50315000  0.87777900  1
loop_
_geom_bond_atom_site_label_1
_geom_bond_atom_site_label_2
_geom_bond_distance
_geom_bond_site_symmetry_2
Na0 O2 2.381760 1_665
Na0 O12 2.401173 1_565
Na0 O4 2.450373 1_665
Na0 O22 2.773469 1_555
Na0 O21 2.807142 1_555
Na0 O6 2.835902 1_655
Na0 O7 2.871023 1_655
Na0 O18 2.886767 1_555
Na0 O22 2.893016 1_565
Na1 O5 2.381760 1_665
Na1 O13 2.401173 1_565
Na1 O3 2.450373 1_665
Na1 O23 2.773469 1_555
Na1 O19 2.807142 1_555
Na1 O9 2.835902 1_655
Na1 O8 2.871023 1_655
Na1 O20 2.886767 1_556
Na1 O23 2.893016 1_565
Na2 O8 2.381760 1_555
Na2 O23 2.401173 1_555
Na2 O9 2.450373 1_555
Na2 O13 2.773469 1_555
Na2 O17 2.807142 1_555
Na2 O3 2.835902 1_555
Na2 O5 2.871023 1_555
Na2 O14 2.886767 1_556
Na2 O13 2.893016 1_565
Na3 O7 2.381760 1_555
Na3 O22 2.401173 1_555
Na3 O6 2.450373 1_555
Na3 O12 2.773469 1_555
Na3 O16 2.807142 1_555
Na3 O4 2.835902 1_555
Na3 O2 2.871023 1_555
Na3 O15 2.886767 1_555
Na3 O12 2.893016 1_565
Na4 O1 2.448525 1_555
Na4 O16 2.476609 1_555
Na4 O17 2.476609 1_555
Na4 O11 2.532714 1_555
Na4 O7 2.714696 1_555
Na4 O8 2.714696 1_555
Na4 O19 2.717079 1_555
Na4 O21 2.717079 1_555
Na5 O11 2.448525 1_645
Na5 O19 2.476609 1_545
Na5 O21 2.476609 1_545
Na5 O1 2.532714 1_655
Na5 O2 2.714696 1_655
Na5 O5 2.714696 1_655
Na5 O16 2.717079 1_555
Na5 O17 2.717079 1_555
Nb0 O19 1.903776 1_455
Nb0 O8 1.908565 1_555
Nb0 O1 2.019855 1_555
Nb0 O23 2.022424 1_455
Nb0 O5 2.130421 1_555
Nb0 O17 2.138604 1_455
Nb1 O17 1.903776 1_555
Nb1 O5 1.908565 1_555
Nb1 O11 2.019855 1_545
Nb1 O13 2.022424 1_555
Nb1 O8 2.130421 1_545
Nb1 O19 2.138604 1_545
Nb2 O16 1.903776 1_555
Nb2 O2 1.908565 1_555
Nb2 O11 2.019855 1_545
Nb2 O12 2.022424 1_555
Nb2 O7 2.130421 1_545
Nb2 O21 2.138604 1_545
Nb3 O21 1.903776 1_455
Nb3 O7 1.908565 1_555
Nb3 O1 2.019855 1_555
Nb3 O22 2.022424 1_455
Nb3 O2 2.130421 1_555
Nb3 O16 2.138604 1_455
O0 Ti0 2.069556 1_554
O0 Ti1 2.069556 1_555
O0 Pr0 2.443937 1_555
O0 Pr1 2.485711 1_455
O3 Ti3 1.845766 1_555
O3 Ti0 2.120134 1_555
O3 Pr1 2.629501 1_456
O4 Ti2 1.845766 1_555
O4 Ti1 2.120134 1_555
O4 Pr1 2.629501 1_455
O6 Ti1 1.845766 1_555
O6 Ti2 2.120134 1_565
O6 Pr0 2.629501 1_555
O9 Ti0 1.845766 1_555
O9 Ti3 2.120134 1_565
O9 Pr0 2.629501 1_556
O10 Ti3 2.069556 1_564
O10 Ti2 2.069556 1_565
O10 Pr1 2.443937 1_465
O10 Pr0 2.485711 1_555
O12 Ti2 1.889982 1_555
O13 Ti3 1.889982 1_555
O14 Ti3 1.913252 1_554
O14 Ti0 2.189442 1_654
O14 Pr0 2.497780 1_555
O14 Pr1 2.534264 1_555
O15 Ti2 1.913252 1_555
O15 Ti1 2.189442 1_655
O15 Pr0 2.497780 1_555
O15 Pr1 2.534264 1_555
O18 Ti1 1.913252 1_655
O18 Ti2 2.189442 1_565
O18 Pr1 2.497780 1_565
O18 Pr0 2.534264 1_555
O20 Ti0 1.913252 1_654
O20 Ti3 2.189442 1_564
O20 Pr1 2.497780 1_565
O20 Pr0 2.534264 1_555
O22 Ti1 1.889982 1_655
O23 Ti0 1.889982 1_655
