# generated using pymatgen
data_Li2TiVO4
_symmetry_space_group_name_H-M   'P 1'
_cell_length_a   5.84674003
_cell_length_b   9.51535528
_cell_length_c   5.84668256
_cell_angle_alpha   72.10365355
_cell_angle_beta   89.98748093
_cell_angle_gamma   72.10356585
_symmetry_Int_Tables_number   1
_chemical_formula_structural   Li2TiVO4
_chemical_formula_sum   'Li8 Ti4 V4 O16'
_cell_volume   292.95882616
_cell_formula_units_Z   4
loop_
 _symmetry_equiv_pos_site_id
 _symmetry_equiv_pos_as_xyz
  1  'x, y, z'
loop_
 _atom_site_type_symbol
 _atom_site_label
 _atom_site_symmetry_multiplicity
 _atom_site_fract_x
 _atom_site_fract_y
 _atom_site_fract_z
 _atom_site_occupancy
  Li  Li0  1  0.62345700  0.25031900  0.62359100  1
  Li  Li1  1  0.12621800  0.25028800  0.12607800  1
  Li  Li2  1  0.37636400  0.74968900  0.87378500  1
  Li  Li3  1  0.87391100  0.74969300  0.37647400  1
  Li  Li4  1  0.00001200  0.99997400  0.50000200  1
  Li  Li5  1  0.49997000  0.00009100  0.99997200  1
  Li  Li6  1  0.74936600  0.50122000  0.74936700  1
  Li  Li7  1  0.25054000  0.49893500  0.25052800  1
  Ti  Ti0  1  0.62412800  0.25528500  0.12052200  1
  Ti  Ti1  1  0.12055400  0.25529700  0.62411500  1
  Ti  Ti2  1  0.37581200  0.74468800  0.37581300  1
  Ti  Ti3  1  0.87949100  0.74466700  0.87949400  1
  V  V0  1  0.75010300  0.49982200  0.25009300  1
  V  V1  1  0.50012000  0.99984000  0.50021500  1
  V  V2  1  0.25009900  0.49978200  0.75013600  1
  V  V3  1  0.99988500  0.00037000  0.99986200  1
  O  O0  1  0.50667900  0.48513500  0.00852800  1
  O  O1  1  0.00819400  0.48514800  0.50635900  1
  O  O2  1  0.26517300  0.98230900  0.26536200  1
  O  O3  1  0.75259800  0.98229200  0.75239400  1
  O  O4  1  0.73467400  0.01766200  0.24745300  1
  O  O5  1  0.24768100  0.01765400  0.73490300  1
  O  O6  1  0.49349800  0.51492500  0.49318600  1
  O  O7  1  0.99153600  0.51490200  0.99186200  1
  O  O8  1  0.87382100  0.25234500  0.37381200  1
  O  O9  1  0.37391600  0.25214300  0.87392700  1
  O  O10  1  0.62328800  0.75340800  0.62327900  1
  O  O11  1  0.12430400  0.75138600  0.12428700  1
  O  O12  1  0.37671800  0.24656800  0.37673600  1
  O  O13  1  0.87546400  0.24903600  0.87546700  1
  O  O14  1  0.12616500  0.74766000  0.62614800  1
  O  O15  1  0.62626300  0.74746700  0.12624800  1
loop_
_geom_bond_atom_site_label_1
_geom_bond_atom_site_label_2
_geom_bond_distance
_geom_bond_site_symmetry_2
Li0 O12 2.056624 1_555
Li0 O9 2.066478 1_555
Li0 O8 2.067591 1_555
Li0 O13 2.078130 1_555
Li0 O6 2.267755 1_555
Li0 O3 2.297384 1_545
Li1 O12 2.057004 1_555
Li1 O9 2.066364 1_554
Li1 O8 2.067544 1_455
Li1 O13 2.078199 1_454
Li1 O7 2.267825 1_454
Li1 O2 2.296985 1_545
Li2 O10 2.056522 1_555
Li2 O14 2.066893 1_555
Li2 O15 2.068044 1_556
Li2 O11 2.077541 1_556
Li2 O0 2.267316 1_556
Li2 O5 2.296861 1_565
Li3 O10 2.056513 1_555
Li3 O14 2.067017 1_655
Li3 O15 2.067879 1_555
Li3 O11 2.077615 1_655
Li3 O1 2.267237 1_655
Li3 O4 2.296896 1_565
Li4 O2 2.072298 1_555
Li4 O3 2.072313 1_455
Li4 O4 2.074394 1_465
Li4 O5 2.074599 1_565
Li4 O14 2.162343 1_555
Li4 O8 2.162832 1_465
Li5 O4 2.072495 1_556
Li5 O5 2.072649 1_555
Li5 O2 2.073956 1_546
Li5 O3 2.074039 1_545
Li5 O9 2.160098 1_555
Li5 O15 2.165000 1_546
Li6 O6 2.063848 1_555
Li6 O7 2.063851 1_555
Li6 O1 2.079056 1_655
Li6 O0 2.079113 1_556
Li6 O13 2.161229 1_555
Li6 O10 2.161263 1_555
Li7 O0 2.062600 1_555
Li7 O1 2.062750 1_555
Li7 O6 2.078514 1_555
Li7 O7 2.078900 1_454
Li7 O12 2.162798 1_555
Li7 O11 2.163517 1_555
O0 Ti0 1.969956 1_555
O0 V0 2.069857 1_555
O0 V2 2.072512 1_554
O1 Ti1 1.969961 1_555
O1 V0 2.069876 1_455
O1 V2 2.072470 1_555
O2 V1 2.020562 1_555
O2 Ti2 2.037571 1_555
O2 V3 2.125615 1_464
O3 V1 2.019656 1_555
O3 Ti3 2.037582 1_555
O3 V3 2.126065 1_565
O4 V1 2.020248 1_545
O4 Ti0 2.037567 1_555
O4 V3 2.124994 1_554
O5 V1 2.019463 1_545
O5 Ti1 2.037732 1_555
O5 V3 2.124795 1_455
O6 Ti2 1.969202 1_555
O6 V0 2.069712 1_555
O6 V2 2.072419 1_555
O7 Ti3 1.969222 1_555
O7 V0 2.069561 1_556
O7 V2 2.072161 1_655
O8 Ti1 2.067508 1_655
O8 Ti0 2.067735 1_555
O8 V0 2.120890 1_555
O9 Ti0 2.067369 1_556
O9 Ti1 2.067662 1_555
O9 V2 2.122278 1_555
O10 Ti2 2.083833 1_555
O10 Ti3 2.083900 1_555
O10 V1 2.111934 1_555
O11 Ti3 2.052964 1_454
O11 Ti2 2.053003 1_555
O11 V3 2.133805 1_464
O12 Ti1 2.082889 1_555
O12 Ti0 2.083219 1_555
O12 V1 2.114471 1_545
O13 Ti0 2.052679 1_556
O13 Ti1 2.052892 1_655
O13 V3 2.131080 1_555
O14 Ti2 2.067037 1_555
O14 Ti3 2.067196 1_455
O14 V2 2.124327 1_555
O15 Ti3 2.067020 1_554
O15 Ti2 2.067158 1_555
O15 V0 2.122330 1_555
