# generated using pymatgen
data_NdTiCrO5
_symmetry_space_group_name_H-M   'P 1'
_cell_length_a   5.93942700
_cell_length_b   7.46442700
_cell_length_c   8.85481500
_cell_angle_alpha   90.00000000
_cell_angle_beta   90.00000000
_cell_angle_gamma   90.00000000
_symmetry_Int_Tables_number   1
_chemical_formula_structural   NdTiCrO5
_chemical_formula_sum   'Nd4 Ti4 Cr4 O20'
_cell_volume   392.57308071
_cell_formula_units_Z   4
loop_
 _symmetry_equiv_pos_site_id
 _symmetry_equiv_pos_as_xyz
  1  'x, y, z'
loop_
 _atom_site_type_symbol
 _atom_site_label
 _atom_site_symmetry_multiplicity
 _atom_site_fract_x
 _atom_site_fract_y
 _atom_site_fract_z
 _atom_site_occupancy
  Nd  Nd0  1  0.00000000  0.63361200  0.32924500  1
  Nd  Nd1  1  0.00000000  0.36638800  0.67075500  1
  Nd  Nd2  1  0.00000000  0.13361200  0.17075500  1
  Nd  Nd3  1  0.00000000  0.86638800  0.82924500  1
  Ti  Ti0  1  0.25199800  0.50000000  0.00000000  1
  Ti  Ti1  1  0.74800200  0.00000000  0.50000000  1
  Ti  Ti2  1  0.74800200  0.50000000  0.00000000  1
  Ti  Ti3  1  0.25199800  0.00000000  0.50000000  1
  Cr  Cr0  1  0.50000000  0.59966300  0.64527200  1
  Cr  Cr1  1  0.50000000  0.40033700  0.35472800  1
  Cr  Cr2  1  0.50000000  0.09966300  0.85472800  1
  Cr  Cr3  1  0.50000000  0.90033700  0.14527200  1
  O  O0  1  0.24766400  0.60579300  0.79617300  1
  O  O1  1  0.24766400  0.39420700  0.20382700  1
  O  O2  1  0.75233600  0.10579300  0.70382700  1
  O  O3  1  0.75233600  0.89420700  0.29617300  1
  O  O4  1  0.75233600  0.39420700  0.20382700  1
  O  O5  1  0.75233600  0.60579300  0.79617300  1
  O  O6  1  0.24766400  0.89420700  0.29617300  1
  O  O7  1  0.24766400  0.10579300  0.70382700  1
  O  O8  1  0.00000000  0.66126300  0.05438200  1
  O  O9  1  0.00000000  0.33873700  0.94561800  1
  O  O10  1  0.00000000  0.16126300  0.44561800  1
  O  O11  1  0.00000000  0.83873700  0.55438200  1
  O  O12  1  0.50000000  0.65652500  0.07136900  1
  O  O13  1  0.50000000  0.34347500  0.92863100  1
  O  O14  1  0.50000000  0.15652500  0.42863100  1
  O  O15  1  0.50000000  0.84347500  0.57136900  1
  O  O16  1  0.27548300  0.50000000  0.50000000  1
  O  O17  1  0.72451700  0.00000000  0.00000000  1
  O  O18  1  0.72451700  0.50000000  0.50000000  1
  O  O19  1  0.27548300  0.00000000  0.00000000  1
loop_
_geom_bond_atom_site_label_1
_geom_bond_atom_site_label_2
_geom_bond_distance
_geom_bond_site_symmetry_2
Nd0 O18 2.440906 1_455
Nd0 O16 2.440906 1_555
Nd0 O8 2.442597 1_555
Nd0 O3 2.456282 1_455
Nd0 O6 2.456282 1_555
Nd0 O11 2.513686 1_555
Nd0 O4 2.567209 1_455
Nd0 O1 2.567209 1_555
Nd1 O16 2.440906 1_555
Nd1 O18 2.440906 1_455
Nd1 O9 2.442597 1_555
Nd1 O2 2.456282 1_455
Nd1 O7 2.456282 1_555
Nd1 O10 2.513686 1_555
Nd1 O0 2.567209 1_555
Nd1 O5 2.567209 1_455
Nd2 O19 2.440906 1_555
Nd2 O17 2.440906 1_455
Nd2 O10 2.442597 1_555
Nd2 O4 2.456282 1_455
Nd2 O1 2.456282 1_555
Nd2 O9 2.513686 1_554
Nd2 O3 2.567209 1_445
Nd2 O6 2.567209 1_545
Nd3 O19 2.440906 1_566
Nd3 O17 2.440906 1_466
Nd3 O11 2.442597 1_555
Nd3 O5 2.456282 1_455
Nd3 O0 2.456282 1_555
Nd3 O8 2.513686 1_556
Nd3 O7 2.567209 1_565
Nd3 O2 2.567209 1_465
Cr0 O15 1.933994 1_555
Cr0 O18 1.996590 1_555
Cr0 O16 1.996590 1_555
Cr0 O5 2.008412 1_555
Cr0 O0 2.008412 1_555
Cr1 O14 1.933994 1_555
Cr1 O18 1.996590 1_555
Cr1 O16 1.996590 1_555
Cr1 O1 2.008412 1_555
Cr1 O4 2.008412 1_555
Cr2 O13 1.933994 1_555
Cr2 O17 1.996590 1_556
Cr2 O19 1.996590 1_556
Cr2 O7 2.008412 1_555
Cr2 O2 2.008412 1_555
Cr3 O12 1.933994 1_555
Cr3 O17 1.996590 1_565
Cr3 O19 1.996590 1_565
Cr3 O3 2.008412 1_555
Cr3 O6 2.008412 1_555
O0 Ti0 1.970215 1_556
O1 Ti0 1.970215 1_555
O2 Ti1 1.970215 1_555
O3 Ti1 1.970215 1_565
O4 Ti2 1.970215 1_555
O5 Ti2 1.970215 1_556
O6 Ti3 1.970215 1_565
O7 Ti3 1.970215 1_555
O8 Ti0 1.980163 1_555
O8 Ti2 1.980163 1_455
O9 Ti0 1.980163 1_556
O9 Ti2 1.980163 1_456
O10 Ti3 1.980163 1_555
O10 Ti1 1.980163 1_455
O11 Ti1 1.980163 1_465
O11 Ti3 1.980163 1_565
O12 Ti0 1.983471 1_555
O12 Ti2 1.983471 1_555
O13 Ti0 1.983471 1_556
O13 Ti2 1.983471 1_556
O14 Ti1 1.983471 1_555
O14 Ti3 1.983471 1_555
O15 Ti1 1.983471 1_565
O15 Ti3 1.983471 1_565
