# generated using pymatgen
data_CsNO3
_symmetry_space_group_name_H-M   'P 1'
_cell_length_a   9.30429800
_cell_length_b   9.30429800
_cell_length_c   9.30429800
_cell_angle_alpha   90.00000000
_cell_angle_beta   90.00000000
_cell_angle_gamma   90.00000000
_symmetry_Int_Tables_number   1
_chemical_formula_structural   CsNO3
_chemical_formula_sum   'Cs8 N8 O24'
_cell_volume   805.47271753
_cell_formula_units_Z   8
loop_
 _symmetry_equiv_pos_site_id
 _symmetry_equiv_pos_as_xyz
  1  'x, y, z'
loop_
 _atom_site_type_symbol
 _atom_site_label
 _atom_site_symmetry_multiplicity
 _atom_site_fract_x
 _atom_site_fract_y
 _atom_site_fract_z
 _atom_site_occupancy
  Cs  Cs0  1  0.50000000  0.50000000  0.00000000  1
  Cs  Cs1  1  0.50000000  0.00000000  0.50000000  1
  Cs  Cs2  1  0.00000000  0.50000000  0.50000000  1
  Cs  Cs3  1  0.00000000  0.00000000  0.00000000  1
  Cs  Cs4  1  0.00000000  0.00000000  0.50000000  1
  Cs  Cs5  1  0.00000000  0.50000000  0.00000000  1
  Cs  Cs6  1  0.50000000  0.00000000  0.00000000  1
  Cs  Cs7  1  0.50000000  0.50000000  0.50000000  1
  N  N0  1  0.22408700  0.77591300  0.27591300  1
  N  N1  1  0.77591300  0.27591300  0.22408700  1
  N  N2  1  0.27591300  0.22408700  0.77591300  1
  N  N3  1  0.72408700  0.72408700  0.72408700  1
  N  N4  1  0.77591300  0.22408700  0.72408700  1
  N  N5  1  0.22408700  0.72408700  0.77591300  1
  N  N6  1  0.72408700  0.77591300  0.22408700  1
  N  N7  1  0.27591300  0.27591300  0.27591300  1
  O  O0  1  0.11150700  0.72181800  0.22090300  1
  O  O1  1  0.88849300  0.22181800  0.27909700  1
  O  O2  1  0.38849300  0.27818200  0.72090300  1
  O  O3  1  0.61150700  0.77818200  0.77909700  1
  O  O4  1  0.22090300  0.11150700  0.72181800  1
  O  O5  1  0.27909700  0.88849300  0.22181800  1
  O  O6  1  0.72090300  0.38849300  0.27818200  1
  O  O7  1  0.77909700  0.61150700  0.77818200  1
  O  O8  1  0.72181800  0.22090300  0.11150700  1
  O  O9  1  0.22181800  0.27909700  0.88849300  1
  O  O10  1  0.27818200  0.72090300  0.38849300  1
  O  O11  1  0.77818200  0.77909700  0.61150700  1
  O  O12  1  0.88849300  0.27818200  0.77909700  1
  O  O13  1  0.11150700  0.77818200  0.72090300  1
  O  O14  1  0.61150700  0.72181800  0.27909700  1
  O  O15  1  0.38849300  0.22181800  0.22090300  1
  O  O16  1  0.77909700  0.88849300  0.27818200  1
  O  O17  1  0.72090300  0.11150700  0.77818200  1
  O  O18  1  0.27909700  0.61150700  0.72181800  1
  O  O19  1  0.22090300  0.38849300  0.22181800  1
  O  O20  1  0.27818200  0.77909700  0.88849300  1
  O  O21  1  0.77818200  0.72090300  0.11150700  1
  O  O22  1  0.72181800  0.27909700  0.61150700  1
  O  O23  1  0.22181800  0.22090300  0.38849300  1
loop_
_geom_bond_atom_site_label_1
_geom_bond_atom_site_label_2
_geom_bond_distance
_geom_bond_site_symmetry_2
Cs0 O6 3.464114 1_555
Cs0 O3 3.464114 1_554
Cs0 O15 3.464114 1_555
Cs0 O18 3.464114 1_554
Cs0 O21 3.464114 1_555
Cs0 O9 3.464114 1_554
Cs0 O14 3.475528 1_555
Cs0 O2 3.475528 1_554
Cs0 O8 3.475528 1_555
Cs0 O19 3.475528 1_555
Cs0 O7 3.475528 1_554
Cs0 O20 3.475528 1_554
Cs1 O2 3.464114 1_555
Cs1 O17 3.464114 1_555
Cs1 O14 3.464114 1_545
Cs1 O5 3.464114 1_545
Cs1 O11 3.464114 1_545
Cs1 O23 3.464114 1_555
Cs1 O22 3.475528 1_555
Cs1 O4 3.475528 1_555
Cs1 O16 3.475528 1_545
Cs1 O15 3.475528 1_555
Cs1 O10 3.475528 1_545
Cs1 O3 3.475528 1_545
Cs2 O13 3.464114 1_555
Cs2 O10 3.464114 1_555
Cs2 O1 3.464114 1_455
Cs2 O19 3.464114 1_555
Cs2 O7 3.464114 1_455
Cs2 O22 3.464114 1_455
Cs2 O18 3.475528 1_555
Cs2 O6 3.475528 1_455
Cs2 O0 3.475528 1_555
Cs2 O11 3.475528 1_455
Cs2 O23 3.475528 1_555
Cs2 O12 3.475528 1_455
Cs3 O16 3.464114 1_445
Cs3 O4 3.464114 1_554
Cs3 O12 3.464114 1_454
Cs3 O0 3.464114 1_545
Cs3 O20 3.464114 1_544
Cs3 O8 3.464114 1_455
Cs3 O5 3.475528 1_545
Cs3 O17 3.475528 1_454
Cs3 O9 3.475528 1_554
Cs3 O1 3.475528 1_455
Cs3 O21 3.475528 1_445
Cs3 O13 3.475528 1_544
Cs4 O13 3.091985 1_545
Cs4 O4 3.091985 1_555
Cs4 O23 3.091985 1_555
Cs4 O11 3.091985 1_445
Cs4 O16 3.091985 1_445
Cs4 O1 3.091985 1_455
Cs5 O19 3.091985 1_555
Cs5 O0 3.091985 1_555
Cs5 O7 3.091985 1_454
Cs5 O21 3.091985 1_455
Cs5 O12 3.091985 1_454
Cs5 O9 3.091985 1_554
Cs6 O17 3.091985 1_554
Cs6 O3 3.091985 1_544
Cs6 O8 3.091985 1_555
Cs6 O15 3.091985 1_555
Cs6 O20 3.091985 1_544
Cs6 O5 3.091985 1_545
Cs7 O14 3.091985 1_555
Cs7 O6 3.091985 1_555
Cs7 O18 3.091985 1_555
Cs7 O10 3.091985 1_555
Cs7 O22 3.091985 1_555
Cs7 O2 3.091985 1_555
N0 O10 1.269845 1_555
N0 O5 1.269845 1_555
N0 O0 1.269845 1_555
N1 O6 1.269845 1_555
N1 O1 1.269845 1_555
N1 O8 1.269845 1_555
N2 O2 1.269845 1_555
N2 O9 1.269845 1_555
N2 O4 1.269845 1_555
N3 O11 1.269845 1_555
N3 O3 1.269845 1_555
N3 O7 1.269845 1_555
N4 O12 1.269845 1_555
N4 O22 1.269845 1_555
N4 O17 1.269845 1_555
N5 O18 1.269845 1_555
N5 O20 1.269845 1_555
N5 O13 1.269845 1_555
N6 O14 1.269845 1_555
N6 O16 1.269845 1_555
N6 O21 1.269845 1_555
N7 O23 1.269845 1_555
N7 O19 1.269845 1_555
N7 O15 1.269845 1_555
