# generated using pymatgen
data_MgMn3VCr2(PO4)6
_symmetry_space_group_name_H-M   'P 1'
_cell_length_a   8.36849460
_cell_length_b   8.72060898
_cell_length_c   8.80899193
_cell_angle_alpha   60.11288459
_cell_angle_beta   59.96214797
_cell_angle_gamma   59.66333301
_symmetry_Int_Tables_number   1
_chemical_formula_structural   MgMn3VCr2(PO4)6
_chemical_formula_sum   'Mg1 Mn3 V1 Cr2 P6 O24'
_cell_volume   453.66100200
_cell_formula_units_Z   1
loop_
 _symmetry_equiv_pos_site_id
 _symmetry_equiv_pos_as_xyz
  1  'x, y, z'
loop_
 _atom_site_type_symbol
 _atom_site_label
 _atom_site_symmetry_multiplicity
 _atom_site_fract_x
 _atom_site_fract_y
 _atom_site_fract_z
 _atom_site_occupancy
  Mg  Mg0  1  0.73109900  0.12212400  0.39887800  1
  Mn  Mn0  1  0.04831300  0.64210700  0.64762600  1
  Mn  Mn1  1  0.44360900  0.84847900  0.85721700  1
  Mn  Mn2  1  0.95483400  0.35907100  0.34207700  1
  V  V0  1  0.55813300  0.14669100  0.13933600  1
  Cr  Cr0  1  0.00691100  0.99712500  0.99251300  1
  Cr  Cr1  1  0.49003700  0.50885800  0.50633900  1
  P  P0  1  0.26686600  0.24233900  0.55233700  1
  P  P1  1  0.22277800  0.95172000  0.25812700  1
  P  P2  1  0.25382600  0.55547300  0.94154400  1
  P  P3  1  0.74743500  0.44798800  0.05419200  1
  P  P4  1  0.74098600  0.04322900  0.76390900  1
  P  P5  1  0.77345700  0.74498100  0.43599800  1
  O  O0  1  0.01450400  0.08444600  0.33380900  1
  O  O1  1  0.06002100  0.53504100  0.08535100  1
  O  O2  1  0.08747200  0.29128200  0.51494900  1
  O  O3  1  0.24316400  0.08337900  0.75157600  1
  O  O4  1  0.45943500  0.17803300  0.39787900  1
  O  O5  1  0.29328500  0.39652200  0.56971000  1
  O  O6  1  0.20685700  0.93056300  0.09981800  1
  O  O7  1  0.28785800  0.75315900  0.39850700  1
  O  O8  1  0.56658200  0.60168600  0.00502500  1
  O  O9  1  0.29518100  0.56517900  0.74415900  1
  O  O10  1  0.77356400  0.23606600  0.08924000  1
  O  O11  1  0.55984600  0.98268900  0.86932900  1
  O  O12  1  0.36989800  0.04413900  0.19491900  1
  O  O13  1  0.23483800  0.75862800  0.91584100  1
  O  O14  1  0.70382800  0.42425300  0.26180900  1
  O  O15  1  0.43024100  0.39829100  0.00038100  1
  O  O16  1  0.68912200  0.23206500  0.59727600  1
  O  O17  1  0.77691800  0.08487400  0.89677600  1
  O  O18  1  0.69542300  0.60649400  0.45264500  1
  O  O19  1  0.64069300  0.84857300  0.58061500  1
  O  O20  1  0.78096500  0.90899400  0.23582300  1
  O  O21  1  0.98058600  0.65633200  0.43795600  1
  O  O22  1  0.93795600  0.46995200  0.90977100  1
  O  O23  1  0.92347300  0.89774500  0.68817200  1
loop_
_geom_bond_atom_site_label_1
_geom_bond_atom_site_label_2
_geom_bond_distance
_geom_bond_site_symmetry_2
Mg0 O0 2.025060 1_655
Mg0 O4 2.074196 1_555
Mg0 O16 2.193636 1_555
Mg0 O14 2.224843 1_555
Mg0 O10 2.288818 1_555
Mg0 O19 2.372898 1_545
Mg0 O20 2.639825 1_545
Mn0 O22 2.061513 1_455
Mn0 O23 2.063044 1_455
Mn0 O21 2.120523 1_455
Mn0 O5 2.209435 1_555
Mn0 O7 2.282793 1_555
Mn0 O9 2.287225 1_555
Mn1 O8 1.922950 1_556
Mn1 O11 1.925045 1_555
Mn1 O13 2.002332 1_555
Mn1 O3 2.016908 1_565
Mn1 O19 2.152499 1_555
Mn1 O6 2.204047 1_556
Mn2 O2 2.008176 1_655
Mn2 O1 2.038899 1_655
Mn2 O0 2.218010 1_655
Mn2 O14 2.261772 1_555
Mn2 O18 2.358571 1_555
Mn2 O16 2.495360 1_555
Cr0 O6 2.021312 1_556
Cr0 O17 2.120227 1_465
Cr0 O13 2.126708 1_555
Cr0 O20 2.128091 1_456
Cr0 O3 2.165533 1_565
Cr0 O10 2.207811 1_466
Cr1 O9 2.021246 1_555
Cr1 O5 2.036301 1_555
Cr1 O18 2.041059 1_555
Cr1 O7 2.062707 1_555
Cr1 O16 2.142572 1_555
Cr1 O14 2.185731 1_555
O0 P1 1.545909 1_545
O1 P2 1.508972 1_554
O2 P0 1.500688 1_555
O3 P0 1.595589 1_555
O4 P0 1.554057 1_555
O4 V0 2.110209 1_555
O5 P0 1.555441 1_555
O6 P1 1.569651 1_555
O7 P1 1.553000 1_555
O8 P3 1.517638 1_555
O9 P2 1.559075 1_555
O10 P3 1.627671 1_555
O10 V0 2.081482 1_555
O11 P4 1.532801 1_565
O12 P1 1.531076 1_545
O12 V0 1.932732 1_555
O13 P2 1.602214 1_555
O14 P3 1.597418 1_555
O15 P2 1.529998 1_554
O15 V0 1.928929 1_555
O16 P4 1.600528 1_555
O17 P4 1.574317 1_555
O17 V0 2.107759 1_556
O18 P5 1.559092 1_555
O19 P5 1.545778 1_555
O20 P5 1.620319 1_555
O20 V0 2.103050 1_565
O21 P5 1.505153 1_555
O22 P3 1.494045 1_556
O23 P4 1.501079 1_565
