# generated using pymatgen
data_SrMg3O4
_symmetry_space_group_name_H-M   'P 1'
_cell_length_a   2.79196600
_cell_length_b   2.79196600
_cell_length_c   11.25827300
_cell_angle_alpha   90.00000000
_cell_angle_beta   90.00000000
_cell_angle_gamma   90.00000000
_symmetry_Int_Tables_number   1
_chemical_formula_structural   SrMg3O4
_chemical_formula_sum   'Sr1 Mg3 O4'
_cell_volume   87.75907278
_cell_formula_units_Z   1
loop_
 _symmetry_equiv_pos_site_id
 _symmetry_equiv_pos_as_xyz
  1  'x, y, z'
loop_
 _atom_site_type_symbol
 _atom_site_label
 _atom_site_symmetry_multiplicity
 _atom_site_fract_x
 _atom_site_fract_y
 _atom_site_fract_z
 _atom_site_occupancy
  Sr  Sr0  1  0.00000000  0.00000000  0.00000000  1
  Mg  Mg0  1  0.00000000  0.00000000  0.26042700  1
  Mg  Mg1  1  0.00000000  0.00000000  0.50000000  1
  Mg  Mg2  1  0.00000000  0.00000000  0.73957300  1
  O  O0  1  0.50000000  0.50000000  0.14434400  1
  O  O1  1  0.50000000  0.50000000  0.38032100  1
  O  O2  1  0.50000000  0.50000000  0.61967900  1
  O  O3  1  0.50000000  0.50000000  0.85565600  1
loop_
_geom_bond_atom_site_label_1
_geom_bond_atom_site_label_2
_geom_bond_distance
_geom_bond_site_symmetry_2
Mg0 O0 2.367596 1_545
Mg0 O0 2.367596 1_555
Mg0 O0 2.367596 1_455
Mg0 O0 2.367596 1_445
Mg0 O1 2.391547 1_455
Mg0 O1 2.391547 1_555
Mg0 O1 2.391547 1_545
Mg0 O1 2.391547 1_445
Mg1 O2 2.390181 1_545
Mg1 O2 2.390181 1_555
Mg1 O2 2.390181 1_445
Mg1 O2 2.390181 1_455
Mg1 O1 2.390181 1_545
Mg1 O1 2.390181 1_455
Mg1 O1 2.390181 1_555
Mg1 O1 2.390181 1_445
Mg2 O3 2.367596 1_545
Mg2 O3 2.367596 1_455
Mg2 O3 2.367596 1_555
Mg2 O3 2.367596 1_445
Mg2 O2 2.391547 1_545
Mg2 O2 2.391547 1_555
Mg2 O2 2.391547 1_445
Mg2 O2 2.391547 1_455
O0 Sr0 2.557024 1_565
O0 Sr0 2.557024 1_665
O0 Sr0 2.557024 1_655
O0 Sr0 2.557024 1_555
O3 Sr0 2.557024 1_556
O3 Sr0 2.557024 1_656
O3 Sr0 2.557024 1_566
O3 Sr0 2.557024 1_666
