# generated using pymatgen
data_MgSi2
_symmetry_space_group_name_H-M   'P 1'
_cell_length_a   3.66891800
_cell_length_b   5.94341104
_cell_length_c   11.03888849
_cell_angle_alpha   102.60306945
_cell_angle_beta   91.71423641
_cell_angle_gamma   107.28566170
_symmetry_Int_Tables_number   1
_chemical_formula_structural   MgSi2
_chemical_formula_sum   'Mg4 Si8'
_cell_volume   223.14048702
_cell_formula_units_Z   4
loop_
 _symmetry_equiv_pos_site_id
 _symmetry_equiv_pos_as_xyz
  1  'x, y, z'
loop_
 _atom_site_type_symbol
 _atom_site_label
 _atom_site_symmetry_multiplicity
 _atom_site_fract_x
 _atom_site_fract_y
 _atom_site_fract_z
 _atom_site_occupancy
  Mg  Mg0  1  0.43578900  0.48749800  0.64520200  1
  Mg  Mg1  1  0.22779000  0.96584000  0.86814300  1
  Mg  Mg2  1  0.77221000  0.03416000  0.13185700  1
  Mg  Mg3  1  0.56421100  0.51250200  0.35479800  1
  Si  Si0  1  0.54711500  0.59544800  0.91334900  1
  Si  Si1  1  0.08800500  0.80976800  0.58121600  1
  Si  Si2  1  0.91199500  0.19023200  0.41878400  1
  Si  Si3  1  0.45288500  0.40455200  0.08665100  1
  Si  Si4  1  0.73150900  0.08924900  0.62113000  1
  Si  Si5  1  0.90905500  0.33433100  0.82748200  1
  Si  Si6  1  0.09094500  0.66566900  0.17251800  1
  Si  Si7  1  0.26849100  0.91075100  0.37887000  1
loop_
_geom_bond_atom_site_label_1
_geom_bond_atom_site_label_2
_geom_bond_distance
_geom_bond_site_symmetry_2
Mg0 Si1 2.790095 1_555
Mg0 Si1 2.803828 1_655
Mg0 Si4 2.849417 1_555
Mg0 Si0 2.878107 1_555
Mg0 Si4 2.898223 1_455
Mg0 Si5 2.932369 1_455
Mg0 Si2 2.971446 1_455
Mg0 Si5 3.069561 1_555
Mg1 Si5 2.878383 1_465
Mg1 Si0 2.906002 1_555
Mg1 Si5 2.913499 1_565
Mg1 Si0 2.935768 1_455
Mg1 Si3 3.025800 1_566
Mg1 Si1 3.081164 1_555
Mg2 Si6 2.878383 1_645
Mg2 Si3 2.906002 1_555
Mg2 Si6 2.913499 1_545
Mg2 Si3 2.935768 1_655
Mg2 Si0 3.025800 1_544
Mg2 Si2 3.081164 1_555
Mg3 Si2 2.790095 1_555
Mg3 Si2 2.803828 1_455
Mg3 Si7 2.849417 1_555
Mg3 Si3 2.878107 1_555
Mg3 Si7 2.898223 1_655
Mg3 Si6 2.932369 1_655
Mg3 Si1 2.971446 1_655
Mg3 Si6 3.069561 1_555
Si0 Si5 2.393408 1_555
Si0 Si3 2.412518 1_556
Si0 Si5 2.419392 1_455
Si1 Si4 2.381228 1_465
Si1 Si4 2.411481 1_565
Si1 Si7 2.495067 1_555
Si2 Si7 2.381228 1_645
Si2 Si7 2.411481 1_545
Si2 Si4 2.495067 1_555
Si3 Si6 2.393408 1_555
Si3 Si6 2.419392 1_655
Si4 Si5 2.373663 1_555
Si6 Si7 2.373663 1_555
