# generated using pymatgen
data_Yb2AlSi2
_symmetry_space_group_name_H-M   'P 1'
_cell_length_a   6.71975797
_cell_length_b   6.71975797
_cell_length_c   4.21186573
_cell_angle_alpha   90.00000000
_cell_angle_beta   90.00000000
_cell_angle_gamma   90.00000000
_symmetry_Int_Tables_number   1
_chemical_formula_structural   Yb2AlSi2
_chemical_formula_sum   'Yb4 Al2 Si4'
_cell_volume   190.18741678
_cell_formula_units_Z   2
loop_
 _symmetry_equiv_pos_site_id
 _symmetry_equiv_pos_as_xyz
  1  'x, y, z'
loop_
 _atom_site_type_symbol
 _atom_site_label
 _atom_site_symmetry_multiplicity
 _atom_site_fract_x
 _atom_site_fract_y
 _atom_site_fract_z
 _atom_site_occupancy
  Yb  Yb0  1  0.32305920  0.82305920  0.50000000  1
  Yb  Yb1  1  0.82305920  0.67694080  0.50000000  1
  Yb  Yb2  1  0.17694080  0.32305920  0.50000000  1
  Yb  Yb3  1  0.67694080  0.17694080  0.50000000  1
  Al  Al0  1  0.50000000  0.50000000  0.00000000  1
  Al  Al1  1  0.00000000  0.00000000  0.00000000  1
  Si  Si0  1  0.62479841  0.87520159  0.00000000  1
  Si  Si1  1  0.87520159  0.37520159  0.00000000  1
  Si  Si2  1  0.37520159  0.12479841  0.00000000  1
  Si  Si3  1  0.12479841  0.62479841  0.00000000  1
loop_
_geom_bond_atom_site_label_1
_geom_bond_atom_site_label_2
_geom_bond_distance
_geom_bond_site_symmetry_2
Al0 Si0 2.657075 1_555
Al0 Si1 2.657075 1_555
Al0 Si3 2.657075 1_555
Al0 Si2 2.657075 1_555
Al0 Yb0 3.249829 1_555
Al0 Yb0 3.249829 1_554
Al0 Yb1 3.249829 1_554
Al0 Yb1 3.249829 1_555
Al0 Yb2 3.249829 1_555
Al0 Yb2 3.249829 1_554
Al0 Yb3 3.249829 1_555
Al0 Yb3 3.249829 1_554
Al1 Si2 2.657075 1_555
Al1 Si1 2.657075 1_455
Al1 Si3 2.657075 1_545
Al1 Si0 2.657075 1_445
Al1 Yb3 3.249829 1_455
Al1 Yb3 3.249829 1_454
Al1 Yb1 3.249829 1_445
Al1 Yb1 3.249829 1_444
Al1 Yb2 3.249829 1_555
Al1 Yb2 3.249829 1_554
Al1 Yb0 3.249829 1_545
Al1 Yb0 3.249829 1_544
Si0 Si2 2.371962 1_565
Si0 Yb1 2.825741 1_555
Si0 Yb1 2.825741 1_554
Si0 Yb0 2.944307 1_555
Si0 Yb0 2.944307 1_554
Si0 Yb3 2.944307 1_564
Si0 Yb3 2.944307 1_565
Si1 Si3 2.371962 1_655
Si1 Yb3 2.825741 1_555
Si1 Yb3 2.825741 1_554
Si1 Yb2 2.944307 1_655
Si1 Yb2 2.944307 1_654
Si1 Yb1 2.944307 1_554
Si1 Yb1 2.944307 1_555
Si2 Yb2 2.825741 1_554
Si2 Yb2 2.825741 1_555
Si2 Yb0 2.944307 1_544
Si2 Yb0 2.944307 1_545
Si2 Yb3 2.944307 1_555
Si2 Yb3 2.944307 1_554
Si3 Yb0 2.825741 1_555
Si3 Yb0 2.825741 1_554
Si3 Yb2 2.944307 1_555
Si3 Yb2 2.944307 1_554
Si3 Yb1 2.944307 1_455
Si3 Yb1 2.944307 1_454
