# generated using pymatgen
data_Ce3PI3
_symmetry_space_group_name_H-M   'P 1'
_cell_length_a   10.77476596
_cell_length_b   10.75534013
_cell_length_c   10.75647677
_cell_angle_alpha   109.38775909
_cell_angle_beta   109.44416928
_cell_angle_gamma   109.43794273
_symmetry_Int_Tables_number   1
_chemical_formula_structural   Ce3PI3
_chemical_formula_sum   'Ce12 P4 I12'
_cell_volume   961.27656013
_cell_formula_units_Z   4
loop_
 _symmetry_equiv_pos_site_id
 _symmetry_equiv_pos_as_xyz
  1  'x, y, z'
loop_
 _atom_site_type_symbol
 _atom_site_label
 _atom_site_symmetry_multiplicity
 _atom_site_fract_x
 _atom_site_fract_y
 _atom_site_fract_z
 _atom_site_occupancy
  Ce  Ce0  1  0.46299084  0.48129586  0.23140070  1
  Ce  Ce1  1  0.75006361  0.23149707  0.26868219  1
  Ce  Ce2  1  0.74999419  0.01802574  0.48190468  1
  Ce  Ce3  1  0.23175766  0.46339287  0.48149428  1
  Ce  Ce4  1  0.26763664  0.74938588  0.23118169  1
  Ce  Ce5  1  0.03699865  0.26862820  0.01864851  1
  Ce  Ce6  1  0.01854467  0.03698786  0.26867459  1
  Ce  Ce7  1  0.48086109  0.74944306  0.01763218  1
  Ce  Ce8  1  0.48128555  0.23159266  0.46293195  1
  Ce  Ce9  1  0.01910934  0.48220979  0.75054456  1
  Ce  Ce10  1  0.26850065  0.01836524  0.03677698  1
  Ce  Ce11  1  0.23215963  0.26873990  0.75040128  1
  P  P0  1  0.24990917  0.24980511  0.25001408  1
  P  P1  1  0.49991871  -0.00038921  0.24963434  1
  P  P2  1  0.00018449  0.25049867  0.50052273  1
  P  P3  1  0.25006126  0.50000014  0.00007090  1
  I  I0  1  0.25002578  0.75933453  0.74068296  1
  I  I1  1  0.51818175  0.50892347  0.75895323  1
  I  I2  1  0.98151270  0.74079348  0.99063715  1
  I  I3  1  0.74091707  0.25031920  0.75919799  1
  I  I4  1  0.99050044  0.98129785  0.74023177  1
  I  I5  1  0.25008566  0.99071562  0.50955393  1
  I  I6  1  0.75921568  0.51840099  0.50924375  1
  I  I7  1  0.50948896  0.24995401  0.99067699  1
  I  I8  1  0.75913345  0.74077830  0.24975717  1
  I  I9  1  0.74084412  0.99076335  0.98171277  1
  I  I10  1  0.99047331  0.50930851  0.25002757  1
  I  I11  1  0.50964696  0.75993084  0.51880908  1
loop_
_geom_bond_atom_site_label_1
_geom_bond_atom_site_label_2
_geom_bond_distance
_geom_bond_site_symmetry_2
Ce0 P3 2.886948 1_555
Ce0 P0 2.888355 1_555
Ce0 I7 3.250013 1_554
Ce0 I11 3.256165 1_555
Ce0 I6 3.359754 1_555
Ce0 I8 3.361098 1_555
Ce1 P2 2.888646 1_655
Ce1 P1 2.888874 1_555
Ce1 I6 3.248636 1_555
Ce1 I9 3.249674 1_544
Ce1 I10 3.357197 1_555
Ce1 I7 3.358079 1_554
Ce2 P1 2.894118 1_555
Ce2 P2 2.894958 1_655
Ce2 I8 3.248445 1_545
Ce2 I3 3.249214 1_555
Ce2 I11 3.346801 1_545
Ce2 I4 3.347912 1_545
Ce3 P0 2.888046 1_555
Ce3 P2 2.891226 1_555
Ce3 I1 3.250064 1_555
Ce3 I10 3.250082 1_455
Ce3 I0 3.356891 1_555
Ce3 I11 3.360415 1_555
Ce4 P3 2.886467 1_555
Ce4 P1 2.894434 1_565
Ce4 I2 3.247845 1_454
Ce4 I11 3.253219 1_555
Ce4 I10 3.353365 1_455
Ce4 I5 3.358929 1_555
Ce5 P3 2.887215 1_555
Ce5 P0 2.887871 1_555
Ce5 I10 3.250136 1_455
Ce5 I4 3.255147 1_444
Ce5 I9 3.360374 1_444
Ce5 I3 3.360676 1_454
Ce6 P0 2.886932 1_555
Ce6 P2 2.891458 1_555
Ce6 I5 3.250218 1_545
Ce6 I9 3.251141 1_444
Ce6 I8 3.356742 1_445
Ce6 I2 3.359478 1_444
Ce7 P3 2.885801 1_555
Ce7 P1 2.888344 1_565
Ce7 I0 3.244294 1_554
Ce7 I8 3.254086 1_555
Ce7 I1 3.354731 1_554
Ce7 I9 3.358585 1_554
Ce8 P0 2.884493 1_555
Ce8 P1 2.892923 1_555
Ce8 I5 3.250822 1_545
Ce8 I6 3.251121 1_555
Ce8 I1 3.355023 1_555
Ce8 I3 3.359386 1_555
Ce9 P3 2.885889 1_556
Ce9 P2 2.886496 1_555
Ce9 I0 3.245825 1_555
Ce9 I3 3.252373 1_455
Ce9 I2 3.353548 1_455
Ce9 I6 3.359644 1_455
Ce10 P1 2.888041 1_555
Ce10 P0 2.888675 1_555
Ce10 I7 3.250376 1_554
Ce10 I2 3.251311 1_444
Ce10 I0 3.356003 1_544
Ce10 I4 3.362386 1_444
Ce11 P3 2.887391 1_556
Ce11 P2 2.891534 1_555
Ce11 I1 3.245625 1_555
Ce11 I4 3.252318 1_445
Ce11 I7 3.355061 1_555
Ce11 I5 3.356306 1_545
