# generated using pymatgen
data_TbIn2Ni9
_symmetry_space_group_name_H-M   'P 1'
_cell_length_a   8.20792600
_cell_length_b   8.20792600
_cell_length_c   4.79092400
_cell_angle_alpha   90.00000000
_cell_angle_beta   90.00000000
_cell_angle_gamma   90.00000000
_symmetry_Int_Tables_number   1
_chemical_formula_structural   TbIn2Ni9
_chemical_formula_sum   'Tb2 In4 Ni18'
_cell_volume   322.76478570
_cell_formula_units_Z   2
loop_
 _symmetry_equiv_pos_site_id
 _symmetry_equiv_pos_as_xyz
  1  'x, y, z'
loop_
 _atom_site_type_symbol
 _atom_site_label
 _atom_site_symmetry_multiplicity
 _atom_site_fract_x
 _atom_site_fract_y
 _atom_site_fract_z
 _atom_site_occupancy
  Tb  Tb0  1  0.50000000  0.50000000  0.00000000  1
  Tb  Tb1  1  0.00000000  0.00000000  0.00000000  1
  In  In0  1  0.12491900  0.62491900  0.00000000  1
  In  In1  1  0.87508100  0.37508100  0.00000000  1
  In  In2  1  0.37508100  0.12491900  0.00000000  1
  In  In3  1  0.62491900  0.87508100  0.00000000  1
  Ni  Ni0  1  0.00000000  0.50000000  0.50000000  1
  Ni  Ni1  1  0.50000000  0.00000000  0.50000000  1
  Ni  Ni2  1  0.56370200  0.70589100  0.50000000  1
  Ni  Ni3  1  0.43629800  0.29410900  0.50000000  1
  Ni  Ni4  1  0.93629800  0.20589100  0.50000000  1
  Ni  Ni5  1  0.06370200  0.79410900  0.50000000  1
  Ni  Ni6  1  0.70589100  0.43629800  0.50000000  1
  Ni  Ni7  1  0.29410900  0.56370200  0.50000000  1
  Ni  Ni8  1  0.20589100  0.06370200  0.50000000  1
  Ni  Ni9  1  0.79410900  0.93629800  0.50000000  1
  Ni  Ni10  1  0.32359500  0.82359500  0.75208600  1
  Ni  Ni11  1  0.67640500  0.17640500  0.75208600  1
  Ni  Ni12  1  0.17640500  0.32359500  0.75208600  1
  Ni  Ni13  1  0.82359500  0.67640500  0.75208600  1
  Ni  Ni14  1  0.67640500  0.17640500  0.24791400  1
  Ni  Ni15  1  0.32359500  0.82359500  0.24791400  1
  Ni  Ni16  1  0.82359500  0.67640500  0.24791400  1
  Ni  Ni17  1  0.17640500  0.32359500  0.24791400  1
loop_
_geom_bond_atom_site_label_1
_geom_bond_atom_site_label_2
_geom_bond_distance
_geom_bond_site_symmetry_2
In0 Ni10 2.594070 1_554
In0 Ni15 2.594070 1_555
In0 Ni17 2.776013 1_555
In0 Ni12 2.776013 1_554
In0 Ni13 2.776013 1_454
In0 Ni16 2.776013 1_455
In0 Ni0 2.800147 1_554
In0 Ni0 2.800147 1_555
In0 Ni5 2.814106 1_554
In0 Ni5 2.814106 1_555
In0 Ni7 2.814106 1_554
In0 Ni7 2.814106 1_555
In0 In1 2.900060 1_455
In0 Tb1 3.244888 1_565
In0 Tb0 3.244888 1_555
In1 Ni11 2.594070 1_554
In1 Ni14 2.594070 1_555
In1 Ni12 2.776013 1_654
In1 Ni17 2.776013 1_655
In1 Ni16 2.776013 1_555
In1 Ni13 2.776013 1_554
In1 Ni0 2.800147 1_654
In1 Ni0 2.800147 1_655
In1 Ni4 2.814106 1_555
In1 Ni6 2.814106 1_554
In1 Ni4 2.814106 1_554
In1 Ni6 2.814106 1_555
In1 Tb1 3.244888 1_655
In1 Tb0 3.244888 1_555
In2 Ni12 2.594070 1_554
In2 Ni17 2.594070 1_555
In2 Ni15 2.776013 1_545
In2 Ni10 2.776013 1_544
In2 Ni11 2.776013 1_554
In2 Ni14 2.776013 1_555
In2 Ni1 2.800147 1_555
In2 Ni1 2.800147 1_554
In2 Ni8 2.814106 1_554
In2 Ni3 2.814106 1_554
In2 Ni8 2.814106 1_555
In2 Ni3 2.814106 1_555
In2 In3 2.900060 1_545
In2 Tb1 3.244888 1_555
In2 Tb0 3.244888 1_555
In3 Ni13 2.594070 1_554
In3 Ni16 2.594070 1_555
In3 Ni11 2.776013 1_564
In3 Ni14 2.776013 1_565
In3 Ni10 2.776013 1_554
In3 Ni15 2.776013 1_555
In3 Ni1 2.800147 1_565
In3 Ni1 2.800147 1_564
In3 Ni9 2.814106 1_554
In3 Ni9 2.814106 1_555
In3 Ni2 2.814106 1_555
In3 Ni2 2.814106 1_554
In3 Tb1 3.244888 1_665
In3 Tb0 3.244888 1_555
Ni0 Ni17 2.377297 1_555
Ni0 Ni13 2.377297 1_455
Ni0 Ni12 2.377297 1_555
Ni0 Ni16 2.377297 1_455
Ni0 Ni5 2.470000 1_555
Ni0 Ni6 2.470000 1_455
Ni0 Ni7 2.470000 1_555
Ni0 Ni4 2.470000 1_455
Ni1 Ni10 2.377297 1_545
Ni1 Ni14 2.377297 1_555
Ni1 Ni11 2.377297 1_555
Ni1 Ni15 2.377297 1_545
Ni1 Ni2 2.470000 1_545
Ni1 Ni9 2.470000 1_545
Ni1 Ni3 2.470000 1_555
Ni1 Ni8 2.470000 1_555
Ni2 Ni7 2.501709 1_555
Ni2 Ni6 2.501709 1_555
Ni2 Ni9 2.674509 1_555
Ni2 Tb0 2.977837 1_555
Ni2 Tb0 2.977837 1_556
Ni3 Ni7 2.501709 1_555
Ni3 Ni6 2.501709 1_555
Ni3 Ni8 2.674509 1_555
Ni3 Tb0 2.977837 1_555
Ni3 Tb0 2.977837 1_556
Ni4 Ni8 2.501709 1_655
Ni4 Ni9 2.501709 1_545
Ni4 Ni6 2.674509 1_555
Ni4 Tb1 2.977837 1_656
Ni4 Tb1 2.977837 1_655
Ni5 Ni8 2.501709 1_565
Ni5 Ni9 2.501709 1_455
Ni5 Ni7 2.674509 1_555
Ni5 Tb1 2.977837 1_565
Ni5 Tb1 2.977837 1_566
Ni6 Tb0 2.977837 1_555
Ni6 Tb0 2.977837 1_556
Ni7 Tb0 2.977837 1_555
Ni7 Tb0 2.977837 1_556
Ni8 Tb1 2.977837 1_556
Ni8 Tb1 2.977837 1_555
Ni9 Tb1 2.977837 1_665
Ni9 Tb1 2.977837 1_666
Ni10 Ni15 2.375474 1_556
Ni10 Ni15 2.415450 1_555
Ni10 Ni7 2.463258 1_555
Ni10 Ni5 2.463258 1_555
Ni10 Ni8 2.505182 1_565
Ni10 Ni2 2.505182 1_555
Ni10 Tb0 3.249886 1_556
Ni10 Tb1 3.249886 1_566
Ni11 Ni14 2.375474 1_556
Ni11 Ni14 2.415450 1_555
Ni11 Ni4 2.463258 1_555
Ni11 Ni6 2.463258 1_555
Ni11 Ni3 2.505182 1_555
Ni11 Ni9 2.505182 1_545
Ni11 Tb1 3.249886 1_656
Ni11 Tb0 3.249886 1_556
Ni12 Ni17 2.375474 1_556
Ni12 Ni17 2.415450 1_555
Ni12 Ni3 2.463258 1_555
Ni12 Ni8 2.463258 1_555
Ni12 Ni7 2.505182 1_555
Ni12 Ni4 2.505182 1_455
Ni12 Tb0 3.249886 1_556
Ni12 Tb1 3.249886 1_556
Ni13 Ni16 2.375474 1_556
Ni13 Ni16 2.415450 1_555
Ni13 Ni9 2.463258 1_555
Ni13 Ni2 2.463258 1_555
Ni13 Ni5 2.505182 1_655
Ni13 Ni6 2.505182 1_555
Ni13 Tb0 3.249886 1_556
Ni13 Tb1 3.249886 1_666
Ni14 Ni4 2.463258 1_555
Ni14 Ni6 2.463258 1_555
Ni14 Ni3 2.505182 1_555
Ni14 Ni9 2.505182 1_545
Ni14 Tb1 3.249886 1_655
Ni14 Tb0 3.249886 1_555
Ni15 Ni7 2.463258 1_555
Ni15 Ni5 2.463258 1_555
Ni15 Ni8 2.505182 1_565
Ni15 Ni2 2.505182 1_555
Ni15 Tb0 3.249886 1_555
Ni15 Tb1 3.249886 1_565
Ni16 Ni9 2.463258 1_555
Ni16 Ni2 2.463258 1_555
Ni16 Ni5 2.505182 1_655
Ni16 Ni6 2.505182 1_555
Ni16 Tb1 3.249886 1_665
Ni16 Tb0 3.249886 1_555
Ni17 Ni3 2.463258 1_555
Ni17 Ni8 2.463258 1_555
Ni17 Ni7 2.505182 1_555
Ni17 Ni4 2.505182 1_455
Ni17 Tb0 3.249886 1_555
Ni17 Tb1 3.249886 1_555
