# generated using pymatgen
data_MgTa2Te4Br10O
_symmetry_space_group_name_H-M   'P 1'
_cell_length_a   7.92843013
_cell_length_b   9.27853013
_cell_length_c   10.13459975
_cell_angle_alpha   78.50268555
_cell_angle_beta   89.28398940
_cell_angle_gamma   79.67405483
_symmetry_Int_Tables_number   1
_chemical_formula_structural   MgTa2Te4Br10O
_chemical_formula_sum   'Mg1 Ta2 Te4 Br10 O1'
_cell_volume   718.54218942
_cell_formula_units_Z   1
loop_
 _symmetry_equiv_pos_site_id
 _symmetry_equiv_pos_as_xyz
  1  'x, y, z'
loop_
 _atom_site_type_symbol
 _atom_site_label
 _atom_site_symmetry_multiplicity
 _atom_site_fract_x
 _atom_site_fract_y
 _atom_site_fract_z
 _atom_site_occupancy
  Mg  Mg0  1  0.48984700  0.99581600  0.51333100  1
  Ta  Ta0  1  0.44920300  0.37459200  0.38416900  1
  Ta  Ta1  1  0.53521900  0.61756400  0.62773200  1
  Te  Te0  1  0.94151600  0.81215700  0.99198100  1
  Te  Te1  1  0.06488300  0.19745000  0.01515300  1
  Te  Te2  1  0.16027500  0.90306200  0.15386900  1
  Te  Te3  1  0.84690000  0.10730100  0.85159000  1
  Br  Br0  1  0.41054400  0.15346700  0.25320800  1
  Br  Br1  1  0.62034900  0.48470900  0.19998100  1
  Br  Br2  1  0.16921800  0.52876100  0.28809500  1
  Br  Br3  1  0.72036100  0.17543400  0.48823300  1
  Br  Br4  1  0.69192600  0.77185700  0.43125200  1
  Br  Br5  1  0.27689200  0.22527800  0.57411000  1
  Br  Br6  1  0.25807700  0.81503500  0.53867600  1
  Br  Br7  1  0.82394200  0.46858800  0.71131700  1
  Br  Br8  1  0.38151700  0.50154300  0.82128900  1
  Br  Br9  1  0.58687100  0.83575600  0.76145700  1
  O  O0  1  0.48913000  0.49591200  0.50705300  1
loop_
_geom_bond_atom_site_label_1
_geom_bond_atom_site_label_2
_geom_bond_distance
_geom_bond_site_symmetry_2
Te0 Te2 2.749302 1_656
Te0 Te3 2.797046 1_565
Te1 Te3 2.752619 1_454
Te1 Te2 2.786498 1_545
Br0 Ta0 2.717757 1_555
Br0 Mg0 2.767535 1_545
Br1 Ta0 2.458256 1_555
Br2 Ta0 2.506467 1_555
Br3 Ta0 2.646590 1_555
Br3 Mg0 2.663405 1_545
Br4 Ta1 2.645306 1_555
Br4 Mg0 2.653159 1_555
Br5 Mg0 2.640297 1_545
Br5 Ta0 2.653477 1_555
Br6 Ta1 2.635691 1_555
Br6 Mg0 2.679123 1_555
Br7 Ta1 2.513100 1_555
Br7 Te3 3.343562 1_555
Br8 Ta1 2.461825 1_555
Br9 Mg0 2.696453 1_555
Br9 Ta1 2.740048 1_555
O0 Ta1 1.900732 1_555
O0 Ta0 1.901255 1_555
