# generated using pymatgen
data_PSN9
_symmetry_space_group_name_H-M   'P 1'
_cell_length_a   16.36793500
_cell_length_b   6.34624900
_cell_length_c   8.05601015
_cell_angle_alpha   81.94511746
_cell_angle_beta   90.00000000
_cell_angle_gamma   90.00000000
_symmetry_Int_Tables_number   1
_chemical_formula_structural   PSN9
_chemical_formula_sum   'P4 S4 N36'
_cell_volume   828.56219071
_cell_formula_units_Z   4
loop_
 _symmetry_equiv_pos_site_id
 _symmetry_equiv_pos_as_xyz
  1  'x, y, z'
loop_
 _atom_site_type_symbol
 _atom_site_label
 _atom_site_symmetry_multiplicity
 _atom_site_fract_x
 _atom_site_fract_y
 _atom_site_fract_z
 _atom_site_occupancy
  P  P0  1  0.85000700  0.91917900  0.87918600  1
  P  P1  1  0.35000700  0.08082100  0.62081400  1
  P  P2  1  0.14999300  0.08082100  0.12081400  1
  P  P3  1  0.64999300  0.91917900  0.37918600  1
  S  S0  1  0.92290600  0.71938800  0.00261100  1
  S  S1  1  0.42290600  0.28061200  0.49738900  1
  S  S2  1  0.07709400  0.28061200  0.99738900  1
  S  S3  1  0.57709400  0.71938800  0.50261100  1
  N  N0  1  0.86884900  0.01939600  0.67650900  1
  N  N1  1  0.36884900  0.98060400  0.82349100  1
  N  N2  1  0.13115100  0.98060400  0.32349100  1
  N  N3  1  0.63115100  0.01939600  0.17650900  1
  N  N4  1  0.93063600  0.12803000  0.63927100  1
  N  N5  1  0.43063600  0.87197000  0.86072900  1
  N  N6  1  0.06936400  0.87197000  0.36072900  1
  N  N7  1  0.56936400  0.12803000  0.13927100  1
  N  N8  1  0.98540400  0.22926400  0.58936600  1
  N  N9  1  0.48540400  0.77073600  0.91063400  1
  N  N10  1  0.01459600  0.77073600  0.41063400  1
  N  N11  1  0.51459600  0.22926400  0.08936600  1
  N  N12  1  0.75503500  0.83299900  0.83499200  1
  N  N13  1  0.25503500  0.16700100  0.66500800  1
  N  N14  1  0.24496500  0.16700100  0.16500800  1
  N  N15  1  0.74496500  0.83299900  0.33499200  1
  N  N16  1  0.72269800  0.68684600  0.92992300  1
  N  N17  1  0.22269800  0.31315400  0.57007700  1
  N  N18  1  0.27730200  0.31315400  0.07007700  1
  N  N19  1  0.77730200  0.68684600  0.42992300  1
  N  N20  1  0.68743000  0.55213700  0.00756600  1
  N  N21  1  0.18743000  0.44786300  0.49243400  1
  N  N22  1  0.31257000  0.44786300  0.99243400  1
  N  N23  1  0.81257000  0.55213700  0.50756600  1
  N  N24  1  0.83126800  0.14844000  0.96173200  1
  N  N25  1  0.33126800  0.85156000  0.53826800  1
  N  N26  1  0.16873200  0.85156000  0.03826800  1
  N  N27  1  0.66873200  0.14844000  0.46173200  1
  N  N28  1  0.85715900  0.17182200  0.10184700  1
  N  N29  1  0.35715900  0.82817800  0.39815300  1
  N  N30  1  0.14284100  0.82817800  0.89815300  1
  N  N31  1  0.64284100  0.17182200  0.60184700  1
  N  N32  1  0.87871300  0.21163500  0.22875600  1
  N  N33  1  0.37871300  0.78836500  0.27124400  1
  N  N34  1  0.12128700  0.78836500  0.77124400  1
  N  N35  1  0.62128700  0.21163500  0.72875600  1
loop_
_geom_bond_atom_site_label_1
_geom_bond_atom_site_label_2
_geom_bond_distance
_geom_bond_site_symmetry_2
P0 S0 1.914869 1_556
P1 S1 1.914869 1_555
P2 S2 1.914869 1_554
P3 S3 1.914869 1_555
N0 N4 1.236977 1_555
N0 P0 1.695443 1_545
N1 N5 1.236977 1_555
N1 P1 1.695443 1_565
N2 N6 1.236977 1_555
N2 P2 1.695443 1_565
N3 N7 1.236977 1_555
N3 P3 1.695443 1_545
N4 N8 1.142629 1_555
N5 N9 1.142629 1_555
N10 N6 1.142629 1_555
N11 N7 1.142629 1_555
N12 N16 1.235527 1_555
N12 P0 1.702029 1_555
N13 N17 1.235527 1_555
N13 P1 1.702029 1_555
N14 N18 1.235527 1_555
N14 P2 1.702029 1_555
N15 N19 1.235527 1_555
N15 P3 1.702029 1_555
N16 N20 1.142571 1_556
N17 N21 1.142571 1_555
N18 N22 1.142571 1_554
N19 N23 1.142571 1_555
N24 N28 1.233964 1_556
N24 P0 1.710060 1_545
N25 N29 1.233964 1_555
N25 P1 1.710060 1_565
N26 N30 1.233964 1_554
N26 P2 1.710060 1_565
N27 N31 1.233964 1_555
N27 P3 1.710060 1_545
N28 N32 1.142784 1_555
N29 N33 1.142784 1_555
N30 N34 1.142784 1_555
N31 N35 1.142784 1_555
