# generated using pymatgen
data_YTlTe2
_symmetry_space_group_name_H-M   'P 1'
_cell_length_a   8.53046516
_cell_length_b   8.53046516
_cell_length_c   8.53046428
_cell_angle_alpha   30.29729295
_cell_angle_beta   30.29729295
_cell_angle_gamma   30.29729231
_symmetry_Int_Tables_number   1
_chemical_formula_structural   YTlTe2
_chemical_formula_sum   'Y1 Tl1 Te2'
_cell_volume   140.00285038
_cell_formula_units_Z   1
loop_
 _symmetry_equiv_pos_site_id
 _symmetry_equiv_pos_as_xyz
  1  'x, y, z'
loop_
 _atom_site_type_symbol
 _atom_site_label
 _atom_site_symmetry_multiplicity
 _atom_site_fract_x
 _atom_site_fract_y
 _atom_site_fract_z
 _atom_site_occupancy
  Y  Y0  1  0.50000000  0.50000000  0.50000000  1
  Tl  Tl0  1  -0.00000000  -0.00000000  0.00000000  1
  Te  Te0  1  0.76216190  0.76216190  0.76216190  1
  Te  Te1  1  0.23783810  0.23783810  0.23783810  1
loop_
_geom_bond_atom_site_label_1
_geom_bond_atom_site_label_2
_geom_bond_distance
_geom_bond_site_symmetry_2
Te0 Y0 3.105031 1_556
Te0 Y0 3.105032 1_655
Te0 Y0 3.105032 1_565
Te0 Tl0 3.471958 1_665
Te0 Tl0 3.471959 1_656
Te0 Tl0 3.471959 1_566
Te1 Y0 3.105031 1_554
Te1 Y0 3.105032 1_455
Te1 Y0 3.105032 1_545
Te1 Tl0 3.471958 1_556
Te1 Tl0 3.471959 1_655
Te1 Tl0 3.471959 1_565
