# generated using pymatgen
data_Y2MgSe4
_symmetry_space_group_name_H-M   'P 1'
_cell_length_a   7.55106935
_cell_length_b   7.55106935
_cell_length_c   7.55106935
_cell_angle_alpha   110.50857121
_cell_angle_beta   110.50857121
_cell_angle_gamma   107.41586465
_symmetry_Int_Tables_number   1
_chemical_formula_structural   Y2MgSe4
_chemical_formula_sum   'Y4 Mg2 Se8'
_cell_volume   331.12044521
_cell_formula_units_Z   2
loop_
 _symmetry_equiv_pos_site_id
 _symmetry_equiv_pos_as_xyz
  1  'x, y, z'
loop_
 _atom_site_type_symbol
 _atom_site_label
 _atom_site_symmetry_multiplicity
 _atom_site_fract_x
 _atom_site_fract_y
 _atom_site_fract_z
 _atom_site_occupancy
  Y  Y0  1  0.87500000  0.75642100  0.38142100  1
  Y  Y1  1  0.50642100  0.12500000  0.88142100  1
  Y  Y2  1  0.37500000  0.49357900  0.61857900  1
  Y  Y3  1  0.24357900  0.62500000  0.11857900  1
  Mg  Mg0  1  0.00000000  0.00000000  0.00000000  1
  Mg  Mg1  1  0.75000000  0.25000000  0.50000000  1
  Se  Se0  1  0.50792900  0.37826300  0.26196400  1
  Se  Se1  1  0.75403500  0.49207100  0.87033400  1
  Se  Se2  1  0.11629900  0.24596500  0.73803600  1
  Se  Se3  1  0.62173700  0.88370100  0.12966600  1
  Se  Se4  1  0.24207100  0.00403500  0.37033400  1
  Se  Se5  1  0.99596500  0.36629900  0.23803600  1
  Se  Se6  1  0.63370100  0.87173700  0.62966600  1
  Se  Se7  1  0.12826300  0.75792900  0.76196400  1
loop_
_geom_bond_atom_site_label_1
_geom_bond_atom_site_label_2
_geom_bond_distance
_geom_bond_site_symmetry_2
Mg0 Se5 2.736311 1_455
Mg0 Se7 2.736311 1_544
Mg0 Se4 2.736311 1_555
Mg0 Se6 2.736311 1_444
Mg0 Se0 3.308901 1_555
Mg0 Se3 3.308901 1_445
Mg0 Se2 3.308901 1_554
Mg0 Se1 3.308901 1_444
Mg1 Se3 2.736311 1_545
Mg1 Se2 2.736311 1_655
Mg1 Se1 2.736311 1_555
Mg1 Se0 2.736311 1_555
Mg1 Se5 3.308901 1_555
Mg1 Se6 3.308901 1_545
Mg1 Se7 3.308901 1_655
Mg1 Se4 3.308901 1_555
Se0 Y1 2.833367 1_554
Se0 Y0 2.890622 1_555
Se0 Y2 3.129089 1_555
Se0 Y3 3.279234 1_555
Se1 Y2 2.833367 1_555
Se1 Y1 2.890622 1_555
Se1 Y3 3.129089 1_656
Se1 Y0 3.279234 1_556
Se2 Y3 2.833367 1_556
Se2 Y2 2.890622 1_555
Se2 Y0 3.129089 1_445
Se2 Y1 3.279234 1_555
Se3 Y0 2.833367 1_555
Se3 Y3 2.890622 1_555
Se3 Y1 3.129089 1_564
Se3 Y2 3.279234 1_554
Se4 Y3 2.833367 1_545
Se4 Y0 2.890622 1_445
Se4 Y2 3.129089 1_555
Se4 Y1 3.279234 1_555
Se5 Y2 2.833367 1_655
Se5 Y3 2.890622 1_655
Se5 Y1 3.129089 1_554
Se5 Y0 3.279234 1_555
Se6 Y1 2.833367 1_565
Se6 Y2 2.890622 1_555
Se6 Y0 3.129089 1_555
Se6 Y3 3.279234 1_555
Se7 Y0 2.833367 1_455
Se7 Y1 2.890622 1_565
Se7 Y3 3.129089 1_556
Se7 Y2 3.279234 1_555
