# generated using pymatgen
data_KErF4
_symmetry_space_group_name_H-M   'P 1'
_cell_length_a   14.15674269
_cell_length_b   14.15674269
_cell_length_c   10.28207300
_cell_angle_alpha   90.00000000
_cell_angle_beta   90.00000000
_cell_angle_gamma   120.00000321
_symmetry_Int_Tables_number   1
_chemical_formula_structural   KErF4
_chemical_formula_sum   'K18 Er18 F72'
_cell_volume   1784.58803696
_cell_formula_units_Z   18
loop_
 _symmetry_equiv_pos_site_id
 _symmetry_equiv_pos_as_xyz
  1  'x, y, z'
loop_
 _atom_site_type_symbol
 _atom_site_label
 _atom_site_symmetry_multiplicity
 _atom_site_fract_x
 _atom_site_fract_y
 _atom_site_fract_z
 _atom_site_occupancy
  K  K0  1  0.05390400  0.60511400  0.98570600  1
  K  K1  1  0.55121000  0.94609600  0.65237200  1
  K  K2  1  0.39488600  0.44879000  0.31903900  1
  K  K3  1  0.55340100  0.61978500  0.01469500  1
  K  K4  1  0.06638300  0.44659900  0.68136200  1
  K  K5  1  0.38021500  0.93361700  0.34802900  1
  K  K6  1  0.72815500  0.95724600  0.98159000  1
  K  K7  1  0.22909100  0.27184500  0.64825700  1
  K  K8  1  0.04275400  0.77090900  0.31492300  1
  K  K9  1  0.21117500  0.93425500  0.01187500  1
  K  K10  1  0.72308000  0.78882500  0.67854200  1
  K  K11  1  0.06574500  0.27692000  0.34520900  1
  K  K12  1  0.89572700  0.28050600  0.01123400  1
  K  K13  1  0.38477900  0.10427300  0.67790100  1
  K  K14  1  0.71949400  0.61522100  0.34456800  1
  K  K15  1  0.39872300  0.27619900  0.98086200  1
  K  K16  1  0.87747600  0.60127700  0.64752900  1
  K  K17  1  0.72380100  0.12252400  0.31419500  1
  Er  Er0  1  0.22268900  0.42569500  0.99635400  1
  Er  Er1  1  0.20300700  0.77731100  0.66302100  1
  Er  Er2  1  0.57430500  0.79699300  0.32968800  1
  Er  Er3  1  0.06454800  0.11631000  0.98597000  1
  Er  Er4  1  0.05176300  0.93545200  0.65263700  1
  Er  Er5  1  0.88369000  0.94823700  0.31930300  1
  Er  Er6  1  0.53920800  0.09323900  0.00367200  1
  Er  Er7  1  0.55403100  0.46079200  0.67033900  1
  Er  Er8  1  0.90676100  0.44596900  0.33700600  1
  Er  Er9  1  0.39222100  0.78360700  0.99190400  1
  Er  Er10  1  0.39138600  0.60777900  0.65857100  1
  Er  Er11  1  0.21639300  0.60861400  0.32523800  1
  Er  Er12  1  0.87816400  0.75862700  0.99073100  1
  Er  Er13  1  0.88046400  0.12183600  0.65739800  1
  Er  Er14  1  0.24137300  0.11953600  0.32406500  1
  Er  Er15  1  0.72084200  0.44956200  0.00988500  1
  Er  Er16  1  0.72872000  0.27915800  0.67655200  1
  Er  Er17  1  0.55043800  0.27128000  0.34321800  1
  F  F0  1  0.26989700  0.47162200  0.78066600  1
  F  F1  1  0.20172500  0.73010300  0.44733300  1
  F  F2  1  0.52837800  0.79827500  0.11399900  1
  F  F3  1  0.21094500  0.47594400  0.20477100  1
  F  F4  1  0.26499900  0.78905500  0.87143700  1
  F  F5  1  0.52405600  0.73500100  0.53810400  1
  F  F6  1  0.92881900  0.05149400  0.13492400  1
  F  F7  1  0.12267500  0.07118100  0.80159100  1
  F  F8  1  0.94850600  0.87732500  0.46825800  1
  F  F9  1  0.06270300  0.05892700  0.32157500  1
  F  F10  1  0.99622500  0.93729700  0.98824200  1
  F  F11  1  0.94107300  0.00377500  0.65490900  1
  F  F12  1  0.53686500  0.13444300  0.22032100  1
  F  F13  1  0.59757800  0.46313500  0.88698800  1
  F  F14  1  0.86555700  0.40242200  0.55365500  1
  F  F15  1  0.60256400  0.14690700  0.79664200  1
  F  F16  1  0.54434300  0.39743600  0.46330900  1
  F  F17  1  0.85309300  0.45565700  0.12997600  1
  F  F18  1  0.39392800  0.72520500  0.32948700  1
  F  F19  1  0.33127600  0.60607200  0.99615400  1
  F  F20  1  0.27479500  0.66872400  0.66282100  1
  F  F21  1  0.25799900  0.71397800  0.14329700  1
  F  F22  1  0.45597900  0.74200100  0.80996300  1
  F  F23  1  0.28602200  0.54402100  0.47663000  1
  F  F24  1  0.87150800  0.81374100  0.19841000  1
  F  F25  1  0.94223300  0.12849200  0.86507600  1
  F  F26  1  0.18625900  0.05776700  0.53174300  1
  F  F27  1  0.92509800  0.80076400  0.77464200  1
  F  F28  1  0.87566600  0.07490200  0.44130900  1
  F  F29  1  0.19923600  0.12433400  0.10797500  1
  F  F30  1  0.62223700  0.40915300  0.19698800  1
  F  F31  1  0.78691700  0.37776300  0.86365400  1
  F  F32  1  0.59084700  0.21308300  0.53032100  1
  F  F33  1  0.72815700  0.32861700  0.34017000  1
  F  F34  1  0.60046000  0.27184300  0.00683700  1
  F  F35  1  0.67138300  0.39954000  0.67350300  1
  F  F36  1  0.06387200  0.62944900  0.73056900  1
  F  F37  1  0.56557700  0.93612800  0.39723600  1
  F  F38  1  0.37055100  0.43442300  0.06390300  1
  F  F39  1  0.05666600  0.58146900  0.24045300  1
  F  F40  1  0.52480400  0.94333400  0.90712000  1
  F  F41  1  0.41853100  0.47519600  0.57378700  1
  F  F42  1  0.55712100  0.64267400  0.27224100  1
  F  F43  1  0.08555300  0.44287900  0.93890800  1
  F  F44  1  0.35732600  0.91444700  0.60557400  1
  F  F45  1  0.40858400  0.93352900  0.09569700  1
  F  F46  1  0.52494500  0.59141600  0.76236400  1
  F  F47  1  0.06647100  0.47505500  0.42903000  1
  F  F48  1  0.72666400  0.92854400  0.23365800  1
  F  F49  1  0.20188000  0.27333600  0.90032500  1
  F  F50  1  0.07145600  0.79812000  0.56699200  1
  F  F51  1  0.73737300  0.97771800  0.72698900  1
  F  F52  1  0.24034500  0.26262700  0.39365600  1
  F  F53  1  0.02228200  0.75965500  0.06032200  1
  F  F54  1  0.08900900  0.26903600  0.08976000  1
  F  F55  1  0.18002700  0.91099100  0.75642700  1
  F  F56  1  0.73096400  0.81997300  0.42309300  1
  F  F57  1  0.21681500  0.96249200  0.26950500  1
  F  F58  1  0.74567800  0.78318500  0.93617100  1
  F  F59  1  0.03750800  0.25432200  0.60283800  1
  F  F60  1  0.90776400  0.30475200  0.26606300  1
  F  F61  1  0.39698800  0.09223600  0.93272900  1
  F  F62  1  0.69524800  0.60301200  0.59939600  1
  F  F63  1  0.74503100  0.60978900  0.09115100  1
  F  F64  1  0.86475800  0.25496900  0.75781800  1
  F  F65  1  0.39021100  0.13524200  0.42448500  1
  F  F66  1  0.40143300  0.25106500  0.23491300  1
  F  F67  1  0.84963200  0.59856700  0.90158000  1
  F  F68  1  0.74893500  0.15036800  0.56824600  1
  F  F69  1  0.42024500  0.30194100  0.72389000  1
  F  F70  1  0.88169500  0.57975500  0.39055600  1
  F  F71  1  0.69805900  0.11830500  0.05722300  1
loop_
_geom_bond_atom_site_label_1
_geom_bond_atom_site_label_2
_geom_bond_distance
_geom_bond_site_symmetry_2
Er0 F38 2.149579 1_556
Er0 F43 2.156242 1_555
Er0 F19 2.226727 1_555
Er0 F49 2.253563 1_555
Er0 F54 2.285891 1_556
Er0 F3 2.290026 1_556
Er0 F0 2.313683 1_555
Er1 F36 2.149581 1_555
Er1 F44 2.156236 1_555
Er1 F20 2.226704 1_555
Er1 F50 2.253576 1_555
Er1 F55 2.285899 1_555
Er1 F4 2.290011 1_555
Er1 F1 2.313681 1_555
Er2 F37 2.149589 1_555
Er2 F42 2.156231 1_555
Er2 F18 2.226730 1_555
Er2 F48 2.253572 1_555
Er2 F56 2.285882 1_555
Er2 F5 2.290013 1_555
Er2 F2 2.313695 1_555
Er3 F25 2.207236 1_455
Er3 F10 2.215234 1_445
Er3 F29 2.237333 1_556
Er3 F6 2.261988 1_456
Er3 F49 2.274875 1_555
Er3 F54 2.277006 1_556
Er3 F7 2.281467 1_555
Er4 F26 2.207230 1_565
Er4 F11 2.215234 1_465
Er4 F27 2.237339 1_455
Er4 F7 2.261988 1_565
Er4 F50 2.274867 1_555
Er4 F55 2.276994 1_555
Er4 F8 2.281474 1_455
Er5 F24 2.207219 1_555
Er5 F9 2.215234 1_665
Er5 F28 2.237351 1_565
Er5 F8 2.261986 1_555
Er5 F48 2.274880 1_555
Er5 F56 2.277002 1_555
Er5 F6 2.281474 1_565
Er6 F61 2.134798 1_554
Er6 F71 2.165239 1_555
Er6 F34 2.225656 1_555
Er6 F40 2.257874 1_544
Er6 F15 2.287271 1_554
Er6 F45 2.290387 1_545
Er6 F12 2.307143 1_555
Er7 F62 2.134798 1_555
Er7 F69 2.165244 1_555
Er7 F35 2.225655 1_555
Er7 F41 2.257861 1_555
Er7 F16 2.287271 1_555
Er7 F46 2.290387 1_555
Er7 F13 2.307143 1_555
Er8 F60 2.134798 1_555
Er8 F70 2.165250 1_555
Er8 F33 2.225655 1_555
Er8 F39 2.257873 1_655
Er8 F17 2.287271 1_555
Er8 F47 2.290383 1_655
Er8 F14 2.307143 1_555
Er9 F19 2.212379 1_555
Er9 F4 2.218758 1_555
Er9 F2 2.221323 1_556
Er9 F21 2.265457 1_556
Er9 F40 2.269756 1_555
Er9 F22 2.278793 1_555
Er9 F45 2.281569 1_556
Er10 F20 2.212392 1_555
Er10 F5 2.218758 1_555
Er10 F0 2.221323 1_555
Er10 F22 2.265450 1_555
Er10 F41 2.269764 1_555
Er10 F23 2.278793 1_555
Er10 F46 2.281569 1_555
Er11 F18 2.212381 1_555
Er11 F3 2.218758 1_555
Er11 F1 2.221323 1_555
Er11 F23 2.265450 1_555
Er11 F39 2.269755 1_555
Er11 F21 2.278793 1_555
Er11 F47 2.281564 1_555
Er12 F58 2.146021 1_555
Er12 F53 2.155250 1_656
Er12 F10 2.228088 1_555
Er12 F63 2.255389 1_556
Er12 F67 2.285298 1_555
Er12 F24 2.291500 1_556
Er12 F27 2.310313 1_555
Er13 F59 2.146021 1_655
Er13 F51 2.155256 1_545
Er13 F11 2.228088 1_555
Er13 F64 2.255397 1_555
Er13 F68 2.285315 1_555
Er13 F25 2.291485 1_555
Er13 F28 2.310311 1_555
Er14 F57 2.146021 1_545
Er14 F52 2.155263 1_555
Er14 F9 2.228088 1_555
Er14 F65 2.255384 1_555
Er14 F66 2.285307 1_555
Er14 F26 2.291487 1_555
Er14 F29 2.310325 1_555
Er15 F17 2.208141 1_555
Er15 F34 2.224303 1_555
Er15 F13 2.239215 1_554
Er15 F31 2.262655 1_554
Er15 F67 2.273325 1_554
Er15 F30 2.275597 1_555
Er15 F63 2.276810 1_555
Er16 F15 2.208135 1_555
Er16 F35 2.224303 1_555
Er16 F14 2.239215 1_555
Er16 F32 2.262646 1_555
Er16 F68 2.273330 1_555
Er16 F31 2.275589 1_555
Er16 F64 2.276810 1_555
Er17 F16 2.208141 1_555
Er17 F33 2.224303 1_555
Er17 F12 2.239215 1_555
Er17 F30 2.262639 1_555
Er17 F66 2.273325 1_555
Er17 F32 2.275604 1_555
Er17 F65 2.276814 1_555
F0 K4 2.906567 1_555
F0 K7 2.924399 1_555
F1 K5 2.906562 1_555
F1 K8 2.924404 1_555
F2 K3 2.906554 1_555
F2 K6 2.924399 1_554
F3 K11 2.908148 1_555
F3 K2 3.051237 1_555
F4 K9 2.908148 1_556
F4 K0 3.051241 1_555
F5 K10 2.908148 1_555
F5 K1 3.051237 1_555
F6 K6 2.923260 1_544
F7 K7 2.923260 1_555
F8 K8 2.923265 1_655
F9 K11 3.074384 1_555
F10 K9 3.074369 1_656
F11 K10 3.074376 1_545
F12 K17 2.900020 1_555
F12 K5 2.901764 1_545
F13 K15 2.900020 1_555
F13 K3 2.901768 1_556
F14 K16 2.900020 1_555
F14 K4 2.901755 1_655
F15 K1 2.957013 1_545
F15 K13 3.082160 1_555
F16 K2 2.957013 1_555
F16 K14 3.082160 1_555
F17 K0 2.957013 1_654
F17 K12 3.082164 1_555
F18 K5 3.058083 1_555
F19 K3 3.058083 1_556
F20 K4 3.058083 1_555
F21 K0 2.982619 1_554
F22 K1 2.982619 1_555
F23 K2 2.982619 1_555
F24 K14 2.956336 1_555
F24 K8 3.024900 1_655
F25 K12 2.956336 1_556
F25 K6 3.024904 1_545
F26 K13 2.956336 1_555
F26 K7 3.024904 1_555
F27 K16 2.869540 1_555
F27 K10 2.949690 1_555
F28 K17 2.869545 1_555
F28 K11 2.949690 1_655
F29 K15 2.869540 1_554
F29 K9 2.949690 1_545
F30 K14 2.948227 1_555
F31 K12 2.948217 1_556
F32 K13 2.948227 1_555
F33 K17 2.899592 1_555
F34 K15 2.899592 1_554
F35 K16 2.899591 1_555
F36 K16 2.607437 1_455
F36 K0 2.640432 1_555
F36 K4 2.655167 1_555
F37 K17 2.607441 1_565
F37 K1 2.640422 1_555
F37 K5 2.655181 1_555
F38 K15 2.607441 1_554
F38 K2 2.640422 1_555
F38 K3 2.655176 1_555
F39 K0 2.643396 1_554
F39 K8 2.888879 1_555
F40 K1 2.643404 1_555
F40 K6 2.888865 1_555
F41 K2 2.643405 1_555
F41 K7 2.888871 1_555
F42 K2 2.595426 1_555
F42 K14 2.623234 1_555
F42 K3 2.665178 1_555
F43 K0 2.595426 1_555
F43 K12 2.623231 1_456
F43 K4 2.665180 1_555
F44 K1 2.595426 1_555
F44 K13 2.623234 1_565
F44 K5 2.665169 1_555
F45 K5 2.625491 1_555
F45 K9 2.929473 1_555
F46 K3 2.625480 1_556
F46 K10 2.929472 1_555
F47 K4 2.625489 1_555
F47 K11 2.929470 1_555
F48 K6 2.621889 1_554
F48 K17 2.887884 1_565
F49 K7 2.621889 1_555
F49 K15 2.887884 1_555
F50 K8 2.621899 1_555
F50 K16 2.887884 1_455
F51 K1 2.560250 1_555
F51 K10 2.626568 1_555
F51 K6 2.629870 1_555
F52 K2 2.560250 1_555
F52 K11 2.626568 1_555
F52 K7 2.629870 1_555
F53 K0 2.560247 1_554
F53 K9 2.626568 1_555
F53 K8 2.629870 1_555
F54 K11 2.656393 1_555
F54 K12 2.934214 1_455
F55 K9 2.656383 1_556
F55 K13 2.934214 1_565
F56 K10 2.656393 1_555
F56 K14 2.934211 1_555
F57 K8 2.638716 1_555
F57 K5 2.667491 1_555
F57 K9 2.674191 1_555
F58 K6 2.638726 1_555
F58 K3 2.667508 1_556
F58 K10 2.674183 1_555
F59 K7 2.638712 1_555
F59 K4 2.667518 1_555
F59 K11 2.674181 1_555
F60 K11 2.588554 1_655
F60 K12 2.636979 1_555
F60 K17 2.638944 1_555
F61 K9 2.588553 1_546
F61 K13 2.636969 1_555
F61 K15 2.638946 1_555
F62 K10 2.588553 1_555
F62 K14 2.636969 1_555
F62 K16 2.638946 1_555
F63 K14 2.637012 1_555
F63 K3 2.895084 1_555
F64 K12 2.637002 1_556
F64 K4 2.895076 1_655
F65 K13 2.637002 1_555
F65 K5 2.895070 1_545
F66 K15 2.639160 1_554
F66 K2 2.975135 1_555
F67 K16 2.639160 1_555
F67 K0 2.975135 1_655
F68 K17 2.639160 1_555
F68 K1 2.975135 1_545
F69 K13 2.627046 1_555
F69 K7 2.637497 1_555
F69 K15 2.663803 1_555
F70 K14 2.627030 1_555
F70 K8 2.637502 1_655
F70 K16 2.663812 1_555
F71 K12 2.627041 1_555
F71 K6 2.637511 1_544
F71 K17 2.663804 1_555
