# generated using pymatgen
data_Mg(MnS2)2
_symmetry_space_group_name_H-M   'P 1'
_cell_length_a   7.37460842
_cell_length_b   7.37460842
_cell_length_c   7.37460842
_cell_angle_alpha   121.82697554
_cell_angle_beta   121.82697554
_cell_angle_gamma   86.86368140
_symmetry_Int_Tables_number   1
_chemical_formula_structural   Mg(MnS2)2
_chemical_formula_sum   'Mg2 Mn4 S8'
_cell_volume   275.31701223
_cell_formula_units_Z   2
loop_
 _symmetry_equiv_pos_site_id
 _symmetry_equiv_pos_as_xyz
  1  'x, y, z'
loop_
 _atom_site_type_symbol
 _atom_site_label
 _atom_site_symmetry_multiplicity
 _atom_site_fract_x
 _atom_site_fract_y
 _atom_site_fract_z
 _atom_site_occupancy
  Mg  Mg0  1  0.50000000  0.50000000  0.00000000  1
  Mg  Mg1  1  0.25000000  0.75000000  0.50000000  1
  Mn  Mn0  1  0.87500000  0.12500000  0.25000000  1
  Mn  Mn1  1  0.37500000  0.12500000  0.25000000  1
  Mn  Mn2  1  0.87500000  0.62500000  0.75000000  1
  Mn  Mn3  1  0.87500000  0.12500000  0.75000000  1
  S  S0  1  0.66042600  0.88887500  0.77155100  1
  S  S1  1  0.11112500  0.88267600  0.77155100  1
  S  S2  1  0.11112500  0.33957400  0.22844900  1
  S  S3  1  0.08957400  0.36112500  0.72844900  1
  S  S4  1  0.63267600  0.36112500  0.27155100  1
  S  S5  1  0.63887500  0.36732400  0.72844900  1
  S  S6  1  0.11732400  0.88887500  0.22844900  1
  S  S7  1  0.63887500  0.91042600  0.27155100  1
loop_
_geom_bond_atom_site_label_1
_geom_bond_atom_site_label_2
_geom_bond_distance
_geom_bond_site_symmetry_2
Mg0 S7 2.450195 1_555
Mg0 S5 2.450195 1_554
Mg0 S4 2.450195 1_555
Mg0 S3 2.450195 1_554
Mg1 S2 2.450195 1_555
Mg1 S1 2.450195 1_555
Mg1 S0 2.450195 1_555
Mg1 S6 2.450195 1_555
Mn0 S6 2.432729 1_645
Mn0 S3 2.432729 1_655
Mn0 S4 2.432729 1_555
Mn0 S0 2.432729 1_544
Mn0 S2 2.533798 1_655
Mn0 S7 2.533798 1_545
Mn1 S2 2.432729 1_555
Mn1 S5 2.432729 1_555
Mn1 S1 2.432729 1_544
Mn1 S7 2.432729 1_545
Mn1 S4 2.533798 1_555
Mn1 S6 2.533798 1_545
Mn2 S6 2.432729 1_656
Mn2 S4 2.432729 1_555
Mn2 S0 2.432729 1_555
Mn2 S3 2.432729 1_655
Mn2 S1 2.533798 1_655
Mn2 S5 2.533798 1_555
Mn3 S2 2.432729 1_656
Mn3 S1 2.432729 1_645
Mn3 S7 2.432729 1_545
Mn3 S5 2.432729 1_555
Mn3 S3 2.533798 1_655
Mn3 S0 2.533798 1_545
