# generated using pymatgen
data_Na2Dy2B2TeO10
_symmetry_space_group_name_H-M   'P 1'
_cell_length_a   10.05989000
_cell_length_b   6.36846300
_cell_length_c   6.79913011
_cell_angle_alpha   75.78818511
_cell_angle_beta   90.00000000
_cell_angle_gamma   90.00000000
_symmetry_Int_Tables_number   1
_chemical_formula_structural   Na2Dy2B2TeO10
_chemical_formula_sum   'Na4 Dy4 B4 Te2 O20'
_cell_volume   422.26187822
_cell_formula_units_Z   2
loop_
 _symmetry_equiv_pos_site_id
 _symmetry_equiv_pos_as_xyz
  1  'x, y, z'
loop_
 _atom_site_type_symbol
 _atom_site_label
 _atom_site_symmetry_multiplicity
 _atom_site_fract_x
 _atom_site_fract_y
 _atom_site_fract_z
 _atom_site_occupancy
  Na  Na0  1  0.61105600  0.41479600  0.16436100  1
  Na  Na1  1  0.11105600  0.58520400  0.33563900  1
  Na  Na2  1  0.38894400  0.58520400  0.83563900  1
  Na  Na3  1  0.88894400  0.41479600  0.66436100  1
  Dy  Dy0  1  0.83376100  0.87309900  0.02354500  1
  Dy  Dy1  1  0.33376100  0.12690100  0.47645500  1
  Dy  Dy2  1  0.16623900  0.12690100  0.97645500  1
  Dy  Dy3  1  0.66623900  0.87309900  0.52354500  1
  B  B0  1  0.40026300  0.66346400  0.37300400  1
  B  B1  1  0.90026300  0.33653600  0.12699600  1
  B  B2  1  0.59973700  0.33653600  0.62699600  1
  B  B3  1  0.09973700  0.66346400  0.87300400  1
  Te  Te0  1  0.50000000  0.00000000  0.00000000  1
  Te  Te1  1  0.00000000  0.00000000  0.50000000  1
  O  O0  1  0.82722500  0.51875700  0.05679200  1
  O  O1  1  0.32722500  0.48124300  0.44320800  1
  O  O2  1  0.17277500  0.48124300  0.94320800  1
  O  O3  1  0.67277500  0.51875700  0.55679200  1
  O  O4  1  0.65026200  0.00620600  0.17738600  1
  O  O5  1  0.15026200  0.99379400  0.32261400  1
  O  O6  1  0.34973800  0.99379400  0.82261400  1
  O  O7  1  0.84973800  0.00620600  0.67738600  1
  O  O8  1  0.43919800  0.70896900  0.16524300  1
  O  O9  1  0.93919800  0.29103100  0.33475700  1
  O  O10  1  0.56080200  0.29103100  0.83475700  1
  O  O11  1  0.06080200  0.70896900  0.66524300  1
  O  O12  1  0.93832200  0.20036500  0.00774700  1
  O  O13  1  0.43832200  0.79963500  0.49225300  1
  O  O14  1  0.06167800  0.79963500  0.99225300  1
  O  O15  1  0.56167800  0.20036500  0.50774700  1
  O  O16  1  0.38381800  0.16155900  0.13513400  1
  O  O17  1  0.88381800  0.83844100  0.36486600  1
  O  O18  1  0.61618200  0.83844100  0.86486600  1
  O  O19  1  0.11618200  0.16155900  0.63513400  1
loop_
_geom_bond_atom_site_label_1
_geom_bond_atom_site_label_2
_geom_bond_distance
_geom_bond_site_symmetry_2
Na0 O0 2.337634 1_555
Na0 O15 2.448887 1_555
Na0 O8 2.550351 1_555
Na0 O10 2.601213 1_554
Na0 O4 2.611729 1_555
Na0 O16 2.832577 1_555
Na0 O18 2.954767 1_554
Na0 O3 2.968243 1_555
Na1 O1 2.337634 1_555
Na1 O14 2.448887 1_554
Na1 O9 2.550351 1_455
Na1 O11 2.601213 1_555
Na1 O5 2.611729 1_555
Na1 O17 2.832577 1_455
Na1 O19 2.954767 1_555
Na1 O2 2.968243 1_554
Na2 O2 2.337634 1_555
Na2 O13 2.448887 1_555
Na2 O10 2.550351 1_555
Na2 O8 2.601213 1_556
Na2 O6 2.611729 1_555
Na2 O18 2.832577 1_555
Na2 O16 2.954767 1_556
Na2 O1 2.968243 1_555
Na3 O3 2.337634 1_555
Na3 O12 2.448887 1_556
Na3 O11 2.550351 1_655
Na3 O9 2.601213 1_555
Na3 O7 2.611729 1_555
Na3 O19 2.832577 1_655
Na3 O17 2.954767 1_555
Na3 O0 2.968243 1_556
Dy0 O0 2.212975 1_555
Dy0 O7 2.303068 1_564
Dy0 O12 2.313409 1_565
Dy0 O17 2.331603 1_555
Dy0 O14 2.360096 1_654
Dy0 O4 2.378164 1_565
Dy0 O18 2.473976 1_554
Dy1 O1 2.212975 1_555
Dy1 O6 2.303068 1_545
Dy1 O13 2.313409 1_545
Dy1 O16 2.331603 1_555
Dy1 O15 2.360096 1_555
Dy1 O5 2.378164 1_545
Dy1 O19 2.473976 1_555
Dy2 O2 2.212975 1_555
Dy2 O5 2.303068 1_546
Dy2 O14 2.313409 1_545
Dy2 O19 2.331603 1_555
Dy2 O12 2.360096 1_456
Dy2 O6 2.378164 1_545
Dy2 O16 2.473976 1_556
Dy3 O3 2.212975 1_555
Dy3 O4 2.303068 1_565
Dy3 O15 2.313409 1_565
Dy3 O18 2.331603 1_555
Dy3 O13 2.360096 1_555
Dy3 O7 2.378164 1_565
Dy3 O17 2.473976 1_555
B0 O1 1.357352 1_555
B0 O13 1.378856 1_555
B0 O8 1.425417 1_555
B1 O0 1.357352 1_555
B1 O12 1.378856 1_555
B1 O9 1.425417 1_555
B2 O3 1.357352 1_555
B2 O15 1.378856 1_555
B2 O10 1.425417 1_555
B3 O2 1.357352 1_555
B3 O14 1.378856 1_555
B3 O11 1.425417 1_555
O4 Te0 1.940249 1_555
O5 Te1 1.940249 1_565
O6 Te0 1.940249 1_566
O7 Te1 1.940249 1_655
O8 Te0 2.012240 1_565
O9 Te1 2.012240 1_655
O10 Te0 2.012240 1_556
O11 Te1 2.012240 1_565
O16 Te0 1.932096 1_555
O17 Te1 1.932096 1_665
O18 Te0 1.932096 1_566
O19 Te1 1.932096 1_555
