# generated using pymatgen
data_K2CoH12(C2O7)2
_symmetry_space_group_name_H-M   'P 1'
_cell_length_a   6.87707000
_cell_length_b   8.73684853
_cell_length_c   12.48502021
_cell_angle_alpha   102.21355921
_cell_angle_beta   90.00000000
_cell_angle_gamma   90.00000000
_symmetry_Int_Tables_number   1
_chemical_formula_structural   K2CoH12(C2O7)2
_chemical_formula_sum   'K4 Co2 H24 C8 O28'
_cell_volume   733.16996323
_cell_formula_units_Z   2
loop_
 _symmetry_equiv_pos_site_id
 _symmetry_equiv_pos_as_xyz
  1  'x, y, z'
loop_
 _atom_site_type_symbol
 _atom_site_label
 _atom_site_symmetry_multiplicity
 _atom_site_fract_x
 _atom_site_fract_y
 _atom_site_fract_z
 _atom_site_occupancy
  K  K0  1  0.65133600  0.56279300  0.88709700  1
  K  K1  1  0.84866400  0.06279300  0.38709700  1
  K  K2  1  0.34866400  0.43720700  0.11290300  1
  K  K3  1  0.15133600  0.93720700  0.61290300  1
  Co  Co0  1  0.00000000  0.00000000  0.00000000  1
  Co  Co1  1  0.50000000  0.50000000  0.50000000  1
  H  H0  1  0.58062300  0.90166200  0.84083500  1
  H  H1  1  0.91937700  0.40166200  0.34083500  1
  H  H2  1  0.41937700  0.09833800  0.15916500  1
  H  H3  1  0.08062300  0.59833800  0.65916500  1
  H  H4  1  0.51327800  0.78907600  0.73117700  1
  H  H5  1  0.98672200  0.28907600  0.23117700  1
  H  H6  1  0.48672200  0.21092400  0.26882300  1
  H  H7  1  0.01327800  0.71092400  0.76882300  1
  H  H8  1  0.98855900  0.67909700  0.26423100  1
  H  H9  1  0.51144100  0.17909700  0.76423100  1
  H  H10  1  0.01144100  0.32090300  0.73576900  1
  H  H11  1  0.48855900  0.82090300  0.23576900  1
  H  H12  1  0.91556800  0.57632200  0.15058200  1
  H  H13  1  0.58443200  0.07632200  0.65058200  1
  H  H14  1  0.08443200  0.42367800  0.84941800  1
  H  H15  1  0.41556800  0.92367800  0.34941800  1
  H  H16  1  0.28505500  0.07017100  0.87584700  1
  H  H17  1  0.21494500  0.57017100  0.37584700  1
  H  H18  1  0.71494500  0.92982900  0.12415300  1
  H  H19  1  0.78505500  0.42982900  0.62415300  1
  H  H20  1  0.10129700  0.16617800  0.84937000  1
  H  H21  1  0.39870300  0.66617800  0.34937000  1
  H  H22  1  0.89870300  0.83382200  0.15063000  1
  H  H23  1  0.60129700  0.33382200  0.65063000  1
  C  C0  1  0.31598100  0.81501300  0.04345400  1
  C  C1  1  0.18401900  0.31501300  0.54345400  1
  C  C2  1  0.68401900  0.18498700  0.95654600  1
  C  C3  1  0.81598100  0.68498700  0.45654600  1
  C  C4  1  0.18354500  0.70328800  0.95953900  1
  C  C5  1  0.31645500  0.20328800  0.45953900  1
  C  C6  1  0.81645500  0.29671200  0.04046100  1
  C  C7  1  0.68354500  0.79671200  0.54046100  1
  O  O0  1  0.26233100  0.95846200  0.06846000  1
  O  O1  1  0.23766900  0.45846200  0.56846000  1
  O  O2  1  0.73766900  0.04153800  0.93154000  1
  O  O3  1  0.76233100  0.54153800  0.43154000  1
  O  O4  1  0.02886400  0.76413900  0.92885400  1
  O  O5  1  0.47113600  0.26413900  0.42885400  1
  O  O6  1  0.97113600  0.23586100  0.07114600  1
  O  O7  1  0.52886400  0.73586100  0.57114600  1
  O  O8  1  0.46327100  0.75933400  0.08123800  1
  O  O9  1  0.03672900  0.25933400  0.58123800  1
  O  O10  1  0.53672900  0.24066600  0.91876200  1
  O  O11  1  0.96327100  0.74066600  0.41876200  1
  O  O12  1  0.23434100  0.56290800  0.92897900  1
  O  O13  1  0.26565900  0.06290800  0.42897900  1
  O  O14  1  0.76565900  0.43709200  0.07102100  1
  O  O15  1  0.73434100  0.93709200  0.57102100  1
  O  O16  1  0.49225900  0.81397800  0.81071400  1
  O  O17  1  0.00774100  0.31397800  0.31071400  1
  O  O18  1  0.50774100  0.18602200  0.18928600  1
  O  O19  1  0.99225900  0.68602200  0.68928600  1
  O  O20  1  0.00225000  0.66553700  0.18405500  1
  O  O21  1  0.49775000  0.16553700  0.68405500  1
  O  O22  1  0.99775000  0.33446300  0.81594500  1
  O  O23  1  0.50225000  0.83446300  0.31594500  1
  O  O24  1  0.14533900  0.06108400  0.86023300  1
  O  O25  1  0.35466100  0.56108400  0.36023300  1
  O  O26  1  0.85466100  0.93891600  0.13976700  1
  O  O27  1  0.64533900  0.43891600  0.63976700  1
loop_
_geom_bond_atom_site_label_1
_geom_bond_atom_site_label_2
_geom_bond_distance
_geom_bond_site_symmetry_2
K0 O16 2.794254 1_555
K0 O14 2.857312 1_556
K0 O12 2.914949 1_555
K0 O8 2.955562 1_556
K0 O10 3.028029 1_555
K0 O27 3.048648 1_555
K0 O22 3.113569 1_555
K0 O4 3.117531 1_655
K1 O17 2.794254 1_655
K1 O15 2.857312 1_545
K1 O13 2.914949 1_655
K1 O9 2.955562 1_655
K1 O11 3.028029 1_545
K1 O26 3.048648 1_545
K1 O23 3.113569 1_545
K1 O5 3.117531 1_555
K2 O18 2.794254 1_555
K2 O12 2.857312 1_554
K2 O14 2.914949 1_555
K2 O10 2.955562 1_554
K2 O8 3.028029 1_555
K2 O25 3.048648 1_555
K2 O20 3.113569 1_555
K2 O6 3.117531 1_455
K3 O19 2.794254 1_455
K3 O13 2.857312 1_565
K3 O15 2.914949 1_455
K3 O11 2.955562 1_455
K3 O9 3.028029 1_565
K3 O24 3.048648 1_565
K3 O21 3.113569 1_565
K3 O7 3.117531 1_555
Co0 O2 2.061108 1_454
Co0 O0 2.061108 1_545
Co0 O4 2.073727 1_544
Co0 O6 2.073727 1_455
Co0 O26 2.173215 1_445
Co0 O24 2.173215 1_554
Co1 O3 2.061108 1_555
Co1 O1 2.061108 1_555
Co1 O7 2.073727 1_555
Co1 O5 2.073727 1_555
Co1 O27 2.173215 1_555
Co1 O25 2.173215 1_555
H0 O16 0.987770 1_555
H1 O17 0.987770 1_655
H2 O18 0.987770 1_555
H3 O19 0.987770 1_455
H4 O16 0.981279 1_555
H5 O17 0.981279 1_655
H6 O18 0.981279 1_555
H7 O19 0.981279 1_455
H8 O20 0.987280 1_655
H9 O21 0.987280 1_555
H10 O22 0.987280 1_455
H11 O23 0.987280 1_555
H12 O20 0.999867 1_655
H13 O21 0.999867 1_555
H14 O22 0.999867 1_455
H15 O23 0.999867 1_555
H16 O24 0.980288 1_555
H17 O25 0.980288 1_555
H18 O26 0.980288 1_555
H19 O27 0.980288 1_555
H20 O24 1.002943 1_555
H21 O25 1.002943 1_555
H22 O26 1.002943 1_555
H23 O27 1.002943 1_555
C0 O8 1.257889 1_555
C0 O0 1.280150 1_555
C1 O9 1.257889 1_555
C1 O1 1.280150 1_555
C2 O10 1.257889 1_555
C2 O2 1.280150 1_555
C3 O11 1.257889 1_555
C3 O3 1.280150 1_555
C4 O12 1.254535 1_555
C4 O4 1.283418 1_555
C5 O13 1.254535 1_555
C5 O5 1.283418 1_555
C6 O14 1.254535 1_555
C6 O6 1.283418 1_555
C7 O15 1.254535 1_555
C7 O7 1.283418 1_555
