# generated using pymatgen
data_Rb2Si3SnO9
_symmetry_space_group_name_H-M   'P 1'
_cell_length_a   7.09817400
_cell_length_b   7.09817400
_cell_length_c   10.19764600
_cell_angle_alpha   90.00000000
_cell_angle_beta   90.00000000
_cell_angle_gamma   119.99999996
_symmetry_Int_Tables_number   1
_chemical_formula_structural   Rb2Si3SnO9
_chemical_formula_sum   'Rb4 Si6 Sn2 O18'
_cell_volume   444.96294460
_cell_formula_units_Z   2
loop_
 _symmetry_equiv_pos_site_id
 _symmetry_equiv_pos_as_xyz
  1  'x, y, z'
loop_
 _atom_site_type_symbol
 _atom_site_label
 _atom_site_symmetry_multiplicity
 _atom_site_fract_x
 _atom_site_fract_y
 _atom_site_fract_z
 _atom_site_occupancy
  Rb  Rb0  1  0.33333300  0.66666700  0.06078700  1
  Rb  Rb1  1  0.66666700  0.33333300  0.56078700  1
  Rb  Rb2  1  0.33333300  0.66666700  0.43921300  1
  Rb  Rb3  1  0.66666700  0.33333300  0.93921300  1
  Si  Si0  1  0.61578700  0.75529100  0.75000000  1
  Si  Si1  1  0.86049600  0.61578700  0.25000000  1
  Si  Si2  1  0.75529100  0.13950400  0.25000000  1
  Si  Si3  1  0.24470900  0.86049600  0.75000000  1
  Si  Si4  1  0.13950400  0.38421300  0.75000000  1
  Si  Si5  1  0.38421300  0.24470900  0.25000000  1
  Sn  Sn0  1  0.00000000  0.00000000  0.00000000  1
  Sn  Sn1  1  0.00000000  0.00000000  0.50000000  1
  O  O0  1  0.25729000  0.22172100  0.38599500  1
  O  O1  1  0.03556900  0.25729000  0.88599500  1
  O  O2  1  0.22172100  0.96443100  0.88599500  1
  O  O3  1  0.77827900  0.03556900  0.38599500  1
  O  O4  1  0.96443100  0.74271000  0.38599500  1
  O  O5  1  0.74271000  0.77827900  0.88599500  1
  O  O6  1  0.74271000  0.77827900  0.61400500  1
  O  O7  1  0.96443100  0.74271000  0.11400500  1
  O  O8  1  0.77827900  0.03556900  0.11400500  1
  O  O9  1  0.22172100  0.96443100  0.61400500  1
  O  O10  1  0.03556900  0.25729000  0.61400500  1
  O  O11  1  0.25729000  0.22172100  0.11400500  1
  O  O12  1  0.49762500  0.08865300  0.25000000  1
  O  O13  1  0.40897200  0.49762500  0.75000000  1
  O  O14  1  0.08865300  0.59102800  0.75000000  1
  O  O15  1  0.91134700  0.40897200  0.25000000  1
  O  O16  1  0.59102800  0.50237500  0.25000000  1
  O  O17  1  0.50237500  0.91134700  0.75000000  1
loop_
_geom_bond_atom_site_label_1
_geom_bond_atom_site_label_2
_geom_bond_distance
_geom_bond_site_symmetry_2
O0 Si5 1.616964 1_555
O0 Sn1 2.071131 1_555
O0 Rb2 2.975905 1_555
O0 Rb1 3.153817 1_555
O1 Si4 1.616964 1_555
O1 Sn0 2.071131 1_556
O1 Rb3 2.975898 1_455
O1 Rb0 3.153815 1_556
O2 Si3 1.616964 1_555
O2 Sn0 2.071131 1_566
O2 Rb3 2.975902 1_565
O2 Rb0 3.153811 1_556
O3 Si2 1.616964 1_555
O3 Sn1 2.071131 1_655
O3 Rb2 2.975902 1_545
O3 Rb1 3.153811 1_555
O4 Si1 1.616964 1_555
O4 Sn1 2.071131 1_665
O4 Rb2 2.975898 1_655
O4 Rb1 3.153815 1_555
O5 Si0 1.616964 1_555
O5 Sn0 2.071131 1_666
O5 Rb3 2.975905 1_555
O5 Rb0 3.153817 1_556
O6 Si0 1.616964 1_555
O6 Sn1 2.071131 1_665
O6 Rb1 2.975905 1_555
O6 Rb2 3.153817 1_555
O7 Si1 1.616964 1_555
O7 Sn0 2.071131 1_665
O7 Rb0 2.975898 1_655
O7 Rb3 3.153815 1_554
O8 Si2 1.616964 1_555
O8 Sn0 2.071131 1_655
O8 Rb0 2.975902 1_545
O8 Rb3 3.153811 1_554
O9 Si3 1.616964 1_555
O9 Sn1 2.071131 1_565
O9 Rb1 2.975902 1_565
O9 Rb2 3.153811 1_555
O10 Si4 1.616964 1_555
O10 Sn1 2.071131 1_555
O10 Rb1 2.975898 1_455
O10 Rb2 3.153815 1_555
O11 Si5 1.616964 1_555
O11 Sn0 2.071131 1_555
O11 Rb0 2.975905 1_555
O11 Rb3 3.153817 1_554
O12 Si5 1.663373 1_555
O12 Si2 1.677859 1_555
O12 Rb2 3.249917 1_545
O12 Rb0 3.249917 1_545
O13 Si4 1.663373 1_555
O13 Si0 1.677859 1_555
O13 Rb3 3.249923 1_555
O13 Rb1 3.249923 1_555
O14 Si3 1.663373 1_555
O14 Si4 1.677859 1_555
O14 Rb3 3.249918 1_455
O14 Rb1 3.249918 1_455
O15 Si2 1.663373 1_555
O15 Si1 1.677859 1_555
O15 Rb2 3.249918 1_655
O15 Rb0 3.249918 1_655
O16 Si1 1.663373 1_555
O16 Si5 1.677859 1_555
O16 Rb2 3.249923 1_555
O16 Rb0 3.249923 1_555
O17 Si0 1.663373 1_555
O17 Si3 1.677859 1_555
O17 Rb3 3.249917 1_565
O17 Rb1 3.249917 1_565
