# generated using pymatgen
data_Ca4CrN4
_symmetry_space_group_name_H-M   'P 1'
_cell_length_a   11.09933907
_cell_length_b   4.91635346
_cell_length_c   10.94414639
_cell_angle_alpha   90.00000000
_cell_angle_beta   90.00000000
_cell_angle_gamma   90.00000000
_symmetry_Int_Tables_number   1
_chemical_formula_structural   Ca4CrN4
_chemical_formula_sum   'Ca16 Cr4 N16'
_cell_volume   597.20317935
_cell_formula_units_Z   4
loop_
 _symmetry_equiv_pos_site_id
 _symmetry_equiv_pos_as_xyz
  1  'x, y, z'
loop_
 _atom_site_type_symbol
 _atom_site_label
 _atom_site_symmetry_multiplicity
 _atom_site_fract_x
 _atom_site_fract_y
 _atom_site_fract_z
 _atom_site_occupancy
  Ca  Ca0  1  0.09213495  0.25000000  0.18446454  1
  Ca  Ca1  1  0.59213495  0.25000000  0.31553546  1
  Ca  Ca2  1  0.90786505  0.75000000  0.81553546  1
  Ca  Ca3  1  0.40786505  0.75000000  0.68446454  1
  Ca  Ca4  1  0.77262736  0.25000000  0.97642267  1
  Ca  Ca5  1  0.27262736  0.25000000  0.52357733  1
  Ca  Ca6  1  0.22737264  0.75000000  0.02357733  1
  Ca  Ca7  1  0.72737264  0.75000000  0.47642267  1
  Ca  Ca8  1  0.44160781  0.25000000  0.88776535  1
  Ca  Ca9  1  0.94160781  0.25000000  0.61223465  1
  Ca  Ca10  1  0.55839219  0.75000000  0.11223465  1
  Ca  Ca11  1  0.05839219  0.75000000  0.38776535  1
  Ca  Ca12  1  0.12885695  0.25000000  0.84092507  1
  Ca  Ca13  1  0.62885695  0.25000000  0.65907493  1
  Ca  Ca14  1  0.87114305  0.75000000  0.15907493  1
  Ca  Ca15  1  0.37114305  0.75000000  0.34092507  1
  Cr  Cr0  1  0.36836011  0.25000000  0.14817830  1
  Cr  Cr1  1  0.86836011  0.25000000  0.35182170  1
  Cr  Cr2  1  0.63163989  0.75000000  0.85182170  1
  Cr  Cr3  1  0.13163989  0.75000000  0.64817830  1
  N  N0  1  0.83418563  0.25000000  0.19881219  1
  N  N1  1  0.33418563  0.25000000  0.30118781  1
  N  N2  1  0.16581437  0.75000000  0.80118781  1
  N  N3  1  0.66581437  0.75000000  0.69881219  1
  N  N4  1  0.92358071  0.25000000  0.82993160  1
  N  N5  1  0.42358071  0.25000000  0.67006840  1
  N  N6  1  0.07641929  0.75000000  0.17006840  1
  N  N7  1  0.57641929  0.75000000  0.32993160  1
  N  N8  1  0.26264404  0.25000000  0.02968658  1
  N  N9  1  0.76264404  0.25000000  0.47031342  1
  N  N10  1  0.73735596  0.75000000  0.97031342  1
  N  N11  1  0.23735596  0.75000000  0.52968658  1
  N  N12  1  0.51492251  0.25000000  0.10561999  1
  N  N13  1  0.01492251  0.25000000  0.39438001  1
  N  N14  1  0.48507749  0.75000000  0.89438001  1
  N  N15  1  0.98507749  0.75000000  0.60561999  1
loop_
_geom_bond_atom_site_label_1
_geom_bond_atom_site_label_2
_geom_bond_distance
_geom_bond_site_symmetry_2
Ca0 N13 2.451991 1_555
Ca0 N6 2.469389 1_555
Ca0 N6 2.469389 1_545
Ca0 N8 2.539890 1_555
Ca0 N0 2.867370 1_455
Ca0 N1 2.974841 1_555
Ca1 N12 2.451991 1_555
Ca1 N7 2.469389 1_545
Ca1 N7 2.469389 1_555
Ca1 N9 2.539890 1_555
Ca1 N1 2.867370 1_555
Ca1 N0 2.974841 1_555
Ca2 N15 2.451991 1_555
Ca2 N4 2.469389 1_565
Ca2 N4 2.469389 1_555
Ca2 N10 2.539890 1_555
Ca2 N2 2.867370 1_655
Ca2 N3 2.974841 1_555
Ca3 N14 2.451991 1_555
Ca3 N5 2.469389 1_555
Ca3 N5 2.469389 1_565
Ca3 N11 2.539890 1_555
Ca3 N3 2.867370 1_555
Ca3 N2 2.974841 1_555
Ca4 N4 2.318956 1_555
Ca4 N10 2.490054 1_555
Ca4 N10 2.490054 1_545
Ca4 N0 2.527950 1_556
Ca5 N5 2.318956 1_555
Ca5 N11 2.490054 1_555
Ca5 N11 2.490054 1_545
Ca5 N1 2.527950 1_555
Ca6 N6 2.318956 1_555
Ca6 N8 2.490054 1_555
Ca6 N8 2.490054 1_565
Ca6 N2 2.527950 1_554
Ca7 N7 2.318956 1_555
Ca7 N9 2.490054 1_555
Ca7 N9 2.490054 1_565
Ca7 N3 2.527950 1_555
Ca8 N5 2.390895 1_555
Ca8 N14 2.506125 1_555
Ca8 N14 2.506125 1_545
Ca8 N12 2.519275 1_556
Ca8 N8 2.521538 1_556
Ca9 N4 2.390895 1_555
Ca9 N15 2.506125 1_545
Ca9 N15 2.506125 1_555
Ca9 N13 2.519275 1_655
Ca9 N9 2.521538 1_555
Ca10 N7 2.390895 1_555
Ca10 N12 2.506125 1_555
Ca10 N12 2.506125 1_565
Ca10 N14 2.519275 1_554
Ca10 N10 2.521538 1_554
Ca11 N6 2.390895 1_555
Ca11 N13 2.506125 1_555
Ca11 N13 2.506125 1_565
Ca11 N15 2.519275 1_455
Ca11 N11 2.521538 1_555
Ca12 N4 2.281605 1_455
Ca12 N2 2.529828 1_555
Ca12 N2 2.529828 1_545
Ca12 N8 2.544158 1_556
Ca13 N5 2.281605 1_555
Ca13 N3 2.529828 1_555
Ca13 N3 2.529828 1_545
Ca13 N9 2.544158 1_555
Ca14 N6 2.281605 1_655
Ca14 N0 2.529828 1_565
Ca14 N0 2.529828 1_555
Ca14 N10 2.544158 1_554
Ca15 N7 2.281605 1_555
Ca15 N1 2.529828 1_565
Ca15 N1 2.529828 1_555
Ca15 N11 2.544158 1_555
Cr0 N12 1.692111 1_555
Cr0 N1 1.716981 1_555
Cr0 N8 1.748852 1_555
Cr1 N13 1.692111 1_655
Cr1 N0 1.716981 1_555
Cr1 N9 1.748852 1_555
Cr2 N14 1.692111 1_555
Cr2 N3 1.716981 1_555
Cr2 N10 1.748852 1_555
Cr3 N15 1.692111 1_455
Cr3 N2 1.716981 1_555
Cr3 N11 1.748852 1_555
