# generated using pymatgen
data_WO3
_symmetry_space_group_name_H-M   'P 1'
_cell_length_a   12.07910996
_cell_length_b   12.65392787
_cell_length_c   11.90182644
_cell_angle_alpha   91.52606989
_cell_angle_beta   88.33808779
_cell_angle_gamma   84.96808335
_symmetry_Int_Tables_number   1
_chemical_formula_structural   WO3
_chemical_formula_sum   'W25 O75'
_cell_volume   1810.62147194
_cell_formula_units_Z   25
loop_
 _symmetry_equiv_pos_site_id
 _symmetry_equiv_pos_as_xyz
  1  'x, y, z'
loop_
 _atom_site_type_symbol
 _atom_site_label
 _atom_site_symmetry_multiplicity
 _atom_site_fract_x
 _atom_site_fract_y
 _atom_site_fract_z
 _atom_site_occupancy
  W  W0  1  0.84219069  0.96539603  0.86695507  1
  W  W1  1  0.13506014  0.03181300  0.23736026  1
  W  W2  1  0.21236547  0.67098606  0.26491036  1
  W  W3  1  0.98396150  0.38887717  0.25656618  1
  W  W4  1  0.63303011  0.83614970  0.73336797  1
  W  W5  1  0.09426388  0.54750678  0.01311905  1
  W  W6  1  0.63765922  0.22066673  0.83367570  1
  W  W7  1  0.13404650  0.90677488  0.77028408  1
  W  W8  1  0.25102163  0.65125564  0.79811479  1
  W  W9  1  0.76293193  0.86795066  0.44229858  1
  W  W10  1  0.35795202  0.99855108  0.72972952  1
  W  W11  1  0.00462415  0.35130617  0.57909599  1
  W  W12  1  0.24830679  0.36712763  0.77232923  1
  W  W13  1  0.78835941  0.47922737  0.78738479  1
  W  W14  1  0.63369708  0.46196689  0.52104078  1
  W  W15  1  0.66238162  0.14770789  0.13299075  1
  W  W16  1  0.89796728  0.60657336  0.45768576  1
  W  W17  1  0.68104217  0.78537595  0.03863709  1
  W  W18  1  0.48986729  0.49916835  0.88682712  1
  W  W19  1  0.55686688  0.38169000  0.25576933  1
  W  W20  1  0.45357826  0.64354988  0.16992009  1
  W  W21  1  0.98028565  0.14744978  0.07530370  1
  W  W22  1  0.46789772  0.21615905  0.55785543  1
  W  W23  1  0.29391710  0.26578077  0.29433299  1
  W  W24  1  0.03253829  0.86904463  0.45556628  1
  O  O0  1  0.53279850  0.56826180  0.52885853  1
  O  O1  1  0.84319753  0.40585796  0.23093556  1
  O  O2  1  0.17333015  0.35952765  0.28482173  1
  O  O3  1  0.36444463  0.23722806  0.44040963  1
  O  O4  1  0.83563990  0.60205701  0.75704836  1
  O  O5  1  0.49716142  0.91501148  0.69871042  1
  O  O6  1  0.98041453  0.52508950  0.55235753  1
  O  O7  1  0.98762675  0.35868935  0.41707715  1
  O  O8  1  0.53897542  0.34458751  0.53241794  1
  O  O9  1  0.81040259  0.16362000  0.13090679  1
  O  O10  1  0.68392506  0.43339272  0.66082918  1
  O  O11  1  0.21396961  0.63470623  0.95295923  1
  O  O12  1  0.14114891  0.92324945  0.91526085  1
  O  O13  1  0.19519918  0.03295058  0.72064224  1
  O  O14  1  0.09359909  0.98583193  0.38980186  1
  O  O15  1  0.63071558  0.52822557  0.84325848  1
  O  O16  1  0.62451492  0.70415666  0.69786095  1
  O  O17  1  0.59884220  0.38188485  0.11370200  1
  O  O18  1  0.35734302  0.42874652  0.87158847  1
  O  O19  1  0.52815339  0.74720431  0.09830655  1
  O  O20  1  0.38681482  0.10131203  0.62325517  1
  O  O21  1  0.36291331  0.73031649  0.27521366  1
  O  O22  1  0.66067428  0.40483359  0.36377595  1
  O  O23  1  0.22302059  0.25013261  0.83657781  1
  O  O24  1  0.68428721  0.87801052  0.58019439  1
  O  O25  1  0.61098567  0.18294340  0.99340159  1
  O  O26  1  0.13702579  0.44929643  0.89772465  1
  O  O27  1  0.95779375  0.55251142  0.32545995  1
  O  O28  1  0.98779307  0.02628085  0.20030391  1
  O  O29  1  0.13463507  0.10815063  0.08935708  1
  O  O30  1  0.04349326  0.45052702  0.12371775  1
  O  O31  1  0.36126558  0.31896339  0.67136360  1
  O  O32  1  0.97549255  0.72844476  0.48795574  1
  O  O33  1  0.79805081  0.88029883  0.98038510  1
  O  O34  1  0.21829148  0.91808651  0.19280915  1
  O  O35  1  0.53384593  0.55052158  0.25589538  1
  O  O36  1  0.38568129  0.04957360  0.86116122  1
  O  O37  1  0.97742071  0.61607439  0.96406691  1
  O  O38  1  0.73224907  0.07254834  0.83935933  1
  O  O39  1  0.99697061  0.21472337  0.57951052  1
  O  O40  1  0.90224825  0.88309364  0.34783425  1
  O  O41  1  0.66690912  0.93439215  0.35834583  1
  O  O42  1  0.88866217  0.94291934  0.51655750  1
  O  O43  1  0.77196504  0.72152197  0.41736023  1
  O  O44  1  0.56386770  0.19366159  0.70622220  1
  O  O45  1  0.75929819  0.27774274  0.79794712  1
  O  O46  1  0.73145248  0.79643908  0.17460124  1
  O  O47  1  0.60546941  0.84025593  0.89114736  1
  O  O48  1  0.78439959  0.86752725  0.76304946  1
  O  O49  1  0.23958956  0.53402894  0.71139275  1
  O  O50  1  0.41635113  0.61792060  0.81931161  1
  O  O51  1  0.55257355  0.34733310  0.87543309  1
  O  O52  1  0.97322070  0.94598461  0.77274044  1
  O  O53  1  0.13139343  0.75001498  0.76437338  1
  O  O54  1  0.13715614  0.36611273  0.65087620  1
  O  O55  1  0.64058359  0.01425501  0.13846159  1
  O  O56  1  0.92484921  0.04384954  0.96986011  1
  O  O57  1  0.21121192  0.57338470  0.36331112  1
  O  O58  1  0.89771251  0.39097348  0.68849876  1
  O  O59  1  0.10126244  0.87746205  0.58757717  1
  O  O60  1  0.99776304  0.24580635  0.20697559  1
  O  O61  1  0.31762782  0.58645548  0.14835430  1
  O  O62  1  0.83814305  0.44514655  0.91891755  1
  O  O63  1  0.48957718  0.54926219  0.03135615  1
  O  O64  1  0.40840100  0.38193596  0.29499974  1
  O  O65  1  0.11222097  0.64227902  0.15447791  1
  O  O66  1  0.29791494  0.85818737  0.74422638  1
  O  O67  1  0.76921570  0.53072632  0.48402890  1
  O  O68  1  0.73475115  0.65989114  0.99361964  1
  O  O69  1  0.56910071  0.13093317  0.48756175  1
  O  O70  1  0.35143253  0.22929207  0.16120197  1
  O  O71  1  0.58817118  0.22509815  0.25660422  1
  O  O72  1  0.21493565  0.14060490  0.30861384  1
  O  O73  1  0.12984268  0.78245360  0.34721774  1
  O  O74  1  0.98175119  0.24570090  0.97665672  1
loop_
_geom_bond_atom_site_label_1
_geom_bond_atom_site_label_2
_geom_bond_distance
_geom_bond_site_symmetry_2
O0 W14 1.732740 1_555
O1 W3 1.731977 1_555
O2 W23 1.804240 1_555
O2 W3 2.320666 1_455
O3 W22 1.910302 1_555
O3 W23 1.986031 1_555
O4 W13 1.745265 1_555
O5 W4 1.906126 1_555
O5 W10 1.926831 1_555
O6 W16 1.808697 1_555
O6 W11 2.225408 1_655
O7 W11 1.948973 1_655
O7 W3 1.959137 1_555
O8 W22 1.930206 1_555
O8 W14 1.957910 1_555
O9 W15 1.816263 1_555
O9 W21 2.128623 1_555
O10 W14 1.821802 1_555
O10 W13 2.094874 1_555
O11 W8 1.905181 1_555
O11 W5 2.020606 1_556
O12 W7 1.738014 1_555
O13 W7 1.917217 1_545
O13 W10 1.982599 1_545
O14 W24 1.886774 1_555
O14 W1 1.983885 1_565
O15 W18 1.835021 1_555
O15 W13 2.037178 1_555
O16 W4 1.724500 1_555
O17 W19 1.751229 1_555
O18 W18 1.909954 1_555
O18 W12 1.989868 1_555
O19 W20 1.865630 1_555
O19 W17 2.060791 1_555
O20 W10 1.886788 1_545
O20 W22 1.985651 1_555
O21 W20 1.900390 1_555
O21 W2 2.033001 1_555
O22 W19 1.856971 1_555
O22 W14 1.995866 1_555
O23 W12 1.730842 1_555
O24 W9 1.868001 1_555
O24 W4 2.007713 1_555
O25 W15 1.842572 1_556
O25 W6 1.996339 1_555
O26 W5 1.858170 1_556
O26 W12 2.161268 1_555
O27 W16 1.804662 1_555
O27 W3 2.199868 1_555
O28 W1 1.851877 1_655
O28 W21 2.162729 1_555
O29 W21 1.900303 1_455
O29 W1 2.031335 1_555
O30 W3 1.929721 1_455
O30 W5 1.945765 1_555
O31 W12 1.843145 1_555
O31 W22 2.165155 1_555
O32 W16 1.904795 1_555
O32 W24 2.006223 1_655
O33 W0 1.844657 1_555
O33 W17 2.050936 1_556
O34 W1 1.742846 1_565
O35 W20 1.815033 1_555
O35 W19 2.130035 1_555
O36 W10 1.729315 1_545
O37 W5 1.716260 1_656
O38 W0 1.855548 1_545
O38 W6 2.111521 1_555
O39 W11 1.738988 1_655
O40 W9 2.022606 1_555
O40 W24 2.057323 1_655
O41 W9 1.729578 1_555
O42 W24 2.006683 1_655
O42 W9 2.067239 1_555
O43 W9 1.861880 1_555
O43 W16 2.086562 1_555
O44 W6 1.821147 1_555
O44 W22 2.151896 1_555
O45 W6 1.739981 1_555
O46 W17 1.751872 1_555
O47 W4 1.896155 1_555
O47 W17 2.107996 1_556
O48 W0 1.915851 1_555
O48 W4 1.944959 1_555
O49 W8 1.802072 1_555
O49 W12 2.245985 1_555
O50 W18 1.887841 1_555
O50 W8 2.028999 1_555
O51 W6 1.873849 1_555
O51 W18 2.002104 1_555
O52 W0 1.907070 1_555
O52 W7 1.961556 1_655
O53 W8 1.885377 1_555
O53 W7 1.986104 1_555
O54 W11 1.857729 1_555
O54 W12 2.001713 1_555
O55 W15 1.734401 1_555
O56 W0 1.913767 1_545
O56 W21 1.963936 1_556
O57 W2 1.725173 1_555
O58 W11 1.835497 1_655
O58 W13 1.989498 1_555
O59 W24 1.803131 1_555
O59 W7 2.248512 1_555
O60 W3 1.881000 1_555
O60 W21 2.002723 1_555
O61 W20 1.872759 1_555
O61 W2 2.065254 1_555
O62 W13 1.744532 1_555
O63 W18 1.817128 1_554
O63 W20 2.023592 1_555
O64 W19 1.839686 1_555
O64 W23 2.104593 1_555
O65 W2 1.861883 1_555
O65 W5 2.067637 1_555
O66 W10 1.986306 1_555
O66 W7 2.032956 1_555
O67 W16 1.920336 1_555
O67 W14 1.964460 1_555
O68 W17 1.727171 1_556
O69 W22 1.737440 1_555
O70 W23 1.745682 1_555
O71 W15 1.902582 1_555
O71 W19 1.984757 1_555
O72 W23 1.928218 1_555
O72 W1 1.939974 1_555
O73 W2 1.888355 1_555
O73 W24 1.963640 1_555
O74 W21 1.733459 1_556
