# generated using pymatgen
data_Tm3(SbPd2)4
_symmetry_space_group_name_H-M   'P 1'
_cell_length_a   9.33698584
_cell_length_b   9.33698584
_cell_length_c   9.33698584
_cell_angle_alpha   60.00000000
_cell_angle_beta   60.00000000
_cell_angle_gamma   60.00000000
_symmetry_Int_Tables_number   1
_chemical_formula_structural   Tm3(SbPd2)4
_chemical_formula_sum   'Tm6 Sb8 Pd16'
_cell_volume   575.57921435
_cell_formula_units_Z   2
loop_
 _symmetry_equiv_pos_site_id
 _symmetry_equiv_pos_as_xyz
  1  'x, y, z'
loop_
 _atom_site_type_symbol
 _atom_site_label
 _atom_site_symmetry_multiplicity
 _atom_site_fract_x
 _atom_site_fract_y
 _atom_site_fract_z
 _atom_site_occupancy
  Tm  Tm0  1  0.72435400  0.27564600  0.27564600  1
  Tm  Tm1  1  0.27564600  0.72435400  0.72435400  1
  Tm  Tm2  1  0.27564600  0.72435400  0.27564600  1
  Tm  Tm3  1  0.72435400  0.27564600  0.72435400  1
  Tm  Tm4  1  0.27564600  0.27564600  0.72435400  1
  Tm  Tm5  1  0.72435400  0.72435400  0.27564600  1
  Sb  Sb0  1  0.00000000  0.00000000  0.00000000  1
  Sb  Sb1  1  0.50000000  0.00000000  0.00000000  1
  Sb  Sb2  1  0.00000000  0.50000000  0.50000000  1
  Sb  Sb3  1  0.00000000  0.50000000  0.00000000  1
  Sb  Sb4  1  0.50000000  0.00000000  0.50000000  1
  Sb  Sb5  1  0.00000000  0.00000000  0.50000000  1
  Sb  Sb6  1  0.50000000  0.50000000  0.00000000  1
  Sb  Sb7  1  0.50000000  0.50000000  0.50000000  1
  Pd  Pd0  1  0.11867300  0.11867300  0.11867300  1
  Pd  Pd1  1  0.88132700  0.88132700  0.88132700  1
  Pd  Pd2  1  0.11867300  0.11867300  0.64398100  1
  Pd  Pd3  1  0.11867300  0.64398100  0.11867300  1
  Pd  Pd4  1  0.88132700  0.88132700  0.35601900  1
  Pd  Pd5  1  0.88132700  0.35601900  0.88132700  1
  Pd  Pd6  1  0.64398100  0.11867300  0.11867300  1
  Pd  Pd7  1  0.35601900  0.88132700  0.88132700  1
  Pd  Pd8  1  0.33393200  0.33393200  0.33393200  1
  Pd  Pd9  1  0.66606800  0.66606800  0.66606800  1
  Pd  Pd10  1  0.33393200  0.33393200  0.99820400  1
  Pd  Pd11  1  0.33393200  0.99820400  0.33393200  1
  Pd  Pd12  1  0.66606800  0.66606800  0.00179600  1
  Pd  Pd13  1  0.66606800  0.00179600  0.66606800  1
  Pd  Pd14  1  0.99820400  0.33393200  0.33393200  1
  Pd  Pd15  1  0.00179600  0.66606800  0.66606800  1
loop_
_geom_bond_atom_site_label_1
_geom_bond_atom_site_label_2
_geom_bond_distance
_geom_bond_site_symmetry_2
Sb1 Tm4 3.318447 1_554
Sb1 Tm2 3.318447 1_545
Sb1 Tm3 3.318447 1_554
Sb1 Tm5 3.318447 1_545
Sb2 Tm3 3.318447 1_455
Sb2 Tm5 3.318447 1_455
Sb2 Tm2 3.318447 1_555
Sb2 Tm4 3.318447 1_555
Sb3 Tm4 3.318447 1_554
Sb3 Tm0 3.318447 1_455
Sb3 Tm1 3.318447 1_554
Sb3 Tm5 3.318447 1_455
Sb4 Tm1 3.318447 1_545
Sb4 Tm5 3.318447 1_545
Sb4 Tm0 3.318447 1_555
Sb4 Tm4 3.318447 1_555
Sb5 Tm0 3.318447 1_455
Sb5 Tm2 3.318447 1_545
Sb5 Tm1 3.318447 1_545
Sb5 Tm3 3.318447 1_455
Sb6 Tm3 3.318447 1_554
Sb6 Tm1 3.318447 1_554
Sb6 Tm0 3.318447 1_555
Sb6 Tm2 3.318447 1_555
Sb7 Tm2 2.962481 1_555
Sb7 Tm4 2.962481 1_555
Sb7 Tm0 2.962481 1_555
Sb7 Tm3 2.962481 1_555
Sb7 Tm1 2.962481 1_555
Sb7 Tm5 2.962481 1_555
Pd0 Sb0 2.714153 1_555
Pd0 Sb5 2.910290 1_555
Pd0 Sb3 2.910290 1_555
Pd0 Sb1 2.910290 1_555
Pd0 Tm0 3.034365 1_455
Pd0 Tm2 3.034365 1_545
Pd0 Tm4 3.034365 1_554
Pd1 Sb0 2.714153 1_666
Pd1 Sb3 2.910290 1_656
Pd1 Sb1 2.910290 1_566
Pd1 Sb5 2.910290 1_665
Pd1 Tm1 3.034365 1_655
Pd1 Tm5 3.034365 1_556
Pd1 Tm3 3.034365 1_565
Pd2 Sb0 2.714153 1_556
Pd2 Sb2 2.910290 1_555
Pd2 Sb4 2.910290 1_555
Pd2 Sb5 2.910290 1_555
Pd2 Tm1 3.034365 1_545
Pd2 Tm3 3.034365 1_455
Pd2 Tm4 3.034365 1_555
Pd3 Sb0 2.714153 1_565
Pd3 Sb2 2.910290 1_555
Pd3 Sb6 2.910290 1_555
Pd3 Sb3 2.910290 1_555
Pd3 Tm5 3.034365 1_455
Pd3 Tm1 3.034365 1_554
Pd3 Tm2 3.034365 1_555
Pd4 Sb0 2.714153 1_665
Pd4 Sb4 2.910290 1_565
Pd4 Sb2 2.910290 1_655
Pd4 Sb5 2.910290 1_665
Pd4 Tm5 3.034365 1_555
Pd4 Tm0 3.034365 1_565
Pd4 Tm2 3.034365 1_655
Pd5 Sb0 2.714153 1_656
Pd5 Sb6 2.910290 1_556
Pd5 Sb2 2.910290 1_655
Pd5 Sb3 2.910290 1_656
Pd5 Tm3 3.034365 1_555
Pd5 Tm4 3.034365 1_655
Pd5 Tm0 3.034365 1_556
Pd6 Sb0 2.714153 1_655
Pd6 Sb6 2.910290 1_555
Pd6 Sb4 2.910290 1_555
Pd6 Sb1 2.910290 1_555
Pd6 Tm5 3.034365 1_545
Pd6 Tm3 3.034365 1_554
Pd6 Tm0 3.034365 1_555
Pd7 Sb0 2.714153 1_566
Pd7 Sb4 2.910290 1_565
Pd7 Sb6 2.910290 1_556
Pd7 Sb1 2.910290 1_566
Pd7 Tm1 3.034365 1_555
Pd7 Tm4 3.034365 1_565
Pd7 Tm2 3.034365 1_556
Pd8 Sb4 2.695390 1_555
Pd8 Sb2 2.695390 1_555
Pd8 Sb6 2.695390 1_555
Pd8 Tm0 3.195226 1_555
Pd8 Tm2 3.195226 1_555
Pd8 Tm4 3.195226 1_555
Pd9 Sb6 2.695390 1_556
Pd9 Sb2 2.695390 1_655
Pd9 Sb4 2.695390 1_565
Pd9 Tm3 3.195226 1_555
Pd9 Tm1 3.195226 1_555
Pd9 Tm5 3.195226 1_555
Pd10 Sb6 2.695390 1_556
Pd10 Sb3 2.695390 1_556
Pd10 Sb1 2.695390 1_556
Pd10 Tm4 3.195226 1_555
Pd10 Tm3 3.195226 1_555
Pd10 Tm1 3.195226 1_555
Pd11 Sb1 2.695390 1_565
Pd11 Sb5 2.695390 1_565
Pd11 Sb4 2.695390 1_565
Pd11 Tm2 3.195226 1_555
Pd11 Tm1 3.195226 1_555
Pd11 Tm5 3.195226 1_555
Pd12 Sb6 2.695390 1_555
Pd12 Sb1 2.695390 1_565
Pd12 Sb3 2.695390 1_655
Pd12 Tm0 3.195226 1_555
Pd12 Tm2 3.195226 1_555
Pd12 Tm5 3.195226 1_555
Pd13 Sb4 2.695390 1_555
Pd13 Sb5 2.695390 1_655
Pd13 Sb1 2.695390 1_556
Pd13 Tm0 3.195226 1_555
Pd13 Tm4 3.195226 1_555
Pd13 Tm3 3.195226 1_555
Pd14 Sb5 2.695390 1_655
Pd14 Sb2 2.695390 1_655
Pd14 Sb3 2.695390 1_655
Pd14 Tm0 3.195226 1_555
Pd14 Tm3 3.195226 1_555
Pd14 Tm5 3.195226 1_555
Pd15 Sb5 2.695390 1_565
Pd15 Sb2 2.695390 1_555
Pd15 Sb3 2.695390 1_556
Pd15 Tm4 3.195226 1_555
Pd15 Tm2 3.195226 1_555
Pd15 Tm1 3.195226 1_555
