# generated using pymatgen
data_Sr2MgOsO6
_symmetry_space_group_name_H-M   'P 1'
_cell_length_a   5.63033806
_cell_length_b   5.63033806
_cell_length_c   5.63033735
_cell_angle_alpha   120.17105767
_cell_angle_beta   120.17105767
_cell_angle_gamma   89.70396673
_symmetry_Int_Tables_number   1
_chemical_formula_structural   Sr2MgOsO6
_chemical_formula_sum   'Sr2 Mg1 Os1 O6'
_cell_volume   125.88030049
_cell_formula_units_Z   1
loop_
 _symmetry_equiv_pos_site_id
 _symmetry_equiv_pos_as_xyz
  1  'x, y, z'
loop_
 _atom_site_type_symbol
 _atom_site_label
 _atom_site_symmetry_multiplicity
 _atom_site_fract_x
 _atom_site_fract_y
 _atom_site_fract_z
 _atom_site_occupancy
  Sr  Sr0  1  0.75000000  0.25000000  0.50000000  1
  Sr  Sr1  1  0.25000000  0.75000000  0.50000000  1
  Mg  Mg0  1  0.50000000  0.50000000  0.00000000  1
  Os  Os0  1  0.00000000  0.00000000  0.00000000  1
  O  O0  1  0.77881600  0.73631600  0.51513200  1
  O  O1  1  0.22118400  0.26368400  0.48486800  1
  O  O2  1  0.73631600  0.22118400  0.95749900  1
  O  O3  1  0.26368400  0.77881600  0.04250100  1
  O  O4  1  0.24308200  0.24308200  0.00000000  1
  O  O5  1  0.75691800  0.75691800  0.00000000  1
loop_
_geom_bond_atom_site_label_1
_geom_bond_atom_site_label_2
_geom_bond_distance
_geom_bond_site_symmetry_2
Mg0 O4 2.050988 1_555
Mg0 O5 2.050988 1_555
Mg0 O0 2.052514 1_555
Mg0 O1 2.052514 1_554
Mg0 O2 2.052515 1_554
Mg0 O3 2.052515 1_555
O0 Os0 1.932770 1_666
O0 Sr1 2.699465 1_655
O0 Sr0 2.699465 1_555
O0 Sr0 2.937248 1_565
O0 Sr1 2.937248 1_555
O1 Os0 1.932770 1_555
O1 Sr0 2.699465 1_455
O1 Sr1 2.699465 1_555
O1 Sr1 2.937248 1_545
O1 Sr0 2.937248 1_555
O2 Os0 1.932770 1_656
O2 Sr0 2.699459 1_555
O2 Sr1 2.699465 1_545
O2 Sr1 2.937249 1_656
O2 Sr0 2.937254 1_556
O3 Os0 1.932770 1_565
O3 Sr1 2.699459 1_555
O3 Sr0 2.699465 1_565
O3 Sr0 2.937249 1_454
O3 Sr1 2.937254 1_554
O4 Os0 1.940534 1_555
O4 Sr1 2.808430 1_544
O4 Sr0 2.808430 1_454
O4 Sr0 2.808430 1_555
O4 Sr1 2.808430 1_555
O5 Os0 1.940534 1_665
O5 Sr1 2.808430 1_655
O5 Sr0 2.808430 1_565
O5 Sr0 2.808430 1_554
O5 Sr1 2.808430 1_554
