# generated using pymatgen
data_MgSnBiO5
_symmetry_space_group_name_H-M   'P 1'
_cell_length_a   5.30313500
_cell_length_b   10.37084500
_cell_length_c   15.42393600
_cell_angle_alpha   90.00000000
_cell_angle_beta   90.00000000
_cell_angle_gamma   90.00000000
_symmetry_Int_Tables_number   1
_chemical_formula_structural   MgSnBiO5
_chemical_formula_sum   'Mg8 Sn8 Bi8 O40'
_cell_volume   848.28549484
_cell_formula_units_Z   8
loop_
 _symmetry_equiv_pos_site_id
 _symmetry_equiv_pos_as_xyz
  1  'x, y, z'
loop_
 _atom_site_type_symbol
 _atom_site_label
 _atom_site_symmetry_multiplicity
 _atom_site_fract_x
 _atom_site_fract_y
 _atom_site_fract_z
 _atom_site_occupancy
  Mg  Mg0  1  0.53472000  0.37880000  0.56432300  1
  Mg  Mg1  1  0.03472000  0.12120000  0.56432300  1
  Mg  Mg2  1  0.03472000  0.62120000  0.93567700  1
  Mg  Mg3  1  0.96528000  0.37880000  0.06432300  1
  Mg  Mg4  1  0.46528000  0.12120000  0.06432300  1
  Mg  Mg5  1  0.96528000  0.87880000  0.43567700  1
  Mg  Mg6  1  0.46528000  0.62120000  0.43567700  1
  Mg  Mg7  1  0.53472000  0.87880000  0.93567700  1
  Sn  Sn0  1  0.04685100  0.37707400  0.43423500  1
  Sn  Sn1  1  0.45314900  0.87707400  0.56576500  1
  Sn  Sn2  1  0.95314900  0.62292600  0.56576500  1
  Sn  Sn3  1  0.54685100  0.12292600  0.43423500  1
  Sn  Sn4  1  0.95314900  0.12292600  0.93423500  1
  Sn  Sn5  1  0.04685100  0.87707400  0.06576500  1
  Sn  Sn6  1  0.45314900  0.37707400  0.93423500  1
  Sn  Sn7  1  0.54685100  0.62292600  0.06576500  1
  Bi  Bi0  1  0.98867300  0.85730900  0.75712400  1
  Bi  Bi1  1  0.01132700  0.14269100  0.24287600  1
  Bi  Bi2  1  0.51132700  0.35730900  0.24287600  1
  Bi  Bi3  1  0.01132700  0.64269100  0.25712400  1
  Bi  Bi4  1  0.48867300  0.14269100  0.74287600  1
  Bi  Bi5  1  0.48867300  0.64269100  0.75712400  1
  Bi  Bi6  1  0.51132700  0.85730900  0.25712400  1
  Bi  Bi7  1  0.98867300  0.35730900  0.74287600  1
  O  O0  1  0.85708300  0.30699000  0.32134100  1
  O  O1  1  0.24159100  0.00194700  0.97409100  1
  O  O2  1  0.25840900  0.50194700  0.02590900  1
  O  O3  1  0.31643400  0.79815200  0.83318400  1
  O  O4  1  0.18356600  0.29815200  0.16681600  1
  O  O5  1  0.85708300  0.80699000  0.17865900  1
  O  O6  1  0.18356600  0.79815200  0.33318400  1
  O  O7  1  0.64291700  0.80699000  0.67865900  1
  O  O8  1  0.24159100  0.50194700  0.52590900  1
  O  O9  1  0.14291700  0.69301000  0.67865900  1
  O  O10  1  0.64291700  0.30699000  0.82134100  1
  O  O11  1  0.81442800  0.24146000  0.49141200  1
  O  O12  1  0.74159100  0.99805300  0.52590900  1
  O  O13  1  0.68356600  0.70184800  0.33318400  1
  O  O14  1  0.25565300  0.99590500  0.15377600  1
  O  O15  1  0.74159100  0.49805300  0.97409100  1
  O  O16  1  0.14291700  0.19301000  0.82134100  1
  O  O17  1  0.81643400  0.20184800  0.66681600  1
  O  O18  1  0.31442800  0.75854000  0.00858800  1
  O  O19  1  0.25840900  0.00194700  0.47409100  1
  O  O20  1  0.18557200  0.75854000  0.50858800  1
  O  O21  1  0.74434700  0.00409500  0.84622400  1
  O  O22  1  0.68356600  0.20184800  0.16681600  1
  O  O23  1  0.75565300  0.00409500  0.34622400  1
  O  O24  1  0.18557200  0.25854000  0.99141200  1
  O  O25  1  0.31442800  0.25854000  0.49141200  1
  O  O26  1  0.75840900  0.49805300  0.47409100  1
  O  O27  1  0.75840900  0.99805300  0.02590900  1
  O  O28  1  0.75565300  0.50409500  0.15377600  1
  O  O29  1  0.68557200  0.74146000  0.50858800  1
  O  O30  1  0.68557200  0.24146000  0.99141200  1
  O  O31  1  0.81442800  0.74146000  0.00858800  1
  O  O32  1  0.74434700  0.50409500  0.65377600  1
  O  O33  1  0.81643400  0.70184800  0.83318400  1
  O  O34  1  0.31643400  0.29815200  0.66681600  1
  O  O35  1  0.25565300  0.49590500  0.34622400  1
  O  O36  1  0.24434700  0.49590500  0.84622400  1
  O  O37  1  0.35708300  0.19301000  0.32134100  1
  O  O38  1  0.24434700  0.99590500  0.65377600  1
  O  O39  1  0.35708300  0.69301000  0.17865900  1
loop_
_geom_bond_atom_site_label_1
_geom_bond_atom_site_label_2
_geom_bond_distance
_geom_bond_site_symmetry_2
Mg0 O25 2.045715 1_555
Mg0 O8 2.097287 1_555
Mg0 O34 2.130412 1_555
Mg0 O32 2.197256 1_555
Mg0 O26 2.207641 1_555
Mg0 O11 2.343855 1_555
Mg1 O11 2.045715 1_455
Mg1 O12 2.097287 1_445
Mg1 O17 2.130412 1_455
Mg1 O38 2.197256 1_545
Mg1 O19 2.207641 1_555
Mg1 O25 2.343855 1_555
Mg2 O31 2.045715 1_456
Mg2 O15 2.097287 1_455
Mg2 O33 2.130412 1_455
Mg2 O36 2.197256 1_555
Mg2 O2 2.207641 1_556
Mg2 O18 2.343855 1_556
Mg3 O24 2.045715 1_654
Mg3 O2 2.097287 1_655
Mg3 O4 2.130412 1_655
Mg3 O28 2.197256 1_555
Mg3 O15 2.207641 1_554
Mg3 O30 2.343855 1_554
Mg4 O30 2.045715 1_554
Mg4 O27 2.097287 1_545
Mg4 O22 2.130412 1_555
Mg4 O14 2.197256 1_545
Mg4 O1 2.207641 1_554
Mg4 O24 2.343855 1_554
Mg5 O20 2.045715 1_655
Mg5 O19 2.097287 1_665
Mg5 O6 2.130412 1_655
Mg5 O23 2.197256 1_565
Mg5 O12 2.207641 1_555
Mg5 O29 2.343855 1_555
Mg6 O29 2.045715 1_555
Mg6 O26 2.097287 1_555
Mg6 O13 2.130412 1_555
Mg6 O35 2.197256 1_555
Mg6 O8 2.207641 1_555
Mg6 O20 2.343855 1_555
Mg7 O18 2.045715 1_556
Mg7 O1 2.097287 1_565
Mg7 O3 2.130412 1_555
Mg7 O21 2.197256 1_565
Mg7 O27 2.207641 1_556
Mg7 O31 2.343855 1_556
Bi0 O3 2.184917 1_655
Bi0 O33 2.193164 1_555
Bi0 O9 2.244350 1_655
Bi0 O7 2.258110 1_555
Bi0 O21 2.425867 1_565
Bi0 O38 2.538766 1_655
Bi1 O22 2.184917 1_455
Bi1 O4 2.193164 1_555
Bi1 O0 2.244350 1_455
Bi1 O37 2.258110 1_555
Bi1 O14 2.425867 1_545
Bi1 O23 2.538766 1_455
Bi2 O4 2.184917 1_555
Bi2 O22 2.193164 1_555
Bi2 O37 2.244350 1_555
Bi2 O0 2.258110 1_555
Bi2 O28 2.425867 1_555
Bi2 O35 2.538766 1_555
Bi3 O13 2.184917 1_455
Bi3 O6 2.193164 1_555
Bi3 O5 2.244350 1_455
Bi3 O39 2.258110 1_555
Bi3 O35 2.425867 1_555
Bi3 O28 2.538766 1_455
Bi4 O17 2.184917 1_555
Bi4 O34 2.193164 1_555
Bi4 O10 2.244350 1_555
Bi4 O16 2.258110 1_555
Bi4 O38 2.425867 1_545
Bi4 O21 2.538766 1_555
Bi5 O33 2.184917 1_555
Bi5 O3 2.193164 1_555
Bi5 O7 2.244350 1_555
Bi5 O9 2.258110 1_555
Bi5 O36 2.425867 1_555
Bi5 O32 2.538766 1_555
Bi6 O6 2.184917 1_555
Bi6 O13 2.193164 1_555
Bi6 O39 2.244350 1_555
Bi6 O5 2.258110 1_555
Bi6 O23 2.425867 1_565
Bi6 O14 2.538766 1_555
Bi7 O34 2.184917 1_655
Bi7 O17 2.193164 1_555
Bi7 O16 2.244350 1_655
Bi7 O10 2.258110 1_555
Bi7 O32 2.425867 1_555
Bi7 O36 2.538766 1_655
O0 Sn0 2.138475 1_655
O1 Sn4 2.071685 1_455
O1 Sn5 2.177839 1_546
O2 Sn7 2.071685 1_555
O2 Sn6 2.177839 1_554
O5 Sn5 2.138475 1_655
O7 Sn1 2.138475 1_555
O8 Sn2 2.071685 1_455
O8 Sn0 2.177839 1_555
O9 Sn2 2.138475 1_455
O10 Sn6 2.138475 1_555
O11 Sn0 2.067612 1_655
O11 Sn3 2.074238 1_555
O12 Sn1 2.071685 1_555
O12 Sn3 2.177839 1_565
O14 Sn5 2.141873 1_555
O15 Sn6 2.071685 1_555
O15 Sn7 2.177839 1_556
O16 Sn4 2.138475 1_455
O18 Sn7 2.067612 1_555
O18 Sn5 2.074238 1_555
O19 Sn3 2.071685 1_555
O19 Sn1 2.177839 1_545
O20 Sn2 2.067612 1_455
O20 Sn1 2.074238 1_555
O21 Sn4 2.141873 1_555
O23 Sn3 2.141873 1_555
O24 Sn4 2.067612 1_455
O24 Sn6 2.074238 1_555
O25 Sn3 2.067612 1_555
O25 Sn0 2.074238 1_555
O26 Sn0 2.071685 1_655
O26 Sn2 2.177839 1_555
O27 Sn5 2.071685 1_655
O27 Sn4 2.177839 1_564
O28 Sn7 2.141873 1_555
O29 Sn1 2.067612 1_555
O29 Sn2 2.074238 1_555
O30 Sn6 2.067612 1_555
O30 Sn4 2.074238 1_555
O31 Sn5 2.067612 1_655
O31 Sn7 2.074238 1_555
O32 Sn2 2.141873 1_555
O35 Sn0 2.141873 1_555
O36 Sn6 2.141873 1_555
O37 Sn3 2.138475 1_555
O38 Sn1 2.141873 1_555
O39 Sn7 2.138475 1_555
