# generated using pymatgen
data_Ca2MnNbO6
_symmetry_space_group_name_H-M   'P 1'
_cell_length_a   7.65110943
_cell_length_b   7.96458808
_cell_length_c   7.96482570
_cell_angle_alpha   88.46475787
_cell_angle_beta   89.60420480
_cell_angle_gamma   90.39535953
_symmetry_Int_Tables_number   1
_chemical_formula_structural   Ca2MnNbO6
_chemical_formula_sum   'Ca8 Mn4 Nb4 O24'
_cell_volume   485.16203911
_cell_formula_units_Z   4
loop_
 _symmetry_equiv_pos_site_id
 _symmetry_equiv_pos_as_xyz
  1  'x, y, z'
loop_
 _atom_site_type_symbol
 _atom_site_label
 _atom_site_symmetry_multiplicity
 _atom_site_fract_x
 _atom_site_fract_y
 _atom_site_fract_z
 _atom_site_occupancy
  Ca  Ca0  1  0.25019600  0.52969200  0.02042600  1
  Ca  Ca1  1  0.25019700  0.02969200  0.52042600  1
  Ca  Ca2  1  0.24978600  0.52042900  0.52969600  1
  Ca  Ca3  1  0.24978600  0.02042900  0.02969600  1
  Ca  Ca4  1  0.74980200  0.47031100  0.97957300  1
  Ca  Ca5  1  0.74980300  0.97030900  0.47957300  1
  Ca  Ca6  1  0.75021400  0.47957300  0.47030400  1
  Ca  Ca7  1  0.75021400  0.97957200  0.97030200  1
  Mn  Mn0  1  0.99999800  0.75000200  0.74999200  1
  Mn  Mn1  1  0.50000100  0.75000300  0.25000400  1
  Mn  Mn2  1  0.00000600  0.24998200  0.25001500  1
  Mn  Mn3  1  0.50000400  0.24998100  0.75000900  1
  Nb  Nb0  1  0.50000000  0.25000100  0.24999900  1
  Nb  Nb1  1  0.50000000  0.75000100  0.75000000  1
  Nb  Nb2  1  0.00000000  0.25000100  0.75000000  1
  Nb  Nb3  1  0.00000000  0.75000100  0.24999900  1
  O  O0  1  0.04706200  0.79766000  0.00537600  1
  O  O1  1  0.04706200  0.29766000  0.50537500  1
  O  O2  1  0.45294800  0.50534100  0.79765400  1
  O  O3  1  0.45294800  0.00534100  0.29765300  1
  O  O4  1  0.95293700  0.20234100  0.99462300  1
  O  O5  1  0.95293700  0.70234100  0.49462400  1
  O  O6  1  0.54705100  0.49466000  0.20234500  1
  O  O7  1  0.54705100  0.99466000  0.70234600  1
  O  O8  1  0.54848000  0.20268300  0.00801700  1
  O  O9  1  0.54847900  0.70268300  0.50801800  1
  O  O10  1  0.95152900  0.50803100  0.20267100  1
  O  O11  1  0.95152800  0.00803200  0.70267000  1
  O  O12  1  0.45152000  0.79731900  0.99198100  1
  O  O13  1  0.45152100  0.29731800  0.49198200  1
  O  O14  1  0.04847100  0.49196900  0.79732900  1
  O  O15  1  0.04847100  0.99197100  0.29732800  1
  O  O16  1  0.25706300  0.68989600  0.28050500  1
  O  O17  1  0.25706400  0.18989700  0.78050400  1
  O  O18  1  0.24297600  0.28048400  0.18987200  1
  O  O19  1  0.24297800  0.78048400  0.68987100  1
  O  O20  1  0.74293600  0.31010500  0.71949600  1
  O  O21  1  0.74293700  0.81010500  0.21949500  1
  O  O22  1  0.75702200  0.71951800  0.81012800  1
  O  O23  1  0.75702300  0.21951900  0.31012600  1
loop_
_geom_bond_atom_site_label_1
_geom_bond_atom_site_label_2
_geom_bond_distance
_geom_bond_site_symmetry_2
Ca0 O2 2.361551 1_554
Ca0 O18 2.370232 1_555
Ca0 O14 2.385370 1_554
Ca0 O16 2.462536 1_555
Ca0 O12 2.625159 1_554
Ca0 O0 2.649452 1_555
Ca0 O10 2.700724 1_455
Ca0 O6 2.714504 1_555
Ca1 O3 2.361552 1_555
Ca1 O19 2.370227 1_545
Ca1 O15 2.385378 1_545
Ca1 O17 2.462534 1_555
Ca1 O13 2.625152 1_555
Ca1 O1 2.649456 1_555
Ca1 O11 2.700732 1_455
Ca1 O7 2.714502 1_545
Ca2 O1 2.361339 1_555
Ca2 O16 2.370244 1_555
Ca2 O13 2.385444 1_555
Ca2 O19 2.462204 1_555
Ca2 O14 2.625207 1_555
Ca2 O2 2.649583 1_555
Ca2 O9 2.700921 1_555
Ca2 O5 2.714436 1_455
Ca3 O0 2.361338 1_545
Ca3 O17 2.370255 1_554
Ca3 O12 2.385434 1_544
Ca3 O18 2.462209 1_555
Ca3 O15 2.625200 1_545
Ca3 O3 2.649577 1_555
Ca3 O8 2.700928 1_555
Ca3 O4 2.714437 1_454
Ca4 O6 2.361545 1_556
Ca4 O22 2.370221 1_555
Ca4 O10 2.385382 1_556
Ca4 O20 2.462531 1_555
Ca4 O8 2.625156 1_556
Ca4 O4 2.649469 1_555
Ca4 O14 2.700732 1_655
Ca4 O2 2.714496 1_555
Ca5 O7 2.361557 1_555
Ca5 O23 2.370249 1_565
Ca5 O11 2.385370 1_565
Ca5 O21 2.462529 1_555
Ca5 O9 2.625153 1_555
Ca5 O5 2.649452 1_555
Ca5 O15 2.700731 1_655
Ca5 O3 2.714508 1_565
Ca6 O5 2.361327 1_555
Ca6 O20 2.370255 1_555
Ca6 O9 2.385438 1_555
Ca6 O23 2.462211 1_555
Ca6 O10 2.625206 1_555
Ca6 O6 2.649594 1_555
Ca6 O13 2.700925 1_555
Ca6 O1 2.714433 1_655
Ca7 O4 2.361334 1_565
Ca7 O21 2.370258 1_556
Ca7 O8 2.385440 1_566
Ca7 O22 2.462193 1_555
Ca7 O11 2.625197 1_565
Ca7 O7 2.649575 1_555
Ca7 O12 2.700924 1_555
Ca7 O0 2.714431 1_656
Mn0 O19 1.928630 1_655
Mn0 O22 1.928630 1_555
Mn0 O5 2.111954 1_555
Mn0 O0 2.112077 1_656
Mn0 O11 2.115179 1_565
Mn0 O14 2.115225 1_655
Mn1 O21 1.928293 1_555
Mn1 O16 1.928310 1_555
Mn1 O3 2.111632 1_565
Mn1 O6 2.111683 1_555
Mn1 O9 2.115124 1_555
Mn1 O12 2.115193 1_554
Mn2 O23 1.928616 1_455
Mn2 O18 1.928616 1_555
Mn2 O1 2.111913 1_555
Mn2 O4 2.112117 1_454
Mn2 O15 2.115014 1_545
Mn2 O10 2.115362 1_455
Mn3 O17 1.928276 1_555
Mn3 O20 1.928309 1_555
Mn3 O7 2.111516 1_545
Mn3 O2 2.111800 1_555
Mn3 O8 2.115048 1_556
Mn3 O13 2.115252 1_555
Nb0 O6 2.004877 1_555
Nb0 O3 2.004886 1_555
Nb0 O8 2.006301 1_555
Nb0 O13 2.006306 1_555
Nb0 O23 2.041769 1_555
Nb0 O18 2.041778 1_555
Nb1 O7 2.004877 1_555
Nb1 O2 2.004886 1_555
Nb1 O12 2.006294 1_555
Nb1 O9 2.006300 1_555
Nb1 O22 2.041765 1_555
Nb1 O19 2.041767 1_555
Nb2 O4 2.004676 1_455
Nb2 O1 2.004688 1_555
Nb2 O14 2.006151 1_555
Nb2 O11 2.006161 1_455
Nb2 O20 2.042045 1_455
Nb2 O17 2.042045 1_555
Nb3 O0 2.004673 1_555
Nb3 O5 2.004691 1_455
Nb3 O10 2.006164 1_455
Nb3 O15 2.006166 1_555
Nb3 O21 2.042038 1_455
Nb3 O16 2.042042 1_555
