# generated using pymatgen
data_Mg(SiNi)6
_symmetry_space_group_name_H-M   'P 1'
_cell_length_a   4.89449388
_cell_length_b   4.90883321
_cell_length_c   7.61262700
_cell_angle_alpha   90.00000000
_cell_angle_beta   90.00000000
_cell_angle_gamma   119.90341997
_symmetry_Int_Tables_number   1
_chemical_formula_structural   Mg(SiNi)6
_chemical_formula_sum   'Mg1 Si6 Ni6'
_cell_volume   158.55249607
_cell_formula_units_Z   1
loop_
 _symmetry_equiv_pos_site_id
 _symmetry_equiv_pos_as_xyz
  1  'x, y, z'
loop_
 _atom_site_type_symbol
 _atom_site_label
 _atom_site_symmetry_multiplicity
 _atom_site_fract_x
 _atom_site_fract_y
 _atom_site_fract_z
 _atom_site_occupancy
  Mg  Mg0  1  0.99998100  0.00000000  0.00000000  1
  Si  Si0  1  0.99999300  0.00000000  0.34629800  1
  Si  Si1  1  0.99999300  0.00000000  0.65370200  1
  Si  Si2  1  0.33298500  0.66601300  0.00000000  1
  Si  Si3  1  0.66697200  0.33398700  0.00000000  1
  Si  Si4  1  0.33300700  0.66608000  0.50000000  1
  Si  Si5  1  0.66692700  0.33392000  0.50000000  1
  Ni  Ni0  1  0.49999300  0.00000000  0.25012000  1
  Ni  Ni1  1  0.49999000  0.50000300  0.25013600  1
  Ni  Ni2  1  0.99998800  0.49999700  0.25013600  1
  Ni  Ni3  1  0.49999300  0.00000000  0.74988000  1
  Ni  Ni4  1  0.49999000  0.50000300  0.74986400  1
  Ni  Ni5  1  0.99998800  0.49999700  0.74986400  1
loop_
_geom_bond_atom_site_label_1
_geom_bond_atom_site_label_2
_geom_bond_distance
_geom_bond_site_symmetry_2
Mg0 Si0 2.636238 1_555
Mg0 Si1 2.636238 1_554
Mg0 Si3 2.829985 1_655
Mg0 Si2 2.829985 1_645
Mg0 Si2 2.830006 1_545
Mg0 Si3 2.830006 1_555
Mg0 Si3 2.834089 1_545
Mg0 Si2 2.834089 1_655
Mg0 Ni3 3.100680 1_554
Mg0 Ni0 3.100680 1_555
Mg0 Ni3 3.100772 1_654
Mg0 Ni0 3.100772 1_655
Mg0 Ni2 3.106437 1_555
Mg0 Ni5 3.106437 1_554
Mg0 Ni1 3.106439 1_545
Mg0 Ni4 3.106439 1_544
Mg0 Ni1 3.106485 1_655
Mg0 Ni4 3.106485 1_654
Mg0 Ni2 3.106487 1_545
Mg0 Ni5 3.106487 1_544
Si0 Si1 2.340152 1_555
Ni0 Si4 2.374358 1_545
Ni0 Si5 2.374358 1_555
Ni0 Si2 2.375993 1_545
Ni0 Si3 2.375993 1_555
Ni0 Ni1 2.454395 1_545
Ni0 Ni2 2.454397 1_555
Ni0 Ni2 2.454436 1_445
Ni0 Ni1 2.454439 1_555
Ni0 Si0 2.554425 1_455
Ni0 Si0 2.554425 1_555
Ni1 Si5 2.369501 1_555
Ni1 Si4 2.369602 1_555
Ni1 Si3 2.371108 1_555
Ni1 Si2 2.371151 1_555
Ni1 Ni2 2.447242 1_455
Ni1 Ni2 2.447252 1_555
Ni1 Si0 2.561260 1_565
Ni1 Si0 2.561260 1_455
Ni2 Si4 2.369499 1_655
Ni2 Si5 2.369605 1_555
Ni2 Si2 2.371105 1_655
Ni2 Si3 2.371153 1_555
Ni2 Si0 2.561257 1_555
Ni2 Si0 2.561262 1_565
Ni3 Si4 2.374358 1_545
Ni3 Si5 2.374358 1_555
Ni3 Si2 2.375993 1_546
Ni3 Si3 2.375993 1_556
Ni3 Ni4 2.454395 1_545
Ni3 Ni5 2.454397 1_555
Ni3 Ni5 2.454436 1_445
Ni3 Ni4 2.454439 1_555
Ni3 Si1 2.554425 1_455
Ni3 Si1 2.554425 1_555
Ni4 Si5 2.369501 1_555
Ni4 Si4 2.369602 1_555
Ni4 Si3 2.371108 1_556
Ni4 Si2 2.371151 1_556
Ni4 Ni5 2.447242 1_455
Ni4 Ni5 2.447252 1_555
Ni4 Si1 2.561260 1_565
Ni4 Si1 2.561260 1_455
Ni5 Si4 2.369499 1_655
Ni5 Si5 2.369605 1_555
Ni5 Si2 2.371105 1_656
Ni5 Si3 2.371153 1_556
Ni5 Si1 2.561257 1_555
Ni5 Si1 2.561262 1_565
