# generated using pymatgen
data_YGa3Ni2
_symmetry_space_group_name_H-M   'P 1'
_cell_length_a   7.60768400
_cell_length_b   18.71575000
_cell_length_c   18.72707497
_cell_angle_alpha   119.98000099
_cell_angle_beta   90.00000000
_cell_angle_gamma   90.00000000
_symmetry_Int_Tables_number   1
_chemical_formula_structural   YGa3Ni2
_chemical_formula_sum   'Y24 Ga72 Ni48'
_cell_volume   2309.65847485
_cell_formula_units_Z   24
loop_
 _symmetry_equiv_pos_site_id
 _symmetry_equiv_pos_as_xyz
  1  'x, y, z'
loop_
 _atom_site_type_symbol
 _atom_site_label
 _atom_site_symmetry_multiplicity
 _atom_site_fract_x
 _atom_site_fract_y
 _atom_site_fract_z
 _atom_site_occupancy
  Y  Y0_0  1  0.25000000  0.25000000  0.00000000  1
  Y  Y0_1  1  0.25000000  0.25000000  0.50000000  1
  Y  Y0_2  1  0.25000000  0.75000000  0.00000000  1
  Y  Y0_3  1  0.25000000  0.75000000  0.50000000  1
  Y  Y0_4  1  0.75000000  0.25000000  0.00000000  1
  Y  Y0_5  1  0.75000000  0.25000000  0.50000000  1
  Y  Y0_6  1  0.75000000  0.75000000  0.00000000  1
  Y  Y0_7  1  0.75000000  0.75000000  0.50000000  1
  Y  Y1_0  1  0.00000000  0.41651700  0.33303400  1
  Y  Y1_1  1  0.00000000  0.41651700  0.83303400  1
  Y  Y1_2  1  0.00000000  0.91651700  0.33303400  1
  Y  Y1_3  1  0.00000000  0.91651700  0.83303400  1
  Y  Y1_4  1  0.50000000  0.41651700  0.33303400  1
  Y  Y1_5  1  0.50000000  0.41651700  0.83303400  1
  Y  Y1_6  1  0.50000000  0.91651700  0.33303400  1
  Y  Y1_7  1  0.50000000  0.91651700  0.83303400  1
  Y  Y2_0  1  0.00000000  0.08348300  0.16696600  1
  Y  Y2_1  1  0.00000000  0.08348300  0.66696600  1
  Y  Y2_2  1  0.00000000  0.58348300  0.16696600  1
  Y  Y2_3  1  0.00000000  0.58348300  0.66696600  1
  Y  Y2_4  1  0.50000000  0.08348300  0.16696600  1
  Y  Y2_5  1  0.50000000  0.08348300  0.66696600  1
  Y  Y2_6  1  0.50000000  0.58348300  0.16696600  1
  Y  Y2_7  1  0.50000000  0.58348300  0.66696600  1
  Ga  Ga0_0  1  0.25000000  0.34212700  0.18425450  1
  Ga  Ga0_1  1  0.25000000  0.34212700  0.68425450  1
  Ga  Ga0_2  1  0.25000000  0.84212700  0.18425450  1
  Ga  Ga0_3  1  0.25000000  0.84212700  0.68425450  1
  Ga  Ga0_4  1  0.75000000  0.34212700  0.18425450  1
  Ga  Ga0_5  1  0.75000000  0.34212700  0.68425450  1
  Ga  Ga0_6  1  0.75000000  0.84212700  0.18425450  1
  Ga  Ga0_7  1  0.75000000  0.84212700  0.68425450  1
  Ga  Ga1_0  1  0.25000000  0.06577400  0.40801500  1
  Ga  Ga1_1  1  0.25000000  0.06577400  0.90801500  1
  Ga  Ga1_2  1  0.25000000  0.56577400  0.40801500  1
  Ga  Ga1_3  1  0.25000000  0.56577400  0.90801500  1
  Ga  Ga1_4  1  0.75000000  0.06577400  0.40801500  1
  Ga  Ga1_5  1  0.75000000  0.06577400  0.90801500  1
  Ga  Ga1_6  1  0.75000000  0.56577400  0.40801500  1
  Ga  Ga1_7  1  0.75000000  0.56577400  0.90801500  1
  Ga  Ga2_0  1  0.25000000  0.34224050  0.40801500  1
  Ga  Ga2_1  1  0.25000000  0.34224050  0.90801500  1
  Ga  Ga2_2  1  0.25000000  0.84224050  0.40801500  1
  Ga  Ga2_3  1  0.25000000  0.84224050  0.90801500  1
  Ga  Ga2_4  1  0.75000000  0.34224050  0.40801500  1
  Ga  Ga2_5  1  0.75000000  0.34224050  0.90801500  1
  Ga  Ga2_6  1  0.75000000  0.84224050  0.40801500  1
  Ga  Ga2_7  1  0.75000000  0.84224050  0.90801500  1
  Ga  Ga3_0  1  0.25000000  0.15787300  0.31574550  1
  Ga  Ga3_1  1  0.25000000  0.15787300  0.81574550  1
  Ga  Ga3_2  1  0.25000000  0.65787300  0.31574550  1
  Ga  Ga3_3  1  0.25000000  0.65787300  0.81574550  1
  Ga  Ga3_4  1  0.75000000  0.15787300  0.31574550  1
  Ga  Ga3_5  1  0.75000000  0.15787300  0.81574550  1
  Ga  Ga3_6  1  0.75000000  0.65787300  0.31574550  1
  Ga  Ga3_7  1  0.75000000  0.65787300  0.81574550  1
  Ga  Ga4_0  1  0.25000000  0.15775950  0.09198500  1
  Ga  Ga4_1  1  0.25000000  0.15775950  0.59198500  1
  Ga  Ga4_2  1  0.25000000  0.65775950  0.09198500  1
  Ga  Ga4_3  1  0.25000000  0.65775950  0.59198500  1
  Ga  Ga4_4  1  0.75000000  0.15775950  0.09198500  1
  Ga  Ga4_5  1  0.75000000  0.15775950  0.59198500  1
  Ga  Ga4_6  1  0.75000000  0.65775950  0.09198500  1
  Ga  Ga4_7  1  0.75000000  0.65775950  0.59198500  1
  Ga  Ga5_0  1  0.25000000  0.43422600  0.09198500  1
  Ga  Ga5_1  1  0.25000000  0.43422600  0.59198500  1
  Ga  Ga5_2  1  0.25000000  0.93422600  0.09198500  1
  Ga  Ga5_3  1  0.25000000  0.93422600  0.59198500  1
  Ga  Ga5_4  1  0.75000000  0.43422600  0.09198500  1
  Ga  Ga5_5  1  0.75000000  0.43422600  0.59198500  1
  Ga  Ga5_6  1  0.75000000  0.93422600  0.09198500  1
  Ga  Ga5_7  1  0.75000000  0.93422600  0.59198500  1
  Ga  Ga6_0  1  0.25000000  0.00000000  0.00000000  1
  Ga  Ga6_1  1  0.25000000  0.00000000  0.50000000  1
  Ga  Ga6_2  1  0.25000000  0.50000000  0.00000000  1
  Ga  Ga6_3  1  0.25000000  0.50000000  0.50000000  1
  Ga  Ga6_4  1  0.75000000  0.00000000  0.00000000  1
  Ga  Ga6_5  1  0.75000000  0.00000000  0.50000000  1
  Ga  Ga6_6  1  0.75000000  0.50000000  0.00000000  1
  Ga  Ga6_7  1  0.75000000  0.50000000  0.50000000  1
  Ga  Ga7_0  1  0.25000000  0.25000000  0.25000000  1
  Ga  Ga7_1  1  0.25000000  0.25000000  0.75000000  1
  Ga  Ga7_2  1  0.25000000  0.75000000  0.25000000  1
  Ga  Ga7_3  1  0.25000000  0.75000000  0.75000000  1
  Ga  Ga7_4  1  0.75000000  0.25000000  0.25000000  1
  Ga  Ga7_5  1  0.75000000  0.25000000  0.75000000  1
  Ga  Ga7_6  1  0.75000000  0.75000000  0.25000000  1
  Ga  Ga7_7  1  0.75000000  0.75000000  0.75000000  1
  Ga  Ga8_0  1  0.25000000  0.00000000  0.25000000  1
  Ga  Ga8_1  1  0.25000000  0.00000000  0.75000000  1
  Ga  Ga8_2  1  0.25000000  0.50000000  0.25000000  1
  Ga  Ga8_3  1  0.25000000  0.50000000  0.75000000  1
  Ga  Ga8_4  1  0.75000000  0.00000000  0.25000000  1
  Ga  Ga8_5  1  0.75000000  0.00000000  0.75000000  1
  Ga  Ga8_6  1  0.75000000  0.50000000  0.25000000  1
  Ga  Ga8_7  1  0.75000000  0.50000000  0.75000000  1
  Ni  Ni0_0  1  0.00000000  0.10543450  0.00000000  1
  Ni  Ni0_1  1  0.00000000  0.10543450  0.50000000  1
  Ni  Ni0_2  1  0.00000000  0.60543450  0.00000000  1
  Ni  Ni0_3  1  0.00000000  0.60543450  0.50000000  1
  Ni  Ni0_4  1  0.50000000  0.10543450  0.00000000  1
  Ni  Ni0_5  1  0.50000000  0.10543450  0.50000000  1
  Ni  Ni0_6  1  0.50000000  0.60543450  0.00000000  1
  Ni  Ni0_7  1  0.50000000  0.60543450  0.50000000  1
  Ni  Ni1_0  1  0.00000000  0.25011650  0.35622450  1
  Ni  Ni1_1  1  0.00000000  0.25011650  0.85622450  1
  Ni  Ni1_2  1  0.00000000  0.75011650  0.35622450  1
  Ni  Ni1_3  1  0.00000000  0.75011650  0.85622450  1
  Ni  Ni1_4  1  0.50000000  0.25011650  0.35622450  1
  Ni  Ni1_5  1  0.50000000  0.25011650  0.85622450  1
  Ni  Ni1_6  1  0.50000000  0.75011650  0.35622450  1
  Ni  Ni1_7  1  0.50000000  0.75011650  0.85622450  1
  Ni  Ni2_0  1  0.00000000  0.39389200  0.14377550  1
  Ni  Ni2_1  1  0.00000000  0.39389200  0.64377550  1
  Ni  Ni2_2  1  0.00000000  0.89389200  0.14377550  1
  Ni  Ni2_3  1  0.00000000  0.89389200  0.64377550  1
  Ni  Ni2_4  1  0.50000000  0.39389200  0.14377550  1
  Ni  Ni2_5  1  0.50000000  0.39389200  0.64377550  1
  Ni  Ni2_6  1  0.50000000  0.89389200  0.14377550  1
  Ni  Ni2_7  1  0.50000000  0.89389200  0.64377550  1
  Ni  Ni3_0  1  0.00000000  0.39456550  0.00000000  1
  Ni  Ni3_1  1  0.00000000  0.39456550  0.50000000  1
  Ni  Ni3_2  1  0.00000000  0.89456550  0.00000000  1
  Ni  Ni3_3  1  0.00000000  0.89456550  0.50000000  1
  Ni  Ni3_4  1  0.50000000  0.39456550  0.00000000  1
  Ni  Ni3_5  1  0.50000000  0.39456550  0.50000000  1
  Ni  Ni3_6  1  0.50000000  0.89456550  0.00000000  1
  Ni  Ni3_7  1  0.50000000  0.89456550  0.50000000  1
  Ni  Ni4_0  1  0.00000000  0.24988350  0.14377550  1
  Ni  Ni4_1  1  0.00000000  0.24988350  0.64377550  1
  Ni  Ni4_2  1  0.00000000  0.74988350  0.14377550  1
  Ni  Ni4_3  1  0.00000000  0.74988350  0.64377550  1
  Ni  Ni4_4  1  0.50000000  0.24988350  0.14377550  1
  Ni  Ni4_5  1  0.50000000  0.24988350  0.64377550  1
  Ni  Ni4_6  1  0.50000000  0.74988350  0.14377550  1
  Ni  Ni4_7  1  0.50000000  0.74988350  0.64377550  1
  Ni  Ni5_0  1  0.00000000  0.10610800  0.35622450  1
  Ni  Ni5_1  1  0.00000000  0.10610800  0.85622450  1
  Ni  Ni5_2  1  0.00000000  0.60610800  0.35622450  1
  Ni  Ni5_3  1  0.00000000  0.60610800  0.85622450  1
  Ni  Ni5_4  1  0.50000000  0.10610800  0.35622450  1
  Ni  Ni5_5  1  0.50000000  0.10610800  0.85622450  1
  Ni  Ni5_6  1  0.50000000  0.60610800  0.35622450  1
  Ni  Ni5_7  1  0.50000000  0.60610800  0.85622450  1
loop_
_geom_bond_atom_site_label_1
_geom_bond_atom_site_label_2
_geom_bond_distance
_geom_bond_site_symmetry_2
Y0_0 Y0_4 3.803842 1_555
Y0_0 Y0_4 3.803842 1_455
Y0_1 Y0_5 3.803842 1_455
Y0_1 Y0_5 3.803842 1_555
Y0_2 Y0_6 3.803842 1_455
Y0_2 Y0_6 3.803842 1_555
Y0_3 Y0_7 3.803842 1_455
Y0_3 Y0_7 3.803842 1_555
Ga0_0 Ni4_4 2.421675 1_555
Ga0_0 Ni4_0 2.421675 1_555
Ga0_0 Ni2_0 2.421680 1_555
Ga0_0 Ni2_4 2.421680 1_555
Ga0_0 Ga7_0 2.571085 1_555
Ga0_0 Ga8_2 2.571094 1_555
Ga0_0 Y0_0 2.988864 1_555
Ga0_0 Y1_0 3.072760 1_555
Ga0_0 Y1_4 3.072760 1_555
Ga0_1 Ni4_5 2.421675 1_555
Ga0_1 Ni4_1 2.421675 1_555
Ga0_1 Ni2_5 2.421680 1_555
Ga0_1 Ni2_1 2.421680 1_555
Ga0_1 Ga7_1 2.571085 1_555
Ga0_1 Ga8_3 2.571094 1_555
Ga0_1 Y0_1 2.988864 1_555
Ga0_1 Y1_1 3.072760 1_555
Ga0_1 Y1_5 3.072760 1_555
Ga0_2 Ni4_2 2.421675 1_555
Ga0_2 Ni4_6 2.421675 1_555
Ga0_2 Ni2_6 2.421680 1_555
Ga0_2 Ni2_2 2.421680 1_555
Ga0_2 Ga7_2 2.571085 1_555
Ga0_2 Ga8_0 2.571094 1_565
Ga0_2 Y0_2 2.988864 1_555
Ga0_2 Y1_6 3.072760 1_555
Ga0_2 Y1_2 3.072760 1_555
Ga0_3 Ni4_7 2.421675 1_555
Ga0_3 Ni4_3 2.421675 1_555
Ga0_3 Ni2_3 2.421680 1_555
Ga0_3 Ni2_7 2.421680 1_555
Ga0_3 Ga7_3 2.571085 1_555
Ga0_3 Ga8_1 2.571094 1_565
Ga0_3 Y0_3 2.988864 1_555
Ga0_3 Y1_3 3.072760 1_555
Ga0_3 Y1_7 3.072760 1_555
Ga0_4 Ni4_4 2.421675 1_555
Ga0_4 Ni4_0 2.421675 1_655
Ga0_4 Ni2_4 2.421680 1_555
Ga0_4 Ni2_0 2.421680 1_655
Ga0_4 Ga7_4 2.571085 1_555
Ga0_4 Ga8_6 2.571094 1_555
Ga0_4 Y0_4 2.988864 1_555
Ga0_4 Y1_4 3.072760 1_555
Ga0_4 Y1_0 3.072760 1_655
Ga0_5 Ni4_5 2.421675 1_555
Ga0_5 Ni4_1 2.421675 1_655
Ga0_5 Ni2_5 2.421680 1_555
Ga0_5 Ni2_1 2.421680 1_655
Ga0_5 Ga7_5 2.571085 1_555
Ga0_5 Ga8_7 2.571094 1_555
Ga0_5 Y0_5 2.988864 1_555
Ga0_5 Y1_1 3.072760 1_655
Ga0_5 Y1_5 3.072760 1_555
Ga0_6 Ni4_6 2.421675 1_555
Ga0_6 Ni4_2 2.421675 1_655
Ga0_6 Ni2_6 2.421680 1_555
Ga0_6 Ni2_2 2.421680 1_655
Ga0_6 Ga7_6 2.571085 1_555
Ga0_6 Ga8_4 2.571094 1_565
Ga0_6 Y0_6 2.988864 1_555
Ga0_6 Y1_6 3.072760 1_555
Ga0_6 Y1_2 3.072760 1_655
Ga0_7 Ni4_7 2.421675 1_555
Ga0_7 Ni4_3 2.421675 1_655
Ga0_7 Ni2_7 2.421680 1_555
Ga0_7 Ni2_3 2.421680 1_655
Ga0_7 Ga7_7 2.571085 1_555
Ga0_7 Ga8_5 2.571094 1_565
Ga0_7 Y0_7 2.988864 1_555
Ga0_7 Y1_7 3.072760 1_555
Ga0_7 Y1_3 3.072760 1_655
Ga1_0 Ni0_1 2.420286 1_555
Ga1_0 Ni0_5 2.420286 1_555
Ga1_0 Ni5_4 2.420647 1_555
Ga1_0 Ni5_0 2.420647 1_555
Ga1_0 Ga6_1 2.569443 1_555
Ga1_0 Ga8_0 2.575161 1_555
Ga1_0 Y0_1 2.986595 1_555
Ga1_0 Y1_2 3.077707 1_545
Ga1_0 Y1_6 3.077707 1_545
Ga1_1 Ni0_4 2.420286 1_556
Ga1_1 Ni0_0 2.420286 1_556
Ga1_1 Ni5_1 2.420647 1_555
Ga1_1 Ni5_5 2.420647 1_555
Ga1_1 Ga6_0 2.569443 1_556
Ga1_1 Ga8_1 2.575161 1_555
Ga1_1 Y0_0 2.986595 1_556
Ga1_1 Y1_3 3.077707 1_545
Ga1_1 Y1_7 3.077707 1_545
Ga1_2 Ni0_3 2.420286 1_555
Ga1_2 Ni0_7 2.420286 1_555
Ga1_2 Ni5_2 2.420647 1_555
Ga1_2 Ni5_6 2.420647 1_555
Ga1_2 Ga6_3 2.569443 1_555
Ga1_2 Ga8_2 2.575161 1_555
Ga1_2 Y0_3 2.986595 1_555
Ga1_2 Y1_0 3.077707 1_555
Ga1_2 Y1_4 3.077707 1_555
Ga1_3 Ni0_2 2.420286 1_556
Ga1_3 Ni0_6 2.420286 1_556
Ga1_3 Ni5_7 2.420647 1_555
Ga1_3 Ni5_3 2.420647 1_555
Ga1_3 Ga6_2 2.569443 1_556
Ga1_3 Ga8_3 2.575161 1_555
Ga1_3 Y0_2 2.986595 1_556
Ga1_3 Y1_1 3.077707 1_555
Ga1_3 Y1_5 3.077707 1_555
Ga1_4 Ni0_1 2.420286 1_655
Ga1_4 Ni0_5 2.420286 1_555
Ga1_4 Ni5_4 2.420647 1_555
Ga1_4 Ni5_0 2.420647 1_655
Ga1_4 Ga6_5 2.569443 1_555
Ga1_4 Ga8_4 2.575161 1_555
Ga1_4 Y0_5 2.986595 1_555
Ga1_4 Y1_2 3.077707 1_645
Ga1_4 Y1_6 3.077707 1_545
Ga1_5 Ni0_4 2.420286 1_556
Ga1_5 Ni0_0 2.420286 1_656
Ga1_5 Ni5_5 2.420647 1_555
Ga1_5 Ni5_1 2.420647 1_655
Ga1_5 Ga6_4 2.569443 1_556
Ga1_5 Ga8_5 2.575161 1_555
Ga1_5 Y0_4 2.986595 1_556
Ga1_5 Y1_3 3.077707 1_645
Ga1_5 Y1_7 3.077707 1_545
Ga1_6 Ni0_3 2.420286 1_655
Ga1_6 Ni0_7 2.420286 1_555
Ga1_6 Ni5_6 2.420647 1_555
Ga1_6 Ni5_2 2.420647 1_655
Ga1_6 Ga6_7 2.569443 1_555
Ga1_6 Ga8_6 2.575161 1_555
Ga1_6 Y0_7 2.986595 1_555
Ga1_6 Y1_4 3.077707 1_555
Ga1_6 Y1_0 3.077707 1_655
Ga1_7 Ni0_2 2.420286 1_656
Ga1_7 Ni0_6 2.420286 1_556
Ga1_7 Ni5_3 2.420647 1_655
Ga1_7 Ni5_7 2.420647 1_555
Ga1_7 Ga6_6 2.569443 1_556
Ga1_7 Ga8_7 2.575161 1_555
Ga1_7 Y0_6 2.986595 1_556
Ga1_7 Y1_5 3.077707 1_555
Ga1_7 Y1_1 3.077707 1_655
Ga2_0 Ni3_5 2.420286 1_555
Ga2_0 Ni3_1 2.420286 1_555
Ga2_0 Ni1_4 2.420642 1_555
Ga2_0 Ni1_0 2.420642 1_555
Ga2_0 Ga6_3 2.569451 1_555
Ga2_0 Ga7_0 2.575160 1_555
Ga2_0 Y0_1 2.986587 1_555
Ga2_0 Y1_0 3.077714 1_555
Ga2_0 Y1_4 3.077714 1_555
Ga2_1 Ni3_4 2.420286 1_556
Ga2_1 Ni3_0 2.420286 1_556
Ga2_1 Ni1_1 2.420642 1_555
Ga2_1 Ni1_5 2.420642 1_555
Ga2_1 Ga6_2 2.569451 1_556
Ga2_1 Ga7_1 2.575160 1_555
Ga2_1 Y0_0 2.986587 1_556
Ga2_1 Y1_1 3.077714 1_555
Ga2_1 Y1_5 3.077714 1_555
Ga2_2 Ni3_3 2.420286 1_555
Ga2_2 Ni3_7 2.420286 1_555
Ga2_2 Ni1_2 2.420642 1_555
Ga2_2 Ni1_6 2.420642 1_555
Ga2_2 Ga6_1 2.569451 1_565
Ga2_2 Ga7_2 2.575160 1_555
Ga2_2 Y0_3 2.986587 1_555
Ga2_2 Y1_2 3.077714 1_555
Ga2_2 Y1_6 3.077714 1_555
Ga2_3 Ni3_2 2.420286 1_556
Ga2_3 Ni3_6 2.420286 1_556
Ga2_3 Ni1_3 2.420642 1_555
Ga2_3 Ni1_7 2.420642 1_555
Ga2_3 Ga6_0 2.569451 1_566
Ga2_3 Ga7_3 2.575160 1_555
Ga2_3 Y0_2 2.986587 1_556
Ga2_3 Y1_3 3.077714 1_555
Ga2_3 Y1_7 3.077714 1_555
Ga2_4 Ni3_5 2.420286 1_555
Ga2_4 Ni3_1 2.420286 1_655
Ga2_4 Ni1_4 2.420642 1_555
Ga2_4 Ni1_0 2.420642 1_655
Ga2_4 Ga6_7 2.569451 1_555
Ga2_4 Ga7_4 2.575160 1_555
Ga2_4 Y0_5 2.986587 1_555
Ga2_4 Y1_4 3.077714 1_555
Ga2_4 Y1_0 3.077714 1_655
Ga2_5 Ni3_4 2.420286 1_556
Ga2_5 Ni3_0 2.420286 1_656
Ga2_5 Ni1_5 2.420642 1_555
Ga2_5 Ni1_1 2.420642 1_655
Ga2_5 Ga6_6 2.569451 1_556
Ga2_5 Ga7_5 2.575160 1_555
Ga2_5 Y0_4 2.986587 1_556
Ga2_5 Y1_1 3.077714 1_655
Ga2_5 Y1_5 3.077714 1_555
Ga2_6 Ni3_3 2.420286 1_655
Ga2_6 Ni3_7 2.420286 1_555
Ga2_6 Ni1_2 2.420642 1_655
Ga2_6 Ni1_6 2.420642 1_555
Ga2_6 Ga6_5 2.569451 1_565
Ga2_6 Ga7_6 2.575160 1_555
Ga2_6 Y0_7 2.986587 1_555
Ga2_6 Y1_6 3.077714 1_555
Ga2_6 Y1_2 3.077714 1_655
Ga2_7 Ni3_2 2.420286 1_656
Ga2_7 Ni3_6 2.420286 1_556
Ga2_7 Ni1_3 2.420642 1_655
Ga2_7 Ni1_7 2.420642 1_555
Ga2_7 Ga6_4 2.569451 1_566
Ga2_7 Ga7_7 2.575160 1_555
Ga2_7 Y0_6 2.986587 1_556
Ga2_7 Y1_7 3.077714 1_555
Ga2_7 Y1_3 3.077714 1_655
Ga3_0 Ni1_0 2.421675 1_555
Ga3_0 Ni1_4 2.421675 1_555
Ga3_0 Ni5_0 2.421680 1_555
Ga3_0 Ni5_4 2.421680 1_555
Ga3_0 Ga7_0 2.571085 1_555
Ga3_0 Ga8_0 2.571094 1_555
Ga3_0 Y0_1 2.988864 1_555
Ga3_0 Y2_0 3.072760 1_555
Ga3_0 Y2_4 3.072760 1_555
Ga3_1 Ni1_1 2.421675 1_555
Ga3_1 Ni1_5 2.421675 1_555
Ga3_1 Ni5_1 2.421680 1_555
Ga3_1 Ni5_5 2.421680 1_555
Ga3_1 Ga7_1 2.571085 1_555
Ga3_1 Ga8_1 2.571094 1_555
Ga3_1 Y0_0 2.988864 1_556
Ga3_1 Y2_1 3.072760 1_555
Ga3_1 Y2_5 3.072760 1_555
Ga3_2 Ni1_2 2.421675 1_555
Ga3_2 Ni1_6 2.421675 1_555
Ga3_2 Ni5_6 2.421680 1_555
Ga3_2 Ni5_2 2.421680 1_555
Ga3_2 Ga7_2 2.571085 1_555
Ga3_2 Ga8_2 2.571094 1_555
Ga3_2 Y0_3 2.988864 1_555
Ga3_2 Y2_2 3.072760 1_555
Ga3_2 Y2_6 3.072760 1_555
Ga3_3 Ni1_3 2.421675 1_555
Ga3_3 Ni1_7 2.421675 1_555
Ga3_3 Ni5_7 2.421680 1_555
Ga3_3 Ni5_3 2.421680 1_555
Ga3_3 Ga7_3 2.571085 1_555
Ga3_3 Ga8_3 2.571094 1_555
Ga3_3 Y0_2 2.988864 1_556
Ga3_3 Y2_3 3.072760 1_555
Ga3_3 Y2_7 3.072760 1_555
Ga3_4 Ni1_4 2.421675 1_555
Ga3_4 Ni1_0 2.421675 1_655
Ga3_4 Ni5_0 2.421680 1_655
Ga3_4 Ni5_4 2.421680 1_555
Ga3_4 Ga7_4 2.571085 1_555
Ga3_4 Ga8_4 2.571094 1_555
Ga3_4 Y0_5 2.988864 1_555
Ga3_4 Y2_0 3.072760 1_655
Ga3_4 Y2_4 3.072760 1_555
Ga3_5 Ni1_1 2.421675 1_655
Ga3_5 Ni1_5 2.421675 1_555
Ga3_5 Ni5_5 2.421680 1_555
Ga3_5 Ni5_1 2.421680 1_655
Ga3_5 Ga7_5 2.571085 1_555
Ga3_5 Ga8_5 2.571094 1_555
Ga3_5 Y0_4 2.988864 1_556
Ga3_5 Y2_1 3.072760 1_655
Ga3_5 Y2_5 3.072760 1_555
Ga3_6 Ni1_2 2.421675 1_655
Ga3_6 Ni1_6 2.421675 1_555
Ga3_6 Ni5_2 2.421680 1_655
Ga3_6 Ni5_6 2.421680 1_555
Ga3_6 Ga7_6 2.571085 1_555
Ga3_6 Ga8_6 2.571094 1_555
Ga3_6 Y0_7 2.988864 1_555
Ga3_6 Y2_2 3.072760 1_655
Ga3_6 Y2_6 3.072760 1_555
Ga3_7 Ni1_7 2.421675 1_555
Ga3_7 Ni1_3 2.421675 1_655
Ga3_7 Ni5_3 2.421680 1_655
Ga3_7 Ni5_7 2.421680 1_555
Ga3_7 Ga7_7 2.571085 1_555
Ga3_7 Ga8_7 2.571094 1_555
Ga3_7 Y0_6 2.988864 1_556
Ga3_7 Y2_7 3.072760 1_555
Ga3_7 Y2_3 3.072760 1_655
Ga4_0 Ni0_4 2.420286 1_555
Ga4_0 Ni0_0 2.420286 1_555
Ga4_0 Ni4_0 2.420642 1_555
Ga4_0 Ni4_4 2.420642 1_555
Ga4_0 Ga6_0 2.569451 1_555
Ga4_0 Ga7_0 2.575160 1_555
Ga4_0 Y0_0 2.986587 1_555
Ga4_0 Y2_0 3.077714 1_555
Ga4_0 Y2_4 3.077714 1_555
Ga4_1 Ni0_5 2.420286 1_555
Ga4_1 Ni0_1 2.420286 1_555
Ga4_1 Ni4_5 2.420642 1_555
Ga4_1 Ni4_1 2.420642 1_555
Ga4_1 Ga6_1 2.569451 1_555
Ga4_1 Ga7_1 2.575160 1_555
Ga4_1 Y0_1 2.986587 1_555
Ga4_1 Y2_1 3.077714 1_555
Ga4_1 Y2_5 3.077714 1_555
Ga4_2 Ni0_2 2.420286 1_555
Ga4_2 Ni0_6 2.420286 1_555
Ga4_2 Ni4_2 2.420642 1_555
Ga4_2 Ni4_6 2.420642 1_555
Ga4_2 Ga6_2 2.569451 1_555
Ga4_2 Ga7_2 2.575160 1_555
Ga4_2 Y0_2 2.986587 1_555
Ga4_2 Y2_6 3.077714 1_555
Ga4_2 Y2_2 3.077714 1_555
Ga4_3 Ni0_3 2.420286 1_555
Ga4_3 Ni0_7 2.420286 1_555
Ga4_3 Ni4_3 2.420642 1_555
Ga4_3 Ni4_7 2.420642 1_555
Ga4_3 Ga6_3 2.569451 1_555
Ga4_3 Ga7_3 2.575160 1_555
Ga4_3 Y0_3 2.986587 1_555
Ga4_3 Y2_3 3.077714 1_555
Ga4_3 Y2_7 3.077714 1_555
Ga4_4 Ni0_4 2.420286 1_555
Ga4_4 Ni0_0 2.420286 1_655
Ga4_4 Ni4_4 2.420642 1_555
Ga4_4 Ni4_0 2.420642 1_655
Ga4_4 Ga6_4 2.569451 1_555
Ga4_4 Ga7_4 2.575160 1_555
Ga4_4 Y0_4 2.986587 1_555
Ga4_4 Y2_0 3.077714 1_655
Ga4_4 Y2_4 3.077714 1_555
Ga4_5 Ni0_5 2.420286 1_555
Ga4_5 Ni0_1 2.420286 1_655
Ga4_5 Ni4_1 2.420642 1_655
Ga4_5 Ni4_5 2.420642 1_555
Ga4_5 Ga6_5 2.569451 1_555
Ga4_5 Ga7_5 2.575160 1_555
Ga4_5 Y0_5 2.986587 1_555
Ga4_5 Y2_1 3.077714 1_655
Ga4_5 Y2_5 3.077714 1_555
Ga4_6 Ni0_2 2.420286 1_655
Ga4_6 Ni0_6 2.420286 1_555
Ga4_6 Ni4_2 2.420642 1_655
Ga4_6 Ni4_6 2.420642 1_555
Ga4_6 Ga6_6 2.569451 1_555
Ga4_6 Ga7_6 2.575160 1_555
Ga4_6 Y0_6 2.986587 1_555
Ga4_6 Y2_2 3.077714 1_655
Ga4_6 Y2_6 3.077714 1_555
Ga4_7 Ni0_3 2.420286 1_655
Ga4_7 Ni0_7 2.420286 1_555
Ga4_7 Ni4_3 2.420642 1_655
Ga4_7 Ni4_7 2.420642 1_555
Ga4_7 Ga6_7 2.569451 1_555
Ga4_7 Ga7_7 2.575160 1_555
Ga4_7 Y0_7 2.986587 1_555
Ga4_7 Y2_3 3.077714 1_655
Ga4_7 Y2_7 3.077714 1_555
Ga5_0 Ni3_0 2.420286 1_555
Ga5_0 Ni3_4 2.420286 1_555
Ga5_0 Ni2_0 2.420647 1_555
Ga5_0 Ni2_4 2.420647 1_555
Ga5_0 Ga6_2 2.569443 1_555
Ga5_0 Ga8_2 2.575161 1_555
Ga5_0 Y0_0 2.986595 1_555
Ga5_0 Y2_2 3.077707 1_555
Ga5_0 Y2_6 3.077707 1_555
Ga5_1 Ni3_5 2.420286 1_555
Ga5_1 Ni3_1 2.420286 1_555
Ga5_1 Ni2_5 2.420647 1_555
Ga5_1 Ni2_1 2.420647 1_555
Ga5_1 Ga6_3 2.569443 1_555
Ga5_1 Ga8_3 2.575161 1_555
Ga5_1 Y0_1 2.986595 1_555
Ga5_1 Y2_3 3.077707 1_555
Ga5_1 Y2_7 3.077707 1_555
Ga5_2 Ni3_2 2.420286 1_555
Ga5_2 Ni3_6 2.420286 1_555
Ga5_2 Ni2_2 2.420647 1_555
Ga5_2 Ni2_6 2.420647 1_555
Ga5_2 Ga6_0 2.569443 1_565
Ga5_2 Ga8_0 2.575161 1_565
Ga5_2 Y0_2 2.986595 1_555
Ga5_2 Y2_0 3.077707 1_565
Ga5_2 Y2_4 3.077707 1_565
Ga5_3 Ni3_7 2.420286 1_555
Ga5_3 Ni3_3 2.420286 1_555
Ga5_3 Ni2_3 2.420647 1_555
Ga5_3 Ni2_7 2.420647 1_555
Ga5_3 Ga6_1 2.569443 1_565
Ga5_3 Ga8_1 2.575161 1_565
Ga5_3 Y0_3 2.986595 1_555
Ga5_3 Y2_1 3.077707 1_565
Ga5_3 Y2_5 3.077707 1_565
Ga5_4 Ni3_4 2.420286 1_555
Ga5_4 Ni3_0 2.420286 1_655
Ga5_4 Ni2_0 2.420647 1_655
Ga5_4 Ni2_4 2.420647 1_555
Ga5_4 Ga6_6 2.569443 1_555
Ga5_4 Ga8_6 2.575161 1_555
Ga5_4 Y0_4 2.986595 1_555
Ga5_4 Y2_2 3.077707 1_655
Ga5_4 Y2_6 3.077707 1_555
Ga5_5 Ni3_5 2.420286 1_555
Ga5_5 Ni3_1 2.420286 1_655
Ga5_5 Ni2_1 2.420647 1_655
Ga5_5 Ni2_5 2.420647 1_555
Ga5_5 Ga6_7 2.569443 1_555
Ga5_5 Ga8_7 2.575161 1_555
Ga5_5 Y0_5 2.986595 1_555
Ga5_5 Y2_7 3.077707 1_555
Ga5_5 Y2_3 3.077707 1_655
Ga5_6 Ni3_6 2.420286 1_555
Ga5_6 Ni3_2 2.420286 1_655
Ga5_6 Ni2_6 2.420647 1_555
Ga5_6 Ni2_2 2.420647 1_655
Ga5_6 Ga6_4 2.569443 1_565
Ga5_6 Ga8_4 2.575161 1_565
Ga5_6 Y0_6 2.986595 1_555
Ga5_6 Y2_4 3.077707 1_565
Ga5_6 Y2_0 3.077707 1_665
Ga5_7 Ni3_7 2.420286 1_555
Ga5_7 Ni3_3 2.420286 1_655
Ga5_7 Ni2_7 2.420647 1_555
Ga5_7 Ni2_3 2.420647 1_655
Ga5_7 Ga6_5 2.569443 1_565
Ga5_7 Ga8_5 2.575161 1_565
Ga5_7 Y0_7 2.986595 1_555
Ga5_7 Y2_1 3.077707 1_665
Ga5_7 Y2_5 3.077707 1_565
Ga6_0 Ni0_0 2.740650 1_555
Ga6_0 Ni0_4 2.740650 1_555
Ga6_0 Ni3_2 2.740650 1_545
Ga6_0 Ni3_6 2.740650 1_545
Ga6_0 Y2_0 3.309508 1_555
Ga6_0 Y2_4 3.309508 1_555
Ga6_0 Y1_3 3.309508 1_544
Ga6_0 Y1_7 3.309508 1_544
Ga6_1 Ni0_5 2.740650 1_555
Ga6_1 Ni0_1 2.740650 1_555
Ga6_1 Ni3_3 2.740650 1_545
Ga6_1 Ni3_7 2.740650 1_545
Ga6_1 Y1_2 3.309508 1_545
Ga6_1 Y2_1 3.309508 1_555
Ga6_1 Y1_6 3.309508 1_545
Ga6_1 Y2_5 3.309508 1_555
Ga6_2 Ni0_2 2.740650 1_555
Ga6_2 Ni0_6 2.740650 1_555
Ga6_2 Ni3_0 2.740650 1_555
Ga6_2 Ni3_4 2.740650 1_555
Ga6_2 Y2_6 3.309508 1_555
Ga6_2 Y2_2 3.309508 1_555
Ga6_2 Y1_1 3.309508 1_554
Ga6_2 Y1_5 3.309508 1_554
Ga6_3 Ni0_7 2.740650 1_555
Ga6_3 Ni0_3 2.740650 1_555
Ga6_3 Ni3_1 2.740650 1_555
Ga6_3 Ni3_5 2.740650 1_555
Ga6_3 Y1_0 3.309508 1_555
Ga6_3 Y2_7 3.309508 1_555
Ga6_3 Y1_4 3.309508 1_555
Ga6_3 Y2_3 3.309508 1_555
Ga6_4 Ni0_0 2.740650 1_655
Ga6_4 Ni0_4 2.740650 1_555
Ga6_4 Ni3_6 2.740650 1_545
Ga6_4 Ni3_2 2.740650 1_645
Ga6_4 Y2_0 3.309508 1_655
Ga6_4 Y2_4 3.309508 1_555
Ga6_4 Y1_3 3.309508 1_644
Ga6_4 Y1_7 3.309508 1_544
Ga6_5 Ni0_1 2.740650 1_655
Ga6_5 Ni0_5 2.740650 1_555
Ga6_5 Ni3_7 2.740650 1_545
Ga6_5 Ni3_3 2.740650 1_645
Ga6_5 Y2_1 3.309508 1_655
Ga6_5 Y1_6 3.309508 1_545
Ga6_5 Y2_5 3.309508 1_555
Ga6_5 Y1_2 3.309508 1_645
Ga6_6 Ni0_2 2.740650 1_655
Ga6_6 Ni0_6 2.740650 1_555
Ga6_6 Ni3_4 2.740650 1_555
Ga6_6 Ni3_0 2.740650 1_655
Ga6_6 Y2_6 3.309508 1_555
Ga6_6 Y2_2 3.309508 1_655
Ga6_6 Y1_5 3.309508 1_554
Ga6_6 Y1_1 3.309508 1_654
Ga6_7 Ni0_3 2.740650 1_655
Ga6_7 Ni0_7 2.740650 1_555
Ga6_7 Ni3_5 2.740650 1_555
Ga6_7 Ni3_1 2.740650 1_655
Ga6_7 Y2_7 3.309508 1_555
Ga6_7 Y1_4 3.309508 1_555
Ga6_7 Y2_3 3.309508 1_655
Ga6_7 Y1_0 3.309508 1_655
Ga7_0 Ni4_0 2.751397 1_555
Ga7_0 Ni4_4 2.751397 1_555
Ga7_0 Ni1_0 2.751397 1_555
Ga7_0 Ni1_4 2.751397 1_555
Ga7_0 Y1_4 3.302216 1_555
Ga7_0 Y1_0 3.302216 1_555
Ga7_0 Y2_0 3.302216 1_555
Ga7_0 Y2_4 3.302216 1_555
Ga7_1 Ni4_1 2.751397 1_555
Ga7_1 Ni4_5 2.751397 1_555
Ga7_1 Ni1_1 2.751397 1_555
Ga7_1 Ni1_5 2.751397 1_555
Ga7_1 Y1_5 3.302216 1_555
Ga7_1 Y1_1 3.302216 1_555
Ga7_1 Y2_1 3.302216 1_555
Ga7_1 Y2_5 3.302216 1_555
Ga7_2 Ni4_6 2.751397 1_555
Ga7_2 Ni4_2 2.751397 1_555
Ga7_2 Ni1_6 2.751397 1_555
Ga7_2 Ni1_2 2.751397 1_555
Ga7_2 Y1_2 3.302216 1_555
Ga7_2 Y1_6 3.302216 1_555
Ga7_2 Y2_2 3.302216 1_555
Ga7_2 Y2_6 3.302216 1_555
Ga7_3 Ni4_3 2.751397 1_555
Ga7_3 Ni4_7 2.751397 1_555
Ga7_3 Ni1_7 2.751397 1_555
Ga7_3 Ni1_3 2.751397 1_555
Ga7_3 Y1_3 3.302216 1_555
Ga7_3 Y1_7 3.302216 1_555
Ga7_3 Y2_3 3.302216 1_555
Ga7_3 Y2_7 3.302216 1_555
Ga7_4 Ni4_0 2.751397 1_655
Ga7_4 Ni4_4 2.751397 1_555
Ga7_4 Ni1_4 2.751397 1_555
Ga7_4 Ni1_0 2.751397 1_655
Ga7_4 Y1_4 3.302216 1_555
Ga7_4 Y1_0 3.302216 1_655
Ga7_4 Y2_0 3.302216 1_655
Ga7_4 Y2_4 3.302216 1_555
Ga7_5 Ni4_5 2.751397 1_555
Ga7_5 Ni4_1 2.751397 1_655
Ga7_5 Ni1_1 2.751397 1_655
Ga7_5 Ni1_5 2.751397 1_555
Ga7_5 Y1_5 3.302216 1_555
Ga7_5 Y1_1 3.302216 1_655
Ga7_5 Y2_1 3.302216 1_655
Ga7_5 Y2_5 3.302216 1_555
Ga7_6 Ni4_6 2.751397 1_555
Ga7_6 Ni4_2 2.751397 1_655
Ga7_6 Ni1_6 2.751397 1_555
Ga7_6 Ni1_2 2.751397 1_655
Ga7_6 Y1_2 3.302216 1_655
Ga7_6 Y1_6 3.302216 1_555
Ga7_6 Y2_2 3.302216 1_655
Ga7_6 Y2_6 3.302216 1_555
Ga7_7 Ni4_7 2.751397 1_555
Ga7_7 Ni4_3 2.751397 1_655
Ga7_7 Ni1_7 2.751397 1_555
Ga7_7 Ni1_3 2.751397 1_655
Ga7_7 Y1_3 3.302216 1_655
Ga7_7 Y1_7 3.302216 1_555
Ga7_7 Y2_7 3.302216 1_555
Ga7_7 Y2_3 3.302216 1_655
Ga8_0 Ni5_0 2.751397 1_555
Ga8_0 Ni5_4 2.751397 1_555
Ga8_0 Ni2_2 2.751397 1_545
Ga8_0 Ni2_6 2.751397 1_545
Ga8_0 Y2_4 3.302216 1_555
Ga8_0 Y2_0 3.302216 1_555
Ga8_0 Y1_6 3.302216 1_545
Ga8_0 Y1_2 3.302216 1_545
Ga8_1 Ni5_1 2.751397 1_555
Ga8_1 Ni5_5 2.751397 1_555
Ga8_1 Ni2_3 2.751397 1_545
Ga8_1 Ni2_7 2.751397 1_545
Ga8_1 Y2_5 3.302216 1_555
Ga8_1 Y2_1 3.302216 1_555
Ga8_1 Y1_7 3.302216 1_545
Ga8_1 Y1_3 3.302216 1_545
Ga8_2 Ni5_6 2.751397 1_555
Ga8_2 Ni5_2 2.751397 1_555
Ga8_2 Ni2_4 2.751397 1_555
Ga8_2 Ni2_0 2.751397 1_555
Ga8_2 Y2_2 3.302216 1_555
Ga8_2 Y2_6 3.302216 1_555
Ga8_2 Y1_0 3.302216 1_555
Ga8_2 Y1_4 3.302216 1_555
Ga8_3 Ni5_3 2.751397 1_555
Ga8_3 Ni5_7 2.751397 1_555
Ga8_3 Ni2_1 2.751397 1_555
Ga8_3 Ni2_5 2.751397 1_555
Ga8_3 Y2_3 3.302216 1_555
Ga8_3 Y2_7 3.302216 1_555
Ga8_3 Y1_1 3.302216 1_555
Ga8_3 Y1_5 3.302216 1_555
Ga8_4 Ni5_0 2.751397 1_655
Ga8_4 Ni5_4 2.751397 1_555
Ga8_4 Ni2_2 2.751397 1_645
Ga8_4 Ni2_6 2.751397 1_545
Ga8_4 Y2_4 3.302216 1_555
Ga8_4 Y2_0 3.302216 1_655
Ga8_4 Y1_6 3.302216 1_545
Ga8_4 Y1_2 3.302216 1_645
Ga8_5 Ni5_1 2.751397 1_655
Ga8_5 Ni5_5 2.751397 1_555
Ga8_5 Ni2_7 2.751397 1_545
Ga8_5 Ni2_3 2.751397 1_645
Ga8_5 Y2_5 3.302216 1_555
Ga8_5 Y2_1 3.302216 1_655
Ga8_5 Y1_3 3.302216 1_645
Ga8_5 Y1_7 3.302216 1_545
Ga8_6 Ni5_2 2.751397 1_655
Ga8_6 Ni5_6 2.751397 1_555
Ga8_6 Ni2_4 2.751397 1_555
Ga8_6 Ni2_0 2.751397 1_655
Ga8_6 Y2_2 3.302216 1_655
Ga8_6 Y2_6 3.302216 1_555
Ga8_6 Y1_0 3.302216 1_655
Ga8_6 Y1_4 3.302216 1_555
Ga8_7 Ni5_3 2.751397 1_655
Ga8_7 Ni5_7 2.751397 1_555
Ga8_7 Ni2_1 2.751397 1_655
Ga8_7 Ni2_5 2.751397 1_555
Ga8_7 Y2_7 3.302216 1_555
Ga8_7 Y2_3 3.302216 1_655
Ga8_7 Y1_5 3.302216 1_555
Ga8_7 Y1_1 3.302216 1_655
Ni0_0 Ni4_0 2.698815 1_555
Ni0_0 Ni5_1 2.698815 1_554
Ni0_0 Y0_4 3.307243 1_455
Ni0_0 Y0_0 3.307243 1_555
Ni0_0 Y1_3 3.351029 1_544
Ni0_0 Y2_0 3.351030 1_555
Ni0_1 Ni4_1 2.698815 1_555
Ni0_1 Ni5_0 2.698815 1_555
Ni0_1 Y0_5 3.307243 1_455
Ni0_1 Y0_1 3.307243 1_555
Ni0_1 Y1_2 3.351029 1_545
Ni0_1 Y2_1 3.351030 1_555
Ni0_2 Ni4_2 2.698815 1_555
Ni0_2 Ni5_3 2.698815 1_554
Ni0_2 Y0_2 3.307243 1_555
Ni0_2 Y0_6 3.307243 1_455
Ni0_2 Y1_1 3.351029 1_554
Ni0_2 Y2_2 3.351030 1_555
Ni0_3 Ni4_3 2.698815 1_555
Ni0_3 Ni5_2 2.698815 1_555
Ni0_3 Y0_3 3.307243 1_555
Ni0_3 Y0_7 3.307243 1_455
Ni0_3 Y1_0 3.351029 1_555
Ni0_3 Y2_3 3.351030 1_555
Ni0_4 Ni4_4 2.698815 1_555
Ni0_4 Ni5_5 2.698815 1_554
Ni0_4 Y0_0 3.307243 1_555
Ni0_4 Y0_4 3.307243 1_555
Ni0_4 Y1_7 3.351029 1_544
Ni0_4 Y2_4 3.351030 1_555
Ni0_5 Ni4_5 2.698815 1_555
Ni0_5 Ni5_4 2.698815 1_555
Ni0_5 Y0_1 3.307243 1_555
Ni0_5 Y0_5 3.307243 1_555
Ni0_5 Y1_6 3.351029 1_545
Ni0_5 Y2_5 3.351030 1_555
Ni0_6 Ni4_6 2.698815 1_555
Ni0_6 Ni5_7 2.698815 1_554
Ni0_6 Y0_6 3.307243 1_555
Ni0_6 Y0_2 3.307243 1_555
Ni0_6 Y1_5 3.351029 1_554
Ni0_6 Y2_6 3.351030 1_555
Ni0_7 Ni4_7 2.698815 1_555
Ni0_7 Ni5_6 2.698815 1_555
Ni0_7 Y0_3 3.307243 1_555
Ni0_7 Y0_7 3.307243 1_555
Ni0_7 Y1_4 3.351029 1_555
Ni0_7 Y2_7 3.351030 1_555
Ni1_0 Ni5_0 2.695227 1_555
Ni1_0 Ni3_1 2.698815 1_555
Ni1_0 Y0_1 3.297378 1_555
Ni1_0 Y0_5 3.297378 1_455
Ni1_0 Y1_0 3.352496 1_555
Ni1_0 Y2_0 3.352787 1_555
Ni1_1 Ni5_1 2.695227 1_555
Ni1_1 Ni3_0 2.698815 1_556
Ni1_1 Y0_0 3.297378 1_556
Ni1_1 Y0_4 3.297378 1_456
Ni1_1 Y1_1 3.352496 1_555
Ni1_1 Y2_1 3.352787 1_555
Ni1_2 Ni5_2 2.695227 1_555
Ni1_2 Ni3_3 2.698815 1_555
Ni1_2 Y0_3 3.297378 1_555
Ni1_2 Y0_7 3.297378 1_455
Ni1_2 Y1_2 3.352496 1_555
Ni1_2 Y2_2 3.352787 1_555
Ni1_3 Ni5_3 2.695227 1_555
Ni1_3 Ni3_2 2.698815 1_556
Ni1_3 Y0_2 3.297378 1_556
Ni1_3 Y0_6 3.297378 1_456
Ni1_3 Y1_3 3.352496 1_555
Ni1_3 Y2_3 3.352787 1_555
Ni1_4 Ni5_4 2.695227 1_555
Ni1_4 Ni3_5 2.698815 1_555
Ni1_4 Y0_1 3.297378 1_555
Ni1_4 Y0_5 3.297378 1_555
Ni1_4 Y1_4 3.352496 1_555
Ni1_4 Y2_4 3.352787 1_555
Ni1_5 Ni5_5 2.695227 1_555
Ni1_5 Ni3_4 2.698815 1_556
Ni1_5 Y0_0 3.297378 1_556
Ni1_5 Y0_4 3.297378 1_556
Ni1_5 Y1_5 3.352496 1_555
Ni1_5 Y2_5 3.352787 1_555
Ni1_6 Ni5_6 2.695227 1_555
Ni1_6 Ni3_7 2.698815 1_555
Ni1_6 Y0_3 3.297378 1_555
Ni1_6 Y0_7 3.297378 1_555
Ni1_6 Y1_6 3.352496 1_555
Ni1_6 Y2_6 3.352787 1_555
Ni1_7 Ni5_7 2.695227 1_555
Ni1_7 Ni3_6 2.698815 1_556
Ni1_7 Y0_6 3.297378 1_556
Ni1_7 Y0_2 3.297378 1_556
Ni1_7 Y1_7 3.352496 1_555
Ni1_7 Y2_7 3.352787 1_555
Ni2_0 Ni4_0 2.695227 1_555
Ni2_0 Ni3_0 2.698815 1_555
Ni2_0 Y0_4 3.297378 1_455
Ni2_0 Y0_0 3.297378 1_555
Ni2_0 Y2_2 3.352496 1_555
Ni2_0 Y1_0 3.352787 1_555
Ni2_1 Ni4_1 2.695227 1_555
Ni2_1 Ni3_1 2.698815 1_555
Ni2_1 Y0_1 3.297378 1_555
Ni2_1 Y0_5 3.297378 1_455
Ni2_1 Y2_3 3.352496 1_555
Ni2_1 Y1_1 3.352787 1_555
Ni2_2 Ni4_2 2.695227 1_555
Ni2_2 Ni3_2 2.698815 1_555
Ni2_2 Y0_6 3.297378 1_455
Ni2_2 Y0_2 3.297378 1_555
Ni2_2 Y2_0 3.352496 1_565
Ni2_2 Y1_2 3.352787 1_555
Ni2_3 Ni4_3 2.695227 1_555
Ni2_3 Ni3_3 2.698815 1_555
Ni2_3 Y0_3 3.297378 1_555
Ni2_3 Y0_7 3.297378 1_455
Ni2_3 Y2_1 3.352496 1_565
Ni2_3 Y1_3 3.352787 1_555
Ni2_4 Ni4_4 2.695227 1_555
Ni2_4 Ni3_4 2.698815 1_555
Ni2_4 Y0_4 3.297378 1_555
Ni2_4 Y0_0 3.297378 1_555
Ni2_4 Y2_6 3.352496 1_555
Ni2_4 Y1_4 3.352787 1_555
Ni2_5 Ni4_5 2.695227 1_555
Ni2_5 Ni3_5 2.698815 1_555
Ni2_5 Y0_1 3.297378 1_555
Ni2_5 Y0_5 3.297378 1_555
Ni2_5 Y2_7 3.352496 1_555
Ni2_5 Y1_5 3.352787 1_555
Ni2_6 Ni4_6 2.695227 1_555
Ni2_6 Ni3_6 2.698815 1_555
Ni2_6 Y0_2 3.297378 1_555
Ni2_6 Y0_6 3.297378 1_555
Ni2_6 Y2_4 3.352496 1_565
Ni2_6 Y1_6 3.352787 1_555
Ni2_7 Ni4_7 2.695227 1_555
Ni2_7 Ni3_7 2.698815 1_555
Ni2_7 Y0_3 3.297378 1_555
Ni2_7 Y0_7 3.297378 1_555
Ni2_7 Y2_5 3.352496 1_565
Ni2_7 Y1_7 3.352787 1_555
Ni3_0 Y0_4 3.307243 1_455
Ni3_0 Y0_0 3.307243 1_555
Ni3_0 Y2_2 3.351029 1_555
Ni3_0 Y1_1 3.351030 1_554
Ni3_1 Y0_5 3.307243 1_455
Ni3_1 Y0_1 3.307243 1_555
Ni3_1 Y2_3 3.351029 1_555
Ni3_1 Y1_0 3.351030 1_555
Ni3_2 Y0_6 3.307243 1_455
Ni3_2 Y0_2 3.307243 1_555
Ni3_2 Y2_0 3.351029 1_565
Ni3_2 Y1_3 3.351030 1_554
Ni3_3 Y0_7 3.307243 1_455
Ni3_3 Y0_3 3.307243 1_555
Ni3_3 Y2_1 3.351029 1_565
Ni3_3 Y1_2 3.351030 1_555
Ni3_4 Y0_4 3.307243 1_555
Ni3_4 Y0_0 3.307243 1_555
Ni3_4 Y2_6 3.351029 1_555
Ni3_4 Y1_5 3.351030 1_554
Ni3_5 Y0_5 3.307243 1_555
Ni3_5 Y0_1 3.307243 1_555
Ni3_5 Y2_7 3.351029 1_555
Ni3_5 Y1_4 3.351030 1_555
Ni3_6 Y0_2 3.307243 1_555
Ni3_6 Y0_6 3.307243 1_555
Ni3_6 Y2_4 3.351029 1_565
Ni3_6 Y1_7 3.351030 1_554
Ni3_7 Y0_7 3.307243 1_555
Ni3_7 Y0_3 3.307243 1_555
Ni3_7 Y2_5 3.351029 1_565
Ni3_7 Y1_6 3.351030 1_555
Ni4_0 Y0_4 3.297378 1_455
Ni4_0 Y0_0 3.297378 1_555
Ni4_0 Y2_0 3.352496 1_555
Ni4_0 Y1_0 3.352787 1_555
Ni4_1 Y0_1 3.297378 1_555
Ni4_1 Y0_5 3.297378 1_455
Ni4_1 Y2_1 3.352496 1_555
Ni4_1 Y1_1 3.352787 1_555
Ni4_2 Y0_2 3.297378 1_555
Ni4_2 Y0_6 3.297378 1_455
Ni4_2 Y2_2 3.352496 1_555
Ni4_2 Y1_2 3.352787 1_555
Ni4_3 Y0_7 3.297378 1_455
Ni4_3 Y0_3 3.297378 1_555
Ni4_3 Y2_3 3.352496 1_555
Ni4_3 Y1_3 3.352787 1_555
Ni4_4 Y0_0 3.297378 1_555
Ni4_4 Y0_4 3.297378 1_555
Ni4_4 Y2_4 3.352496 1_555
Ni4_4 Y1_4 3.352787 1_555
Ni4_5 Y0_1 3.297378 1_555
Ni4_5 Y0_5 3.297378 1_555
Ni4_5 Y2_5 3.352496 1_555
Ni4_5 Y1_5 3.352787 1_555
Ni4_6 Y0_2 3.297378 1_555
Ni4_6 Y0_6 3.297378 1_555
Ni4_6 Y2_6 3.352496 1_555
Ni4_6 Y1_6 3.352787 1_555
Ni4_7 Y0_3 3.297378 1_555
Ni4_7 Y0_7 3.297378 1_555
Ni4_7 Y2_7 3.352496 1_555
Ni4_7 Y1_7 3.352787 1_555
Ni5_0 Y0_5 3.297378 1_455
Ni5_0 Y0_1 3.297378 1_555
Ni5_0 Y1_2 3.352496 1_545
Ni5_0 Y2_0 3.352787 1_555
Ni5_1 Y0_0 3.297378 1_556
Ni5_1 Y0_4 3.297378 1_456
Ni5_1 Y1_3 3.352496 1_545
Ni5_1 Y2_1 3.352787 1_555
Ni5_2 Y0_7 3.297378 1_455
Ni5_2 Y0_3 3.297378 1_555
Ni5_2 Y1_0 3.352496 1_555
Ni5_2 Y2_2 3.352787 1_555
Ni5_3 Y0_6 3.297378 1_456
Ni5_3 Y0_2 3.297378 1_556
Ni5_3 Y1_1 3.352496 1_555
Ni5_3 Y2_3 3.352787 1_555
Ni5_4 Y0_5 3.297378 1_555
Ni5_4 Y0_1 3.297378 1_555
Ni5_4 Y1_6 3.352496 1_545
Ni5_4 Y2_4 3.352787 1_555
Ni5_5 Y0_0 3.297378 1_556
Ni5_5 Y0_4 3.297378 1_556
Ni5_5 Y1_7 3.352496 1_545
Ni5_5 Y2_5 3.352787 1_555
Ni5_6 Y0_3 3.297378 1_555
Ni5_6 Y0_7 3.297378 1_555
Ni5_6 Y1_4 3.352496 1_555
Ni5_6 Y2_6 3.352787 1_555
Ni5_7 Y0_6 3.297378 1_556
Ni5_7 Y0_2 3.297378 1_556
Ni5_7 Y1_5 3.352496 1_555
Ni5_7 Y2_7 3.352787 1_555
