# generated using pymatgen
data_Li7V3P8O29
_symmetry_space_group_name_H-M   'P 1'
_cell_length_a   9.86806407
_cell_length_b   9.90488280
_cell_length_c   13.95768713
_cell_angle_alpha   89.76824068
_cell_angle_beta   90.14975635
_cell_angle_gamma   59.83541949
_symmetry_Int_Tables_number   1
_chemical_formula_structural   Li7V3P8O29
_chemical_formula_sum   'Li14 V6 P16 O58'
_cell_volume   1179.48638815
_cell_formula_units_Z   2
loop_
 _symmetry_equiv_pos_site_id
 _symmetry_equiv_pos_as_xyz
  1  'x, y, z'
loop_
 _atom_site_type_symbol
 _atom_site_label
 _atom_site_symmetry_multiplicity
 _atom_site_fract_x
 _atom_site_fract_y
 _atom_site_fract_z
 _atom_site_occupancy
  Li  Li0  1  0.77494500  0.91316800  0.56437700  1
  Li  Li1  1  0.91372300  0.31509000  0.56291300  1
  Li  Li2  1  0.66957300  0.66757500  0.38623800  1
  Li  Li3  1  0.67161600  0.67283100  0.88461900  1
  Li  Li4  1  0.76886000  0.31948800  0.05832200  1
  Li  Li5  1  0.32207800  0.90702900  0.06107300  1
  Li  Li6  1  0.68988300  0.22282200  0.44267300  1
  Li  Li7  1  0.31360600  0.77632500  0.56718800  1
  Li  Li8  1  0.67610300  0.09152800  0.93467700  1
  Li  Li9  1  0.33023200  0.34053500  0.11214200  1
  Li  Li10  1  0.09523800  0.68034800  0.44097500  1
  Li  Li11  1  0.22515100  0.08975600  0.44063600  1
  Li  Li12  1  0.09523600  0.22438700  0.93740200  1
  Li  Li13  1  0.02043000  0.91221500  0.00636500  1
  V  V0  1  0.56377500  0.43684400  0.24952300  1
  V  V1  1  0.42673500  0.56807000  0.75258800  1
  V  V2  1  0.56632600  0.00097200  0.74802500  1
  V  V3  1  0.43361300  0.99989800  0.24860800  1
  V  V4  1  0.99604200  0.57038900  0.24556500  1
  V  V5  1  0.00169400  0.43639700  0.75283700  1
  P  P0  1  0.91535600  0.77499200  0.84249200  1
  P  P1  1  0.76969200  0.90977800  0.34041400  1
  P  P2  1  0.90952900  0.32349500  0.34264300  1
  P  P3  1  0.66667400  0.66133700  0.12442100  1
  P  P4  1  0.66733100  0.66540800  0.62732900  1
  P  P5  1  0.77117700  0.31977000  0.84256300  1
  P  P6  1  0.68052500  0.23729300  0.65773200  1
  P  P7  1  0.32029500  0.90633100  0.84126800  1
  P  P8  1  0.68171500  0.09270600  0.15427900  1
  P  P9  1  0.32321300  0.76670300  0.34658200  1
  P  P10  1  0.22242000  0.68975400  0.16090000  1
  P  P11  1  0.32893600  0.33870800  0.37185300  1
  P  P12  1  0.33244500  0.33344200  0.87326400  1
  P  P13  1  0.08547200  0.68019400  0.65747900  1
  P  P14  1  0.23025000  0.09162900  0.65789400  1
  P  P15  1  0.08710000  0.23274700  0.15683200  1
  O  O0  1  0.99954400  0.75550000  0.56560300  1
  O  O1  1  0.92251600  0.74955800  0.34049700  1
  O  O2  1  0.77064400  0.01118700  0.06562600  1
  O  O3  1  0.74885500  0.91774900  0.84202200  1
  O  O4  1  0.90009300  0.62546800  0.83226700  1
  O  O5  1  0.81507400  0.65820200  0.17017500  1
  O  O6  1  0.88611500  0.48875700  0.32741700  1
  O  O7  1  0.99286700  0.24526900  0.06847500  1
  O  O8  1  0.91897100  0.33515900  0.84538900  1
  O  O9  1  0.67281100  0.81298800  0.66004700  1
  O  O10  1  0.63114900  0.88060600  0.32510000  1
  O  O11  1  0.81622600  0.51723300  0.67381600  1
  O  O12  1  0.67954500  0.64205600  0.01801800  1
  O  O13  1  0.67776100  0.64899300  0.51978300  1
  O  O14  1  0.66724600  0.51292300  0.16879600  1
  O  O15  1  0.48447700  0.88662100  0.83452600  1
  O  O16  1  0.51705400  0.81123900  0.15664900  1
  O  O17  1  0.74819900  0.33329100  0.34283000  1
  O  O18  1  0.79119300  0.21707000  0.74878800  1
  O  O19  1  0.75410200  0.25698200  0.56811900  1
  O  O20  1  0.76453300  0.23231000  0.92973600  1
  O  O21  1  0.62588200  0.48370000  0.82955700  1
  O  O22  1  0.51507600  0.67094800  0.66493200  1
  O  O23  1  0.66606300  0.25661900  0.16003200  1
  O  O24  1  0.49063800  0.62760000  0.32568200  1
  O  O25  1  0.33015200  0.91818500  0.34494600  1
  O  O26  1  0.78292700  0.00110100  0.24851600  1
  O  O27  1  0.75404900  0.00246400  0.42930100  1
  O  O28  1  0.23628900  0.00198900  0.56903500  1
  O  O29  1  0.66739500  0.09051200  0.65532000  1
  O  O30  1  0.52237000  0.38570400  0.67973600  1
  O  O31  1  0.33811800  0.74184500  0.83474600  1
  O  O32  1  0.47478200  0.34512700  0.32451400  1
  O  O33  1  0.37620400  0.52805900  0.16573300  1
  O  O34  1  0.21404500  0.79443900  0.08037200  1
  O  O35  1  0.25496800  0.74350900  0.43708300  1
  O  O36  1  0.21076800  0.77909800  0.25980400  1
  O  O37  1  0.24897500  0.66628300  0.66007100  1
  O  O38  1  0.48305200  0.18507100  0.83942300  1
  O  O39  1  0.51718200  0.11237800  0.16565000  1
  O  O40  1  0.32625000  0.48009400  0.82939500  1
  O  O41  1  0.32126400  0.33491500  0.98071100  1
  O  O42  1  0.33318500  0.35462600  0.47727600  1
  O  O43  1  0.17718400  0.48411600  0.32700700  1
  O  O44  1  0.37424900  0.10760400  0.67234700  1
  O  O45  1  0.33377500  0.18790100  0.33653600  1
  O  O46  1  0.08323500  0.66264900  0.16041000  1
  O  O47  1  0.98986800  0.79408600  0.74337900  1
  O  O48  1  0.01298400  0.77259300  0.92400400  1
  O  O49  1  0.09980700  0.52017300  0.67544300  1
  O  O50  1  0.18163800  0.32892500  0.83282200  1
  O  O51  1  0.10980200  0.37549300  0.17064000  1
  O  O52  1  0.24768600  0.08283500  0.15621100  1
  O  O53  1  0.22993900  0.99195400  0.93003500  1
  O  O54  1  0.21553700  0.99798700  0.74978900  1
  O  O55  1  0.07792700  0.25193600  0.66132900  1
  O  O56  1  0.00290100  0.24427500  0.43138700  1
  O  O57  1  0.99866500  0.21926800  0.25029000  1
loop_
_geom_bond_atom_site_label_1
_geom_bond_atom_site_label_2
_geom_bond_distance
_geom_bond_site_symmetry_2
Li0 O0 1.967871 1_555
Li0 O29 1.993672 1_565
Li0 O27 2.044635 1_565
Li0 O9 2.187434 1_555
Li1 O19 1.931059 1_555
Li1 O55 1.966374 1_655
Li1 O56 2.008757 1_655
Li1 O11 2.329713 1_555
Li2 O13 1.869844 1_555
Li2 O10 2.122254 1_555
Li2 O6 2.143506 1_555
Li2 O24 2.164842 1_555
Li3 O12 1.880570 1_556
Li3 O15 2.105840 1_555
Li3 O4 2.187643 1_555
Li3 O21 2.272253 1_555
Li4 O7 1.952256 1_555
Li4 O20 2.004445 1_554
Li4 O23 2.016769 1_555
Li4 O14 2.270514 1_555
Li5 O34 1.909604 1_555
Li5 O52 2.018323 1_565
Li5 O53 2.022303 1_554
Li5 O16 2.126849 1_555
Li6 O19 1.948418 1_555
Li6 O27 1.953106 1_555
Li6 O17 2.023637 1_555
Li6 O32 2.464630 1_555
Li7 O28 1.966092 1_565
Li7 O35 1.981541 1_555
Li7 O37 1.991733 1_555
Li7 O22 2.189104 1_555
Li8 O3 1.982834 1_545
Li8 O20 1.983201 1_555
Li8 O2 2.019282 1_556
Li8 O38 2.111449 1_555
Li9 O41 1.838790 1_554
Li9 O51 2.184669 1_555
Li9 O39 2.203982 1_555
Li9 O33 2.252007 1_555
Li10 O0 1.945351 1_455
Li10 O35 1.967227 1_555
Li10 O1 2.036507 1_455
Li10 O43 2.326869 1_555
Li11 O56 1.947484 1_555
Li11 O28 1.967221 1_555
Li11 O25 2.000353 1_545
Li11 O45 2.291092 1_555
Li12 O8 1.984365 1_455
Li12 O53 2.001223 1_545
Li12 O7 2.052554 1_456
Li12 O50 2.193468 1_555
Li13 O48 1.831385 1_554
Li13 O34 1.954050 1_555
Li13 O2 2.304294 1_465
O0 P13 1.506922 1_655
O1 P1 1.545173 1_555
O1 V4 2.039989 1_555
O2 P8 1.501619 1_555
O3 P0 1.537555 1_555
O3 V2 2.032706 1_565
O4 P0 1.569152 1_555
O4 V5 1.969039 1_655
O5 P3 1.581954 1_555
O5 V4 1.864049 1_555
O6 P2 1.547525 1_555
O6 V4 2.004037 1_555
O7 P15 1.509265 1_655
O8 P5 1.541102 1_555
O8 V5 2.039196 1_655
O9 P4 1.559786 1_555
O9 V2 2.034196 1_565
O10 P1 1.547336 1_555
O10 V3 1.999996 1_555
O11 P4 1.598136 1_555
O11 V5 1.927917 1_655
O12 P3 1.495710 1_555
O13 P4 1.508733 1_555
O14 P3 1.590251 1_555
O14 V0 1.911122 1_555
O15 P7 1.534588 1_555
O15 V2 2.075169 1_565
O16 P3 1.546798 1_555
O16 V3 2.072660 1_555
O17 P2 1.545548 1_555
O17 V0 2.039873 1_555
O18 P5 1.611567 1_555
O18 P6 1.618293 1_555
O19 P6 1.508227 1_555
O20 P5 1.511341 1_555
O21 P5 1.543291 1_555
O21 V1 2.011407 1_555
O22 P4 1.567601 1_555
O22 V1 2.045340 1_555
O23 P8 1.554121 1_555
O23 V0 1.994868 1_555
O24 P9 1.559222 1_555
O24 V0 1.967384 1_555
O25 P9 1.536042 1_555
O25 V3 2.081903 1_555
O26 P1 1.609580 1_545
O26 P8 1.619767 1_555
O27 P1 1.507866 1_545
O28 P14 1.512036 1_555
O29 P6 1.523574 1_555
O29 V2 2.083741 1_555
O30 P6 1.546447 1_555
O30 V1 1.869251 1_555
O31 P7 1.551411 1_555
O31 V1 1.884376 1_555
O32 P11 1.615104 1_555
O32 V0 1.868405 1_555
O33 P10 1.558391 1_555
O33 V0 1.977276 1_555
O34 P10 1.499761 1_555
O35 P9 1.503171 1_555
O36 P9 1.602572 1_555
O36 P10 1.615703 1_555
O37 P13 1.549121 1_555
O37 V1 1.988458 1_555
O38 P12 1.551105 1_555
O38 V2 2.036216 1_555
O39 P8 1.543687 1_555
O39 V3 2.044483 1_545
O40 P12 1.546606 1_555
O40 V1 1.938615 1_555
O41 P12 1.503644 1_555
O42 P11 1.483244 1_555
O43 P11 1.590265 1_555
O43 V4 1.914176 1_455
O44 P14 1.519760 1_555
O44 V2 1.947448 1_555
O45 P11 1.552703 1_555
O45 V3 2.031135 1_545
O46 P10 1.526149 1_555
O46 V4 1.942896 1_455
O47 P13 1.596073 1_655
O47 P0 1.622693 1_555
O48 P0 1.481267 1_455
O49 P13 1.538293 1_555
O49 V5 1.896961 1_555
O50 P12 1.611838 1_555
O50 V5 1.900795 1_555
O51 P15 1.551352 1_555
O51 V4 1.981165 1_455
O52 P15 1.533472 1_555
O52 V3 2.041729 1_545
O53 P7 1.517787 1_555
O54 P7 1.601159 1_555
O54 P14 1.628869 1_565
O55 P14 1.544444 1_555
O55 V5 2.044025 1_555
O56 P2 1.502846 1_455
O57 P15 1.613270 1_655
O57 P2 1.614058 1_555
