# generated using pymatgen
data_SmSe2
_symmetry_space_group_name_H-M   'P 1'
_cell_length_a   4.11689167
_cell_length_b   4.11689167
_cell_length_c   8.48466729
_cell_angle_alpha   90.00000000
_cell_angle_beta   90.00000000
_cell_angle_gamma   90.00000000
_symmetry_Int_Tables_number   1
_chemical_formula_structural   SmSe2
_chemical_formula_sum   'Sm2 Se4'
_cell_volume   143.80490370
_cell_formula_units_Z   2
loop_
 _symmetry_equiv_pos_site_id
 _symmetry_equiv_pos_as_xyz
  1  'x, y, z'
loop_
 _atom_site_type_symbol
 _atom_site_label
 _atom_site_symmetry_multiplicity
 _atom_site_fract_x
 _atom_site_fract_y
 _atom_site_fract_z
 _atom_site_occupancy
  Sm  Sm0  1  0.75000000  0.75000000  0.72622653  1
  Sm  Sm1  1  0.25000000  0.25000000  0.27377347  1
  Se  Se0  1  0.75000000  0.25000000  -0.00000000  1
  Se  Se1  1  0.25000000  0.75000000  -0.00000000  1
  Se  Se2  1  0.75000000  0.75000000  0.36842828  1
  Se  Se3  1  0.25000000  0.25000000  0.63157172  1
loop_
_geom_bond_atom_site_label_1
_geom_bond_atom_site_label_2
_geom_bond_distance
_geom_bond_site_symmetry_2
Se0 Se1 2.911082 1_645
Se0 Se1 2.911082 1_555
Se0 Se1 2.911082 1_545
Se0 Se1 2.911082 1_655
Se0 Sm0 3.103700 1_544
Se0 Sm0 3.103700 1_554
Se0 Sm1 3.103700 1_655
Se0 Sm1 3.103700 1_555
Se1 Sm0 3.103700 1_454
Se1 Sm0 3.103700 1_554
Se1 Sm1 3.103700 1_565
Se1 Sm1 3.103700 1_555
Se2 Sm1 3.019833 1_655
Se2 Sm1 3.019833 1_565
Se2 Sm1 3.019833 1_665
Se2 Sm1 3.019833 1_555
Se2 Sm0 3.035799 1_555
Se3 Sm0 3.019833 1_455
Se3 Sm0 3.019833 1_555
Se3 Sm0 3.019833 1_445
Se3 Sm0 3.019833 1_545
Se3 Sm1 3.035799 1_555
