# generated using pymatgen
data_Zn(CoS2)4
_symmetry_space_group_name_H-M   'P 1'
_cell_length_a   7.04434050
_cell_length_b   7.04434050
_cell_length_c   7.04434028
_cell_angle_alpha   55.90503629
_cell_angle_beta   55.90503629
_cell_angle_gamma   55.90503661
_symmetry_Int_Tables_number   1
_chemical_formula_structural   Zn(CoS2)4
_chemical_formula_sum   'Zn1 Co4 S8'
_cell_volume   223.71667226
_cell_formula_units_Z   1
loop_
 _symmetry_equiv_pos_site_id
 _symmetry_equiv_pos_as_xyz
  1  'x, y, z'
loop_
 _atom_site_type_symbol
 _atom_site_label
 _atom_site_symmetry_multiplicity
 _atom_site_fract_x
 _atom_site_fract_y
 _atom_site_fract_z
 _atom_site_occupancy
  Zn  Zn0  1  0.50000000  0.50000000  0.50000000  1
  Co  Co0  1  0.00000000  0.50000000  0.50000000  1
  Co  Co1  1  0.50000000  0.00000000  0.50000000  1
  Co  Co2  1  0.50000000  0.50000000  0.00000000  1
  Co  Co3  1  0.00000000  0.00000000  0.00000000  1
  S  S0  1  0.27255500  0.76144000  0.76144000  1
  S  S1  1  0.23856000  0.23856000  0.72744500  1
  S  S2  1  0.72744500  0.23856000  0.23856000  1
  S  S3  1  0.23856000  0.72744500  0.23856000  1
  S  S4  1  0.26466800  0.26466800  0.26466800  1
  S  S5  1  0.73533200  0.73533200  0.73533200  1
  S  S6  1  0.76144000  0.27255500  0.76144000  1
  S  S7  1  0.76144000  0.76144000  0.27255500  1
loop_
_geom_bond_atom_site_label_1
_geom_bond_atom_site_label_2
_geom_bond_distance
_geom_bond_site_symmetry_2
Co0 S7 2.241325 1_455
Co0 S1 2.241325 1_555
Co0 S6 2.241325 1_455
Co0 S3 2.241325 1_555
Co0 S5 2.263437 1_455
Co0 S4 2.263437 1_555
Co1 S7 2.241325 1_545
Co1 S1 2.241325 1_555
Co1 S0 2.241325 1_545
Co1 S2 2.241325 1_555
Co1 S5 2.263437 1_545
Co1 S4 2.263437 1_555
Co2 S2 2.241325 1_555
Co2 S3 2.241325 1_555
Co2 S6 2.241325 1_554
Co2 S0 2.241325 1_554
Co2 S5 2.263437 1_554
Co2 S4 2.263437 1_555
Co3 S6 2.294757 1_454
Co3 S2 2.294757 1_455
Co3 S0 2.294757 1_544
Co3 S3 2.294757 1_545
Co3 S1 2.294757 1_554
Co3 S7 2.294757 1_445
S0 Zn0 2.556727 1_555
S1 Zn0 2.556728 1_555
S2 Zn0 2.556727 1_555
S3 Zn0 2.556727 1_555
S6 Zn0 2.556727 1_555
S7 Zn0 2.556728 1_555
