# generated using pymatgen
data_Y2SiP4O15
_symmetry_space_group_name_H-M   'P 1'
_cell_length_a   5.59328700
_cell_length_b   7.08857100
_cell_length_c   16.56410000
_cell_angle_alpha   90.00000000
_cell_angle_beta   90.00000000
_cell_angle_gamma   90.00000000
_symmetry_Int_Tables_number   1
_chemical_formula_structural   Y2SiP4O15
_chemical_formula_sum   'Y4 Si2 P8 O30'
_cell_volume   656.74026159
_cell_formula_units_Z   2
loop_
 _symmetry_equiv_pos_site_id
 _symmetry_equiv_pos_as_xyz
  1  'x, y, z'
loop_
 _atom_site_type_symbol
 _atom_site_label
 _atom_site_symmetry_multiplicity
 _atom_site_fract_x
 _atom_site_fract_y
 _atom_site_fract_z
 _atom_site_occupancy
  Y  Y0  1  0.86476600  0.40604000  0.78236900  1
  Y  Y1  1  0.86476600  0.59396000  0.21763100  1
  Y  Y2  1  0.13523400  0.09396000  0.28236900  1
  Y  Y3  1  0.13523400  0.90604000  0.71763100  1
  Si  Si0  1  0.45881600  0.50000000  0.50000000  1
  Si  Si1  1  0.54118400  0.00000000  0.00000000  1
  P  P0  1  0.69246200  0.91085200  0.83067700  1
  P  P1  1  0.69246200  0.08914800  0.16932300  1
  P  P2  1  0.30753800  0.58914800  0.33067700  1
  P  P3  1  0.30753800  0.41085200  0.66932300  1
  P  P4  1  0.64263900  0.13721400  0.42578000  1
  P  P5  1  0.64263900  0.86278600  0.57422000  1
  P  P6  1  0.35736100  0.36278600  0.92578000  1
  P  P7  1  0.35736100  0.63721400  0.07422000  1
  O  O0  1  0.64276500  0.33691700  0.46880300  1
  O  O1  1  0.64276500  0.66308300  0.53119700  1
  O  O2  1  0.35723500  0.16308300  0.96880300  1
  O  O3  1  0.35723500  0.83691700  0.03119700  1
  O  O4  1  0.71654200  0.07363500  0.07264300  1
  O  O5  1  0.71654200  0.92636500  0.92735700  1
  O  O6  1  0.28345800  0.42636500  0.57264300  1
  O  O7  1  0.28345800  0.57363500  0.42735700  1
  O  O8  1  0.83525700  0.07688600  0.79351300  1
  O  O9  1  0.83525700  0.92311400  0.20648700  1
  O  O10  1  0.16474300  0.42311400  0.29351300  1
  O  O11  1  0.16474300  0.57688600  0.70648700  1
  O  O12  1  0.42756300  0.90981200  0.81115400  1
  O  O13  1  0.42756300  0.09018800  0.18884600  1
  O  O14  1  0.57243700  0.59018800  0.31115400  1
  O  O15  1  0.57243700  0.40981200  0.68884600  1
  O  O16  1  0.83411600  0.73543900  0.80316500  1
  O  O17  1  0.83411600  0.26456100  0.19683500  1
  O  O18  1  0.16588400  0.76456100  0.30316500  1
  O  O19  1  0.16588400  0.23543900  0.69683500  1
  O  O20  1  0.42505600  0.11446700  0.37395000  1
  O  O21  1  0.42505600  0.88553300  0.62605000  1
  O  O22  1  0.57494400  0.38553300  0.87395000  1
  O  O23  1  0.57494400  0.61446700  0.12605000  1
  O  O24  1  0.88135500  0.10775500  0.38690000  1
  O  O25  1  0.88135500  0.89224500  0.61310000  1
  O  O26  1  0.11864500  0.39224500  0.88690000  1
  O  O27  1  0.11864500  0.60775500  0.11310000  1
  O  O28  1  0.61048800  0.00000000  0.50000000  1
  O  O29  1  0.38951200  0.50000000  0.00000000  1
loop_
_geom_bond_atom_site_label_1
_geom_bond_atom_site_label_2
_geom_bond_distance
_geom_bond_site_symmetry_2
O0 P4 1.584866 1_555
O0 Si0 1.631569 1_555
O1 P5 1.584866 1_555
O1 Si0 1.631569 1_555
O2 P6 1.584866 1_555
O2 Si1 1.631569 1_556
O3 P7 1.584866 1_555
O3 Si1 1.631569 1_565
O4 P1 1.610829 1_555
O4 Si1 1.637779 1_555
O5 P0 1.610829 1_555
O5 Si1 1.637779 1_566
O6 P3 1.610829 1_555
O6 Si0 1.637779 1_555
O7 P2 1.610829 1_555
O7 Si0 1.637779 1_555
O8 P0 1.549857 1_545
O8 Y0 2.346334 1_555
O8 Y3 2.421094 1_645
O9 P1 1.549857 1_565
O9 Y1 2.346334 1_555
O9 Y2 2.421094 1_665
O10 P2 1.549857 1_555
O10 Y2 2.346334 1_555
O10 Y1 2.421094 1_455
O11 P3 1.549857 1_555
O11 Y3 2.346334 1_555
O11 Y0 2.421094 1_455
O12 P0 1.516553 1_555
O12 Y3 2.252551 1_555
O13 P1 1.516553 1_555
O13 Y2 2.252551 1_555
O14 P2 1.516553 1_555
O14 Y1 2.252551 1_555
O15 P3 1.516553 1_555
O15 Y0 2.252551 1_555
O16 P0 1.543225 1_555
O16 Y0 2.366458 1_555
O16 Y3 2.511258 1_655
O17 P1 1.543225 1_555
O17 Y1 2.366458 1_555
O17 Y2 2.511258 1_655
O18 P2 1.543225 1_555
O18 Y2 2.366458 1_565
O18 Y1 2.511258 1_455
O19 P3 1.543225 1_555
O19 Y3 2.366458 1_545
O19 Y0 2.511258 1_455
O20 P4 1.498049 1_555
O20 Y2 2.224886 1_555
O21 P5 1.498049 1_555
O21 Y3 2.224886 1_555
O22 P6 1.498049 1_555
O22 Y0 2.224886 1_555
O23 P7 1.498049 1_555
O23 Y1 2.224886 1_555
O24 P4 1.497043 1_555
O24 Y2 2.241422 1_655
O25 P5 1.497043 1_555
O25 Y3 2.241422 1_655
O26 P6 1.497043 1_555
O26 Y0 2.241422 1_455
O27 P7 1.497043 1_555
O27 Y1 2.241422 1_455
O28 P4 1.577905 1_555
O28 P5 1.577905 1_545
O29 P6 1.577905 1_554
O29 P7 1.577905 1_555
