# generated using pymatgen
data_Er2AlGe3
_symmetry_space_group_name_H-M   'P 1'
_cell_length_a   4.16510200
_cell_length_b   6.82963300
_cell_length_c   17.64028300
_cell_angle_alpha   90.00000000
_cell_angle_beta   90.00000000
_cell_angle_gamma   90.00000000
_symmetry_Int_Tables_number   1
_chemical_formula_structural   Er2AlGe3
_chemical_formula_sum   'Er8 Al4 Ge12'
_cell_volume   501.79757296
_cell_formula_units_Z   4
loop_
 _symmetry_equiv_pos_site_id
 _symmetry_equiv_pos_as_xyz
  1  'x, y, z'
loop_
 _atom_site_type_symbol
 _atom_site_label
 _atom_site_symmetry_multiplicity
 _atom_site_fract_x
 _atom_site_fract_y
 _atom_site_fract_z
 _atom_site_occupancy
  Er  Er0  1  0.25000000  0.66630000  0.70301500  1
  Er  Er1  1  0.75000000  0.33370000  0.29698500  1
  Er  Er2  1  0.75000000  0.83370000  0.20301500  1
  Er  Er3  1  0.25000000  0.16630000  0.79698500  1
  Er  Er4  1  0.25000000  0.66757000  0.91457200  1
  Er  Er5  1  0.75000000  0.33243000  0.08542800  1
  Er  Er6  1  0.75000000  0.83243000  0.41457200  1
  Er  Er7  1  0.25000000  0.16757000  0.58542800  1
  Al  Al0  1  0.25000000  0.95073500  0.06441500  1
  Al  Al1  1  0.75000000  0.04926500  0.93558500  1
  Al  Al2  1  0.75000000  0.54926500  0.56441500  1
  Al  Al3  1  0.25000000  0.45073500  0.43558500  1
  Ge  Ge0  1  0.25000000  0.75139000  0.53472900  1
  Ge  Ge1  1  0.75000000  0.24861000  0.46527100  1
  Ge  Ge2  1  0.75000000  0.74861000  0.03472900  1
  Ge  Ge3  1  0.25000000  0.25139000  0.96527100  1
  Ge  Ge4  1  0.25000000  0.53567700  0.17204600  1
  Ge  Ge5  1  0.75000000  0.46432300  0.82795400  1
  Ge  Ge6  1  0.75000000  0.96432300  0.67204600  1
  Ge  Ge7  1  0.25000000  0.03567700  0.32795400  1
  Ge  Ge8  1  0.25000000  0.64599800  0.31157000  1
  Ge  Ge9  1  0.75000000  0.35400200  0.68843000  1
  Ge  Ge10  1  0.75000000  0.85400200  0.81157000  1
  Ge  Ge11  1  0.25000000  0.14599800  0.18843000  1
loop_
_geom_bond_atom_site_label_1
_geom_bond_atom_site_label_2
_geom_bond_distance
_geom_bond_site_symmetry_2
Er0 Ge6 2.962814 1_455
Er0 Ge6 2.962814 1_555
Er0 Ge9 2.992055 1_455
Er0 Ge9 2.992055 1_555
Er0 Ge0 3.024959 1_555
Er0 Ge10 3.106023 1_555
Er0 Ge10 3.106023 1_455
Er0 Ge5 3.331258 1_555
Er0 Ge5 3.331258 1_455
Er1 Ge7 2.962814 1_555
Er1 Ge7 2.962814 1_655
Er1 Ge8 2.992055 1_555
Er1 Ge8 2.992055 1_655
Er1 Ge1 3.024959 1_555
Er1 Ge11 3.106023 1_555
Er1 Ge11 3.106023 1_655
Er1 Ge4 3.331258 1_655
Er1 Ge4 3.331258 1_555
Er2 Ge4 2.962814 1_555
Er2 Ge4 2.962814 1_655
Er2 Ge11 2.992055 1_665
Er2 Ge11 2.992055 1_565
Er2 Ge2 3.024959 1_555
Er2 Ge8 3.106023 1_555
Er2 Ge8 3.106023 1_655
Er2 Ge7 3.331258 1_565
Er2 Ge7 3.331258 1_665
Er3 Ge5 2.962814 1_455
Er3 Ge5 2.962814 1_555
Er3 Ge10 2.992055 1_445
Er3 Ge10 2.992055 1_545
Er3 Ge3 3.024959 1_555
Er3 Ge9 3.106023 1_555
Er3 Ge9 3.106023 1_455
Er3 Ge6 3.331258 1_445
Er3 Ge6 3.331258 1_545
Er4 Ge5 2.932325 1_455
Er4 Ge5 2.932325 1_555
Er4 Ge3 2.979739 1_555
Er4 Ge2 3.022593 1_456
Er4 Ge2 3.022593 1_556
Er4 Ge10 3.042967 1_455
Er4 Ge10 3.042967 1_555
Er5 Ge4 2.932325 1_655
Er5 Ge4 2.932325 1_555
Er5 Ge2 2.979739 1_555
Er5 Ge3 3.022593 1_654
Er5 Ge3 3.022593 1_554
Er5 Ge11 3.042967 1_555
Er5 Ge11 3.042967 1_655
Er6 Ge7 2.932325 1_565
Er6 Ge7 2.932325 1_665
Er6 Ge1 2.979739 1_565
Er6 Ge0 3.022593 1_655
Er6 Ge0 3.022593 1_555
Er6 Ge8 3.042967 1_555
Er6 Ge8 3.042967 1_655
Er7 Ge6 2.932325 1_445
Er7 Ge6 2.932325 1_545
Er7 Ge0 2.979739 1_545
Er7 Ge1 3.022593 1_555
Er7 Ge1 3.022593 1_455
Er7 Ge9 3.042967 1_455
Er7 Ge9 3.042967 1_555
Al0 Ge2 2.552814 1_455
Al0 Ge2 2.552814 1_555
Al0 Ge11 2.562084 1_565
Al0 Ge3 2.697230 1_564
Al0 Er2 3.309631 1_555
Al0 Er2 3.309631 1_455
Al1 Ge3 2.552814 1_655
Al1 Ge3 2.552814 1_555
Al1 Ge10 2.562084 1_545
Al1 Ge2 2.697230 1_546
Al1 Er3 3.309631 1_555
Al1 Er3 3.309631 1_655
Al2 Ge0 2.552814 1_655
Al2 Ge0 2.552814 1_555
Al2 Ge9 2.562084 1_555
Al2 Ge1 2.697230 1_555
Al2 Er0 3.309631 1_655
Al2 Er0 3.309631 1_555
Al3 Ge1 2.552814 1_555
Al3 Ge1 2.552814 1_455
Al3 Ge8 2.562084 1_555
Al3 Ge0 2.697230 1_555
Al3 Er1 3.309631 1_555
Al3 Er1 3.309631 1_455
Ge4 Ge8 2.573986 1_555
Ge5 Ge9 2.573986 1_555
Ge6 Ge9 2.677012 1_565
Ge7 Ge8 2.677012 1_545
Ge10 Ge6 2.573986 1_555
Ge10 Ge5 2.677012 1_555
Ge11 Ge7 2.573986 1_555
Ge11 Ge4 2.677012 1_555
