# generated using pymatgen
data_GeTe2Pb
_symmetry_space_group_name_H-M   'P 1'
_cell_length_a   4.48161400
_cell_length_b   4.48161400
_cell_length_c   6.34196200
_cell_angle_alpha   90.00000000
_cell_angle_beta   90.00000000
_cell_angle_gamma   90.00000000
_symmetry_Int_Tables_number   1
_chemical_formula_structural   GeTe2Pb
_chemical_formula_sum   'Ge1 Te2 Pb1'
_cell_volume   127.37744455
_cell_formula_units_Z   1
loop_
 _symmetry_equiv_pos_site_id
 _symmetry_equiv_pos_as_xyz
  1  'x, y, z'
loop_
 _atom_site_type_symbol
 _atom_site_label
 _atom_site_symmetry_multiplicity
 _atom_site_fract_x
 _atom_site_fract_y
 _atom_site_fract_z
 _atom_site_occupancy
  Ge  Ge0  1  0.00000000  0.00000000  0.00000000  1
  Te  Te0  1  0.00000000  0.00000000  0.50000000  1
  Te  Te1  1  0.50000000  0.50000000  0.00000000  1
  Pb  Pb0  1  0.50000000  0.50000000  0.50000000  1
loop_
_geom_bond_atom_site_label_1
_geom_bond_atom_site_label_2
_geom_bond_distance
_geom_bond_site_symmetry_2
Ge0 Te1 3.168980 1_545
Ge0 Te1 3.168980 1_555
Ge0 Te1 3.168980 1_445
Ge0 Te1 3.168980 1_455
Ge0 Te0 3.170981 1_554
Ge0 Te0 3.170981 1_555
Pb0 Te0 3.168980 1_565
Pb0 Te0 3.168980 1_665
Pb0 Te0 3.168980 1_555
Pb0 Te0 3.168980 1_655
Pb0 Te1 3.170981 1_556
Pb0 Te1 3.170981 1_555
