# generated using pymatgen
data_Li4VCr3O8
_symmetry_space_group_name_H-M   'P 1'
_cell_length_a   5.15659600
_cell_length_b   5.96221625
_cell_length_c   10.71702966
_cell_angle_alpha   105.90492066
_cell_angle_beta   94.61416383
_cell_angle_gamma   107.03158305
_symmetry_Int_Tables_number   1
_chemical_formula_structural   Li4VCr3O8
_chemical_formula_sum   'Li8 V2 Cr6 O16'
_cell_volume   298.31807233
_cell_formula_units_Z   2
loop_
 _symmetry_equiv_pos_site_id
 _symmetry_equiv_pos_as_xyz
  1  'x, y, z'
loop_
 _atom_site_type_symbol
 _atom_site_label
 _atom_site_symmetry_multiplicity
 _atom_site_fract_x
 _atom_site_fract_y
 _atom_site_fract_z
 _atom_site_occupancy
  Li  Li0  1  0.00000000  0.50000000  0.00000000  1
  Li  Li1  1  0.25123700  0.87574900  0.74862000  1
  Li  Li2  1  0.74876300  0.12425100  0.25138000  1
  Li  Li3  1  0.49995800  0.74937100  0.50052500  1
  Li  Li4  1  0.00000000  0.00000000  0.00000000  1
  Li  Li5  1  0.24803300  0.37340200  0.74926600  1
  Li  Li6  1  0.75196700  0.62659800  0.25073400  1
  Li  Li7  1  0.50004200  0.25062900  0.49947500  1
  V  V0  1  0.62377800  0.68462800  0.87598000  1
  V  V1  1  0.37622200  0.31537200  0.12402000  1
  Cr  Cr0  1  0.12519200  0.93865400  0.37514700  1
  Cr  Cr1  1  0.62490600  0.18482700  0.87447400  1
  Cr  Cr2  1  0.87497200  0.56117200  0.62502200  1
  Cr  Cr3  1  0.37509400  0.81517300  0.12552600  1
  Cr  Cr4  1  0.12502800  0.43882800  0.37497800  1
  Cr  Cr5  1  0.87480800  0.06134600  0.62485300  1
  O  O0  1  0.83654400  0.09903000  0.43942000  1
  O  O1  1  0.41436500  0.27828800  0.31078600  1
  O  O2  1  0.33217400  0.34455000  0.93816000  1
  O  O3  1  0.91636900  0.52200600  0.80991400  1
  O  O4  1  0.16345600  0.90097000  0.56058000  1
  O  O5  1  0.58563500  0.72171200  0.68921400  1
  O  O6  1  0.08615400  0.97513800  0.18987900  1
  O  O7  1  0.66834400  0.15169100  0.05878600  1
  O  O8  1  0.83647200  0.59939500  0.43967400  1
  O  O9  1  0.41377500  0.77837800  0.31104600  1
  O  O10  1  0.33165600  0.84830900  0.94121400  1
  O  O11  1  0.91384600  0.02486200  0.81012100  1
  O  O12  1  0.58622500  0.22162200  0.68895400  1
  O  O13  1  0.08363100  0.47799400  0.19008600  1
  O  O14  1  0.16352800  0.40060500  0.56032600  1
  O  O15  1  0.66782600  0.65545000  0.06184000  1
loop_
_geom_bond_atom_site_label_1
_geom_bond_atom_site_label_2
_geom_bond_distance
_geom_bond_site_symmetry_2
Li0 O13 2.095589 1_555
Li0 O3 2.095589 1_454
Li0 O2 2.237897 1_554
Li0 O15 2.237897 1_455
Li0 O10 2.538568 1_554
Li0 O7 2.538568 1_455
Li1 O4 2.085151 1_555
Li1 O10 2.132155 1_555
Li1 O5 2.237421 1_555
Li1 O11 2.240781 1_465
Li2 O0 2.085151 1_555
Li2 O7 2.132155 1_555
Li2 O1 2.237421 1_555
Li2 O6 2.240781 1_645
Li3 O5 2.096027 1_555
Li3 O9 2.107907 1_555
Li3 O8 2.237729 1_555
Li3 O4 2.240925 1_555
Li3 O14 2.557428 1_555
Li3 O0 2.568840 1_565
Li4 O6 2.102087 1_545
Li4 O11 2.102087 1_454
Li4 O10 2.215143 1_544
Li4 O7 2.215143 1_455
Li4 V1 2.268112 1_555
Li4 V0 2.268112 1_444
Li4 O2 2.541818 1_554
Li4 O15 2.541818 1_445
Li5 O14 2.096604 1_555
Li5 O2 2.099819 1_555
Li5 O3 2.209826 1_455
Li5 O12 2.250159 1_555
Li5 V0 2.265163 1_555
Li5 O11 2.557191 1_455
Li5 O5 2.559784 1_555
Li6 O8 2.096604 1_555
Li6 O15 2.099819 1_555
Li6 O13 2.209826 1_655
Li6 O9 2.250159 1_555
Li6 V1 2.265163 1_555
Li6 O6 2.557191 1_655
Li6 O1 2.559784 1_555
Li7 O1 2.096027 1_555
Li7 O12 2.107907 1_555
Li7 O14 2.237729 1_555
Li7 O0 2.240925 1_555
Li7 O8 2.557428 1_555
Li7 O4 2.568840 1_545
Cr0 O6 2.056260 1_555
Cr0 O9 2.058461 1_555
Cr0 O0 2.059595 1_465
Cr0 O4 2.060666 1_555
Cr0 Li6 2.252395 1_455
Cr0 Li7 2.256671 1_565
Cr0 O8 2.440172 1_455
Cr0 O1 2.441716 1_565
Cr1 O7 2.039497 1_556
Cr1 O12 2.059571 1_555
Cr1 O11 2.059726 1_555
Cr1 O2 2.074348 1_555
Cr1 Li1 2.251091 1_545
Cr1 Li0 2.269078 1_656
Cr1 O3 2.436952 1_555
Cr1 O10 2.450941 1_545
Cr2 O3 2.059409 1_555
Cr2 O14 2.061047 1_655
Cr2 O8 2.061121 1_555
Cr2 O5 2.063083 1_555
Cr2 Li7 2.257321 1_555
Cr2 Li1 2.264950 1_655
Cr2 O12 2.437927 1_555
Cr2 O4 2.441529 1_655
Cr3 O10 2.039497 1_554
Cr3 O9 2.059571 1_555
Cr3 O6 2.059726 1_555
Cr3 O15 2.074348 1_555
Cr3 Li2 2.251091 1_565
Cr3 Li0 2.269078 1_555
Cr3 O13 2.436952 1_555
Cr3 O7 2.450941 1_565
Cr4 O13 2.059409 1_555
Cr4 O8 2.061047 1_455
Cr4 O14 2.061121 1_555
Cr4 O1 2.063083 1_555
Cr4 Li3 2.257321 1_555
Cr4 Li2 2.264950 1_455
Cr4 O9 2.437927 1_555
Cr4 O0 2.441529 1_455
Cr5 O11 2.056260 1_555
Cr5 O12 2.058461 1_555
Cr5 O4 2.059595 1_645
Cr5 O0 2.060666 1_555
Cr5 Li5 2.252395 1_655
Cr5 Li3 2.256671 1_545
Cr5 O14 2.440172 1_655
Cr5 O5 2.441716 1_545
O1 V1 2.073300 1_555
O2 V1 2.046867 1_556
O2 V0 2.435592 1_555
O3 V0 2.090545 1_555
O5 V0 2.073300 1_555
O6 V1 2.455124 1_565
O7 V1 2.089713 1_555
O10 V0 2.089713 1_555
O11 V0 2.455124 1_545
O13 V1 2.090545 1_555
O15 V0 2.046867 1_554
O15 V1 2.435592 1_555
