# generated using pymatgen
data_Li2Mn(PO4)2
_symmetry_space_group_name_H-M   'P 1'
_cell_length_a   16.90978900
_cell_length_b   4.84930900
_cell_length_c   6.96351848
_cell_angle_alpha   84.11816236
_cell_angle_beta   90.00000000
_cell_angle_gamma   90.00000000
_symmetry_Int_Tables_number   1
_chemical_formula_structural   Li2Mn(PO4)2
_chemical_formula_sum   'Li8 Mn4 P8 O32'
_cell_volume   568.00784197
_cell_formula_units_Z   4
loop_
 _symmetry_equiv_pos_site_id
 _symmetry_equiv_pos_as_xyz
  1  'x, y, z'
loop_
 _atom_site_type_symbol
 _atom_site_label
 _atom_site_symmetry_multiplicity
 _atom_site_fract_x
 _atom_site_fract_y
 _atom_site_fract_z
 _atom_site_occupancy
  Li  Li0  1  0.61266800  0.93948500  0.70464100  1
  Li  Li1  1  0.38485700  0.51482600  0.70746900  1
  Li  Li2  1  0.11266800  0.06051500  0.29535900  1
  Li  Li3  1  0.94581000  0.03044400  0.06644000  1
  Li  Li4  1  0.19253400  0.54801200  0.11303800  1
  Li  Li5  1  0.69253400  0.45198800  0.88696200  1
  Li  Li6  1  0.88485700  0.48517400  0.29253100  1
  Li  Li7  1  0.44581000  0.96955600  0.93356000  1
  Mn  Mn0  1  0.12923000  0.05943200  0.75066400  1
  Mn  Mn1  1  0.86843000  0.44778900  0.73635400  1
  Mn  Mn2  1  0.62923000  0.94056800  0.24933600  1
  Mn  Mn3  1  0.36843000  0.55221100  0.26364600  1
  P  P0  1  0.46288300  0.01836400  0.46605700  1
  P  P1  1  0.78824200  0.90704100  0.97388400  1
  P  P2  1  0.71263000  0.40528900  0.47256200  1
  P  P3  1  0.03838000  0.51495800  0.95375900  1
  P  P4  1  0.53838000  0.48504200  0.04624100  1
  P  P5  1  0.96288300  0.98163600  0.53394300  1
  P  P6  1  0.28824200  0.09295900  0.02611600  1
  P  P7  1  0.21263000  0.59471100  0.52743800  1
  O  O0  1  0.19525000  0.73964800  0.71336800  1
  O  O1  1  0.92570000  0.11425900  0.70644800  1
  O  O2  1  0.69525000  0.26035200  0.28663200  1
  O  O3  1  0.42570000  0.88574100  0.29355200  1
  O  O4  1  0.05578600  0.98892000  0.54712900  1
  O  O5  1  0.07058400  0.38763300  0.77480200  1
  O  O6  1  0.19406000  0.27568700  0.56804300  1
  O  O7  1  0.29831300  0.77275400  0.08556400  1
  O  O8  1  0.57058400  0.61236700  0.22519800  1
  O  O9  1  0.44224900  0.87933700  0.66369400  1
  O  O10  1  0.57440200  0.61469900  0.85999100  1
  O  O11  1  0.84620700  0.80922900  0.12963600  1
  O  O12  1  0.34620700  0.19077100  0.87036400  1
  O  O13  1  0.05568500  0.83593400  0.93348600  1
  O  O14  1  0.55578600  0.01108000  0.45287100  1
  O  O15  1  0.17089900  0.72135400  0.34826000  1
  O  O16  1  0.69873200  0.86548600  0.02851800  1
  O  O17  1  0.93571600  0.67003900  0.55549600  1
  O  O18  1  0.30496200  0.60835000  0.49640100  1
  O  O19  1  0.19873200  0.13451400  0.97148200  1
  O  O20  1  0.80496200  0.39165000  0.50359900  1
  O  O21  1  0.44573400  0.52878700  0.04027800  1
  O  O22  1  0.07440200  0.38530100  0.14000900  1
  O  O23  1  0.94573400  0.47121300  0.95972200  1
  O  O24  1  0.79634600  0.74445000  0.79050300  1
  O  O25  1  0.29634600  0.25555000  0.20949700  1
  O  O26  1  0.43571600  0.32996100  0.44450400  1
  O  O27  1  0.55568500  0.16406600  0.06651400  1
  O  O28  1  0.69406000  0.72431300  0.43195700  1
  O  O29  1  0.67089900  0.27864600  0.65174000  1
  O  O30  1  0.94224900  0.12066300  0.33630600  1
  O  O31  1  0.79831300  0.22724600  0.91443600  1
loop_
_geom_bond_atom_site_label_1
_geom_bond_atom_site_label_2
_geom_bond_distance
_geom_bond_site_symmetry_2
Li0 O29 1.919931 1_565
Li0 O10 1.928818 1_555
Li0 O14 1.998673 1_565
Li1 O12 1.953952 1_555
Li1 O9 2.012171 1_555
Li1 O18 2.013586 1_555
Li1 O26 2.287549 1_555
Li1 O21 2.543098 1_556
Li2 O15 1.919931 1_545
Li2 O22 1.928818 1_555
Li2 O4 1.998673 1_545
Li3 O30 1.973574 1_555
Li3 O11 2.020996 1_545
Li3 O23 2.189814 1_554
Li3 O13 2.319023 1_644
Li3 O1 2.521133 1_554
Li4 O15 1.950789 1_555
Li4 O7 2.093102 1_555
Li4 O22 2.148915 1_555
Li4 O25 2.312768 1_555
Li4 O19 2.325617 1_554
Li5 O29 1.950789 1_555
Li5 O31 2.093102 1_555
Li5 O10 2.148915 1_555
Li5 O24 2.312768 1_555
Li5 O16 2.325617 1_556
Li6 O11 1.953952 1_555
Li6 O30 2.012171 1_555
Li6 O20 2.013586 1_555
Li6 O17 2.287549 1_555
Li6 O23 2.543098 1_554
Li7 O9 1.973574 1_555
Li7 O12 2.020996 1_565
Li7 O21 2.189814 1_556
Li7 O27 2.319023 1_566
Li7 O3 2.521133 1_556
Mn0 O5 1.897250 1_555
Mn0 O6 1.909290 1_555
Mn0 O4 1.940983 1_545
Mn0 O0 1.949635 1_545
Mn0 O19 1.998246 1_555
Mn0 O13 2.014749 1_545
Mn1 O1 1.914731 1_555
Mn1 O17 1.940116 1_555
Mn1 O24 1.951591 1_555
Mn1 O31 1.953346 1_555
Mn1 O20 1.985785 1_555
Mn1 O23 2.043826 1_555
Mn2 O8 1.897250 1_555
Mn2 O28 1.909290 1_555
Mn2 O14 1.940983 1_565
Mn2 O2 1.949635 1_565
Mn2 O16 1.998246 1_555
Mn2 O27 2.014749 1_565
Mn3 O3 1.914731 1_555
Mn3 O26 1.940116 1_555
Mn3 O25 1.951591 1_555
Mn3 O7 1.953346 1_555
Mn3 O18 1.985785 1_555
Mn3 O21 2.043826 1_555
O0 P7 1.563070 1_555
O1 P5 1.552505 1_545
O2 P2 1.563070 1_555
O3 P0 1.552505 1_565
O4 P5 1.574259 1_455
O5 P3 1.545451 1_555
O6 P7 1.575517 1_555
O7 P6 1.574716 1_565
O8 P4 1.545451 1_555
O9 P0 1.510021 1_565
O10 P4 1.510403 1_556
O11 P1 1.502200 1_554
O12 P6 1.502200 1_556
O13 P3 1.575834 1_555
O14 P0 1.574259 1_555
O15 P7 1.508260 1_555
O16 P1 1.568631 1_554
O17 P5 1.571717 1_555
O18 P7 1.576661 1_555
O19 P6 1.568631 1_556
O20 P2 1.576661 1_555
O21 P4 1.580896 1_555
O22 P3 1.510403 1_554
O23 P3 1.580896 1_655
O24 P1 1.573996 1_555
O25 P6 1.573996 1_555
O26 P0 1.571717 1_555
O27 P4 1.575834 1_555
O28 P2 1.575517 1_555
O29 P2 1.508260 1_555
O30 P5 1.510021 1_545
O31 P1 1.574716 1_545
