# generated using pymatgen
data_Ta2Zn2CrO8
_symmetry_space_group_name_H-M   'P 1'
_cell_length_a   10.25432932
_cell_length_b   10.25432932
_cell_length_c   5.29808291
_cell_angle_alpha   88.52189455
_cell_angle_beta   88.52189455
_cell_angle_gamma   34.01791737
_symmetry_Int_Tables_number   1
_chemical_formula_structural   Ta2Zn2CrO8
_chemical_formula_sum   'Ta4 Zn4 Cr2 O16'
_cell_volume   311.55744970
_cell_formula_units_Z   2
loop_
 _symmetry_equiv_pos_site_id
 _symmetry_equiv_pos_as_xyz
  1  'x, y, z'
loop_
 _atom_site_type_symbol
 _atom_site_label
 _atom_site_symmetry_multiplicity
 _atom_site_fract_x
 _atom_site_fract_y
 _atom_site_fract_z
 _atom_site_occupancy
  Ta  Ta0  1  0.03774900  0.72805900  0.23150200  1
  Ta  Ta1  1  0.27194100  0.96225100  0.26849800  1
  Ta  Ta2  1  0.96225100  0.27194100  0.76849800  1
  Ta  Ta3  1  0.72805900  0.03774900  0.73150200  1
  Zn  Zn0  1  0.87126900  0.56568100  0.26944700  1
  Zn  Zn1  1  0.43431900  0.12873100  0.23055300  1
  Zn  Zn2  1  0.12873100  0.43431900  0.73055300  1
  Zn  Zn3  1  0.56568100  0.87126900  0.76944700  1
  Cr  Cr0  1  0.64911800  0.35088200  0.25000000  1
  Cr  Cr1  1  0.35088200  0.64911800  0.75000000  1
  O  O0  1  0.04332100  0.81108900  0.56192300  1
  O  O1  1  0.18891100  0.95667900  0.93807700  1
  O  O2  1  0.95667900  0.18891100  0.43807700  1
  O  O3  1  0.81108900  0.04332100  0.06192300  1
  O  O4  1  0.30517900  0.57753300  0.08126100  1
  O  O5  1  0.42246700  0.69482100  0.41873900  1
  O  O6  1  0.69482100  0.42246700  0.91873900  1
  O  O7  1  0.57753300  0.30517900  0.58126100  1
  O  O8  1  0.92383300  0.71771100  0.93287300  1
  O  O9  1  0.28228900  0.07616700  0.56712700  1
  O  O10  1  0.45228600  0.15964900  0.86031100  1
  O  O11  1  0.84035100  0.54771500  0.63968900  1
  O  O12  1  0.54771400  0.84035100  0.13968900  1
  O  O13  1  0.15964900  0.45228600  0.36031100  1
  O  O14  1  0.71771100  0.92383300  0.43287300  1
  O  O15  1  0.07616700  0.28228900  0.06712700  1
loop_
_geom_bond_atom_site_label_1
_geom_bond_atom_site_label_2
_geom_bond_distance
_geom_bond_site_symmetry_2
Cr0 O6 2.073659 1_554
Cr0 O7 2.073659 1_555
Cr0 O2 2.256412 1_555
Cr0 O3 2.256412 1_555
Cr0 O5 2.259828 1_555
Cr0 O4 2.259828 1_555
Cr1 O5 2.073659 1_555
Cr1 O4 2.073659 1_556
Cr1 O1 2.256412 1_555
Cr1 O0 2.256412 1_555
Cr1 O7 2.259828 1_555
Cr1 O6 2.259828 1_555
O0 Ta0 1.988836 1_555
O0 Ta3 2.040184 1_465
O1 Ta1 1.988836 1_556
O1 Ta2 2.040184 1_465
O2 Ta2 1.988836 1_555
O2 Ta1 2.040184 1_645
O3 Ta3 1.988836 1_554
O3 Ta0 2.040184 1_645
O4 Ta0 1.862856 1_555
O5 Ta1 1.862856 1_555
O6 Ta2 1.862856 1_555
O7 Ta3 1.862856 1_555
O8 Zn2 1.982729 1_655
O8 Ta0 2.046586 1_656
O8 Ta3 2.224139 1_565
O9 Zn3 1.982729 1_545
O9 Ta1 2.046586 1_545
O9 Ta2 2.224139 1_455
O10 Zn2 1.984992 1_555
O10 Zn1 2.007070 1_556
O10 Ta3 2.027244 1_555
O10 Zn3 2.161699 1_545
O11 Zn3 1.984987 1_555
O11 Zn0 2.007068 1_555
O11 Ta2 2.027253 1_555
O11 Zn2 2.161693 1_655
O12 Zn0 1.984992 1_555
O12 Zn3 2.007070 1_554
O12 Ta1 2.027244 1_555
O12 Zn1 2.161699 1_565
O13 Zn1 1.984992 1_555
O13 Zn2 2.007070 1_555
O13 Ta0 2.027244 1_555
O13 Zn0 2.161699 1_455
O14 Zn1 1.982729 1_565
O14 Ta3 2.046586 1_565
O14 Ta0 2.224139 1_655
O15 Zn0 1.982729 1_455
O15 Ta2 2.046586 1_454
O15 Ta1 2.224139 1_545
