# generated using pymatgen
data_KLaS2O9
_symmetry_space_group_name_H-M   'P 1'
_cell_length_a   7.32430372
_cell_length_b   7.32430372
_cell_length_c   13.42950600
_cell_angle_alpha   90.00000000
_cell_angle_beta   90.00000000
_cell_angle_gamma   119.99999743
_symmetry_Int_Tables_number   1
_chemical_formula_structural   KLaS2O9
_chemical_formula_sum   'K3 La3 S6 O27'
_cell_volume   623.91204511
_cell_formula_units_Z   3
loop_
 _symmetry_equiv_pos_site_id
 _symmetry_equiv_pos_as_xyz
  1  'x, y, z'
loop_
 _atom_site_type_symbol
 _atom_site_label
 _atom_site_symmetry_multiplicity
 _atom_site_fract_x
 _atom_site_fract_y
 _atom_site_fract_z
 _atom_site_occupancy
  K  K0  1  0.44947000  0.00000000  0.33333300  1
  K  K1  1  0.00000000  0.44947000  0.66666700  1
  K  K2  1  0.55053000  0.55053000  0.00000000  1
  La  La0  1  0.45380800  0.00000000  0.83333300  1
  La  La1  1  0.00000000  0.45380800  0.16666700  1
  La  La2  1  0.54619200  0.54619200  0.50000000  1
  S  S0  1  0.44647500  0.00603100  0.59402000  1
  S  S1  1  0.99396900  0.44044500  0.92735300  1
  S  S2  1  0.00603100  0.44647500  0.40598000  1
  S  S3  1  0.55955500  0.55352500  0.26068700  1
  S  S4  1  0.44044500  0.99396900  0.07264700  1
  S  S5  1  0.55352500  0.55955500  0.73931300  1
  O  O0  1  0.42188300  0.15965300  0.53170800  1
  O  O1  1  0.84034700  0.26222900  0.86504100  1
  O  O2  1  0.15965300  0.42188300  0.46829200  1
  O  O3  1  0.73777100  0.57811700  0.19837500  1
  O  O4  1  0.26222900  0.84034700  0.13495900  1
  O  O5  1  0.57811700  0.73777100  0.80162500  1
  O  O6  1  0.37286500  0.48922500  0.66837600  1
  O  O7  1  0.51077500  0.88364000  0.00170900  1
  O  O8  1  0.48922500  0.37286500  0.33162400  1
  O  O9  1  0.11636000  0.62713500  0.33504300  1
  O  O10  1  0.88364000  0.51077500  0.99829100  1
  O  O11  1  0.62713500  0.11636000  0.66495700  1
  O  O12  1  0.51683800  0.38160600  0.80625500  1
  O  O13  1  0.61839400  0.13523200  0.13958800  1
  O  O14  1  0.38160600  0.51683800  0.19374500  1
  O  O15  1  0.86476800  0.48316200  0.47292100  1
  O  O16  1  0.13523200  0.61839400  0.86041200  1
  O  O17  1  0.48316200  0.86476800  0.52707900  1
  O  O18  1  0.10173900  0.00000000  0.83333300  1
  O  O19  1  0.00000000  0.10173900  0.16666700  1
  O  O20  1  0.89826100  0.89826100  0.50000000  1
  O  O21  1  0.11842000  0.37491500  0.99183700  1
  O  O22  1  0.62508500  0.74350400  0.32517100  1
  O  O23  1  0.37491500  0.11842000  0.00816300  1
  O  O24  1  0.25649600  0.88158000  0.65850400  1
  O  O25  1  0.74350400  0.62508500  0.67482900  1
  O  O26  1  0.88158000  0.25649600  0.34149600  1
loop_
_geom_bond_atom_site_label_1
_geom_bond_atom_site_label_2
_geom_bond_distance
_geom_bond_site_symmetry_2
K0 O8 2.597758 1_555
K0 O9 2.597758 1_545
K0 O26 2.759025 1_555
K0 O22 2.759031 1_545
K0 O13 2.838353 1_555
K0 O17 2.838366 1_545
K0 O4 2.956641 1_545
K0 O0 2.956651 1_555
K1 O6 2.597758 1_555
K1 O11 2.597758 1_455
K1 O24 2.759025 1_555
K1 O25 2.759031 1_455
K1 O16 2.838353 1_555
K1 O15 2.838366 1_455
K1 O1 2.956641 1_455
K1 O2 2.956651 1_555
K2 O10 2.597758 1_554
K2 O7 2.597758 1_555
K2 O23 2.759025 1_555
K2 O21 2.759025 1_554
K2 O12 2.838353 1_554
K2 O14 2.838353 1_555
K2 O5 2.956654 1_554
K2 O3 2.956654 1_555
La0 O7 2.523705 1_546
La0 O11 2.523705 1_555
La0 O5 2.539266 1_545
La0 O1 2.539272 1_555
La0 O18 2.578660 1_555
La0 O12 2.620508 1_555
La0 O16 2.620510 1_545
La0 O24 2.664550 1_545
La0 O23 2.664565 1_556
La1 O10 2.523705 1_454
La1 O9 2.523705 1_555
La1 O3 2.539266 1_455
La1 O4 2.539272 1_555
La1 O19 2.578660 1_555
La1 O14 2.620508 1_555
La1 O13 2.620510 1_455
La1 O26 2.664550 1_455
La1 O21 2.664565 1_554
La2 O6 2.523705 1_555
La2 O8 2.523705 1_555
La2 O2 2.539273 1_555
La2 O0 2.539273 1_555
La2 O20 2.578660 1_555
La2 O17 2.620510 1_555
La2 O15 2.620510 1_555
La2 O22 2.664550 1_555
La2 O25 2.664550 1_555
O0 S0 1.483709 1_555
O1 S1 1.483716 1_555
O2 S2 1.483709 1_555
O3 S3 1.483721 1_555
O4 S4 1.483716 1_555
O5 S5 1.483721 1_555
O6 S5 1.497384 1_555
O7 S4 1.497387 1_555
O8 S3 1.497384 1_555
O9 S2 1.497383 1_555
O10 S1 1.497387 1_555
O11 S0 1.497383 1_555
O12 S5 1.492953 1_555
O13 S4 1.492947 1_545
O14 S3 1.492953 1_555
O15 S2 1.492951 1_655
O16 S1 1.492947 1_455
O17 S0 1.492951 1_565
O21 S1 1.499552 1_455
O22 S3 1.499540 1_555
O23 S4 1.499552 1_545
O24 S0 1.499543 1_565
O25 S5 1.499540 1_555
O26 S2 1.499543 1_655
