# generated using pymatgen
data_LiMg14C
_symmetry_space_group_name_H-M   'P 1'
_cell_length_a   6.28416886
_cell_length_b   6.41640951
_cell_length_c   9.76133317
_cell_angle_alpha   90.00000000
_cell_angle_beta   90.00000000
_cell_angle_gamma   120.69859333
_symmetry_Int_Tables_number   1
_chemical_formula_structural   LiMg14C
_chemical_formula_sum   'Li1 Mg14 C1'
_cell_volume   338.43808616
_cell_formula_units_Z   1
loop_
 _symmetry_equiv_pos_site_id
 _symmetry_equiv_pos_as_xyz
  1  'x, y, z'
loop_
 _atom_site_type_symbol
 _atom_site_label
 _atom_site_symmetry_multiplicity
 _atom_site_fract_x
 _atom_site_fract_y
 _atom_site_fract_z
 _atom_site_occupancy
  Li  Li0  1  0.18212939  0.34106420  0.12500000  1
  Mg  Mg0  1  0.17442821  0.33721360  0.62500000  1
  Mg  Mg1  1  0.16948341  0.83474120  0.62500000  1
  Mg  Mg2  1  0.76011761  0.39164337  0.12500000  1
  Mg  Mg3  1  0.65665911  0.33113325  0.62500000  1
  Mg  Mg4  1  0.76011761  0.86847324  0.12500000  1
  Mg  Mg5  1  0.65665911  0.82552486  0.62500000  1
  Mg  Mg6  1  0.31212391  0.13849979  0.33327304  1
  Mg  Mg7  1  0.31212391  0.13849979  0.91672696  1
  Mg  Mg8  1  0.31212391  0.67362512  0.33327304  1
  Mg  Mg9  1  0.31212391  0.67362512  0.91672696  1
  Mg  Mg10  1  0.82775720  0.16387910  0.37971439  1
  Mg  Mg11  1  0.82775720  0.16387910  0.87028561  1
  Mg  Mg12  1  0.82570789  0.66285444  0.37254337  1
  Mg  Mg13  1  0.82570789  0.66285444  0.87745663  1
  C  C0  1  0.08497974  0.79248937  0.12500000  1
loop_
_geom_bond_atom_site_label_1
_geom_bond_atom_site_label_2
_geom_bond_distance
_geom_bond_site_symmetry_2
Li0 Mg7 2.752079 1_554
Li0 Mg6 2.752079 1_555
Li0 Mg8 2.752087 1_555
Li0 Mg9 2.752087 1_554
Li0 Mg4 2.831461 1_445
Li0 Mg2 2.831461 1_455
Li0 Mg11 3.138255 1_454
Li0 Mg10 3.138255 1_455
Mg0 Mg10 3.040034 1_455
Mg0 Mg11 3.040034 1_455
Mg0 Mg5 3.050522 1_555
Mg0 Mg3 3.050522 1_555
Mg0 Mg1 3.208316 1_545
Mg0 Mg1 3.208316 1_555
Mg0 Mg5 3.234005 1_445
Mg0 Mg3 3.234005 1_455
Mg0 Mg6 3.407349 1_555
Mg0 Mg7 3.407349 1_555
Mg0 Mg9 3.407356 1_555
Mg0 Mg8 3.407356 1_555
Mg1 Mg12 3.086022 1_455
Mg1 Mg13 3.086022 1_455
Mg1 Mg3 3.092102 1_565
Mg1 Mg5 3.092103 1_555
Mg1 Mg3 3.192889 1_455
Mg1 Mg5 3.192889 1_455
Mg1 Mg9 3.305669 1_555
Mg1 Mg8 3.305669 1_555
Mg1 Mg6 3.305675 1_565
Mg1 Mg7 3.305675 1_565
Mg3 Mg5 3.172219 1_555
Mg3 Mg5 3.244190 1_545
Mg3 Mg6 3.404719 1_555
Mg3 Mg7 3.404719 1_555
Mg5 Mg8 3.404719 1_555
Mg5 Mg9 3.404719 1_555
Mg10 Mg2 3.022029 1_555
Mg10 Mg4 3.022036 1_545
Mg10 Mg3 3.036228 1_555
Mg10 Mg5 3.036235 1_545
Mg10 Mg8 3.162768 1_655
Mg10 Mg6 3.162768 1_655
Mg10 Mg8 3.192643 1_545
Mg10 Mg6 3.192643 1_555
Mg10 Mg12 3.208987 1_555
Mg10 Mg12 3.208987 1_545
Mg11 Mg2 3.022029 1_556
Mg11 Mg4 3.022036 1_546
Mg11 Mg3 3.036228 1_555
Mg11 Mg5 3.036235 1_545
Mg11 Mg9 3.162768 1_655
Mg11 Mg7 3.162768 1_655
Mg11 Mg9 3.192643 1_545
Mg11 Mg7 3.192643 1_555
Mg11 Mg13 3.208987 1_555
Mg11 Mg13 3.208987 1_545
Mg12 Mg5 3.069686 1_555
Mg12 Mg3 3.069693 1_555
Mg13 Mg5 3.069686 1_555
Mg13 Mg3 3.069693 1_555
C0 Mg2 2.328440 1_455
C0 Mg4 2.328440 1_455
C0 Mg13 2.793120 1_454
C0 Mg12 2.793120 1_455
C0 Mg9 2.804272 1_554
C0 Mg8 2.804272 1_555
C0 Mg7 2.804279 1_564
C0 Mg6 2.804279 1_565
