# generated using pymatgen
data_Na2NiPCO7
_symmetry_space_group_name_H-M   'P 1'
_cell_length_a   10.19548225
_cell_length_b   10.36687160
_cell_length_c   8.38616432
_cell_angle_alpha   108.17655797
_cell_angle_beta   72.18069013
_cell_angle_gamma   60.43320283
_symmetry_Int_Tables_number   1
_chemical_formula_structural   Na2NiPCO7
_chemical_formula_sum   'Na8 Ni4 P4 C4 O28'
_cell_volume   608.54526765
_cell_formula_units_Z   4
loop_
 _symmetry_equiv_pos_site_id
 _symmetry_equiv_pos_as_xyz
  1  'x, y, z'
loop_
 _atom_site_type_symbol
 _atom_site_label
 _atom_site_symmetry_multiplicity
 _atom_site_fract_x
 _atom_site_fract_y
 _atom_site_fract_z
 _atom_site_occupancy
  Na  Na0  1  0.75146600  0.98250900  0.48265200  1
  Na  Na1  1  0.99044700  0.75523300  0.00608000  1
  Na  Na2  1  0.51541700  0.75230200  0.97240000  1
  Na  Na3  1  0.78037000  0.30986100  0.73202000  1
  Na  Na4  1  0.48644400  0.25042000  0.01712900  1
  Na  Na5  1  0.24885300  0.49742400  0.48991400  1
  Na  Na6  1  0.00917300  0.24191800  0.99991600  1
  Na  Na7  1  0.25365400  0.00361100  0.51163800  1
  Ni  Ni0  1  0.83906500  0.81112400  0.74871400  1
  Ni  Ni1  1  0.65858500  0.68926100  0.25277200  1
  Ni  Ni2  1  0.34149400  0.30957900  0.75091900  1
  Ni  Ni3  1  0.15377600  0.19439800  0.25656000  1
  P  P0  1  0.47462000  0.94682900  0.75120400  1
  P  P1  1  0.98025900  0.43989900  0.75143400  1
  P  P2  1  0.02180400  0.55512400  0.25192100  1
  P  P3  1  0.52444100  0.05421800  0.24881000  1
  C  C0  1  0.94386400  0.98678700  0.74964500  1
  C  C1  1  0.55194000  0.51841100  0.25168600  1
  C  C2  1  0.44520700  0.48279100  0.75262500  1
  C  C3  1  0.05540800  0.01283600  0.24578200  1
  O  O0  1  0.00215700  0.92612300  0.24919700  1
  O  O1  1  0.70202700  0.97270700  0.05968100  1
  O  O2  1  0.98486900  0.58519800  0.74711500  1
  O  O3  1  0.85832400  0.68588300  0.24646600  1
  O  O4  1  0.63979200  0.81981500  0.75537000  1
  O  O5  1  0.51843400  0.90640900  0.24487400  1
  O  O6  1  0.48391100  0.84796800  0.56258800  1
  O  O7  1  0.79891100  0.52062500  0.93581700  1
  O  O8  1  0.99974200  0.32092500  0.56338700  1
  O  O9  1  0.19885600  0.96910300  0.24770700  1
  O  O10  1  0.69553800  0.47247900  0.25155700  1
  O  O11  1  0.46846400  0.66307500  0.25301800  1
  O  O12  1  0.96988600  0.15627200  0.24763300  1
  O  O13  1  0.49883000  0.56876100  0.76049600  1
  O  O14  1  0.49970200  0.43039600  0.24647500  1
  O  O15  1  0.02517000  0.84264600  0.74879600  1
  O  O16  1  0.53119800  0.33576000  0.74832100  1
  O  O17  1  0.30265800  0.52741100  0.74859700  1
  O  O18  1  0.79881600  0.03894400  0.74803300  1
  O  O19  1  0.00947600  0.66359800  0.44013400  1
  O  O20  1  0.20128200  0.47404200  0.06566500  1
  O  O21  1  0.51674900  0.15447400  0.43642300  1
  O  O22  1  0.48114900  0.09471100  0.75498000  1
  O  O23  1  0.35691800  0.18957500  0.25215700  1
  O  O24  1  0.14306700  0.31210400  0.75994800  1
  O  O25  1  0.01827400  0.40793800  0.25017300  1
  O  O26  1  0.29802200  0.02785900  0.94006600  1
  O  O27  1  0.99860400  0.07386700  0.75165800  1
loop_
_geom_bond_atom_site_label_1
_geom_bond_atom_site_label_2
_geom_bond_distance
_geom_bond_site_symmetry_2
Na0 O0 2.335879 1_655
Na0 O22 2.343297 1_565
Na0 O18 2.377450 1_565
Na0 O21 2.417430 1_565
Na0 O3 2.477757 1_555
Na0 O16 2.673828 1_565
Na0 O19 2.843412 1_655
Na1 O0 2.326762 1_655
Na1 O17 2.359093 1_654
Na1 O2 2.369176 1_554
Na1 O1 2.438871 1_555
Na1 O3 2.567747 1_555
Na1 O15 2.582797 1_654
Na2 O13 2.280112 1_555
Na2 O5 2.364009 1_556
Na2 O4 2.380862 1_555
Na2 O9 2.416992 1_556
Na2 O7 2.522597 1_555
Na2 O11 2.780013 1_556
Na2 O26 2.783748 1_565
Na3 O8 2.331093 1_555
Na3 O16 2.374021 1_555
Na3 O7 2.450775 1_555
Na3 O27 2.463084 1_555
Na3 O13 2.660393 1_555
Na3 O18 2.769643 1_555
Na4 O14 2.316851 1_555
Na4 O22 2.320838 1_554
Na4 O18 2.380328 1_554
Na4 O20 2.455244 1_555
Na4 O23 2.455862 1_555
Na4 O16 2.661908 1_554
Na4 O1 2.850126 1_545
Na5 O14 2.314551 1_555
Na5 O2 2.351551 1_455
Na5 O17 2.362112 1_555
Na5 O19 2.453853 1_555
Na5 O23 2.567108 1_555
Na5 O15 2.605786 1_555
Na6 O25 2.323486 1_556
Na6 O27 2.332564 1_455
Na6 O10 2.360459 1_456
Na6 O26 2.408358 1_555
Na6 O12 2.501360 1_456
Na6 O24 2.579760 1_555
Na7 O27 2.314458 1_455
Na7 O5 2.349579 1_545
Na7 O6 2.367073 1_545
Na7 O9 2.408150 1_545
Na7 O11 2.578582 1_545
Na7 O24 2.585540 1_555
Na7 O8 2.780074 1_455
Ni0 O4 1.971238 1_555
Ni0 O19 2.052095 1_655
Ni0 O2 2.056170 1_555
Ni0 O1 2.072130 1_556
Ni0 O15 2.078365 1_655
Ni0 O18 2.190851 1_565
Ni1 O3 2.003409 1_555
Ni1 O5 2.022450 1_555
Ni1 O6 2.058765 1_555
Ni1 O10 2.083366 1_555
Ni1 O11 2.085233 1_555
Ni1 O7 2.115041 1_554
Ni2 O22 1.984263 1_555
Ni2 O24 1.987947 1_555
Ni2 O16 2.076279 1_555
Ni2 O21 2.090142 1_555
Ni2 O20 2.096456 1_556
Ni2 O17 2.099172 1_555
Ni3 O25 1.978178 1_555
Ni3 O23 2.035508 1_555
Ni3 O8 2.048390 1_455
Ni3 O26 2.105838 1_554
Ni3 O12 2.115567 1_455
Ni3 O9 2.117392 1_545
C0 O27 1.272864 1_565
C0 O15 1.299011 1_655
C0 O18 1.306588 1_565
C1 O14 1.259785 1_555
C1 O10 1.296497 1_555
C1 O11 1.302961 1_555
C2 O13 1.250520 1_555
C2 O17 1.305257 1_555
C2 O16 1.311788 1_555
C3 O0 1.261695 1_545
C3 O12 1.292056 1_455
C3 O9 1.307451 1_545
O1 P3 1.550554 1_565
O2 P1 1.541205 1_555
O3 P2 1.572684 1_655
O4 P0 1.564390 1_555
O5 P3 1.554069 1_565
O6 P0 1.537015 1_555
O7 P1 1.557474 1_555
O8 P1 1.549390 1_555
O19 P2 1.550288 1_555
O20 P2 1.551881 1_555
O21 P3 1.544553 1_555
O22 P0 1.558032 1_545
O23 P3 1.570950 1_555
O24 P1 1.573812 1_455
O25 P2 1.539583 1_555
O26 P0 1.545301 1_545
