# generated using pymatgen
data_TiSnIr
_symmetry_space_group_name_H-M   'P 1'
_cell_length_a   4.36783680
_cell_length_b   4.36783680
_cell_length_c   4.36783680
_cell_angle_alpha   60.00000000
_cell_angle_beta   60.00000000
_cell_angle_gamma   60.00000000
_symmetry_Int_Tables_number   1
_chemical_formula_structural   TiSnIr
_chemical_formula_sum   'Ti1 Sn1 Ir1'
_cell_volume   58.92291326
_cell_formula_units_Z   1
loop_
 _symmetry_equiv_pos_site_id
 _symmetry_equiv_pos_as_xyz
  1  'x, y, z'
loop_
 _atom_site_type_symbol
 _atom_site_label
 _atom_site_symmetry_multiplicity
 _atom_site_fract_x
 _atom_site_fract_y
 _atom_site_fract_z
 _atom_site_occupancy
  Ti  Ti0  1  0.50000000  0.50000000  0.50000000  1
  Sn  Sn0  1  -0.00000000  0.00000000  -0.00000000  1
  Ir  Ir0  1  0.25000000  0.25000000  0.25000000  1
loop_
_geom_bond_atom_site_label_1
_geom_bond_atom_site_label_2
_geom_bond_distance
_geom_bond_site_symmetry_2
Sn0 Ti0 3.088527 1_545
Sn0 Ti0 3.088527 1_445
Sn0 Ti0 3.088527 1_554
Sn0 Ti0 3.088527 1_455
Sn0 Ti0 3.088527 1_544
Sn0 Ti0 3.088527 1_454
Ir0 Ti0 2.674743 1_455
Ir0 Sn0 2.674743 1_655
Ir0 Ti0 2.674743 1_555
Ir0 Sn0 2.674743 1_565
Ir0 Ti0 2.674743 1_554
Ir0 Ti0 2.674743 1_545
Ir0 Sn0 2.674743 1_556
Ir0 Sn0 2.674743 1_555
