# generated using pymatgen
data_Rb3Yb(PO4)2
_symmetry_space_group_name_H-M   'P 1'
_cell_length_a   5.85037356
_cell_length_b   5.85037356
_cell_length_c   7.78545300
_cell_angle_alpha   90.00000000
_cell_angle_beta   90.00000000
_cell_angle_gamma   119.99999505
_symmetry_Int_Tables_number   1
_chemical_formula_structural   Rb3Yb(PO4)2
_chemical_formula_sum   'Rb3 Yb1 P2 O8'
_cell_volume   230.77126797
_cell_formula_units_Z   1
loop_
 _symmetry_equiv_pos_site_id
 _symmetry_equiv_pos_as_xyz
  1  'x, y, z'
loop_
 _atom_site_type_symbol
 _atom_site_label
 _atom_site_symmetry_multiplicity
 _atom_site_fract_x
 _atom_site_fract_y
 _atom_site_fract_z
 _atom_site_occupancy
  Rb  Rb0  1  0.33333300  0.66666700  0.70134200  1
  Rb  Rb1  1  0.66666700  0.33333300  0.29865800  1
  Rb  Rb2  1  0.00000000  0.00000000  0.00000000  1
  Yb  Yb0  1  0.00000000  0.00000000  0.50000000  1
  P  P0  1  0.33333300  0.66666700  0.26108100  1
  P  P1  1  0.66666700  0.33333300  0.73891900  1
  O  O0  1  0.33333300  0.66666700  0.06228500  1
  O  O1  1  0.66666700  0.33333300  0.93771500  1
  O  O2  1  0.18816700  0.81183300  0.32821400  1
  O  O3  1  0.81183300  0.18816700  0.67178600  1
  O  O4  1  0.18816700  0.37633300  0.32821400  1
  O  O5  1  0.81183300  0.62366700  0.67178600  1
  O  O6  1  0.62366700  0.81183300  0.32821400  1
  O  O7  1  0.37633300  0.18816700  0.67178600  1
loop_
_geom_bond_atom_site_label_1
_geom_bond_atom_site_label_2
_geom_bond_distance
_geom_bond_site_symmetry_2
O0 P0 1.547717 1_555
O0 Rb0 2.810105 1_554
O0 Rb2 3.412342 1_565
O0 Rb2 3.412347 1_555
O0 Rb2 3.412347 1_665
O1 P1 1.547717 1_555
O1 Rb1 2.810105 1_556
O1 Rb2 3.412342 1_656
O1 Rb2 3.412347 1_666
O1 Rb2 3.412347 1_556
O2 P0 1.561083 1_555
O2 Yb0 2.329016 1_565
O2 Rb1 2.942301 1_455
O2 Rb1 2.942301 1_565
O2 Rb2 3.188279 1_565
O2 Rb0 3.256172 1_555
O3 P1 1.561083 1_555
O3 Yb0 2.329016 1_655
O3 Rb0 2.942301 1_545
O3 Rb0 2.942301 1_655
O3 Rb2 3.188279 1_656
O3 Rb1 3.256172 1_555
O4 P0 1.561093 1_555
O4 Yb0 2.329012 1_555
O4 Rb1 2.942300 1_555
O4 Rb1 2.942300 1_455
O4 Rb2 3.188276 1_555
O4 Rb0 3.256177 1_555
O5 P1 1.561093 1_555
O5 Yb0 2.329012 1_665
O5 Rb0 2.942300 1_555
O5 Rb0 2.942300 1_655
O5 Rb2 3.188276 1_666
O5 Rb1 3.256177 1_555
O6 P0 1.561093 1_555
O6 Yb0 2.329012 1_665
O6 Rb1 2.942300 1_555
O6 Rb1 2.942300 1_565
O6 Rb2 3.188276 1_665
O6 Rb0 3.256177 1_555
O7 P1 1.561093 1_555
O7 Yb0 2.329012 1_555
O7 Rb0 2.942300 1_555
O7 Rb0 2.942300 1_545
O7 Rb2 3.188276 1_556
O7 Rb1 3.256177 1_555
