# generated using pymatgen
data_Mg3MoN4
_symmetry_space_group_name_H-M   'P 1'
_cell_length_a   15.94961739
_cell_length_b   15.94962787
_cell_length_c   8.97770155
_cell_angle_alpha   90.00115861
_cell_angle_beta   90.00115967
_cell_angle_gamma   119.99867485
_symmetry_Int_Tables_number   1
_chemical_formula_structural   Mg3MoN4
_chemical_formula_sum   'Mg54 Mo18 N72'
_cell_volume   1977.89129269
_cell_formula_units_Z   18
loop_
 _symmetry_equiv_pos_site_id
 _symmetry_equiv_pos_as_xyz
  1  'x, y, z'
loop_
 _atom_site_type_symbol
 _atom_site_label
 _atom_site_symmetry_multiplicity
 _atom_site_fract_x
 _atom_site_fract_y
 _atom_site_fract_z
 _atom_site_occupancy
  Mg  Mg0  1  0.09544667  0.24566556  0.87813515  1
  Mg  Mg1  1  0.75435118  0.84977141  0.87822318  1
  Mg  Mg2  1  0.15020693  0.90458386  0.87810563  1
  Mg  Mg3  1  0.24566538  0.09544631  0.37813364  1
  Mg  Mg4  1  0.84977069  0.75434834  0.37822399  1
  Mg  Mg5  1  0.90458479  0.15020714  0.37810641  1
  Mg  Mg6  1  0.33332663  0.66666977  0.07838514  1
  Mg  Mg7  1  0.66667019  0.33332723  0.57838554  1
  Mg  Mg8  1  0.85653174  0.07340400  0.05146866  1
  Mg  Mg9  1  0.92659014  0.78312039  0.05159796  1
  Mg  Mg10  1  0.21688751  0.14349465  0.05152851  1
  Mg  Mg11  1  0.07340335  0.85653211  0.55146938  1
  Mg  Mg12  1  0.78312104  0.92659006  0.55159989  1
  Mg  Mg13  1  0.14349474  0.21688799  0.55153188  1
  Mg  Mg14  1  0.23522631  0.78757043  0.25122860  1
  Mg  Mg15  1  0.21243314  0.44766615  0.25125829  1
  Mg  Mg16  1  0.55232407  0.76476382  0.25126919  1
  Mg  Mg17  1  0.78757053  0.23522854  0.75122901  1
  Mg  Mg18  1  0.44766593  0.21243322  0.75125730  1
  Mg  Mg19  1  0.76476319  0.55232346  0.75127116  1
  Mg  Mg20  1  0.21611618  0.77368199  0.95124560  1
  Mg  Mg21  1  0.22631648  0.44244836  0.95128216  1
  Mg  Mg22  1  0.55754644  0.78386796  0.95130597  1
  Mg  Mg23  1  0.77368325  0.21611533  0.45124689  1
  Mg  Mg24  1  0.44244808  0.22631535  0.45128190  1
  Mg  Mg25  1  0.78386711  0.55754598  0.45130514  1
  Mg  Mg26  1  0.99999368  0.00001529  0.19524323  1
  Mg  Mg27  1  0.00001399  0.99999318  0.69524286  1
  Mg  Mg28  1  0.11824471  0.55861133  0.46479351  1
  Mg  Mg29  1  0.44139247  0.55965717  0.46481664  1
  Mg  Mg30  1  0.44033775  0.88173395  0.46481588  1
  Mg  Mg31  1  0.55861049  0.11824688  0.96479607  1
  Mg  Mg32  1  0.55965803  0.44139289  0.96481619  1
  Mg  Mg33  1  0.88173534  0.44033750  0.96481534  1
  Mg  Mg34  1  0.33331610  0.66666163  0.61485300  1
  Mg  Mg35  1  0.66666248  0.33331623  0.11485283  1
  Mg  Mg36  1  0.03043683  0.34031539  0.56700659  1
  Mg  Mg37  1  0.65968400  0.69011702  0.56699881  1
  Mg  Mg38  1  0.30986966  0.96956772  0.56696007  1
  Mg  Mg39  1  0.34031514  0.03043732  0.06700589  1
  Mg  Mg40  1  0.69011934  0.65968592  0.06699944  1
  Mg  Mg41  1  0.96956684  0.30987015  0.06696134  1
  Mg  Mg42  1  0.11181429  0.52800563  0.77710381  1
  Mg  Mg43  1  0.47200883  0.58382426  0.77713453  1
  Mg  Mg44  1  0.41615543  0.88817793  0.77713048  1
  Mg  Mg45  1  0.52800644  0.11181329  0.27710219  1
  Mg  Mg46  1  0.58382375  0.47200981  0.27713386  1
  Mg  Mg47  1  0.88817907  0.41615667  0.27713066  1
  Mg  Mg48  1  0.33911886  0.32953887  0.85323685  1
  Mg  Mg49  1  0.67046253  0.00955375  0.85312826  1
  Mg  Mg50  1  0.99039221  0.66086514  0.85336258  1
  Mg  Mg51  1  0.32953734  0.33911720  0.35323864  1
  Mg  Mg52  1  0.00955220  0.67046103  0.35312570  1
  Mg  Mg53  1  0.66086418  0.99039154  0.35336226  1
  Mo  Mo0  1  0.23866209  0.44232291  0.60656473  1
  Mo  Mo1  1  0.55767111  0.79633255  0.60660759  1
  Mo  Mo2  1  0.20364935  0.76135372  0.60651992  1
  Mo  Mo3  1  0.44232170  0.23866228  0.10656672  1
  Mo  Mo4  1  0.79633076  0.55767072  0.10660723  1
  Mo  Mo5  1  0.76135455  0.20365019  0.10652008  1
  Mo  Mo6  1  0.77600061  0.87410634  0.24336720  1
  Mo  Mo7  1  0.12589154  0.90192870  0.24328771  1
  Mo  Mo8  1  0.09808156  0.22399120  0.24334677  1
  Mo  Mo9  1  0.87410533  0.77600043  0.74336505  1
  Mo  Mo10  1  0.90192941  0.12589029  0.74329082  1
  Mo  Mo11  1  0.22399121  0.09808245  0.74334681  1
  Mo  Mo12  1  0.10454779  0.56626678  0.10369132  1
  Mo  Mo13  1  0.43372249  0.53827640  0.10370200  1
  Mo  Mo14  1  0.46172484  0.89544948  0.10369401  1
  Mo  Mo15  1  0.56626690  0.10454811  0.60369242  1
  Mo  Mo16  1  0.53827671  0.43372441  0.60370150  1
  Mo  Mo17  1  0.89544827  0.46172383  0.60369393  1
  N  N0  1  0.07988457  0.72969647  0.56272459  1
  N  N1  1  0.27033507  0.35020858  0.56284529  1
  N  N2  1  0.64979495  0.92012871  0.56296757  1
  N  N3  1  0.72969623  0.07988352  0.06272636  1
  N  N4  1  0.35020828  0.27033524  0.06284454  1
  N  N5  1  0.92012884  0.64979368  0.06296747  1
  N  N6  1  0.19703603  0.19543434  0.81940391  1
  N  N7  1  0.80458941  0.00158704  0.81935717  1
  N  N8  1  0.99838126  0.80291833  0.81947462  1
  N  N9  1  0.19543441  0.19703596  0.31940701  1
  N  N10  1  0.00158673  0.80458820  0.31935709  1
  N  N11  1  0.80292009  0.99838252  0.31947265  1
  N  N12  1  0.17263868  0.46536507  0.45446622  1
  N  N13  1  0.53465532  0.70728694  0.45448790  1
  N  N14  1  0.29272480  0.82738831  0.45443571  1
  N  N15  1  0.46536625  0.17263865  0.95446893  1
  N  N16  1  0.70728721  0.53465625  0.95448514  1
  N  N17  1  0.82738872  0.29272413  0.95443668  1
  N  N18  1  0.05255625  0.25602887  0.40921173  1
  N  N19  1  0.74400009  0.79653354  0.40922941  1
  N  N20  1  0.20345483  0.94748763  0.40916702  1
  N  N21  1  0.25602991  0.05255777  0.90921124  1
  N  N22  1  0.79653390  0.74400097  0.90922856  1
  N  N23  1  0.94748655  0.20345339  0.90916794  1
  N  N24  1  0.11906066  0.63943669  0.27591919  1
  N  N25  1  0.36056743  0.47962670  0.27594581  1
  N  N26  1  0.52036917  0.88094037  0.27595531  1
  N  N27  1  0.63943682  0.11906074  0.77591821  1
  N  N28  1  0.47962711  0.36056768  0.77594452  1
  N  N29  1  0.88094034  0.52036860  0.77595298  1
  N  N30  1  0.88134763  0.87192497  0.16023221  1
  N  N31  1  0.12809212  0.00947565  0.16018104  1
  N  N32  1  0.99048573  0.11864198  0.16033866  1
  N  N33  1  0.87192610  0.88134596  0.66023376  1
  N  N34  1  0.00947561  0.12809276  0.66018187  1
  N  N35  1  0.11864288  0.99048513  0.66033852  1
  N  N36  1  0.20126262  0.64365401  0.64607372  1
  N  N37  1  0.35635379  0.55763426  0.64610403  1
  N  N38  1  0.44235456  0.79871705  0.64610801  1
  N  N39  1  0.64365401  0.20126157  0.14607375  1
  N  N40  1  0.55763491  0.35635576  0.14610505  1
  N  N41  1  0.79871548  0.44235411  0.14610868  1
  N  N42  1  0.67464496  0.81474721  0.09815353  1
  N  N43  1  0.18523682  0.85991002  0.09810746  1
  N  N44  1  0.14008853  0.32533290  0.09812159  1
  N  N45  1  0.81474821  0.67464680  0.59815424  1
  N  N46  1  0.85990996  0.18523795  0.59810866  1
  N  N47  1  0.32533293  0.14008876  0.59812105  1
  N  N48  1  0.14175905  0.39435536  0.76382732  1
  N  N49  1  0.60562541  0.74738196  0.76386739  1
  N  N50  1  0.25257317  0.85824440  0.76380663  1
  N  N51  1  0.39435388  0.14175842  0.26383054  1
  N  N52  1  0.74738239  0.60562548  0.26386716  1
  N  N53  1  0.85824343  0.25257298  0.26380457  1
  N  N54  1  0.99268244  0.44787106  0.11097869  1
  N  N55  1  0.55212090  0.54480454  0.11096662  1
  N  N56  1  0.45519583  0.00731758  0.11095351  1
  N  N57  1  0.44787065  0.99268181  0.61097924  1
  N  N58  1  0.54480411  0.55211988  0.61096686  1
  N  N59  1  0.00731661  0.45519692  0.61095326  1
  N  N60  1  0.20949733  0.54070785  0.08031462  1
  N  N61  1  0.45928333  0.66878505  0.08032496  1
  N  N62  1  0.33121171  0.79051253  0.08027388  1
  N  N63  1  0.54070788  0.20949874  0.58031507  1
  N  N64  1  0.66878464  0.45928297  0.58032765  1
  N  N65  1  0.79051382  0.33121220  0.58027552  1
  N  N66  1  0.09936368  0.62964350  0.93187031  1
  N  N67  1  0.37034597  0.46971940  0.93187517  1
  N  N68  1  0.53028276  0.90063330  0.93187440  1
  N  N69  1  0.62964394  0.09936303  0.43187137  1
  N  N70  1  0.46972089  0.37034614  0.43187841  1
  N  N71  1  0.90063455  0.53028427  0.43187477  1
loop_
_geom_bond_atom_site_label_1
_geom_bond_atom_site_label_2
_geom_bond_distance
_geom_bond_site_symmetry_2
Mg0 N23 2.123987 1_455
Mg0 N6 2.200774 1_555
Mg0 N44 2.262127 1_556
Mg0 N48 2.339105 1_555
Mg0 N34 2.579534 1_555
Mg1 N22 2.123931 1_555
Mg1 N7 2.201013 1_565
Mg1 N42 2.262025 1_556
Mg1 N49 2.339666 1_555
Mg1 N33 2.579947 1_555
Mg2 N21 2.124520 1_565
Mg2 N8 2.200868 1_455
Mg2 N43 2.262525 1_556
Mg2 N50 2.339159 1_555
Mg2 N35 2.577326 1_555
Mg3 N20 2.123973 1_545
Mg3 N9 2.200766 1_555
Mg3 N47 2.262136 1_555
Mg3 N51 2.339068 1_555
Mg3 N31 2.579531 1_555
Mg4 N19 2.123961 1_555
Mg4 N10 2.201015 1_655
Mg4 N45 2.261993 1_555
Mg4 N52 2.339637 1_555
Mg4 N30 2.579975 1_555
Mg5 N18 2.124486 1_655
Mg5 N11 2.200860 1_545
Mg5 N46 2.262541 1_555
Mg5 N53 2.339185 1_555
Mg5 N32 2.577335 1_555
Mg6 N60 1.992372 1_555
Mg6 N61 1.992383 1_555
Mg6 N62 1.992397 1_555
Mg7 N63 1.992368 1_555
Mg7 N64 1.992376 1_555
Mg7 N65 1.992411 1_555
Mg8 N3 2.079038 1_555
Mg8 N32 2.121086 1_555
Mg8 N23 2.242831 1_554
Mg8 N7 2.321994 1_554
Mg8 N11 2.632326 1_545
Mg9 N5 2.079413 1_555
Mg9 N30 2.121341 1_555
Mg9 N22 2.243107 1_554
Mg9 N8 2.322107 1_554
Mg9 N10 2.630000 1_655
Mg10 N4 2.079188 1_555
Mg10 N31 2.121168 1_555
Mg10 N21 2.243064 1_554
Mg10 N6 2.322000 1_554
Mg10 N9 2.631003 1_555
Mg11 N0 2.079055 1_555
Mg11 N35 2.121067 1_555
Mg11 N20 2.242861 1_555
Mg11 N10 2.322002 1_555
Mg11 N8 2.632342 1_455
Mg12 N2 2.079401 1_555
Mg12 N33 2.121362 1_555
Mg12 N19 2.243113 1_555
Mg12 N11 2.322145 1_555
Mg12 N7 2.629987 1_565
Mg13 N1 2.079184 1_555
Mg13 N34 2.121158 1_555
Mg13 N18 2.243084 1_555
Mg13 N9 2.322005 1_555
Mg13 N6 2.630952 1_555
Mg14 N14 1.997509 1_555
Mg14 N62 2.151688 1_555
Mg14 N24 2.164923 1_555
Mg14 N43 2.185540 1_555
Mg15 N12 1.997486 1_555
Mg15 N60 2.151560 1_555
Mg15 N25 2.164921 1_555
Mg15 N44 2.185662 1_555
Mg16 N13 1.997534 1_555
Mg16 N61 2.151523 1_555
Mg16 N26 2.164888 1_555
Mg16 N42 2.185477 1_555
Mg17 N17 1.997500 1_555
Mg17 N65 2.151655 1_555
Mg17 N27 2.164931 1_555
Mg17 N46 2.185545 1_555
Mg18 N15 1.997523 1_555
Mg18 N63 2.151545 1_555
Mg18 N28 2.164922 1_555
Mg18 N47 2.185656 1_555
Mg19 N16 1.997492 1_555
Mg19 N64 2.151516 1_555
Mg19 N29 2.164892 1_555
Mg19 N45 2.185511 1_555
Mg20 N50 2.050569 1_555
Mg20 N62 2.071458 1_556
Mg20 N66 2.120813 1_555
Mg20 N43 2.133005 1_556
Mg21 N48 2.050574 1_555
Mg21 N60 2.071316 1_556
Mg21 N67 2.120755 1_555
Mg21 N44 2.133034 1_556
Mg22 N49 2.050525 1_555
Mg22 N61 2.071386 1_556
Mg22 N68 2.120788 1_555
Mg22 N42 2.132814 1_556
Mg23 N53 2.050574 1_555
Mg23 N65 2.071478 1_555
Mg23 N69 2.120820 1_555
Mg23 N46 2.132971 1_555
Mg24 N51 2.050546 1_555
Mg24 N63 2.071302 1_555
Mg24 N70 2.120765 1_555
Mg24 N47 2.133024 1_555
Mg25 N52 2.050515 1_555
Mg25 N64 2.071399 1_555
Mg25 N71 2.120798 1_555
Mg25 N45 2.132846 1_555
Mg26 N30 1.996915 1_545
Mg26 N31 1.996986 1_655
Mg26 N32 1.996995 1_555
Mg27 N33 1.996899 1_455
Mg27 N34 1.996995 1_565
Mg27 N35 1.997029 1_555
Mg28 N12 2.064795 1_555
Mg28 N36 2.108469 1_555
Mg28 N24 2.126171 1_555
Mg28 N59 2.157482 1_555
Mg29 N13 2.064756 1_555
Mg29 N37 2.108534 1_555
Mg29 N25 2.126197 1_555
Mg29 N58 2.157470 1_555
Mg30 N14 2.064556 1_555
Mg30 N38 2.108544 1_555
Mg30 N26 2.126174 1_555
Mg30 N57 2.157553 1_555
Mg31 N15 2.064737 1_555
Mg31 N39 2.108440 1_556
Mg31 N27 2.126215 1_555
Mg31 N56 2.157479 1_556
Mg32 N16 2.064749 1_555
Mg32 N40 2.108528 1_556
Mg32 N28 2.126206 1_555
Mg32 N55 2.157471 1_556
Mg33 N17 2.064561 1_555
Mg33 N41 2.108581 1_556
Mg33 N29 2.126191 1_555
Mg33 N54 2.157539 1_556
Mg34 N36 1.968876 1_555
Mg34 N38 1.968911 1_555
Mg34 N37 1.968912 1_555
Mg35 N41 1.968884 1_555
Mg35 N39 1.968892 1_555
Mg35 N40 1.968934 1_555
Mg36 N59 2.079583 1_555
Mg36 N18 2.100659 1_555
Mg36 N48 2.342487 1_555
Mg36 N12 2.370582 1_555
Mg36 N46 2.620369 1_455
Mg37 N58 2.079631 1_555
Mg37 N19 2.100780 1_555
Mg37 N49 2.342840 1_555
Mg37 N13 2.370225 1_555
Mg37 N45 2.620326 1_555
Mg38 N57 2.079738 1_555
Mg38 N20 2.100894 1_555
Mg38 N50 2.342757 1_555
Mg38 N14 2.370150 1_555
Mg38 N47 2.620177 1_565
Mg39 N56 2.079566 1_555
Mg39 N21 2.100650 1_554
Mg39 N51 2.342505 1_555
Mg39 N15 2.370573 1_554
Mg39 N43 2.620379 1_545
Mg40 N55 2.079650 1_555
Mg40 N22 2.100769 1_554
Mg40 N52 2.342834 1_555
Mg40 N16 2.370235 1_554
Mg40 N42 2.620318 1_555
Mg41 N54 2.079727 1_555
Mg41 N23 2.100919 1_554
Mg41 N53 2.342735 1_555
Mg41 N17 2.370125 1_554
Mg41 N44 2.620188 1_655
Mg42 N36 2.047007 1_555
Mg42 N59 2.101398 1_555
Mg42 N66 2.218050 1_555
Mg42 N48 2.409231 1_555
Mg43 N37 2.047051 1_555
Mg43 N58 2.101516 1_555
Mg43 N67 2.218242 1_555
Mg43 N49 2.408722 1_555
Mg44 N38 2.047039 1_555
Mg44 N57 2.101465 1_555
Mg44 N68 2.218377 1_555
Mg44 N50 2.409129 1_555
Mg45 N39 2.046991 1_555
Mg45 N56 2.101375 1_555
Mg45 N69 2.218057 1_555
Mg45 N51 2.409268 1_555
Mg46 N40 2.047035 1_555
Mg46 N55 2.101495 1_555
Mg46 N70 2.218254 1_555
Mg46 N52 2.408726 1_555
Mg47 N41 2.047055 1_555
Mg47 N54 2.101466 1_555
Mg47 N71 2.218382 1_555
Mg47 N53 2.409143 1_555
Mg48 N4 2.152013 1_556
Mg48 N67 2.152162 1_555
Mg48 N28 2.154014 1_555
Mg48 N6 2.226148 1_555
Mg49 N3 2.152162 1_556
Mg49 N68 2.152390 1_545
Mg49 N27 2.154125 1_555
Mg49 N7 2.226297 1_555
Mg50 N5 2.151828 1_556
Mg50 N66 2.151978 1_655
Mg50 N29 2.154091 1_555
Mg50 N8 2.225649 1_555
Mg51 N1 2.152004 1_555
Mg51 N70 2.152201 1_555
Mg51 N25 2.154030 1_555
Mg51 N9 2.226121 1_555
Mg52 N0 2.152185 1_555
Mg52 N71 2.152356 1_455
Mg52 N24 2.154122 1_555
Mg52 N10 2.226289 1_555
Mg53 N2 2.151834 1_555
Mg53 N69 2.151969 1_565
Mg53 N26 2.154064 1_555
Mg53 N11 2.225678 1_555
Mo0 N1 1.819319 1_555
Mo0 N12 1.869628 1_555
Mo0 N37 1.892066 1_555
Mo0 N48 1.945549 1_555
Mo1 N2 1.819361 1_555
Mo1 N13 1.869628 1_555
Mo1 N38 1.892098 1_555
Mo1 N49 1.945497 1_555
Mo2 N0 1.819204 1_555
Mo2 N14 1.869709 1_555
Mo2 N36 1.892153 1_555
Mo2 N50 1.945521 1_555
Mo3 N4 1.819309 1_555
Mo3 N15 1.869644 1_554
Mo3 N40 1.892093 1_555
Mo3 N51 1.945565 1_555
Mo4 N5 1.819377 1_555
Mo4 N16 1.869625 1_554
Mo4 N41 1.892104 1_555
Mo4 N52 1.945481 1_555
Mo5 N3 1.819226 1_555
Mo5 N17 1.869692 1_554
Mo5 N39 1.892151 1_555
Mo5 N53 1.945489 1_555
Mo6 N19 1.837730 1_555
Mo6 N30 1.854722 1_555
Mo6 N42 1.917994 1_555
Mo6 N11 1.931075 1_555
Mo7 N20 1.837712 1_555
Mo7 N31 1.854758 1_565
Mo7 N43 1.917870 1_555
Mo7 N10 1.931235 1_555
Mo8 N18 1.837596 1_555
Mo8 N32 1.854779 1_455
Mo8 N44 1.917966 1_555
Mo8 N9 1.931224 1_555
Mo9 N22 1.837729 1_555
Mo9 N33 1.854672 1_555
Mo9 N45 1.917955 1_555
Mo9 N8 1.931090 1_555
Mo10 N23 1.837693 1_555
Mo10 N34 1.854741 1_655
Mo10 N46 1.917914 1_555
Mo10 N7 1.931208 1_555
Mo11 N21 1.837594 1_555
Mo11 N35 1.854784 1_545
Mo11 N47 1.917970 1_555
Mo11 N6 1.931200 1_555
Mo12 N54 1.839706 1_455
Mo12 N66 1.868621 1_554
Mo12 N24 1.880451 1_555
Mo12 N60 1.922120 1_555
Mo13 N55 1.839718 1_555
Mo13 N67 1.868606 1_554
Mo13 N25 1.880526 1_555
Mo13 N61 1.922133 1_555
Mo14 N56 1.839687 1_565
Mo14 N68 1.868591 1_554
Mo14 N26 1.880569 1_555
Mo14 N62 1.922177 1_555
Mo15 N57 1.839717 1_545
Mo15 N69 1.868629 1_555
Mo15 N27 1.880436 1_555
Mo15 N63 1.922140 1_555
Mo16 N58 1.839678 1_555
Mo16 N70 1.868579 1_555
Mo16 N28 1.880530 1_555
Mo16 N64 1.922129 1_555
Mo17 N59 1.839671 1_655
Mo17 N71 1.868601 1_555
Mo17 N29 1.880549 1_555
Mo17 N65 1.922147 1_555
