# generated using pymatgen
data_CePtRh
_symmetry_space_group_name_H-M   'P 1'
_cell_length_a   5.42047362
_cell_length_b   5.42047362
_cell_length_c   5.42047362
_cell_angle_alpha   120.41311813
_cell_angle_beta   119.58704632
_cell_angle_gamma   90.00134633
_symmetry_Int_Tables_number   1
_chemical_formula_structural   CePtRh
_chemical_formula_sum   'Ce2 Pt2 Rh2'
_cell_volume   112.60766557
_cell_formula_units_Z   2
loop_
 _symmetry_equiv_pos_site_id
 _symmetry_equiv_pos_as_xyz
  1  'x, y, z'
loop_
 _atom_site_type_symbol
 _atom_site_label
 _atom_site_symmetry_multiplicity
 _atom_site_fract_x
 _atom_site_fract_y
 _atom_site_fract_z
 _atom_site_occupancy
  Ce  Ce0  1  0.12309573  0.87309573  0.25000000  1
  Ce  Ce1  1  0.87690427  0.12690427  0.75000000  1
  Pt  Pt0  1  0.50000000  0.50000000  0.50000000  1
  Pt  Pt1  1  0.50000000  -0.00000000  -0.00000000  1
  Rh  Rh0  1  0.50000000  0.50000000  -0.00000000  1
  Rh  Rh1  1  -0.00000000  0.50000000  0.50000000  1
loop_
_geom_bond_atom_site_label_1
_geom_bond_atom_site_label_2
_geom_bond_distance
_geom_bond_site_symmetry_2
Ce0 Rh0 3.168433 1_455
Ce0 Rh1 3.168433 1_555
Ce0 Rh0 3.171671 1_555
Ce0 Rh1 3.171671 1_565
Ce0 Rh1 3.171671 1_554
Ce0 Rh0 3.171671 1_566
Ce0 Pt1 3.184513 1_465
Ce0 Pt0 3.184513 1_454
Ce0 Pt0 3.184513 1_555
Ce0 Pt1 3.184513 1_566
Ce0 Pt0 3.187626 1_565
Ce0 Pt1 3.187626 1_565
Ce1 Rh1 3.168433 1_655
Ce1 Rh0 3.168433 1_656
Ce1 Rh1 3.171671 1_645
Ce1 Rh0 3.171671 1_556
Ce1 Rh0 3.171671 1_545
Ce1 Rh1 3.171671 1_656
Ce1 Pt1 3.184513 1_656
Ce1 Pt0 3.184513 1_656
Ce1 Pt1 3.184513 1_555
Ce1 Pt0 3.184513 1_555
Ce1 Pt1 3.187626 1_556
Ce1 Pt0 3.187626 1_545
Pt0 Pt1 2.693296 1_566
Pt0 Pt1 2.693296 1_555
Pt0 Rh0 2.710237 1_556
Pt0 Rh0 2.710237 1_555
Pt0 Rh1 2.710237 1_655
Pt0 Rh1 2.710237 1_555
Pt1 Rh0 2.710237 1_555
Pt1 Rh0 2.710237 1_545
Pt1 Rh1 2.710237 1_544
Pt1 Rh1 2.710237 1_655
Rh0 Rh1 2.727136 1_554
Rh0 Rh1 2.727136 1_655
