# generated using pymatgen
data_TbBe13
_symmetry_space_group_name_H-M   'P 1'
_cell_length_a   7.22243705
_cell_length_b   7.22243729
_cell_length_c   7.22233654
_cell_angle_alpha   60.00047081
_cell_angle_beta   60.00046968
_cell_angle_gamma   60.00127836
_symmetry_Int_Tables_number   1
_chemical_formula_structural   TbBe13
_chemical_formula_sum   'Tb2 Be26'
_cell_volume   266.40204312
_cell_formula_units_Z   2
loop_
 _symmetry_equiv_pos_site_id
 _symmetry_equiv_pos_as_xyz
  1  'x, y, z'
loop_
 _atom_site_type_symbol
 _atom_site_label
 _atom_site_symmetry_multiplicity
 _atom_site_fract_x
 _atom_site_fract_y
 _atom_site_fract_z
 _atom_site_occupancy
  Tb  Tb0  1  0.25000000  0.25000000  0.25000000  1
  Tb  Tb1  1  0.75000000  0.75000000  0.75000000  1
  Be  Be0  1  -0.00000000  0.00000000  -0.00000000  1
  Be  Be1  1  0.50000000  0.50000000  0.50000000  1
  Be  Be2  1  0.28968311  0.06255705  0.93744487  1
  Be  Be3  1  0.43744364  0.56255636  0.78970292  1
  Be  Be4  1  0.78968728  0.21031272  0.43744542  1
  Be  Be5  1  0.43744633  0.78970335  0.21028661  1
  Be  Be6  1  0.56255367  0.21029665  0.78971339  1
  Be  Be7  1  0.56255705  0.78968311  0.43744487  1
  Be  Be8  1  0.78968311  0.56255705  0.21031497  1
  Be  Be9  1  0.93744633  0.28970335  0.06256372  1
  Be  Be10  1  0.06255636  0.93744364  0.28970292  1
  Be  Be11  1  0.71031272  0.28968728  0.93744542  1
  Be  Be12  1  0.06255367  0.71029665  0.93743628  1
  Be  Be13  1  0.71029665  0.06255367  0.28971339  1
  Be  Be14  1  0.93744364  0.06255636  0.71029708  1
  Be  Be15  1  0.28970335  0.93744633  0.71028661  1
  Be  Be16  1  0.28968728  0.71031272  0.06255458  1
  Be  Be17  1  0.78970335  0.43744633  0.56256372  1
  Be  Be18  1  0.21031272  0.78968728  0.56255458  1
  Be  Be19  1  0.21031689  0.43744295  0.78968503  1
  Be  Be20  1  0.43744295  0.21031689  0.56255513  1
  Be  Be21  1  0.56255636  0.43744364  0.21029708  1
  Be  Be22  1  0.21029665  0.56255367  0.43743628  1
  Be  Be23  1  0.93744295  0.71031689  0.28968503  1
  Be  Be24  1  0.71031689  0.93744295  0.06255513  1
  Be  Be25  1  0.06255705  0.28968311  0.71031497  1
loop_
_geom_bond_atom_site_label_1
_geom_bond_atom_site_label_2
_geom_bond_distance
_geom_bond_site_symmetry_2
Be0 Be24 2.140450 1_445
Be0 Be2 2.140450 1_554
Be0 Be25 2.140450 1_554
Be0 Be23 2.140450 1_445
Be0 Be16 2.140511 1_545
Be0 Be11 2.140511 1_454
Be0 Be14 2.140559 1_454
Be0 Be10 2.140559 1_545
Be0 Be9 2.140630 1_455
Be0 Be12 2.140630 1_544
Be0 Be13 2.140630 1_455
Be0 Be15 2.140630 1_544
Be1 Be7 2.140450 1_555
Be1 Be20 2.140450 1_555
Be1 Be19 2.140450 1_555
Be1 Be8 2.140450 1_555
Be1 Be18 2.140511 1_555
Be1 Be4 2.140511 1_555
Be1 Be21 2.140559 1_555
Be1 Be3 2.140559 1_555
Be1 Be17 2.140630 1_555
Be1 Be22 2.140630 1_555
Be1 Be5 2.140630 1_555
Be1 Be6 2.140630 1_555
Be2 Be20 2.229059 1_555
Be2 Be9 2.233866 1_456
Be2 Be5 2.241034 1_546
Be2 Be6 2.241120 1_555
Be2 Be25 2.319907 1_555
Be2 Tb0 3.005275 1_556
Be2 Tb1 3.005370 1_545
Be3 Be7 2.233845 1_555
Be3 Be6 2.233912 1_555
Be3 Tb1 3.005232 1_555
Be3 Tb0 3.005232 1_556
Be4 Be9 2.228989 1_555
Be4 Be8 2.233815 1_555
Be4 Be6 2.233909 1_555
Be4 Tb0 3.005310 1_655
Be4 Tb1 3.005311 1_545
Be5 Be8 2.233865 1_555
Be5 Be7 2.233872 1_555
Be5 Tb1 3.005170 1_554
Be5 Tb0 3.005299 1_565
Be6 Tb0 3.005170 1_556
Be6 Tb1 3.005299 1_545
Be7 Be8 2.319907 1_555
Be7 Tb1 3.005275 1_555
Be7 Tb0 3.005370 1_565
Be8 Be9 2.241034 1_555
Be8 Tb1 3.005275 1_554
Be8 Tb0 3.005370 1_655
Be9 Tb0 3.005169 1_655
Be9 Tb1 3.005299 1_554
Be10 Be5 2.229071 1_555
Be10 Be22 2.229071 1_555
Be10 Be23 2.233844 1_455
Be10 Be2 2.233845 1_564
Be10 Be13 2.233912 1_465
Be10 Be9 2.233912 1_465
Be10 Be18 2.241037 1_555
Be10 Be4 2.241140 1_465
Be10 Be16 2.320026 1_555
Be10 Tb0 3.005232 1_565
Be10 Tb1 3.005232 1_455
Be11 Be6 2.228989 1_555
Be11 Be17 2.228989 1_555
Be11 Be24 2.233815 1_546
Be11 Be25 2.233815 1_655
Be11 Be9 2.233909 1_556
Be11 Be13 2.233909 1_556
Be11 Be21 2.241037 1_556
Be11 Be3 2.241140 1_555
Be11 Be14 2.320026 1_555
Be11 Tb1 3.005310 1_555
Be11 Tb0 3.005311 1_556
Be12 Be18 2.228989 1_555
Be12 Be3 2.229071 1_555
Be12 Be24 2.233866 1_456
Be12 Be23 2.233873 1_456
Be12 Be16 2.233909 1_556
Be12 Be14 2.233912 1_465
Be12 Be19 2.241034 1_555
Be12 Be8 2.241121 1_456
Be12 Be15 2.320116 1_555
Be12 Tb1 3.005169 1_455
Be12 Tb0 3.005299 1_556
Be13 Be4 2.228989 1_555
Be13 Be21 2.229071 1_555
Be13 Be23 2.233866 1_545
Be13 Be24 2.233872 1_545
Be13 Be20 2.241034 1_555
Be13 Be7 2.241120 1_545
Be13 Be9 2.320116 1_555
Be13 Tb1 3.005170 1_545
Be13 Tb0 3.005299 1_555
Be14 Be6 2.229071 1_555
Be14 Be17 2.229071 1_555
Be14 Be25 2.233844 1_655
Be14 Be24 2.233845 1_546
Be14 Be15 2.233912 1_645
Be14 Be4 2.241037 1_555
Be14 Be18 2.241140 1_645
Be14 Tb1 3.005232 1_545
Be14 Tb0 3.005232 1_655
Be15 Be18 2.228989 1_555
Be15 Be3 2.229071 1_555
Be15 Be25 2.233866 1_565
Be15 Be2 2.233872 1_565
Be15 Be16 2.233909 1_556
Be15 Be7 2.241034 1_555
Be15 Be20 2.241120 1_565
Be15 Tb0 3.005170 1_565
Be15 Tb1 3.005299 1_555
Be16 Be5 2.228989 1_555
Be16 Be22 2.228989 1_555
Be16 Be2 2.233815 1_564
Be16 Be23 2.233815 1_455
Be16 Be3 2.241037 1_554
Be16 Be21 2.241140 1_555
Be16 Tb0 3.005310 1_555
Be16 Tb1 3.005311 1_554
Be17 Be7 2.233866 1_555
Be17 Be8 2.233873 1_555
Be17 Be4 2.233909 1_555
Be17 Be3 2.233912 1_555
Be17 Be25 2.241034 1_655
Be17 Be23 2.241121 1_555
Be17 Be6 2.320116 1_555
Be17 Tb1 3.005169 1_555
Be17 Tb0 3.005299 1_655
Be18 Be7 2.233814 1_555
Be18 Be19 2.233815 1_555
Be18 Be22 2.233909 1_555
Be18 Be5 2.233909 1_555
Be18 Be3 2.320026 1_555
Be18 Tb1 3.005310 1_455
Be18 Tb0 3.005311 1_565
Be19 Be25 2.229058 1_555
Be19 Be2 2.229078 1_555
Be19 Be3 2.233844 1_555
Be19 Be6 2.233865 1_555
Be19 Be22 2.233873 1_555
Be19 Be9 2.241121 1_456
Be19 Be20 2.319907 1_555
Be19 Tb0 3.005275 1_556
Be19 Tb1 3.005370 1_455
Be20 Be25 2.229078 1_555
Be20 Be4 2.233814 1_555
Be20 Be21 2.233845 1_555
Be20 Be22 2.233866 1_555
Be20 Be6 2.233872 1_555
Be20 Tb0 3.005275 1_555
Be20 Tb1 3.005370 1_545
Be21 Be9 2.229071 1_555
Be21 Be8 2.233844 1_555
Be21 Be5 2.233912 1_555
Be21 Be22 2.233912 1_555
Be21 Be4 2.320026 1_555
Be21 Tb0 3.005232 1_555
Be21 Tb1 3.005232 1_554
Be22 Be23 2.241034 1_455
Be22 Be25 2.241121 1_555
Be22 Be5 2.320116 1_555
Be22 Tb0 3.005169 1_555
Be22 Tb1 3.005299 1_455
Be23 Be8 2.229058 1_555
Be23 Be7 2.229078 1_555
Be23 Be24 2.319907 1_555
Be23 Tb1 3.005275 1_555
Be23 Tb0 3.005370 1_655
Be24 Be7 2.229059 1_555
Be24 Be8 2.229078 1_555
Be24 Be6 2.241034 1_564
Be24 Be5 2.241120 1_555
Be24 Tb1 3.005275 1_554
Be24 Tb0 3.005370 1_565
Be25 Be9 2.233873 1_456
Be25 Tb0 3.005275 1_555
Be25 Tb1 3.005370 1_455
