# generated using pymatgen
data_K6W4CO29
_symmetry_space_group_name_H-M   'P 1'
_cell_length_a   18.95386486
_cell_length_b   13.49838377
_cell_length_c   11.14997517
_cell_angle_alpha   90.00000000
_cell_angle_beta   94.66473400
_cell_angle_gamma   90.00000000
_symmetry_Int_Tables_number   1
_chemical_formula_structural   K6W4CO29
_chemical_formula_sum   'K24 W16 C4 O116'
_cell_volume   2843.23345296
_cell_formula_units_Z   4
loop_
 _symmetry_equiv_pos_site_id
 _symmetry_equiv_pos_as_xyz
  1  'x, y, z'
loop_
 _atom_site_type_symbol
 _atom_site_label
 _atom_site_symmetry_multiplicity
 _atom_site_fract_x
 _atom_site_fract_y
 _atom_site_fract_z
 _atom_site_occupancy
  K  K0  1  0.20637150  0.48863093  0.19712052  1
  K  K1  1  0.70637150  0.01136907  0.69712052  1
  K  K2  1  0.79362850  0.51136907  0.80287948  1
  K  K3  1  0.29362850  0.98863093  0.30287948  1
  K  K4  1  0.13614380  0.48685218  0.54789405  1
  K  K5  1  0.63614380  0.01314782  0.04789405  1
  K  K6  1  0.86385620  0.51314782  0.45210595  1
  K  K7  1  0.36385620  0.98685218  0.95210595  1
  K  K8  1  0.44161567  0.51266617  0.62415945  1
  K  K9  1  0.94161567  0.98733383  0.12415945  1
  K  K10  1  0.55838433  0.48733383  0.37584055  1
  K  K11  1  0.05838433  0.01266617  0.87584055  1
  K  K12  1  0.38244793  0.49080446  0.00346435  1
  K  K13  1  0.88244793  0.00919554  0.50346435  1
  K  K14  1  0.61755207  0.50919554  0.99653565  1
  K  K15  1  0.11755207  0.99080446  0.49653565  1
  K  K16  1  0.10411100  0.75802694  0.22800473  1
  K  K17  1  0.60411100  0.74197306  0.72800473  1
  K  K18  1  0.89588900  0.24197306  0.77199527  1
  K  K19  1  0.39588900  0.25802694  0.27199527  1
  K  K20  1  0.15727061  0.71024119  0.85847096  1
  K  K21  1  0.65727061  0.78975881  0.35847096  1
  K  K22  1  0.84272939  0.28975881  0.14152904  1
  K  K23  1  0.34272939  0.21024119  0.64152904  1
  W  W0  1  0.42226233  0.75216707  0.41983115  1
  W  W1  1  0.92226233  0.74783293  0.91983115  1
  W  W2  1  0.57773767  0.24783293  0.58016885  1
  W  W3  1  0.07773767  0.25216707  0.08016885  1
  W  W4  1  0.25972281  0.73540877  0.50386361  1
  W  W5  1  0.75972281  0.76459123  0.00386361  1
  W  W6  1  0.74027719  0.26459123  0.49613639  1
  W  W7  1  0.24027719  0.23540877  0.99613639  1
  W  W8  1  0.33804962  0.73441016  0.15746682  1
  W  W9  1  0.83804962  0.76558984  0.65746682  1
  W  W10  1  0.66195038  0.26558984  0.84253318  1
  W  W11  1  0.16195038  0.23441016  0.34253318  1
  W  W12  1  0.50270263  0.72570602  0.07985559  1
  W  W13  1  0.00270263  0.77429398  0.57985559  1
  W  W14  1  0.49729737  0.27429398  0.92014441  1
  W  W15  1  0.99729737  0.22570602  0.42014441  1
  C  C0  1  0.38617928  0.53632276  0.30514390  1
  C  C1  1  0.88617928  0.96367724  0.80514390  1
  C  C2  1  0.61382072  0.46367724  0.69485610  1
  C  C3  1  0.11382072  0.03632276  0.19485610  1
  O  O0  1  0.53150627  0.72505451  0.45024377  1
  O  O1  1  0.03150627  0.77494549  0.95024377  1
  O  O2  1  0.46849373  0.27494549  0.54975623  1
  O  O3  1  0.96849373  0.22505451  0.04975623  1
  O  O4  1  0.49409710  0.70526674  0.55261566  1
  O  O5  1  0.99409710  0.79473326  0.05261566  1
  O  O6  1  0.50590290  0.29473326  0.44738434  1
  O  O7  1  0.00590290  0.20526674  0.94738434  1
  O  O8  1  0.25405234  0.58971268  0.45020933  1
  O  O9  1  0.75405234  0.91028732  0.95020933  1
  O  O10  1  0.74594766  0.41028732  0.54979067  1
  O  O11  1  0.24594766  0.08971268  0.04979067  1
  O  O12  1  0.19178123  0.64697876  0.40386467  1
  O  O13  1  0.69178123  0.85302124  0.90386467  1
  O  O14  1  0.80821877  0.35302124  0.59613533  1
  O  O15  1  0.30821877  0.14697876  0.09613533  1
  O  O16  1  0.20363207  0.84844489  0.43264275  1
  O  O17  1  0.70363207  0.65155511  0.93264275  1
  O  O18  1  0.79636793  0.15155511  0.56735725  1
  O  O19  1  0.29636793  0.34844489  0.06735725  1
  O  O20  1  0.26872488  0.88434081  0.50492737  1
  O  O21  1  0.76872488  0.61565919  0.00492737  1
  O  O22  1  0.73127512  0.11565919  0.49507263  1
  O  O23  1  0.23127512  0.38434081  0.99507263  1
  O  O24  1  0.23457065  0.69458206  0.14550937  1
  O  O25  1  0.73457065  0.80541794  0.64550937  1
  O  O26  1  0.76542935  0.30541794  0.85449063  1
  O  O27  1  0.26542935  0.19458206  0.35449063  1
  O  O28  1  0.26819949  0.67273304  0.03435374  1
  O  O29  1  0.76819949  0.82726696  0.53435374  1
  O  O30  1  0.73180051  0.32726696  0.96564626  1
  O  O31  1  0.23180051  0.17273304  0.46564626  1
  O  O32  1  0.50993247  0.58237407  0.13848738  1
  O  O33  1  0.00993247  0.91762593  0.63848738  1
  O  O34  1  0.49006753  0.41762593  0.86151262  1
  O  O35  1  0.99006753  0.08237407  0.36151262  1
  O  O36  1  0.57251171  0.64423935  0.18175007  1
  O  O37  1  0.07251171  0.85576065  0.68175007  1
  O  O38  1  0.42748929  0.35576065  0.81824993  1
  O  O39  1  0.92748829  0.14423935  0.31824993  1
  O  O40  1  0.55759662  0.84634888  0.13506261  1
  O  O41  1  0.05759662  0.65365112  0.63506261  1
  O  O42  1  0.44240338  0.15365112  0.86493739  1
  O  O43  1  0.94240338  0.34634888  0.36493739  1
  O  O44  1  0.48881195  0.87344264  0.06972897  1
  O  O45  1  0.98881195  0.62655736  0.56972897  1
  O  O46  1  0.51118805  0.12655736  0.93027103  1
  O  O47  1  0.01118805  0.37344264  0.43027103  1
  O  O48  1  0.35982704  0.72177162  0.55169372  1
  O  O49  1  0.85982704  0.77822838  0.05169372  1
  O  O50  1  0.64017296  0.27822838  0.44830628  1
  O  O51  1  0.14017296  0.22177162  0.94830628  1
  O  O52  1  0.32316564  0.75268777  0.33529262  1
  O  O53  1  0.82316564  0.74731223  0.83529262  1
  O  O54  1  0.67683436  0.24731223  0.66470738  1
  O  O55  1  0.17683436  0.25268777  0.16470738  1
  O  O56  1  0.43771350  0.74756097  0.24237802  1
  O  O57  1  0.93771350  0.75243903  0.74237802  1
  O  O58  1  0.56228650  0.25243903  0.75762198  1
  O  O59  1  0.06228650  0.24756097  0.25762198  1
  O  O60  1  0.42064213  0.58984177  0.38955742  1
  O  O61  1  0.92064213  0.91015823  0.88955742  1
  O  O62  1  0.57935787  0.41015823  0.61044258  1
  O  O63  1  0.07935787  0.08984177  0.11044258  1
  O  O64  1  0.43064003  0.88031427  0.43847619  1
  O  O65  1  0.93064003  0.61968573  0.93847619  1
  O  O66  1  0.56935997  0.11968573  0.56152381  1
  O  O67  1  0.06935997  0.38031427  0.06152381  1
  O  O68  1  0.22434824  0.71994613  0.64375485  1
  O  O69  1  0.72434824  0.78005387  0.14375485  1
  O  O70  1  0.77565176  0.28005387  0.35624515  1
  O  O71  1  0.27565176  0.21994613  0.85624515  1
  O  O72  1  0.40246669  0.70258436  0.02955072  1
  O  O73  1  0.90246669  0.79741564  0.52955072  1
  O  O74  1  0.59753331  0.29741564  0.97044928  1
  O  O75  1  0.09753331  0.20258436  0.47044928  1
  O  O76  1  0.34998621  0.58037697  0.21387555  1
  O  O77  1  0.84998621  0.91962303  0.71387555  1
  O  O78  1  0.65001379  0.41962303  0.78612445  1
  O  O79  1  0.15001379  0.08037697  0.28612445  1
  O  O80  1  0.32553615  0.86188771  0.12127581  1
  O  O81  1  0.82553615  0.63811229  0.62127581  1
  O  O82  1  0.67446385  0.13811229  0.87872419  1
  O  O83  1  0.17446385  0.36188771  0.37872419  1
  O  O84  1  0.53583628  0.70542969  0.93819379  1
  O  O85  1  0.03583628  0.79457031  0.43819379  1
  O  O86  1  0.46416372  0.29457031  0.06180621  1
  O  O87  1  0.96416372  0.20542969  0.56180621  1
  O  O88  1  0.38835677  0.44342682  0.31001621  1
  O  O89  1  0.88835677  0.05657318  0.81001621  1
  O  O90  1  0.61164323  0.55657318  0.68998379  1
  O  O91  1  0.11164323  0.94342682  0.18998379  1
  O  O92  1  0.27292962  0.52845936  0.75874247  1
  O  O93  1  0.77292962  0.97154064  0.25874247  1
  O  O94  1  0.72707038  0.47154064  0.24125753  1
  O  O95  1  0.22707038  0.02845936  0.74125753  1
  O  O96  1  0.02507705  0.56149017  0.26638423  1
  O  O97  1  0.52507705  0.93850983  0.76638423  1
  O  O98  1  0.97492295  0.43850983  0.73361577  1
  O  O99  1  0.47492295  0.06149017  0.23361577  1
  O  O100  1  0.10256538  0.61572696  0.04433849  1
  O  O101  1  0.60256538  0.88427304  0.54433849  1
  O  O102  1  0.89743462  0.38427304  0.95566151  1
  O  O103  1  0.39743462  0.11572696  0.45566151  1
  O  O104  1  0.68152400  0.59158611  0.41298426  1
  O  O105  1  0.18152400  0.90841389  0.91298426  1
  O  O106  1  0.31847600  0.40841389  0.58701574  1
  O  O107  1  0.81847600  0.09158611  0.08701574  1
  O  O108  1  0.32262272  0.58756742  0.77815827  1
  O  O109  1  0.82262172  0.91243258  0.27815827  1
  O  O110  1  0.67737828  0.41243258  0.22184173  1
  O  O111  1  0.17737828  0.08756742  0.72184173  1
  O  O112  1  0.96506358  0.59600367  0.27096732  1
  O  O113  1  0.46506358  0.90399633  0.77096732  1
  O  O114  1  0.03493642  0.40399633  0.72903268  1
  O  O115  1  0.53493642  0.09600367  0.22903268  1
loop_
_geom_bond_atom_site_label_1
_geom_bond_atom_site_label_2
_geom_bond_distance
_geom_bond_site_symmetry_2
K0 O23 2.729973 1_554
K0 O83 2.755357 1_555
K0 O24 2.897464 1_555
K0 O76 2.982525 1_555
K0 O19 2.997540 1_555
K0 O100 3.028403 1_555
K0 O12 3.172179 1_555
K0 O8 3.197959 1_555
K0 O67 3.244819 1_555
K0 O55 3.248755 1_555
K1 O22 2.729973 1_555
K1 O82 2.755357 1_555
K1 O25 2.897464 1_545
K1 O77 2.982525 1_545
K1 O18 2.997540 1_555
K1 O101 3.028403 1_545
K1 O13 3.172179 1_545
K1 O9 3.197959 1_545
K1 O66 3.244819 1_555
K1 O54 3.248755 1_555
K2 O21 2.729973 1_556
K2 O81 2.755357 1_555
K2 O26 2.897464 1_555
K2 O78 2.982525 1_555
K2 O17 2.997540 1_555
K2 O102 3.028403 1_555
K2 O14 3.172179 1_555
K2 O10 3.197959 1_555
K2 O65 3.244819 1_555
K2 O53 3.248755 1_555
K3 O20 2.729973 1_555
K3 O80 2.755357 1_555
K3 O27 2.897464 1_565
K3 O79 2.982525 1_565
K3 O16 2.997540 1_555
K3 O103 3.028403 1_565
K3 O15 3.172179 1_565
K3 O11 3.197959 1_565
K3 O64 3.244819 1_555
K3 O52 3.248755 1_555
K4 O83 2.674625 1_555
K4 O41 2.909598 1_555
K4 O8 2.916240 1_555
K4 O12 2.939111 1_555
K4 O47 3.027802 1_555
K4 O114 3.104825 1_555
K5 O82 2.674625 1_554
K5 O40 2.909598 1_545
K5 O9 2.916240 1_544
K5 O13 2.939111 1_544
K5 O46 3.027802 1_554
K5 O115 3.104825 1_555
K6 O81 2.674625 1_555
K6 O43 2.909598 1_555
K6 O10 2.916240 1_555
K6 O14 2.939111 1_555
K6 O45 3.027802 1_555
K6 O112 3.104825 1_555
K7 O80 2.674625 1_556
K7 O42 2.909598 1_565
K7 O11 2.916240 1_566
K7 O15 2.939111 1_566
K7 O44 3.027802 1_556
K7 O113 3.104825 1_555
K8 O106 2.728011 1_555
K8 O60 2.813641 1_555
K8 O4 2.917847 1_555
K8 O62 2.969670 1_555
K8 O34 3.016245 1_555
K8 O38 3.055337 1_555
K8 O108 3.112427 1_555
K8 O48 3.289265 1_555
K8 O90 3.300134 1_555
K8 O2 3.363508 1_555
K9 O107 2.728011 1_565
K9 O61 2.813641 1_554
K9 O5 2.917847 1_555
K9 O63 2.969670 1_665
K9 O35 3.016245 1_565
K9 O39 3.055339 1_565
K9 O109 3.112441 1_555
K9 O49 3.289265 1_555
K9 O91 3.300134 1_655
K9 O3 3.363508 1_565
K10 O104 2.728011 1_555
K10 O62 2.813641 1_555
K10 O6 2.917847 1_555
K10 O60 2.969670 1_555
K10 O32 3.016245 1_555
K10 O36 3.055339 1_555
K10 O110 3.112441 1_555
K10 O50 3.289265 1_555
K10 O88 3.300134 1_555
K10 O0 3.363508 1_555
K11 O105 2.728011 1_545
K11 O63 2.813641 1_556
K11 O7 2.917847 1_555
K11 O61 2.969670 1_445
K11 O33 3.016245 1_545
K11 O37 3.055339 1_545
K11 O111 3.112441 1_555
K11 O51 3.289265 1_555
K11 O89 3.300134 1_455
K11 O1 3.363508 1_545
K12 O19 2.655402 1_555
K12 O76 2.753057 1_555
K12 O34 2.857760 1_554
K12 O72 2.895291 1_555
K12 O38 2.933126 1_554
K12 O108 2.973112 1_554
K12 O32 3.006872 1_555
K12 O86 3.110392 1_555
K13 O18 2.655402 1_555
K13 O77 2.753057 1_545
K13 O35 2.857760 1_555
K13 O73 2.895291 1_545
K13 O39 2.933119 1_555
K13 O109 2.973118 1_545
K13 O33 3.006872 1_645
K13 O87 3.110392 1_555
K14 O17 2.655402 1_555
K14 O78 2.753057 1_555
K14 O32 2.857760 1_556
K14 O74 2.895291 1_555
K14 O36 2.933119 1_556
K14 O110 2.973118 1_556
K14 O34 3.006872 1_555
K14 O84 3.110392 1_555
K15 O16 2.655402 1_555
K15 O79 2.753057 1_565
K15 O33 2.857760 1_555
K15 O75 2.895291 1_565
K15 O37 2.933119 1_555
K15 O111 2.973118 1_565
K15 O35 3.006872 1_465
K15 O85 3.110392 1_555
K16 O91 2.544198 1_555
K16 O5 2.784702 1_455
K16 O100 2.806143 1_555
K16 O85 2.811351 1_555
K16 O24 2.839675 1_555
K16 O12 2.884967 1_555
K16 O16 3.090942 1_555
K16 O96 3.093448 1_555
K17 O90 2.544198 1_555
K17 O4 2.784702 1_555
K17 O101 2.806143 1_555
K17 O84 2.811351 1_555
K17 O25 2.839675 1_555
K17 O13 2.884967 1_555
K17 O17 3.090942 1_555
K17 O97 3.093448 1_555
K18 O89 2.544198 1_555
K18 O7 2.784702 1_655
K18 O102 2.806143 1_555
K18 O87 2.811351 1_555
K18 O26 2.839675 1_555
K18 O14 2.884967 1_555
K18 O18 3.090942 1_555
K18 O98 3.093448 1_555
K19 O88 2.544198 1_555
K19 O6 2.784702 1_555
K19 O103 2.806143 1_555
K19 O86 2.811351 1_555
K19 O27 2.839675 1_555
K19 O15 2.884967 1_555
K19 O19 3.090942 1_555
K19 O99 3.093448 1_555
K20 O100 2.710568 1_556
K20 O105 2.773266 1_555
K20 O28 2.802177 1_556
K20 O68 2.803615 1_555
K20 O1 2.808693 1_555
K20 O41 3.097135 1_555
K20 O37 3.131612 1_555
K21 O101 2.710568 1_555
K21 O104 2.773266 1_555
K21 O29 2.802177 1_555
K21 O69 2.803615 1_555
K21 O0 2.808693 1_555
K21 O40 3.097135 1_555
K21 O36 3.131612 1_555
K22 O102 2.710568 1_554
K22 O107 2.773266 1_555
K22 O30 2.802177 1_554
K22 O70 2.803615 1_555
K22 O3 2.808693 1_555
K22 O43 3.097135 1_555
K22 O39 3.131612 1_555
K23 O103 2.710568 1_555
K23 O106 2.773266 1_555
K23 O31 2.802177 1_555
K23 O71 2.803615 1_555
K23 O2 2.808693 1_555
K23 O42 3.097135 1_555
K23 O38 3.131621 1_555
C0 O88 1.255654 1_555
C0 O60 1.316982 1_555
C0 O76 1.321461 1_555
C1 O89 1.255654 1_565
C1 O61 1.316982 1_555
C1 O77 1.321461 1_555
C2 O90 1.255654 1_555
C2 O62 1.316982 1_555
C2 O78 1.321461 1_555
C3 O91 1.255654 1_545
C3 O63 1.316982 1_555
C3 O79 1.321461 1_555
O0 O4 1.417260 1_555
O0 W0 2.102876 1_555
O1 O5 1.417260 1_456
O1 W1 2.102876 1_455
O2 O6 1.417260 1_555
O2 W2 2.102876 1_555
O3 O7 1.417260 1_654
O3 W3 2.102876 1_655
O4 W0 2.029466 1_555
O5 W1 2.029466 1_554
O6 W2 2.029466 1_555
O7 W3 2.029466 1_556
O8 W4 2.055906 1_555
O9 W5 2.055906 1_556
O10 O14 1.469152 1_555
O10 W6 2.055906 1_555
O11 O15 1.469152 1_555
O11 W7 2.055906 1_554
O12 O8 1.469152 1_555
O12 W4 2.023067 1_555
O13 O9 1.469152 1_555
O13 W5 2.023067 1_556
O14 W6 2.023067 1_555
O15 W7 2.023067 1_554
O16 O20 1.498264 1_555
O16 W4 1.987872 1_555
O17 O21 1.498264 1_556
O17 W5 1.987872 1_556
O18 O22 1.498264 1_555
O18 W6 1.987872 1_555
O19 O23 1.498264 1_554
O19 W7 1.987872 1_554
O20 W4 2.017523 1_555
O21 W5 2.017523 1_555
O22 W6 2.017523 1_555
O23 W7 2.017523 1_555
O24 O28 1.468950 1_555
O24 W8 2.027579 1_555
O25 O29 1.468950 1_555
O25 W9 2.027579 1_555
O26 O30 1.468950 1_555
O26 W10 2.027579 1_555
O27 O31 1.468950 1_555
O27 W11 2.027579 1_555
O28 W8 2.008643 1_555
O29 W9 2.008643 1_555
O30 W10 2.008643 1_555
O31 W11 2.008643 1_555
O32 O36 1.497954 1_555
O32 W12 2.043243 1_555
O33 O37 1.497954 1_555
O33 W13 2.043243 1_555
O34 O38 1.497939 1_555
O34 W14 2.043243 1_555
O35 O39 1.497954 1_555
O35 W15 2.043243 1_555
O36 W12 2.001566 1_555
O37 W13 2.001566 1_555
O38 W14 2.001554 1_555
O39 W15 2.001566 1_555
O40 O44 1.486496 1_555
O40 W12 2.002309 1_555
O41 O45 1.486496 1_455
O41 W13 2.002309 1_555
O42 O46 1.486496 1_555
O42 W14 2.002309 1_555
O43 O47 1.486496 1_655
O43 W15 2.002309 1_555
O44 W12 2.013476 1_555
O45 W13 2.013476 1_655
O46 W14 2.013476 1_555
O47 W15 2.013476 1_455
O48 W4 1.937447 1_555
O48 W0 2.003352 1_555
O49 W5 1.937447 1_555
O49 W1 2.003352 1_554
O50 W6 1.937447 1_555
O50 W2 2.003352 1_555
O51 W7 1.937447 1_555
O51 W3 2.003352 1_556
O52 W0 2.031862 1_555
O52 W8 2.040281 1_555
O52 W4 2.323950 1_555
O53 W1 2.031862 1_555
O53 W9 2.040281 1_555
O53 W5 2.323950 1_556
O54 W2 2.031862 1_555
O54 W10 2.040281 1_555
O54 W6 2.323950 1_555
O55 W3 2.031862 1_555
O55 W11 2.040281 1_555
O55 W7 2.323950 1_554
O56 W0 2.024532 1_555
O56 W8 2.050696 1_555
O56 W12 2.291548 1_555
O57 W1 2.024532 1_555
O57 W9 2.050696 1_555
O57 W13 2.291548 1_655
O58 W2 2.024532 1_555
O58 W10 2.050696 1_555
O58 W14 2.291548 1_555
O59 W3 2.024532 1_555
O59 W11 2.050696 1_555
O59 W15 2.291548 1_455
O60 W0 2.216810 1_555
O61 W1 2.216810 1_555
O62 W2 2.216810 1_555
O63 W3 2.216810 1_555
O64 W0 1.747914 1_555
O65 W1 1.747914 1_555
O66 W2 1.747914 1_555
O67 W3 1.747914 1_555
O68 W4 1.759586 1_555
O69 W5 1.759586 1_555
O70 W6 1.759586 1_555
O71 W7 1.759586 1_555
O72 W12 1.961671 1_555
O72 W8 1.998184 1_555
O73 W13 1.961671 1_655
O73 W9 1.998184 1_555
O74 W14 1.961671 1_555
O74 W10 1.998184 1_555
O75 W15 1.961671 1_455
O75 W11 1.998184 1_555
O76 W8 2.178691 1_555
O77 W9 2.178691 1_555
O78 W10 2.178691 1_555
O79 W11 2.178691 1_555
O80 W8 1.778896 1_555
O81 W9 1.778896 1_555
O82 W10 1.778896 1_555
O83 W11 1.778896 1_555
O84 W12 1.767923 1_556
O85 W13 1.767923 1_555
O86 W14 1.767923 1_554
O87 W15 1.767923 1_555
O108 O92 1.239927 1_555
O109 O93 1.239912 1_555
O110 O94 1.239912 1_555
O111 O95 1.239912 1_555
O112 O96 1.234092 1_655
O113 O97 1.234092 1_555
O114 O98 1.234092 1_455
O115 O99 1.234092 1_555
