# generated using pymatgen
data_BaNb6Bi6Pb2O27
_symmetry_space_group_name_H-M   'P 1'
_cell_length_a   3.95970500
_cell_length_b   3.95970500
_cell_length_c   38.32290969
_cell_angle_alpha   92.96135356
_cell_angle_beta   92.96135356
_cell_angle_gamma   90.00000000
_symmetry_Int_Tables_number   1
_chemical_formula_structural   BaNb6Bi6Pb2O27
_chemical_formula_sum   'Ba1 Nb6 Bi6 Pb2 O27'
_cell_volume   599.26912528
_cell_formula_units_Z   1
loop_
 _symmetry_equiv_pos_site_id
 _symmetry_equiv_pos_as_xyz
  1  'x, y, z'
loop_
 _atom_site_type_symbol
 _atom_site_label
 _atom_site_symmetry_multiplicity
 _atom_site_fract_x
 _atom_site_fract_y
 _atom_site_fract_z
 _atom_site_occupancy
  Ba  Ba0  1  0.16666700  0.16666700  0.33333300  1
  Nb  Nb0  1  0.63708700  0.63708700  0.27417300  1
  Nb  Nb1  1  0.30415300  0.30415300  0.60830700  1
  Nb  Nb2  1  0.97082300  0.97082300  0.94164500  1
  Nb  Nb3  1  0.02918000  0.02918000  0.05836000  1
  Nb  Nb4  1  0.69624700  0.69624700  0.39249300  1
  Nb  Nb5  1  0.36251000  0.36251000  0.72502200  1
  Bi  Bi0  1  0.09948200  0.09948200  0.19896300  1
  Bi  Bi1  1  0.76625200  0.76625200  0.53250500  1
  Bi  Bi2  1  0.43289600  0.43289600  0.86579200  1
  Bi  Bi3  1  0.56708100  0.56708100  0.13416200  1
  Bi  Bi4  1  0.23385200  0.23385200  0.46770300  1
  Bi  Bi5  1  0.90043700  0.90043700  0.80087500  1
  Pb  Pb0  1  0.83332400  0.83332400  0.66664900  1
  Pb  Pb1  1  0.50000900  0.50000900  0.00001800  1
  O  O0  1  0.61221600  0.61221600  0.22443200  1
  O  O1  1  0.27919300  0.27919300  0.55838600  1
  O  O2  1  0.94586700  0.94586700  0.89173600  1
  O  O3  1  0.05414100  0.05414100  0.10828000  1
  O  O4  1  0.72111700  0.72111700  0.44223500  1
  O  O5  1  0.38746600  0.38746600  0.77493100  1
  O  O6  1  0.08329400  0.58329400  0.16659000  1
  O  O7  1  0.75003900  0.25003900  0.50007700  1
  O  O8  1  0.41666700  0.91666700  0.83333300  1
  O  O9  1  0.58329400  0.08329400  0.16659000  1
  O  O10  1  0.25003900  0.75003900  0.50007700  1
  O  O11  1  0.91666700  0.41666700  0.83333300  1
  O  O12  1  0.14006800  0.64006800  0.28013600  1
  O  O13  1  0.80715300  0.30715300  0.61430400  1
  O  O14  1  0.47383300  0.97383300  0.94766800  1
  O  O15  1  0.64006800  0.14006800  0.28013600  1
  O  O16  1  0.30715300  0.80715300  0.61430400  1
  O  O17  1  0.97383300  0.47383300  0.94766800  1
  O  O18  1  0.52618100  0.02618100  0.05236200  1
  O  O19  1  0.19326500  0.69326500  0.38653100  1
  O  O20  1  0.85950000  0.35950000  0.71899900  1
  O  O21  1  0.02618100  0.52618100  0.05236200  1
  O  O22  1  0.69326500  0.19326500  0.38653100  1
  O  O23  1  0.35950000  0.85950000  0.71899900  1
  O  O24  1  0.00003100  0.00003100  0.00006200  1
  O  O25  1  0.66666700  0.66666700  0.33333300  1
  O  O26  1  0.33330200  0.33330200  0.66660500  1
loop_
_geom_bond_atom_site_label_1
_geom_bond_atom_site_label_2
_geom_bond_distance
_geom_bond_site_symmetry_2
Ba0 O25 2.799934 1_455
Ba0 O25 2.799934 1_545
Ba0 O25 2.799934 1_555
Ba0 O25 2.799934 1_445
Ba0 O12 2.837917 1_555
Ba0 O15 2.837917 1_555
Ba0 O15 2.837920 1_455
Ba0 O12 2.837920 1_545
Ba0 O19 2.837943 1_555
Ba0 O22 2.837943 1_555
Ba0 O22 2.837948 1_455
Ba0 O19 2.837948 1_545
Nb0 O0 1.901125 1_555
Nb0 O12 1.992925 1_655
Nb0 O15 1.992925 1_565
Nb0 O12 1.992929 1_555
Nb0 O15 1.992929 1_555
Nb0 O25 2.261124 1_555
Nb1 O1 1.908005 1_555
Nb1 O13 1.993070 1_455
Nb1 O16 1.993070 1_545
Nb1 O16 1.993082 1_555
Nb1 O13 1.993082 1_555
Nb1 O26 2.228178 1_555
Nb2 O2 1.907546 1_555
Nb2 O14 1.993185 1_655
Nb2 O17 1.993185 1_565
Nb2 O14 1.993197 1_555
Nb2 O17 1.993197 1_555
Nb2 O24 2.232726 1_666
Nb3 O3 1.907967 1_555
Nb3 O21 1.993080 1_555
Nb3 O18 1.993080 1_555
Nb3 O21 1.993081 1_545
Nb3 O18 1.993081 1_455
Nb3 O24 2.228178 1_555
Nb4 O4 1.901164 1_555
Nb4 O19 1.992919 1_655
Nb4 O22 1.992919 1_565
Nb4 O22 1.992927 1_555
Nb4 O19 1.992927 1_555
Nb4 O25 2.261124 1_555
Nb5 O5 1.907546 1_555
Nb5 O23 1.993185 1_545
Nb5 O20 1.993185 1_455
Nb5 O23 1.993197 1_555
Nb5 O20 1.993197 1_555
Nb5 O26 2.232726 1_555
Bi0 O9 2.334681 1_555
Bi0 O6 2.334681 1_555
Bi0 O9 2.334691 1_455
Bi0 O6 2.334691 1_545
Bi1 O10 2.335797 1_555
Bi1 O7 2.335797 1_555
Bi1 O10 2.335804 1_655
Bi1 O7 2.335804 1_565
Bi2 O8 2.336428 1_545
Bi2 O11 2.336428 1_455
Bi2 O11 2.336431 1_555
Bi2 O8 2.336431 1_555
Bi3 O9 2.335797 1_565
Bi3 O6 2.335797 1_655
Bi3 O6 2.335804 1_555
Bi3 O9 2.335804 1_555
Bi4 O7 2.334706 1_455
Bi4 O10 2.334706 1_545
Bi4 O10 2.334706 1_555
Bi4 O7 2.334706 1_555
Bi5 O11 2.336406 1_555
Bi5 O8 2.336406 1_555
Bi5 O8 2.336412 1_655
Bi5 O11 2.336412 1_565
O13 Pb0 2.814676 1_555
O13 Pb0 2.814684 1_545
O14 Pb1 2.814813 1_556
O14 Pb1 2.814818 1_566
O16 Pb0 2.814676 1_555
O16 Pb0 2.814684 1_455
O17 Pb1 2.814813 1_556
O17 Pb1 2.814818 1_656
O18 Pb1 2.814653 1_555
O18 Pb1 2.814653 1_545
O20 Pb0 2.814813 1_555
O20 Pb0 2.814818 1_545
O21 Pb1 2.814653 1_555
O21 Pb1 2.814653 1_455
O23 Pb0 2.814813 1_555
O23 Pb0 2.814818 1_455
O24 Pb1 2.799935 1_555
O24 Pb1 2.799935 1_455
O24 Pb1 2.799935 1_545
O24 Pb1 2.799935 1_445
O26 Pb0 2.799935 1_445
O26 Pb0 2.799935 1_545
O26 Pb0 2.799935 1_455
O26 Pb0 2.799935 1_555
