# generated using pymatgen
data_K3B5PH2O13
_symmetry_space_group_name_H-M   'P 1'
_cell_length_a   7.41116900
_cell_length_b   6.92272740
_cell_length_c   12.33802219
_cell_angle_alpha   94.09521102
_cell_angle_beta   90.00000000
_cell_angle_gamma   90.00000000
_symmetry_Int_Tables_number   1
_chemical_formula_structural   K3B5PH2O13
_chemical_formula_sum   'K6 B10 P2 H4 O26'
_cell_volume   631.39220498
_cell_formula_units_Z   2
loop_
 _symmetry_equiv_pos_site_id
 _symmetry_equiv_pos_as_xyz
  1  'x, y, z'
loop_
 _atom_site_type_symbol
 _atom_site_label
 _atom_site_symmetry_multiplicity
 _atom_site_fract_x
 _atom_site_fract_y
 _atom_site_fract_z
 _atom_site_occupancy
  K  K0  1  0.24828100  0.64730700  0.05226000  1
  K  K1  1  0.24828100  0.35269300  0.44774000  1
  K  K2  1  0.75171900  0.35269300  0.94774000  1
  K  K3  1  0.75171900  0.64730700  0.55226000  1
  K  K4  1  0.58758200  0.00000000  0.25000000  1
  K  K5  1  0.41241800  0.00000000  0.75000000  1
  B  B0  1  0.18730900  0.86453800  0.42491100  1
  B  B1  1  0.18730900  0.13546200  0.07508900  1
  B  B2  1  0.81269100  0.13546200  0.57508900  1
  B  B3  1  0.81269100  0.86453800  0.92491100  1
  B  B4  1  0.02130000  0.67286400  0.80238600  1
  B  B5  1  0.02130000  0.32713600  0.69761400  1
  B  B6  1  0.97870000  0.32713600  0.19761400  1
  B  B7  1  0.97870000  0.67286400  0.30238600  1
  B  B8  1  0.11697300  0.00000000  0.25000000  1
  B  B9  1  0.88302700  0.00000000  0.75000000  1
  P  P0  1  0.65114500  0.50000000  0.25000000  1
  P  P1  1  0.34885500  0.50000000  0.75000000  1
  H  H0  1  0.77290000  0.81149100  0.07694100  1
  H  H1  1  0.77290000  0.18850900  0.42305900  1
  H  H2  1  0.22710000  0.18850900  0.92305900  1
  H  H3  1  0.22710000  0.81149100  0.57694100  1
  O  O0  1  0.06450700  0.50000000  0.25000000  1
  O  O1  1  0.93549300  0.50000000  0.75000000  1
  O  O2  1  0.06214800  0.71846900  0.41038400  1
  O  O3  1  0.06214800  0.28153100  0.08961600  1
  O  O4  1  0.93785200  0.28153100  0.58961600  1
  O  O5  1  0.93785200  0.71846900  0.91038400  1
  O  O6  1  0.99782800  0.82933600  0.22907600  1
  O  O7  1  0.99782800  0.17066400  0.27092400  1
  O  O8  1  0.00217200  0.17066400  0.77092400  1
  O  O9  1  0.00217200  0.82933600  0.72907600  1
  O  O10  1  0.23471800  0.98304400  0.34544000  1
  O  O11  1  0.23471800  0.01695600  0.15456000  1
  O  O12  1  0.76528200  0.01695600  0.65456000  1
  O  O13  1  0.76528200  0.98304400  0.84544000  1
  O  O14  1  0.72718500  0.89849100  0.02469500  1
  O  O15  1  0.72718500  0.10150900  0.47530500  1
  O  O16  1  0.27281500  0.10150900  0.97530500  1
  O  O17  1  0.27281500  0.89849100  0.52469500  1
  O  O18  1  0.21852200  0.63919300  0.82326500  1
  O  O19  1  0.21852200  0.36080700  0.67673500  1
  O  O20  1  0.78147800  0.36080700  0.17673500  1
  O  O21  1  0.78147800  0.63919300  0.32326500  1
  O  O22  1  0.54265700  0.61662300  0.17340900  1
  O  O23  1  0.54265700  0.38337700  0.32659100  1
  O  O24  1  0.45734300  0.38337700  0.82659100  1
  O  O25  1  0.45734300  0.61662300  0.67340900  1
loop_
_geom_bond_atom_site_label_1
_geom_bond_atom_site_label_2
_geom_bond_distance
_geom_bond_site_symmetry_2
K0 O22 2.661654 1_555
K0 O11 2.773131 1_565
K0 O18 2.830496 1_554
K0 O3 2.948544 1_555
K0 O5 2.953464 1_454
K0 O0 3.033562 1_555
K0 O6 3.065909 1_455
K0 O16 3.353758 1_564
K1 O23 2.661654 1_555
K1 O10 2.773131 1_545
K1 O19 2.830496 1_555
K1 O2 2.948544 1_555
K1 O4 2.953464 1_455
K1 O0 3.033562 1_555
K1 O7 3.065909 1_455
K1 O17 3.353758 1_545
K2 O24 2.661654 1_555
K2 O13 2.773131 1_545
K2 O20 2.830496 1_556
K2 O5 2.948544 1_555
K2 O3 2.953464 1_656
K2 O1 3.033562 1_555
K2 O8 3.065909 1_655
K2 O14 3.353758 1_546
K3 O25 2.661654 1_555
K3 O12 2.773131 1_565
K3 O21 2.830496 1_555
K3 O4 2.948544 1_555
K3 O2 2.953464 1_655
K3 O1 3.033562 1_555
K3 O9 3.065909 1_655
K3 O15 3.353758 1_565
K4 O23 2.772981 1_555
K4 O22 2.772981 1_545
K4 O11 2.873857 1_555
K4 O10 2.873857 1_545
K4 O15 3.002106 1_555
K4 O14 3.002106 1_545
K4 O21 3.073013 1_545
K4 O20 3.073013 1_555
K4 O7 3.265422 1_555
K4 O6 3.265422 1_545
K5 O24 2.772981 1_555
K5 O25 2.772981 1_545
K5 O12 2.873857 1_555
K5 O13 2.873857 1_545
K5 O16 3.002106 1_555
K5 O17 3.002106 1_545
K5 O18 3.073013 1_545
K5 O19 3.073013 1_555
K5 O8 3.265422 1_555
K5 O9 3.265422 1_545
B0 O10 1.368497 1_555
B0 O2 1.374474 1_555
B0 O17 1.389673 1_555
B1 O11 1.368497 1_555
B1 O3 1.374474 1_555
B1 O16 1.389673 1_554
B2 O12 1.368497 1_555
B2 O4 1.374474 1_555
B2 O15 1.389673 1_555
B3 O13 1.368497 1_555
B3 O5 1.374474 1_555
B3 O14 1.389673 1_556
B4 O1 1.464157 1_455
B4 O9 1.466801 1_555
B4 O5 1.482421 1_455
B4 O18 1.505217 1_555
B5 O1 1.464157 1_455
B5 O8 1.466801 1_555
B5 O4 1.482421 1_455
B5 O19 1.505217 1_555
B6 O0 1.464157 1_655
B6 O7 1.466801 1_555
B6 O3 1.482421 1_655
B6 O20 1.505217 1_555
B7 O0 1.464157 1_655
B7 O6 1.466801 1_555
B7 O2 1.482421 1_655
B7 O21 1.505217 1_555
B8 O11 1.477025 1_555
B8 O10 1.477025 1_545
B8 O7 1.482777 1_455
B8 O6 1.482777 1_445
B9 O12 1.477025 1_555
B9 O13 1.477025 1_545
B9 O8 1.482777 1_655
B9 O9 1.482777 1_645
H0 O14 0.973910 1_555
H0 K4 2.783959 1_565
H1 O15 0.973910 1_555
H1 K4 2.783959 1_555
H2 O16 0.973910 1_555
H2 K5 2.783959 1_555
H3 O17 0.973910 1_555
H3 K5 2.783959 1_565
O18 P1 1.598194 1_555
O19 P1 1.598194 1_555
O20 P0 1.598194 1_555
O21 P0 1.598194 1_555
O22 P0 1.516649 1_555
O23 P0 1.516649 1_555
O24 P1 1.516649 1_555
O25 P1 1.516649 1_555
