# generated using pymatgen
data_Sm2(CoCu)5
_symmetry_space_group_name_H-M   'P 1'
_cell_length_a   4.05662100
_cell_length_b   5.03176000
_cell_length_c   8.56305700
_cell_angle_alpha   90.00000000
_cell_angle_beta   90.00000000
_cell_angle_gamma   90.00000000
_symmetry_Int_Tables_number   1
_chemical_formula_structural   Sm2(CoCu)5
_chemical_formula_sum   'Sm2 Co5 Cu5'
_cell_volume   174.78863381
_cell_formula_units_Z   1
loop_
 _symmetry_equiv_pos_site_id
 _symmetry_equiv_pos_as_xyz
  1  'x, y, z'
loop_
 _atom_site_type_symbol
 _atom_site_label
 _atom_site_symmetry_multiplicity
 _atom_site_fract_x
 _atom_site_fract_y
 _atom_site_fract_z
 _atom_site_occupancy
  Sm  Sm0  1  0.00000000  0.50000000  0.00000000  1
  Sm  Sm1  1  0.00000000  0.00000000  0.50000000  1
  Co  Co0  1  0.00000000  0.50000000  0.34747200  1
  Co  Co1  1  0.00000000  0.00000000  0.83597000  1
  Co  Co2  1  0.00000000  0.00000000  0.16403000  1
  Co  Co3  1  0.00000000  0.50000000  0.65252800  1
  Co  Co4  1  0.50000000  0.50000000  0.50000000  1
  Cu  Cu0  1  0.50000000  0.00000000  0.00000000  1
  Cu  Cu1  1  0.50000000  0.75034000  0.25198000  1
  Cu  Cu2  1  0.50000000  0.24966000  0.74802000  1
  Cu  Cu3  1  0.50000000  0.24966000  0.25198000  1
  Cu  Cu4  1  0.50000000  0.75034000  0.74802000  1
loop_
_geom_bond_atom_site_label_1
_geom_bond_atom_site_label_2
_geom_bond_distance
_geom_bond_site_symmetry_2
Co0 Co4 2.412459 1_555
Co0 Co4 2.412459 1_455
Co0 Cu3 2.523768 1_555
Co0 Cu1 2.523768 1_455
Co0 Cu1 2.523768 1_555
Co0 Cu3 2.523768 1_455
Co0 Co3 2.612212 1_555
Co0 Sm1 2.834707 1_565
Co0 Sm1 2.834707 1_555
Co0 Co2 2.965997 1_565
Co0 Co2 2.965997 1_555
Co0 Sm0 2.975423 1_555
Co1 Cu0 2.467172 1_556
Co1 Cu0 2.467172 1_456
Co1 Cu4 2.501869 1_445
Co1 Cu2 2.501869 1_455
Co1 Cu4 2.501869 1_545
Co1 Cu2 2.501869 1_555
Co1 Sm1 2.876930 1_555
Co1 Sm0 2.881414 1_556
Co1 Sm0 2.881414 1_546
Co1 Co3 2.965997 1_555
Co1 Co3 2.965997 1_545
Co2 Cu0 2.467172 1_555
Co2 Cu0 2.467172 1_455
Co2 Cu3 2.501869 1_555
Co2 Cu1 2.501869 1_445
Co2 Cu3 2.501869 1_455
Co2 Cu1 2.501869 1_545
Co2 Sm1 2.876930 1_555
Co2 Sm0 2.881414 1_555
Co2 Sm0 2.881414 1_545
Co3 Co4 2.412459 1_555
Co3 Co4 2.412459 1_455
Co3 Cu4 2.523768 1_455
Co3 Cu2 2.523768 1_555
Co3 Cu4 2.523768 1_555
Co3 Cu2 2.523768 1_455
Co3 Sm1 2.834707 1_565
Co3 Sm1 2.834707 1_555
Co3 Sm0 2.975423 1_556
Co4 Cu3 2.469268 1_555
Co4 Cu1 2.469268 1_555
Co4 Cu2 2.469268 1_555
Co4 Cu4 2.469268 1_555
Co4 Sm1 3.231671 1_565
Co4 Sm1 3.231671 1_655
Co4 Sm1 3.231671 1_665
Co4 Sm1 3.231671 1_555
Cu0 Cu2 2.496771 1_554
Cu0 Cu1 2.496771 1_545
Cu0 Cu4 2.496771 1_544
Cu0 Cu3 2.496771 1_555
Cu0 Sm0 3.231671 1_655
Cu0 Sm0 3.231671 1_645
Cu0 Sm0 3.231671 1_555
Cu0 Sm0 3.231671 1_545
Cu1 Cu3 2.512458 1_565
Cu1 Cu3 2.519302 1_555
Cu1 Sm1 3.194170 1_565
Cu1 Sm1 3.194170 1_665
Cu1 Sm0 3.218154 1_655
Cu1 Sm0 3.218154 1_555
Cu2 Cu4 2.512458 1_545
Cu2 Cu4 2.519302 1_555
Cu2 Sm1 3.194170 1_655
Cu2 Sm1 3.194170 1_555
Cu2 Sm0 3.218154 1_556
Cu2 Sm0 3.218154 1_656
Cu3 Sm1 3.194170 1_655
Cu3 Sm1 3.194170 1_555
Cu3 Sm0 3.218154 1_655
Cu3 Sm0 3.218154 1_555
Cu4 Sm1 3.194170 1_565
Cu4 Sm1 3.194170 1_665
Cu4 Sm0 3.218154 1_556
Cu4 Sm0 3.218154 1_656
