# generated using pymatgen
data_Ba3Mo2(NO3)2
_symmetry_space_group_name_H-M   'P 1'
_cell_length_a   8.02701056
_cell_length_b   8.02701056
_cell_length_c   8.02701024
_cell_angle_alpha   44.61874328
_cell_angle_beta   44.61874328
_cell_angle_gamma   44.61873852
_symmetry_Int_Tables_number   1
_chemical_formula_structural   Ba3Mo2(NO3)2
_chemical_formula_sum   'Ba3 Mo2 N2 O6'
_cell_volume   232.05493329
_cell_formula_units_Z   1
loop_
 _symmetry_equiv_pos_site_id
 _symmetry_equiv_pos_as_xyz
  1  'x, y, z'
loop_
 _atom_site_type_symbol
 _atom_site_label
 _atom_site_symmetry_multiplicity
 _atom_site_fract_x
 _atom_site_fract_y
 _atom_site_fract_z
 _atom_site_occupancy
  Ba  Ba0  1  0.20155300  0.20155300  0.20155300  1
  Ba  Ba1  1  0.79844700  0.79844700  0.79844700  1
  Ba  Ba2  1  0.00000000  0.00000000  0.00000000  1
  Mo  Mo0  1  0.59353000  0.59353000  0.59353000  1
  Mo  Mo1  1  0.40647000  0.40647000  0.40647000  1
  N  N0  1  0.67423500  0.67423500  0.67423500  1
  N  N1  1  0.32576500  0.32576500  0.32576500  1
  O  O0  1  0.26769700  0.26769700  0.76814800  1
  O  O1  1  0.76814800  0.26769700  0.26769700  1
  O  O2  1  0.26769700  0.76814800  0.26769700  1
  O  O3  1  0.73230300  0.73230300  0.23185200  1
  O  O4  1  0.23185200  0.73230300  0.73230300  1
  O  O5  1  0.73230300  0.23185200  0.73230300  1
loop_
_geom_bond_atom_site_label_1
_geom_bond_atom_site_label_2
_geom_bond_distance
_geom_bond_site_symmetry_2
Ba0 N1 2.688486 1_555
Ba0 O0 2.794478 1_554
Ba0 O1 2.794478 1_455
Ba0 O2 2.794478 1_545
Ba0 O3 3.118261 1_455
Ba0 O3 3.118261 1_545
Ba0 O4 3.118262 1_545
Ba0 O5 3.118262 1_455
Ba0 O4 3.118262 1_554
Ba0 O5 3.118262 1_554
Ba1 N0 2.688486 1_555
Ba1 O3 2.794478 1_556
Ba1 O4 2.794478 1_655
Ba1 O5 2.794478 1_565
Ba1 O0 3.118261 1_565
Ba1 O0 3.118261 1_655
Ba1 O1 3.118262 1_565
Ba1 O2 3.118262 1_655
Ba1 O1 3.118262 1_556
Ba1 O2 3.118262 1_556
Ba2 O1 2.808101 1_455
Ba2 O2 2.808101 1_545
Ba2 O4 2.808101 1_544
Ba2 O5 2.808101 1_454
Ba2 O0 2.808102 1_554
Ba2 O3 2.808102 1_445
Mo0 N0 1.746806 1_555
Mo0 O4 1.862523 1_555
Mo0 O5 1.862523 1_555
Mo0 O3 1.862523 1_555
Mo1 N1 1.746806 1_555
Mo1 O2 1.862523 1_555
Mo1 O1 1.862523 1_555
Mo1 O0 1.862523 1_555
