# generated using pymatgen
data_Mg4Si7
_symmetry_space_group_name_H-M   'P 1'
_cell_length_a   4.32657700
_cell_length_b   6.57138500
_cell_length_c   13.65338106
_cell_angle_alpha   88.32915503
_cell_angle_beta   90.00000000
_cell_angle_gamma   90.00000000
_symmetry_Int_Tables_number   1
_chemical_formula_structural   Mg4Si7
_chemical_formula_sum   'Mg8 Si14'
_cell_volume   388.02246546
_cell_formula_units_Z   2
loop_
 _symmetry_equiv_pos_site_id
 _symmetry_equiv_pos_as_xyz
  1  'x, y, z'
loop_
 _atom_site_type_symbol
 _atom_site_label
 _atom_site_symmetry_multiplicity
 _atom_site_fract_x
 _atom_site_fract_y
 _atom_site_fract_z
 _atom_site_occupancy
  Mg  Mg0  1  0.50000000  0.91310500  0.92644700  1
  Mg  Mg1  1  0.50000000  0.61797600  0.50793600  1
  Mg  Mg2  1  0.00000000  0.80775000  0.33284000  1
  Mg  Mg3  1  0.00000000  0.43021400  0.65899300  1
  Mg  Mg4  1  0.50000000  0.41686900  0.85426900  1
  Mg  Mg5  1  0.00000000  0.37727100  0.18908600  1
  Mg  Mg6  1  0.00000000  0.29197000  0.41739500  1
  Mg  Mg7  1  0.00000000  0.92802000  0.58695200  1
  Si  Si0  1  0.00000000  0.61735700  0.97852100  1
  Si  Si1  1  0.00000000  0.22884300  0.97638900  1
  Si  Si2  1  0.50000000  0.53096400  0.05472200  1
  Si  Si3  1  0.50000000  0.75913400  0.18908900  1
  Si  Si4  1  0.50000000  0.23732000  0.56195000  1
  Si  Si5  1  0.50000000  0.99169700  0.43803100  1
  Si  Si6  1  0.50000000  0.16160300  0.08088600  1
  Si  Si7  1  0.00000000  0.11450500  0.80648100  1
  Si  Si8  1  0.50000000  0.71677000  0.71098500  1
  Si  Si9  1  0.00000000  0.90352600  0.11461300  1
  Si  Si10  1  0.50000000  0.49750500  0.31848000  1
  Si  Si11  1  0.00000000  0.73672200  0.80712400  1
  Si  Si12  1  0.50000000  0.08755700  0.72036200  1
  Si  Si13  1  0.50000000  0.12965000  0.27201000  1
loop_
_geom_bond_atom_site_label_1
_geom_bond_atom_site_label_2
_geom_bond_distance
_geom_bond_site_symmetry_2
Mg0 Si6 2.704379 1_566
Mg0 Si11 2.964384 1_655
Mg0 Si11 2.964384 1_555
Mg0 Si0 2.980240 1_555
Mg0 Si0 2.980240 1_655
Mg0 Si7 2.997974 1_565
Mg0 Si7 2.997974 1_665
Mg0 Si12 3.007214 1_565
Mg0 Si2 3.019435 1_556
Mg0 Si1 3.087430 1_565
Mg0 Si1 3.087430 1_665
Mg1 Si4 2.587176 1_555
Mg1 Si5 2.608742 1_555
Mg1 Si10 2.727130 1_555
Mg1 Si8 2.865678 1_555
Mg2 Si5 2.881827 1_555
Mg2 Si5 2.881827 1_455
Mg2 Si3 2.944586 1_555
Mg2 Si3 2.944586 1_455
Mg2 Si10 2.982956 1_455
Mg2 Si10 2.982956 1_555
Mg2 Si9 3.027276 1_555
Mg2 Si13 3.121181 1_465
Mg2 Si13 3.121181 1_565
Mg3 Si7 2.848781 1_555
Mg3 Si4 2.853077 1_555
Mg3 Si4 2.853077 1_455
Mg3 Si11 2.895677 1_555
Mg3 Si8 2.967765 1_455
Mg3 Si8 2.967765 1_555
Mg4 Si8 2.736099 1_555
Mg4 Si2 2.858709 1_556
Mg4 Si12 2.873394 1_555
Mg4 Si1 2.977654 1_555
Mg4 Si1 2.977654 1_655
Mg4 Si7 3.021441 1_555
Mg4 Si7 3.021441 1_655
Mg4 Si0 3.069836 1_655
Mg4 Si0 3.069836 1_555
Mg4 Si11 3.071342 1_655
Mg4 Si11 3.071342 1_555
Mg5 Si13 2.915830 1_555
Mg5 Si13 2.915830 1_455
Mg5 Si10 2.916606 1_455
Mg5 Si10 2.916606 1_555
Mg5 Si2 2.992874 1_555
Mg5 Si2 2.992874 1_455
Mg5 Si6 2.998812 1_555
Mg5 Si6 2.998812 1_455
Mg5 Si1 3.090299 1_554
Mg6 Si10 2.867336 1_455
Mg6 Si10 2.867336 1_555
Mg6 Si5 2.936041 1_445
Mg6 Si5 2.936041 1_545
Mg6 Si4 2.943265 1_455
Mg6 Si4 2.943265 1_555
Mg6 Si13 3.143450 1_555
Mg6 Si13 3.143450 1_455
Mg7 Si4 2.981117 1_465
Mg7 Si4 2.981117 1_565
Mg7 Si5 2.989901 1_555
Mg7 Si5 2.989901 1_455
Mg7 Si12 3.034490 1_465
Mg7 Si12 3.034490 1_565
Mg7 Si8 3.055761 1_455
Mg7 Si8 3.055761 1_555
Mg7 Si11 3.224361 1_555
Si0 Si11 2.446329 1_555
Si0 Si2 2.459698 1_556
Si0 Si2 2.459698 1_456
Si0 Si1 2.554090 1_555
Si0 Si9 2.681929 1_556
Si1 Si7 2.459216 1_555
Si1 Si6 2.621807 1_456
Si1 Si6 2.621807 1_556
Si1 Si9 2.810065 1_546
Si2 Si3 2.402959 1_555
Si2 Si6 2.443033 1_555
Si3 Si9 2.560832 1_655
Si3 Si9 2.560832 1_555
Si4 Si5 2.372148 1_545
Si6 Si9 2.778935 1_545
Si6 Si9 2.778935 1_645
Si10 Si3 2.428933 1_555
Si10 Si13 2.517025 1_555
Si11 Si7 2.482317 1_565
Si11 Si8 2.535749 1_455
Si11 Si8 2.535749 1_555
Si12 Si4 2.349975 1_555
Si12 Si8 2.443670 1_545
Si12 Si7 2.471004 1_555
Si12 Si7 2.471004 1_655
Si13 Si5 2.416637 1_545
Si13 Si6 2.611813 1_555
Si13 Si3 2.714919 1_545
