# generated using pymatgen
data_Na5LiN2
_symmetry_space_group_name_H-M   'P 1'
_cell_length_a   5.00999702
_cell_length_b   5.00999698
_cell_length_c   6.68107057
_cell_angle_alpha   87.52403080
_cell_angle_beta   87.52403717
_cell_angle_gamma   111.93142689
_symmetry_Int_Tables_number   1
_chemical_formula_structural   Na5LiN2
_chemical_formula_sum   'Na5 Li1 N2'
_cell_volume   155.09540092
_cell_formula_units_Z   1
loop_
 _symmetry_equiv_pos_site_id
 _symmetry_equiv_pos_as_xyz
  1  'x, y, z'
loop_
 _atom_site_type_symbol
 _atom_site_label
 _atom_site_symmetry_multiplicity
 _atom_site_fract_x
 _atom_site_fract_y
 _atom_site_fract_z
 _atom_site_occupancy
  Na  Na0  1  0.24766900  0.75233100  0.00000000  1
  Na  Na1  1  0.57272100  0.39747900  0.76504300  1
  Na  Na2  1  0.91334600  0.08665400  0.50000000  1
  Na  Na3  1  0.26530800  0.73469200  0.50000000  1
  Na  Na4  1  0.60252100  0.42727900  0.23495700  1
  Li  Li0  1  0.88666500  0.11333500  0.00000000  1
  N  N0  1  0.07162900  0.38085900  0.76958900  1
  N  N1  1  0.61914100  0.92837100  0.23041100  1
loop_
_geom_bond_atom_site_label_1
_geom_bond_atom_site_label_2
_geom_bond_distance
_geom_bond_site_symmetry_2
Li0 N0 1.948216 1_654
Li0 N1 1.948216 1_545
N0 Na2 2.350574 1_455
N0 Na3 2.369884 1_555
N0 Na0 2.397896 1_556
N0 Na1 2.479386 1_555
N0 Na1 2.533240 1_455
N1 Na2 2.350574 1_565
N1 Na3 2.369885 1_555
N1 Na0 2.397896 1_555
N1 Na4 2.479386 1_555
N1 Na4 2.533240 1_565
