# generated using pymatgen
data_Rb3MgNb5O15
_symmetry_space_group_name_H-M   'P 1'
_cell_length_a   6.63927734
_cell_length_b   19.65807564
_cell_length_c   11.71573786
_cell_angle_alpha   90.00000000
_cell_angle_beta   90.00000000
_cell_angle_gamma   90.00000000
_symmetry_Int_Tables_number   1
_chemical_formula_structural   Rb3MgNb5O15
_chemical_formula_sum   'Rb12 Mg4 Nb20 O60'
_cell_volume   1529.08440224
_cell_formula_units_Z   4
loop_
 _symmetry_equiv_pos_site_id
 _symmetry_equiv_pos_as_xyz
  1  'x, y, z'
loop_
 _atom_site_type_symbol
 _atom_site_label
 _atom_site_symmetry_multiplicity
 _atom_site_fract_x
 _atom_site_fract_y
 _atom_site_fract_z
 _atom_site_occupancy
  Rb  Rb0  1  0.70372328  0.30240595  0.24804073  1
  Rb  Rb1  1  0.70868955  0.30842489  0.59290067  1
  Rb  Rb2  1  0.70920713  0.30654680  0.90958739  1
  Rb  Rb3  1  0.20868955  0.19157511  0.24043233  1
  Rb  Rb4  1  0.20372328  0.19759405  0.58529227  1
  Rb  Rb5  1  0.20920713  0.19345320  0.92374661  1
  Rb  Rb6  1  0.29131045  0.69157511  0.09290067  1
  Rb  Rb7  1  0.29079287  0.69345320  0.40958739  1
  Rb  Rb8  1  0.29627672  0.69759405  0.74804073  1
  Rb  Rb9  1  0.79627672  0.80240595  0.08529227  1
  Rb  Rb10  1  0.79079287  0.80654680  0.42374661  1
  Rb  Rb11  1  0.79131045  0.80842489  0.74043233  1
  Mg  Mg0  1  0.19543676  0.53526706  0.25017416  1
  Mg  Mg1  1  0.69543676  0.96473294  0.58315884  1
  Mg  Mg2  1  0.80456324  0.46473294  0.75017416  1
  Mg  Mg3  1  0.30456324  0.03526706  0.08315884  1
  Nb  Nb0  1  0.73014459  0.61496011  0.25009123  1
  Nb  Nb1  1  0.73786653  0.60665144  0.58537987  1
  Nb  Nb2  1  0.73776662  0.60705333  0.91465742  1
  Nb  Nb3  1  0.23786653  0.89334856  0.24795313  1
  Nb  Nb4  1  0.23014459  0.88503989  0.58324177  1
  Nb  Nb5  1  0.23776662  0.89294667  0.91867658  1
  Nb  Nb6  1  0.26213347  0.39334856  0.08537987  1
  Nb  Nb7  1  0.26223338  0.39294667  0.41465742  1
  Nb  Nb8  1  0.26985541  0.38503989  0.75009123  1
  Nb  Nb9  1  0.76985541  0.11496011  0.08324177  1
  Nb  Nb10  1  0.76223338  0.10705333  0.41867658  1
  Nb  Nb11  1  0.76213347  0.10665144  0.74795313  1
  Nb  Nb12  1  0.18861281  0.52923937  0.58302998  1
  Nb  Nb13  1  0.18837167  0.52945589  0.91684522  1
  Nb  Nb14  1  0.68861281  0.97076063  0.25030302  1
  Nb  Nb15  1  0.68837167  0.97054411  0.91648878  1
  Nb  Nb16  1  0.81138719  0.47076063  0.08302998  1
  Nb  Nb17  1  0.81162833  0.47054411  0.41684522  1
  Nb  Nb18  1  0.31162833  0.02945589  0.41648878  1
  Nb  Nb19  1  0.31138719  0.02923937  0.75030302  1
  O  O0  1  0.65910708  0.70489312  0.24903568  1
  O  O1  1  0.66763328  0.69527074  0.58313813  1
  O  O2  1  0.66781931  0.69600260  0.91755046  1
  O  O3  1  0.16763328  0.80472926  0.25019487  1
  O  O4  1  0.15910708  0.79510688  0.58429732  1
  O  O5  1  0.16781931  0.80399740  0.91578354  1
  O  O6  1  0.33236672  0.30472926  0.08313813  1
  O  O7  1  0.33218069  0.30399740  0.41755046  1
  O  O8  1  0.34089292  0.29510688  0.74903568  1
  O  O9  1  0.84089292  0.20489312  0.08429732  1
  O  O10  1  0.83218069  0.19600260  0.41578354  1
  O  O11  1  0.83236672  0.19527074  0.75019487  1
  O  O12  1  0.02192085  0.61920971  0.24957462  1
  O  O13  1  0.04057132  0.61513239  0.58600243  1
  O  O14  1  0.04062403  0.61569896  0.91412072  1
  O  O15  1  0.54057132  0.88486761  0.24733057  1
  O  O16  1  0.52192085  0.88079029  0.58375838  1
  O  O17  1  0.54062403  0.88430104  0.91921328  1
  O  O18  1  0.95942868  0.38486761  0.08600243  1
  O  O19  1  0.95937597  0.38430104  0.41412072  1
  O  O20  1  0.97807915  0.38079029  0.74957462  1
  O  O21  1  0.47807915  0.11920971  0.08375838  1
  O  O22  1  0.45937597  0.11569896  0.41921328  1
  O  O23  1  0.45942868  0.11513239  0.74733057  1
  O  O24  1  0.85114088  0.48928058  0.25000766  1
  O  O25  1  0.85628324  0.49177709  0.57922277  1
  O  O26  1  0.85646848  0.49215875  0.92070003  1
  O  O27  1  0.35628324  0.00822291  0.25411023  1
  O  O28  1  0.35114088  0.01071942  0.58332534  1
  O  O29  1  0.35646848  0.00784125  0.91263397  1
  O  O30  1  0.14371676  0.50822291  0.07922277  1
  O  O31  1  0.14353152  0.50784125  0.42070003  1
  O  O32  1  0.14885912  0.51071942  0.75000766  1
  O  O33  1  0.64885912  0.98928058  0.08332534  1
  O  O34  1  0.64353152  0.99215875  0.41263397  1
  O  O35  1  0.64371676  0.99177709  0.75411023  1
  O  O36  1  0.26299221  0.41842919  0.25021344  1
  O  O37  1  0.25316729  0.42148874  0.57915398  1
  O  O38  1  0.25304848  0.42174230  0.92067350  1
  O  O39  1  0.75316729  0.07851126  0.25417902  1
  O  O40  1  0.76299221  0.08157081  0.58311956  1
  O  O41  1  0.75304848  0.07825770  0.91266050  1
  O  O42  1  0.74683271  0.57851126  0.07915398  1
  O  O43  1  0.74695152  0.57825770  0.42067350  1
  O  O44  1  0.73700779  0.58157081  0.75021344  1
  O  O45  1  0.23700779  0.91842919  0.08311956  1
  O  O46  1  0.24695152  0.92174230  0.41266050  1
  O  O47  1  0.24683271  0.92148874  0.75417902  1
  O  O48  1  0.46793766  0.57414271  0.24967808  1
  O  O49  1  0.44129753  0.56977227  0.58283284  1
  O  O50  1  0.44116837  0.57004317  0.91728356  1
  O  O51  1  0.94129753  0.93022773  0.25050016  1
  O  O52  1  0.96793766  0.92585729  0.58365492  1
  O  O53  1  0.94116837  0.92995683  0.91605044  1
  O  O54  1  0.55870247  0.43022773  0.08283284  1
  O  O55  1  0.55883163  0.42995683  0.41728356  1
  O  O56  1  0.53206234  0.42585729  0.74967808  1
  O  O57  1  0.03206234  0.07414271  0.08365492  1
  O  O58  1  0.05883163  0.07004317  0.41605044  1
  O  O59  1  0.05870247  0.06977227  0.75050016  1
loop_
_geom_bond_atom_site_label_1
_geom_bond_atom_site_label_2
_geom_bond_distance
_geom_bond_site_symmetry_2
Mg0 O48 1.964002 1_555
Mg0 O12 2.012510 1_555
Mg0 O31 2.097803 1_555
Mg0 O30 2.100439 1_555
Mg0 O36 2.340191 1_555
Mg0 O24 2.458141 1_455
Mg1 O52 1.964002 1_555
Mg1 O16 2.012510 1_555
Mg1 O34 2.097792 1_555
Mg1 O35 2.100439 1_555
Mg1 O40 2.340191 1_565
Mg1 O28 2.458141 1_565
Mg2 O56 1.964002 1_555
Mg2 O20 2.012510 1_555
Mg2 O26 2.097803 1_555
Mg2 O25 2.100439 1_555
Mg2 O44 2.340191 1_555
Mg2 O32 2.458141 1_655
Mg3 O57 1.964002 1_555
Mg3 O21 2.012510 1_555
Mg3 O29 2.097792 1_554
Mg3 O27 2.100439 1_555
Mg3 O45 2.340191 1_545
Mg3 O33 2.458141 1_545
Nb0 O0 1.829782 1_555
Nb0 O48 1.916889 1_555
Nb0 O12 1.938993 1_655
Nb0 O43 2.127675 1_555
Nb0 O42 2.129859 1_555
Nb0 O24 2.597939 1_555
Nb1 O1 1.803603 1_555
Nb1 O44 1.993100 1_555
Nb1 O43 2.009667 1_555
Nb1 O13 2.016658 1_655
Nb1 O49 2.098441 1_555
Nb1 O25 2.392242 1_555
Nb2 O2 1.809508 1_555
Nb2 O44 1.990649 1_555
Nb2 O42 2.008116 1_556
Nb2 O14 2.017934 1_655
Nb2 O50 2.099527 1_555
Nb2 O26 2.393200 1_555
Nb3 O3 1.803603 1_555
Nb3 O45 1.993100 1_555
Nb3 O46 2.009679 1_555
Nb3 O15 2.016658 1_555
Nb3 O51 2.098441 1_455
Nb3 O27 2.392242 1_565
Nb4 O4 1.829782 1_555
Nb4 O52 1.916889 1_455
Nb4 O16 1.938993 1_555
Nb4 O46 2.127664 1_555
Nb4 O47 2.129859 1_555
Nb4 O28 2.597939 1_565
Nb5 O5 1.809508 1_555
Nb5 O45 1.990638 1_556
Nb5 O47 2.008127 1_555
Nb5 O17 2.017934 1_555
Nb5 O53 2.099527 1_455
Nb5 O29 2.393200 1_565
Nb6 O6 1.803603 1_555
Nb6 O36 1.993100 1_555
Nb6 O38 2.009667 1_554
Nb6 O18 2.016658 1_455
Nb6 O54 2.098441 1_555
Nb6 O30 2.392242 1_555
Nb7 O7 1.809508 1_555
Nb7 O36 1.990649 1_555
Nb7 O37 2.008116 1_555
Nb7 O19 2.017934 1_455
Nb7 O55 2.099527 1_555
Nb7 O31 2.393200 1_555
Nb8 O8 1.829782 1_555
Nb8 O56 1.916889 1_555
Nb8 O20 1.938993 1_455
Nb8 O38 2.127675 1_555
Nb8 O37 2.129859 1_555
Nb8 O32 2.597939 1_555
Nb9 O9 1.829782 1_555
Nb9 O57 1.916889 1_655
Nb9 O21 1.938993 1_555
Nb9 O41 2.127664 1_554
Nb9 O39 2.129859 1_555
Nb9 O33 2.597939 1_545
Nb10 O10 1.809508 1_555
Nb10 O40 1.990638 1_555
Nb10 O39 2.008127 1_555
Nb10 O22 2.017934 1_555
Nb10 O58 2.099527 1_655
Nb10 O34 2.393200 1_545
Nb11 O11 1.803603 1_555
Nb11 O40 1.993100 1_555
Nb11 O41 2.009679 1_555
Nb11 O23 2.016658 1_555
Nb11 O59 2.098441 1_655
Nb11 O35 2.392242 1_545
Nb12 O49 1.857251 1_555
Nb12 O13 1.954044 1_555
Nb12 O31 1.970642 1_555
Nb12 O32 2.007283 1_555
Nb12 O37 2.161574 1_555
Nb12 O25 2.326511 1_455
Nb13 O50 1.858387 1_555
Nb13 O14 1.958966 1_555
Nb13 O30 1.970062 1_556
Nb13 O32 2.006250 1_555
Nb13 O38 2.161010 1_555
Nb13 O26 2.322810 1_455
Nb14 O51 1.857251 1_555
Nb14 O15 1.954044 1_555
Nb14 O34 1.970653 1_555
Nb14 O33 2.007283 1_555
Nb14 O39 2.161574 1_565
Nb14 O27 2.326511 1_565
Nb15 O53 1.858387 1_555
Nb15 O17 1.958966 1_555
Nb15 O35 1.970073 1_555
Nb15 O33 2.006239 1_556
Nb15 O41 2.161010 1_565
Nb15 O29 2.322810 1_565
Nb16 O54 1.857251 1_555
Nb16 O18 1.954044 1_555
Nb16 O26 1.970642 1_554
Nb16 O24 2.007283 1_555
Nb16 O42 2.161574 1_555
Nb16 O30 2.326511 1_655
Nb17 O55 1.858387 1_555
Nb17 O19 1.958966 1_555
Nb17 O25 1.970062 1_555
Nb17 O24 2.006250 1_555
Nb17 O43 2.161010 1_555
Nb17 O31 2.322810 1_655
Nb18 O58 1.858387 1_555
Nb18 O22 1.958966 1_555
Nb18 O27 1.970073 1_555
Nb18 O28 2.006239 1_555
Nb18 O46 2.161010 1_545
Nb18 O34 2.322810 1_545
Nb19 O59 1.857251 1_555
Nb19 O23 1.954044 1_555
Nb19 O29 1.970653 1_555
Nb19 O28 2.007283 1_555
Nb19 O47 2.161574 1_545
Nb19 O35 2.326511 1_545
O0 Rb9 2.860789 1_555
O0 Rb10 2.991209 1_555
O0 Rb6 3.062278 1_555
O0 Rb7 3.093276 1_555
O1 Rb10 2.990117 1_555
O1 Rb11 3.003023 1_555
O1 Rb8 3.132638 1_555
O1 Rb7 3.224163 1_555
O2 Rb9 2.994096 1_556
O2 Rb11 3.140424 1_555
O2 Rb8 3.166998 1_555
O2 Rb6 3.236772 1_556
O3 Rb7 2.990124 1_555
O3 Rb6 3.003023 1_555
O3 Rb9 3.132638 1_455
O3 Rb10 3.224170 1_455
O4 Rb8 2.860789 1_555
O4 Rb7 2.991201 1_555
O4 Rb11 3.062278 1_455
O4 Rb10 3.093269 1_455
O5 Rb8 2.994104 1_555
O5 Rb6 3.140416 1_556
O5 Rb9 3.166991 1_456
O5 Rb11 3.236779 1_455
O6 Rb5 2.990117 1_554
O6 Rb3 3.003023 1_555
O6 Rb0 3.132638 1_555
O6 Rb2 3.224163 1_554
O7 Rb4 2.994096 1_555
O7 Rb3 3.140424 1_555
O7 Rb0 3.166998 1_555
O7 Rb1 3.236772 1_555
O8 Rb4 2.860789 1_555
O8 Rb5 2.991209 1_555
O8 Rb1 3.062278 1_555
O8 Rb2 3.093276 1_555
O9 Rb0 2.860789 1_555
O9 Rb2 2.991201 1_554
O9 Rb3 3.062278 1_655
O9 Rb5 3.093269 1_654
O10 Rb0 2.994104 1_555
O10 Rb1 3.140416 1_555
O10 Rb4 3.166991 1_655
O10 Rb3 3.236779 1_655
O11 Rb2 2.990124 1_555
O11 Rb1 3.003023 1_555
O11 Rb4 3.132638 1_655
O11 Rb5 3.224170 1_655
O12 Rb6 2.931187 1_555
O12 Rb7 2.971719 1_555
O13 Rb8 3.018917 1_555
O13 Rb7 3.066294 1_555
O14 Rb8 3.042813 1_555
O14 Rb6 3.063013 1_556
O15 Rb9 3.018917 1_555
O15 Rb10 3.066302 1_555
O16 Rb11 2.931187 1_555
O16 Rb10 2.971711 1_555
O17 Rb9 3.042806 1_556
O17 Rb11 3.063022 1_555
O18 Rb0 3.018917 1_555
O18 Rb2 3.066294 1_554
O19 Rb0 3.042813 1_555
O19 Rb1 3.063013 1_555
O20 Rb1 2.931187 1_555
O20 Rb2 2.971719 1_555
O21 Rb3 2.931187 1_555
O21 Rb5 2.971711 1_554
O22 Rb4 3.042806 1_555
O22 Rb3 3.063022 1_555
O23 Rb4 3.018917 1_555
O23 Rb5 3.066302 1_555
O48 Rb6 3.174590 1_555
O48 Rb7 3.223980 1_555
O49 Rb8 3.314687 1_555
O49 Rb7 3.321072 1_555
O50 Rb6 3.306189 1_556
O50 Rb8 3.338262 1_555
O51 Rb9 3.314687 1_555
O51 Rb10 3.321079 1_555
O52 Rb11 3.174590 1_555
O52 Rb10 3.223973 1_555
O53 Rb11 3.306196 1_555
O53 Rb9 3.338255 1_556
O54 Rb0 3.314687 1_555
O54 Rb2 3.321072 1_554
O55 Rb1 3.306189 1_555
O55 Rb0 3.338262 1_555
O56 Rb1 3.174590 1_555
O56 Rb2 3.223980 1_555
O57 Rb3 3.174590 1_555
O57 Rb5 3.223973 1_554
O58 Rb3 3.306196 1_555
O58 Rb4 3.338255 1_555
O59 Rb4 3.314687 1_555
O59 Rb5 3.321079 1_555
