# generated using pymatgen
data_SrCaTiMnO5
_symmetry_space_group_name_H-M   'P 1'
_cell_length_a   11.12430154
_cell_length_b   11.35226009
_cell_length_c   17.51480358
_cell_angle_alpha   108.92019824
_cell_angle_beta   108.63750821
_cell_angle_gamma   90.00655194
_symmetry_Int_Tables_number   1
_chemical_formula_structural   SrCaTiMnO5
_chemical_formula_sum   'Sr16 Ca16 Ti16 Mn16 O80'
_cell_volume   1969.32118660
_cell_formula_units_Z   16
loop_
 _symmetry_equiv_pos_site_id
 _symmetry_equiv_pos_as_xyz
  1  'x, y, z'
loop_
 _atom_site_type_symbol
 _atom_site_label
 _atom_site_symmetry_multiplicity
 _atom_site_fract_x
 _atom_site_fract_y
 _atom_site_fract_z
 _atom_site_occupancy
  Sr  Sr0  1  0.30757700  0.56335200  0.61499000  1
  Sr  Sr1  1  0.80623800  0.06224700  0.61185900  1
  Sr  Sr2  1  0.80860300  0.56336000  0.61481200  1
  Sr  Sr3  1  0.19112100  0.43440000  0.38284100  1
  Sr  Sr4  1  0.19483000  0.43875000  0.88969000  1
  Sr  Sr5  1  0.69132800  0.43418900  0.38259000  1
  Sr  Sr6  1  0.69152400  0.93269600  0.38269500  1
  Sr  Sr7  1  0.69603100  0.93666900  0.88951900  1
  Sr  Sr8  1  0.05868400  0.29813300  0.61303800  1
  Sr  Sr9  1  0.05872200  0.80188000  0.61401200  1
  Sr  Sr10  1  0.55768100  0.30000100  0.61404300  1
  Sr  Sr11  1  0.55739300  0.80007500  0.61313600  1
  Sr  Sr12  1  0.44112600  0.19832200  0.38271400  1
  Sr  Sr13  1  0.44432900  0.19976100  0.88664300  1
  Sr  Sr14  1  0.94176300  0.19828700  0.38268400  1
  Sr  Sr15  1  0.94373800  0.20074400  0.88831900  1
  Ca  Ca0  1  0.30183400  0.06839500  0.11053500  1
  Ca  Ca1  1  0.30299400  0.06504300  0.60882400  1
  Ca  Ca2  1  0.30080500  0.56837400  0.11399700  1
  Ca  Ca3  1  0.80026700  0.06783500  0.11019600  1
  Ca  Ca4  1  0.80183400  0.56866800  0.11404200  1
  Ca  Ca5  1  0.19137200  0.92945000  0.38560900  1
  Ca  Ca6  1  0.19382400  0.93442200  0.89249300  1
  Ca  Ca7  1  0.69298200  0.43608700  0.89280800  1
  Ca  Ca8  1  0.05089200  0.29242000  0.11067500  1
  Ca  Ca9  1  0.05165300  0.79440800  0.11281200  1
  Ca  Ca10  1  0.55010700  0.29196100  0.10934200  1
  Ca  Ca11  1  0.55062600  0.79354800  0.11014000  1
  Ca  Ca12  1  0.43765500  0.70545200  0.38560400  1
  Ca  Ca13  1  0.44065200  0.70735700  0.89137100  1
  Ca  Ca14  1  0.93954300  0.70477700  0.38594100  1
  Ca  Ca15  1  0.94298600  0.70704800  0.89281800  1
  Ti  Ti0  1  0.00382900  0.00060000  0.00439900  1
  Ti  Ti1  1  0.00197200  0.99760200  0.49791600  1
  Ti  Ti2  1  0.99989000  0.50259000  0.00284000  1
  Ti  Ti3  1  0.99798700  0.50014200  0.49756800  1
  Ti  Ti4  1  0.50072200  0.00041500  0.00303400  1
  Ti  Ti5  1  0.49689200  0.99833000  0.49805200  1
  Ti  Ti6  1  0.50232700  0.50265300  0.00287600  1
  Ti  Ti7  1  0.49820300  0.49960100  0.49754500  1
  Ti  Ti8  1  0.25132100  0.25135600  0.00322000  1
  Ti  Ti9  1  0.24876800  0.24734100  0.49719800  1
  Ti  Ti10  1  0.25182200  0.75207700  0.00355800  1
  Ti  Ti11  1  0.24917900  0.74989700  0.49814400  1
  Ti  Ti12  1  0.75181500  0.25432700  0.00470800  1
  Ti  Ti13  1  0.74844400  0.24955400  0.49839300  1
  Ti  Ti14  1  0.75169400  0.74889200  0.00201000  1
  Ti  Ti15  1  0.74849600  0.74741700  0.49688300  1
  Mn  Mn0  1  0.10639500  0.08765200  0.24585000  1
  Mn  Mn1  1  0.11792700  0.09361400  0.75328200  1
  Mn  Mn2  1  0.10568900  0.59734900  0.24691700  1
  Mn  Mn3  1  0.11273900  0.60225500  0.75449300  1
  Mn  Mn4  1  0.60520200  0.08908100  0.24380000  1
  Mn  Mn5  1  0.60818500  0.09965900  0.75058300  1
  Mn  Mn6  1  0.60521200  0.59368300  0.24561000  1
  Mn  Mn7  1  0.61359900  0.59607900  0.75586100  1
  Mn  Mn8  1  0.35543300  0.40825100  0.24574500  1
  Mn  Mn9  1  0.36637200  0.40750800  0.75334300  1
  Mn  Mn10  1  0.35285300  0.89957000  0.24608900  1
  Mn  Mn11  1  0.35996500  0.90413800  0.75181800  1
  Mn  Mn12  1  0.85563900  0.40845800  0.24614000  1
  Mn  Mn13  1  0.86014000  0.41041100  0.75588800  1
  Mn  Mn14  1  0.85945300  0.89949100  0.24449900  1
  Mn  Mn15  1  0.86691800  0.90261400  0.75259500  1
  O  O0  1  0.12790500  0.11752500  0.48708400  1
  O  O1  1  0.13128400  0.12062000  0.98965000  1
  O  O2  1  0.12259000  0.62351000  0.48546200  1
  O  O3  1  0.12643500  0.62609400  0.98829800  1
  O  O4  1  0.62551200  0.12207100  0.48887700  1
  O  O5  1  0.62936100  0.12552400  0.99114900  1
  O  O6  1  0.62423100  0.62148300  0.48744500  1
  O  O7  1  0.62927000  0.62069200  0.98664100  1
  O  O8  1  0.14319400  0.38039000  0.01955100  1
  O  O9  1  0.13547000  0.37554400  0.50793100  1
  O  O10  1  0.14516500  0.88216700  0.01843200  1
  O  O11  1  0.13938900  0.87889300  0.50729300  1
  O  O12  1  0.64475000  0.38379600  0.02000500  1
  O  O13  1  0.63483200  0.37665800  0.50652700  1
  O  O14  1  0.64271900  0.87807900  0.01705800  1
  O  O15  1  0.63397400  0.87337200  0.50487200  1
  O  O16  1  0.37302800  0.11357300  0.48657100  1
  O  O17  1  0.37696200  0.11330800  0.98878200  1
  O  O18  1  0.37708500  0.61916100  0.48758700  1
  O  O19  1  0.38146600  0.61946600  0.98810800  1
  O  O20  1  0.87861500  0.11709000  0.49089400  1
  O  O21  1  0.88051300  0.11681900  0.99106200  1
  O  O22  1  0.87694100  0.61774100  0.48776700  1
  O  O23  1  0.87794300  0.61465900  0.98678200  1
  O  O24  1  0.39275700  0.38861900  0.01739700  1
  O  O25  1  0.38463800  0.38095400  0.50760800  1
  O  O26  1  0.39439700  0.88768600  0.01940100  1
  O  O27  1  0.38549100  0.88360400  0.51014300  1
  O  O28  1  0.89176500  0.38885000  0.01841300  1
  O  O29  1  0.88423300  0.38134400  0.50670500  1
  O  O30  1  0.89563300  0.88643800  0.01875500  1
  O  O31  1  0.88765900  0.87946600  0.50639900  1
  O  O32  1  0.08911800  0.09544100  0.12677900  1
  O  O33  1  0.08494900  0.07938600  0.62509700  1
  O  O34  1  0.08504500  0.59871100  0.12560200  1
  O  O35  1  0.07341100  0.58446100  0.62457800  1
  O  O36  1  0.58658600  0.09637300  0.12512700  1
  O  O37  1  0.57617900  0.08299000  0.62337600  1
  O  O38  1  0.58548300  0.59882000  0.12548100  1
  O  O39  1  0.57416700  0.58127900  0.62592700  1
  O  O40  1  0.44550300  0.41441000  0.37183900  1
  O  O41  1  0.46082500  0.41132600  0.87801000  1
  O  O42  1  0.44714900  0.90867600  0.37224400  1
  O  O43  1  0.45689800  0.90890200  0.87760600  1
  O  O44  1  0.94694300  0.41411000  0.37168400  1
  O  O45  1  0.95714100  0.41145800  0.87863100  1
  O  O46  1  0.95372100  0.90934300  0.37193300  1
  O  O47  1  0.96006100  0.90734600  0.87856600  1
  O  O48  1  0.33844300  0.28106800  0.12638200  1
  O  O49  1  0.32584900  0.28577000  0.62491200  1
  O  O50  1  0.33416000  0.77651700  0.12564800  1
  O  O51  1  0.32213600  0.78773700  0.62448300  1
  O  O52  1  0.83778700  0.28163400  0.12681300  1
  O  O53  1  0.82377600  0.29589600  0.62648300  1
  O  O54  1  0.83811500  0.77512500  0.12423300  1
  O  O55  1  0.82510200  0.79010700  0.62359200  1
  O  O56  1  0.19684400  0.20709000  0.37186600  1
  O  O57  1  0.20531700  0.21613200  0.87831800  1
  O  O58  1  0.20652100  0.71380900  0.37251100  1
  O  O59  1  0.21294300  0.72218800  0.87879400  1
  O  O60  1  0.69712400  0.20360100  0.37194200  1
  O  O61  1  0.70006600  0.22039400  0.87780400  1
  O  O62  1  0.70702300  0.70464900  0.37169100  1
  O  O63  1  0.71565200  0.71620700  0.87809000  1
  O  O64  1  0.41705600  0.06715400  0.24004600  1
  O  O65  1  0.41829700  0.07175400  0.74226100  1
  O  O66  1  0.41854200  0.58370400  0.24938800  1
  O  O67  1  0.42980800  0.58415300  0.75996500  1
  O  O68  1  0.91769100  0.06961100  0.23937400  1
  O  O69  1  0.93300600  0.07078400  0.75040500  1
  O  O70  1  0.91862700  0.58381700  0.24966700  1
  O  O71  1  0.92921700  0.58376100  0.76067900  1
  O  O72  1  0.16633700  0.42196900  0.23985400  1
  O  O73  1  0.18144900  0.43230700  0.75164100  1
  O  O74  1  0.16625900  0.91498600  0.24874400  1
  O  O75  1  0.17919300  0.92395900  0.76051200  1
  O  O76  1  0.66568600  0.41892900  0.23897600  1
  O  O77  1  0.67566500  0.42483000  0.75980500  1
  O  O78  1  0.67110200  0.91760600  0.24009000  1
  O  O79  1  0.68303100  0.93380300  0.75225200  1
loop_
_geom_bond_atom_site_label_1
_geom_bond_atom_site_label_2
_geom_bond_distance
_geom_bond_site_symmetry_2
Ca0 O64 2.225072 1_555
Ca0 O48 2.358980 1_555
Ca0 O10 2.469766 1_545
Ca0 O32 2.479616 1_555
Ca0 O1 2.584708 1_554
Ca0 O26 2.596932 1_545
Ca0 O17 2.711093 1_554
Ca1 O65 2.254251 1_555
Ca1 O49 2.432900 1_555
Ca1 O33 2.530444 1_555
Ca1 O11 2.536509 1_545
Ca1 O27 2.603386 1_545
Ca1 O0 2.620075 1_555
Ca1 O16 2.706758 1_555
Ca1 O37 2.968680 1_555
Ca2 O66 2.261898 1_555
Ca2 O50 2.324068 1_555
Ca2 O34 2.487447 1_555
Ca2 O8 2.494133 1_555
Ca2 O24 2.634530 1_555
Ca2 O3 2.691700 1_554
Ca2 O19 2.845527 1_554
Ca3 O68 2.215211 1_555
Ca3 O52 2.369339 1_555
Ca3 O36 2.483199 1_555
Ca3 O14 2.503209 1_545
Ca3 O5 2.596759 1_554
Ca3 O30 2.622738 1_545
Ca3 O21 2.720835 1_554
Ca4 O70 2.263348 1_555
Ca4 O54 2.317407 1_555
Ca4 O12 2.467560 1_555
Ca4 O38 2.492726 1_555
Ca4 O28 2.612939 1_555
Ca4 O7 2.670217 1_554
Ca4 O23 2.813954 1_554
Ca5 O74 2.273345 1_555
Ca5 O58 2.394661 1_555
Ca5 O0 2.560738 1_565
Ca5 O46 2.580366 1_455
Ca5 O11 2.605195 1_555
Ca5 O16 2.626338 1_565
Ca5 O27 2.723517 1_555
Ca5 O42 2.931969 1_555
Ca6 O75 2.228374 1_555
Ca6 O59 2.359141 1_555
Ca6 O1 2.504427 1_565
Ca6 O47 2.542062 1_455
Ca6 O17 2.588575 1_565
Ca6 O10 2.668724 1_556
Ca6 O26 2.792084 1_556
Ca6 O43 3.025778 1_555
Ca7 O77 2.236118 1_555
Ca7 O61 2.380528 1_555
Ca7 O7 2.471129 1_555
Ca7 O41 2.518072 1_555
Ca7 O23 2.592843 1_555
Ca7 O12 2.687949 1_556
Ca7 O28 2.770057 1_556
Ca7 O45 3.032598 1_555
Ca8 O72 2.217159 1_555
Ca8 O32 2.365029 1_555
Ca8 O52 2.483043 1_455
Ca8 O28 2.502497 1_455
Ca8 O8 2.584520 1_555
Ca8 O21 2.590004 1_454
Ca8 O1 2.761850 1_554
Ca9 O74 2.261309 1_555
Ca9 O34 2.322376 1_555
Ca9 O54 2.462264 1_455
Ca9 O30 2.471194 1_455
Ca9 O10 2.640850 1_555
Ca9 O23 2.668763 1_454
Ca9 O3 2.748941 1_554
Ca10 O76 2.212978 1_555
Ca10 O36 2.344723 1_555
Ca10 O48 2.474187 1_555
Ca10 O24 2.491193 1_555
Ca10 O12 2.598899 1_555
Ca10 O17 2.627600 1_554
Ca10 O5 2.695011 1_554
Ca11 O78 2.220615 1_555
Ca11 O38 2.329832 1_555
Ca11 O26 2.454539 1_555
Ca11 O50 2.522258 1_555
Ca11 O19 2.589229 1_554
Ca11 O14 2.590405 1_555
Ca11 O7 2.784269 1_554
Ca12 O66 2.277012 1_555
Ca12 O42 2.398797 1_555
Ca12 O58 2.511967 1_555
Ca12 O18 2.551080 1_555
Ca12 O27 2.670835 1_555
Ca12 O6 2.671139 1_555
Ca12 O15 2.695888 1_555
Ca13 O67 2.236702 1_555
Ca13 O43 2.389805 1_555
Ca13 O19 2.471630 1_555
Ca13 O59 2.482133 1_555
Ca13 O7 2.642384 1_555
Ca13 O26 2.691609 1_556
Ca13 O14 2.779295 1_556
Ca14 O70 2.270707 1_555
Ca14 O46 2.423268 1_555
Ca14 O62 2.517944 1_555
Ca14 O22 2.564843 1_555
Ca14 O31 2.604302 1_555
Ca14 O2 2.609702 1_655
Ca14 O11 2.760668 1_655
Ca14 O58 3.057531 1_655
Ca15 O71 2.238627 1_555
Ca15 O47 2.380548 1_555
Ca15 O63 2.464415 1_555
Ca15 O23 2.492474 1_555
Ca15 O3 2.573254 1_655
Ca15 O30 2.668326 1_556
Ca15 O10 2.801942 1_656
Mn0 O32 2.063369 1_555
Mn0 O68 2.072222 1_455
Mn0 O74 2.081200 1_545
Mn0 O56 2.088503 1_555
Mn1 O69 2.055868 1_455
Mn1 O75 2.072001 1_545
Mn1 O57 2.083074 1_555
Mn1 O33 2.107055 1_555
Mn2 O34 2.068142 1_555
Mn2 O72 2.080463 1_555
Mn2 O58 2.093220 1_555
Mn2 O70 2.103567 1_455
Mn3 O73 2.066675 1_555
Mn3 O59 2.088619 1_555
Mn3 O71 2.092796 1_455
Mn3 O35 2.115523 1_555
Mn4 O36 2.050977 1_555
Mn4 O78 2.068756 1_545
Mn4 O64 2.085237 1_555
Mn4 O60 2.100866 1_555
Mn5 O79 2.063898 1_545
Mn5 O37 2.084738 1_555
Mn5 O65 2.087300 1_555
Mn5 O61 2.109931 1_555
Mn6 O38 2.064694 1_555
Mn6 O76 2.074252 1_555
Mn6 O62 2.084041 1_555
Mn6 O66 2.102856 1_555
Mn7 O63 2.069931 1_555
Mn7 O67 2.074572 1_555
Mn7 O77 2.077925 1_555
Mn7 O39 2.124555 1_555
Mn8 O48 2.069038 1_555
Mn8 O72 2.081258 1_555
Mn8 O66 2.086334 1_555
Mn8 O40 2.090891 1_555
Mn9 O73 2.068416 1_555
Mn9 O67 2.080692 1_555
Mn9 O41 2.084672 1_555
Mn9 O49 2.123405 1_555
Mn10 O50 2.062325 1_555
Mn10 O64 2.078277 1_565
Mn10 O42 2.088945 1_555
Mn10 O74 2.097126 1_555
Mn11 O75 2.071568 1_555
Mn11 O65 2.084590 1_565
Mn11 O51 2.094288 1_555
Mn11 O43 2.103292 1_555
Mn12 O52 2.064854 1_555
Mn12 O76 2.082139 1_555
Mn12 O70 2.085672 1_555
Mn12 O44 2.086101 1_555
Mn13 O45 2.070497 1_555
Mn13 O71 2.078838 1_555
Mn13 O77 2.079813 1_555
Mn13 O53 2.119850 1_555
Mn14 O54 2.058744 1_555
Mn14 O68 2.075282 1_565
Mn14 O78 2.084563 1_555
Mn14 O46 2.106186 1_555
Mn15 O69 2.062003 1_565
Mn15 O79 2.074519 1_555
Mn15 O47 2.099152 1_555
Mn15 O55 2.099869 1_555
O0 Ti9 1.920659 1_555
O0 Ti1 2.046681 1_545
O0 Sr14 2.671982 1_455
O0 Sr8 2.795766 1_555
O1 Ti8 1.900059 1_556
O1 Ti0 2.096506 1_556
O1 Sr15 2.647759 1_455
O2 Ti11 1.919357 1_555
O2 Ti3 2.075498 1_455
O2 Sr3 2.606622 1_555
O2 Sr9 2.782190 1_555
O2 Sr0 2.805185 1_555
O3 Ti10 1.890989 1_556
O3 Ti2 2.114853 1_456
O3 Sr4 2.557960 1_555
O4 Ti13 1.920888 1_555
O4 Ti5 2.083080 1_545
O4 Sr6 2.626817 1_545
O4 Sr12 2.649622 1_555
O4 Sr1 2.706283 1_555
O4 Sr10 2.764306 1_555
O5 Ti12 1.902013 1_556
O5 Ti4 2.118956 1_556
O5 Sr7 2.585404 1_545
O5 Sr13 2.624897 1_555
O6 Ti15 1.918943 1_555
O6 Ti7 2.056228 1_555
O6 Sr5 2.606706 1_555
O6 Sr2 2.765678 1_555
O6 Sr11 2.767991 1_555
O7 Ti14 1.885849 1_556
O7 Ti6 2.091406 1_556
O8 Ti8 1.903403 1_555
O8 Ti2 2.125335 1_455
O8 Sr4 2.784669 1_554
O8 Sr15 2.839849 1_454
O9 Ti9 1.927810 1_555
O9 Ti3 2.088611 1_455
O9 Sr0 2.615170 1_555
O9 Sr8 2.635333 1_555
O9 Sr3 2.728735 1_555
O9 Sr14 2.760407 1_455
O10 Ti10 1.898700 1_555
O10 Ti0 2.075535 1_565
O11 Ti11 1.906599 1_555
O11 Ti1 2.040441 1_555
O11 Sr9 2.682355 1_555
O12 Ti12 1.897240 1_555
O12 Ti6 2.092842 1_555
O12 Sr13 2.880507 1_554
O13 Ti13 1.918809 1_555
O13 Ti7 2.067081 1_555
O13 Sr2 2.622018 1_555
O13 Sr10 2.671256 1_555
O13 Sr5 2.706454 1_555
O13 Sr12 2.758593 1_555
O14 Ti14 1.908883 1_555
O14 Ti4 2.111396 1_565
O14 Sr7 2.755768 1_554
O15 Ti15 1.916179 1_555
O15 Ti5 2.084699 1_555
O15 Sr1 2.622850 1_565
O15 Sr11 2.658824 1_555
O15 Sr6 2.693089 1_555
O16 Ti5 1.909066 1_545
O16 Ti9 2.057448 1_555
O16 Sr12 2.612260 1_555
O16 Sr10 2.772492 1_555
O17 Ti4 1.894312 1_556
O17 Ti8 2.107797 1_556
O17 Sr13 2.592389 1_555
O18 Ti7 1.921384 1_555
O18 Ti11 2.062064 1_555
O18 Sr3 2.668797 1_555
O18 Sr11 2.707005 1_555
O18 Sr0 2.828094 1_555
O19 Ti6 1.906216 1_556
O19 Ti10 2.098869 1_556
O19 Sr4 2.628492 1_555
O20 Ti1 1.933636 1_645
O20 Ti13 2.090316 1_555
O20 Sr14 2.630393 1_555
O20 Sr6 2.685202 1_545
O20 Sr8 2.687378 1_655
O20 Sr1 2.733182 1_555
O21 Ti0 1.916391 1_656
O21 Ti12 2.126238 1_556
O21 Sr15 2.561508 1_555
O21 Sr7 2.620044 1_545
O22 Ti3 1.904264 1_555
O22 Ti15 2.056242 1_555
O22 Sr5 2.660349 1_555
O22 Sr9 2.737118 1_655
O22 Sr2 2.807554 1_555
O23 Ti2 1.877914 1_556
O23 Ti14 2.083750 1_556
O24 Ti6 1.907227 1_555
O24 Ti8 2.112844 1_555
O24 Sr13 2.797560 1_554
O24 Sr4 2.802302 1_554
O25 Ti7 1.933164 1_555
O25 Ti9 2.064570 1_555
O25 Sr10 2.615929 1_555
O25 Sr0 2.658025 1_555
O25 Sr12 2.723280 1_555
O25 Sr3 2.762453 1_555
O26 Ti4 1.890279 1_565
O26 Ti10 2.098481 1_555
O27 Ti5 1.903441 1_555
O27 Ti11 2.058258 1_555
O27 Sr11 2.591322 1_555
O28 Ti2 1.904234 1_555
O28 Ti12 2.082407 1_555
O28 Sr15 2.788025 1_554
O29 Ti3 1.927364 1_555
O29 Ti13 2.063738 1_555
O29 Sr8 2.637841 1_655
O29 Sr2 2.654054 1_555
O29 Sr14 2.721772 1_555
O29 Sr5 2.748622 1_555
O30 Ti0 1.896286 1_665
O30 Ti14 2.119047 1_555
O30 Sr7 2.829137 1_554
O31 Ti1 1.920246 1_655
O31 Ti15 2.084240 1_555
O31 Sr9 2.595001 1_655
O31 Sr1 2.668703 1_565
O31 Sr6 2.765485 1_555
O32 Ti0 1.963959 1_555
O33 Ti1 2.005096 1_545
O33 Sr8 2.568556 1_555
O33 Sr1 3.035726 1_455
O33 Sr9 3.100689 1_545
O34 Ti2 1.971697 1_455
O35 Ti3 1.998704 1_455
O35 Sr9 2.535730 1_555
O35 Sr0 2.669260 1_555
O35 Sr2 2.900967 1_455
O35 Sr8 3.191536 1_555
O36 Ti4 1.963538 1_555
O37 Ti5 1.978396 1_545
O37 Sr10 2.525469 1_555
O37 Sr1 2.635370 1_555
O37 Sr11 3.161226 1_545
O38 Ti6 1.966898 1_555
O39 Ti7 2.015742 1_555
O39 Sr11 2.566840 1_555
O39 Sr2 2.679470 1_555
O39 Sr0 2.912823 1_555
O39 Sr10 3.133298 1_555
O40 Ti7 1.980040 1_555
O40 Sr12 2.522935 1_555
O40 Sr5 2.684660 1_555
O40 Sr3 2.901180 1_555
O41 Ti6 1.988751 1_556
O41 Sr13 2.465368 1_555
O41 Sr4 3.039789 1_555
O42 Ti5 1.990891 1_555
O42 Sr6 2.673484 1_555
O43 Ti4 1.994587 1_566
O43 Sr7 2.611873 1_555
O44 Ti3 1.985141 1_555
O44 Sr14 2.521212 1_555
O44 Sr3 2.664766 1_655
O44 Sr5 2.914315 1_555
O45 Ti2 1.976945 1_556
O45 Sr15 2.460159 1_555
O45 Sr4 2.599701 1_655
O46 Ti1 1.992500 1_655
O46 Sr6 2.988724 1_555
O47 Ti0 2.004016 1_666
O47 Sr7 3.015528 1_555
O48 Ti8 1.974387 1_555
O49 Ti9 2.017512 1_555
O49 Sr10 2.654632 1_555
O49 Sr8 2.918876 1_555
O49 Sr0 3.214681 1_555
O50 Ti10 1.962632 1_555
O51 Ti11 1.993823 1_555
O51 Sr0 2.500106 1_555
O51 Sr11 2.694175 1_555
O51 Sr9 2.884747 1_555
O52 Ti12 1.961440 1_555
O53 Ti13 2.011228 1_555
O53 Sr1 2.581954 1_555
O53 Sr8 2.698524 1_655
O53 Sr10 2.899369 1_555
O53 Sr2 3.109677 1_555
O54 Ti14 1.966386 1_555
O55 Ti15 1.994975 1_555
O55 Sr2 2.531487 1_555
O55 Sr9 2.663319 1_655
O55 Sr11 2.929198 1_555
O55 Sr1 3.164647 1_565
O56 Ti9 1.974895 1_555
O56 Sr3 2.527068 1_555
O56 Sr12 2.667011 1_555
O56 Sr14 2.907527 1_455
O57 Ti8 1.981068 1_556
O57 Sr4 2.475600 1_555
O57 Sr13 2.625858 1_555
O57 Sr15 2.978949 1_455
O58 Ti11 1.995718 1_555
O59 Ti10 1.998102 1_556
O60 Ti13 1.986393 1_555
O60 Sr5 2.565618 1_555
O60 Sr14 2.669344 1_555
O60 Sr12 2.915451 1_555
O60 Sr6 3.143312 1_545
O61 Ti12 2.011724 1_556
O61 Sr15 2.671922 1_555
O61 Sr13 2.911551 1_555
O62 Ti15 1.979782 1_555
O62 Sr6 2.542986 1_555
O62 Sr5 3.145654 1_555
O63 Ti14 1.982603 1_556
O63 Sr7 2.460607 1_555
O64 Sr12 2.385847 1_555
O65 Sr13 2.395667 1_555
O67 Sr0 2.399272 1_555
O68 Sr14 2.387129 1_555
O69 Sr15 2.351647 1_555
O69 Sr1 2.355151 1_555
O71 Sr2 2.409627 1_555
O72 Sr3 2.386916 1_555
O73 Sr4 2.351387 1_555
O73 Sr8 2.358169 1_555
O75 Sr9 2.407526 1_555
O76 Sr5 2.386895 1_555
O77 Sr10 2.400058 1_555
O78 Sr6 2.383127 1_555
O79 Sr7 2.351429 1_555
O79 Sr11 2.370460 1_555
