# generated using pymatgen
data_Tb4BClO7
_symmetry_space_group_name_H-M   'P 1'
_cell_length_a   8.13276800
_cell_length_b   8.70844100
_cell_length_c   12.42891221
_cell_angle_alpha   59.04078381
_cell_angle_beta   90.00000000
_cell_angle_gamma   90.00000000
_symmetry_Int_Tables_number   1
_chemical_formula_structural   Tb4BClO7
_chemical_formula_sum   'Tb16 B4 Cl4 O28'
_cell_volume   754.85426129
_cell_formula_units_Z   4
loop_
 _symmetry_equiv_pos_site_id
 _symmetry_equiv_pos_as_xyz
  1  'x, y, z'
loop_
 _atom_site_type_symbol
 _atom_site_label
 _atom_site_symmetry_multiplicity
 _atom_site_fract_x
 _atom_site_fract_y
 _atom_site_fract_z
 _atom_site_occupancy
  Tb  Tb0  1  0.62855600  0.79946500  0.21938600  1
  Tb  Tb1  1  0.87144400  0.79946500  0.71938600  1
  Tb  Tb2  1  0.37144400  0.20053500  0.78061400  1
  Tb  Tb3  1  0.12855600  0.20053500  0.28061400  1
  Tb  Tb4  1  0.61694600  0.41796600  0.91357000  1
  Tb  Tb5  1  0.88305400  0.41796600  0.41357000  1
  Tb  Tb6  1  0.38305400  0.58203400  0.08643000  1
  Tb  Tb7  1  0.11694600  0.58203400  0.58643000  1
  Tb  Tb8  1  0.63578200  0.57317000  0.58027000  1
  Tb  Tb9  1  0.86421800  0.57317000  0.08027000  1
  Tb  Tb10  1  0.36421800  0.42683000  0.41973000  1
  Tb  Tb11  1  0.13578200  0.42683000  0.91973000  1
  Tb  Tb12  1  0.61574600  0.18463100  0.27852500  1
  Tb  Tb13  1  0.88425400  0.18463100  0.77852500  1
  Tb  Tb14  1  0.38425400  0.81536900  0.72147500  1
  Tb  Tb15  1  0.11574600  0.81536900  0.22147500  1
  B  B0  1  0.87217100  0.86872500  0.41293700  1
  B  B1  1  0.62782900  0.86872500  0.91293700  1
  B  B2  1  0.12782900  0.13127500  0.58706300  1
  B  B3  1  0.37217100  0.13127500  0.08706300  1
  Cl  Cl0  1  0.86325900  0.11814400  0.03676000  1
  Cl  Cl1  1  0.63674100  0.11814400  0.53676000  1
  Cl  Cl2  1  0.13674100  0.88185600  0.96324000  1
  Cl  Cl3  1  0.36325900  0.88185600  0.46324000  1
  O  O0  1  0.62286300  0.54131900  0.40329500  1
  O  O1  1  0.87713700  0.54131900  0.90329500  1
  O  O2  1  0.37713700  0.45868100  0.59670500  1
  O  O3  1  0.12286300  0.45868100  0.09670500  1
  O  O4  1  0.63569500  0.30605600  0.77719800  1
  O  O5  1  0.86430500  0.30605600  0.27719800  1
  O  O6  1  0.36430500  0.69394400  0.22280200  1
  O  O7  1  0.13569500  0.69394400  0.72280200  1
  O  O8  1  0.61550700  0.67470400  0.72095100  1
  O  O9  1  0.88449300  0.67470400  0.22095100  1
  O  O10  1  0.38449300  0.32529600  0.27904900  1
  O  O11  1  0.11550700  0.32529600  0.77904900  1
  O  O12  1  0.62386100  0.43471900  0.09158600  1
  O  O13  1  0.87613900  0.43471900  0.59158600  1
  O  O14  1  0.37613900  0.56528100  0.90841400  1
  O  O15  1  0.12386100  0.56528100  0.40841400  1
  O  O16  1  0.88123400  0.77801200  0.54292300  1
  O  O17  1  0.61876600  0.77801200  0.04292300  1
  O  O18  1  0.11876600  0.22198800  0.45707700  1
  O  O19  1  0.38123400  0.22198800  0.95707700  1
  O  O20  1  0.01393200  0.92358200  0.34313300  1
  O  O21  1  0.48606800  0.92358200  0.84313300  1
  O  O22  1  0.98606800  0.07641800  0.65686700  1
  O  O23  1  0.51393200  0.07641800  0.15686700  1
  O  O24  1  0.71968000  0.89106700  0.35828500  1
  O  O25  1  0.78032000  0.89106700  0.85828500  1
  O  O26  1  0.28032000  0.10893300  0.64171500  1
  O  O27  1  0.21968000  0.10893300  0.14171500  1
loop_
_geom_bond_atom_site_label_1
_geom_bond_atom_site_label_2
_geom_bond_distance
_geom_bond_site_symmetry_2
B0 O20 1.372480 1_655
B0 O24 1.378881 1_555
B0 O16 1.387987 1_555
B1 O21 1.372480 1_555
B1 O25 1.378881 1_555
B1 O17 1.387987 1_556
B2 O22 1.372480 1_455
B2 O26 1.378881 1_555
B2 O18 1.387987 1_555
B3 O23 1.372480 1_555
B3 O27 1.378881 1_555
B3 O19 1.387987 1_554
Cl0 Tb13 2.958688 1_554
Cl0 Tb4 3.010201 1_554
Cl0 Tb0 3.164859 1_545
Cl0 Tb15 3.195530 1_645
Cl0 Tb11 3.198650 1_654
Cl1 Tb12 2.958688 1_555
Cl1 Tb5 3.010201 1_555
Cl1 Tb1 3.164859 1_545
Cl1 Tb14 3.195530 1_545
Cl1 Tb10 3.198650 1_555
Cl2 Tb15 2.958688 1_556
Cl2 Tb6 3.010201 1_556
Cl2 Tb2 3.164859 1_565
Cl2 Tb13 3.195530 1_465
Cl2 Tb9 3.198650 1_456
Cl3 Tb14 2.958688 1_555
Cl3 Tb7 3.010201 1_555
Cl3 Tb3 3.164859 1_565
Cl3 Tb12 3.195530 1_565
Cl3 Tb8 3.198650 1_555
O0 Tb0 2.234694 1_555
O0 Tb10 2.291495 1_555
O0 Tb5 2.346671 1_555
O0 Tb8 2.356684 1_555
O1 Tb1 2.234694 1_555
O1 Tb11 2.291495 1_655
O1 Tb4 2.346671 1_555
O1 Tb9 2.356684 1_556
O2 Tb2 2.234694 1_555
O2 Tb8 2.291495 1_555
O2 Tb7 2.346671 1_555
O2 Tb10 2.356684 1_555
O3 Tb3 2.234694 1_555
O3 Tb9 2.291495 1_455
O3 Tb6 2.346671 1_555
O3 Tb11 2.356684 1_554
O4 Tb13 2.277460 1_555
O4 Tb2 2.329094 1_555
O4 Tb8 2.354557 1_555
O4 Tb4 2.354867 1_555
O5 Tb12 2.277460 1_555
O5 Tb3 2.329094 1_655
O5 Tb9 2.354557 1_555
O5 Tb5 2.354867 1_555
O6 Tb15 2.277460 1_555
O6 Tb0 2.329094 1_555
O6 Tb10 2.354557 1_555
O6 Tb6 2.354867 1_555
O7 Tb14 2.277460 1_555
O7 Tb1 2.329094 1_455
O7 Tb11 2.354557 1_555
O7 Tb7 2.354867 1_555
O8 Tb14 2.246318 1_555
O8 Tb4 2.285455 1_555
O8 Tb8 2.336011 1_555
O8 Tb1 2.343417 1_555
O9 Tb15 2.246318 1_655
O9 Tb5 2.285455 1_555
O9 Tb9 2.336011 1_555
O9 Tb0 2.343417 1_555
O10 Tb12 2.246318 1_555
O10 Tb6 2.285455 1_555
O10 Tb10 2.336011 1_555
O10 Tb3 2.343417 1_555
O11 Tb13 2.246318 1_455
O11 Tb7 2.285455 1_555
O11 Tb11 2.336011 1_555
O11 Tb2 2.343417 1_555
O12 Tb12 2.222547 1_555
O12 Tb9 2.262769 1_555
O12 Tb4 2.291705 1_554
O12 Tb6 2.323952 1_555
O13 Tb13 2.222547 1_555
O13 Tb8 2.262769 1_555
O13 Tb5 2.291705 1_555
O13 Tb7 2.323952 1_655
O14 Tb14 2.222547 1_555
O14 Tb11 2.262769 1_555
O14 Tb6 2.291705 1_556
O14 Tb4 2.323952 1_555
O15 Tb15 2.222547 1_555
O15 Tb10 2.262769 1_555
O15 Tb7 2.291705 1_555
O15 Tb5 2.323952 1_455
O16 Tb1 2.296329 1_555
O16 Tb7 2.435253 1_655
O16 Tb8 2.555485 1_555
O17 Tb0 2.296329 1_555
O17 Tb6 2.435253 1_555
O17 Tb9 2.555485 1_555
O18 Tb3 2.296329 1_555
O18 Tb5 2.435253 1_455
O18 Tb10 2.555485 1_555
O19 Tb2 2.296329 1_555
O19 Tb4 2.435253 1_555
O19 Tb11 2.555485 1_555
O20 Tb15 2.307837 1_555
O20 Tb3 2.315504 1_565
O21 Tb14 2.307837 1_555
O21 Tb2 2.315504 1_565
O22 Tb13 2.307837 1_555
O22 Tb1 2.315504 1_545
O23 Tb12 2.307837 1_555
O23 Tb0 2.315504 1_545
O24 Tb0 2.362787 1_555
O24 Tb12 2.371789 1_565
O24 Tb8 2.807725 1_555
O25 Tb1 2.362787 1_555
O25 Tb13 2.371789 1_565
O25 Tb9 2.807725 1_556
O26 Tb2 2.362787 1_555
O26 Tb14 2.371789 1_545
O26 Tb10 2.807725 1_555
O27 Tb3 2.362787 1_555
O27 Tb15 2.371789 1_545
O27 Tb11 2.807725 1_554
