# generated using pymatgen
data_K2ZrSi3O11
_symmetry_space_group_name_H-M   'P 1'
_cell_length_a   6.77302289
_cell_length_b   6.77302289
_cell_length_c   12.10596800
_cell_angle_alpha   90.00000000
_cell_angle_beta   90.00000000
_cell_angle_gamma   105.46499007
_symmetry_Int_Tables_number   1
_chemical_formula_structural   K2ZrSi3O11
_chemical_formula_sum   'K4 Zr2 Si6 O22'
_cell_volume   535.24008441
_cell_formula_units_Z   2
loop_
 _symmetry_equiv_pos_site_id
 _symmetry_equiv_pos_as_xyz
  1  'x, y, z'
loop_
 _atom_site_type_symbol
 _atom_site_label
 _atom_site_symmetry_multiplicity
 _atom_site_fract_x
 _atom_site_fract_y
 _atom_site_fract_z
 _atom_site_occupancy
  K  K0  1  0.52767900  0.12522200  0.54991200  1
  K  K1  1  0.12522200  0.52767900  0.45008800  1
  K  K2  1  0.47232100  0.87477800  0.04991200  1
  K  K3  1  0.87477800  0.47232100  0.95008800  1
  Zr  Zr0  1  0.40753700  0.59246300  0.75000000  1
  Zr  Zr1  1  0.59246300  0.40753700  0.25000000  1
  Si  Si0  1  0.67322100  0.67322100  0.50000000  1
  Si  Si1  1  0.32677900  0.32677900  0.00000000  1
  Si  Si2  1  0.28960900  0.06547500  0.79112500  1
  Si  Si3  1  0.06547500  0.28960900  0.20887500  1
  Si  Si4  1  0.71039100  0.93452500  0.29112500  1
  Si  Si5  1  0.93452500  0.71039100  0.70887500  1
  O  O0  1  0.47479100  0.65220000  0.57873000  1
  O  O1  1  0.65220000  0.47479100  0.42127000  1
  O  O2  1  0.52520900  0.34780000  0.07873000  1
  O  O3  1  0.34780000  0.52520900  0.92127000  1
  O  O4  1  0.36645700  0.27791800  0.72345600  1
  O  O5  1  0.27791800  0.36645700  0.27654400  1
  O  O6  1  0.63354300  0.72208200  0.22345600  1
  O  O7  1  0.72208200  0.63354300  0.77654400  1
  O  O8  1  0.28897400  0.11451200  0.92537400  1
  O  O9  1  0.11451200  0.28897400  0.07462600  1
  O  O10  1  0.71102600  0.88548800  0.42537400  1
  O  O11  1  0.88548800  0.71102600  0.57462600  1
  O  O12  1  0.43384100  0.91034200  0.77427700  1
  O  O13  1  0.91034200  0.43384100  0.22572300  1
  O  O14  1  0.56615900  0.08965800  0.27427700  1
  O  O15  1  0.08965800  0.56615900  0.72572300  1
  O  O16  1  0.05296800  0.94703200  0.75000000  1
  O  O17  1  0.94703200  0.05296800  0.25000000  1
  O  O18  1  0.79327400  0.05031000  0.90260600  1
  O  O19  1  0.05031000  0.79327400  0.09739400  1
  O  O20  1  0.20672600  0.94969000  0.40260600  1
  O  O21  1  0.94969000  0.20672600  0.59739400  1
loop_
_geom_bond_atom_site_label_1
_geom_bond_atom_site_label_2
_geom_bond_distance
_geom_bond_site_symmetry_2
K0 O4 2.697795 1_555
K0 O10 2.743524 1_545
K0 O1 2.770812 1_555
K0 O20 2.817937 1_545
K0 O21 2.821968 1_555
K0 O12 3.066969 1_545
K0 O0 3.146785 1_545
K1 O5 2.697795 1_555
K1 O11 2.743524 1_455
K1 O0 2.770812 1_555
K1 O21 2.817937 1_455
K1 O20 2.821968 1_555
K1 O13 3.066969 1_455
K1 O1 3.146785 1_455
K2 O6 2.697795 1_555
K2 O8 2.743524 1_564
K2 O3 2.770812 1_554
K2 O18 2.817937 1_564
K2 O19 2.821968 1_555
K2 O14 3.066969 1_565
K2 O2 3.146785 1_565
K3 O7 2.697795 1_555
K3 O9 2.743524 1_656
K3 O2 2.770812 1_556
K3 O19 2.817937 1_656
K3 O18 2.821968 1_555
K3 O15 3.066969 1_655
K3 O3 3.146785 1_655
O0 Si0 1.622618 1_555
O0 Zr0 2.138188 1_555
O1 Si0 1.622618 1_555
O1 Zr1 2.138188 1_555
O2 Si1 1.622618 1_555
O2 Zr1 2.138188 1_555
O3 Si1 1.622618 1_556
O3 Zr0 2.138188 1_555
O4 Si2 1.616470 1_555
O4 Zr0 2.098392 1_555
O5 Si3 1.616470 1_555
O5 Zr1 2.098392 1_555
O6 Si4 1.616470 1_555
O6 Zr1 2.098392 1_555
O7 Si5 1.616470 1_555
O7 Zr0 2.098392 1_555
O8 Si1 1.659024 1_556
O8 Si2 1.659039 1_555
O9 Si1 1.659024 1_555
O9 Si3 1.659039 1_555
O10 Si0 1.659024 1_555
O10 Si4 1.659039 1_555
O11 Si0 1.659024 1_555
O11 Si5 1.659039 1_555
O12 Si2 1.627057 1_565
O12 Zr0 2.132832 1_555
O13 Si3 1.627057 1_655
O13 Zr1 2.132832 1_555
O14 Si4 1.627057 1_545
O14 Zr1 2.132832 1_555
O15 Si5 1.627057 1_455
O15 Zr0 2.132832 1_555
O16 Si5 1.665713 1_455
O16 Si2 1.665713 1_565
O17 Si3 1.665713 1_655
O17 Si4 1.665713 1_545
