# generated using pymatgen
data_SrMg2
_symmetry_space_group_name_H-M   'P 1'
_cell_length_a   13.56496670
_cell_length_b   13.56496670
_cell_length_c   15.68159545
_cell_angle_alpha   87.29234028
_cell_angle_beta   87.29234028
_cell_angle_gamma   34.54804656
_symmetry_Int_Tables_number   1
_chemical_formula_structural   SrMg2
_chemical_formula_sum   'Sr16 Mg32'
_cell_volume   1634.38005951
_cell_formula_units_Z   16
loop_
 _symmetry_equiv_pos_site_id
 _symmetry_equiv_pos_as_xyz
  1  'x, y, z'
loop_
 _atom_site_type_symbol
 _atom_site_label
 _atom_site_symmetry_multiplicity
 _atom_site_fract_x
 _atom_site_fract_y
 _atom_site_fract_z
 _atom_site_occupancy
  Sr  Sr0_0  1  0.32758300  0.32758300  0.13763100  1
  Sr  Sr0_1  1  0.32758300  0.32758300  0.63763100  1
  Sr  Sr0_2  1  0.32758300  0.82758300  0.13763100  1
  Sr  Sr0_3  1  0.32758300  0.82758300  0.63763100  1
  Sr  Sr0_4  1  0.82758300  0.32758300  0.13763100  1
  Sr  Sr0_5  1  0.82758300  0.32758300  0.63763100  1
  Sr  Sr0_6  1  0.82758300  0.82758300  0.13763100  1
  Sr  Sr0_7  1  0.82758300  0.82758300  0.63763100  1
  Sr  Sr1_0  1  0.45738400  0.45738400  0.30082800  1
  Sr  Sr1_1  1  0.45738400  0.45738400  0.80082800  1
  Sr  Sr1_2  1  0.45738400  0.95738400  0.30082800  1
  Sr  Sr1_3  1  0.45738400  0.95738400  0.80082800  1
  Sr  Sr1_4  1  0.95738400  0.45738400  0.30082800  1
  Sr  Sr1_5  1  0.95738400  0.45738400  0.80082800  1
  Sr  Sr1_6  1  0.95738400  0.95738400  0.30082800  1
  Sr  Sr1_7  1  0.95738400  0.95738400  0.80082800  1
  Mg  Mg0_0  1  0.49356400  0.49356400  0.00684350  1
  Mg  Mg0_1  1  0.49356400  0.49356400  0.50684350  1
  Mg  Mg0_2  1  0.49356400  0.99356400  0.00684350  1
  Mg  Mg0_3  1  0.49356400  0.99356400  0.50684350  1
  Mg  Mg0_4  1  0.99356400  0.49356400  0.00684350  1
  Mg  Mg0_5  1  0.99356400  0.49356400  0.50684350  1
  Mg  Mg0_6  1  0.99356400  0.99356400  0.00684350  1
  Mg  Mg0_7  1  0.99356400  0.99356400  0.50684350  1
  Mg  Mg1_0  1  0.18923450  0.18923450  0.12647350  1
  Mg  Mg1_1  1  0.18923450  0.18923450  0.62647350  1
  Mg  Mg1_2  1  0.18923450  0.68923450  0.12647350  1
  Mg  Mg1_3  1  0.18923450  0.68923450  0.62647350  1
  Mg  Mg1_4  1  0.68923450  0.18923450  0.12647350  1
  Mg  Mg1_5  1  0.68923450  0.18923450  0.62647350  1
  Mg  Mg1_6  1  0.68923450  0.68923450  0.12647350  1
  Mg  Mg1_7  1  0.68923450  0.68923450  0.62647350  1
  Mg  Mg2_0  1  0.31200600  0.31200600  0.38408050  1
  Mg  Mg2_1  1  0.31200600  0.31200600  0.88408050  1
  Mg  Mg2_2  1  0.31200600  0.81200600  0.38408050  1
  Mg  Mg2_3  1  0.31200600  0.81200600  0.88408050  1
  Mg  Mg2_4  1  0.81200600  0.31200600  0.38408050  1
  Mg  Mg2_5  1  0.81200600  0.31200600  0.88408050  1
  Mg  Mg2_6  1  0.81200600  0.81200600  0.38408050  1
  Mg  Mg2_7  1  0.81200600  0.81200600  0.88408050  1
  Mg  Mg3_0  1  0.13689450  0.13689450  0.46081000  1
  Mg  Mg3_1  1  0.13689450  0.13689450  0.96081000  1
  Mg  Mg3_2  1  0.13689450  0.63689450  0.46081000  1
  Mg  Mg3_3  1  0.13689450  0.63689450  0.96081000  1
  Mg  Mg3_4  1  0.63689450  0.13689450  0.46081000  1
  Mg  Mg3_5  1  0.63689450  0.13689450  0.96081000  1
  Mg  Mg3_6  1  0.63689450  0.63689450  0.46081000  1
  Mg  Mg3_7  1  0.63689450  0.63689450  0.96081000  1
loop_
_geom_bond_atom_site_label_1
_geom_bond_atom_site_label_2
_geom_bond_distance
_geom_bond_site_symmetry_2
Sr0_0 Sr0_6 4.028008 1_455
Sr0_0 Sr0_6 4.028008 1_545
Sr0_0 Sr1_0 4.325319 1_555
Sr0_0 Sr1_2 4.417419 1_545
Sr0_0 Sr1_4 4.417419 1_455
Sr0_1 Sr0_7 4.028008 1_455
Sr0_1 Sr0_7 4.028008 1_545
Sr0_1 Sr1_1 4.325319 1_555
Sr0_1 Sr1_5 4.417419 1_455
Sr0_1 Sr1_3 4.417419 1_545
Sr0_2 Sr0_4 4.028008 1_555
Sr0_2 Sr0_4 4.028008 1_465
Sr0_2 Sr1_2 4.325319 1_555
Sr0_2 Sr1_0 4.417419 1_555
Sr0_2 Sr1_6 4.417419 1_455
Sr0_3 Sr0_5 4.028008 1_555
Sr0_3 Sr0_5 4.028008 1_465
Sr0_3 Sr1_3 4.325319 1_555
Sr0_3 Sr1_1 4.417419 1_555
Sr0_3 Sr1_7 4.417419 1_455
Sr0_4 Sr1_4 4.325319 1_555
Sr0_4 Sr1_0 4.417419 1_555
Sr0_4 Sr1_6 4.417419 1_545
Sr0_5 Sr1_5 4.325319 1_555
Sr0_5 Sr1_1 4.417419 1_555
Sr0_5 Sr1_7 4.417419 1_545
Sr0_6 Sr1_6 4.325319 1_555
Sr0_6 Sr1_2 4.417419 1_555
Sr0_6 Sr1_4 4.417419 1_555
Sr0_7 Sr1_7 4.325319 1_555
Sr0_7 Sr1_3 4.417419 1_555
Sr0_7 Sr1_5 4.417419 1_555
Sr1_0 Sr1_6 4.028008 1_455
Sr1_0 Sr1_6 4.028008 1_545
Sr1_1 Sr1_7 4.028008 1_455
Sr1_1 Sr1_7 4.028008 1_545
Sr1_2 Sr1_4 4.028008 1_555
Sr1_2 Sr1_4 4.028008 1_465
Sr1_3 Sr1_5 4.028008 1_465
Sr1_3 Sr1_5 4.028008 1_555
Mg0_0 Mg1_2 3.048816 1_555
Mg0_0 Mg1_4 3.048816 1_555
Mg0_0 Mg2_5 3.250902 1_554
Mg0_0 Mg2_3 3.250902 1_554
Mg0_0 Sr1_1 3.408111 1_554
Mg0_0 Mg3_5 3.522941 1_554
Mg0_0 Mg3_3 3.522941 1_554
Mg0_0 Sr0_2 3.666332 1_555
Mg0_0 Sr0_4 3.666332 1_555
Mg0_1 Mg1_5 3.048816 1_555
Mg0_1 Mg1_3 3.048816 1_555
Mg0_1 Mg2_4 3.250902 1_555
Mg0_1 Mg2_2 3.250902 1_555
Mg0_1 Sr1_0 3.408111 1_555
Mg0_1 Mg3_4 3.522941 1_555
Mg0_1 Mg3_2 3.522941 1_555
Mg0_1 Sr0_3 3.666332 1_555
Mg0_1 Sr0_5 3.666332 1_555
Mg0_2 Mg1_6 3.048816 1_555
Mg0_2 Mg1_0 3.048816 1_565
Mg0_2 Mg2_1 3.250902 1_564
Mg0_2 Mg2_7 3.250902 1_554
Mg0_2 Sr1_3 3.408111 1_554
Mg0_2 Mg3_7 3.522941 1_554
Mg0_2 Mg3_1 3.522941 1_564
Mg0_2 Sr0_0 3.666332 1_565
Mg0_2 Sr0_6 3.666332 1_555
Mg0_3 Mg1_7 3.048816 1_555
Mg0_3 Mg1_1 3.048816 1_565
Mg0_3 Mg2_0 3.250902 1_565
Mg0_3 Mg2_6 3.250902 1_555
Mg0_3 Sr1_2 3.408111 1_555
Mg0_3 Mg3_6 3.522941 1_555
Mg0_3 Mg3_0 3.522941 1_565
Mg0_3 Sr0_1 3.666332 1_565
Mg0_3 Sr0_7 3.666332 1_555
Mg0_4 Mg1_6 3.048816 1_555
Mg0_4 Mg1_0 3.048816 1_655
Mg0_4 Mg2_1 3.250902 1_654
Mg0_4 Mg2_7 3.250902 1_554
Mg0_4 Sr1_5 3.408111 1_554
Mg0_4 Mg3_7 3.522941 1_554
Mg0_4 Mg3_1 3.522941 1_654
Mg0_4 Sr0_0 3.666332 1_655
Mg0_4 Sr0_6 3.666332 1_555
Mg0_5 Mg1_7 3.048816 1_555
Mg0_5 Mg1_1 3.048816 1_655
Mg0_5 Mg2_0 3.250902 1_655
Mg0_5 Mg2_6 3.250902 1_555
Mg0_5 Sr1_4 3.408111 1_555
Mg0_5 Mg3_6 3.522941 1_555
Mg0_5 Mg3_0 3.522941 1_655
Mg0_5 Sr0_1 3.666332 1_655
Mg0_5 Sr0_7 3.666332 1_555
Mg0_6 Mg1_4 3.048816 1_565
Mg0_6 Mg1_2 3.048816 1_655
Mg0_6 Mg2_5 3.250902 1_564
Mg0_6 Mg2_3 3.250902 1_654
Mg0_6 Sr1_7 3.408111 1_554
Mg0_6 Mg3_5 3.522941 1_564
Mg0_6 Mg3_3 3.522941 1_654
Mg0_6 Sr0_4 3.666332 1_565
Mg0_6 Sr0_2 3.666332 1_655
Mg0_7 Mg1_5 3.048816 1_565
Mg0_7 Mg1_3 3.048816 1_655
Mg0_7 Mg2_4 3.250902 1_565
Mg0_7 Mg2_2 3.250902 1_655
Mg0_7 Sr1_6 3.408111 1_555
Mg0_7 Mg3_4 3.522941 1_565
Mg0_7 Mg3_2 3.522941 1_655
Mg0_7 Sr0_5 3.666332 1_565
Mg0_7 Sr0_3 3.666332 1_655
Mg1_0 Mg3_1 2.989315 1_554
Mg1_0 Sr1_2 3.446752 1_545
Mg1_0 Sr1_4 3.446752 1_455
Mg1_0 Sr0_2 3.521810 1_545
Mg1_0 Sr0_4 3.521810 1_455
Mg1_0 Sr0_0 3.596995 1_555
Mg1_1 Mg3_0 2.989315 1_555
Mg1_1 Sr1_5 3.446752 1_455
Mg1_1 Sr1_3 3.446752 1_545
Mg1_1 Sr0_5 3.521810 1_455
Mg1_1 Sr0_3 3.521810 1_545
Mg1_1 Sr0_1 3.596995 1_555
Mg1_2 Mg3_3 2.989315 1_554
Mg1_2 Sr1_6 3.446752 1_455
Mg1_2 Sr1_0 3.446752 1_555
Mg1_2 Sr0_6 3.521810 1_455
Mg1_2 Sr0_0 3.521810 1_555
Mg1_2 Sr0_2 3.596995 1_555
Mg1_3 Mg3_2 2.989315 1_555
Mg1_3 Sr1_7 3.446752 1_455
Mg1_3 Sr1_1 3.446752 1_555
Mg1_3 Sr0_7 3.521810 1_455
Mg1_3 Sr0_1 3.521810 1_555
Mg1_3 Sr0_3 3.596995 1_555
Mg1_4 Mg3_5 2.989315 1_554
Mg1_4 Sr1_6 3.446752 1_545
Mg1_4 Sr1_0 3.446752 1_555
Mg1_4 Sr0_6 3.521810 1_545
Mg1_4 Sr0_0 3.521810 1_555
Mg1_4 Sr0_4 3.596995 1_555
Mg1_5 Mg3_4 2.989315 1_555
Mg1_5 Sr1_7 3.446752 1_545
Mg1_5 Sr1_1 3.446752 1_555
Mg1_5 Sr0_7 3.521810 1_545
Mg1_5 Sr0_1 3.521810 1_555
Mg1_5 Sr0_5 3.596995 1_555
Mg1_6 Mg3_7 2.989315 1_554
Mg1_6 Sr1_4 3.446752 1_555
Mg1_6 Sr1_2 3.446752 1_555
Mg1_6 Sr0_4 3.521810 1_555
Mg1_6 Sr0_2 3.521810 1_555
Mg1_6 Sr0_6 3.596995 1_555
Mg1_7 Mg3_6 2.989315 1_555
Mg1_7 Sr1_5 3.446752 1_555
Mg1_7 Sr1_3 3.446752 1_555
Mg1_7 Sr0_3 3.521810 1_555
Mg1_7 Sr0_5 3.521810 1_555
Mg1_7 Sr0_7 3.596995 1_555
Mg2_0 Mg3_4 3.082026 1_555
Mg2_0 Mg3_2 3.082026 1_555
Mg2_0 Sr1_2 3.668352 1_545
Mg2_0 Sr1_4 3.668352 1_455
Mg2_0 Sr0_0 3.865826 1_555
Mg2_0 Sr1_0 3.924561 1_555
Mg2_0 Sr0_1 4.016315 1_555
Mg2_1 Mg3_5 3.082026 1_555
Mg2_1 Mg3_3 3.082026 1_555
Mg2_1 Sr1_5 3.668352 1_455
Mg2_1 Sr1_3 3.668352 1_545
Mg2_1 Sr0_1 3.865826 1_555
Mg2_1 Sr1_1 3.924561 1_555
Mg2_1 Sr0_0 4.016315 1_556
Mg2_2 Mg3_0 3.082026 1_565
Mg2_2 Mg3_6 3.082026 1_555
Mg2_2 Sr1_0 3.668352 1_555
Mg2_2 Sr1_6 3.668352 1_455
Mg2_2 Sr0_2 3.865826 1_555
Mg2_2 Sr1_2 3.924561 1_555
Mg2_2 Sr0_3 4.016315 1_555
Mg2_3 Mg3_1 3.082026 1_565
Mg2_3 Mg3_7 3.082026 1_555
Mg2_3 Sr1_1 3.668352 1_555
Mg2_3 Sr1_7 3.668352 1_455
Mg2_3 Sr0_3 3.865826 1_555
Mg2_3 Sr1_3 3.924561 1_555
Mg2_3 Sr0_2 4.016315 1_556
Mg2_4 Mg3_0 3.082026 1_655
Mg2_4 Mg3_6 3.082026 1_555
Mg2_4 Sr1_0 3.668352 1_555
Mg2_4 Sr1_6 3.668352 1_545
Mg2_4 Sr0_4 3.865826 1_555
Mg2_4 Sr1_4 3.924561 1_555
Mg2_4 Sr0_5 4.016315 1_555
Mg2_5 Mg3_1 3.082026 1_655
Mg2_5 Mg3_7 3.082026 1_555
Mg2_5 Sr1_1 3.668352 1_555
Mg2_5 Sr1_7 3.668352 1_545
Mg2_5 Sr0_5 3.865826 1_555
Mg2_5 Sr1_5 3.924561 1_555
Mg2_5 Sr0_4 4.016315 1_556
Mg2_6 Mg3_4 3.082026 1_565
Mg2_6 Mg3_2 3.082026 1_655
Mg2_6 Sr1_2 3.668352 1_555
Mg2_6 Sr1_4 3.668352 1_555
Mg2_6 Sr0_6 3.865826 1_555
Mg2_6 Sr1_6 3.924561 1_555
Mg2_6 Sr0_7 4.016315 1_555
Mg2_7 Mg3_5 3.082026 1_565
Mg2_7 Mg3_3 3.082026 1_655
Mg2_7 Sr1_3 3.668352 1_555
Mg2_7 Sr1_5 3.668352 1_555
Mg2_7 Sr0_7 3.865826 1_555
Mg2_7 Sr1_7 3.924561 1_555
Mg2_7 Sr0_6 4.016315 1_556
Mg3_0 Sr1_2 3.637523 1_545
Mg3_0 Sr1_4 3.637523 1_455
Mg3_0 Sr0_3 3.699220 1_545
Mg3_0 Sr0_5 3.699220 1_455
Mg3_1 Sr1_3 3.637523 1_545
Mg3_1 Sr1_5 3.637523 1_455
Mg3_1 Sr0_4 3.699220 1_456
Mg3_1 Sr0_2 3.699220 1_546
Mg3_2 Sr1_6 3.637523 1_455
Mg3_2 Sr1_0 3.637523 1_555
Mg3_2 Sr0_7 3.699220 1_455
Mg3_2 Sr0_1 3.699220 1_555
Mg3_3 Sr1_7 3.637523 1_455
Mg3_3 Sr1_1 3.637523 1_555
Mg3_3 Sr0_6 3.699220 1_456
Mg3_3 Sr0_0 3.699220 1_556
Mg3_4 Sr1_6 3.637523 1_545
Mg3_4 Sr1_0 3.637523 1_555
Mg3_4 Sr0_1 3.699220 1_555
Mg3_4 Sr0_7 3.699220 1_545
Mg3_5 Sr1_7 3.637523 1_545
Mg3_5 Sr1_1 3.637523 1_555
Mg3_5 Sr0_6 3.699220 1_546
Mg3_5 Sr0_0 3.699220 1_556
Mg3_6 Sr1_4 3.637523 1_555
Mg3_6 Sr1_2 3.637523 1_555
Mg3_6 Sr0_5 3.699220 1_555
Mg3_6 Sr0_3 3.699220 1_555
Mg3_7 Sr1_3 3.637523 1_555
Mg3_7 Sr1_5 3.637523 1_555
Mg3_7 Sr0_2 3.699220 1_556
Mg3_7 Sr0_4 3.699220 1_556
