# generated using pymatgen
data_U4Fe
_symmetry_space_group_name_H-M   'P 1'
_cell_length_a   6.70859215
_cell_length_b   6.70859215
_cell_length_c   6.70859215
_cell_angle_alpha   60.00000000
_cell_angle_beta   60.00000000
_cell_angle_gamma   60.00000000
_symmetry_Int_Tables_number   1
_chemical_formula_structural   U4Fe
_chemical_formula_sum   'U8 Fe2'
_cell_volume   213.49080302
_cell_formula_units_Z   2
loop_
 _symmetry_equiv_pos_site_id
 _symmetry_equiv_pos_as_xyz
  1  'x, y, z'
loop_
 _atom_site_type_symbol
 _atom_site_label
 _atom_site_symmetry_multiplicity
 _atom_site_fract_x
 _atom_site_fract_y
 _atom_site_fract_z
 _atom_site_occupancy
  U  U0  1  0.60289000  0.60289000  0.60289000  1
  U  U1  1  0.19133100  0.60289000  0.60289000  1
  U  U2  1  0.60289000  0.19133100  0.60289000  1
  U  U3  1  0.55866900  0.14711000  0.14711000  1
  U  U4  1  0.14711000  0.14711000  0.14711000  1
  U  U5  1  0.60289000  0.60289000  0.19133100  1
  U  U6  1  0.14711000  0.55866900  0.14711000  1
  U  U7  1  0.14711000  0.14711000  0.55866900  1
  Fe  Fe0  1  0.00000000  0.00000000  0.00000000  1
  Fe  Fe1  1  0.75000000  0.75000000  0.75000000  1
loop_
_geom_bond_atom_site_label_1
_geom_bond_atom_site_label_2
_geom_bond_distance
_geom_bond_site_symmetry_2
U0 U5 2.760981 1_555
U0 U2 2.760981 1_555
U0 U1 2.760981 1_555
U0 U7 3.380430 1_565
U0 U7 3.380430 1_655
U0 U6 3.380430 1_556
U0 U3 3.380430 1_556
U0 U3 3.380430 1_565
U0 U6 3.380430 1_655
U1 U5 2.760981 1_555
U1 U2 2.760981 1_555
U1 U7 3.380425 1_565
U1 U6 3.380425 1_556
U1 U4 3.380430 1_556
U1 U4 3.380430 1_565
U1 U7 3.380438 1_555
U1 U6 3.380438 1_555
U2 U5 2.760981 1_555
U2 U7 3.380425 1_655
U2 U3 3.380425 1_556
U2 U4 3.380430 1_655
U2 U4 3.380430 1_556
U2 U7 3.380438 1_555
U2 U3 3.380438 1_555
U3 U6 2.760981 1_555
U3 U7 2.760981 1_555
U3 U4 2.760981 1_555
U3 U5 3.380425 1_545
U3 U5 3.380438 1_555
U4 U6 2.760981 1_555
U4 U7 2.760981 1_555
U4 U5 3.380430 1_455
U4 U5 3.380430 1_545
U5 U6 3.380425 1_655
U5 U6 3.380438 1_555
U6 U7 2.760981 1_555
Fe0 U4 2.417404 1_555
Fe0 U7 2.417409 1_554
Fe0 U3 2.417409 1_455
Fe0 U6 2.417409 1_545
Fe1 U0 2.417404 1_555
Fe1 U5 2.417409 1_556
Fe1 U2 2.417409 1_565
Fe1 U1 2.417409 1_655
