# generated using pymatgen
data_GdGeIr
_symmetry_space_group_name_H-M   'P 1'
_cell_length_a   4.33696334
_cell_length_b   6.97620966
_cell_length_c   7.56028234
_cell_angle_alpha   89.99674045
_cell_angle_beta   90.00000000
_cell_angle_gamma   90.00000000
_symmetry_Int_Tables_number   1
_chemical_formula_structural   GdGeIr
_chemical_formula_sum   'Gd4 Ge4 Ir4'
_cell_volume   228.74061771
_cell_formula_units_Z   4
loop_
 _symmetry_equiv_pos_site_id
 _symmetry_equiv_pos_as_xyz
  1  'x, y, z'
loop_
 _atom_site_type_symbol
 _atom_site_label
 _atom_site_symmetry_multiplicity
 _atom_site_fract_x
 _atom_site_fract_y
 _atom_site_fract_z
 _atom_site_occupancy
  Gd  Gd0  1  0.25000000  0.99929251  0.30911081  1
  Gd  Gd1  1  0.25000000  0.49930937  0.19079562  1
  Gd  Gd2  1  0.75000000  0.00070649  0.69088819  1
  Gd  Gd3  1  0.75000000  0.50069163  0.80920438  1
  Ge  Ge0  1  0.25000000  0.29660791  0.60745738  1
  Ge  Ge1  1  0.25000000  0.79669480  0.89264922  1
  Ge  Ge2  1  0.75000000  0.70339209  0.39254262  1
  Ge  Ge3  1  0.75000000  0.20330420  0.10735078  1
  Ir  Ir0  1  0.25000000  0.15886280  0.93161966  1
  Ir  Ir1  1  0.25000000  0.65889527  0.56840379  1
  Ir  Ir2  1  0.75000000  0.84113720  0.06838034  1
  Ir  Ir3  1  0.75000000  0.34110473  0.43159621  1
loop_
_geom_bond_atom_site_label_1
_geom_bond_atom_site_label_2
_geom_bond_distance
_geom_bond_site_symmetry_2
Gd0 Ge3 3.009049 1_565
Gd0 Ge3 3.009049 1_465
Gd0 Ir2 3.038459 1_555
Gd0 Ir2 3.038459 1_455
Gd0 Ge2 3.059610 1_455
Gd0 Ge2 3.059610 1_555
Gd0 Ir0 3.063301 1_564
Gd0 Ge0 3.064348 1_565
Gd0 Ir1 3.079200 1_555
Gd0 Ir3 3.353533 1_565
Gd0 Ir3 3.353533 1_465
Gd1 Ge2 3.009316 1_455
Gd1 Ge2 3.009316 1_555
Gd1 Ir3 3.038826 1_555
Gd1 Ir3 3.038826 1_455
Gd1 Ge3 3.060172 1_455
Gd1 Ge3 3.060172 1_555
Gd1 Ge1 3.063391 1_554
Gd1 Ir1 3.064283 1_555
Gd1 Ir0 3.079074 1_554
Gd1 Ir2 3.353389 1_455
Gd1 Ir2 3.353389 1_555
Gd2 Ge1 3.009053 1_645
Gd2 Ge1 3.009053 1_545
Gd2 Ir0 3.038466 1_555
Gd2 Ir0 3.038466 1_655
Gd2 Ge0 3.059614 1_555
Gd2 Ge0 3.059614 1_655
Gd2 Ir2 3.063306 1_546
Gd2 Ge2 3.064337 1_545
Gd2 Ir3 3.079201 1_555
Gd2 Ir1 3.353526 1_545
Gd2 Ir1 3.353526 1_645
Gd3 Ge0 3.009319 1_655
Gd3 Ge0 3.009319 1_555
Gd3 Ir1 3.038823 1_555
Gd3 Ir1 3.038823 1_655
Gd3 Ge1 3.060163 1_555
Gd3 Ge1 3.060163 1_655
Gd3 Ge3 3.063401 1_556
Gd3 Ir3 3.064286 1_555
Gd3 Ir2 3.079069 1_556
Gd3 Ir0 3.353394 1_555
Gd3 Ir0 3.353394 1_655
Ge0 Ir1 2.544564 1_555
Ge0 Ir3 2.562490 1_455
Ge0 Ir3 2.562490 1_555
Ge0 Ir0 2.632366 1_555
Ge1 Ir0 2.543697 1_565
Ge1 Ir2 2.561953 1_556
Ge1 Ir2 2.561953 1_456
Ge1 Ir1 2.633192 1_555
Ge2 Ir3 2.544564 1_555
Ge2 Ir1 2.562490 1_555
Ge2 Ir1 2.562490 1_655
Ge2 Ir2 2.632366 1_555
Ge3 Ir2 2.543690 1_545
Ge3 Ir0 2.561952 1_554
Ge3 Ir0 2.561952 1_654
Ge3 Ir3 2.633194 1_555
