# generated using pymatgen
data_Yb2Ge6Pt
_symmetry_space_group_name_H-M   'P 1'
_cell_length_a   3.98387215
_cell_length_b   4.03892697
_cell_length_c   11.03881259
_cell_angle_alpha   90.00000000
_cell_angle_beta   100.39587895
_cell_angle_gamma   90.00000000
_symmetry_Int_Tables_number   1
_chemical_formula_structural   Yb2Ge6Pt
_chemical_formula_sum   'Yb2 Ge6 Pt1'
_cell_volume   174.70502971
_cell_formula_units_Z   1
loop_
 _symmetry_equiv_pos_site_id
 _symmetry_equiv_pos_as_xyz
  1  'x, y, z'
loop_
 _atom_site_type_symbol
 _atom_site_label
 _atom_site_symmetry_multiplicity
 _atom_site_fract_x
 _atom_site_fract_y
 _atom_site_fract_z
 _atom_site_occupancy
  Yb  Yb0  1  0.99932346  0.00000000  0.99864692  1
  Yb  Yb1  1  0.33700030  0.00000000  0.67400061  1
  Ge  Ge0  1  0.71321657  0.00000000  0.42643315  1
  Ge  Ge1  1  0.59945039  0.00000000  0.19890078  1
  Ge  Ge2  1  0.46185076  0.50000000  0.92370151  1
  Ge  Ge3  1  0.89095352  0.50000000  0.78190704  1
  Ge  Ge4  1  0.09784632  0.50000000  0.19569263  1
  Ge  Ge5  1  0.21190156  0.50000000  0.42380311  1
  Pt  Pt0  1  0.78045712  0.50000000  0.56091425  1
loop_
_geom_bond_atom_site_label_1
_geom_bond_atom_site_label_2
_geom_bond_distance
_geom_bond_site_symmetry_2
Ge0 Ge1 2.470456 1_555
Ge0 Pt0 2.492037 1_545
Ge0 Pt0 2.492037 1_555
Ge0 Ge5 2.836698 1_545
Ge0 Ge5 2.836698 1_555
Ge0 Ge5 2.836698 1_645
Ge0 Ge5 2.836698 1_655
Ge0 Yb1 3.345609 1_555
Ge0 Yb1 3.345609 1_655
Ge1 Ge4 2.836768 1_555
Ge1 Ge4 2.836768 1_545
Ge1 Ge4 2.836768 1_655
Ge1 Ge4 2.836768 1_645
Ge1 Yb0 2.948778 1_454
Ge1 Yb0 2.948778 1_554
Ge2 Ge3 2.517542 1_455
Ge2 Ge3 2.517542 1_555
Ge2 Yb0 2.950965 1_465
Ge2 Yb0 2.950965 1_455
Ge2 Yb0 2.950965 1_555
Ge2 Yb0 2.950965 1_565
Ge2 Yb1 3.380619 1_555
Ge2 Yb1 3.380619 1_565
Ge3 Pt0 2.399452 1_555
Ge3 Yb1 3.068990 1_655
Ge3 Yb1 3.068990 1_665
Ge3 Yb1 3.068990 1_565
Ge3 Yb1 3.068990 1_555
Ge3 Yb0 3.100990 1_565
Ge3 Yb0 3.100990 1_555
Ge4 Ge5 2.476733 1_555
Ge4 Yb0 2.942016 1_464
Ge4 Yb0 2.942016 1_454
Ge5 Pt0 2.486772 1_555
Ge5 Pt0 2.486772 1_455
Ge5 Yb1 3.384945 1_565
Ge5 Yb1 3.384945 1_555
Pt0 Yb1 3.090898 1_555
Pt0 Yb1 3.090898 1_565
Pt0 Yb1 3.090898 1_655
Pt0 Yb1 3.090898 1_665
