# generated using pymatgen
data_SrBrCl
_symmetry_space_group_name_H-M   'P 1'
_cell_length_a   4.83463800
_cell_length_b   7.73222800
_cell_length_c   10.07319500
_cell_angle_alpha   90.00000000
_cell_angle_beta   90.00000000
_cell_angle_gamma   90.00000000
_symmetry_Int_Tables_number   1
_chemical_formula_structural   SrBrCl
_chemical_formula_sum   'Sr4 Br4 Cl4'
_cell_volume   376.56144693
_cell_formula_units_Z   4
loop_
 _symmetry_equiv_pos_site_id
 _symmetry_equiv_pos_as_xyz
  1  'x, y, z'
loop_
 _atom_site_type_symbol
 _atom_site_label
 _atom_site_symmetry_multiplicity
 _atom_site_fract_x
 _atom_site_fract_y
 _atom_site_fract_z
 _atom_site_occupancy
  Sr  Sr0  1  0.25000000  0.72666000  0.91818900  1
  Sr  Sr1  1  0.75000000  0.27334000  0.08181100  1
  Sr  Sr2  1  0.75000000  0.77334000  0.41818900  1
  Sr  Sr3  1  0.25000000  0.22666000  0.58181100  1
  Br  Br0  1  0.25000000  0.63626300  0.60381400  1
  Br  Br1  1  0.75000000  0.36373700  0.39618600  1
  Br  Br2  1  0.75000000  0.86373700  0.10381400  1
  Br  Br3  1  0.25000000  0.13626300  0.89618600  1
  Cl  Cl0  1  0.25000000  0.48449600  0.14134400  1
  Cl  Cl1  1  0.75000000  0.51550400  0.85865600  1
  Cl  Cl2  1  0.75000000  0.01550400  0.64134400  1
  Cl  Cl3  1  0.25000000  0.98449600  0.35865600  1
loop_
_geom_bond_atom_site_label_1
_geom_bond_atom_site_label_2
_geom_bond_distance
_geom_bond_site_symmetry_2
Br0 Sr3 3.174890 1_555
Br0 Sr2 3.234676 1_455
Br0 Sr2 3.234676 1_555
Br0 Sr0 3.242982 1_555
Br1 Sr2 3.174890 1_555
Br1 Sr3 3.234676 1_655
Br1 Sr3 3.234676 1_555
Br1 Sr1 3.242982 1_555
Br2 Sr1 3.174890 1_565
Br2 Sr0 3.234676 1_554
Br2 Sr0 3.234676 1_654
Br2 Sr2 3.242982 1_555
Br3 Sr0 3.174890 1_545
Br3 Sr1 3.234676 1_456
Br3 Sr1 3.234676 1_556
Br3 Sr3 3.242982 1_555
Cl0 Sr0 2.925597 1_554
Cl0 Sr1 2.978051 1_555
Cl0 Sr1 2.978051 1_455
Cl1 Sr1 2.925597 1_556
Cl1 Sr0 2.978051 1_655
Cl1 Sr0 2.978051 1_555
Cl2 Sr2 2.925597 1_545
Cl2 Sr3 2.978051 1_555
Cl2 Sr3 2.978051 1_655
Cl3 Sr3 2.925597 1_565
Cl3 Sr2 2.978051 1_455
Cl3 Sr2 2.978051 1_555
