# generated using pymatgen
data_InPb
_symmetry_space_group_name_H-M   'P 1'
_cell_length_a   12.11704221
_cell_length_b   12.11704221
_cell_length_c   12.11704236
_cell_angle_alpha   32.86807493
_cell_angle_beta   32.86807493
_cell_angle_gamma   32.86806787
_symmetry_Int_Tables_number   1
_chemical_formula_structural   InPb
_chemical_formula_sum   'In8 Pb8'
_cell_volume   466.20317113
_cell_formula_units_Z   8
loop_
 _symmetry_equiv_pos_site_id
 _symmetry_equiv_pos_as_xyz
  1  'x, y, z'
loop_
 _atom_site_type_symbol
 _atom_site_label
 _atom_site_symmetry_multiplicity
 _atom_site_fract_x
 _atom_site_fract_y
 _atom_site_fract_z
 _atom_site_occupancy
  In  In0_0  1  0.00000000  0.00000000  0.00000000  1
  In  In0_1  1  0.00000000  0.00000000  0.50000000  1
  In  In0_2  1  0.00000000  0.50000000  0.00000000  1
  In  In0_3  1  0.00000000  0.50000000  0.50000000  1
  In  In0_4  1  0.50000000  0.00000000  0.00000000  1
  In  In0_5  1  0.50000000  0.00000000  0.50000000  1
  In  In0_6  1  0.50000000  0.50000000  0.00000000  1
  In  In0_7  1  0.50000000  0.50000000  0.50000000  1
  Pb  Pb0_0  1  0.25000000  0.25000000  0.25000000  1
  Pb  Pb0_1  1  0.25000000  0.25000000  0.75000000  1
  Pb  Pb0_2  1  0.25000000  0.75000000  0.25000000  1
  Pb  Pb0_3  1  0.25000000  0.75000000  0.75000000  1
  Pb  Pb0_4  1  0.75000000  0.25000000  0.25000000  1
  Pb  Pb0_5  1  0.75000000  0.25000000  0.75000000  1
  Pb  Pb0_6  1  0.75000000  0.75000000  0.25000000  1
  Pb  Pb0_7  1  0.75000000  0.75000000  0.75000000  1
loop_
_geom_bond_atom_site_label_1
_geom_bond_atom_site_label_2
_geom_bond_distance
_geom_bond_site_symmetry_2
In0_0 In0_6 3.428047 1_455
In0_0 In0_6 3.428047 1_545
In0_0 In0_5 3.428048 1_554
In0_0 In0_5 3.428048 1_455
In0_0 In0_3 3.428048 1_554
In0_0 In0_3 3.428048 1_545
In0_0 Pb0_5 3.480560 1_454
In0_0 Pb0_3 3.480560 1_544
In0_0 Pb0_2 3.480560 1_545
In0_0 Pb0_4 3.480560 1_455
In0_0 Pb0_6 3.480560 1_445
In0_0 Pb0_1 3.480560 1_554
In0_1 In0_7 3.428047 1_455
In0_1 In0_7 3.428047 1_545
In0_1 In0_4 3.428048 1_555
In0_1 In0_4 3.428048 1_456
In0_1 In0_2 3.428048 1_555
In0_1 In0_2 3.428048 1_546
In0_1 Pb0_2 3.480560 1_545
In0_1 Pb0_4 3.480560 1_455
In0_1 Pb0_3 3.480560 1_545
In0_1 Pb0_5 3.480560 1_455
In0_1 Pb0_7 3.480560 1_445
In0_1 Pb0_0 3.480560 1_555
In0_2 In0_4 3.428047 1_555
In0_2 In0_4 3.428047 1_465
In0_2 In0_7 3.428048 1_455
In0_2 In0_7 3.428048 1_554
In0_2 Pb0_7 3.480560 1_454
In0_2 Pb0_1 3.480560 1_554
In0_2 Pb0_6 3.480560 1_455
In0_2 Pb0_0 3.480560 1_555
In0_2 Pb0_4 3.480560 1_455
In0_2 Pb0_3 3.480560 1_554
In0_3 In0_5 3.428047 1_465
In0_3 In0_5 3.428047 1_555
In0_3 In0_6 3.428048 1_456
In0_3 In0_6 3.428048 1_555
In0_3 Pb0_0 3.480560 1_555
In0_3 Pb0_6 3.480560 1_455
In0_3 Pb0_1 3.480560 1_555
In0_3 Pb0_7 3.480560 1_455
In0_3 Pb0_5 3.480560 1_455
In0_3 Pb0_2 3.480560 1_555
In0_4 In0_7 3.428048 1_545
In0_4 In0_7 3.428048 1_554
In0_4 Pb0_7 3.480560 1_544
In0_4 Pb0_1 3.480560 1_554
In0_4 Pb0_6 3.480560 1_545
In0_4 Pb0_0 3.480560 1_555
In0_4 Pb0_2 3.480560 1_545
In0_4 Pb0_5 3.480560 1_554
In0_5 In0_6 3.428048 1_546
In0_5 In0_6 3.428048 1_555
In0_5 Pb0_0 3.480560 1_555
In0_5 Pb0_6 3.480560 1_545
In0_5 Pb0_1 3.480560 1_555
In0_5 Pb0_7 3.480560 1_545
In0_5 Pb0_3 3.480560 1_545
In0_5 Pb0_4 3.480560 1_555
In0_6 Pb0_5 3.480560 1_554
In0_6 Pb0_3 3.480560 1_554
In0_6 Pb0_2 3.480560 1_555
In0_6 Pb0_4 3.480560 1_555
In0_6 Pb0_0 3.480560 1_555
In0_6 Pb0_7 3.480560 1_554
In0_7 Pb0_2 3.480560 1_555
In0_7 Pb0_4 3.480560 1_555
In0_7 Pb0_3 3.480560 1_555
In0_7 Pb0_5 3.480560 1_555
In0_7 Pb0_6 3.480560 1_555
In0_7 Pb0_1 3.480560 1_555
Pb0_0 Pb0_6 3.428047 1_455
Pb0_0 Pb0_6 3.428047 1_545
Pb0_0 Pb0_3 3.428048 1_545
Pb0_0 Pb0_5 3.428048 1_455
Pb0_0 Pb0_5 3.428048 1_554
Pb0_0 Pb0_3 3.428048 1_554
Pb0_1 Pb0_7 3.428047 1_545
Pb0_1 Pb0_7 3.428047 1_455
Pb0_1 Pb0_2 3.428048 1_555
Pb0_1 Pb0_4 3.428048 1_555
Pb0_1 Pb0_2 3.428048 1_546
Pb0_1 Pb0_4 3.428048 1_456
Pb0_2 Pb0_4 3.428047 1_555
Pb0_2 Pb0_4 3.428047 1_465
Pb0_2 Pb0_7 3.428048 1_554
Pb0_2 Pb0_7 3.428048 1_455
Pb0_3 Pb0_5 3.428047 1_465
Pb0_3 Pb0_5 3.428047 1_555
Pb0_3 Pb0_6 3.428048 1_456
Pb0_3 Pb0_6 3.428048 1_555
Pb0_4 Pb0_7 3.428048 1_554
Pb0_4 Pb0_7 3.428048 1_545
Pb0_5 Pb0_6 3.428048 1_555
Pb0_5 Pb0_6 3.428048 1_546
