# generated using pymatgen
data_FeSO4
_symmetry_space_group_name_H-M   'P 1'
_cell_length_a   4.78237395
_cell_length_b   6.74733555
_cell_length_c   8.70361969
_cell_angle_alpha   90.00000000
_cell_angle_beta   90.00000000
_cell_angle_gamma   90.00000000
_symmetry_Int_Tables_number   1
_chemical_formula_structural   FeSO4
_chemical_formula_sum   'Fe4 S4 O16'
_cell_volume   280.85085254
_cell_formula_units_Z   4
loop_
 _symmetry_equiv_pos_site_id
 _symmetry_equiv_pos_as_xyz
  1  'x, y, z'
loop_
 _atom_site_type_symbol
 _atom_site_label
 _atom_site_symmetry_multiplicity
 _atom_site_fract_x
 _atom_site_fract_y
 _atom_site_fract_z
 _atom_site_occupancy
  Fe  Fe0  1  0.50000000  0.50000000  0.50000000  1
  Fe  Fe1  1  0.00000000  0.50000000  -0.00000000  1
  Fe  Fe2  1  0.50000000  -0.00000000  0.50000000  1
  Fe  Fe3  1  0.00000000  -0.00000000  -0.00000000  1
  S  S0  1  0.52413568  0.75000000  0.17764916  1
  S  S1  1  0.02413568  0.25000000  0.32235084  1
  S  S2  1  0.47586432  0.25000000  0.82235084  1
  S  S3  1  0.97586432  0.75000000  0.67764916  1
  O  O0  1  0.23244081  0.75000000  0.12111537  1
  O  O1  1  0.73244081  0.25000000  0.37888463  1
  O  O2  1  0.76755919  0.25000000  0.87888463  1
  O  O3  1  0.26755919  0.75000000  0.62111537  1
  O  O4  1  0.53220197  0.75000000  0.34922427  1
  O  O5  1  0.03220197  0.25000000  0.15077573  1
  O  O6  1  0.46779803  0.25000000  0.65077573  1
  O  O7  1  0.96779803  0.75000000  0.84922427  1
  O  O8  1  0.83561883  0.93055297  0.62532461  1
  O  O9  1  0.33561883  0.06944703  0.87467539  1
  O  O10  1  0.16438117  0.43055297  0.37467539  1
  O  O11  1  0.66438117  0.56944703  0.12532461  1
  O  O12  1  0.16438117  0.06944703  0.37467539  1
  O  O13  1  0.66438117  0.93055297  0.12532461  1
  O  O14  1  0.83561883  0.56944703  0.62532461  1
  O  O15  1  0.33561883  0.43055297  0.87467539  1
loop_
_geom_bond_atom_site_label_1
_geom_bond_atom_site_label_2
_geom_bond_distance
_geom_bond_site_symmetry_2
Fe0 O10 1.996388 1_555
Fe0 O14 1.996388 1_555
Fe0 O6 2.142718 1_555
Fe0 O4 2.142718 1_555
Fe0 O3 2.278666 1_555
Fe0 O1 2.278666 1_555
Fe1 O15 1.996388 1_554
Fe1 O11 1.996388 1_455
Fe1 O5 2.142718 1_555
Fe1 O7 2.142718 1_454
Fe1 O2 2.278666 1_454
Fe1 O0 2.278666 1_555
Fe2 O12 1.996388 1_555
Fe2 O8 1.996388 1_545
Fe2 O6 2.142718 1_555
Fe2 O4 2.142718 1_545
Fe2 O1 2.278666 1_555
Fe2 O3 2.278666 1_545
Fe3 O9 1.996388 1_554
Fe3 O13 1.996388 1_445
Fe3 O7 2.142718 1_444
Fe3 O5 2.142718 1_555
Fe3 O2 2.278666 1_454
Fe3 O0 2.278666 1_545
O0 S0 1.479230 1_555
O1 S1 1.479230 1_655
O2 S2 1.479230 1_555
O3 S3 1.479230 1_455
O4 S0 1.493823 1_555
O5 S1 1.493823 1_555
O6 S2 1.493823 1_555
O7 S3 1.493823 1_555
O8 S3 1.463347 1_555
O9 S2 1.463347 1_555
O10 S1 1.463347 1_555
O11 S0 1.463347 1_555
O12 S1 1.463347 1_555
O13 S0 1.463347 1_555
O14 S3 1.463347 1_555
O15 S2 1.463347 1_555
