# generated using pymatgen
data_Li9Mn2Co5O16
_symmetry_space_group_name_H-M   'P 1'
_cell_length_a   5.08522300
_cell_length_b   5.90734563
_cell_length_c   10.08280274
_cell_angle_alpha   105.84037955
_cell_angle_beta   101.10355554
_cell_angle_gamma   90.92967759
_symmetry_Int_Tables_number   1
_chemical_formula_structural   Li9Mn2Co5O16
_chemical_formula_sum   'Li9 Mn2 Co5 O16'
_cell_volume   285.17238975
_cell_formula_units_Z   1
loop_
 _symmetry_equiv_pos_site_id
 _symmetry_equiv_pos_as_xyz
  1  'x, y, z'
loop_
 _atom_site_type_symbol
 _atom_site_label
 _atom_site_symmetry_multiplicity
 _atom_site_fract_x
 _atom_site_fract_y
 _atom_site_fract_z
 _atom_site_occupancy
  Li  Li0  1  0.49587900  0.75685400  0.01139300  1
  Li  Li1  1  0.24951900  0.36716400  0.74754500  1
  Li  Li2  1  0.48853500  0.25886100  0.00519100  1
  Li  Li3  1  0.25175400  0.88119100  0.74705900  1
  Li  Li4  1  0.75017700  0.11442100  0.25236500  1
  Li  Li5  1  0.75121000  0.63926000  0.25438700  1
  Li  Li6  1  0.99870700  0.49120500  0.49259400  1
  Li  Li7  1  0.01452500  0.98644300  0.49068600  1
  Li  Li8  1  0.24835200  0.87256800  0.24964700  1
  Mn  Mn0  1  0.99811200  0.00352400  0.00545400  1
  Mn  Mn1  1  0.74820400  0.62855900  0.75003700  1
  Co  Co0  1  0.49272600  0.23554100  0.48823100  1
  Co  Co1  1  0.99858300  0.50941200  0.00457800  1
  Co  Co2  1  0.74366900  0.12627800  0.74557600  1
  Co  Co3  1  0.50622000  0.74320300  0.49626100  1
  Co  Co4  1  0.26052500  0.38166200  0.25390000  1
  O  O0  1  0.34320500  0.07537700  0.12228400  1
  O  O1  1  0.09876100  0.70210500  0.88355200  1
  O  O2  1  0.33936000  0.55155500  0.11593500  1
  O  O3  1  0.09643500  0.17127500  0.87277900  1
  O  O4  1  0.62576500  0.42160200  0.36982400  1
  O  O5  1  0.62354200  0.92937500  0.39058300  1
  O  O6  1  0.85293200  0.80740900  0.63024000  1
  O  O7  1  0.85846200  0.33935400  0.63652300  1
  O  O8  1  0.65045100  0.44916100  0.87193700  1
  O  O9  1  0.39320400  0.07297500  0.63377300  1
  O  O10  1  0.64456300  0.92160000  0.86905200  1
  O  O11  1  0.40546600  0.57133800  0.62369700  1
  O  O12  1  0.87680800  0.82827900  0.11712300  1
  O  O13  1  0.88921800  0.30137800  0.10919000  1
  O  O14  1  0.14794500  0.19353500  0.38383200  1
  O  O15  1  0.15718300  0.66754000  0.37477100  1
loop_
_geom_bond_atom_site_label_1
_geom_bond_atom_site_label_2
_geom_bond_distance
_geom_bond_site_symmetry_2
Li0 O12 1.999855 1_555
Li0 O2 2.050634 1_555
Li0 O1 2.143091 1_554
Li0 O0 2.150965 1_565
Li0 O10 2.176050 1_554
Li0 O8 2.230614 1_554
Li1 O9 2.036108 1_555
Li1 O7 2.065490 1_455
Li1 O8 2.148462 1_555
Li1 O3 2.164852 1_555
Li1 O11 2.194442 1_555
Li1 O1 2.314323 1_555
Li2 O0 2.030658 1_555
Li2 O2 2.031428 1_555
Li2 O13 2.081101 1_555
Li2 O3 2.142415 1_554
Li2 O8 2.228791 1_554
Li2 O10 2.336857 1_544
Li3 O9 2.025371 1_565
Li3 O3 2.100211 1_565
Li3 O10 2.106639 1_555
Li3 O6 2.112221 1_455
Li3 O11 2.164837 1_555
Li3 O1 2.190667 1_555
Li4 O12 2.060723 1_545
Li4 O4 2.061153 1_555
Li4 O14 2.159951 1_655
Li4 O5 2.169401 1_545
Li4 O0 2.197802 1_555
Li4 O13 2.245406 1_555
Li5 O5 2.083053 1_555
Li5 O4 2.119259 1_555
Li5 O15 2.162448 1_655
Li5 O12 2.175127 1_555
Li5 O2 2.246630 1_555
Li5 O13 2.337888 1_555
Li6 O4 2.022543 1_555
Li6 O15 2.040323 1_655
Li6 O14 2.044939 1_655
Li6 O7 2.123168 1_555
Li6 O11 2.196239 1_655
Li6 O6 2.234005 1_555
Li7 O14 2.022834 1_565
Li7 O5 2.026083 1_455
Li7 O9 2.132210 1_565
Li7 O15 2.147126 1_555
Li7 O6 2.236802 1_455
Li7 O7 2.442934 1_465
Li8 O12 2.060195 1_455
Li8 O15 2.077195 1_555
Li8 O0 2.092094 1_565
Li8 O5 2.108730 1_555
Li8 O2 2.121552 1_555
Li8 O14 2.140868 1_565
Mn0 O0 1.885213 1_655
Mn0 O12 1.898175 1_545
Mn0 O13 1.935612 1_555
Mn0 O3 1.996691 1_654
Mn0 O10 2.003519 1_544
Mn0 O1 2.005065 1_644
Mn1 O11 1.914509 1_555
Mn1 O7 1.937491 1_555
Mn1 O6 1.945525 1_555
Mn1 O8 1.951972 1_555
Mn1 O10 1.963066 1_555
Mn1 O1 1.977409 1_655
Co0 O14 1.837408 1_555
Co0 O5 2.000556 1_545
Co0 O4 2.023473 1_555
Co0 O9 2.090804 1_555
Co0 O7 2.112362 1_555
Co0 O11 2.186399 1_555
Co1 O2 1.846525 1_655
Co1 O13 1.960495 1_555
Co1 O8 1.963958 1_554
Co1 O1 2.005808 1_654
Co1 O12 2.088288 1_555
Co1 O3 2.200316 1_654
Co2 O9 1.886885 1_555
Co2 O3 1.961099 1_655
Co2 O7 2.028078 1_555
Co2 O6 2.072746 1_545
Co2 O10 2.075953 1_545
Co2 O8 2.102708 1_555
Co3 O5 1.887885 1_555
Co3 O15 1.920575 1_555
Co3 O6 1.964310 1_555
Co3 O11 1.973100 1_555
Co3 O4 2.148916 1_555
Co3 O9 2.217298 1_565
Co4 O15 1.940445 1_555
Co4 O4 1.967379 1_555
Co4 O2 2.016667 1_555
Co4 O0 2.034782 1_555
Co4 O14 2.083786 1_555
Co4 O13 2.109764 1_455
