# generated using pymatgen
data_ZrNi4O
_symmetry_space_group_name_H-M   'P 1'
_cell_length_a   4.70227424
_cell_length_b   4.70227424
_cell_length_c   4.70227424
_cell_angle_alpha   60.00000000
_cell_angle_beta   60.00000000
_cell_angle_gamma   60.00000000
_symmetry_Int_Tables_number   1
_chemical_formula_structural   ZrNi4O
_chemical_formula_sum   'Zr1 Ni4 O1'
_cell_volume   73.52056959
_cell_formula_units_Z   1
loop_
 _symmetry_equiv_pos_site_id
 _symmetry_equiv_pos_as_xyz
  1  'x, y, z'
loop_
 _atom_site_type_symbol
 _atom_site_label
 _atom_site_symmetry_multiplicity
 _atom_site_fract_x
 _atom_site_fract_y
 _atom_site_fract_z
 _atom_site_occupancy
  Zr  Zr0  1  0.00000000  0.00000000  0.00000000  1
  Ni  Ni0  1  0.62502400  0.62502400  0.62502400  1
  Ni  Ni1  1  0.62502400  0.62502400  0.12492900  1
  Ni  Ni2  1  0.62502400  0.12492900  0.62502400  1
  Ni  Ni3  1  0.12492900  0.62502400  0.62502400  1
  O  O0  1  0.25000000  0.25000000  0.25000000  1
loop_
_geom_bond_atom_site_label_1
_geom_bond_atom_site_label_2
_geom_bond_distance
_geom_bond_site_symmetry_2
Ni0 Ni3 2.350690 1_655
Ni0 Ni2 2.350690 1_565
Ni0 Ni1 2.350690 1_556
Ni0 Ni3 2.351584 1_555
Ni0 Ni1 2.351584 1_555
Ni0 Ni2 2.351584 1_555
Ni0 Zr0 2.756905 1_566
Ni0 Zr0 2.756905 1_656
Ni0 Zr0 2.756905 1_665
Ni1 Ni3 2.350690 1_654
Ni1 Ni2 2.350690 1_564
Ni1 Ni3 2.351584 1_555
Ni1 Ni2 2.351584 1_555
Ni1 Zr0 2.756903 1_665
Ni1 Zr0 2.756907 1_565
Ni1 Zr0 2.756907 1_655
Ni2 Ni3 2.350690 1_645
Ni2 Ni3 2.351584 1_555
Ni2 Zr0 2.756903 1_656
Ni2 Zr0 2.756907 1_556
Ni2 Zr0 2.756907 1_655
Ni3 Zr0 2.756903 1_566
Ni3 Zr0 2.756907 1_565
Ni3 Zr0 2.756907 1_556
O0 Zr0 2.879543 1_555
O0 Zr0 2.879543 1_556
O0 Zr0 2.879543 1_565
O0 Zr0 2.879543 1_655
