# generated using pymatgen
data_ScMnAu2
_symmetry_space_group_name_H-M   'P 1'
_cell_length_a   11.89317094
_cell_length_b   11.89317094
_cell_length_c   11.89317094
_cell_angle_alpha   125.58931601
_cell_angle_beta   116.69679044
_cell_angle_gamma   88.20977172
_symmetry_Int_Tables_number   1
_chemical_formula_structural   ScMnAu2
_chemical_formula_sum   'Sc1 Mn1 Au2'
_cell_volume   1159.20628232
_cell_formula_units_Z   1
loop_
 _symmetry_equiv_pos_site_id
 _symmetry_equiv_pos_as_xyz
  1  'x, y, z'
loop_
 _atom_site_type_symbol
 _atom_site_label
 _atom_site_symmetry_multiplicity
 _atom_site_fract_x
 _atom_site_fract_y
 _atom_site_fract_z
 _atom_site_occupancy
  Sc  Sc0  1  0.00000000  0.00000000  0.00000000  1
  Mn  Mn0  1  0.00000000  0.50000000  0.50000000  1
  Au  Au0  1  0.00000000  0.25064200  0.25064200  1
  Au  Au1  1  0.00000000  0.74935800  0.74935800  1
loop_
_geom_bond_atom_site_label_1
_geom_bond_atom_site_label_2
_geom_bond_distance
_geom_bond_site_symmetry_2
Au0 Mn0 2.711683 1_555
Au0 Sc0 2.725647 1_555
Au1 Mn0 2.711683 1_555
Au1 Sc0 2.725647 1_566
