# generated using pymatgen
data_YbLuIn2
_symmetry_space_group_name_H-M   'P 1'
_cell_length_a   5.20090521
_cell_length_b   5.20090521
_cell_length_c   5.20090521
_cell_angle_alpha   60.00000000
_cell_angle_beta   60.00000000
_cell_angle_gamma   60.00000000
_symmetry_Int_Tables_number   1
_chemical_formula_structural   YbLuIn2
_chemical_formula_sum   'Yb1 Lu1 In2'
_cell_volume   99.47680242
_cell_formula_units_Z   1
loop_
 _symmetry_equiv_pos_site_id
 _symmetry_equiv_pos_as_xyz
  1  'x, y, z'
loop_
 _atom_site_type_symbol
 _atom_site_label
 _atom_site_symmetry_multiplicity
 _atom_site_fract_x
 _atom_site_fract_y
 _atom_site_fract_z
 _atom_site_occupancy
  Yb  Yb0  1  0.00000000  0.00000000  0.00000000  1
  Lu  Lu0  1  0.50000000  0.50000000  0.50000000  1
  In  In0  1  0.75000000  0.75000000  0.75000000  1
  In  In1  1  0.25000000  0.25000000  0.25000000  1
loop_
_geom_bond_atom_site_label_1
_geom_bond_atom_site_label_2
_geom_bond_distance
_geom_bond_site_symmetry_2
In0 Lu0 3.184891 1_655
In0 Yb0 3.184891 1_566
In0 Lu0 3.184891 1_556
In0 Lu0 3.184891 1_555
In0 Yb0 3.184891 1_666
In0 Yb0 3.184891 1_656
In0 Yb0 3.184891 1_665
In0 Lu0 3.184891 1_565
In1 Lu0 3.184891 1_455
In1 Yb0 3.184891 1_655
In1 Yb0 3.184891 1_556
In1 Lu0 3.184891 1_545
In1 Lu0 3.184891 1_555
In1 Yb0 3.184891 1_565
In1 Lu0 3.184891 1_554
In1 Yb0 3.184891 1_555
