# generated using pymatgen
data_CaSn2S5
_symmetry_space_group_name_H-M   'P 1'
_cell_length_a   7.09382100
_cell_length_b   7.15553947
_cell_length_c   9.08081600
_cell_angle_alpha   104.83346839
_cell_angle_beta   103.88123137
_cell_angle_gamma   105.77824805
_symmetry_Int_Tables_number   1
_chemical_formula_structural   CaSn2S5
_chemical_formula_sum   'Ca2 Sn4 S10'
_cell_volume   404.36111385
_cell_formula_units_Z   2
loop_
 _symmetry_equiv_pos_site_id
 _symmetry_equiv_pos_as_xyz
  1  'x, y, z'
loop_
 _atom_site_type_symbol
 _atom_site_label
 _atom_site_symmetry_multiplicity
 _atom_site_fract_x
 _atom_site_fract_y
 _atom_site_fract_z
 _atom_site_occupancy
  Ca  Ca0  1  0.65368700  0.33675400  0.25722700  1
  Ca  Ca1  1  0.34631300  0.66324600  0.74277300  1
  Sn  Sn0  1  0.32156100  0.67801600  0.24944100  1
  Sn  Sn1  1  0.67843900  0.32198400  0.75055900  1
  Sn  Sn2  1  0.00000000  0.00000000  0.00000000  1
  Sn  Sn3  1  0.00000000  0.00000000  0.50000000  1
  S  S0  1  0.90549700  0.09430000  0.25141500  1
  S  S1  1  0.09450300  0.90570000  0.74858500  1
  S  S2  1  0.66526900  0.09080700  0.90431200  1
  S  S3  1  0.33473100  0.90919300  0.09568800  1
  S  S4  1  0.27779100  0.35751600  0.04756500  1
  S  S5  1  0.72220900  0.64248400  0.95243500  1
  S  S6  1  0.63653800  0.73374900  0.46165700  1
  S  S7  1  0.36346200  0.26625100  0.53834300  1
  S  S8  1  0.92180900  0.33945200  0.60365000  1
  S  S9  1  0.07819100  0.66054800  0.39635000  1
loop_
_geom_bond_atom_site_label_1
_geom_bond_atom_site_label_2
_geom_bond_distance
_geom_bond_site_symmetry_2
Ca0 S0 2.808411 1_555
Ca0 S4 2.946463 1_555
Ca0 S9 2.985623 1_655
Ca0 S3 2.996056 1_545
Ca0 S6 3.021060 1_555
Ca0 S8 3.254550 1_555
Ca0 S2 3.269798 1_554
Ca1 S1 2.808411 1_555
Ca1 S5 2.946463 1_555
Ca1 S8 2.985623 1_455
Ca1 S2 2.996056 1_565
Ca1 S7 3.021060 1_555
Ca1 S9 3.254550 1_555
Ca1 S3 3.269798 1_556
S0 Sn3 2.510015 1_655
S0 Sn2 2.511705 1_655
S1 Sn3 2.510015 1_565
S1 Sn2 2.511705 1_566
S2 Sn1 2.419830 1_555
S2 Sn2 2.636996 1_656
S3 Sn0 2.419830 1_555
S3 Sn2 2.636996 1_565
S4 Sn0 2.429711 1_555
S4 Sn2 2.626514 1_555
S5 Sn1 2.429711 1_555
S5 Sn2 2.626514 1_666
S6 Sn0 2.433330 1_555
S6 Sn3 2.637599 1_665
S7 Sn1 2.433330 1_555
S7 Sn3 2.637599 1_555
S8 Sn1 2.418466 1_555
S8 Sn3 2.627934 1_655
S9 Sn0 2.418466 1_555
S9 Sn3 2.627934 1_565
