# generated using pymatgen
data_La3YHf4O14
_symmetry_space_group_name_H-M   'P 1'
_cell_length_a   7.55639504
_cell_length_b   7.55639504
_cell_length_c   7.55639559
_cell_angle_alpha   58.61489802
_cell_angle_beta   58.61489802
_cell_angle_gamma   58.61490106
_symmetry_Int_Tables_number   1
_chemical_formula_structural   La3YHf4O14
_chemical_formula_sum   'La3 Y1 Hf4 O14'
_cell_volume   295.43006590
_cell_formula_units_Z   1
loop_
 _symmetry_equiv_pos_site_id
 _symmetry_equiv_pos_as_xyz
  1  'x, y, z'
loop_
 _atom_site_type_symbol
 _atom_site_label
 _atom_site_symmetry_multiplicity
 _atom_site_fract_x
 _atom_site_fract_y
 _atom_site_fract_z
 _atom_site_occupancy
  La  La0  1  0.00000000  0.50000000  0.50000000  1
  La  La1  1  0.50000000  0.50000000  0.00000000  1
  La  La2  1  0.50000000  0.00000000  0.50000000  1
  Y  Y0  1  0.50000000  0.50000000  0.50000000  1
  Hf  Hf0  1  0.00000000  0.00000000  0.00000000  1
  Hf  Hf1  1  0.50000000  0.00000000  0.00000000  1
  Hf  Hf2  1  0.00000000  0.00000000  0.50000000  1
  Hf  Hf3  1  0.00000000  0.50000000  0.00000000  1
  O  O0  1  0.13209900  0.13209900  0.13209900  1
  O  O1  1  0.86790100  0.86790100  0.86790100  1
  O  O2  1  0.87488100  0.37308700  0.37308700  1
  O  O3  1  0.35947200  0.89152800  0.89152800  1
  O  O4  1  0.37308700  0.37308700  0.87488100  1
  O  O5  1  0.89152800  0.89152800  0.35947200  1
  O  O6  1  0.89152800  0.35947200  0.89152800  1
  O  O7  1  0.37308700  0.87488100  0.37308700  1
  O  O8  1  0.12511900  0.62691300  0.62691300  1
  O  O9  1  0.64052800  0.10847200  0.10847200  1
  O  O10  1  0.62691300  0.62691300  0.12511900  1
  O  O11  1  0.10847200  0.10847200  0.64052800  1
  O  O12  1  0.10847200  0.64052800  0.10847200  1
  O  O13  1  0.62691300  0.12511900  0.62691300  1
loop_
_geom_bond_atom_site_label_1
_geom_bond_atom_site_label_2
_geom_bond_distance
_geom_bond_site_symmetry_2
La0 O2 2.362192 1_455
La0 O8 2.362192 1_555
La0 O5 2.379268 1_455
La0 O11 2.379268 1_555
La0 O6 2.379268 1_455
La0 O12 2.379268 1_555
La1 O4 2.362192 1_554
La1 O10 2.362192 1_555
La1 O12 2.379268 1_555
La1 O9 2.379268 1_555
La1 O6 2.379268 1_554
La1 O3 2.379268 1_554
La2 O7 2.362192 1_545
La2 O13 2.362192 1_555
La2 O5 2.379268 1_545
La2 O11 2.379268 1_555
La2 O3 2.379268 1_545
La2 O9 2.379268 1_555
Hf0 O6 2.187185 1_454
Hf0 O12 2.187185 1_545
Hf0 O9 2.187185 1_455
Hf0 O3 2.187185 1_544
Hf0 O11 2.187185 1_554
Hf0 O5 2.187185 1_445
Hf0 O1 2.470345 1_444
Hf0 O0 2.470345 1_555
Hf1 O1 2.231214 1_544
Hf1 O0 2.231214 1_555
Hf1 O3 2.232528 1_544
Hf1 O9 2.232528 1_555
Hf1 O10 2.261317 1_545
Hf1 O4 2.261317 1_554
Hf1 O13 2.261318 1_554
Hf1 O7 2.261318 1_545
Hf2 O0 2.231214 1_555
Hf2 O1 2.231214 1_445
Hf2 O11 2.232528 1_555
Hf2 O5 2.232528 1_445
Hf2 O13 2.261317 1_455
Hf2 O8 2.261317 1_545
Hf2 O2 2.261317 1_455
Hf2 O7 2.261317 1_545
Hf3 O1 2.231214 1_454
Hf3 O0 2.231214 1_555
Hf3 O6 2.232528 1_454
Hf3 O12 2.232528 1_555
Hf3 O4 2.261317 1_554
Hf3 O10 2.261317 1_455
Hf3 O8 2.261318 1_554
Hf3 O2 2.261318 1_455
O2 Y0 2.272146 1_555
O4 Y0 2.272146 1_555
O7 Y0 2.272146 1_555
O8 Y0 2.272146 1_555
O10 Y0 2.272146 1_555
O13 Y0 2.272146 1_555
