# generated using pymatgen
data_MoSeS
_symmetry_space_group_name_H-M   'P 1'
_cell_length_a   3.24896671
_cell_length_b   3.24922183
_cell_length_c   19.39873778
_cell_angle_alpha   90.00000000
_cell_angle_beta   90.00000000
_cell_angle_gamma   119.99742391
_symmetry_Int_Tables_number   1
_chemical_formula_structural   MoSeS
_chemical_formula_sum   'Mo2 Se2 S2'
_cell_volume   177.35359708
_cell_formula_units_Z   2
loop_
 _symmetry_equiv_pos_site_id
 _symmetry_equiv_pos_as_xyz
  1  'x, y, z'
loop_
 _atom_site_type_symbol
 _atom_site_label
 _atom_site_symmetry_multiplicity
 _atom_site_fract_x
 _atom_site_fract_y
 _atom_site_fract_z
 _atom_site_occupancy
  Mo  Mo0  1  0.55592793  0.11185485  0.00000000  1
  Mo  Mo1  1  0.33295421  0.66590941  0.50000000  1
  Se  Se0  1  0.66625443  0.33250787  0.58657124  1
  Se  Se1  1  0.66625443  0.33250787  0.41342876  1
  S  S0  1  0.22260500  0.44521000  0.07890027  1
  S  S1  1  0.22260500  0.44521000  0.92109973  1
loop_
_geom_bond_atom_site_label_1
_geom_bond_atom_site_label_2
_geom_bond_distance
_geom_bond_site_symmetry_2
Mo0 S1 2.421057 1_654
Mo0 S0 2.421057 1_655
Mo0 S0 2.421060 1_555
Mo0 S1 2.421060 1_554
Mo0 S0 2.421101 1_545
Mo0 S1 2.421101 1_544
Mo1 Se1 2.517718 1_565
Mo1 Se0 2.517718 1_565
Mo1 Se1 2.517821 1_455
Mo1 Se0 2.517821 1_455
Mo1 Se1 2.517825 1_555
Mo1 Se0 2.517825 1_555
