# generated using pymatgen
data_Sr2YbTaO6
_symmetry_space_group_name_H-M   'P 1'
_cell_length_a   5.84682577
_cell_length_b   5.96301500
_cell_length_c   8.31834807
_cell_angle_alpha   90.00000000
_cell_angle_beta   89.97535749
_cell_angle_gamma   90.00000000
_symmetry_Int_Tables_number   1
_chemical_formula_structural   Sr2YbTaO6
_chemical_formula_sum   'Sr4 Yb2 Ta2 O12'
_cell_volume   290.01676449
_cell_formula_units_Z   2
loop_
 _symmetry_equiv_pos_site_id
 _symmetry_equiv_pos_as_xyz
  1  'x, y, z'
loop_
 _atom_site_type_symbol
 _atom_site_label
 _atom_site_symmetry_multiplicity
 _atom_site_fract_x
 _atom_site_fract_y
 _atom_site_fract_z
 _atom_site_occupancy
  Sr  Sr0  1  0.49024200  0.54318400  0.24883100  1
  Sr  Sr1  1  0.99024200  0.95681600  0.74883100  1
  Sr  Sr2  1  0.50975800  0.45681600  0.75116900  1
  Sr  Sr3  1  0.00975800  0.04318400  0.25116900  1
  Yb  Yb0  1  0.00000000  0.50000000  0.50000000  1
  Yb  Yb1  1  0.50000000  0.00000000  0.00000000  1
  Ta  Ta0  1  0.50000000  0.00000000  0.50000000  1
  Ta  Ta1  1  0.00000000  0.50000000  0.00000000  1
  O  O0  1  0.22576300  0.80701400  0.45772300  1
  O  O1  1  0.72576300  0.69298600  0.95772300  1
  O  O2  1  0.77423700  0.19298600  0.54227700  1
  O  O3  1  0.27423700  0.30701400  0.04227700  1
  O  O4  1  0.18810800  0.77369200  0.04860600  1
  O  O5  1  0.68810800  0.72630800  0.54860600  1
  O  O6  1  0.81189200  0.22630800  0.95139400  1
  O  O7  1  0.31189200  0.27369200  0.45139400  1
  O  O8  1  0.58718500  0.97081500  0.26802400  1
  O  O9  1  0.08718500  0.52918500  0.76802400  1
  O  O10  1  0.41281500  0.02918500  0.73197600  1
  O  O11  1  0.91281500  0.47081500  0.23197600  1
loop_
_geom_bond_atom_site_label_1
_geom_bond_atom_site_label_2
_geom_bond_distance
_geom_bond_site_symmetry_2
O0 Ta0 2.004843 1_565
O0 Yb0 2.284127 1_555
O0 Sr3 2.555842 1_565
O0 Sr0 2.807728 1_555
O0 Sr1 2.924924 1_455
O1 Ta1 2.004843 1_656
O1 Yb1 2.284127 1_566
O1 Sr2 2.555842 1_555
O1 Sr1 2.807728 1_555
O1 Sr0 2.924924 1_556
O2 Ta0 2.004843 1_555
O2 Yb0 2.284127 1_655
O2 Sr1 2.555842 1_545
O2 Sr2 2.807728 1_555
O2 Sr3 2.924924 1_655
O3 Ta1 2.004843 1_555
O3 Yb1 2.284127 1_555
O3 Sr0 2.555842 1_555
O3 Sr3 2.807728 1_555
O3 Sr2 2.924924 1_554
O4 Ta1 2.009232 1_555
O4 Yb1 2.304207 1_565
O4 Sr3 2.550975 1_565
O4 Sr0 2.790427 1_555
O4 Sr1 2.958290 1_454
O5 Ta0 2.009232 1_565
O5 Yb0 2.304207 1_655
O5 Sr2 2.550975 1_555
O5 Sr1 2.790427 1_555
O5 Sr0 2.958290 1_555
O6 Ta1 2.009232 1_656
O6 Yb1 2.304207 1_556
O6 Sr1 2.550975 1_545
O6 Sr2 2.790427 1_555
O6 Sr3 2.958290 1_656
O7 Ta0 2.009232 1_555
O7 Yb0 2.304207 1_555
O7 Sr0 2.550975 1_555
O7 Sr3 2.790427 1_555
O7 Sr2 2.958290 1_555
O8 Ta0 2.003214 1_565
O8 Yb1 2.293875 1_565
O8 Sr3 2.511970 1_665
O8 Sr0 2.617095 1_555
O9 Ta1 2.003214 1_556
O9 Yb0 2.293875 1_555
O9 Sr2 2.511970 1_555
O9 Sr1 2.617095 1_455
O10 Ta0 2.003214 1_555
O10 Yb1 2.293875 1_556
O10 Sr1 2.511970 1_445
O10 Sr2 2.617095 1_555
O11 Ta1 2.003214 1_655
O11 Yb0 2.293875 1_655
O11 Sr0 2.511970 1_555
O11 Sr3 2.617095 1_655
