# generated using pymatgen
data_Li4MnCo2O7
_symmetry_space_group_name_H-M   'P 1'
_cell_length_a   2.97866600
_cell_length_b   9.74360902
_cell_length_c   9.78384359
_cell_angle_alpha   115.98619020
_cell_angle_beta   92.68999161
_cell_angle_gamma   97.08086922
_symmetry_Int_Tables_number   1
_chemical_formula_structural   Li4MnCo2O7
_chemical_formula_sum   'Li8 Mn2 Co4 O14'
_cell_volume   251.67428463
_cell_formula_units_Z   2
loop_
 _symmetry_equiv_pos_site_id
 _symmetry_equiv_pos_as_xyz
  1  'x, y, z'
loop_
 _atom_site_type_symbol
 _atom_site_label
 _atom_site_symmetry_multiplicity
 _atom_site_fract_x
 _atom_site_fract_y
 _atom_site_fract_z
 _atom_site_occupancy
  Li  Li0  1  0.92947200  0.85695200  0.21353700  1
  Li  Li1  1  0.20092700  0.42603700  0.36530900  1
  Li  Li2  1  0.49260500  0.00598900  0.50613000  1
  Li  Li3  1  0.77652300  0.56072000  0.63937200  1
  Li  Li4  1  0.08055000  0.14593200  0.78735000  1
  Li  Li5  1  0.35713000  0.70878300  0.92688600  1
  Li  Li6  1  0.65764500  0.29243400  0.06766300  1
  Li  Li7  1  0.16175100  0.29499000  0.57024600  1
  Mn  Mn0  1  0.98723100  0.99571400  0.99746500  1
  Mn  Mn1  1  0.56763200  0.14836500  0.29645100  1
  Co  Co0  1  0.28908600  0.57099200  0.14272500  1
  Co  Co1  1  0.86234500  0.71480000  0.42913500  1
  Co  Co2  1  0.43219000  0.85608200  0.71088600  1
  Co  Co3  1  0.71372400  0.42215500  0.84590000  1
  O  O0  1  0.42438900  0.93685900  0.10996100  1
  O  O1  1  0.76606000  0.51218900  0.25184400  1
  O  O2  1  0.04852400  0.08153400  0.38294700  1
  O  O3  1  0.34268500  0.65651400  0.53737400  1
  O  O4  1  0.61696900  0.23388300  0.69936100  1
  O  O5  1  0.86715000  0.79339900  0.81598800  1
  O  O6  1  0.15463900  0.36858500  0.96854100  1
  O  O7  1  0.38665800  0.77503000  0.31768800  1
  O  O8  1  0.67611400  0.34505600  0.45193600  1
  O  O9  1  0.99526500  0.92120200  0.60436400  1
  O  O10  1  0.27526100  0.49483900  0.76009500  1
  O  O11  1  0.55555200  0.05949100  0.88872200  1
  O  O12  1  0.80699200  0.62240100  0.02653400  1
  O  O13  1  0.07493200  0.19907200  0.18559300  1
loop_
_geom_bond_atom_site_label_1
_geom_bond_atom_site_label_2
_geom_bond_distance
_geom_bond_site_symmetry_2
Li0 O2 2.058291 1_665
Li0 O0 2.086865 1_655
Li0 O7 2.092971 1_655
Li0 O0 2.175692 1_555
Li0 O12 2.184294 1_555
Li0 O7 2.199768 1_555
Li1 O8 2.023148 1_555
Li1 O8 2.047181 1_455
Li1 O3 2.107606 1_555
Li1 O13 2.109273 1_555
Li1 O1 2.136490 1_455
Li1 O1 2.326865 1_555
Li2 O9 2.080505 1_445
Li2 O2 2.147523 1_555
Li2 O4 2.166747 1_555
Li2 O7 2.167363 1_545
Li2 O9 2.171098 1_545
Li2 O2 2.323907 1_655
Li3 O8 2.069969 1_555
Li3 O3 2.128276 1_555
Li3 O5 2.137995 1_555
Li3 O10 2.151770 1_555
Li3 O10 2.179194 1_655
Li3 O3 2.301558 1_655
Li4 O4 2.051554 1_455
Li4 O6 2.091144 1_555
Li4 O9 2.109336 1_445
Li4 O4 2.113409 1_555
Li4 O11 2.142201 1_555
Li4 O11 2.165964 1_455
Li5 O10 1.980976 1_555
Li5 O12 2.080626 1_556
Li5 O0 2.134338 1_556
Li5 O5 2.189685 1_555
Li5 O12 2.207530 1_456
Li5 O5 2.217885 1_455
Li6 O6 2.043792 1_654
Li6 O1 2.080855 1_555
Li6 O6 2.122303 1_554
Li6 O11 2.146350 1_554
Li6 O13 2.183499 1_655
Li6 O13 2.426923 1_555
Li7 O10 1.991337 1_555
Li7 O8 2.044989 1_455
Li7 O2 2.055893 1_555
Li7 O8 2.098152 1_555
Li7 O4 2.118072 1_555
Li7 O4 2.279655 1_455
Mn0 O11 1.954328 1_565
Mn0 O0 1.959219 1_656
Mn0 O5 1.966169 1_555
Mn0 O13 2.003374 1_666
Mn0 O0 2.200060 1_556
Mn0 O11 2.207457 1_665
Mn1 O8 1.826979 1_555
Mn1 O2 1.947073 1_655
Mn1 O2 1.971946 1_555
Mn1 O13 2.018233 1_555
Mn1 O13 2.035491 1_655
Mn1 O0 2.042859 1_545
Co0 O6 1.936516 1_554
Co0 O7 1.948275 1_555
Co0 O1 2.020128 1_555
Co0 O12 2.031848 1_455
Co0 O1 2.089796 1_455
Co0 O12 2.096696 1_555
Co1 O1 1.949689 1_555
Co1 O9 1.964456 1_555
Co1 O3 2.018971 1_655
Co1 O7 2.040026 1_555
Co1 O3 2.074641 1_555
Co1 O7 2.113536 1_655
Co2 O3 1.916007 1_555
Co2 O5 1.931167 1_555
Co2 O11 1.956780 1_565
Co2 O9 1.959159 1_455
Co2 O5 2.173136 1_455
Co2 O9 2.187006 1_555
Co3 O4 1.740664 1_555
Co3 O10 1.886310 1_555
Co3 O12 1.950888 1_556
Co3 O6 2.001748 1_655
Co3 O10 2.089204 1_655
Co3 O6 2.237771 1_555
