# generated using pymatgen
data_Nd2Ni2Sn
_symmetry_space_group_name_H-M   'P 1'
_cell_length_a   5.58905534
_cell_length_b   5.58905534
_cell_length_c   5.58905534
_cell_angle_alpha   134.18153451
_cell_angle_beta   118.56573154
_cell_angle_gamma   79.91548341
_symmetry_Int_Tables_number   1
_chemical_formula_structural   Nd2Ni2Sn
_chemical_formula_sum   'Nd2 Ni2 Sn1'
_cell_volume   106.43936469
_cell_formula_units_Z   1
loop_
 _symmetry_equiv_pos_site_id
 _symmetry_equiv_pos_as_xyz
  1  'x, y, z'
loop_
 _atom_site_type_symbol
 _atom_site_label
 _atom_site_symmetry_multiplicity
 _atom_site_fract_x
 _atom_site_fract_y
 _atom_site_fract_z
 _atom_site_occupancy
  Nd  Nd0  1  0.29726589  0.79726589  0.50000000  1
  Nd  Nd1  1  0.70273411  0.20273411  0.50000000  1
  Ni  Ni0  1  0.71061733  0.50000000  0.21061733  1
  Ni  Ni1  1  0.28938267  0.50000000  0.78938267  1
  Sn  Sn0  1  -0.00000000  -0.00000000  -0.00000000  1
loop_
_geom_bond_atom_site_label_1
_geom_bond_atom_site_label_2
_geom_bond_distance
_geom_bond_site_symmetry_2
Nd0 Ni1 3.032677 1_565
Nd0 Ni0 3.032677 1_566
Nd0 Ni1 3.032677 1_554
Nd0 Ni0 3.032677 1_555
Nd0 Ni0 3.036042 1_455
Nd0 Ni1 3.036042 1_555
Nd0 Sn0 3.341828 1_565
Nd0 Sn0 3.341828 1_666
Nd0 Sn0 3.349767 1_555
Nd0 Sn0 3.349767 1_566
Nd0 Nd1 3.474144 1_565
Nd0 Nd1 3.679669 1_566
Nd0 Nd1 3.679669 1_465
Nd0 Nd1 3.679669 1_454
Nd0 Nd1 3.679669 1_555
Nd1 Ni1 3.032677 1_544
Nd1 Ni1 3.032677 1_555
Nd1 Ni0 3.032677 1_545
Nd1 Ni0 3.032677 1_556
Nd1 Ni1 3.036042 1_655
Nd1 Ni0 3.036042 1_555
Nd1 Sn0 3.341828 1_656
Nd1 Sn0 3.341828 1_555
Nd1 Sn0 3.349767 1_666
Nd1 Sn0 3.349767 1_655
Ni0 Ni1 2.405157 1_554
Ni0 Sn0 2.731968 1_655
Ni0 Sn0 2.731968 1_666
Ni1 Sn0 2.731968 1_566
Ni1 Sn0 2.731968 1_555
