# generated using pymatgen
data_CaTa2CoO7
_symmetry_space_group_name_H-M   'P 1'
_cell_length_a   15.14305300
_cell_length_b   7.16717000
_cell_length_c   11.80374187
_cell_angle_alpha   77.95663403
_cell_angle_beta   90.00000000
_cell_angle_gamma   90.00000000
_symmetry_Int_Tables_number   1
_chemical_formula_structural   CaTa2CoO7
_chemical_formula_sum   'Ca8 Ta16 Co8 O56'
_cell_volume   1252.89664577
_cell_formula_units_Z   8
loop_
 _symmetry_equiv_pos_site_id
 _symmetry_equiv_pos_as_xyz
  1  'x, y, z'
loop_
 _atom_site_type_symbol
 _atom_site_label
 _atom_site_symmetry_multiplicity
 _atom_site_fract_x
 _atom_site_fract_y
 _atom_site_fract_z
 _atom_site_occupancy
  Ca  Ca0  1  0.51031300  0.93993000  0.72936800  1
  Ca  Ca1  1  0.87132300  0.68668100  0.96069400  1
  Ca  Ca2  1  0.37132300  0.31331900  0.53930600  1
  Ca  Ca3  1  0.12867700  0.31331900  0.03930600  1
  Ca  Ca4  1  0.62867700  0.68668100  0.46069400  1
  Ca  Ca5  1  0.98968700  0.93993000  0.22936800  1
  Ca  Ca6  1  0.48968700  0.06007000  0.27063200  1
  Ca  Ca7  1  0.01031300  0.06007000  0.77063200  1
  Ta  Ta0  1  0.87483800  0.16513700  0.97714200  1
  Ta  Ta1  1  0.01579400  0.57727400  0.69168300  1
  Ta  Ta2  1  0.48420600  0.57727400  0.19168300  1
  Ta  Ta3  1  0.98420600  0.42272600  0.30831700  1
  Ta  Ta4  1  0.71738000  0.49371200  0.79868800  1
  Ta  Ta5  1  0.21738000  0.50628800  0.70131200  1
  Ta  Ta6  1  0.28262000  0.50628800  0.20131200  1
  Ta  Ta7  1  0.78262000  0.49371200  0.29868800  1
  Ta  Ta8  1  0.51579400  0.42272600  0.80831700  1
  Ta  Ta9  1  0.14046900  0.12870500  0.48412800  1
  Ta  Ta10  1  0.64046900  0.87129500  0.01587200  1
  Ta  Ta11  1  0.85953100  0.87129500  0.51587200  1
  Ta  Ta12  1  0.37483800  0.83486300  0.52285800  1
  Ta  Ta13  1  0.62516200  0.16513700  0.47714200  1
  Ta  Ta14  1  0.12516200  0.83486300  0.02285800  1
  Ta  Ta15  1  0.35953100  0.12870500  0.98412800  1
  Co  Co0  1  0.66871300  0.35706100  0.07923100  1
  Co  Co1  1  0.16871300  0.64293900  0.42076900  1
  Co  Co2  1  0.33128700  0.64293900  0.92076900  1
  Co  Co3  1  0.83128700  0.35706100  0.57923100  1
  Co  Co4  1  0.75454400  0.00811300  0.24357700  1
  Co  Co5  1  0.25454400  0.99188700  0.25642300  1
  Co  Co6  1  0.24545600  0.99188700  0.75642300  1
  Co  Co7  1  0.74545600  0.00811300  0.74357700  1
  O  O0  1  0.99158100  0.23199400  0.96107500  1
  O  O1  1  0.49158100  0.76800600  0.53892500  1
  O  O2  1  0.00841900  0.76800600  0.03892500  1
  O  O3  1  0.50841900  0.23199400  0.46107500  1
  O  O4  1  0.85876500  0.00863000  0.87104700  1
  O  O5  1  0.35876500  0.99137000  0.62895300  1
  O  O6  1  0.14123500  0.99137000  0.12895300  1
  O  O7  1  0.64123500  0.00863000  0.37104700  1
  O  O8  1  0.85986800  0.01149500  0.12267600  1
  O  O9  1  0.35986800  0.98850500  0.37732400  1
  O  O10  1  0.14013200  0.98850500  0.87732400  1
  O  O11  1  0.64013200  0.01149500  0.62267600  1
  O  O12  1  0.27932000  0.32873900  0.95667500  1
  O  O13  1  0.77932000  0.67126100  0.54332500  1
  O  O14  1  0.72068000  0.67126100  0.04332500  1
  O  O15  1  0.22068000  0.32873900  0.45667500  1
  O  O16  1  0.36421600  0.02708600  0.14197400  1
  O  O17  1  0.86421600  0.97291400  0.35802600  1
  O  O18  1  0.63578400  0.97291400  0.85802600  1
  O  O19  1  0.13578400  0.02708600  0.64197400  1
  O  O20  1  0.33304100  0.93931900  0.89955900  1
  O  O21  1  0.44298400  0.62880400  0.81448500  1
  O  O22  1  0.83304100  0.06068100  0.60044100  1
  O  O23  1  0.16695900  0.93931900  0.39955900  1
  O  O24  1  0.47839000  0.27591800  0.70548300  1
  O  O25  1  0.97839000  0.72408200  0.79451700  1
  O  O26  1  0.52161000  0.72408200  0.29451700  1
  O  O27  1  0.02161000  0.27591800  0.20548300  1
  O  O28  1  0.47272100  0.23192600  0.94564600  1
  O  O29  1  0.97272100  0.76807400  0.55435400  1
  O  O30  1  0.52727900  0.76807400  0.05435400  1
  O  O31  1  0.02727900  0.23192600  0.44564600  1
  O  O32  1  0.88950300  0.56367400  0.20677300  1
  O  O33  1  0.38950300  0.43632600  0.29322700  1
  O  O34  1  0.11049700  0.43632600  0.79322700  1
  O  O35  1  0.61049700  0.56367400  0.70677300  1
  O  O36  1  0.74459100  0.30605500  0.22095600  1
  O  O37  1  0.24459100  0.69394500  0.27904400  1
  O  O38  1  0.25540900  0.69394500  0.77904400  1
  O  O39  1  0.75540900  0.30605500  0.72095600  1
  O  O40  1  0.70082700  0.38565500  0.44479400  1
  O  O41  1  0.20082700  0.61434500  0.05520600  1
  O  O42  1  0.29917300  0.61434500  0.55520600  1
  O  O43  1  0.79917300  0.38565500  0.94479400  1
  O  O44  1  0.72501600  0.72400300  0.28514100  1
  O  O45  1  0.22501600  0.27599700  0.21485900  1
  O  O46  1  0.27498400  0.27599700  0.71485900  1
  O  O47  1  0.77498400  0.72400300  0.78514100  1
  O  O48  1  0.87589700  0.41131700  0.41540100  1
  O  O49  1  0.37589700  0.58868300  0.08459900  1
  O  O50  1  0.12410300  0.58868300  0.58459900  1
  O  O51  1  0.62410300  0.41131700  0.91540100  1
  O  O52  1  0.05701600  0.62880400  0.31448500  1
  O  O53  1  0.55701600  0.37119600  0.18551500  1
  O  O54  1  0.94298400  0.37119600  0.68551500  1
  O  O55  1  0.66695900  0.06068100  0.10044100  1
loop_
_geom_bond_atom_site_label_1
_geom_bond_atom_site_label_2
_geom_bond_distance
_geom_bond_site_symmetry_2
Ca0 O11 2.333263 1_565
Ca0 O24 2.414275 1_565
Ca0 O21 2.467072 1_555
Ca0 O18 2.474276 1_555
Ca0 O5 2.573908 1_555
Ca0 O1 2.794269 1_555
Ca1 O4 2.336953 1_565
Ca1 O2 2.393123 1_656
Ca1 O43 2.460231 1_555
Ca1 O14 2.474348 1_556
Ca1 O47 2.502494 1_555
Ca1 O25 2.515679 1_555
Ca1 O32 2.867301 1_556
Ca2 O5 2.336953 1_545
Ca2 O3 2.393123 1_555
Ca2 O42 2.460231 1_555
Ca2 O15 2.474348 1_555
Ca2 O46 2.502494 1_555
Ca2 O24 2.515679 1_555
Ca2 O33 2.867301 1_555
Ca3 O6 2.336953 1_545
Ca3 O0 2.393123 1_454
Ca3 O41 2.460231 1_555
Ca3 O12 2.474348 1_554
Ca3 O45 2.502494 1_555
Ca3 O27 2.515679 1_555
Ca3 O34 2.867301 1_554
Ca4 O7 2.336953 1_565
Ca4 O1 2.393123 1_555
Ca4 O40 2.460231 1_555
Ca4 O13 2.474348 1_555
Ca4 O44 2.502494 1_555
Ca4 O26 2.515679 1_555
Ca4 O35 2.867301 1_555
Ca5 O8 2.333263 1_565
Ca5 O27 2.414275 1_665
Ca5 O52 2.467072 1_655
Ca5 O17 2.474276 1_555
Ca5 O6 2.573908 1_655
Ca5 O2 2.794269 1_655
Ca6 O9 2.333263 1_545
Ca6 O26 2.414275 1_545
Ca6 O53 2.467072 1_555
Ca6 O16 2.474276 1_555
Ca6 O7 2.573908 1_555
Ca6 O3 2.794269 1_555
Ca7 O10 2.333263 1_545
Ca7 O25 2.414275 1_445
Ca7 O54 2.467072 1_455
Ca7 O19 2.474276 1_555
Ca7 O4 2.573908 1_455
Ca7 O0 2.794269 1_455
Co0 O36 1.999310 1_555
Co0 O51 2.008323 1_554
Co0 O55 2.086554 1_555
Co0 O53 2.120882 1_555
Co0 O14 2.339184 1_555
Co0 O43 2.515405 1_554
Co1 O37 1.999310 1_555
Co1 O50 2.008323 1_555
Co1 O23 2.086554 1_555
Co1 O52 2.120882 1_555
Co1 O15 2.339184 1_555
Co1 O42 2.515405 1_555
Co2 O38 1.999310 1_555
Co2 O49 2.008323 1_556
Co2 O20 2.086554 1_555
Co2 O21 2.120882 1_555
Co2 O12 2.339184 1_555
Co2 O41 2.515405 1_556
Co3 O39 1.999310 1_555
Co3 O48 2.008323 1_555
Co3 O22 2.086554 1_555
Co3 O54 2.120882 1_555
Co3 O13 2.339184 1_555
Co3 O40 2.515405 1_555
Co4 O44 2.042087 1_545
Co4 O36 2.101431 1_555
Co4 O55 2.118949 1_555
Co4 O17 2.122399 1_545
Co4 O8 2.136940 1_555
Co4 O7 2.282620 1_555
Co5 O45 2.042087 1_565
Co5 O37 2.101431 1_555
Co5 O23 2.118949 1_555
Co5 O16 2.122399 1_565
Co5 O9 2.136940 1_555
Co5 O6 2.282620 1_555
Co6 O46 2.042087 1_565
Co6 O38 2.101431 1_555
Co6 O20 2.118949 1_555
Co6 O19 2.122399 1_565
Co6 O10 2.136940 1_555
Co6 O5 2.282620 1_555
Co7 O47 2.042087 1_545
Co7 O39 2.101431 1_555
Co7 O22 2.118949 1_555
Co7 O18 2.122399 1_545
Co7 O11 2.136940 1_555
Co7 O4 2.282620 1_555
O0 Ta0 1.831101 1_555
O1 Ta12 1.831101 1_555
O2 Ta14 1.831101 1_555
O3 Ta13 1.831101 1_555
O4 Ta0 1.863326 1_555
O5 Ta12 1.863326 1_555
O6 Ta14 1.863326 1_555
O7 Ta13 1.863326 1_555
O8 Ta0 1.850833 1_554
O9 Ta12 1.850833 1_555
O10 Ta14 1.850833 1_556
O11 Ta13 1.850833 1_555
O12 Ta15 1.855240 1_555
O13 Ta11 1.855240 1_555
O14 Ta10 1.855240 1_555
O15 Ta9 1.855240 1_555
O16 Ta15 1.854892 1_554
O17 Ta11 1.854892 1_555
O18 Ta10 1.854892 1_556
O19 Ta9 1.854892 1_555
O20 Ta15 1.888184 1_565
O21 Ta8 1.856702 1_555
O22 Ta11 1.888184 1_545
O23 Ta9 1.888184 1_565
O24 Ta8 1.853184 1_555
O25 Ta1 1.853184 1_655
O26 Ta2 1.853184 1_555
O27 Ta3 1.853184 1_455
O28 Ta15 1.884501 1_555
O28 Ta8 1.999518 1_555
O29 Ta11 1.884501 1_555
O29 Ta1 1.999518 1_655
O30 Ta10 1.884501 1_555
O30 Ta2 1.999518 1_555
O31 Ta9 1.884501 1_555
O31 Ta3 1.999518 1_455
O32 Ta7 1.954779 1_555
O32 Ta3 2.002119 1_555
O33 Ta6 1.954779 1_555
O33 Ta2 2.002119 1_555
O34 Ta5 1.954779 1_555
O34 Ta1 2.002119 1_555
O35 Ta4 1.954779 1_555
O35 Ta8 2.002119 1_555
O36 Ta7 1.870136 1_555
O37 Ta6 1.870136 1_555
O38 Ta5 1.870136 1_555
O39 Ta4 1.870136 1_555
O40 Ta13 1.924776 1_555
O40 Ta7 2.133256 1_555
O41 Ta14 1.924776 1_555
O41 Ta6 2.133256 1_555
O42 Ta12 1.924776 1_555
O42 Ta5 2.133256 1_555
O43 Ta0 1.924776 1_555
O43 Ta4 2.133256 1_555
O44 Ta7 1.844073 1_555
O45 Ta6 1.844073 1_555
O46 Ta5 1.844073 1_555
O47 Ta4 1.844073 1_555
O48 Ta7 1.975426 1_555
O48 Ta3 2.061857 1_555
O49 Ta6 1.975426 1_555
O49 Ta2 2.061857 1_555
O50 Ta5 1.975426 1_555
O50 Ta1 2.061857 1_555
O51 Ta4 1.975426 1_555
O51 Ta8 2.061857 1_555
O52 Ta3 1.856702 1_455
O53 Ta2 1.856702 1_555
O54 Ta1 1.856702 1_655
O55 Ta10 1.888184 1_545
