# generated using pymatgen
data_TaSeN
_symmetry_space_group_name_H-M   'P 1'
_cell_length_a   3.64756100
_cell_length_b   3.64756100
_cell_length_c   6.37989600
_cell_angle_alpha   90.00000000
_cell_angle_beta   90.00000000
_cell_angle_gamma   90.00000000
_symmetry_Int_Tables_number   1
_chemical_formula_structural   TaSeN
_chemical_formula_sum   'Ta2 Se2 N2'
_cell_volume   84.88261028
_cell_formula_units_Z   2
loop_
 _symmetry_equiv_pos_site_id
 _symmetry_equiv_pos_as_xyz
  1  'x, y, z'
loop_
 _atom_site_type_symbol
 _atom_site_label
 _atom_site_symmetry_multiplicity
 _atom_site_fract_x
 _atom_site_fract_y
 _atom_site_fract_z
 _atom_site_occupancy
  Ta  Ta0  1  0.50000000  0.00000000  0.17294000  1
  Ta  Ta1  1  0.00000000  0.50000000  0.82706000  1
  Se  Se0  1  0.50000000  0.00000000  0.62003400  1
  Se  Se1  1  0.00000000  0.50000000  0.37996600  1
  N  N0  1  0.50000000  0.50000000  0.00000000  1
  N  N1  1  0.00000000  0.00000000  0.00000000  1
loop_
_geom_bond_atom_site_label_1
_geom_bond_atom_site_label_2
_geom_bond_distance
_geom_bond_site_symmetry_2
Se0 Ta0 2.852413 1_555
Se0 Ta1 2.897736 1_645
Se0 Ta1 2.897736 1_655
Se0 Ta1 2.897736 1_555
Se0 Ta1 2.897736 1_545
Se1 Ta1 2.852413 1_555
Se1 Ta0 2.897736 1_565
Se1 Ta0 2.897736 1_455
Se1 Ta0 2.897736 1_555
Se1 Ta0 2.897736 1_465
N0 Ta1 2.131556 1_554
N0 Ta1 2.131556 1_654
N0 Ta0 2.131556 1_565
N0 Ta0 2.131556 1_555
N1 Ta1 2.131556 1_544
N1 Ta0 2.131556 1_455
N1 Ta0 2.131556 1_555
N1 Ta1 2.131556 1_554
