# generated using pymatgen
data_Re3Br8Cl
_symmetry_space_group_name_H-M   'P 1'
_cell_length_a   9.96132857
_cell_length_b   9.96132857
_cell_length_c   9.87833584
_cell_angle_alpha   65.33188227
_cell_angle_beta   65.33188227
_cell_angle_gamma   65.44859102
_symmetry_Int_Tables_number   1
_chemical_formula_structural   Re3Br8Cl
_chemical_formula_sum   'Re6 Br16 Cl2'
_cell_volume   774.13260392
_cell_formula_units_Z   2
loop_
 _symmetry_equiv_pos_site_id
 _symmetry_equiv_pos_as_xyz
  1  'x, y, z'
loop_
 _atom_site_type_symbol
 _atom_site_label
 _atom_site_symmetry_multiplicity
 _atom_site_fract_x
 _atom_site_fract_y
 _atom_site_fract_z
 _atom_site_occupancy
  Re  Re0  1  0.64662911  0.87365105  0.14534623  1
  Re  Re1  1  0.87365105  0.64662911  0.14534623  1
  Re  Re2  1  0.35423876  0.12713643  0.85381817  1
  Re  Re3  1  0.12713643  0.35423876  0.85381817  1
  Re  Re4  1  0.64547089  0.64547089  0.37382142  1
  Re  Re5  1  0.35423170  0.35423170  0.62569461  1
  Br  Br0  1  0.71523113  0.03385782  0.21858211  1
  Br  Br1  1  0.03385782  0.71523113  0.21858211  1
  Br  Br2  1  0.28487933  0.96654775  0.78191322  1
  Br  Br3  1  0.96654775  0.28487933  0.78191322  1
  Br  Br4  1  0.51242841  0.82981411  0.00463460  1
  Br  Br5  1  0.82981411  0.51242841  0.00463460  1
  Br  Br6  1  0.49157723  0.17200571  0.99027149  1
  Br  Br7  1  0.17200571  0.49157723  0.99027149  1
  Br  Br8  1  0.88083796  0.88083796  0.90133836  1
  Br  Br9  1  0.12127402  0.12127402  0.09846944  1
  Br  Br10  1  0.71438649  0.71438649  0.53801893  1
  Br  Br11  1  0.28512509  0.28512509  0.46208565  1
  Br  Br12  1  0.50976914  0.50976914  0.32618346  1
  Br  Br13  1  0.48992432  0.48992432  0.67258604  1
  Br  Br14  1  0.40255096  0.87766737  0.37928037  1
  Br  Br15  1  0.87766737  0.40255096  0.37928037  1
  Cl  Cl0  1  0.57971321  0.13105399  0.62705586  1
  Cl  Cl1  1  0.13105399  0.57971321  0.62705586  1
loop_
_geom_bond_atom_site_label_1
_geom_bond_atom_site_label_2
_geom_bond_distance
_geom_bond_site_symmetry_2
Br0 Re0 2.412435 1_545
Br1 Re1 2.412435 1_455
Br2 Re2 2.411934 1_565
Br3 Re3 2.411934 1_655
Br4 Re0 2.540213 1_555
Br4 Re2 2.805801 1_564
Br5 Re1 2.540213 1_555
Br5 Re3 2.805801 1_654
Br6 Re2 2.537448 1_555
Br6 Re0 2.815150 1_546
Br7 Re3 2.537448 1_555
Br7 Re1 2.815150 1_456
Br8 Re1 2.561021 1_556
Br8 Re0 2.561021 1_556
Br9 Re3 2.557889 1_554
Br9 Re2 2.557889 1_554
Br10 Re4 2.413288 1_555
Br11 Re5 2.410603 1_555
Br12 Re4 2.540962 1_555
Br12 Re5 2.810129 1_555
Br13 Re5 2.536177 1_555
Br13 Re4 2.805827 1_555
Br14 Re4 2.559739 1_555
Br14 Re0 2.561173 1_555
Br15 Re4 2.559739 1_555
Br15 Re1 2.561173 1_555
Cl0 Re5 2.416227 1_555
Cl0 Re2 2.421599 1_555
Cl1 Re5 2.416227 1_555
Cl1 Re3 2.421599 1_555
