# generated using pymatgen
data_CaNiP2O7
_symmetry_space_group_name_H-M   'P 1'
_cell_length_a   6.31302520
_cell_length_b   6.55641077
_cell_length_c   7.01885803
_cell_angle_alpha   83.25508981
_cell_angle_beta   89.76394873
_cell_angle_gamma   68.19544392
_symmetry_Int_Tables_number   1
_chemical_formula_structural   CaNiP2O7
_chemical_formula_sum   'Ca2 Ni2 P4 O14'
_cell_volume   267.61863079
_cell_formula_units_Z   2
loop_
 _symmetry_equiv_pos_site_id
 _symmetry_equiv_pos_as_xyz
  1  'x, y, z'
loop_
 _atom_site_type_symbol
 _atom_site_label
 _atom_site_symmetry_multiplicity
 _atom_site_fract_x
 _atom_site_fract_y
 _atom_site_fract_z
 _atom_site_occupancy
  Ca  Ca0  1  0.29664200  0.72743700  0.62423400  1
  Ca  Ca1  1  0.70331700  0.27259700  0.37573000  1
  Ni  Ni0  1  0.75164100  0.87178900  0.80415400  1
  Ni  Ni1  1  0.24838400  0.12801800  0.19567800  1
  P  P0  1  0.16215100  0.65897000  0.12096700  1
  P  P1  1  0.83786500  0.34107400  0.87907200  1
  P  P2  1  0.24665800  0.21963100  0.62658300  1
  P  P3  1  0.75331900  0.78036000  0.37338800  1
  O  O0  1  0.07974500  0.74748600  0.91003300  1
  O  O1  1  0.92026300  0.25258900  0.08998800  1
  O  O2  1  0.24338700  0.81130800  0.22218200  1
  O  O3  1  0.75655600  0.18872200  0.77787900  1
  O  O4  1  0.32574900  0.41598500  0.14434600  1
  O  O5  1  0.67431500  0.58404400  0.85570600  1
  O  O6  1  0.64257100  0.62077000  0.45100300  1
  O  O7  1  0.35741400  0.37924800  0.54899100  1
  O  O8  1  0.11983400  0.15532100  0.46921600  1
  O  O9  1  0.88016200  0.84465600  0.53081000  1
  O  O10  1  0.06707500  0.34844600  0.77285500  1
  O  O11  1  0.93295900  0.65155400  0.22718900  1
  O  O12  1  0.58802100  0.99767800  0.26138600  1
  O  O13  1  0.41197800  0.00231800  0.73861400  1
loop_
_geom_bond_atom_site_label_1
_geom_bond_atom_site_label_2
_geom_bond_distance
_geom_bond_site_symmetry_2
Ca0 O7 2.295318 1_555
Ca0 O13 2.396297 1_565
Ca0 O6 2.404157 1_555
Ca0 O0 2.412832 1_555
Ca0 O9 2.515608 1_455
Ca0 O5 2.686267 1_555
Ca0 O8 2.695680 1_565
Ca0 O2 2.807982 1_555
Ca1 O6 2.295324 1_555
Ca1 O12 2.396267 1_545
Ca1 O7 2.404138 1_555
Ca1 O1 2.412682 1_555
Ca1 O8 2.515883 1_655
Ca1 O4 2.685415 1_555
Ca1 O9 2.696124 1_545
Ca1 O3 2.808646 1_555
Ni0 O13 2.023469 1_565
Ni0 O0 2.030573 1_655
Ni0 O3 2.076212 1_565
Ni0 O9 2.081093 1_555
Ni0 O5 2.109679 1_555
Ni1 O12 2.023533 1_545
Ni1 O1 2.030204 1_455
Ni1 O2 2.074910 1_545
Ni1 O8 2.082480 1_555
Ni1 O4 2.111114 1_555
O0 P0 1.542596 1_556
O1 P1 1.542442 1_554
O2 P0 1.521670 1_555
O3 P1 1.521931 1_555
O4 P0 1.532735 1_555
O5 P1 1.532572 1_555
O6 P3 1.512229 1_555
O7 P2 1.512366 1_555
O8 P2 1.551220 1_555
O9 P3 1.551532 1_555
O10 P2 1.592296 1_555
O10 P1 1.639078 1_455
O11 P3 1.592100 1_555
O11 P0 1.639080 1_655
O12 P3 1.541485 1_555
O13 P2 1.541594 1_555
