# generated using pymatgen
data_CeMg14Bi
_symmetry_space_group_name_H-M   'P 1'
_cell_length_a   6.52833800
_cell_length_b   6.39923359
_cell_length_c   10.38630197
_cell_angle_alpha   90.00000000
_cell_angle_beta   90.00000000
_cell_angle_gamma   119.34794892
_symmetry_Int_Tables_number   1
_chemical_formula_structural   CeMg14Bi
_chemical_formula_sum   'Ce1 Mg14 Bi1'
_cell_volume   378.21466747
_cell_formula_units_Z   1
loop_
 _symmetry_equiv_pos_site_id
 _symmetry_equiv_pos_as_xyz
  1  'x, y, z'
loop_
 _atom_site_type_symbol
 _atom_site_label
 _atom_site_symmetry_multiplicity
 _atom_site_fract_x
 _atom_site_fract_y
 _atom_site_fract_z
 _atom_site_occupancy
  Ce  Ce0  1  0.16897707  0.33448804  0.12500000  1
  Mg  Mg0  1  0.16400647  0.33200273  0.62500000  1
  Mg  Mg1  1  0.16287275  0.83143588  0.62500000  1
  Mg  Mg2  1  0.66561652  0.32668681  0.12500000  1
  Mg  Mg3  1  0.66731294  0.33478113  0.62500000  1
  Mg  Mg4  1  0.66561652  0.83892870  0.12500000  1
  Mg  Mg5  1  0.66731294  0.83253081  0.62500000  1
  Mg  Mg6  1  0.33844446  0.17044578  0.38652861  1
  Mg  Mg7  1  0.33844446  0.17044578  0.86347139  1
  Mg  Mg8  1  0.33844446  0.66799968  0.38652861  1
  Mg  Mg9  1  0.33844446  0.66799968  0.86347139  1
  Mg  Mg10  1  0.83081724  0.16540912  0.38124801  1
  Mg  Mg11  1  0.83081724  0.16540912  0.86875199  1
  Mg  Mg12  1  0.82595797  0.66297949  0.37444745  1
  Mg  Mg13  1  0.82595797  0.66297949  0.87555255  1
  Bi  Bi0  1  0.17095653  0.83547777  0.12500000  1
loop_
_geom_bond_atom_site_label_1
_geom_bond_atom_site_label_2
_geom_bond_distance
_geom_bond_site_symmetry_2
Ce0 Mg4 3.261931 1_445
Ce0 Mg2 3.261931 1_455
Ce0 Mg4 3.266987 1_555
Ce0 Mg2 3.266987 1_555
Ce0 Mg11 3.284254 1_454
Ce0 Mg10 3.284254 1_455
Ce0 Mg6 3.292830 1_555
Ce0 Mg7 3.292830 1_554
Ce0 Mg8 3.292836 1_555
Ce0 Mg9 3.292836 1_554
Mg0 Mg7 3.107158 1_555
Mg0 Mg6 3.107158 1_555
Mg0 Mg9 3.107164 1_555
Mg0 Mg8 3.107164 1_555
Mg0 Mg10 3.162952 1_455
Mg0 Mg11 3.162952 1_455
Mg0 Mg1 3.199623 1_545
Mg0 Mg1 3.199623 1_555
Mg0 Mg5 3.251334 1_445
Mg0 Mg3 3.251334 1_455
Mg0 Mg5 3.277077 1_555
Mg0 Mg3 3.277077 1_555
Mg1 Mg8 3.117269 1_555
Mg1 Mg9 3.117269 1_555
Mg1 Mg7 3.117275 1_565
Mg1 Mg6 3.117275 1_565
Mg1 Mg12 3.232295 1_455
Mg1 Mg13 3.232295 1_455
Mg1 Mg3 3.238622 1_455
Mg1 Mg5 3.238622 1_455
Mg1 Mg3 3.289727 1_565
Mg1 Mg5 3.289728 1_555
Mg2 Mg4 3.121278 1_545
Mg2 Mg4 3.277956 1_555
Mg2 Mg6 3.293442 1_555
Mg2 Mg7 3.293442 1_554
Mg3 Mg7 3.104342 1_555
Mg3 Mg6 3.104342 1_555
Mg3 Mg5 3.185216 1_555
Mg3 Mg5 3.214017 1_545
Mg4 Mg8 3.293442 1_555
Mg4 Mg9 3.293442 1_554
Mg5 Mg9 3.104342 1_555
Mg5 Mg8 3.104342 1_555
Mg6 Mg8 3.183964 1_555
Mg6 Mg8 3.215270 1_545
Mg7 Mg9 3.183964 1_555
Mg7 Mg9 3.215270 1_545
Mg10 Mg3 3.139673 1_555
Mg10 Mg5 3.139680 1_545
Mg10 Mg12 3.200516 1_545
Mg10 Mg12 3.200516 1_555
Mg10 Mg2 3.225326 1_555
Mg10 Mg4 3.225332 1_545
Mg10 Mg8 3.230760 1_545
Mg10 Mg6 3.230760 1_555
Mg10 Mg8 3.298741 1_655
Mg10 Mg6 3.298741 1_655
Mg11 Mg3 3.139673 1_555
Mg11 Mg5 3.139680 1_545
Mg11 Mg13 3.200516 1_545
Mg11 Mg13 3.200516 1_555
Mg11 Mg2 3.225326 1_556
Mg11 Mg4 3.225332 1_546
Mg11 Mg9 3.230760 1_545
Mg11 Mg7 3.230760 1_555
Mg11 Mg9 3.298741 1_655
Mg11 Mg7 3.298741 1_655
Mg12 Mg5 3.181731 1_555
Mg12 Mg3 3.181737 1_555
Mg12 Mg4 3.198621 1_555
Mg12 Mg2 3.198627 1_555
Mg12 Mg6 3.200981 1_555
Mg12 Mg8 3.200981 1_555
Mg12 Mg6 3.332421 1_665
Mg12 Mg8 3.332421 1_655
Mg13 Mg5 3.181731 1_555
Mg13 Mg3 3.181737 1_555
Mg13 Mg4 3.198621 1_556
Mg13 Mg2 3.198627 1_556
Mg13 Mg7 3.200981 1_555
Mg13 Mg9 3.200981 1_555
Mg13 Mg7 3.332421 1_665
Mg13 Mg9 3.332421 1_655
Bi0 Ce0 3.199637 1_555
Bi0 Ce0 3.199637 1_565
Bi0 Mg2 3.218542 1_565
Bi0 Mg4 3.218542 1_555
Bi0 Mg12 3.250635 1_455
Bi0 Mg13 3.250635 1_454
Bi0 Mg8 3.297152 1_555
Bi0 Mg9 3.297152 1_554
Bi0 Mg6 3.297159 1_565
Bi0 Mg7 3.297159 1_564
Bi0 Mg2 3.309909 1_455
Bi0 Mg4 3.309910 1_455
