# generated using pymatgen
data_TaSb3
_symmetry_space_group_name_H-M   'P 1'
_cell_length_a   5.09811968
_cell_length_b   5.09811968
_cell_length_c   5.09811968
_cell_angle_alpha   60.00000000
_cell_angle_beta   60.00000000
_cell_angle_gamma   60.00000000
_symmetry_Int_Tables_number   1
_chemical_formula_structural   TaSb3
_chemical_formula_sum   'Ta1 Sb3'
_cell_volume   93.69471243
_cell_formula_units_Z   1
loop_
 _symmetry_equiv_pos_site_id
 _symmetry_equiv_pos_as_xyz
  1  'x, y, z'
loop_
 _atom_site_type_symbol
 _atom_site_label
 _atom_site_symmetry_multiplicity
 _atom_site_fract_x
 _atom_site_fract_y
 _atom_site_fract_z
 _atom_site_occupancy
  Ta  Ta0  1  0.00000000  0.00000000  0.00000000  1
  Sb  Sb0  1  0.25000000  0.25000000  0.25000000  1
  Sb  Sb1  1  0.75000000  0.75000000  0.75000000  1
  Sb  Sb2  1  0.50000000  0.50000000  0.50000000  1
loop_
_geom_bond_atom_site_label_1
_geom_bond_atom_site_label_2
_geom_bond_distance
_geom_bond_site_symmetry_2
Sb0 Ta0 3.121948 1_655
Sb0 Sb2 3.121948 1_455
Sb0 Sb2 3.121948 1_555
Sb0 Ta0 3.121948 1_565
Sb0 Sb2 3.121948 1_554
Sb0 Ta0 3.121948 1_556
Sb0 Ta0 3.121948 1_555
Sb0 Sb2 3.121948 1_545
Sb1 Ta0 3.121948 1_665
Sb1 Ta0 3.121948 1_656
Sb1 Sb2 3.121948 1_556
Sb1 Sb2 3.121948 1_565
Sb1 Sb2 3.121948 1_555
Sb1 Ta0 3.121948 1_666
Sb1 Sb2 3.121948 1_655
Sb1 Ta0 3.121948 1_566
Sb2 Ta0 3.604915 1_665
Sb2 Ta0 3.604915 1_655
Sb2 Ta0 3.604915 1_656
Sb2 Ta0 3.604915 1_565
Sb2 Ta0 3.604915 1_556
Sb2 Ta0 3.604915 1_566
