# generated using pymatgen
data_KSc(WO4)2
_symmetry_space_group_name_H-M   'P 1'
_cell_length_a   5.93343797
_cell_length_b   5.93343797
_cell_length_c   7.76385800
_cell_angle_alpha   90.00000000
_cell_angle_beta   90.00000000
_cell_angle_gamma   119.99999962
_symmetry_Int_Tables_number   1
_chemical_formula_structural   KSc(WO4)2
_chemical_formula_sum   'K1 Sc1 W2 O8'
_cell_volume   236.71241121
_cell_formula_units_Z   1
loop_
 _symmetry_equiv_pos_site_id
 _symmetry_equiv_pos_as_xyz
  1  'x, y, z'
loop_
 _atom_site_type_symbol
 _atom_site_label
 _atom_site_symmetry_multiplicity
 _atom_site_fract_x
 _atom_site_fract_y
 _atom_site_fract_z
 _atom_site_occupancy
  K  K0  1  0.00000000  0.00000000  0.00000000  1
  Sc  Sc0  1  0.00000000  0.00000000  0.50000000  1
  W  W0  1  0.33333300  0.66666700  0.26574400  1
  W  W1  1  0.66666700  0.33333300  0.73425600  1
  O  O0  1  0.16441900  0.83558100  0.33913900  1
  O  O1  1  0.83558100  0.16441900  0.66086100  1
  O  O2  1  0.16441900  0.32883800  0.33913900  1
  O  O3  1  0.83558100  0.67116200  0.66086100  1
  O  O4  1  0.67116200  0.83558100  0.33913900  1
  O  O5  1  0.32883800  0.16441900  0.66086100  1
  O  O6  1  0.33333300  0.66666700  0.03662700  1
  O  O7  1  0.66666700  0.33333300  0.96337300  1
loop_
_geom_bond_atom_site_label_1
_geom_bond_atom_site_label_2
_geom_bond_distance
_geom_bond_site_symmetry_2
K0 O1 3.128585 1_454
K0 O0 3.128585 1_545
K0 O3 3.128585 1_444
K0 O4 3.128585 1_445
K0 O5 3.128585 1_554
K0 O2 3.128585 1_555
O0 W0 1.827064 1_555
O0 Sc0 2.101182 1_565
O1 W1 1.827064 1_555
O1 Sc0 2.101182 1_655
O2 W0 1.827069 1_555
O2 Sc0 2.101182 1_555
O3 W1 1.827069 1_555
O3 Sc0 2.101182 1_665
O4 W0 1.827069 1_555
O4 Sc0 2.101182 1_665
O5 W1 1.827069 1_555
O5 Sc0 2.101182 1_555
O6 W0 1.778832 1_555
O7 W1 1.778832 1_555
