# generated using pymatgen
data_Na2CaMnAl2P2H2(O5F2)2
_symmetry_space_group_name_H-M   'P 1'
_cell_length_a   7.16945691
_cell_length_b   8.90873079
_cell_length_c   8.99546684
_cell_angle_alpha   74.61024168
_cell_angle_beta   74.34003295
_cell_angle_gamma   105.57265051
_symmetry_Int_Tables_number   1
_chemical_formula_structural   Na2CaMnAl2P2H2(O5F2)2
_chemical_formula_sum   'Na4 Ca2 Mn2 Al4 P4 H4 O20 F8'
_cell_volume   496.30303938
_cell_formula_units_Z   2
loop_
 _symmetry_equiv_pos_site_id
 _symmetry_equiv_pos_as_xyz
  1  'x, y, z'
loop_
 _atom_site_type_symbol
 _atom_site_label
 _atom_site_symmetry_multiplicity
 _atom_site_fract_x
 _atom_site_fract_y
 _atom_site_fract_z
 _atom_site_occupancy
  Na  Na0  1  0.95461266  0.62387435  0.13756506  1
  Na  Na1  1  0.95461266  0.12387435  0.63756506  1
  Na  Na2  1  0.04538734  0.87612565  0.36243494  1
  Na  Na3  1  0.04538734  0.37612565  0.86243494  1
  Ca  Ca0  1  0.50000000  0.25000000  0.25000000  1
  Ca  Ca1  1  0.50000000  0.75000000  0.75000000  1
  Mn  Mn0  1  0.50000000  0.00000000  0.00000000  1
  Mn  Mn1  1  0.50000000  0.50000000  0.50000000  1
  Al  Al0  1  0.00000000  0.25000000  0.25000000  1
  Al  Al1  1  0.00000000  0.75000000  0.75000000  1
  Al  Al2  1  0.00000000  0.00000000  0.00000000  1
  Al  Al3  1  0.00000000  0.50000000  0.50000000  1
  P  P0  1  0.36954656  0.08211122  0.67760989  1
  P  P1  1  0.36954656  0.58211122  0.17760989  1
  P  P2  1  0.63045344  0.41788878  0.82239011  1
  P  P3  1  0.63045344  0.91788878  0.32239011  1
  H  H0  1  0.76224658  0.27798393  0.47200214  1
  H  H1  1  0.76224658  0.77798393  0.97200214  1
  H  H2  1  0.23775342  0.22201607  0.02799786  1
  H  H3  1  0.23775342  0.72201607  0.52799786  1
  O  O0  1  0.91504843  0.82310035  0.92579611  1
  O  O1  1  0.91504843  0.32310035  0.42579611  1
  O  O2  1  0.08495157  0.67689965  0.57420389  1
  O  O3  1  0.08495157  0.17689965  0.07420389  1
  O  O4  1  0.51665882  0.52024384  0.25337538  1
  O  O5  1  0.51665882  0.02024384  0.75337538  1
  O  O6  1  0.48334118  0.97975616  0.24662462  1
  O  O7  1  0.48334118  0.47975616  0.74662462  1
  O  O8  1  0.24594411  0.94180142  0.63357974  1
  O  O9  1  0.24594411  0.44180142  0.13357974  1
  O  O10  1  0.78230440  0.37574933  0.69977709  1
  O  O11  1  0.78230440  0.87574933  0.19977709  1
  O  O12  1  0.75405589  0.55819858  0.86642026  1
  O  O13  1  0.75405589  0.05819858  0.36642026  1
  O  O14  1  0.21769560  0.12425067  0.80022291  1
  O  O15  1  0.21769560  0.62425067  0.30022291  1
  O  O16  1  0.49172903  0.24063822  0.52006704  1
  O  O17  1  0.49172903  0.74063822  0.02006704  1
  O  O18  1  0.50827097  0.25936178  0.97993296  1
  O  O19  1  0.50827097  0.75936178  0.47993296  1
  F  F0  1  0.14400506  0.14570914  0.35608882  1
  F  F1  1  0.14400506  0.64570914  0.85608882  1
  F  F2  1  0.83538049  0.09716365  0.91466068  1
  F  F3  1  0.83538049  0.59716365  0.41466068  1
  F  F4  1  0.85599494  0.35429086  0.14391118  1
  F  F5  1  0.85599494  0.85429086  0.64391118  1
  F  F6  1  0.16461951  0.40283635  0.58533932  1
  F  F7  1  0.16461951  0.90283635  0.08533932  1
loop_
_geom_bond_atom_site_label_1
_geom_bond_atom_site_label_2
_geom_bond_distance
_geom_bond_site_symmetry_2
Na0 O0 2.372112 1_554
Na0 O15 2.680975 1_655
Na0 O4 2.822009 1_555
Na1 O1 2.372112 1_555
Na1 O14 2.680975 1_655
Na1 O5 2.822009 1_555
Na2 O2 2.372112 1_555
Na2 O11 2.680975 1_455
Na2 O6 2.822009 1_555
Na3 O3 2.372112 1_556
Na3 O10 2.680975 1_455
Na3 O7 2.822009 1_555
Ca0 F0 2.286785 1_555
Ca0 F4 2.286785 1_555
Ca0 O4 2.386997 1_555
Ca0 O6 2.386997 1_545
Ca0 O18 2.392569 1_554
Ca0 O16 2.392569 1_555
Ca1 F5 2.286785 1_555
Ca1 F1 2.286785 1_555
Ca1 O5 2.386997 1_565
Ca1 O7 2.386997 1_555
Ca1 O19 2.392569 1_555
Ca1 O17 2.392569 1_556
Mn0 O5 2.145129 1_554
Mn0 O6 2.145129 1_545
Mn0 O18 2.252594 1_554
Mn0 O17 2.252594 1_545
Mn1 O7 2.145129 1_555
Mn1 O4 2.145129 1_555
Mn1 O16 2.252594 1_555
Mn1 O19 2.252594 1_555
Al0 F0 1.848299 1_555
Al0 F4 1.848299 1_455
Al0 O1 1.880262 1_455
Al0 O3 1.880262 1_555
Al0 O9 1.887116 1_555
Al0 O13 1.887116 1_455
Al1 F1 1.848299 1_555
Al1 F5 1.848299 1_455
Al1 O2 1.880262 1_555
Al1 O0 1.880262 1_455
Al1 O12 1.887116 1_455
Al1 O8 1.887116 1_555
Al2 O14 1.842049 1_554
Al2 O11 1.842049 1_445
Al2 F2 1.848375 1_454
Al2 F7 1.848375 1_545
Al2 O0 1.887480 1_444
Al2 O3 1.887480 1_555
Al3 O15 1.842049 1_555
Al3 O10 1.842049 1_455
Al3 F3 1.848375 1_455
Al3 F6 1.848375 1_555
Al3 O1 1.887480 1_455
Al3 O2 1.887480 1_555
H0 O1 0.981600 1_555
H1 O0 0.981600 1_555
H2 O3 0.981600 1_555
H3 O2 0.981600 1_555
O4 P1 1.543216 1_555
O5 P0 1.543216 1_555
O6 P3 1.543216 1_555
O7 P2 1.543216 1_555
O8 P0 1.536921 1_565
O9 P1 1.536921 1_555
O10 P2 1.527633 1_555
O11 P3 1.527633 1_555
O12 P2 1.536921 1_555
O13 P3 1.536921 1_545
O14 P0 1.527633 1_555
O15 P1 1.527633 1_555
O16 P0 1.540623 1_555
O17 P1 1.540623 1_555
O18 P2 1.540623 1_555
O19 P3 1.540623 1_555
F0 Na2 2.294513 1_545
F0 Na1 2.456288 1_455
F1 Na3 2.294513 1_555
F1 Na0 2.456288 1_456
F2 Mn0 2.157193 1_556
F2 Na1 2.329400 1_555
F2 Na3 2.377657 1_655
F3 Mn1 2.157193 1_555
F3 Na0 2.329400 1_555
F3 Na2 2.377657 1_655
F4 Na0 2.294513 1_555
F4 Na3 2.456288 1_654
F5 Na1 2.294513 1_565
F5 Na2 2.456288 1_655
F6 Mn1 2.157193 1_555
F6 Na3 2.329400 1_555
F6 Na1 2.377657 1_455
F7 Mn0 2.157193 1_565
F7 Na2 2.329400 1_555
F7 Na0 2.377657 1_455
