# generated using pymatgen
data_Mn(BH4)2
_symmetry_space_group_name_H-M   'P 1'
_cell_length_a   5.59987400
_cell_length_b   5.59987400
_cell_length_c   5.95287500
_cell_angle_alpha   90.00000000
_cell_angle_beta   90.00000000
_cell_angle_gamma   90.00000000
_symmetry_Int_Tables_number   1
_chemical_formula_structural   Mn(BH4)2
_chemical_formula_sum   'Mn2 B4 H16'
_cell_volume   186.67375940
_cell_formula_units_Z   2
loop_
 _symmetry_equiv_pos_site_id
 _symmetry_equiv_pos_as_xyz
  1  'x, y, z'
loop_
 _atom_site_type_symbol
 _atom_site_label
 _atom_site_symmetry_multiplicity
 _atom_site_fract_x
 _atom_site_fract_y
 _atom_site_fract_z
 _atom_site_occupancy
  Mn  Mn0  1  0.50000000  0.50000000  0.00000000  1
  Mn  Mn1  1  0.00000000  0.00000000  0.50000000  1
  B  B0  1  0.25159200  0.24840800  0.25000000  1
  B  B1  1  0.24840800  0.74840800  0.75000000  1
  B  B2  1  0.75159200  0.25159200  0.75000000  1
  B  B3  1  0.74840800  0.75159200  0.25000000  1
  H  H0  1  0.46570300  0.28092000  0.28616600  1
  H  H1  1  0.03429700  0.78092000  0.78616600  1
  H  H2  1  0.71908000  0.46570300  0.71383400  1
  H  H3  1  0.78092000  0.96570300  0.21383400  1
  H  H4  1  0.53429700  0.71908000  0.28616600  1
  H  H5  1  0.96570300  0.21908000  0.78616600  1
  H  H6  1  0.28092000  0.53429700  0.71383400  1
  H  H7  1  0.21908000  0.03429700  0.21383400  1
  H  H8  1  0.67507500  0.13971600  0.58678700  1
  H  H9  1  0.82492500  0.63971600  0.08678700  1
  H  H10  1  0.86028400  0.67507500  0.41321300  1
  H  H11  1  0.63971600  0.17507500  0.91321300  1
  H  H12  1  0.32492500  0.86028400  0.58678700  1
  H  H13  1  0.17507500  0.36028400  0.08678700  1
  H  H14  1  0.13971600  0.32492500  0.41321300  1
  H  H15  1  0.36028400  0.82492500  0.91321300  1
loop_
_geom_bond_atom_site_label_1
_geom_bond_atom_site_label_2
_geom_bond_distance
_geom_bond_site_symmetry_2
B0 H7 1.231700 1_555
B0 H0 1.231700 1_555
B0 H13 1.232912 1_555
B0 H14 1.232912 1_555
B1 H6 1.231700 1_555
B1 H1 1.231700 1_555
B1 H15 1.232912 1_555
B1 H12 1.232912 1_555
B2 H5 1.231700 1_555
B2 H2 1.231700 1_555
B2 H8 1.232912 1_555
B2 H11 1.232912 1_555
B3 H4 1.231700 1_555
B3 H3 1.231700 1_555
B3 H9 1.232912 1_555
B3 H10 1.232912 1_555
H0 Mn0 2.108061 1_555
H1 Mn1 2.108061 1_565
H2 Mn0 2.108061 1_556
H3 Mn1 2.108061 1_665
H4 Mn0 2.108061 1_555
H5 Mn1 2.108061 1_655
H6 Mn0 2.108061 1_556
H7 Mn1 2.108061 1_555
H8 Mn1 2.046892 1_655
H9 Mn0 2.046892 1_555
H10 Mn1 2.046892 1_665
H11 Mn0 2.046892 1_556
H12 Mn1 2.046892 1_565
H13 Mn0 2.046892 1_555
H14 Mn1 2.046892 1_555
H15 Mn0 2.046892 1_556
