# generated using pymatgen
data_KAl3Si3(HO6)2
_symmetry_space_group_name_H-M   'P 1'
_cell_length_a   5.23223990
_cell_length_b   5.25214878
_cell_length_c   20.60073288
_cell_angle_alpha   93.12855098
_cell_angle_beta   83.70956984
_cell_angle_gamma   119.87468569
_symmetry_Int_Tables_number   1
_chemical_formula_structural   KAl3Si3(HO6)2
_chemical_formula_sum   'K2 Al6 Si6 H4 O24'
_cell_volume   487.93539129
_cell_formula_units_Z   2
loop_
 _symmetry_equiv_pos_site_id
 _symmetry_equiv_pos_as_xyz
  1  'x, y, z'
loop_
 _atom_site_type_symbol
 _atom_site_label
 _atom_site_symmetry_multiplicity
 _atom_site_fract_x
 _atom_site_fract_y
 _atom_site_fract_z
 _atom_site_occupancy
  K  K0  1  0.09376400  0.19333500  0.25646600  1
  K  K1  1  0.90042900  0.80666500  0.75646600  1
  Al  Al0  1  0.33476000  0.16957600  0.49756600  1
  Al  Al1  1  0.82670400  0.15931400  0.99722800  1
  Al  Al2  1  0.66739000  0.84068600  0.49722800  1
  Al  Al3  1  0.16518400  0.83042400  0.99756600  1
  Al  Al4  1  0.39093000  0.85197700  0.36707600  1
  Al  Al5  1  0.53895300  0.14802300  0.86707600  1
  Si  Si0  1  0.70342000  0.50744300  0.36486100  1
  Si  Si1  1  0.80980400  0.51428300  0.13279000  1
  Si  Si2  1  0.29552000  0.48571700  0.63279000  1
  Si  Si3  1  0.19597700  0.49255700  0.86486100  1
  Si  Si4  1  0.46595600  0.85735700  0.13301600  1
  Si  Si5  1  0.60859900  0.14264300  0.63301600  1
  H  H0  1  0.03016300  0.26851100  0.42363000  1
  H  H1  1  0.25374800  0.28077600  0.06405700  1
  H  H2  1  0.97297200  0.71922400  0.56405700  1
  H  H3  1  0.76165200  0.73148900  0.92363000  1
  O  O0  1  0.41378500  0.89860900  0.45213500  1
  O  O1  1  0.47404000  0.87745700  0.05493600  1
  O  O2  1  0.59658200  0.12254300  0.55493600  1
  O  O3  1  0.51517600  0.10139100  0.95213500  1
  O  O4  1  0.02133300  0.11931500  0.45124700  1
  O  O5  1  0.08042500  0.10304600  0.05151100  1
  O  O6  1  0.97738000  0.89695400  0.55151100  1
  O  O7  1  0.90201800  0.88068500  0.95124700  1
  O  O8  1  0.48594300  0.18958100  0.33315900  1
  O  O9  1  0.65171100  0.18436300  0.16597300  1
  O  O10  1  0.46734800  0.81563700  0.66597300  1
  O  O11  1  0.29636300  0.81041900  0.83315900  1
  O  O12  1  0.04258900  0.57135200  0.34827200  1
  O  O13  1  0.58596000  0.64457100  0.15638500  1
  O  O14  1  0.94138900  0.35542900  0.65638500  1
  O  O15  1  0.47123700  0.42864800  0.84827200  1
  O  O16  1  0.65102100  0.75100200  0.33237500  1
  O  O17  1  0.12042700  0.71319600  0.16696600  1
  O  O18  1  0.40723100  0.28680400  0.66696600  1
  O  O19  1  0.90001900  0.24899800  0.83237500  1
  O  O20  1  0.62416600  0.50451700  0.44627000  1
  O  O21  1  0.86738700  0.49649000  0.05408000  1
  O  O22  1  0.37089700  0.50351000  0.55408000  1
  O  O23  1  0.11964900  0.49548300  0.94627000  1
loop_
_geom_bond_atom_site_label_1
_geom_bond_atom_site_label_2
_geom_bond_distance
_geom_bond_site_symmetry_2
K0 O16 2.729532 1_445
K0 O8 2.731541 1_555
K0 O12 2.756661 1_555
K0 O17 3.092703 1_545
K0 O9 3.107070 1_455
K0 O13 3.128774 1_555
K1 O19 2.729533 1_565
K1 O11 2.731545 1_655
K1 O15 2.756661 1_555
K1 O18 3.092702 1_665
K1 O10 3.107070 1_555
K1 O14 3.128774 1_555
Al0 O0 1.851568 1_545
Al0 O4 1.885126 1_555
Al0 O20 1.924272 1_555
Al0 O6 1.957745 1_445
Al0 O22 1.990538 1_555
Al0 O2 2.014516 1_555
Al1 O3 1.849143 1_555
Al1 O7 1.880285 1_545
Al1 O23 1.929369 1_655
Al1 O5 1.962758 1_656
Al1 O1 1.999941 1_546
Al1 O21 2.001449 1_556
Al2 O0 1.849143 1_555
Al2 O4 1.880285 1_665
Al2 O20 1.929369 1_555
Al2 O6 1.962763 1_555
Al2 O2 1.999944 1_565
Al2 O22 2.001448 1_555
Al3 O3 1.851568 1_565
Al3 O7 1.885126 1_455
Al3 O23 1.924273 1_555
Al3 O5 1.957748 1_566
Al3 O21 1.990538 1_456
Al3 O1 2.014520 1_556
Al4 O8 1.749388 1_565
Al4 O12 1.749443 1_555
Al4 O16 1.763133 1_555
Al4 O0 1.764840 1_555
Al5 O11 1.749387 1_545
Al5 O15 1.749443 1_555
Al5 O19 1.763133 1_555
Al5 O3 1.764840 1_555
H0 O4 0.972975 1_555
H1 O5 0.970708 1_555
H2 O6 0.970705 1_555
H3 O7 0.972975 1_555
O1 Si4 1.612266 1_555
O2 Si5 1.612266 1_555
O8 Si0 1.630885 1_555
O9 Si4 1.646125 1_545
O9 Si1 1.652747 1_555
O10 Si5 1.646125 1_565
O10 Si2 1.652747 1_555
O11 Si3 1.630884 1_555
O12 Si0 1.632460 1_455
O13 Si4 1.642872 1_555
O13 Si1 1.647299 1_555
O14 Si5 1.642872 1_555
O14 Si2 1.647295 1_655
O15 Si3 1.632460 1_555
O16 Si0 1.625562 1_555
O17 Si1 1.645461 1_455
O17 Si4 1.657697 1_555
O18 Si2 1.645465 1_555
O18 Si5 1.657697 1_555
O19 Si3 1.625562 1_655
O20 Si0 1.681926 1_555
O21 Si1 1.622705 1_555
O22 Si2 1.622705 1_555
O23 Si3 1.681926 1_555
