# generated using pymatgen
data_MgTi(GeO3)2
_symmetry_space_group_name_H-M   'P 1'
_cell_length_a   8.50588200
_cell_length_b   5.36389700
_cell_length_c   11.89722059
_cell_angle_alpha   78.59195259
_cell_angle_beta   90.00000000
_cell_angle_gamma   90.00000000
_symmetry_Int_Tables_number   1
_chemical_formula_structural   MgTi(GeO3)2
_chemical_formula_sum   'Mg4 Ti4 Ge8 O24'
_cell_volume   532.08280662
_cell_formula_units_Z   4
loop_
 _symmetry_equiv_pos_site_id
 _symmetry_equiv_pos_as_xyz
  1  'x, y, z'
loop_
 _atom_site_type_symbol
 _atom_site_label
 _atom_site_symmetry_multiplicity
 _atom_site_fract_x
 _atom_site_fract_y
 _atom_site_fract_z
 _atom_site_occupancy
  Mg  Mg0  1  0.54340700  0.19538200  0.25636400  1
  Mg  Mg1  1  0.04340700  0.30461800  0.74363600  1
  Mg  Mg2  1  0.45659300  0.80461800  0.74363600  1
  Mg  Mg3  1  0.95659300  0.69538200  0.25636400  1
  Ti  Ti0  1  0.34424200  0.67683400  0.28054600  1
  Ti  Ti1  1  0.84424200  0.82316600  0.71945400  1
  Ti  Ti2  1  0.65575800  0.32316600  0.71945400  1
  Ti  Ti3  1  0.15575800  0.17683400  0.28054600  1
  Ge  Ge0  1  0.64282400  0.76323100  0.07615600  1
  Ge  Ge1  1  0.14282400  0.73676900  0.92384400  1
  Ge  Ge2  1  0.35717600  0.23676900  0.92384400  1
  Ge  Ge3  1  0.85717600  0.26323100  0.07615600  1
  Ge  Ge4  1  0.65090500  0.73852200  0.46930700  1
  Ge  Ge5  1  0.15090500  0.76147800  0.53069300  1
  Ge  Ge6  1  0.34909500  0.26147800  0.53069300  1
  Ge  Ge7  1  0.84909500  0.23852200  0.46930700  1
  O  O0  1  0.70929600  0.06004300  0.40238300  1
  O  O1  1  0.20929600  0.43995700  0.59761700  1
  O  O2  1  0.29070400  0.93995700  0.59761700  1
  O  O3  1  0.79070400  0.56004300  0.40238300  1
  O  O4  1  0.68281900  0.05078000  0.14883500  1
  O  O5  1  0.18281900  0.44922000  0.85116500  1
  O  O6  1  0.31718100  0.94922000  0.85116500  1
  O  O7  1  0.81718100  0.55078000  0.14883500  1
  O  O8  1  0.03710900  0.23105400  0.41503900  1
  O  O9  1  0.53710900  0.26894600  0.58496100  1
  O  O10  1  0.96289100  0.76894600  0.58496100  1
  O  O11  1  0.46289100  0.73105400  0.41503900  1
  O  O12  1  0.99660400  0.07294000  0.19776400  1
  O  O13  1  0.49660400  0.42706000  0.80223600  1
  O  O14  1  0.00339600  0.92706000  0.80223600  1
  O  O15  1  0.50339600  0.57294000  0.19776400  1
  O  O16  1  0.66377700  0.97642100  0.78232900  1
  O  O17  1  0.16377700  0.52357900  0.21767100  1
  O  O18  1  0.33622300  0.02357900  0.21767100  1
  O  O19  1  0.83622300  0.47642100  0.78232900  1
  O  O20  1  0.64957800  0.71096000  0.61918700  1
  O  O21  1  0.14957800  0.78904000  0.38081300  1
  O  O22  1  0.35042200  0.28904000  0.38081300  1
  O  O23  1  0.85042200  0.21096000  0.61918700  1
loop_
_geom_bond_atom_site_label_1
_geom_bond_atom_site_label_2
_geom_bond_distance
_geom_bond_site_symmetry_2
Mg0 O4 2.009205 1_555
Mg0 O15 2.035855 1_555
Mg0 O18 2.081969 1_555
Mg0 O0 2.244338 1_555
Mg0 O22 2.330952 1_555
Mg1 O5 2.009205 1_555
Mg1 O14 2.035855 1_545
Mg1 O19 2.081969 1_455
Mg1 O1 2.244338 1_555
Mg1 O23 2.330952 1_455
Mg2 O6 2.009205 1_555
Mg2 O13 2.035855 1_555
Mg2 O16 2.081969 1_555
Mg2 O2 2.244338 1_555
Mg2 O20 2.330952 1_555
Mg3 O7 2.009205 1_555
Mg3 O12 2.035855 1_565
Mg3 O17 2.081969 1_655
Mg3 O3 2.244338 1_555
Mg3 O21 2.330952 1_655
Ge0 O4 1.941631 1_565
Ge0 O7 1.963657 1_555
Ge0 O15 1.989312 1_555
Ge1 O5 1.941631 1_555
Ge1 O6 1.963657 1_555
Ge1 O14 1.989312 1_555
Ge2 O6 1.941631 1_545
Ge2 O5 1.963657 1_555
Ge2 O13 1.989312 1_555
Ge3 O7 1.941631 1_555
Ge3 O4 1.963657 1_555
Ge3 O12 1.989312 1_555
Ge4 O11 1.728064 1_555
Ge4 O20 1.759927 1_555
Ge4 O3 1.807203 1_555
Ge4 O0 1.819805 1_565
Ge5 O10 1.728064 1_455
Ge5 O21 1.759927 1_555
Ge5 O2 1.807203 1_555
Ge5 O1 1.819805 1_555
Ge6 O9 1.728064 1_555
Ge6 O22 1.759927 1_555
Ge6 O1 1.807203 1_555
Ge6 O2 1.819805 1_545
Ge7 O8 1.728064 1_655
Ge7 O23 1.759927 1_555
Ge7 O0 1.807203 1_555
Ge7 O3 1.819805 1_555
O8 Ti3 1.961500 1_555
O9 Ti2 1.961500 1_555
O10 Ti1 1.961500 1_555
O11 Ti0 1.961500 1_555
O12 Ti3 1.824906 1_655
O13 Ti2 1.824906 1_555
O14 Ti1 1.824906 1_455
O15 Ti0 1.824906 1_555
O16 Ti2 1.863621 1_565
O16 Ti1 1.958275 1_555
O17 Ti3 1.863621 1_555
O17 Ti0 1.958275 1_555
O18 Ti0 1.863621 1_545
O18 Ti3 1.958275 1_555
O19 Ti1 1.863621 1_555
O19 Ti2 1.958275 1_555
O20 Ti2 2.184249 1_555
O20 Ti1 2.193376 1_555
O21 Ti3 2.184249 1_565
O21 Ti0 2.193376 1_555
O22 Ti0 2.184249 1_555
O22 Ti3 2.193376 1_555
O23 Ti1 2.184249 1_545
O23 Ti2 2.193376 1_555
