# generated using pymatgen
data_La4S7
_symmetry_space_group_name_H-M   'P 1'
_cell_length_a   9.02767612
_cell_length_b   9.02767612
_cell_length_c   9.02767612
_cell_angle_alpha   142.73502941
_cell_angle_beta   142.73502941
_cell_angle_gamma   53.72314001
_symmetry_Int_Tables_number   1
_chemical_formula_structural   La4S7
_chemical_formula_sum   'La4 S7'
_cell_volume   267.99973142
_cell_formula_units_Z   1
loop_
 _symmetry_equiv_pos_site_id
 _symmetry_equiv_pos_as_xyz
  1  'x, y, z'
loop_
 _atom_site_type_symbol
 _atom_site_label
 _atom_site_symmetry_multiplicity
 _atom_site_fract_x
 _atom_site_fract_y
 _atom_site_fract_z
 _atom_site_occupancy
  La  La0  1  0.10906500  0.61996600  0.00000000  1
  La  La1  1  0.61996600  0.10906500  0.00000000  1
  La  La2  1  0.38003400  0.38003400  0.48909900  1
  La  La3  1  0.89093500  0.89093500  0.51090100  1
  S  S0  1  0.43804000  0.92306300  0.00000000  1
  S  S1  1  0.92306300  0.43804000  0.00000000  1
  S  S2  1  0.07693700  0.07693700  0.51497600  1
  S  S3  1  0.56196000  0.56196000  0.48502400  1
  S  S4  1  0.50000000  0.00000000  0.50000000  1
  S  S5  1  0.00000000  0.50000000  0.50000000  1
  S  S6  1  0.00000000  0.00000000  0.00000000  1
loop_
_geom_bond_atom_site_label_1
_geom_bond_atom_site_label_2
_geom_bond_distance
_geom_bond_site_symmetry_2
La0 S6 2.956781 1_565
La0 S1 2.963190 1_455
La0 S2 2.963796 1_554
La0 S3 2.963800 1_555
La0 S2 2.986585 1_565
La0 S3 2.986589 1_454
La0 S5 2.987295 1_554
La0 S4 2.987295 1_565
La1 S6 2.956781 1_655
La1 S0 2.963190 1_545
La1 S2 2.963796 1_554
La1 S3 2.963800 1_555
La1 S2 2.986585 1_655
La1 S3 2.986589 1_544
La1 S5 2.987295 1_655
La1 S4 2.987295 1_554
La2 S6 2.956781 1_555
La2 S3 2.963182 1_555
La2 S0 2.963795 1_556
La2 S1 2.963795 1_556
La2 S1 2.986590 1_455
La2 S0 2.986590 1_545
La2 S5 2.987295 1_555
La2 S4 2.987295 1_555
La3 S6 2.956781 1_666
La3 S2 2.963199 1_665
La3 S1 2.963795 1_555
La3 S0 2.963795 1_555
La3 S0 2.986590 1_656
La3 S1 2.986590 1_566
La3 S4 2.987295 1_565
La3 S5 2.987295 1_655
