# generated using pymatgen
data_Tb5Si3C
_symmetry_space_group_name_H-M   'P 1'
_cell_length_a   8.49168035
_cell_length_b   8.49168035
_cell_length_c   6.47786800
_cell_angle_alpha   90.00000000
_cell_angle_beta   90.00000000
_cell_angle_gamma   120.00000269
_symmetry_Int_Tables_number   1
_chemical_formula_structural   Tb5Si3C
_chemical_formula_sum   'Tb10 Si6 C2'
_cell_volume   404.52930573
_cell_formula_units_Z   2
loop_
 _symmetry_equiv_pos_site_id
 _symmetry_equiv_pos_as_xyz
  1  'x, y, z'
loop_
 _atom_site_type_symbol
 _atom_site_label
 _atom_site_symmetry_multiplicity
 _atom_site_fract_x
 _atom_site_fract_y
 _atom_site_fract_z
 _atom_site_occupancy
  Tb  Tb0  1  0.66666700  0.33333300  0.00000000  1
  Tb  Tb1  1  0.33333300  0.66666700  0.00000000  1
  Tb  Tb2  1  0.33333300  0.66666700  0.50000000  1
  Tb  Tb3  1  0.66666700  0.33333300  0.50000000  1
  Tb  Tb4  1  0.77648200  0.77648200  0.75000000  1
  Tb  Tb5  1  0.22351800  0.00000000  0.75000000  1
  Tb  Tb6  1  0.00000000  0.22351800  0.75000000  1
  Tb  Tb7  1  0.22351800  0.22351800  0.25000000  1
  Tb  Tb8  1  0.77648200  0.00000000  0.25000000  1
  Tb  Tb9  1  0.00000000  0.77648200  0.25000000  1
  Si  Si0  1  0.41013900  0.41013900  0.75000000  1
  Si  Si1  1  0.58986100  0.00000000  0.75000000  1
  Si  Si2  1  0.00000000  0.58986100  0.75000000  1
  Si  Si3  1  0.58986100  0.58986100  0.25000000  1
  Si  Si4  1  0.41013900  0.00000000  0.25000000  1
  Si  Si5  1  0.00000000  0.41013900  0.25000000  1
  C  C0  1  0.00000000  0.00000000  0.00000000  1
  C  C1  1  0.00000000  0.00000000  0.50000000  1
loop_
_geom_bond_atom_site_label_1
_geom_bond_atom_site_label_2
_geom_bond_distance
_geom_bond_site_symmetry_2
Si0 Tb5 3.020232 1_555
Si0 Tb6 3.020232 1_555
Si0 Tb0 3.035462 1_556
Si0 Tb3 3.035462 1_555
Si0 Tb1 3.035462 1_556
Si0 Tb2 3.035462 1_555
Si0 Tb4 3.110868 1_555
Si0 Tb7 3.605835 1_556
Si0 Tb7 3.605835 1_555
Si1 Tb6 3.020232 1_655
Si1 Tb4 3.020232 1_545
Si1 Tb0 3.035455 1_556
Si1 Tb3 3.035455 1_555
Si1 Tb2 3.035457 1_545
Si1 Tb1 3.035457 1_546
Si1 Tb5 3.110868 1_555
Si1 Tb8 3.605835 1_556
Si1 Tb8 3.605835 1_555
Si2 Tb5 3.020232 1_565
Si2 Tb4 3.020232 1_455
Si2 Tb1 3.035455 1_556
Si2 Tb2 3.035455 1_555
Si2 Tb3 3.035457 1_455
Si2 Tb0 3.035457 1_456
Si2 Tb6 3.110868 1_555
Si2 Tb9 3.605835 1_555
Si2 Tb9 3.605835 1_556
Si3 Tb9 3.020232 1_655
Si3 Tb8 3.020232 1_565
Si3 Tb1 3.035462 1_555
Si3 Tb2 3.035462 1_555
Si3 Tb0 3.035462 1_555
Si3 Tb3 3.035462 1_555
Si3 Tb7 3.110868 1_555
Si3 Tb4 3.605835 1_555
Si3 Tb4 3.605835 1_554
Si4 Tb9 3.020232 1_545
Si4 Tb7 3.020232 1_555
Si4 Tb1 3.035455 1_545
Si4 Tb2 3.035455 1_545
Si4 Tb0 3.035457 1_555
Si4 Tb3 3.035457 1_555
Si4 Tb8 3.110868 1_555
Si4 Tb5 3.605835 1_554
Si4 Tb5 3.605835 1_555
Si5 Tb8 3.020232 1_455
Si5 Tb7 3.020232 1_555
Si5 Tb3 3.035455 1_455
Si5 Tb0 3.035455 1_455
Si5 Tb1 3.035457 1_555
Si5 Tb2 3.035457 1_555
Si5 Tb9 3.110868 1_555
Si5 Tb6 3.605835 1_554
Si5 Tb6 3.605835 1_555
C0 Tb7 2.495043 1_555
C0 Tb4 2.495043 1_444
C0 Tb9 2.495044 1_545
C0 Tb5 2.495044 1_554
C0 Tb8 2.495044 1_455
C0 Tb6 2.495044 1_554
C1 Tb7 2.495043 1_555
C1 Tb4 2.495043 1_445
C1 Tb9 2.495044 1_545
C1 Tb5 2.495044 1_555
C1 Tb8 2.495044 1_455
C1 Tb6 2.495044 1_555
