# generated using pymatgen
data_Mg4Cr5(TeO6)3
_symmetry_space_group_name_H-M   'P 1'
_cell_length_a   8.74277516
_cell_length_b   8.74277516
_cell_length_c   10.48117106
_cell_angle_alpha   85.16837886
_cell_angle_beta   85.16837886
_cell_angle_gamma   63.33647171
_symmetry_Int_Tables_number   1
_chemical_formula_structural   Mg4Cr5(TeO6)3
_chemical_formula_sum   'Mg8 Cr10 Te6 O36'
_cell_volume   712.43006461
_cell_formula_units_Z   2
loop_
 _symmetry_equiv_pos_site_id
 _symmetry_equiv_pos_as_xyz
  1  'x, y, z'
loop_
 _atom_site_type_symbol
 _atom_site_label
 _atom_site_symmetry_multiplicity
 _atom_site_fract_x
 _atom_site_fract_y
 _atom_site_fract_z
 _atom_site_occupancy
  Mg  Mg0  1  0.93906100  0.65339600  0.43202400  1
  Mg  Mg1  1  0.32272600  0.63245800  0.52920000  1
  Mg  Mg2  1  0.34660400  0.06093900  0.06797600  1
  Mg  Mg3  1  0.36754200  0.67727400  0.97080000  1
  Mg  Mg4  1  0.63245800  0.32272600  0.02920000  1
  Mg  Mg5  1  0.65339600  0.93906100  0.93202400  1
  Mg  Mg6  1  0.06093900  0.34660400  0.56797600  1
  Mg  Mg7  1  0.67727400  0.36754200  0.47080000  1
  Cr  Cr0  1  0.00830400  0.68016300  0.76867000  1
  Cr  Cr1  1  0.68016300  0.00830400  0.26867000  1
  Cr  Cr2  1  0.47875000  0.85263700  0.45818600  1
  Cr  Cr3  1  0.85263700  0.47875000  0.95818600  1
  Cr  Cr4  1  0.14736300  0.52125000  0.04181400  1
  Cr  Cr5  1  0.83140700  0.16859300  0.75000000  1
  Cr  Cr6  1  0.16859300  0.83140700  0.25000000  1
  Cr  Cr7  1  0.52125000  0.14736300  0.54181400  1
  Cr  Cr8  1  0.99169600  0.31983700  0.23133000  1
  Cr  Cr9  1  0.31983700  0.99169600  0.73133000  1
  Te  Te0  1  0.35428400  0.33867900  0.79095600  1
  Te  Te1  1  0.00000000  0.00000000  0.50000000  1
  Te  Te2  1  0.00000000  0.00000000  0.00000000  1
  Te  Te3  1  0.33867900  0.35428400  0.29095600  1
  Te  Te4  1  0.64571600  0.66132100  0.20904400  1
  Te  Te5  1  0.66132100  0.64571600  0.70904400  1
  O  O0  1  0.41128700  0.05605000  0.87975300  1
  O  O1  1  0.09067100  0.74634500  0.93502400  1
  O  O2  1  0.24450900  0.59348500  0.18140400  1
  O  O3  1  0.07957100  0.07031800  0.32063500  1
  O  O4  1  0.25365500  0.90932900  0.56497600  1
  O  O5  1  0.92968200  0.92042900  0.17936500  1
  O  O6  1  0.43820700  0.39077700  0.45737400  1
  O  O7  1  0.75736500  0.10118300  0.92319700  1
  O  O8  1  0.24263500  0.89881700  0.07680300  1
  O  O9  1  0.71493200  0.78206100  0.36147300  1
  O  O10  1  0.24887300  0.56720100  0.69772000  1
  O  O11  1  0.28506800  0.21793900  0.63852700  1
  O  O12  1  0.90932900  0.25365500  0.06497600  1
  O  O13  1  0.08117200  0.45725100  0.88155200  1
  O  O14  1  0.43279900  0.75112700  0.80228000  1
  O  O15  1  0.56179300  0.60922300  0.54262600  1
  O  O16  1  0.75112700  0.43279900  0.30228000  1
  O  O17  1  0.54274900  0.91882800  0.61844800  1
  O  O18  1  0.40651500  0.75549100  0.31859600  1
  O  O19  1  0.56720100  0.24887300  0.19772000  1
  O  O20  1  0.05605000  0.41128700  0.37975300  1
  O  O21  1  0.91882800  0.54274900  0.11844800  1
  O  O22  1  0.89881700  0.24263500  0.57680300  1
  O  O23  1  0.39077700  0.43820700  0.95737400  1
  O  O24  1  0.75549100  0.40651500  0.81859600  1
  O  O25  1  0.07031800  0.07957100  0.82063500  1
  O  O26  1  0.78206100  0.71493200  0.86147300  1
  O  O27  1  0.60922300  0.56179300  0.04262600  1
  O  O28  1  0.74634500  0.09067100  0.43502400  1
  O  O29  1  0.45725100  0.08117200  0.38155200  1
  O  O30  1  0.58871300  0.94395000  0.12024700  1
  O  O31  1  0.92042900  0.92968200  0.67936500  1
  O  O32  1  0.10118300  0.75736500  0.42319700  1
  O  O33  1  0.21793900  0.28506800  0.13852700  1
  O  O34  1  0.59348500  0.24450900  0.68140400  1
  O  O35  1  0.94395000  0.58871300  0.62024700  1
loop_
_geom_bond_atom_site_label_1
_geom_bond_atom_site_label_2
_geom_bond_distance
_geom_bond_site_symmetry_2
Mg0 O9 1.943583 1_555
Mg0 O32 1.990949 1_655
Mg0 O20 1.996149 1_655
Mg0 O35 2.004528 1_555
Mg1 O10 1.957274 1_555
Mg1 O15 2.023189 1_555
Mg1 O6 2.067844 1_555
Mg1 O32 2.106725 1_555
Mg1 O4 2.273216 1_555
Mg1 O18 2.569239 1_555
Mg2 O33 1.943583 1_555
Mg2 O8 1.990949 1_545
Mg2 O30 1.996149 1_545
Mg2 O0 2.004528 1_554
Mg3 O14 1.957274 1_555
Mg3 O23 2.023189 1_555
Mg3 O27 2.067844 1_556
Mg3 O8 2.106725 1_556
Mg3 O1 2.273216 1_555
Mg3 O2 2.569239 1_556
Mg4 O19 1.957274 1_555
Mg4 O27 2.023189 1_555
Mg4 O23 2.067844 1_554
Mg4 O7 2.106725 1_554
Mg4 O12 2.273216 1_555
Mg4 O24 2.569239 1_554
Mg5 O26 1.943583 1_555
Mg5 O7 1.990949 1_565
Mg5 O0 1.996149 1_565
Mg5 O30 2.004528 1_556
Mg6 O11 1.943583 1_555
Mg6 O22 1.990949 1_455
Mg6 O35 1.996149 1_455
Mg6 O20 2.004528 1_555
Mg7 O16 1.957274 1_555
Mg7 O6 2.023189 1_555
Mg7 O15 2.067844 1_555
Mg7 O22 2.106725 1_555
Mg7 O28 2.273216 1_555
Mg7 O34 2.569239 1_555
Cr0 O10 1.986949 1_555
Cr0 O35 2.033846 1_455
Cr0 O26 2.033971 1_455
Cr0 O13 2.056211 1_555
Cr0 O31 2.120907 1_455
Cr0 O1 2.156124 1_555
Cr1 O19 1.986949 1_555
Cr1 O30 2.033846 1_545
Cr1 O9 2.033971 1_545
Cr1 O29 2.056211 1_555
Cr1 O5 2.120907 1_545
Cr1 O28 2.156124 1_555
Cr2 O17 2.020431 1_555
Cr2 O29 2.022532 1_565
Cr2 O18 2.026605 1_555
Cr2 O4 2.053844 1_555
Cr2 O15 2.059983 1_555
Cr2 O9 2.069121 1_555
Cr3 O21 2.020431 1_556
Cr3 O13 2.022532 1_655
Cr3 O24 2.026605 1_555
Cr3 O12 2.053844 1_556
Cr3 O27 2.059983 1_556
Cr3 O26 2.069121 1_555
Cr4 O13 2.020431 1_554
Cr4 O21 2.022532 1_455
Cr4 O2 2.026605 1_555
Cr4 O1 2.053844 1_554
Cr4 O23 2.059983 1_554
Cr4 O33 2.069121 1_555
Cr5 O7 2.006474 1_555
Cr5 O22 2.006474 1_555
Cr5 O24 2.053461 1_555
Cr5 O34 2.053461 1_555
Cr5 O25 2.054531 1_655
Cr5 O31 2.054531 1_545
Cr6 O8 2.006474 1_555
Cr6 O32 2.006474 1_555
Cr6 O18 2.053461 1_555
Cr6 O2 2.053461 1_555
Cr6 O3 2.054531 1_565
Cr6 O5 2.054531 1_455
Cr7 O29 2.020431 1_555
Cr7 O17 2.022532 1_545
Cr7 O34 2.026605 1_555
Cr7 O28 2.053844 1_555
Cr7 O6 2.059983 1_555
Cr7 O11 2.069121 1_555
Cr8 O16 1.986949 1_555
Cr8 O20 2.033846 1_655
Cr8 O33 2.033971 1_655
Cr8 O21 2.056211 1_555
Cr8 O3 2.120907 1_655
Cr8 O12 2.156124 1_555
Cr9 O14 1.986949 1_555
Cr9 O0 2.033846 1_565
Cr9 O11 2.033971 1_565
Cr9 O17 2.056211 1_555
Cr9 O25 2.120907 1_565
Cr9 O4 2.156124 1_555
O0 Te0 2.409509 1_555
O1 Te2 2.143795 1_566
O2 Te3 2.139903 1_555
O3 Te1 2.089253 1_555
O4 Te1 2.143795 1_565
O5 Te2 2.089253 1_665
O6 Te3 2.121314 1_555
O7 Te2 2.100947 1_656
O8 Te2 2.100947 1_565
O9 Te4 2.247931 1_555
O10 Te0 1.991544 1_555
O11 Te0 2.247931 1_555
O12 Te2 2.143795 1_655
O13 Te0 2.289105 1_555
O14 Te5 1.991544 1_555
O15 Te5 2.121314 1_555
O16 Te4 1.991544 1_555
O17 Te5 2.289105 1_555
O18 Te4 2.139903 1_555
O19 Te3 1.991544 1_555
O20 Te3 2.409509 1_555
O21 Te4 2.289105 1_555
O22 Te1 2.100947 1_655
O23 Te0 2.121314 1_555
O24 Te5 2.139903 1_555
O25 Te2 2.089253 1_556
O26 Te5 2.247931 1_555
O27 Te4 2.121314 1_555
O28 Te1 2.143795 1_655
O29 Te3 2.289105 1_555
O30 Te4 2.409509 1_555
O31 Te1 2.089253 1_665
O32 Te1 2.100947 1_565
O33 Te3 2.247931 1_555
O34 Te0 2.139903 1_555
O35 Te5 2.409509 1_555
