# generated using pymatgen
data_TbAlNi4
_symmetry_space_group_name_H-M   'P 1'
_cell_length_a   5.04164059
_cell_length_b   5.04164059
_cell_length_c   3.85009600
_cell_angle_alpha   90.00000000
_cell_angle_beta   90.00000000
_cell_angle_gamma   120.00000776
_symmetry_Int_Tables_number   1
_chemical_formula_structural   TbAlNi4
_chemical_formula_sum   'Tb1 Al1 Ni4'
_cell_volume   84.75121270
_cell_formula_units_Z   1
loop_
 _symmetry_equiv_pos_site_id
 _symmetry_equiv_pos_as_xyz
  1  'x, y, z'
loop_
 _atom_site_type_symbol
 _atom_site_label
 _atom_site_symmetry_multiplicity
 _atom_site_fract_x
 _atom_site_fract_y
 _atom_site_fract_z
 _atom_site_occupancy
  Tb  Tb0  1  0.66666700  0.33333300  0.00000000  1
  Al  Al0  1  0.00000000  0.00000000  0.00000000  1
  Ni  Ni0  1  0.33333300  0.66666700  0.00000000  1
  Ni  Ni1  1  0.66263900  0.83132000  0.50000000  1
  Ni  Ni2  1  0.16868000  0.83132000  0.50000000  1
  Ni  Ni3  1  0.16868000  0.33736100  0.50000000  1
loop_
_geom_bond_atom_site_label_1
_geom_bond_atom_site_label_2
_geom_bond_distance
_geom_bond_site_symmetry_2
Al0 Ni2 2.423937 1_545
Al0 Ni2 2.423937 1_544
Al0 Ni3 2.423940 1_554
Al0 Ni3 2.423940 1_555
Al0 Ni1 2.423940 1_445
Al0 Ni1 2.423940 1_444
Al0 Tb0 2.910790 1_455
Al0 Ni0 2.910790 1_545
Al0 Ni0 2.910794 1_445
Al0 Tb0 2.910794 1_555
Al0 Tb0 2.910794 1_445
Al0 Ni0 2.910794 1_555
Ni0 Ni1 2.402730 1_554
Ni0 Ni1 2.402730 1_555
Ni0 Ni3 2.402730 1_554
Ni0 Ni3 2.402730 1_555
Ni0 Ni2 2.402730 1_555
Ni0 Ni2 2.402730 1_554
Ni0 Tb0 2.910789 1_455
Ni0 Tb0 2.910789 1_565
Ni0 Tb0 2.910798 1_555
Ni1 Ni3 2.490363 1_555
Ni1 Ni2 2.490364 1_555
Ni1 Ni3 2.551277 1_665
Ni1 Ni2 2.551277 1_655
Ni1 Tb0 3.171849 1_565
Ni1 Tb0 3.171849 1_566
Ni1 Tb0 3.171857 1_556
Ni1 Tb0 3.171857 1_555
Ni2 Ni3 2.490364 1_555
Ni2 Ni3 2.551277 1_565
Ni2 Tb0 3.171853 1_455
Ni2 Tb0 3.171853 1_565
Ni2 Tb0 3.171853 1_566
Ni2 Tb0 3.171853 1_456
Ni3 Tb0 3.171849 1_455
Ni3 Tb0 3.171849 1_456
Ni3 Tb0 3.171857 1_555
Ni3 Tb0 3.171857 1_556
