# generated using pymatgen
data_CsB6(H5N)3
_symmetry_space_group_name_H-M   'P 1'
_cell_length_a   8.14979000
_cell_length_b   14.48859200
_cell_length_c   18.98250000
_cell_angle_alpha   90.00000000
_cell_angle_beta   90.00000000
_cell_angle_gamma   90.00000000
_symmetry_Int_Tables_number   1
_chemical_formula_structural   CsB6(H5N)3
_chemical_formula_sum   'Cs8 B48 H120 N24'
_cell_volume   2241.43427953
_cell_formula_units_Z   8
loop_
 _symmetry_equiv_pos_site_id
 _symmetry_equiv_pos_as_xyz
  1  'x, y, z'
loop_
 _atom_site_type_symbol
 _atom_site_label
 _atom_site_symmetry_multiplicity
 _atom_site_fract_x
 _atom_site_fract_y
 _atom_site_fract_z
 _atom_site_occupancy
  Cs  Cs0  1  0.49873300  0.32958300  0.40127000  1
  Cs  Cs1  1  0.99873300  0.17041700  0.59873000  1
  Cs  Cs2  1  0.50126700  0.82958300  0.09873000  1
  Cs  Cs3  1  0.00126700  0.67041700  0.90127000  1
  Cs  Cs4  1  0.50126700  0.67041700  0.59873000  1
  Cs  Cs5  1  0.00126700  0.82958300  0.40127000  1
  Cs  Cs6  1  0.49873300  0.17041700  0.90127000  1
  Cs  Cs7  1  0.99873300  0.32958300  0.09873000  1
  B  B0  1  0.54316900  0.06077200  0.42578100  1
  B  B1  1  0.04316900  0.43922800  0.57421900  1
  B  B2  1  0.45683100  0.56077200  0.07421900  1
  B  B3  1  0.95683100  0.93922800  0.92578100  1
  B  B4  1  0.45683100  0.93922800  0.57421900  1
  B  B5  1  0.95683100  0.56077200  0.42578100  1
  B  B6  1  0.54316900  0.43922800  0.92578100  1
  B  B7  1  0.04316900  0.06077200  0.07421900  1
  B  B8  1  0.38632700  0.09572600  0.48597800  1
  B  B9  1  0.88632700  0.40427400  0.51402200  1
  B  B10  1  0.61367300  0.59572600  0.01402200  1
  B  B11  1  0.11367300  0.90427400  0.98597800  1
  B  B12  1  0.61367300  0.90427400  0.51402200  1
  B  B13  1  0.11367300  0.59572600  0.48597800  1
  B  B14  1  0.38632700  0.40427400  0.98597800  1
  B  B15  1  0.88632700  0.09572600  0.01402200  1
  B  B16  1  0.35962000  0.99439500  0.43400300  1
  B  B17  1  0.85962000  0.50560500  0.56599700  1
  B  B18  1  0.64038000  0.49439500  0.06599700  1
  B  B19  1  0.14038000  0.00560500  0.93400300  1
  B  B20  1  0.64038000  0.00560500  0.56599700  1
  B  B21  1  0.14038000  0.49439500  0.43400300  1
  B  B22  1  0.35962000  0.50560500  0.93400300  1
  B  B23  1  0.85962000  0.99439500  0.06599700  1
  B  B24  1  0.55382200  0.93797500  0.42748400  1
  B  B25  1  0.05382200  0.56202500  0.57251600  1
  B  B26  1  0.44617800  0.43797500  0.07251600  1
  B  B27  1  0.94617800  0.06202500  0.92748400  1
  B  B28  1  0.44617800  0.06202500  0.57251600  1
  B  B29  1  0.94617800  0.43797500  0.42748400  1
  B  B30  1  0.55382200  0.56202500  0.92748400  1
  B  B31  1  0.05382200  0.93797500  0.07251600  1
  B  B32  1  0.69994500  0.00485300  0.47530900  1
  B  B33  1  0.19994500  0.49514700  0.52469100  1
  B  B34  1  0.30005500  0.50485300  0.02469100  1
  B  B35  1  0.80005500  0.99514700  0.97530900  1
  B  B36  1  0.30005500  0.99514700  0.52469100  1
  B  B37  1  0.80005500  0.50485300  0.47530900  1
  B  B38  1  0.69994500  0.49514700  0.97530900  1
  B  B39  1  0.19994500  0.00485300  0.02469100  1
  B  B40  1  0.59620000  0.10194400  0.51124900  1
  B  B41  1  0.09620000  0.39805600  0.48875100  1
  B  B42  1  0.40380000  0.60194400  0.98875100  1
  B  B43  1  0.90380000  0.89805600  0.01124900  1
  B  B44  1  0.40380000  0.89805600  0.48875100  1
  B  B45  1  0.90380000  0.60194400  0.51124900  1
  B  B46  1  0.59620000  0.39805600  0.01124900  1
  B  B47  1  0.09620000  0.10194400  0.98875100  1
  H  H0  1  0.37964400  0.35214800  0.60202100  1
  H  H1  1  0.87964400  0.14785200  0.39797900  1
  H  H2  1  0.62035600  0.85214800  0.89797900  1
  H  H3  1  0.12035600  0.64785200  0.10202100  1
  H  H4  1  0.62035600  0.64785200  0.39797900  1
  H  H5  1  0.12035600  0.85214800  0.60202100  1
  H  H6  1  0.37964400  0.14785200  0.10202100  1
  H  H7  1  0.87964400  0.35214800  0.89797900  1
  H  H8  1  0.58022600  0.35517100  0.60610200  1
  H  H9  1  0.08022600  0.14482900  0.39389800  1
  H  H10  1  0.41977400  0.85517100  0.89389800  1
  H  H11  1  0.91977400  0.64482900  0.10610200  1
  H  H12  1  0.41977400  0.64482900  0.39389800  1
  H  H13  1  0.91977400  0.85517100  0.60610200  1
  H  H14  1  0.58022600  0.14482900  0.10610200  1
  H  H15  1  0.08022600  0.35517100  0.89389800  1
  H  H16  1  0.48537800  0.25566700  0.60627400  1
  H  H17  1  0.98537800  0.24433300  0.39372600  1
  H  H18  1  0.51462200  0.75566700  0.89372600  1
  H  H19  1  0.01462200  0.74433300  0.10627400  1
  H  H20  1  0.51462200  0.74433300  0.39372600  1
  H  H21  1  0.01462200  0.75566700  0.60627400  1
  H  H22  1  0.48537800  0.24433300  0.10627400  1
  H  H23  1  0.98537800  0.25566700  0.89372600  1
  H  H24  1  0.55282100  0.53979100  0.29700900  1
  H  H25  1  0.05282100  0.96020900  0.70299100  1
  H  H26  1  0.44717900  0.03979100  0.20299100  1
  H  H27  1  0.94717900  0.46020900  0.79700900  1
  H  H28  1  0.44717900  0.46020900  0.70299100  1
  H  H29  1  0.94717900  0.03979100  0.29700900  1
  H  H30  1  0.55282100  0.96020900  0.79700900  1
  H  H31  1  0.05282100  0.53979100  0.20299100  1
  H  H32  1  0.59244400  0.48203600  0.22504500  1
  H  H33  1  0.09244400  0.01796400  0.77495500  1
  H  H34  1  0.40755600  0.98203600  0.27495500  1
  H  H35  1  0.90755600  0.51796400  0.72504500  1
  H  H36  1  0.40755600  0.51796400  0.77495500  1
  H  H37  1  0.90755600  0.98203600  0.22504500  1
  H  H38  1  0.59244400  0.01796400  0.72504500  1
  H  H39  1  0.09244400  0.48203600  0.27495500  1
  H  H40  1  0.73006800  0.49015100  0.28769600  1
  H  H41  1  0.23006800  0.00984900  0.71230400  1
  H  H42  1  0.26993200  0.99015100  0.21230400  1
  H  H43  1  0.76993200  0.50984900  0.78769600  1
  H  H44  1  0.26993200  0.50984900  0.71230400  1
  H  H45  1  0.76993200  0.99015100  0.28769600  1
  H  H46  1  0.73006800  0.00984900  0.78769600  1
  H  H47  1  0.23006800  0.49015100  0.21230400  1
  H  H48  1  0.34453400  0.23217200  0.23035900  1
  H  H49  1  0.84453400  0.26782800  0.76964100  1
  H  H50  1  0.65546600  0.73217200  0.26964100  1
  H  H51  1  0.15546600  0.76782800  0.73035900  1
  H  H52  1  0.65546600  0.76782800  0.76964100  1
  H  H53  1  0.15546600  0.73217200  0.23035900  1
  H  H54  1  0.34453400  0.26782800  0.73035900  1
  H  H55  1  0.84453400  0.23217200  0.26964100  1
  H  H56  1  0.23323000  0.32378400  0.24988100  1
  H  H57  1  0.73323000  0.17621600  0.75011900  1
  H  H58  1  0.76677000  0.82378400  0.25011900  1
  H  H59  1  0.26677000  0.67621600  0.74988100  1
  H  H60  1  0.76677000  0.67621600  0.75011900  1
  H  H61  1  0.26677000  0.82378400  0.24988100  1
  H  H62  1  0.23323000  0.17621600  0.74988100  1
  H  H63  1  0.73323000  0.32378400  0.25011900  1
  H  H64  1  0.18494400  0.22371900  0.28400600  1
  H  H65  1  0.68494400  0.27628100  0.71599400  1
  H  H66  1  0.81505600  0.72371900  0.21599400  1
  H  H67  1  0.31505600  0.77628100  0.78400600  1
  H  H68  1  0.81505600  0.77628100  0.71599400  1
  H  H69  1  0.31505600  0.72371900  0.28400600  1
  H  H70  1  0.18494400  0.27628100  0.78400600  1
  H  H71  1  0.68494400  0.22371900  0.21599400  1
  H  H72  1  0.57314700  0.10549600  0.37378500  1
  H  H73  1  0.07314700  0.39450400  0.62621500  1
  H  H74  1  0.42685300  0.60549600  0.12621500  1
  H  H75  1  0.92685300  0.89450400  0.87378500  1
  H  H76  1  0.42685300  0.89450400  0.62621500  1
  H  H77  1  0.92685300  0.60549600  0.37378500  1
  H  H78  1  0.57314700  0.39450400  0.87378500  1
  H  H79  1  0.07314700  0.10549600  0.12621500  1
  H  H80  1  0.30743800  0.16501500  0.47565600  1
  H  H81  1  0.80743800  0.33498500  0.52434400  1
  H  H82  1  0.69256200  0.66501500  0.02434400  1
  H  H83  1  0.19256200  0.83498500  0.97565600  1
  H  H84  1  0.69256200  0.83498500  0.52434400  1
  H  H85  1  0.19256200  0.66501500  0.47565600  1
  H  H86  1  0.30743800  0.33498500  0.97565600  1
  H  H87  1  0.80743800  0.16501500  0.02434400  1
  H  H88  1  0.25794100  0.99238800  0.38776800  1
  H  H89  1  0.75794100  0.50761200  0.61223200  1
  H  H90  1  0.74205900  0.49238800  0.11223200  1
  H  H91  1  0.24205900  0.00761200  0.88776800  1
  H  H92  1  0.74205900  0.00761200  0.61223200  1
  H  H93  1  0.24205900  0.49238800  0.38776800  1
  H  H94  1  0.25794100  0.50761200  0.88776800  1
  H  H95  1  0.75794100  0.99238800  0.11223200  1
  H  H96  1  0.58973500  0.89217200  0.37669400  1
  H  H97  1  0.08973500  0.60782800  0.62330600  1
  H  H98  1  0.41026500  0.39217200  0.12330600  1
  H  H99  1  0.91026500  0.10782800  0.87669400  1
  H  H100  1  0.41026500  0.10782800  0.62330600  1
  H  H101  1  0.91026500  0.39217200  0.37669400  1
  H  H102  1  0.58973500  0.60782800  0.87669400  1
  H  H103  1  0.08973500  0.89217200  0.12330600  1
  H  H104  1  0.84281800  0.00895300  0.45920700  1
  H  H105  1  0.34281800  0.49104700  0.54079300  1
  H  H106  1  0.15718200  0.50895300  0.04079300  1
  H  H107  1  0.65718200  0.99104700  0.95920700  1
  H  H108  1  0.15718200  0.99104700  0.54079300  1
  H  H109  1  0.65718200  0.50895300  0.45920700  1
  H  H110  1  0.84281800  0.49104700  0.95920700  1
  H  H111  1  0.34281800  0.00895300  0.04079300  1
  H  H112  1  0.65990300  0.17641800  0.51861100  1
  H  H113  1  0.15990300  0.32358200  0.48138900  1
  H  H114  1  0.34009700  0.67641800  0.98138900  1
  H  H115  1  0.84009700  0.82358200  0.01861100  1
  H  H116  1  0.34009700  0.82358200  0.48138900  1
  H  H117  1  0.84009700  0.67641800  0.51861100  1
  H  H118  1  0.65990300  0.32358200  0.01861100  1
  H  H119  1  0.15990300  0.17641800  0.98138900  1
  N  N0  1  0.47918600  0.32198300  0.62523600  1
  N  N1  1  0.97918600  0.17801700  0.37476400  1
  N  N2  1  0.52081400  0.82198300  0.87476400  1
  N  N3  1  0.02081400  0.67801700  0.12523600  1
  N  N4  1  0.52081400  0.67801700  0.37476400  1
  N  N5  1  0.02081400  0.82198300  0.62523600  1
  N  N6  1  0.47918600  0.17801700  0.12523600  1
  N  N7  1  0.97918600  0.32198300  0.87476400  1
  N  N8  1  0.60728700  0.48098600  0.27854800  1
  N  N9  1  0.10728700  0.01901400  0.72145200  1
  N  N10  1  0.39271300  0.98098600  0.22145200  1
  N  N11  1  0.89271300  0.51901400  0.77854800  1
  N  N12  1  0.39271300  0.51901400  0.72145200  1
  N  N13  1  0.89271300  0.98098600  0.27854800  1
  N  N14  1  0.60728700  0.01901400  0.77854800  1
  N  N15  1  0.10728700  0.48098600  0.22145200  1
  N  N16  1  0.28221400  0.26466500  0.27020800  1
  N  N17  1  0.78221400  0.23533500  0.72979200  1
  N  N18  1  0.71778600  0.76466500  0.22979200  1
  N  N19  1  0.21778600  0.73533500  0.77020800  1
  N  N20  1  0.71778600  0.73533500  0.72979200  1
  N  N21  1  0.21778600  0.76466500  0.27020800  1
  N  N22  1  0.28221400  0.23533500  0.77020800  1
  N  N23  1  0.78221400  0.26466500  0.22979200  1
loop_
_geom_bond_atom_site_label_1
_geom_bond_atom_site_label_2
_geom_bond_distance
_geom_bond_site_symmetry_2
Cs0 H109 3.103372 1_555
Cs0 H113 3.153706 1_555
Cs0 H93 3.163146 1_555
Cs0 H80 3.179548 1_555
Cs0 N16 3.191865 1_555
Cs0 N8 3.319869 1_555
Cs0 H72 3.343814 1_555
Cs0 H112 3.407538 1_555
Cs0 H81 3.434219 1_555
Cs0 H63 3.448451 1_555
Cs0 H101 3.505511 1_555
Cs1 H108 3.103372 1_645
Cs1 H112 3.153706 1_555
Cs1 H92 3.163146 1_555
Cs1 H81 3.179548 1_555
Cs1 N17 3.191865 1_555
Cs1 N9 3.319869 1_655
Cs1 H73 3.343814 1_655
Cs1 H113 3.407538 1_655
Cs1 H80 3.434219 1_655
Cs1 H62 3.448451 1_655
Cs1 H100 3.505511 1_655
Cs2 H111 3.103372 1_565
Cs2 H115 3.153706 1_555
Cs2 H95 3.163146 1_555
Cs2 H82 3.179548 1_555
Cs2 N18 3.191865 1_555
Cs2 N10 3.319869 1_555
Cs2 H74 3.343814 1_555
Cs2 H114 3.407538 1_554
Cs2 H83 3.434219 1_554
Cs2 H61 3.448451 1_555
Cs2 H103 3.505511 1_555
Cs3 H110 3.103372 1_455
Cs3 H114 3.153706 1_555
Cs3 H94 3.163146 1_555
Cs3 H83 3.179548 1_555
Cs3 N19 3.191865 1_555
Cs3 N11 3.319869 1_455
Cs3 H75 3.343814 1_455
Cs3 H115 3.407538 1_456
Cs3 H82 3.434219 1_456
Cs3 H60 3.448451 1_455
Cs3 H102 3.505511 1_455
Cs4 H105 3.103372 1_555
Cs4 H117 3.153706 1_555
Cs4 H89 3.163146 1_555
Cs4 H84 3.179548 1_555
Cs4 N20 3.191865 1_555
Cs4 N12 3.319869 1_555
Cs4 H76 3.343814 1_555
Cs4 H116 3.407538 1_555
Cs4 H85 3.434219 1_555
Cs4 H59 3.448451 1_555
Cs4 H97 3.505511 1_555
Cs5 H104 3.103372 1_465
Cs5 H116 3.153706 1_555
Cs5 H88 3.163146 1_555
Cs5 H85 3.179548 1_555
Cs5 N21 3.191865 1_555
Cs5 N13 3.319869 1_455
Cs5 H77 3.343814 1_455
Cs5 H117 3.407538 1_455
Cs5 H84 3.434219 1_455
Cs5 H58 3.448451 1_455
Cs5 H96 3.505511 1_455
Cs6 H107 3.103372 1_545
Cs6 H119 3.153706 1_555
Cs6 H91 3.163146 1_555
Cs6 H86 3.179548 1_555
Cs6 N22 3.191865 1_555
Cs6 N14 3.319869 1_555
Cs6 H78 3.343814 1_555
Cs6 H118 3.407538 1_556
Cs6 H87 3.434219 1_556
Cs6 H57 3.448451 1_555
Cs6 H99 3.505511 1_555
Cs7 H106 3.103372 1_655
Cs7 H118 3.153706 1_555
Cs7 H90 3.163146 1_555
Cs7 H87 3.179548 1_555
Cs7 N23 3.191865 1_555
Cs7 N15 3.319869 1_655
Cs7 H79 3.343814 1_655
Cs7 H119 3.407538 1_654
Cs7 H86 3.434219 1_654
Cs7 H56 3.448451 1_655
Cs7 H98 3.505511 1_655
B0 H72 1.205726 1_555
B1 H73 1.205726 1_555
B2 H74 1.205726 1_555
B3 H75 1.205726 1_555
B4 H76 1.205726 1_555
B5 H77 1.205726 1_555
B6 H78 1.205726 1_555
B7 H79 1.205726 1_555
B8 H80 1.208124 1_555
B9 H81 1.208124 1_555
B10 H82 1.208124 1_555
B11 H83 1.208124 1_555
B12 H84 1.208124 1_555
B13 H85 1.208124 1_555
B14 H86 1.208124 1_555
B15 H87 1.208124 1_555
B16 H88 1.207397 1_555
B17 H89 1.207397 1_555
B18 H90 1.207397 1_555
B19 H91 1.207397 1_555
B20 H92 1.207397 1_555
B21 H93 1.207397 1_555
B22 H94 1.207397 1_555
B23 H95 1.207397 1_555
B24 H96 1.206477 1_555
B25 H97 1.206477 1_555
B26 H98 1.206477 1_555
B27 H99 1.206477 1_555
B28 H100 1.206477 1_555
B29 H101 1.206477 1_555
B30 H102 1.206477 1_555
B31 H103 1.206477 1_555
B32 H104 1.205299 1_555
B33 H105 1.205299 1_555
B34 H106 1.205299 1_555
B35 H107 1.205299 1_555
B36 H108 1.205299 1_555
B37 H109 1.205299 1_555
B38 H110 1.205299 1_555
B39 H111 1.205299 1_555
B40 H112 1.205552 1_555
B41 H113 1.205552 1_555
B42 H114 1.205552 1_555
B43 H115 1.205552 1_555
B44 H116 1.205552 1_555
B45 H117 1.205552 1_555
B46 H118 1.205552 1_555
B47 H119 1.205552 1_555
H0 N0 1.021435 1_555
H1 N1 1.021435 1_555
H2 N2 1.021435 1_555
H3 N3 1.021435 1_555
H4 N4 1.021435 1_555
H5 N5 1.021435 1_555
H6 N6 1.021435 1_555
H7 N7 1.021435 1_555
H8 N0 1.020399 1_555
H9 N1 1.020399 1_455
H10 N2 1.020399 1_555
H11 N3 1.020399 1_655
H12 N4 1.020399 1_555
H13 N5 1.020399 1_655
H14 N6 1.020399 1_555
H15 N7 1.020399 1_455
H16 N0 1.027275 1_555
H17 N1 1.027275 1_555
H18 N2 1.027275 1_555
H19 N3 1.027275 1_555
H20 N4 1.027275 1_555
H21 N5 1.027275 1_555
H22 N6 1.027275 1_555
H23 N7 1.027275 1_555
H24 N8 1.022618 1_555
H25 N9 1.022618 1_565
H26 N10 1.022618 1_545
H27 N11 1.022618 1_555
H28 N12 1.022618 1_555
H29 N13 1.022618 1_545
H30 N14 1.022618 1_565
H31 N15 1.022618 1_555
H32 N8 1.022912 1_555
H33 N9 1.022912 1_555
H34 N10 1.022912 1_555
H35 N11 1.022912 1_555
H36 N12 1.022912 1_555
H37 N13 1.022912 1_555
H38 N14 1.022912 1_555
H39 N15 1.022912 1_555
H40 N8 1.024240 1_555
H41 N9 1.024240 1_555
H42 N10 1.024240 1_555
H43 N11 1.024240 1_555
H44 N12 1.024240 1_555
H45 N13 1.024240 1_555
H46 N14 1.024240 1_555
H47 N15 1.024240 1_555
H48 N16 1.025564 1_555
H49 N17 1.025564 1_555
H50 N18 1.025564 1_555
H51 N19 1.025564 1_555
H52 N20 1.025564 1_555
H53 N21 1.025564 1_555
H54 N22 1.025564 1_555
H55 N23 1.025564 1_555
H56 N16 1.020752 1_555
H57 N17 1.020752 1_555
H58 N18 1.020752 1_555
H59 N19 1.020752 1_555
H60 N20 1.020752 1_555
H61 N21 1.020752 1_555
H62 N22 1.020752 1_555
H63 N23 1.020752 1_555
H64 N16 1.024192 1_555
H65 N17 1.024192 1_555
H66 N18 1.024192 1_555
H67 N19 1.024192 1_555
H68 N20 1.024192 1_555
H69 N21 1.024192 1_555
H70 N22 1.024192 1_555
H71 N23 1.024192 1_555
