# generated using pymatgen
data_K2NdI5
_symmetry_space_group_name_H-M   'P 1'
_cell_length_a   9.18348374
_cell_length_b   9.84495386
_cell_length_c   14.42812037
_cell_angle_alpha   90.00000000
_cell_angle_beta   90.00000000
_cell_angle_gamma   90.00000000
_symmetry_Int_Tables_number   1
_chemical_formula_structural   K2NdI5
_chemical_formula_sum   'K8 Nd4 I20'
_cell_volume   1304.46041123
_cell_formula_units_Z   4
loop_
 _symmetry_equiv_pos_site_id
 _symmetry_equiv_pos_as_xyz
  1  'x, y, z'
loop_
 _atom_site_type_symbol
 _atom_site_label
 _atom_site_symmetry_multiplicity
 _atom_site_fract_x
 _atom_site_fract_y
 _atom_site_fract_z
 _atom_site_occupancy
  K  K0  1  0.94488861  0.00284736  0.82658806  1
  K  K1  1  0.05511139  0.99715264  0.17341194  1
  K  K2  1  0.44488861  0.99715264  0.67341194  1
  K  K3  1  0.05511139  0.50284736  0.17341194  1
  K  K4  1  0.55511139  0.00284736  0.32658806  1
  K  K5  1  0.94488861  0.49715264  0.82658806  1
  K  K6  1  0.55511139  0.49715264  0.32658806  1
  K  K7  1  0.44488861  0.50284736  0.67341194  1
  Nd  Nd0  1  0.91827984  0.75000000  0.50582812  1
  Nd  Nd1  1  0.08172016  0.25000000  0.49417188  1
  Nd  Nd2  1  0.41827984  0.25000000  0.99417188  1
  Nd  Nd3  1  0.58172016  0.75000000  0.00582812  1
  I  I0  1  0.12966910  0.75000000  0.68146140  1
  I  I1  1  0.87033090  0.25000000  0.31853860  1
  I  I2  1  0.62966910  0.25000000  0.81853860  1
  I  I3  1  0.37033090  0.75000000  0.18146140  1
  I  I4  1  0.83135093  0.04614875  0.57794137  1
  I  I5  1  0.16864907  0.95385125  0.42205863  1
  I  I6  1  0.33135093  0.95385125  0.92205863  1
  I  I7  1  0.16864907  0.54614875  0.42205863  1
  I  I8  1  0.66864907  0.04614875  0.07794137  1
  I  I9  1  0.83135093  0.45385125  0.57794137  1
  I  I10  1  0.66864907  0.45385125  0.07794137  1
  I  I11  1  0.33135093  0.54614875  0.92205863  1
  I  I12  1  0.56580614  0.75000000  0.50743263  1
  I  I13  1  0.43419386  0.25000000  0.49256737  1
  I  I14  1  0.06580614  0.25000000  0.99256737  1
  I  I15  1  0.93419386  0.75000000  0.00743263  1
  I  I16  1  0.66471930  0.75000000  0.79192138  1
  I  I17  1  0.33528070  0.25000000  0.20807862  1
  I  I18  1  0.16471930  0.25000000  0.70807862  1
  I  I19  1  0.83528070  0.75000000  0.29192138  1
loop_
_geom_bond_atom_site_label_1
_geom_bond_atom_site_label_2
_geom_bond_distance
_geom_bond_site_symmetry_2
I0 Nd0 3.192187 1_455
I0 K5 3.668852 1_455
I0 K0 3.668852 1_465
I0 K2 3.783375 1_555
I0 K7 3.783375 1_555
I1 Nd1 3.192187 1_655
I1 K1 3.668852 1_645
I1 K3 3.668852 1_655
I1 K4 3.783375 1_555
I1 K6 3.783375 1_555
I2 Nd2 3.192187 1_555
I2 K7 3.668852 1_555
I2 K2 3.668852 1_545
I2 K5 3.783375 1_555
I2 K0 3.783375 1_555
I3 Nd3 3.192187 1_555
I3 K6 3.668852 1_555
I3 K4 3.668852 1_565
I3 K1 3.783375 1_555
I3 K3 3.783375 1_555
I4 Nd0 3.196937 1_545
I4 Nd1 3.282541 1_655
I4 K0 3.760197 1_555
I4 K2 3.837444 1_545
I5 Nd1 3.196937 1_565
I5 Nd0 3.282541 1_455
I5 K1 3.760197 1_555
I5 K4 3.837444 1_565
I6 Nd2 3.196937 1_565
I6 Nd3 3.282541 1_556
I6 K2 3.760197 1_555
I6 K0 3.837444 1_465
I7 Nd1 3.196937 1_555
I7 Nd0 3.282541 1_455
I7 K3 3.760197 1_555
I7 K6 3.837444 1_555
I8 Nd3 3.196937 1_545
I8 Nd2 3.282541 1_554
I8 K4 3.760197 1_555
I8 K1 3.837444 1_645
I9 Nd0 3.196937 1_555
I9 Nd1 3.282541 1_655
I9 K5 3.760197 1_555
I9 K7 3.837444 1_555
I10 Nd3 3.196937 1_555
I10 Nd2 3.282541 1_554
I10 K6 3.760197 1_555
I10 K3 3.837444 1_655
I11 Nd2 3.196937 1_555
I11 Nd3 3.282541 1_556
I11 K7 3.760197 1_555
I11 K5 3.837444 1_455
I12 Nd0 3.237019 1_555
I12 K2 3.590056 1_555
I12 K7 3.590056 1_555
I12 K6 3.607532 1_555
I12 K4 3.607532 1_565
I13 Nd1 3.237019 1_555
I13 K4 3.590056 1_555
I13 K6 3.590056 1_555
I13 K2 3.607532 1_545
I13 K7 3.607532 1_555
I14 Nd2 3.237019 1_555
I14 K0 3.590056 1_455
I14 K5 3.590056 1_455
I14 K3 3.607532 1_556
I14 K1 3.607532 1_546
I15 Nd3 3.237019 1_555
I15 K3 3.590056 1_655
I15 K1 3.590056 1_655
I15 K5 3.607532 1_554
I15 K0 3.607532 1_564
I16 Nd3 3.179003 1_556
I16 K7 3.594404 1_555
I16 K2 3.594404 1_555
I16 K5 3.614777 1_555
I16 K0 3.614777 1_565
I17 Nd2 3.179003 1_554
I17 K4 3.594404 1_555
I17 K6 3.594404 1_555
I17 K1 3.614777 1_545
I17 K3 3.614777 1_555
I18 Nd1 3.179003 1_555
I18 K5 3.594404 1_455
I18 K0 3.594404 1_455
I18 K7 3.614777 1_555
I18 K2 3.614777 1_545
I19 Nd0 3.179003 1_555
I19 K1 3.594404 1_655
I19 K3 3.594404 1_655
I19 K6 3.614777 1_555
I19 K4 3.614777 1_565
