# generated using pymatgen
data_Li6Eu5Sn9
_symmetry_space_group_name_H-M   'P 1'
_cell_length_a   4.85993343
_cell_length_b   14.75771827
_cell_length_c   15.09138721
_cell_angle_alpha   90.00000000
_cell_angle_beta   90.00000000
_cell_angle_gamma   99.47733150
_symmetry_Int_Tables_number   1
_chemical_formula_structural   Li6Eu5Sn9
_chemical_formula_sum   'Li12 Eu10 Sn18'
_cell_volume   1067.60379647
_cell_formula_units_Z   2
loop_
 _symmetry_equiv_pos_site_id
 _symmetry_equiv_pos_as_xyz
  1  'x, y, z'
loop_
 _atom_site_type_symbol
 _atom_site_label
 _atom_site_symmetry_multiplicity
 _atom_site_fract_x
 _atom_site_fract_y
 _atom_site_fract_z
 _atom_site_occupancy
  Li  Li0  1  0.83899561  0.67799123  0.02685165  1
  Li  Li1  1  0.16100439  0.32200877  0.97314835  1
  Li  Li2  1  0.83899561  0.67799123  0.47314835  1
  Li  Li3  1  0.16100439  0.32200877  0.52685165  1
  Li  Li4  1  0.09828250  0.19656500  0.15305802  1
  Li  Li5  1  0.90171750  0.80343500  0.84694198  1
  Li  Li6  1  0.09828250  0.19656500  0.34694198  1
  Li  Li7  1  0.90171750  0.80343500  0.65305802  1
  Li  Li8  1  0.73565062  0.47130125  0.94760922  1
  Li  Li9  1  0.26434938  0.52869875  0.05239078  1
  Li  Li10  1  0.73565062  0.47130125  0.55239078  1
  Li  Li11  1  0.26434938  0.52869875  0.44760922  1
  Eu  Eu0  1  0.20034044  0.40068088  0.25000000  1
  Eu  Eu1  1  0.79965956  0.59931912  0.75000000  1
  Eu  Eu2  1  0.49149061  0.98298123  0.25000000  1
  Eu  Eu3  1  0.50850939  0.01701877  0.75000000  1
  Eu  Eu4  1  0.56751249  0.13502497  0.99468228  1
  Eu  Eu5  1  0.43248751  0.86497503  0.00531772  1
  Eu  Eu6  1  0.56751249  0.13502497  0.50531772  1
  Eu  Eu7  1  0.43248751  0.86497503  0.49468228  1
  Eu  Eu8  1  0.34283660  0.68567319  0.25000000  1
  Eu  Eu9  1  0.65716340  0.31432681  0.75000000  1
  Sn  Sn0  1  0.76721031  0.53442062  0.15307259  1
  Sn  Sn1  1  0.23278969  0.46557938  0.84692741  1
  Sn  Sn2  1  0.76721031  0.53442062  0.34692741  1
  Sn  Sn3  1  0.23278969  0.46557938  0.65307259  1
  Sn  Sn4  1  0.67112438  0.34224875  0.09359368  1
  Sn  Sn5  1  0.32887562  0.65775125  0.90640632  1
  Sn  Sn6  1  0.67112438  0.34224875  0.40640632  1
  Sn  Sn7  1  0.32887562  0.65775125  0.59359368  1
  Sn  Sn8  1  0.61105363  0.22210726  0.25000000  1
  Sn  Sn9  1  0.38894637  0.77789274  0.75000000  1
  Sn  Sn10  1  0.91179463  0.82358925  0.15348318  1
  Sn  Sn11  1  0.08820537  0.17641075  0.84651682  1
  Sn  Sn12  1  0.91179463  0.82358925  0.34651682  1
  Sn  Sn13  1  0.08820537  0.17641075  0.65348318  1
  Sn  Sn14  1  0.00784741  0.01569482  0.09506207  1
  Sn  Sn15  1  0.99215259  0.98430518  0.90493793  1
  Sn  Sn16  1  0.00784741  0.01569482  0.40493793  1
  Sn  Sn17  1  0.99215259  0.98430518  0.59506207  1
loop_
_geom_bond_atom_site_label_1
_geom_bond_atom_site_label_2
_geom_bond_distance
_geom_bond_site_symmetry_2
Li0 Sn0 2.827710 1_555
Li0 Sn10 2.853736 1_555
Li0 Sn5 3.048856 1_554
Li0 Sn5 3.048856 1_654
Li1 Sn1 2.827710 1_555
Li1 Sn11 2.853736 1_555
Li1 Sn4 3.048856 1_556
Li1 Sn4 3.048856 1_456
Li2 Sn2 2.827710 1_555
Li2 Sn12 2.853736 1_555
Li2 Sn7 3.048856 1_555
Li2 Sn7 3.048856 1_655
Li3 Sn3 2.827710 1_555
Li3 Sn13 2.853736 1_555
Li3 Sn6 3.048856 1_555
Li3 Sn6 3.048856 1_455
Li4 Sn14 2.774468 1_555
Li4 Sn8 2.860649 1_555
Li4 Sn8 2.860649 1_455
Li4 Sn4 3.347696 1_555
Li4 Sn4 3.347696 1_455
Li5 Sn15 2.774468 1_555
Li5 Sn9 2.860649 1_555
Li5 Sn9 2.860649 1_655
Li5 Sn5 3.347696 1_555
Li5 Sn5 3.347696 1_655
Li6 Sn16 2.774468 1_555
Li6 Sn8 2.860649 1_555
Li6 Sn8 2.860649 1_455
Li6 Sn6 3.347696 1_555
Li6 Sn6 3.347696 1_455
Li7 Sn17 2.774468 1_555
Li7 Sn9 2.860649 1_555
Li7 Sn9 2.860649 1_655
Li7 Sn7 3.347696 1_555
Li7 Sn7 3.347696 1_655
Li8 Sn1 2.867113 1_555
Li8 Sn1 2.867113 1_655
Li8 Sn4 2.895262 1_556
Li9 Sn0 2.867113 1_555
Li9 Sn0 2.867113 1_455
Li9 Sn5 2.895262 1_554
Li10 Sn3 2.867113 1_555
Li10 Sn3 2.867113 1_655
Li10 Sn6 2.895262 1_555
Li11 Sn2 2.867113 1_555
Li11 Sn2 2.867113 1_455
Li11 Sn7 2.895262 1_555
Eu0 Li6 3.311825 1_555
Eu0 Li4 3.311825 1_555
Eu0 Sn2 3.440099 1_555
Eu0 Sn0 3.440099 1_555
Eu0 Sn2 3.440099 1_455
Eu0 Sn0 3.440099 1_455
Eu0 Sn4 3.492795 1_455
Eu0 Sn6 3.492795 1_455
Eu0 Sn4 3.492795 1_555
Eu0 Sn6 3.492795 1_555
Eu0 Li11 3.516533 1_555
Eu0 Li9 3.516533 1_555
Eu0 Sn8 3.558294 1_455
Eu0 Sn8 3.558294 1_555
Eu1 Li5 3.311825 1_555
Eu1 Li7 3.311825 1_555
Eu1 Sn3 3.440099 1_555
Eu1 Sn1 3.440099 1_555
Eu1 Sn3 3.440099 1_655
Eu1 Sn1 3.440099 1_655
Eu1 Sn5 3.492795 1_655
Eu1 Sn7 3.492795 1_655
Eu1 Sn7 3.492795 1_555
Eu1 Sn5 3.492795 1_555
Eu1 Li8 3.516533 1_555
Eu1 Li10 3.516533 1_555
Eu1 Sn9 3.558294 1_655
Eu1 Sn9 3.558294 1_555
Eu2 Sn14 3.405702 1_565
Eu2 Sn16 3.405702 1_565
Eu2 Sn16 3.405702 1_665
Eu2 Sn14 3.405702 1_665
Eu2 Sn8 3.480787 1_565
Eu2 Sn10 3.661893 1_455
Eu2 Sn12 3.661893 1_455
Eu2 Sn10 3.661894 1_555
Eu2 Sn12 3.661894 1_555
Eu3 Sn15 3.405702 1_545
Eu3 Sn17 3.405702 1_545
Eu3 Sn17 3.405702 1_445
Eu3 Sn15 3.405702 1_445
Eu3 Sn9 3.480787 1_545
Eu3 Sn11 3.661893 1_655
Eu3 Sn13 3.661893 1_655
Eu3 Sn11 3.661894 1_555
Eu3 Sn13 3.661894 1_555
Eu4 Sn14 3.349142 1_556
Eu4 Sn14 3.349142 1_656
Eu4 Sn11 3.356702 1_655
Eu4 Sn11 3.356702 1_555
Eu4 Sn4 3.365547 1_556
Eu4 Li4 3.524175 1_656
Eu4 Li4 3.524175 1_556
Eu4 Sn15 3.542927 1_445
Eu4 Sn15 3.542928 1_545
Eu4 Li1 3.663125 1_655
Eu4 Li1 3.663126 1_555
Eu5 Sn15 3.349142 1_554
Eu5 Sn15 3.349142 1_454
Eu5 Sn10 3.356702 1_455
Eu5 Sn10 3.356702 1_555
Eu5 Sn5 3.365547 1_554
Eu5 Li5 3.524175 1_454
Eu5 Li5 3.524175 1_554
Eu5 Sn14 3.542927 1_665
Eu5 Sn14 3.542928 1_565
Eu5 Li0 3.663125 1_455
Eu5 Li0 3.663126 1_555
Eu6 Sn16 3.349142 1_555
Eu6 Sn16 3.349142 1_655
Eu6 Sn13 3.356702 1_655
Eu6 Sn13 3.356702 1_555
Eu6 Sn6 3.365547 1_555
Eu6 Li6 3.524175 1_655
Eu6 Li6 3.524175 1_555
Eu6 Sn17 3.542927 1_445
Eu6 Sn17 3.542928 1_545
Eu6 Li3 3.663125 1_655
Eu6 Li3 3.663126 1_555
Eu7 Sn17 3.349142 1_555
Eu7 Sn17 3.349142 1_455
Eu7 Sn12 3.356702 1_455
Eu7 Sn12 3.356702 1_555
Eu7 Sn7 3.365547 1_555
Eu7 Li7 3.524175 1_455
Eu7 Li7 3.524175 1_555
Eu7 Sn16 3.542927 1_665
Eu7 Sn16 3.542928 1_565
Eu7 Li2 3.663125 1_455
Eu7 Li2 3.663126 1_555
Eu8 Sn10 3.472259 1_555
Eu8 Sn12 3.472259 1_555
Eu8 Sn12 3.472259 1_455
Eu8 Sn10 3.472259 1_455
Eu8 Sn2 3.590516 1_455
Eu8 Sn0 3.590516 1_455
Eu8 Sn2 3.590516 1_555
Eu8 Sn0 3.590516 1_555
Eu8 Li11 3.756936 1_555
Eu8 Li9 3.756936 1_555
Eu9 Sn13 3.472259 1_555
Eu9 Sn11 3.472259 1_555
Eu9 Sn11 3.472259 1_655
Eu9 Sn13 3.472259 1_655
Eu9 Sn3 3.590516 1_655
Eu9 Sn1 3.590516 1_655
Eu9 Sn3 3.590516 1_555
Eu9 Sn1 3.590516 1_555
Eu9 Li8 3.756936 1_555
Eu9 Li10 3.756936 1_555
Sn0 Sn4 2.937798 1_555
Sn1 Sn5 2.937798 1_555
Sn2 Sn6 2.937798 1_555
Sn3 Sn7 2.937798 1_555
Sn4 Sn8 2.937649 1_555
Sn5 Sn9 2.937649 1_555
Sn6 Sn8 2.937649 1_555
Sn7 Sn9 2.937649 1_555
Sn10 Sn12 2.913145 1_555
Sn10 Sn14 2.932040 1_665
Sn11 Sn13 2.913145 1_555
Sn11 Sn15 2.932040 1_445
Sn12 Sn16 2.932040 1_665
Sn13 Sn17 2.932040 1_445
Sn14 Sn15 2.905390 1_444
Sn16 Sn17 2.905390 1_445
