# generated using pymatgen
data_MoW3(SeS)4
_symmetry_space_group_name_H-M   'P 1'
_cell_length_a   3.25810055
_cell_length_b   3.25810055
_cell_length_c   36.91997100
_cell_angle_alpha   90.00000000
_cell_angle_beta   90.00000000
_cell_angle_gamma   120.00001111
_symmetry_Int_Tables_number   1
_chemical_formula_structural   MoW3(SeS)4
_chemical_formula_sum   'Mo1 W3 Se4 S4'
_cell_volume   339.40708195
_cell_formula_units_Z   1
loop_
 _symmetry_equiv_pos_site_id
 _symmetry_equiv_pos_as_xyz
  1  'x, y, z'
loop_
 _atom_site_type_symbol
 _atom_site_label
 _atom_site_symmetry_multiplicity
 _atom_site_fract_x
 _atom_site_fract_y
 _atom_site_fract_z
 _atom_site_occupancy
  Mo  Mo0  1  0.00000000  0.00000000  0.46966900  1
  W  W0  1  0.00000000  0.00000000  0.09389300  1
  W  W1  1  0.33333300  0.66666700  0.28179000  1
  W  W2  1  0.33333300  0.66666700  0.65759300  1
  Se  Se0  1  0.00000000  0.00000000  0.32803200  1
  Se  Se1  1  0.00000000  0.00000000  0.70382500  1
  Se  Se2  1  0.00000000  0.00000000  0.23552200  1
  Se  Se3  1  0.00000000  0.00000000  0.61130600  1
  S  S0  1  0.33333300  0.66666700  0.05190700  1
  S  S1  1  0.33333300  0.66666700  0.42793600  1
  S  S2  1  0.33333300  0.66666700  0.13587600  1
  S  S3  1  0.33333300  0.66666700  0.51139800  1
loop_
_geom_bond_atom_site_label_1
_geom_bond_atom_site_label_2
_geom_bond_distance
_geom_bond_site_symmetry_2
Mo0 S3 2.431450 1_545
Mo0 S3 2.431452 1_555
Mo0 S3 2.431452 1_445
Mo0 S1 2.431544 1_545
Mo0 S1 2.431546 1_555
Mo0 S1 2.431546 1_445
Se0 W1 2.540298 1_545
Se0 W1 2.540300 1_445
Se0 W1 2.540300 1_555
Se1 W2 2.540050 1_545
Se1 W2 2.540052 1_555
Se1 W2 2.540052 1_445
Se2 W1 2.540943 1_545
Se2 W1 2.540945 1_445
Se2 W1 2.540945 1_555
Se3 W2 2.541415 1_545
Se3 W2 2.541417 1_555
Se3 W2 2.541417 1_445
S0 W0 2.437474 1_565
S0 W0 2.437476 1_665
S0 W0 2.437476 1_555
S2 W0 2.437403 1_565
S2 W0 2.437405 1_665
S2 W0 2.437405 1_555
