# generated using pymatgen
data_Zn2SiO4
_symmetry_space_group_name_H-M   'P 1'
_cell_length_a   4.84969700
_cell_length_b   6.09910600
_cell_length_c   10.43784700
_cell_angle_alpha   90.00000000
_cell_angle_beta   90.00000000
_cell_angle_gamma   90.00000000
_symmetry_Int_Tables_number   1
_chemical_formula_structural   Zn2SiO4
_chemical_formula_sum   'Zn8 Si4 O16'
_cell_volume   308.73915659
_cell_formula_units_Z   4
loop_
 _symmetry_equiv_pos_site_id
 _symmetry_equiv_pos_as_xyz
  1  'x, y, z'
loop_
 _atom_site_type_symbol
 _atom_site_label
 _atom_site_symmetry_multiplicity
 _atom_site_fract_x
 _atom_site_fract_y
 _atom_site_fract_z
 _atom_site_occupancy
  Zn  Zn0  1  0.50000000  0.00000000  0.50000000  1
  Zn  Zn1  1  0.00000000  0.50000000  0.00000000  1
  Zn  Zn2  1  0.50000000  0.50000000  0.50000000  1
  Zn  Zn3  1  0.00000000  0.00000000  0.00000000  1
  Zn  Zn4  1  0.48500200  0.75000000  0.77996100  1
  Zn  Zn5  1  0.01499800  0.75000000  0.27996100  1
  Zn  Zn6  1  0.51499800  0.25000000  0.22003900  1
  Zn  Zn7  1  0.98500200  0.25000000  0.72003900  1
  Si  Si0  1  0.92600100  0.75000000  0.59606000  1
  Si  Si1  1  0.57399900  0.75000000  0.09606000  1
  Si  Si2  1  0.07399900  0.25000000  0.40394000  1
  Si  Si3  1  0.42600100  0.25000000  0.90394000  1
  O  O0  1  0.26388600  0.75000000  0.59367500  1
  O  O1  1  0.23611400  0.75000000  0.09367500  1
  O  O2  1  0.73611400  0.25000000  0.40632500  1
  O  O3  1  0.76388600  0.25000000  0.90632500  1
  O  O4  1  0.71613300  0.75000000  0.94898500  1
  O  O5  1  0.78386700  0.75000000  0.44898500  1
  O  O6  1  0.28386700  0.25000000  0.05101500  1
  O  O7  1  0.21613300  0.25000000  0.55101500  1
  O  O8  1  0.77983300  0.96626400  0.66439400  1
  O  O9  1  0.72016700  0.53373600  0.16439400  1
  O  O10  1  0.22016700  0.46626400  0.33560600  1
  O  O11  1  0.27983300  0.03373600  0.83560600  1
  O  O12  1  0.22016700  0.03373600  0.33560600  1
  O  O13  1  0.27983300  0.46626400  0.83560600  1
  O  O14  1  0.77983300  0.53373600  0.66439400  1
  O  O15  1  0.72016700  0.96626400  0.16439400  1
loop_
_geom_bond_atom_site_label_1
_geom_bond_atom_site_label_2
_geom_bond_distance
_geom_bond_site_symmetry_2
O0 Si0 1.638829 1_455
O0 Zn0 2.142937 1_565
O0 Zn2 2.142937 1_555
O0 Zn4 2.220521 1_555
O1 Si1 1.638829 1_555
O1 Zn3 2.142937 1_565
O1 Zn1 2.142937 1_555
O1 Zn5 2.220521 1_555
O2 Si2 1.638829 1_655
O2 Zn2 2.142937 1_555
O2 Zn0 2.142937 1_555
O2 Zn6 2.220521 1_555
O3 Si3 1.638829 1_555
O3 Zn3 2.142937 1_656
O3 Zn1 2.142937 1_656
O3 Zn7 2.220521 1_555
O4 Si1 1.682801 1_556
O4 Zn4 2.090219 1_555
O4 Zn1 2.122193 1_656
O4 Zn3 2.122193 1_666
O5 Si0 1.682801 1_555
O5 Zn5 2.090219 1_655
O5 Zn0 2.122193 1_565
O5 Zn2 2.122193 1_555
O6 Si3 1.682801 1_554
O6 Zn6 2.090219 1_555
O6 Zn1 2.122193 1_555
O6 Zn3 2.122193 1_555
O7 Si2 1.682801 1_555
O7 Zn7 2.090219 1_455
O7 Zn2 2.122193 1_555
O7 Zn0 2.122193 1_555
O8 Si0 1.658627 1_555
O8 Zn7 2.078976 1_565
O8 Zn0 2.197374 1_565
O8 Zn4 2.288961 1_555
O9 Si1 1.658627 1_555
O9 Zn6 2.078976 1_555
O9 Zn1 2.197374 1_655
O9 Zn5 2.288961 1_655
O10 Si2 1.658627 1_555
O10 Zn5 2.078976 1_555
O10 Zn2 2.197374 1_555
O10 Zn6 2.288961 1_555
O11 Si3 1.658627 1_555
O11 Zn4 2.078976 1_545
O11 Zn3 2.197374 1_556
O11 Zn7 2.288961 1_455
O12 Si2 1.658627 1_555
O12 Zn5 2.078976 1_545
O12 Zn0 2.197374 1_555
O12 Zn6 2.288961 1_555
O13 Si3 1.658627 1_555
O13 Zn4 2.078976 1_555
O13 Zn1 2.197374 1_556
O13 Zn7 2.288961 1_455
O14 Si0 1.658627 1_555
O14 Zn7 2.078976 1_555
O14 Zn2 2.197374 1_555
O14 Zn4 2.288961 1_555
O15 Si1 1.658627 1_555
O15 Zn6 2.078976 1_565
O15 Zn3 2.197374 1_665
O15 Zn5 2.288961 1_655
