# generated using pymatgen
data_Te4Mo2WS2
_symmetry_space_group_name_H-M   'P 1'
_cell_length_a   3.42865806
_cell_length_b   3.42865806
_cell_length_c   31.65237100
_cell_angle_alpha   90.00000000
_cell_angle_beta   90.00000000
_cell_angle_gamma   120.00000119
_symmetry_Int_Tables_number   1
_chemical_formula_structural   Te4Mo2WS2
_chemical_formula_sum   'Te4 Mo2 W1 S2'
_cell_volume   322.24428551
_cell_formula_units_Z   1
loop_
 _symmetry_equiv_pos_site_id
 _symmetry_equiv_pos_as_xyz
  1  'x, y, z'
loop_
 _atom_site_type_symbol
 _atom_site_label
 _atom_site_symmetry_multiplicity
 _atom_site_fract_x
 _atom_site_fract_y
 _atom_site_fract_z
 _atom_site_occupancy
  Te  Te0  1  0.00000000  0.00000000  0.40559400  1
  Te  Te1  1  0.33333300  0.66666700  0.51923600  1
  Te  Te2  1  0.33333300  0.66666700  0.63744000  1
  Te  Te3  1  0.00000000  0.00000000  0.28824600  1
  Mo  Mo0  1  0.00000000  0.00000000  0.11566500  1
  Mo  Mo1  1  0.33333300  0.66666700  0.34694400  1
  W  W0  1  0.00000000  0.00000000  0.57838200  1
  S  S0  1  0.33333300  0.66666700  0.06837700  1
  S  S1  1  0.33333300  0.66666700  0.16295700  1
loop_
_geom_bond_atom_site_label_1
_geom_bond_atom_site_label_2
_geom_bond_distance
_geom_bond_site_symmetry_2
Te1 W0 2.724584 1_565
Te1 W0 2.724586 1_665
Te1 W0 2.724586 1_555
Te2 W0 2.722671 1_565
Te2 W0 2.722673 1_555
Te2 W0 2.722673 1_665
Mo0 S0 2.481713 1_545
Mo0 S0 2.481715 1_445
Mo0 S0 2.481715 1_555
Mo0 S1 2.481789 1_545
Mo0 S1 2.481792 1_445
Mo0 S1 2.481792 1_555
Mo1 Te0 2.713820 1_565
Mo1 Te0 2.713823 1_555
Mo1 Te0 2.713823 1_665
Mo1 Te3 2.714860 1_565
Mo1 Te3 2.714862 1_665
Mo1 Te3 2.714862 1_555
