# generated using pymatgen
data_NaSm(PO3)4
_symmetry_space_group_name_H-M   'P 1'
_cell_length_a   13.24947900
_cell_length_b   7.28379400
_cell_length_c   12.30819661
_cell_angle_alpha   54.17226812
_cell_angle_beta   90.00000000
_cell_angle_gamma   90.00000000
_symmetry_Int_Tables_number   1
_chemical_formula_structural   NaSm(PO3)4
_chemical_formula_sum   'Na4 Sm4 P16 O48'
_cell_volume   963.06195754
_cell_formula_units_Z   4
loop_
 _symmetry_equiv_pos_site_id
 _symmetry_equiv_pos_as_xyz
  1  'x, y, z'
loop_
 _atom_site_type_symbol
 _atom_site_label
 _atom_site_symmetry_multiplicity
 _atom_site_fract_x
 _atom_site_fract_y
 _atom_site_fract_z
 _atom_site_occupancy
  Na  Na0  1  0.22179900  0.56494400  0.93545100  1
  Na  Na1  1  0.27820100  0.56494400  0.43545100  1
  Na  Na2  1  0.77820100  0.43505600  0.06454900  1
  Na  Na3  1  0.72179900  0.43505600  0.56454900  1
  Sm  Sm0  1  0.21841800  0.96410200  0.02302400  1
  Sm  Sm1  1  0.28158200  0.96410200  0.52302400  1
  Sm  Sm2  1  0.78158200  0.03589800  0.97697600  1
  Sm  Sm3  1  0.71841800  0.03589800  0.47697600  1
  P  P0  1  0.10095400  0.49383200  0.75649200  1
  P  P1  1  0.39904600  0.49383200  0.25649200  1
  P  P2  1  0.89904600  0.50616800  0.24350800  1
  P  P3  1  0.60095400  0.50616800  0.74350800  1
  P  P4  1  0.11489500  0.38569400  0.23621800  1
  P  P5  1  0.38510500  0.38569400  0.73621800  1
  P  P6  1  0.88510500  0.61430600  0.76378200  1
  P  P7  1  0.61489500  0.61430600  0.26378200  1
  P  P8  1  0.09057800  0.92970800  0.30164200  1
  P  P9  1  0.40942200  0.92970800  0.80164200  1
  P  P10  1  0.90942200  0.07029200  0.69835800  1
  P  P11  1  0.59057800  0.07029200  0.19835800  1
  P  P12  1  0.12776800  0.15806800  0.69595600  1
  P  P13  1  0.37223200  0.15806800  0.19595600  1
  P  P14  1  0.87223200  0.84193200  0.30404400  1
  P  P15  1  0.62776800  0.84193200  0.80404400  1
  O  O0  1  0.16105300  0.84468900  0.41756900  1
  O  O1  1  0.33894700  0.84468900  0.91756900  1
  O  O2  1  0.83894700  0.15531100  0.58243100  1
  O  O3  1  0.66105300  0.15531100  0.08243100  1
  O  O4  1  0.20930600  0.17688900  0.60471900  1
  O  O5  1  0.29069400  0.17688900  0.10471900  1
  O  O6  1  0.79069400  0.82311100  0.39528100  1
  O  O7  1  0.70930600  0.82311100  0.89528100  1
  O  O8  1  0.97839900  0.85151500  0.36484200  1
  O  O9  1  0.52160100  0.85151500  0.86484200  1
  O  O10  1  0.02160100  0.14848500  0.63515800  1
  O  O11  1  0.47839900  0.14848500  0.13515800  1
  O  O12  1  0.14581300  0.59460100  0.10255100  1
  O  O13  1  0.35418700  0.59460100  0.60255100  1
  O  O14  1  0.85418700  0.40539900  0.89744900  1
  O  O15  1  0.64581300  0.40539900  0.39744900  1
  O  O16  1  0.16522800  0.70143600  0.70363900  1
  O  O17  1  0.33477200  0.70143600  0.20363900  1
  O  O18  1  0.83477200  0.29856400  0.29636100  1
  O  O19  1  0.66522800  0.29856400  0.79636100  1
  O  O20  1  0.08035300  0.20246600  0.20993100  1
  O  O21  1  0.41964700  0.20246600  0.70993100  1
  O  O22  1  0.91964700  0.79753400  0.79006900  1
  O  O23  1  0.58035300  0.79753400  0.29006900  1
  O  O24  1  0.98651600  0.57443900  0.70997200  1
  O  O25  1  0.51348400  0.57443900  0.20997200  1
  O  O26  1  0.01348400  0.42556100  0.29002800  1
  O  O27  1  0.48651600  0.42556100  0.79002800  1
  O  O28  1  0.13361500  0.97757600  0.84381400  1
  O  O29  1  0.36638500  0.97757600  0.34381400  1
  O  O30  1  0.86638500  0.02242400  0.15618600  1
  O  O31  1  0.63361500  0.02242400  0.65618600  1
  O  O32  1  0.18909100  0.28295400  0.34929400  1
  O  O33  1  0.31090900  0.28295400  0.84929400  1
  O  O34  1  0.81090900  0.71704600  0.65070600  1
  O  O35  1  0.68909100  0.71704600  0.15070600  1
  O  O36  1  0.10838100  0.30858700  0.90439200  1
  O  O37  1  0.39161900  0.30858700  0.40439200  1
  O  O38  1  0.89161900  0.69141300  0.09560800  1
  O  O39  1  0.60838100  0.69141300  0.59560800  1
  O  O40  1  0.12369500  0.40504900  0.66635200  1
  O  O41  1  0.37630500  0.40504900  0.16635200  1
  O  O42  1  0.87630500  0.59495100  0.33364800  1
  O  O43  1  0.62369500  0.59495100  0.83364800  1
  O  O44  1  0.11126500  0.86355200  0.20877900  1
  O  O45  1  0.38873500  0.86355200  0.70877900  1
  O  O46  1  0.88873500  0.13644800  0.79122100  1
  O  O47  1  0.61126500  0.13644800  0.29122100  1
loop_
_geom_bond_atom_site_label_1
_geom_bond_atom_site_label_2
_geom_bond_distance
_geom_bond_site_symmetry_2
Na0 O12 2.410475 1_556
Na0 O1 2.466663 1_555
Na0 O5 2.503796 1_556
Na0 O16 2.523904 1_555
Na0 O36 2.593574 1_555
Na0 O28 2.775231 1_555
Na1 O13 2.410475 1_555
Na1 O0 2.466663 1_555
Na1 O4 2.503796 1_555
Na1 O17 2.523904 1_555
Na1 O37 2.593574 1_555
Na1 O29 2.775231 1_555
Na2 O14 2.410475 1_554
Na2 O3 2.466663 1_555
Na2 O7 2.503796 1_554
Na2 O18 2.523904 1_555
Na2 O38 2.593574 1_555
Na2 O30 2.775231 1_555
Na3 O15 2.410475 1_555
Na3 O2 2.466663 1_555
Na3 O6 2.503796 1_555
Na3 O19 2.523904 1_555
Na3 O39 2.593574 1_555
Na3 O31 2.775231 1_555
O0 P8 1.502288 1_555
O0 Sm1 2.512590 1_555
O1 P9 1.502288 1_555
O1 Sm0 2.512590 1_556
O2 P10 1.502288 1_555
O2 Sm3 2.512590 1_555
O3 P11 1.502288 1_555
O3 Sm2 2.512590 1_554
O4 P12 1.505570 1_555
O4 Sm1 2.480879 1_545
O5 P13 1.505570 1_555
O5 Sm0 2.480879 1_545
O6 P14 1.505570 1_555
O6 Sm3 2.480879 1_565
O7 P15 1.505570 1_555
O7 Sm2 2.480879 1_565
O8 P14 1.613902 1_555
O8 P8 1.618623 1_655
O9 P15 1.613902 1_555
O9 P9 1.618623 1_555
O10 P12 1.613902 1_555
O10 P10 1.618623 1_455
O11 P13 1.613902 1_555
O11 P11 1.618623 1_555
O12 P4 1.503045 1_555
O12 Sm0 2.458229 1_555
O13 P5 1.503045 1_555
O13 Sm1 2.458229 1_555
O14 P6 1.503045 1_555
O14 Sm2 2.458229 1_555
O15 P7 1.503045 1_555
O15 Sm3 2.458229 1_555
O16 P0 1.511085 1_555
O16 Sm1 2.449439 1_555
O17 P1 1.511085 1_555
O17 Sm0 2.449439 1_555
O18 P2 1.511085 1_555
O18 Sm3 2.449439 1_555
O19 P3 1.511085 1_555
O19 Sm2 2.449439 1_555
O20 P4 1.612697 1_555
O20 P8 1.616836 1_545
O21 P5 1.612697 1_555
O21 P9 1.616836 1_545
O22 P6 1.612697 1_555
O22 P10 1.616836 1_565
O23 P7 1.612697 1_555
O23 P11 1.616836 1_565
O24 P6 1.597966 1_555
O24 P0 1.605614 1_655
O25 P7 1.597966 1_555
O25 P1 1.605614 1_555
O26 P4 1.597966 1_555
O26 P2 1.605614 1_455
O27 P5 1.597966 1_555
O27 P3 1.605614 1_555
O28 P12 1.498446 1_565
O28 Sm0 2.425698 1_556
O29 P13 1.498446 1_565
O29 Sm1 2.425698 1_555
O30 P14 1.498446 1_545
O30 Sm2 2.425698 1_554
O31 P15 1.498446 1_545
O31 Sm3 2.425698 1_555
O32 P4 1.498039 1_555
O32 Sm1 2.377824 1_545
O33 P5 1.498039 1_555
O33 Sm0 2.377824 1_546
O34 P6 1.498039 1_555
O34 Sm3 2.377824 1_565
O35 P7 1.498039 1_555
O35 Sm2 2.377824 1_564
O36 P0 1.506172 1_555
O36 Sm0 2.502864 1_546
O37 P1 1.506172 1_555
O37 Sm1 2.502864 1_545
O38 P2 1.506172 1_555
O38 Sm2 2.502864 1_564
O39 P3 1.506172 1_555
O39 Sm3 2.502864 1_565
O40 P0 1.606180 1_555
O40 P12 1.613862 1_555
O41 P1 1.606180 1_555
O41 P13 1.613862 1_555
O42 P2 1.606180 1_555
O42 P14 1.613862 1_555
O43 P3 1.606180 1_555
O43 P15 1.613862 1_555
O44 P8 1.502829 1_555
O44 Sm0 2.412243 1_555
O45 P9 1.502829 1_555
O45 Sm1 2.412243 1_555
O46 P10 1.502829 1_555
O46 Sm2 2.412243 1_555
O47 P11 1.502829 1_555
O47 Sm3 2.412243 1_555
