# generated using pymatgen
data_Te3(Rh2N)2
_symmetry_space_group_name_H-M   'P 1'
_cell_length_a   6.65487700
_cell_length_b   10.33276200
_cell_length_c   9.46768500
_cell_angle_alpha   90.00000000
_cell_angle_beta   90.00000000
_cell_angle_gamma   90.00000000
_symmetry_Int_Tables_number   1
_chemical_formula_structural   Te3(Rh2N)2
_chemical_formula_sum   'Te12 Rh16 N8'
_cell_volume   651.02888696
_cell_formula_units_Z   4
loop_
 _symmetry_equiv_pos_site_id
 _symmetry_equiv_pos_as_xyz
  1  'x, y, z'
loop_
 _atom_site_type_symbol
 _atom_site_label
 _atom_site_symmetry_multiplicity
 _atom_site_fract_x
 _atom_site_fract_y
 _atom_site_fract_z
 _atom_site_occupancy
  Te  Te0  1  0.88260500  0.25000000  0.16222500  1
  Te  Te1  1  0.38260500  0.25000000  0.33777500  1
  Te  Te2  1  0.11739500  0.75000000  0.83777500  1
  Te  Te3  1  0.61739500  0.75000000  0.66222500  1
  Te  Te4  1  0.55807300  0.57963400  0.31672300  1
  Te  Te5  1  0.05807300  0.92036600  0.18327700  1
  Te  Te6  1  0.44192700  0.07963400  0.68327700  1
  Te  Te7  1  0.94192700  0.42036600  0.81672300  1
  Te  Te8  1  0.44192700  0.42036600  0.68327700  1
  Te  Te9  1  0.94192700  0.07963400  0.81672300  1
  Te  Te10  1  0.55807300  0.92036600  0.31672300  1
  Te  Te11  1  0.05807300  0.57963400  0.18327700  1
  Rh  Rh0  1  0.62921400  0.25000000  0.89483200  1
  Rh  Rh1  1  0.12921400  0.25000000  0.60516800  1
  Rh  Rh2  1  0.37078600  0.75000000  0.10516800  1
  Rh  Rh3  1  0.87078600  0.75000000  0.39483200  1
  Rh  Rh4  1  0.77504000  0.25000000  0.42318000  1
  Rh  Rh5  1  0.27504000  0.25000000  0.07682000  1
  Rh  Rh6  1  0.22496000  0.75000000  0.57682000  1
  Rh  Rh7  1  0.72496000  0.75000000  0.92318000  1
  Rh  Rh8  1  0.70611300  0.46891100  0.07481500  1
  Rh  Rh9  1  0.20611300  0.03108900  0.42518500  1
  Rh  Rh10  1  0.29388700  0.96891100  0.92518500  1
  Rh  Rh11  1  0.79388700  0.53108900  0.57481500  1
  Rh  Rh12  1  0.29388700  0.53108900  0.92518500  1
  Rh  Rh13  1  0.79388700  0.96891100  0.57481500  1
  Rh  Rh14  1  0.70611300  0.03108900  0.07481500  1
  Rh  Rh15  1  0.20611300  0.46891100  0.42518500  1
  N  N0  1  0.54387300  0.61926500  0.99542700  1
  N  N1  1  0.04387300  0.88073500  0.50457300  1
  N  N2  1  0.45612700  0.11926500  0.00457300  1
  N  N3  1  0.95612700  0.38073500  0.49542700  1
  N  N4  1  0.45612700  0.38073500  0.00457300  1
  N  N5  1  0.95612700  0.11926500  0.49542700  1
  N  N6  1  0.54387300  0.88073500  0.99542700  1
  N  N7  1  0.04387300  0.61926500  0.50457300  1
loop_
_geom_bond_atom_site_label_1
_geom_bond_atom_site_label_2
_geom_bond_distance
_geom_bond_site_symmetry_2
Rh0 Te7 2.824279 1_555
Rh0 Te9 2.824279 1_555
Rh0 Te8 2.943473 1_555
Rh0 Te6 2.943473 1_555
Rh0 Te0 3.041796 1_556
Rh1 Te8 2.824279 1_555
Rh1 Te6 2.824279 1_555
Rh1 Te7 2.943473 1_455
Rh1 Te9 2.943473 1_455
Rh1 Te1 3.041796 1_555
Rh2 Te5 2.824279 1_555
Rh2 Te11 2.824279 1_555
Rh2 Te10 2.943473 1_555
Rh2 Te4 2.943473 1_555
Rh2 Te2 3.041796 1_554
Rh3 Te10 2.824279 1_555
Rh3 Te4 2.824279 1_555
Rh3 Te5 2.943473 1_655
Rh3 Te11 2.943473 1_655
Rh3 Te3 3.041796 1_555
Rh4 Te0 2.572251 1_555
Rh4 Te1 2.733917 1_555
Rh5 Te1 2.572251 1_555
Rh5 Te0 2.733917 1_455
Rh6 Te2 2.572251 1_555
Rh6 Te3 2.733917 1_555
Rh7 Te3 2.572251 1_555
Rh7 Te2 2.733917 1_655
Rh8 Te0 2.679709 1_555
Rh8 Te4 2.743176 1_555
Rh8 Te11 2.801702 1_655
Rh8 Te7 2.947068 1_554
Rh9 Te1 2.679709 1_555
Rh9 Te5 2.743176 1_545
Rh9 Te10 2.801702 1_545
Rh9 Te6 2.947068 1_555
Rh10 Te2 2.679709 1_555
Rh10 Te6 2.743176 1_565
Rh10 Te9 2.801702 1_465
Rh10 Te5 2.947068 1_556
Rh11 Te3 2.679709 1_555
Rh11 Te7 2.743176 1_555
Rh11 Te8 2.801702 1_555
Rh11 Te4 2.947068 1_555
Rh12 Te2 2.679709 1_555
Rh12 Te8 2.743176 1_555
Rh12 Te7 2.801702 1_455
Rh12 Te11 2.947068 1_556
Rh13 Te3 2.679709 1_555
Rh13 Te9 2.743176 1_565
Rh13 Te6 2.801702 1_565
Rh13 Te10 2.947068 1_555
Rh14 Te0 2.679709 1_555
Rh14 Te10 2.743176 1_545
Rh14 Te5 2.801702 1_645
Rh14 Te9 2.947068 1_554
Rh15 Te1 2.679709 1_555
Rh15 Te11 2.743176 1_555
Rh15 Te4 2.801702 1_555
Rh15 Te8 2.947068 1_555
N0 Rh7 1.935193 1_555
N0 Rh12 2.009981 1_555
N0 Rh8 2.035742 1_556
N0 Rh2 2.056969 1_556
N1 Rh6 1.935193 1_555
N1 Rh13 2.009981 1_455
N1 Rh9 2.035742 1_565
N1 Rh3 2.056969 1_455
N2 Rh5 1.935193 1_555
N2 Rh14 2.009981 1_555
N2 Rh10 2.035742 1_544
N2 Rh0 2.056969 1_554
N3 Rh4 1.935193 1_555
N3 Rh15 2.009981 1_655
N3 Rh11 2.035742 1_555
N3 Rh1 2.056969 1_655
N4 Rh5 1.935193 1_555
N4 Rh8 2.009981 1_555
N4 Rh12 2.035742 1_554
N4 Rh0 2.056969 1_554
N5 Rh4 1.935193 1_555
N5 Rh9 2.009981 1_655
N5 Rh13 2.035742 1_545
N5 Rh1 2.056969 1_655
N6 Rh7 1.935193 1_555
N6 Rh10 2.009981 1_555
N6 Rh14 2.035742 1_566
N6 Rh2 2.056969 1_556
N7 Rh6 1.935193 1_555
N7 Rh11 2.009981 1_455
N7 Rh15 2.035742 1_555
N7 Rh3 2.056969 1_455
