# generated using pymatgen
data_Hf3Pt
_symmetry_space_group_name_H-M   'P 1'
_cell_length_a   4.30535500
_cell_length_b   4.30535500
_cell_length_c   4.30535500
_cell_angle_alpha   90.00000000
_cell_angle_beta   90.00000000
_cell_angle_gamma   90.00000000
_symmetry_Int_Tables_number   1
_chemical_formula_structural   Hf3Pt
_chemical_formula_sum   'Hf3 Pt1'
_cell_volume   79.80441192
_cell_formula_units_Z   1
loop_
 _symmetry_equiv_pos_site_id
 _symmetry_equiv_pos_as_xyz
  1  'x, y, z'
loop_
 _atom_site_type_symbol
 _atom_site_label
 _atom_site_symmetry_multiplicity
 _atom_site_fract_x
 _atom_site_fract_y
 _atom_site_fract_z
 _atom_site_occupancy
  Hf  Hf0  1  0.00000000  0.50000000  0.50000000  1
  Hf  Hf1  1  0.50000000  0.00000000  0.50000000  1
  Hf  Hf2  1  0.50000000  0.50000000  0.00000000  1
  Pt  Pt0  1  0.00000000  0.00000000  0.00000000  1
loop_
_geom_bond_atom_site_label_1
_geom_bond_atom_site_label_2
_geom_bond_distance
_geom_bond_site_symmetry_2
Hf0 Pt0 3.044346 1_556
Hf0 Pt0 3.044346 1_565
Hf0 Pt0 3.044346 1_555
Hf0 Pt0 3.044346 1_566
Hf1 Pt0 3.044346 1_556
Hf1 Pt0 3.044346 1_655
Hf1 Pt0 3.044346 1_555
Hf1 Pt0 3.044346 1_656
Hf2 Pt0 3.044346 1_565
Hf2 Pt0 3.044346 1_655
Hf2 Pt0 3.044346 1_665
Hf2 Pt0 3.044346 1_555
