# generated using pymatgen
data_LiSNO4
_symmetry_space_group_name_H-M   'P 1'
_cell_length_a   5.44414300
_cell_length_b   8.84701200
_cell_length_c   9.23071471
_cell_angle_alpha   89.74459646
_cell_angle_beta   90.00000000
_cell_angle_gamma   90.00000000
_symmetry_Int_Tables_number   1
_chemical_formula_structural   LiSNO4
_chemical_formula_sum   'Li4 S4 N4 O16'
_cell_volume   444.58740412
_cell_formula_units_Z   4
loop_
 _symmetry_equiv_pos_site_id
 _symmetry_equiv_pos_as_xyz
  1  'x, y, z'
loop_
 _atom_site_type_symbol
 _atom_site_label
 _atom_site_symmetry_multiplicity
 _atom_site_fract_x
 _atom_site_fract_y
 _atom_site_fract_z
 _atom_site_occupancy
  Li  Li0  1  0.22068800  0.68077900  0.41633300  1
  Li  Li1  1  0.72068800  0.31922100  0.58366700  1
  Li  Li2  1  0.25749100  0.17768500  0.08800000  1
  Li  Li3  1  0.75749100  0.82231500  0.91200000  1
  S  S0  1  0.25238900  0.79780600  0.08979400  1
  S  S1  1  0.75238900  0.20219400  0.91020600  1
  S  S2  1  0.22830300  0.29781000  0.42406500  1
  S  S3  1  0.72830300  0.70219000  0.57593500  1
  N  N0  1  0.71988300  0.49573200  0.21708100  1
  N  N1  1  0.21988300  0.50426800  0.78291900  1
  N  N2  1  0.76038100  0.00420200  0.29621500  1
  N  N3  1  0.26038100  0.99579800  0.70378500  1
  O  O0  1  0.23500600  0.96081300  0.12983400  1
  O  O1  1  0.73500600  0.03918700  0.87016600  1
  O  O2  1  0.16251500  0.70197000  0.20932300  1
  O  O3  1  0.66251500  0.29803000  0.79067700  1
  O  O4  1  0.09980000  0.77568700  0.95825300  1
  O  O5  1  0.59980000  0.22431300  0.04174700  1
  O  O6  1  0.51381800  0.76301600  0.05963200  1
  O  O7  1  0.01381800  0.23698400  0.94036800  1
  O  O8  1  0.23850600  0.46318000  0.44292500  1
  O  O9  1  0.73850600  0.53682000  0.55707500  1
  O  O10  1  0.15568200  0.26792600  0.27144300  1
  O  O11  1  0.65568200  0.73207400  0.72855700  1
  O  O12  1  0.03145400  0.22943700  0.51535400  1
  O  O13  1  0.53145400  0.77056300  0.48464600  1
  O  O14  1  0.46688300  0.22789700  0.46037400  1
  O  O15  1  0.96688300  0.77210300  0.53962600  1
loop_
_geom_bond_atom_site_label_1
_geom_bond_atom_site_label_2
_geom_bond_distance
_geom_bond_site_symmetry_2
Li0 O8 1.942025 1_555
Li0 O2 1.945149 1_555
Li0 O15 1.966072 1_455
Li0 O13 1.973679 1_555
Li1 O9 1.942025 1_555
Li1 O3 1.945149 1_555
Li1 O14 1.966072 1_555
Li1 O12 1.973679 1_655
Li2 O5 1.955457 1_555
Li2 O10 1.955490 1_555
Li2 O0 1.959283 1_545
Li2 O7 1.971238 1_554
Li3 O4 1.955457 1_655
Li3 O11 1.955490 1_555
Li3 O1 1.959283 1_565
Li3 O6 1.971238 1_556
O0 S0 1.493330 1_555
O1 S1 1.493330 1_555
O2 S0 1.472171 1_555
O3 S1 1.472171 1_555
O4 S0 1.484865 1_556
O5 S1 1.484865 1_554
O6 S0 1.482792 1_555
O7 S1 1.482792 1_455
O8 S2 1.475168 1_555
O9 S3 1.475168 1_555
O10 S2 1.488044 1_555
O11 S3 1.488044 1_555
O12 S2 1.489940 1_555
O13 S3 1.489940 1_555
O14 S2 1.476515 1_555
O15 S3 1.476515 1_555
