# generated using pymatgen
data_La4Fe(SbS5)2
_symmetry_space_group_name_H-M   'P 1'
_cell_length_a   7.62941200
_cell_length_b   13.25925600
_cell_length_c   15.10702500
_cell_angle_alpha   90.00000000
_cell_angle_beta   90.00000000
_cell_angle_gamma   90.00000000
_symmetry_Int_Tables_number   1
_chemical_formula_structural   La4Fe(SbS5)2
_chemical_formula_sum   'La16 Fe4 Sb8 S40'
_cell_volume   1528.23158654
_cell_formula_units_Z   4
loop_
 _symmetry_equiv_pos_site_id
 _symmetry_equiv_pos_as_xyz
  1  'x, y, z'
loop_
 _atom_site_type_symbol
 _atom_site_label
 _atom_site_symmetry_multiplicity
 _atom_site_fract_x
 _atom_site_fract_y
 _atom_site_fract_z
 _atom_site_occupancy
  La  La0  1  0.12268400  0.75000000  0.06237800  1
  La  La1  1  0.87731600  0.25000000  0.93762200  1
  La  La2  1  0.37731600  0.25000000  0.06237800  1
  La  La3  1  0.62268400  0.75000000  0.93762200  1
  La  La4  1  0.88040000  0.75000000  0.30969000  1
  La  La5  1  0.11960000  0.25000000  0.69031000  1
  La  La6  1  0.61960000  0.25000000  0.30969000  1
  La  La7  1  0.38040000  0.75000000  0.69031000  1
  La  La8  1  0.25000000  0.50000000  0.37701900  1
  La  La9  1  0.75000000  0.00000000  0.62298100  1
  La  La10  1  0.75000000  0.50000000  0.62298100  1
  La  La11  1  0.25000000  0.00000000  0.37701900  1
  La  La12  1  0.25000000  0.50000000  0.87393000  1
  La  La13  1  0.75000000  0.00000000  0.12607000  1
  La  La14  1  0.75000000  0.50000000  0.12607000  1
  La  La15  1  0.25000000  0.00000000  0.87393000  1
  Fe  Fe0  1  0.25000000  0.50000000  0.12418700  1
  Fe  Fe1  1  0.75000000  0.00000000  0.87581300  1
  Fe  Fe2  1  0.75000000  0.50000000  0.87581300  1
  Fe  Fe3  1  0.25000000  0.00000000  0.12418700  1
  Sb  Sb0  1  0.44893400  0.75000000  0.21535800  1
  Sb  Sb1  1  0.55106600  0.25000000  0.78464200  1
  Sb  Sb2  1  0.05106600  0.25000000  0.21535800  1
  Sb  Sb3  1  0.94893400  0.75000000  0.78464200  1
  Sb  Sb4  1  0.04881200  0.75000000  0.53628600  1
  Sb  Sb5  1  0.95118800  0.25000000  0.46371400  1
  Sb  Sb6  1  0.45118800  0.25000000  0.53628600  1
  Sb  Sb7  1  0.54881200  0.75000000  0.46371400  1
  S  S0  1  0.42123200  0.60367500  0.54427600  1
  S  S1  1  0.57876800  0.10367500  0.45572400  1
  S  S2  1  0.07876800  0.39632500  0.54427600  1
  S  S3  1  0.92123200  0.89632500  0.45572400  1
  S  S4  1  0.57876800  0.39632500  0.45572400  1
  S  S5  1  0.42123200  0.89632500  0.54427600  1
  S  S6  1  0.92123200  0.60367500  0.45572400  1
  S  S7  1  0.07876800  0.10367500  0.54427600  1
  S  S8  1  0.25960400  0.75000000  0.37479100  1
  S  S9  1  0.74039600  0.25000000  0.62520900  1
  S  S10  1  0.24039600  0.25000000  0.37479100  1
  S  S11  1  0.75960400  0.75000000  0.62520900  1
  S  S12  1  0.41145300  0.60392200  0.03725700  1
  S  S13  1  0.58854700  0.10392200  0.96274300  1
  S  S14  1  0.08854700  0.39607800  0.03725700  1
  S  S15  1  0.91145300  0.89607800  0.96274300  1
  S  S16  1  0.58854700  0.39607800  0.96274300  1
  S  S17  1  0.41145300  0.89607800  0.03725700  1
  S  S18  1  0.91145300  0.60392200  0.96274300  1
  S  S19  1  0.08854700  0.10392200  0.03725700  1
  S  S20  1  0.08588900  0.60412300  0.70743000  1
  S  S21  1  0.91411100  0.10412300  0.29257000  1
  S  S22  1  0.41411100  0.39587700  0.70743000  1
  S  S23  1  0.58588900  0.89587700  0.29257000  1
  S  S24  1  0.91411100  0.39587700  0.29257000  1
  S  S25  1  0.08588900  0.89587700  0.70743000  1
  S  S26  1  0.58588900  0.60412300  0.29257000  1
  S  S27  1  0.41411100  0.10412300  0.70743000  1
  S  S28  1  0.07881600  0.60134800  0.20863700  1
  S  S29  1  0.92118400  0.10134800  0.79136300  1
  S  S30  1  0.42118400  0.39865200  0.20863700  1
  S  S31  1  0.57881600  0.89865200  0.79136300  1
  S  S32  1  0.92118400  0.39865200  0.79136300  1
  S  S33  1  0.07881600  0.89865200  0.20863700  1
  S  S34  1  0.57881600  0.60134800  0.79136300  1
  S  S35  1  0.42118400  0.10134800  0.20863700  1
  S  S36  1  0.74056000  0.75000000  0.12652500  1
  S  S37  1  0.25944000  0.25000000  0.87347500  1
  S  S38  1  0.75944000  0.25000000  0.12652500  1
  S  S39  1  0.24056000  0.75000000  0.87347500  1
loop_
_geom_bond_atom_site_label_1
_geom_bond_atom_site_label_2
_geom_bond_distance
_geom_bond_site_symmetry_2
La0 S15 2.935008 1_454
La0 S18 2.935008 1_454
La0 S17 2.957932 1_555
La0 S12 2.957932 1_555
La0 S33 2.979761 1_555
La0 S28 2.979761 1_555
La0 S39 2.992114 1_554
La0 S36 3.072222 1_455
La0 Sb0 3.396565 1_555
La1 S14 2.935008 1_656
La1 S19 2.935008 1_656
La1 S16 2.957932 1_555
La1 S13 2.957932 1_555
La1 S32 2.979761 1_555
La1 S29 2.979761 1_555
La1 S38 2.992114 1_556
La1 S37 3.072222 1_655
La1 Sb1 3.396565 1_555
La2 S16 2.935008 1_554
La2 S13 2.935008 1_554
La2 S19 2.957932 1_555
La2 S14 2.957932 1_555
La2 S35 2.979761 1_555
La2 S30 2.979761 1_555
La2 S37 2.992114 1_554
La2 S38 3.072222 1_555
La2 Sb2 3.396565 1_555
La3 S17 2.935008 1_556
La3 S12 2.935008 1_556
La3 S15 2.957932 1_555
La3 S18 2.957932 1_555
La3 S31 2.979761 1_555
La3 S34 2.979761 1_555
La3 S36 2.992114 1_556
La3 S39 3.072222 1_555
La3 Sb3 3.396565 1_555
La4 S33 2.916680 1_655
La4 S28 2.916680 1_655
La4 S3 2.954373 1_555
La4 S6 2.954373 1_555
La4 S36 2.965635 1_555
La4 S23 2.976049 1_555
La4 S26 2.976049 1_555
La4 S8 3.055697 1_655
La5 S32 2.916680 1_455
La5 S29 2.916680 1_455
La5 S2 2.954373 1_555
La5 S7 2.954373 1_555
La5 S37 2.965635 1_555
La5 S22 2.976049 1_555
La5 S27 2.976049 1_555
La5 S9 3.055697 1_455
La6 S35 2.916680 1_555
La6 S30 2.916680 1_555
La6 S4 2.954373 1_555
La6 S1 2.954373 1_555
La6 S38 2.965635 1_555
La6 S24 2.976049 1_555
La6 S21 2.976049 1_555
La6 S10 3.055697 1_555
La7 S31 2.916680 1_555
La7 S34 2.916680 1_555
La7 S5 2.954373 1_555
La7 S0 2.954373 1_555
La7 S39 2.965635 1_555
La7 S25 2.976049 1_555
La7 S20 2.976049 1_555
La7 S11 3.055697 1_555
La8 S4 3.097578 1_555
La8 S6 3.097578 1_455
La8 S0 3.159248 1_555
La8 S2 3.159248 1_555
La8 S28 3.159460 1_555
La8 S30 3.159460 1_555
La8 S26 3.178166 1_555
La8 S24 3.178166 1_455
La8 S10 3.315795 1_555
La8 S8 3.315795 1_555
La9 S7 3.097578 1_655
La9 S5 3.097578 1_545
La9 S1 3.159248 1_555
La9 S3 3.159248 1_545
La9 S31 3.159460 1_545
La9 S29 3.159460 1_555
La9 S27 3.178166 1_555
La9 S25 3.178166 1_645
La9 S11 3.315795 1_545
La9 S9 3.315795 1_555
La10 S2 3.097578 1_655
La10 S0 3.097578 1_555
La10 S6 3.159248 1_555
La10 S4 3.159248 1_555
La10 S32 3.159460 1_555
La10 S34 3.159460 1_555
La10 S20 3.178166 1_655
La10 S22 3.178166 1_555
La10 S11 3.315795 1_555
La10 S9 3.315795 1_555
La11 S1 3.097578 1_555
La11 S3 3.097578 1_445
La11 S7 3.159248 1_555
La11 S5 3.159248 1_545
La11 S33 3.159460 1_545
La11 S35 3.159460 1_555
La11 S21 3.178166 1_455
La11 S23 3.178166 1_545
La11 S8 3.315795 1_545
La11 S10 3.315795 1_555
La12 S12 3.082854 1_556
La12 S14 3.082854 1_556
La12 S32 3.107265 1_455
La12 S34 3.107265 1_555
La12 S20 3.130583 1_555
La12 S22 3.130583 1_555
La12 S16 3.220294 1_555
La12 S18 3.220294 1_455
La12 S39 3.315603 1_555
La12 S37 3.315603 1_555
La13 S13 3.082854 1_554
La13 S15 3.082854 1_544
La13 S33 3.107265 1_645
La13 S35 3.107265 1_555
La13 S21 3.130583 1_555
La13 S23 3.130583 1_545
La13 S19 3.220294 1_655
La13 S17 3.220294 1_545
La13 S38 3.315603 1_555
La13 S36 3.315603 1_545
La14 S18 3.082854 1_554
La14 S16 3.082854 1_554
La14 S28 3.107265 1_655
La14 S30 3.107265 1_555
La14 S26 3.130583 1_555
La14 S24 3.130583 1_555
La14 S14 3.220294 1_655
La14 S12 3.220294 1_555
La14 S38 3.315603 1_555
La14 S36 3.315603 1_555
La15 S19 3.082854 1_556
La15 S17 3.082854 1_546
La15 S29 3.107265 1_455
La15 S31 3.107265 1_545
La15 S27 3.130583 1_555
La15 S25 3.130583 1_545
La15 S13 3.220294 1_555
La15 S15 3.220294 1_445
La15 S37 3.315603 1_555
La15 S39 3.315603 1_545
Fe0 S28 2.266970 1_555
Fe0 S30 2.266970 1_555
Fe0 S12 2.267296 1_555
Fe0 S14 2.267296 1_555
Fe1 S31 2.266970 1_545
Fe1 S29 2.266970 1_555
Fe1 S13 2.267296 1_555
Fe1 S15 2.267296 1_545
Fe2 S34 2.266970 1_555
Fe2 S32 2.266970 1_555
Fe2 S18 2.267296 1_555
Fe2 S16 2.267296 1_555
Fe3 S35 2.266970 1_555
Fe3 S33 2.266970 1_545
Fe3 S19 2.267296 1_555
Fe3 S17 2.267296 1_545
S0 Sb7 2.488548 1_555
S1 Sb6 2.488548 1_555
S2 Sb5 2.488548 1_455
S3 Sb4 2.488548 1_655
S4 Sb6 2.488548 1_555
S5 Sb7 2.488548 1_555
S6 Sb4 2.488548 1_655
S7 Sb5 2.488548 1_455
S8 Sb7 2.583255 1_555
S8 Sb0 2.808499 1_555
S8 Sb4 2.922079 1_555
S9 Sb6 2.583255 1_555
S9 Sb1 2.808499 1_555
S9 Sb5 2.922079 1_555
S10 Sb5 2.583255 1_455
S10 Sb2 2.808499 1_555
S10 Sb6 2.922079 1_555
S11 Sb4 2.583255 1_655
S11 Sb3 2.808499 1_555
S11 Sb7 2.922079 1_555
S20 Sb3 2.488692 1_455
S21 Sb2 2.488692 1_655
S22 Sb1 2.488692 1_555
S23 Sb0 2.488692 1_555
S24 Sb2 2.488692 1_655
S25 Sb3 2.488692 1_455
S26 Sb0 2.488692 1_555
S27 Sb1 2.488692 1_555
S36 Sb0 2.598327 1_555
S37 Sb1 2.598327 1_555
S38 Sb2 2.598327 1_655
S39 Sb3 2.598327 1_455
