# generated using pymatgen
data_Ga3Hg
_symmetry_space_group_name_H-M   'P 1'
_cell_length_a   6.13476942
_cell_length_b   6.13476942
_cell_length_c   5.14106500
_cell_angle_alpha   90.00000000
_cell_angle_beta   90.00000000
_cell_angle_gamma   119.99999378
_symmetry_Int_Tables_number   1
_chemical_formula_structural   Ga3Hg
_chemical_formula_sum   'Ga6 Hg2'
_cell_volume   167.56381606
_cell_formula_units_Z   2
loop_
 _symmetry_equiv_pos_site_id
 _symmetry_equiv_pos_as_xyz
  1  'x, y, z'
loop_
 _atom_site_type_symbol
 _atom_site_label
 _atom_site_symmetry_multiplicity
 _atom_site_fract_x
 _atom_site_fract_y
 _atom_site_fract_z
 _atom_site_occupancy
  Ga  Ga0  1  0.16069000  0.32137900  0.25000000  1
  Ga  Ga1  1  0.67862100  0.83931000  0.25000000  1
  Ga  Ga2  1  0.16069000  0.83931000  0.25000000  1
  Ga  Ga3  1  0.83931000  0.67862100  0.75000000  1
  Ga  Ga4  1  0.32137900  0.16069000  0.75000000  1
  Ga  Ga5  1  0.83931000  0.16069000  0.75000000  1
  Hg  Hg0  1  0.33333300  0.66666700  0.75000000  1
  Hg  Hg1  1  0.66666700  0.33333300  0.25000000  1
loop_
_geom_bond_atom_site_label_1
_geom_bond_atom_site_label_2
_geom_bond_distance
_geom_bond_site_symmetry_2
Ga0 Ga2 2.957382 1_545
Ga0 Ga1 2.957382 1_445
Ga0 Hg1 3.068042 1_455
Ga0 Hg1 3.068042 1_555
Ga0 Ga4 3.085933 1_555
Ga0 Ga4 3.085933 1_554
Ga0 Ga5 3.085939 1_455
Ga0 Ga5 3.085939 1_454
Ga0 Hg0 3.157992 1_555
Ga0 Hg0 3.157992 1_554
Ga0 Ga2 3.177387 1_555
Ga0 Ga1 3.177388 1_555
Ga1 Ga2 2.957382 1_655
Ga1 Hg1 3.068042 1_565
Ga1 Hg1 3.068042 1_555
Ga1 Ga3 3.085933 1_554
Ga1 Ga3 3.085933 1_555
Ga1 Ga5 3.085939 1_565
Ga1 Ga5 3.085939 1_564
Ga1 Hg0 3.157992 1_555
Ga1 Hg0 3.157992 1_554
Ga1 Ga2 3.177387 1_555
Ga2 Hg1 3.068042 1_565
Ga2 Hg1 3.068042 1_455
Ga2 Ga3 3.085939 1_454
Ga2 Ga4 3.085939 1_564
Ga2 Ga4 3.085939 1_565
Ga2 Ga3 3.085939 1_455
Ga2 Hg0 3.157986 1_555
Ga2 Hg0 3.157986 1_554
Ga3 Ga5 2.957382 1_565
Ga3 Ga4 2.957382 1_665
Ga3 Hg0 3.068042 1_655
Ga3 Hg0 3.068042 1_555
Ga3 Hg1 3.157992 1_555
Ga3 Hg1 3.157992 1_556
Ga3 Ga5 3.177387 1_555
Ga3 Ga4 3.177388 1_555
Ga4 Ga5 2.957382 1_455
Ga4 Hg0 3.068042 1_545
Ga4 Hg0 3.068042 1_555
Ga4 Hg1 3.157992 1_556
Ga4 Hg1 3.157992 1_555
Ga4 Ga5 3.177387 1_555
Ga5 Hg0 3.068042 1_655
Ga5 Hg0 3.068042 1_545
Ga5 Hg1 3.157986 1_556
Ga5 Hg1 3.157986 1_555
