# generated using pymatgen
data_Ba3(TaN2)2
_symmetry_space_group_name_H-M   'P 1'
_cell_length_a   9.90199944
_cell_length_b   8.03577534
_cell_length_c   5.99292289
_cell_angle_alpha   89.99999906
_cell_angle_beta   72.29365341
_cell_angle_gamma   113.93909731
_symmetry_Int_Tables_number   1
_chemical_formula_structural   Ba3(TaN2)2
_chemical_formula_sum   'Ba6 Ta4 N8'
_cell_volume   410.99937587
_cell_formula_units_Z   2
loop_
 _symmetry_equiv_pos_site_id
 _symmetry_equiv_pos_as_xyz
  1  'x, y, z'
loop_
 _atom_site_type_symbol
 _atom_site_label
 _atom_site_symmetry_multiplicity
 _atom_site_fract_x
 _atom_site_fract_y
 _atom_site_fract_z
 _atom_site_occupancy
  Ba  Ba0  1  0.26235200  0.95801300  0.11636900  1
  Ba  Ba1  1  0.73764800  0.69566100  0.38363100  1
  Ba  Ba2  1  0.73764800  0.04198700  0.88363100  1
  Ba  Ba3  1  0.26235200  0.30433900  0.61636900  1
  Ba  Ba4  1  0.00000000  0.65868700  0.75000000  1
  Ba  Ba5  1  0.00000000  0.34131300  0.25000000  1
  Ta  Ta0  1  0.59381100  0.19904300  0.45400500  1
  Ta  Ta1  1  0.40618900  0.60523200  0.04599500  1
  Ta  Ta2  1  0.40618900  0.80095700  0.54599500  1
  Ta  Ta3  1  0.59381100  0.39476800  0.95400500  1
  N  N0  1  0.35472700  0.01489100  0.57481900  1
  N  N1  1  0.64527300  0.66016400  0.92518100  1
  N  N2  1  0.64527300  0.98510900  0.42518100  1
  N  N3  1  0.35472700  0.33983600  0.07481900  1
  N  N4  1  0.71452000  0.35689800  0.64357900  1
  N  N5  1  0.28548000  0.64237800  0.85642100  1
  N  N6  1  0.28548000  0.64310200  0.35642100  1
  N  N7  1  0.71452000  0.35762200  0.14357900  1
loop_
_geom_bond_atom_site_label_1
_geom_bond_atom_site_label_2
_geom_bond_distance
_geom_bond_site_symmetry_2
Ba0 N3 2.810103 1_565
Ba0 N5 3.027688 1_554
Ba0 N6 3.032568 1_555
Ba0 N0 3.071418 1_564
Ba0 N0 3.127853 1_565
Ba1 N2 2.810103 1_555
Ba1 N4 3.027688 1_555
Ba1 N7 3.032568 1_555
Ba1 N1 3.071418 1_555
Ba1 N1 3.127853 1_554
Ba2 N1 2.810103 1_545
Ba2 N7 3.027688 1_556
Ba2 N4 3.032568 1_555
Ba2 N2 3.071418 1_546
Ba2 N2 3.127853 1_545
Ba3 N0 2.810103 1_555
Ba3 N6 3.027688 1_555
Ba3 N5 3.032568 1_555
Ba3 N3 3.071418 1_555
Ba3 N3 3.127853 1_556
Ba4 N7 3.130747 1_456
Ba4 N6 3.130747 1_555
Ba4 N4 3.132435 1_455
Ba4 N5 3.132435 1_555
Ba4 N0 3.351235 1_565
Ba4 N1 3.351235 1_455
Ba5 N5 3.130747 1_554
Ba5 N4 3.130747 1_455
Ba5 N6 3.132435 1_555
Ba5 N7 3.132435 1_455
Ba5 N2 3.351235 1_445
Ba5 N3 3.351235 1_555
N0 Ta2 1.975419 1_545
N0 Ta0 2.105468 1_555
N1 Ta3 1.975419 1_555
N1 Ta1 2.105469 1_556
N2 Ta0 1.975419 1_565
N2 Ta2 2.105468 1_555
N3 Ta1 1.975419 1_555
N3 Ta3 2.105469 1_554
N4 Ta0 1.980914 1_555
N4 Ta3 1.981111 1_555
N5 Ta1 1.980914 1_556
N5 Ta2 1.981111 1_555
N6 Ta2 1.980914 1_555
N6 Ta1 1.981111 1_555
N7 Ta3 1.980914 1_554
N7 Ta0 1.981111 1_555
