# generated using pymatgen
data_Li9Mn2Co5O16
_symmetry_space_group_name_H-M   'P 1'
_cell_length_a   5.10450000
_cell_length_b   5.10988333
_cell_length_c   11.44631420
_cell_angle_alpha   80.13953421
_cell_angle_beta   85.11511163
_cell_angle_gamma   81.51361408
_symmetry_Int_Tables_number   1
_chemical_formula_structural   Li9Mn2Co5O16
_chemical_formula_sum   'Li9 Mn2 Co5 O16'
_cell_volume   290.37789274
_cell_formula_units_Z   1
loop_
 _symmetry_equiv_pos_site_id
 _symmetry_equiv_pos_as_xyz
  1  'x, y, z'
loop_
 _atom_site_type_symbol
 _atom_site_label
 _atom_site_symmetry_multiplicity
 _atom_site_fract_x
 _atom_site_fract_y
 _atom_site_fract_z
 _atom_site_occupancy
  Li  Li0  1  0.75247100  0.31209100  0.69211000  1
  Li  Li1  1  0.74736800  0.56398800  0.43570700  1
  Li  Li2  1  0.25263200  0.43601200  0.56429300  1
  Li  Li3  1  0.24752900  0.68790900  0.30789000  1
  Li  Li4  1  0.75576700  0.80831700  0.18273200  1
  Li  Li5  1  0.75790300  0.05895100  0.93920500  1
  Li  Li6  1  0.24423300  0.19168300  0.81726800  1
  Li  Li7  1  0.24209700  0.94104900  0.06079500  1
  Li  Li8  1  0.00000000  0.50000000  0.00000000  1
  Mn  Mn0  1  0.00071900  0.74911700  0.75447000  1
  Mn  Mn1  1  0.99928100  0.25088300  0.24553000  1
  Co  Co0  1  0.00000000  0.00000000  0.50000000  1
  Co  Co1  1  0.49959700  0.12041600  0.37414600  1
  Co  Co2  1  0.50717000  0.38559800  0.11959700  1
  Co  Co3  1  0.49283000  0.61440200  0.88040300  1
  Co  Co4  1  0.50040300  0.87958400  0.62585400  1
  O  O0  1  0.87708600  0.43667900  0.83544500  1
  O  O1  1  0.88078400  0.68080300  0.59925600  1
  O  O2  1  0.35798500  0.56199900  0.71726000  1
  O  O3  1  0.37594900  0.80023100  0.46769300  1
  O  O4  1  0.87117500  0.92880200  0.34537900  1
  O  O5  1  0.87259900  0.16305000  0.10847400  1
  O  O6  1  0.39744500  0.29583000  0.96501200  1
  O  O7  1  0.35185700  0.05966800  0.21983000  1
  O  O8  1  0.62405100  0.19976900  0.53230700  1
  O  O9  1  0.64201500  0.43800100  0.28274000  1
  O  O10  1  0.11921600  0.31919700  0.40074400  1
  O  O11  1  0.12291400  0.56332100  0.16455500  1
  O  O12  1  0.60255500  0.70417000  0.03498800  1
  O  O13  1  0.64814300  0.94033200  0.78017000  1
  O  O14  1  0.12882500  0.07119800  0.65462100  1
  O  O15  1  0.12740100  0.83695000  0.89152600  1
loop_
_geom_bond_atom_site_label_1
_geom_bond_atom_site_label_2
_geom_bond_distance
_geom_bond_site_symmetry_2
Li0 O0 2.038792 1_555
Li0 O13 2.111777 1_545
Li0 O1 2.160595 1_555
Li0 O14 2.175436 1_655
Li0 O8 2.186267 1_555
Li0 O2 2.244244 1_555
Li1 O9 2.101890 1_555
Li1 O4 2.125975 1_555
Li1 O3 2.131534 1_555
Li1 O8 2.145929 1_555
Li1 O10 2.160763 1_655
Li1 O1 2.245981 1_555
Li2 O2 2.101890 1_555
Li2 O14 2.125975 1_555
Li2 O8 2.131534 1_555
Li2 O3 2.145929 1_555
Li2 O1 2.160763 1_455
Li2 O10 2.245981 1_555
Li3 O11 2.038792 1_555
Li3 O7 2.111777 1_565
Li3 O10 2.160595 1_555
Li3 O4 2.175436 1_455
Li3 O3 2.186267 1_555
Li3 O9 2.244244 1_555
Li4 O5 2.017136 1_565
Li4 O12 2.100257 1_555
Li4 O11 2.110244 1_655
Li4 O9 2.167355 1_555
Li4 O4 2.208719 1_555
Li4 O7 2.310173 1_565
Li5 O6 2.076148 1_555
Li5 O15 2.132445 1_645
Li5 O13 2.155657 1_545
Li5 O12 2.170916 1_546
Li5 O0 2.223628 1_555
Li5 O5 2.240033 1_556
Li6 O15 2.017136 1_545
Li6 O6 2.100257 1_555
Li6 O0 2.110244 1_455
Li6 O2 2.167355 1_555
Li6 O14 2.208719 1_555
Li6 O13 2.310173 1_545
Li7 O12 2.076148 1_555
Li7 O5 2.132445 1_465
Li7 O7 2.155657 1_565
Li7 O6 2.170916 1_564
Li7 O11 2.223628 1_555
Li7 O15 2.240033 1_554
Li8 O15 2.095192 1_554
Li8 O5 2.095192 1_455
Li8 O11 2.125091 1_555
Li8 O0 2.125091 1_454
Li8 O6 2.178237 1_554
Li8 O12 2.178237 1_455
Mn0 O0 1.870072 1_455
Mn0 O15 1.892158 1_555
Mn0 O13 1.941521 1_455
Mn0 O2 1.978365 1_555
Mn0 O14 1.997150 1_565
Mn0 O1 2.028247 1_455
Mn1 O11 1.870072 1_655
Mn1 O5 1.892158 1_555
Mn1 O7 1.941521 1_655
Mn1 O9 1.978365 1_555
Mn1 O4 1.997150 1_545
Mn1 O10 2.028247 1_655
Co0 O1 1.965188 1_445
Co0 O10 1.965188 1_555
Co0 O4 2.046086 1_445
Co0 O14 2.046086 1_555
Co0 O8 2.071644 1_455
Co0 O3 2.071644 1_545
Co1 O3 1.952287 1_545
Co1 O9 1.973282 1_555
Co1 O4 2.029922 1_545
Co1 O7 2.066113 1_555
Co1 O10 2.077882 1_555
Co1 O8 2.090147 1_555
Co2 O12 1.854346 1_555
Co2 O5 2.042534 1_555
Co2 O6 2.043915 1_554
Co2 O7 2.073390 1_555
Co2 O11 2.097424 1_555
Co2 O9 2.115935 1_555
Co3 O6 1.854346 1_555
Co3 O15 2.042534 1_555
Co3 O12 2.043915 1_556
Co3 O13 2.073390 1_555
Co3 O0 2.097424 1_555
Co3 O2 2.115935 1_555
Co4 O8 1.952287 1_565
Co4 O2 1.973282 1_555
Co4 O14 2.029922 1_565
Co4 O13 2.066113 1_555
Co4 O1 2.077882 1_555
Co4 O3 2.090147 1_555
