# generated using pymatgen
data_Li9Mn7O16
_symmetry_space_group_name_H-M   'P 1'
_cell_length_a   2.87714800
_cell_length_b   9.75802000
_cell_length_c   10.69339543
_cell_angle_alpha   83.04713593
_cell_angle_beta   90.00000000
_cell_angle_gamma   90.00000000
_symmetry_Int_Tables_number   1
_chemical_formula_structural   Li9Mn7O16
_chemical_formula_sum   'Li9 Mn7 O16'
_cell_volume   298.01214463
_cell_formula_units_Z   1
loop_
 _symmetry_equiv_pos_site_id
 _symmetry_equiv_pos_as_xyz
  1  'x, y, z'
loop_
 _atom_site_type_symbol
 _atom_site_label
 _atom_site_symmetry_multiplicity
 _atom_site_fract_x
 _atom_site_fract_y
 _atom_site_fract_z
 _atom_site_occupancy
  Li  Li0  1  0.50000000  0.24729200  0.62872400  1
  Li  Li1  1  0.50000000  0.75270800  0.37127600  1
  Li  Li2  1  0.50000000  0.24281600  0.12313300  1
  Li  Li3  1  0.00000000  0.25299200  0.37073300  1
  Li  Li4  1  0.00000000  0.75561500  0.12072100  1
  Li  Li5  1  0.00000000  0.24438500  0.87927900  1
  Li  Li6  1  0.50000000  0.75718400  0.87686700  1
  Li  Li7  1  0.00000000  0.74700800  0.62926700  1
  Li  Li8  1  0.50000000  0.00000000  0.00000000  1
  Mn  Mn0  1  0.00000000  0.99315000  0.76339400  1
  Mn  Mn1  1  0.00000000  0.00685000  0.23660600  1
  Mn  Mn2  1  0.00000000  0.50000000  0.50000000  1
  Mn  Mn3  1  0.00000000  0.50000000  0.00000000  1
  Mn  Mn4  1  0.50000000  0.50198600  0.24967700  1
  Mn  Mn5  1  0.50000000  0.49801400  0.75032300  1
  Mn  Mn6  1  0.50000000  0.00000000  0.50000000  1
  O  O0  1  0.50000000  0.11283700  0.80491100  1
  O  O1  1  0.50000000  0.61827300  0.55194700  1
  O  O2  1  0.50000000  0.11340700  0.30527100  1
  O  O3  1  0.00000000  0.10721500  0.56746300  1
  O  O4  1  0.00000000  0.61837800  0.30361000  1
  O  O5  1  0.00000000  0.11175600  0.08429700  1
  O  O6  1  0.50000000  0.61853600  0.05196300  1
  O  O7  1  0.00000000  0.61419300  0.80192700  1
  O  O8  1  0.50000000  0.38172700  0.44805300  1
  O  O9  1  0.50000000  0.88716300  0.19508900  1
  O  O10  1  0.50000000  0.38146400  0.94803700  1
  O  O11  1  0.00000000  0.38580700  0.19807300  1
  O  O12  1  0.00000000  0.88824400  0.91570300  1
  O  O13  1  0.00000000  0.38162200  0.69639000  1
  O  O14  1  0.50000000  0.88659300  0.69472900  1
  O  O15  1  0.00000000  0.89278500  0.43253700  1
loop_
_geom_bond_atom_site_label_1
_geom_bond_atom_site_label_2
_geom_bond_distance
_geom_bond_site_symmetry_2
Li0 O13 2.130933 1_555
Li0 O13 2.130933 1_655
Li0 O3 2.140973 1_655
Li0 O3 2.140973 1_555
Li0 O0 2.161602 1_555
Li0 O8 2.199965 1_555
Li1 O4 2.130933 1_555
Li1 O4 2.130933 1_655
Li1 O15 2.140973 1_555
Li1 O15 2.140973 1_655
Li1 O9 2.161602 1_555
Li1 O1 2.199965 1_555
Li2 O5 2.001523 1_555
Li2 O5 2.001523 1_655
Li2 O10 2.173222 1_554
Li2 O2 2.189197 1_555
Li2 O11 2.220197 1_655
Li2 O11 2.220197 1_555
Li3 O11 2.123494 1_555
Li3 O8 2.140704 1_455
Li3 O8 2.140704 1_555
Li3 O2 2.155364 1_555
Li3 O2 2.155364 1_455
Li3 O3 2.392611 1_555
Li4 O9 2.144017 1_455
Li4 O9 2.144017 1_555
Li4 O6 2.153470 1_555
Li4 O6 2.153470 1_455
Li4 O4 2.232500 1_555
Li4 O12 2.407148 1_554
Li5 O0 2.144017 1_455
Li5 O0 2.144017 1_555
Li5 O10 2.153470 1_455
Li5 O10 2.153470 1_555
Li5 O13 2.232500 1_555
Li5 O5 2.407148 1_556
Li6 O12 2.001523 1_655
Li6 O12 2.001523 1_555
Li6 O6 2.173222 1_556
Li6 O14 2.189197 1_555
Li6 O7 2.220197 1_555
Li6 O7 2.220197 1_655
Li7 O7 2.123494 1_555
Li7 O1 2.140704 1_555
Li7 O1 2.140704 1_455
Li7 O14 2.155364 1_555
Li7 O14 2.155364 1_455
Li7 O15 2.392611 1_555
Li8 O12 2.075880 1_644
Li8 O12 2.075880 1_544
Li8 O5 2.075880 1_555
Li8 O5 2.075880 1_655
Li8 O0 2.237925 1_554
Li8 O9 2.237925 1_545
Mn0 O12 1.815743 1_555
Mn0 O0 1.938075 1_565
Mn0 O0 1.938075 1_465
Mn0 O14 1.968408 1_555
Mn0 O14 1.968408 1_455
Mn0 O3 2.250335 1_565
Mn1 O5 1.815743 1_555
Mn1 O9 1.938075 1_445
Mn1 O9 1.938075 1_545
Mn1 O2 1.968408 1_555
Mn1 O2 1.968408 1_455
Mn1 O15 2.250335 1_545
Mn2 O1 1.966023 1_455
Mn2 O1 1.966023 1_555
Mn2 O8 1.966023 1_555
Mn2 O8 1.966023 1_455
Mn2 O13 2.270977 1_555
Mn2 O4 2.270977 1_555
Mn3 O10 1.967679 1_454
Mn3 O6 1.967679 1_455
Mn3 O6 1.967679 1_555
Mn3 O10 1.967679 1_554
Mn3 O11 2.270789 1_555
Mn3 O7 2.270789 1_554
Mn4 O11 1.952097 1_655
Mn4 O11 1.952097 1_555
Mn4 O4 1.962303 1_555
Mn4 O4 1.962303 1_655
Mn4 O6 2.276244 1_555
Mn4 O8 2.296598 1_555
Mn5 O7 1.952097 1_655
Mn5 O7 1.952097 1_555
Mn5 O13 1.962303 1_655
Mn5 O13 1.962303 1_555
Mn5 O10 2.276244 1_555
Mn5 O1 2.296598 1_555
Mn6 O15 1.966520 1_545
Mn6 O15 1.966520 1_645
Mn6 O3 1.966520 1_555
Mn6 O3 1.966520 1_655
Mn6 O2 2.236686 1_555
Mn6 O14 2.236686 1_545
