# generated using pymatgen
data_FeMoHSeO7
_symmetry_space_group_name_H-M   'P 1'
_cell_length_a   10.45882272
_cell_length_b   10.45882272
_cell_length_c   13.77049647
_cell_angle_alpha   49.95226718
_cell_angle_beta   49.95226718
_cell_angle_gamma   30.88726164
_symmetry_Int_Tables_number   1
_chemical_formula_structural   FeMoHSeO7
_chemical_formula_sum   'Fe4 Mo4 H4 Se4 O28'
_cell_volume   575.76230880
_cell_formula_units_Z   4
loop_
 _symmetry_equiv_pos_site_id
 _symmetry_equiv_pos_as_xyz
  1  'x, y, z'
loop_
 _atom_site_type_symbol
 _atom_site_label
 _atom_site_symmetry_multiplicity
 _atom_site_fract_x
 _atom_site_fract_y
 _atom_site_fract_z
 _atom_site_occupancy
  Fe  Fe0  1  0.61579700  0.91717800  0.37767100  1
  Fe  Fe1  1  0.08282200  0.38420300  0.12232900  1
  Fe  Fe2  1  0.38420300  0.08282200  0.62232900  1
  Fe  Fe3  1  0.91717800  0.61579700  0.87767100  1
  Mo  Mo0  1  0.04155100  0.75011200  0.40946400  1
  Mo  Mo1  1  0.24988800  0.95844900  0.09053600  1
  Mo  Mo2  1  0.95844900  0.24988800  0.59053600  1
  Mo  Mo3  1  0.75011200  0.04155100  0.90946400  1
  H  H0  1  0.76492600  0.29632700  0.26827300  1
  H  H1  1  0.70367300  0.23507400  0.23172700  1
  H  H2  1  0.23507400  0.70367300  0.73172700  1
  H  H3  1  0.29632700  0.76492600  0.76827300  1
  Se  Se0  1  0.22810600  0.52302500  0.17615100  1
  Se  Se1  1  0.47697500  0.77189400  0.32384900  1
  Se  Se2  1  0.77189400  0.47697500  0.82384900  1
  Se  Se3  1  0.52302500  0.22810600  0.67615100  1
  O  O0  1  0.83824900  0.16175100  0.25000000  1
  O  O1  1  0.16175200  0.83824900  0.75000000  1
  O  O2  1  0.00410700  0.86567700  0.48520200  1
  O  O3  1  0.13432300  0.99589300  0.01479800  1
  O  O4  1  0.99589300  0.13432300  0.51479800  1
  O  O5  1  0.86567700  0.00410700  0.98520200  1
  O  O6  1  0.30153200  0.69846800  0.25000000  1
  O  O7  1  0.69846800  0.30153200  0.75000000  1
  O  O8  1  0.23326900  0.42650300  0.49699300  1
  O  O9  1  0.57349700  0.76673100  0.00300700  1
  O  O10  1  0.76673100  0.57349700  0.50300700  1
  O  O11  1  0.42650300  0.23326900  0.99699300  1
  O  O12  1  0.70292700  0.92096100  0.47487200  1
  O  O13  1  0.07903900  0.29707300  0.02512800  1
  O  O14  1  0.29707300  0.07903900  0.52512800  1
  O  O15  1  0.92096100  0.70292700  0.97487200  1
  O  O16  1  0.98440100  0.72828000  0.28416100  1
  O  O17  1  0.27172000  0.01559900  0.21583900  1
  O  O18  1  0.01559900  0.27172000  0.71583900  1
  O  O19  1  0.72828000  0.98440100  0.78416100  1
  O  O20  1  0.47772400  0.25444200  0.25386200  1
  O  O21  1  0.74555800  0.52227600  0.24613800  1
  O  O22  1  0.52227600  0.74555800  0.74613800  1
  O  O23  1  0.25444200  0.47772400  0.75386200  1
  O  O24  1  0.10310000  0.44820300  0.21492300  1
  O  O25  1  0.55179700  0.89690000  0.28507700  1
  O  O26  1  0.89690000  0.55179700  0.78507700  1
  O  O27  1  0.44820300  0.10310000  0.71492300  1
loop_
_geom_bond_atom_site_label_1
_geom_bond_atom_site_label_2
_geom_bond_distance
_geom_bond_site_symmetry_2
Fe0 O25 1.951608 1_555
Fe0 O20 2.030025 1_565
Fe0 O14 2.031856 1_565
Fe0 O10 2.043237 1_555
Fe0 O16 2.058296 1_555
Fe0 O12 2.079245 1_555
Fe1 O24 1.951608 1_555
Fe1 O21 2.030025 1_455
Fe1 O15 2.031856 1_454
Fe1 O11 2.043237 1_554
Fe1 O17 2.058296 1_555
Fe1 O13 2.079245 1_555
Fe2 O27 1.951608 1_555
Fe2 O22 2.030025 1_545
Fe2 O12 2.031856 1_545
Fe2 O8 2.043237 1_555
Fe2 O18 2.058296 1_555
Fe2 O14 2.079245 1_555
Fe3 O26 1.951608 1_555
Fe3 O23 2.030025 1_655
Fe3 O13 2.031856 1_656
Fe3 O9 2.043237 1_556
Fe3 O19 2.058296 1_555
Fe3 O15 2.079245 1_555
Mo0 O2 1.728053 1_555
Mo0 O8 1.772280 1_555
Mo0 O12 1.910888 1_455
Mo0 O6 1.956814 1_555
Mo0 O16 2.335631 1_455
Mo0 O0 2.451342 1_465
Mo1 O3 1.728053 1_555
Mo1 O9 1.772280 1_555
Mo1 O13 1.910888 1_565
Mo1 O6 1.956814 1_555
Mo1 O17 2.335631 1_565
Mo1 O0 2.451342 1_465
Mo2 O4 1.728053 1_555
Mo2 O10 1.772280 1_555
Mo2 O14 1.910888 1_655
Mo2 O7 1.956814 1_555
Mo2 O18 2.335631 1_655
Mo2 O1 2.451341 1_645
Mo3 O5 1.728053 1_555
Mo3 O11 1.772280 1_555
Mo3 O15 1.910888 1_545
Mo3 O7 1.956814 1_555
Mo3 O19 2.335631 1_545
Mo3 O1 2.451347 1_645
H0 O0 0.993644 1_555
H1 O0 0.993644 1_555
H2 O1 0.993650 1_555
H3 O1 0.993634 1_555
O16 Se0 1.776581 1_655
O17 Se1 1.776581 1_545
O18 Se2 1.776581 1_455
O19 Se3 1.776581 1_565
O20 Se0 1.729590 1_555
O21 Se1 1.729590 1_555
O22 Se2 1.729590 1_555
O23 Se3 1.729590 1_555
O24 Se0 1.710813 1_555
O25 Se1 1.710813 1_555
O26 Se2 1.710813 1_555
O27 Se3 1.710813 1_555
