# generated using pymatgen
data_Sr2CoO4
_symmetry_space_group_name_H-M   'P 1'
_cell_length_a   3.92724028
_cell_length_b   6.78567766
_cell_length_c   7.77474526
_cell_angle_alpha   106.66146199
_cell_angle_beta   89.99319849
_cell_angle_gamma   106.82635352
_symmetry_Int_Tables_number   1
_chemical_formula_structural   Sr2CoO4
_chemical_formula_sum   'Sr4 Co2 O8'
_cell_volume   189.21473225
_cell_formula_units_Z   2
loop_
 _symmetry_equiv_pos_site_id
 _symmetry_equiv_pos_as_xyz
  1  'x, y, z'
loop_
 _atom_site_type_symbol
 _atom_site_label
 _atom_site_symmetry_multiplicity
 _atom_site_fract_x
 _atom_site_fract_y
 _atom_site_fract_z
 _atom_site_occupancy
  Sr  Sr0  1  0.64074400  0.28148500  0.32469400  1
  Sr  Sr1  1  0.64098700  0.28198700  0.81617200  1
  Sr  Sr2  1  0.35925600  0.71851500  0.67530600  1
  Sr  Sr3  1  0.35901300  0.71801300  0.18382800  1
  Co  Co0  1  0.00000000  0.00000000  0.50000000  1
  Co  Co1  1  0.00000000  0.00000000  0.00000000  1
  O  O0  1  0.84015600  0.68049900  0.41925700  1
  O  O1  1  0.84730300  0.69467700  0.92484700  1
  O  O2  1  0.15984300  0.31950000  0.58074300  1
  O  O3  1  0.15270000  0.30532400  0.07515300  1
  O  O4  1  0.00002300  0.00011100  0.26608600  1
  O  O5  1  0.99997600  0.99988900  0.73391500  1
  O  O6  1  0.50000000  0.00000000  0.50000000  1
  O  O7  1  0.50000000  0.00000000  0.00000000  1
loop_
_geom_bond_atom_site_label_1
_geom_bond_atom_site_label_2
_geom_bond_distance
_geom_bond_site_symmetry_2
Co0 O4 1.818838 1_555
Co0 O5 1.818846 1_445
Co0 O6 1.963620 1_455
Co0 O6 1.963620 1_555
Co0 O2 1.979950 1_555
Co0 O0 1.979957 1_445
Co1 O1 1.892110 1_444
Co1 O3 1.892117 1_555
Co1 O7 1.963620 1_455
Co1 O7 1.963620 1_555
Co1 O5 2.068527 1_444
Co1 O4 2.068535 1_555
O0 Sr0 2.473029 1_555
O0 Sr3 2.744467 1_555
O0 Sr3 2.744684 1_655
O0 Sr2 2.753730 1_555
O0 Sr2 2.754548 1_655
O1 Sr1 2.557785 1_555
O1 Sr3 2.783643 1_556
O1 Sr3 2.784191 1_656
O1 Sr2 2.797022 1_655
O1 Sr2 2.797179 1_555
O2 Sr2 2.473035 1_555
O2 Sr1 2.744467 1_555
O2 Sr1 2.744680 1_455
O2 Sr0 2.753733 1_555
O2 Sr0 2.754547 1_455
O3 Sr3 2.557779 1_555
O3 Sr1 2.783635 1_554
O3 Sr1 2.784197 1_454
O3 Sr0 2.797030 1_455
O3 Sr0 2.797174 1_555
O4 Sr0 2.627658 1_455
O4 Sr0 2.627668 1_555
O4 Sr3 2.630416 1_445
O4 Sr3 2.630803 1_545
O5 Sr2 2.627661 1_655
O5 Sr2 2.627664 1_555
O5 Sr1 2.630419 1_665
O5 Sr1 2.630800 1_565
O6 Sr2 2.587076 1_545
O6 Sr0 2.587076 1_555
O6 Sr1 2.588480 1_555
O6 Sr3 2.588480 1_545
O7 Sr0 2.636411 1_555
O7 Sr2 2.636411 1_544
O7 Sr3 2.639176 1_545
O7 Sr1 2.639176 1_554
