# generated using pymatgen
data_K4MgZn4H16(Br3O2)4
_symmetry_space_group_name_H-M   'P 1'
_cell_length_a   6.88796997
_cell_length_b   12.90941655
_cell_length_c   14.04734245
_cell_angle_alpha   91.45372396
_cell_angle_beta   130.23059282
_cell_angle_gamma   88.98365150
_symmetry_Int_Tables_number   1
_chemical_formula_structural   K4MgZn4H16(Br3O2)4
_chemical_formula_sum   'K4 Mg1 Zn4 H16 Br12 O8'
_cell_volume   953.30719650
_cell_formula_units_Z   1
loop_
 _symmetry_equiv_pos_site_id
 _symmetry_equiv_pos_as_xyz
  1  'x, y, z'
loop_
 _atom_site_type_symbol
 _atom_site_label
 _atom_site_symmetry_multiplicity
 _atom_site_fract_x
 _atom_site_fract_y
 _atom_site_fract_z
 _atom_site_occupancy
  K  K0  1  0.27666702  0.82090159  0.00186542  1
  K  K1  1  0.78080596  0.35950542  0.48543096  1
  K  K2  1  0.73401121  0.17007543  0.01001079  1
  K  K3  1  0.24801141  0.68902577  0.48323997  1
  Mg  Mg0  1  0.36793836  0.16679979  0.53045472  1
  Zn  Zn0  1  0.47581656  0.92127868  0.75886357  1
  Zn  Zn1  1  0.54034475  0.43585383  0.76914216  1
  Zn  Zn2  1  0.51158922  0.06427330  0.23962087  1
  Zn  Zn3  1  0.47615982  0.57732071  0.23858009  1
  H  H0  1  0.83274733  0.26660824  0.81701973  1
  H  H1  1  0.17078748  0.76489476  0.70219412  1
  H  H2  1  0.17974641  0.73341063  0.19983896  1
  H  H3  1  0.72734224  0.23806251  0.26295160  1
  H  H4  1  0.98845852  0.34338918  0.93601713  1
  H  H5  1  0.02134767  0.84047608  0.58485163  1
  H  H6  1  0.02737681  0.66084075  0.07477953  1
  H  H7  1  0.92482824  0.17859928  0.39034967  1
  H  H8  1  0.93708518  0.16721818  0.70966559  1
  H  H9  1  0.08058761  0.63622862  0.78250621  1
  H  H10  1  0.06307273  0.85428671  0.27395437  1
  H  H11  1  0.92290344  0.34988719  0.22058531  1
  H  H12  1  0.80660750  0.09396979  0.73811607  1
  H  H13  1  0.36479076  0.65011578  0.84436805  1
  H  H14  1  0.34399226  0.85996996  0.33105743  1
  H  H15  1  0.63434572  0.37162370  0.13812187  1
  Br  Br0  1  0.35625493  0.43362112  0.55260935  1
  Br  Br1  1  0.72068095  0.88389404  0.97489157  1
  Br  Br2  1  0.71164541  0.61359160  0.45875377  1
  Br  Br3  1  0.27947858  0.08634678  0.01810502  1
  Br  Br4  1  0.25049975  0.39158057  0.80250614  1
  Br  Br5  1  0.70743130  0.90201643  0.68450196  1
  Br  Br6  1  0.72435545  0.60128830  0.17645272  1
  Br  Br7  1  0.23130442  0.07711141  0.28646683  1
  Br  Br8  1  0.27490374  0.09004508  0.71432854  1
  Br  Br9  1  0.74107987  0.60338332  0.85256563  1
  Br  Br10  1  0.74049872  0.90026226  0.32244499  1
  Br  Br11  1  0.26944319  0.40924123  0.17416507  1
  O  O0  1  0.18853133  0.81055577  0.65091905  1
  O  O1  1  0.81758737  0.31710701  0.86671167  1
  O  O2  1  0.73354466  0.19492470  0.32332265  1
  O  O3  1  0.19604796  0.68867341  0.14515526  1
  O  O4  1  0.20861131  0.68909781  0.81070148  1
  O  O5  1  0.79344673  0.16527865  0.70983212  1
  O  O6  1  0.75809082  0.31493503  0.17164359  1
  O  O7  1  0.21105131  0.81034658  0.30584677  1
loop_
_geom_bond_atom_site_label_1
_geom_bond_atom_site_label_2
_geom_bond_distance
_geom_bond_site_symmetry_2
K0 O4 2.914857 1_554
K0 O3 2.987553 1_555
K1 O2 2.937202 1_555
K2 O6 2.826473 1_555
K2 O1 3.117002 1_554
K3 O7 2.844597 1_555
K3 O0 3.035392 1_555
Mg0 O5 2.323912 1_555
H0 O1 0.995891 1_555
H1 O0 1.009460 1_555
H2 O3 1.011349 1_555
H2 O7 1.663798 1_555
H3 O2 1.003721 1_555
H4 O1 0.982574 1_555
H5 O0 0.979026 1_555
H6 O3 0.984565 1_555
H7 O2 1.031821 1_555
H7 Mg0 2.334853 1_655
H8 O5 0.991651 1_555
H9 O4 0.978154 1_555
H10 O7 0.981792 1_555
H11 O6 0.979419 1_555
H12 O5 0.991248 1_555
H13 O4 0.984815 1_555
H14 O7 0.982191 1_555
H15 O6 0.980154 1_555
Br0 Zn1 2.423930 1_555
Br0 K3 3.393201 1_555
Br0 K1 3.574044 1_455
Br0 K1 3.711746 1_555
Br1 Zn0 2.391767 1_555
Br1 K0 3.429165 1_556
Br1 K0 3.674447 1_656
Br1 K2 3.709677 1_566
Br2 Zn3 2.426772 1_555
Br2 K1 3.301937 1_555
Br2 K3 3.543534 1_555
Br2 K3 3.631100 1_655
Br3 Zn2 2.433636 1_555
Br3 K2 3.401370 1_555
Br3 K0 3.428114 1_545
Br3 K2 3.822023 1_455
Br4 Zn1 2.407245 1_555
Br4 K1 3.437596 1_455
Br4 K2 3.912826 1_556
Br5 Zn0 2.413201 1_555
Br5 K0 3.722458 1_656
Br5 K3 3.731595 1_555
Br6 Zn3 2.395765 1_555
Br6 K3 3.561362 1_655
Br6 K0 3.719556 1_555
Br7 Zn2 2.410787 1_555
Br7 Mg0 3.105465 1_555
Br7 K2 3.341010 1_455
Br8 Zn0 2.428375 1_545
Br8 Mg0 3.217837 1_555
Br8 K2 3.354267 1_556
Br9 Zn1 2.418023 1_555
Br10 Zn2 2.441216 1_565
Br10 K0 3.582423 1_555
Br11 Zn3 2.428978 1_555
Br11 K1 3.479266 1_555
O0 Zn0 2.091061 1_555
O1 Zn1 2.120624 1_555
O2 Zn2 2.057519 1_555
O3 Zn3 2.058606 1_555
