# generated using pymatgen
data_MgSiNiO5
_symmetry_space_group_name_H-M   'P 1'
_cell_length_a   5.29120751
_cell_length_b   6.85296492
_cell_length_c   8.46574875
_cell_angle_alpha   90.77145015
_cell_angle_beta   143.50532237
_cell_angle_gamma   74.48603172
_symmetry_Int_Tables_number   1
_chemical_formula_structural   MgSiNiO5
_chemical_formula_sum   'Mg2 Si2 Ni2 O10'
_cell_volume   164.67899958
_cell_formula_units_Z   2
loop_
 _symmetry_equiv_pos_site_id
 _symmetry_equiv_pos_as_xyz
  1  'x, y, z'
loop_
 _atom_site_type_symbol
 _atom_site_label
 _atom_site_symmetry_multiplicity
 _atom_site_fract_x
 _atom_site_fract_y
 _atom_site_fract_z
 _atom_site_occupancy
  Mg  Mg0  1  0.48649800  0.25036000  0.16092100  1
  Mg  Mg1  1  0.49706400  0.74302500  0.83082300  1
  Si  Si0  1  0.49697700  0.24254900  0.82194500  1
  Si  Si1  1  0.49394700  0.74273900  0.17277700  1
  Ni  Ni0  1  0.49479200  0.49237700  0.49699100  1
  Ni  Ni1  1  0.49476100  0.99234800  0.49726600  1
  O  O0  1  0.23751000  0.12359600  0.58528800  1
  O  O1  1  0.74076500  0.36730500  0.84105600  1
  O  O2  1  0.75447700  0.85987400  0.41133100  1
  O  O3  1  0.25174600  0.61593000  0.15328300  1
  O  O4  1  0.85580700  0.57742000  0.21954500  1
  O  O5  1  0.12760100  0.91716500  0.86310700  1
  O  O6  1  0.13333000  0.40891500  0.77333000  1
  O  O7  1  0.86188800  0.06856600  0.13201100  1
  O  O8  1  0.49972500  0.74273100  0.58940000  1
  O  O9  1  0.48994100  0.24187300  0.40496700  1
loop_
_geom_bond_atom_site_label_1
_geom_bond_atom_site_label_2
_geom_bond_distance
_geom_bond_site_symmetry_2
Mg0 O9 2.052890 1_555
Mg0 O6 2.142537 1_554
Mg0 O1 2.175293 1_454
Mg0 O0 2.176249 1_655
Mg0 O7 2.237608 1_555
Mg0 O3 2.456388 1_555
Mg0 O2 2.637325 1_545
Mg1 O8 2.055133 1_555
Mg1 O4 2.150661 1_556
Mg1 O2 2.156335 1_455
Mg1 O3 2.198433 1_656
Mg1 O5 2.218731 1_555
Mg1 O1 2.519946 1_555
Mg1 O0 2.578521 1_565
Ni0 O4 1.871435 1_455
Ni0 O6 1.873277 1_655
Ni0 O9 1.873508 1_555
Ni0 O8 1.873817 1_555
Ni0 O1 2.070760 1_555
Ni0 O3 2.074800 1_555
Ni1 O7 1.872769 1_465
Ni1 O8 1.874627 1_555
Ni1 O5 1.875055 1_655
Ni1 O9 1.875065 1_565
Ni1 O2 2.040623 1_555
Ni1 O0 2.043257 1_565
O0 Si0 1.641820 1_555
O1 Si0 1.634540 1_555
O2 Si1 1.641760 1_555
O3 Si1 1.636036 1_555
O4 Si1 1.655022 1_555
O5 Si1 1.653290 1_556
O6 Si0 1.654503 1_555
O7 Si0 1.656445 1_554
