# generated using pymatgen
data_ZnH14SO11
_symmetry_space_group_name_H-M   'P 1'
_cell_length_a   6.82464100
_cell_length_b   11.88454300
_cell_length_c   12.23048500
_cell_angle_alpha   90.00000000
_cell_angle_beta   90.00000000
_cell_angle_gamma   90.00000000
_symmetry_Int_Tables_number   1
_chemical_formula_structural   ZnH14SO11
_chemical_formula_sum   'Zn4 H56 S4 O44'
_cell_volume   991.98699041
_cell_formula_units_Z   4
loop_
 _symmetry_equiv_pos_site_id
 _symmetry_equiv_pos_as_xyz
  1  'x, y, z'
loop_
 _atom_site_type_symbol
 _atom_site_label
 _atom_site_symmetry_multiplicity
 _atom_site_fract_x
 _atom_site_fract_y
 _atom_site_fract_z
 _atom_site_occupancy
  Zn  Zn0  1  0.45967500  0.57756100  0.60653600  1
  Zn  Zn1  1  0.95967500  0.92243900  0.39346400  1
  Zn  Zn2  1  0.54032500  0.07756100  0.89346400  1
  Zn  Zn3  1  0.04032500  0.42243900  0.10653600  1
  H  H0  1  0.40053600  0.76421900  0.72430600  1
  H  H1  1  0.90053600  0.73578100  0.27569400  1
  H  H2  1  0.59946400  0.26421900  0.77569400  1
  H  H3  1  0.09946400  0.23578100  0.22430600  1
  H  H4  1  0.63163800  0.76368300  0.69719400  1
  H  H5  1  0.13163800  0.73631700  0.30280600  1
  H  H6  1  0.36836200  0.26368300  0.80280600  1
  H  H7  1  0.86836200  0.23631700  0.19719400  1
  H  H8  1  0.19093500  0.57841400  0.77055200  1
  H  H9  1  0.69093500  0.92158600  0.22944800  1
  H  H10  1  0.80906500  0.07841400  0.72944800  1
  H  H11  1  0.30906500  0.42158600  0.27055200  1
  H  H12  1  0.24473700  0.45080100  0.75446800  1
  H  H13  1  0.74473700  0.04919900  0.24553200  1
  H  H14  1  0.75526300  0.95080100  0.74553200  1
  H  H15  1  0.25526300  0.54919900  0.25446800  1
  H  H16  1  0.80284500  0.57411600  0.72784300  1
  H  H17  1  0.30284500  0.92588400  0.27215700  1
  H  H18  1  0.19715500  0.07411600  0.77215700  1
  H  H19  1  0.69715500  0.42588400  0.22784400  1
  H  H20  1  0.75324100  0.44812200  0.68763800  1
  H  H21  1  0.25324100  0.05187800  0.31236200  1
  H  H22  1  0.24675900  0.94812200  0.81236200  1
  H  H23  1  0.74675900  0.55187800  0.18763800  1
  H  H24  1  0.29618100  0.37455000  0.55811200  1
  H  H25  1  0.79618100  0.12545000  0.44188800  1
  H  H26  1  0.70381900  0.87455000  0.94188800  1
  H  H27  1  0.20381900  0.62545000  0.05811200  1
  H  H28  1  0.46763200  0.39179300  0.47256400  1
  H  H29  1  0.96763200  0.10820700  0.52743600  1
  H  H30  1  0.53236800  0.89179300  0.02743600  1
  H  H31  1  0.03236800  0.60820700  0.97256400  1
  H  H32  1  0.53574800  0.63404500  0.39645200  1
  H  H33  1  0.03574800  0.86595500  0.60354800  1
  H  H34  1  0.46425200  0.13404500  0.10354800  1
  H  H35  1  0.96425200  0.36595500  0.89645200  1
  H  H36  1  0.73502400  0.58202900  0.44632600  1
  H  H37  1  0.23502400  0.91797100  0.55367400  1
  H  H38  1  0.26497600  0.08202900  0.05367400  1
  H  H39  1  0.76497600  0.41797100  0.94632600  1
  H  H40  1  0.17124800  0.71712100  0.52861800  1
  H  H41  1  0.67124800  0.78287900  0.47138200  1
  H  H42  1  0.82875200  0.21712100  0.97138200  1
  H  H43  1  0.32875200  0.28287900  0.02861800  1
  H  H44  1  0.10056000  0.59022300  0.49996500  1
  H  H45  1  0.60056000  0.90977700  0.50003500  1
  H  H46  1  0.89944000  0.09022300  0.00003500  1
  H  H47  1  0.39944000  0.40977700  0.99996500  1
  H  H48  1  0.54530000  0.57259900  0.98733900  1
  H  H49  1  0.04530000  0.92740100  0.01266100  1
  H  H50  1  0.45470000  0.07259900  0.51266100  1
  H  H51  1  0.95470000  0.42740100  0.48733900  1
  H  H52  1  0.49601300  0.52154700  0.87103800  1
  H  H53  1  0.99601300  0.97845300  0.12896200  1
  H  H54  1  0.50398700  0.02154700  0.62896200  1
  H  H55  1  0.00398700  0.47845300  0.37103800  1
  S  S0  1  0.00656500  0.27614800  0.68413700  1
  S  S1  1  0.50656500  0.22385200  0.31586300  1
  S  S2  1  0.99343500  0.77614800  0.81586300  1
  S  S3  1  0.49343500  0.72385200  0.18413700  1
  O  O0  1  0.07149800  0.32174800  0.57722700  1
  O  O1  1  0.57149800  0.17825200  0.42277300  1
  O  O2  1  0.92850200  0.82174800  0.92277300  1
  O  O3  1  0.42850200  0.67825200  0.07722700  1
  O  O4  1  0.01666800  0.15003700  0.68247800  1
  O  O5  1  0.51666800  0.34996300  0.31752200  1
  O  O6  1  0.98333200  0.65003700  0.81752200  1
  O  O7  1  0.48333200  0.84996300  0.18247800  1
  O  O8  1  0.80206500  0.31231600  0.70716100  1
  O  O9  1  0.30206500  0.18768500  0.29283900  1
  O  O10  1  0.19793500  0.81231500  0.79283900  1
  O  O11  1  0.69793500  0.68768500  0.20716100  1
  O  O12  1  0.13780500  0.32006800  0.77396900  1
  O  O13  1  0.63780500  0.17993200  0.22603100  1
  O  O14  1  0.86219500  0.82006800  0.72603100  1
  O  O15  1  0.36219500  0.67993200  0.27396900  1
  O  O16  1  0.50087200  0.73986200  0.67076000  1
  O  O17  1  0.00087200  0.76013800  0.32924000  1
  O  O18  1  0.49912800  0.23986200  0.82924000  1
  O  O19  1  0.99912800  0.26013800  0.17076000  1
  O  O20  1  0.30342700  0.52770600  0.75391300  1
  O  O21  1  0.80342700  0.97229400  0.24608700  1
  O  O22  1  0.69657300  0.02770600  0.74608700  1
  O  O23  1  0.19657300  0.47229400  0.25391300  1
  O  O24  1  0.72706900  0.52963900  0.67464800  1
  O  O25  1  0.22706900  0.97036100  0.32535200  1
  O  O26  1  0.27293100  0.02963900  0.82535200  1
  O  O27  1  0.77293100  0.47036100  0.17464800  1
  O  O28  1  0.42524300  0.41245900  0.54662900  1
  O  O29  1  0.92524300  0.08754100  0.45337100  1
  O  O30  1  0.57475700  0.91245900  0.95337100  1
  O  O31  1  0.07475700  0.58754100  0.04662900  1
  O  O32  1  0.61964000  0.63168800  0.46176500  1
  O  O33  1  0.11964000  0.86831200  0.53823500  1
  O  O34  1  0.38036000  0.13168800  0.03823500  1
  O  O35  1  0.88036000  0.36831200  0.96176500  1
  O  O36  1  0.20461900  0.63647900  0.53472800  1
  O  O37  1  0.70461900  0.86352100  0.46527200  1
  O  O38  1  0.79538100  0.13647900  0.96527200  1
  O  O39  1  0.29538100  0.36352100  0.03472800  1
  O  O40  1  0.56269600  0.50513800  0.94090700  1
  O  O41  1  0.06269600  0.99486200  0.05909300  1
  O  O42  1  0.43730400  0.00513800  0.55909300  1
  O  O43  1  0.93730400  0.49486200  0.44090700  1
loop_
_geom_bond_atom_site_label_1
_geom_bond_atom_site_label_2
_geom_bond_distance
_geom_bond_site_symmetry_2
H0 O16 0.990743 1_555
H0 O10 1.714961 1_555
H1 O17 0.990743 1_655
H1 O11 1.714961 1_555
H2 O18 0.990743 1_555
H2 O8 1.714965 1_555
H3 O19 0.990743 1_455
H3 O9 1.714961 1_555
H4 O16 0.990506 1_555
H5 O17 0.990506 1_555
H6 O18 0.990506 1_555
H7 O19 0.990506 1_555
H8 O20 0.996986 1_555
H9 O21 0.996986 1_555
H10 O22 0.996986 1_555
H11 O23 0.996986 1_555
H12 O20 0.997917 1_555
H13 O21 0.997917 1_545
H14 O22 0.997917 1_565
H15 O23 0.997917 1_555
H16 O24 0.984949 1_555
H17 O25 0.984949 1_555
H18 O26 0.984949 1_555
H19 O27 0.984957 1_555
H20 O24 0.997849 1_555
H20 O8 1.665236 1_555
H21 O25 0.997849 1_545
H21 O9 1.665248 1_555
H22 O26 0.997849 1_565
H22 O10 1.665248 1_555
H23 O27 0.997849 1_555
H23 O11 1.665248 1_555
H24 O28 0.999257 1_555
H24 O0 1.673231 1_555
H25 O29 0.999257 1_555
H25 O1 1.673231 1_555
H26 O30 0.999257 1_555
H26 O2 1.673231 1_555
H27 O31 0.999257 1_555
H27 O3 1.673231 1_555
H28 O28 0.982129 1_555
H29 O29 0.982129 1_555
H30 O30 0.982129 1_554
H31 O31 0.982129 1_556
H32 O32 0.983196 1_555
H33 O33 0.983196 1_555
H34 O34 0.983196 1_555
H35 O35 0.983196 1_555
H36 O32 1.002021 1_555
H37 O33 1.002021 1_555
H38 O34 1.002021 1_555
H39 O35 1.002021 1_555
H40 O36 0.987912 1_555
H41 O37 0.987912 1_555
H42 O38 0.987912 1_555
H43 O39 0.987912 1_555
H44 O36 0.993634 1_555
H45 O37 0.993634 1_555
H46 O38 0.993634 1_554
H47 O39 0.993634 1_556
H48 O40 0.989637 1_555
H49 O41 0.989637 1_555
H50 O42 0.989637 1_555
H51 O43 0.989637 1_555
H52 O40 0.987603 1_555
H53 O41 0.987603 1_655
H54 O42 0.987603 1_555
H55 O43 0.987603 1_455
O0 S0 1.483168 1_555
O1 S1 1.483168 1_555
O2 S2 1.483168 1_555
O3 S3 1.483168 1_555
O4 S0 1.500494 1_555
O5 S1 1.500494 1_555
O6 S2 1.500494 1_555
O7 S3 1.500494 1_555
O8 S0 1.487235 1_655
O9 S1 1.487231 1_555
O10 S2 1.487231 1_455
O11 S3 1.487231 1_555
O12 S0 1.510558 1_555
O13 S1 1.510558 1_555
O14 S2 1.510558 1_555
O15 S3 1.510558 1_555
O16 Zn0 2.101570 1_555
O17 Zn1 2.101570 1_455
O18 Zn2 2.101570 1_555
O19 Zn3 2.101570 1_655
O20 Zn0 2.176491 1_555
O21 Zn1 2.176491 1_555
O22 Zn2 2.176491 1_555
O23 Zn3 2.176491 1_555
O24 Zn0 2.085298 1_555
O25 Zn1 2.085298 1_455
O26 Zn2 2.085298 1_555
O27 Zn3 2.085298 1_655
O28 Zn0 2.107637 1_555
O29 Zn1 2.107637 1_545
O30 Zn2 2.107637 1_565
O31 Zn3 2.107637 1_555
O32 Zn0 2.177318 1_555
O33 Zn1 2.177318 1_455
O34 Zn2 2.177318 1_554
O35 Zn3 2.177318 1_656
O36 Zn0 2.071602 1_555
O37 Zn1 2.071602 1_555
O38 Zn2 2.071602 1_555
O39 Zn3 2.071602 1_555
