# generated using pymatgen
data_Dy2Al6Si4Pt
_symmetry_space_group_name_H-M   'P 1'
_cell_length_a   17.04877742
_cell_length_b   17.04877742
_cell_length_c   17.04877726
_cell_angle_alpha   14.05028517
_cell_angle_beta   14.05028517
_cell_angle_gamma   14.05028717
_symmetry_Int_Tables_number   1
_chemical_formula_structural   Dy2Al6Si4Pt
_chemical_formula_sum   'Dy2 Al6 Si4 Pt1'
_cell_volume   254.20451986
_cell_formula_units_Z   1
loop_
 _symmetry_equiv_pos_site_id
 _symmetry_equiv_pos_as_xyz
  1  'x, y, z'
loop_
 _atom_site_type_symbol
 _atom_site_label
 _atom_site_symmetry_multiplicity
 _atom_site_fract_x
 _atom_site_fract_y
 _atom_site_fract_z
 _atom_site_occupancy
  Dy  Dy0  1  0.56584300  0.56584300  0.56584300  1
  Dy  Dy1  1  0.43415700  0.43415700  0.43415700  1
  Al  Al0  1  0.94955900  0.94955900  0.94955900  1
  Al  Al1  1  0.05044100  0.05044100  0.05044100  1
  Al  Al2  1  0.31747300  0.31747300  0.31747300  1
  Al  Al3  1  0.81479600  0.81479600  0.81479600  1
  Al  Al4  1  0.18520400  0.18520400  0.18520400  1
  Al  Al5  1  0.68252700  0.68252700  0.68252700  1
  Si  Si0  1  0.26567500  0.26567500  0.26567500  1
  Si  Si1  1  0.13504500  0.13504500  0.13504500  1
  Si  Si2  1  0.86495500  0.86495500  0.86495500  1
  Si  Si3  1  0.73432500  0.73432500  0.73432500  1
  Pt  Pt0  1  0.00000000  0.00000000  0.00000000  1
loop_
_geom_bond_atom_site_label_1
_geom_bond_atom_site_label_2
_geom_bond_distance
_geom_bond_site_symmetry_2
Dy0 Si0 2.935493 1_556
Dy0 Si0 2.935494 1_565
Dy0 Si0 2.935494 1_655
Dy0 Si2 2.966405 1_554
Dy0 Si2 2.966406 1_545
Dy0 Si2 2.966406 1_455
Dy1 Si3 2.935493 1_554
Dy1 Si3 2.935494 1_455
Dy1 Si3 2.935494 1_545
Dy1 Si1 2.966405 1_556
Dy1 Si1 2.966406 1_655
Dy1 Si1 2.966406 1_565
Al0 Pt0 2.554015 1_666
Al0 Si0 2.560688 1_665
Al0 Si0 2.560688 1_566
Al0 Si0 2.560688 1_656
Al1 Pt0 2.554015 1_555
Al1 Si3 2.560688 1_445
Al1 Si3 2.560688 1_544
Al1 Si3 2.560688 1_454
Al2 Pt0 2.538118 1_556
Al2 Pt0 2.538119 1_655
Al2 Pt0 2.538119 1_565
Al2 Si0 2.622725 1_555
Al3 Si1 2.497207 1_665
Al3 Si1 2.497208 1_566
Al3 Si1 2.497208 1_656
Al3 Si2 2.539737 1_555
Al4 Si2 2.497207 1_445
Al4 Si2 2.497208 1_454
Al4 Si2 2.497208 1_544
Al4 Si1 2.539737 1_555
Al5 Pt0 2.538118 1_665
Al5 Pt0 2.538119 1_566
Al5 Pt0 2.538119 1_656
Al5 Si3 2.622725 1_555
