# generated using pymatgen
data_KDyP2H4O9
_symmetry_space_group_name_H-M   'P 1'
_cell_length_a   7.79710486
_cell_length_b   10.36755437
_cell_length_c   10.73353800
_cell_angle_alpha   90.00000000
_cell_angle_beta   90.00000000
_cell_angle_gamma   94.83930732
_symmetry_Int_Tables_number   1
_chemical_formula_structural   KDyP2H4O9
_chemical_formula_sum   'K4 Dy4 P8 H16 O36'
_cell_volume   864.57298962
_cell_formula_units_Z   4
loop_
 _symmetry_equiv_pos_site_id
 _symmetry_equiv_pos_as_xyz
  1  'x, y, z'
loop_
 _atom_site_type_symbol
 _atom_site_label
 _atom_site_symmetry_multiplicity
 _atom_site_fract_x
 _atom_site_fract_y
 _atom_site_fract_z
 _atom_site_occupancy
  K  K0  1  0.74488800  0.81655300  0.18867300  1
  K  K1  1  0.25511200  0.18344700  0.81132700  1
  K  K2  1  0.25511200  0.68344700  0.68867300  1
  K  K3  1  0.74488800  0.31655300  0.31132700  1
  Dy  Dy0  1  0.75001100  0.66437200  0.62460900  1
  Dy  Dy1  1  0.24998900  0.33562800  0.37539100  1
  Dy  Dy2  1  0.24998900  0.83562800  0.12460900  1
  Dy  Dy3  1  0.75001100  0.16437200  0.87539100  1
  P  P0  1  0.95929900  0.87355400  0.85476500  1
  P  P1  1  0.04070100  0.12644600  0.14523500  1
  P  P2  1  0.04070100  0.62644600  0.35476500  1
  P  P3  1  0.95929900  0.37355400  0.64523500  1
  P  P4  1  0.59109200  0.83474700  0.88553000  1
  P  P5  1  0.40890800  0.16525300  0.11447000  1
  P  P6  1  0.40890800  0.66525300  0.38553000  1
  P  P7  1  0.59109200  0.33474700  0.61447000  1
  H  H0  1  0.82573600  0.95379300  0.62442000  1
  H  H1  1  0.17426400  0.04620700  0.37558000  1
  H  H2  1  0.17426400  0.54620700  0.12442000  1
  H  H3  1  0.82573600  0.45379300  0.87558000  1
  H  H4  1  0.44254300  0.96518100  0.70518900  1
  H  H5  1  0.55745700  0.03481900  0.29481100  1
  H  H6  1  0.55745700  0.53481900  0.20518900  1
  H  H7  1  0.44254300  0.46518100  0.79481100  1
  H  H8  1  0.26458400  0.98518300  0.63831200  1
  H  H9  1  0.73541600  0.01481700  0.36168800  1
  H  H10  1  0.73541600  0.51481700  0.13831200  1
  H  H11  1  0.26458400  0.48518300  0.86168800  1
  H  H12  1  0.66233100  0.92795300  0.53837100  1
  H  H13  1  0.33766900  0.07204700  0.46162900  1
  H  H14  1  0.33766900  0.57204700  0.03837100  1
  H  H15  1  0.66233100  0.42795300  0.96162900  1
  O  O0  1  0.57636600  0.73379100  0.78129900  1
  O  O1  1  0.42363400  0.26620900  0.21870100  1
  O  O2  1  0.42363400  0.76620900  0.28129900  1
  O  O3  1  0.57636600  0.23379100  0.71870100  1
  O  O4  1  0.95448900  0.77595400  0.74752800  1
  O  O5  1  0.04551100  0.22404600  0.25247200  1
  O  O6  1  0.04551100  0.72404600  0.24752800  1
  O  O7  1  0.95448900  0.27595400  0.75247200  1
  O  O8  1  0.94262700  0.51181000  0.69279500  1
  O  O9  1  0.05737300  0.48819000  0.30720500  1
  O  O10  1  0.05737300  0.98819000  0.19279500  1
  O  O11  1  0.94262700  0.01181000  0.80720500  1
  O  O12  1  0.89021200  0.63853200  0.44289700  1
  O  O13  1  0.10978800  0.36146800  0.55710300  1
  O  O14  1  0.10978800  0.86146800  0.94289700  1
  O  O15  1  0.89021200  0.13853200  0.05710300  1
  O  O16  1  0.78796100  0.83436000  0.94089700  1
  O  O17  1  0.21203900  0.16564000  0.05910300  1
  O  O18  1  0.21203900  0.66564000  0.44089700  1
  O  O19  1  0.78796100  0.33436000  0.55910300  1
  O  O20  1  0.77215900  0.89494100  0.56165200  1
  O  O21  1  0.22784100  0.10505900  0.43834800  1
  O  O22  1  0.22784100  0.60505900  0.06165200  1
  O  O23  1  0.77215900  0.39494100  0.93834800  1
  O  O24  1  0.37058900  0.94265800  0.63041900  1
  O  O25  1  0.62941100  0.05734200  0.36958100  1
  O  O26  1  0.62941100  0.55734200  0.13041900  1
  O  O27  1  0.37058900  0.44265800  0.86958100  1
  O  O28  1  0.52225200  0.69930000  0.49745000  1
  O  O29  1  0.47774800  0.30070000  0.50255000  1
  O  O30  1  0.47774800  0.80070000  0.99745000  1
  O  O31  1  0.52225200  0.19930000  0.00255000  1
  O  O32  1  0.57574300  0.97348600  0.83686200  1
  O  O33  1  0.42425700  0.02651400  0.16313800  1
  O  O34  1  0.42425700  0.52651400  0.33686200  1
  O  O35  1  0.57574300  0.47348600  0.66313800  1
loop_
_geom_bond_atom_site_label_1
_geom_bond_atom_site_label_2
_geom_bond_distance
_geom_bond_site_symmetry_2
K0 O6 2.681879 1_655
K0 O16 2.685037 1_554
K0 O2 2.704544 1_555
K0 O26 2.831155 1_555
K0 O10 2.893671 1_655
K0 O30 2.918999 1_554
K1 O7 2.681879 1_455
K1 O17 2.685037 1_556
K1 O3 2.704544 1_555
K1 O27 2.831155 1_555
K1 O11 2.893671 1_455
K1 O31 2.918999 1_556
K2 O4 2.681879 1_455
K2 O18 2.685037 1_555
K2 O0 2.704544 1_555
K2 O24 2.831155 1_555
K2 O8 2.893671 1_455
K2 O28 2.918999 1_555
K3 O5 2.681879 1_655
K3 O19 2.685037 1_555
K3 O1 2.704544 1_555
K3 O25 2.831155 1_555
K3 O9 2.893671 1_655
K3 O29 2.918999 1_555
Dy0 O12 2.262806 1_555
Dy0 O28 2.292634 1_555
Dy0 O4 2.304274 1_555
Dy0 O0 2.311728 1_555
Dy0 O35 2.340970 1_555
Dy0 O8 2.386156 1_555
Dy0 O20 2.476086 1_555
Dy1 O13 2.262806 1_555
Dy1 O29 2.292634 1_555
Dy1 O5 2.304274 1_555
Dy1 O1 2.311728 1_555
Dy1 O34 2.340970 1_555
Dy1 O9 2.386156 1_555
Dy1 O21 2.476086 1_555
Dy2 O14 2.262806 1_554
Dy2 O30 2.292634 1_554
Dy2 O6 2.304274 1_555
Dy2 O2 2.311728 1_555
Dy2 O33 2.340970 1_565
Dy2 O10 2.386156 1_555
Dy2 O22 2.476086 1_555
Dy3 O15 2.262806 1_556
Dy3 O31 2.292634 1_556
Dy3 O7 2.304274 1_555
Dy3 O3 2.311728 1_555
Dy3 O32 2.340970 1_545
Dy3 O11 2.386156 1_555
Dy3 O23 2.476086 1_555
H0 O20 0.978618 1_555
H1 O21 0.978618 1_555
H2 O22 0.978618 1_555
H3 O23 0.978618 1_555
H4 O24 0.995621 1_555
H4 O32 1.751693 1_555
H5 O25 0.995621 1_555
H5 O33 1.751693 1_555
H6 O26 0.995621 1_555
H6 O34 1.751693 1_555
H7 O27 0.995621 1_555
H7 O35 1.751693 1_555
H8 O24 0.972724 1_555
H8 K1 2.775767 1_565
H9 O25 0.972724 1_555
H9 K0 2.775767 1_545
H10 O26 0.972724 1_555
H10 K3 2.775767 1_555
H11 O27 0.972724 1_555
H11 K2 2.775767 1_555
H12 O20 0.980995 1_555
H13 O21 0.980995 1_555
H14 O22 0.980995 1_555
H15 O23 0.980995 1_555
O0 P4 1.529725 1_555
O1 P5 1.529725 1_555
O2 P6 1.529725 1_555
O3 P7 1.529725 1_555
O4 P0 1.530937 1_555
O5 P1 1.530937 1_555
O6 P2 1.530937 1_555
O7 P3 1.530937 1_555
O8 P3 1.537368 1_555
O9 P2 1.537368 1_555
O10 P1 1.537368 1_565
O11 P0 1.537368 1_545
O12 P2 1.520586 1_655
O13 P3 1.520586 1_455
O14 P0 1.520586 1_455
O15 P1 1.520586 1_655
O16 P4 1.646353 1_555
O16 P0 1.647108 1_555
O17 P5 1.646353 1_555
O17 P1 1.647108 1_555
O18 P6 1.646353 1_555
O18 P2 1.647108 1_555
O19 P7 1.646353 1_555
O19 P3 1.647108 1_555
O28 P6 1.515290 1_555
O29 P7 1.515290 1_555
O30 P4 1.515290 1_555
O31 P5 1.515290 1_555
O32 P4 1.544408 1_555
O33 P5 1.544408 1_555
O34 P6 1.544408 1_555
O35 P7 1.544408 1_555
