# generated using pymatgen
data_NiH7C3NO7
_symmetry_space_group_name_H-M   'P 1'
_cell_length_a   7.54974579
_cell_length_b   7.82630008
_cell_length_c   12.64378654
_cell_angle_alpha   90.00014967
_cell_angle_beta   90.00000604
_cell_angle_gamma   90.00032385
_symmetry_Int_Tables_number   1
_chemical_formula_structural   NiH7C3NO7
_chemical_formula_sum   'Ni4 H28 C12 N4 O28'
_cell_volume   747.07805529
_cell_formula_units_Z   4
loop_
 _symmetry_equiv_pos_site_id
 _symmetry_equiv_pos_as_xyz
  1  'x, y, z'
loop_
 _atom_site_type_symbol
 _atom_site_label
 _atom_site_symmetry_multiplicity
 _atom_site_fract_x
 _atom_site_fract_y
 _atom_site_fract_z
 _atom_site_occupancy
  Ni  Ni0  1  0.53263220  0.49234019  0.07971406  1
  Ni  Ni1  1  0.96736489  0.50764959  0.57970258  1
  Ni  Ni2  1  0.46737183  0.99235090  0.42027598  1
  Ni  Ni3  1  0.03263529  0.00765035  0.92026866  1
  H  H0  1  0.59107846  0.19766185  0.23157969  1
  H  H1  1  0.90892827  0.80236773  0.73156806  1
  H  H2  1  0.40892726  0.69763207  0.26841624  1
  H  H3  1  0.09106692  0.30236805  0.76840999  1
  H  H4  1  0.35843342  0.79946186  0.95616262  1
  H  H5  1  0.14156998  0.20053101  0.45615524  1
  H  H6  1  0.64156565  0.29948088  0.54381256  1
  H  H7  1  0.85843128  0.70054212  0.04382621  1
  H  H8  1  0.21635246  0.28705390  0.03013263  1
  H  H9  1  0.28364055  0.71294343  0.53013763  1
  H  H10  1  0.78363898  0.78705297  0.46984266  1
  H  H11  1  0.71635003  0.21294261  0.96984642  1
  H  H12  1  0.16026399  0.59912253  0.16417932  1
  H  H13  1  0.33974324  0.40088638  0.66417510  1
  H  H14  1  0.83973951  0.09912244  0.33579799  1
  H  H15  1  0.66026746  0.90087762  0.83580284  1
  H  H16  1  0.13945620  0.35753246  0.24197903  1
  H  H17  1  0.36053890  0.64247345  0.74198268  1
  H  H18  1  0.86054396  0.85752826  0.25800503  1
  H  H19  1  0.63946496  0.14246757  0.75800085  1
  H  H20  1  0.92797471  0.38913290  0.19516121  1
  H  H21  1  0.57201876  0.61087022  0.69515982  1
  H  H22  1  0.07202917  0.88914464  0.30482003  1
  H  H23  1  0.42797888  0.11086899  0.80481823  1
  H  H24  1  0.97943236  0.42922138  0.32425335  1
  H  H25  1  0.52057386  0.57078576  0.82425323  1
  H  H26  1  0.02057188  0.92921507  0.17572804  1
  H  H27  1  0.47943401  0.07077720  0.67572930  1
  C  C0  1  0.45263341  0.23576073  0.24476204  1
  C  C1  1  0.04736416  0.76424444  0.74476131  1
  C  C2  1  0.54736628  0.73574818  0.25522315  1
  C  C3  1  0.95263481  0.26423690  0.75521653  1
  C  C4  1  0.26903629  0.76720116  0.02153022  1
  C  C5  1  0.23097034  0.23280183  0.52151784  1
  C  C6  1  0.73096452  0.26720588  0.47844796  1
  C  C7  1  0.76903965  0.73279336  0.97845369  1
  C  C8  1  0.30879716  0.25765637  0.96583684  1
  C  C9  1  0.19119401  0.74235267  0.46584400  1
  C  C10  1  0.69119221  0.75765263  0.53413915  1
  C  C11  1  0.80880081  0.24234258  0.03414095  1
  N  N0  1  0.02643615  0.43180225  0.24760661  1
  N  N1  1  0.47355750  0.56819916  0.74760730  1
  N  N2  1  0.97356120  0.93180323  0.25237571  1
  N  N3  1  0.52644539  0.06819611  0.75237699  1
  O  O0  1  0.39118386  0.35826977  0.19029672  1
  O  O1  1  0.10880550  0.64171967  0.69030401  1
  O  O2  1  0.60881620  0.85826328  0.30968065  1
  O  O3  1  0.89119293  0.14172481  0.80968357  1
  O  O4  1  0.36180479  0.15720001  0.31257344  1
  O  O5  1  0.13819643  0.84279576  0.81257616  1
  O  O6  1  0.63819407  0.65719133  0.18740624  1
  O  O7  1  0.86180806  0.34276457  0.68738809  1
  O  O8  1  0.30308561  0.63433793  0.07555232  1
  O  O9  1  0.19692446  0.36567370  0.57553414  1
  O  O10  1  0.69691461  0.13433928  0.42443112  1
  O  O11  1  0.80308712  0.86565034  0.92442768  1
  O  O12  1  0.13735500  0.86168450  0.03969377  1
  O  O13  1  0.36264950  0.13832101  0.53968738  1
  O  O14  1  0.86265221  0.36168361  0.46027866  1
  O  O15  1  0.63736506  0.63830066  0.96028305  1
  O  O16  1  0.45323219  0.33708444  0.96020195  1
  O  O17  1  0.04675128  0.66293478  0.46021142  1
  O  O18  1  0.54675992  0.83707903  0.53977441  1
  O  O19  1  0.95323403  0.16292002  0.03977592  1
  O  O20  1  0.26340716  0.14230887  0.90040694  1
  O  O21  1  0.23658710  0.85769582  0.40041456  1
  O  O22  1  0.73658001  0.64230484  0.59956844  1
  O  O23  1  0.76340758  0.35768877  0.09957281  1
  O  O24  1  0.07025003  0.60244600  0.22335612  1
  O  O25  1  0.42974563  0.39756085  0.72336201  1
  O  O26  1  0.92974971  0.10244569  0.27661593  1
  O  O27  1  0.57024674  0.89755678  0.77662387  1
loop_
_geom_bond_atom_site_label_1
_geom_bond_atom_site_label_2
_geom_bond_distance
_geom_bond_site_symmetry_2
Ni0 O16 2.029561 1_554
Ni0 O6 2.038072 1_555
Ni0 O0 2.048487 1_555
Ni0 O23 2.051634 1_555
Ni0 O15 2.051930 1_554
Ni0 O8 2.059410 1_555
Ni1 O17 2.029476 1_655
Ni1 O7 2.038173 1_555
Ni1 O1 2.048613 1_655
Ni1 O22 2.051721 1_555
Ni1 O14 2.051825 1_555
Ni1 O9 2.059402 1_655
Ni2 O18 2.029490 1_555
Ni2 O4 2.038175 1_565
Ni2 O2 2.048652 1_555
Ni2 O21 2.051702 1_555
Ni2 O13 2.051759 1_565
Ni2 O10 2.059333 1_565
Ni3 O19 2.029587 1_456
Ni3 O5 2.038096 1_545
Ni3 O3 2.048507 1_455
Ni3 O20 2.051635 1_555
Ni3 O12 2.051865 1_546
Ni3 O11 2.059418 1_445
H12 O24 1.011109 1_555
H12 O8 1.579341 1_555
H13 O25 1.011145 1_555
H13 O9 1.579447 1_555
H14 O26 1.011139 1_555
H14 O10 1.579416 1_555
H15 O27 1.011162 1_555
H15 O11 1.579330 1_555
H16 N0 1.034893 1_555
H17 N1 1.034901 1_555
H18 N2 1.034894 1_555
H19 N3 1.034888 1_555
H20 N0 1.050623 1_655
H20 O23 1.750693 1_555
H21 N1 1.050644 1_555
H21 O22 1.750678 1_555
H22 N2 1.050627 1_455
H22 O21 1.750705 1_555
H23 N3 1.050629 1_555
H23 O20 1.750717 1_555
H24 N0 1.032232 1_655
H25 N1 1.032256 1_555
H26 N2 1.032262 1_455
H27 N3 1.032263 1_555
C0 H0 1.099630 1_555
C0 O4 1.258324 1_555
C0 O0 1.268368 1_555
C1 H1 1.099637 1_455
C1 O5 1.258330 1_555
C1 O1 1.268381 1_555
C2 H2 1.099641 1_555
C2 O6 1.258354 1_555
C2 O2 1.268344 1_555
C3 H3 1.099624 1_655
C3 O7 1.258340 1_555
C3 O3 1.268373 1_555
C4 H4 1.096523 1_554
C4 O12 1.260118 1_555
C4 O8 1.270385 1_555
C5 H5 1.096508 1_555
C5 O13 1.260108 1_555
C5 O9 1.270393 1_555
C6 H6 1.096529 1_555
C6 O14 1.260138 1_555
C6 O10 1.270367 1_555
C7 H7 1.096529 1_556
C7 O15 1.260131 1_555
C7 O11 1.270367 1_555
C8 H8 1.095866 1_556
C8 O16 1.257206 1_555
C8 O20 1.271521 1_555
C9 H9 1.095874 1_555
C9 O17 1.257215 1_555
C9 O21 1.271503 1_555
C10 H10 1.095886 1_555
C10 O18 1.257188 1_555
C10 O22 1.271519 1_555
C11 H11 1.095886 1_554
C11 O19 1.257179 1_555
C11 O23 1.271539 1_555
N0 O24 1.409615 1_555
N1 O25 1.409555 1_555
N2 O26 1.409575 1_565
N3 O27 1.409554 1_545
