# generated using pymatgen
data_Hf2Al3Ni
_symmetry_space_group_name_H-M   'P 1'
_cell_length_a   5.07445082
_cell_length_b   5.07445082
_cell_length_c   5.07445039
_cell_angle_alpha   61.84820933
_cell_angle_beta   61.84820933
_cell_angle_gamma   61.84822782
_symmetry_Int_Tables_number   1
_chemical_formula_structural   Hf2Al3Ni
_chemical_formula_sum   'Hf2 Al3 Ni1'
_cell_volume   96.21960764
_cell_formula_units_Z   1
loop_
 _symmetry_equiv_pos_site_id
 _symmetry_equiv_pos_as_xyz
  1  'x, y, z'
loop_
 _atom_site_type_symbol
 _atom_site_label
 _atom_site_symmetry_multiplicity
 _atom_site_fract_x
 _atom_site_fract_y
 _atom_site_fract_z
 _atom_site_occupancy
  Hf  Hf0  1  0.62654462  0.62654462  0.62654462  1
  Hf  Hf1  1  0.37345538  0.37345538  0.37345538  1
  Al  Al0  1  -0.00000000  0.50000000  -0.00000000  1
  Al  Al1  1  0.50000000  -0.00000000  -0.00000000  1
  Al  Al2  1  -0.00000000  -0.00000000  0.50000000  1
  Ni  Ni0  1  -0.00000000  -0.00000000  -0.00000000  1
loop_
_geom_bond_atom_site_label_1
_geom_bond_atom_site_label_2
_geom_bond_distance
_geom_bond_site_symmetry_2
Hf0 Ni0 3.051064 1_665
Hf0 Ni0 3.051065 1_656
Hf0 Ni0 3.051065 1_566
Hf0 Hf1 3.101193 1_555
Hf0 Hf1 3.167664 1_556
Hf0 Hf1 3.167664 1_655
Hf0 Hf1 3.167664 1_565
Hf1 Ni0 3.051064 1_556
Hf1 Ni0 3.051065 1_565
Hf1 Ni0 3.051065 1_655
Al0 Ni0 2.537225 1_555
Al0 Ni0 2.537225 1_565
Al0 Al2 2.607771 1_555
Al0 Al2 2.607771 1_564
Al0 Al1 2.607772 1_465
Al0 Al1 2.607772 1_555
Al0 Hf0 2.947414 1_454
Al0 Hf1 2.947414 1_555
Al0 Hf0 3.033945 1_554
Al0 Hf1 3.033945 1_455
Al0 Hf0 3.033945 1_455
Al0 Hf1 3.033945 1_554
Al1 Ni0 2.537225 1_555
Al1 Ni0 2.537225 1_655
Al1 Al2 2.607771 1_555
Al1 Al2 2.607771 1_654
Al1 Hf0 2.947414 1_544
Al1 Hf1 2.947414 1_555
Al1 Hf1 3.033945 1_545
Al1 Hf0 3.033945 1_554
Al1 Hf0 3.033945 1_545
Al1 Hf1 3.033945 1_554
Al2 Ni0 2.537225 1_556
Al2 Ni0 2.537225 1_555
Al2 Hf0 2.947414 1_445
Al2 Hf1 2.947414 1_555
Al2 Hf0 3.033945 1_545
Al2 Hf0 3.033945 1_455
Al2 Hf1 3.033945 1_545
Al2 Hf1 3.033945 1_455
