# generated using pymatgen
data_Cr2O3
_symmetry_space_group_name_H-M   'P 1'
_cell_length_a   10.78365311
_cell_length_b   5.25186355
_cell_length_c   6.22700684
_cell_angle_alpha   120.55295131
_cell_angle_beta   149.98307371
_cell_angle_gamma   54.05033977
_symmetry_Int_Tables_number   1
_chemical_formula_structural   Cr2O3
_chemical_formula_sum   'Cr4 O6'
_cell_volume   142.81882296
_cell_formula_units_Z   2
loop_
 _symmetry_equiv_pos_site_id
 _symmetry_equiv_pos_as_xyz
  1  'x, y, z'
loop_
 _atom_site_type_symbol
 _atom_site_label
 _atom_site_symmetry_multiplicity
 _atom_site_fract_x
 _atom_site_fract_y
 _atom_site_fract_z
 _atom_site_occupancy
  Cr  Cr0  1  0.73951500  0.23207000  0.77991300  1
  Cr  Cr1  1  0.26048500  0.76793000  0.22008700  1
  Cr  Cr2  1  0.95960200  0.73207000  0.22008700  1
  Cr  Cr3  1  0.04039800  0.26793000  0.77991300  1
  O  O0  1  0.62839400  0.69305700  0.78637100  1
  O  O1  1  0.07617000  0.25000000  0.15234000  1
  O  O2  1  0.15797800  0.80694300  0.78637100  1
  O  O3  1  0.37160600  0.30694300  0.21362900  1
  O  O4  1  0.92383000  0.75000000  0.84766000  1
  O  O5  1  0.84202200  0.19305700  0.21362900  1
loop_
_geom_bond_atom_site_label_1
_geom_bond_atom_site_label_2
_geom_bond_distance
_geom_bond_site_symmetry_2
Cr0 O3 1.918322 1_555
Cr0 O5 1.919533 1_556
Cr0 O0 1.969033 1_555
Cr0 O1 2.041094 1_656
Cr0 O4 2.064867 1_545
Cr1 O0 1.918322 1_555
Cr1 O2 1.919533 1_554
Cr1 O3 1.969033 1_555
Cr1 O4 2.041094 1_454
Cr1 O1 2.064867 1_565
Cr2 O2 1.918318 1_655
Cr2 O0 1.919525 1_554
Cr2 O5 1.969032 1_565
Cr2 O4 2.041093 1_554
Cr2 O1 2.064867 1_655
Cr3 O5 1.918318 1_455
Cr3 O3 1.919525 1_556
Cr3 O2 1.969032 1_545
Cr3 O1 2.041093 1_556
Cr3 O4 2.064867 1_455
