# generated using pymatgen
data_Ca2MnO3
_symmetry_space_group_name_H-M   'P 1'
_cell_length_a   3.36131411
_cell_length_b   14.07542500
_cell_length_c   6.72262963
_cell_angle_alpha   90.00000000
_cell_angle_beta   90.00000000
_cell_angle_gamma   90.00000000
_symmetry_Int_Tables_number   1
_chemical_formula_structural   Ca2MnO3
_chemical_formula_sum   'Ca8 Mn4 O12'
_cell_volume   318.06054651
_cell_formula_units_Z   4
loop_
 _symmetry_equiv_pos_site_id
 _symmetry_equiv_pos_as_xyz
  1  'x, y, z'
loop_
 _atom_site_type_symbol
 _atom_site_label
 _atom_site_symmetry_multiplicity
 _atom_site_fract_x
 _atom_site_fract_y
 _atom_site_fract_z
 _atom_site_occupancy
  Ca  Ca0  1  0.50000100  0.16264900  0.25000000  1
  Ca  Ca1  1  0.50000100  0.16264900  0.75000000  1
  Ca  Ca2  1  0.00000100  0.66264900  0.50000000  1
  Ca  Ca3  1  0.00000100  0.66264900  0.00000000  1
  Ca  Ca4  1  0.00000000  0.33735100  0.00000000  1
  Ca  Ca5  1  0.00000000  0.33735100  0.50000000  1
  Ca  Ca6  1  0.50000000  0.83735100  0.25000000  1
  Ca  Ca7  1  0.50000000  0.83735100  0.75000000  1
  Mn  Mn0  1  0.00000000  0.00000000  0.50000000  1
  Mn  Mn1  1  0.50000000  0.50000000  0.25000000  1
  Mn  Mn2  1  0.00000000  0.00000000  0.00000000  1
  Mn  Mn3  1  0.50000000  0.50000000  0.75000000  1
  O  O0  1  0.50000000  0.00000000  0.25000000  1
  O  O1  1  0.50000000  0.00000000  0.75000000  1
  O  O2  1  0.00000000  0.50000000  0.50000000  1
  O  O3  1  0.00000000  0.50000000  0.00000000  1
  O  O4  1  0.00000100  0.16133200  0.00000000  1
  O  O5  1  0.00000100  0.16133200  0.50000000  1
  O  O6  1  0.50000100  0.66133200  0.25000000  1
  O  O7  1  0.50000100  0.66133200  0.75000000  1
  O  O8  1  0.50000000  0.33866800  0.25000000  1
  O  O9  1  0.50000000  0.33866800  0.75000000  1
  O  O10  1  0.00000000  0.83866800  0.50000000  1
  O  O11  1  0.00000000  0.83866800  0.00000000  1
loop_
_geom_bond_atom_site_label_1
_geom_bond_atom_site_label_2
_geom_bond_distance
_geom_bond_site_symmetry_2
Ca0 O0 2.289354 1_555
Ca0 O4 2.376881 1_655
Ca0 O5 2.376881 1_555
Ca0 O5 2.376881 1_655
Ca0 O4 2.376881 1_555
Ca0 O8 2.477542 1_555
Ca1 O1 2.289354 1_555
Ca1 O4 2.376881 1_556
Ca1 O4 2.376881 1_656
Ca1 O5 2.376881 1_555
Ca1 O5 2.376881 1_655
Ca1 O9 2.477542 1_555
Ca2 O2 2.289354 1_555
Ca2 O7 2.376881 1_555
Ca2 O6 2.376881 1_455
Ca2 O7 2.376881 1_455
Ca2 O6 2.376881 1_555
Ca2 O10 2.477542 1_555
Ca3 O3 2.289354 1_555
Ca3 O6 2.376881 1_455
Ca3 O7 2.376881 1_554
Ca3 O7 2.376881 1_454
Ca3 O6 2.376881 1_555
Ca3 O11 2.477542 1_555
Ca4 O3 2.289354 1_555
Ca4 O9 2.376881 1_454
Ca4 O8 2.376881 1_455
Ca4 O9 2.376881 1_554
Ca4 O8 2.376881 1_555
Ca4 O4 2.477542 1_555
Ca5 O2 2.289354 1_555
Ca5 O9 2.376881 1_455
Ca5 O9 2.376881 1_555
Ca5 O8 2.376881 1_455
Ca5 O8 2.376881 1_555
Ca5 O5 2.477542 1_555
Ca6 O0 2.289354 1_565
Ca6 O10 2.376881 1_655
Ca6 O11 2.376881 1_655
Ca6 O11 2.376881 1_555
Ca6 O10 2.376881 1_555
Ca6 O6 2.477542 1_555
Ca7 O1 2.289354 1_565
Ca7 O10 2.376881 1_655
Ca7 O11 2.376881 1_556
Ca7 O11 2.376881 1_656
Ca7 O10 2.376881 1_555
Ca7 O7 2.477542 1_555
Mn0 O10 2.270816 1_545
Mn0 O5 2.270816 1_555
Mn0 O1 2.376808 1_555
Mn0 O0 2.376808 1_455
Mn0 O1 2.376808 1_455
Mn0 O0 2.376808 1_555
Mn1 O8 2.270816 1_555
Mn1 O6 2.270816 1_555
Mn1 O3 2.376808 1_655
Mn1 O2 2.376808 1_555
Mn1 O3 2.376808 1_555
Mn1 O2 2.376808 1_655
Mn2 O11 2.270816 1_545
Mn2 O4 2.270816 1_555
Mn2 O1 2.376808 1_554
Mn2 O0 2.376808 1_455
Mn2 O1 2.376808 1_454
Mn2 O0 2.376808 1_555
Mn3 O9 2.270816 1_555
Mn3 O7 2.270816 1_555
Mn3 O3 2.376808 1_656
Mn3 O2 2.376808 1_555
Mn3 O3 2.376808 1_556
Mn3 O2 2.376808 1_655
