# generated using pymatgen
data_LaCu9Sn4
_symmetry_space_group_name_H-M   'P 1'
_cell_length_a   8.73002189
_cell_length_b   8.73002189
_cell_length_c   8.73002189
_cell_angle_alpha   117.40983471
_cell_angle_beta   117.40983471
_cell_angle_gamma   94.54808143
_symmetry_Int_Tables_number   1
_chemical_formula_structural   LaCu9Sn4
_chemical_formula_sum   'La2 Cu18 Sn8'
_cell_volume   487.22720015
_cell_formula_units_Z   2
loop_
 _symmetry_equiv_pos_site_id
 _symmetry_equiv_pos_as_xyz
  1  'x, y, z'
loop_
 _atom_site_type_symbol
 _atom_site_label
 _atom_site_symmetry_multiplicity
 _atom_site_fract_x
 _atom_site_fract_y
 _atom_site_fract_z
 _atom_site_occupancy
  La  La0  1  0.75000000  0.75000000  0.00000000  1
  La  La1  1  0.25000000  0.25000000  0.00000000  1
  Cu  Cu0  1  0.33079300  0.83079300  0.88304800  1
  Cu  Cu1  1  0.66920700  0.16920700  0.11695200  1
  Cu  Cu2  1  0.94774500  0.44774500  0.11695200  1
  Cu  Cu3  1  0.83079300  0.94774500  0.50000000  1
  Cu  Cu4  1  0.55225500  0.66920700  0.50000000  1
  Cu  Cu5  1  0.05225500  0.55225500  0.88304800  1
  Cu  Cu6  1  0.16920700  0.05225500  0.50000000  1
  Cu  Cu7  1  0.44774500  0.33079300  0.50000000  1
  Cu  Cu8  1  0.00000000  0.50000000  0.50000000  1
  Cu  Cu9  1  0.50000000  0.00000000  0.50000000  1
  Cu  Cu10  1  0.78515600  0.28515600  0.71205200  1
  Cu  Cu11  1  0.21484400  0.71484400  0.28794800  1
  Cu  Cu12  1  0.57310400  0.07310400  0.28794800  1
  Cu  Cu13  1  0.28515600  0.57310400  0.50000000  1
  Cu  Cu14  1  0.92689600  0.21484400  0.50000000  1
  Cu  Cu15  1  0.42689600  0.92689600  0.71205200  1
  Cu  Cu16  1  0.71484400  0.42689600  0.50000000  1
  Cu  Cu17  1  0.07310400  0.78515600  0.50000000  1
  Sn  Sn0  1  0.71794600  0.54641500  0.26436100  1
  Sn  Sn1  1  0.28205400  0.45358500  0.73563900  1
  Sn  Sn2  1  0.54641500  0.28205400  0.82846900  1
  Sn  Sn3  1  0.21794600  0.95358500  0.17153100  1
  Sn  Sn4  1  0.45358500  0.71794600  0.17153100  1
  Sn  Sn5  1  0.78205400  0.04641500  0.82846900  1
  Sn  Sn6  1  0.04641500  0.21794600  0.26436100  1
  Sn  Sn7  1  0.95358500  0.78205400  0.73563900  1
loop_
_geom_bond_atom_site_label_1
_geom_bond_atom_site_label_2
_geom_bond_distance
_geom_bond_site_symmetry_2
La0 Sn7 3.585481 1_554
La0 Sn3 3.585481 1_655
La0 Sn5 3.585481 1_564
La0 Sn6 3.585481 1_665
La0 Sn0 3.585481 1_555
La0 Sn2 3.585481 1_554
La0 Sn4 3.585481 1_555
La0 Sn1 3.585481 1_554
La1 Sn1 3.585481 1_554
La1 Sn2 3.585481 1_554
La1 Sn4 3.585481 1_555
La1 Sn0 3.585481 1_555
La1 Sn6 3.585481 1_555
La1 Sn3 3.585481 1_545
La1 Sn7 3.585481 1_444
La1 Sn5 3.585481 1_454
Cu0 Cu15 2.414712 1_555
Cu0 Cu12 2.639267 1_566
Cu0 Sn7 2.837802 1_455
Cu0 Sn1 2.837802 1_555
Cu0 Cu13 2.847271 1_555
Cu0 Cu17 2.847271 1_555
Cu0 Sn4 2.903186 1_556
Cu0 Sn3 2.903186 1_556
Cu0 Cu8 2.959155 1_555
Cu0 Cu1 3.022118 1_566
Cu0 Cu5 3.299703 1_555
Cu0 La1 3.544768 1_566
Cu0 La0 3.544768 1_556
Cu1 Cu12 2.414712 1_555
Cu1 Cu15 2.639267 1_544
Cu1 Sn0 2.837802 1_555
Cu1 Sn6 2.837802 1_655
Cu1 Cu14 2.847271 1_555
Cu1 Cu16 2.847271 1_555
Cu1 Sn5 2.903186 1_554
Cu1 Sn2 2.903186 1_554
Cu1 Cu8 2.959155 1_655
Cu1 Cu2 3.299703 1_555
Cu1 La1 3.544768 1_555
Cu1 La0 3.544768 1_545
Cu2 Sn6 2.837802 1_655
Cu2 Sn0 2.837802 1_555
Cu2 Sn2 2.903186 1_554
Cu2 Sn5 2.903186 1_554
Cu2 Cu8 2.959155 1_655
Cu2 Cu5 3.022118 1_654
Cu2 La0 3.544768 1_555
Cu2 La1 3.544768 1_655
Cu3 Sn5 2.837802 1_565
Cu3 Sn4 2.837802 1_555
Cu3 Sn7 2.903186 1_555
Cu3 Sn0 2.903186 1_555
Cu3 Cu9 2.959155 1_565
Cu3 Cu6 3.022118 1_665
Cu3 Cu4 3.299703 1_555
Cu3 La1 3.544768 1_666
Cu3 La0 3.544768 1_555
Cu4 Sn4 2.837802 1_555
Cu4 Sn5 2.837802 1_565
Cu4 Sn7 2.903186 1_555
Cu4 Sn0 2.903186 1_555
Cu4 Cu9 2.959155 1_565
Cu4 Cu7 3.022118 1_555
Cu4 La1 3.544768 1_555
Cu4 La0 3.544768 1_556
Cu5 Sn7 2.837802 1_455
Cu5 Sn1 2.837802 1_555
Cu5 Sn4 2.903186 1_556
Cu5 Sn3 2.903186 1_556
Cu5 Cu8 2.959155 1_555
Cu5 La1 3.544768 1_556
Cu5 La0 3.544768 1_456
Cu6 Sn2 2.837802 1_555
Cu6 Sn3 2.837802 1_545
Cu6 Sn1 2.903186 1_555
Cu6 Sn6 2.903186 1_555
Cu6 Cu9 2.959155 1_555
Cu6 Cu7 3.299703 1_555
Cu6 La0 3.544768 1_445
Cu6 La1 3.544768 1_556
Cu7 Sn3 2.837802 1_545
Cu7 Sn2 2.837802 1_555
Cu7 Sn1 2.903186 1_555
Cu7 Sn6 2.903186 1_555
Cu7 Cu9 2.959155 1_555
Cu7 La0 3.544768 1_556
Cu7 La1 3.544768 1_555
Cu8 Sn7 2.592507 1_455
Cu8 Sn1 2.592507 1_555
Cu8 Sn0 2.592507 1_455
Cu8 Sn6 2.592507 1_555
Cu9 Sn4 2.592507 1_545
Cu9 Sn5 2.592507 1_555
Cu9 Sn2 2.592507 1_555
Cu9 Sn3 2.592507 1_545
Cu10 Cu5 2.414712 1_655
Cu10 Cu9 2.520425 1_555
Cu10 Cu14 2.553080 1_555
Cu10 Cu16 2.553080 1_555
Cu10 Cu2 2.639267 1_556
Cu10 Sn5 2.710028 1_555
Cu10 Sn2 2.710028 1_555
Cu10 Cu12 2.719837 1_555
Cu10 Cu3 2.847271 1_545
Cu10 Cu7 2.847271 1_555
Cu10 La1 3.794346 1_656
Cu10 La0 3.794346 1_556
Cu11 Cu2 2.414712 1_455
Cu11 Cu9 2.520425 1_565
Cu11 Cu17 2.553080 1_555
Cu11 Cu13 2.553080 1_555
Cu11 Cu5 2.639267 1_554
Cu11 Sn4 2.710028 1_555
Cu11 Sn3 2.710028 1_555
Cu11 Cu15 2.719837 1_555
Cu11 Cu6 2.847271 1_565
Cu11 Cu4 2.847271 1_555
Cu11 La1 3.794346 1_555
Cu11 La0 3.794346 1_455
Cu12 Cu9 2.520425 1_555
Cu12 Cu14 2.553080 1_555
Cu12 Cu16 2.553080 1_555
Cu12 Sn3 2.710028 1_545
Cu12 Sn4 2.710028 1_545
Cu12 Cu7 2.847271 1_555
Cu12 Cu3 2.847271 1_545
Cu12 La1 3.794346 1_555
Cu12 La0 3.794346 1_545
Cu13 Cu4 2.414712 1_555
Cu13 Cu8 2.520425 1_555
Cu13 Cu15 2.553080 1_555
Cu13 Cu7 2.639267 1_555
Cu13 Sn6 2.710028 1_555
Cu13 Sn1 2.710028 1_555
Cu13 Cu17 2.719837 1_555
Cu13 Cu2 2.847271 1_455
Cu13 La0 3.794346 1_556
Cu13 La1 3.794346 1_555
Cu14 Cu3 2.414712 1_545
Cu14 Cu8 2.520425 1_655
Cu14 Cu6 2.639267 1_655
Cu14 Sn1 2.710028 1_655
Cu14 Sn6 2.710028 1_655
Cu14 Cu16 2.719837 1_555
Cu14 Cu5 2.847271 1_655
Cu14 La0 3.794346 1_545
Cu14 La1 3.794346 1_656
Cu15 Cu9 2.520425 1_565
Cu15 Cu17 2.553080 1_555
Cu15 Sn5 2.710028 1_565
Cu15 Sn2 2.710028 1_565
Cu15 Cu4 2.847271 1_555
Cu15 Cu6 2.847271 1_565
Cu15 La0 3.794346 1_556
Cu15 La1 3.794346 1_566
Cu16 Cu7 2.414712 1_555
Cu16 Cu8 2.520425 1_655
Cu16 Cu4 2.639267 1_555
Cu16 Sn7 2.710028 1_555
Cu16 Sn0 2.710028 1_555
Cu16 Cu5 2.847271 1_655
Cu16 La1 3.794346 1_555
Cu16 La0 3.794346 1_556
Cu17 Cu6 2.414712 1_565
Cu17 Cu8 2.520425 1_555
Cu17 Cu3 2.639267 1_455
Cu17 Sn0 2.710028 1_455
Cu17 Sn7 2.710028 1_455
Cu17 Cu2 2.847271 1_455
Cu17 La1 3.794346 1_566
Cu17 La0 3.794346 1_455
Sn0 Sn2 2.858125 1_554
Sn0 Sn4 2.858125 1_555
Sn0 Sn7 3.022371 1_555
Sn1 Sn4 2.858125 1_556
Sn1 Sn2 2.858125 1_555
Sn1 Sn6 3.022371 1_555
Sn2 Sn5 3.022371 1_555
Sn3 Sn6 2.858125 1_565
Sn3 Sn7 2.858125 1_454
Sn3 Sn4 3.022371 1_555
Sn5 Sn6 2.858125 1_656
Sn5 Sn7 2.858125 1_545
