# generated using pymatgen
data_NaZrNb(PO4)3
_symmetry_space_group_name_H-M   'P 1'
_cell_length_a   9.15139745
_cell_length_b   9.15139745
_cell_length_c   9.15139694
_cell_angle_alpha   58.39614371
_cell_angle_beta   58.39614371
_cell_angle_gamma   58.39614651
_symmetry_Int_Tables_number   1
_chemical_formula_structural   NaZrNb(PO4)3
_chemical_formula_sum   'Na2 Zr2 Nb2 P6 O24'
_cell_volume   522.04012962
_cell_formula_units_Z   2
loop_
 _symmetry_equiv_pos_site_id
 _symmetry_equiv_pos_as_xyz
  1  'x, y, z'
loop_
 _atom_site_type_symbol
 _atom_site_label
 _atom_site_symmetry_multiplicity
 _atom_site_fract_x
 _atom_site_fract_y
 _atom_site_fract_z
 _atom_site_occupancy
  Na  Na0  1  0.49800300  0.49800300  0.49800300  1
  Na  Na1  1  0.99800300  0.99800300  0.99800300  1
  Zr  Zr0  1  0.64355500  0.64355500  0.64355500  1
  Zr  Zr1  1  0.14355500  0.14355500  0.14355500  1
  Nb  Nb0  1  0.35515900  0.35515900  0.35515900  1
  Nb  Nb1  1  0.85515900  0.85515900  0.85515900  1
  P  P0  1  0.96194000  0.54037700  0.24780900  1
  P  P1  1  0.24780900  0.96194000  0.54037700  1
  P  P2  1  0.54037700  0.24780900  0.96194000  1
  P  P3  1  0.74780900  0.04037700  0.46194000  1
  P  P4  1  0.46194000  0.74780900  0.04037700  1
  P  P5  1  0.04037700  0.46194000  0.74780900  1
  O  O0  1  0.21981200  0.44021300  0.58110200  1
  O  O1  1  0.58110200  0.21981200  0.44021300  1
  O  O2  1  0.44021300  0.58110200  0.21981200  1
  O  O3  1  0.08110200  0.94021300  0.71981200  1
  O  O4  1  0.71981200  0.08110200  0.94021300  1
  O  O5  1  0.94021300  0.71981200  0.08110200  1
  O  O6  1  0.78273800  0.56144000  0.41273500  1
  O  O7  1  0.41273500  0.78273800  0.56144000  1
  O  O8  1  0.56144000  0.41273500  0.78273800  1
  O  O9  1  0.91273500  0.06144000  0.28273800  1
  O  O10  1  0.28273800  0.91273500  0.06144000  1
  O  O11  1  0.06144000  0.28273800  0.91273500  1
  O  O12  1  0.12257000  0.50826600  0.28937200  1
  O  O13  1  0.28937200  0.12257000  0.50826600  1
  O  O14  1  0.50826600  0.28937200  0.12257000  1
  O  O15  1  0.78937200  0.00826600  0.62257000  1
  O  O16  1  0.62257000  0.78937200  0.00826600  1
  O  O17  1  0.00826600  0.62257000  0.78937200  1
  O  O18  1  0.87859600  0.49820500  0.70810800  1
  O  O19  1  0.70810800  0.87859600  0.49820500  1
  O  O20  1  0.49820500  0.70810800  0.87859600  1
  O  O21  1  0.20810800  0.99820500  0.37859600  1
  O  O22  1  0.37859600  0.20810800  0.99820500  1
  O  O23  1  0.99820500  0.37859600  0.20810800  1
loop_
_geom_bond_atom_site_label_1
_geom_bond_atom_site_label_2
_geom_bond_distance
_geom_bond_site_symmetry_2
Na0 O2 2.509934 1_555
Na0 O0 2.509934 1_555
Na0 O1 2.509934 1_555
Na0 O8 2.591392 1_555
Na0 O6 2.591392 1_555
Na0 O7 2.591392 1_555
Na1 O3 2.509934 1_655
Na1 O5 2.509934 1_556
Na1 O4 2.509934 1_565
Na1 O9 2.591392 1_566
Na1 O11 2.591392 1_665
Na1 O10 2.591392 1_656
Nb0 O14 2.046810 1_555
Nb0 O13 2.046811 1_555
Nb0 O12 2.046811 1_555
Nb0 O0 2.099405 1_555
Nb0 O2 2.099405 1_555
Nb0 O1 2.099405 1_555
Nb1 O15 2.046810 1_565
Nb1 O16 2.046811 1_556
Nb1 O17 2.046811 1_655
Nb1 O5 2.099405 1_556
Nb1 O3 2.099405 1_655
Nb1 O4 2.099405 1_565
O0 P5 1.553553 1_555
O1 P3 1.553553 1_555
O2 P4 1.553553 1_555
O3 P1 1.553553 1_555
O4 P2 1.553553 1_555
O5 P0 1.553553 1_555
O6 P0 1.544016 1_555
O6 Zr0 2.118864 1_555
O7 P1 1.544017 1_555
O7 Zr0 2.118864 1_555
O8 P2 1.544016 1_555
O8 Zr0 2.118864 1_555
O9 P3 1.544016 1_555
O9 Zr1 2.118864 1_655
O10 P4 1.544017 1_555
O10 Zr1 2.118864 1_565
O11 P5 1.544016 1_555
O11 Zr1 2.118864 1_556
O12 P0 1.551778 1_455
O13 P1 1.551778 1_545
O14 P2 1.551778 1_554
O15 P3 1.551778 1_555
O16 P4 1.551778 1_555
O17 P5 1.551778 1_555
O18 P5 1.535092 1_655
O18 Zr0 2.062625 1_555
O19 P3 1.535092 1_565
O19 Zr0 2.062625 1_555
O20 P4 1.535091 1_556
O20 Zr0 2.062625 1_555
O21 P1 1.535091 1_555
O21 Zr1 2.062625 1_565
O22 P2 1.535092 1_555
O22 Zr1 2.062625 1_556
O23 P0 1.535092 1_555
O23 Zr1 2.062625 1_655
