# generated using pymatgen
data_Li9Mn2Co5O16
_symmetry_space_group_name_H-M   'P 1'
_cell_length_a   5.02634800
_cell_length_b   5.86307769
_cell_length_c   9.88565286
_cell_angle_alpha   88.12617177
_cell_angle_beta   80.39607299
_cell_angle_gamma   88.08582609
_symmetry_Int_Tables_number   1
_chemical_formula_structural   Li9Mn2Co5O16
_chemical_formula_sum   'Li9 Mn2 Co5 O16'
_cell_volume   286.97672867
_cell_formula_units_Z   1
loop_
 _symmetry_equiv_pos_site_id
 _symmetry_equiv_pos_as_xyz
  1  'x, y, z'
loop_
 _atom_site_type_symbol
 _atom_site_label
 _atom_site_symmetry_multiplicity
 _atom_site_fract_x
 _atom_site_fract_y
 _atom_site_fract_z
 _atom_site_occupancy
  Li  Li0  1  0.24651700  0.99892200  0.25882300  1
  Li  Li1  1  0.26321500  0.25295100  0.73104800  1
  Li  Li2  1  0.26019400  0.50593400  0.26151000  1
  Li  Li3  1  0.74253600  0.25770000  0.26688000  1
  Li  Li4  1  0.73980600  0.49406600  0.73849000  1
  Li  Li5  1  0.73678500  0.74704900  0.26895200  1
  Li  Li6  1  0.25746400  0.74230000  0.73312000  1
  Li  Li7  1  0.75348300  0.00107800  0.74117700  1
  Li  Li8  1  0.50000000  0.50000000  0.50000000  1
  Mn  Mn0  1  0.00000000  0.00000000  0.00000000  1
  Mn  Mn1  1  0.00000000  0.50000000  0.00000000  1
  Co  Co0  1  0.98185500  0.25965600  0.50329200  1
  Co  Co1  1  0.01814500  0.74034400  0.49670800  1
  Co  Co2  1  0.49984300  0.75177700  0.00123800  1
  Co  Co3  1  0.50000000  0.00000000  0.50000000  1
  Co  Co4  1  0.50015700  0.24822300  0.99876200  1
  O  O0  1  0.14537600  0.76866300  0.11215300  1
  O  O1  1  0.13649700  0.00253800  0.61581000  1
  O  O2  1  0.12949000  0.24333700  0.10458800  1
  O  O3  1  0.63294400  0.99401500  0.10449800  1
  O  O4  1  0.63774200  0.24573900  0.61997300  1
  O  O5  1  0.62183800  0.48993100  0.10610400  1
  O  O6  1  0.10200900  0.50849400  0.62428900  1
  O  O7  1  0.62320000  0.77560200  0.61067000  1
  O  O8  1  0.37680000  0.22439800  0.38933000  1
  O  O9  1  0.37816200  0.51006900  0.89389600  1
  O  O10  1  0.36225800  0.75426100  0.38002700  1
  O  O11  1  0.89799100  0.49150600  0.37571100  1
  O  O12  1  0.87051000  0.75666300  0.89541200  1
  O  O13  1  0.86350300  0.99746200  0.38419000  1
  O  O14  1  0.36705600  0.00598500  0.89550200  1
  O  O15  1  0.85462400  0.23133700  0.88784700  1
loop_
_geom_bond_atom_site_label_1
_geom_bond_atom_site_label_2
_geom_bond_distance
_geom_bond_site_symmetry_2
Li0 O10 1.973880 1_555
Li0 O8 2.071767 1_565
Li0 O13 2.108687 1_455
Li0 O0 2.145487 1_555
Li0 O2 2.196444 1_565
Li0 O3 2.260815 1_555
Li1 O4 2.014772 1_555
Li1 O6 2.028798 1_555
Li1 O1 2.067126 1_555
Li1 O14 2.256277 1_555
Li1 O15 2.361958 1_455
Li1 O9 2.392754 1_555
Li2 O11 1.978474 1_455
Li2 O10 2.029211 1_555
Li2 O8 2.170471 1_555
Li2 O5 2.177021 1_555
Li2 O0 2.227582 1_555
Li2 O2 2.402568 1_555
Li3 O11 2.023781 1_555
Li3 O13 2.024895 1_545
Li3 O8 2.036871 1_555
Li3 O5 2.207513 1_555
Li3 O2 2.306654 1_655
Li3 O3 2.405128 1_545
Li4 O6 1.978474 1_655
Li4 O4 2.029211 1_555
Li4 O7 2.170471 1_555
Li4 O9 2.177021 1_555
Li4 O15 2.227582 1_555
Li4 O12 2.402568 1_555
Li5 O10 2.014772 1_555
Li5 O11 2.028798 1_555
Li5 O13 2.067126 1_555
Li5 O3 2.256277 1_555
Li5 O0 2.361958 1_655
Li5 O5 2.392754 1_555
Li6 O6 2.023781 1_555
Li6 O1 2.024895 1_565
Li6 O7 2.036871 1_555
Li6 O9 2.207513 1_555
Li6 O12 2.306654 1_455
Li6 O14 2.405128 1_565
Li7 O4 1.973880 1_555
Li7 O7 2.071767 1_545
Li7 O1 2.108687 1_655
Li7 O15 2.145487 1_555
Li7 O12 2.196444 1_545
Li7 O14 2.260815 1_555
Li8 O10 2.048831 1_555
Li8 O4 2.048831 1_555
Li8 O8 2.144755 1_555
Li8 O7 2.144755 1_555
Li8 O11 2.165897 1_555
Li8 O6 2.165897 1_555
Mn0 O0 1.925775 1_545
Mn0 O15 1.925775 1_454
Mn0 O3 1.959143 1_445
Mn0 O14 1.959143 1_554
Mn0 O12 1.977660 1_444
Mn0 O2 1.977660 1_555
Mn1 O12 1.953075 1_454
Mn1 O2 1.953075 1_555
Mn1 O5 2.013659 1_455
Mn1 O9 2.013659 1_554
Mn1 O0 2.169291 1_555
Mn1 O15 2.169291 1_454
Co0 O11 1.908718 1_555
Co0 O4 1.914770 1_555
Co0 O1 2.052932 1_655
Co0 O6 2.082801 1_655
Co0 O8 2.119968 1_655
Co0 O13 2.125206 1_545
Co1 O6 1.908718 1_555
Co1 O10 1.914770 1_555
Co1 O13 2.052932 1_455
Co1 O11 2.082801 1_455
Co1 O7 2.119968 1_455
Co1 O1 2.125206 1_565
Co2 O0 1.931289 1_555
Co2 O14 1.955484 1_564
Co2 O5 1.962838 1_555
Co2 O9 1.970082 1_554
Co2 O3 1.973042 1_555
Co2 O12 1.979308 1_554
Co3 O8 1.840888 1_555
Co3 O7 1.840888 1_545
Co3 O13 1.987592 1_545
Co3 O1 1.987592 1_555
Co3 O4 2.100999 1_555
Co3 O10 2.100999 1_545
Co4 O15 1.931289 1_555
Co4 O3 1.955484 1_546
Co4 O9 1.962838 1_555
Co4 O5 1.970082 1_556
Co4 O14 1.973042 1_555
Co4 O2 1.979308 1_556
