# generated using pymatgen
data_Li5V3P8O29
_symmetry_space_group_name_H-M   'P 1'
_cell_length_a   9.79620600
_cell_length_b   9.85805780
_cell_length_c   14.08155447
_cell_angle_alpha   89.82130260
_cell_angle_beta   89.77358807
_cell_angle_gamma   60.24643835
_symmetry_Int_Tables_number   1
_chemical_formula_structural   Li5V3P8O29
_chemical_formula_sum   'Li10 V6 P16 O58'
_cell_volume   1180.59203587
_cell_formula_units_Z   2
loop_
 _symmetry_equiv_pos_site_id
 _symmetry_equiv_pos_as_xyz
  1  'x, y, z'
loop_
 _atom_site_type_symbol
 _atom_site_label
 _atom_site_symmetry_multiplicity
 _atom_site_fract_x
 _atom_site_fract_y
 _atom_site_fract_z
 _atom_site_occupancy
  Li  Li0  1  0.68636200  0.08612800  0.43785000  1
  Li  Li1  1  0.22998500  0.67693200  0.43816100  1
  Li  Li2  1  0.34654000  0.32851400  0.11107300  1
  Li  Li3  1  0.09182300  0.67715400  0.94155500  1
  Li  Li4  1  0.22859900  0.09470400  0.94202900  1
  Li  Li5  1  0.09549000  0.23102500  0.43713200  1
  Li  Li6  1  0.66588100  0.66454600  0.89211300  1
  Li  Li7  1  0.77057000  0.32059600  0.56077900  1
  Li  Li8  1  0.31674500  0.90918600  0.55755900  1
  Li  Li9  1  0.95013500  0.03376800  0.00436100  1
  V  V0  1  0.00159600  0.57018700  0.74615700  1
  V  V1  1  0.99515200  0.43652700  0.24741500  1
  V  V2  1  0.57194400  0.99826700  0.24949900  1
  V  V3  1  0.43241400  0.00134300  0.75105300  1
  V  V4  1  0.56847000  0.42760300  0.75603400  1
  V  V5  1  0.43784700  0.56526200  0.24555900  1
  P  P0  1  0.69115300  0.22250200  0.15882300  1
  P  P1  1  0.68247700  0.08612800  0.65792300  1
  P  P2  1  0.23774300  0.67976200  0.65816200  1
  P  P3  1  0.32634100  0.33439300  0.87294300  1
  P  P4  1  0.33297900  0.33378400  0.37077100  1
  P  P5  1  0.08924300  0.68365100  0.15544600  1
  P  P6  1  0.91712900  0.76846100  0.33978100  1
  P  P7  1  0.22479900  0.09369000  0.15800200  1
  P  P8  1  0.77906200  0.91106600  0.84141200  1
  P  P9  1  0.08580600  0.23407400  0.65685100  1
  P  P10  1  0.91314500  0.31400500  0.84062100  1
  P  P11  1  0.66662200  0.66286500  0.62992200  1
  P  P12  1  0.66884500  0.66772500  0.12889000  1
  P  P13  1  0.76709700  0.31980200  0.34258500  1
  P  P14  1  0.31762500  0.91346300  0.33945500  1
  P  P15  1  0.31315900  0.77469900  0.84132300  1
  O  O0  1  0.76186500  0.24135300  0.43318700  1
  O  O1  1  0.66418900  0.25132400  0.66534000  1
  O  O2  1  0.80056800  0.98946500  0.92444100  1
  O  O3  1  0.65773400  0.08377200  0.16760300  1
  O  O4  1  0.52613400  0.37248700  0.16697600  1
  O  O5  1  0.47384700  0.33080300  0.83087600  1
  O  O6  1  0.38661900  0.52349200  0.67981100  1
  O  O7  1  0.21115100  0.78128600  0.92138600  1
  O  O8  1  0.25733700  0.65355400  0.16226400  1
  O  O9  1  0.48578500  0.18529400  0.33412800  1
  O  O10  1  0.52182300  0.09546400  0.68362500  1
  O  O11  1  0.33540700  0.48186800  0.32850200  1
  O  O12  1  0.31211900  0.34789700  0.97921600  1
  O  O13  1  0.32093400  0.33811200  0.47651700  1
  O  O14  1  0.17777300  0.48624900  0.83020100  1
  O  O15  1  0.37343400  0.10917100  0.16923700  1
  O  O16  1  0.32006500  0.18725600  0.83770500  1
  O  O17  1  0.09196100  0.65652800  0.66606200  1
  O  O18  1  0.99382500  0.79232200  0.24364000  1
  O  O19  1  0.01301000  0.75535000  0.42370900  1
  O  O20  1  0.00935900  0.75910300  0.06502700  1
  O  O21  1  0.09919500  0.51995200  0.17262900  1
  O  O22  1  0.18323100  0.33336100  0.32662500  1
  O  O23  1  0.92172800  0.73762800  0.83513400  1
  O  O24  1  0.09746100  0.38201700  0.68007100  1
  O  O25  1  0.25009100  0.08584600  0.65925700  1
  O  O26  1  0.79659500  0.98845500  0.74376200  1
  O  O27  1  0.74462100  0.01090800  0.56509100  1
  O  O28  1  0.24204600  0.00319800  0.42911300  1
  O  O29  1  0.74978100  0.91288400  0.34112700  1
  O  O30  1  0.90808200  0.61711000  0.32024100  1
  O  O31  1  0.08009100  0.26166300  0.16991300  1
  O  O32  1  0.81763900  0.65923600  0.67940700  1
  O  O33  1  0.90351500  0.47551300  0.83075600  1
  O  O34  1  0.00485700  0.21324900  0.92149600  1
  O  O35  1  0.00056400  0.25075500  0.56553700  1
  O  O36  1  0.98792500  0.21753600  0.74280800  1
  O  O37  1  0.91628000  0.33895000  0.33922000  1
  O  O38  1  0.66861100  0.81139200  0.17006100  1
  O  O39  1  0.62803200  0.89783300  0.83264300  1
  O  O40  1  0.81793900  0.51866000  0.17400200  1
  O  O41  1  0.67612300  0.65711700  0.02343000  1
  O  O42  1  0.67801400  0.66265500  0.52480100  1
  O  O43  1  0.67117700  0.51154900  0.66874200  1
  O  O44  1  0.47562500  0.90752200  0.31962000  1
  O  O45  1  0.51661000  0.81282600  0.66925200  1
  O  O46  1  0.74088700  0.34632600  0.83831500  1
  O  O47  1  0.78797200  0.20714900  0.25519000  1
  O  O48  1  0.78893100  0.20825100  0.07545100  1
  O  O49  1  0.61964600  0.47762000  0.32620200  1
  O  O50  1  0.52329700  0.65971400  0.17035500  1
  O  O51  1  0.47794700  0.62854000  0.83218900  1
  O  O52  1  0.33847800  0.91968000  0.83978600  1
  O  O53  1  0.21269600  0.02127900  0.06824800  1
  O  O54  1  0.20880300  0.00201600  0.24879100  1
  O  O55  1  0.33649300  0.74948500  0.33953200  1
  O  O56  1  0.24580000  0.75186400  0.56621700  1
  O  O57  1  0.21815700  0.79629500  0.74260400  1
loop_
_geom_bond_atom_site_label_1
_geom_bond_atom_site_label_2
_geom_bond_distance
_geom_bond_site_symmetry_2
Li0 O27 1.914601 1_555
Li0 O0 2.003824 1_555
Li0 O29 2.027930 1_545
Li0 O9 2.248775 1_555
Li1 O19 1.878419 1_555
Li1 O56 1.986301 1_555
Li1 O55 2.062069 1_555
Li1 O11 2.276747 1_555
Li2 O12 1.880564 1_554
Li2 O4 2.161692 1_555
Li2 O15 2.200225 1_555
Li2 O21 2.374651 1_555
Li3 O20 1.917849 1_556
Li3 O7 1.920289 1_555
Li3 O23 2.099008 1_455
Li3 O14 2.268180 1_555
Li4 O34 1.927163 1_555
Li4 O53 1.951644 1_556
Li4 O52 2.090063 1_545
Li4 O16 2.141503 1_555
Li5 O28 1.979409 1_555
Li5 O35 1.995328 1_555
Li5 O37 2.066655 1_455
Li5 O22 2.240158 1_555
Li6 O41 1.851514 1_556
Li6 O51 2.211380 1_555
Li6 O39 2.296029 1_555
Li6 O33 2.307974 1_555
Li7 O0 1.980331 1_555
Li7 O35 2.004016 1_655
Li7 O1 2.099578 1_555
Li7 O43 2.233785 1_555
Li8 O56 1.992762 1_555
Li8 O28 1.998184 1_565
Li8 O25 2.095133 1_565
Li8 O45 2.319171 1_555
Li9 O48 1.938240 1_555
Li9 O2 2.062832 1_544
Li9 O34 2.388112 1_654
O0 P13 1.503690 1_555
O1 P1 1.551255 1_555
O1 V4 1.979182 1_555
O2 P8 1.475761 1_555
O3 P0 1.560714 1_555
O3 V2 1.853677 1_545
O4 P0 1.561995 1_555
O4 V5 1.989521 1_555
O5 P3 1.543627 1_555
O5 V4 1.935067 1_555
O6 P2 1.537446 1_555
O6 V4 1.885881 1_555
O7 P15 1.483578 1_555
O8 P5 1.524783 1_555
O8 V5 1.934591 1_555
O9 P4 1.572742 1_555
O9 V2 1.998268 1_545
O10 P1 1.571066 1_555
O10 V3 1.823220 1_555
O11 P4 1.585829 1_555
O11 V5 1.962308 1_555
O12 P3 1.502597 1_555
O13 P4 1.492340 1_555
O14 P3 1.600088 1_555
O14 V0 1.912199 1_555
O15 P7 1.546271 1_555
O15 V2 2.038080 1_545
O16 P3 1.564337 1_555
O16 V3 2.015043 1_555
O17 P2 1.558069 1_555
O17 V0 1.874606 1_555
O18 P5 1.602792 1_655
O18 P6 1.618032 1_555
O19 P6 1.477497 1_455
O20 P5 1.486952 1_555
O21 P5 1.585513 1_555
O21 V1 1.908478 1_455
O22 P4 1.597414 1_555
O22 V1 1.955104 1_455
O23 P8 1.585118 1_555
O23 V0 1.905240 1_655
O24 P9 1.554191 1_555
O24 V0 1.861112 1_555
O25 P9 1.546748 1_555
O25 V3 2.022292 1_555
O26 P1 1.604048 1_565
O26 P8 1.619868 1_555
O27 P1 1.476817 1_555
O28 P14 1.508041 1_545
O29 P6 1.548620 1_555
O29 V2 1.990937 1_555
O30 P6 1.563237 1_555
O30 V1 1.856250 1_555
O31 P7 1.565135 1_555
O31 V1 1.853606 1_455
O32 P11 1.622009 1_555
O32 V0 1.827483 1_655
O33 P10 1.553319 1_555
O33 V0 2.021746 1_655
O34 P10 1.485268 1_455
O35 P9 1.499538 1_555
O36 P9 1.598700 1_655
O36 P10 1.626926 1_555
O37 P13 1.564240 1_555
O37 V1 1.978768 1_555
O38 P12 1.530963 1_555
O38 V2 1.953150 1_555
O39 P8 1.553821 1_555
O39 V3 2.025524 1_565
O40 P12 1.602314 1_555
O40 V1 1.830803 1_555
O41 P12 1.487984 1_555
O42 P11 1.483959 1_555
O43 P11 1.566834 1_555
O43 V4 2.004592 1_555
O44 P14 1.543969 1_555
O44 V2 1.868276 1_555
O45 P11 1.579288 1_555
O45 V3 1.986275 1_565
O46 P10 1.554625 1_555
O46 V4 1.871824 1_555
O47 P13 1.603360 1_555
O47 P0 1.621830 1_555
O48 P0 1.474480 1_555
O49 P13 1.526444 1_555
O49 V5 1.921040 1_555
O50 P12 1.576394 1_555
O50 V5 1.857308 1_555
O51 P15 1.545783 1_555
O51 V4 2.030369 1_555
O52 P15 1.567259 1_555
O52 V3 1.943207 1_565
O53 P7 1.487216 1_555
O54 P7 1.614770 1_555
O54 P14 1.615109 1_545
O55 P14 1.533194 1_555
O55 V5 2.061541 1_555
O56 P2 1.495628 1_555
O57 P2 1.599492 1_555
O57 P15 1.629601 1_555
