# generated using pymatgen
data_ZnCr2O5
_symmetry_space_group_name_H-M   'P 1'
_cell_length_a   3.42653700
_cell_length_b   4.82527104
_cell_length_c   11.73771608
_cell_angle_alpha   89.98682838
_cell_angle_beta   90.00033285
_cell_angle_gamma   89.99413388
_symmetry_Int_Tables_number   1
_chemical_formula_structural   ZnCr2O5
_chemical_formula_sum   'Zn2 Cr4 O10'
_cell_volume   194.07103664
_cell_formula_units_Z   2
loop_
 _symmetry_equiv_pos_site_id
 _symmetry_equiv_pos_as_xyz
  1  'x, y, z'
loop_
 _atom_site_type_symbol
 _atom_site_label
 _atom_site_symmetry_multiplicity
 _atom_site_fract_x
 _atom_site_fract_y
 _atom_site_fract_z
 _atom_site_occupancy
  Zn  Zn0  1  0.74997000  0.87078900  0.25011400  1
  Zn  Zn1  1  0.25003600  0.12918800  0.74993500  1
  Cr  Cr0  1  0.24999100  0.42210000  0.10058200  1
  Cr  Cr1  1  0.75000700  0.57778000  0.89934300  1
  Cr  Cr2  1  0.75001600  0.57806700  0.60065800  1
  Cr  Cr3  1  0.24997200  0.42209400  0.39947100  1
  O  O0  1  0.75004200  0.40715900  0.74997200  1
  O  O1  1  0.24997200  0.59280800  0.24994400  1
  O  O2  1  0.74998900  0.57100900  0.07209500  1
  O  O3  1  0.25001500  0.42892100  0.92784400  1
  O  O4  1  0.74996600  0.57093400  0.42790500  1
  O  O5  1  0.25002300  0.42904100  0.57224700  1
  O  O6  1  0.25000500  0.07758000  0.35736100  1
  O  O7  1  0.74997900  0.92242400  0.64259500  1
  O  O8  1  0.74997700  0.92239300  0.85733000  1
  O  O9  1  0.25003100  0.07771400  0.14260400  1
loop_
_geom_bond_atom_site_label_1
_geom_bond_atom_site_label_2
_geom_bond_distance
_geom_bond_site_symmetry_2
Cr0 O9 1.733304 1_555
Cr0 O2 1.887599 1_455
Cr0 O2 1.887723 1_555
Cr0 O1 1.937206 1_555
Cr0 O3 2.027809 1_554
Cr1 O8 1.734324 1_555
Cr1 O3 1.887554 1_655
Cr1 O3 1.887642 1_555
Cr1 O0 1.937123 1_555
Cr1 O2 2.027970 1_556
Cr2 O7 1.733104 1_555
Cr2 O5 1.887733 1_655
Cr2 O5 1.887820 1_555
Cr2 O0 1.936764 1_555
Cr2 O4 2.028026 1_555
Cr3 O6 1.734408 1_555
Cr3 O4 1.887436 1_455
Cr3 O4 1.887529 1_555
Cr3 O1 1.938628 1_555
Cr3 O5 2.028280 1_555
O0 Zn1 2.175729 1_655
O0 Zn1 2.175977 1_555
O1 Zn0 2.175781 1_455
O1 Zn0 2.175986 1_555
O2 Zn0 2.541647 1_555
O3 Zn1 2.540457 1_555
O4 Zn0 2.539107 1_555
O5 Zn1 2.538108 1_555
O6 Zn0 2.348499 1_545
O6 Zn0 2.348812 1_445
O7 Zn1 2.348974 1_565
O7 Zn1 2.349397 1_665
O8 Zn1 2.349122 1_565
O8 Zn1 2.349576 1_665
O9 Zn0 2.350108 1_545
O9 Zn0 2.350572 1_445
