# generated using pymatgen
data_Eu3MoO7
_symmetry_space_group_name_H-M   'P 1'
_cell_length_a   6.62792282
_cell_length_b   6.62792282
_cell_length_c   7.67661600
_cell_angle_alpha   90.00000000
_cell_angle_beta   90.00000000
_cell_angle_gamma   111.41197421
_symmetry_Int_Tables_number   1
_chemical_formula_structural   Eu3MoO7
_chemical_formula_sum   'Eu6 Mo2 O14'
_cell_volume   313.95314598
_cell_formula_units_Z   2
loop_
 _symmetry_equiv_pos_site_id
 _symmetry_equiv_pos_as_xyz
  1  'x, y, z'
loop_
 _atom_site_type_symbol
 _atom_site_label
 _atom_site_symmetry_multiplicity
 _atom_site_fract_x
 _atom_site_fract_y
 _atom_site_fract_z
 _atom_site_occupancy
  Eu  Eu0  1  0.06302500  0.52372900  0.25000000  1
  Eu  Eu1  1  0.93697500  0.47627100  0.75000000  1
  Eu  Eu2  1  0.52372900  0.06302500  0.25000000  1
  Eu  Eu3  1  0.47627100  0.93697500  0.75000000  1
  Eu  Eu4  1  0.00000000  0.00000000  0.00000000  1
  Eu  Eu5  1  0.00000000  0.00000000  0.50000000  1
  Mo  Mo0  1  0.50000000  0.50000000  0.00000000  1
  Mo  Mo1  1  0.50000000  0.50000000  0.50000000  1
  O  O0  1  0.43741000  0.43741000  0.25000000  1
  O  O1  1  0.56259000  0.56259000  0.75000000  1
  O  O2  1  0.89314400  0.15695300  0.25000000  1
  O  O3  1  0.10685600  0.84304700  0.75000000  1
  O  O4  1  0.15695300  0.89314400  0.25000000  1
  O  O5  1  0.84304700  0.10685600  0.75000000  1
  O  O6  1  0.80471400  0.55745400  0.03490800  1
  O  O7  1  0.19528600  0.44254600  0.96509200  1
  O  O8  1  0.19528600  0.44254600  0.53490800  1
  O  O9  1  0.55745400  0.80471400  0.46509200  1
  O  O10  1  0.80471400  0.55745400  0.46509200  1
  O  O11  1  0.44254600  0.19528600  0.53490800  1
  O  O12  1  0.44254600  0.19528600  0.96509200  1
  O  O13  1  0.55745400  0.80471400  0.03490800  1
loop_
_geom_bond_atom_site_label_1
_geom_bond_atom_site_label_2
_geom_bond_distance
_geom_bond_site_symmetry_2
Eu0 O2 2.275707 1_455
Eu0 O4 2.295550 1_555
Eu0 O6 2.446823 1_455
Eu0 O10 2.446823 1_455
Eu0 O7 2.487149 1_554
Eu0 O8 2.487149 1_555
Eu0 O0 2.742477 1_555
Eu1 O3 2.275707 1_655
Eu1 O5 2.295550 1_555
Eu1 O7 2.446823 1_655
Eu1 O8 2.446823 1_655
Eu1 O6 2.487149 1_556
Eu1 O10 2.487149 1_555
Eu1 O1 2.742477 1_555
Eu2 O4 2.275707 1_545
Eu2 O2 2.295550 1_555
Eu2 O9 2.446823 1_545
Eu2 O13 2.446823 1_545
Eu2 O11 2.487149 1_555
Eu2 O12 2.487149 1_554
Eu2 O0 2.742477 1_555
Eu3 O5 2.275707 1_565
Eu3 O3 2.295550 1_555
Eu3 O12 2.446823 1_565
Eu3 O11 2.446823 1_565
Eu3 O13 2.487149 1_556
Eu3 O9 2.487149 1_555
Eu3 O1 2.742477 1_555
Eu4 O3 2.409326 1_544
Eu4 O5 2.409326 1_454
Eu4 O2 2.409326 1_455
Eu4 O4 2.409326 1_545
Eu4 O6 2.752920 1_445
Eu4 O13 2.752920 1_445
Eu4 O7 2.752920 1_554
Eu4 O12 2.752920 1_554
Eu5 O5 2.409326 1_455
Eu5 O3 2.409326 1_545
Eu5 O2 2.409326 1_455
Eu5 O4 2.409326 1_545
Eu5 O9 2.752920 1_445
Eu5 O10 2.752920 1_445
Eu5 O8 2.752920 1_555
Eu5 O11 2.752920 1_555
Mo0 O7 1.932396 1_554
Mo0 O13 1.932396 1_555
Mo0 O12 1.932396 1_554
Mo0 O6 1.932396 1_555
Mo0 O0 1.975269 1_555
Mo0 O1 1.975269 1_554
Mo1 O8 1.932396 1_555
Mo1 O10 1.932396 1_555
Mo1 O11 1.932396 1_555
Mo1 O9 1.932396 1_555
Mo1 O0 1.975269 1_555
Mo1 O1 1.975269 1_555
