# generated using pymatgen
data_Te6MoW3Se2
_symmetry_space_group_name_H-M   'P 1'
_cell_length_a   3.50075186
_cell_length_b   3.50075186
_cell_length_c   39.66022700
_cell_angle_alpha   90.00000000
_cell_angle_beta   90.00000000
_cell_angle_gamma   119.99999731
_symmetry_Int_Tables_number   1
_chemical_formula_structural   Te6MoW3Se2
_chemical_formula_sum   'Te6 Mo1 W3 Se2'
_cell_volume   420.92865822
_cell_formula_units_Z   1
loop_
 _symmetry_equiv_pos_site_id
 _symmetry_equiv_pos_as_xyz
  1  'x, y, z'
loop_
 _atom_site_type_symbol
 _atom_site_label
 _atom_site_symmetry_multiplicity
 _atom_site_fract_x
 _atom_site_fract_y
 _atom_site_fract_z
 _atom_site_occupancy
  Te  Te0  1  0.00000000  0.00000000  0.32822700  1
  Te  Te1  1  0.00000000  0.00000000  0.70397300  1
  Te  Te2  1  0.33333300  0.66666700  0.42322800  1
  Te  Te3  1  0.33333300  0.66666700  0.51609600  1
  Te  Te4  1  0.00000000  0.00000000  0.23534700  1
  Te  Te5  1  0.00000000  0.00000000  0.61108900  1
  Mo  Mo0  1  0.00000000  0.00000000  0.09392400  1
  W  W0  1  0.00000000  0.00000000  0.46965500  1
  W  W1  1  0.33333300  0.66666700  0.28176900  1
  W  W2  1  0.33333300  0.66666700  0.65754900  1
  Se  Se0  1  0.33333300  0.66666700  0.05311300  1
  Se  Se1  1  0.33333300  0.66666700  0.13477900  1
loop_
_geom_bond_atom_site_label_1
_geom_bond_atom_site_label_2
_geom_bond_distance
_geom_bond_site_symmetry_2
Te0 W1 2.734961 1_545
Te0 W1 2.734964 1_445
Te0 W1 2.734964 1_555
Te1 W2 2.734053 1_545
Te1 W2 2.734055 1_445
Te1 W2 2.734055 1_555
Te2 W0 2.734133 1_565
Te2 W0 2.734136 1_665
Te2 W0 2.734136 1_555
Te3 W0 2.734507 1_565
Te3 W0 2.734510 1_665
Te3 W0 2.734510 1_555
Te4 W1 2.734000 1_545
Te4 W1 2.734002 1_445
Te4 W1 2.734002 1_555
Te5 W2 2.735015 1_545
Te5 W2 2.735017 1_555
Te5 W2 2.735017 1_445
Mo0 Se0 2.589374 1_545
Mo0 Se0 2.589377 1_445
Mo0 Se0 2.589377 1_555
Mo0 Se1 2.590466 1_545
Mo0 Se1 2.590468 1_445
Mo0 Se1 2.590468 1_555
