# generated using pymatgen
data_La4SbTe7
_symmetry_space_group_name_H-M   'P 1'
_cell_length_a   4.52512813
_cell_length_b   4.52512813
_cell_length_c   18.81617392
_cell_angle_alpha   90.00000000
_cell_angle_beta   90.00000000
_cell_angle_gamma   90.00000000
_symmetry_Int_Tables_number   1
_chemical_formula_structural   La4SbTe7
_chemical_formula_sum   'La4 Sb1 Te7'
_cell_volume   385.29474022
_cell_formula_units_Z   1
loop_
 _symmetry_equiv_pos_site_id
 _symmetry_equiv_pos_as_xyz
  1  'x, y, z'
loop_
 _atom_site_type_symbol
 _atom_site_label
 _atom_site_symmetry_multiplicity
 _atom_site_fract_x
 _atom_site_fract_y
 _atom_site_fract_z
 _atom_site_occupancy
  La  La0  1  0.50000000  -0.00000000  0.13835841  1
  La  La1  1  0.50000000  0.00000000  0.63678063  1
  La  La2  1  0.00000000  0.50000000  0.36321937  1
  La  La3  1  0.00000000  0.50000000  0.86164159  1
  Sb  Sb0  1  0.50000000  0.50000000  -0.00000000  1
  Te  Te0  1  0.50000000  0.00000000  0.31721015  1
  Te  Te1  1  0.50000000  -0.00000000  0.81514450  1
  Te  Te2  1  -0.00000000  0.50000000  0.18485550  1
  Te  Te3  1  0.00000000  0.50000000  0.68278985  1
  Te  Te4  1  0.50000000  0.50000000  0.50000000  1
  Te  Te5  1  0.00000000  0.00000000  0.50000000  1
  Te  Te6  1  -0.00000000  0.00000000  -0.00000000  1
loop_
_geom_bond_atom_site_label_1
_geom_bond_atom_site_label_2
_geom_bond_distance
_geom_bond_site_symmetry_2
La0 Te2 3.317203 1_655
La0 Te2 3.317203 1_645
La0 Te2 3.317203 1_545
La0 Te2 3.317203 1_555
La0 Te0 3.365305 1_555
La0 Sb0 3.449168 1_545
La0 Te6 3.449168 1_555
La0 Te6 3.449168 1_655
La0 Sb0 3.449168 1_555
La1 Te3 3.314794 1_545
La1 Te3 3.314794 1_555
La1 Te3 3.314794 1_655
La1 Te3 3.314794 1_645
La1 Te1 3.356126 1_555
La1 Te4 3.426816 1_555
La1 Te4 3.426816 1_545
La1 Te5 3.426816 1_555
La1 Te5 3.426816 1_655
La2 Te0 3.314794 1_555
La2 Te0 3.314794 1_565
La2 Te0 3.314794 1_465
La2 Te0 3.314794 1_455
La2 Te2 3.356126 1_555
La2 Te4 3.426816 1_455
La2 Te4 3.426816 1_555
La2 Te5 3.426816 1_565
La2 Te5 3.426816 1_555
La3 Te1 3.317203 1_465
La3 Te1 3.317203 1_565
La3 Te1 3.317203 1_455
La3 Te1 3.317203 1_555
La3 Te3 3.365305 1_555
La3 Te6 3.449168 1_566
La3 Sb0 3.449168 1_556
La3 Te6 3.449168 1_556
La3 Sb0 3.449168 1_456
Sb0 Te6 3.199749 1_565
Sb0 Te6 3.199749 1_665
Sb0 Te6 3.199749 1_555
Sb0 Te6 3.199749 1_655
Te4 Te5 3.199749 1_565
Te4 Te5 3.199749 1_555
Te4 Te5 3.199749 1_655
Te4 Te5 3.199749 1_665
