# generated using pymatgen
data_GaSi3PH30C10(NCl2)2
_symmetry_space_group_name_H-M   'P 1'
_cell_length_a   8.96055700
_cell_length_b   13.34860900
_cell_length_c   11.54429997
_cell_angle_alpha   90.00000000
_cell_angle_beta   99.63751540
_cell_angle_gamma   90.00000000
_symmetry_Int_Tables_number   1
_chemical_formula_structural   GaSi3PH30C10(NCl2)2
_chemical_formula_sum   'Ga2 Si6 P2 H60 C20 N4 Cl8'
_cell_volume   1361.33684590
_cell_formula_units_Z   2
loop_
 _symmetry_equiv_pos_site_id
 _symmetry_equiv_pos_as_xyz
  1  'x, y, z'
loop_
 _atom_site_type_symbol
 _atom_site_label
 _atom_site_symmetry_multiplicity
 _atom_site_fract_x
 _atom_site_fract_y
 _atom_site_fract_z
 _atom_site_occupancy
  Ga  Ga0  1  0.07606600  0.00213800  0.86200600  1
  Ga  Ga1  1  0.92393400  0.50213800  0.13799400  1
  Si  Si0  1  0.42047100  0.91238800  0.14215600  1
  Si  Si1  1  0.57952900  0.41238800  0.85784400  1
  Si  Si2  1  0.35887200  0.16293600  0.30096800  1
  Si  Si3  1  0.64112800  0.66293600  0.69903200  1
  Si  Si4  1  0.21944300  0.97407000  0.41173400  1
  Si  Si5  1  0.78055700  0.47407000  0.58826600  1
  P  P0  1  0.09989300  0.99729500  0.08014700  1
  P  P1  1  0.90010700  0.49729500  0.91985300  1
  H  H0  1  0.29357100  0.74645600  0.14881900  1
  H  H1  1  0.70642900  0.24645600  0.85118100  1
  H  H2  1  0.44663000  0.74318800  0.06901600  1
  H  H3  1  0.55337000  0.24318800  0.93098400  1
  H  H4  1  0.26952600  0.79245100  0.00137500  1
  H  H5  1  0.73047400  0.29245100  0.99862500  1
  H  H6  1  0.97296300  0.09629900  0.21087900  1
  H  H7  1  0.02703700  0.59629900  0.78912100  1
  H  H8  1  0.87482400  0.09169100  0.06157600  1
  H  H9  1  0.12517600  0.59169100  0.93842400  1
  H  H10  1  0.03599400  0.17147900  0.09908900  1
  H  H11  1  0.96400600  0.67147900  0.90091100  1
  H  H12  1  0.48012900  0.96674200  0.52965800  1
  H  H13  1  0.51987100  0.46674200  0.47034200  1
  H  H14  1  0.33656700  0.95304800  0.61836900  1
  H  H15  1  0.66343300  0.45304800  0.38163100  1
  H  H16  1  0.38158900  0.07326500  0.57115400  1
  H  H17  1  0.61841100  0.57326500  0.42884600  1
  H  H18  1  0.02898300  0.10092500  0.45628400  1
  H  H19  1  0.97101700  0.60092500  0.54371600  1
  H  H20  1  0.01601400  0.98607700  0.53106100  1
  H  H21  1  0.98398600  0.48607700  0.46893900  1
  H  H22  1  0.93756000  0.99518700  0.38012800  1
  H  H23  1  0.06244000  0.49518700  0.61987200  1
  H  H24  1  0.14633400  0.25355600  0.36995300  1
  H  H25  1  0.85366600  0.75355600  0.63004700  1
  H  H26  1  0.32192600  0.31554400  0.41041500  1
  H  H27  1  0.67807400  0.81554400  0.58958500  1
  H  H28  1  0.27873200  0.21044800  0.49299000  1
  H  H29  1  0.72126800  0.71044800  0.50701000  1
  H  H30  1  0.59822000  0.11827800  0.43984500  1
  H  H31  1  0.40178000  0.61827800  0.56015500  1
  H  H32  1  0.60897100  0.23705800  0.37197300  1
  H  H33  1  0.39102900  0.73705800  0.62802700  1
  H  H34  1  0.63107100  0.12685300  0.29190300  1
  H  H35  1  0.36892900  0.62685300  0.70809700  1
  H  H36  1  0.34974500  0.17927400  0.08267900  1
  H  H37  1  0.65025500  0.67927400  0.91732100  1
  H  H38  1  0.42187700  0.28742800  0.16236200  1
  H  H39  1  0.57812300  0.78742800  0.83763800  1
  H  H40  1  0.22472800  0.26663200  0.13458300  1
  H  H41  1  0.77527200  0.76663200  0.86541700  1
  H  H42  1  0.60430500  0.96418400  0.31960200  1
  H  H43  1  0.39569500  0.46418400  0.68039800  1
  H  H44  1  0.65580200  0.85091400  0.25504500  1
  H  H45  1  0.34419800  0.35091400  0.74495500  1
  H  H46  1  0.51289600  0.84941600  0.34407200  1
  H  H47  1  0.48710400  0.34941600  0.65592800  1
  H  H48  1  0.11125200  0.81809700  0.30913800  1
  H  H49  1  0.88874800  0.31809700  0.69086200  1
  H  H50  1  0.16851000  0.80113400  0.46213100  1
  H  H51  1  0.83149000  0.30113400  0.53786900  1
  H  H52  1  0.30592500  0.80065800  0.36869600  1
  H  H53  1  0.69407500  0.30065800  0.63130400  1
  H  H54  1  0.43655300  0.98706600  0.94598500  1
  H  H55  1  0.56344700  0.48706600  0.05401500  1
  H  H56  1  0.61178400  0.93616700  0.01531000  1
  H  H57  1  0.38821600  0.43616700  0.98469000  1
  H  H58  1  0.55101700  0.05445400  0.06079600  1
  H  H59  1  0.44898300  0.55445400  0.93920400  1
  C  C0  1  0.34814400  0.78741500  0.08500600  1
  C  C1  1  0.65185600  0.28741500  0.91499400  1
  C  C2  1  0.98560100  0.10007400  0.11787900  1
  C  C3  1  0.01439900  0.60007400  0.88212100  1
  C  C4  1  0.36955300  0.99458800  0.54407400  1
  C  C5  1  0.63044700  0.49458800  0.45592600  1
  C  C6  1  0.03312900  0.01931700  0.44680200  1
  C  C7  1  0.96687100  0.51931700  0.55319800  1
  C  C8  1  0.26677800  0.24150200  0.40390300  1
  C  C9  1  0.73322200  0.74150200  0.59609700  1
  C  C10  1  0.56860700  0.15945100  0.35686300  1
  C  C11  1  0.43139300  0.65945100  0.64313700  1
  C  C12  1  0.33445300  0.22877300  0.15563900  1
  C  C13  1  0.66554700  0.72877300  0.84436100  1
  C  C14  1  0.56031300  0.89363000  0.27919500  1
  C  C15  1  0.43968700  0.39363000  0.72080500  1
  C  C16  1  0.20056700  0.83606300  0.38328400  1
  C  C17  1  0.79943300  0.33606300  0.61671600  1
  C  C18  1  0.51231000  0.97940300  0.03064000  1
  C  C19  1  0.48769000  0.47940300  0.96936000  1
  N  N0  1  0.26260300  0.99046600  0.17504700  1
  N  N1  1  0.73739700  0.49046600  0.82495300  1
  N  N2  1  0.27300200  0.04040000  0.28837600  1
  N  N3  1  0.72699800  0.54040000  0.71162400  1
  Cl  Cl0  1  0.14643200  0.86264800  0.78619300  1
  Cl  Cl1  1  0.85356800  0.36264800  0.21380700  1
  Cl  Cl2  1  0.20598800  0.13090900  0.81654100  1
  Cl  Cl3  1  0.79401200  0.63090900  0.18345900  1
  Cl  Cl4  1  0.83274300  0.02432900  0.80430400  1
  Cl  Cl5  1  0.16725700  0.52432900  0.19569600  1
  Cl  Cl6  1  0.95778000  0.87728000  0.10122100  1
  Cl  Cl7  1  0.04222000  0.37728000  0.89877900  1
loop_
_geom_bond_atom_site_label_1
_geom_bond_atom_site_label_2
_geom_bond_distance
_geom_bond_site_symmetry_2
Ga0 P0 2.492288 1_546
Ga1 P1 2.492288 1_554
C0 H0 1.096069 1_555
C0 H4 1.097804 1_555
C0 H2 1.102698 1_555
C0 Si0 1.869512 1_555
C1 H1 1.096069 1_555
C1 H5 1.097804 1_555
C1 H3 1.102698 1_555
C1 Si1 1.869512 1_555
C2 H10 1.091904 1_655
C2 H8 1.097392 1_555
C2 H6 1.099423 1_555
C2 P0 1.808367 1_645
C3 H11 1.091904 1_455
C3 H9 1.097392 1_555
C3 H7 1.099423 1_555
C3 P1 1.808367 1_455
C4 H16 1.095926 1_565
C4 H12 1.096723 1_555
C4 H14 1.102424 1_555
C4 Si4 1.878897 1_555
C5 H17 1.095926 1_555
C5 H13 1.096723 1_555
C5 H15 1.102424 1_555
C5 Si5 1.878897 1_555
C6 H18 1.096091 1_555
C6 H22 1.099470 1_445
C6 H20 1.102956 1_545
C6 Si4 1.882058 1_545
C7 H19 1.096091 1_555
C7 H23 1.099470 1_655
C7 H21 1.102956 1_555
C7 Si5 1.882058 1_555
C8 H24 1.096650 1_555
C8 H28 1.097326 1_555
C8 H26 1.101932 1_555
C8 Si2 1.876505 1_555
C9 H25 1.096650 1_555
C9 H29 1.097326 1_555
C9 H27 1.101932 1_555
C9 Si3 1.876505 1_555
C10 H30 1.097755 1_555
C10 H34 1.097971 1_555
C10 H32 1.101500 1_555
C10 Si2 1.882664 1_555
C11 H31 1.097755 1_555
C11 H35 1.097971 1_555
C11 H33 1.101500 1_555
C11 Si3 1.882664 1_555
C12 H40 1.095963 1_555
C12 H36 1.097006 1_555
C12 H38 1.101073 1_555
C12 Si2 1.874048 1_555
C13 H41 1.095963 1_555
C13 H37 1.097006 1_555
C13 H39 1.101073 1_555
C13 Si3 1.874048 1_555
C14 H46 1.093776 1_555
C14 H42 1.094714 1_555
C14 H44 1.102196 1_555
C14 Si0 1.863302 1_555
C15 H47 1.093776 1_555
C15 H43 1.094714 1_555
C15 H45 1.102196 1_555
C15 Si1 1.863302 1_555
C16 H52 1.093716 1_555
C16 H48 1.096046 1_555
C16 H50 1.102712 1_555
C16 Si4 1.873922 1_555
C17 H53 1.093716 1_555
C17 H49 1.096046 1_555
C17 H51 1.102712 1_555
C17 Si5 1.873922 1_555
C18 H54 1.097370 1_554
C18 H58 1.097596 1_565
C18 H56 1.100781 1_555
C18 Si0 1.868020 1_555
C19 H55 1.097370 1_556
C19 H59 1.097596 1_555
C19 H57 1.100781 1_555
C19 Si1 1.868020 1_555
N0 N2 1.457330 1_565
N0 P0 1.673145 1_555
N0 Si0 1.846976 1_555
N1 N3 1.457330 1_555
N1 P1 1.673145 1_555
N1 Si1 1.846976 1_555
N2 Si2 1.803105 1_555
N2 Si4 1.808625 1_545
N3 Si3 1.803105 1_555
N3 Si5 1.808625 1_555
Cl0 Ga0 2.194390 1_565
Cl1 Ga1 2.194390 1_555
Cl2 Ga0 2.188615 1_555
Cl3 Ga1 2.188615 1_555
Cl4 Ga0 2.190646 1_655
Cl5 Ga1 2.190646 1_455
Cl6 P0 2.085906 1_655
Cl7 P1 2.085906 1_455
