# generated using pymatgen
data_CrPPd
_symmetry_space_group_name_H-M   'P 1'
_cell_length_a   3.60129400
_cell_length_b   6.42155769
_cell_length_c   6.42155769
_cell_angle_alpha   119.99999679
_cell_angle_beta   90.00000000
_cell_angle_gamma   90.00000000
_symmetry_Int_Tables_number   1
_chemical_formula_structural   CrPPd
_chemical_formula_sum   'Cr3 P3 Pd3'
_cell_volume   128.60859686
_cell_formula_units_Z   3
loop_
 _symmetry_equiv_pos_site_id
 _symmetry_equiv_pos_as_xyz
  1  'x, y, z'
loop_
 _atom_site_type_symbol
 _atom_site_label
 _atom_site_symmetry_multiplicity
 _atom_site_fract_x
 _atom_site_fract_y
 _atom_site_fract_z
 _atom_site_occupancy
  Cr  Cr0  1  0.50000000  0.60591700  0.00000000  1
  Cr  Cr1  1  0.50000000  0.39408300  0.39408300  1
  Cr  Cr2  1  0.50000000  0.00000000  0.60591700  1
  P  P0  1  0.00000000  0.33333300  0.66666700  1
  P  P1  1  0.00000000  0.66666700  0.33333300  1
  P  P2  1  0.50000000  0.00000000  0.00000000  1
  Pd  Pd0  1  0.00000000  0.26897700  0.00000000  1
  Pd  Pd1  1  0.00000000  0.73102300  0.73102300  1
  Pd  Pd2  1  0.00000000  0.00000000  0.26897700  1
loop_
_geom_bond_atom_site_label_1
_geom_bond_atom_site_label_2
_geom_bond_distance
_geom_bond_site_symmetry_2
Cr0 P2 2.530627 1_565
Cr0 P1 2.672320 1_555
Cr0 P1 2.672320 1_655
Cr0 P0 2.672321 1_554
Cr0 P0 2.672321 1_654
Cr0 Pd0 2.814931 1_655
Cr0 Pd0 2.814931 1_555
Cr0 Pd1 2.873808 1_654
Cr0 Pd1 2.873808 1_554
Cr0 Pd2 2.873808 1_565
Cr0 Pd2 2.873808 1_665
Cr1 P2 2.530627 1_555
Cr1 P1 2.672324 1_555
Cr1 P0 2.672324 1_555
Cr1 P0 2.672324 1_655
Cr1 P1 2.672324 1_655
Cr1 Pd1 2.814932 1_555
Cr1 Pd1 2.814932 1_655
Cr1 Pd0 2.873808 1_555
Cr1 Pd2 2.873808 1_555
Cr1 Pd2 2.873808 1_655
Cr1 Pd0 2.873808 1_655
Cr2 P2 2.530627 1_556
Cr2 P0 2.672320 1_655
Cr2 P0 2.672320 1_555
Cr2 P1 2.672321 1_545
Cr2 P1 2.672321 1_645
Cr2 Pd2 2.814931 1_555
Cr2 Pd2 2.814931 1_655
Cr2 Pd1 2.873808 1_545
Cr2 Pd1 2.873808 1_645
Cr2 Pd0 2.873808 1_556
Cr2 Pd0 2.873808 1_656
P0 Pd0 2.374280 1_556
P0 Pd2 2.374284 1_555
P0 Pd1 2.374286 1_555
P1 Pd2 2.374280 1_565
P1 Pd0 2.374284 1_555
P1 Pd1 2.374286 1_555
P2 Pd2 2.495141 1_555
P2 Pd2 2.495141 1_655
P2 Pd0 2.495141 1_655
P2 Pd0 2.495141 1_555
P2 Pd1 2.495141 1_644
P2 Pd1 2.495141 1_544
