# generated using pymatgen
data_Co3SiMo2
_symmetry_space_group_name_H-M   'P 1'
_cell_length_a   4.72256421
_cell_length_b   4.72258535
_cell_length_c   7.35059966
_cell_angle_alpha   90.00000000
_cell_angle_beta   90.00000000
_cell_angle_gamma   120.00014936
_symmetry_Int_Tables_number   1
_chemical_formula_structural   Co3SiMo2
_chemical_formula_sum   'Co6 Si2 Mo4'
_cell_volume   141.97452866
_cell_formula_units_Z   2
loop_
 _symmetry_equiv_pos_site_id
 _symmetry_equiv_pos_as_xyz
  1  'x, y, z'
loop_
 _atom_site_type_symbol
 _atom_site_label
 _atom_site_symmetry_multiplicity
 _atom_site_fract_x
 _atom_site_fract_y
 _atom_site_fract_z
 _atom_site_occupancy
  Co  Co0  1  0.82859157  0.17140943  0.25000000  1
  Co  Co1  1  0.82859157  0.65718213  0.25000000  1
  Co  Co2  1  0.34281887  0.17140943  0.25000000  1
  Co  Co3  1  0.17140999  0.82859001  0.75000000  1
  Co  Co4  1  0.17140999  0.34281998  0.75000000  1
  Co  Co5  1  0.65717902  0.82858901  0.75000000  1
  Si  Si0  1  0.00000100  0.00000100  0.49999743  1
  Si  Si1  1  0.00000100  0.00000100  0.00000257  1
  Mo  Mo0  1  0.33333300  0.66666700  0.43230375  1
  Mo  Mo1  1  0.66666600  0.33333200  0.56768126  1
  Mo  Mo2  1  0.66666600  0.33333300  0.93231974  1
  Mo  Mo3  1  0.33333300  0.66666700  0.06769525  1
loop_
_geom_bond_atom_site_label_1
_geom_bond_atom_site_label_2
_geom_bond_distance
_geom_bond_site_symmetry_2
Co0 Co2 2.294093 1_555
Co0 Co1 2.294103 1_555
Co0 Si0 2.311432 1_655
Co0 Si1 2.311432 1_655
Co0 Co2 2.428471 1_655
Co0 Co1 2.428482 1_545
Co0 Mo2 2.684620 1_554
Co0 Mo1 2.684625 1_555
Co0 Mo0 2.715301 1_655
Co0 Mo3 2.715304 1_655
Co0 Mo0 2.715305 1_545
Co0 Mo3 2.715309 1_545
Co1 Co2 2.294093 1_555
Co1 Si1 2.311435 1_665
Co1 Si0 2.311435 1_665
Co1 Co2 2.428471 1_665
Co1 Mo2 2.684620 1_554
Co1 Mo1 2.684629 1_555
Co1 Mo0 2.715299 1_655
Co1 Mo3 2.715302 1_655
Co1 Mo0 2.715307 1_555
Co1 Mo3 2.715311 1_555
Co2 Si1 2.311429 1_555
Co2 Si0 2.311429 1_555
Co2 Mo2 2.684613 1_554
Co2 Mo1 2.684620 1_555
Co2 Mo0 2.715310 1_545
Co2 Mo3 2.715314 1_545
Co2 Mo0 2.715314 1_555
Co2 Mo3 2.715318 1_555
Co3 Co5 2.294078 1_555
Co3 Co4 2.294090 1_555
Co3 Si1 2.311468 1_566
Co3 Si0 2.311468 1_565
Co3 Co5 2.428486 1_455
Co3 Co4 2.428495 1_565
Co3 Mo3 2.684710 1_556
Co3 Mo0 2.684716 1_555
Co3 Mo1 2.715353 1_565
Co3 Mo2 2.715359 1_565
Co3 Mo1 2.715361 1_455
Co3 Mo2 2.715363 1_455
Co4 Co5 2.294075 1_555
Co4 Si1 2.311465 1_556
Co4 Si0 2.311465 1_555
Co4 Co5 2.428489 1_445
Co4 Mo3 2.684712 1_556
Co4 Mo0 2.684718 1_555
Co4 Mo1 2.715357 1_455
Co4 Mo1 2.715358 1_555
Co4 Mo2 2.715359 1_555
Co4 Mo2 2.715363 1_455
Co5 Si1 2.311469 1_666
Co5 Si0 2.311469 1_665
Co5 Mo3 2.684707 1_556
Co5 Mo0 2.684713 1_555
Co5 Mo1 2.715365 1_565
Co5 Mo2 2.715368 1_555
Co5 Mo1 2.715369 1_555
Co5 Mo2 2.715372 1_565
Mo0 Mo3 2.680091 1_555
Mo0 Si0 2.771607 1_665
Mo0 Si0 2.771611 1_555
Mo0 Si0 2.771611 1_565
Mo0 Mo1 2.902486 1_455
Mo0 Mo1 2.902490 1_565
Mo0 Mo1 2.902501 1_555
Mo1 Mo2 2.680311 1_555
Mo1 Si0 2.771582 1_555
Mo1 Si0 2.771598 1_655
Mo1 Si0 2.771610 1_665
Mo2 Si1 2.771581 1_556
Mo2 Si1 2.771601 1_656
Mo2 Si1 2.771605 1_666
Mo2 Mo3 2.902481 1_656
Mo2 Mo3 2.902489 1_546
Mo2 Mo3 2.902492 1_556
Mo3 Si1 2.771606 1_665
Mo3 Si1 2.771610 1_555
Mo3 Si1 2.771610 1_565
