# generated using pymatgen
data_Yb4SmS5
_symmetry_space_group_name_H-M   'P 1'
_cell_length_a   14.48626585
_cell_length_b   14.48626585
_cell_length_c   14.48626585
_cell_angle_alpha   164.16118027
_cell_angle_beta   164.16118027
_cell_angle_gamma   22.47197729
_symmetry_Int_Tables_number   1
_chemical_formula_structural   Yb4SmS5
_chemical_formula_sum   'Yb4 Sm1 S5'
_cell_volume   226.41089335
_cell_formula_units_Z   1
loop_
 _symmetry_equiv_pos_site_id
 _symmetry_equiv_pos_as_xyz
  1  'x, y, z'
loop_
 _atom_site_type_symbol
 _atom_site_label
 _atom_site_symmetry_multiplicity
 _atom_site_fract_x
 _atom_site_fract_y
 _atom_site_fract_z
 _atom_site_occupancy
  Yb  Yb0  1  0.39948800  0.39948800  0.00000000  1
  Yb  Yb1  1  0.79965100  0.79965100  0.00000000  1
  Yb  Yb2  1  0.20034900  0.20034900  0.00000000  1
  Yb  Yb3  1  0.60051200  0.60051200  0.00000000  1
  Sm  Sm0  1  0.00000000  0.00000000  0.00000000  1
  S  S0  1  0.10026700  0.10026700  0.00000000  1
  S  S1  1  0.50000000  0.50000000  0.00000000  1
  S  S2  1  0.89973300  0.89973300  0.00000000  1
  S  S3  1  0.30021900  0.30021900  0.00000000  1
  S  S4  1  0.69978100  0.69978100  0.00000000  1
loop_
_geom_bond_atom_site_label_1
_geom_bond_atom_site_label_2
_geom_bond_distance
_geom_bond_site_symmetry_2
S0 Yb3 2.822664 1_444
S0 Yb3 2.822664 1_455
S0 Yb3 2.822664 1_545
S0 Yb3 2.822664 1_556
S0 Yb2 2.844052 1_555
S0 Sm0 2.849309 1_555
S1 Sm0 2.822656 1_565
S1 Sm0 2.822656 1_666
S1 Sm0 2.822656 1_554
S1 Sm0 2.822656 1_655
S1 Yb0 2.856271 1_555
S1 Yb3 2.856271 1_555
S2 Yb0 2.822664 1_666
S2 Yb0 2.822664 1_554
S2 Yb0 2.822664 1_655
S2 Yb0 2.822664 1_565
S2 Yb1 2.844052 1_555
S2 Sm0 2.849309 1_665
S3 Yb0 2.820948 1_555
S3 Yb1 2.822702 1_455
S3 Yb1 2.822702 1_545
S3 Yb1 2.822702 1_556
S3 Yb1 2.822702 1_444
S3 Yb2 2.838027 1_555
S4 Yb3 2.820948 1_555
S4 Yb2 2.822702 1_565
S4 Yb2 2.822702 1_554
S4 Yb2 2.822702 1_655
S4 Yb2 2.822702 1_666
S4 Yb1 2.838027 1_555
