# generated using pymatgen
data_Co3Sn2
_symmetry_space_group_name_H-M   'P 1'
_cell_length_a   5.24707800
_cell_length_b   7.00955800
_cell_length_c   8.17431400
_cell_angle_alpha   90.00000000
_cell_angle_beta   90.00000000
_cell_angle_gamma   90.00000000
_symmetry_Int_Tables_number   1
_chemical_formula_structural   Co3Sn2
_chemical_formula_sum   'Co12 Sn8'
_cell_volume   300.64879677
_cell_formula_units_Z   4
loop_
 _symmetry_equiv_pos_site_id
 _symmetry_equiv_pos_as_xyz
  1  'x, y, z'
loop_
 _atom_site_type_symbol
 _atom_site_label
 _atom_site_symmetry_multiplicity
 _atom_site_fract_x
 _atom_site_fract_y
 _atom_site_fract_z
 _atom_site_occupancy
  Co  Co0  1  0.75000000  0.58347000  0.37415800  1
  Co  Co1  1  0.75000000  0.08347000  0.12584200  1
  Co  Co2  1  0.25000000  0.41653000  0.62584200  1
  Co  Co3  1  0.25000000  0.91653000  0.87415800  1
  Co  Co4  1  0.99115600  0.26603400  0.37741800  1
  Co  Co5  1  0.50884400  0.76603400  0.12258200  1
  Co  Co6  1  0.49115600  0.73396600  0.62258200  1
  Co  Co7  1  0.00884400  0.23396600  0.87741800  1
  Co  Co8  1  0.00884400  0.73396600  0.62258200  1
  Co  Co9  1  0.49115600  0.23396600  0.87741800  1
  Co  Co10  1  0.50884400  0.26603400  0.37741800  1
  Co  Co11  1  0.99115600  0.76603400  0.12258200  1
  Sn  Sn0  1  0.75000000  0.89906400  0.85224900  1
  Sn  Sn1  1  0.75000000  0.39906400  0.64775100  1
  Sn  Sn2  1  0.25000000  0.10093600  0.14775100  1
  Sn  Sn3  1  0.25000000  0.60093600  0.35224900  1
  Sn  Sn4  1  0.75000000  0.93848700  0.40776400  1
  Sn  Sn5  1  0.75000000  0.43848700  0.09223600  1
  Sn  Sn6  1  0.25000000  0.06151300  0.59223600  1
  Sn  Sn7  1  0.25000000  0.56151300  0.90776400  1
loop_
_geom_bond_atom_site_label_1
_geom_bond_atom_site_label_2
_geom_bond_distance
_geom_bond_site_symmetry_2
Co0 Sn4 2.503629 1_555
Co0 Sn5 2.518652 1_555
Co0 Co4 2.559856 1_555
Co0 Co10 2.559856 1_555
Co0 Sn1 2.583112 1_555
Co0 Sn3 2.632493 1_655
Co0 Sn3 2.632493 1_555
Co0 Co8 2.661052 1_655
Co0 Co6 2.661052 1_555
Co0 Co11 2.732726 1_555
Co0 Co5 2.732726 1_555
Co1 Sn5 2.503629 1_555
Co1 Sn4 2.518652 1_545
Co1 Co11 2.559856 1_545
Co1 Co5 2.559856 1_545
Co1 Sn0 2.583112 1_544
Co1 Sn2 2.632493 1_555
Co1 Sn2 2.632493 1_655
Co1 Co7 2.661052 1_654
Co1 Co9 2.661052 1_554
Co1 Co4 2.732726 1_555
Co1 Co10 2.732726 1_555
Co2 Sn6 2.503629 1_555
Co2 Sn7 2.518652 1_555
Co2 Co8 2.559856 1_555
Co2 Co6 2.559856 1_555
Co2 Sn3 2.583112 1_555
Co2 Sn1 2.632493 1_555
Co2 Sn1 2.632493 1_455
Co2 Co4 2.661052 1_455
Co2 Co9 2.732726 1_555
Co2 Co7 2.732726 1_555
Co3 Sn7 2.503629 1_555
Co3 Sn6 2.518652 1_565
Co3 Co7 2.559856 1_565
Co3 Co9 2.559856 1_565
Co3 Sn2 2.583112 1_566
Co3 Sn0 2.632493 1_455
Co3 Sn0 2.632493 1_555
Co3 Co5 2.661052 1_556
Co3 Co6 2.732726 1_555
Co3 Co8 2.732726 1_555
Co4 Sn2 2.590061 1_655
Co4 Sn4 2.633270 1_545
Co4 Sn6 2.642603 1_655
Co4 Sn1 2.711794 1_555
Co4 Sn3 2.719889 1_655
Co4 Sn5 2.914915 1_555
Co5 Sn3 2.590061 1_555
Co5 Sn5 2.633270 1_555
Co5 Sn7 2.642603 1_554
Co5 Sn0 2.711794 1_554
Co5 Sn2 2.719889 1_565
Co5 Sn4 2.914915 1_555
Co6 Co8 2.530729 1_555
Co6 Sn0 2.590061 1_555
Co6 Sn6 2.633270 1_565
Co6 Sn4 2.642603 1_555
Co6 Sn3 2.711794 1_555
Co6 Co8 2.716349 1_655
Co6 Sn1 2.719889 1_555
Co6 Sn7 2.914915 1_555
Co7 Co9 2.530729 1_555
Co7 Sn1 2.590061 1_455
Co7 Sn7 2.633270 1_555
Co7 Sn5 2.642603 1_456
Co7 Sn2 2.711794 1_556
Co7 Co9 2.716349 1_455
Co7 Sn0 2.719889 1_445
Co7 Sn6 2.914915 1_555
Co8 Sn0 2.590061 1_455
Co8 Sn6 2.633270 1_565
Co8 Sn4 2.642603 1_455
Co8 Sn3 2.711794 1_555
Co8 Sn1 2.719889 1_455
Co8 Sn7 2.914915 1_555
Co9 Sn1 2.590061 1_555
Co9 Sn7 2.633270 1_555
Co9 Sn5 2.642603 1_556
Co9 Sn2 2.711794 1_556
Co9 Sn0 2.719889 1_545
Co9 Sn6 2.914915 1_555
Co10 Co4 2.530729 1_555
Co10 Sn2 2.590061 1_555
Co10 Sn4 2.633270 1_545
Co10 Sn6 2.642603 1_555
Co10 Co2 2.661052 1_555
Co10 Sn1 2.711794 1_555
Co10 Co4 2.716349 1_455
Co10 Sn3 2.719889 1_555
Co10 Sn5 2.914915 1_555
Co11 Co5 2.530729 1_555
Co11 Sn3 2.590061 1_655
Co11 Sn5 2.633270 1_555
Co11 Sn7 2.642603 1_654
Co11 Co3 2.661052 1_654
Co11 Sn0 2.711794 1_554
Co11 Co5 2.716349 1_655
Co11 Sn2 2.719889 1_665
Co11 Sn4 2.914915 1_555
Sn4 Sn6 3.146502 1_565
Sn4 Sn6 3.146502 1_665
Sn5 Sn7 3.146502 1_654
Sn5 Sn7 3.146502 1_554
