# generated using pymatgen
data_NaAlCO5
_symmetry_space_group_name_H-M   'P 1'
_cell_length_a   7.02491779
_cell_length_b   7.02491779
_cell_length_c   7.02491779
_cell_angle_alpha   130.78918778
_cell_angle_beta   120.29512200
_cell_angle_gamma   80.92473054
_symmetry_Int_Tables_number   1
_chemical_formula_structural   NaAlCO5
_chemical_formula_sum   'Na2 Al2 C2 O10'
_cell_volume   218.66311306
_cell_formula_units_Z   2
loop_
 _symmetry_equiv_pos_site_id
 _symmetry_equiv_pos_as_xyz
  1  'x, y, z'
loop_
 _atom_site_type_symbol
 _atom_site_label
 _atom_site_symmetry_multiplicity
 _atom_site_fract_x
 _atom_site_fract_y
 _atom_site_fract_z
 _atom_site_occupancy
  Na  Na0  1  0.00000000  0.00000000  0.00000000  1
  Na  Na1  1  0.50000000  0.00000000  0.50000000  1
  Al  Al0  1  0.50000000  0.00000000  0.00000000  1
  Al  Al1  1  0.50000000  0.50000000  0.50000000  1
  C  C0  1  0.74448200  0.49448200  0.25000000  1
  C  C1  1  0.25551800  0.50551800  0.75000000  1
  O  O0  1  0.86329900  0.61329900  0.25000000  1
  O  O1  1  0.13670100  0.38670100  0.75000000  1
  O  O2  1  0.68774200  0.24159300  0.05385100  1
  O  O3  1  0.31225800  0.75840700  0.94614900  1
  O  O4  1  0.31225800  0.36610900  0.55385100  1
  O  O5  1  0.68774200  0.63389100  0.44614900  1
  O  O6  1  0.31444000  0.22149200  0.09294800  1
  O  O7  1  0.37145500  0.77850800  0.59294800  1
  O  O8  1  0.68556000  0.77850800  0.90705200  1
  O  O9  1  0.62854500  0.22149200  0.40705200  1
loop_
_geom_bond_atom_site_label_1
_geom_bond_atom_site_label_2
_geom_bond_distance
_geom_bond_site_symmetry_2
Na0 O8 2.455267 1_444
Na0 O6 2.455267 1_555
Na0 O4 2.580552 1_555
Na0 O2 2.580552 1_455
Na0 O5 2.580552 1_444
Na0 O3 2.580552 1_544
Na1 O7 2.455271 1_545
Na1 O9 2.455271 1_555
Na1 O2 2.580552 1_556
Na1 O4 2.580552 1_555
Na1 O5 2.580552 1_545
Na1 O3 2.580552 1_544
Al0 O9 1.854200 1_555
Al0 O7 1.854200 1_544
Al0 O6 1.854201 1_555
Al0 O8 1.854201 1_544
Al0 O3 2.031455 1_544
Al0 O2 2.031455 1_555
Al1 O8 1.854201 1_555
Al1 O6 1.854201 1_555
Al1 O9 1.854205 1_555
Al1 O7 1.854205 1_555
Al1 O4 2.031455 1_555
Al1 O5 2.031455 1_555
C0 O0 1.270103 1_555
C0 O5 1.297888 1_555
C0 O2 1.297888 1_555
C1 O1 1.270103 1_555
C1 O3 1.297888 1_555
C1 O4 1.297888 1_555
