# generated using pymatgen
data_SrMg14Cd
_symmetry_space_group_name_H-M   'P 1'
_cell_length_a   6.55007915
_cell_length_b   6.54637754
_cell_length_c   10.64403822
_cell_angle_alpha   90.00000000
_cell_angle_beta   90.00000000
_cell_angle_gamma   119.98131326
_symmetry_Int_Tables_number   1
_chemical_formula_structural   SrMg14Cd
_chemical_formula_sum   'Sr1 Mg14 Cd1'
_cell_volume   395.33603281
_cell_formula_units_Z   1
loop_
 _symmetry_equiv_pos_site_id
 _symmetry_equiv_pos_as_xyz
  1  'x, y, z'
loop_
 _atom_site_type_symbol
 _atom_site_label
 _atom_site_symmetry_multiplicity
 _atom_site_fract_x
 _atom_site_fract_y
 _atom_site_fract_z
 _atom_site_occupancy
  Sr  Sr0  1  0.16463493  0.33231696  0.12500000  1
  Mg  Mg0  1  0.16689639  0.33344770  0.62500000  1
  Mg  Mg1  1  0.16557599  0.83278750  0.62500000  1
  Mg  Mg2  1  0.66009743  0.32005988  0.12500000  1
  Mg  Mg3  1  0.66677675  0.33438538  0.62500000  1
  Mg  Mg4  1  0.66009743  0.84003655  0.12500000  1
  Mg  Mg5  1  0.66677675  0.83239036  0.62500000  1
  Mg  Mg6  1  0.33734370  0.16203577  0.38583526  1
  Mg  Mg7  1  0.33734370  0.16203577  0.86416474  1
  Mg  Mg8  1  0.33734370  0.67530893  0.38583526  1
  Mg  Mg9  1  0.33734370  0.67530893  0.86416474  1
  Mg  Mg10  1  0.82470381  0.16235241  0.38729252  1
  Mg  Mg11  1  0.82470381  0.16235241  0.86270748  1
  Mg  Mg12  1  0.83425320  0.66712710  0.36891578  1
  Mg  Mg13  1  0.83425320  0.66712710  0.88108422  1
  Cd  Cd0  1  0.18185552  0.84092726  0.12500000  1
loop_
_geom_bond_atom_site_label_1
_geom_bond_atom_site_label_2
_geom_bond_distance
_geom_bond_site_symmetry_2
Mg0 Mg10 3.189206 1_455
Mg0 Mg11 3.189206 1_455
Mg0 Mg6 3.199715 1_555
Mg0 Mg7 3.199715 1_555
Mg0 Mg8 3.199722 1_555
Mg0 Mg9 3.199722 1_555
Mg0 Mg5 3.271192 1_555
Mg0 Mg3 3.271193 1_555
Mg0 Mg1 3.273197 1_545
Mg0 Mg1 3.273197 1_555
Mg0 Mg5 3.278895 1_445
Mg0 Mg3 3.278895 1_455
Mg1 Mg8 3.157264 1_555
Mg1 Mg9 3.157264 1_555
Mg1 Mg7 3.157270 1_565
Mg1 Mg6 3.157270 1_565
Mg1 Mg3 3.265876 1_455
Mg1 Mg5 3.265876 1_455
Mg1 Mg3 3.284204 1_565
Mg1 Mg5 3.284205 1_555
Mg1 Mg12 3.311110 1_455
Mg1 Mg13 3.311110 1_455
Mg2 Mg4 3.142414 1_545
Mg2 Sr0 3.265403 1_655
Mg2 Sr0 3.286151 1_555
Mg2 Mg6 3.325922 1_555
Mg2 Mg7 3.325922 1_554
Mg2 Mg4 3.403964 1_555
Mg3 Mg7 3.158545 1_555
Mg3 Mg6 3.158545 1_555
Mg3 Mg5 3.260129 1_555
Mg3 Mg5 3.286249 1_545
Mg4 Sr0 3.265403 1_665
Mg4 Sr0 3.286150 1_555
Mg4 Mg8 3.325922 1_555
Mg4 Mg9 3.325922 1_554
Mg5 Mg8 3.158545 1_555
Mg5 Mg9 3.158545 1_555
Mg6 Mg8 3.186298 1_545
Mg6 Mg8 3.360080 1_555
Mg6 Sr0 3.389800 1_555
Mg7 Mg9 3.186298 1_545
Mg7 Mg9 3.360080 1_555
Mg7 Sr0 3.389800 1_556
Mg8 Sr0 3.389807 1_555
Mg9 Sr0 3.389807 1_556
Mg10 Mg3 3.147130 1_555
Mg10 Mg5 3.147137 1_545
Mg10 Mg8 3.191249 1_545
Mg10 Mg6 3.191250 1_555
Mg10 Mg12 3.279476 1_555
Mg10 Mg12 3.279476 1_545
Mg10 Mg2 3.336959 1_555
Mg10 Mg4 3.336965 1_545
Mg10 Mg8 3.358904 1_655
Mg10 Mg6 3.358904 1_655
Mg10 Sr0 3.393238 1_655
Mg11 Mg3 3.147130 1_555
Mg11 Mg5 3.147137 1_545
Mg11 Mg9 3.191249 1_545
Mg11 Mg7 3.191250 1_555
Mg11 Mg13 3.279476 1_555
Mg11 Mg13 3.279476 1_545
Mg11 Mg2 3.336959 1_556
Mg11 Mg4 3.336965 1_546
Mg11 Mg9 3.358904 1_655
Mg11 Mg7 3.358904 1_655
Mg11 Sr0 3.393238 1_656
Mg12 Mg4 3.257845 1_555
Mg12 Mg2 3.257851 1_555
Mg12 Mg6 3.273803 1_665
Mg12 Mg8 3.273803 1_655
Mg12 Mg6 3.286827 1_555
Mg12 Mg8 3.286828 1_555
Mg12 Mg5 3.315084 1_555
Mg12 Mg3 3.315090 1_555
Mg13 Mg4 3.257845 1_556
Mg13 Mg2 3.257851 1_556
Mg13 Mg7 3.273803 1_665
Mg13 Mg9 3.273803 1_655
Mg13 Mg7 3.286827 1_555
Mg13 Mg9 3.286828 1_555
Mg13 Mg5 3.315084 1_555
Mg13 Mg3 3.315090 1_555
Cd0 Mg2 3.135440 1_565
Cd0 Mg4 3.135440 1_555
Cd0 Mg12 3.260355 1_455
Cd0 Mg13 3.260355 1_454
Cd0 Sr0 3.274647 1_565
Cd0 Sr0 3.274647 1_555
Cd0 Mg9 3.320302 1_554
Cd0 Mg8 3.320302 1_555
Cd0 Mg6 3.320308 1_565
Cd0 Mg7 3.320308 1_564
Cd0 Mg2 3.414646 1_455
Cd0 Mg4 3.414647 1_455
