# generated using pymatgen
data_LiFe8(O3F)4
_symmetry_space_group_name_H-M   'P 1'
_cell_length_a   5.98595701
_cell_length_b   6.44080371
_cell_length_c   7.92004968
_cell_angle_alpha   90.11048277
_cell_angle_beta   112.15547025
_cell_angle_gamma   89.84687179
_symmetry_Int_Tables_number   1
_chemical_formula_structural   LiFe8(O3F)4
_chemical_formula_sum   'Li1 Fe8 O12 F4'
_cell_volume   282.80538500
_cell_formula_units_Z   1
loop_
 _symmetry_equiv_pos_site_id
 _symmetry_equiv_pos_as_xyz
  1  'x, y, z'
loop_
 _atom_site_type_symbol
 _atom_site_label
 _atom_site_symmetry_multiplicity
 _atom_site_fract_x
 _atom_site_fract_y
 _atom_site_fract_z
 _atom_site_occupancy
  Li  Li0  1  0.46143300  0.73715000  0.75203000  1
  Fe  Fe0  1  0.50542900  0.00846500  0.02223400  1
  Fe  Fe1  1  0.00170400  0.99762000  0.00163700  1
  Fe  Fe2  1  0.78100400  0.49573600  0.06006400  1
  Fe  Fe3  1  0.24046200  0.49904100  0.98782600  1
  Fe  Fe4  1  0.50460600  0.00905000  0.49784100  1
  Fe  Fe5  1  0.97495200  0.99908700  0.44658900  1
  Fe  Fe6  1  0.74843000  0.50426300  0.50014000  1
  Fe  Fe7  1  0.24433900  0.49298700  0.47758200  1
  O  O0  1  0.84172400  0.00010200  0.17821000  1
  O  O1  1  0.50639800  0.30897800  0.00947900  1
  O  O2  1  0.99948600  0.30442400  0.00488900  1
  O  O3  1  0.50584700  0.69376100  0.00048000  1
  O  O4  1  0.75203900  0.19726800  0.49371700  1
  O  O5  1  0.24277900  0.19248500  0.48802100  1
  O  O6  1  0.99472400  0.69086500  0.00335700  1
  O  O7  1  0.18494500  0.99572800  0.85417600  1
  O  O8  1  0.90930300  0.50380000  0.32480200  1
  O  O9  1  0.56593500  0.50323300  0.64984900  1
  O  O10  1  0.74919700  0.81039700  0.49580500  1
  O  O11  1  0.25399800  0.80701700  0.50217700  1
  F  F0  1  0.35291600  0.99773400  0.21249700  1
  F  F1  1  0.64587500  0.99085100  0.80129100  1
  F  F2  1  0.39642400  0.50264100  0.28727900  1
  F  F3  1  0.10480000  0.50731800  0.69802700  1
loop_
_geom_bond_atom_site_label_1
_geom_bond_atom_site_label_2
_geom_bond_distance
_geom_bond_site_symmetry_2
Li0 O3 1.904708 1_556
Li0 O9 1.920471 1_555
Li0 O11 1.951237 1_555
Fe0 O7 1.879664 1_544
Fe0 O0 1.924929 1_555
Fe0 O1 1.938512 1_555
Fe0 O3 2.034000 1_545
Fe1 O7 1.879721 1_554
Fe1 O0 1.970521 1_465
Fe1 O2 1.976257 1_465
Fe1 O6 1.976484 1_455
Fe2 O8 1.942698 1_555
Fe2 O1 1.954845 1_555
Fe2 O2 1.959604 1_555
Fe2 O6 1.965202 1_555
Fe2 O3 1.991771 1_555
Fe3 O2 1.956418 1_456
Fe3 O6 1.957431 1_456
Fe3 O1 1.961262 1_556
Fe3 O3 1.999156 1_556
Fe4 O4 1.926303 1_555
Fe4 O5 1.938251 1_555
Fe4 O10 1.946453 1_545
Fe4 O11 1.998573 1_545
Fe5 O5 1.960065 1_665
Fe5 O10 1.965453 1_555
Fe5 O0 1.968653 1_565
Fe5 O4 1.978339 1_565
Fe5 O11 1.987635 1_655
Fe6 O9 1.891112 1_555
Fe6 O8 1.965803 1_555
Fe6 O10 1.972162 1_555
Fe6 O4 1.978121 1_555
Fe7 O9 1.895000 1_555
Fe7 O8 1.913199 1_455
Fe7 O5 1.937596 1_555
Fe7 O11 2.030476 1_555
F0 Fe0 2.036493 1_565
F0 Fe4 2.095017 1_565
F0 Fe1 2.135580 1_555
F1 Li0 1.929649 1_555
F1 Fe1 2.123103 1_656
F1 Fe0 2.211345 1_566
F1 Fe4 2.229922 1_565
F2 Fe7 2.034676 1_555
F2 Fe6 2.145431 1_555
F2 Fe3 2.197017 1_554
F3 Fe6 2.117963 1_455
F3 Fe3 2.127150 1_555
F3 Fe7 2.203043 1_555
F3 Li0 2.501467 1_555
