# generated using pymatgen
data_RbTm(WO4)2
_symmetry_space_group_name_H-M   'P 1'
_cell_length_a   8.02873125
_cell_length_b   9.04158036
_cell_length_c   10.36747200
_cell_angle_alpha   90.00000000
_cell_angle_beta   90.00000000
_cell_angle_gamma   99.24836784
_symmetry_Int_Tables_number   1
_chemical_formula_structural   RbTm(WO4)2
_chemical_formula_sum   'Rb4 Tm4 W8 O32'
_cell_volume   742.81678218
_cell_formula_units_Z   4
loop_
 _symmetry_equiv_pos_site_id
 _symmetry_equiv_pos_as_xyz
  1  'x, y, z'
loop_
 _atom_site_type_symbol
 _atom_site_label
 _atom_site_symmetry_multiplicity
 _atom_site_fract_x
 _atom_site_fract_y
 _atom_site_fract_z
 _atom_site_occupancy
  Rb  Rb0  1  0.07288300  0.51181400  0.21335300  1
  Rb  Rb1  1  0.92711700  0.48818600  0.78664700  1
  Rb  Rb2  1  0.42711700  0.48818600  0.71335300  1
  Rb  Rb3  1  0.57288300  0.51181400  0.28664700  1
  Tm  Tm0  1  0.02139400  0.06031900  0.77685500  1
  Tm  Tm1  1  0.97860600  0.93968100  0.22314500  1
  Tm  Tm2  1  0.47860600  0.93968100  0.27685500  1
  Tm  Tm3  1  0.52139400  0.06031900  0.72314500  1
  W  W0  1  0.28699500  0.22018000  0.00964800  1
  W  W1  1  0.71300500  0.77982000  0.99035200  1
  W  W2  1  0.21300500  0.77982000  0.50964800  1
  W  W3  1  0.78699500  0.22018000  0.49035200  1
  W  W4  1  0.17877600  0.16230000  0.48932800  1
  W  W5  1  0.82122400  0.83770000  0.51067200  1
  W  W6  1  0.32122400  0.83770000  0.98932800  1
  W  W7  1  0.67877600  0.16230000  0.01067200  1
  O  O0  1  0.25631000  0.00861900  0.38947200  1
  O  O1  1  0.74369000  0.99138100  0.61052800  1
  O  O2  1  0.24369000  0.99138100  0.88947200  1
  O  O3  1  0.75631000  0.00861900  0.11052800  1
  O  O4  1  0.34998300  0.39453100  0.08653200  1
  O  O5  1  0.65001700  0.60546900  0.91346800  1
  O  O6  1  0.15001700  0.60546900  0.58653200  1
  O  O7  1  0.84998300  0.39453100  0.41346800  1
  O  O8  1  0.11285800  0.13323500  0.11465800  1
  O  O9  1  0.88714200  0.86676500  0.88534200  1
  O  O10  1  0.38714200  0.86676500  0.61465800  1
  O  O11  1  0.61285800  0.13323500  0.38534200  1
  O  O12  1  0.33517300  0.73240000  0.36882200  1
  O  O13  1  0.66482700  0.26760000  0.63117800  1
  O  O14  1  0.16482700  0.26760000  0.86882200  1
  O  O15  1  0.83517300  0.73240000  0.13117800  1
  O  O16  1  0.26792800  0.32969800  0.41270400  1
  O  O17  1  0.73207200  0.67030200  0.58729600  1
  O  O18  1  0.23207200  0.67030200  0.91270400  1
  O  O19  1  0.76792800  0.32969800  0.08729600  1
  O  O20  1  0.00329200  0.22541600  0.60398600  1
  O  O21  1  0.99670800  0.77458400  0.39601400  1
  O  O22  1  0.49670800  0.77458400  0.10398600  1
  O  O23  1  0.50329200  0.22541600  0.89601400  1
  O  O24  1  0.30520100  0.15319400  0.63746800  1
  O  O25  1  0.69479900  0.84680600  0.36253200  1
  O  O26  1  0.19479900  0.84680600  0.13746800  1
  O  O27  1  0.80520100  0.15319400  0.86253200  1
  O  O28  1  0.45145500  0.08996300  0.10235900  1
  O  O29  1  0.54854500  0.91003700  0.89764100  1
  O  O30  1  0.04854500  0.91003700  0.60235900  1
  O  O31  1  0.95145500  0.08996300  0.39764100  1
loop_
_geom_bond_atom_site_label_1
_geom_bond_atom_site_label_2
_geom_bond_distance
_geom_bond_site_symmetry_2
O0 W4 1.915215 1_555
O0 Tm2 2.301004 1_545
O0 W2 2.391977 1_545
O0 Tm1 2.808291 1_445
O1 W5 1.915215 1_555
O1 Tm3 2.301004 1_565
O1 W3 2.391977 1_565
O1 Tm0 2.808291 1_665
O2 W6 1.915215 1_555
O2 Tm0 2.301004 1_565
O2 W0 2.391977 1_566
O2 Tm3 2.808291 1_565
O3 W7 1.915215 1_555
O3 Tm1 2.301004 1_545
O3 W1 2.391977 1_544
O3 Tm2 2.808291 1_545
O4 W0 1.766330 1_555
O4 Rb3 2.832228 1_555
O4 Rb0 2.925937 1_555
O5 W1 1.766330 1_555
O5 Rb2 2.832228 1_555
O5 Rb1 2.925937 1_555
O6 W2 1.766330 1_555
O6 Rb1 2.832228 1_455
O6 Rb2 2.925937 1_555
O7 W3 1.766330 1_555
O7 Rb0 2.832228 1_655
O7 Rb3 2.925937 1_555
O8 W0 1.845165 1_555
O8 Tm1 2.209784 1_445
O9 W1 1.845165 1_555
O9 Tm0 2.209784 1_665
O10 W2 1.845165 1_555
O10 Tm3 2.209784 1_565
O11 W3 1.845165 1_555
O11 Tm2 2.209784 1_545
O12 W2 1.847351 1_555
O12 Tm2 2.248100 1_555
O12 Rb3 3.093466 1_555
O12 Rb0 3.108119 1_555
O13 W3 1.847351 1_555
O13 Tm3 2.248100 1_555
O13 Rb2 3.093466 1_555
O13 Rb1 3.108119 1_555
O14 W0 1.847351 1_556
O14 Tm0 2.248100 1_555
O14 Rb1 3.093466 1_455
O14 Rb2 3.108119 1_555
O15 W1 1.847351 1_554
O15 Tm1 2.248100 1_555
O15 Rb0 3.093466 1_655
O15 Rb3 3.108119 1_555
O16 W4 1.756699 1_555
O16 Rb3 3.019622 1_555
O16 Rb0 3.203737 1_555
O17 W5 1.756699 1_555
O17 Rb2 3.019622 1_555
O17 Rb1 3.203737 1_555
O18 W6 1.756699 1_555
O18 Rb1 3.019622 1_455
O18 Rb2 3.203737 1_555
O19 W7 1.756699 1_555
O19 Rb0 3.019622 1_655
O19 Rb3 3.203737 1_555
O20 W4 1.995539 1_555
O20 W3 2.092720 1_455
O20 Tm0 2.351841 1_555
O20 Rb1 3.173643 1_455
O21 W5 1.995539 1_555
O21 W2 2.092720 1_655
O21 Tm1 2.351841 1_555
O21 Rb0 3.173643 1_655
O22 W6 1.995539 1_554
O22 W1 2.092720 1_554
O22 Tm2 2.351841 1_555
O22 Rb3 3.173643 1_555
O23 W7 1.995539 1_556
O23 W0 2.092720 1_556
O23 Tm3 2.351841 1_555
O23 Rb2 3.173643 1_555
O24 W4 1.850061 1_555
O24 Tm3 2.230585 1_555
O24 Tm0 2.714862 1_555
O24 Rb2 3.130189 1_555
O25 W5 1.850061 1_555
O25 Tm2 2.230585 1_555
O25 Tm1 2.714862 1_555
O25 Rb3 3.130189 1_555
O26 W6 1.850061 1_554
O26 Tm1 2.230585 1_455
O26 Tm2 2.714862 1_555
O26 Rb0 3.130189 1_555
O27 W7 1.850061 1_556
O27 Tm0 2.230585 1_655
O27 Tm3 2.714862 1_555
O27 Rb1 3.130189 1_555
O28 W7 2.068487 1_555
O28 W0 2.133828 1_555
O28 Tm2 2.293863 1_545
O29 W6 2.068487 1_555
O29 W1 2.133828 1_555
O29 Tm3 2.293863 1_565
O30 W5 2.068487 1_455
O30 W2 2.133828 1_555
O30 Tm0 2.293863 1_565
O31 W4 2.068487 1_655
O31 W3 2.133828 1_555
O31 Tm1 2.293863 1_545
