# generated using pymatgen
data_Sm3Mg2TiS8
_symmetry_space_group_name_H-M   'P 1'
_cell_length_a   7.92868035
_cell_length_b   7.81053376
_cell_length_c   7.92873202
_cell_angle_alpha   59.49851990
_cell_angle_beta   60.00052556
_cell_angle_gamma   59.49736524
_symmetry_Int_Tables_number   1
_chemical_formula_structural   Sm3Mg2TiS8
_chemical_formula_sum   'Sm3 Mg2 Ti1 S8'
_cell_volume   344.53579844
_cell_formula_units_Z   1
loop_
 _symmetry_equiv_pos_site_id
 _symmetry_equiv_pos_as_xyz
  1  'x, y, z'
loop_
 _atom_site_type_symbol
 _atom_site_label
 _atom_site_symmetry_multiplicity
 _atom_site_fract_x
 _atom_site_fract_y
 _atom_site_fract_z
 _atom_site_occupancy
  Sm  Sm0  1  0.50000181  0.50001769  0.49998139  1
  Sm  Sm1  1  0.49999590  0.49999276  0.99999905  1
  Sm  Sm2  1  0.00000055  0.49999265  0.50001088  1
  Mg  Mg0  1  0.87514817  0.87454378  0.87516447  1
  Mg  Mg1  1  0.12485165  0.12546349  0.12483394  1
  Ti  Ti0  1  0.49999725  -0.00000298  0.50001097  1
  S  S0  1  0.73141107  0.77145276  0.73141549  1
  S  S1  1  0.26860313  0.22855060  0.73426285  1
  S  S2  1  0.25304400  0.74085497  0.25304720  1
  S  S3  1  0.73427932  0.22855404  0.26857943  1
  S  S4  1  0.74694204  0.25914713  0.74693808  1
  S  S5  1  0.26572070  0.77144530  0.73141547  1
  S  S6  1  0.26858799  0.22853003  0.26860499  1
  S  S7  1  0.73142041  0.77145278  0.26573679  1
loop_
_geom_bond_atom_site_label_1
_geom_bond_atom_site_label_2
_geom_bond_distance
_geom_bond_site_symmetry_2
Mg0 S4 2.433940 1_565
Mg0 S5 2.531394 1_655
Mg0 S7 2.531437 1_556
Mg0 S0 2.531439 1_555
Mg1 S2 2.433973 1_545
Mg1 S3 2.531397 1_455
Mg1 S1 2.531431 1_554
Mg1 S6 2.531433 1_555
S0 Ti0 2.576054 1_565
S0 Sm2 2.802667 1_655
S0 Sm1 2.802764 1_555
S1 Ti0 2.575993 1_555
S1 Sm2 2.802599 1_555
S1 Sm0 2.802714 1_555
S2 Sm0 2.749831 1_555
S2 Sm1 2.749944 1_554
S2 Sm2 2.749955 1_555
S3 Ti0 2.576219 1_555
S3 Sm1 2.802643 1_554
S3 Sm0 2.802674 1_555
S4 Sm0 2.749849 1_555
S4 Sm1 2.749928 1_555
S4 Sm2 2.749951 1_655
S5 Ti0 2.576159 1_565
S5 Sm1 2.802622 1_555
S5 Sm0 2.802641 1_555
S6 Ti0 2.576040 1_555
S6 Sm2 2.802687 1_555
S6 Sm1 2.802750 1_554
S7 Ti0 2.576069 1_565
S7 Sm2 2.802594 1_655
S7 Sm0 2.802652 1_555
