# generated using pymatgen
data_NaCaMgFe(SiO3)4
_symmetry_space_group_name_H-M   'P 1'
_cell_length_a   8.97633100
_cell_length_b   10.67860688
_cell_length_c   9.73317124
_cell_angle_alpha   104.72861230
_cell_angle_beta   90.00291765
_cell_angle_gamma   89.99877502
_symmetry_Int_Tables_number   1
_chemical_formula_structural   NaCaMgFe(SiO3)4
_chemical_formula_sum   'Na4 Ca4 Mg4 Fe4 Si16 O48'
_cell_volume   902.31375061
_cell_formula_units_Z   4
loop_
 _symmetry_equiv_pos_site_id
 _symmetry_equiv_pos_as_xyz
  1  'x, y, z'
loop_
 _atom_site_type_symbol
 _atom_site_label
 _atom_site_symmetry_multiplicity
 _atom_site_fract_x
 _atom_site_fract_y
 _atom_site_fract_z
 _atom_site_occupancy
  Na  Na0  1  0.79888900  0.62500100  0.50000300  1
  Na  Na1  1  0.29890800  0.87498800  0.99997800  1
  Na  Na2  1  0.79892700  0.12502900  0.50001900  1
  Na  Na3  1  0.29890600  0.37500500  0.99998900  1
  Ca  Ca0  1  0.19865400  0.37502400  0.50001400  1
  Ca  Ca1  1  0.69869100  0.62498700  0.00000000  1
  Ca  Ca2  1  0.19868200  0.87500400  0.50000500  1
  Ca  Ca3  1  0.69868800  0.12498400  0.99998700  1
  Mg  Mg0  1  0.40668200  0.62501800  0.50003000  1
  Mg  Mg1  1  0.90669600  0.87501000  0.99999300  1
  Mg  Mg2  1  0.40665600  0.12500900  0.50001700  1
  Mg  Mg3  1  0.90669900  0.37500500  0.00000700  1
  Fe  Fe0  1  0.60099800  0.87501200  0.49998600  1
  Fe  Fe1  1  0.10102100  0.12506100  0.00000800  1
  Fe  Fe2  1  0.60085300  0.37495300  0.49998500  1
  Fe  Fe3  1  0.10102500  0.62503400  0.00002800  1
  Si  Si0  1  0.09132800  0.72071100  0.71245400  1
  Si  Si1  1  0.59133000  0.97073400  0.21246900  1
  Si  Si2  1  0.09132900  0.22074100  0.71247000  1
  Si  Si3  1  0.59135400  0.47072500  0.21246600  1
  Si  Si4  1  0.09137400  0.52926200  0.28754500  1
  Si  Si5  1  0.59135100  0.77926000  0.78751000  1
  Si  Si6  1  0.09136500  0.02927000  0.28753200  1
  Si  Si7  1  0.59133000  0.27928000  0.78752500  1
  Si  Si8  1  0.90863500  0.27694800  0.28869800  1
  Si  Si9  1  0.40858100  0.52695000  0.78864500  1
  Si  Si10  1  0.90862600  0.77693300  0.28869700  1
  Si  Si11  1  0.40860900  0.02694700  0.78866600  1
  Si  Si12  1  0.90855800  0.47303900  0.71134900  1
  Si  Si13  1  0.40862400  0.72303700  0.21132400  1
  Si  Si14  1  0.90860800  0.97304200  0.71131000  1
  Si  Si15  1  0.40859900  0.22304400  0.21132900  1
  O  O0  1  0.01551200  0.57407200  0.64713800  1
  O  O1  1  0.51554500  0.82409600  0.14710800  1
  O  O2  1  0.01558500  0.07408400  0.64713600  1
  O  O3  1  0.51554200  0.32408700  0.14711100  1
  O  O4  1  0.01559100  0.17589300  0.35289600  1
  O  O5  1  0.51554200  0.42591500  0.85288400  1
  O  O6  1  0.01555000  0.67589000  0.35291900  1
  O  O7  1  0.51558400  0.92591800  0.85286800  1
  O  O8  1  0.98859800  0.42142200  0.34756600  1
  O  O9  1  0.48847100  0.67144200  0.84752000  1
  O  O10  1  0.98848300  0.92143000  0.34751500  1
  O  O11  1  0.48845300  0.17144000  0.84751500  1
  O  O12  1  0.98855200  0.82855800  0.65241900  1
  O  O13  1  0.48846300  0.07855800  0.15247100  1
  O  O14  1  0.98844300  0.32855900  0.65249200  1
  O  O15  1  0.48856300  0.57856500  0.15240600  1
  O  O16  1  0.24946600  0.72674100  0.63763300  1
  O  O17  1  0.74949200  0.97679300  0.13764300  1
  O  O18  1  0.24941500  0.22682000  0.63756800  1
  O  O19  1  0.74953600  0.47677400  0.13766200  1
  O  O20  1  0.24953200  0.52322600  0.36236100  1
  O  O21  1  0.74950000  0.77321000  0.86234000  1
  O  O22  1  0.24949000  0.02321300  0.36236000  1
  O  O23  1  0.74944400  0.27320900  0.86241300  1
  O  O24  1  0.74701900  0.27630300  0.36118100  1
  O  O25  1  0.24701000  0.52630400  0.86120800  1
  O  O26  1  0.74700700  0.77630400  0.36118700  1
  O  O27  1  0.24705700  0.02630300  0.86121500  1
  O  O28  1  0.74696400  0.47369200  0.63882600  1
  O  O29  1  0.24701100  0.72370000  0.13881300  1
  O  O30  1  0.74702700  0.97371700  0.63880600  1
  O  O31  1  0.24699100  0.22370200  0.13880500  1
  O  O32  1  0.08147600  0.75822400  0.88575900  1
  O  O33  1  0.58148400  0.00823000  0.38575900  1
  O  O34  1  0.08149200  0.25822400  0.88576700  1
  O  O35  1  0.58147600  0.50821700  0.38575400  1
  O  O36  1  0.08148500  0.49179000  0.11424100  1
  O  O37  1  0.58147900  0.74178900  0.61423000  1
  O  O38  1  0.08148400  0.99178900  0.11423000  1
  O  O39  1  0.58147900  0.24178300  0.61423700  1
  O  O40  1  0.91540700  0.23332500  0.11523500  1
  O  O41  1  0.41536700  0.48334100  0.61522800  1
  O  O42  1  0.91541300  0.73331900  0.11523100  1
  O  O43  1  0.41539100  0.98334300  0.61522900  1
  O  O44  1  0.91533700  0.51663500  0.88479700  1
  O  O45  1  0.41541100  0.76667200  0.38475700  1
  O  O46  1  0.91539700  0.01665700  0.88476300  1
  O  O47  1  0.41540500  0.26667400  0.38476100  1
loop_
_geom_bond_atom_site_label_1
_geom_bond_atom_site_label_2
_geom_bond_distance
_geom_bond_site_symmetry_2
Na0 O26 2.400592 1_555
Na0 O28 2.400809 1_555
Na0 O37 2.427967 1_555
Na0 O35 2.427994 1_555
Na0 O6 2.554018 1_655
Na0 O0 2.554086 1_655
Na0 O12 2.860836 1_555
Na0 O8 2.861331 1_555
Na1 O27 2.400264 1_565
Na1 O29 2.400663 1_556
Na1 O32 2.427951 1_555
Na1 O38 2.428203 1_556
Na1 O1 2.554012 1_556
Na1 O7 2.554431 1_555
Na1 O9 2.860396 1_555
Na1 O13 2.860591 1_566
Na2 O30 2.400534 1_545
Na2 O24 2.400541 1_555
Na2 O39 2.428069 1_555
Na2 O33 2.428309 1_555
Na2 O4 2.554177 1_655
Na2 O2 2.554278 1_655
Na2 O14 2.860051 1_555
Na2 O10 2.860860 1_545
Na3 O25 2.400331 1_555
Na3 O31 2.400689 1_556
Na3 O34 2.427902 1_555
Na3 O36 2.428114 1_556
Na3 O5 2.554052 1_555
Na3 O3 2.554055 1_556
Na3 O11 2.860489 1_555
Na3 O15 2.860828 1_556
Ca0 O18 2.362640 1_555
Ca0 O20 2.363575 1_555
Ca0 O41 2.391631 1_555
Ca0 O47 2.392221 1_555
Ca0 O8 2.525052 1_455
Ca0 O14 2.526653 1_455
Ca0 O0 2.779119 1_555
Ca0 O4 2.779211 1_555
Ca1 O19 2.363639 1_555
Ca1 O21 2.363688 1_554
Ca1 O44 2.391294 1_554
Ca1 O42 2.391812 1_555
Ca1 O15 2.525491 1_555
Ca1 O9 2.526560 1_554
Ca1 O5 2.779261 1_554
Ca1 O1 2.779504 1_555
Ca2 O22 2.363457 1_565
Ca2 O16 2.363724 1_555
Ca2 O43 2.391721 1_555
Ca2 O45 2.391973 1_555
Ca2 O12 2.525643 1_455
Ca2 O10 2.526374 1_455
Ca2 O2 2.779119 1_565
Ca2 O6 2.779362 1_555
Ca3 O23 2.362997 1_555
Ca3 O17 2.363333 1_546
Ca3 O46 2.391727 1_555
Ca3 O40 2.391883 1_556
Ca3 O11 2.526614 1_555
Ca3 O13 2.526640 1_556
Ca3 O7 2.778991 1_545
Ca3 O3 2.779513 1_556
Mg0 O16 2.055635 1_555
Mg0 O20 2.055767 1_555
Mg0 O41 2.101122 1_555
Mg0 O45 2.101456 1_555
Mg0 O37 2.132462 1_555
Mg0 O35 2.132907 1_555
Mg1 O21 2.056001 1_555
Mg1 O17 2.056031 1_556
Mg1 O46 2.101083 1_565
Mg1 O42 2.101539 1_556
Mg1 O38 2.132576 1_656
Mg1 O32 2.132590 1_655
Mg2 O22 2.055820 1_555
Mg2 O18 2.055869 1_555
Mg2 O43 2.101135 1_545
Mg2 O47 2.101445 1_555
Mg2 O39 2.132721 1_555
Mg2 O33 2.132960 1_555
Mg3 O19 2.055749 1_555
Mg3 O23 2.056052 1_554
Mg3 O44 2.100767 1_554
Mg3 O40 2.101366 1_555
Mg3 O36 2.132581 1_655
Mg3 O34 2.132673 1_654
Fe0 O26 1.982401 1_555
Fe0 O30 1.982559 1_555
Fe0 O33 2.023535 1_565
Fe0 O37 2.023720 1_555
Fe0 O45 2.170630 1_555
Fe0 O43 2.170831 1_555
Fe1 O31 1.981841 1_555
Fe1 O27 1.982721 1_554
Fe1 O34 2.023151 1_554
Fe1 O38 2.024019 1_545
Fe1 O40 2.170532 1_455
Fe1 O46 2.171219 1_454
Fe2 O24 1.983138 1_555
Fe2 O28 1.983287 1_555
Fe2 O39 2.023187 1_555
Fe2 O35 2.023872 1_555
Fe2 O47 2.169392 1_555
Fe2 O41 2.170242 1_555
Fe3 O29 1.981968 1_555
Fe3 O25 1.982454 1_554
Fe3 O32 2.023608 1_554
Fe3 O36 2.023705 1_555
Fe3 O42 2.170519 1_455
Fe3 O44 2.171586 1_454
O0 Si0 1.677247 1_555
O0 Si12 1.679069 1_455
O1 Si1 1.677187 1_555
O1 Si13 1.679131 1_555
O2 Si2 1.677171 1_555
O2 Si14 1.679065 1_445
O3 Si3 1.677277 1_555
O3 Si15 1.679128 1_555
O4 Si6 1.677016 1_555
O4 Si8 1.679122 1_455
O5 Si7 1.677168 1_555
O5 Si9 1.679204 1_555
O6 Si4 1.677257 1_555
O6 Si10 1.678989 1_455
O7 Si5 1.677296 1_555
O7 Si11 1.679036 1_565
O8 Si8 1.665591 1_555
O8 Si4 1.691361 1_655
O9 Si9 1.665477 1_555
O9 Si5 1.691635 1_555
O10 Si10 1.665334 1_555
O10 Si6 1.691689 1_665
O11 Si11 1.665281 1_555
O11 Si7 1.691700 1_555
O12 Si14 1.665628 1_555
O12 Si0 1.691430 1_655
O13 Si15 1.665302 1_555
O13 Si1 1.691500 1_545
O14 Si12 1.665328 1_555
O14 Si2 1.691443 1_655
O15 Si13 1.665530 1_555
O15 Si3 1.691572 1_555
O16 Si0 1.604188 1_555
O17 Si1 1.604449 1_555
O18 Si2 1.604223 1_555
O19 Si3 1.604492 1_555
O20 Si4 1.604266 1_555
O21 Si5 1.604281 1_555
O22 Si6 1.604093 1_555
O23 Si7 1.604300 1_555
O24 Si8 1.613977 1_555
O25 Si9 1.613957 1_555
O26 Si10 1.614012 1_555
O27 Si11 1.613742 1_555
O28 Si12 1.613916 1_555
O29 Si13 1.614030 1_555
O30 Si14 1.613757 1_555
O31 Si15 1.614039 1_555
O32 Si0 1.634024 1_555
O33 Si1 1.633883 1_545
O34 Si2 1.633947 1_555
O35 Si3 1.633880 1_555
O36 Si4 1.634032 1_555
O37 Si5 1.633797 1_555
O38 Si6 1.634008 1_565
O39 Si7 1.633858 1_555
O40 Si8 1.634411 1_555
O41 Si9 1.633982 1_555
O42 Si10 1.634442 1_555
O43 Si11 1.634167 1_565
O44 Si12 1.634261 1_555
O45 Si13 1.634133 1_555
O46 Si14 1.634316 1_545
O47 Si15 1.634129 1_555
