# generated using pymatgen
data_AgSO3F
_symmetry_space_group_name_H-M   'P 1'
_cell_length_a   5.48741936
_cell_length_b   7.82550455
_cell_length_c   8.32893700
_cell_angle_alpha   90.00000000
_cell_angle_beta   90.00000000
_cell_angle_gamma   94.34685964
_symmetry_Int_Tables_number   1
_chemical_formula_structural   AgSO3F
_chemical_formula_sum   'Ag4 S4 O12 F4'
_cell_volume   356.63094067
_cell_formula_units_Z   4
loop_
 _symmetry_equiv_pos_site_id
 _symmetry_equiv_pos_as_xyz
  1  'x, y, z'
loop_
 _atom_site_type_symbol
 _atom_site_label
 _atom_site_symmetry_multiplicity
 _atom_site_fract_x
 _atom_site_fract_y
 _atom_site_fract_z
 _atom_site_occupancy
  Ag  Ag0  1  0.78995500  0.79579600  0.51555900  1
  Ag  Ag1  1  0.21004500  0.20420400  0.01555900  1
  Ag  Ag2  1  0.21073300  0.21192000  0.48896200  1
  Ag  Ag3  1  0.78926700  0.78808000  0.98896200  1
  S  S0  1  0.27218600  0.65186500  0.73446700  1
  S  S1  1  0.72781400  0.34813500  0.23446700  1
  S  S2  1  0.31706100  0.82459800  0.25083500  1
  S  S3  1  0.68293900  0.17540200  0.75083500  1
  O  O0  1  0.21134300  0.88505100  0.39893200  1
  O  O1  1  0.78865700  0.11494900  0.89893200  1
  O  O2  1  0.78636900  0.11418600  0.60219200  1
  O  O3  1  0.21363100  0.88581400  0.10219200  1
  O  O4  1  0.50725700  0.75205400  0.75283100  1
  O  O5  1  0.49274300  0.24794600  0.25283100  1
  O  O6  1  0.05868400  0.75156500  0.75258400  1
  O  O7  1  0.94131600  0.24843500  0.25258400  1
  O  O8  1  0.58486600  0.82845100  0.25188900  1
  O  O9  1  0.41513400  0.17154900  0.75188900  1
  O  O10  1  0.25981300  0.52917000  0.60489700  1
  O  O11  1  0.74018700  0.47083000  0.10489700  1
  F  F0  1  0.23411800  0.62322500  0.24972800  1
  F  F1  1  0.76588200  0.37677500  0.74972800  1
  F  F2  1  0.74000000  0.46479200  0.39712400  1
  F  F3  1  0.26000000  0.53520800  0.89712400  1
loop_
_geom_bond_atom_site_label_1
_geom_bond_atom_site_label_2
_geom_bond_distance
_geom_bond_site_symmetry_2
Ag0 O8 2.489630 1_555
Ag0 O6 2.503805 1_655
Ag0 O4 2.519645 1_555
Ag0 O0 2.556068 1_655
Ag0 O2 2.595448 1_565
Ag0 F2 2.765878 1_555
Ag1 O9 2.489630 1_554
Ag1 O7 2.503805 1_455
Ag1 O5 2.519645 1_555
Ag1 O1 2.556068 1_454
Ag1 O3 2.595448 1_545
Ag1 F3 2.765878 1_554
Ag2 O9 2.491437 1_555
Ag2 O7 2.491476 1_455
Ag2 O5 2.505217 1_555
Ag2 O2 2.574306 1_455
Ag2 O10 2.658402 1_555
Ag2 O0 2.665805 1_545
Ag3 O8 2.491437 1_556
Ag3 O6 2.491476 1_655
Ag3 O4 2.505217 1_555
Ag3 O3 2.574306 1_656
Ag3 O11 2.658402 1_556
Ag3 O1 2.665805 1_565
O0 S2 1.457203 1_555
O1 S3 1.457203 1_555
O2 S3 1.457933 1_555
O3 S2 1.457933 1_555
O4 S0 1.465850 1_555
O5 S1 1.465850 1_555
O6 S0 1.463774 1_555
O7 S1 1.463774 1_555
O8 S2 1.467607 1_555
O9 S3 1.467607 1_555
O10 S0 1.442653 1_555
O11 S1 1.442653 1_555
F0 S2 1.606799 1_555
F1 S3 1.606799 1_555
F2 S1 1.632170 1_555
F3 S0 1.632170 1_555
