# generated using pymatgen
data_BaMg6Cu
_symmetry_space_group_name_H-M   'P 1'
_cell_length_a   7.58344580
_cell_length_b   7.58344580
_cell_length_c   4.88173800
_cell_angle_alpha   90.00000000
_cell_angle_beta   90.00000000
_cell_angle_gamma   131.63036660
_symmetry_Int_Tables_number   1
_chemical_formula_structural   BaMg6Cu
_chemical_formula_sum   'Ba1 Mg6 Cu1'
_cell_volume   209.83963647
_cell_formula_units_Z   1
loop_
 _symmetry_equiv_pos_site_id
 _symmetry_equiv_pos_as_xyz
  1  'x, y, z'
loop_
 _atom_site_type_symbol
 _atom_site_label
 _atom_site_symmetry_multiplicity
 _atom_site_fract_x
 _atom_site_fract_y
 _atom_site_fract_z
 _atom_site_occupancy
  Ba  Ba0  1  0.28680400  0.71319600  0.50000000  1
  Mg  Mg0  1  0.19999400  0.30433800  0.00000000  1
  Mg  Mg1  1  0.69566200  0.80000600  0.00000000  1
  Mg  Mg2  1  0.69370100  0.30629900  0.00000000  1
  Mg  Mg3  1  0.32346100  0.18044400  0.50000000  1
  Mg  Mg4  1  0.81955600  0.67653900  0.50000000  1
  Mg  Mg5  1  0.87180400  0.12819600  0.50000000  1
  Cu  Cu0  1  0.10901900  0.89098100  0.00000000  1
loop_
_geom_bond_atom_site_label_1
_geom_bond_atom_site_label_2
_geom_bond_distance
_geom_bond_site_symmetry_2
Ba0 Mg5 3.321932 1_455
Ba0 Mg5 3.321932 1_565
Ba0 Mg4 3.365098 1_455
Ba0 Mg3 3.365098 1_565
Ba0 Cu0 3.465305 1_555
Ba0 Cu0 3.465305 1_556
Ba0 Mg0 3.645913 1_556
Ba0 Mg0 3.645913 1_555
Ba0 Mg1 3.645913 1_556
Ba0 Mg1 3.645913 1_555
Mg0 Mg3 2.980949 1_554
Mg0 Mg3 2.980949 1_555
Mg0 Mg1 3.079879 1_555
Mg0 Mg5 3.085329 1_455
Mg0 Mg5 3.085329 1_454
Mg0 Mg1 3.133713 1_445
Mg1 Mg4 2.980949 1_555
Mg1 Mg4 2.980949 1_554
Mg1 Mg5 3.085329 1_565
Mg1 Mg5 3.085329 1_564
Mg2 Mg3 3.345373 1_555
Mg2 Mg3 3.345373 1_554
Mg2 Mg4 3.345373 1_555
Mg2 Mg4 3.345373 1_554
Mg2 Mg5 3.468429 1_554
Mg2 Mg5 3.468429 1_555
Mg3 Mg4 3.082532 1_555
Mg3 Mg4 3.131060 1_445
Mg3 Mg5 3.175738 1_455
Mg4 Mg5 3.175738 1_565
Cu0 Mg1 2.725577 1_455
Cu0 Mg0 2.725577 1_565
Cu0 Mg4 2.945856 1_455
Cu0 Mg4 2.945856 1_454
Cu0 Mg3 2.945856 1_564
Cu0 Mg3 2.945856 1_565
Cu0 Mg2 3.320377 1_455
Cu0 Mg2 3.320377 1_565
