# generated using pymatgen
data_HfSiW4
_symmetry_space_group_name_H-M   'P 1'
_cell_length_a   5.31766220
_cell_length_b   5.31766220
_cell_length_c   5.31766220
_cell_angle_alpha   60.00000000
_cell_angle_beta   60.00000000
_cell_angle_gamma   60.00000000
_symmetry_Int_Tables_number   1
_chemical_formula_structural   HfSiW4
_chemical_formula_sum   'Hf1 Si1 W4'
_cell_volume   106.32790051
_cell_formula_units_Z   1
loop_
 _symmetry_equiv_pos_site_id
 _symmetry_equiv_pos_as_xyz
  1  'x, y, z'
loop_
 _atom_site_type_symbol
 _atom_site_label
 _atom_site_symmetry_multiplicity
 _atom_site_fract_x
 _atom_site_fract_y
 _atom_site_fract_z
 _atom_site_occupancy
  Hf  Hf0  1  0.25000000  0.25000000  0.25000000  1
  Si  Si0  1  0.00000000  0.00000000  0.00000000  1
  W  W0  1  0.62561900  0.62561900  0.12314300  1
  W  W1  1  0.62561900  0.12314300  0.62561900  1
  W  W2  1  0.12314300  0.62561900  0.62561900  1
  W  W3  1  0.62561900  0.62561900  0.62561900  1
loop_
_geom_bond_atom_site_label_1
_geom_bond_atom_site_label_2
_geom_bond_distance
_geom_bond_site_symmetry_2
Hf0 W2 3.119169 1_554
Hf0 W1 3.119169 1_554
Hf0 W0 3.119169 1_545
Hf0 W0 3.119169 1_455
Hf0 W2 3.119169 1_545
Hf0 W1 3.119169 1_455
Hf0 W2 3.119169 1_555
Hf0 W3 3.119169 1_545
Hf0 W0 3.119169 1_555
Hf0 W1 3.119169 1_555
Hf0 W3 3.119169 1_455
Hf0 W3 3.119169 1_554
Hf0 Si0 3.256390 1_655
Hf0 Si0 3.256390 1_556
Hf0 Si0 3.256390 1_555
Hf0 Si0 3.256390 1_565
Si0 W1 3.116362 1_454
Si0 W2 3.116362 1_544
Si0 W0 3.116362 1_445
Si0 W3 3.116362 1_445
Si0 W2 3.116362 1_554
Si0 W1 3.116362 1_455
Si0 W3 3.116362 1_454
Si0 W2 3.116362 1_545
Si0 W3 3.116362 1_544
Si0 W0 3.116362 1_455
Si0 W1 3.116362 1_554
Si0 W0 3.116362 1_545
W0 W1 2.645665 1_564
W0 W2 2.645665 1_654
W0 W3 2.645665 1_554
W0 W3 2.671998 1_555
W0 W2 2.671998 1_555
W0 W1 2.671998 1_555
W1 W3 2.645665 1_545
W1 W2 2.645665 1_645
W1 W3 2.671998 1_555
W1 W2 2.671998 1_555
W2 W3 2.645665 1_455
W2 W3 2.671998 1_555
