# generated using pymatgen
data_MgCu2(NiO4)2
_symmetry_space_group_name_H-M   'P 1'
_cell_length_a   6.35516218
_cell_length_b   8.27155400
_cell_length_c   11.83617519
_cell_angle_alpha   90.00000000
_cell_angle_beta   90.95188630
_cell_angle_gamma   90.00000000
_symmetry_Int_Tables_number   1
_chemical_formula_structural   MgCu2(NiO4)2
_chemical_formula_sum   'Mg4 Cu8 Ni8 O32'
_cell_volume   622.10715179
_cell_formula_units_Z   4
loop_
 _symmetry_equiv_pos_site_id
 _symmetry_equiv_pos_as_xyz
  1  'x, y, z'
loop_
 _atom_site_type_symbol
 _atom_site_label
 _atom_site_symmetry_multiplicity
 _atom_site_fract_x
 _atom_site_fract_y
 _atom_site_fract_z
 _atom_site_occupancy
  Mg  Mg0  1  0.11422500  0.15760400  0.04228900  1
  Mg  Mg1  1  0.88577500  0.84239600  0.95771100  1
  Mg  Mg2  1  0.88577500  0.65760400  0.45771100  1
  Mg  Mg3  1  0.11422500  0.34239600  0.54228900  1
  Cu  Cu0  1  0.75452600  0.18925200  0.87647200  1
  Cu  Cu1  1  0.37958700  0.06190700  0.62586600  1
  Cu  Cu2  1  0.62041300  0.93809300  0.37413400  1
  Cu  Cu3  1  0.24547400  0.81074800  0.12352800  1
  Cu  Cu4  1  0.75452600  0.31074800  0.37647200  1
  Cu  Cu5  1  0.37958700  0.43809300  0.12586600  1
  Cu  Cu6  1  0.24547400  0.68925200  0.62352800  1
  Cu  Cu7  1  0.62041300  0.56190700  0.87413400  1
  Ni  Ni0  1  0.09777300  0.46457500  0.83876100  1
  Ni  Ni1  1  0.09777300  0.03542500  0.33876100  1
  Ni  Ni2  1  0.61300800  0.08915300  0.13528000  1
  Ni  Ni3  1  0.90222700  0.96457500  0.66123900  1
  Ni  Ni4  1  0.38699200  0.91084700  0.86472000  1
  Ni  Ni5  1  0.38699200  0.58915300  0.36472000  1
  Ni  Ni6  1  0.61300800  0.41084700  0.63528000  1
  Ni  Ni7  1  0.90222700  0.53542500  0.16123900  1
  O  O0  1  0.02484900  0.23650600  0.39431600  1
  O  O1  1  0.65379900  0.01602500  0.58874200  1
  O  O2  1  0.19208300  0.57617100  0.47771600  1
  O  O3  1  0.80791700  0.07617100  0.02228400  1
  O  O4  1  0.02484900  0.26349400  0.89431600  1
  O  O5  1  0.97515100  0.76349400  0.60568400  1
  O  O6  1  0.09706600  0.11555000  0.61842700  1
  O  O7  1  0.51300800  0.88206200  0.14401100  1
  O  O8  1  0.51300800  0.61793800  0.64401100  1
  O  O9  1  0.31777600  0.87594400  0.71139700  1
  O  O10  1  0.68222400  0.37594400  0.78860300  1
  O  O11  1  0.48699200  0.11793800  0.85598900  1
  O  O12  1  0.90293400  0.88445000  0.38157300  1
  O  O13  1  0.86333600  0.52819300  0.31086700  1
  O  O14  1  0.41550800  0.27088600  0.57711400  1
  O  O15  1  0.41550800  0.22911400  0.07711400  1
  O  O16  1  0.13666400  0.02819300  0.18913300  1
  O  O17  1  0.48699200  0.38206200  0.35598900  1
  O  O18  1  0.13666400  0.47180700  0.68913300  1
  O  O19  1  0.80791700  0.42382900  0.52228400  1
  O  O20  1  0.65379900  0.48397500  0.08874200  1
  O  O21  1  0.68222400  0.12405600  0.28860300  1
  O  O22  1  0.97515100  0.73650600  0.10568400  1
  O  O23  1  0.09706600  0.38445000  0.11842700  1
  O  O24  1  0.19208300  0.92382900  0.97771600  1
  O  O25  1  0.58449200  0.77088600  0.92288600  1
  O  O26  1  0.34620100  0.98397500  0.41125800  1
  O  O27  1  0.34620100  0.51602500  0.91125800  1
  O  O28  1  0.90293400  0.61555000  0.88157300  1
  O  O29  1  0.58449200  0.72911400  0.42288600  1
  O  O30  1  0.31777600  0.62405600  0.21139700  1
  O  O31  1  0.86333600  0.97180700  0.81086700  1
loop_
_geom_bond_atom_site_label_1
_geom_bond_atom_site_label_2
_geom_bond_distance
_geom_bond_site_symmetry_2
Mg0 O4 2.030825 1_554
Mg0 O15 2.039519 1_555
Mg0 O16 2.044215 1_555
Mg0 O3 2.069747 1_455
Mg0 O23 2.085197 1_555
Mg0 O24 2.140250 1_544
Mg1 O22 2.030825 1_556
Mg1 O25 2.039519 1_555
Mg1 O31 2.044215 1_555
Mg1 O24 2.069747 1_655
Mg1 O28 2.085197 1_555
Mg1 O3 2.140250 1_566
Mg2 O5 2.030825 1_555
Mg2 O29 2.039519 1_555
Mg2 O13 2.044215 1_555
Mg2 O2 2.069747 1_655
Mg2 O12 2.085197 1_555
Mg2 O19 2.140250 1_555
Mg3 O0 2.030825 1_555
Mg3 O14 2.039519 1_555
Mg3 O18 2.044215 1_555
Mg3 O19 2.069747 1_455
Mg3 O6 2.085197 1_555
Mg3 O2 2.140250 1_555
Cu0 O11 1.812124 1_555
Cu0 O4 1.833305 1_655
Cu0 O10 1.913525 1_555
Cu0 O3 1.987245 1_556
Cu0 O31 2.081822 1_545
Cu1 O14 1.837785 1_555
Cu1 O1 1.843752 1_555
Cu1 O6 1.850157 1_555
Cu1 O9 1.886388 1_545
Cu2 O29 1.837785 1_555
Cu2 O26 1.843752 1_555
Cu2 O12 1.850157 1_555
Cu2 O21 1.886388 1_565
Cu3 O7 1.812124 1_555
Cu3 O22 1.833305 1_455
Cu3 O30 1.913525 1_555
Cu3 O24 1.987245 1_554
Cu3 O16 2.081822 1_565
Cu4 O17 1.812124 1_555
Cu4 O0 1.833305 1_655
Cu4 O21 1.913525 1_555
Cu4 O19 1.987245 1_555
Cu4 O13 2.081822 1_555
Cu5 O15 1.837785 1_555
Cu5 O20 1.843752 1_555
Cu5 O23 1.850157 1_555
Cu5 O30 1.886388 1_555
Cu6 O8 1.812124 1_555
Cu6 O5 1.833305 1_455
Cu6 O9 1.913525 1_555
Cu6 O2 1.987245 1_555
Cu6 O18 2.081822 1_555
Cu7 O25 1.837785 1_555
Cu7 O27 1.843752 1_555
Cu7 O28 1.850157 1_555
Cu7 O10 1.886388 1_555
Ni0 O18 1.793246 1_555
Ni0 O27 1.834400 1_555
Ni0 O28 1.835849 1_455
Ni0 O4 1.850324 1_555
Ni1 O16 1.793246 1_555
Ni1 O26 1.834400 1_545
Ni1 O12 1.835849 1_445
Ni1 O0 1.850324 1_555
Ni2 O7 1.830571 1_545
Ni2 O15 1.833280 1_555
Ni2 O3 1.841099 1_555
Ni2 O21 1.882463 1_555
Ni3 O31 1.793246 1_555
Ni3 O1 1.834400 1_565
Ni3 O6 1.835849 1_665
Ni3 O5 1.850324 1_555
Ni4 O11 1.830571 1_565
Ni4 O25 1.833280 1_555
Ni4 O24 1.841099 1_555
Ni4 O9 1.882463 1_555
Ni5 O17 1.830571 1_555
Ni5 O29 1.833280 1_555
Ni5 O2 1.841099 1_555
Ni5 O30 1.882463 1_555
Ni6 O8 1.830571 1_555
Ni6 O14 1.833280 1_555
Ni6 O19 1.841099 1_555
Ni6 O10 1.882463 1_555
Ni7 O13 1.793246 1_555
Ni7 O20 1.834400 1_555
Ni7 O23 1.835849 1_655
Ni7 O22 1.850324 1_555
