# generated using pymatgen
data_Fe2SiS4
_symmetry_space_group_name_H-M   'P 1'
_cell_length_a   6.72438300
_cell_length_b   5.49754700
_cell_length_c   11.94200767
_cell_angle_alpha   89.50666614
_cell_angle_beta   90.00000000
_cell_angle_gamma   90.00000000
_symmetry_Int_Tables_number   1
_chemical_formula_structural   Fe2SiS4
_chemical_formula_sum   'Fe8 Si4 S16'
_cell_volume   441.45113668
_cell_formula_units_Z   4
loop_
 _symmetry_equiv_pos_site_id
 _symmetry_equiv_pos_as_xyz
  1  'x, y, z'
loop_
 _atom_site_type_symbol
 _atom_site_label
 _atom_site_symmetry_multiplicity
 _atom_site_fract_x
 _atom_site_fract_y
 _atom_site_fract_z
 _atom_site_occupancy
  Fe  Fe0  1  0.00000000  0.50000000  0.00000000  1
  Fe  Fe1  1  0.50000000  0.50000000  0.00000000  1
  Fe  Fe2  1  0.26038200  0.50025400  0.74085000  1
  Fe  Fe3  1  0.73961800  0.50025400  0.74085000  1
  Fe  Fe4  1  0.00000000  0.50000000  0.50000000  1
  Fe  Fe5  1  0.50000000  0.00000000  0.50000000  1
  Fe  Fe6  1  0.26038200  0.49974600  0.25915000  1
  Fe  Fe7  1  0.73961800  0.49974600  0.25915000  1
  Si  Si0  1  0.50000000  0.09268800  0.82750200  1
  Si  Si1  1  0.00000000  0.91606600  0.66397600  1
  Si  Si2  1  0.00000000  0.08393400  0.33602400  1
  Si  Si3  1  0.50000000  0.90731200  0.17249800  1
  S  S0  1  0.25647100  0.28230600  0.90829000  1
  S  S1  1  0.74352900  0.28230600  0.90829000  1
  S  S2  1  0.50000000  0.70032400  0.83501700  1
  S  S3  1  0.00000000  0.71675300  0.82218200  1
  S  S4  1  0.50000000  0.24589800  0.66204800  1
  S  S5  1  0.00000000  0.31327500  0.66529900  1
  S  S6  1  0.24856100  0.74927700  0.58035800  1
  S  S7  1  0.75143900  0.74927700  0.58035800  1
  S  S8  1  0.24856100  0.25072300  0.41964200  1
  S  S9  1  0.75143900  0.25072300  0.41964200  1
  S  S10  1  0.00000000  0.68672500  0.33470100  1
  S  S11  1  0.50000000  0.75410200  0.33795200  1
  S  S12  1  0.00000000  0.28324700  0.17781800  1
  S  S13  1  0.50000000  0.29967600  0.16498300  1
  S  S14  1  0.25647100  0.71769400  0.09171000  1
  S  S15  1  0.74352900  0.71769400  0.09171000  1
loop_
_geom_bond_atom_site_label_1
_geom_bond_atom_site_label_2
_geom_bond_distance
_geom_bond_site_symmetry_2
Fe0 S0 2.372468 1_554
Fe0 S1 2.372468 1_454
Fe0 S14 2.372468 1_555
Fe0 S15 2.372468 1_455
Fe0 S12 2.426031 1_555
Fe0 S3 2.426031 1_554
Fe1 S2 2.248839 1_554
Fe1 S13 2.248839 1_555
Fe1 S0 2.309979 1_554
Fe1 S1 2.309979 1_554
Fe1 S14 2.309979 1_555
Fe1 S15 2.309979 1_555
Fe2 S5 2.225377 1_555
Fe2 S2 2.256523 1_555
Fe2 S0 2.322358 1_555
Fe2 S3 2.333571 1_555
Fe2 S4 2.336625 1_555
Fe2 S6 2.347058 1_555
Fe3 S5 2.225377 1_655
Fe3 S2 2.256523 1_555
Fe3 S1 2.322358 1_555
Fe3 S3 2.333571 1_655
Fe3 S4 2.336625 1_555
Fe3 S7 2.347058 1_555
Fe4 S5 2.217104 1_555
Fe4 S10 2.217104 1_555
Fe4 S8 2.369645 1_555
Fe4 S9 2.369645 1_455
Fe4 S6 2.369645 1_555
Fe4 S7 2.369645 1_455
Fe5 S4 2.370111 1_555
Fe5 S11 2.370111 1_545
Fe5 S9 2.378385 1_555
Fe5 S8 2.378385 1_555
Fe5 S6 2.378385 1_545
Fe5 S7 2.378385 1_545
Fe6 S10 2.225377 1_555
Fe6 S13 2.256523 1_555
Fe6 S14 2.322358 1_555
Fe6 S12 2.333571 1_555
Fe6 S11 2.336625 1_555
Fe6 S8 2.347058 1_555
Fe7 S10 2.225377 1_655
Fe7 S13 2.256523 1_555
Fe7 S15 2.322358 1_555
Fe7 S12 2.333571 1_655
Fe7 S11 2.336625 1_555
Fe7 S9 2.347058 1_555
S0 Si0 2.171738 1_555
S1 Si0 2.171738 1_555
S2 Si0 2.158133 1_565
S3 Si1 2.175873 1_555
S4 Si0 2.141208 1_555
S5 Si1 2.183868 1_545
S6 Si1 2.155761 1_555
S7 Si1 2.155761 1_655
S8 Si2 2.155761 1_555
S9 Si2 2.155761 1_655
S10 Si2 2.183868 1_565
S11 Si3 2.141208 1_555
S12 Si2 2.175873 1_555
S13 Si3 2.158133 1_545
S14 Si3 2.171738 1_555
S15 Si3 2.171738 1_555
