# generated using pymatgen
data_Ti3Cr2Ni(PO4)6
_symmetry_space_group_name_H-M   'P 1'
_cell_length_a   8.61796503
_cell_length_b   8.61796503
_cell_length_c   8.61796499
_cell_angle_alpha   60.11835305
_cell_angle_beta   60.11835305
_cell_angle_gamma   60.11835949
_symmetry_Int_Tables_number   1
_chemical_formula_structural   Ti3Cr2Ni(PO4)6
_chemical_formula_sum   'Ti3 Cr2 Ni1 P6 O24'
_cell_volume   453.79754399
_cell_formula_units_Z   1
loop_
 _symmetry_equiv_pos_site_id
 _symmetry_equiv_pos_as_xyz
  1  'x, y, z'
loop_
 _atom_site_type_symbol
 _atom_site_label
 _atom_site_symmetry_multiplicity
 _atom_site_fract_x
 _atom_site_fract_y
 _atom_site_fract_z
 _atom_site_occupancy
  Ti  Ti0  1  0.14442500  0.14442500  0.14442500  1
  Ti  Ti1  1  0.35462600  0.35462600  0.35462600  1
  Ti  Ti2  1  0.64634000  0.64634000  0.64634000  1
  Cr  Cr0  1  0.99734700  0.99734700  0.99734700  1
  Cr  Cr1  1  0.49899300  0.49899300  0.49899300  1
  Ni  Ni0  1  0.85616600  0.85616600  0.85616600  1
  P  P0  1  0.45739700  0.75216800  0.04405300  1
  P  P1  1  0.75216800  0.04405300  0.45739700  1
  P  P2  1  0.95635000  0.54424400  0.25031000  1
  P  P3  1  0.25031000  0.95635000  0.54424400  1
  P  P4  1  0.54424400  0.25031000  0.95635000  1
  P  P5  1  0.04405300  0.45739700  0.75216800  1
  O  O0  1  0.49081700  0.31897000  0.11678000  1
  O  O1  1  0.11678000  0.49081700  0.31897000  1
  O  O2  1  0.25822400  0.91381200  0.05769700  1
  O  O3  1  0.31897000  0.11678000  0.49081700  1
  O  O4  1  0.60944500  0.80989200  0.01402800  1
  O  O5  1  0.43097800  0.58588300  0.23758000  1
  O  O6  1  0.91381200  0.05769700  0.25822400  1
  O  O7  1  0.58588300  0.23758000  0.43097800  1
  O  O8  1  0.00148700  0.38007800  0.18942800  1
  O  O9  1  0.23758000  0.43097800  0.58588300  1
  O  O10  1  0.94695300  0.73624600  0.09173700  1
  O  O11  1  0.18942800  0.00148700  0.38007800  1
  O  O12  1  0.80989200  0.01402800  0.60944500  1
  O  O13  1  0.05769700  0.25822400  0.91381200  1
  O  O14  1  0.76396300  0.55480800  0.41655100  1
  O  O15  1  0.01402800  0.60944500  0.80989200  1
  O  O16  1  0.41655100  0.76396300  0.55480800  1
  O  O17  1  0.09173700  0.94695300  0.73624600  1
  O  O18  1  0.55480800  0.41655100  0.76396300  1
  O  O19  1  0.38007800  0.18942800  0.00148700  1
  O  O20  1  0.69155600  0.87884400  0.50182200  1
  O  O21  1  0.73624600  0.09173700  0.94695300  1
  O  O22  1  0.87884400  0.50182200  0.69155600  1
  O  O23  1  0.50182200  0.69155600  0.87884400  1
loop_
_geom_bond_atom_site_label_1
_geom_bond_atom_site_label_2
_geom_bond_distance
_geom_bond_site_symmetry_2
Cr0 O10 2.170578 1_556
Cr0 O17 2.170578 1_655
Cr0 O21 2.170578 1_565
Cr0 O13 2.241118 1_665
Cr0 O6 2.241118 1_566
Cr0 O2 2.241118 1_656
Cr1 O14 2.255636 1_555
Cr1 O18 2.255636 1_555
Cr1 O16 2.255636 1_555
Cr1 O9 2.275330 1_555
Cr1 O5 2.275330 1_555
Cr1 O7 2.275330 1_555
Ni0 O4 1.988149 1_556
Ni0 O12 1.988149 1_565
Ni0 O15 1.988149 1_655
Ni0 O17 2.118517 1_655
Ni0 O10 2.118517 1_556
Ni0 O21 2.118517 1_565
O0 P4 1.543707 1_554
O0 Ti1 1.882689 1_555
O1 P2 1.543707 1_455
O1 Ti1 1.882689 1_555
O2 P0 1.574867 1_555
O2 Ti0 2.068303 1_565
O3 P3 1.543707 1_545
O3 Ti1 1.882689 1_555
O4 P0 1.488233 1_555
O5 P0 1.565977 1_555
O5 Ti1 2.016077 1_555
O6 P1 1.574867 1_555
O6 Ti0 2.068303 1_655
O7 P1 1.565977 1_555
O7 Ti1 2.016077 1_555
O8 P2 1.554385 1_455
O8 Ti0 1.899537 1_555
O9 P5 1.565977 1_555
O9 Ti1 2.016077 1_555
O10 P2 1.528277 1_555
O11 P3 1.554385 1_545
O11 Ti0 1.899537 1_555
O12 P1 1.488233 1_555
O13 P5 1.574867 1_555
O13 Ti0 2.068303 1_556
O14 P2 1.556422 1_555
O14 Ti2 2.081102 1_555
O15 P5 1.488233 1_555
O16 P3 1.556422 1_555
O16 Ti2 2.081102 1_555
O17 P3 1.528277 1_555
O18 P4 1.556422 1_555
O18 Ti2 2.081102 1_555
O19 P4 1.554385 1_554
O19 Ti0 1.899537 1_555
O20 P1 1.563704 1_565
O20 Ti2 1.877678 1_555
O21 P4 1.528277 1_555
O22 P5 1.563704 1_655
O22 Ti2 1.877678 1_555
O23 P0 1.563704 1_556
O23 Ti2 1.877678 1_555
