# generated using pymatgen
data_Sr8V6O19
_symmetry_space_group_name_H-M   'P 1'
_cell_length_a   14.16771954
_cell_length_b   12.72415070
_cell_length_c   15.03367264
_cell_angle_alpha   34.74795147
_cell_angle_beta   33.99596731
_cell_angle_gamma   26.08944648
_symmetry_Int_Tables_number   1
_chemical_formula_structural   Sr8V6O19
_chemical_formula_sum   'Sr8 V6 O19'
_cell_volume   632.83104861
_cell_formula_units_Z   1
loop_
 _symmetry_equiv_pos_site_id
 _symmetry_equiv_pos_as_xyz
  1  'x, y, z'
loop_
 _atom_site_type_symbol
 _atom_site_label
 _atom_site_symmetry_multiplicity
 _atom_site_fract_x
 _atom_site_fract_y
 _atom_site_fract_z
 _atom_site_occupancy
  Sr  Sr0  1  0.31557600  0.28839900  0.36884700  1
  Sr  Sr1  1  0.03827800  0.43084500  0.92344500  1
  Sr  Sr2  1  0.45741500  0.64345700  0.08517000  1
  Sr  Sr3  1  0.22539100  0.77420500  0.54921900  1
  Sr  Sr4  1  0.80305500  0.19191300  0.39389000  1
  Sr  Sr5  1  0.54616500  0.46448000  0.90767000  1
  Sr  Sr6  1  0.96537200  0.68823300  0.06925600  1
  Sr  Sr7  1  0.72356300  0.79785600  0.55287300  1
  V  V0  1  0.08442600  0.08278100  0.83114800  1
  V  V1  1  0.42164900  0.92520900  0.15670100  1
  V  V2  1  0.39389400  0.14165700  0.21221100  1
  V  V3  1  0.16622700  0.97932500  0.66754500  1
  V  V4  1  0.92483800  0.05195900  0.15032500  1
  V  V5  1  0.60988800  0.97618000  0.78022300  1
  O  O0  1  0.22530000  0.88178600  0.96683500  1
  O  O1  1  0.11025100  0.10295300  0.29121500  1
  O  O2  1  0.20849500  0.46862300  0.16026800  1
  O  O3  1  0.47239100  0.11173700  0.05521800  1
  O  O4  1  0.07668500  0.72694000  0.30256400  1
  O  O5  1  0.27949500  0.03283600  0.44101000  1
  O  O6  1  0.63123700  0.04588100  0.16026800  1
  O  O7  1  0.62075100  0.18287500  0.30256400  1
  O  O8  1  0.11660000  0.80227600  0.76680000  1
  O  O9  1  0.40263900  0.31759700  0.69895400  1
  O  O10  1  0.04451100  0.91932400  0.91097800  1
  O  O11  1  0.80786500  0.29922100  0.96683500  1
  O  O12  1  0.59853400  0.61467000  0.29121500  1
  O  O13  1  0.93136000  0.19830300  0.13727900  1
  O  O14  1  0.38429200  0.90690200  0.65595200  1
  O  O15  1  0.63218700  0.85946400  0.73562500  1
  O  O16  1  0.95975600  0.33143900  0.65595200  1
  O  O17  1  0.49350400  0.86884400  0.01299100  1
  O  O18  1  0.89840700  0.82183000  0.69895400  1
loop_
_geom_bond_atom_site_label_1
_geom_bond_atom_site_label_2
_geom_bond_distance
_geom_bond_site_symmetry_2
O0 V0 1.922069 1_565
O0 V4 2.051099 1_466
O0 Sr2 2.469371 1_556
O0 Sr5 2.711169 1_555
O1 V1 1.862339 1_545
O1 Sr4 2.342814 1_455
O1 Sr3 2.602949 1_545
O2 V2 1.803102 1_555
O2 Sr6 2.405808 1_455
O2 Sr5 2.657517 1_554
O2 Sr0 2.686110 1_555
O3 V2 1.820978 1_555
O3 V1 1.942449 1_545
O4 V4 1.896964 1_465
O4 Sr0 2.473181 1_555
O4 Sr7 2.501700 1_455
O4 Sr2 2.662159 1_555
O5 V2 1.826403 1_555
O5 V3 1.930571 1_545
O5 Sr3 2.780198 1_545
O5 Sr0 2.877756 1_555
O6 V2 1.803106 1_555
O6 Sr6 2.405808 1_545
O6 Sr5 2.657517 1_554
O6 Sr0 2.686113 1_555
O7 V4 1.896967 1_555
O7 Sr0 2.473194 1_555
O7 Sr7 2.501699 1_545
O7 Sr2 2.662153 1_555
O8 V3 1.837750 1_555
O8 Sr3 2.402941 1_555
O8 Sr6 2.441113 1_456
O9 V5 1.816810 1_545
O9 Sr1 2.420088 1_555
O9 Sr3 2.608272 1_555
O9 Sr4 2.896465 1_555
O10 V0 1.723732 1_565
O10 V3 2.063663 1_555
O10 Sr6 2.359096 1_456
O11 V0 1.922069 1_655
O11 V4 2.051103 1_556
O11 Sr2 2.469371 1_556
O11 Sr5 2.711169 1_555
O12 V1 1.862344 1_555
O12 Sr4 2.342814 1_555
O12 Sr3 2.602945 1_555
O13 V4 1.786974 1_555
O13 Sr1 2.393511 1_654
O13 Sr4 2.513077 1_555
O14 V0 2.012181 1_565
O14 V3 2.163726 1_555
O14 Sr7 2.575586 1_555
O14 Sr0 2.681260 1_565
O14 Sr5 2.731871 1_555
O15 V5 1.788078 1_555
O15 Sr7 2.378568 1_555
O15 Sr2 2.865923 1_556
O16 V0 2.012177 1_655
O16 V3 2.163732 1_645
O16 Sr7 2.575582 1_555
O16 Sr0 2.681255 1_655
O16 Sr5 2.731873 1_555
O17 V5 1.858252 1_554
O17 V1 1.950987 1_555
O17 Sr2 2.502679 1_555
O18 V5 1.816821 1_555
O18 Sr1 2.420094 1_655
O18 Sr3 2.608267 1_655
O18 Sr4 2.896467 1_565
