# generated using pymatgen
data_Na(WO3)2
_symmetry_space_group_name_H-M   'P 1'
_cell_length_a   6.62378719
_cell_length_b   6.62377833
_cell_length_c   6.62378155
_cell_angle_alpha   109.36316953
_cell_angle_beta   109.36322635
_cell_angle_gamma   109.68740345
_symmetry_Int_Tables_number   1
_chemical_formula_structural   Na(WO3)2
_chemical_formula_sum   'Na2 W4 O12'
_cell_volume   223.71342945
_cell_formula_units_Z   2
loop_
 _symmetry_equiv_pos_site_id
 _symmetry_equiv_pos_as_xyz
  1  'x, y, z'
loop_
 _atom_site_type_symbol
 _atom_site_label
 _atom_site_symmetry_multiplicity
 _atom_site_fract_x
 _atom_site_fract_y
 _atom_site_fract_z
 _atom_site_occupancy
  Na  Na0  1  0.50000049  0.50000004  -0.00000032  1
  Na  Na1  1  -0.00000033  -0.00000101  -0.00000086  1
  W  W0  1  -0.00000064  -0.00000007  0.49999946  1
  W  W1  1  0.50000118  0.49999994  0.50000042  1
  W  W2  1  0.49999966  -0.00000055  -0.00000116  1
  W  W3  1  -0.00000007  0.50000042  0.00000082  1
  O  O0  1  0.22616563  0.22616494  0.45233778  1
  O  O1  1  0.77383526  0.77383515  0.54766201  1
  O  O2  1  0.77382344  0.22617971  0.00000272  1
  O  O3  1  0.22617625  0.77382021  -0.00000265  1
  O  O4  1  0.97250188  0.72624432  0.24625787  1
  O  O5  1  0.47999426  0.72625261  0.75373658  1
  O  O6  1  0.72624059  0.97250092  0.24625328  1
  O  O7  1  0.72625365  0.47999193  0.75373708  1
  O  O8  1  0.02749823  0.27375679  0.75374288  1
  O  O9  1  0.52000628  0.27374729  0.24626285  1
  O  O10  1  0.27375840  0.02749868  0.75374584  1
  O  O11  1  0.27374584  0.52000868  0.24626539  1
loop_
_geom_bond_atom_site_label_1
_geom_bond_atom_site_label_2
_geom_bond_distance
_geom_bond_site_symmetry_2
Na0 O6 2.556444 1_555
Na0 O10 2.556446 1_554
Na0 O4 2.556449 1_555
Na0 O8 2.556454 1_554
Na0 O5 2.556519 1_554
Na0 O9 2.556520 1_555
Na0 O7 2.556523 1_554
Na0 O11 2.556548 1_555
Na1 O1 2.449634 1_444
Na1 O0 2.449642 1_555
Na1 O3 2.449731 1_545
Na1 O2 2.449740 1_455
Na1 O5 2.813800 1_444
Na1 O7 2.813806 1_444
Na1 O9 2.813807 1_555
Na1 O11 2.813819 1_555
Na1 O10 2.813837 1_554
Na1 O4 2.813841 1_445
Na1 O6 2.813843 1_445
Na1 O8 2.813845 1_554
O0 W0 1.924378 1_555
O0 W1 1.924436 1_555
O1 W0 1.924373 1_665
O1 W1 1.924434 1_555
O2 W3 1.924388 1_655
O2 W2 1.924393 1_555
O3 W3 1.924390 1_555
O3 W2 1.924397 1_565
O4 W3 1.923435 1_655
O4 W0 1.923438 1_665
O5 W1 1.923415 1_555
O5 W2 1.923445 1_566
O6 W2 1.923416 1_565
O6 W0 1.923462 1_665
O7 W1 1.923420 1_555
O7 W3 1.923437 1_656
O8 W3 1.923439 1_556
O8 W0 1.923445 1_555
O9 W1 1.923413 1_555
O9 W2 1.923451 1_555
O10 W2 1.923414 1_556
O10 W0 1.923465 1_555
O11 W1 1.923426 1_555
O11 W3 1.923439 1_555
