# generated using pymatgen
data_MgZrN2
_symmetry_space_group_name_H-M   'P 1'
_cell_length_a   4.46047051
_cell_length_b   4.46047051
_cell_length_c   5.57590142
_cell_angle_alpha   113.57827998
_cell_angle_beta   113.57829142
_cell_angle_gamma   90.02214483
_symmetry_Int_Tables_number   1
_chemical_formula_structural   MgZrN2
_chemical_formula_sum   'Mg2 Zr2 N4'
_cell_volume   91.47248212
_cell_formula_units_Z   2
loop_
 _symmetry_equiv_pos_site_id
 _symmetry_equiv_pos_as_xyz
  1  'x, y, z'
loop_
 _atom_site_type_symbol
 _atom_site_label
 _atom_site_symmetry_multiplicity
 _atom_site_fract_x
 _atom_site_fract_y
 _atom_site_fract_z
 _atom_site_occupancy
  Mg  Mg0  1  0.37502922  0.12497078  0.75000000  1
  Mg  Mg1  1  0.62497078  0.87502922  0.25000000  1
  Zr  Zr0  1  0.12498316  0.37501784  0.25000000  1
  Zr  Zr1  1  0.87501684  0.62498216  0.75000000  1
  N  N0  1  0.88440044  0.13438752  0.76877811  1
  N  N1  1  0.11559956  0.86561248  0.23122189  1
  N  N2  1  0.36561248  0.61560056  0.73122189  1
  N  N3  1  0.63438752  0.38439944  0.26877811  1
loop_
_geom_bond_atom_site_label_1
_geom_bond_atom_site_label_2
_geom_bond_distance
_geom_bond_site_symmetry_2
Mg0 N2 2.231803 1_545
Mg0 N0 2.231807 1_555
Mg0 N0 2.232004 1_455
Mg0 N2 2.232008 1_555
Mg0 N1 2.385123 1_545
Mg0 N3 2.385123 1_556
Mg1 N3 2.231803 1_565
Mg1 N1 2.231807 1_555
Mg1 N1 2.232004 1_655
Mg1 N3 2.232008 1_555
Mg1 N0 2.385123 1_565
Mg1 N2 2.385123 1_554
N0 Zr0 2.212456 1_656
N0 Zr1 2.231852 1_555
N0 Zr1 2.231960 1_545
N1 Zr1 2.212456 1_454
N1 Zr0 2.231852 1_555
N1 Zr0 2.231960 1_565
N2 Zr0 2.212456 1_555
N2 Zr1 2.231856 1_455
N2 Zr1 2.231955 1_555
N3 Zr1 2.212456 1_555
N3 Zr0 2.231856 1_655
N3 Zr0 2.231955 1_555
