# generated using pymatgen
data_Gd4NiB13
_symmetry_space_group_name_H-M   'P 1'
_cell_length_a   7.35750600
_cell_length_b   7.35750600
_cell_length_c   6.98020600
_cell_angle_alpha   90.00000000
_cell_angle_beta   90.00000000
_cell_angle_gamma   90.00000000
_symmetry_Int_Tables_number   1
_chemical_formula_structural   Gd4NiB13
_chemical_formula_sum   'Gd8 Ni2 B26'
_cell_volume   377.85875527
_cell_formula_units_Z   2
loop_
 _symmetry_equiv_pos_site_id
 _symmetry_equiv_pos_as_xyz
  1  'x, y, z'
loop_
 _atom_site_type_symbol
 _atom_site_label
 _atom_site_symmetry_multiplicity
 _atom_site_fract_x
 _atom_site_fract_y
 _atom_site_fract_z
 _atom_site_occupancy
  Gd  Gd0  1  0.68544300  0.18005000  0.50000000  1
  Gd  Gd1  1  0.31455700  0.81995000  0.50000000  1
  Gd  Gd2  1  0.18544300  0.31995000  0.00000000  1
  Gd  Gd3  1  0.81455700  0.68005000  0.00000000  1
  Gd  Gd4  1  0.81995000  0.68544300  0.50000000  1
  Gd  Gd5  1  0.18005000  0.31455700  0.50000000  1
  Gd  Gd6  1  0.68005000  0.18544300  0.00000000  1
  Gd  Gd7  1  0.31995000  0.81455700  0.00000000  1
  Ni  Ni0  1  0.50000000  0.50000000  0.50000000  1
  Ni  Ni1  1  0.00000000  0.00000000  0.00000000  1
  B  B0  1  0.50000000  0.50000000  0.00000000  1
  B  B1  1  0.00000000  0.00000000  0.50000000  1
  B  B2  1  0.90685100  0.40685100  0.25000000  1
  B  B3  1  0.09314900  0.59314900  0.25000000  1
  B  B4  1  0.40685100  0.09314900  0.75000000  1
  B  B5  1  0.59314900  0.90685100  0.75000000  1
  B  B6  1  0.59314900  0.90685100  0.25000000  1
  B  B7  1  0.40685100  0.09314900  0.25000000  1
  B  B8  1  0.90685100  0.40685100  0.75000000  1
  B  B9  1  0.09314900  0.59314900  0.75000000  1
  B  B10  1  0.53991200  0.66994700  0.24403800  1
  B  B11  1  0.46008800  0.33005300  0.24403800  1
  B  B12  1  0.03991200  0.83005300  0.74403800  1
  B  B13  1  0.96008800  0.16994700  0.74403800  1
  B  B14  1  0.33005300  0.53991200  0.24403800  1
  B  B15  1  0.66994700  0.46008800  0.24403800  1
  B  B16  1  0.16994700  0.03991200  0.74403800  1
  B  B17  1  0.83005300  0.96008800  0.74403800  1
  B  B18  1  0.46008800  0.33005300  0.75596200  1
  B  B19  1  0.53991200  0.66994700  0.75596200  1
  B  B20  1  0.96008800  0.16994700  0.25596200  1
  B  B21  1  0.03991200  0.83005300  0.25596200  1
  B  B22  1  0.66994700  0.46008800  0.75596200  1
  B  B23  1  0.33005300  0.53991200  0.75596200  1
  B  B24  1  0.83005300  0.96008800  0.25596200  1
  B  B25  1  0.16994700  0.03991200  0.25596200  1
loop_
_geom_bond_atom_site_label_1
_geom_bond_atom_site_label_2
_geom_bond_distance
_geom_bond_site_symmetry_2
Gd0 Ni0 2.720856 1_555
Gd1 Ni0 2.720856 1_555
Gd2 Ni1 2.720856 1_555
Gd3 Ni1 2.720856 1_665
Gd4 Ni0 2.720856 1_555
Gd5 Ni0 2.720856 1_555
Gd6 Ni1 2.720856 1_655
Gd7 Ni1 2.720856 1_565
B0 B10 2.133399 1_555
B0 B15 2.133399 1_555
B0 B14 2.133399 1_555
B0 B11 2.133399 1_555
B0 B18 2.133399 1_554
B0 B19 2.133399 1_554
B0 B23 2.133399 1_554
B0 B22 2.133399 1_554
B0 Gd7 2.666668 1_555
B0 Gd2 2.666668 1_555
B0 Gd6 2.666668 1_555
B0 Gd3 2.666668 1_555
B1 B16 2.133399 1_555
B1 B13 2.133399 1_455
B1 B12 2.133399 1_545
B1 B25 2.133399 1_555
B1 B17 2.133399 1_445
B1 B20 2.133399 1_455
B1 B21 2.133399 1_545
B1 B24 2.133399 1_445
B1 Gd1 2.666668 1_545
B1 Gd4 2.666668 1_445
B1 Gd0 2.666668 1_455
B1 Gd5 2.666668 1_555
B2 B20 1.786976 1_555
B2 B3 1.938446 1_655
B2 Gd5 2.747121 1_655
B2 Gd3 2.747121 1_555
B2 Gd2 2.766848 1_655
B2 Gd4 2.766848 1_555
B2 Gd6 2.912629 1_555
B2 Gd0 2.912629 1_555
B3 Gd2 2.747121 1_555
B3 Gd4 2.747121 1_455
B3 Gd5 2.766848 1_555
B3 Gd3 2.766848 1_455
B3 Gd7 2.912629 1_555
B3 Gd1 2.912629 1_555
B4 B5 1.938446 1_545
B4 Gd1 2.747121 1_545
B4 Gd6 2.747121 1_556
B4 Gd7 2.766848 1_546
B4 Gd0 2.766848 1_555
B4 Gd5 2.912629 1_555
B4 Gd2 2.912629 1_556
B5 Gd7 2.747121 1_556
B5 Gd0 2.747121 1_565
B5 Gd1 2.766848 1_555
B5 Gd6 2.766848 1_566
B5 Gd3 2.912629 1_556
B5 Gd4 2.912629 1_555
B6 B7 1.938446 1_565
B6 Gd7 2.747121 1_555
B6 Gd0 2.747121 1_565
B6 Gd1 2.766848 1_555
B6 Gd6 2.766848 1_565
B6 Gd3 2.912629 1_555
B6 Gd4 2.912629 1_555
B7 Gd1 2.747121 1_545
B7 Gd6 2.747121 1_555
B7 Gd7 2.766848 1_545
B7 Gd0 2.766848 1_555
B7 Gd5 2.912629 1_555
B7 Gd2 2.912629 1_555
B8 B9 1.938446 1_655
B8 Gd5 2.747121 1_655
B8 Gd3 2.747121 1_556
B8 Gd2 2.766848 1_656
B8 Gd4 2.766848 1_555
B8 Gd0 2.912629 1_555
B8 Gd6 2.912629 1_556
B9 Gd2 2.747121 1_556
B9 Gd4 2.747121 1_455
B9 Gd5 2.766848 1_555
B9 Gd3 2.766848 1_456
B9 Gd7 2.912629 1_556
B9 Gd1 2.912629 1_555
B10 B6 1.786976 1_555
B10 B15 1.816424 1_555
B10 B14 1.816424 1_555
B10 Ni0 2.200427 1_555
B10 Gd7 2.579312 1_555
B10 Gd3 2.643947 1_555
B10 Gd1 2.675697 1_555
B10 Gd4 2.729533 1_555
B11 B7 1.786976 1_555
B11 B15 1.816424 1_555
B11 B14 1.816424 1_555
B11 Ni0 2.200427 1_555
B11 Gd6 2.579312 1_555
B11 Gd2 2.643947 1_555
B11 Gd0 2.675697 1_555
B11 Gd5 2.729533 1_555
B12 B9 1.786976 1_555
B12 B17 1.816424 1_455
B12 B16 1.816424 1_565
B12 Ni1 2.200427 1_566
B12 Gd4 2.579312 1_455
B12 Gd1 2.643947 1_555
B12 Gd3 2.675697 1_456
B12 Gd7 2.729533 1_556
B13 B8 1.786976 1_555
B13 B17 1.816424 1_545
B13 B16 1.816424 1_655
B13 Ni1 2.200427 1_656
B13 Gd5 2.579312 1_655
B13 Gd0 2.643947 1_555
B13 Gd2 2.675697 1_656
B13 Gd6 2.729533 1_556
B14 B3 1.786976 1_555
B14 Ni0 2.200427 1_555
B14 Gd2 2.579312 1_555
B14 Gd7 2.643947 1_555
B14 Gd5 2.675697 1_555
B14 Gd1 2.729533 1_555
B15 B2 1.786976 1_555
B15 Ni0 2.200427 1_555
B15 Gd3 2.579312 1_555
B15 Gd6 2.643947 1_555
B15 Gd4 2.675697 1_555
B15 Gd0 2.729533 1_555
B16 B4 1.786976 1_555
B16 Ni1 2.200427 1_556
B16 Gd1 2.579312 1_545
B16 Gd5 2.643947 1_555
B16 Gd7 2.675697 1_546
B16 Gd2 2.729533 1_556
B17 B5 1.786976 1_555
B17 Ni1 2.200427 1_666
B17 Gd0 2.579312 1_565
B17 Gd4 2.643947 1_555
B17 Gd6 2.675697 1_566
B17 Gd3 2.729533 1_556
B18 B4 1.786976 1_555
B18 B22 1.816424 1_555
B18 B23 1.816424 1_555
B18 Ni0 2.200427 1_555
B18 Gd6 2.579312 1_556
B18 Gd2 2.643947 1_556
B18 Gd0 2.675697 1_555
B18 Gd5 2.729533 1_555
B19 B5 1.786976 1_555
B19 B22 1.816424 1_555
B19 B23 1.816424 1_555
B19 Ni0 2.200427 1_555
B19 Gd7 2.579312 1_556
B19 Gd3 2.643947 1_556
B19 Gd1 2.675697 1_555
B19 Gd4 2.729533 1_555
B20 B24 1.816424 1_545
B20 B25 1.816424 1_655
B20 Ni1 2.200427 1_655
B20 Gd5 2.579312 1_655
B20 Gd0 2.643947 1_555
B20 Gd2 2.675697 1_655
B20 Gd6 2.729533 1_555
B21 B3 1.786976 1_555
B21 B24 1.816424 1_455
B21 B25 1.816424 1_565
B21 Ni1 2.200427 1_565
B21 Gd4 2.579312 1_455
B21 Gd1 2.643947 1_555
B21 Gd3 2.675697 1_455
B21 Gd7 2.729533 1_555
B22 B8 1.786976 1_555
B22 Ni0 2.200427 1_555
B22 Gd3 2.579312 1_556
B22 Gd6 2.643947 1_556
B22 Gd4 2.675697 1_555
B22 Gd0 2.729533 1_555
B23 B9 1.786976 1_555
B23 Ni0 2.200427 1_555
B23 Gd2 2.579312 1_556
B23 Gd7 2.643947 1_556
B23 Gd5 2.675697 1_555
B23 Gd1 2.729533 1_555
B24 B6 1.786976 1_555
B24 Ni1 2.200427 1_665
B24 Gd0 2.579312 1_565
B24 Gd4 2.643947 1_555
B24 Gd6 2.675697 1_565
B24 Gd3 2.729533 1_555
B25 B7 1.786976 1_555
B25 Ni1 2.200427 1_555
B25 Gd1 2.579312 1_545
B25 Gd5 2.643947 1_555
B25 Gd7 2.675697 1_545
B25 Gd2 2.729533 1_555
