# generated using pymatgen
data_S3N2
_symmetry_space_group_name_H-M   'P 1'
_cell_length_a   4.31367000
_cell_length_b   5.15737400
_cell_length_c   8.76007200
_cell_angle_alpha   90.00000000
_cell_angle_beta   90.00000000
_cell_angle_gamma   90.00000000
_symmetry_Int_Tables_number   1
_chemical_formula_structural   S3N2
_chemical_formula_sum   'S6 N4'
_cell_volume   194.88715704
_cell_formula_units_Z   2
loop_
 _symmetry_equiv_pos_site_id
 _symmetry_equiv_pos_as_xyz
  1  'x, y, z'
loop_
 _atom_site_type_symbol
 _atom_site_label
 _atom_site_symmetry_multiplicity
 _atom_site_fract_x
 _atom_site_fract_y
 _atom_site_fract_z
 _atom_site_occupancy
  S  S0  1  0.38474000  0.19761000  0.77436600  1
  S  S1  1  0.38474000  0.19761000  0.22563400  1
  S  S2  1  0.88474000  0.80239000  0.72563400  1
  S  S3  1  0.88474000  0.80239000  0.27436600  1
  S  S4  1  0.46683100  0.78685400  0.00000000  1
  S  S5  1  0.96683100  0.21314600  0.50000000  1
  N  N0  1  0.59664500  0.95382600  0.84294600  1
  N  N1  1  0.59664500  0.95382600  0.15705400  1
  N  N2  1  0.09664500  0.04617400  0.65705400  1
  N  N3  1  0.09664500  0.04617400  0.34294600  1
loop_
_geom_bond_atom_site_label_1
_geom_bond_atom_site_label_2
_geom_bond_distance
_geom_bond_site_symmetry_2
N0 S0 1.666506 1_565
N0 S4 1.716964 1_556
N0 S2 1.791783 1_555
N1 S1 1.666506 1_565
N1 S4 1.716964 1_555
N1 S3 1.791783 1_555
N2 S2 1.666506 1_445
N2 S5 1.716964 1_455
N2 S0 1.791783 1_555
N3 S3 1.666506 1_445
N3 S5 1.716964 1_455
N3 S1 1.791783 1_555
