# generated using pymatgen
data_Mg3Si4
_symmetry_space_group_name_H-M   'P 1'
_cell_length_a   4.12349300
_cell_length_b   7.56397900
_cell_length_c   8.44046371
_cell_angle_alpha   72.76341507
_cell_angle_beta   90.00000000
_cell_angle_gamma   90.00000000
_symmetry_Int_Tables_number   1
_chemical_formula_structural   Mg3Si4
_chemical_formula_sum   'Mg6 Si8'
_cell_volume   251.43508899
_cell_formula_units_Z   2
loop_
 _symmetry_equiv_pos_site_id
 _symmetry_equiv_pos_as_xyz
  1  'x, y, z'
loop_
 _atom_site_type_symbol
 _atom_site_label
 _atom_site_symmetry_multiplicity
 _atom_site_fract_x
 _atom_site_fract_y
 _atom_site_fract_z
 _atom_site_occupancy
  Mg  Mg0  1  0.25000000  0.33697500  0.49951300  1
  Mg  Mg1  1  0.75000000  0.66302500  0.50048700  1
  Mg  Mg2  1  0.75000000  0.67928000  0.90518200  1
  Mg  Mg3  1  0.25000000  0.02620900  0.87795400  1
  Mg  Mg4  1  0.75000000  0.97379100  0.12204600  1
  Mg  Mg5  1  0.25000000  0.32072000  0.09481800  1
  Si  Si0  1  0.25000000  0.84056300  0.64196700  1
  Si  Si1  1  0.75000000  0.05712000  0.65990000  1
  Si  Si2  1  0.75000000  0.49688000  0.24762000  1
  Si  Si3  1  0.25000000  0.70710200  0.17830400  1
  Si  Si4  1  0.25000000  0.50312000  0.75238000  1
  Si  Si5  1  0.25000000  0.94288000  0.34010000  1
  Si  Si6  1  0.75000000  0.15943700  0.35803300  1
  Si  Si7  1  0.75000000  0.29289800  0.82169600  1
loop_
_geom_bond_atom_site_label_1
_geom_bond_atom_site_label_2
_geom_bond_distance
_geom_bond_site_symmetry_2
Mg0 Si4 2.779249 1_555
Mg0 Si6 2.903539 1_455
Mg0 Si6 2.903539 1_555
Mg0 Si2 2.951273 1_455
Mg0 Si2 2.951273 1_555
Mg0 Si1 2.977593 1_555
Mg0 Si1 2.977593 1_455
Mg1 Si2 2.779249 1_555
Mg1 Si0 2.903539 1_555
Mg1 Si0 2.903539 1_655
Mg1 Si4 2.951273 1_655
Mg1 Si4 2.951273 1_555
Mg1 Si5 2.977593 1_655
Mg1 Si5 2.977593 1_555
Mg2 Si2 2.809674 1_556
Mg2 Si4 2.950950 1_655
Mg2 Si4 2.950950 1_555
Mg2 Si1 2.991253 1_565
Mg2 Si0 3.011411 1_555
Mg2 Si0 3.011411 1_655
Mg2 Si3 3.145933 1_656
Mg2 Si3 3.145933 1_556
Mg3 Si1 2.727232 1_455
Mg3 Si1 2.727232 1_555
Mg3 Si0 2.756240 1_545
Mg3 Si7 2.824504 1_555
Mg3 Si7 2.824504 1_455
Mg3 Si3 2.937073 1_546
Mg4 Si5 2.727232 1_655
Mg4 Si5 2.727232 1_555
Mg4 Si6 2.756240 1_565
Mg4 Si3 2.824504 1_555
Mg4 Si3 2.824504 1_655
Mg4 Si7 2.937073 1_564
Mg5 Si4 2.809674 1_554
Mg5 Si2 2.950950 1_455
Mg5 Si2 2.950950 1_555
Mg5 Si5 2.991253 1_545
Mg5 Si6 3.011411 1_555
Mg5 Si6 3.011411 1_455
Mg5 Si7 3.145933 1_554
Mg5 Si7 3.145933 1_454
Si0 Si5 2.433543 1_555
Si0 Si4 2.444098 1_555
Si0 Si1 2.665295 1_565
Si0 Si1 2.665295 1_465
Si1 Si6 2.433543 1_555
Si1 Si7 2.547333 1_555
Si2 Si6 2.444098 1_555
Si2 Si3 2.563244 1_555
Si2 Si3 2.563244 1_655
Si3 Si5 2.547333 1_555
Si4 Si7 2.563244 1_455
Si4 Si7 2.563244 1_555
Si5 Si6 2.665295 1_565
Si5 Si6 2.665295 1_465
