# generated using pymatgen
data_TmNi2
_symmetry_space_group_name_H-M   'P 1'
_cell_length_a   9.93839642
_cell_length_b   9.93839756
_cell_length_c   9.93839684
_cell_angle_alpha   60.00155357
_cell_angle_beta   60.00155465
_cell_angle_gamma   60.00155075
_symmetry_Int_Tables_number   1
_chemical_formula_structural   TmNi2
_chemical_formula_sum   'Tm16 Ni32'
_cell_volume   694.14357610
_cell_formula_units_Z   16
loop_
 _symmetry_equiv_pos_site_id
 _symmetry_equiv_pos_as_xyz
  1  'x, y, z'
loop_
 _atom_site_type_symbol
 _atom_site_label
 _atom_site_symmetry_multiplicity
 _atom_site_fract_x
 _atom_site_fract_y
 _atom_site_fract_z
 _atom_site_occupancy
  Tm  Tm0  1  0.00000299  0.00000299  0.00000399  1
  Tm  Tm1  1  0.49999526  0.49999626  0.49999526  1
  Tm  Tm2  1  0.62502111  0.62502111  0.62502111  1
  Tm  Tm3  1  0.62501289  0.62501389  0.12494367  1
  Tm  Tm4  1  0.12494267  0.62501389  0.62501189  1
  Tm  Tm5  1  0.62501389  0.12494367  0.62501289  1
  Tm  Tm6  1  0.12499407  0.12499307  0.12499507  1
  Tm  Tm7  1  0.12500007  0.12500007  0.62501282  1
  Tm  Tm8  1  0.62501382  0.12500007  0.12500007  1
  Tm  Tm9  1  0.12500007  0.62501282  0.12500007  1
  Tm  Tm10  1  0.50002500  0.99996909  0.99997009  1
  Tm  Tm11  1  0.99997009  0.99997009  0.50002400  1
  Tm  Tm12  1  0.50003165  0.50003165  0.99997639  1
  Tm  Tm13  1  0.99997639  0.50003265  0.50003165  1
  Tm  Tm14  1  0.99996909  0.50002500  0.99997009  1
  Tm  Tm15  1  0.50003265  0.99997639  0.50003165  1
  Ni  Ni0  1  0.31254389  0.31254389  0.31254389  1
  Ni  Ni1  1  0.31251843  0.31251743  0.06243369  1
  Ni  Ni2  1  0.06243169  0.31251743  0.31251743  1
  Ni  Ni3  1  0.31251843  0.06243369  0.31251743  1
  Ni  Ni4  1  0.81247360  0.81247460  0.81247460  1
  Ni  Ni5  1  0.81249127  0.81249127  0.56251350  1
  Ni  Ni6  1  0.56251450  0.81249127  0.81249127  1
  Ni  Ni7  1  0.81249027  0.56251450  0.81249027  1
  Ni  Ni8  1  0.81254145  0.81254145  0.31254976  1
  Ni  Ni9  1  0.81251511  0.31253072  0.06243278  1
  Ni  Ni10  1  0.06243309  0.81252225  0.81252225  1
  Ni  Ni11  1  0.81252025  0.06243409  0.81252225  1
  Ni  Ni12  1  0.31252972  0.81251311  0.06243378  1
  Ni  Ni13  1  0.31253072  0.06243278  0.81251411  1
  Ni  Ni14  1  0.06243278  0.31253172  0.81251511  1
  Ni  Ni15  1  0.31254876  0.81254045  0.81254145  1
  Ni  Ni16  1  0.81254145  0.31254976  0.81254145  1
  Ni  Ni17  1  0.06243278  0.81251511  0.31253072  1
  Ni  Ni18  1  0.81251611  0.06243178  0.31253072  1
  Ni  Ni19  1  0.81252125  0.81252225  0.06243409  1
  Ni  Ni20  1  0.31247739  0.31247639  0.81247543  1
  Ni  Ni21  1  0.31249281  0.81249926  0.56251279  1
  Ni  Ni22  1  0.56251298  0.31249940  0.31249940  1
  Ni  Ni23  1  0.31249940  0.56251398  0.31249940  1
  Ni  Ni24  1  0.81249826  0.31249281  0.56251379  1
  Ni  Ni25  1  0.81249826  0.56251279  0.31249281  1
  Ni  Ni26  1  0.56251279  0.81249926  0.31249281  1
  Ni  Ni27  1  0.81247543  0.31247539  0.31247639  1
  Ni  Ni28  1  0.31247639  0.81247543  0.31247639  1
  Ni  Ni29  1  0.56251379  0.31249281  0.81249926  1
  Ni  Ni30  1  0.31249381  0.56251279  0.81249926  1
  Ni  Ni31  1  0.31249940  0.31249940  0.56251298  1
loop_
_geom_bond_atom_site_label_1
_geom_bond_atom_site_label_2
_geom_bond_distance
_geom_bond_site_symmetry_2
Tm0 Tm6 3.042739 1_555
Tm0 Tm8 3.042972 1_455
Tm0 Tm9 3.042980 1_545
Tm0 Tm7 3.042988 1_554
Tm1 Tm3 3.043478 1_555
Tm1 Tm4 3.043486 1_555
Tm1 Tm5 3.043487 1_555
Tm1 Tm2 3.043586 1_555
Tm10 Tm3 3.042696 1_556
Tm10 Tm5 3.042712 1_565
Tm10 Tm6 3.043311 1_566
Tm10 Tm8 3.043368 1_566
Tm11 Tm5 3.042704 1_565
Tm11 Tm4 3.042704 1_655
Tm11 Tm6 3.043295 1_665
Tm11 Tm7 3.043360 1_665
Tm12 Tm3 3.042403 1_556
Tm12 Tm2 3.042697 1_555
Tm12 Tm9 3.043316 1_556
Tm12 Tm8 3.043316 1_556
Tm13 Tm4 3.042378 1_655
Tm13 Tm2 3.042697 1_555
Tm13 Tm9 3.043316 1_655
Tm13 Tm7 3.043324 1_655
Tm14 Tm3 3.042704 1_556
Tm14 Tm4 3.042721 1_655
Tm14 Tm6 3.043319 1_656
Tm14 Tm9 3.043360 1_656
Tm15 Tm5 3.042394 1_565
Tm15 Tm2 3.042697 1_555
Tm15 Tm8 3.043316 1_565
Tm15 Tm7 3.043324 1_565
Ni0 Ni22 2.483850 1_555
Ni0 Ni31 2.483850 1_555
Ni0 Ni23 2.483860 1_555
Ni0 Ni1 2.485952 1_555
Ni0 Ni3 2.485953 1_555
Ni0 Ni2 2.485977 1_555
Ni0 Tm12 2.913699 1_554
Ni0 Tm13 2.913703 1_455
Ni0 Tm15 2.913703 1_545
Ni0 Tm9 2.913756 1_555
Ni0 Tm7 2.913756 1_555
Ni0 Tm8 2.913760 1_555
Ni1 Ni29 2.484309 1_554
Ni1 Ni30 2.484309 1_554
Ni1 Ni20 2.484592 1_554
Ni1 Ni3 2.485490 1_555
Ni1 Ni2 2.485505 1_555
Ni1 Tm6 2.913594 1_555
Ni1 Tm8 2.913733 1_555
Ni1 Tm9 2.913734 1_555
Ni1 Tm10 2.913747 1_544
Ni1 Tm14 2.913755 1_454
Ni1 Tm12 2.913855 1_554
Ni2 Ni25 2.484304 1_455
Ni2 Ni24 2.484309 1_455
Ni2 Ni27 2.484577 1_455
Ni2 Ni3 2.485505 1_555
Ni2 Tm6 2.913573 1_555
Ni2 Tm11 2.913730 1_445
Ni2 Tm14 2.913734 1_454
Ni2 Tm7 2.913742 1_555
Ni2 Tm9 2.913742 1_555
Ni2 Tm13 2.913881 1_455
Ni3 Tm6 2.913586 1_555
Ni3 Tm8 2.913733 1_555
Ni3 Tm7 2.913734 1_555
Ni3 Tm10 2.913743 1_544
Ni3 Tm11 2.913747 1_445
Ni3 Tm15 2.913863 1_545
Ni4 Ni6 2.484027 1_555
Ni4 Ni5 2.484042 1_555
Ni4 Ni7 2.484042 1_555
Ni4 Tm5 2.913052 1_565
Ni4 Tm3 2.913052 1_556
Ni4 Tm4 2.913060 1_655
Ni4 Tm10 2.913256 1_555
Ni4 Tm14 2.913264 1_555
Ni4 Tm11 2.913273 1_555
Ni5 Ni8 2.483740 1_555
Ni5 Ni7 2.484427 1_555
Ni5 Ni6 2.484432 1_555
Ni5 Tm2 2.912904 1_555
Ni5 Tm15 2.913063 1_555
Ni5 Tm13 2.913064 1_555
Ni5 Tm4 2.913072 1_655
Ni5 Tm5 2.913085 1_565
Ni5 Tm11 2.913127 1_555
Ni6 Ni7 2.484422 1_555
Ni6 Tm2 2.912908 1_555
Ni6 Tm15 2.913072 1_555
Ni6 Tm12 2.913077 1_555
Ni6 Tm3 2.913081 1_556
Ni6 Tm5 2.913085 1_565
Ni6 Tm10 2.913119 1_555
Ni7 Ni9 2.484291 1_556
Ni7 Tm2 2.912891 1_555
Ni7 Tm13 2.913064 1_555
Ni7 Tm12 2.913068 1_555
Ni7 Tm4 2.913085 1_655
Ni7 Tm3 2.913094 1_556
Ni7 Tm14 2.913135 1_555
Ni8 Tm15 2.913201 1_555
Ni8 Tm13 2.913201 1_555
Ni8 Tm0 2.913384 1_665
Ni8 Tm2 2.913567 1_555
Ni8 Tm8 2.913669 1_565
Ni8 Tm9 2.913673 1_655
Ni9 Tm14 2.913161 1_554
Ni9 Tm12 2.913166 1_554
Ni9 Tm3 2.913395 1_555
Ni9 Tm0 2.913425 1_655
Ni9 Tm8 2.913427 1_555
Ni9 Tm6 2.913577 1_655
Ni10 Ni19 2.483781 1_456
Ni10 Ni11 2.483786 1_465
Ni10 Ni4 2.484670 1_455
Ni10 Ni21 2.485001 1_555
Ni10 Ni30 2.485006 1_555
Ni10 Ni15 2.485935 1_555
Ni10 Tm14 2.913316 1_455
Ni10 Tm11 2.913320 1_455
Ni10 Tm0 2.913420 1_566
Ni10 Tm4 2.913560 1_555
Ni10 Tm9 2.913587 1_556
Ni10 Tm7 2.913587 1_565
Ni11 Ni19 2.483781 1_546
Ni11 Ni4 2.484665 1_545
Ni11 Ni29 2.484981 1_555
Ni11 Ni24 2.484992 1_555
Ni11 Ni16 2.485950 1_555
Ni11 Tm10 2.913303 1_545
Ni11 Tm11 2.913324 1_545
Ni11 Tm0 2.913432 1_656
Ni11 Tm5 2.913534 1_555
Ni11 Tm8 2.913583 1_556
Ni11 Tm7 2.913600 1_655
Ni12 Ni15 2.483299 1_554
Ni12 Ni13 2.483859 1_564
Ni12 Ni6 2.484296 1_554
Ni12 Ni28 2.484571 1_555
Ni12 Ni23 2.484979 1_555
Ni12 Ni17 2.485621 1_555
Ni12 Tm12 2.913154 1_554
Ni12 Tm10 2.913182 1_554
Ni12 Tm3 2.913390 1_555
Ni12 Tm9 2.913415 1_555
Ni12 Tm0 2.913420 1_565
Ni12 Tm6 2.913581 1_565
Ni13 Ni15 2.483304 1_545
Ni13 Ni6 2.484286 1_545
Ni13 Ni20 2.484576 1_555
Ni13 Ni31 2.484994 1_555
Ni13 Ni14 2.485636 1_555
Ni13 Tm15 2.913158 1_545
Ni13 Tm10 2.913174 1_545
Ni13 Tm5 2.913395 1_555
Ni13 Tm7 2.913427 1_555
Ni13 Tm0 2.913429 1_556
Ni13 Tm6 2.913585 1_556
Ni14 Ni16 2.483299 1_455
Ni14 Ni9 2.483839 1_456
Ni14 Ni7 2.484286 1_455
Ni14 Ni20 2.484570 1_555
Ni14 Ni31 2.484999 1_555
Ni14 Tm14 2.913157 1_455
Ni14 Tm13 2.913166 1_455
Ni14 Tm4 2.913382 1_555
Ni14 Tm0 2.913437 1_556
Ni14 Tm7 2.913444 1_555
Ni14 Tm6 2.913581 1_556
Ni15 Ni6 2.483765 1_555
Ni15 Ni30 2.485357 1_555
Ni15 Ni21 2.485367 1_555
Ni15 Tm12 2.913205 1_555
Ni15 Tm15 2.913218 1_555
Ni15 Tm0 2.913393 1_566
Ni15 Tm2 2.913567 1_555
Ni15 Tm9 2.913664 1_556
Ni15 Tm7 2.913673 1_565
Ni16 Ni9 2.483294 1_556
Ni16 Ni7 2.483740 1_555
Ni16 Ni29 2.485367 1_555
Ni16 Ni24 2.485372 1_555
Ni16 Tm12 2.913205 1_555
Ni16 Tm13 2.913210 1_555
Ni16 Tm0 2.913393 1_656
Ni16 Tm2 2.913567 1_555
Ni16 Tm8 2.913669 1_556
Ni16 Tm7 2.913673 1_655
Ni17 Ni8 2.483294 1_455
Ni17 Ni18 2.483829 1_465
Ni17 Ni5 2.484281 1_455
Ni17 Ni28 2.484565 1_555
Ni17 Ni23 2.484994 1_555
Ni17 Tm13 2.913158 1_455
Ni17 Tm11 2.913161 1_455
Ni17 Tm4 2.913374 1_555
Ni17 Tm0 2.913420 1_565
Ni17 Tm9 2.913436 1_555
Ni17 Tm6 2.913564 1_565
Ni18 Ni8 2.483289 1_545
Ni18 Ni5 2.484276 1_545
Ni18 Ni27 2.484561 1_555
Ni18 Ni22 2.485009 1_555
Ni18 Ni9 2.485636 1_555
Ni18 Tm11 2.913157 1_545
Ni18 Tm15 2.913162 1_545
Ni18 Tm5 2.913391 1_555
Ni18 Tm0 2.913416 1_655
Ni18 Tm8 2.913431 1_555
Ni18 Tm6 2.913564 1_655
Ni19 Ni4 2.484670 1_554
Ni19 Ni26 2.484991 1_555
Ni19 Ni25 2.484996 1_555
Ni19 Ni8 2.485945 1_555
Ni19 Tm10 2.913307 1_554
Ni19 Tm14 2.913316 1_554
Ni19 Tm0 2.913420 1_665
Ni19 Tm3 2.913543 1_555
Ni19 Tm8 2.913583 1_565
Ni19 Tm9 2.913591 1_655
Ni20 Ni31 2.484002 1_555
Ni20 Ni29 2.485161 1_555
Ni20 Ni30 2.485161 1_555
Ni20 Tm6 2.913458 1_556
Ni20 Tm1 2.913592 1_555
Ni20 Tm5 2.913651 1_555
Ni20 Tm4 2.913668 1_555
Ni20 Tm10 2.913726 1_545
Ni20 Tm14 2.913735 1_455
Ni21 Ni3 2.484309 1_565
Ni21 Ni30 2.484523 1_555
Ni21 Ni26 2.484856 1_555
Ni21 Ni28 2.485161 1_555
Ni21 Tm7 2.913498 1_565
Ni21 Tm1 2.913591 1_555
Ni21 Tm11 2.913636 1_455
Ni21 Tm15 2.913665 1_555
Ni21 Tm4 2.913746 1_555
Ni21 Tm2 2.913766 1_555
Ni22 Ni27 2.483992 1_555
Ni22 Ni31 2.484793 1_555
Ni22 Ni23 2.484797 1_555
Ni22 Ni9 2.484999 1_555
Ni22 Tm1 2.913305 1_555
Ni22 Tm8 2.913427 1_555
Ni22 Tm15 2.913603 1_545
Ni22 Tm12 2.913607 1_554
Ni22 Tm5 2.913609 1_555
Ni22 Tm3 2.913614 1_555
Ni23 Ni28 2.483988 1_555
Ni23 Ni31 2.484798 1_555
Ni23 Tm1 2.913296 1_555
Ni23 Tm9 2.913435 1_555
Ni23 Tm4 2.913597 1_555
Ni23 Tm3 2.913605 1_555
Ni23 Tm13 2.913607 1_455
Ni23 Tm12 2.913611 1_554
Ni24 Ni29 2.484508 1_555
Ni24 Ni25 2.484861 1_555
Ni24 Ni27 2.485171 1_555
Ni24 Tm7 2.913502 1_655
Ni24 Tm1 2.913595 1_555
Ni24 Tm11 2.913641 1_545
Ni24 Tm13 2.913670 1_555
Ni24 Tm5 2.913729 1_555
Ni24 Tm2 2.913762 1_555
Ni25 Ni26 2.484518 1_555
Ni25 Ni27 2.485166 1_555
Ni25 Ni8 2.485382 1_555
Ni25 Tm9 2.913507 1_655
Ni25 Tm1 2.913587 1_555
Ni25 Tm14 2.913632 1_554
Ni25 Tm13 2.913669 1_555
Ni25 Tm3 2.913729 1_555
Ni25 Tm2 2.913766 1_555
Ni26 Ni3 2.484304 1_565
Ni26 Ni28 2.485161 1_555
Ni26 Ni8 2.485377 1_555
Ni26 Tm8 2.913503 1_565
Ni26 Tm1 2.913591 1_555
Ni26 Tm10 2.913632 1_554
Ni26 Tm15 2.913661 1_555
Ni26 Tm3 2.913734 1_555
Ni26 Tm2 2.913766 1_555
Ni27 Ni9 2.484561 1_555
Ni27 Tm6 2.913441 1_655
Ni27 Tm1 2.913600 1_555
Ni27 Tm5 2.913642 1_555
Ni27 Tm3 2.913659 1_555
Ni27 Tm11 2.913718 1_545
Ni27 Tm14 2.913726 1_554
Ni28 Ni3 2.484597 1_565
Ni28 Tm6 2.913437 1_565
Ni28 Tm1 2.913588 1_555
Ni28 Tm3 2.913646 1_555
Ni28 Tm4 2.913647 1_555
Ni28 Tm11 2.913722 1_455
Ni28 Tm10 2.913722 1_554
Ni29 Ni30 2.484856 1_555
Ni29 Tm8 2.913498 1_556
Ni29 Tm1 2.913604 1_555
Ni29 Tm10 2.913645 1_545
Ni29 Tm12 2.913653 1_555
Ni29 Tm5 2.913742 1_555
Ni29 Tm2 2.913762 1_555
Ni30 Tm9 2.913498 1_556
Ni30 Tm1 2.913595 1_555
Ni30 Tm12 2.913648 1_555
Ni30 Tm14 2.913649 1_455
Ni30 Tm2 2.913758 1_555
Ni30 Tm4 2.913763 1_555
Ni31 Tm1 2.913305 1_555
Ni31 Tm7 2.913431 1_555
Ni31 Tm13 2.913607 1_455
Ni31 Tm15 2.913607 1_545
Ni31 Tm4 2.913610 1_555
Ni31 Tm5 2.913614 1_555
