# generated using pymatgen
data_Cs2Li2B2P4O15
_symmetry_space_group_name_H-M   'P 1'
_cell_length_a   7.27433200
_cell_length_b   7.97996869
_cell_length_c   14.27363020
_cell_angle_alpha   86.04167402
_cell_angle_beta   104.36251593
_cell_angle_gamma   113.80340709
_symmetry_Int_Tables_number   1
_chemical_formula_structural   Cs2Li2B2P4O15
_chemical_formula_sum   'Cs4 Li4 B4 P8 O30'
_cell_volume   733.94214653
_cell_formula_units_Z   2
loop_
 _symmetry_equiv_pos_site_id
 _symmetry_equiv_pos_as_xyz
  1  'x, y, z'
loop_
 _atom_site_type_symbol
 _atom_site_label
 _atom_site_symmetry_multiplicity
 _atom_site_fract_x
 _atom_site_fract_y
 _atom_site_fract_z
 _atom_site_occupancy
  Cs  Cs0  1  0.28237300  0.18827700  0.13422100  1
  Cs  Cs1  1  0.71762700  0.81172300  0.86577900  1
  Cs  Cs2  1  0.90108000  0.24042500  0.35073800  1
  Cs  Cs3  1  0.09892000  0.75957500  0.64926200  1
  Li  Li0  1  0.77829700  0.22711300  0.00879800  1
  Li  Li1  1  0.22170300  0.77288700  0.99120200  1
  Li  Li2  1  0.28880500  0.74189400  0.22359400  1
  Li  Li3  1  0.71119500  0.25810600  0.77640600  1
  B  B0  1  0.86413100  0.71686700  0.28638500  1
  B  B1  1  0.13586900  0.28313300  0.71361500  1
  B  B2  1  0.53653800  0.75701500  0.50956300  1
  B  B3  1  0.46346200  0.24298500  0.49043700  1
  P  P0  1  0.26408600  0.89141400  0.40184500  1
  P  P1  1  0.73591400  0.10858600  0.59815500  1
  P  P2  1  0.51743500  0.53022600  0.35968000  1
  P  P3  1  0.48256500  0.46977400  0.64032000  1
  P  P4  1  0.65998600  0.84246700  0.12926000  1
  P  P5  1  0.34001400  0.15753300  0.87074000  1
  P  P6  1  0.83509100  0.58109500  0.10996800  1
  P  P7  1  0.16490900  0.41890500  0.89003200  1
  O  O0  1  0.32352800  0.74479900  0.46783200  1
  O  O1  1  0.67647200  0.25520100  0.53216800  1
  O  O2  1  0.36316200  0.94490600  0.31754700  1
  O  O3  1  0.63683800  0.05509400  0.68245300  1
  O  O4  1  0.30988900  0.05157100  0.47332500  1
  O  O5  1  0.69011100  0.94842900  0.52667500  1
  O  O6  1  0.02270100  0.80173100  0.37459000  1
  O  O7  1  0.97729900  0.19826900  0.62541000  1
  O  O8  1  0.61087400  0.67416100  0.44550200  1
  O  O9  1  0.38912600  0.32583900  0.55449800  1
  O  O10  1  0.45617800  0.33139600  0.39724100  1
  O  O11  1  0.54382200  0.66860400  0.60275900  1
  O  O12  1  0.33377500  0.53855100  0.28628000  1
  O  O13  1  0.66622500  0.46144900  0.71372000  1
  O  O14  1  0.44020900  0.82126000  0.12073900  1
  O  O15  1  0.55979100  0.17874000  0.87926100  1
  O  O16  1  0.77893100  0.85150600  0.24052000  1
  O  O17  1  0.22106900  0.14849400  0.75948000  1
  O  O18  1  0.78868900  0.99830200  0.07652400  1
  O  O19  1  0.21131100  0.00169800  0.92347600  1
  O  O20  1  0.64275000  0.64716400  0.08954000  1
  O  O21  1  0.35725000  0.35283600  0.91046000  1
  O  O22  1  0.70354100  0.55225000  0.31603500  1
  O  O23  1  0.29645900  0.44775000  0.68396500  1
  O  O24  1  0.97843800  0.68283500  0.04634000  1
  O  O25  1  0.02156200  0.31716500  0.95366000  1
  O  O26  1  0.95344900  0.65524300  0.21976700  1
  O  O27  1  0.04655100  0.34475700  0.78023300  1
  O  O28  1  0.74161100  0.37465800  0.10422800  1
  O  O29  1  0.25838900  0.62534200  0.89577200  1
loop_
_geom_bond_atom_site_label_1
_geom_bond_atom_site_label_2
_geom_bond_distance
_geom_bond_site_symmetry_2
Cs0 O25 3.175364 1_554
Cs0 O28 3.188461 1_555
Cs0 O18 3.191210 1_445
Cs0 O2 3.228173 1_545
Cs0 O19 3.279985 1_554
Cs0 O12 3.500702 1_555
Cs1 O24 3.175364 1_556
Cs1 O29 3.188461 1_555
Cs1 O19 3.191210 1_665
Cs1 O3 3.228173 1_565
Cs1 O18 3.279985 1_556
Cs1 O13 3.500702 1_555
Cs2 O16 3.263618 1_545
Cs2 O22 3.296228 1_555
Cs2 O12 3.391687 1_655
Cs2 O1 3.418570 1_555
Cs2 O5 3.508371 1_545
Cs2 O2 3.589310 1_545
Cs2 O28 3.651202 1_555
Cs3 O17 3.263618 1_565
Cs3 O23 3.296228 1_555
Cs3 O13 3.391687 1_455
Cs3 O0 3.418570 1_555
Cs3 O4 3.508371 1_565
Cs3 O3 3.589310 1_565
Cs3 O29 3.651202 1_555
Li0 O25 1.963067 1_654
Li0 O28 1.992058 1_555
Li0 O18 2.026231 1_545
Li0 O15 2.058976 1_554
Li1 O24 1.963067 1_456
Li1 O29 1.992058 1_555
Li1 O19 2.026231 1_565
Li1 O14 2.058976 1_556
Li2 O12 1.903543 1_555
Li2 O14 1.969831 1_555
Li2 O2 1.987017 1_555
Li2 O26 2.238241 1_455
Li3 O13 1.903543 1_555
Li3 O15 1.969831 1_555
Li3 O3 1.987017 1_555
Li3 O27 2.238241 1_655
B0 O6 1.463194 1_655
B0 O26 1.482268 1_555
B0 O22 1.482978 1_555
B0 O16 1.485319 1_555
B1 O7 1.463194 1_455
B1 O27 1.482268 1_555
B1 O23 1.482978 1_555
B1 O17 1.485319 1_555
B2 O11 1.461420 1_555
B2 O5 1.476339 1_555
B2 O8 1.477502 1_555
B2 O0 1.481035 1_555
B3 O10 1.461420 1_555
B3 O4 1.476339 1_555
B3 O9 1.477502 1_555
B3 O1 1.481035 1_555
O0 P0 1.580231 1_555
O1 P1 1.580231 1_555
O2 P0 1.503463 1_555
O3 P1 1.503463 1_555
O4 P0 1.566218 1_545
O5 P1 1.566218 1_565
O6 P0 1.559466 1_555
O7 P1 1.559466 1_555
O8 P2 1.559765 1_555
O9 P3 1.559765 1_555
O10 P2 1.560081 1_555
O11 P3 1.560081 1_555
O12 P2 1.501527 1_555
O13 P3 1.501527 1_555
O14 P4 1.512400 1_555
O15 P5 1.512400 1_555
O16 P4 1.599875 1_555
O17 P5 1.599875 1_555
O18 P4 1.506710 1_555
O19 P5 1.506710 1_555
O20 P6 1.640867 1_555
O20 P4 1.641677 1_555
O21 P7 1.640867 1_555
O21 P5 1.641677 1_555
O22 P2 1.569390 1_555
O23 P3 1.569390 1_555
O24 P6 1.501993 1_555
O25 P7 1.501993 1_555
O26 P6 1.610894 1_555
O27 P7 1.610894 1_555
O28 P6 1.506544 1_555
O29 P7 1.506544 1_555
