# generated using pymatgen
data_Cr3Ru3C2
_symmetry_space_group_name_H-M   'P 1'
_cell_length_a   5.55015146
_cell_length_b   5.55015146
_cell_length_c   26.51539200
_cell_angle_alpha   90.00000000
_cell_angle_beta   90.00000000
_cell_angle_gamma   119.99999353
_symmetry_Int_Tables_number   1
_chemical_formula_structural   Cr3Ru3C2
_chemical_formula_sum   'Cr24 Ru24 C16'
_cell_volume   707.35655331
_cell_formula_units_Z   8
loop_
 _symmetry_equiv_pos_site_id
 _symmetry_equiv_pos_as_xyz
  1  'x, y, z'
loop_
 _atom_site_type_symbol
 _atom_site_label
 _atom_site_symmetry_multiplicity
 _atom_site_fract_x
 _atom_site_fract_y
 _atom_site_fract_z
 _atom_site_occupancy
  Cr  Cr0_0  1  0.33333350  0.16666650  0.08713200  1
  Cr  Cr0_1  1  0.33333350  0.16666650  0.58713200  1
  Cr  Cr0_2  1  0.33333350  0.66666650  0.08713200  1
  Cr  Cr0_3  1  0.33333350  0.66666650  0.58713200  1
  Cr  Cr0_4  1  0.83333350  0.16666650  0.08713200  1
  Cr  Cr0_5  1  0.83333350  0.16666650  0.58713200  1
  Cr  Cr0_6  1  0.83333350  0.66666650  0.08713200  1
  Cr  Cr0_7  1  0.83333350  0.66666650  0.58713200  1
  Cr  Cr1_0  1  0.00000000  0.00000000  0.00000000  1
  Cr  Cr1_1  1  0.00000000  0.00000000  0.50000000  1
  Cr  Cr1_2  1  0.00000000  0.50000000  0.00000000  1
  Cr  Cr1_3  1  0.00000000  0.50000000  0.50000000  1
  Cr  Cr1_4  1  0.50000000  0.00000000  0.00000000  1
  Cr  Cr1_5  1  0.50000000  0.00000000  0.50000000  1
  Cr  Cr1_6  1  0.50000000  0.50000000  0.00000000  1
  Cr  Cr1_7  1  0.50000000  0.50000000  0.50000000  1
  Cr  Cr2_0  1  0.16666650  0.33333350  0.41286800  1
  Cr  Cr2_1  1  0.16666650  0.33333350  0.91286800  1
  Cr  Cr2_2  1  0.16666650  0.83333350  0.41286800  1
  Cr  Cr2_3  1  0.16666650  0.83333350  0.91286800  1
  Cr  Cr2_4  1  0.66666650  0.33333350  0.41286800  1
  Cr  Cr2_5  1  0.66666650  0.33333350  0.91286800  1
  Cr  Cr2_6  1  0.66666650  0.83333350  0.41286800  1
  Cr  Cr2_7  1  0.66666650  0.83333350  0.91286800  1
  Ru  Ru0_0  1  0.33333350  0.16666650  0.33288600  1
  Ru  Ru0_1  1  0.33333350  0.16666650  0.83288600  1
  Ru  Ru0_2  1  0.33333350  0.66666650  0.33288600  1
  Ru  Ru0_3  1  0.33333350  0.66666650  0.83288600  1
  Ru  Ru0_4  1  0.83333350  0.16666650  0.33288600  1
  Ru  Ru0_5  1  0.83333350  0.16666650  0.83288600  1
  Ru  Ru0_6  1  0.83333350  0.66666650  0.33288600  1
  Ru  Ru0_7  1  0.83333350  0.66666650  0.83288600  1
  Ru  Ru1_0  1  0.00000000  0.00000000  0.25000000  1
  Ru  Ru1_1  1  0.00000000  0.00000000  0.75000000  1
  Ru  Ru1_2  1  0.00000000  0.50000000  0.25000000  1
  Ru  Ru1_3  1  0.00000000  0.50000000  0.75000000  1
  Ru  Ru1_4  1  0.50000000  0.00000000  0.25000000  1
  Ru  Ru1_5  1  0.50000000  0.00000000  0.75000000  1
  Ru  Ru1_6  1  0.50000000  0.50000000  0.25000000  1
  Ru  Ru1_7  1  0.50000000  0.50000000  0.75000000  1
  Ru  Ru2_0  1  0.16666650  0.33333350  0.16711400  1
  Ru  Ru2_1  1  0.16666650  0.33333350  0.66711400  1
  Ru  Ru2_2  1  0.16666650  0.83333350  0.16711400  1
  Ru  Ru2_3  1  0.16666650  0.83333350  0.66711400  1
  Ru  Ru2_4  1  0.66666650  0.33333350  0.16711400  1
  Ru  Ru2_5  1  0.66666650  0.33333350  0.66711400  1
  Ru  Ru2_6  1  0.66666650  0.83333350  0.16711400  1
  Ru  Ru2_7  1  0.66666650  0.83333350  0.66711400  1
  C  C0_0  1  0.16666650  0.33333350  0.04713700  1
  C  C0_1  1  0.16666650  0.33333350  0.54713700  1
  C  C0_2  1  0.16666650  0.83333350  0.04713700  1
  C  C0_3  1  0.16666650  0.83333350  0.54713700  1
  C  C0_4  1  0.66666650  0.33333350  0.04713700  1
  C  C0_5  1  0.66666650  0.33333350  0.54713700  1
  C  C0_6  1  0.66666650  0.83333350  0.04713700  1
  C  C0_7  1  0.66666650  0.83333350  0.54713700  1
  C  C1_0  1  0.33333350  0.16666650  0.45286300  1
  C  C1_1  1  0.33333350  0.16666650  0.95286300  1
  C  C1_2  1  0.33333350  0.66666650  0.45286300  1
  C  C1_3  1  0.33333350  0.66666650  0.95286300  1
  C  C1_4  1  0.83333350  0.16666650  0.45286300  1
  C  C1_5  1  0.83333350  0.16666650  0.95286300  1
  C  C1_6  1  0.83333350  0.66666650  0.45286300  1
  C  C1_7  1  0.83333350  0.66666650  0.95286300  1
loop_
_geom_bond_atom_site_label_1
_geom_bond_atom_site_label_2
_geom_bond_distance
_geom_bond_site_symmetry_2
Cr0_0 Ru2_2 2.657933 1_545
Cr0_0 Ru2_4 2.657933 1_555
Cr0_0 Ru2_0 2.657936 1_555
Cr0_1 Ru2_3 2.657933 1_545
Cr0_1 Ru2_5 2.657933 1_555
Cr0_1 Ru2_1 2.657936 1_555
Cr0_2 Ru2_6 2.657933 1_555
Cr0_2 Ru2_0 2.657933 1_555
Cr0_2 Ru2_2 2.657936 1_555
Cr0_3 Ru2_7 2.657933 1_555
Cr0_3 Ru2_1 2.657933 1_555
Cr0_3 Ru2_3 2.657936 1_555
Cr0_4 Ru2_6 2.657933 1_545
Cr0_4 Ru2_0 2.657933 1_655
Cr0_4 Ru2_4 2.657936 1_555
Cr0_5 Ru2_7 2.657933 1_545
Cr0_5 Ru2_1 2.657933 1_655
Cr0_5 Ru2_5 2.657936 1_555
Cr0_6 Ru2_2 2.657933 1_655
Cr0_6 Ru2_4 2.657933 1_555
Cr0_6 Ru2_6 2.657936 1_555
Cr0_7 Ru2_5 2.657933 1_555
Cr0_7 Ru2_3 2.657933 1_655
Cr0_7 Ru2_7 2.657936 1_555
Cr2_0 Ru0_4 2.657933 1_455
Cr2_0 Ru0_2 2.657933 1_555
Cr2_0 Ru0_0 2.657936 1_555
Cr2_1 Ru0_5 2.657933 1_455
Cr2_1 Ru0_3 2.657933 1_555
Cr2_1 Ru0_1 2.657936 1_555
Cr2_2 Ru0_6 2.657933 1_455
Cr2_2 Ru0_0 2.657933 1_565
Cr2_2 Ru0_2 2.657936 1_555
Cr2_3 Ru0_7 2.657933 1_455
Cr2_3 Ru0_1 2.657933 1_565
Cr2_3 Ru0_3 2.657936 1_555
Cr2_4 Ru0_6 2.657933 1_555
Cr2_4 Ru0_0 2.657933 1_555
Cr2_4 Ru0_4 2.657936 1_555
Cr2_5 Ru0_1 2.657933 1_555
Cr2_5 Ru0_7 2.657933 1_555
Cr2_5 Ru0_5 2.657936 1_555
Cr2_6 Ru0_2 2.657933 1_555
Cr2_6 Ru0_4 2.657933 1_565
Cr2_6 Ru0_6 2.657936 1_555
Cr2_7 Ru0_3 2.657933 1_555
Cr2_7 Ru0_5 2.657933 1_565
Cr2_7 Ru0_7 2.657936 1_555
Ru0_0 Ru1_4 2.719768 1_555
Ru0_0 Ru1_6 2.719769 1_555
Ru0_0 Ru1_0 2.719769 1_555
Ru0_1 Ru1_5 2.719768 1_555
Ru0_1 Ru1_7 2.719769 1_555
Ru0_1 Ru1_1 2.719769 1_555
Ru0_2 Ru1_6 2.719768 1_555
Ru0_2 Ru1_4 2.719769 1_565
Ru0_2 Ru1_2 2.719769 1_555
Ru0_3 Ru1_7 2.719768 1_555
Ru0_3 Ru1_3 2.719769 1_555
Ru0_3 Ru1_5 2.719769 1_565
Ru0_4 Ru1_0 2.719768 1_655
Ru0_4 Ru1_4 2.719769 1_555
Ru0_4 Ru1_2 2.719769 1_655
Ru0_5 Ru1_1 2.719768 1_655
Ru0_5 Ru1_3 2.719769 1_655
Ru0_5 Ru1_5 2.719769 1_555
Ru0_6 Ru1_2 2.719768 1_655
Ru0_6 Ru1_6 2.719769 1_555
Ru0_6 Ru1_0 2.719769 1_665
Ru0_7 Ru1_3 2.719768 1_655
Ru0_7 Ru1_7 2.719769 1_555
Ru0_7 Ru1_1 2.719769 1_665
Ru1_0 Ru2_2 2.719768 1_545
Ru1_0 Ru2_0 2.719769 1_555
Ru1_0 Ru2_6 2.719769 1_445
Ru1_0 Ru1_4 2.775076 1_555
Ru1_0 Ru1_2 2.775076 1_555
Ru1_0 Ru1_2 2.775076 1_545
Ru1_0 Ru1_4 2.775076 1_455
Ru1_0 Ru1_6 2.775076 1_555
Ru1_0 Ru1_6 2.775076 1_445
Ru1_1 Ru2_3 2.719768 1_545
Ru1_1 Ru2_1 2.719769 1_555
Ru1_1 Ru2_7 2.719769 1_445
Ru1_1 Ru1_5 2.775076 1_555
Ru1_1 Ru1_3 2.775076 1_545
Ru1_1 Ru1_3 2.775076 1_555
Ru1_1 Ru1_5 2.775076 1_455
Ru1_1 Ru1_7 2.775076 1_555
Ru1_1 Ru1_7 2.775076 1_445
Ru1_2 Ru2_0 2.719768 1_555
Ru1_2 Ru2_4 2.719769 1_455
Ru1_2 Ru2_2 2.719769 1_555
Ru1_2 Ru1_6 2.775076 1_455
Ru1_2 Ru1_6 2.775076 1_555
Ru1_2 Ru1_4 2.775076 1_455
Ru1_2 Ru1_4 2.775076 1_565
Ru1_3 Ru2_1 2.719768 1_555
Ru1_3 Ru2_5 2.719769 1_455
Ru1_3 Ru2_3 2.719769 1_555
Ru1_3 Ru1_7 2.775076 1_455
Ru1_3 Ru1_7 2.775076 1_555
Ru1_3 Ru1_5 2.775076 1_455
Ru1_3 Ru1_5 2.775076 1_565
Ru1_4 Ru2_6 2.719768 1_545
Ru1_4 Ru2_4 2.719769 1_555
Ru1_4 Ru2_2 2.719769 1_545
Ru1_4 Ru1_6 2.775076 1_555
Ru1_4 Ru1_6 2.775076 1_545
Ru1_5 Ru2_7 2.719768 1_545
Ru1_5 Ru2_5 2.719769 1_555
Ru1_5 Ru2_3 2.719769 1_545
Ru1_5 Ru1_7 2.775076 1_545
Ru1_5 Ru1_7 2.775076 1_555
Ru1_6 Ru2_4 2.719768 1_555
Ru1_6 Ru2_0 2.719769 1_555
Ru1_6 Ru2_6 2.719769 1_555
Ru1_7 Ru2_5 2.719768 1_555
Ru1_7 Ru2_1 2.719769 1_555
Ru1_7 Ru2_7 2.719769 1_555
C0_0 Cr0_4 1.921363 1_455
C0_0 Cr0_2 1.921363 1_555
C0_0 Cr0_0 1.921367 1_555
C0_0 Cr1_2 2.032031 1_555
C0_0 Cr1_6 2.032033 1_555
C0_0 Cr1_0 2.032033 1_555
C0_1 Cr0_5 1.921363 1_455
C0_1 Cr0_3 1.921363 1_555
C0_1 Cr0_1 1.921367 1_555
C0_1 Cr1_3 2.032031 1_555
C0_1 Cr1_1 2.032033 1_555
C0_1 Cr1_7 2.032033 1_555
C0_2 Cr0_0 1.921363 1_565
C0_2 Cr0_6 1.921363 1_455
C0_2 Cr0_2 1.921367 1_555
C0_2 Cr1_0 2.032031 1_565
C0_2 Cr1_2 2.032033 1_555
C0_2 Cr1_4 2.032033 1_565
C0_3 Cr0_1 1.921363 1_565
C0_3 Cr0_7 1.921363 1_455
C0_3 Cr0_3 1.921367 1_555
C0_3 Cr1_1 2.032031 1_565
C0_3 Cr1_3 2.032033 1_555
C0_3 Cr1_5 2.032033 1_565
C0_4 Cr0_0 1.921363 1_555
C0_4 Cr0_6 1.921363 1_555
C0_4 Cr0_4 1.921367 1_555
C0_4 Cr1_6 2.032031 1_555
C0_4 Cr1_2 2.032033 1_655
C0_4 Cr1_4 2.032033 1_555
C0_5 Cr0_1 1.921363 1_555
C0_5 Cr0_7 1.921363 1_555
C0_5 Cr0_5 1.921367 1_555
C0_5 Cr1_7 2.032031 1_555
C0_5 Cr1_3 2.032033 1_655
C0_5 Cr1_5 2.032033 1_555
C0_6 Cr0_2 1.921363 1_555
C0_6 Cr0_4 1.921363 1_565
C0_6 Cr0_6 1.921367 1_555
C0_6 Cr1_4 2.032031 1_565
C0_6 Cr1_6 2.032033 1_555
C0_6 Cr1_0 2.032033 1_665
C0_7 Cr0_3 1.921363 1_555
C0_7 Cr0_5 1.921363 1_565
C0_7 Cr0_7 1.921367 1_555
C0_7 Cr1_5 2.032031 1_565
C0_7 Cr1_7 2.032033 1_555
C0_7 Cr1_1 2.032033 1_665
C1_0 Cr2_2 1.921363 1_545
C1_0 Cr2_4 1.921363 1_555
C1_0 Cr2_0 1.921367 1_555
C1_0 Cr1_5 2.032031 1_555
C1_0 Cr1_7 2.032033 1_555
C1_0 Cr1_1 2.032033 1_555
C1_1 Cr2_3 1.921363 1_545
C1_1 Cr2_5 1.921363 1_555
C1_1 Cr2_1 1.921367 1_555
C1_1 Cr1_4 2.032031 1_556
C1_1 Cr1_0 2.032033 1_556
C1_1 Cr1_6 2.032033 1_556
C1_2 Cr2_6 1.921363 1_555
C1_2 Cr2_0 1.921363 1_555
C1_2 Cr2_2 1.921367 1_555
C1_2 Cr1_7 2.032031 1_555
C1_2 Cr1_3 2.032033 1_555
C1_2 Cr1_5 2.032033 1_565
C1_3 Cr2_7 1.921363 1_555
C1_3 Cr2_1 1.921363 1_555
C1_3 Cr2_3 1.921367 1_555
C1_3 Cr1_6 2.032031 1_556
C1_3 Cr1_4 2.032033 1_566
C1_3 Cr1_2 2.032033 1_556
C1_4 Cr2_6 1.921363 1_545
C1_4 Cr2_0 1.921363 1_655
C1_4 Cr2_4 1.921367 1_555
C1_4 Cr1_1 2.032031 1_655
C1_4 Cr1_5 2.032033 1_555
C1_4 Cr1_3 2.032033 1_655
C1_5 Cr2_7 1.921363 1_545
C1_5 Cr2_1 1.921363 1_655
C1_5 Cr2_5 1.921367 1_555
C1_5 Cr1_0 2.032031 1_656
C1_5 Cr1_4 2.032033 1_556
C1_5 Cr1_2 2.032033 1_656
C1_6 Cr2_4 1.921363 1_555
C1_6 Cr2_2 1.921363 1_655
C1_6 Cr2_6 1.921367 1_555
C1_6 Cr1_3 2.032031 1_655
C1_6 Cr1_7 2.032033 1_555
C1_6 Cr1_1 2.032033 1_665
C1_7 Cr2_5 1.921363 1_555
C1_7 Cr2_3 1.921363 1_655
C1_7 Cr2_7 1.921367 1_555
C1_7 Cr1_2 2.032031 1_656
C1_7 Cr1_6 2.032033 1_556
C1_7 Cr1_0 2.032033 1_666
