# generated using pymatgen
data_HIO4
_symmetry_space_group_name_H-M   'P 1'
_cell_length_a   5.90855462
_cell_length_b   5.90855462
_cell_length_c   5.08530665
_cell_angle_alpha   82.80586945
_cell_angle_beta   82.80586945
_cell_angle_gamma   71.94709504
_symmetry_Int_Tables_number   1
_chemical_formula_structural   HIO4
_chemical_formula_sum   'H2 I2 O8'
_cell_volume   166.76025320
_cell_formula_units_Z   2
loop_
 _symmetry_equiv_pos_site_id
 _symmetry_equiv_pos_as_xyz
  1  'x, y, z'
loop_
 _atom_site_type_symbol
 _atom_site_label
 _atom_site_symmetry_multiplicity
 _atom_site_fract_x
 _atom_site_fract_y
 _atom_site_fract_z
 _atom_site_occupancy
  H  H0  1  0.51300700  0.04104700  0.72484100  1
  H  H1  1  0.95895300  0.48699300  0.27515900  1
  I  I0  1  0.13913800  0.86086200  0.00000000  1
  I  I1  1  0.87820800  0.12179200  0.50000000  1
  O  O0  1  0.96918000  0.80447200  0.70938800  1
  O  O1  1  0.19552800  0.03082000  0.29061200  1
  O  O2  1  0.02317800  0.19459100  0.78764700  1
  O  O3  1  0.80540900  0.97682200  0.21235300  1
  O  O4  1  0.56079600  0.19408300  0.64479200  1
  O  O5  1  0.80591700  0.43920400  0.35520800  1
  O  O6  1  0.43723000  0.82554300  0.84464700  1
  O  O7  1  0.17445700  0.56277000  0.15535300  1
loop_
_geom_bond_atom_site_label_1
_geom_bond_atom_site_label_2
_geom_bond_distance
_geom_bond_site_symmetry_2
H0 O4 1.048961 1_555
H0 O6 1.511195 1_545
H1 O5 1.048961 1_555
H1 O7 1.511195 1_655
I0 O6 1.798557 1_554
I0 O7 1.798557 1_555
I0 O0 2.001472 1_454
I0 O1 2.001472 1_565
I0 O3 2.082889 1_455
I0 O2 2.082889 1_564
I1 O5 1.865022 1_555
I1 O4 1.865022 1_555
I1 O2 1.938605 1_655
I1 O3 1.938605 1_545
I1 O1 1.989144 1_655
I1 O0 1.989144 1_545
