# generated using pymatgen
data_SrPr3
_symmetry_space_group_name_H-M   'P 1'
_cell_length_a   7.72985319
_cell_length_b   7.72985319
_cell_length_c   6.12481100
_cell_angle_alpha   90.00000000
_cell_angle_beta   90.00000000
_cell_angle_gamma   119.99999310
_symmetry_Int_Tables_number   1
_chemical_formula_structural   SrPr3
_chemical_formula_sum   'Sr2 Pr6'
_cell_volume   316.93182047
_cell_formula_units_Z   2
loop_
 _symmetry_equiv_pos_site_id
 _symmetry_equiv_pos_as_xyz
  1  'x, y, z'
loop_
 _atom_site_type_symbol
 _atom_site_label
 _atom_site_symmetry_multiplicity
 _atom_site_fract_x
 _atom_site_fract_y
 _atom_site_fract_z
 _atom_site_occupancy
  Sr  Sr0  1  0.33333300  0.66666700  0.75000000  1
  Sr  Sr1  1  0.66666700  0.33333300  0.25000000  1
  Pr  Pr0  1  0.16040100  0.32080100  0.25000000  1
  Pr  Pr1  1  0.67919900  0.83959900  0.25000000  1
  Pr  Pr2  1  0.16040100  0.83959900  0.25000000  1
  Pr  Pr3  1  0.83959900  0.67919900  0.75000000  1
  Pr  Pr4  1  0.32080100  0.16040100  0.75000000  1
  Pr  Pr5  1  0.83959900  0.16040100  0.75000000  1
loop_
_geom_bond_atom_site_label_1
_geom_bond_atom_site_label_2
_geom_bond_distance
_geom_bond_site_symmetry_2
Pr0 Pr2 3.719621 1_545
Pr0 Pr1 3.719621 1_445
Pr0 Pr4 3.740341 1_555
Pr0 Pr4 3.740341 1_554
Pr0 Pr5 3.740349 1_455
Pr0 Pr5 3.740349 1_454
Pr0 Sr0 3.839141 1_555
Pr0 Sr0 3.839141 1_554
Pr0 Sr1 3.865837 1_455
Pr0 Sr1 3.865837 1_555
Pr0 Pr2 4.010232 1_555
Pr0 Pr1 4.010233 1_555
Pr1 Pr2 3.719621 1_655
Pr1 Pr3 3.740341 1_555
Pr1 Pr3 3.740341 1_554
Pr1 Pr5 3.740349 1_565
Pr1 Pr5 3.740349 1_564
Pr1 Sr0 3.839141 1_555
Pr1 Sr0 3.839141 1_554
Pr1 Sr1 3.865837 1_565
Pr1 Sr1 3.865837 1_555
Pr1 Pr2 4.010232 1_555
Pr2 Pr4 3.740349 1_564
Pr2 Pr3 3.740349 1_454
Pr2 Pr4 3.740349 1_565
Pr2 Pr3 3.740349 1_455
Pr2 Sr0 3.839133 1_555
Pr2 Sr0 3.839133 1_554
Pr2 Sr1 3.865837 1_455
Pr2 Sr1 3.865837 1_565
Pr3 Pr5 3.719621 1_565
Pr3 Pr4 3.719621 1_665
Pr3 Sr1 3.839141 1_555
Pr3 Sr1 3.839141 1_556
Pr3 Sr0 3.865837 1_655
Pr3 Sr0 3.865837 1_555
Pr3 Pr5 4.010232 1_555
Pr3 Pr4 4.010233 1_555
Pr4 Pr5 3.719621 1_455
Pr4 Sr1 3.839141 1_555
Pr4 Sr1 3.839141 1_556
Pr4 Sr0 3.865837 1_545
Pr4 Sr0 3.865837 1_555
Pr4 Pr5 4.010232 1_555
Pr5 Sr1 3.839133 1_555
Pr5 Sr1 3.839133 1_556
Pr5 Sr0 3.865837 1_545
Pr5 Sr0 3.865837 1_655
