# generated using pymatgen
data_KMg14Zn
_symmetry_space_group_name_H-M   'P 1'
_cell_length_a   6.50259713
_cell_length_b   6.47595614
_cell_length_c   10.52601778
_cell_angle_alpha   90.00000000
_cell_angle_beta   90.00000000
_cell_angle_gamma   119.86457101
_symmetry_Int_Tables_number   1
_chemical_formula_structural   KMg14Zn
_chemical_formula_sum   'K1 Mg14 Zn1'
_cell_volume   384.39393877
_cell_formula_units_Z   1
loop_
 _symmetry_equiv_pos_site_id
 _symmetry_equiv_pos_as_xyz
  1  'x, y, z'
loop_
 _atom_site_type_symbol
 _atom_site_label
 _atom_site_symmetry_multiplicity
 _atom_site_fract_x
 _atom_site_fract_y
 _atom_site_fract_z
 _atom_site_occupancy
  K  K0  1  0.16385491  0.83192695  0.12500000  1
  Mg  Mg0  1  0.16423493  0.33211696  0.62500000  1
  Mg  Mg1  1  0.16744469  0.83372185  0.62500000  1
  Mg  Mg2  1  0.65913577  0.33811705  0.12500000  1
  Mg  Mg3  1  0.66567637  0.33044504  0.62500000  1
  Mg  Mg4  1  0.65913577  0.82101772  0.12500000  1
  Mg  Mg5  1  0.66567637  0.83523033  0.62500000  1
  Mg  Mg6  1  0.33550242  0.17680501  0.38469888  1
  Mg  Mg7  1  0.33550242  0.17680501  0.86530112  1
  Mg  Mg8  1  0.33550242  0.65869840  0.38469888  1
  Mg  Mg9  1  0.33550242  0.65869840  0.86530112  1
  Mg  Mg10  1  0.83852760  0.16926430  0.36514539  1
  Mg  Mg11  1  0.83852760  0.16926430  0.88485461  1
  Mg  Mg12  1  0.82400885  0.66200493  0.38863058  1
  Mg  Mg13  1  0.82400885  0.66200493  0.86136942  1
  Zn  Zn0  1  0.18775862  0.34387881  0.12500000  1
loop_
_geom_bond_atom_site_label_1
_geom_bond_atom_site_label_2
_geom_bond_distance
_geom_bond_site_symmetry_2
K0 Zn0 3.240783 1_555
K0 Zn0 3.240783 1_565
K0 Mg2 3.247384 1_455
K0 Mg4 3.247384 1_455
K0 Mg2 3.256367 1_565
K0 Mg4 3.256367 1_555
K0 Mg9 3.350197 1_554
K0 Mg8 3.350197 1_555
K0 Mg7 3.350203 1_564
K0 Mg6 3.350203 1_565
K0 Mg13 3.372415 1_454
K0 Mg12 3.372415 1_455
Mg0 Mg6 3.124963 1_555
Mg0 Mg7 3.124963 1_555
Mg0 Mg8 3.124969 1_555
Mg0 Mg9 3.124969 1_555
Mg0 Mg5 3.236547 1_445
Mg0 Mg3 3.236548 1_455
Mg0 Mg1 3.238029 1_545
Mg0 Mg1 3.238029 1_555
Mg0 Mg5 3.266076 1_555
Mg0 Mg3 3.266077 1_555
Mg0 Mg11 3.294684 1_455
Mg0 Mg10 3.294684 1_455
Mg1 Mg12 3.152928 1_455
Mg1 Mg13 3.152928 1_455
Mg1 Mg8 3.179691 1_555
Mg1 Mg9 3.179691 1_555
Mg1 Mg6 3.179698 1_565
Mg1 Mg7 3.179698 1_565
Mg1 Mg3 3.234946 1_565
Mg1 Mg5 3.234947 1_555
Mg1 Mg3 3.267672 1_455
Mg1 Mg5 3.267673 1_455
Mg2 Zn0 3.083925 1_555
Mg2 Mg7 3.286816 1_554
Mg2 Mg6 3.286816 1_555
Mg3 Mg6 3.141659 1_555
Mg3 Mg7 3.141659 1_555
Mg3 Mg5 3.206989 1_545
Mg3 Mg5 3.268967 1_555
Mg4 Zn0 3.083925 1_555
Mg4 Mg9 3.286816 1_554
Mg4 Mg8 3.286816 1_555
Mg5 Mg8 3.141659 1_555
Mg5 Mg9 3.141659 1_555
Mg6 Mg8 3.120720 1_555
Mg6 Zn0 3.255974 1_555
Mg6 Mg8 3.355236 1_545
Mg7 Mg9 3.120720 1_555
Mg7 Zn0 3.255974 1_556
Mg7 Mg9 3.355236 1_545
Mg8 Zn0 3.255980 1_555
Mg9 Zn0 3.255980 1_556
Mg10 Mg2 3.196316 1_555
Mg10 Mg4 3.196323 1_545
Mg10 Zn0 3.204365 1_655
Mg10 Mg8 3.214186 1_655
Mg10 Mg6 3.214187 1_655
Mg10 Mg12 3.248433 1_545
Mg10 Mg12 3.248433 1_555
Mg10 Mg8 3.301979 1_545
Mg10 Mg6 3.301980 1_555
Mg10 Mg3 3.317041 1_555
Mg10 Mg5 3.317048 1_545
Mg11 Mg2 3.196316 1_556
Mg11 Mg4 3.196323 1_546
Mg11 Zn0 3.204365 1_656
Mg11 Mg9 3.214186 1_655
Mg11 Mg7 3.214187 1_655
Mg11 Mg13 3.248433 1_545
Mg11 Mg13 3.248433 1_555
Mg11 Mg9 3.301979 1_545
Mg11 Mg7 3.301980 1_555
Mg11 Mg3 3.317041 1_555
Mg11 Mg5 3.317048 1_545
Mg12 Mg5 3.107891 1_555
Mg12 Mg3 3.107897 1_555
Mg12 Mg6 3.166223 1_555
Mg12 Mg8 3.166223 1_555
Mg12 Mg4 3.318104 1_555
Mg12 Mg2 3.318110 1_555
Mg12 Mg6 3.337007 1_665
Mg12 Mg8 3.337008 1_655
Mg13 Mg5 3.107891 1_555
Mg13 Mg3 3.107897 1_555
Mg13 Mg7 3.166223 1_555
Mg13 Mg9 3.166223 1_555
Mg13 Mg4 3.318104 1_556
Mg13 Mg2 3.318110 1_556
Mg13 Mg7 3.337007 1_665
Mg13 Mg9 3.337008 1_655
