# generated using pymatgen
data_Tb4GaSbS9
_symmetry_space_group_name_H-M   'P 1'
_cell_length_a   9.92205812
_cell_length_b   9.92205812
_cell_length_c   13.58302100
_cell_angle_alpha   90.00000000
_cell_angle_beta   90.00000000
_cell_angle_gamma   90.92601746
_symmetry_Int_Tables_number   1
_chemical_formula_structural   Tb4GaSbS9
_chemical_formula_sum   'Tb16 Ga4 Sb4 S36'
_cell_volume   1337.03624826
_cell_formula_units_Z   4
loop_
 _symmetry_equiv_pos_site_id
 _symmetry_equiv_pos_as_xyz
  1  'x, y, z'
loop_
 _atom_site_type_symbol
 _atom_site_label
 _atom_site_symmetry_multiplicity
 _atom_site_fract_x
 _atom_site_fract_y
 _atom_site_fract_z
 _atom_site_occupancy
  Tb  Tb0  1  0.09120800  0.12753900  0.18669100  1
  Tb  Tb1  1  0.87246100  0.90879100  0.81330900  1
  Tb  Tb2  1  0.59120900  0.62753900  0.31330900  1
  Tb  Tb3  1  0.37246100  0.40879100  0.68669100  1
  Tb  Tb4  1  0.32055900  0.33683500  0.39906700  1
  Tb  Tb5  1  0.66316500  0.67944100  0.60093300  1
  Tb  Tb6  1  0.82055900  0.83683500  0.10093300  1
  Tb  Tb7  1  0.16316500  0.17944100  0.89906700  1
  Tb  Tb8  1  0.04283500  0.62519600  0.31764500  1
  Tb  Tb9  1  0.37480400  0.95716500  0.68235500  1
  Tb  Tb10  1  0.54283500  0.12519600  0.18235500  1
  Tb  Tb11  1  0.87480400  0.45716500  0.81764500  1
  Tb  Tb12  1  0.32797300  0.44983900  0.10373500  1
  Tb  Tb13  1  0.55016100  0.67202700  0.89626500  1
  Tb  Tb14  1  0.82797300  0.94983900  0.39626500  1
  Tb  Tb15  1  0.05016100  0.17202700  0.60373500  1
  Ga  Ga0  1  0.82389900  0.38597500  0.09160600  1
  Ga  Ga1  1  0.61402500  0.17610100  0.90839400  1
  Ga  Ga2  1  0.32389900  0.88597500  0.40839400  1
  Ga  Ga3  1  0.11402500  0.67610100  0.59160600  1
  Sb  Sb0  1  0.83151900  0.32908500  0.38698100  1
  Sb  Sb1  1  0.67091500  0.16848100  0.61301900  1
  Sb  Sb2  1  0.33151900  0.82908500  0.11301900  1
  Sb  Sb3  1  0.17091500  0.66848100  0.88698100  1
  S  S0  1  0.01487700  0.16363000  0.40060600  1
  S  S1  1  0.83637000  0.98512300  0.59939400  1
  S  S2  1  0.51487700  0.66363000  0.09939400  1
  S  S3  1  0.33637000  0.48512300  0.90060600  1
  S  S4  1  0.14727800  0.66322600  0.08108000  1
  S  S5  1  0.33677400  0.85272200  0.91892000  1
  S  S6  1  0.64727800  0.16322600  0.41892000  1
  S  S7  1  0.83677400  0.35272200  0.58108000  1
  S  S8  1  0.81834500  0.20420400  0.19767100  1
  S  S9  1  0.79579600  0.18165500  0.80232900  1
  S  S10  1  0.31834500  0.70420400  0.30232900  1
  S  S11  1  0.29579600  0.68165500  0.69767100  1
  S  S12  1  0.82170100  0.57638100  0.19082300  1
  S  S13  1  0.42361900  0.17829900  0.80917700  1
  S  S14  1  0.32170100  0.07638100  0.30917700  1
  S  S15  1  0.92361900  0.67829900  0.69082300  1
  S  S16  1  0.12591100  0.87408900  0.50000000  1
  S  S17  1  0.62591100  0.37408900  0.00000000  1
  S  S18  1  0.11732700  0.49136900  0.49014500  1
  S  S19  1  0.50863100  0.88267300  0.50985500  1
  S  S20  1  0.61732700  0.99136900  0.00985500  1
  S  S21  1  0.00863100  0.38267300  0.99014500  1
  S  S22  1  0.81240600  0.68099300  0.43166300  1
  S  S23  1  0.31900700  0.18759400  0.56833700  1
  S  S24  1  0.31240600  0.18099300  0.06833700  1
  S  S25  1  0.81900700  0.68759400  0.93166300  1
  S  S26  1  0.00303400  0.88127600  0.24880500  1
  S  S27  1  0.11872400  0.99696600  0.75119500  1
  S  S28  1  0.50303400  0.38127600  0.25119500  1
  S  S29  1  0.61872400  0.49696600  0.74880500  1
  S  S30  1  0.49946000  0.50054000  0.50000000  1
  S  S31  1  0.99946000  0.00054000  0.00000000  1
  S  S32  1  0.14208600  0.39007400  0.24578600  1
  S  S33  1  0.60992600  0.85791400  0.75421400  1
  S  S34  1  0.64208600  0.89007400  0.25421400  1
  S  S35  1  0.10992600  0.35791400  0.74578600  1
loop_
_geom_bond_atom_site_label_1
_geom_bond_atom_site_label_2
_geom_bond_distance
_geom_bond_site_symmetry_2
Ga0 S21 2.293884 1_654
Ga0 S8 2.308280 1_555
Ga0 S12 2.321026 1_555
Ga0 S17 2.326741 1_555
Ga1 S20 2.293884 1_546
Ga1 S9 2.308280 1_555
Ga1 S13 2.321026 1_555
Ga1 S17 2.326741 1_556
Ga2 S19 2.293884 1_555
Ga2 S10 2.308280 1_555
Ga2 S14 2.321026 1_565
Ga2 S16 2.326741 1_555
Ga3 S18 2.293884 1_555
Ga3 S11 2.308280 1_555
Ga3 S15 2.321026 1_455
Ga3 S16 2.326741 1_555
S0 Sb0 2.477020 1_455
S0 Tb15 2.782306 1_555
S0 Tb14 2.795547 1_445
S0 Tb0 3.025422 1_555
S0 Tb4 3.461854 1_555
S1 Sb1 2.477020 1_565
S1 Tb14 2.782306 1_555
S1 Tb15 2.795547 1_665
S1 Tb1 3.025424 1_555
S1 Tb5 3.461854 1_555
S2 Sb2 2.477020 1_555
S2 Tb13 2.782306 1_554
S2 Tb12 2.795547 1_555
S2 Tb2 3.025424 1_555
S2 Tb6 3.461854 1_555
S3 Sb3 2.477020 1_555
S3 Tb12 2.782306 1_556
S3 Tb13 2.795547 1_555
S3 Tb3 3.025424 1_555
S3 Tb7 3.461854 1_555
S4 Sb2 2.478092 1_555
S4 Sb3 2.647300 1_554
S4 Tb12 2.813264 1_555
S5 Sb3 2.478092 1_555
S5 Sb2 2.647300 1_556
S5 Tb13 2.813264 1_555
S6 Sb0 2.478092 1_555
S6 Sb1 2.647300 1_555
S6 Tb14 2.813264 1_545
S7 Sb1 2.478092 1_555
S7 Sb0 2.647300 1_555
S7 Tb15 2.813264 1_655
S8 Tb0 2.827940 1_655
S8 Tb10 2.839236 1_555
S8 Sb0 2.856443 1_555
S9 Tb1 2.827950 1_545
S9 Tb11 2.839236 1_555
S9 Sb1 2.856443 1_555
S10 Tb2 2.827950 1_555
S10 Tb8 2.839236 1_555
S10 Sb2 2.856443 1_555
S11 Tb3 2.827950 1_555
S11 Tb9 2.839236 1_555
S11 Sb3 2.856443 1_555
S12 Tb8 2.825204 1_655
S12 Tb6 2.858349 1_555
S12 Tb2 2.879815 1_555
S13 Tb9 2.825204 1_545
S13 Tb7 2.858349 1_555
S13 Tb3 2.879815 1_555
S14 Tb10 2.825204 1_555
S14 Tb4 2.858349 1_555
S14 Tb0 2.879823 1_555
S15 Tb11 2.825204 1_555
S15 Tb5 2.858349 1_555
S15 Tb1 2.879815 1_555
S18 Tb8 2.798419 1_555
S18 Tb4 2.836825 1_555
S19 Tb9 2.798419 1_555
S19 Tb5 2.836825 1_555
S20 Tb10 2.798419 1_565
S20 Tb6 2.836825 1_555
S21 Tb11 2.798419 1_455
S21 Tb7 2.836825 1_555
S22 Tb14 2.712435 1_555
S22 Tb5 2.734687 1_555
S22 Tb2 2.764942 1_555
S22 Tb8 2.823688 1_655
S23 Tb15 2.712435 1_555
S23 Tb4 2.734687 1_555
S23 Tb3 2.764942 1_555
S23 Tb9 2.823688 1_545
S24 Tb12 2.712435 1_555
S24 Tb7 2.734687 1_554
S24 Tb0 2.764950 1_555
S24 Tb10 2.823688 1_555
S25 Tb13 2.712435 1_555
S25 Tb6 2.734687 1_556
S25 Tb1 2.764942 1_555
S25 Tb11 2.823688 1_555
S26 Tb0 2.716339 1_565
S26 Tb6 2.735124 1_455
S26 Tb8 2.742004 1_555
S26 Tb14 2.744057 1_455
S27 Tb1 2.716342 1_455
S27 Tb7 2.735124 1_565
S27 Tb9 2.742004 1_555
S27 Tb15 2.744057 1_565
S28 Tb2 2.716342 1_555
S28 Tb4 2.735124 1_555
S28 Tb10 2.742004 1_555
S28 Tb12 2.744057 1_555
S29 Tb3 2.716342 1_555
S29 Tb5 2.735124 1_555
S29 Tb11 2.742004 1_555
S29 Tb13 2.744057 1_555
S30 Tb5 2.752373 1_555
S30 Tb4 2.752373 1_555
S30 Tb3 2.968146 1_555
S30 Tb2 2.968146 1_555
S31 Tb7 2.752373 1_654
S31 Tb6 2.752373 1_545
S31 Tb0 2.968143 1_655
S31 Tb1 2.968146 1_544
S32 Tb8 2.727477 1_555
S32 Tb12 2.727807 1_555
S32 Tb0 2.764432 1_555
S32 Tb4 2.789243 1_555
S33 Tb9 2.727477 1_555
S33 Tb13 2.727807 1_555
S33 Tb1 2.764430 1_555
S33 Tb5 2.789243 1_555
S34 Tb10 2.727477 1_565
S34 Tb14 2.727807 1_555
S34 Tb2 2.764430 1_555
S34 Tb6 2.789243 1_555
S35 Tb11 2.727477 1_455
S35 Tb15 2.727807 1_555
S35 Tb3 2.764430 1_555
S35 Tb7 2.789243 1_555
