# generated using pymatgen
data_NaIn2Pb
_symmetry_space_group_name_H-M   'P 1'
_cell_length_a   11.89138557
_cell_length_b   11.89138557
_cell_length_c   11.89138557
_cell_angle_alpha   120.42770490
_cell_angle_beta   118.35588405
_cell_angle_gamma   91.06590435
_symmetry_Int_Tables_number   1
_chemical_formula_structural   NaIn2Pb
_chemical_formula_sum   'Na1 In2 Pb1'
_cell_volume   1199.22803258
_cell_formula_units_Z   1
loop_
 _symmetry_equiv_pos_site_id
 _symmetry_equiv_pos_as_xyz
  1  'x, y, z'
loop_
 _atom_site_type_symbol
 _atom_site_label
 _atom_site_symmetry_multiplicity
 _atom_site_fract_x
 _atom_site_fract_y
 _atom_site_fract_z
 _atom_site_occupancy
  Na  Na0  1  0.00000000  0.00000000  0.00000000  1
  In  In0  1  0.00000000  0.26330100  0.26330100  1
  In  In1  1  0.00000000  0.73669900  0.73669900  1
  Pb  Pb0  1  0.00000000  0.50000000  0.50000000  1
loop_
_geom_bond_atom_site_label_1
_geom_bond_atom_site_label_2
_geom_bond_distance
_geom_bond_site_symmetry_2
In0 Pb0 2.796463 1_555
In0 Na0 3.110751 1_555
In1 Pb0 2.796463 1_555
In1 Na0 3.110751 1_566
