# generated using pymatgen
data_Re2C3(ClO2)3
_symmetry_space_group_name_H-M   'P 1'
_cell_length_a   7.51658500
_cell_length_b   11.23200300
_cell_length_c   13.28403700
_cell_angle_alpha   90.00000000
_cell_angle_beta   90.00000000
_cell_angle_gamma   90.00000000
_symmetry_Int_Tables_number   1
_chemical_formula_structural   Re2C3(ClO2)3
_chemical_formula_sum   'Re8 C12 Cl12 O24'
_cell_volume   1121.52216298
_cell_formula_units_Z   4
loop_
 _symmetry_equiv_pos_site_id
 _symmetry_equiv_pos_as_xyz
  1  'x, y, z'
loop_
 _atom_site_type_symbol
 _atom_site_label
 _atom_site_symmetry_multiplicity
 _atom_site_fract_x
 _atom_site_fract_y
 _atom_site_fract_z
 _atom_site_occupancy
  Re  Re0  1  0.00141600  0.28959100  0.31317200  1
  Re  Re1  1  0.50141600  0.71040900  0.68682800  1
  Re  Re2  1  0.50141600  0.78959100  0.18682800  1
  Re  Re3  1  0.00141600  0.21040900  0.81317200  1
  Re  Re4  1  0.17079800  0.14286700  0.24603000  1
  Re  Re5  1  0.67079800  0.85713300  0.75397000  1
  Re  Re6  1  0.67079800  0.64286700  0.25397000  1
  Re  Re7  1  0.17079800  0.35713300  0.74603000  1
  C  C0  1  0.36360400  0.29050000  0.38269900  1
  C  C1  1  0.86360400  0.70950000  0.61730100  1
  C  C2  1  0.86360400  0.79050000  0.11730100  1
  C  C3  1  0.36360400  0.20950000  0.88269900  1
  C  C4  1  0.81281400  0.14735300  0.17015900  1
  C  C5  1  0.31281400  0.85264700  0.82984100  1
  C  C6  1  0.31281400  0.64735300  0.32984100  1
  C  C7  1  0.81281400  0.35264700  0.67015900  1
  C  C8  1  0.18671500  0.36258600  0.13212100  1
  C  C9  1  0.68671500  0.63741400  0.86787900  1
  C  C10  1  0.68671500  0.86258600  0.36787900  1
  C  C11  1  0.18671500  0.13741400  0.63212100  1
  Cl  Cl0  1  0.35323200  0.99603800  0.12704100  1
  Cl  Cl1  1  0.85323200  0.00396200  0.87295900  1
  Cl  Cl2  1  0.85323200  0.49603800  0.37295900  1
  Cl  Cl3  1  0.35323200  0.50396200  0.62704100  1
  Cl  Cl4  1  0.87844100  0.20025600  0.44943600  1
  Cl  Cl5  1  0.37844100  0.79974400  0.55056400  1
  Cl  Cl6  1  0.37844100  0.70025600  0.05056400  1
  Cl  Cl7  1  0.87844100  0.29974400  0.94943600  1
  Cl  Cl8  1  0.12793500  0.99318800  0.35712000  1
  Cl  Cl9  1  0.62793500  0.00681200  0.64288000  1
  Cl  Cl10  1  0.62793500  0.49318800  0.14288000  1
  Cl  Cl11  1  0.12793500  0.50681200  0.85712000  1
  O  O0  1  0.39229900  0.20460700  0.32447900  1
  O  O1  1  0.89229900  0.79539300  0.67552100  1
  O  O2  1  0.89229900  0.70460700  0.17552100  1
  O  O3  1  0.39229900  0.29539300  0.82447900  1
  O  O4  1  0.08150300  0.40602700  0.19581100  1
  O  O5  1  0.58150300  0.59397300  0.80418900  1
  O  O6  1  0.58150300  0.90602700  0.30418900  1
  O  O7  1  0.08150300  0.09397300  0.69581100  1
  O  O8  1  0.95320800  0.09043000  0.15653200  1
  O  O9  1  0.45320800  0.90957000  0.84346800  1
  O  O10  1  0.45320800  0.59043000  0.34346800  1
  O  O11  1  0.95320800  0.40957000  0.65653200  1
  O  O12  1  0.78651400  0.23757300  0.22327900  1
  O  O13  1  0.28651400  0.76242700  0.77672100  1
  O  O14  1  0.28651400  0.73757300  0.27672100  1
  O  O15  1  0.78651400  0.26242700  0.72327900  1
  O  O16  1  0.25173600  0.25979500  0.12834600  1
  O  O17  1  0.75173600  0.74020500  0.87165400  1
  O  O18  1  0.75173600  0.75979500  0.37165400  1
  O  O19  1  0.25173600  0.24020500  0.62834600  1
  O  O20  1  0.22448500  0.34974500  0.39346100  1
  O  O21  1  0.72448500  0.65025500  0.60653900  1
  O  O22  1  0.72448500  0.84974500  0.10653900  1
  O  O23  1  0.22448500  0.15025500  0.89346100  1
loop_
_geom_bond_atom_site_label_1
_geom_bond_atom_site_label_2
_geom_bond_distance
_geom_bond_site_symmetry_2
Re0 Re4 2.265482 1_555
Re1 Re5 2.265482 1_555
Re2 Re6 2.265482 1_555
Re3 Re7 2.265482 1_555
C0 O20 1.247693 1_555
C0 O0 1.255152 1_555
C1 O21 1.247693 1_555
C1 O1 1.255152 1_555
C2 O22 1.247693 1_555
C2 O2 1.255152 1_555
C3 O23 1.247693 1_555
C3 O3 1.255152 1_555
C4 O8 1.247065 1_555
C4 O12 1.250560 1_555
C5 O9 1.247065 1_555
C5 O13 1.250560 1_555
C6 O10 1.247065 1_555
C6 O14 1.250560 1_555
C7 O11 1.247065 1_555
C7 O15 1.250560 1_555
C8 O16 1.254735 1_555
C8 O4 1.256707 1_555
C9 O17 1.254735 1_555
C9 O5 1.256707 1_555
C10 O18 1.254735 1_555
C10 O6 1.256707 1_555
C11 O19 1.254735 1_555
C11 O7 1.256707 1_555
Cl0 Re4 2.664336 1_565
Cl0 Re2 2.692267 1_555
Cl1 Re5 2.664336 1_545
Cl1 Re3 2.692267 1_655
Cl2 Re6 2.664336 1_555
Cl2 Re0 2.692267 1_655
Cl3 Re7 2.664336 1_555
Cl3 Re1 2.692267 1_555
Cl4 Re0 2.266683 1_655
Cl5 Re1 2.266683 1_555
Cl6 Re2 2.266683 1_555
Cl7 Re3 2.266683 1_655
Cl8 Re4 2.260084 1_565
Cl9 Re5 2.260084 1_545
Cl10 Re6 2.260084 1_555
Cl11 Re7 2.260084 1_555
O0 Re4 2.083003 1_555
O1 Re5 2.083003 1_555
O2 Re6 2.083003 1_555
O3 Re7 2.083003 1_555
O4 Re0 2.122101 1_555
O5 Re1 2.122101 1_555
O6 Re2 2.122101 1_555
O7 Re3 2.122101 1_555
O8 Re4 2.106022 1_655
O9 Re5 2.106022 1_555
O10 Re6 2.106022 1_555
O11 Re7 2.106022 1_655
O12 Re0 2.092040 1_655
O13 Re1 2.092040 1_555
O14 Re2 2.092040 1_555
O15 Re3 2.092040 1_655
O16 Re4 2.130478 1_555
O17 Re5 2.130478 1_555
O18 Re6 2.130478 1_555
O19 Re7 2.130478 1_555
O20 Re0 2.098913 1_555
O21 Re1 2.098913 1_555
O22 Re2 2.098913 1_555
O23 Re3 2.098913 1_555
