# generated using pymatgen
data_YZrFe4
_symmetry_space_group_name_H-M   'P 1'
_cell_length_a   5.11042489
_cell_length_b   5.11046783
_cell_length_c   5.11046092
_cell_angle_alpha   60.00010431
_cell_angle_beta   59.99983623
_cell_angle_gamma   59.99992068
_symmetry_Int_Tables_number   1
_chemical_formula_structural   YZrFe4
_chemical_formula_sum   'Y1 Zr1 Fe4'
_cell_volume   94.37615669
_cell_formula_units_Z   1
loop_
 _symmetry_equiv_pos_site_id
 _symmetry_equiv_pos_as_xyz
  1  'x, y, z'
loop_
 _atom_site_type_symbol
 _atom_site_label
 _atom_site_symmetry_multiplicity
 _atom_site_fract_x
 _atom_site_fract_y
 _atom_site_fract_z
 _atom_site_occupancy
  Y  Y0  1  0.24999900  0.25000100  0.25000000  1
  Zr  Zr0  1  0.00000100  0.99999900  -0.00000000  1
  Fe  Fe0  1  0.62497564  0.62497564  0.12507407  1
  Fe  Fe1  1  0.62497564  0.12507407  0.62497564  1
  Fe  Fe2  1  0.12507407  0.62497564  0.62497564  1
  Fe  Fe3  1  0.62497564  0.62497564  0.62497564  1
loop_
_geom_bond_atom_site_label_1
_geom_bond_atom_site_label_2
_geom_bond_distance
_geom_bond_site_symmetry_2
Y0 Zr0 3.129485 1_645
Y0 Zr0 3.129501 1_545
Y0 Zr0 3.129503 1_555
Y0 Zr0 3.129505 1_546
Fe0 Fe2 2.554712 1_555
Fe0 Fe3 2.554727 1_555
Fe0 Fe1 2.554733 1_555
Fe0 Fe2 2.555718 1_654
Fe0 Fe3 2.555733 1_554
Fe0 Fe1 2.555739 1_564
Fe0 Y0 2.996194 1_655
Fe0 Y0 2.996214 1_555
Fe0 Y0 2.996222 1_565
Fe0 Zr0 2.996305 1_555
Fe0 Zr0 2.996316 1_655
Fe0 Zr0 2.996332 1_645
Fe1 Fe2 2.554717 1_555
Fe1 Fe3 2.554731 1_555
Fe1 Fe2 2.555723 1_645
Fe1 Fe3 2.555737 1_545
Fe1 Y0 2.996193 1_655
Fe1 Y0 2.996214 1_556
Fe1 Y0 2.996216 1_555
Fe1 Zr0 2.996304 1_546
Fe1 Zr0 2.996318 1_646
Fe1 Zr0 2.996324 1_645
Fe2 Fe3 2.554709 1_555
Fe2 Fe3 2.555715 1_455
Fe2 Y0 2.996218 1_556
Fe2 Y0 2.996221 1_555
Fe2 Y0 2.996225 1_565
Fe2 Zr0 2.996323 1_556
Fe2 Zr0 2.996329 1_555
Fe2 Zr0 2.996336 1_546
Fe3 Y0 2.996198 1_655
Fe3 Y0 2.996215 1_556
Fe3 Y0 2.996224 1_565
Fe3 Zr0 2.996304 1_556
Fe3 Zr0 2.996321 1_655
Fe3 Zr0 2.996331 1_646
