# generated using pymatgen
data_TbZnCuAs2
_symmetry_space_group_name_H-M   'P 1'
_cell_length_a   4.12558712
_cell_length_b   4.12558712
_cell_length_c   6.72384300
_cell_angle_alpha   90.00000000
_cell_angle_beta   90.00000000
_cell_angle_gamma   119.99998592
_symmetry_Int_Tables_number   1
_chemical_formula_structural   TbZnCuAs2
_chemical_formula_sum   'Tb1 Zn1 Cu1 As2'
_cell_volume   99.11052647
_cell_formula_units_Z   1
loop_
 _symmetry_equiv_pos_site_id
 _symmetry_equiv_pos_as_xyz
  1  'x, y, z'
loop_
 _atom_site_type_symbol
 _atom_site_label
 _atom_site_symmetry_multiplicity
 _atom_site_fract_x
 _atom_site_fract_y
 _atom_site_fract_z
 _atom_site_occupancy
  Tb  Tb0  1  0.66666700  0.33333300  0.98375800  1
  Zn  Zn0  1  0.33333300  0.66666700  0.37597900  1
  Cu  Cu0  1  0.00000000  0.00000000  0.63965700  1
  As  As0  1  0.00000000  0.00000000  0.25243600  1
  As  As1  1  0.33333300  0.66666700  0.74817000  1
loop_
_geom_bond_atom_site_label_1
_geom_bond_atom_site_label_2
_geom_bond_distance
_geom_bond_site_symmetry_2
As0 Zn0 2.522600 1_545
As0 Zn0 2.522604 1_445
As0 Zn0 2.522604 1_555
As0 Cu0 2.603613 1_555
As0 Tb0 2.989498 1_454
As0 Tb0 2.989501 1_444
As0 Tb0 2.989501 1_554
As1 Cu0 2.491150 1_565
As1 Cu0 2.491154 1_665
As1 Cu0 2.491154 1_555
As1 Zn0 2.502554 1_555
As1 Tb0 2.860545 1_455
As1 Tb0 2.860545 1_565
As1 Tb0 2.860550 1_555
