# generated using pymatgen
data_MgFe10(O4F)4
_symmetry_space_group_name_H-M   'P 1'
_cell_length_a   4.84420177
_cell_length_b   12.99808410
_cell_length_c   5.55400943
_cell_angle_alpha   103.42060039
_cell_angle_beta   90.10989304
_cell_angle_gamma   90.27838743
_symmetry_Int_Tables_number   1
_chemical_formula_structural   MgFe10(O4F)4
_chemical_formula_sum   'Mg1 Fe10 O16 F4'
_cell_volume   340.15470890
_cell_formula_units_Z   1
loop_
 _symmetry_equiv_pos_site_id
 _symmetry_equiv_pos_as_xyz
  1  'x, y, z'
loop_
 _atom_site_type_symbol
 _atom_site_label
 _atom_site_symmetry_multiplicity
 _atom_site_fract_x
 _atom_site_fract_y
 _atom_site_fract_z
 _atom_site_occupancy
  Mg  Mg0  1  0.49474400  0.70440400  0.40346600  1
  Fe  Fe0  1  0.49914300  0.99926700  0.48621100  1
  Fe  Fe1  1  0.47693000  0.40521400  0.31223400  1
  Fe  Fe2  1  0.47727900  0.20763700  0.88477100  1
  Fe  Fe3  1  0.52018400  0.59240700  0.74272300  1
  Fe  Fe4  1  0.53362200  0.81507000  0.05362600  1
  Fe  Fe5  1  0.97538100  0.38907900  0.80273800  1
  Fe  Fe6  1  0.99941000  0.81111300  0.61303300  1
  Fe  Fe7  1  0.01713300  0.19636900  0.40783600  1
  Fe  Fe8  1  0.97602900  0.58405400  0.23848800  1
  Fe  Fe9  1  0.03323800  0.00613100  0.00320000  1
  O  O0  1  0.80656600  0.25078100  0.70805100  1
  O  O1  1  0.83953700  0.87423500  0.92480900  1
  O  O2  1  0.82923200  0.66378000  0.55168200  1
  O  O3  1  0.83124700  0.06039200  0.31282500  1
  O  O4  1  0.79525100  0.45266800  0.12451400  1
  O  O5  1  0.67781500  0.45534100  0.62878000  1
  O  O6  1  0.66298400  0.66714100  0.06098000  1
  O  O7  1  0.66590400  0.85179200  0.40829000  1
  O  O8  1  0.29876500  0.34465100  0.99249000  1
  O  O9  1  0.33882700  0.74477700  0.75476800  1
  O  O10  1  0.32180600  0.13715100  0.57258600  1
  O  O11  1  0.33204800  0.94097500  0.16112800  1
  O  O12  1  0.32700700  0.55473600  0.39536300  1
  O  O13  1  0.18728800  0.14403000  0.07899900  1
  O  O14  1  0.19119900  0.94786400  0.67536000  1
  O  O15  1  0.18165800  0.33719400  0.48489200  1
  F  F0  1  0.68909000  0.06174300  0.82058800  1
  F  F1  1  0.68051000  0.25798000  0.21483300  1
  F  F2  1  0.16745100  0.54325500  0.89390200  1
  F  F3  1  0.15883600  0.74356300  0.26302600  1
loop_
_geom_bond_atom_site_label_1
_geom_bond_atom_site_label_2
_geom_bond_distance
_geom_bond_site_symmetry_2
Mg0 O2 1.945996 1_555
Mg0 O6 2.024640 1_555
Mg0 O9 2.046215 1_555
Mg0 O7 2.078215 1_555
Mg0 O12 2.095398 1_555
Fe0 O10 1.948752 1_565
Fe0 O11 1.960248 1_555
Fe0 O14 2.024223 1_555
Fe0 O7 2.036087 1_555
Fe0 O3 2.120244 1_565
Fe1 O8 1.963886 1_554
Fe1 O5 1.979383 1_555
Fe1 O12 2.028862 1_555
Fe1 O15 2.033153 1_555
Fe1 O4 2.034873 1_555
Fe2 O10 1.914115 1_555
Fe2 O8 1.949300 1_555
Fe2 O0 2.018687 1_555
Fe2 O13 2.056492 1_556
Fe3 O5 1.910329 1_555
Fe3 O6 1.933466 1_556
Fe3 O12 2.094647 1_555
Fe3 O9 2.157400 1_555
Fe3 O2 2.162699 1_555
Fe4 O1 1.883545 1_554
Fe4 O11 1.884775 1_555
Fe4 O9 1.939586 1_554
Fe4 O7 2.018499 1_555
Fe4 O6 2.034593 1_555
Fe5 O0 1.929237 1_555
Fe5 O4 1.991424 1_556
Fe5 O15 2.007572 1_655
Fe5 O5 2.036199 1_555
Fe5 O8 2.045277 1_655
Fe6 O1 1.903480 1_555
Fe6 O14 1.959489 1_655
Fe6 O2 2.035628 1_555
Fe6 O9 2.095336 1_655
Fe6 O7 2.112605 1_555
Fe7 O3 1.939825 1_455
Fe7 O0 1.946022 1_455
Fe7 O15 1.946740 1_555
Fe7 O13 1.977954 1_555
Fe7 O10 1.985147 1_555
Fe8 O4 1.888278 1_555
Fe8 O2 1.944355 1_555
Fe8 O12 1.987412 1_655
Fe8 O6 2.223140 1_555
Fe9 O13 1.892728 1_555
Fe9 O1 1.909315 1_444
Fe9 O14 1.960961 1_544
Fe9 O3 1.965262 1_455
Fe9 O11 1.983361 1_545
F0 Fe0 2.059413 1_545
F0 Fe2 2.117190 1_555
F0 Fe9 2.162408 1_656
F1 Fe2 2.046437 1_554
F1 Fe1 2.113644 1_555
F1 Fe7 2.203163 1_655
F2 Fe3 2.068037 1_555
F2 Fe8 2.084301 1_456
F2 Fe5 2.155716 1_455
F3 Mg0 1.924254 1_555
F3 Fe6 2.089573 1_455
F3 Fe8 2.225294 1_455
F3 Fe4 2.450742 1_555
