# generated using pymatgen
data_Al11O18
_symmetry_space_group_name_H-M   'P 1'
_cell_length_a   22.86009600
_cell_length_b   5.65138800
_cell_length_c   5.66263466
_cell_angle_alpha   60.12364367
_cell_angle_beta   90.00000000
_cell_angle_gamma   90.00000000
_symmetry_Int_Tables_number   1
_chemical_formula_structural   Al11O18
_chemical_formula_sum   'Al22 O36'
_cell_volume   634.33999863
_cell_formula_units_Z   2
loop_
 _symmetry_equiv_pos_site_id
 _symmetry_equiv_pos_as_xyz
  1  'x, y, z'
loop_
 _atom_site_type_symbol
 _atom_site_label
 _atom_site_symmetry_multiplicity
 _atom_site_fract_x
 _atom_site_fract_y
 _atom_site_fract_z
 _atom_site_occupancy
  Al  Al0  1  0.52466100  0.33329700  0.33366100  1
  Al  Al1  1  0.47533900  0.66670300  0.66633900  1
  Al  Al2  1  0.02466100  0.66670300  0.66633900  1
  Al  Al3  1  0.97533900  0.33329700  0.33366100  1
  Al  Al4  1  0.60677300  0.83264900  0.33384000  1
  Al  Al5  1  0.60686600  0.83288600  0.83248400  1
  Al  Al6  1  0.60699600  0.33472300  0.83205600  1
  Al  Al7  1  0.39322700  0.16735100  0.66616000  1
  Al  Al8  1  0.39313400  0.16711400  0.16751600  1
  Al  Al9  1  0.39300400  0.66527700  0.16794400  1
  Al  Al10  1  0.10677300  0.16735100  0.66616000  1
  Al  Al11  1  0.10686600  0.16711400  0.16751600  1
  Al  Al12  1  0.10699600  0.66527700  0.16794400  1
  Al  Al13  1  0.89322700  0.83264900  0.33384000  1
  Al  Al14  1  0.89313400  0.83288600  0.83248400  1
  Al  Al15  1  0.89300400  0.33472300  0.83205600  1
  Al  Al16  1  0.50000000  0.00000000  0.00000000  1
  Al  Al17  1  0.00000000  0.00000000  0.00000000  1
  Al  Al18  1  0.67539700  0.33195600  0.33166600  1
  Al  Al19  1  0.32460300  0.66804400  0.66833400  1
  Al  Al20  1  0.17539700  0.66804400  0.66833400  1
  Al  Al21  1  0.82460300  0.33195600  0.33166600  1
  O  O0  1  0.64044500  0.99999900  0.00041700  1
  O  O1  1  0.35955500  0.00000100  0.99958300  1
  O  O2  1  0.14044500  0.00000100  0.99958300  1
  O  O3  1  0.85955500  0.99999900  0.00041700  1
  O  O4  1  0.54953400  0.15781500  0.68479900  1
  O  O5  1  0.54935200  0.15728300  0.15755200  1
  O  O6  1  0.54943700  0.68508700  0.15782400  1
  O  O7  1  0.45046600  0.84218500  0.31520100  1
  O  O8  1  0.45064800  0.84271700  0.84244800  1
  O  O9  1  0.45056300  0.31491300  0.84217600  1
  O  O10  1  0.04953400  0.84218500  0.31520100  1
  O  O11  1  0.04935200  0.84271700  0.84244800  1
  O  O12  1  0.04943700  0.31491300  0.84217600  1
  O  O13  1  0.95046600  0.15781500  0.68479900  1
  O  O14  1  0.95064800  0.15728300  0.15755200  1
  O  O15  1  0.95056300  0.68508700  0.15782400  1
  O  O16  1  0.55562900  0.66638500  0.66623900  1
  O  O17  1  0.44437100  0.33361500  0.33376100  1
  O  O18  1  0.05562900  0.33361500  0.33376100  1
  O  O19  1  0.94437100  0.66638500  0.66623900  1
  O  O20  1  0.64445300  0.50127400  0.99803700  1
  O  O21  1  0.64517200  0.50125500  0.50085200  1
  O  O22  1  0.64447300  0.99665400  0.50188700  1
  O  O23  1  0.35554700  0.49872600  0.00196300  1
  O  O24  1  0.35482800  0.49874500  0.49914800  1
  O  O25  1  0.35552700  0.00334600  0.49811300  1
  O  O26  1  0.14445300  0.49872600  0.00196300  1
  O  O27  1  0.14517200  0.49874500  0.49914800  1
  O  O28  1  0.14447300  0.00334600  0.49811300  1
  O  O29  1  0.85554700  0.50127400  0.99803700  1
  O  O30  1  0.85482800  0.50125500  0.50085200  1
  O  O31  1  0.85552700  0.99665400  0.50188700  1
  O  O32  1  0.75000000  0.70940300  0.58945100  1
  O  O33  1  0.25000000  0.29059700  0.41054900  1
  O  O34  1  0.75000000  0.31805600  0.32540600  1
  O  O35  1  0.25000000  0.68194400  0.67459400  1
loop_
_geom_bond_atom_site_label_1
_geom_bond_atom_site_label_2
_geom_bond_distance
_geom_bond_site_symmetry_2
Al0 O5 1.814063 1_555
Al0 O6 1.814554 1_555
Al0 O4 1.815458 1_555
Al0 O17 1.835438 1_555
Al1 O8 1.814063 1_555
Al1 O9 1.814554 1_555
Al1 O7 1.815458 1_555
Al1 O16 1.835438 1_555
Al2 O11 1.814063 1_555
Al2 O12 1.814554 1_555
Al2 O10 1.815458 1_555
Al2 O19 1.835438 1_455
Al3 O14 1.814063 1_555
Al3 O15 1.814554 1_555
Al3 O13 1.815458 1_555
Al3 O18 1.835438 1_655
Al4 O0 1.809073 1_555
Al4 O22 1.840112 1_555
Al4 O21 1.846047 1_555
Al4 O16 2.007662 1_555
Al4 O6 2.057890 1_555
Al4 O5 2.064184 1_565
Al5 O0 1.811130 1_556
Al5 O22 1.836873 1_555
Al5 O20 1.838197 1_555
Al5 O16 2.006492 1_555
Al5 O4 2.063772 1_565
Al5 O6 2.069338 1_556
Al6 O0 1.809767 1_546
Al6 O20 1.839535 1_555
Al6 O21 1.845622 1_555
Al6 O16 2.005082 1_555
Al6 O4 2.061782 1_555
Al6 O5 2.073139 1_556
Al7 O1 1.809073 1_555
Al7 O25 1.840112 1_555
Al7 O24 1.846047 1_555
Al7 O17 2.007662 1_555
Al7 O9 2.057890 1_555
Al7 O8 2.064184 1_545
Al8 O1 1.811130 1_554
Al8 O25 1.836873 1_555
Al8 O23 1.838197 1_555
Al8 O17 2.006492 1_555
Al8 O7 2.063772 1_545
Al8 O9 2.069338 1_554
Al9 O1 1.809767 1_564
Al9 O23 1.839535 1_555
Al9 O24 1.845622 1_555
Al9 O17 2.005082 1_555
Al9 O7 2.061782 1_555
Al9 O8 2.073139 1_554
Al10 O2 1.809073 1_555
Al10 O28 1.840112 1_555
Al10 O27 1.846047 1_555
Al10 O18 2.007662 1_555
Al10 O12 2.057890 1_555
Al10 O11 2.064184 1_545
Al11 O2 1.811130 1_554
Al11 O28 1.836873 1_555
Al11 O26 1.838197 1_555
Al11 O18 2.006492 1_555
Al11 O10 2.063772 1_545
Al11 O12 2.069338 1_554
Al12 O2 1.809767 1_564
Al12 O26 1.839535 1_555
Al12 O27 1.845622 1_555
Al12 O18 2.005082 1_555
Al12 O10 2.061782 1_555
Al12 O11 2.073139 1_554
Al13 O3 1.809073 1_555
Al13 O31 1.840112 1_555
Al13 O30 1.846047 1_555
Al13 O19 2.007662 1_555
Al13 O15 2.057890 1_555
Al13 O14 2.064184 1_565
Al14 O3 1.811130 1_556
Al14 O31 1.836873 1_555
Al14 O29 1.838197 1_555
Al14 O19 2.006492 1_555
Al14 O13 2.063772 1_565
Al14 O15 2.069338 1_556
Al15 O3 1.809767 1_546
Al15 O29 1.839535 1_555
Al15 O30 1.845622 1_555
Al15 O19 2.005082 1_555
Al15 O13 2.061782 1_555
Al15 O14 2.073139 1_556
Al16 O5 1.910208 1_555
Al16 O8 1.910208 1_544
Al16 O6 1.912761 1_545
Al16 O9 1.912761 1_554
Al16 O7 1.917678 1_545
Al16 O4 1.917678 1_554
Al17 O11 1.910208 1_544
Al17 O14 1.910208 1_455
Al17 O12 1.912761 1_554
Al17 O15 1.912761 1_445
Al17 O10 1.917678 1_545
Al17 O13 1.917678 1_454
Al18 O34 1.708420 1_555
Al18 O20 1.784423 1_554
Al18 O22 1.788824 1_545
Al18 O21 1.795511 1_555
Al19 O35 1.708420 1_555
Al19 O23 1.784423 1_556
Al19 O25 1.788824 1_565
Al19 O24 1.795511 1_555
Al20 O35 1.708420 1_555
Al20 O26 1.784423 1_556
Al20 O28 1.788824 1_565
Al20 O27 1.795511 1_555
Al21 O34 1.708420 1_555
Al21 O29 1.784423 1_554
Al21 O31 1.788824 1_545
Al21 O30 1.795511 1_555
