# generated using pymatgen
data_Pr3(Al3Ru)4
_symmetry_space_group_name_H-M   'P 1'
_cell_length_a   8.87336303
_cell_length_b   8.87331704
_cell_length_c   9.67070893
_cell_angle_alpha   90.00005255
_cell_angle_beta   89.99999361
_cell_angle_gamma   119.99978366
_symmetry_Int_Tables_number   1
_chemical_formula_structural   Pr3(Al3Ru)4
_chemical_formula_sum   'Pr6 Al24 Ru8'
_cell_volume   659.42307357
_cell_formula_units_Z   2
loop_
 _symmetry_equiv_pos_site_id
 _symmetry_equiv_pos_as_xyz
  1  'x, y, z'
loop_
 _atom_site_type_symbol
 _atom_site_label
 _atom_site_symmetry_multiplicity
 _atom_site_fract_x
 _atom_site_fract_y
 _atom_site_fract_z
 _atom_site_occupancy
  Pr  Pr0  1  0.19272684  0.38543995  0.24999631  1
  Pr  Pr1  1  0.80727215  0.61455630  0.75000278  1
  Pr  Pr2  1  0.61455359  0.80727828  0.24999610  1
  Pr  Pr3  1  0.38544567  0.19272112  0.75000264  1
  Pr  Pr4  1  0.19272743  0.80729014  0.24999746  1
  Pr  Pr5  1  0.80727139  0.19271358  0.75000202  1
  Al  Al0  1  0.33333013  0.66666883  0.00113333  1
  Al  Al1  1  0.66667533  0.33333155  0.99886011  1
  Al  Al2  1  0.66666297  0.33333181  0.50112691  1
  Al  Al3  1  0.33333546  0.66666849  0.49887359  1
  Al  Al4  1  0.16253727  0.32507255  0.57497495  1
  Al  Al5  1  0.83746143  0.67492605  0.42502635  1
  Al  Al6  1  0.67492523  0.83746338  0.57497527  1
  Al  Al7  1  0.83746158  0.67492691  0.07497234  1
  Al  Al8  1  0.32507586  0.16253783  0.42502633  1
  Al  Al9  1  0.16253753  0.32507040  0.92502585  1
  Al  Al10  1  0.16254008  0.83746545  0.57497115  1
  Al  Al11  1  0.32507761  0.16253846  0.07497054  1
  Al  Al12  1  0.83746056  0.16253572  0.42502653  1
  Al  Al13  1  0.67492038  0.83746041  0.92503418  1
  Al  Al14  1  0.83746240  0.16253304  0.07497275  1
  Al  Al15  1  0.16253910  0.83746797  0.92502957  1
  Al  Al16  1  0.56283901  0.12568037  0.24998757  1
  Al  Al17  1  0.43715977  0.87432066  0.75001254  1
  Al  Al18  1  0.87431820  0.43715985  0.24998830  1
  Al  Al19  1  0.12568196  0.56284165  0.75001210  1
  Al  Al20  1  0.56283941  0.43715957  0.24998682  1
  Al  Al21  1  0.43715982  0.56284017  0.75001295  1
  Al  Al22  1  0.00000049  -0.00000010  0.24999821  1
  Al  Al23  1  -0.00000069  -0.00000065  0.75000219  1
  Ru  Ru0  1  0.50000003  0.00000485  -0.00000162  1
  Ru  Ru1  1  -0.00000135  0.50000039  -0.00000155  1
  Ru  Ru2  1  0.49999969  0.00000464  0.50000168  1
  Ru  Ru3  1  0.50000218  0.49999495  -0.00000193  1
  Ru  Ru4  1  -0.00000353  0.49999939  0.50000174  1
  Ru  Ru5  1  0.50000090  0.49999612  0.50000178  1
  Ru  Ru6  1  0.00000199  0.00000046  0.00000201  1
  Ru  Ru7  1  0.00000214  0.00000047  0.49999818  1
loop_
_geom_bond_atom_site_label_1
_geom_bond_atom_site_label_2
_geom_bond_distance
_geom_bond_site_symmetry_2
Pr0 Ru3 3.397204 1_555
Pr0 Ru5 3.397244 1_555
Pr0 Ru1 3.397266 1_555
Pr0 Ru4 3.397324 1_555
Pr1 Ru3 3.397146 1_556
Pr1 Ru5 3.397193 1_555
Pr1 Ru1 3.397219 1_656
Pr1 Ru4 3.397246 1_655
Pr2 Ru0 3.397219 1_565
Pr2 Ru3 3.397240 1_555
Pr2 Ru2 3.397271 1_565
Pr2 Ru5 3.397288 1_555
Pr3 Ru0 3.397150 1_556
Pr3 Ru3 3.397162 1_556
Pr3 Ru2 3.397183 1_555
Pr3 Ru5 3.397211 1_555
Pr4 Ru0 3.397192 1_565
Pr4 Ru2 3.397223 1_565
Pr4 Ru1 3.397278 1_555
Pr4 Ru4 3.397325 1_555
Pr5 Ru0 3.397162 1_556
Pr5 Ru2 3.397189 1_555
Pr5 Ru1 3.397245 1_656
Pr5 Ru4 3.397268 1_655
Al0 Ru1 2.561534 1_555
Al0 Ru0 2.561556 1_565
Al0 Ru3 2.561630 1_555
Al0 Pr2 3.234560 1_555
Al0 Pr4 3.234564 1_555
Al0 Pr0 3.234584 1_555
Al1 Ru1 2.561472 1_656
Al1 Ru0 2.561484 1_556
Al1 Ru3 2.561558 1_556
Al1 Pr5 3.234469 1_555
Al1 Pr1 3.234522 1_555
Al1 Pr3 3.234554 1_555
Al2 Ru5 2.561480 1_555
Al2 Ru2 2.561487 1_555
Al2 Ru4 2.561549 1_655
Al2 Pr3 3.234623 1_555
Al2 Pr1 3.234651 1_555
Al2 Pr5 3.234659 1_555
Al3 Ru2 2.561556 1_565
Al3 Ru5 2.561567 1_555
Al3 Ru4 2.561592 1_555
Al3 Pr2 3.234640 1_555
Al3 Pr4 3.234681 1_555
Al3 Pr0 3.234682 1_555
Al4 Ru7 2.601130 1_555
Al4 Ru5 2.693275 1_555
Al4 Ru4 2.693290 1_555
Al4 Pr0 3.176827 1_555
Al4 Pr3 3.237190 1_555
Al4 Pr5 3.237232 1_455
Al5 Ru7 2.601134 1_665
Al5 Ru4 2.693252 1_655
Al5 Ru5 2.693259 1_555
Al5 Pr1 3.176808 1_555
Al5 Pr2 3.237204 1_555
Al5 Pr4 3.237236 1_655
Al6 Ru7 2.601180 1_665
Al6 Ru2 2.693285 1_565
Al6 Ru5 2.693289 1_555
Al6 Pr2 3.176836 1_555
Al6 Pr5 3.237119 1_565
Al6 Pr1 3.237150 1_555
Al7 Ru6 2.601125 1_665
Al7 Ru3 2.693248 1_555
Al7 Ru1 2.693261 1_655
Al7 Pr1 3.176743 1_554
Al7 Pr2 3.237166 1_555
Al7 Pr4 3.237216 1_655
Al8 Ru7 2.601142 1_555
Al8 Ru2 2.693218 1_555
Al8 Ru5 2.693228 1_555
Al8 Pr3 3.176807 1_555
Al8 Pr4 3.237109 1_545
Al8 Pr0 3.237140 1_555
Al9 Ru6 2.601114 1_556
Al9 Ru3 2.693279 1_556
Al9 Ru1 2.693297 1_556
Al9 Pr0 3.176750 1_556
Al9 Pr3 3.237152 1_555
Al9 Pr5 3.237219 1_455
Al10 Ru7 2.601126 1_565
Al10 Ru2 2.693235 1_565
Al10 Ru4 2.693268 1_555
Al10 Pr4 3.176773 1_555
Al10 Pr3 3.237181 1_565
Al10 Pr1 3.237271 1_455
Al11 Ru6 2.601147 1_555
Al11 Ru0 2.693201 1_555
Al11 Ru3 2.693209 1_555
Al11 Pr3 3.176725 1_554
Al11 Pr4 3.237105 1_545
Al11 Pr0 3.237122 1_555
Al12 Ru7 2.601151 1_655
Al12 Ru2 2.693261 1_555
Al12 Ru4 2.693267 1_655
Al12 Pr5 3.176796 1_555
Al12 Pr2 3.237188 1_545
Al12 Pr0 3.237248 1_655
Al13 Ru6 2.601189 1_666
Al13 Ru0 2.693244 1_566
Al13 Ru3 2.693251 1_556
Al13 Pr2 3.176666 1_556
Al13 Pr5 3.237164 1_565
Al13 Pr1 3.237175 1_555
Al14 Ru6 2.601113 1_655
Al14 Ru0 2.693270 1_555
Al14 Ru1 2.693293 1_655
Al14 Pr5 3.176756 1_554
Al14 Pr2 3.237141 1_545
Al14 Pr0 3.237205 1_655
Al15 Ru6 2.601099 1_566
Al15 Ru0 2.693243 1_566
Al15 Ru1 2.693280 1_556
Al15 Pr4 3.176722 1_556
Al15 Pr3 3.237147 1_565
Al15 Pr1 3.237242 1_455
Al16 Ru0 2.603333 1_555
Al16 Ru2 2.603559 1_555
Al16 Pr4 3.080416 1_545
Al16 Pr2 3.080464 1_545
Al17 Ru0 2.603327 1_566
Al17 Ru2 2.603553 1_565
Al17 Pr5 3.080426 1_565
Al17 Pr3 3.080447 1_565
Al18 Ru1 2.603356 1_655
Al18 Ru4 2.603561 1_655
Al18 Pr0 3.080563 1_655
Al18 Pr4 3.080577 1_655
Al19 Ru1 2.603333 1_556
Al19 Ru4 2.603554 1_555
Al19 Pr1 3.080545 1_455
Al19 Pr5 3.080570 1_455
Al20 Ru3 2.603322 1_555
Al20 Ru5 2.603563 1_555
Al20 Pr0 3.080429 1_555
Al20 Pr2 3.080484 1_555
Al21 Ru3 2.603332 1_556
Al21 Ru5 2.603558 1_555
Al21 Pr1 3.080439 1_555
Al21 Pr3 3.080487 1_555
Al22 Ru6 2.417640 1_555
Al22 Ru7 2.417677 1_555
Al22 Pr4 2.961900 1_545
Al22 Pr0 2.961927 1_555
Al22 Pr2 2.961995 1_445
Al23 Ru6 2.417675 1_556
Al23 Ru7 2.417716 1_555
Al23 Pr5 2.961942 1_455
Al23 Pr1 2.961951 1_445
Al23 Pr3 2.961991 1_555
