# generated using pymatgen
data_NiH15IO12
_symmetry_space_group_name_H-M   'P 1'
_cell_length_a   9.82884100
_cell_length_b   5.18677600
_cell_length_c   10.65667302
_cell_angle_alpha   63.91982665
_cell_angle_beta   90.00000000
_cell_angle_gamma   90.00000000
_symmetry_Int_Tables_number   1
_chemical_formula_structural   NiH15IO12
_chemical_formula_sum   'Ni2 H30 I2 O24'
_cell_volume   487.96054336
_cell_formula_units_Z   2
loop_
 _symmetry_equiv_pos_site_id
 _symmetry_equiv_pos_as_xyz
  1  'x, y, z'
loop_
 _atom_site_type_symbol
 _atom_site_label
 _atom_site_symmetry_multiplicity
 _atom_site_fract_x
 _atom_site_fract_y
 _atom_site_fract_z
 _atom_site_occupancy
  Ni  Ni0  1  0.28650100  0.03934000  0.25205200  1
  Ni  Ni1  1  0.71349900  0.03934000  0.75205200  1
  H  H0  1  0.12988900  0.99771900  0.53156700  1
  H  H1  1  0.87011100  0.99771900  0.03156700  1
  H  H2  1  0.31251300  0.50304300  0.66714700  1
  H  H3  1  0.68748700  0.50304300  0.16714700  1
  H  H4  1  0.11724600  0.51643600  0.82239100  1
  H  H5  1  0.88275400  0.51643600  0.32239100  1
  H  H6  1  0.07110000  0.71797100  0.39238100  1
  H  H7  1  0.92890000  0.71797100  0.89238100  1
  H  H8  1  0.20276600  0.57414000  0.48180900  1
  H  H9  1  0.79723400  0.57414000  0.98180900  1
  H  H10  1  0.05539600  0.29226500  0.25834400  1
  H  H11  1  0.94460400  0.29226500  0.75834400  1
  H  H12  1  0.16441100  0.54982100  0.18677400  1
  H  H13  1  0.83558900  0.54982100  0.68677400  1
  H  H14  1  0.49441300  0.34957500  0.09837000  1
  H  H15  1  0.50558700  0.34957500  0.59837000  1
  H  H16  1  0.36263100  0.52944400  0.02069300  1
  H  H17  1  0.63736900  0.52944400  0.52069300  1
  H  H18  1  0.51349600  0.75930600  0.23482400  1
  H  H19  1  0.48650400  0.75930600  0.73482400  1
  H  H20  1  0.40490300  0.51537900  0.32163800  1
  H  H21  1  0.59509700  0.51537900  0.82163800  1
  H  H22  1  0.50695900  0.05160600  0.39842700  1
  H  H23  1  0.49304100  0.05160600  0.89842700  1
  H  H24  1  0.37659400  0.02056300  0.49375800  1
  H  H25  1  0.62340600  0.02056300  0.99375800  1
  H  H26  1  0.07861400  0.03237700  0.09111500  1
  H  H27  1  0.92138600  0.03237700  0.59111500  1
  H  H28  1  0.22111800  0.98399200  0.02663400  1
  H  H29  1  0.77888200  0.98399200  0.52663400  1
  I  I0  1  0.21801200  0.00541700  0.75009000  1
  I  I1  1  0.78198800  0.00541700  0.25009000  1
  O  O0  1  0.09801600  0.10871700  0.58145300  1
  O  O1  1  0.90198400  0.10871700  0.08145300  1
  O  O2  1  0.10187100  0.22746700  0.79630600  1
  O  O3  1  0.89812900  0.22746700  0.29630600  1
  O  O4  1  0.32738000  0.91073500  0.90534500  1
  O  O5  1  0.67262000  0.91073500  0.40534500  1
  O  O6  1  0.32625800  0.81458100  0.67284800  1
  O  O7  1  0.67374200  0.81458100  0.17284800  1
  O  O8  1  0.32687600  0.35214800  0.63226000  1
  O  O9  1  0.67312400  0.35214800  0.13226000  1
  O  O10  1  0.09951800  0.67566300  0.85096100  1
  O  O11  1  0.90048200  0.67566300  0.35096100  1
  O  O12  1  0.16167900  0.76136900  0.42067900  1
  O  O13  1  0.83832100  0.76136900  0.92067900  1
  O  O14  1  0.15515100  0.34326600  0.24864600  1
  O  O15  1  0.84484900  0.34326600  0.74864600  1
  O  O16  1  0.39643700  0.33272900  0.08105700  1
  O  O17  1  0.60356300  0.33272900  0.58105700  1
  O  O18  1  0.41513500  0.72288600  0.25958400  1
  O  O19  1  0.58486500  0.72288600  0.75958400  1
  O  O20  1  0.41055100  0.11698400  0.39574000  1
  O  O21  1  0.58944900  0.11698400  0.89574000  1
  O  O22  1  0.17044200  0.94256100  0.11440900  1
  O  O23  1  0.82955800  0.94256100  0.61440900  1
loop_
_geom_bond_atom_site_label_1
_geom_bond_atom_site_label_2
_geom_bond_distance
_geom_bond_site_symmetry_2
Ni0 O14 2.025527 1_555
Ni0 O18 2.045295 1_545
Ni0 O22 2.086187 1_545
Ni0 O16 2.089418 1_555
Ni0 O12 2.129569 1_545
Ni0 O20 2.129715 1_555
Ni1 O15 2.025527 1_555
Ni1 O19 2.045295 1_545
Ni1 O23 2.086187 1_545
Ni1 O17 2.089418 1_555
Ni1 O13 2.129569 1_545
Ni1 O21 2.129715 1_555
H0 O0 0.990618 1_565
H1 O1 0.990618 1_565
H2 O8 1.013186 1_555
H2 O6 1.649036 1_555
H3 O9 1.013186 1_555
H3 O7 1.649036 1_555
H4 O10 1.013022 1_555
H4 O2 1.647087 1_555
H5 O11 1.013022 1_555
H5 O3 1.647087 1_555
H6 O12 0.996947 1_555
H7 O13 0.996947 1_555
H8 O12 0.987059 1_555
H9 O13 0.987059 1_555
H10 O14 1.008936 1_555
H10 O3 1.595750 1_455
H11 O15 1.008936 1_555
H11 O2 1.595750 1_655
H12 O14 0.984744 1_555
H13 O15 0.984744 1_555
H14 O16 0.991564 1_555
H15 O17 0.991564 1_555
H16 O16 0.994063 1_555
H17 O17 0.994063 1_555
H18 O18 0.998065 1_555
H18 O7 1.683044 1_555
H19 O19 0.998065 1_555
H19 O6 1.683044 1_555
H20 O18 0.989960 1_555
H21 O19 0.989960 1_555
H22 O20 1.002585 1_555
H23 O21 1.002585 1_555
H24 O20 0.996628 1_555
H25 O21 0.996628 1_555
H26 O22 0.995783 1_545
H27 O23 0.995783 1_545
H28 O22 0.996235 1_555
H29 O23 0.996235 1_555
I0 O2 1.835993 1_555
I0 O4 1.849238 1_545
I0 O6 1.872340 1_545
I0 O10 1.954666 1_545
I0 O8 1.992580 1_555
I0 O0 2.015215 1_555
I1 O3 1.835993 1_555
I1 O5 1.849238 1_545
I1 O7 1.872340 1_545
I1 O11 1.954666 1_545
I1 O9 1.992580 1_555
I1 O1 2.015215 1_555
