# generated using pymatgen
data_Li9Co7O16
_symmetry_space_group_name_H-M   'P 1'
_cell_length_a   2.99685200
_cell_length_b   4.97781600
_cell_length_c   19.29472579
_cell_angle_alpha   87.74024469
_cell_angle_beta   90.00000000
_cell_angle_gamma   90.00000000
_symmetry_Int_Tables_number   1
_chemical_formula_structural   Li9Co7O16
_chemical_formula_sum   'Li9 Co7 O16'
_cell_volume   287.61059460
_cell_formula_units_Z   1
loop_
 _symmetry_equiv_pos_site_id
 _symmetry_equiv_pos_as_xyz
  1  'x, y, z'
loop_
 _atom_site_type_symbol
 _atom_site_label
 _atom_site_symmetry_multiplicity
 _atom_site_fract_x
 _atom_site_fract_y
 _atom_site_fract_z
 _atom_site_occupancy
  Li  Li0  1  0.00000000  0.88103700  0.87783300  1
  Li  Li1  1  0.50000000  0.62458900  0.12174300  1
  Li  Li2  1  0.00000000  0.37436800  0.37509200  1
  Li  Li3  1  0.50000000  0.12547400  0.62496800  1
  Li  Li4  1  0.50000000  0.37541100  0.87825700  1
  Li  Li5  1  0.00000000  0.11896300  0.12216700  1
  Li  Li6  1  0.50000000  0.87452600  0.37503200  1
  Li  Li7  1  0.00000000  0.62563200  0.62490800  1
  Li  Li8  1  0.50000000  0.00000000  0.00000000  1
  Co  Co0  1  0.00000000  0.25055000  0.75057300  1
  Co  Co1  1  0.00000000  0.50000000  0.00000000  1
  Co  Co2  1  0.00000000  0.74945000  0.24942700  1
  Co  Co3  1  0.50000000  0.50000000  0.50000000  1
  Co  Co4  1  0.50000000  0.75036100  0.75028200  1
  Co  Co5  1  0.50000000  0.24963900  0.24971800  1
  Co  Co6  1  0.00000000  0.00000000  0.50000000  1
  O  O0  1  0.50000000  0.05358500  0.80936200  1
  O  O1  1  0.00000000  0.77573300  0.05555200  1
  O  O2  1  0.50000000  0.55445300  0.30744000  1
  O  O3  1  0.00000000  0.31153600  0.55712600  1
  O  O4  1  0.00000000  0.55647500  0.80762100  1
  O  O5  1  0.50000000  0.33603100  0.05318400  1
  O  O6  1  0.00000000  0.05328300  0.30725200  1
  O  O7  1  0.50000000  0.81156300  0.55722000  1
  O  O8  1  0.50000000  0.66396900  0.94681600  1
  O  O9  1  0.00000000  0.44352500  0.19237900  1
  O  O10  1  0.50000000  0.18843700  0.44278000  1
  O  O11  1  0.00000000  0.94671700  0.69274800  1
  O  O12  1  0.00000000  0.22426700  0.94444800  1
  O  O13  1  0.50000000  0.94641500  0.19063800  1
  O  O14  1  0.00000000  0.68846400  0.44287400  1
  O  O15  1  0.50000000  0.44554700  0.69256000  1
loop_
_geom_bond_atom_site_label_1
_geom_bond_atom_site_label_2
_geom_bond_distance
_geom_bond_site_symmetry_2
Li0 O4 2.148969 1_555
Li0 O0 2.153812 1_465
Li0 O0 2.153812 1_565
Li0 O12 2.178145 1_565
Li0 O8 2.251884 1_455
Li0 O8 2.251884 1_555
Li1 O5 1.990710 1_555
Li1 O1 2.089651 1_655
Li1 O1 2.089651 1_555
Li1 O13 2.121644 1_555
Li1 O9 2.195054 1_655
Li1 O9 2.195054 1_555
Li2 O14 2.077560 1_555
Li2 O6 2.105449 1_555
Li2 O2 2.158812 1_555
Li2 O2 2.158812 1_455
Li2 O10 2.170773 1_455
Li2 O10 2.170773 1_555
Li3 O7 2.076412 1_545
Li3 O15 2.098383 1_555
Li3 O11 2.157689 1_645
Li3 O11 2.157689 1_545
Li3 O3 2.172775 1_555
Li3 O3 2.172775 1_655
Li4 O8 1.990710 1_555
Li4 O12 2.089651 1_555
Li4 O12 2.089651 1_655
Li4 O0 2.121644 1_555
Li4 O4 2.195054 1_655
Li4 O4 2.195054 1_555
Li5 O9 2.148969 1_555
Li5 O13 2.153812 1_445
Li5 O13 2.153812 1_545
Li5 O1 2.178145 1_545
Li5 O5 2.251884 1_455
Li5 O5 2.251884 1_555
Li6 O10 2.076412 1_565
Li6 O2 2.098383 1_555
Li6 O6 2.157689 1_565
Li6 O6 2.157689 1_665
Li6 O14 2.172775 1_555
Li6 O14 2.172775 1_655
Li7 O3 2.077560 1_555
Li7 O11 2.105449 1_555
Li7 O15 2.158812 1_455
Li7 O15 2.158812 1_555
Li7 O7 2.170773 1_455
Li7 O7 2.170773 1_555
Li8 O5 1.996576 1_555
Li8 O8 1.996576 1_544
Li8 O1 2.132150 1_645
Li8 O1 2.132150 1_545
Li8 O12 2.132150 1_554
Li8 O12 2.132150 1_654
Co0 O4 1.913850 1_555
Co0 O11 1.914504 1_545
Co0 O15 2.086795 1_455
Co0 O15 2.086795 1_555
Co0 O0 2.098939 1_455
Co0 O0 2.098939 1_555
Co1 O1 1.774483 1_555
Co1 O12 1.774483 1_554
Co1 O5 1.974450 1_555
Co1 O5 1.974450 1_455
Co1 O8 1.974450 1_554
Co1 O8 1.974450 1_454
Co2 O9 1.913850 1_555
Co2 O6 1.914504 1_565
Co2 O2 2.086795 1_555
Co2 O2 2.086795 1_455
Co2 O13 2.098939 1_555
Co2 O13 2.098939 1_455
Co3 O7 1.938877 1_555
Co3 O10 1.938877 1_555
Co3 O14 2.063675 1_655
Co3 O3 2.063675 1_655
Co3 O3 2.063675 1_555
Co3 O14 2.063675 1_555
Co4 O15 1.917259 1_555
Co4 O0 1.927019 1_565
Co4 O4 2.077628 1_555
Co4 O4 2.077628 1_655
Co4 O11 2.085042 1_555
Co4 O11 2.085042 1_655
Co5 O2 1.917259 1_555
Co5 O13 1.927019 1_545
Co5 O9 2.077628 1_555
Co5 O9 2.077628 1_655
Co5 O6 2.085042 1_655
Co5 O6 2.085042 1_555
Co6 O3 1.937677 1_555
Co6 O14 1.937677 1_545
Co6 O10 2.064553 1_555
Co6 O10 2.064553 1_455
Co6 O7 2.064553 1_545
Co6 O7 2.064553 1_445
