# generated using pymatgen
data_Ba3LiTi3O8
_symmetry_space_group_name_H-M   'P 1'
_cell_length_a   5.96076165
_cell_length_b   5.96077560
_cell_length_c   7.26521562
_cell_angle_alpha   85.33159165
_cell_angle_beta   94.66842073
_cell_angle_gamma   123.26453180
_symmetry_Int_Tables_number   1
_chemical_formula_structural   Ba3LiTi3O8
_chemical_formula_sum   'Ba3 Li1 Ti3 O8'
_cell_volume   214.91656645
_cell_formula_units_Z   1
loop_
 _symmetry_equiv_pos_site_id
 _symmetry_equiv_pos_as_xyz
  1  'x, y, z'
loop_
 _atom_site_type_symbol
 _atom_site_label
 _atom_site_symmetry_multiplicity
 _atom_site_fract_x
 _atom_site_fract_y
 _atom_site_fract_z
 _atom_site_occupancy
  Ba  Ba0  1  0.00293700  0.99706300  0.00321000  1
  Ba  Ba1  1  0.29869500  0.70130300  0.69256100  1
  Ba  Ba2  1  0.69862900  0.30137000  0.29532900  1
  Li  Li0  1  0.50126700  0.49873300  0.49873300  1
  Ti  Ti0  1  0.97612100  0.02388000  0.52756500  1
  Ti  Ti1  1  0.35797900  0.64202200  0.14613900  1
  Ti  Ti2  1  0.66326400  0.33673700  0.83523300  1
  O  O0  1  0.00899700  0.49823100  0.00075500  1
  O  O1  1  0.17714000  0.33155900  0.33595100  1
  O  O2  1  0.50176800  0.99100200  0.00075600  1
  O  O3  1  0.66844000  0.82286000  0.33595100  1
  O  O4  1  0.32416900  0.17755200  0.66619300  1
  O  O5  1  0.50504100  0.49495700  0.99990800  1
  O  O6  1  0.82244800  0.67583300  0.66619200  1
  O  O7  1  0.82643500  0.17356800  0.66222400  1
loop_
_geom_bond_atom_site_label_1
_geom_bond_atom_site_label_2
_geom_bond_distance
_geom_bond_site_symmetry_2
Ba0 O5 2.832332 1_564
Ba0 O5 2.832343 1_454
Ba0 O7 2.952418 1_464
Ba0 O2 2.966296 1_455
Ba0 O0 2.966300 1_565
Ba0 O4 2.982201 1_564
Ba0 O6 2.982203 1_454
Ba0 O2 2.994893 1_555
Ba0 O0 2.994903 1_555
Ba0 O1 3.000407 1_565
Ba0 O3 3.000408 1_455
Ba1 O0 2.712168 1_556
Ba1 O2 2.712178 1_556
Ba1 O6 2.749894 1_455
Ba1 O4 2.749901 1_565
Ba1 O7 2.857622 1_455
Ba1 O7 2.857648 1_565
Ba1 O5 2.962637 1_555
Ba2 O2 2.689604 1_545
Ba2 O0 2.689608 1_655
Ba2 O1 2.750200 1_655
Ba2 O3 2.750201 1_545
Ba2 O5 2.814984 1_554
Ba2 O7 2.870808 1_555
Li0 O1 1.957626 1_555
Li0 O3 1.957630 1_555
Li0 O6 1.967906 1_555
Li0 O4 1.967912 1_555
O0 Ti1 2.002824 1_555
O0 Ti2 2.056350 1_454
O1 Ti1 2.031400 1_555
O1 Ti0 2.045117 1_455
O2 Ti1 2.002817 1_555
O2 Ti2 2.056366 1_564
O3 Ti1 2.031390 1_555
O3 Ti0 2.045121 1_565
O4 Ti0 1.970496 1_455
O4 Ti2 2.043469 1_555
O5 Ti1 1.952378 1_556
O5 Ti2 2.133879 1_555
O6 Ti0 1.970492 1_565
O6 Ti2 2.043481 1_555
O7 Ti0 1.925322 1_555
O7 Ti2 2.215322 1_555
