# generated using pymatgen
data_MgTa3
_symmetry_space_group_name_H-M   'P 1'
_cell_length_a   5.05856921
_cell_length_b   5.05856921
_cell_length_c   5.05856921
_cell_angle_alpha   129.94919852
_cell_angle_beta   129.94919852
_cell_angle_gamma   73.48799225
_symmetry_Int_Tables_number   1
_chemical_formula_structural   MgTa3
_chemical_formula_sum   'Mg1 Ta3'
_cell_volume   74.24530430
_cell_formula_units_Z   1
loop_
 _symmetry_equiv_pos_site_id
 _symmetry_equiv_pos_as_xyz
  1  'x, y, z'
loop_
 _atom_site_type_symbol
 _atom_site_label
 _atom_site_symmetry_multiplicity
 _atom_site_fract_x
 _atom_site_fract_y
 _atom_site_fract_z
 _atom_site_occupancy
  Mg  Mg0  1  0.00000000  0.00000000  0.00000000  1
  Ta  Ta0  1  0.50000000  0.50000000  0.00000000  1
  Ta  Ta1  1  0.75000000  0.25000000  0.50000000  1
  Ta  Ta2  1  0.25000000  0.75000000  0.50000000  1
loop_
_geom_bond_atom_site_label_1
_geom_bond_atom_site_label_2
_geom_bond_distance
_geom_bond_site_symmetry_2
Mg0 Ta1 2.947340 1_555
Mg0 Ta2 2.947340 1_444
Mg0 Ta2 2.947340 1_545
Mg0 Ta2 2.947340 1_555
Mg0 Ta2 2.947340 1_544
Mg0 Ta1 2.947340 1_455
Mg0 Ta1 2.947340 1_454
Mg0 Ta1 2.947340 1_444
Mg0 Ta0 3.026242 1_545
Mg0 Ta0 3.026242 1_556
Mg0 Ta0 3.026242 1_444
Mg0 Ta0 3.026242 1_455
Ta0 Ta1 2.947340 1_565
Ta0 Ta2 2.947340 1_555
Ta0 Ta1 2.947340 1_554
Ta0 Ta2 2.947340 1_655
Ta0 Ta2 2.947340 1_544
Ta0 Ta1 2.947340 1_555
Ta0 Ta1 2.947340 1_454
Ta0 Ta2 2.947340 1_554
Ta1 Ta2 3.026242 1_544
Ta1 Ta2 3.026242 1_656
Ta1 Ta2 3.026242 1_645
Ta1 Ta2 3.026242 1_555
