# generated using pymatgen
data_CaYb3(InGe2)2
_symmetry_space_group_name_H-M   'P 1'
_cell_length_a   7.25763565
_cell_length_b   7.25763565
_cell_length_c   4.49861000
_cell_angle_alpha   90.00000000
_cell_angle_beta   90.00000000
_cell_angle_gamma   90.20083977
_symmetry_Int_Tables_number   1
_chemical_formula_structural   CaYb3(InGe2)2
_chemical_formula_sum   'Ca1 Yb3 In2 Ge4'
_cell_volume   236.95506678
_cell_formula_units_Z   1
loop_
 _symmetry_equiv_pos_site_id
 _symmetry_equiv_pos_as_xyz
  1  'x, y, z'
loop_
 _atom_site_type_symbol
 _atom_site_label
 _atom_site_symmetry_multiplicity
 _atom_site_fract_x
 _atom_site_fract_y
 _atom_site_fract_z
 _atom_site_occupancy
  Ca  Ca0  1  0.82595900  0.17404100  0.00000000  1
  Yb  Yb0  1  0.17333000  0.82667000  0.00000000  1
  Yb  Yb1  1  0.67244800  0.67272800  0.00000000  1
  Yb  Yb2  1  0.32727200  0.32755200  0.00000000  1
  In  In0  1  0.49949200  0.99967600  0.50000000  1
  In  In1  1  0.00032400  0.50050800  0.50000000  1
  Ge  Ge0  1  0.37575600  0.62424400  0.50000000  1
  Ge  Ge1  1  0.62267400  0.37732600  0.50000000  1
  Ge  Ge2  1  0.12530100  0.12255700  0.50000000  1
  Ge  Ge3  1  0.87744300  0.87469900  0.50000000  1
loop_
_geom_bond_atom_site_label_1
_geom_bond_atom_site_label_2
_geom_bond_distance
_geom_bond_site_symmetry_2
Ca0 Ge1 3.070514 1_555
Ca0 Ge1 3.070514 1_554
Ca0 Ge2 3.150318 1_655
Ca0 Ge2 3.150318 1_654
Ca0 Ge3 3.150318 1_544
Ca0 Ge3 3.150318 1_545
Ca0 In1 3.500534 1_654
Ca0 In1 3.500534 1_655
Ca0 In0 3.500534 1_544
Ca0 In0 3.500534 1_545
In0 Yb0 3.495508 1_555
In0 Yb0 3.495508 1_556
In0 Yb1 3.505199 1_556
In0 Yb1 3.505199 1_555
In0 Yb2 3.507851 1_565
In0 Yb2 3.507851 1_566
In1 Yb0 3.495508 1_555
In1 Yb0 3.495508 1_556
In1 Yb2 3.505199 1_555
In1 Yb2 3.505199 1_556
In1 Yb1 3.507851 1_455
In1 Yb1 3.507851 1_456
Ge0 Ge1 2.538766 1_555
Ge0 In0 2.865931 1_555
Ge0 In1 2.865931 1_555
Ge0 Yb0 3.064509 1_555
Ge0 Yb0 3.064509 1_556
Ge0 Yb2 3.132811 1_555
Ge0 Yb2 3.132811 1_556
Ge0 Yb1 3.132811 1_556
Ge0 Yb1 3.132811 1_555
Ge1 In0 2.879985 1_545
Ge1 In1 2.879985 1_655
Ge1 Yb2 3.127432 1_555
Ge1 Yb2 3.127432 1_556
Ge1 Yb1 3.127432 1_556
Ge1 Yb1 3.127432 1_555
Ge2 Ge3 2.539514 1_445
Ge2 In0 2.861396 1_545
Ge2 In1 2.892123 1_555
Ge2 Yb2 3.066958 1_556
Ge2 Yb2 3.066958 1_555
Ge2 Yb0 3.130116 1_546
Ge2 Yb0 3.130116 1_545
Ge3 In1 2.861396 1_655
Ge3 In0 2.892123 1_555
Ge3 Yb1 3.066958 1_556
Ge3 Yb1 3.066958 1_555
Ge3 Yb0 3.130116 1_655
Ge3 Yb0 3.130116 1_656
