# generated using pymatgen
data_K2Zr(H2N)6
_symmetry_space_group_name_H-M   'P 1'
_cell_length_a   6.89229873
_cell_length_b   6.89229900
_cell_length_c   12.12263571
_cell_angle_alpha   73.48454867
_cell_angle_beta   73.48454950
_cell_angle_gamma   60.00000350
_symmetry_Int_Tables_number   1
_chemical_formula_structural   K2Zr(H2N)6
_chemical_formula_sum   'K4 Zr2 H24 N12'
_cell_volume   471.08519675
_cell_formula_units_Z   2
loop_
 _symmetry_equiv_pos_site_id
 _symmetry_equiv_pos_as_xyz
  1  'x, y, z'
loop_
 _atom_site_type_symbol
 _atom_site_label
 _atom_site_symmetry_multiplicity
 _atom_site_fract_x
 _atom_site_fract_y
 _atom_site_fract_z
 _atom_site_occupancy
  K  K0  1  0.63432100  0.63432100  0.09703800  1
  K  K1  1  0.13432100  0.13432100  0.59703800  1
  K  K2  1  0.36567900  0.36567900  0.90296200  1
  K  K3  1  0.86567900  0.86567900  0.40296200  1
  Zr  Zr0  1  0.75000000  0.75000000  0.75000000  1
  Zr  Zr1  1  0.25000000  0.25000000  0.25000000  1
  H  H0  1  0.05713500  0.28007500  0.84123900  1
  H  H1  1  0.82155100  0.05713500  0.84123900  1
  H  H2  1  0.28007500  0.82155100  0.84123900  1
  H  H3  1  0.78007500  0.55713500  0.34123900  1
  H  H4  1  0.32155100  0.78007500  0.34123900  1
  H  H5  1  0.55713500  0.32155100  0.34123900  1
  H  H6  1  0.94286500  0.71992500  0.15876100  1
  H  H7  1  0.17844900  0.94286500  0.15876100  1
  H  H8  1  0.71992500  0.17844900  0.15876100  1
  H  H9  1  0.21992500  0.44286500  0.65876100  1
  H  H10  1  0.67844900  0.21992500  0.65876100  1
  H  H11  1  0.44286500  0.67844900  0.65876100  1
  H  H12  1  0.81113200  0.34922100  0.92662400  1
  H  H13  1  0.91302400  0.81113200  0.92662400  1
  H  H14  1  0.34922100  0.91302400  0.92662400  1
  H  H15  1  0.84922100  0.31113200  0.42662400  1
  H  H16  1  0.41302400  0.84922100  0.42662400  1
  H  H17  1  0.31113200  0.41302400  0.42662400  1
  H  H18  1  0.18886800  0.65077900  0.07337600  1
  H  H19  1  0.08697600  0.18886800  0.07337600  1
  H  H20  1  0.65077900  0.08697600  0.07337600  1
  H  H21  1  0.15077900  0.68886800  0.57337600  1
  H  H22  1  0.58697600  0.15077900  0.57337600  1
  H  H23  1  0.68886800  0.58697600  0.57337600  1
  N  N0  1  0.90759000  0.41644700  0.86447600  1
  N  N1  1  0.81148600  0.90759000  0.86447600  1
  N  N2  1  0.41644700  0.81148600  0.86447600  1
  N  N3  1  0.91644700  0.40759000  0.36447600  1
  N  N4  1  0.31148600  0.91644700  0.36447600  1
  N  N5  1  0.40759000  0.31148600  0.36447600  1
  N  N6  1  0.09241000  0.58355300  0.13552400  1
  N  N7  1  0.18851400  0.09241000  0.13552400  1
  N  N8  1  0.58355300  0.18851400  0.13552400  1
  N  N9  1  0.08355300  0.59241000  0.63552400  1
  N  N10  1  0.68851400  0.08355300  0.63552400  1
  N  N11  1  0.59241000  0.68851400  0.63552400  1
loop_
_geom_bond_atom_site_label_1
_geom_bond_atom_site_label_2
_geom_bond_distance
_geom_bond_site_symmetry_2
H0 N0 1.020703 1_455
H0 K2 2.800122 1_555
H1 N1 1.020706 1_545
H1 K2 2.800127 1_555
H2 N2 1.020699 1_555
H2 K2 2.800129 1_555
H3 N3 1.020703 1_555
H3 K3 2.800122 1_555
H4 N4 1.020699 1_555
H4 K3 2.800128 1_455
H5 N5 1.020706 1_555
H5 K3 2.800127 1_545
H6 N6 1.020703 1_655
H6 K0 2.800122 1_555
H7 N7 1.020706 1_565
H7 K0 2.800127 1_555
H8 N8 1.020699 1_555
H8 K0 2.800129 1_555
H9 N9 1.020703 1_555
H9 K1 2.800122 1_555
H10 N10 1.020699 1_555
H10 K1 2.800128 1_655
H11 N11 1.020706 1_555
H11 K1 2.800127 1_565
H12 N0 1.024243 1_555
H12 K0 2.845365 1_556
H13 N1 1.024251 1_555
H13 K0 2.845365 1_556
H14 N2 1.024253 1_555
H14 K0 2.845365 1_556
H15 N3 1.024243 1_555
H15 K1 2.845365 1_655
H16 N4 1.024253 1_555
H16 K1 2.845365 1_565
H17 N5 1.024251 1_555
H17 K1 2.845365 1_555
H18 N6 1.024243 1_555
H18 K2 2.845365 1_554
H19 N7 1.024251 1_555
H19 K2 2.845365 1_554
H20 N8 1.024253 1_555
H20 K2 2.845365 1_554
H21 N9 1.024243 1_555
H21 K3 2.845365 1_455
H22 N10 1.024253 1_555
H22 K3 2.845365 1_545
H23 N11 1.024251 1_555
H23 K3 2.845365 1_555
N0 Zr0 2.221899 1_555
N1 Zr0 2.221895 1_555
N2 Zr0 2.221900 1_555
N3 Zr1 2.221899 1_655
N4 Zr1 2.221900 1_565
N5 Zr1 2.221895 1_555
N6 Zr1 2.221899 1_555
N7 Zr1 2.221895 1_555
N8 Zr1 2.221900 1_555
N9 Zr0 2.221899 1_455
N10 Zr0 2.221900 1_545
N11 Zr0 2.221895 1_555
