# generated using pymatgen
data_BaWF7
_symmetry_space_group_name_H-M   'P 1'
_cell_length_a   9.90261087
_cell_length_b   5.42228774
_cell_length_c   10.23334147
_cell_angle_alpha   88.58869168
_cell_angle_beta   90.00000000
_cell_angle_gamma   90.00000000
_symmetry_Int_Tables_number   1
_chemical_formula_structural   BaWF7
_chemical_formula_sum   'Ba4 W4 F28'
_cell_volume   549.31059496
_cell_formula_units_Z   4
loop_
 _symmetry_equiv_pos_site_id
 _symmetry_equiv_pos_as_xyz
  1  'x, y, z'
loop_
 _atom_site_type_symbol
 _atom_site_label
 _atom_site_symmetry_multiplicity
 _atom_site_fract_x
 _atom_site_fract_y
 _atom_site_fract_z
 _atom_site_occupancy
  Ba  Ba0  1  0.32706199  0.29820095  0.50748026  1
  Ba  Ba1  1  0.82706199  0.70179905  0.99251974  1
  Ba  Ba2  1  0.67293801  0.70179905  0.49251974  1
  Ba  Ba3  1  0.17293801  0.29820095  0.00748026  1
  W  W0  1  0.60520357  0.17594416  0.18484922  1
  W  W1  1  0.39479643  0.82405584  0.81515078  1
  W  W2  1  0.89479643  0.17594416  0.68484922  1
  W  W3  1  0.10520357  0.82405584  0.31515078  1
  F  F0  1  0.46265012  0.12004954  0.87899069  1
  F  F1  1  0.05841304  0.32114345  0.62625575  1
  F  F2  1  0.69556307  0.46037804  0.24293486  1
  F  F3  1  0.30443693  0.53962196  0.75706514  1
  F  F4  1  0.45565926  0.88572141  0.63726784  1
  F  F5  1  0.80452860  0.24106271  0.51942522  1
  F  F6  1  0.76058249  0.98091197  0.23643156  1
  F  F7  1  0.95565926  0.11427859  0.86273216  1
  F  F8  1  0.44158696  0.32114345  0.12625575  1
  F  F9  1  0.19556307  0.53962196  0.25706514  1
  F  F10  1  0.03734988  0.12004954  0.37899069  1
  F  F11  1  0.53734988  0.87995046  0.12100931  1
  F  F12  1  0.26058249  0.01908803  0.26356844  1
  F  F13  1  0.95868552  0.39009761  0.12036018  1
  F  F14  1  0.54434074  0.11427859  0.36273216  1
  F  F15  1  0.04434074  0.88572141  0.13726784  1
  F  F16  1  0.23941751  0.01908803  0.76356844  1
  F  F17  1  0.96265012  0.87995046  0.62100931  1
  F  F18  1  0.45868552  0.60990239  0.37963982  1
  F  F19  1  0.94158696  0.67885655  0.37374425  1
  F  F20  1  0.04131448  0.60990239  0.87963982  1
  F  F21  1  0.73941751  0.98091197  0.73643156  1
  F  F22  1  0.54131448  0.39009761  0.62036018  1
  F  F23  1  0.30452860  0.75893729  0.98057478  1
  F  F24  1  0.19547140  0.75893729  0.48057478  1
  F  F25  1  0.69547140  0.24106271  0.01942522  1
  F  F26  1  0.55841304  0.67885655  0.87374425  1
  F  F27  1  0.80443693  0.46037804  0.74293486  1
loop_
_geom_bond_atom_site_label_1
_geom_bond_atom_site_label_2
_geom_bond_distance
_geom_bond_site_symmetry_2
Ba0 F22 2.472333 1_555
Ba0 F18 2.481534 1_555
Ba0 F14 2.809084 1_555
Ba0 F24 2.825101 1_555
Ba0 F4 2.870829 1_545
Ba0 F3 2.907211 1_555
Ba0 F1 2.928758 1_555
Ba0 F12 3.023263 1_555
Ba0 F16 3.117068 1_555
Ba0 F9 3.132235 1_555
Ba0 F24 3.219245 1_545
Ba0 F10 3.309868 1_555
Ba1 F20 2.472333 1_655
Ba1 F13 2.481534 1_556
Ba1 F15 2.809084 1_656
Ba1 F25 2.825101 1_556
Ba1 F7 2.870829 1_565
Ba1 F27 2.907211 1_555
Ba1 F26 2.928758 1_555
Ba1 F6 3.023263 1_556
Ba1 F21 3.117068 1_555
Ba1 F2 3.132235 1_556
Ba1 F25 3.219245 1_566
Ba1 F11 3.309868 1_556
Ba2 F18 2.472333 1_555
Ba2 F22 2.481534 1_555
Ba2 F4 2.809084 1_555
Ba2 F5 2.825101 1_555
Ba2 F14 2.870829 1_565
Ba2 F2 2.907211 1_555
Ba2 F19 2.928758 1_555
Ba2 F21 3.023263 1_555
Ba2 F6 3.117068 1_555
Ba2 F27 3.132235 1_555
Ba2 F5 3.219245 1_565
Ba2 F17 3.309868 1_555
Ba3 F13 2.472333 1_455
Ba3 F20 2.481534 1_554
Ba3 F7 2.809084 1_454
Ba3 F23 2.825101 1_554
Ba3 F15 2.870829 1_545
Ba3 F9 2.907211 1_555
Ba3 F8 2.928758 1_555
Ba3 F16 3.023263 1_554
Ba3 F12 3.117068 1_555
Ba3 F3 3.132235 1_554
Ba3 F23 3.219245 1_544
Ba3 F0 3.309868 1_554
F0 W1 1.872388 1_545
F1 W2 1.892429 1_455
F2 W0 1.891501 1_555
F3 W1 1.891501 1_555
F4 W1 1.938735 1_555
F5 W2 1.939065 1_555
F6 W0 1.933120 1_565
F7 W2 1.938735 1_555
F8 W0 1.892429 1_555
F9 W3 1.891501 1_555
F10 W3 1.872388 1_545
F11 W0 1.872388 1_565
F12 W3 1.933120 1_545
F14 W0 1.938735 1_555
F15 W3 1.938735 1_555
F16 W1 1.933120 1_545
F17 W2 1.872388 1_565
F19 W3 1.892429 1_655
F21 W2 1.933120 1_565
F23 W1 1.939065 1_555
F24 W3 1.939065 1_555
F25 W0 1.939065 1_555
F26 W1 1.892429 1_555
F27 W2 1.891501 1_555
