# generated using pymatgen
data_Sr2La3Fe4CoO15
_symmetry_space_group_name_H-M   'P 1'
_cell_length_a   11.69780915
_cell_length_b   11.69780915
_cell_length_c   11.69780986
_cell_angle_alpha   27.25286848
_cell_angle_beta   27.25286848
_cell_angle_gamma   27.25286951
_symmetry_Int_Tables_number   1
_chemical_formula_structural   Sr2La3Fe4CoO15
_chemical_formula_sum   'Sr2 La3 Fe4 Co1 O15'
_cell_volume   296.15867058
_cell_formula_units_Z   1
loop_
 _symmetry_equiv_pos_site_id
 _symmetry_equiv_pos_as_xyz
  1  'x, y, z'
loop_
 _atom_site_type_symbol
 _atom_site_label
 _atom_site_symmetry_multiplicity
 _atom_site_fract_x
 _atom_site_fract_y
 _atom_site_fract_z
 _atom_site_occupancy
  Sr  Sr0  1  0.70210500  0.70210500  0.70210500  1
  Sr  Sr1  1  0.49830000  0.49830000  0.49830000  1
  La  La0  1  0.10160600  0.10160600  0.10160600  1
  La  La1  1  0.89698200  0.89698200  0.89698200  1
  La  La2  1  0.30077400  0.30077400  0.30077400  1
  Fe  Fe0  1  0.19789400  0.19789400  0.19789400  1
  Fe  Fe1  1  0.59973200  0.59973200  0.59973200  1
  Fe  Fe2  1  0.00086700  0.00086700  0.00086700  1
  Fe  Fe3  1  0.40195300  0.40195300  0.40195300  1
  Co  Co0  1  0.79986500  0.79986500  0.79986500  1
  O  O0  1  0.80162600  0.80162600  0.29321400  1
  O  O1  1  0.99654200  0.99654200  0.50608900  1
  O  O2  1  0.39853400  0.39853400  0.90743900  1
  O  O3  1  0.19987300  0.19987300  0.69838900  1
  O  O4  1  0.60330500  0.60330500  0.09503300  1
  O  O5  1  0.29321400  0.80162600  0.80162600  1
  O  O6  1  0.50608900  0.99654200  0.99654200  1
  O  O7  1  0.90743900  0.39853400  0.39853400  1
  O  O8  1  0.69838900  0.19987300  0.19987300  1
  O  O9  1  0.09503300  0.60330500  0.60330500  1
  O  O10  1  0.80162600  0.29321400  0.80162600  1
  O  O11  1  0.99654200  0.50608900  0.99654200  1
  O  O12  1  0.39853400  0.90743900  0.39853400  1
  O  O13  1  0.19987300  0.69838900  0.19987300  1
  O  O14  1  0.60330500  0.09503300  0.60330500  1
loop_
_geom_bond_atom_site_label_1
_geom_bond_atom_site_label_2
_geom_bond_distance
_geom_bond_site_symmetry_2
La0 O11 2.723170 1_454
La0 O6 2.723170 1_544
La0 O1 2.723171 1_445
La0 O14 2.756250 1_455
La0 O9 2.756250 1_545
La0 O9 2.756250 1_554
La0 O14 2.756250 1_554
La0 O4 2.756250 1_545
La0 O4 2.756250 1_455
La0 O8 2.821271 1_455
La0 O13 2.821271 1_545
La0 O3 2.821271 1_554
La1 O11 2.663826 1_555
La1 O6 2.663826 1_555
La1 O1 2.663827 1_555
La1 O12 2.760263 1_655
La1 O7 2.760263 1_565
La1 O2 2.760263 1_655
La1 O2 2.760263 1_565
La1 O12 2.760263 1_556
La1 O7 2.760263 1_556
La1 O10 2.792724 1_565
La1 O5 2.792724 1_655
La1 O0 2.792724 1_556
La2 O8 2.715720 1_555
La2 O13 2.715720 1_555
La2 O3 2.715720 1_555
La2 O7 2.720408 1_455
La2 O12 2.720408 1_545
La2 O2 2.720408 1_554
La2 O10 2.756811 1_455
La2 O5 2.756811 1_545
La2 O10 2.756811 1_554
La2 O5 2.756811 1_554
La2 O0 2.756811 1_455
La2 O0 2.756811 1_545
Fe0 O1 1.939339 1_445
Fe0 O11 1.939339 1_454
Fe0 O6 1.939339 1_544
Fe0 O2 1.999644 1_554
Fe0 O7 1.999644 1_455
Fe0 O12 1.999644 1_545
Fe1 O2 1.938745 1_555
Fe1 O12 1.938745 1_555
Fe1 O7 1.938745 1_555
Fe1 O0 1.953569 1_555
Fe1 O5 1.953569 1_555
Fe1 O10 1.953569 1_555
Fe2 O3 1.924362 1_554
Fe2 O13 1.924362 1_545
Fe2 O8 1.924362 1_455
Fe2 O0 1.968387 1_445
Fe2 O10 1.968387 1_454
Fe2 O5 1.968387 1_544
Fe3 O4 1.943872 1_555
Fe3 O14 1.943872 1_555
Fe3 O9 1.943872 1_555
Fe3 O3 1.996765 1_555
Fe3 O13 1.996765 1_555
Fe3 O8 1.996765 1_555
Co0 O4 1.914243 1_556
Co0 O14 1.914243 1_565
Co0 O9 1.914243 1_655
Co0 O1 1.921547 1_555
Co0 O11 1.921547 1_555
Co0 O6 1.921547 1_555
O0 Sr0 2.863132 1_555
O1 Sr1 2.756480 1_655
O1 Sr1 2.756480 1_565
O2 Sr1 2.861772 1_555
O3 Sr0 2.757435 1_545
O3 Sr0 2.757435 1_455
O4 Sr0 2.698709 1_554
O4 Sr1 2.710828 1_555
O5 Sr0 2.863132 1_555
O6 Sr1 2.756480 1_556
O6 Sr1 2.756480 1_565
O7 Sr1 2.861772 1_555
O8 Sr0 2.757435 1_554
O8 Sr0 2.757435 1_545
O9 Sr0 2.698708 1_455
O9 Sr1 2.710828 1_555
O10 Sr0 2.863132 1_555
O11 Sr1 2.756480 1_556
O11 Sr1 2.756480 1_655
O12 Sr1 2.861772 1_555
O13 Sr0 2.757435 1_554
O13 Sr0 2.757435 1_455
O14 Sr0 2.698708 1_545
O14 Sr1 2.710828 1_555
