# generated using pymatgen
data_LuAl8Ni3
_symmetry_space_group_name_H-M   'P 1'
_cell_length_a   7.57260488
_cell_length_b   7.57260488
_cell_length_c   6.79913100
_cell_angle_alpha   90.00000000
_cell_angle_beta   90.00000000
_cell_angle_gamma   150.35580988
_symmetry_Int_Tables_number   1
_chemical_formula_structural   LuAl8Ni3
_chemical_formula_sum   'Lu1 Al8 Ni3'
_cell_volume   192.84524725
_cell_formula_units_Z   1
loop_
 _symmetry_equiv_pos_site_id
 _symmetry_equiv_pos_as_xyz
  1  'x, y, z'
loop_
 _atom_site_type_symbol
 _atom_site_label
 _atom_site_symmetry_multiplicity
 _atom_site_fract_x
 _atom_site_fract_y
 _atom_site_fract_z
 _atom_site_occupancy
  Lu  Lu0  1  0.87425400  0.12574600  0.50000000  1
  Al  Al0  1  0.31126600  0.68873400  0.19266200  1
  Al  Al1  1  0.68033600  0.31966400  0.29012400  1
  Al  Al2  1  0.31126600  0.68873400  0.80733800  1
  Al  Al3  1  0.68033600  0.31966400  0.70987600  1
  Al  Al4  1  0.93359900  0.06640100  0.00000000  1
  Al  Al5  1  0.07351700  0.92648300  0.50000000  1
  Al  Al6  1  0.50444700  0.49555300  0.23234500  1
  Al  Al7  1  0.50444700  0.49555300  0.76765500  1
  Ni  Ni0  1  0.77035100  0.22964900  0.00000000  1
  Ni  Ni1  1  0.23297400  0.76702600  0.50000000  1
  Ni  Ni2  1  0.12320800  0.87679200  0.00000000  1
loop_
_geom_bond_atom_site_label_1
_geom_bond_atom_site_label_2
_geom_bond_distance
_geom_bond_site_symmetry_2
Lu0 Ni1 2.833999 1_655
Lu0 Ni1 2.833999 1_545
Al0 Ni1 2.383390 1_555
Al0 Ni0 2.414038 1_565
Al0 Ni0 2.414038 1_455
Al0 Al2 2.619868 1_554
Al0 Al1 2.804767 1_565
Al0 Al1 2.804767 1_455
Al0 Al6 2.841251 1_555
Al0 Al4 2.945639 1_455
Al0 Al4 2.945639 1_565
Al0 Lu0 2.994971 1_565
Al0 Lu0 2.994971 1_455
Al0 Ni2 3.049125 1_555
Al1 Ni0 2.372353 1_555
Al1 Ni1 2.526461 1_545
Al1 Ni1 2.526461 1_655
Al1 Al6 2.605027 1_555
Al1 Al3 2.853949 1_555
Al1 Al5 2.869675 1_545
Al1 Al5 2.869675 1_655
Al1 Ni2 2.888515 1_545
Al1 Ni2 2.888515 1_655
Al1 Lu0 3.177629 1_555
Al2 Ni1 2.383390 1_555
Al2 Ni0 2.414038 1_566
Al2 Ni0 2.414038 1_456
Al2 Al3 2.804767 1_565
Al2 Al3 2.804767 1_455
Al2 Al7 2.841251 1_555
Al2 Al4 2.945639 1_456
Al2 Al4 2.945639 1_566
Al2 Lu0 2.994971 1_565
Al2 Lu0 2.994971 1_455
Al2 Ni2 3.049125 1_556
Al3 Ni0 2.372353 1_556
Al3 Ni1 2.526461 1_545
Al3 Ni1 2.526461 1_655
Al3 Al7 2.605027 1_555
Al3 Al5 2.869675 1_545
Al3 Al5 2.869675 1_655
Al3 Ni2 2.888515 1_546
Al3 Ni2 2.888515 1_656
Al3 Lu0 3.177629 1_555
Al4 Ni0 2.390155 1_555
Al4 Al6 2.706360 1_655
Al4 Al7 2.706360 1_654
Al4 Al6 2.706360 1_545
Al4 Al7 2.706360 1_544
Al4 Ni2 2.776113 1_645
Al4 Lu0 3.508847 1_554
Al4 Lu0 3.508847 1_555
Al5 Ni1 2.334650 1_555
Al5 Al6 2.843803 1_565
Al5 Al7 2.843803 1_565
Al5 Al7 2.843803 1_455
Al5 Al6 2.843803 1_455
Al5 Lu0 2.917459 1_465
Al6 Ni2 3.044970 1_545
Al6 Ni2 3.044970 1_655
Al6 Lu0 3.270795 1_455
Al6 Lu0 3.270795 1_565
Al7 Ni2 3.044970 1_546
Al7 Ni2 3.044970 1_656
Al7 Lu0 3.270795 1_455
Al7 Lu0 3.270795 1_565
Ni0 Ni2 2.897249 1_655
Ni0 Ni2 2.897249 1_545
