# generated using pymatgen
data_MgMn2O4
_symmetry_space_group_name_H-M   'P 1'
_cell_length_a   3.00560700
_cell_length_b   9.03884000
_cell_length_c   10.48141000
_cell_angle_alpha   90.00000000
_cell_angle_beta   90.00000000
_cell_angle_gamma   90.00000000
_symmetry_Int_Tables_number   1
_chemical_formula_structural   MgMn2O4
_chemical_formula_sum   'Mg4 Mn8 O16'
_cell_volume   284.75056988
_cell_formula_units_Z   4
loop_
 _symmetry_equiv_pos_site_id
 _symmetry_equiv_pos_as_xyz
  1  'x, y, z'
loop_
 _atom_site_type_symbol
 _atom_site_label
 _atom_site_symmetry_multiplicity
 _atom_site_fract_x
 _atom_site_fract_y
 _atom_site_fract_z
 _atom_site_occupancy
  Mg  Mg0  1  0.25000000  0.24677000  0.84558200  1
  Mg  Mg1  1  0.75000000  0.75323000  0.15441800  1
  Mg  Mg2  1  0.25000000  0.74677000  0.65441800  1
  Mg  Mg3  1  0.75000000  0.25323000  0.34558200  1
  Mn  Mn0  1  0.75000000  0.41791200  0.60562900  1
  Mn  Mn1  1  0.25000000  0.08208800  0.10562900  1
  Mn  Mn2  1  0.75000000  0.91791200  0.89437100  1
  Mn  Mn3  1  0.25000000  0.58208800  0.39437100  1
  Mn  Mn4  1  0.25000000  0.56572800  0.88533500  1
  Mn  Mn5  1  0.75000000  0.43427200  0.11466500  1
  Mn  Mn6  1  0.25000000  0.06572800  0.61466500  1
  Mn  Mn7  1  0.75000000  0.93427200  0.38533500  1
  O  O0  1  0.75000000  0.90162600  0.57218300  1
  O  O1  1  0.25000000  0.09837400  0.42781700  1
  O  O2  1  0.75000000  0.40162600  0.92781700  1
  O  O3  1  0.25000000  0.59837400  0.07218300  1
  O  O4  1  0.75000000  0.02036800  0.21798300  1
  O  O5  1  0.25000000  0.97963200  0.78201700  1
  O  O6  1  0.75000000  0.52036800  0.28201700  1
  O  O7  1  0.25000000  0.47963200  0.71798300  1
  O  O8  1  0.75000000  0.61972200  0.53413100  1
  O  O9  1  0.25000000  0.38027800  0.46586900  1
  O  O10  1  0.75000000  0.11972200  0.96586900  1
  O  O11  1  0.25000000  0.88027800  0.03413100  1
  O  O12  1  0.25000000  0.78024900  0.31588000  1
  O  O13  1  0.75000000  0.21975100  0.68412000  1
  O  O14  1  0.75000000  0.71975100  0.81588000  1
  O  O15  1  0.25000000  0.28024900  0.18412000  1
loop_
_geom_bond_atom_site_label_1
_geom_bond_atom_site_label_2
_geom_bond_distance
_geom_bond_site_symmetry_2
Mg0 O2 2.227233 1_455
Mg0 O2 2.227233 1_555
Mg0 O10 2.273043 1_555
Mg0 O10 2.273043 1_455
Mg0 O13 2.276425 1_555
Mg0 O13 2.276425 1_455
Mg0 O7 2.493768 1_555
Mg0 O5 2.504849 1_545
Mg1 O3 2.227233 1_555
Mg1 O3 2.227233 1_655
Mg1 O11 2.273043 1_655
Mg1 O11 2.273043 1_555
Mg1 O12 2.276425 1_555
Mg1 O12 2.276425 1_655
Mg1 O6 2.493768 1_555
Mg1 O4 2.504849 1_565
Mg2 O0 2.227233 1_455
Mg2 O0 2.227233 1_555
Mg2 O8 2.273043 1_455
Mg2 O8 2.273043 1_555
Mg2 O14 2.276425 1_555
Mg2 O14 2.276425 1_455
Mg2 O5 2.493768 1_555
Mg2 O7 2.504849 1_555
Mg3 O1 2.227233 1_555
Mg3 O1 2.227233 1_655
Mg3 O9 2.273043 1_555
Mg3 O9 2.273043 1_655
Mg3 O15 2.276425 1_655
Mg3 O15 2.276425 1_555
Mg3 O4 2.493768 1_555
Mg3 O6 2.504849 1_555
Mn0 O13 1.971048 1_555
Mn0 O8 1.972066 1_555
Mn0 O7 1.989084 1_655
Mn0 O7 1.989084 1_555
Mn0 O9 2.126032 1_555
Mn0 O9 2.126032 1_655
Mn1 O15 1.971048 1_555
Mn1 O11 1.972066 1_545
Mn1 O4 1.989084 1_455
Mn1 O4 1.989084 1_555
Mn1 O10 2.126032 1_554
Mn1 O10 2.126032 1_454
Mn2 O14 1.971048 1_555
Mn2 O10 1.972066 1_565
Mn2 O5 1.989084 1_555
Mn2 O5 1.989084 1_655
Mn2 O11 2.126032 1_556
Mn2 O11 2.126032 1_656
Mn3 O12 1.971048 1_555
Mn3 O9 1.972066 1_555
Mn3 O6 1.989084 1_555
Mn3 O6 1.989084 1_455
Mn3 O8 2.126032 1_555
Mn3 O8 2.126032 1_455
Mn4 O7 1.918964 1_555
Mn4 O3 1.980536 1_556
Mn4 O2 2.157971 1_455
Mn4 O2 2.157971 1_555
Mn4 O14 2.174068 1_455
Mn4 O14 2.174068 1_555
Mn5 O6 1.918964 1_555
Mn5 O2 1.980536 1_554
Mn5 O3 2.157971 1_555
Mn5 O3 2.157971 1_655
Mn5 O15 2.174068 1_555
Mn5 O15 2.174068 1_655
Mn6 O5 1.918964 1_545
Mn6 O1 1.980536 1_555
Mn6 O0 2.157971 1_445
Mn6 O0 2.157971 1_545
Mn6 O13 2.174068 1_455
Mn6 O13 2.174068 1_555
Mn7 O4 1.918964 1_565
Mn7 O0 1.980536 1_555
Mn7 O1 2.157971 1_565
Mn7 O1 2.157971 1_665
Mn7 O12 2.174068 1_555
Mn7 O12 2.174068 1_655
