# generated using pymatgen
data_Rb2Mo2O5
_symmetry_space_group_name_H-M   'P 1'
_cell_length_a   9.19129505
_cell_length_b   9.19129505
_cell_length_c   9.19129505
_cell_angle_alpha   142.03025954
_cell_angle_beta   141.56608805
_cell_angle_gamma   55.13383343
_symmetry_Int_Tables_number   1
_chemical_formula_structural   Rb2Mo2O5
_chemical_formula_sum   'Rb4 Mo4 O10'
_cell_volume   294.81668559
_cell_formula_units_Z   2
loop_
 _symmetry_equiv_pos_site_id
 _symmetry_equiv_pos_as_xyz
  1  'x, y, z'
loop_
 _atom_site_type_symbol
 _atom_site_label
 _atom_site_symmetry_multiplicity
 _atom_site_fract_x
 _atom_site_fract_y
 _atom_site_fract_z
 _atom_site_occupancy
  Rb  Rb0  1  0.90531100  0.38787600  0.51660000  1
  Rb  Rb1  1  0.09468900  0.61129000  0.48256500  1
  Rb  Rb2  1  0.37127600  0.88787600  0.48256500  1
  Rb  Rb3  1  0.62872400  0.11129000  0.51660000  1
  Mo  Mo0  1  0.00000000  0.01618200  0.01618200  1
  Mo  Mo1  1  0.50000000  0.51618200  0.01618200  1
  Mo  Mo2  1  0.68468300  0.70794500  0.89262700  1
  Mo  Mo3  1  0.31531700  0.20794500  0.02326200  1
  O  O0  1  0.25480600  0.26041000  0.50323400  1
  O  O1  1  0.74519400  0.24842800  0.00560400  1
  O  O2  1  0.25717600  0.76041000  0.00560400  1
  O  O3  1  0.74282400  0.74842800  0.50323400  1
  O  O4  1  0.88896000  0.87381100  0.03603800  1
  O  O5  1  0.11104000  0.14707800  0.98485100  1
  O  O6  1  0.33777300  0.37381100  0.98485100  1
  O  O7  1  0.66222700  0.64707800  0.03603800  1
  O  O8  1  0.57988000  0.41098100  0.49086100  1
  O  O9  1  0.42012000  0.91098100  0.83110100  1
loop_
_geom_bond_atom_site_label_1
_geom_bond_atom_site_label_2
_geom_bond_distance
_geom_bond_site_symmetry_2
Mo0 O0 2.075030 1_555
Mo0 O1 2.075030 1_455
Mo0 O2 2.183990 1_545
Mo0 O3 2.183990 1_444
Mo0 O5 2.232172 1_554
Mo0 O4 2.232172 1_445
Mo1 O2 2.075030 1_555
Mo1 O3 2.075030 1_555
Mo1 O0 2.183990 1_554
Mo1 O1 2.183990 1_555
Mo1 O7 2.232172 1_555
Mo1 O6 2.232172 1_554
Mo2 O8 1.885715 1_555
Mo2 O4 1.952925 1_556
Mo2 O7 1.952941 1_556
Mo2 O9 2.009149 1_555
Mo3 O9 1.885719 1_544
Mo3 O6 1.952932 1_554
Mo3 O5 1.952932 1_554
Mo3 O8 2.009150 1_555
O0 Rb1 2.775668 1_555
O0 Rb0 2.791970 1_455
O0 Rb3 2.814888 1_555
O0 Rb2 2.829928 1_545
O1 Rb0 2.775660 1_555
O1 Rb1 2.791975 1_655
O1 Rb2 2.814887 1_544
O1 Rb3 2.829933 1_554
O2 Rb3 2.775664 1_565
O2 Rb2 2.791970 1_555
O2 Rb1 2.814892 1_554
O2 Rb0 2.829928 1_454
O3 Rb2 2.775660 1_555
O3 Rb3 2.791978 1_565
O3 Rb0 2.814887 1_555
O3 Rb1 2.829930 1_655
O4 Rb2 2.797865 1_655
O4 Rb0 2.953666 1_565
O4 Rb0 3.082378 1_554
O4 Rb2 3.308770 1_554
O5 Rb3 2.797866 1_455
O5 Rb1 2.953668 1_556
O5 Rb1 3.082374 1_545
O5 Rb3 3.308766 1_556
O6 Rb0 2.797865 1_455
O6 Rb2 2.953666 1_556
O6 Rb2 3.082378 1_545
O6 Rb0 3.308770 1_556
O7 Rb1 2.797860 1_655
O7 Rb3 2.953668 1_565
O7 Rb3 3.082374 1_554
O7 Rb1 3.308772 1_554
O8 Rb3 2.700416 1_555
O8 Rb0 2.700425 1_555
O9 Rb1 2.700419 1_555
O9 Rb2 2.700425 1_555
