# generated using pymatgen
data_Mg2CrWO6
_symmetry_space_group_name_H-M   'P 1'
_cell_length_a   5.19262648
_cell_length_b   5.35663600
_cell_length_c   7.61943653
_cell_angle_alpha   89.99961129
_cell_angle_beta   89.95446938
_cell_angle_gamma   89.99931589
_symmetry_Int_Tables_number   1
_chemical_formula_structural   Mg2CrWO6
_chemical_formula_sum   'Mg4 Cr2 W2 O12'
_cell_volume   211.93463607
_cell_formula_units_Z   2
loop_
 _symmetry_equiv_pos_site_id
 _symmetry_equiv_pos_as_xyz
  1  'x, y, z'
loop_
 _atom_site_type_symbol
 _atom_site_label
 _atom_site_symmetry_multiplicity
 _atom_site_fract_x
 _atom_site_fract_y
 _atom_site_fract_z
 _atom_site_occupancy
  Mg  Mg0  1  0.99976000  0.04611200  0.25341900  1
  Mg  Mg1  1  0.50027700  0.54602500  0.24652300  1
  Mg  Mg2  1  0.00029700  0.95388500  0.74652300  1
  Mg  Mg3  1  0.49975700  0.45378700  0.75342500  1
  Cr  Cr0  1  0.49984600  0.99977900  0.99995400  1
  Cr  Cr1  1  0.00012800  0.50043700  0.50022100  1
  W  W0  1  0.49994200  0.00002000  0.49994300  1
  W  W1  1  0.00015200  0.50001500  0.99995900  1
  O  O0  1  0.67777100  0.31876400  0.42692100  1
  O  O1  1  0.82225300  0.81844300  0.07307600  1
  O  O2  1  0.32236100  0.68155500  0.57311200  1
  O  O3  1  0.17767300  0.18124200  0.92689000  1
  O  O4  1  0.18064200  0.17789300  0.56134000  1
  O  O5  1  0.31926600  0.67737700  0.93862600  1
  O  O6  1  0.81935400  0.82260800  0.43866300  1
  O  O7  1  0.68056100  0.32208000  0.06130700  1
  O  O8  1  0.12521600  0.42197300  0.24908200  1
  O  O9  1  0.37476900  0.92188800  0.25096800  1
  O  O10  1  0.62529400  0.07801400  0.74896600  1
  O  O11  1  0.87468400  0.57810200  0.75108300  1
loop_
_geom_bond_atom_site_label_1
_geom_bond_atom_site_label_2
_geom_bond_distance
_geom_bond_site_symmetry_2
Mg0 O1 2.055993 1_545
Mg0 O9 2.057900 1_645
Mg0 O6 2.073891 1_545
Mg0 O8 2.116377 1_655
Mg1 O0 2.054923 1_555
Mg1 O8 2.057880 1_555
Mg1 O7 2.074823 1_555
Mg1 O9 2.116469 1_555
Mg2 O3 2.054819 1_565
Mg2 O10 2.057706 1_465
Mg2 O4 2.074992 1_565
Mg2 O11 2.116257 1_455
Mg3 O2 2.055872 1_555
Mg3 O11 2.057663 1_555
Mg3 O5 2.074132 1_555
Mg3 O10 2.116058 1_555
Cr0 O3 2.013672 1_565
Cr0 O1 2.014476 1_556
Cr0 O7 2.020018 1_566
Cr0 O5 2.020111 1_555
Cr0 O9 2.062016 1_556
Cr0 O10 2.062812 1_565
Cr1 O2 2.012698 1_555
Cr1 O0 2.015531 1_455
Cr1 O6 2.019904 1_455
Cr1 O4 2.020209 1_555
Cr1 O11 2.061299 1_455
Cr1 O8 2.063542 1_555
O0 W0 2.019069 1_555
O1 W1 2.017992 1_654
O2 W0 2.017526 1_565
O3 W1 2.018556 1_555
O4 W0 1.968348 1_555
O5 W1 1.966111 1_555
O6 W0 1.967433 1_565
O7 W1 1.969709 1_654
O8 W1 2.049759 1_554
O9 W0 2.049001 1_565
O10 W0 2.049485 1_555
O11 W1 2.048733 1_655
