# generated using pymatgen
data_CdRe2C6(N6O7)2
_symmetry_space_group_name_H-M   'P 1'
_cell_length_a   8.16744100
_cell_length_b   10.68960000
_cell_length_c   18.55380065
_cell_angle_alpha   57.26761350
_cell_angle_beta   90.00000000
_cell_angle_gamma   90.00000000
_symmetry_Int_Tables_number   1
_chemical_formula_structural   CdRe2C6(N6O7)2
_chemical_formula_sum   'Cd2 Re4 C12 N24 O28'
_cell_volume   1362.64376804
_cell_formula_units_Z   2
loop_
 _symmetry_equiv_pos_site_id
 _symmetry_equiv_pos_as_xyz
  1  'x, y, z'
loop_
 _atom_site_type_symbol
 _atom_site_label
 _atom_site_symmetry_multiplicity
 _atom_site_fract_x
 _atom_site_fract_y
 _atom_site_fract_z
 _atom_site_occupancy
  Cd  Cd0  1  0.00000000  0.00000000  0.00000000  1
  Cd  Cd1  1  0.50000000  0.00000000  0.50000000  1
  Re  Re0  1  0.85832500  0.58228600  0.34063300  1
  Re  Re1  1  0.14167500  0.41771400  0.65936700  1
  Re  Re2  1  0.35832500  0.41771400  0.15936700  1
  Re  Re3  1  0.64167500  0.58228600  0.84063300  1
  C  C0  1  0.86364800  0.68952600  0.04883000  1
  C  C1  1  0.13635200  0.31047400  0.95117000  1
  C  C2  1  0.36364800  0.31047400  0.45117000  1
  C  C3  1  0.63635200  0.68952600  0.54883000  1
  C  C4  1  0.35457400  0.96651400  0.34550800  1
  C  C5  1  0.64542600  0.03348600  0.65449200  1
  C  C6  1  0.85457400  0.03348600  0.15449200  1
  C  C7  1  0.14542600  0.96651400  0.84550800  1
  C  C8  1  0.34397900  0.86401100  0.10228500  1
  C  C9  1  0.65602100  0.13598900  0.89771500  1
  C  C10  1  0.84397900  0.13598900  0.39771500  1
  C  C11  1  0.15602100  0.86401100  0.60228500  1
  N  N0  1  0.34479900  0.74510600  0.18654200  1
  N  N1  1  0.65520100  0.25489400  0.81345800  1
  N  N2  1  0.84479900  0.25489400  0.31345800  1
  N  N3  1  0.15520100  0.74510600  0.68654200  1
  N  N4  1  0.79446600  0.56313200  0.06086500  1
  N  N5  1  0.20553400  0.43686800  0.93913500  1
  N  N6  1  0.29446600  0.43686800  0.43913500  1
  N  N7  1  0.70553400  0.56313200  0.56086500  1
  N  N8  1  0.77436300  0.04473200  0.21582400  1
  N  N9  1  0.22563700  0.95526800  0.78417600  1
  N  N10  1  0.27436300  0.95526800  0.28417600  1
  N  N11  1  0.72563700  0.04473200  0.71582400  1
  N  N12  1  0.48486400  0.81648500  0.14835600  1
  N  N13  1  0.51513600  0.18351500  0.85164400  1
  N  N14  1  0.98486400  0.18351500  0.35164400  1
  N  N15  1  0.01513600  0.81648500  0.64835600  1
  N  N16  1  0.26505300  0.84221500  0.36554200  1
  N  N17  1  0.73494700  0.15778500  0.63445800  1
  N  N18  1  0.76505300  0.15778500  0.13445800  1
  N  N19  1  0.23494700  0.84221500  0.86554200  1
  N  N20  1  0.78053400  0.69277100  0.50941200  1
  N  N21  1  0.21946600  0.30722900  0.49058800  1
  N  N22  1  0.28053400  0.30722900  0.99058800  1
  N  N23  1  0.71946600  0.69277100  0.00941200  1
  O  O0  1  0.97425200  0.75157600  0.06162700  1
  O  O1  1  0.02574800  0.24842400  0.93837300  1
  O  O2  1  0.47425200  0.24842400  0.43837300  1
  O  O3  1  0.52574800  0.75157600  0.56162700  1
  O  O4  1  0.27632300  0.95561000  0.03491700  1
  O  O5  1  0.72367700  0.04439000  0.96508300  1
  O  O6  1  0.77632300  0.04439000  0.46508300  1
  O  O7  1  0.22367700  0.95561000  0.53491700  1
  O  O8  1  0.65938700  0.65610700  0.31489700  1
  O  O9  1  0.34061300  0.34389300  0.68510300  1
  O  O10  1  0.15938700  0.34389300  0.18510300  1
  O  O11  1  0.84061300  0.65610700  0.81489700  1
  O  O12  1  0.86220500  0.42921300  0.44696300  1
  O  O13  1  0.13779500  0.57078700  0.55303700  1
  O  O14  1  0.36220500  0.57078700  0.05303700  1
  O  O15  1  0.63779500  0.42921300  0.94696300  1
  O  O16  1  0.99255500  0.72069400  0.32800200  1
  O  O17  1  0.00744500  0.27930600  0.67199800  1
  O  O18  1  0.49255500  0.27930600  0.17199800  1
  O  O19  1  0.50744500  0.72069400  0.82800200  1
  O  O20  1  0.94147700  0.96561500  0.13395200  1
  O  O21  1  0.05852300  0.03438500  0.86604800  1
  O  O22  1  0.44147700  0.03438500  0.36604800  1
  O  O23  1  0.55852300  0.96561500  0.63395200  1
  O  O24  1  0.92075000  0.52153800  0.27322800  1
  O  O25  1  0.07925000  0.47846200  0.72677200  1
  O  O26  1  0.42075000  0.47846200  0.22677200  1
  O  O27  1  0.57925000  0.52153800  0.77322800  1
loop_
_geom_bond_atom_site_label_1
_geom_bond_atom_site_label_2
_geom_bond_distance
_geom_bond_site_symmetry_2
Cd0 O1 2.262725 1_554
Cd0 O0 2.262725 1_445
Cd0 O5 2.325038 1_454
Cd0 O4 2.325038 1_545
Cd0 O21 2.356370 1_554
Cd0 O20 2.356370 1_445
Cd1 O2 2.262725 1_555
Cd1 O3 2.262725 1_545
Cd1 O6 2.325038 1_555
Cd1 O7 2.325038 1_545
Cd1 O23 2.356370 1_545
Cd1 O22 2.356370 1_555
C0 O0 1.217655 1_555
C0 N4 1.366874 1_555
C0 N23 1.376729 1_555
C1 O1 1.217655 1_555
C1 N5 1.366874 1_555
C1 N22 1.376729 1_555
C2 O2 1.217655 1_555
C2 N6 1.366874 1_555
C2 N21 1.376729 1_555
C3 O3 1.217655 1_555
C3 N7 1.366874 1_555
C3 N20 1.376729 1_555
C4 O22 1.214244 1_565
C4 N10 1.373492 1_555
C4 N16 1.379895 1_555
C5 O23 1.214244 1_545
C5 N11 1.373492 1_555
C5 N17 1.379895 1_555
C6 O20 1.214244 1_545
C6 N8 1.373492 1_555
C6 N18 1.379895 1_555
C7 O21 1.214244 1_565
C7 N9 1.373492 1_555
C7 N19 1.379895 1_555
C8 O4 1.225919 1_555
C8 N12 1.357639 1_555
C8 N0 1.382265 1_555
C9 O5 1.225919 1_555
C9 N13 1.357639 1_555
C9 N1 1.382265 1_555
C10 O6 1.225919 1_555
C10 N14 1.357639 1_555
C10 N2 1.382265 1_555
C11 O7 1.225919 1_555
C11 N15 1.357639 1_555
C11 N3 1.382265 1_555
N0 N12 1.344699 1_555
N1 N13 1.344699 1_555
N10 N16 1.331282 1_555
N11 N17 1.331282 1_555
N14 N2 1.344699 1_555
N15 N3 1.344699 1_555
N18 N8 1.331282 1_555
N19 N9 1.331282 1_555
N20 N7 1.332787 1_555
N21 N6 1.332787 1_555
N22 N5 1.332787 1_555
N23 N4 1.332787 1_555
O8 Re0 1.755918 1_555
O9 Re1 1.755918 1_555
O10 Re2 1.755918 1_555
O11 Re3 1.755918 1_555
O12 Re0 1.754851 1_555
O13 Re1 1.754851 1_555
O14 Re2 1.754851 1_555
O15 Re3 1.754851 1_555
O16 Re0 1.752387 1_555
O17 Re1 1.752387 1_555
O18 Re2 1.752387 1_555
O19 Re3 1.752387 1_555
O24 Re0 1.767464 1_555
O25 Re1 1.767464 1_555
O26 Re2 1.767464 1_555
O27 Re3 1.767464 1_555
