# generated using pymatgen
data_NaC2NO3
_symmetry_space_group_name_H-M   'P 1'
_cell_length_a   5.39871100
_cell_length_b   3.58790700
_cell_length_c   21.61576118
_cell_angle_alpha   83.69889773
_cell_angle_beta   90.00000000
_cell_angle_gamma   90.00000000
_symmetry_Int_Tables_number   1
_chemical_formula_structural   NaC2NO3
_chemical_formula_sum   'Na4 C8 N4 O12'
_cell_volume   416.16944665
_cell_formula_units_Z   4
loop_
 _symmetry_equiv_pos_site_id
 _symmetry_equiv_pos_as_xyz
  1  'x, y, z'
loop_
 _atom_site_type_symbol
 _atom_site_label
 _atom_site_symmetry_multiplicity
 _atom_site_fract_x
 _atom_site_fract_y
 _atom_site_fract_z
 _atom_site_occupancy
  Na  Na0  1  0.20100700  0.69091100  0.29769400  1
  Na  Na1  1  0.70100700  0.30908900  0.20230600  1
  Na  Na2  1  0.79899300  0.30908900  0.70230600  1
  Na  Na3  1  0.29899300  0.69091100  0.79769400  1
  C  C0  1  0.00287400  0.23924700  0.07641700  1
  C  C1  1  0.50287400  0.76075300  0.42358300  1
  C  C2  1  0.99712600  0.76075300  0.92358300  1
  C  C3  1  0.49712600  0.23924700  0.57641700  1
  C  C4  1  0.20926300  0.88618500  0.16066200  1
  C  C5  1  0.70926300  0.11381500  0.33933800  1
  C  C6  1  0.79073700  0.11381500  0.83933800  1
  C  C7  1  0.29073700  0.88618500  0.66066200  1
  N  N0  1  0.18823000  0.08403900  0.09916700  1
  N  N1  1  0.68823000  0.91596100  0.40083300  1
  N  N2  1  0.81177000  0.91596100  0.90083300  1
  N  N3  1  0.31177000  0.08403900  0.59916700  1
  O  O0  1  0.83255800  0.40188400  0.05238800  1
  O  O1  1  0.33255800  0.59811600  0.44761200  1
  O  O2  1  0.16744200  0.59811600  0.94761200  1
  O  O3  1  0.66744200  0.40188400  0.55238800  1
  O  O4  1  0.42563400  0.81382500  0.17999400  1
  O  O5  1  0.92563400  0.18617500  0.32000600  1
  O  O6  1  0.57436600  0.18617500  0.82000600  1
  O  O7  1  0.07436600  0.81382500  0.67999400  1
  O  O8  1  0.00958100  0.80632800  0.19054900  1
  O  O9  1  0.50958100  0.19367200  0.30945100  1
  O  O10  1  0.99041900  0.19367200  0.80945100  1
  O  O11  1  0.49041900  0.80632800  0.69054900  1
loop_
_geom_bond_atom_site_label_1
_geom_bond_atom_site_label_2
_geom_bond_distance
_geom_bond_site_symmetry_2
Na0 O5 2.351716 1_455
Na0 O5 2.405924 1_465
Na0 O9 2.433745 1_555
Na0 O9 2.488846 1_565
Na0 O8 2.528426 1_555
Na0 O4 2.809210 1_555
Na1 O4 2.351716 1_555
Na1 O4 2.405924 1_545
Na1 O8 2.433745 1_655
Na1 O8 2.488846 1_645
Na1 O9 2.528426 1_555
Na1 O5 2.809210 1_555
Na2 O7 2.351716 1_655
Na2 O7 2.405924 1_645
Na2 O11 2.433745 1_555
Na2 O11 2.488846 1_545
Na2 O10 2.528426 1_555
Na2 O6 2.809210 1_555
Na3 O6 2.351716 1_555
Na3 O6 2.405924 1_565
Na3 O10 2.433745 1_455
Na3 O10 2.488846 1_465
Na3 O11 2.528426 1_555
Na3 O7 2.809210 1_555
C0 O0 1.178648 1_455
C0 N0 1.221961 1_555
C1 O1 1.178648 1_555
C1 N1 1.221961 1_555
C2 O2 1.178648 1_655
C2 N2 1.221961 1_555
C3 O3 1.178648 1_555
C3 N3 1.221961 1_555
C4 O4 1.258064 1_555
C4 O8 1.273168 1_555
C4 N0 1.441052 1_565
C5 O5 1.258064 1_555
C5 O9 1.273168 1_555
C5 N1 1.441052 1_545
C6 O6 1.258064 1_555
C6 O10 1.273168 1_555
C6 N2 1.441052 1_545
C7 O7 1.258064 1_555
C7 O11 1.273168 1_555
C7 N3 1.441052 1_565
