# generated using pymatgen
data_RbCu3P3(O4F3)2
_symmetry_space_group_name_H-M   'P 1'
_cell_length_a   11.31570823
_cell_length_b   11.31570823
_cell_length_c   7.68615703
_cell_angle_alpha   80.39262294
_cell_angle_beta   80.39262294
_cell_angle_gamma   40.40117969
_symmetry_Int_Tables_number   1
_chemical_formula_structural   RbCu3P3(O4F3)2
_chemical_formula_sum   'Rb2 Cu6 P6 O16 F12'
_cell_volume   627.71190821
_cell_formula_units_Z   2
loop_
 _symmetry_equiv_pos_site_id
 _symmetry_equiv_pos_as_xyz
  1  'x, y, z'
loop_
 _atom_site_type_symbol
 _atom_site_label
 _atom_site_symmetry_multiplicity
 _atom_site_fract_x
 _atom_site_fract_y
 _atom_site_fract_z
 _atom_site_occupancy
  Rb  Rb0  1  0.15310500  0.84689500  0.75000000  1
  Rb  Rb1  1  0.84689500  0.15310500  0.25000000  1
  Cu  Cu0  1  0.33521800  0.38730300  0.77776000  1
  Cu  Cu1  1  0.61269700  0.66478200  0.72224000  1
  Cu  Cu2  1  0.66478200  0.61269700  0.22224000  1
  Cu  Cu3  1  0.38730300  0.33521800  0.27776000  1
  Cu  Cu4  1  0.00000000  0.50000000  0.50000000  1
  Cu  Cu5  1  0.50000000  0.00000000  0.00000000  1
  P  P0  1  0.01750600  0.64780900  0.09727400  1
  P  P1  1  0.35219100  0.98249400  0.40272600  1
  P  P2  1  0.98249400  0.35219100  0.90272600  1
  P  P3  1  0.64780900  0.01750600  0.59727400  1
  P  P4  1  0.65648200  0.34351800  0.75000000  1
  P  P5  1  0.34351800  0.65648200  0.25000000  1
  O  O0  1  0.58854200  0.51823500  0.79806900  1
  O  O1  1  0.48176500  0.41145800  0.70193100  1
  O  O2  1  0.41145800  0.48176500  0.20193100  1
  O  O3  1  0.51823500  0.58854200  0.29806900  1
  O  O4  1  0.79327200  0.25934400  0.59013800  1
  O  O5  1  0.74065600  0.20672800  0.90986200  1
  O  O6  1  0.20672800  0.74065600  0.40986200  1
  O  O7  1  0.25934400  0.79327200  0.09013800  1
  O  O8  1  0.51682200  0.10170600  0.75930700  1
  O  O9  1  0.89829400  0.48317800  0.74069300  1
  O  O10  1  0.48317800  0.89829400  0.24069300  1
  O  O11  1  0.10170600  0.51682200  0.25930700  1
  O  O12  1  0.12749700  0.59750200  0.92805800  1
  O  O13  1  0.40249800  0.87250300  0.57194200  1
  O  O14  1  0.87250300  0.40249800  0.07194200  1
  O  O15  1  0.59750200  0.12749700  0.42805800  1
  F  F0  1  0.91698600  0.83734200  0.14526100  1
  F  F1  1  0.16265800  0.08301400  0.35473900  1
  F  F2  1  0.08301400  0.16265800  0.85473900  1
  F  F3  1  0.83734200  0.91698600  0.64526100  1
  F  F4  1  0.18076500  0.44799700  0.59690900  1
  F  F5  1  0.55200300  0.81923500  0.90309100  1
  F  F6  1  0.81923500  0.55200300  0.40309100  1
  F  F7  1  0.44799700  0.18076500  0.09690900  1
  F  F8  1  0.15504400  0.29550600  0.93501000  1
  F  F9  1  0.70449400  0.84495600  0.56499000  1
  F  F10  1  0.84495600  0.70449400  0.06499000  1
  F  F11  1  0.29550600  0.15504400  0.43501000  1
loop_
_geom_bond_atom_site_label_1
_geom_bond_atom_site_label_2
_geom_bond_distance
_geom_bond_site_symmetry_2
Cu0 O1 1.865170 1_555
Cu0 O12 2.003161 1_555
Cu0 F4 2.030424 1_555
Cu0 O8 2.151295 1_555
Cu1 O0 1.865170 1_555
Cu1 O13 2.003161 1_555
Cu1 F5 2.030424 1_555
Cu1 O9 2.151295 1_555
Cu2 O3 1.865170 1_555
Cu2 O14 2.003161 1_555
Cu2 F6 2.030424 1_555
Cu2 O10 2.151295 1_555
Cu3 O2 1.865170 1_555
Cu3 O15 2.003161 1_555
Cu3 F7 2.030424 1_555
Cu3 O11 2.151295 1_555
Cu4 F6 1.901080 1_455
Cu4 F4 1.901080 1_555
Cu4 O9 2.070916 1_455
Cu4 O11 2.070916 1_555
Cu5 F5 1.901080 1_544
Cu5 F7 1.901080 1_555
Cu5 O10 2.070916 1_545
Cu5 O8 2.070916 1_554
O0 P4 1.571728 1_555
O0 Rb0 3.238108 1_555
O1 P4 1.571728 1_555
O1 Rb0 3.238108 1_555
O2 P5 1.571728 1_555
O2 Rb1 3.238108 1_555
O3 P5 1.571728 1_555
O3 Rb1 3.238108 1_555
O4 P4 1.524219 1_555
O4 Rb1 2.838452 1_555
O4 Rb0 3.268609 1_645
O5 P4 1.524219 1_555
O5 Rb1 2.838452 1_556
O5 Rb0 3.268609 1_645
O6 P5 1.524219 1_555
O6 Rb0 2.838452 1_555
O6 Rb1 3.268609 1_465
O7 P5 1.524219 1_555
O7 Rb0 2.838452 1_554
O7 Rb1 3.268609 1_465
O8 P3 1.511561 1_555
O9 P2 1.511561 1_555
O10 P1 1.511561 1_555
O11 P0 1.511561 1_555
O12 P0 1.480696 1_556
O12 Rb0 3.121687 1_555
O13 P1 1.480696 1_555
O13 Rb0 3.121687 1_555
O14 P2 1.480696 1_554
O14 Rb1 3.121687 1_555
O15 P3 1.480696 1_555
O15 Rb1 3.121687 1_555
F0 P0 1.561444 1_655
F0 Rb1 3.236492 1_565
F1 P1 1.561444 1_545
F1 Rb1 3.236492 1_455
F2 P2 1.561444 1_455
F2 Rb0 3.236492 1_545
F3 P3 1.561444 1_565
F3 Rb0 3.236492 1_655
F8 P2 1.576856 1_455
F9 P3 1.576856 1_565
F10 P0 1.576856 1_655
F11 P1 1.576856 1_545
