# generated using pymatgen
data_AgMo2P3O13
_symmetry_space_group_name_H-M   'P 1'
_cell_length_a   6.49479713
_cell_length_b   7.24246668
_cell_length_c   22.73698700
_cell_angle_alpha   90.00000000
_cell_angle_beta   90.00000000
_cell_angle_gamma   99.77511417
_symmetry_Int_Tables_number   1
_chemical_formula_structural   AgMo2P3O13
_chemical_formula_sum   'Ag4 Mo8 P12 O52'
_cell_volume   1053.98295670
_cell_formula_units_Z   4
loop_
 _symmetry_equiv_pos_site_id
 _symmetry_equiv_pos_as_xyz
  1  'x, y, z'
loop_
 _atom_site_type_symbol
 _atom_site_label
 _atom_site_symmetry_multiplicity
 _atom_site_fract_x
 _atom_site_fract_y
 _atom_site_fract_z
 _atom_site_occupancy
  Ag  Ag0  1  0.33225200  0.29360400  0.13175000  1
  Ag  Ag1  1  0.16774700  0.20639600  0.63175000  1
  Ag  Ag2  1  0.66774800  0.70639800  0.86825000  1
  Ag  Ag3  1  0.83225200  0.79360300  0.36825000  1
  Mo  Mo0  1  0.72203200  0.27408200  0.43657400  1
  Mo  Mo1  1  0.72237900  0.46421400  0.70778500  1
  Mo  Mo2  1  0.22237900  0.96421400  0.79221500  1
  Mo  Mo3  1  0.27762100  0.53578600  0.29221500  1
  Mo  Mo4  1  0.22203300  0.77408200  0.06342500  1
  Mo  Mo5  1  0.27796700  0.72591800  0.56342600  1
  Mo  Mo6  1  0.77796800  0.22591900  0.93657500  1
  Mo  Mo7  1  0.77762000  0.03578600  0.20778500  1
  P  P0  1  0.28087900  0.29893700  0.90190000  1
  P  P1  1  0.21912100  0.20106300  0.40189900  1
  P  P2  1  0.71912000  0.70106300  0.09810000  1
  P  P3  1  0.78088000  0.79893800  0.59810100  1
  P  P4  1  0.12436800  0.65211000  0.91647400  1
  P  P5  1  0.37563200  0.84789200  0.41647400  1
  P  P6  1  0.87563200  0.34789200  0.08352600  1
  P  P7  1  0.62436900  0.15210900  0.58352600  1
  P  P8  1  0.26422900  0.90895400  0.20364700  1
  P  P9  1  0.76422800  0.40895400  0.29635300  1
  P  P10  1  0.73577200  0.09104700  0.79635300  1
  P  P11  1  0.23577300  0.59104700  0.70364700  1
  O  O0  1  0.27697000  0.51761300  0.88766300  1
  O  O1  1  0.22303100  0.98238700  0.38766400  1
  O  O2  1  0.72303000  0.48238700  0.11233700  1
  O  O3  1  0.77696900  0.01761200  0.61233600  1
  O  O4  1  0.09733900  0.46256000  0.07989100  1
  O  O5  1  0.40266000  0.03744000  0.57989000  1
  O  O6  1  0.90266100  0.53744000  0.92011000  1
  O  O7  1  0.59734000  0.96256000  0.42011000  1
  O  O8  1  0.90410600  0.77062300  0.05746100  1
  O  O9  1  0.59589300  0.72937600  0.55746100  1
  O  O10  1  0.09589400  0.22937600  0.94253900  1
  O  O11  1  0.40410700  0.27062300  0.44253900  1
  O  O12  1  0.51376600  0.70112000  0.06542000  1
  O  O13  1  0.98623300  0.79888000  0.56542000  1
  O  O14  1  0.48623400  0.29887900  0.93458000  1
  O  O15  1  0.01376700  0.20112100  0.43458000  1
  O  O16  1  0.21301800  0.76606700  0.15305100  1
  O  O17  1  0.28698200  0.73393300  0.65305100  1
  O  O18  1  0.29034400  0.01276900  0.05977400  1
  O  O19  1  0.71301900  0.26606800  0.34694900  1
  O  O20  1  0.22136600  0.70637400  0.97662800  1
  O  O21  1  0.27863600  0.79362700  0.47662800  1
  O  O22  1  0.77863500  0.29362700  0.02337200  1
  O  O23  1  0.72136500  0.20637400  0.52337200  1
  O  O24  1  0.74445200  0.93540300  0.27600100  1
  O  O25  1  0.75554800  0.56459800  0.77600100  1
  O  O26  1  0.25554900  0.06459800  0.72399900  1
  O  O27  1  0.24445200  0.43540200  0.22399900  1
  O  O28  1  0.46886500  0.05192300  0.19004300  1
  O  O29  1  0.03113500  0.44807900  0.69004300  1
  O  O30  1  0.53113600  0.94807800  0.80995700  1
  O  O31  1  0.96886600  0.55192300  0.30995700  1
  O  O32  1  0.09528300  0.03398300  0.20912300  1
  O  O33  1  0.40471800  0.46601700  0.70912300  1
  O  O34  1  0.90471800  0.96601700  0.79087700  1
  O  O35  1  0.59528200  0.53398300  0.29087700  1
  O  O36  1  0.73105600  0.79429300  0.15820500  1
  O  O37  1  0.76894500  0.70570600  0.65820500  1
  O  O38  1  0.26894500  0.20570600  0.84179500  1
  O  O39  1  0.23105500  0.29429400  0.34179500  1
  O  O40  1  0.79562800  0.30454900  0.23921500  1
  O  O41  1  0.70437300  0.19545100  0.73921500  1
  O  O42  1  0.20437300  0.69545100  0.76078500  1
  O  O43  1  0.29562700  0.80454900  0.26078500  1
  O  O44  1  0.85437200  0.18125500  0.12473300  1
  O  O45  1  0.64562800  0.31874600  0.62473300  1
  O  O46  1  0.14562700  0.81874500  0.87526700  1
  O  O47  1  0.35437300  0.68125500  0.37526700  1
  O  O48  1  0.79034400  0.51276800  0.44022500  1
  O  O49  1  0.70965600  0.98723200  0.94022600  1
  O  O50  1  0.20965700  0.48723100  0.55977500  1
  O  O51  1  0.78698200  0.23393300  0.84694900  1
loop_
_geom_bond_atom_site_label_1
_geom_bond_atom_site_label_2
_geom_bond_distance
_geom_bond_site_symmetry_2
Ag0 O4 2.418554 1_555
Ag0 O27 2.445005 1_555
Ag0 O28 2.476914 1_555
Ag0 O18 2.588666 1_555
Ag0 O2 2.706927 1_555
Ag1 O5 2.418565 1_555
Ag1 O26 2.445009 1_555
Ag1 O29 2.476922 1_555
Ag1 O50 2.588652 1_555
Ag1 O3 2.706933 1_455
Ag2 O6 2.418574 1_555
Ag2 O25 2.445012 1_555
Ag2 O30 2.476905 1_555
Ag2 O49 2.588661 1_555
Ag2 O0 2.706932 1_555
Ag3 O7 2.418565 1_555
Ag3 O24 2.445012 1_555
Ag3 O31 2.476911 1_555
Ag3 O48 2.588652 1_555
Ag3 O1 2.706938 1_655
Mo0 O48 1.712198 1_555
Mo0 O23 2.033363 1_555
Mo0 O19 2.039186 1_555
Mo0 O15 2.052163 1_655
Mo0 O11 2.065211 1_555
Mo0 O7 2.294762 1_545
Mo1 O25 1.710987 1_555
Mo1 O41 2.058144 1_555
Mo1 O37 2.059527 1_555
Mo1 O33 2.065625 1_555
Mo1 O29 2.068143 1_655
Mo1 O45 2.178529 1_555
Mo2 O26 1.710988 1_565
Mo2 O42 2.058144 1_555
Mo2 O38 2.059527 1_565
Mo2 O34 2.065625 1_455
Mo2 O30 2.068151 1_555
Mo2 O46 2.178534 1_555
Mo3 O27 1.710987 1_555
Mo3 O43 2.058144 1_555
Mo3 O39 2.059527 1_555
Mo3 O35 2.065625 1_555
Mo3 O31 2.068140 1_455
Mo3 O47 2.178534 1_555
Mo4 O18 1.712204 1_565
Mo4 O20 2.033341 1_554
Mo4 O16 2.039209 1_555
Mo4 O12 2.052154 1_555
Mo4 O8 2.065223 1_455
Mo4 O4 2.294771 1_555
Mo5 O50 1.712204 1_555
Mo5 O21 2.033364 1_555
Mo5 O17 2.039187 1_555
Mo5 O13 2.052160 1_455
Mo5 O9 2.065219 1_555
Mo5 O5 2.294763 1_565
Mo6 O49 1.712205 1_545
Mo6 O22 2.033341 1_556
Mo6 O51 2.039209 1_555
Mo6 O14 2.052154 1_555
Mo6 O10 2.065218 1_655
Mo6 O6 2.294760 1_555
Mo7 O24 1.710984 1_545
Mo7 O40 2.058143 1_555
Mo7 O36 2.059533 1_545
Mo7 O32 2.065638 1_655
Mo7 O28 2.068140 1_555
Mo7 O44 2.178534 1_555
O0 P0 1.620913 1_555
O0 P4 1.639549 1_555
O1 P1 1.620905 1_565
O1 P5 1.639525 1_555
O2 P2 1.620914 1_555
O2 P6 1.639538 1_555
O3 P3 1.620892 1_545
O3 P7 1.639530 1_555
O4 P6 1.537497 1_455
O5 P7 1.537512 1_555
O6 P4 1.537503 1_655
O7 P5 1.537503 1_555
O8 P2 1.531515 1_555
O9 P3 1.531536 1_555
O10 P0 1.531512 1_555
O11 P1 1.531529 1_555
O12 P2 1.526809 1_555
O13 P3 1.526815 1_555
O14 P0 1.526816 1_555
O15 P1 1.526821 1_555
O16 P8 1.545346 1_555
O17 P11 1.545340 1_555
O19 P9 1.545340 1_555
O20 P4 1.529026 1_555
O21 P5 1.529022 1_555
O22 P6 1.529025 1_555
O23 P7 1.529022 1_555
O28 P8 1.570654 1_545
O29 P11 1.570659 1_555
O30 P10 1.570654 1_565
O31 P9 1.570663 1_555
O32 P8 1.541706 1_545
O33 P11 1.541705 1_555
O34 P10 1.541711 1_565
O35 P9 1.541706 1_555
O36 P2 1.520449 1_555
O37 P3 1.520435 1_555
O38 P0 1.520452 1_555
O39 P1 1.520432 1_555
O40 P9 1.534111 1_555
O41 P10 1.534106 1_555
O42 P11 1.534107 1_555
O43 P8 1.534108 1_555
O44 P6 1.515527 1_555
O45 P7 1.515528 1_555
O46 P4 1.515516 1_555
O47 P5 1.515528 1_555
O51 P10 1.545341 1_555
