# generated using pymatgen
data_KCaGdWO6
_symmetry_space_group_name_H-M   'P 1'
_cell_length_a   5.94905716
_cell_length_b   5.94905716
_cell_length_c   5.94905716
_cell_angle_alpha   60.00000000
_cell_angle_beta   60.00000000
_cell_angle_gamma   60.00000000
_symmetry_Int_Tables_number   1
_chemical_formula_structural   KCaGdWO6
_chemical_formula_sum   'K1 Ca1 Gd1 W1 O6'
_cell_volume   148.87762348
_cell_formula_units_Z   1
loop_
 _symmetry_equiv_pos_site_id
 _symmetry_equiv_pos_as_xyz
  1  'x, y, z'
loop_
 _atom_site_type_symbol
 _atom_site_label
 _atom_site_symmetry_multiplicity
 _atom_site_fract_x
 _atom_site_fract_y
 _atom_site_fract_z
 _atom_site_occupancy
  K  K0  1  0.25000000  0.25000000  0.25000000  1
  Ca  Ca0  1  0.75000000  0.75000000  0.75000000  1
  Gd  Gd0  1  0.00000000  0.00000000  0.00000000  1
  W  W0  1  0.50000000  0.50000000  0.50000000  1
  O  O0  1  0.73174509  0.26825491  0.26825491  1
  O  O1  1  0.26825491  0.73174509  0.73174509  1
  O  O2  1  0.73174509  0.26825491  0.73174509  1
  O  O3  1  0.26825491  0.73174509  0.26825491  1
  O  O4  1  0.73174509  0.73174509  0.26825491  1
  O  O5  1  0.26825491  0.26825491  0.73174509  1
loop_
_geom_bond_atom_site_label_1
_geom_bond_atom_site_label_2
_geom_bond_distance
_geom_bond_site_symmetry_2
K0 O0 2.978491 1_555
K0 O4 2.978491 1_455
K0 O1 2.978491 1_554
K0 O3 2.978491 1_545
K0 O2 2.978491 1_455
K0 O2 2.978491 1_554
K0 O5 2.978491 1_555
K0 O5 2.978491 1_554
K0 O0 2.978491 1_455
K0 O4 2.978491 1_545
K0 O3 2.978491 1_555
K0 O1 2.978491 1_545
Ca0 O2 2.978491 1_555
Ca0 O3 2.978491 1_556
Ca0 O0 2.978491 1_556
Ca0 O2 2.978491 1_565
Ca0 O1 2.978491 1_555
Ca0 O3 2.978491 1_655
Ca0 O4 2.978491 1_555
Ca0 O4 2.978491 1_556
Ca0 O0 2.978491 1_565
Ca0 O5 2.978491 1_655
Ca0 O5 2.978491 1_565
Ca0 O1 2.978491 1_655
Gd0 O3 2.256892 1_545
Gd0 O2 2.256892 1_454
Gd0 O4 2.256892 1_445
Gd0 O1 2.256892 1_544
Gd0 O5 2.256892 1_554
Gd0 O0 2.256892 1_455
O0 W0 1.949726 1_555
O1 W0 1.949726 1_555
O2 W0 1.949726 1_555
O3 W0 1.949726 1_555
O4 W0 1.949726 1_555
O5 W0 1.949726 1_555
