# generated using pymatgen
data_Cs2Te4O9
_symmetry_space_group_name_H-M   'P 1'
_cell_length_a   13.01418385
_cell_length_b   13.01418385
_cell_length_c   13.01418385
_cell_angle_alpha   130.18087046
_cell_angle_beta   130.18087046
_cell_angle_gamma   73.11777884
_symmetry_Int_Tables_number   1
_chemical_formula_structural   Cs2Te4O9
_chemical_formula_sum   'Cs8 Te16 O36'
_cell_volume   1256.34598325
_cell_formula_units_Z   4
loop_
 _symmetry_equiv_pos_site_id
 _symmetry_equiv_pos_as_xyz
  1  'x, y, z'
loop_
 _atom_site_type_symbol
 _atom_site_label
 _atom_site_symmetry_multiplicity
 _atom_site_fract_x
 _atom_site_fract_y
 _atom_site_fract_z
 _atom_site_occupancy
  Cs  Cs0  1  0.37500000  0.40337100  0.52837100  1
  Cs  Cs1  1  0.87500000  0.84662900  0.47162900  1
  Cs  Cs2  1  0.15337100  0.62500000  0.02837100  1
  Cs  Cs3  1  0.59662900  0.12500000  0.97162900  1
  Cs  Cs4  1  0.50517400  0.00517400  0.50000000  1
  Cs  Cs5  1  0.24482600  0.24482600  0.00000000  1
  Cs  Cs6  1  0.99482600  0.49482600  0.50000000  1
  Cs  Cs7  1  0.75517400  0.75517400  0.00000000  1
  Te  Te0  1  0.18335900  0.93533500  0.99699400  1
  Te  Te1  1  0.56664100  0.06363500  0.25197600  1
  Te  Te2  1  0.93834100  0.18636500  0.00300600  1
  Te  Te3  1  0.81165900  0.31466500  0.74802400  1
  Te  Te4  1  0.81363500  0.81664100  0.75197600  1
  Te  Te5  1  0.93636500  0.18834100  0.50300600  1
  Te  Te6  1  0.06466500  0.06165900  0.24802400  1
  Te  Te7  1  0.68533500  0.43335900  0.49699400  1
  Te  Te8  1  0.46324100  0.70722900  0.02743200  1
  Te  Te9  1  0.28675900  0.81419100  0.74398800  1
  Te  Te10  1  0.67979800  0.43580900  0.97256800  1
  Te  Te11  1  0.07020200  0.54277100  0.25601200  1
  Te  Te12  1  0.56419100  0.53675900  0.24398800  1
  Te  Te13  1  0.18580900  0.92979800  0.47256800  1
  Te  Te14  1  0.29277100  0.32020200  0.75601200  1
  Te  Te15  1  0.45722900  0.71324100  0.52743200  1
  O  O0  1  0.52460900  0.71974500  0.21113500  1
  O  O1  1  0.22539100  0.93652700  0.69513600  1
  O  O2  1  0.50861000  0.31347300  0.78886500  1
  O  O3  1  0.24139000  0.53025500  0.30486400  1
  O  O4  1  0.68652700  0.47539100  0.19513600  1
  O  O5  1  0.06347300  0.75861000  0.28886500  1
  O  O6  1  0.28025500  0.49139000  0.80486400  1
  O  O7  1  0.46974500  0.77460900  0.71113500  1
  O  O8  1  0.04559300  0.80650200  0.89608000  1
  O  O9  1  0.70440700  0.10048800  0.26090900  1
  O  O10  1  0.91042200  0.14951200  0.10392000  1
  O  O11  1  0.83957800  0.44349800  0.73909100  1
  O  O12  1  0.85048800  0.95440700  0.76090900  1
  O  O13  1  0.89951200  0.16042200  0.60392000  1
  O  O14  1  0.19349800  0.08957800  0.23909100  1
  O  O15  1  0.55650200  0.29559300  0.39608000  1
  O  O16  1  0.34039000  0.87900200  0.11329400  1
  O  O17  1  0.40961000  0.02290300  0.03861200  1
  O  O18  1  0.76570800  0.22709700  0.88670600  1
  O  O19  1  0.98429200  0.37099800  0.96138800  1
  O  O20  1  0.77290300  0.65961000  0.53861200  1
  O  O21  1  0.97709700  0.01570800  0.38670600  1
  O  O22  1  0.12099800  0.23429200  0.46138800  1
  O  O23  1  0.62900200  0.59039000  0.61329400  1
  O  O24  1  0.15160700  0.81224800  0.76892500  1
  O  O25  1  0.59839300  0.86731800  0.16064100  1
  O  O26  1  0.04332300  0.38268200  0.23107500  1
  O  O27  1  0.70667700  0.43775200  0.83935900  1
  O  O28  1  0.61731800  0.84839300  0.66064100  1
  O  O29  1  0.13268200  0.29332300  0.73107500  1
  O  O30  1  0.18775200  0.95667700  0.33935900  1
  O  O31  1  0.56224800  0.40160700  0.26892500  1
  O  O32  1  0.60324600  0.60324600  0.00000000  1
  O  O33  1  0.14675400  0.64675400  0.50000000  1
  O  O34  1  0.39675400  0.39675400  0.00000000  1
  O  O35  1  0.35324600  0.85324600  0.50000000  1
loop_
_geom_bond_atom_site_label_1
_geom_bond_atom_site_label_2
_geom_bond_distance
_geom_bond_site_symmetry_2
Cs0 O15 3.273877 1_555
Cs0 O14 3.273877 1_555
Cs0 O26 3.384417 1_555
Cs0 O27 3.384417 1_555
Cs0 O3 3.494986 1_555
Cs0 O2 3.494997 1_555
Cs1 O12 3.273868 1_555
Cs1 O13 3.273876 1_565
Cs1 O25 3.384417 1_555
Cs1 O24 3.384417 1_655
Cs1 O0 3.494986 1_555
Cs1 O1 3.494988 1_655
Cs2 O8 3.273877 1_554
Cs2 O11 3.273877 1_454
Cs2 O30 3.384417 1_555
Cs2 O29 3.384417 1_554
Cs2 O6 3.494986 1_554
Cs2 O5 3.494997 1_555
Cs3 O9 3.273868 1_556
Cs3 O10 3.273876 1_556
Cs3 O31 3.384417 1_556
Cs3 O28 3.384417 1_545
Cs3 O7 3.494986 1_545
Cs3 O4 3.494988 1_556
Cs4 O16 3.174532 1_545
Cs4 O18 3.174534 1_555
Cs4 O35 3.176383 1_545
Cs4 O28 3.240588 1_545
Cs4 O30 3.240588 1_545
Cs4 O2 3.264413 1_555
Cs4 O0 3.264419 1_545
Cs5 O19 3.174532 1_454
Cs5 O17 3.174542 1_555
Cs5 O34 3.176383 1_555
Cs5 O31 3.240588 1_555
Cs5 O29 3.240588 1_554
Cs5 O1 3.264413 1_544
Cs5 O3 3.264419 1_555
Cs6 O22 3.174532 1_655
Cs6 O20 3.174542 1_555
Cs6 O33 3.176383 1_655
Cs6 O26 3.240588 1_655
Cs6 O24 3.240588 1_655
Cs6 O4 3.264413 1_555
Cs6 O6 3.264419 1_655
Cs7 O23 3.174532 1_554
Cs7 O21 3.174534 1_565
Cs7 O32 3.176383 1_555
Cs7 O27 3.240588 1_554
Cs7 O25 3.240588 1_555
Cs7 O5 3.264413 1_655
Cs7 O7 3.264419 1_554
O0 Te8 1.867945 1_555
O0 Te12 2.537017 1_555
O1 Te9 1.867957 1_555
O1 Te13 2.537017 1_555
O2 Te10 1.867958 1_555
O2 Te14 2.537017 1_555
O3 Te11 1.867957 1_555
O3 Te15 2.537017 1_555
O4 Te12 1.867957 1_555
O4 Te10 2.537017 1_554
O5 Te13 1.867958 1_555
O5 Te11 2.537017 1_555
O6 Te14 1.867957 1_555
O6 Te8 2.537017 1_556
O7 Te15 1.867945 1_555
O7 Te9 2.537017 1_555
O8 Te0 1.901730 1_555
O8 Te4 2.330211 1_455
O9 Te1 1.901736 1_555
O9 Te5 2.330211 1_555
O10 Te2 1.901739 1_555
O10 Te6 2.330201 1_655
O11 Te3 1.901730 1_555
O11 Te7 2.330211 1_555
O12 Te4 1.901736 1_555
O12 Te2 2.330211 1_566
O13 Te5 1.901739 1_555
O13 Te3 2.330201 1_555
O14 Te6 1.901730 1_555
O14 Te0 2.330211 1_544
O15 Te7 1.901730 1_555
O15 Te1 2.330211 1_555
O16 Te0 1.890769 1_554
O16 Te8 2.410038 1_555
O17 Te1 1.890764 1_555
O17 Te9 2.410034 1_544
O18 Te2 1.890775 1_556
O18 Te10 2.410023 1_555
O19 Te3 1.890769 1_555
O19 Te11 2.410042 1_656
O20 Te4 1.890764 1_555
O20 Te12 2.410034 1_555
O21 Te5 1.890775 1_555
O21 Te13 2.410023 1_645
O22 Te6 1.890769 1_555
O22 Te14 2.410042 1_555
O23 Te7 1.890769 1_555
O23 Te15 2.410038 1_555
O24 Te9 1.993158 1_555
O24 Te0 2.052559 1_555
O25 Te8 1.993158 1_555
O25 Te1 2.052559 1_565
O26 Te11 1.993153 1_555
O26 Te2 2.052559 1_455
O27 Te10 1.993149 1_555
O27 Te3 2.052559 1_555
O28 Te15 1.993158 1_555
O28 Te4 2.052559 1_555
O29 Te14 1.993153 1_555
O29 Te5 2.052559 1_455
O30 Te13 1.993149 1_555
O30 Te6 2.052559 1_565
O31 Te12 1.993158 1_555
O31 Te7 2.052559 1_555
O32 Te8 2.015560 1_555
O32 Te10 2.015563 1_554
O33 Te11 2.015555 1_555
O33 Te9 2.015560 1_555
O34 Te14 2.015555 1_554
O34 Te12 2.015560 1_555
O35 Te15 2.015560 1_555
O35 Te13 2.015563 1_555
