# generated using pymatgen
data_MnBiO3
_symmetry_space_group_name_H-M   'P 1'
_cell_length_a   5.67085500
_cell_length_b   11.40494800
_cell_length_c   15.84574400
_cell_angle_alpha   90.00000000
_cell_angle_beta   90.00000000
_cell_angle_gamma   90.00000000
_symmetry_Int_Tables_number   1
_chemical_formula_structural   MnBiO3
_chemical_formula_sum   'Mn16 Bi16 O48'
_cell_volume   1024.83627106
_cell_formula_units_Z   16
loop_
 _symmetry_equiv_pos_site_id
 _symmetry_equiv_pos_as_xyz
  1  'x, y, z'
loop_
 _atom_site_type_symbol
 _atom_site_label
 _atom_site_symmetry_multiplicity
 _atom_site_fract_x
 _atom_site_fract_y
 _atom_site_fract_z
 _atom_site_occupancy
  Mn  Mn0  1  0.50256700  0.12983700  0.62449100  1
  Mn  Mn1  1  0.50256700  0.12983700  0.37550900  1
  Mn  Mn2  1  0.49743300  0.62983700  0.87550900  1
  Mn  Mn3  1  0.49743300  0.62983700  0.12449100  1
  Mn  Mn4  1  0.99032100  0.38191000  0.37562200  1
  Mn  Mn5  1  0.99032100  0.38191000  0.62437800  1
  Mn  Mn6  1  0.00967900  0.88191000  0.12437800  1
  Mn  Mn7  1  0.00967900  0.88191000  0.87562200  1
  Mn  Mn8  1  0.99828800  0.38158100  0.12508500  1
  Mn  Mn9  1  0.99828800  0.38158100  0.87491500  1
  Mn  Mn10  1  0.00171200  0.88158100  0.37491500  1
  Mn  Mn11  1  0.00171200  0.88158100  0.62508500  1
  Mn  Mn12  1  0.49543300  0.63135800  0.37453800  1
  Mn  Mn13  1  0.49543300  0.63135800  0.62546200  1
  Mn  Mn14  1  0.50456700  0.13135800  0.12546200  1
  Mn  Mn15  1  0.50456700  0.13135800  0.87453800  1
  Bi  Bi0  1  0.94207300  0.63487700  0.50000000  1
  Bi  Bi1  1  0.05792700  0.13487700  0.00000000  1
  Bi  Bi2  1  0.53930800  0.37019000  0.50000000  1
  Bi  Bi3  1  0.46069200  0.87019000  0.00000000  1
  Bi  Bi4  1  0.44321200  0.87993900  0.50000000  1
  Bi  Bi5  1  0.55678800  0.37993900  0.00000000  1
  Bi  Bi6  1  0.03711000  0.14601700  0.50000000  1
  Bi  Bi7  1  0.96289000  0.64601700  0.00000000  1
  Bi  Bi8  1  0.04000800  0.62237000  0.25181100  1
  Bi  Bi9  1  0.04000800  0.62237000  0.74818900  1
  Bi  Bi10  1  0.95999200  0.12237000  0.24818900  1
  Bi  Bi11  1  0.95999200  0.12237000  0.75181100  1
  Bi  Bi12  1  0.55176200  0.38406200  0.24612000  1
  Bi  Bi13  1  0.55176200  0.38406200  0.75388000  1
  Bi  Bi14  1  0.44823800  0.88406200  0.25388000  1
  Bi  Bi15  1  0.44823800  0.88406200  0.74612000  1
  O  O0  1  0.27949500  0.00773700  0.65447400  1
  O  O1  1  0.27949500  0.00773700  0.34552600  1
  O  O2  1  0.72050500  0.50773700  0.84552600  1
  O  O3  1  0.72050500  0.50773700  0.15447400  1
  O  O4  1  0.56237400  0.17007700  0.74789300  1
  O  O5  1  0.56237400  0.17007700  0.25210700  1
  O  O6  1  0.43762600  0.67007700  0.75210700  1
  O  O7  1  0.43762600  0.67007700  0.24789300  1
  O  O8  1  0.27555900  0.77437700  0.39585800  1
  O  O9  1  0.27555900  0.77437700  0.60414200  1
  O  O10  1  0.72444100  0.27437700  0.10414200  1
  O  O11  1  0.72444100  0.27437700  0.89585800  1
  O  O12  1  0.71796300  0.49006300  0.35107800  1
  O  O13  1  0.71796300  0.49006300  0.64892200  1
  O  O14  1  0.28203700  0.99006300  0.14892200  1
  O  O15  1  0.28203700  0.99006300  0.85107800  1
  O  O16  1  0.21516400  0.52792200  0.35995100  1
  O  O17  1  0.21516400  0.52792200  0.64004900  1
  O  O18  1  0.78483600  0.02792200  0.14004900  1
  O  O19  1  0.78483600  0.02792200  0.85995100  1
  O  O20  1  0.22448300  0.25647200  0.40020800  1
  O  O21  1  0.22448300  0.25647200  0.59979200  1
  O  O22  1  0.77551700  0.75647200  0.09979200  1
  O  O23  1  0.77551700  0.75647200  0.90020800  1
  O  O24  1  0.72375000  0.25206000  0.40670200  1
  O  O25  1  0.72375000  0.25206000  0.59329800  1
  O  O26  1  0.27625000  0.75206000  0.09329800  1
  O  O27  1  0.27625000  0.75206000  0.90670200  1
  O  O28  1  0.94853000  0.34031100  0.25141600  1
  O  O29  1  0.94853000  0.34031100  0.74858400  1
  O  O30  1  0.05147000  0.84031100  0.24858400  1
  O  O31  1  0.05147000  0.84031100  0.75141600  1
  O  O32  1  0.22559700  0.23627400  0.11000200  1
  O  O33  1  0.22559700  0.23627400  0.88999800  1
  O  O34  1  0.77440300  0.73627400  0.38999800  1
  O  O35  1  0.77440300  0.73627400  0.61000200  1
  O  O36  1  0.21804100  0.51071600  0.14810000  1
  O  O37  1  0.21804100  0.51071600  0.85190000  1
  O  O38  1  0.78195900  0.01071600  0.35190000  1
  O  O39  1  0.78195900  0.01071600  0.64810000  1
  O  O40  1  0.95129500  0.42174000  0.00000000  1
  O  O41  1  0.04870500  0.92174000  0.50000000  1
  O  O42  1  0.44122800  0.08822700  0.50000000  1
  O  O43  1  0.55877200  0.58822700  0.00000000  1
  O  O44  1  0.54809100  0.59420200  0.50000000  1
  O  O45  1  0.45190900  0.09420200  0.00000000  1
  O  O46  1  0.93945000  0.42395100  0.50000000  1
  O  O47  1  0.06055000  0.92395100  0.00000000  1
loop_
_geom_bond_atom_site_label_1
_geom_bond_atom_site_label_2
_geom_bond_distance
_geom_bond_site_symmetry_2
Mn0 O25 1.939241 1_555
Mn0 O0 1.940399 1_555
Mn0 O4 2.036964 1_555
Mn0 O42 2.058534 1_555
Mn0 O39 2.120367 1_555
Mn0 O21 2.173919 1_555
Mn1 O24 1.939241 1_555
Mn1 O1 1.940399 1_555
Mn1 O5 2.036964 1_555
Mn1 O42 2.058534 1_555
Mn1 O38 2.120367 1_555
Mn1 O20 2.173919 1_555
Mn2 O27 1.939241 1_555
Mn2 O2 1.940399 1_555
Mn2 O6 2.036964 1_555
Mn2 O43 2.058534 1_556
Mn2 O37 2.120367 1_555
Mn2 O23 2.173919 1_555
Mn3 O26 1.939241 1_555
Mn3 O3 1.940399 1_555
Mn3 O7 2.036964 1_555
Mn3 O43 2.058534 1_555
Mn3 O36 2.120367 1_555
Mn3 O22 2.173919 1_555
Mn4 O20 1.990414 1_655
Mn4 O12 2.014502 1_555
Mn4 O28 2.038336 1_555
Mn4 O46 2.048759 1_555
Mn4 O16 2.111992 1_655
Mn4 O24 2.172762 1_555
Mn5 O21 1.990414 1_655
Mn5 O13 2.014502 1_555
Mn5 O29 2.038336 1_555
Mn5 O46 2.048759 1_555
Mn5 O17 2.111992 1_655
Mn5 O25 2.172762 1_555
Mn6 O22 1.990414 1_455
Mn6 O14 2.014502 1_555
Mn6 O30 2.038336 1_555
Mn6 O47 2.048759 1_555
Mn6 O18 2.111992 1_465
Mn6 O26 2.172762 1_555
Mn7 O23 1.990414 1_455
Mn7 O15 2.014502 1_555
Mn7 O31 2.038336 1_555
Mn7 O47 2.048759 1_556
Mn7 O19 2.111992 1_465
Mn7 O27 2.172762 1_555
Mn8 O36 1.963430 1_655
Mn8 O10 2.004161 1_555
Mn8 O40 2.051676 1_555
Mn8 O28 2.075669 1_555
Mn8 O32 2.113081 1_655
Mn8 O3 2.183687 1_555
Mn9 O37 1.963430 1_655
Mn9 O11 2.004161 1_555
Mn9 O40 2.051676 1_556
Mn9 O29 2.075669 1_555
Mn9 O33 2.113081 1_655
Mn9 O2 2.183687 1_555
Mn10 O38 1.963430 1_465
Mn10 O8 2.004161 1_555
Mn10 O41 2.051676 1_555
Mn10 O30 2.075669 1_555
Mn10 O34 2.113081 1_455
Mn10 O1 2.183687 1_565
Mn11 O39 1.963430 1_465
Mn11 O9 2.004161 1_555
Mn11 O41 2.051676 1_555
Mn11 O31 2.075669 1_555
Mn11 O35 2.113081 1_455
Mn11 O0 2.183687 1_565
Mn12 O16 1.992776 1_555
Mn12 O34 1.998622 1_555
Mn12 O44 2.054518 1_555
Mn12 O12 2.080260 1_555
Mn12 O8 2.080719 1_555
Mn12 O7 2.080780 1_555
Mn13 O17 1.992776 1_555
Mn13 O35 1.998622 1_555
Mn13 O44 2.054518 1_555
Mn13 O13 2.080260 1_555
Mn13 O9 2.080719 1_555
Mn13 O6 2.080780 1_555
Mn14 O18 1.992776 1_555
Mn14 O32 1.998622 1_555
Mn14 O45 2.054518 1_555
Mn14 O14 2.080260 1_545
Mn14 O10 2.080719 1_555
Mn14 O5 2.080780 1_555
Mn15 O19 1.992776 1_555
Mn15 O33 1.998622 1_555
Mn15 O45 2.054518 1_556
Mn15 O15 2.080260 1_545
Mn15 O11 2.080719 1_555
Mn15 O4 2.080780 1_555
Bi0 O44 2.281867 1_555
Bi0 O35 2.297755 1_555
Bi0 O34 2.297755 1_555
Bi0 O46 2.405646 1_555
Bi1 O45 2.281867 1_555
Bi1 O32 2.297755 1_555
Bi1 O33 2.297755 1_554
Bi1 O47 2.405646 1_545
Bi2 O25 2.257149 1_555
Bi2 O24 2.257149 1_555
Bi2 O46 2.350526 1_555
Bi2 O44 2.555331 1_555
Bi2 O20 2.714757 1_555
Bi2 O21 2.714757 1_555
Bi3 O26 2.257149 1_555
Bi3 O27 2.257149 1_554
Bi3 O47 2.350526 1_555
Bi3 O45 2.555331 1_565
Bi3 O22 2.714757 1_555
Bi3 O23 2.714757 1_554
Bi4 O9 2.253115 1_555
Bi4 O8 2.253115 1_555
Bi4 O41 2.287424 1_555
Bi4 O42 2.375540 1_565
Bi5 O10 2.253115 1_555
Bi5 O11 2.253115 1_554
Bi5 O40 2.287424 1_555
Bi5 O43 2.375540 1_555
Bi6 O21 2.283947 1_555
Bi6 O20 2.283947 1_555
Bi6 O42 2.384589 1_555
Bi6 O41 2.558713 1_545
Bi6 O24 2.608846 1_455
Bi6 O25 2.608846 1_455
Bi7 O22 2.283947 1_555
Bi7 O23 2.283947 1_554
Bi7 O43 2.384589 1_555
Bi7 O40 2.558713 1_555
Bi7 O26 2.608846 1_655
Bi7 O27 2.608846 1_654
Bi8 O16 2.254596 1_555
Bi8 O36 2.311179 1_555
Bi8 O7 2.320382 1_555
Bi8 O30 2.486981 1_555
Bi8 O3 2.714958 1_455
Bi9 O17 2.254596 1_555
Bi9 O37 2.311179 1_555
Bi9 O6 2.320382 1_555
Bi9 O31 2.486981 1_555
Bi9 O2 2.714958 1_455
Bi10 O18 2.254596 1_555
Bi10 O38 2.311179 1_555
Bi10 O5 2.320382 1_555
Bi10 O28 2.486981 1_555
Bi10 O1 2.714958 1_655
Bi11 O19 2.254596 1_555
Bi11 O39 2.311179 1_555
Bi11 O4 2.320382 1_555
Bi11 O29 2.486981 1_555
Bi11 O0 2.714958 1_655
Bi12 O3 2.239219 1_555
Bi12 O12 2.261827 1_555
Bi12 O28 2.306205 1_555
Bi12 O5 2.443072 1_555
Bi13 O2 2.239219 1_555
Bi13 O13 2.261827 1_555
Bi13 O29 2.306205 1_555
Bi13 O4 2.443072 1_555
Bi14 O1 2.239219 1_565
Bi14 O14 2.261827 1_555
Bi14 O30 2.306205 1_555
Bi14 O7 2.443072 1_555
Bi15 O0 2.239219 1_565
Bi15 O15 2.261827 1_555
Bi15 O31 2.306205 1_555
Bi15 O6 2.443072 1_555
