# generated using pymatgen
data_Mn2(Ni7B2)3
_symmetry_space_group_name_H-M   'P 1'
_cell_length_a   7.35765819
_cell_length_b   7.35765819
_cell_length_c   7.35765819
_cell_angle_alpha   60.00000000
_cell_angle_beta   60.00000000
_cell_angle_gamma   60.00000000
_symmetry_Int_Tables_number   1
_chemical_formula_structural   Mn2(Ni7B2)3
_chemical_formula_sum   'Mn2 Ni21 B6'
_cell_volume   281.64615514
_cell_formula_units_Z   1
loop_
 _symmetry_equiv_pos_site_id
 _symmetry_equiv_pos_as_xyz
  1  'x, y, z'
loop_
 _atom_site_type_symbol
 _atom_site_label
 _atom_site_symmetry_multiplicity
 _atom_site_fract_x
 _atom_site_fract_y
 _atom_site_fract_z
 _atom_site_occupancy
  Mn  Mn0  1  0.75000000  0.75000000  0.75000000  1
  Mn  Mn1  1  0.25000000  0.25000000  0.25000000  1
  Ni  Ni0  1  0.00000000  0.00000000  0.00000000  1
  Ni  Ni1  1  0.61923200  0.61923200  0.14230300  1
  Ni  Ni2  1  0.61923200  0.14230300  0.61923200  1
  Ni  Ni3  1  0.14230300  0.61923200  0.61923200  1
  Ni  Ni4  1  0.61923200  0.61923200  0.61923200  1
  Ni  Ni5  1  0.38076800  0.38076800  0.85769700  1
  Ni  Ni6  1  0.38076800  0.85769700  0.38076800  1
  Ni  Ni7  1  0.85769700  0.38076800  0.38076800  1
  Ni  Ni8  1  0.38076800  0.38076800  0.38076800  1
  Ni  Ni9  1  0.00000000  0.00000000  0.34026300  1
  Ni  Ni10  1  0.65973700  0.00000000  0.34026300  1
  Ni  Ni11  1  0.00000000  0.65973700  0.34026300  1
  Ni  Ni12  1  0.65973700  0.34026300  0.00000000  1
  Ni  Ni13  1  0.00000000  0.34026300  0.00000000  1
  Ni  Ni14  1  0.00000000  0.34026300  0.65973700  1
  Ni  Ni15  1  0.34026300  0.65973700  0.00000000  1
  Ni  Ni16  1  0.34026300  0.00000000  0.65973700  1
  Ni  Ni17  1  0.34026300  0.00000000  0.00000000  1
  Ni  Ni18  1  0.00000000  0.00000000  0.65973700  1
  Ni  Ni19  1  0.00000000  0.65973700  0.00000000  1
  Ni  Ni20  1  0.65973700  0.00000000  0.00000000  1
  B  B0  1  0.73048400  0.73048400  0.26951600  1
  B  B1  1  0.26951600  0.73048400  0.26951600  1
  B  B2  1  0.73048400  0.26951600  0.26951600  1
  B  B3  1  0.26951600  0.26951600  0.73048400  1
  B  B4  1  0.73048400  0.26951600  0.73048400  1
  B  B5  1  0.26951600  0.73048400  0.73048400  1
loop_
_geom_bond_atom_site_label_1
_geom_bond_atom_site_label_2
_geom_bond_distance
_geom_bond_site_symmetry_2
Mn0 Ni1 2.356761 1_556
Mn0 Ni3 2.356761 1_655
Mn0 Ni2 2.356761 1_565
Mn0 Ni4 2.356767 1_555
Mn1 Ni6 2.356761 1_545
Mn1 Ni7 2.356761 1_455
Mn1 Ni5 2.356761 1_554
Mn1 Ni8 2.356767 1_555
Ni0 Ni15 2.503539 1_545
Ni0 Ni14 2.503539 1_554
Ni0 Ni10 2.503539 1_455
Ni0 Ni19 2.503539 1_545
Ni0 Ni13 2.503539 1_555
Ni0 Ni12 2.503539 1_455
Ni0 Ni17 2.503539 1_555
Ni0 Ni20 2.503539 1_455
Ni0 Ni18 2.503539 1_554
Ni0 Ni9 2.503539 1_555
Ni0 Ni11 2.503539 1_545
Ni0 Ni16 2.503539 1_554
B0 Ni11 2.050188 1_655
B0 Ni10 2.050188 1_565
B0 Ni19 2.050188 1_655
B0 Ni20 2.050188 1_565
B0 Ni4 2.102013 1_555
B0 Ni7 2.102014 1_555
B0 Ni6 2.102014 1_555
B0 Ni1 2.102020 1_555
B1 Ni15 2.050188 1_555
B1 Ni17 2.050188 1_565
B1 Ni9 2.050188 1_565
B1 Ni11 2.050188 1_555
B1 Ni8 2.102013 1_555
B1 Ni3 2.102014 1_555
B1 Ni1 2.102014 1_555
B1 Ni6 2.102020 1_555
B2 Ni12 2.050188 1_555
B2 Ni9 2.050188 1_655
B2 Ni10 2.050188 1_555
B2 Ni13 2.050188 1_655
B2 Ni8 2.102013 1_555
B2 Ni2 2.102014 1_555
B2 Ni1 2.102014 1_555
B2 Ni7 2.102020 1_555
B3 Ni13 2.050188 1_556
B3 Ni17 2.050188 1_556
B3 Ni16 2.050188 1_555
B3 Ni14 2.050188 1_555
B3 Ni8 2.102013 1_555
B3 Ni2 2.102014 1_555
B3 Ni3 2.102014 1_555
B3 Ni5 2.102020 1_555
B4 Ni14 2.050188 1_655
B4 Ni20 2.050188 1_556
B4 Ni18 2.050188 1_655
B4 Ni12 2.050188 1_556
B4 Ni4 2.102013 1_555
B4 Ni7 2.102014 1_555
B4 Ni5 2.102014 1_555
B4 Ni2 2.102020 1_555
B5 Ni16 2.050188 1_565
B5 Ni15 2.050188 1_556
B5 Ni19 2.050188 1_556
B5 Ni18 2.050188 1_565
B5 Ni4 2.102013 1_555
B5 Ni6 2.102014 1_555
B5 Ni5 2.102014 1_555
B5 Ni3 2.102020 1_555
