# generated using pymatgen
data_Mg4Si3
_symmetry_space_group_name_H-M   'P 1'
_cell_length_a   4.93037900
_cell_length_b   7.18132703
_cell_length_c   7.84765374
_cell_angle_alpha   94.84708795
_cell_angle_beta   96.34523565
_cell_angle_gamma   100.28080484
_symmetry_Int_Tables_number   1
_chemical_formula_structural   Mg4Si3
_chemical_formula_sum   'Mg8 Si6'
_cell_volume   270.17579139
_cell_formula_units_Z   2
loop_
 _symmetry_equiv_pos_site_id
 _symmetry_equiv_pos_as_xyz
  1  'x, y, z'
loop_
 _atom_site_type_symbol
 _atom_site_label
 _atom_site_symmetry_multiplicity
 _atom_site_fract_x
 _atom_site_fract_y
 _atom_site_fract_z
 _atom_site_occupancy
  Mg  Mg0  1  0.46219800  0.15791400  0.47506300  1
  Mg  Mg1  1  0.80837000  0.09516000  0.80504100  1
  Mg  Mg2  1  0.66020700  0.77968100  0.08195700  1
  Mg  Mg3  1  0.08000900  0.52318900  0.93841900  1
  Mg  Mg4  1  0.64734800  0.69462300  0.61156200  1
  Mg  Mg5  1  0.04110400  0.41326000  0.56678100  1
  Mg  Mg6  1  0.16642800  0.71311500  0.31471500  1
  Mg  Mg7  1  0.98463600  0.22827600  0.19938700  1
  Si  Si0  1  0.46991200  0.24551000  0.03909700  1
  Si  Si1  1  0.92089100  0.99926700  0.45971800  1
  Si  Si2  1  0.18381300  0.92307100  0.99795400  1
  Si  Si3  1  0.52347600  0.39290700  0.78348100  1
  Si  Si4  1  0.20898600  0.85181000  0.68755800  1
  Si  Si5  1  0.59247400  0.48217700  0.28916900  1
loop_
_geom_bond_atom_site_label_1
_geom_bond_atom_site_label_2
_geom_bond_distance
_geom_bond_site_symmetry_2
Mg0 Si1 2.693640 1_445
Mg0 Si1 2.717299 1_545
Mg0 Si3 2.786287 1_555
Mg0 Si5 2.865419 1_555
Mg0 Si4 3.044952 1_545
Mg0 Mg5 3.079264 1_655
Mg0 Mg5 3.107605 1_555
Mg1 Si3 2.766635 1_555
Mg1 Si2 2.785496 1_645
Mg1 Si1 2.877371 1_545
Mg1 Si0 2.882656 1_556
Mg1 Si4 3.027830 1_645
Mg1 Si4 3.149485 1_545
Mg1 Mg5 3.208049 1_655
Mg2 Si2 2.765426 1_554
Mg2 Si2 2.775152 1_654
Mg2 Si5 2.787976 1_555
Mg2 Si1 3.251370 1_555
Mg3 Si2 2.814709 1_555
Mg3 Si3 2.834924 1_455
Mg3 Si3 2.874010 1_555
Mg3 Mg5 2.932423 1_555
Mg3 Si0 3.097586 1_556
Mg3 Si4 3.221104 1_555
Mg4 Si3 2.663027 1_555
Mg4 Si4 2.709807 1_555
Mg4 Si4 2.775466 1_655
Mg4 Si1 2.787062 1_555
Mg4 Si5 2.801945 1_555
Mg4 Mg5 3.066927 1_655
Mg4 Mg5 3.260738 1_555
Mg5 Si3 2.800297 1_555
Mg5 Si1 2.955483 1_445
Mg5 Mg7 3.032864 1_455
Mg5 Si5 3.064577 1_455
Mg5 Mg6 3.073566 1_555
Mg5 Si4 3.145420 1_555
Mg5 Si3 3.208545 1_455
Mg6 Si1 2.789362 1_455
Mg6 Si5 2.912624 1_555
Mg6 Si4 2.982351 1_555
Mg6 Si5 2.990266 1_455
Mg6 Si2 3.015694 1_554
Mg7 Si0 2.733274 1_555
Mg7 Si1 2.739064 1_545
Mg7 Si0 2.812116 1_655
Mg7 Si2 2.965298 1_644
Mg7 Si5 2.983602 1_555
Mg7 Si5 3.188724 1_655
Si0 Si3 2.364383 1_554
Si0 Si5 2.431600 1_555
Si0 Si2 2.462278 1_544
Si1 Si4 2.575150 1_655
Si2 Si4 2.467719 1_555
