# generated using pymatgen
data_KMg14FeO16
_symmetry_space_group_name_H-M   'P 1'
_cell_length_a   8.63577881
_cell_length_b   8.63577881
_cell_length_c   4.38688542
_cell_angle_alpha   90.00000000
_cell_angle_beta   90.00000000
_cell_angle_gamma   90.00000000
_symmetry_Int_Tables_number   1
_chemical_formula_structural   KMg14FeO16
_chemical_formula_sum   'K1 Mg14 Fe1 O16'
_cell_volume   327.15933110
_cell_formula_units_Z   1
loop_
 _symmetry_equiv_pos_site_id
 _symmetry_equiv_pos_as_xyz
  1  'x, y, z'
loop_
 _atom_site_type_symbol
 _atom_site_label
 _atom_site_symmetry_multiplicity
 _atom_site_fract_x
 _atom_site_fract_y
 _atom_site_fract_z
 _atom_site_occupancy
  K  K0  1  0.50000000  0.50000000  0.00000000  1
  Mg  Mg0  1  0.00000000  0.50000000  0.00000000  1
  Mg  Mg1  1  0.50000000  0.00000000  0.00000000  1
  Mg  Mg2  1  0.00000000  0.25382440  0.50000000  1
  Mg  Mg3  1  0.00000000  0.74617560  0.50000000  1
  Mg  Mg4  1  0.50000000  0.25002761  0.50000000  1
  Mg  Mg5  1  0.50000000  0.74997239  0.50000000  1
  Mg  Mg6  1  0.25382440  0.00000000  0.50000000  1
  Mg  Mg7  1  0.25002761  0.50000000  0.50000000  1
  Mg  Mg8  1  0.74617560  0.00000000  0.50000000  1
  Mg  Mg9  1  0.74997239  0.50000000  0.50000000  1
  Mg  Mg10  1  0.25291713  0.25291713  0.00000000  1
  Mg  Mg11  1  0.25291713  0.74708287  0.00000000  1
  Mg  Mg12  1  0.74708287  0.25291713  0.00000000  1
  Mg  Mg13  1  0.74708287  0.74708287  0.00000000  1
  Fe  Fe0  1  0.00000000  0.00000000  0.00000000  1
  O  O0  1  0.23659783  0.00000000  0.00000000  1
  O  O1  1  0.22358121  0.50000000  0.00000000  1
  O  O2  1  0.76340217  0.00000000  0.00000000  1
  O  O3  1  0.77641879  0.50000000  0.00000000  1
  O  O4  1  0.24779271  0.24779271  0.50000000  1
  O  O5  1  0.24779271  0.75220729  0.50000000  1
  O  O6  1  0.75220729  0.24779271  0.50000000  1
  O  O7  1  0.75220729  0.75220729  0.50000000  1
  O  O8  1  0.00000000  0.00000000  0.50000000  1
  O  O9  1  0.00000000  0.50000000  0.50000000  1
  O  O10  1  0.50000000  0.00000000  0.50000000  1
  O  O11  1  0.50000000  0.50000000  0.50000000  1
  O  O12  1  0.00000000  0.23659783  0.00000000  1
  O  O13  1  0.00000000  0.76340217  0.00000000  1
  O  O14  1  0.50000000  0.22358121  0.00000000  1
  O  O15  1  0.50000000  0.77641879  0.00000000  1
loop_
_geom_bond_atom_site_label_1
_geom_bond_atom_site_label_2
_geom_bond_distance
_geom_bond_site_symmetry_2
K0 O11 2.193443 1_554
K0 O11 2.193443 1_555
K0 O14 2.387092 1_555
K0 O3 2.387092 1_555
K0 O1 2.387092 1_555
K0 O15 2.387092 1_555
Mg0 O3 1.930798 1_455
Mg0 O1 1.930798 1_555
Mg0 O9 2.193443 1_554
Mg0 O9 2.193443 1_555
Mg0 O12 2.274683 1_555
Mg0 O13 2.274683 1_555
Mg1 O15 1.930798 1_545
Mg1 O14 1.930798 1_555
Mg1 O10 2.193443 1_555
Mg1 O10 2.193443 1_554
Mg1 O2 2.274683 1_555
Mg1 O0 2.274683 1_555
Mg2 O9 2.125918 1_555
Mg2 O4 2.140517 1_555
Mg2 O6 2.140517 1_455
Mg2 O8 2.191971 1_555
Mg2 O12 2.198482 1_556
Mg2 O12 2.198482 1_555
Mg3 O9 2.125918 1_555
Mg3 O5 2.140517 1_555
Mg3 O7 2.140517 1_455
Mg3 O8 2.191971 1_565
Mg3 O13 2.198482 1_555
Mg3 O13 2.198482 1_556
Mg4 O11 2.158706 1_555
Mg4 O10 2.159183 1_555
Mg4 O4 2.178092 1_555
Mg4 O6 2.178092 1_555
Mg4 O14 2.205301 1_556
Mg4 O14 2.205301 1_555
Mg5 O11 2.158706 1_555
Mg5 O10 2.159183 1_565
Mg5 O7 2.178092 1_555
Mg5 O5 2.178092 1_555
Mg5 O15 2.205301 1_556
Mg5 O15 2.205301 1_555
Mg6 O10 2.125918 1_555
Mg6 O5 2.140517 1_545
Mg6 O4 2.140517 1_555
Mg6 O8 2.191971 1_555
Mg6 O0 2.198482 1_555
Mg6 O0 2.198482 1_556
Mg7 O11 2.158706 1_555
Mg7 O9 2.159183 1_555
Mg7 O4 2.178092 1_555
Mg7 O5 2.178092 1_555
Mg7 O1 2.205301 1_556
Mg7 O1 2.205301 1_555
Mg8 O10 2.125918 1_555
Mg8 O6 2.140517 1_555
Mg8 O7 2.140517 1_545
Mg8 O8 2.191971 1_655
Mg8 O2 2.198482 1_556
Mg8 O2 2.198482 1_555
Mg9 O11 2.158706 1_555
Mg9 O9 2.159183 1_655
Mg9 O6 2.178092 1_555
Mg9 O7 2.178092 1_555
Mg9 O3 2.205301 1_556
Mg9 O3 2.205301 1_555
Mg10 O14 2.148740 1_555
Mg10 O1 2.148740 1_555
Mg10 O12 2.188678 1_555
Mg10 O0 2.188678 1_555
Mg10 O4 2.194335 1_554
Mg10 O4 2.194335 1_555
Mg11 O15 2.148740 1_555
Mg11 O1 2.148740 1_555
Mg11 O0 2.188678 1_565
Mg11 O13 2.188678 1_555
Mg11 O5 2.194335 1_555
Mg11 O5 2.194335 1_554
Mg12 O3 2.148740 1_555
Mg12 O14 2.148740 1_555
Mg12 O12 2.188678 1_655
Mg12 O2 2.188678 1_555
Mg12 O6 2.194335 1_555
Mg12 O6 2.194335 1_554
Mg13 O15 2.148740 1_555
Mg13 O3 2.148740 1_555
Mg13 O13 2.188678 1_655
Mg13 O2 2.188678 1_565
Mg13 O7 2.194335 1_555
Mg13 O7 2.194335 1_554
Fe0 O0 2.043207 1_555
Fe0 O12 2.043207 1_555
Fe0 O2 2.043207 1_455
Fe0 O13 2.043207 1_545
Fe0 O8 2.193443 1_554
Fe0 O8 2.193443 1_555
