# generated using pymatgen
data_TbFe11Re
_symmetry_space_group_name_H-M   'P 1'
_cell_length_a   4.67784600
_cell_length_b   6.46718127
_cell_length_c   6.46718127
_cell_angle_alpha   97.98557595
_cell_angle_beta   111.20220797
_cell_angle_gamma   68.79779203
_symmetry_Int_Tables_number   1
_chemical_formula_structural   TbFe11Re
_chemical_formula_sum   'Tb1 Fe11 Re1'
_cell_volume   170.05036573
_cell_formula_units_Z   1
loop_
 _symmetry_equiv_pos_site_id
 _symmetry_equiv_pos_as_xyz
  1  'x, y, z'
loop_
 _atom_site_type_symbol
 _atom_site_label
 _atom_site_symmetry_multiplicity
 _atom_site_fract_x
 _atom_site_fract_y
 _atom_site_fract_z
 _atom_site_occupancy
  Tb  Tb0  1  0.00562400  0.99437600  0.00562400  1
  Fe  Fe0  1  0.72852500  0.77147500  0.22852500  1
  Fe  Fe1  1  0.27097600  0.22902400  0.77097600  1
  Fe  Fe2  1  0.49837800  0.77719000  0.77394600  1
  Fe  Fe3  1  0.49837800  0.22605400  0.22281000  1
  Fe  Fe4  1  0.50041500  0.99897400  0.49996700  1
  Fe  Fe5  1  0.00057800  0.99897400  0.49996700  1
  Fe  Fe6  1  0.50041500  0.50003300  0.00102600  1
  Fe  Fe7  1  0.00057800  0.50003300  0.00102600  1
  Fe  Fe8  1  0.36015700  0.63984300  0.36015700  1
  Fe  Fe9  1  0.99910300  0.36011500  0.35832100  1
  Fe  Fe10  1  0.99910300  0.64167900  0.63988500  1
  Re  Re0  1  0.63777000  0.36223000  0.63777000  1
loop_
_geom_bond_atom_site_label_1
_geom_bond_atom_site_label_2
_geom_bond_distance
_geom_bond_site_symmetry_2
Fe0 Fe7 2.426245 1_655
Fe0 Fe5 2.426245 1_655
Fe0 Fe6 2.426245 1_555
Fe0 Fe4 2.426245 1_555
Fe0 Fe8 2.596564 1_655
Fe0 Fe8 2.596564 1_555
Fe0 Fe10 2.607765 1_555
Fe0 Fe9 2.607765 1_555
Fe0 Fe2 2.741385 1_554
Fe0 Fe3 2.741385 1_565
Fe0 Tb0 3.019404 1_555
Fe0 Tb0 3.019405 1_655
Fe1 Fe5 2.432770 1_545
Fe1 Fe7 2.432770 1_556
Fe1 Fe4 2.432770 1_545
Fe1 Fe6 2.432770 1_556
Fe1 Re0 2.602448 1_455
Fe1 Re0 2.602448 1_555
Fe1 Fe9 2.617631 1_455
Fe1 Fe10 2.617631 1_455
Fe1 Fe2 2.724522 1_545
Fe1 Fe3 2.724522 1_556
Fe1 Tb0 3.084031 1_646
Fe1 Tb0 3.084032 1_546
Fe2 Fe5 2.434155 1_555
Fe2 Fe4 2.434156 1_555
Fe2 Fe7 2.465455 1_656
Fe2 Fe6 2.465455 1_556
Fe2 Fe8 2.621396 1_555
Fe2 Re0 2.625942 1_555
Fe2 Tb0 3.017026 1_656
Fe2 Tb0 3.017026 1_556
Fe3 Fe7 2.434155 1_555
Fe3 Fe6 2.434156 1_555
Fe3 Fe5 2.465455 1_645
Fe3 Fe4 2.465455 1_545
Fe3 Fe9 2.603680 1_555
Fe3 Fe9 2.603680 1_455
Fe3 Fe8 2.621396 1_555
Fe3 Re0 2.625942 1_555
Fe3 Tb0 3.017026 1_645
Fe3 Tb0 3.017026 1_545
Fe4 Fe5 2.338161 1_555
Fe4 Fe5 2.339685 1_655
Fe4 Fe8 2.594604 1_555
Fe4 Re0 2.611882 1_565
Fe4 Fe9 2.621503 1_465
Fe4 Tb0 3.201554 1_555
Fe4 Tb0 3.265909 1_656
Fe5 Fe8 2.594603 1_555
Fe5 Re0 2.611882 1_465
Fe5 Fe9 2.621504 1_465
Fe5 Tb0 3.201554 1_555
Fe5 Tb0 3.265910 1_556
Fe6 Fe7 2.338161 1_555
Fe6 Fe7 2.339685 1_655
Fe6 Fe8 2.594604 1_555
Fe6 Fe9 2.599064 1_555
Fe6 Re0 2.611882 1_554
Fe6 Tb0 3.201554 1_555
Fe6 Tb0 3.265909 1_645
Fe7 Fe8 2.594603 1_555
Fe7 Fe9 2.599065 1_455
Fe7 Re0 2.611882 1_454
Fe7 Tb0 3.201554 1_555
Fe7 Tb0 3.265910 1_545
Fe8 Re0 2.378212 1_555
Fe8 Fe9 2.883564 1_555
Fe8 Fe9 2.883564 1_455
Fe8 Tb0 3.037159 1_555
Fe9 Re0 2.882578 1_655
Fe9 Re0 2.882579 1_555
Fe9 Tb0 3.049171 1_645
Fe10 Fe9 2.389615 1_555
Fe10 Fe4 2.599064 1_555
Fe10 Fe5 2.599065 1_655
Fe10 Fe2 2.603680 1_555
Fe10 Fe2 2.603680 1_655
Fe10 Fe6 2.621503 1_656
Fe10 Fe7 2.621504 1_656
Fe10 Re0 2.882578 1_655
Fe10 Re0 2.882579 1_555
Fe10 Fe8 2.883564 1_555
Fe10 Fe8 2.883564 1_655
Fe10 Tb0 3.049171 1_656
Re0 Tb0 3.151275 1_646
