# generated using pymatgen
data_Fe12As5
_symmetry_space_group_name_H-M   'P 1'
_cell_length_a   6.65721586
_cell_length_b   6.65721586
_cell_length_c   6.65721578
_cell_angle_alpha   60.96425331
_cell_angle_beta   60.96425331
_cell_angle_gamma   60.96425486
_symmetry_Int_Tables_number   1
_chemical_formula_structural   Fe12As5
_chemical_formula_sum   'Fe12 As5'
_cell_volume   213.15568093
_cell_formula_units_Z   1
loop_
 _symmetry_equiv_pos_site_id
 _symmetry_equiv_pos_as_xyz
  1  'x, y, z'
loop_
 _atom_site_type_symbol
 _atom_site_label
 _atom_site_symmetry_multiplicity
 _atom_site_fract_x
 _atom_site_fract_y
 _atom_site_fract_z
 _atom_site_occupancy
  Fe  Fe0  1  0.73686200  0.26313800  0.50000000  1
  Fe  Fe1  1  0.50000000  0.73686200  0.26313800  1
  Fe  Fe2  1  0.26313800  0.50000000  0.73686200  1
  Fe  Fe3  1  0.51409300  0.22486900  0.00490000  1
  Fe  Fe4  1  0.00490000  0.51409300  0.22486900  1
  Fe  Fe5  1  0.38218800  0.38218800  0.38218800  1
  Fe  Fe6  1  0.61781200  0.61781200  0.61781200  1
  Fe  Fe7  1  0.00000000  0.00000000  0.00000000  1
  Fe  Fe8  1  0.77513100  0.48590700  0.99510000  1
  Fe  Fe9  1  0.48590700  0.99510000  0.77513100  1
  Fe  Fe10  1  0.99510000  0.77513100  0.48590700  1
  Fe  Fe11  1  0.22486900  0.00490000  0.51409300  1
  As  As0  1  0.00000000  0.34596700  0.65403300  1
  As  As1  1  0.65403300  0.00000000  0.34596700  1
  As  As2  1  0.34596700  0.65403300  0.00000000  1
  As  As3  1  0.85630600  0.85630600  0.85630600  1
  As  As4  1  0.14369400  0.14369400  0.14369400  1
loop_
_geom_bond_atom_site_label_1
_geom_bond_atom_site_label_2
_geom_bond_distance
_geom_bond_site_symmetry_2
Fe0 Fe4 2.465925 1_655
Fe0 Fe9 2.465925 1_545
Fe0 Fe5 2.489169 1_555
Fe0 Fe6 2.489169 1_555
Fe0 Fe1 2.770878 1_555
Fe0 Fe2 2.770878 1_555
Fe0 Fe10 2.869938 1_545
Fe0 Fe11 2.869938 1_655
Fe0 Fe3 2.873822 1_556
Fe0 Fe8 2.873822 1_554
Fe1 Fe8 2.465925 1_554
Fe1 Fe11 2.465925 1_565
Fe1 Fe6 2.489169 1_555
Fe1 Fe5 2.489169 1_555
Fe1 Fe2 2.770878 1_555
Fe1 Fe9 2.869938 1_554
Fe1 Fe3 2.869938 1_565
Fe1 Fe10 2.873822 1_455
Fe1 Fe4 2.873823 1_655
Fe2 Fe3 2.465925 1_556
Fe2 Fe5 2.489169 1_555
Fe2 Fe6 2.489169 1_555
Fe2 Fe4 2.869938 1_556
Fe2 Fe8 2.869938 1_455
Fe2 Fe9 2.873823 1_545
Fe10 Fe2 2.465925 1_655
Fe11 Fe2 2.873822 1_545
As0 Fe7 2.336663 1_556
As0 Fe5 2.347140 1_555
As0 Fe6 2.347140 1_455
As0 Fe8 2.380003 1_455
As0 Fe11 2.380003 1_555
As0 Fe4 2.501468 1_555
As0 Fe10 2.501468 1_455
As0 Fe2 2.766672 1_555
As0 Fe0 2.766672 1_455
As1 Fe7 2.336663 1_655
As1 Fe6 2.347140 1_545
As1 Fe5 2.347140 1_555
As1 Fe3 2.380003 1_555
As1 Fe10 2.380003 1_545
As1 Fe9 2.501468 1_545
As1 Fe11 2.501468 1_555
As1 Fe1 2.766672 1_545
As1 Fe0 2.766672 1_555
As2 Fe7 2.336663 1_565
As2 Fe6 2.347140 1_554
As2 Fe5 2.347140 1_555
As2 Fe4 2.380003 1_555
As2 Fe9 2.380003 1_554
As2 Fe3 2.501468 1_555
As2 Fe8 2.501468 1_554
As2 Fe2 2.766672 1_554
As2 Fe1 2.766672 1_555
As3 Fe7 2.325966 1_666
As3 Fe10 2.413138 1_555
As3 Fe8 2.413138 1_555
As3 Fe9 2.413138 1_555
As3 Fe11 2.632729 1_665
As3 Fe4 2.632729 1_656
As3 Fe3 2.632729 1_566
As3 Fe1 2.664250 1_556
As3 Fe0 2.664250 1_565
As3 Fe2 2.664250 1_655
As4 Fe7 2.325966 1_555
As4 Fe11 2.413138 1_555
As4 Fe3 2.413138 1_555
As4 Fe4 2.413138 1_555
As4 Fe10 2.632729 1_445
As4 Fe9 2.632729 1_544
As4 Fe8 2.632729 1_454
As4 Fe2 2.664250 1_554
As4 Fe0 2.664250 1_455
As4 Fe1 2.664250 1_545
