# generated using pymatgen
data_Ta3N5
_symmetry_space_group_name_H-M   'P 1'
_cell_length_a   5.66062200
_cell_length_b   6.06692100
_cell_length_c   9.42353300
_cell_angle_alpha   90.00000000
_cell_angle_beta   90.00000000
_cell_angle_gamma   90.00000000
_symmetry_Int_Tables_number   1
_chemical_formula_structural   Ta3N5
_chemical_formula_sum   'Ta12 N20'
_cell_volume   323.62812010
_cell_formula_units_Z   4
loop_
 _symmetry_equiv_pos_site_id
 _symmetry_equiv_pos_as_xyz
  1  'x, y, z'
loop_
 _atom_site_type_symbol
 _atom_site_label
 _atom_site_symmetry_multiplicity
 _atom_site_fract_x
 _atom_site_fract_y
 _atom_site_fract_z
 _atom_site_occupancy
  Ta  Ta0  1  0.50289500  0.49853400  0.32097300  1
  Ta  Ta1  1  0.99710500  0.00146600  0.82097300  1
  Ta  Ta2  1  0.49710500  0.99853400  0.67902700  1
  Ta  Ta3  1  0.00289500  0.50146600  0.17902700  1
  Ta  Ta4  1  0.49710500  0.50146600  0.67902700  1
  Ta  Ta5  1  0.00289500  0.99853400  0.17902700  1
  Ta  Ta6  1  0.50289500  0.00146600  0.32097300  1
  Ta  Ta7  1  0.99710500  0.49853400  0.82097300  1
  Ta  Ta8  1  0.07497600  0.75000000  0.49986700  1
  Ta  Ta9  1  0.42502400  0.75000000  0.99986700  1
  Ta  Ta10  1  0.92502400  0.25000000  0.50013300  1
  Ta  Ta11  1  0.57497600  0.25000000  0.00013300  1
  N  N0  1  0.85096600  0.97274700  0.61117100  1
  N  N1  1  0.64903400  0.52725300  0.11117100  1
  N  N2  1  0.14903400  0.47274700  0.38882900  1
  N  N3  1  0.35096600  0.02725300  0.88882900  1
  N  N4  1  0.14903400  0.02725300  0.38882900  1
  N  N5  1  0.35096600  0.47274700  0.88882900  1
  N  N6  1  0.85096600  0.52725300  0.61117100  1
  N  N7  1  0.64903400  0.97274700  0.11117100  1
  N  N8  1  0.20936300  0.75000000  0.70799500  1
  N  N9  1  0.29063700  0.75000000  0.20799500  1
  N  N10  1  0.79063700  0.25000000  0.29200500  1
  N  N11  1  0.70936300  0.25000000  0.79200500  1
  N  N12  1  0.45453600  0.75000000  0.50087400  1
  N  N13  1  0.04546400  0.75000000  0.00087400  1
  N  N14  1  0.54546400  0.25000000  0.49912600  1
  N  N15  1  0.95453600  0.25000000  0.99912600  1
  N  N16  1  0.80084900  0.75000000  0.31798500  1
  N  N17  1  0.69915100  0.75000000  0.81798500  1
  N  N18  1  0.19915100  0.25000000  0.68201500  1
  N  N19  1  0.30084900  0.25000000  0.18201500  1
loop_
_geom_bond_atom_site_label_1
_geom_bond_atom_site_label_2
_geom_bond_distance
_geom_bond_site_symmetry_2
N0 Ta10 2.024845 1_565
N0 Ta2 2.108475 1_555
N0 Ta8 2.129392 1_655
N0 Ta1 2.150235 1_565
N1 Ta11 2.024845 1_555
N1 Ta3 2.108475 1_655
N1 Ta9 2.129392 1_554
N1 Ta0 2.150235 1_555
N2 Ta8 2.024845 1_555
N2 Ta0 2.108475 1_555
N2 Ta10 2.129392 1_455
N2 Ta3 2.150235 1_555
N3 Ta9 2.024845 1_545
N3 Ta1 2.108475 1_455
N3 Ta11 2.129392 1_556
N3 Ta2 2.150235 1_545
N4 Ta8 2.024845 1_545
N4 Ta6 2.108475 1_555
N4 Ta10 2.129392 1_455
N4 Ta5 2.150235 1_545
N5 Ta9 2.024845 1_555
N5 Ta7 2.108475 1_455
N5 Ta11 2.129392 1_556
N5 Ta4 2.150235 1_555
N6 Ta10 2.024845 1_555
N6 Ta4 2.108475 1_555
N6 Ta8 2.129392 1_655
N6 Ta7 2.150235 1_555
N7 Ta11 2.024845 1_565
N7 Ta5 2.108475 1_655
N7 Ta9 2.129392 1_554
N7 Ta6 2.150235 1_565
N8 Ta8 2.103661 1_555
N8 Ta1 2.214643 1_465
N8 Ta7 2.214643 1_455
N8 Ta4 2.236308 1_555
N8 Ta2 2.236308 1_555
N9 Ta9 2.103661 1_554
N9 Ta6 2.214643 1_565
N9 Ta0 2.214643 1_555
N9 Ta5 2.236308 1_555
N9 Ta3 2.236308 1_555
N10 Ta10 2.103661 1_555
N10 Ta5 2.214643 1_645
N10 Ta3 2.214643 1_655
N10 Ta0 2.236308 1_555
N10 Ta6 2.236308 1_555
N11 Ta11 2.103661 1_556
N11 Ta4 2.214643 1_555
N11 Ta2 2.214643 1_545
N11 Ta7 2.236308 1_555
N11 Ta1 2.236308 1_555
N12 Ta8 2.148567 1_555
N12 Ta4 2.269385 1_555
N12 Ta2 2.269385 1_555
N12 Ta6 2.297067 1_565
N12 Ta0 2.297067 1_555
N13 Ta9 2.148567 1_554
N13 Ta5 2.269385 1_555
N13 Ta3 2.269385 1_555
N13 Ta1 2.297067 1_464
N13 Ta7 2.297067 1_454
N14 Ta10 2.148567 1_555
N14 Ta6 2.269385 1_555
N14 Ta0 2.269385 1_555
N14 Ta4 2.297067 1_555
N14 Ta2 2.297067 1_545
N15 Ta11 2.148567 1_556
N15 Ta7 2.269385 1_555
N15 Ta1 2.269385 1_555
N15 Ta3 2.297067 1_656
N15 Ta5 2.297067 1_646
N16 Ta0 2.274414 1_555
N16 Ta6 2.274414 1_565
N16 Ta5 2.301382 1_655
N16 Ta3 2.301382 1_655
N16 Ta8 2.312047 1_655
N17 Ta1 2.274414 1_565
N17 Ta7 2.274414 1_555
N17 Ta4 2.301382 1_555
N17 Ta2 2.301382 1_555
N17 Ta9 2.312047 1_555
N18 Ta4 2.274414 1_555
N18 Ta2 2.274414 1_545
N18 Ta7 2.301382 1_455
N18 Ta1 2.301382 1_455
N18 Ta10 2.312047 1_455
N19 Ta3 2.274414 1_555
N19 Ta5 2.274414 1_545
N19 Ta0 2.301382 1_555
N19 Ta6 2.301382 1_555
N19 Ta11 2.312047 1_555
