# generated using pymatgen
data_CaTiNi(PO4)3
_symmetry_space_group_name_H-M   'P 1'
_cell_length_a   8.84750821
_cell_length_b   8.84750770
_cell_length_c   8.84750802
_cell_angle_alpha   58.60570827
_cell_angle_beta   58.60571228
_cell_angle_gamma   58.60571637
_symmetry_Int_Tables_number   1
_chemical_formula_structural   CaTiNi(PO4)3
_chemical_formula_sum   'Ca2 Ti2 Ni2 P6 O24'
_cell_volume   474.10948035
_cell_formula_units_Z   2
loop_
 _symmetry_equiv_pos_site_id
 _symmetry_equiv_pos_as_xyz
  1  'x, y, z'
loop_
 _atom_site_type_symbol
 _atom_site_label
 _atom_site_symmetry_multiplicity
 _atom_site_fract_x
 _atom_site_fract_y
 _atom_site_fract_z
 _atom_site_occupancy
  Ca  Ca0  1  0.99679500  0.99679500  0.99679500  1
  Ca  Ca1  1  0.49679500  0.49679500  0.49679500  1
  Ti  Ti0  1  0.14739500  0.14739500  0.14739500  1
  Ti  Ti1  1  0.64739500  0.64739500  0.64739500  1
  Ni  Ni0  1  0.35346600  0.35346600  0.35346600  1
  Ni  Ni1  1  0.85346600  0.85346600  0.85346600  1
  P  P0  1  0.03997700  0.46123700  0.75102500  1
  P  P1  1  0.46123700  0.75102500  0.03997700  1
  P  P2  1  0.75102500  0.03997700  0.46123700  1
  P  P3  1  0.25102500  0.96123700  0.53997700  1
  P  P4  1  0.53997700  0.25102500  0.96123700  1
  P  P5  1  0.96123700  0.53997700  0.25102500  1
  O  O0  1  0.12223300  0.51408500  0.29039500  1
  O  O1  1  0.29039500  0.12223300  0.51408500  1
  O  O2  1  0.05539800  0.27245000  0.92181200  1
  O  O3  1  0.51408500  0.29039500  0.12223300  1
  O  O4  1  0.01408500  0.62223300  0.79039500  1
  O  O5  1  0.22542100  0.43759700  0.58311900  1
  O  O6  1  0.27245000  0.92181200  0.05539800  1
  O  O7  1  0.43759700  0.58311900  0.22542100  1
  O  O8  1  0.20686300  0.00003200  0.37069800  1
  O  O9  1  0.58311900  0.22542100  0.43759700  1
  O  O10  1  0.08311900  0.93759700  0.72542100  1
  O  O11  1  0.37069800  0.20686300  0.00003200  1
  O  O12  1  0.62223300  0.79039500  0.01408500  1
  O  O13  1  0.92181200  0.05539800  0.27245000  1
  O  O14  1  0.42181200  0.77245000  0.55539800  1
  O  O15  1  0.79039500  0.01408500  0.62223300  1
  O  O16  1  0.55539800  0.42181200  0.77245000  1
  O  O17  1  0.72542100  0.08311900  0.93759700  1
  O  O18  1  0.77245000  0.55539800  0.42181200  1
  O  O19  1  0.00003200  0.37069800  0.20686300  1
  O  O20  1  0.50003200  0.70686300  0.87069800  1
  O  O21  1  0.93759700  0.72542100  0.08311900  1
  O  O22  1  0.70686300  0.87069800  0.50003200  1
  O  O23  1  0.87069800  0.50003200  0.70686300  1
loop_
_geom_bond_atom_site_label_1
_geom_bond_atom_site_label_2
_geom_bond_distance
_geom_bond_site_symmetry_2
Ca0 O21 2.367542 1_556
Ca0 O10 2.367542 1_655
Ca0 O17 2.367542 1_565
Ca0 O2 2.435237 1_665
Ca0 O13 2.435238 1_566
Ca0 O6 2.435238 1_656
Ca1 O7 2.367542 1_555
Ca1 O9 2.367542 1_555
Ca1 O5 2.367542 1_555
Ca1 O14 2.435237 1_555
Ca1 O16 2.435237 1_555
Ca1 O18 2.435238 1_555
Ni0 O1 1.962282 1_555
Ni0 O3 1.962283 1_555
Ni0 O0 1.962283 1_555
Ni0 O7 2.065161 1_555
Ni0 O5 2.065162 1_555
Ni0 O9 2.065162 1_555
Ni1 O15 1.962282 1_565
Ni1 O12 1.962282 1_556
Ni1 O4 1.962283 1_655
Ni1 O10 2.065162 1_655
Ni1 O21 2.065162 1_556
Ni1 O17 2.065162 1_565
O0 P5 1.515452 1_455
O1 P3 1.515451 1_545
O2 P0 1.561921 1_555
O2 Ti0 2.079340 1_556
O3 P4 1.515452 1_554
O4 P0 1.515452 1_555
O5 P0 1.539278 1_555
O6 P1 1.561921 1_555
O6 Ti0 2.079340 1_565
O7 P1 1.539278 1_555
O8 P3 1.564591 1_545
O8 Ti0 1.888022 1_555
O9 P2 1.539278 1_555
O10 P3 1.539278 1_555
O11 P4 1.564591 1_554
O11 Ti0 1.888022 1_555
O12 P1 1.515452 1_555
O13 P2 1.561921 1_555
O13 Ti0 2.079340 1_655
O14 P3 1.561921 1_555
O14 Ti1 2.079340 1_555
O15 P2 1.515452 1_555
O16 P4 1.561921 1_555
O16 Ti1 2.079340 1_555
O17 P4 1.539278 1_555
O18 P5 1.561921 1_555
O18 Ti1 2.079340 1_555
O19 P5 1.564591 1_455
O19 Ti0 1.888022 1_555
O20 P1 1.564591 1_556
O20 Ti1 1.888022 1_555
O21 P5 1.539278 1_555
O22 P2 1.564591 1_565
O22 Ti1 1.888022 1_555
O23 P0 1.564591 1_655
O23 Ti1 1.888022 1_555
