# generated using pymatgen
data_Mg14VCO16
_symmetry_space_group_name_H-M   'P 1'
_cell_length_a   8.53184568
_cell_length_b   8.53184568
_cell_length_c   4.25849482
_cell_angle_alpha   90.00000000
_cell_angle_beta   90.00000000
_cell_angle_gamma   90.00000000
_symmetry_Int_Tables_number   1
_chemical_formula_structural   Mg14VCO16
_chemical_formula_sum   'Mg14 V1 C1 O16'
_cell_volume   309.98601876
_cell_formula_units_Z   1
loop_
 _symmetry_equiv_pos_site_id
 _symmetry_equiv_pos_as_xyz
  1  'x, y, z'
loop_
 _atom_site_type_symbol
 _atom_site_label
 _atom_site_symmetry_multiplicity
 _atom_site_fract_x
 _atom_site_fract_y
 _atom_site_fract_z
 _atom_site_occupancy
  Mg  Mg0  1  -0.00000000  0.50000000  0.00000000  1
  Mg  Mg1  1  0.50000000  0.00000000  0.00000000  1
  Mg  Mg2  1  -0.00000000  0.25245512  0.50000000  1
  Mg  Mg3  1  -0.00000000  0.74754488  0.50000000  1
  Mg  Mg4  1  0.50000000  0.25410759  0.50000000  1
  Mg  Mg5  1  0.50000000  0.74589241  0.50000000  1
  Mg  Mg6  1  0.25245512  0.00000000  0.50000000  1
  Mg  Mg7  1  0.25410759  0.50000000  0.50000000  1
  Mg  Mg8  1  0.74754488  0.00000000  0.50000000  1
  Mg  Mg9  1  0.74589241  0.50000000  0.50000000  1
  Mg  Mg10  1  0.25336127  0.25336127  0.00000000  1
  Mg  Mg11  1  0.25336127  0.74663873  -0.00000000  1
  Mg  Mg12  1  0.74663873  0.25336127  0.00000000  1
  Mg  Mg13  1  0.74663873  0.74663873  -0.00000000  1
  V  V0  1  -0.00000000  0.00000000  0.00000000  1
  C  C0  1  0.50000000  0.50000000  0.00000000  1
  O  O0  1  0.25509082  0.00000000  -0.00000000  1
  O  O1  1  0.24865503  0.50000000  0.00000000  1
  O  O2  1  0.74490918  0.00000000  0.00000000  1
  O  O3  1  0.75134497  0.50000000  0.00000000  1
  O  O4  1  0.25074188  0.25074188  0.50000000  1
  O  O5  1  0.25074188  0.74925812  0.50000000  1
  O  O6  1  0.74925812  0.25074188  0.50000000  1
  O  O7  1  0.74925812  0.74925812  0.50000000  1
  O  O8  1  -0.00000000  0.00000000  0.50000000  1
  O  O9  1  -0.00000000  0.50000000  0.50000000  1
  O  O10  1  0.50000000  0.00000000  0.50000000  1
  O  O11  1  0.50000000  0.50000000  0.50000000  1
  O  O12  1  -0.00000000  0.25509082  0.00000000  1
  O  O13  1  -0.00000000  0.74490918  -0.00000000  1
  O  O14  1  0.50000000  0.24865503  -0.00000000  1
  O  O15  1  0.50000000  0.75134497  0.00000000  1
loop_
_geom_bond_atom_site_label_1
_geom_bond_atom_site_label_2
_geom_bond_distance
_geom_bond_site_symmetry_2
Mg0 O12 2.089527 1_555
Mg0 O13 2.089527 1_555
Mg0 O3 2.121486 1_455
Mg0 O1 2.121486 1_555
Mg0 O9 2.129247 1_554
Mg0 O9 2.129247 1_555
Mg1 O0 2.089527 1_555
Mg1 O2 2.089527 1_555
Mg1 O14 2.121486 1_555
Mg1 O15 2.121486 1_545
Mg1 O10 2.129247 1_555
Mg1 O10 2.129247 1_554
Mg2 O9 2.112015 1_555
Mg2 O12 2.129366 1_555
Mg2 O12 2.129366 1_556
Mg2 O6 2.139341 1_455
Mg2 O4 2.139341 1_555
Mg2 O8 2.153908 1_555
Mg3 O9 2.112015 1_555
Mg3 O13 2.129366 1_555
Mg3 O13 2.129366 1_556
Mg3 O7 2.139341 1_455
Mg3 O5 2.139341 1_555
Mg3 O8 2.153908 1_565
Mg4 O11 2.097916 1_555
Mg4 O4 2.126826 1_555
Mg4 O6 2.126826 1_555
Mg4 O14 2.129756 1_555
Mg4 O14 2.129756 1_556
Mg4 O10 2.168007 1_555
Mg5 O11 2.097916 1_555
Mg5 O5 2.126826 1_555
Mg5 O7 2.126826 1_555
Mg5 O15 2.129756 1_556
Mg5 O15 2.129756 1_555
Mg5 O10 2.168007 1_565
Mg6 O10 2.112015 1_555
Mg6 O0 2.129366 1_555
Mg6 O0 2.129366 1_556
Mg6 O5 2.139341 1_545
Mg6 O4 2.139341 1_555
Mg6 O8 2.153908 1_555
Mg7 O11 2.097916 1_555
Mg7 O4 2.126826 1_555
Mg7 O5 2.126826 1_555
Mg7 O1 2.129756 1_556
Mg7 O1 2.129756 1_555
Mg7 O9 2.168007 1_555
Mg8 O10 2.112015 1_555
Mg8 O2 2.129366 1_555
Mg8 O2 2.129366 1_556
Mg8 O7 2.139341 1_545
Mg8 O6 2.139341 1_555
Mg8 O8 2.153908 1_655
Mg9 O11 2.097916 1_555
Mg9 O6 2.126826 1_555
Mg9 O7 2.126826 1_555
Mg9 O3 2.129756 1_556
Mg9 O3 2.129756 1_555
Mg9 O9 2.168007 1_655
Mg10 O14 2.104667 1_555
Mg10 O1 2.104667 1_555
Mg10 O4 2.129482 1_555
Mg10 O4 2.129482 1_554
Mg10 O12 2.161690 1_555
Mg10 O0 2.161690 1_555
Mg11 O15 2.104667 1_555
Mg11 O1 2.104667 1_555
Mg11 O5 2.129482 1_554
Mg11 O5 2.129482 1_555
Mg11 O0 2.161690 1_565
Mg11 O13 2.161690 1_555
Mg12 O14 2.104667 1_555
Mg12 O3 2.104667 1_555
Mg12 O6 2.129482 1_555
Mg12 O6 2.129482 1_554
Mg12 O12 2.161690 1_655
Mg12 O2 2.161690 1_555
Mg13 O15 2.104667 1_555
Mg13 O3 2.104667 1_555
Mg13 O7 2.129482 1_555
Mg13 O7 2.129482 1_554
Mg13 O2 2.161690 1_565
Mg13 O13 2.161690 1_655
C0 O11 2.129247 1_554
C0 O11 2.129247 1_555
C0 O3 2.144436 1_555
C0 O15 2.144436 1_555
C0 O1 2.144436 1_555
C0 O14 2.144436 1_555
O0 V0 2.176396 1_555
O2 V0 2.176396 1_655
O8 V0 2.129247 1_556
O8 V0 2.129247 1_555
O12 V0 2.176396 1_555
O13 V0 2.176396 1_565
