# generated using pymatgen
data_Ba2La4CuPtO10
_symmetry_space_group_name_H-M   'P 1'
_cell_length_a   5.95147900
_cell_length_b   6.92498534
_cell_length_c   6.92498534
_cell_angle_alpha   89.70894478
_cell_angle_beta   90.00000000
_cell_angle_gamma   90.00000000
_symmetry_Int_Tables_number   1
_chemical_formula_structural   Ba2La4CuPtO10
_chemical_formula_sum   'Ba2 La4 Cu1 Pt1 O10'
_cell_volume   285.40200407
_cell_formula_units_Z   1
loop_
 _symmetry_equiv_pos_site_id
 _symmetry_equiv_pos_as_xyz
  1  'x, y, z'
loop_
 _atom_site_type_symbol
 _atom_site_label
 _atom_site_symmetry_multiplicity
 _atom_site_fract_x
 _atom_site_fract_y
 _atom_site_fract_z
 _atom_site_occupancy
  Ba  Ba0  1  0.50000000  0.00000000  0.00000000  1
  Ba  Ba1  1  0.50000000  0.50000000  0.50000000  1
  La  La0  1  0.00000000  0.17856300  0.67856300  1
  La  La1  1  0.00000000  0.82143700  0.32143700  1
  La  La2  1  0.00000000  0.32575100  0.17424900  1
  La  La3  1  0.00000000  0.67424900  0.82575100  1
  Cu  Cu0  1  0.50000000  0.50000000  0.00000000  1
  Pt  Pt0  1  0.50000000  0.00000000  0.50000000  1
  O  O0  1  0.00000000  0.50000000  0.50000000  1
  O  O1  1  0.00000000  0.00000000  0.00000000  1
  O  O2  1  0.74189400  0.36297500  0.86297500  1
  O  O3  1  0.74189400  0.63702500  0.13702500  1
  O  O4  1  0.74750900  0.14225400  0.35774600  1
  O  O5  1  0.74750900  0.85774600  0.64225400  1
  O  O6  1  0.25810600  0.63702500  0.13702500  1
  O  O7  1  0.25810600  0.36297500  0.86297500  1
  O  O8  1  0.25249100  0.85774600  0.64225400  1
  O  O9  1  0.25249100  0.14225400  0.35774600  1
loop_
_geom_bond_atom_site_label_1
_geom_bond_atom_site_label_2
_geom_bond_distance
_geom_bond_site_symmetry_2
Ba0 O1 2.975739 1_555
Ba0 O1 2.975739 1_655
Ba0 O3 3.044153 1_545
Ba0 O6 3.044153 1_545
Ba0 O2 3.044153 1_554
Ba0 O7 3.044153 1_554
Ba0 O5 3.050005 1_544
Ba0 O4 3.050005 1_555
Ba0 O9 3.050005 1_555
Ba0 O8 3.050005 1_544
Ba1 O0 2.975739 1_555
Ba1 O0 2.975739 1_655
Ba1 O2 3.044153 1_555
Ba1 O7 3.044153 1_555
Ba1 O3 3.044153 1_555
Ba1 O6 3.044153 1_555
Ba1 O4 3.050005 1_555
Ba1 O5 3.050005 1_555
Ba1 O8 3.050005 1_555
Ba1 O9 3.050005 1_555
La0 O7 2.374432 1_555
La0 O2 2.374432 1_455
La0 O0 2.540850 1_555
La0 O1 2.540850 1_556
La0 O9 2.694945 1_555
La0 O4 2.694945 1_455
La0 O8 2.694945 1_545
La0 O5 2.694945 1_445
La1 O6 2.374432 1_555
La1 O3 2.374432 1_455
La1 O1 2.540850 1_565
La1 O0 2.540850 1_555
La1 O9 2.694945 1_565
La1 O8 2.694945 1_555
La1 O4 2.694945 1_465
La1 O5 2.694945 1_455
La2 O9 2.339042 1_555
La2 O4 2.339042 1_455
La2 O0 2.563677 1_555
La2 O1 2.563677 1_555
La2 O6 2.658367 1_555
La2 O3 2.658367 1_455
La2 O7 2.658367 1_554
La2 O2 2.658367 1_454
La3 O8 2.339042 1_555
La3 O5 2.339042 1_455
La3 O0 2.563677 1_555
La3 O1 2.563677 1_566
La3 O6 2.658367 1_556
La3 O3 2.658367 1_456
La3 O7 2.658367 1_555
La3 O2 2.658367 1_455
Cu0 O3 1.970401 1_555
Cu0 O6 1.970401 1_555
Cu0 O2 1.970401 1_554
Cu0 O7 1.970401 1_554
O4 Pt0 2.025061 1_555
O5 Pt0 2.025061 1_565
O8 Pt0 2.025061 1_565
O9 Pt0 2.025061 1_555
