# generated using pymatgen
data_CeSbIr
_symmetry_space_group_name_H-M   'P 1'
_cell_length_a   4.60423814
_cell_length_b   7.38603970
_cell_length_c   7.90850523
_cell_angle_alpha   89.99436315
_cell_angle_beta   90.00000000
_cell_angle_gamma   90.00000000
_symmetry_Int_Tables_number   1
_chemical_formula_structural   CeSbIr
_chemical_formula_sum   'Ce4 Sb4 Ir4'
_cell_volume   268.94521368
_cell_formula_units_Z   4
loop_
 _symmetry_equiv_pos_site_id
 _symmetry_equiv_pos_as_xyz
  1  'x, y, z'
loop_
 _atom_site_type_symbol
 _atom_site_label
 _atom_site_symmetry_multiplicity
 _atom_site_fract_x
 _atom_site_fract_y
 _atom_site_fract_z
 _atom_site_occupancy
  Ce  Ce0  1  0.25000000  0.01480084  0.30554650  1
  Ce  Ce1  1  0.25000000  0.51476940  0.19432829  1
  Ce  Ce2  1  0.75000000  0.98519916  0.69445350  1
  Ce  Ce3  1  0.75000000  0.48523060  0.80567171  1
  Sb  Sb0  1  0.25000000  0.17589612  0.91252461  1
  Sb  Sb1  1  0.25000000  0.67582737  0.58744497  1
  Sb  Sb2  1  0.75000000  0.82410388  0.08747539  1
  Sb  Sb3  1  0.75000000  0.32417263  0.41255503  1
  Ir  Ir0  1  0.25000000  0.28949545  0.58631282  1
  Ir  Ir1  1  0.25000000  0.78926390  0.91375263  1
  Ir  Ir2  1  0.75000000  0.71050455  0.41368718  1
  Ir  Ir3  1  0.75000000  0.21073610  0.08624737  1
loop_
_geom_bond_atom_site_label_1
_geom_bond_atom_site_label_2
_geom_bond_distance
_geom_bond_site_symmetry_2
Ce0 Ir0 3.007940 1_555
Ce0 Sb2 3.202872 1_545
Ce0 Sb2 3.202872 1_445
Ce0 Ir3 3.225136 1_555
Ce0 Ir3 3.225136 1_455
Ce0 Sb0 3.328068 1_554
Ce0 Ir2 3.329001 1_445
Ce0 Ir2 3.329001 1_545
Ce0 Sb1 3.352235 1_545
Ce0 Sb3 3.352267 1_455
Ce0 Sb3 3.352267 1_555
Ce0 Ir1 3.518055 1_544
Ce1 Ir1 3.005536 1_554
Ce1 Sb3 3.203061 1_555
Ce1 Sb3 3.203061 1_455
Ce1 Ir2 3.224880 1_555
Ce1 Ir2 3.224880 1_455
Ce1 Ir3 3.327682 1_455
Ce1 Ir3 3.327682 1_555
Ce1 Sb1 3.328888 1_555
Ce1 Sb0 3.351511 1_554
Ce1 Sb2 3.351655 1_455
Ce1 Sb2 3.351655 1_555
Ce1 Ir0 3.518176 1_555
Ce2 Ir2 3.007940 1_555
Ce2 Sb0 3.202872 1_565
Ce2 Sb0 3.202872 1_665
Ce2 Ir1 3.225136 1_555
Ce2 Ir1 3.225136 1_655
Ce2 Sb2 3.328068 1_556
Ce2 Ir0 3.329001 1_565
Ce2 Ir0 3.329001 1_665
Ce2 Sb3 3.352235 1_565
Ce2 Sb1 3.352267 1_655
Ce2 Sb1 3.352267 1_555
Ce2 Ir3 3.518055 1_566
Ce3 Ir3 3.005536 1_556
Ce3 Sb1 3.203061 1_655
Ce3 Sb1 3.203061 1_555
Ce3 Ir0 3.224880 1_555
Ce3 Ir0 3.224880 1_655
Ce3 Ir1 3.327682 1_555
Ce3 Ir1 3.327682 1_655
Ce3 Sb3 3.328888 1_555
Ce3 Sb2 3.351511 1_556
Ce3 Sb0 3.351655 1_555
Ce3 Sb0 3.351655 1_655
Ce3 Ir2 3.518176 1_555
Ir0 Sb3 2.693253 1_555
Ir0 Sb3 2.693253 1_455
Ir0 Sb0 2.712783 1_555
Ir0 Sb1 2.853478 1_555
Ir1 Sb2 2.693252 1_556
Ir1 Sb2 2.693252 1_456
Ir1 Sb1 2.713289 1_555
Ir1 Sb0 2.855696 1_565
Ir2 Sb1 2.693253 1_655
Ir2 Sb1 2.693253 1_555
Ir2 Sb2 2.712783 1_555
Ir2 Sb3 2.853478 1_555
Ir3 Sb0 2.693252 1_654
Ir3 Sb0 2.693252 1_554
Ir3 Sb3 2.713289 1_555
Ir3 Sb2 2.855696 1_545
