# generated using pymatgen
data_LiSiBiO4
_symmetry_space_group_name_H-M   'P 1'
_cell_length_a   5.38139800
_cell_length_b   10.47433200
_cell_length_c   14.59061700
_cell_angle_alpha   90.00000000
_cell_angle_beta   90.00000000
_cell_angle_gamma   90.00000000
_symmetry_Int_Tables_number   1
_chemical_formula_structural   LiSiBiO4
_chemical_formula_sum   'Li8 Si8 Bi8 O32'
_cell_volume   822.42273210
_cell_formula_units_Z   8
loop_
 _symmetry_equiv_pos_site_id
 _symmetry_equiv_pos_as_xyz
  1  'x, y, z'
loop_
 _atom_site_type_symbol
 _atom_site_label
 _atom_site_symmetry_multiplicity
 _atom_site_fract_x
 _atom_site_fract_y
 _atom_site_fract_z
 _atom_site_occupancy
  Li  Li0  1  0.94794600  0.02310300  0.49392400  1
  Li  Li1  1  0.55744700  0.21954500  0.25290800  1
  Li  Li2  1  0.55744700  0.28045500  0.75290800  1
  Li  Li3  1  0.94794600  0.47689700  0.99392400  1
  Li  Li4  1  0.05205400  0.52310300  0.49392400  1
  Li  Li5  1  0.44255300  0.71954500  0.25290800  1
  Li  Li6  1  0.44255300  0.78045500  0.75290800  1
  Li  Li7  1  0.05205400  0.97689700  0.99392400  1
  Si  Si0  1  0.44599000  0.03538900  0.62092800  1
  Si  Si1  1  0.07573800  0.22647000  0.87649900  1
  Si  Si2  1  0.07573800  0.27353000  0.37649900  1
  Si  Si3  1  0.44599000  0.46461100  0.12092800  1
  Si  Si4  1  0.55401000  0.53538900  0.62092800  1
  Si  Si5  1  0.92426200  0.72647000  0.87649900  1
  Si  Si6  1  0.92426200  0.77353000  0.37649900  1
  Si  Si7  1  0.55401000  0.96461100  0.12092800  1
  Bi  Bi0  1  0.05744100  0.01691100  0.24114300  1
  Bi  Bi1  1  0.59380800  0.20353900  0.00320300  1
  Bi  Bi2  1  0.59380800  0.29646100  0.50320300  1
  Bi  Bi3  1  0.05744100  0.48308900  0.74114300  1
  Bi  Bi4  1  0.94255900  0.51691100  0.24114300  1
  Bi  Bi5  1  0.40619200  0.70353900  0.00320300  1
  Bi  Bi6  1  0.40619200  0.79646100  0.50320300  1
  Bi  Bi7  1  0.94255900  0.98308900  0.74114300  1
  O  O0  1  0.83266900  0.02669600  0.10014800  1
  O  O1  1  0.61360900  0.99051000  0.53314900  1
  O  O2  1  0.46304400  0.03805400  0.21771900  1
  O  O3  1  0.96139000  0.07953700  0.88297900  1
  O  O4  1  0.46606700  0.18977100  0.63504300  1
  O  O5  1  0.97206900  0.20073500  0.46749300  1
  O  O6  1  0.95467500  0.28963600  0.78041600  1
  O  O7  1  0.37922400  0.23577300  0.86884900  1
  O  O8  1  0.37922400  0.26422700  0.36884900  1
  O  O9  1  0.95467500  0.21036400  0.28041600  1
  O  O10  1  0.97206900  0.29926500  0.96749300  1
  O  O11  1  0.46606700  0.31022900  0.13504300  1
  O  O12  1  0.96139000  0.42046300  0.38297900  1
  O  O13  1  0.46304400  0.46194600  0.71771900  1
  O  O14  1  0.61360900  0.50949000  0.03314900  1
  O  O15  1  0.83266900  0.47330400  0.60014800  1
  O  O16  1  0.16733100  0.52669600  0.10014800  1
  O  O17  1  0.38639100  0.49051000  0.53314900  1
  O  O18  1  0.53695600  0.53805400  0.21771900  1
  O  O19  1  0.03861000  0.57953700  0.88297900  1
  O  O20  1  0.53393300  0.68977100  0.63504300  1
  O  O21  1  0.02793100  0.70073500  0.46749300  1
  O  O22  1  0.04532500  0.78963600  0.78041600  1
  O  O23  1  0.62077600  0.73577300  0.86884900  1
  O  O24  1  0.62077600  0.76422700  0.36884900  1
  O  O25  1  0.04532500  0.71036400  0.28041600  1
  O  O26  1  0.02793100  0.79926500  0.96749300  1
  O  O27  1  0.53393300  0.81022900  0.13504300  1
  O  O28  1  0.03861000  0.92046300  0.38297900  1
  O  O29  1  0.53695600  0.96194600  0.71771900  1
  O  O30  1  0.38639100  0.00949000  0.03314900  1
  O  O31  1  0.16733100  0.97330400  0.60014800  1
loop_
_geom_bond_atom_site_label_1
_geom_bond_atom_site_label_2
_geom_bond_distance
_geom_bond_site_symmetry_2
Li0 O5 1.904552 1_555
Li0 O1 1.918650 1_545
Li0 O28 2.003553 1_645
Li0 O31 2.016928 1_645
Li1 O8 2.000143 1_555
Li1 O11 2.025214 1_555
Li1 O2 2.033589 1_555
Li1 O9 2.177120 1_555
Li2 O7 2.000143 1_555
Li2 O4 2.025214 1_555
Li2 O13 2.033589 1_555
Li2 O6 2.177120 1_555
Li3 O10 1.904552 1_555
Li3 O14 1.918650 1_556
Li3 O19 2.003553 1_655
Li3 O16 2.016928 1_656
Li4 O21 1.904552 1_555
Li4 O17 1.918650 1_555
Li4 O12 2.003553 1_455
Li4 O15 2.016928 1_455
Li5 O24 2.000143 1_555
Li5 O27 2.025214 1_555
Li5 O18 2.033589 1_555
Li5 O25 2.177120 1_555
Li6 O23 2.000143 1_555
Li6 O20 2.025214 1_555
Li6 O29 2.033589 1_555
Li6 O22 2.177120 1_555
Li7 O26 1.904552 1_555
Li7 O30 1.918650 1_566
Li7 O3 2.003553 1_465
Li7 O0 2.016928 1_466
Bi0 O9 2.177163 1_455
Bi0 O2 2.220378 1_555
Bi0 O28 2.305115 1_545
Bi0 O0 2.388660 1_455
Bi1 O7 2.300060 1_554
Bi1 O10 2.328169 1_554
Bi1 O11 2.328458 1_555
Bi1 O30 2.359659 1_555
Bi1 O0 2.661598 1_555
Bi2 O8 2.300060 1_555
Bi2 O5 2.328169 1_555
Bi2 O4 2.328458 1_555
Bi2 O17 2.359659 1_555
Bi2 O15 2.661598 1_555
Bi3 O6 2.177163 1_455
Bi3 O13 2.220378 1_555
Bi3 O19 2.305115 1_555
Bi3 O15 2.388660 1_455
Bi4 O25 2.177163 1_655
Bi4 O18 2.220378 1_555
Bi4 O12 2.305115 1_555
Bi4 O16 2.388660 1_655
Bi5 O23 2.300060 1_554
Bi5 O26 2.328169 1_554
Bi5 O27 2.328458 1_555
Bi5 O14 2.359659 1_555
Bi5 O16 2.661598 1_555
Bi6 O24 2.300060 1_555
Bi6 O21 2.328169 1_555
Bi6 O20 2.328458 1_555
Bi6 O1 2.359659 1_555
Bi6 O31 2.661598 1_555
Bi7 O22 2.177163 1_655
Bi7 O29 2.220378 1_555
Bi7 O3 2.305115 1_565
Bi7 O31 2.388660 1_655
O0 Si7 1.662390 1_545
O1 Si0 1.635525 1_565
O2 Si7 1.681020 1_545
O3 Si1 1.660179 1_655
O4 Si0 1.633687 1_555
O5 Si2 1.629505 1_655
O6 Si1 1.681527 1_655
O7 Si1 1.639886 1_555
O8 Si2 1.639886 1_555
O9 Si2 1.681527 1_655
O10 Si1 1.629505 1_655
O11 Si3 1.633687 1_555
O12 Si2 1.660179 1_655
O13 Si4 1.681020 1_555
O14 Si3 1.635525 1_555
O15 Si4 1.662390 1_555
O16 Si3 1.662390 1_555
O17 Si4 1.635525 1_555
O18 Si3 1.681020 1_555
O19 Si5 1.660179 1_455
O20 Si4 1.633687 1_555
O21 Si6 1.629505 1_455
O22 Si5 1.681527 1_455
O23 Si5 1.639886 1_555
O24 Si6 1.639886 1_555
O25 Si6 1.681527 1_455
O26 Si5 1.629505 1_455
O27 Si7 1.633687 1_555
O28 Si6 1.660179 1_455
O29 Si0 1.681020 1_565
O30 Si7 1.635525 1_545
O31 Si0 1.662390 1_565
