# generated using pymatgen
data_LaMg14Cr
_symmetry_space_group_name_H-M   'P 1'
_cell_length_a   6.55568748
_cell_length_b   6.55568692
_cell_length_c   10.31715550
_cell_angle_alpha   90.00000000
_cell_angle_beta   90.00000000
_cell_angle_gamma   120.00000283
_symmetry_Int_Tables_number   1
_chemical_formula_structural   LaMg14Cr
_chemical_formula_sum   'La1 Mg14 Cr1'
_cell_volume   383.99630222
_cell_formula_units_Z   1
loop_
 _symmetry_equiv_pos_site_id
 _symmetry_equiv_pos_as_xyz
  1  'x, y, z'
loop_
 _atom_site_type_symbol
 _atom_site_label
 _atom_site_symmetry_multiplicity
 _atom_site_fract_x
 _atom_site_fract_y
 _atom_site_fract_z
 _atom_site_occupancy
  La  La0  1  0.16666700  0.33333300  0.12500000  1
  Mg  Mg0  1  0.17775977  0.83887939  0.12500000  1
  Mg  Mg1  1  0.16610904  0.83305402  0.62500000  1
  Mg  Mg2  1  0.66112061  0.32224023  0.12500000  1
  Mg  Mg3  1  0.66694598  0.33389096  0.62500000  1
  Mg  Mg4  1  0.66112061  0.83887939  0.12500000  1
  Mg  Mg5  1  0.66694598  0.83305402  0.62500000  1
  Mg  Mg6  1  0.33357390  0.16642610  0.38531348  1
  Mg  Mg7  1  0.33357390  0.16642610  0.86468652  1
  Mg  Mg8  1  0.33357390  0.66714880  0.38531348  1
  Mg  Mg9  1  0.33357390  0.66714880  0.86468652  1
  Mg  Mg10  1  0.83285120  0.16642610  0.38531348  1
  Mg  Mg11  1  0.83285120  0.16642610  0.86468652  1
  Mg  Mg12  1  0.83333300  0.66666700  0.36919780  1
  Mg  Mg13  1  0.83333300  0.66666700  0.88080220  1
  Cr  Cr0  1  0.16666700  0.33333300  0.62500000  1
loop_
_geom_bond_atom_site_label_1
_geom_bond_atom_site_label_2
_geom_bond_distance
_geom_bond_site_symmetry_2
La0 Mg0 3.278448 1_545
La0 Mg4 3.278448 1_555
La0 Mg4 3.278448 1_445
La0 Mg0 3.278448 1_555
La0 Mg2 3.278449 1_555
La0 Mg2 3.278449 1_455
La0 Mg7 3.287051 1_554
La0 Mg6 3.287051 1_555
La0 Mg8 3.287058 1_555
La0 Mg9 3.287058 1_554
La0 Mg11 3.287058 1_454
La0 Mg10 3.287058 1_455
Mg0 Mg2 3.168762 1_565
Mg0 Mg4 3.168763 1_555
Mg0 Mg12 3.189244 1_455
Mg0 Mg13 3.189244 1_454
Mg0 Mg8 3.267076 1_555
Mg0 Mg9 3.267076 1_554
Mg0 Mg6 3.267083 1_565
Mg0 Mg7 3.267083 1_564
Mg0 Mg2 3.386925 1_455
Mg0 Mg4 3.386925 1_455
Mg1 Mg8 3.114063 1_555
Mg1 Mg9 3.114063 1_555
Mg1 Mg6 3.114069 1_565
Mg1 Mg7 3.114069 1_565
Mg1 Mg13 3.245701 1_455
Mg1 Mg12 3.245701 1_455
Mg1 Mg3 3.272357 1_455
Mg1 Mg5 3.272357 1_455
Mg1 Mg3 3.283330 1_565
Mg1 Mg5 3.283330 1_555
Mg2 Mg4 3.168762 1_545
Mg2 Mg6 3.267083 1_555
Mg2 Mg7 3.267083 1_554
Mg2 Mg4 3.386925 1_555
Mg3 Mg6 3.114070 1_555
Mg3 Mg7 3.114070 1_555
Mg3 Mg5 3.272357 1_555
Mg3 Mg5 3.283330 1_545
Mg4 Mg9 3.267083 1_554
Mg4 Mg8 3.267083 1_555
Mg5 Mg8 3.114070 1_555
Mg5 Mg9 3.114070 1_555
Mg6 Mg8 3.273106 1_545
Mg6 Mg8 3.282581 1_555
Mg7 Mg9 3.273106 1_545
Mg7 Mg9 3.282581 1_555
Mg10 Mg3 3.114063 1_555
Mg10 Mg5 3.114069 1_545
Mg10 Mg2 3.267076 1_555
Mg10 Mg4 3.267083 1_545
Mg10 Mg8 3.273106 1_545
Mg10 Mg6 3.273106 1_555
Mg10 Mg12 3.282059 1_555
Mg10 Mg12 3.282059 1_545
Mg10 Mg8 3.282581 1_655
Mg10 Mg6 3.282582 1_655
Mg11 Mg3 3.114063 1_555
Mg11 Mg5 3.114069 1_545
Mg11 Mg2 3.267076 1_556
Mg11 Mg4 3.267083 1_546
Mg11 Mg9 3.273106 1_545
Mg11 Mg7 3.273106 1_555
Mg11 Mg13 3.282059 1_555
Mg11 Mg13 3.282059 1_545
Mg11 Mg9 3.282581 1_655
Mg11 Mg7 3.282582 1_655
Mg12 Mg4 3.189237 1_555
Mg12 Mg2 3.189244 1_555
Mg12 Mg5 3.245694 1_555
Mg12 Mg3 3.245701 1_555
Mg12 Mg6 3.282059 1_555
Mg12 Mg6 3.282059 1_665
Mg12 Mg8 3.282059 1_555
Mg12 Mg8 3.282059 1_655
Mg13 Mg4 3.189237 1_556
Mg13 Mg2 3.189244 1_556
Mg13 Mg5 3.245694 1_555
Mg13 Mg3 3.245701 1_555
Mg13 Mg7 3.282059 1_555
Mg13 Mg7 3.282059 1_665
Mg13 Mg9 3.282059 1_555
Mg13 Mg9 3.282059 1_655
Cr0 Mg6 3.115590 1_555
Cr0 Mg7 3.115590 1_555
Cr0 Mg9 3.115597 1_555
Cr0 Mg8 3.115597 1_555
Cr0 Mg11 3.115597 1_455
Cr0 Mg10 3.115597 1_455
Cr0 Mg5 3.277845 1_445
Cr0 Mg1 3.277845 1_545
Cr0 Mg1 3.277845 1_555
Cr0 Mg5 3.277845 1_555
Cr0 Mg3 3.277845 1_455
Cr0 Mg3 3.277845 1_555
