# generated using pymatgen
data_Li4MnCo2O7
_symmetry_space_group_name_H-M   'P 1'
_cell_length_a   5.08272800
_cell_length_b   6.63730442
_cell_length_c   7.74262975
_cell_angle_alpha   85.67111162
_cell_angle_beta   76.53579639
_cell_angle_gamma   82.18341507
_symmetry_Int_Tables_number   1
_chemical_formula_structural   Li4MnCo2O7
_chemical_formula_sum   'Li8 Mn2 Co4 O14'
_cell_volume   251.40275041
_cell_formula_units_Z   2
loop_
 _symmetry_equiv_pos_site_id
 _symmetry_equiv_pos_as_xyz
  1  'x, y, z'
loop_
 _atom_site_type_symbol
 _atom_site_label
 _atom_site_symmetry_multiplicity
 _atom_site_fract_x
 _atom_site_fract_y
 _atom_site_fract_z
 _atom_site_occupancy
  Li  Li0  1  0.78112300  0.43137100  0.92541100  1
  Li  Li1  1  0.92429000  0.13694900  0.64848100  1
  Li  Li2  1  0.63881400  0.71775200  0.20623600  1
  Li  Li3  1  0.50564500  0.99732800  0.51068800  1
  Li  Li4  1  0.35769800  0.28050500  0.78523100  1
  Li  Li5  1  0.22529600  0.58341800  0.06721800  1
  Li  Li6  1  0.06726100  0.85227800  0.35682000  1
  Li  Li7  1  0.57250500  0.85855100  0.85679700  1
  Mn  Mn0  1  0.00190500  0.99503500  0.00082000  1
  Mn  Mn1  1  0.28505900  0.42929700  0.42751300  1
  Co  Co0  1  0.13216600  0.72460400  0.71558900  1
  Co  Co1  1  0.43475500  0.13494500  0.13478500  1
  Co  Co2  1  0.70618800  0.57866200  0.58251100  1
  Co  Co3  1  0.85651300  0.28619800  0.28598500  1
  O  O0  1  0.68553200  0.13882900  0.91352700  1
  O  O1  1  0.83925200  0.84285200  0.60837300  1
  O  O2  1  0.52453100  0.42253900  0.19364400  1
  O  O3  1  0.39397600  0.69263200  0.46293200  1
  O  O4  1  0.22978300  0.99318700  0.76528300  1
  O  O5  1  0.09098400  0.26564800  0.04441700  1
  O  O6  1  0.97717600  0.55175900  0.33608000  1
  O  O7  1  0.90964900  0.73351600  0.96586100  1
  O  O8  1  0.04872100  0.43704100  0.66239600  1
  O  O9  1  0.75930300  0.00709100  0.23700800  1
  O  O10  1  0.59841300  0.29375900  0.51686500  1
  O  O11  1  0.46596600  0.57168900  0.80260100  1
  O  O12  1  0.29723200  0.87737300  0.10375600  1
  O  O13  1  0.19026400  0.16519300  0.38317100  1
loop_
_geom_bond_atom_site_label_1
_geom_bond_atom_site_label_2
_geom_bond_distance
_geom_bond_site_symmetry_2
Li0 O0 2.078242 1_555
Li0 O11 2.123041 1_555
Li0 O5 2.142641 1_656
Li0 O8 2.170467 1_655
Li0 O2 2.181435 1_556
Li0 O7 2.256772 1_555
Li1 O4 2.063970 1_645
Li1 O1 2.115918 1_545
Li1 O0 2.127020 1_555
Li1 O8 2.187613 1_655
Li1 O13 2.190900 1_655
Li1 O10 2.241024 1_555
Li2 O7 2.046085 1_554
Li2 O3 2.093142 1_555
Li2 O2 2.133315 1_555
Li2 O9 2.139345 1_565
Li2 O12 2.186456 1_555
Li2 O6 2.303215 1_555
Li3 O10 2.091107 1_565
Li3 O1 2.122670 1_555
Li3 O4 2.137219 1_555
Li3 O13 2.207013 1_565
Li3 O9 2.210516 1_565
Li3 O3 2.252033 1_555
Li4 O11 2.102177 1_555
Li4 O4 2.124087 1_545
Li4 O8 2.133739 1_555
Li4 O5 2.148086 1_556
Li4 O10 2.154062 1_555
Li4 O0 2.202520 1_555
Li5 O7 2.053248 1_454
Li5 O12 2.084687 1_555
Li5 O2 2.122585 1_555
Li5 O11 2.128664 1_554
Li5 O6 2.179812 1_455
Li5 O5 2.334446 1_555
Li6 O1 2.022537 1_455
Li6 O12 2.042145 1_555
Li6 O9 2.112166 1_465
Li6 O6 2.131907 1_455
Li6 O3 2.140255 1_555
Li6 O13 2.285303 1_565
Li7 O1 2.079944 1_555
Li7 O12 2.090947 1_556
Li7 O4 2.095428 1_555
Li7 O0 2.124900 1_565
Li7 O7 2.125914 1_555
Li7 O11 2.145079 1_555
Mn0 O12 1.908555 1_555
Mn0 O7 1.912460 1_454
Mn0 O4 1.919207 1_554
Mn0 O9 1.953527 1_465
Mn0 O5 1.982161 1_565
Mn0 O0 1.986144 1_464
Mn1 O6 1.921913 1_455
Mn1 O8 1.932092 1_555
Mn1 O2 1.932209 1_555
Mn1 O13 1.954593 1_555
Mn1 O3 1.960318 1_555
Mn1 O10 1.963162 1_555
Co0 O1 1.918588 1_455
Co0 O4 2.001287 1_555
Co0 O7 2.004022 1_455
Co0 O11 2.079219 1_555
Co0 O8 2.100626 1_555
Co0 O3 2.101494 1_555
Co1 O0 1.882963 1_554
Co1 O12 1.983490 1_545
Co1 O13 2.039762 1_555
Co1 O9 2.047813 1_555
Co1 O5 2.088195 1_555
Co1 O2 2.127131 1_555
Co2 O11 1.852396 1_555
Co2 O1 2.002740 1_555
Co2 O3 2.049289 1_555
Co2 O8 2.065375 1_655
Co2 O6 2.080933 1_555
Co2 O10 2.165817 1_555
Co3 O10 1.955157 1_555
Co3 O5 1.973187 1_655
Co3 O6 2.035039 1_555
Co3 O13 2.054634 1_655
Co3 O2 2.055747 1_555
Co3 O9 2.064467 1_555
