# generated using pymatgen
data_CaMn4O8
_symmetry_space_group_name_H-M   'P 1'
_cell_length_a   5.83488800
_cell_length_b   5.87678160
_cell_length_c   5.97294481
_cell_angle_alpha   89.40058940
_cell_angle_beta   117.56778452
_cell_angle_gamma   106.00198243
_symmetry_Int_Tables_number   1
_chemical_formula_structural   CaMn4O8
_chemical_formula_sum   'Ca1 Mn4 O8'
_cell_volume   172.86920464
_cell_formula_units_Z   1
loop_
 _symmetry_equiv_pos_site_id
 _symmetry_equiv_pos_as_xyz
  1  'x, y, z'
loop_
 _atom_site_type_symbol
 _atom_site_label
 _atom_site_symmetry_multiplicity
 _atom_site_fract_x
 _atom_site_fract_y
 _atom_site_fract_z
 _atom_site_occupancy
  Ca  Ca0  1  0.50000000  0.00000000  0.50000000  1
  Mn  Mn0  1  0.00948100  0.52519800  0.75452800  1
  Mn  Mn1  1  0.49896200  0.49862400  0.24642300  1
  Mn  Mn2  1  0.99051900  0.47480200  0.24547200  1
  Mn  Mn3  1  0.50103800  0.50137600  0.75357700  1
  O  O0  1  0.25443200  0.69052700  0.63410700  1
  O  O1  1  0.24643200  0.68161200  0.15200100  1
  O  O2  1  0.72098100  0.66671800  0.10035900  1
  O  O3  1  0.71326400  0.68707200  0.59413300  1
  O  O4  1  0.27901900  0.33328200  0.89964100  1
  O  O5  1  0.28673600  0.31292800  0.40586700  1
  O  O6  1  0.74556800  0.30947300  0.36589300  1
  O  O7  1  0.75356800  0.31838800  0.84799900  1
loop_
_geom_bond_atom_site_label_1
_geom_bond_atom_site_label_2
_geom_bond_distance
_geom_bond_site_symmetry_2
Ca0 O0 2.365903 1_545
Ca0 O6 2.365903 1_555
Ca0 O1 2.391458 1_545
Ca0 O7 2.391458 1_555
Ca0 O3 2.416405 1_545
Ca0 O5 2.416405 1_555
Mn0 O0 1.917140 1_555
Mn0 O7 1.943039 1_455
Mn0 O3 2.040818 1_455
Mn0 O4 2.047569 1_555
Mn0 O1 2.167852 1_556
Mn0 O6 2.245789 1_455
Mn1 O6 1.931379 1_555
Mn1 O1 1.933244 1_555
Mn1 O2 1.933315 1_555
Mn1 O4 1.943097 1_554
Mn1 O5 1.988988 1_555
Mn1 O3 1.996062 1_555
Mn2 O6 1.917140 1_555
Mn2 O1 1.943039 1_655
Mn2 O5 2.040818 1_655
Mn2 O2 2.047569 1_555
Mn2 O7 2.167852 1_554
Mn2 O0 2.245789 1_655
Mn3 O0 1.931379 1_555
Mn3 O7 1.933244 1_555
Mn3 O4 1.933315 1_555
Mn3 O2 1.943097 1_556
Mn3 O3 1.988988 1_555
Mn3 O5 1.996062 1_555
