# generated using pymatgen
data_Mg5Si9
_symmetry_space_group_name_H-M   'P 1'
_cell_length_a   6.64558000
_cell_length_b   6.76077642
_cell_length_c   13.27574949
_cell_angle_alpha   85.92195451
_cell_angle_beta   102.17818344
_cell_angle_gamma   113.86744302
_symmetry_Int_Tables_number   1
_chemical_formula_structural   Mg5Si9
_chemical_formula_sum   'Mg10 Si18'
_cell_volume   533.11958011
_cell_formula_units_Z   2
loop_
 _symmetry_equiv_pos_site_id
 _symmetry_equiv_pos_as_xyz
  1  'x, y, z'
loop_
 _atom_site_type_symbol
 _atom_site_label
 _atom_site_symmetry_multiplicity
 _atom_site_fract_x
 _atom_site_fract_y
 _atom_site_fract_z
 _atom_site_occupancy
  Mg  Mg0  1  0.65724600  0.00337600  0.68244200  1
  Mg  Mg1  1  0.68566200  0.02599100  0.41020500  1
  Mg  Mg2  1  0.23630200  0.70556000  0.52909900  1
  Mg  Mg3  1  0.74834400  0.47007800  0.36582800  1
  Mg  Mg4  1  0.79896200  0.71450600  0.55878600  1
  Mg  Mg5  1  0.22008300  0.23044000  0.49381900  1
  Mg  Mg6  1  0.36363200  0.06178800  0.08413700  1
  Mg  Mg7  1  0.54769800  0.13210400  0.87175900  1
  Mg  Mg8  1  0.98336400  0.56765600  0.05090500  1
  Mg  Mg9  1  0.06662500  0.27017700  0.88439700  1
  Si  Si0  1  0.24182100  0.34832000  0.19008600  1
  Si  Si1  1  0.53503700  0.50708900  0.95424900  1
  Si  Si2  1  0.98928000  0.89284400  0.36418200  1
  Si  Si3  1  0.16973200  0.29548500  0.69591700  1
  Si  Si4  1  0.82670600  0.28458300  0.21091400  1
  Si  Si5  1  0.07156000  0.74365500  0.80871900  1
  Si  Si6  1  0.34116100  0.73664200  0.23561100  1
  Si  Si7  1  0.78540500  0.42057500  0.72821600  1
  Si  Si8  1  0.72906300  0.86937500  0.20225300  1
  Si  Si9  1  0.22511200  0.97246000  0.67426000  1
  Si  Si10  1  0.77255200  0.80571200  0.86397900  1
  Si  Si11  1  0.90281600  0.11308700  0.06598800  1
  Si  Si12  1  0.32253800  0.07961700  0.30174500  1
  Si  Si13  1  0.52762300  0.58357600  0.70432000  1
  Si  Si14  1  0.33612700  0.73742100  0.95912400  1
  Si  Si15  1  0.61657000  0.49824000  0.13836400  1
  Si  Si16  1  0.86898400  0.33232000  0.56850100  1
  Si  Si17  1  0.42958400  0.59729100  0.40194800  1
loop_
_geom_bond_atom_site_label_1
_geom_bond_atom_site_label_2
_geom_bond_distance
_geom_bond_site_symmetry_2
Mg0 Si13 2.625159 1_545
Mg0 Si16 2.664786 1_555
Mg0 Si7 2.670540 1_555
Mg0 Si9 2.772812 1_545
Mg0 Si10 2.787971 1_545
Mg0 Mg7 3.033155 1_555
Mg0 Si3 3.143508 1_655
Mg1 Si12 2.682513 1_555
Mg1 Si17 2.698795 1_545
Mg1 Si2 2.706104 1_545
Mg1 Si16 2.772489 1_555
Mg1 Si6 3.036854 1_545
Mg1 Si8 3.134448 1_545
Mg1 Si4 3.161847 1_555
Mg2 Si17 2.624209 1_555
Mg2 Si9 2.763877 1_555
Mg2 Si16 2.822427 1_455
Mg2 Si2 2.977072 1_455
Mg2 Si13 2.993082 1_555
Mg3 Si2 2.652553 1_555
Mg3 Si17 2.723713 1_555
Mg3 Si4 2.724102 1_555
Mg3 Si16 2.843838 1_555
Mg3 Si15 2.976490 1_555
Mg3 Si12 2.993073 1_555
Mg4 Si17 2.737351 1_555
Mg4 Si13 2.775419 1_555
Mg4 Si16 2.794615 1_555
Mg4 Si9 2.821981 1_655
Mg4 Si7 2.884676 1_555
Mg4 Si2 3.070737 1_555
Mg5 Si17 2.658782 1_555
Mg5 Si2 2.671312 1_445
Mg5 Si3 2.858236 1_555
Mg5 Si9 2.863682 1_545
Mg5 Si16 3.045520 1_455
Mg5 Si12 3.109600 1_555
Mg6 Si14 2.768074 1_544
Mg6 Si15 2.797938 1_555
Mg6 Si6 2.851441 1_545
Mg6 Si0 2.919469 1_555
Mg6 Si12 2.973875 1_555
Mg6 Si4 2.999347 1_555
Mg6 Si11 3.176929 1_455
Mg6 Mg7 3.235057 1_554
Mg7 Si14 2.766587 1_545
Mg7 Si7 2.859867 1_555
Mg7 Si1 2.870526 1_555
Mg7 Si9 2.965448 1_545
Mg7 Si11 3.140987 1_556
Mg7 Si10 3.143062 1_545
Mg7 Mg9 3.156777 1_655
Mg7 Si5 3.174943 1_545
Mg8 Si14 2.669572 1_654
Mg8 Si15 2.775048 1_555
Mg8 Si4 2.828662 1_555
Mg8 Si1 2.857530 1_554
Mg8 Si11 2.897907 1_555
Mg8 Si6 2.951618 1_655
Mg8 Si0 2.982556 1_655
Mg8 Si10 3.240536 1_554
Mg9 Si3 2.706927 1_555
Mg9 Si11 2.816420 1_456
Mg9 Si1 2.841464 1_555
Mg9 Si7 2.903224 1_455
Mg9 Si10 2.946975 1_445
Mg9 Si14 3.047686 1_555
Si0 Si12 2.419792 1_555
Si0 Si11 2.495243 1_455
Si0 Si15 2.506153 1_555
Si0 Si6 2.519598 1_555
Si0 Si4 2.686140 1_455
Si1 Si15 2.391289 1_556
Si1 Si10 2.424615 1_555
Si1 Si14 2.427488 1_555
Si2 Si8 2.427961 1_555
Si3 Si9 2.402479 1_545
Si4 Si8 2.618133 1_545
Si5 Si7 2.375442 1_455
Si5 Si9 2.391432 1_555
Si6 Si8 2.489928 1_555
Si10 Si5 2.448711 1_655
Si10 Si13 2.533076 1_555
Si11 Si8 2.497686 1_545
Si11 Si4 2.550365 1_555
Si12 Si2 2.355625 1_445
Si12 Si6 2.594325 1_545
Si13 Si7 2.344900 1_555
Si13 Si3 2.373393 1_555
Si14 Si5 2.376309 1_555
Si15 Si4 2.414830 1_555
Si15 Si8 2.468068 1_555
Si16 Si3 2.415453 1_655
Si16 Si7 2.470903 1_555
Si17 Si6 2.390374 1_555
