# generated using pymatgen
data_Ni3P4H48(NO15)2
_symmetry_space_group_name_H-M   'P 1'
_cell_length_a   6.21333150
_cell_length_b   7.00745500
_cell_length_c   17.60559034
_cell_angle_alpha   101.47920356
_cell_angle_beta   90.95417336
_cell_angle_gamma   90.00000000
_symmetry_Int_Tables_number   1
_chemical_formula_structural   Ni3P4H48(NO15)2
_chemical_formula_sum   'Ni3 P4 H48 N2 O30'
_cell_volume   751.09949954
_cell_formula_units_Z   1
loop_
 _symmetry_equiv_pos_site_id
 _symmetry_equiv_pos_as_xyz
  1  'x, y, z'
loop_
 _atom_site_type_symbol
 _atom_site_label
 _atom_site_symmetry_multiplicity
 _atom_site_fract_x
 _atom_site_fract_y
 _atom_site_fract_z
 _atom_site_occupancy
  Ni  Ni0  1  0.75048000  0.16655500  0.33310900  1
  Ni  Ni1  1  0.24952000  0.83344500  0.66689100  1
  Ni  Ni2  1  0.00000000  0.50000000  0.00000000  1
  P  P0  1  0.34467500  0.04834000  0.09668000  1
  P  P1  1  0.65532500  0.95166000  0.90332000  1
  P  P2  1  0.36989600  0.70430100  0.40860100  1
  P  P3  1  0.63010400  0.29569900  0.59139900  1
  H  H0  1  0.31933500  0.00777200  0.01554400  1
  H  H1  1  0.68066500  0.99222800  0.98445600  1
  H  H2  1  0.57776300  0.72082300  0.44164600  1
  H  H3  1  0.42223700  0.27917700  0.55835400  1
  H  H4  1  0.38167000  0.31968200  0.40637500  1
  H  H5  1  0.38167000  0.08669300  0.40637500  1
  H  H6  1  0.61833000  0.68031800  0.59362500  1
  H  H7  1  0.61833000  0.91330700  0.59362500  1
  H  H8  1  0.79697200  0.43002800  0.46451600  1
  H  H9  1  0.79697200  0.03448800  0.46451600  1
  H  H10  1  0.20302800  0.56997200  0.53548400  1
  H  H11  1  0.20302800  0.96551200  0.53548400  1
  H  H12  1  0.99866100  0.45878200  0.41394600  1
  H  H13  1  0.99866100  0.95516400  0.41394600  1
  H  H14  1  0.00133900  0.54121800  0.58605400  1
  H  H15  1  0.00133900  0.04483600  0.58605400  1
  H  H16  1  0.19022600  0.15480000  0.30959900  1
  H  H17  1  0.80977400  0.84520000  0.69040100  1
  H  H18  1  0.07923300  0.11193500  0.22387000  1
  H  H19  1  0.92076700  0.88806500  0.77613000  1
  H  H20  1  0.56124100  0.82254700  0.28429500  1
  H  H21  1  0.56124100  0.46174800  0.28429500  1
  H  H22  1  0.43875900  0.17745300  0.71570500  1
  H  H23  1  0.43875900  0.53825200  0.71570500  1
  H  H24  1  0.58539600  0.90383700  0.20669700  1
  H  H25  1  0.58539600  0.30286100  0.20669700  1
  H  H26  1  0.41460400  0.09616300  0.79330300  1
  H  H27  1  0.41460400  0.69713900  0.79330300  1
  H  H28  1  0.03919600  0.77391400  0.90947800  1
  H  H29  1  0.03919600  0.13556400  0.90947800  1
  H  H30  1  0.96080400  0.22608600  0.09052200  1
  H  H31  1  0.96080400  0.86443600  0.09052200  1
  H  H32  1  0.28098800  0.70414900  0.91931200  1
  H  H33  1  0.28098800  0.21516300  0.91931200  1
  H  H34  1  0.71901200  0.29585100  0.08068800  1
  H  H35  1  0.71901200  0.78483700  0.08068800  1
  H  H36  1  0.34896600  0.66184800  0.09019600  1
  H  H37  1  0.34896600  0.42834800  0.09019600  1
  H  H38  1  0.65103400  0.33815200  0.90980400  1
  H  H39  1  0.65103400  0.57165200  0.90980400  1
  H  H40  1  0.15813800  0.63465800  0.26931600  1
  H  H41  1  0.84186200  0.36534200  0.73068400  1
  H  H42  1  0.92238700  0.50318100  0.24478300  1
  H  H43  1  0.92238700  0.74160200  0.24478300  1
  H  H44  1  0.07761300  0.49681900  0.75521700  1
  H  H45  1  0.07761300  0.25839800  0.75521700  1
  H  H46  1  0.05969500  0.58827100  0.17654300  1
  H  H47  1  0.94030500  0.41172900  0.82345700  1
  N  N0  1  0.01720900  0.61708700  0.23417500  1
  N  N1  1  0.98279100  0.38291300  0.76582500  1
  O  O0  1  0.47035300  0.87658000  0.11867400  1
  O  O1  1  0.47035300  0.24209400  0.11867400  1
  O  O2  1  0.52964700  0.12342000  0.88132600  1
  O  O3  1  0.52964700  0.75790600  0.88132600  1
  O  O4  1  0.11357200  0.06411300  0.12822700  1
  O  O5  1  0.88642800  0.93588700  0.87177300  1
  O  O6  1  0.39937500  0.65978400  0.31956700  1
  O  O7  1  0.60062500  0.34021600  0.68043300  1
  O  O8  1  0.25790300  0.90220400  0.43687100  1
  O  O9  1  0.25790300  0.53466700  0.43687100  1
  O  O10  1  0.74209700  0.09779600  0.56312900  1
  O  O11  1  0.74209700  0.46533300  0.56312900  1
  O  O12  1  0.43323400  0.18900300  0.37800600  1
  O  O13  1  0.56676600  0.81099700  0.62199400  1
  O  O14  1  0.84398900  0.41832600  0.40983800  1
  O  O15  1  0.84398900  0.99151200  0.40983800  1
  O  O16  1  0.15601100  0.58167400  0.59016200  1
  O  O17  1  0.15601100  0.00848800  0.59016200  1
  O  O18  1  0.05151900  0.14046400  0.28092800  1
  O  O19  1  0.94848100  0.85953600  0.71907200  1
  O  O20  1  0.65720000  0.90417600  0.25813300  1
  O  O21  1  0.65720000  0.35395800  0.25813300  1
  O  O22  1  0.34280000  0.09582500  0.74186700  1
  O  O23  1  0.34280000  0.64604200  0.74186700  1
  O  O24  1  0.12896600  0.67362800  0.92817400  1
  O  O25  1  0.12896600  0.25454600  0.92817400  1
  O  O26  1  0.87103400  0.32637200  0.07182600  1
  O  O27  1  0.87103400  0.74545400  0.07182600  1
  O  O28  1  0.26275500  0.53847600  0.07695100  1
  O  O29  1  0.73724500  0.46152400  0.92304900  1
loop_
_geom_bond_atom_site_label_1
_geom_bond_atom_site_label_2
_geom_bond_distance
_geom_bond_site_symmetry_2
Ni0 O14 2.073717 1_555
Ni0 O15 2.073722 1_545
Ni0 O18 2.089587 1_655
Ni0 O20 2.113603 1_545
Ni0 O21 2.113603 1_555
Ni0 O12 2.130115 1_555
Ni1 O16 2.073717 1_555
Ni1 O17 2.073722 1_565
Ni1 O19 2.089587 1_455
Ni1 O23 2.113603 1_555
Ni1 O22 2.113608 1_565
Ni1 O13 2.130115 1_555
Ni2 O28 2.086713 1_555
Ni2 O29 2.086713 1_454
Ni2 O27 2.089885 1_455
Ni2 O25 2.089885 1_554
Ni2 O26 2.089885 1_455
Ni2 O24 2.089885 1_554
H0 P0 1.406039 1_555
H1 P1 1.406039 1_555
H2 P2 1.402899 1_555
H3 P3 1.402899 1_555
H4 O12 1.006948 1_555
H4 O9 1.685521 1_555
H5 O12 1.006948 1_555
H5 O8 1.685521 1_545
H6 O13 1.006948 1_555
H6 O11 1.685521 1_555
H7 O13 1.006948 1_555
H7 O10 1.685521 1_565
H8 O14 0.998341 1_555
H8 O11 1.743673 1_555
H9 O15 0.998341 1_545
H9 O10 1.743673 1_555
H10 O16 0.998341 1_555
H10 O9 1.743673 1_555
H11 O17 0.998341 1_565
H11 O8 1.743673 1_555
H12 O14 0.999349 1_555
H12 O9 1.712638 1_655
H13 O15 0.999349 1_555
H13 O8 1.712638 1_655
H14 O16 0.999349 1_555
H14 O11 1.712638 1_455
H15 O17 0.999349 1_555
H15 O10 1.712638 1_455
H16 O18 0.986391 1_555
H17 O19 0.986391 1_555
H18 O18 1.002271 1_555
H18 O4 1.667497 1_555
H19 O19 1.002271 1_555
H19 O5 1.667497 1_555
H20 O20 1.004412 1_555
H21 O21 1.004408 1_555
H22 O22 1.004408 1_555
H23 O23 1.004408 1_555
H24 O20 1.002386 1_555
H24 O0 1.671609 1_555
H25 O21 1.002386 1_555
H25 O1 1.671609 1_555
H26 O22 1.002387 1_555
H26 O2 1.671609 1_555
H27 O23 1.002386 1_555
H27 O3 1.671609 1_555
H28 O24 0.999631 1_555
H28 O5 1.705522 1_455
H29 O25 0.999631 1_555
H29 O5 1.705516 1_445
H30 O26 0.999631 1_555
H30 O4 1.705522 1_655
H31 O27 0.999631 1_555
H31 O4 1.705516 1_665
H32 O24 0.990189 1_555
H32 O3 1.763764 1_555
H33 O25 0.990189 1_555
H33 O2 1.763764 1_555
H34 O26 0.990189 1_555
H34 O1 1.763764 1_555
H35 O27 0.990189 1_555
H35 O0 1.763764 1_555
H36 O28 1.002151 1_555
H36 O0 1.664794 1_555
H37 O28 1.002157 1_555
H37 O1 1.664794 1_555
H38 O29 1.002151 1_555
H38 O2 1.664794 1_555
H39 O29 1.002157 1_555
H39 O3 1.664794 1_555
H40 N0 1.056552 1_555
H41 N1 1.056552 1_555
H42 N0 1.040239 1_655
H43 N0 1.040244 1_655
H44 N1 1.040239 1_455
H45 N1 1.040244 1_455
H46 N0 1.033120 1_555
H47 N1 1.033120 1_555
O0 P0 1.543954 1_565
O1 P0 1.543954 1_555
O2 P1 1.543954 1_545
O3 P1 1.543954 1_555
O4 P0 1.544242 1_555
O5 P1 1.544242 1_555
O6 P2 1.550110 1_555
O7 P3 1.550110 1_555
O8 P2 1.546588 1_555
O9 P2 1.546594 1_555
O10 P3 1.546588 1_555
O11 P3 1.546594 1_555
