# generated using pymatgen
data_Ca8Mn7CrO23
_symmetry_space_group_name_H-M   'P 1'
_cell_length_a   7.59874100
_cell_length_b   7.59874100
_cell_length_c   7.70658400
_cell_angle_alpha   90.00000000
_cell_angle_beta   90.00000000
_cell_angle_gamma   90.00000000
_symmetry_Int_Tables_number   1
_chemical_formula_structural   Ca8Mn7CrO23
_chemical_formula_sum   'Ca8 Mn7 Cr1 O23'
_cell_volume   444.98482470
_cell_formula_units_Z   1
loop_
 _symmetry_equiv_pos_site_id
 _symmetry_equiv_pos_as_xyz
  1  'x, y, z'
loop_
 _atom_site_type_symbol
 _atom_site_label
 _atom_site_symmetry_multiplicity
 _atom_site_fract_x
 _atom_site_fract_y
 _atom_site_fract_z
 _atom_site_occupancy
  Ca  Ca0  1  0.25966700  0.25966700  0.25195100  1
  Ca  Ca1  1  0.26465200  0.26465200  0.74131700  1
  Ca  Ca2  1  0.25966700  0.74033300  0.25195100  1
  Ca  Ca3  1  0.26465200  0.73534800  0.74131700  1
  Ca  Ca4  1  0.74033300  0.25966700  0.25195100  1
  Ca  Ca5  1  0.73534800  0.26465200  0.74131700  1
  Ca  Ca6  1  0.74033300  0.74033300  0.25195100  1
  Ca  Ca7  1  0.73534800  0.73534800  0.74131700  1
  Mn  Mn0  1  0.00000000  0.00000000  0.50240000  1
  Mn  Mn1  1  0.00000000  0.50000000  0.00325100  1
  Mn  Mn2  1  0.00000000  0.50000000  0.49495400  1
  Mn  Mn3  1  0.50000000  0.00000000  0.00325100  1
  Mn  Mn4  1  0.50000000  0.00000000  0.49495400  1
  Mn  Mn5  1  0.50000000  0.50000000  0.00055700  1
  Mn  Mn6  1  0.50000000  0.50000000  0.49758100  1
  Cr  Cr0  1  0.00000000  0.00000000  0.98948800  1
  O  O0  1  0.00000000  0.00000000  0.75842300  1
  O  O1  1  0.00000000  0.50000000  0.24951600  1
  O  O2  1  0.00000000  0.50000000  0.75033700  1
  O  O3  1  0.50000000  0.00000000  0.24951600  1
  O  O4  1  0.50000000  0.00000000  0.75033700  1
  O  O5  1  0.50000000  0.50000000  0.24982500  1
  O  O6  1  0.50000000  0.50000000  0.74866100  1
  O  O7  1  0.24075200  0.00000000  0.03351000  1
  O  O8  1  0.24795300  0.00000000  0.47455500  1
  O  O9  1  0.25065600  0.50000000  0.99455600  1
  O  O10  1  0.25122300  0.50000000  0.50584700  1
  O  O11  1  0.75924800  0.00000000  0.03351000  1
  O  O12  1  0.75204700  0.00000000  0.47455500  1
  O  O13  1  0.74934400  0.50000000  0.99455600  1
  O  O14  1  0.74877600  0.50000000  0.50584700  1
  O  O15  1  0.00000000  0.24075200  0.03351000  1
  O  O16  1  0.00000000  0.24795300  0.47455500  1
  O  O17  1  0.00000000  0.75924800  0.03351000  1
  O  O18  1  0.00000000  0.75204700  0.47455500  1
  O  O19  1  0.50000000  0.25065600  0.99455600  1
  O  O20  1  0.50000000  0.25122300  0.50584700  1
  O  O21  1  0.50000000  0.74934400  0.99455600  1
  O  O22  1  0.50000000  0.74877600  0.50584700  1
loop_
_geom_bond_atom_site_label_1
_geom_bond_atom_site_label_2
_geom_bond_distance
_geom_bond_site_symmetry_2
Ca0 O5 2.582729 1_555
Ca0 O15 2.597672 1_555
Ca0 O7 2.597672 1_555
Ca0 O8 2.616144 1_555
Ca0 O16 2.616144 1_555
Ca0 O10 2.677272 1_555
Ca0 O20 2.677272 1_555
Ca0 O3 2.688634 1_555
Ca0 O1 2.688634 1_555
Ca0 O9 2.697149 1_554
Ca0 O19 2.697149 1_554
Ca1 O6 2.529740 1_555
Ca1 O10 2.549829 1_555
Ca1 O20 2.549829 1_555
Ca1 O19 2.649202 1_555
Ca1 O9 2.649202 1_555
Ca1 O2 2.692068 1_555
Ca1 O4 2.692068 1_555
Ca1 O0 2.847068 1_555
Ca1 O8 2.878667 1_555
Ca1 O16 2.878667 1_555
Ca1 O7 3.024540 1_556
Ca1 O15 3.024540 1_556
Ca2 O5 2.582729 1_555
Ca2 O17 2.597672 1_555
Ca2 O7 2.597672 1_565
Ca2 O18 2.616144 1_555
Ca2 O8 2.616144 1_565
Ca2 O22 2.677272 1_555
Ca2 O10 2.677272 1_555
Ca2 O3 2.688634 1_565
Ca2 O1 2.688634 1_555
Ca2 O21 2.697149 1_554
Ca2 O9 2.697149 1_554
Ca3 O6 2.529740 1_555
Ca3 O22 2.549829 1_555
Ca3 O10 2.549829 1_555
Ca3 O21 2.649202 1_555
Ca3 O9 2.649202 1_555
Ca3 O4 2.692068 1_565
Ca3 O2 2.692068 1_555
Ca3 O0 2.847068 1_565
Ca3 O18 2.878667 1_555
Ca3 O8 2.878667 1_565
Ca3 O17 3.024540 1_556
Ca3 O7 3.024540 1_566
Ca4 O5 2.582729 1_555
Ca4 O15 2.597672 1_655
Ca4 O11 2.597672 1_555
Ca4 O16 2.616144 1_655
Ca4 O12 2.616144 1_555
Ca4 O14 2.677272 1_555
Ca4 O20 2.677272 1_555
Ca4 O1 2.688634 1_655
Ca4 O3 2.688634 1_555
Ca4 O13 2.697149 1_554
Ca4 O19 2.697149 1_554
Ca5 O6 2.529740 1_555
Ca5 O14 2.549829 1_555
Ca5 O20 2.549829 1_555
Ca5 O19 2.649202 1_555
Ca5 O13 2.649202 1_555
Ca5 O2 2.692068 1_655
Ca5 O4 2.692068 1_555
Ca5 O0 2.847068 1_655
Ca5 O16 2.878667 1_655
Ca5 O12 2.878667 1_555
Ca5 O15 3.024540 1_656
Ca5 O11 3.024540 1_556
Ca6 O5 2.582729 1_555
Ca6 O11 2.597672 1_565
Ca6 O17 2.597672 1_655
Ca6 O18 2.616144 1_655
Ca6 O12 2.616144 1_565
Ca6 O14 2.677272 1_555
Ca6 O22 2.677272 1_555
Ca6 O1 2.688634 1_655
Ca6 O3 2.688634 1_565
Ca6 O13 2.697149 1_554
Ca6 O21 2.697149 1_554
Ca7 O6 2.529740 1_555
Ca7 O14 2.549829 1_555
Ca7 O22 2.549829 1_555
Ca7 O21 2.649202 1_555
Ca7 O13 2.649202 1_555
Ca7 O4 2.692068 1_565
Ca7 O2 2.692068 1_655
Ca7 O0 2.847068 1_665
Ca7 O18 2.878667 1_655
Ca7 O12 2.878667 1_565
Ca7 O17 3.024540 1_656
Ca7 O11 3.024540 1_566
Mn0 O18 1.896311 1_545
Mn0 O12 1.896311 1_455
Mn0 O8 1.896311 1_555
Mn0 O16 1.896311 1_555
Mn0 O0 1.973063 1_555
Mn1 O1 1.897862 1_555
Mn1 O9 1.905848 1_554
Mn1 O13 1.905848 1_454
Mn1 O2 1.949103 1_554
Mn1 O15 1.983713 1_555
Mn1 O17 1.983713 1_555
Mn2 O1 1.891489 1_555
Mn2 O10 1.910823 1_555
Mn2 O14 1.910831 1_455
Mn2 O18 1.921681 1_555
Mn2 O16 1.921681 1_555
Mn2 O2 1.968131 1_555
Mn3 O3 1.897862 1_555
Mn3 O19 1.905848 1_554
Mn3 O21 1.905848 1_544
Mn3 O4 1.949103 1_554
Mn3 O7 1.983713 1_555
Mn3 O11 1.983713 1_555
Mn4 O3 1.891489 1_555
Mn4 O20 1.910823 1_555
Mn4 O22 1.910831 1_545
Mn4 O8 1.921681 1_555
Mn4 O12 1.921681 1_555
Mn4 O4 1.968131 1_555
Mn5 O19 1.895265 1_554
Mn5 O21 1.895265 1_554
Mn5 O13 1.895265 1_554
Mn5 O9 1.895265 1_554
Mn5 O5 1.921005 1_555
Mn5 O6 1.941258 1_554
Mn6 O22 1.891457 1_555
Mn6 O14 1.891457 1_555
Mn6 O10 1.891465 1_555
Mn6 O20 1.891465 1_555
Mn6 O5 1.909352 1_555
Mn6 O6 1.934969 1_555
Cr0 O0 1.780722 1_555
Cr0 O11 1.860604 1_456
Cr0 O17 1.860604 1_546
Cr0 O15 1.860604 1_556
Cr0 O7 1.860604 1_556
