# generated using pymatgen
data_La8Al4I7
_symmetry_space_group_name_H-M   'P 1'
_cell_length_a   4.33090900
_cell_length_b   18.13862744
_cell_length_c   25.54661661
_cell_angle_alpha   77.18568167
_cell_angle_beta   85.16662551
_cell_angle_gamma   83.14162703
_symmetry_Int_Tables_number   1
_chemical_formula_structural   La8Al4I7
_chemical_formula_sum   'La24 Al12 I21'
_cell_volume   1939.41089824
_cell_formula_units_Z   3
loop_
 _symmetry_equiv_pos_site_id
 _symmetry_equiv_pos_as_xyz
  1  'x, y, z'
loop_
 _atom_site_type_symbol
 _atom_site_label
 _atom_site_symmetry_multiplicity
 _atom_site_fract_x
 _atom_site_fract_y
 _atom_site_fract_z
 _atom_site_occupancy
  La  La0  1  0.30166600  0.89932600  0.29771800  1
  La  La1  1  0.69833400  0.10067400  0.70228200  1
  La  La2  1  0.65789000  0.30285900  0.97827700  1
  La  La3  1  0.75233200  0.73827700  0.23698200  1
  La  La4  1  0.10055800  0.12863900  0.91872800  1
  La  La5  1  0.97605000  0.58885900  0.64101900  1
  La  La6  1  0.59084000  0.78009700  0.60197200  1
  La  La7  1  0.13667600  0.74283100  0.47394100  1
  La  La8  1  0.40916000  0.21990300  0.39802800  1
  La  La9  1  0.34211000  0.69714100  0.02172300  1
  La  La10  1  0.72089900  0.51404200  0.06536500  1
  La  La11  1  0.42570900  0.42794600  0.57686400  1
  La  La12  1  0.53899400  0.95336800  0.87670400  1
  La  La13  1  0.57429100  0.57205400  0.42313600  1
  La  La14  1  0.02395000  0.41114100  0.35898100  1
  La  La15  1  0.86332400  0.25716900  0.52605900  1
  La  La16  1  0.27910100  0.48595800  0.93463500  1
  La  La17  1  0.92456400  0.09585600  0.24544800  1
  La  La18  1  0.07543600  0.90414400  0.75455200  1
  La  La19  1  0.81099300  0.43868200  0.81235500  1
  La  La20  1  0.18900700  0.56131800  0.18764500  1
  La  La21  1  0.24766800  0.26172300  0.76301800  1
  La  La22  1  0.46100600  0.04663200  0.12329600  1
  La  La23  1  0.89944200  0.87136100  0.08127200  1
  Al  Al0  1  0.69307500  0.25665900  0.86065500  1
  Al  Al1  1  0.77700500  0.67247900  0.11757400  1
  Al  Al2  1  0.45554000  0.36686000  0.45417300  1
  Al  Al3  1  0.65313100  0.13360300  0.82197300  1
  Al  Al4  1  0.87149800  0.94152500  0.19947500  1
  Al  Al5  1  0.34686900  0.86639700  0.17802700  1
  Al  Al6  1  0.30692500  0.74334100  0.13934500  1
  Al  Al7  1  0.01902200  0.55762400  0.52335200  1
  Al  Al8  1  0.98097800  0.44237600  0.47664800  1
  Al  Al9  1  0.22299500  0.32752100  0.88242600  1
  Al  Al10  1  0.12850200  0.05847500  0.80052500  1
  Al  Al11  1  0.54446000  0.63314000  0.54582700  1
  I  I0  1  0.62943000  0.54680200  0.29469800  1
  I  I1  1  0.94045000  0.83211600  0.95844600  1
  I  I2  1  0.38354100  0.57873000  0.81042800  1
  I  I3  1  0.37057000  0.45319800  0.70530200  1
  I  I4  1  0.82085200  0.10963300  0.46886600  1
  I  I5  1  0.48433500  0.79952400  0.82859600  1
  I  I6  1  0.15449900  0.37651500  0.05699600  1
  I  I7  1  0.35867100  0.05759500  0.34265100  1
  I  I8  1  0.01851000  0.73544500  0.70065100  1
  I  I9  1  0.26589100  0.13287900  0.59937200  1
  I  I10  1  0.64132900  0.94240500  0.65734900  1
  I  I11  1  0.73410900  0.86712100  0.40062800  1
  I  I12  1  0.51566500  0.20047600  0.17140400  1
  I  I13  1  0.17914800  0.89036700  0.53113400  1
  I  I14  1  0.18259100  0.70566800  0.34788500  1
  I  I15  1  0.81740900  0.29433200  0.65211500  1
  I  I16  1  0.05955000  0.16788400  0.04155400  1
  I  I17  1  0.84550100  0.62348500  0.94300400  1
  I  I18  1  0.98149000  0.26455500  0.29934900  1
  I  I19  1  0.61645900  0.42127000  0.18957200  1
  I  I20  1  0.50000000  0.00000000  0.00000000  1
loop_
_geom_bond_atom_site_label_1
_geom_bond_atom_site_label_2
_geom_bond_distance
_geom_bond_site_symmetry_2
Al0 Al9 2.368023 1_555
Al0 Al3 2.662335 1_555
Al0 Al9 2.909528 1_655
Al0 La4 2.939711 1_655
Al0 La21 3.258516 1_555
Al0 La2 3.280835 1_555
Al0 La21 3.307643 1_655
Al0 La19 3.342691 1_555
Al0 La4 3.664925 1_555
Al1 Al6 2.368023 1_555
Al1 Al6 2.909528 1_655
Al1 La20 2.920908 1_655
Al1 La9 3.135875 1_555
Al1 La9 3.309324 1_655
Al1 La10 3.466774 1_555
Al1 La3 3.502965 1_555
Al1 La20 3.551330 1_555
Al1 La23 3.611769 1_555
Al2 Al8 2.430581 1_455
Al2 La15 2.921774 1_555
Al2 Al8 2.949211 1_555
Al2 La14 3.097381 1_555
Al2 La8 3.327974 1_555
Al2 La14 3.349035 1_655
Al2 La11 3.536463 1_555
Al2 La15 3.565644 1_455
Al2 La13 3.718251 1_555
Al3 La21 2.944663 1_555
Al3 La1 3.228922 1_555
Al3 La4 3.246445 1_655
Al3 La4 3.286453 1_555
Al3 La12 3.336005 1_545
Al3 La21 3.677230 1_655
Al4 Al5 2.422167 1_655
Al4 Al5 2.932617 1_555
Al4 La22 2.951341 1_565
Al4 La0 3.154507 1_655
Al4 La17 3.305458 1_565
Al4 La0 3.395671 1_555
Al4 La23 3.515570 1_555
Al4 La22 3.552441 1_665
Al4 La3 3.685093 1_555
Al5 Al6 2.662335 1_555
Al5 La3 2.944663 1_555
Al5 La0 3.228922 1_555
Al5 La23 3.246445 1_455
Al5 La23 3.286453 1_555
Al5 La22 3.336005 1_565
Al5 La3 3.677230 1_455
Al6 La23 2.939711 1_455
Al6 La3 3.258516 1_555
Al6 La9 3.280835 1_555
Al6 La3 3.307643 1_455
Al6 La20 3.342691 1_555
Al6 La23 3.664925 1_555
Al7 Al8 2.653754 1_455
Al7 La11 2.914407 1_555
Al7 La5 3.166643 1_455
Al7 La13 3.278136 1_455
Al7 La13 3.349888 1_555
Al7 La7 3.399703 1_555
Al7 La11 3.664635 1_455
Al8 La13 2.914407 1_555
Al8 La14 3.166643 1_655
Al8 La11 3.278136 1_655
Al8 La11 3.349888 1_555
Al8 La15 3.399703 1_555
Al8 La13 3.664635 1_655
Al9 La19 2.920908 1_455
Al9 La2 3.135875 1_555
Al9 La2 3.309324 1_455
Al9 La16 3.466774 1_555
Al9 La21 3.502965 1_555
Al9 La19 3.551330 1_555
Al9 La4 3.611769 1_555
Al10 Al3 2.422167 1_455
Al10 Al3 2.932617 1_555
Al10 La12 2.951341 1_545
Al10 La1 3.154507 1_455
Al10 La18 3.305458 1_545
Al10 La1 3.395671 1_555
Al10 La4 3.515570 1_555
Al10 La12 3.552441 1_445
Al10 La21 3.685093 1_555
Al11 Al7 2.430581 1_655
Al11 La7 2.921774 1_555
Al11 Al7 2.949211 1_555
Al11 La5 3.097381 1_555
Al11 La6 3.327974 1_555
Al11 La5 3.349035 1_455
Al11 La13 3.536463 1_555
Al11 La7 3.565644 1_655
Al11 La11 3.718251 1_555
I0 La14 3.057371 1_655
I0 La13 3.397250 1_555
I0 La20 3.409793 1_555
I0 La20 3.483965 1_655
I0 La3 3.543643 1_555
I0 La14 3.827683 1_555
I1 La9 3.055210 1_656
I1 La12 3.143580 1_555
I1 La23 3.354205 1_556
I1 La12 3.785457 1_655
I1 La9 3.791568 1_556
I2 La19 2.952849 1_555
I2 La16 3.267420 1_555
I2 La19 3.745995 1_455
I3 La5 3.057371 1_455
I3 La11 3.397250 1_555
I3 La19 3.409793 1_555
I3 La19 3.483965 1_455
I3 La21 3.543643 1_555
I3 La5 3.827683 1_555
I4 La8 2.922498 1_555
I4 La15 3.350732 1_555
I4 La8 3.549909 1_655
I5 La18 2.912883 1_555
I5 La12 3.328896 1_555
I5 La18 3.533375 1_655
I6 La10 2.974064 1_455
I6 La2 3.215498 1_554
I6 La16 3.349970 1_554
I6 La2 3.614115 1_454
I6 La10 3.751300 1_555
I7 La17 3.145365 1_455
I7 La17 3.357190 1_555
I7 La0 3.361364 1_545
I7 La8 3.573506 1_555
I8 La6 3.156661 1_455
I8 La5 3.374146 1_455
I8 La6 3.416983 1_555
I8 La18 3.664250 1_555
I9 La15 3.060812 1_455
I9 La1 3.263089 1_555
I9 La1 3.444932 1_455
I9 La15 3.740138 1_555
I10 La18 3.145365 1_655
I10 La18 3.357190 1_555
I10 La1 3.361364 1_565
I10 La6 3.573506 1_555
I11 La7 3.060812 1_655
I11 La0 3.263089 1_555
I11 La0 3.444932 1_655
I11 La7 3.740138 1_555
I12 La17 2.912883 1_555
I12 La22 3.328896 1_555
I12 La17 3.533375 1_455
I13 La6 2.922498 1_555
I13 La7 3.350732 1_555
I13 La6 3.549909 1_455
I14 La13 3.154066 1_555
I14 La7 3.418667 1_555
I14 La3 3.425236 1_455
I14 La0 3.545666 1_555
I14 La3 3.590616 1_555
I14 La13 3.887757 1_455
I15 La11 3.154066 1_555
I15 La15 3.418667 1_555
I15 La21 3.425236 1_655
I15 La1 3.545666 1_555
I15 La21 3.590616 1_555
I15 La11 3.887757 1_655
I16 La2 3.055210 1_454
I16 La22 3.143580 1_555
I16 La4 3.354205 1_554
I16 La22 3.785457 1_455
I16 La2 3.791568 1_554
I17 La16 2.974064 1_655
I17 La9 3.215498 1_556
I17 La10 3.349970 1_556
I17 La9 3.614115 1_656
I17 La16 3.751300 1_555
I18 La8 3.156661 1_655
I18 La14 3.374146 1_655
I18 La8 3.416983 1_555
I18 La17 3.664250 1_555
I19 La20 2.952849 1_555
I19 La10 3.267420 1_555
I19 La20 3.745995 1_655
I20 La4 3.200022 1_554
I20 La23 3.200022 1_545
I20 La22 3.423920 1_555
I20 La12 3.423920 1_544
I20 La4 3.861429 1_654
I20 La23 3.861429 1_445
