# generated using pymatgen
data_Nb4WC5
_symmetry_space_group_name_H-M   'P 1'
_cell_length_a   13.07225280
_cell_length_b   13.07225280
_cell_length_c   13.07225240
_cell_angle_alpha   13.89061510
_cell_angle_beta   13.89061510
_cell_angle_gamma   13.89061634
_symmetry_Int_Tables_number   1
_chemical_formula_structural   Nb4WC5
_chemical_formula_sum   'Nb4 W1 C5'
_cell_volume   112.04077393
_cell_formula_units_Z   1
loop_
 _symmetry_equiv_pos_site_id
 _symmetry_equiv_pos_as_xyz
  1  'x, y, z'
loop_
 _atom_site_type_symbol
 _atom_site_label
 _atom_site_symmetry_multiplicity
 _atom_site_fract_x
 _atom_site_fract_y
 _atom_site_fract_z
 _atom_site_occupancy
  Nb  Nb0  1  0.10056400  0.10056400  0.10056400  1
  Nb  Nb1  1  0.70024300  0.70024300  0.70024300  1
  Nb  Nb2  1  0.29975700  0.29975700  0.29975700  1
  Nb  Nb3  1  0.89943600  0.89943600  0.89943600  1
  W  W0  1  0.50000000  0.50000000  0.50000000  1
  C  C0  1  0.59937500  0.59937500  0.59937500  1
  C  C1  1  0.00000000  0.00000000  0.00000000  1
  C  C2  1  0.40062500  0.40062500  0.40062500  1
  C  C3  1  0.19831700  0.19831700  0.19831700  1
  C  C4  1  0.80168300  0.80168300  0.80168300  1
loop_
_geom_bond_atom_site_label_1
_geom_bond_atom_site_label_2
_geom_bond_distance
_geom_bond_site_symmetry_2
C0 Nb3 2.236284 1_554
C0 Nb3 2.236284 1_545
C0 Nb3 2.236284 1_455
C0 Nb2 2.246267 1_556
C0 Nb2 2.246267 1_565
C0 Nb2 2.246267 1_655
C1 Nb1 2.243125 1_445
C1 Nb2 2.243125 1_554
C1 Nb1 2.243126 1_544
C1 Nb1 2.243126 1_454
C1 Nb2 2.243126 1_455
C1 Nb2 2.243126 1_545
C2 Nb0 2.236284 1_556
C2 Nb0 2.236284 1_565
C2 Nb0 2.236284 1_655
C2 Nb1 2.246267 1_554
C2 Nb1 2.246267 1_455
C2 Nb1 2.246267 1_545
C3 W0 2.200493 1_554
C3 W0 2.200493 1_545
C3 W0 2.200493 1_455
C3 Nb3 2.263068 1_445
C3 Nb3 2.263068 1_544
C3 Nb3 2.263068 1_454
C4 W0 2.200493 1_556
C4 W0 2.200493 1_565
C4 W0 2.200493 1_655
C4 Nb0 2.263068 1_665
C4 Nb0 2.263068 1_566
C4 Nb0 2.263068 1_656
