# generated using pymatgen
data_PrZnAgP2
_symmetry_space_group_name_H-M   'P 1'
_cell_length_a   4.20099714
_cell_length_b   4.20099714
_cell_length_c   6.83730300
_cell_angle_alpha   90.00000000
_cell_angle_beta   90.00000000
_cell_angle_gamma   119.99998651
_symmetry_Int_Tables_number   1
_chemical_formula_structural   PrZnAgP2
_chemical_formula_sum   'Pr1 Zn1 Ag1 P2'
_cell_volume   104.50096227
_cell_formula_units_Z   1
loop_
 _symmetry_equiv_pos_site_id
 _symmetry_equiv_pos_as_xyz
  1  'x, y, z'
loop_
 _atom_site_type_symbol
 _atom_site_label
 _atom_site_symmetry_multiplicity
 _atom_site_fract_x
 _atom_site_fract_y
 _atom_site_fract_z
 _atom_site_occupancy
  Pr  Pr0  1  0.00000000  0.00000000  0.98607600  1
  Zn  Zn0  1  0.66666700  0.33333300  0.37368700  1
  Ag  Ag0  1  0.33333300  0.66666700  0.63731700  1
  P  P0  1  0.33333300  0.66666700  0.25314700  1
  P  P1  1  0.66666700  0.33333300  0.74977400  1
loop_
_geom_bond_atom_site_label_1
_geom_bond_atom_site_label_2
_geom_bond_distance
_geom_bond_site_symmetry_2
Ag0 P1 2.544404 1_455
Ag0 P1 2.544404 1_565
Ag0 P1 2.544411 1_555
Ag0 P0 2.626687 1_555
P0 Zn0 2.561647 1_565
P0 Zn0 2.561647 1_455
P0 Zn0 2.561654 1_555
P0 Pr0 3.035988 1_564
P0 Pr0 3.035991 1_554
P0 Pr0 3.035991 1_664
P1 Zn0 2.571421 1_555
P1 Pr0 2.914303 1_655
P1 Pr0 2.914307 1_555
P1 Pr0 2.914307 1_665
