# generated using pymatgen
data_Be4AlFe
_symmetry_space_group_name_H-M   'P 1'
_cell_length_a   4.22178481
_cell_length_b   4.22178338
_cell_length_c   4.22178266
_cell_angle_alpha   60.00123127
_cell_angle_beta   60.00120877
_cell_angle_gamma   60.00120318
_symmetry_Int_Tables_number   1
_chemical_formula_structural   Be4AlFe
_chemical_formula_sum   'Be4 Al1 Fe1'
_cell_volume   53.20897220
_cell_formula_units_Z   1
loop_
 _symmetry_equiv_pos_site_id
 _symmetry_equiv_pos_as_xyz
  1  'x, y, z'
loop_
 _atom_site_type_symbol
 _atom_site_label
 _atom_site_symmetry_multiplicity
 _atom_site_fract_x
 _atom_site_fract_y
 _atom_site_fract_z
 _atom_site_occupancy
  Be  Be0  1  0.62691466  0.62691466  0.11927606  1
  Be  Be1  1  0.62691466  0.11927606  0.62691366  1
  Be  Be2  1  0.11927706  0.62691466  0.62691366  1
  Be  Be3  1  0.62689392  0.62689492  0.62689492  1
  Al  Al0  1  0.24999975  0.24999975  0.24999975  1
  Fe  Fe0  1  -0.00000004  -0.00000004  0.00000096  1
loop_
_geom_bond_atom_site_label_1
_geom_bond_atom_site_label_2
_geom_bond_distance
_geom_bond_site_symmetry_2
Be0 Be1 2.078684 1_564
Be0 Be2 2.078686 1_654
Be0 Be3 2.078812 1_554
Be0 Be3 2.142971 1_555
Be0 Be2 2.143175 1_555
Be0 Be1 2.143178 1_555
Be0 Fe0 2.471829 1_665
Be0 Fe0 2.471931 1_655
Be0 Fe0 2.471932 1_565
Be1 Be2 2.078683 1_645
Be1 Be3 2.078810 1_545
Be1 Be3 2.142974 1_555
Be1 Be2 2.143177 1_555
Be1 Fe0 2.471834 1_656
Be1 Fe0 2.471925 1_655
Be1 Fe0 2.471934 1_556
Be2 Be3 2.078817 1_455
Be2 Be3 2.142968 1_555
Be2 Fe0 2.471831 1_566
Be2 Fe0 2.471927 1_565
Be2 Fe0 2.471935 1_556
Be3 Fe0 2.471947 1_566
Be3 Fe0 2.471948 1_665
Be3 Fe0 2.471951 1_656
Al0 Be2 2.478751 1_545
Al0 Be0 2.478752 1_545
Al0 Be0 2.478753 1_455
Al0 Be1 2.478753 1_455
Al0 Be2 2.478754 1_554
Al0 Be1 2.478755 1_554
Al0 Be3 2.478768 1_545
Al0 Be3 2.478769 1_554
Al0 Be3 2.478771 1_455
Al0 Be1 2.478792 1_555
Al0 Be2 2.478793 1_555
Al0 Be0 2.478796 1_555
Al0 Fe0 2.585275 1_555
Al0 Fe0 2.585344 1_565
Al0 Fe0 2.585344 1_655
Al0 Fe0 2.585347 1_556
