# generated using pymatgen
data_K2Fe(PSe3)2
_symmetry_space_group_name_H-M   'P 1'
_cell_length_a   13.03962600
_cell_length_b   6.43313300
_cell_length_c   8.90250687
_cell_angle_alpha   57.83600378
_cell_angle_beta   90.00000000
_cell_angle_gamma   90.00000000
_symmetry_Int_Tables_number   1
_chemical_formula_structural   K2Fe(PSe3)2
_chemical_formula_sum   'K4 Fe2 P4 Se12'
_cell_volume   632.18070064
_cell_formula_units_Z   2
loop_
 _symmetry_equiv_pos_site_id
 _symmetry_equiv_pos_as_xyz
  1  'x, y, z'
loop_
 _atom_site_type_symbol
 _atom_site_label
 _atom_site_symmetry_multiplicity
 _atom_site_fract_x
 _atom_site_fract_y
 _atom_site_fract_z
 _atom_site_occupancy
  K  K0  1  0.30667000  0.81936900  0.45584600  1
  K  K1  1  0.19333000  0.81936900  0.95584600  1
  K  K2  1  0.69333000  0.18063100  0.54415400  1
  K  K3  1  0.80667000  0.18063100  0.04415400  1
  Fe  Fe0  1  0.00000000  0.50000000  0.50000000  1
  Fe  Fe1  1  0.50000000  0.50000000  0.00000000  1
  P  P0  1  0.96696000  0.85155000  0.63177400  1
  P  P1  1  0.53304000  0.85155000  0.13177400  1
  P  P2  1  0.03304000  0.14845000  0.36822600  1
  P  P3  1  0.46696000  0.14845000  0.86822600  1
  Se  Se0  1  0.83296900  0.70742100  0.56517300  1
  Se  Se1  1  0.66703100  0.70742100  0.06517300  1
  Se  Se2  1  0.16703100  0.29257900  0.43482700  1
  Se  Se3  1  0.33296900  0.29257900  0.93482700  1
  Se  Se4  1  0.08309900  0.55728000  0.74690000  1
  Se  Se5  1  0.41690100  0.55728000  0.24690000  1
  Se  Se6  1  0.91690100  0.44272000  0.25310000  1
  Se  Se7  1  0.58309900  0.44272000  0.75310000  1
  Se  Se8  1  0.94350400  0.06314700  0.76007200  1
  Se  Se9  1  0.55649600  0.06314700  0.26007200  1
  Se  Se10  1  0.05649600  0.93685300  0.23992800  1
  Se  Se11  1  0.44350400  0.93685300  0.73992800  1
loop_
_geom_bond_atom_site_label_1
_geom_bond_atom_site_label_2
_geom_bond_distance
_geom_bond_site_symmetry_2
K0 Se5 3.421714 1_555
K0 Se2 3.465729 1_565
K0 Se11 3.490837 1_555
K0 Se9 3.633065 1_565
K0 Se10 3.655289 1_555
K0 Se4 3.661166 1_555
K0 Se3 3.794676 1_555
K0 Se2 3.938318 1_555
K0 Se3 3.983183 1_564
K1 Se4 3.421714 1_555
K1 Se3 3.465729 1_565
K1 Se10 3.490837 1_556
K1 Se8 3.633065 1_465
K1 Se11 3.655289 1_555
K1 Se5 3.661166 1_556
K1 Se2 3.794676 1_556
K1 Se3 3.938318 1_555
K1 Se2 3.983183 1_565
K2 Se7 3.421714 1_555
K2 Se0 3.465729 1_545
K2 Se9 3.490837 1_555
K2 Se11 3.633065 1_545
K2 Se8 3.655289 1_555
K2 Se6 3.661166 1_555
K2 Se1 3.794676 1_555
K2 Se0 3.938318 1_555
K2 Se1 3.983183 1_546
K3 Se6 3.421714 1_555
K3 Se1 3.465729 1_545
K3 Se8 3.490837 1_554
K3 Se10 3.633065 1_645
K3 Se9 3.655289 1_555
K3 Se7 3.661166 1_554
K3 Se0 3.794676 1_554
K3 Se1 3.938318 1_555
K3 Se0 3.983183 1_545
Fe0 Se8 2.621756 1_455
Fe0 Se10 2.621756 1_555
Fe0 Se6 2.646433 1_455
Fe0 Se4 2.646433 1_555
Fe0 Se2 2.772226 1_555
Fe0 Se0 2.772226 1_455
Fe1 Se9 2.621756 1_555
Fe1 Se11 2.621756 1_554
Fe1 Se7 2.646433 1_554
Fe1 Se5 2.646433 1_555
Fe1 Se3 2.772226 1_554
Fe1 Se1 2.772226 1_555
P0 Se0 2.202101 1_555
P0 Se4 2.204966 1_655
P0 Se8 2.215040 1_565
P0 P2 2.263665 1_665
P1 Se1 2.202101 1_555
P1 Se5 2.204966 1_555
P1 Se9 2.215040 1_565
P1 P3 2.263665 1_564
P2 Se2 2.202101 1_555
P2 Se6 2.204966 1_455
P2 Se10 2.215040 1_545
P3 Se3 2.202101 1_555
P3 Se7 2.204966 1_555
P3 Se11 2.215040 1_545
