# generated using pymatgen
data_Li2MnCoO4
_symmetry_space_group_name_H-M   'P 1'
_cell_length_a   2.92052600
_cell_length_b   6.60737649
_cell_length_c   7.89451648
_cell_angle_alpha   88.82980695
_cell_angle_beta   100.65433203
_cell_angle_gamma   77.23435797
_symmetry_Int_Tables_number   1
_chemical_formula_structural   Li2MnCoO4
_chemical_formula_sum   'Li4 Mn2 Co2 O8'
_cell_volume   145.71500092
_cell_formula_units_Z   2
loop_
 _symmetry_equiv_pos_site_id
 _symmetry_equiv_pos_as_xyz
  1  'x, y, z'
loop_
 _atom_site_type_symbol
 _atom_site_label
 _atom_site_symmetry_multiplicity
 _atom_site_fract_x
 _atom_site_fract_y
 _atom_site_fract_z
 _atom_site_occupancy
  Li  Li0  1  0.24670400  0.37428100  0.86767900  1
  Li  Li1  1  0.24670000  0.87428800  0.36767800  1
  Li  Li2  1  0.75276800  0.62647100  0.13201800  1
  Li  Li3  1  0.75277200  0.12646800  0.63202600  1
  Mn  Mn0  1  0.49971000  0.75012700  0.74956300  1
  Mn  Mn1  1  0.49983000  0.24993300  0.24960000  1
  Co  Co0  1  0.00000100  0.49999900  0.50000400  1
  Co  Co1  1  0.00001800  0.99997800  0.00001300  1
  O  O0  1  0.38679700  0.53732400  0.31085400  1
  O  O1  1  0.38667200  0.03748500  0.81076600  1
  O  O2  1  0.61471700  0.46053200  0.69000300  1
  O  O3  1  0.61483500  0.96036500  0.19007300  1
  O  O4  1  0.88733000  0.31088900  0.08541200  1
  O  O5  1  0.88727900  0.81101300  0.58543000  1
  O  O6  1  0.11190500  0.69048400  0.91444800  1
  O  O7  1  0.11196100  0.19036400  0.41443100  1
loop_
_geom_bond_atom_site_label_1
_geom_bond_atom_site_label_2
_geom_bond_distance
_geom_bond_site_symmetry_2
Li0 O2 2.059834 1_555
Li0 O2 2.060140 1_455
Li0 O6 2.092399 1_555
Li0 O1 2.242285 1_555
Li0 O4 2.250241 1_456
Li0 O4 2.250702 1_556
Li1 O3 2.059219 1_555
Li1 O3 2.059528 1_455
Li1 O7 2.091563 1_565
Li1 O0 2.243168 1_555
Li1 O5 2.250246 1_455
Li1 O5 2.250714 1_555
Li2 O0 2.069982 1_555
Li2 O0 2.070347 1_655
Li2 O4 2.088159 1_555
Li2 O3 2.226276 1_555
Li2 O6 2.249830 1_654
Li2 O6 2.250321 1_554
Li3 O1 2.069247 1_555
Li3 O1 2.069616 1_655
Li3 O5 2.087335 1_545
Li3 O2 2.227189 1_555
Li3 O7 2.249883 1_655
Li3 O7 2.250351 1_555
Mn0 O1 1.940845 1_565
Mn0 O2 1.950990 1_555
Mn0 O5 1.960541 1_455
Mn0 O5 1.960687 1_555
Mn0 O6 1.963031 1_655
Mn0 O6 1.963135 1_555
Mn1 O0 1.941172 1_555
Mn1 O3 1.950745 1_545
Mn1 O4 1.960898 1_455
Mn1 O4 1.961016 1_555
Mn1 O7 1.962690 1_655
Mn1 O7 1.962794 1_555
Co0 O0 2.073290 1_555
Co0 O0 2.073352 1_455
Co0 O2 2.078891 1_455
Co0 O2 2.079023 1_555
Co0 O7 2.142755 1_555
Co0 O5 2.150788 1_455
Co1 O1 2.073895 1_564
Co1 O1 2.073968 1_464
Co1 O3 2.079301 1_455
Co1 O3 2.079422 1_555
Co1 O6 2.141868 1_554
Co1 O4 2.150079 1_465
