# generated using pymatgen
data_Tl3GeTe3
_symmetry_space_group_name_H-M   'P 1'
_cell_length_a   9.70552825
_cell_length_b   9.89499658
_cell_length_c   10.63313563
_cell_angle_alpha   89.43525562
_cell_angle_beta   97.03161888
_cell_angle_gamma   100.75970196
_symmetry_Int_Tables_number   1
_chemical_formula_structural   Tl3GeTe3
_chemical_formula_sum   'Tl12 Ge4 Te12'
_cell_volume   995.57840770
_cell_formula_units_Z   4
loop_
 _symmetry_equiv_pos_site_id
 _symmetry_equiv_pos_as_xyz
  1  'x, y, z'
loop_
 _atom_site_type_symbol
 _atom_site_label
 _atom_site_symmetry_multiplicity
 _atom_site_fract_x
 _atom_site_fract_y
 _atom_site_fract_z
 _atom_site_occupancy
  Tl  Tl0  1  0.18799916  0.84242214  0.83942717  1
  Tl  Tl1  1  0.81200084  0.15757786  0.16057283  1
  Tl  Tl2  1  0.31055998  0.71656327  0.23917392  1
  Tl  Tl3  1  0.68944002  0.28343673  0.76082608  1
  Tl  Tl4  1  0.51055972  0.62525251  0.65007553  1
  Tl  Tl5  1  0.48944028  0.37474749  0.34992447  1
  Tl  Tl6  1  0.88704398  0.95291918  0.64951256  1
  Tl  Tl7  1  0.11295602  0.04708082  0.35048744  1
  Tl  Tl8  1  0.90293422  0.57150314  0.34228511  1
  Tl  Tl9  1  0.09706578  0.42849686  0.65771489  1
  Tl  Tl10  1  0.64159922  0.77278584  0.08943916  1
  Tl  Tl11  1  0.35840078  0.22721416  0.91056084  1
  Ge  Ge0  1  0.57643755  0.01563235  0.41493874  1
  Ge  Ge1  1  0.90907874  0.57193679  0.98331045  1
  Ge  Ge2  1  0.09092126  0.42806321  0.01668955  1
  Ge  Ge3  1  0.42356245  0.98436765  0.58506126  1
  Te  Te0  1  0.13130081  0.38474627  0.25770491  1
  Te  Te1  1  0.68892070  0.44085954  0.07855908  1
  Te  Te2  1  0.99696929  0.79897385  0.10971791  1
  Te  Te3  1  0.31107930  0.55914046  0.92144092  1
  Te  Te4  1  0.67504624  0.78865635  0.40893295  1
  Te  Te5  1  0.32495376  0.21134365  0.59106705  1
  Te  Te6  1  0.57735165  0.93326315  0.78996966  1
  Te  Te7  1  0.42264835  0.06673685  0.21003034  1
  Te  Te8  1  0.86869919  0.61525373  0.74229509  1
  Te  Te9  1  0.78173398  0.22270686  0.47268293  1
  Te  Te10  1  0.21826602  0.77729314  0.52731707  1
  Te  Te11  1  0.00303071  0.20102615  0.89028209  1
loop_
_geom_bond_atom_site_label_1
_geom_bond_atom_site_label_2
_geom_bond_distance
_geom_bond_site_symmetry_2
Ge0 Ge3 2.458481 1_545
Ge0 Te7 2.587413 1_555
Ge0 Te9 2.597381 1_555
Ge0 Te4 2.604720 1_545
Ge1 Ge2 2.458107 1_656
Ge1 Te2 2.577685 1_556
Ge1 Te8 2.588466 1_555
Ge1 Te1 2.596699 1_556
Ge2 Te11 2.577685 1_554
Ge2 Te0 2.588466 1_555
Ge2 Te3 2.596699 1_554
Ge3 Te6 2.587413 1_555
Ge3 Te10 2.597381 1_555
Ge3 Te5 2.604720 1_565
Te0 Tl8 3.344609 1_455
Te0 Tl2 3.432825 1_555
Te0 Tl7 3.453192 1_555
Te0 Tl5 3.513607 1_555
Te0 Tl1 3.519130 1_455
Te1 Tl1 3.315369 1_555
Te1 Tl8 3.389993 1_555
Te1 Tl10 3.405202 1_555
Te1 Tl5 3.655111 1_555
Te2 Tl10 3.390417 1_555
Te2 Tl8 3.419110 1_555
Te2 Tl2 3.420800 1_655
Te2 Tl7 3.497861 1_665
Te2 Tl0 3.586789 1_654
Te3 Tl0 3.315369 1_555
Te3 Tl9 3.389993 1_555
Te3 Tl11 3.405202 1_555
Te3 Tl4 3.655111 1_555
Te4 Tl6 3.311182 1_555
Te4 Tl10 3.375296 1_555
Te4 Tl4 3.419678 1_555
Te4 Tl8 3.492775 1_555
Te5 Tl7 3.311182 1_555
Te5 Tl11 3.375296 1_555
Te5 Tl5 3.419678 1_555
Te5 Tl9 3.492775 1_555
Te6 Tl4 3.322255 1_555
Te6 Tl3 3.455348 1_565
Te6 Tl6 3.489676 1_555
Te6 Tl10 3.582454 1_556
Te7 Tl5 3.322255 1_555
Te7 Tl2 3.455348 1_545
Te7 Tl7 3.489676 1_555
Te7 Tl11 3.582454 1_554
Te8 Tl9 3.344609 1_655
Te8 Tl3 3.432825 1_555
Te8 Tl6 3.453192 1_555
Te8 Tl4 3.513607 1_555
Te8 Tl0 3.519130 1_655
Te9 Tl3 3.385261 1_555
Te9 Tl1 3.444847 1_555
Te9 Tl6 3.486519 1_545
Te9 Tl5 3.558539 1_555
Te10 Tl2 3.385261 1_555
Te10 Tl0 3.444847 1_555
Te10 Tl7 3.486519 1_565
Te10 Tl4 3.558539 1_555
Te11 Tl11 3.390417 1_555
Te11 Tl9 3.419110 1_555
Te11 Tl3 3.420800 1_455
Te11 Tl6 3.497861 1_445
Te11 Tl1 3.586789 1_456
