# generated using pymatgen
data_Sn3TePb4O13
_symmetry_space_group_name_H-M   'P 1'
_cell_length_a   7.65076421
_cell_length_b   7.65076421
_cell_length_c   7.65076433
_cell_angle_alpha   59.43496534
_cell_angle_beta   59.43496534
_cell_angle_gamma   59.43496405
_symmetry_Int_Tables_number   1
_chemical_formula_structural   Sn3TePb4O13
_chemical_formula_sum   'Sn3 Te1 Pb4 O13'
_cell_volume   312.59368781
_cell_formula_units_Z   1
loop_
 _symmetry_equiv_pos_site_id
 _symmetry_equiv_pos_as_xyz
  1  'x, y, z'
loop_
 _atom_site_type_symbol
 _atom_site_label
 _atom_site_symmetry_multiplicity
 _atom_site_fract_x
 _atom_site_fract_y
 _atom_site_fract_z
 _atom_site_occupancy
  Sn  Sn0  1  0.00031800  0.50000200  0.50000200  1
  Sn  Sn1  1  0.50000200  0.00031800  0.50000200  1
  Sn  Sn2  1  0.50000200  0.50000200  0.00031800  1
  Te  Te0  1  0.49959500  0.49959500  0.49959500  1
  Pb  Pb0  1  0.50095000  0.99902200  0.99902200  1
  Pb  Pb1  1  0.99902200  0.50095000  0.99902200  1
  Pb  Pb2  1  0.99902200  0.99902200  0.50095000  1
  Pb  Pb3  1  0.99965500  0.99965500  0.99965500  1
  O  O0  1  0.82978100  0.82978100  0.42550000  1
  O  O1  1  0.42963100  0.42963100  0.80807700  1
  O  O2  1  0.82978100  0.42550000  0.82978100  1
  O  O3  1  0.42963100  0.80807700  0.42963100  1
  O  O4  1  0.42550000  0.82978100  0.82978100  1
  O  O5  1  0.80807700  0.42963100  0.42963100  1
  O  O6  1  0.17237100  0.17237100  0.57222000  1
  O  O7  1  0.56838300  0.56838300  0.19336900  1
  O  O8  1  0.17237100  0.57222000  0.17237100  1
  O  O9  1  0.56838300  0.19336900  0.56838300  1
  O  O10  1  0.57222000  0.17237100  0.17237100  1
  O  O11  1  0.19336900  0.56838300  0.56838300  1
  O  O12  1  0.12693700  0.12693700  0.12693700  1
loop_
_geom_bond_atom_site_label_1
_geom_bond_atom_site_label_2
_geom_bond_distance
_geom_bond_site_symmetry_2
O0 Sn0 2.082980 1_655
O0 Sn1 2.082980 1_565
O0 Pb2 2.629032 1_555
O0 Pb3 2.664211 1_554
O1 Te0 1.965948 1_555
O1 Sn2 2.156028 1_556
O1 Pb1 2.715361 1_455
O1 Pb0 2.715361 1_545
O2 Sn2 2.082980 1_556
O2 Sn0 2.082980 1_655
O2 Pb1 2.629032 1_555
O2 Pb3 2.664211 1_545
O3 Te0 1.965948 1_555
O3 Sn1 2.156028 1_565
O3 Pb2 2.715361 1_455
O3 Pb0 2.715361 1_554
O4 Sn2 2.082980 1_556
O4 Sn1 2.082980 1_565
O4 Pb0 2.629032 1_555
O4 Pb3 2.664211 1_455
O5 Te0 1.965948 1_555
O5 Sn0 2.156028 1_655
O5 Pb2 2.715361 1_545
O5 Pb1 2.715361 1_554
O6 Sn0 2.072819 1_555
O6 Sn1 2.072819 1_555
O6 Pb2 2.659902 1_445
O6 Pb3 2.678169 1_445
O7 Te0 1.953620 1_555
O7 Sn2 2.139862 1_555
O7 Pb0 2.720530 1_554
O7 Pb1 2.720530 1_554
O8 Sn2 2.072819 1_555
O8 Sn0 2.072819 1_555
O8 Pb1 2.659902 1_454
O8 Pb3 2.678169 1_454
O9 Te0 1.953620 1_555
O9 Sn1 2.139862 1_555
O9 Pb2 2.720530 1_545
O9 Pb0 2.720530 1_545
O10 Sn2 2.072819 1_555
O10 Sn1 2.072819 1_555
O10 Pb0 2.659902 1_544
O10 Pb3 2.678169 1_544
O11 Te0 1.953620 1_555
O11 Sn0 2.139862 1_555
O11 Pb2 2.720530 1_455
O11 Pb1 2.720530 1_455
O12 Pb1 2.319806 1_454
O12 Pb0 2.319806 1_544
O12 Pb2 2.319806 1_445
O12 Pb3 2.395460 1_444
