# generated using pymatgen
data_Li3Mn4O8
_symmetry_space_group_name_H-M   'P 1'
_cell_length_a   5.93650898
_cell_length_b   5.93594749
_cell_length_c   10.88749376
_cell_angle_alpha   74.91838856
_cell_angle_beta   90.03000644
_cell_angle_gamma   121.57450137
_symmetry_Int_Tables_number   1
_chemical_formula_structural   Li3Mn4O8
_chemical_formula_sum   'Li6 Mn8 O16'
_cell_volume   311.28161394
_cell_formula_units_Z   2
loop_
 _symmetry_equiv_pos_site_id
 _symmetry_equiv_pos_as_xyz
  1  'x, y, z'
loop_
 _atom_site_type_symbol
 _atom_site_label
 _atom_site_symmetry_multiplicity
 _atom_site_fract_x
 _atom_site_fract_y
 _atom_site_fract_z
 _atom_site_occupancy
  Li  Li0  1  0.25009800  0.00028700  0.25002700  1
  Li  Li1  1  0.74980600  0.99963700  0.75006500  1
  Li  Li2  1  0.33486100  0.12710200  0.03808500  1
  Li  Li3  1  0.83506400  0.12729400  0.53717600  1
  Li  Li4  1  0.16487600  0.87295200  0.46196100  1
  Li  Li5  1  0.66446800  0.87244800  0.96286300  1
  Mn  Mn0  1  0.00062300  0.50108600  0.99846600  1
  Mn  Mn1  1  0.49909000  0.49876000  0.50146200  1
  Mn  Mn2  1  0.24987200  0.99976800  0.75002900  1
  Mn  Mn3  1  0.25004800  0.50003400  0.74995300  1
  Mn  Mn4  1  0.74975900  0.49955100  0.75002000  1
  Mn  Mn5  1  0.75048800  0.00047700  0.24988100  1
  Mn  Mn6  1  0.75023200  0.50012600  0.25006600  1
  Mn  Mn7  1  0.25016300  0.50043400  0.25001700  1
  O  O0  1  0.89858300  0.24796900  0.35390700  1
  O  O1  1  0.39818100  0.24757500  0.85371100  1
  O  O2  1  0.60189700  0.75254400  0.14616200  1
  O  O3  1  0.10160500  0.75189100  0.64623100  1
  O  O4  1  0.10966000  0.24651900  0.14453700  1
  O  O5  1  0.60933700  0.24506400  0.64517300  1
  O  O6  1  0.63675600  0.23768800  0.14804600  1
  O  O7  1  0.13562900  0.23624600  0.64873100  1
  O  O8  1  0.11468000  0.71563200  0.14804700  1
  O  O9  1  0.61469100  0.71527800  0.64867000  1
  O  O10  1  0.38569300  0.28482900  0.35198500  1
  O  O11  1  0.88519200  0.28438300  0.85127300  1
  O  O12  1  0.86346800  0.76257900  0.35198500  1
  O  O13  1  0.36408900  0.76330300  0.85127400  1
  O  O14  1  0.39075100  0.75416500  0.35549500  1
  O  O15  1  0.89033800  0.75437900  0.85470400  1
loop_
_geom_bond_atom_site_label_1
_geom_bond_atom_site_label_2
_geom_bond_distance
_geom_bond_site_symmetry_2
Li0 O10 2.069780 1_555
Li0 O8 2.070504 1_545
Li0 O12 2.070594 1_445
Li0 O6 2.070880 1_555
Li0 O4 2.133549 1_555
Li0 O14 2.133930 1_545
Li1 O13 2.063911 1_555
Li1 O9 2.064490 1_555
Li1 O11 2.064636 1_565
Li1 O7 2.064807 1_665
Li1 O15 2.126307 1_555
Li1 O5 2.127765 1_565
Li2 O1 1.911673 1_554
Li2 O8 2.060127 1_545
Li2 O6 2.061769 1_555
Li2 O4 2.248251 1_555
Li3 O0 1.900215 1_555
Li3 O9 2.067023 1_545
Li3 O7 2.067655 1_655
Li3 O5 2.253298 1_555
Li4 O3 1.910591 1_555
Li4 O12 2.059830 1_455
Li4 O10 2.061920 1_565
Li4 O14 2.248541 1_555
Li5 O2 1.900525 1_556
Li5 O11 2.067010 1_565
Li5 O13 2.067147 1_555
Li5 O15 2.256348 1_555
Mn0 O13 2.198895 1_555
Mn0 O11 2.200218 1_455
Mn0 O6 2.214638 1_456
Mn0 O8 2.215331 1_556
Mn0 O15 2.223568 1_455
Mn0 O4 2.237021 1_556
Mn1 O7 2.199342 1_555
Mn1 O9 2.199696 1_555
Mn1 O10 2.212102 1_555
Mn1 O12 2.215869 1_555
Mn1 O5 2.224678 1_555
Mn1 O14 2.236951 1_555
Mn2 O1 1.928732 1_565
Mn2 O3 1.929989 1_555
Mn2 O13 1.958512 1_555
Mn2 O7 1.958898 1_565
Mn2 O15 1.964440 1_455
Mn2 O5 1.964908 1_565
Mn3 O13 1.976313 1_555
Mn3 O9 1.976698 1_555
Mn3 O11 1.977639 1_455
Mn3 O7 1.977661 1_555
Mn3 O3 2.187907 1_555
Mn3 O1 2.189357 1_555
Mn4 O1 1.929359 1_555
Mn4 O3 1.930967 1_655
Mn4 O11 1.958244 1_555
Mn4 O9 1.959424 1_555
Mn4 O5 1.964076 1_555
Mn4 O15 1.964124 1_555
Mn5 O2 1.929649 1_545
Mn5 O0 1.930333 1_555
Mn5 O6 1.962186 1_555
Mn5 O12 1.963148 1_545
Mn5 O4 1.965864 1_655
Mn5 O14 1.969384 1_545
Mn6 O12 1.977975 1_555
Mn6 O6 1.978646 1_555
Mn6 O8 1.978852 1_655
Mn6 O10 1.978921 1_555
Mn6 O0 2.189283 1_555
Mn6 O2 2.190620 1_555
Mn7 O0 1.930366 1_455
Mn7 O2 1.930716 1_555
Mn7 O8 1.961677 1_555
Mn7 O10 1.963614 1_555
Mn7 O14 1.966344 1_555
Mn7 O4 1.967109 1_555
