# generated using pymatgen
data_BaNaNbBiO6
_symmetry_space_group_name_H-M   'P 1'
_cell_length_a   8.44553526
_cell_length_b   8.41957742
_cell_length_c   8.46021457
_cell_angle_alpha   90.00000000
_cell_angle_beta   90.00000000
_cell_angle_gamma   90.00000000
_symmetry_Int_Tables_number   1
_chemical_formula_structural   BaNaNbBiO6
_chemical_formula_sum   'Ba4 Na4 Nb4 Bi4 O24'
_cell_volume   601.58756688
_cell_formula_units_Z   4
loop_
 _symmetry_equiv_pos_site_id
 _symmetry_equiv_pos_as_xyz
  1  'x, y, z'
loop_
 _atom_site_type_symbol
 _atom_site_label
 _atom_site_symmetry_multiplicity
 _atom_site_fract_x
 _atom_site_fract_y
 _atom_site_fract_z
 _atom_site_occupancy
  Ba  Ba0  1  -0.00000000  0.00000000  0.00000000  1
  Ba  Ba1  1  0.50000000  0.50000000  0.50000000  1
  Ba  Ba2  1  -0.00000000  0.50000000  0.50000000  1
  Ba  Ba3  1  0.50000000  0.00000000  0.00000000  1
  Na  Na0  1  0.50000000  0.00000000  0.50000000  1
  Na  Na1  1  0.50000000  0.50000000  0.00000000  1
  Na  Na2  1  -0.00000000  0.50000000  0.00000000  1
  Na  Na3  1  -0.00000000  0.00000000  0.50000000  1
  Nb  Nb0  1  0.25000000  0.25000000  0.25000000  1
  Nb  Nb1  1  0.75000000  0.75000000  0.25000000  1
  Nb  Nb2  1  0.75000000  0.25000000  0.75000000  1
  Nb  Nb3  1  0.25000000  0.75000000  0.75000000  1
  Bi  Bi0  1  0.75000000  0.75000000  0.75000000  1
  Bi  Bi1  1  0.25000000  0.25000000  0.75000000  1
  Bi  Bi2  1  0.25000000  0.75000000  0.25000000  1
  Bi  Bi3  1  0.75000000  0.25000000  0.25000000  1
  O  O0  1  0.01394796  0.23136520  0.26935780  1
  O  O1  1  0.98605204  0.76863480  0.26935780  1
  O  O2  1  0.98605204  0.23136520  0.73064220  1
  O  O3  1  0.01394796  0.76863480  0.73064220  1
  O  O4  1  0.26512451  0.01342199  0.22790250  1
  O  O5  1  0.26512451  0.98657801  0.77209750  1
  O  O6  1  0.73487549  0.98657801  0.22790250  1
  O  O7  1  0.73487549  0.01342199  0.77209750  1
  O  O8  1  0.23009098  0.26066173  0.01378535  1
  O  O9  1  0.76990902  0.26066173  0.98621465  1
  O  O10  1  0.23009098  0.73933827  0.98621465  1
  O  O11  1  0.76990902  0.73933827  0.01378535  1
  O  O12  1  0.48605204  0.26863480  0.23064220  1
  O  O13  1  0.51394796  0.73136520  0.23064220  1
  O  O14  1  0.51394796  0.26863480  0.76935780  1
  O  O15  1  0.48605204  0.73136520  0.76935780  1
  O  O16  1  0.23487549  0.48657801  0.27209750  1
  O  O17  1  0.23487549  0.51342199  0.72790250  1
  O  O18  1  0.76512451  0.51342199  0.27209750  1
  O  O19  1  0.76512451  0.48657801  0.72790250  1
  O  O20  1  0.26990902  0.23933827  0.48621465  1
  O  O21  1  0.73009098  0.23933827  0.51378535  1
  O  O22  1  0.26990902  0.76066173  0.51378535  1
  O  O23  1  0.73009098  0.76066173  0.48621465  1
loop_
_geom_bond_atom_site_label_1
_geom_bond_atom_site_label_2
_geom_bond_distance
_geom_bond_site_symmetry_2
Ba0 O9 2.933655 1_454
Ba0 O8 2.933655 1_555
Ba0 O11 2.933655 1_445
Ba0 O10 2.933655 1_544
Ba0 O4 2.957027 1_555
Ba0 O6 2.957027 1_445
Ba0 O5 2.957027 1_544
Ba0 O7 2.957027 1_454
Ba0 O0 3.000269 1_555
Ba0 O2 3.000269 1_454
Ba0 O1 3.000269 1_445
Ba0 O3 3.000269 1_544
Ba1 O22 2.933655 1_555
Ba1 O20 2.933655 1_555
Ba1 O23 2.933655 1_555
Ba1 O21 2.933655 1_555
Ba1 O17 2.957027 1_555
Ba1 O18 2.957027 1_555
Ba1 O19 2.957027 1_555
Ba1 O16 2.957027 1_555
Ba1 O15 3.000269 1_555
Ba1 O13 3.000269 1_555
Ba1 O14 3.000269 1_555
Ba1 O12 3.000269 1_555
Ba2 O18 2.768613 1_455
Ba2 O19 2.768613 1_455
Ba2 O17 2.768613 1_555
Ba2 O16 2.768613 1_555
Ba2 O3 2.989495 1_555
Ba2 O1 2.989495 1_455
Ba2 O0 2.989495 1_555
Ba2 O2 2.989495 1_455
Ba2 O23 3.166446 1_455
Ba2 O21 3.166446 1_455
Ba2 O20 3.166446 1_555
Ba2 O22 3.166446 1_555
Ba3 O6 2.768613 1_545
Ba3 O4 2.768613 1_555
Ba3 O7 2.768613 1_554
Ba3 O5 2.768613 1_544
Ba3 O12 2.989495 1_555
Ba3 O14 2.989495 1_554
Ba3 O15 2.989495 1_544
Ba3 O13 2.989495 1_545
Ba3 O8 3.166446 1_555
Ba3 O10 3.166446 1_544
Ba3 O9 3.166446 1_554
Ba3 O11 3.166446 1_545
Na0 O22 2.801879 1_545
Na0 O20 2.801879 1_555
Na0 O23 2.801879 1_545
Na0 O21 2.801879 1_555
Na1 O13 2.759723 1_555
Na1 O15 2.759723 1_554
Na1 O12 2.759723 1_555
Na1 O14 2.759723 1_554
Na2 O9 2.801879 1_454
Na2 O11 2.801879 1_455
Na2 O10 2.801879 1_554
Na2 O8 2.801879 1_555
Na3 O2 2.759723 1_455
Na3 O3 2.759723 1_545
Na3 O1 2.759723 1_445
Na3 O0 2.759723 1_555
Nb0 O16 2.004714 1_555
Nb0 O4 2.004714 1_555
Nb0 O12 2.006445 1_555
Nb0 O0 2.006445 1_555
Nb0 O8 2.007496 1_555
Nb0 O20 2.007496 1_555
Nb1 O18 2.004714 1_555
Nb1 O6 2.004714 1_555
Nb1 O1 2.006445 1_555
Nb1 O13 2.006445 1_555
Nb1 O11 2.007496 1_555
Nb1 O23 2.007496 1_555
Nb2 O19 2.004714 1_555
Nb2 O7 2.004714 1_555
Nb2 O14 2.006445 1_555
Nb2 O2 2.006445 1_555
Nb2 O9 2.007496 1_555
Nb2 O21 2.007496 1_555
Nb3 O17 2.004714 1_555
Nb3 O5 2.004714 1_555
Nb3 O3 2.006445 1_555
Nb3 O15 2.006445 1_555
Nb3 O10 2.007496 1_555
Nb3 O22 2.007496 1_555
Bi0 O19 2.229429 1_555
Bi0 O7 2.229429 1_565
Bi0 O23 2.239805 1_555
Bi0 O11 2.239805 1_556
Bi0 O15 2.240689 1_555
Bi0 O3 2.240689 1_655
Bi1 O5 2.229429 1_545
Bi1 O17 2.229429 1_555
Bi1 O20 2.239805 1_555
Bi1 O8 2.239805 1_556
Bi1 O2 2.240689 1_455
Bi1 O14 2.240689 1_555
Bi2 O16 2.229429 1_555
Bi2 O4 2.229429 1_565
Bi2 O22 2.239805 1_555
Bi2 O10 2.239805 1_554
Bi2 O1 2.240689 1_455
Bi2 O13 2.240689 1_555
Bi3 O18 2.229429 1_555
Bi3 O6 2.229429 1_545
Bi3 O21 2.239805 1_555
Bi3 O9 2.239805 1_554
Bi3 O12 2.240689 1_555
Bi3 O0 2.240689 1_655
