# generated using pymatgen
data_Fe2P2O7
_symmetry_space_group_name_H-M   'P 1'
_cell_length_a   5.52003585
_cell_length_b   6.30916581
_cell_length_c   7.39382585
_cell_angle_alpha   81.31515018
_cell_angle_beta   94.55983390
_cell_angle_gamma   107.05441349
_symmetry_Int_Tables_number   1
_chemical_formula_structural   Fe2P2O7
_chemical_formula_sum   'Fe4 P4 O14'
_cell_volume   243.18842234
_cell_formula_units_Z   2
loop_
 _symmetry_equiv_pos_site_id
 _symmetry_equiv_pos_as_xyz
  1  'x, y, z'
loop_
 _atom_site_type_symbol
 _atom_site_label
 _atom_site_symmetry_multiplicity
 _atom_site_fract_x
 _atom_site_fract_y
 _atom_site_fract_z
 _atom_site_occupancy
  Fe  Fe0  1  0.70185877  0.88106177  0.37037267  1
  Fe  Fe1  1  0.30170138  0.07788724  0.53298674  1
  Fe  Fe2  1  0.70187468  0.38106582  0.87038431  1
  Fe  Fe3  1  0.30171480  0.57788946  0.03299799  1
  P  P0  1  0.21197175  0.54166977  0.60439951  1
  P  P1  1  0.21197220  0.04166842  0.10438104  1
  P  P2  1  0.78694122  0.41886352  0.29742754  1
  P  P3  1  0.78695753  0.91887359  0.79742333  1
  O  O0  1  0.37086782  0.27683901  0.03529572  1
  O  O1  1  0.37085040  0.77683508  0.53529501  1
  O  O2  1  0.36044450  0.87191926  0.11833617  1
  O  O3  1  0.36041834  0.37191702  0.61832778  1
  O  O4  1  0.08144052  0.52848965  0.78111588  1
  O  O5  1  0.08142484  0.02848540  0.28109445  1
  O  O6  1  0.99616802  0.48343510  0.45243610  1
  O  O7  1  0.99622324  0.98343698  0.95240064  1
  O  O8  1  0.92132827  0.43212654  0.12245500  1
  O  O9  1  0.92131431  0.93211417  0.62243596  1
  O  O10  1  0.63562845  0.58743263  0.28001674  1
  O  O11  1  0.63564947  0.08744420  0.78001388  1
  O  O12  1  0.63102640  0.68252719  0.86605046  1
  O  O13  1  0.63102208  0.18252217  0.36605209  1
loop_
_geom_bond_atom_site_label_1
_geom_bond_atom_site_label_2
_geom_bond_distance
_geom_bond_site_symmetry_2
Fe0 O10 1.987363 1_555
Fe0 O13 2.046284 1_565
Fe0 O5 2.140608 1_665
Fe0 O9 2.153627 1_555
Fe0 O1 2.159928 1_555
Fe0 O2 2.537339 1_555
Fe1 O3 1.978092 1_555
Fe1 O1 2.041592 1_545
Fe1 O9 2.143968 1_445
Fe1 O5 2.153437 1_555
Fe1 O13 2.161171 1_555
Fe1 O11 2.484051 1_555
Fe2 O11 1.987372 1_555
Fe2 O12 2.046306 1_555
Fe2 O4 2.140584 1_655
Fe2 O8 2.153674 1_556
Fe2 O0 2.159874 1_556
Fe2 O3 2.537593 1_555
Fe3 O2 1.978073 1_555
Fe3 O0 2.041603 1_555
Fe3 O8 2.143977 1_455
Fe3 O4 2.153367 1_554
Fe3 O12 2.161187 1_554
Fe3 O10 2.483888 1_555
O0 P1 1.520101 1_555
O1 P0 1.520079 1_555
O2 P1 1.515706 1_565
O3 P0 1.515636 1_555
O4 P0 1.521530 1_555
O5 P1 1.521553 1_555
O6 P2 1.570978 1_555
O6 P0 1.572146 1_655
O7 P3 1.570935 1_555
O7 P1 1.572039 1_666
O8 P2 1.521346 1_555
O9 P3 1.521383 1_555
O10 P2 1.519185 1_555
O11 P3 1.519174 1_545
O12 P3 1.519859 1_555
O13 P2 1.519810 1_555
