# generated using pymatgen
data_BaGaGe
_symmetry_space_group_name_H-M   'P 1'
_cell_length_a   4.34564360
_cell_length_b   4.34564360
_cell_length_c   20.58913331
_cell_angle_alpha   90.00000000
_cell_angle_beta   90.00000000
_cell_angle_gamma   120.00001284
_symmetry_Int_Tables_number   1
_chemical_formula_structural   BaGaGe
_chemical_formula_sum   'Ba4 Ga4 Ge4'
_cell_volume   336.72615630
_cell_formula_units_Z   4
loop_
 _symmetry_equiv_pos_site_id
 _symmetry_equiv_pos_as_xyz
  1  'x, y, z'
loop_
 _atom_site_type_symbol
 _atom_site_label
 _atom_site_symmetry_multiplicity
 _atom_site_fract_x
 _atom_site_fract_y
 _atom_site_fract_z
 _atom_site_occupancy
  Ba  Ba0  1  0.00000000  0.00000000  0.50000000  1
  Ba  Ba1  1  0.00000000  0.00000000  -0.00000000  1
  Ba  Ba2  1  0.00000000  0.00000000  0.25000000  1
  Ba  Ba3  1  0.00000000  0.00000000  0.75000000  1
  Ga  Ga0  1  0.33333300  0.66666700  0.36490192  1
  Ga  Ga1  1  0.66666700  0.33333300  0.63509808  1
  Ga  Ga2  1  0.66666700  0.33333300  0.86490192  1
  Ga  Ga3  1  0.33333300  0.66666700  0.13509808  1
  Ge  Ge0  1  0.33333300  0.66666700  0.88352876  1
  Ge  Ge1  1  0.66666700  0.33333300  0.11647124  1
  Ge  Ge2  1  0.66666700  0.33333300  0.38352876  1
  Ge  Ge3  1  0.33333300  0.66666700  0.61647124  1
loop_
_geom_bond_atom_site_label_1
_geom_bond_atom_site_label_2
_geom_bond_distance
_geom_bond_site_symmetry_2
Ba0 Ge3 3.470658 1_545
Ba0 Ge2 3.470658 1_455
Ba0 Ge2 3.470660 1_445
Ba0 Ge3 3.470660 1_555
Ba0 Ge3 3.470660 1_445
Ba0 Ge2 3.470660 1_555
Ba0 Ga1 3.745917 1_455
Ba0 Ga0 3.745917 1_545
Ba0 Ga0 3.745919 1_555
Ba0 Ga0 3.745919 1_445
Ba0 Ga1 3.745919 1_445
Ba0 Ga1 3.745919 1_555
Ba1 Ge0 3.470658 1_544
Ba1 Ge1 3.470658 1_455
Ba1 Ge0 3.470660 1_554
Ba1 Ge0 3.470660 1_444
Ba1 Ge1 3.470660 1_445
Ba1 Ge1 3.470660 1_555
Ba1 Ga3 3.745917 1_545
Ba1 Ga2 3.745917 1_454
Ba1 Ga2 3.745919 1_554
Ba1 Ga3 3.745919 1_445
Ba1 Ga3 3.745919 1_555
Ba1 Ga2 3.745919 1_444
Ba2 Ga0 3.448412 1_545
Ba2 Ga3 3.448412 1_545
Ba2 Ga0 3.448414 1_555
Ba2 Ga3 3.448414 1_445
Ba2 Ga3 3.448414 1_555
Ba2 Ga0 3.448414 1_445
Ba2 Ge1 3.721987 1_455
Ba2 Ge2 3.721987 1_455
Ba2 Ge1 3.721990 1_445
Ba2 Ge1 3.721990 1_555
Ba2 Ge2 3.721990 1_555
Ba2 Ge2 3.721990 1_445
Ba3 Ga1 3.448412 1_455
Ba3 Ga2 3.448412 1_455
Ba3 Ga2 3.448414 1_445
Ba3 Ga1 3.448414 1_555
Ba3 Ga1 3.448414 1_445
Ba3 Ga2 3.448414 1_555
Ba3 Ge0 3.721987 1_545
Ba3 Ge3 3.721987 1_545
Ba3 Ge3 3.721990 1_445
Ba3 Ge0 3.721990 1_445
Ba3 Ge0 3.721990 1_555
Ba3 Ge3 3.721990 1_555
Ga0 Ge2 2.538097 1_455
Ga0 Ge2 2.538097 1_565
Ga0 Ge2 2.538105 1_555
Ga1 Ge3 2.538097 1_545
Ga1 Ge3 2.538097 1_655
Ga1 Ge3 2.538105 1_555
Ga2 Ge0 2.538097 1_545
Ga2 Ge0 2.538097 1_655
Ga2 Ge0 2.538105 1_555
Ga3 Ge1 2.538097 1_455
Ga3 Ge1 2.538097 1_565
Ga3 Ge1 2.538105 1_555
