# generated using pymatgen
data_U3Al3CoRh2
_symmetry_space_group_name_H-M   'P 1'
_cell_length_a   6.75090369
_cell_length_b   6.75090369
_cell_length_c   4.12774700
_cell_angle_alpha   90.00000000
_cell_angle_beta   90.00000000
_cell_angle_gamma   119.99999692
_symmetry_Int_Tables_number   1
_chemical_formula_structural   U3Al3CoRh2
_chemical_formula_sum   'U3 Al3 Co1 Rh2'
_cell_volume   162.91742592
_cell_formula_units_Z   1
loop_
 _symmetry_equiv_pos_site_id
 _symmetry_equiv_pos_as_xyz
  1  'x, y, z'
loop_
 _atom_site_type_symbol
 _atom_site_label
 _atom_site_symmetry_multiplicity
 _atom_site_fract_x
 _atom_site_fract_y
 _atom_site_fract_z
 _atom_site_occupancy
  U  U0  1  0.68481400  0.91302200  0.50000000  1
  U  U1  1  0.22820900  0.31518600  0.50000000  1
  U  U2  1  0.08697800  0.77179100  0.50000000  1
  Al  Al0  1  0.66994700  0.57233900  0.00000000  1
  Al  Al1  1  0.90239200  0.33005300  0.00000000  1
  Al  Al2  1  0.42766100  0.09760800  0.00000000  1
  Co  Co0  1  0.00000000  0.00000000  0.00000000  1
  Rh  Rh0  1  0.33333300  0.66666700  0.00000000  1
  Rh  Rh1  1  0.66666700  0.33333300  0.50000000  1
loop_
_geom_bond_atom_site_label_1
_geom_bond_atom_site_label_2
_geom_bond_distance
_geom_bond_site_symmetry_2
Al0 Rh1 2.612994 1_554
Al0 Rh1 2.612994 1_555
Al0 Co0 2.620517 1_665
Al0 Rh0 2.648892 1_555
Al0 Al1 2.775692 1_555
Al0 Al2 2.775692 1_555
Al0 U0 3.054249 1_555
Al0 U0 3.054249 1_554
Al0 U2 3.194981 1_655
Al0 U2 3.194981 1_654
Al0 U1 3.315027 1_555
Al0 U1 3.315027 1_554
Al1 Rh1 2.612990 1_554
Al1 Rh1 2.612990 1_555
Al1 Co0 2.620517 1_655
Al1 Rh0 2.648888 1_655
Al1 Al2 2.775692 1_555
Al1 U1 3.054254 1_655
Al1 U1 3.054254 1_654
Al1 U0 3.194981 1_545
Al1 U0 3.194981 1_544
Al1 U2 3.315026 1_655
Al1 U2 3.315026 1_654
Al2 Rh1 2.612992 1_554
Al2 Rh1 2.612992 1_555
Al2 Co0 2.620517 1_555
Al2 Rh0 2.648886 1_545
Al2 U2 3.054252 1_544
Al2 U2 3.054252 1_545
Al2 U1 3.194977 1_555
Al2 U1 3.194977 1_554
Al2 U0 3.315031 1_545
Al2 U0 3.315031 1_544
Co0 U0 2.807570 1_445
Co0 U0 2.807570 1_444
Co0 U1 2.807571 1_554
Co0 U1 2.807571 1_555
Co0 U2 2.807574 1_544
Co0 U2 2.807574 1_545
Rh0 U2 2.951181 1_555
Rh0 U2 2.951181 1_554
Rh0 U0 2.951189 1_555
Rh0 U0 2.951189 1_554
Rh0 U1 2.951191 1_555
Rh0 U1 2.951191 1_554
Rh1 U0 2.900674 1_545
Rh1 U1 2.900674 1_555
Rh1 U2 2.900674 1_655
