# generated using pymatgen
data_SrAg3Pd2
_symmetry_space_group_name_H-M   'P 1'
_cell_length_a   5.54857581
_cell_length_b   5.54857581
_cell_length_c   4.55615608
_cell_angle_alpha   90.00000000
_cell_angle_beta   90.00000000
_cell_angle_gamma   120.00001178
_symmetry_Int_Tables_number   1
_chemical_formula_structural   SrAg3Pd2
_chemical_formula_sum   'Sr1 Ag3 Pd2'
_cell_volume   121.47648629
_cell_formula_units_Z   1
loop_
 _symmetry_equiv_pos_site_id
 _symmetry_equiv_pos_as_xyz
  1  'x, y, z'
loop_
 _atom_site_type_symbol
 _atom_site_label
 _atom_site_symmetry_multiplicity
 _atom_site_fract_x
 _atom_site_fract_y
 _atom_site_fract_z
 _atom_site_occupancy
  Sr  Sr0  1  0.00000000  0.00000000  0.00000000  1
  Ag  Ag0  1  0.50000000  0.50000000  0.50000000  1
  Ag  Ag1  1  0.50000000  0.00000000  0.50000000  1
  Ag  Ag2  1  0.00000000  0.50000000  0.50000000  1
  Pd  Pd0  1  0.66666700  0.33333300  -0.00000000  1
  Pd  Pd1  1  0.33333300  0.66666700  -0.00000000  1
loop_
_geom_bond_atom_site_label_1
_geom_bond_atom_site_label_2
_geom_bond_distance
_geom_bond_site_symmetry_2
Ag0 Ag2 2.774288 1_655
Ag0 Ag1 2.774288 1_555
Ag0 Ag2 2.774288 1_555
Ag0 Ag1 2.774288 1_565
Ag0 Pd1 2.784817 1_556
Ag0 Pd0 2.784817 1_556
Ag0 Pd1 2.784817 1_555
Ag0 Pd0 2.784817 1_555
Ag0 Sr0 3.589751 1_555
Ag0 Sr0 3.589751 1_556
Ag0 Sr0 3.589751 1_665
Ag0 Sr0 3.589751 1_666
Ag1 Ag2 2.774287 1_655
Ag1 Ag2 2.774287 1_545
Ag1 Pd0 2.784814 1_555
Ag1 Pd0 2.784814 1_556
Ag1 Pd1 2.784814 1_546
Ag1 Pd1 2.784814 1_545
Ag1 Sr0 3.589751 1_555
Ag1 Sr0 3.589751 1_556
Ag1 Sr0 3.589751 1_656
Ag1 Sr0 3.589751 1_655
Ag2 Pd1 2.784814 1_556
Ag2 Pd0 2.784814 1_455
Ag2 Pd0 2.784814 1_456
Ag2 Pd1 2.784814 1_555
Ag2 Sr0 3.589751 1_555
Ag2 Sr0 3.589751 1_556
Ag2 Sr0 3.589751 1_566
Ag2 Sr0 3.589751 1_565
Pd0 Sr0 3.203469 1_655
Pd0 Sr0 3.203473 1_665
Pd0 Sr0 3.203473 1_555
Pd1 Sr0 3.203469 1_565
Pd1 Sr0 3.203473 1_555
Pd1 Sr0 3.203473 1_665
