# generated using pymatgen
data_Y(BC)2
_symmetry_space_group_name_H-M   'P 1'
_cell_length_a   5.33412396
_cell_length_b   5.33412396
_cell_length_c   3.58657163
_cell_angle_alpha   90.00000000
_cell_angle_beta   90.00000000
_cell_angle_gamma   90.00000000
_symmetry_Int_Tables_number   1
_chemical_formula_structural   Y(BC)2
_chemical_formula_sum   'Y2 B4 C4'
_cell_volume   102.04828654
_cell_formula_units_Z   2
loop_
 _symmetry_equiv_pos_site_id
 _symmetry_equiv_pos_as_xyz
  1  'x, y, z'
loop_
 _atom_site_type_symbol
 _atom_site_label
 _atom_site_symmetry_multiplicity
 _atom_site_fract_x
 _atom_site_fract_y
 _atom_site_fract_z
 _atom_site_occupancy
  Y  Y0  1  0.50000000  0.50000000  0.00000000  1
  Y  Y1  1  0.00000000  0.00000000  0.00000000  1
  B  B0  1  0.86360534  0.36360534  0.50000000  1
  B  B1  1  0.13639466  0.63639466  0.50000000  1
  B  B2  1  0.36360534  0.13639466  0.50000000  1
  B  B3  1  0.63639466  0.86360534  0.50000000  1
  C  C0  1  0.66220453  0.16220453  0.50000000  1
  C  C1  1  0.33779547  0.83779547  0.50000000  1
  C  C2  1  0.16220453  0.33779547  0.50000000  1
  C  C3  1  0.83779547  0.66220453  0.50000000  1
loop_
_geom_bond_atom_site_label_1
_geom_bond_atom_site_label_2
_geom_bond_distance
_geom_bond_site_symmetry_2
B0 C0 1.519285 1_555
B0 C2 1.598704 1_655
B0 C3 1.598704 1_555
B0 Y1 2.739876 1_655
B0 Y0 2.739876 1_555
B0 Y1 2.739876 1_656
B0 Y0 2.739876 1_556
B1 C1 1.519285 1_555
B1 C3 1.598704 1_455
B1 C2 1.598704 1_555
B1 Y0 2.739876 1_555
B1 Y1 2.739876 1_566
B1 Y1 2.739876 1_565
B1 Y0 2.739876 1_556
B2 C2 1.519285 1_555
B2 C1 1.598704 1_545
B2 C0 1.598704 1_555
B2 Y0 2.739876 1_555
B2 Y1 2.739876 1_556
B2 Y0 2.739876 1_556
B2 Y1 2.739876 1_555
B3 C3 1.519285 1_555
B3 C0 1.598704 1_565
B3 C1 1.598704 1_555
B3 Y0 2.739876 1_555
B3 Y1 2.739876 1_666
B3 Y1 2.739876 1_665
B3 Y0 2.739876 1_556
C0 Y1 2.685352 1_656
C0 Y0 2.685352 1_556
C0 Y1 2.685352 1_655
C0 Y0 2.685352 1_555
C1 Y1 2.685352 1_565
C1 Y1 2.685352 1_566
C1 Y0 2.685352 1_556
C1 Y0 2.685352 1_555
C2 Y1 2.685352 1_556
C2 Y0 2.685352 1_556
C2 Y1 2.685352 1_555
C2 Y0 2.685352 1_555
C3 Y1 2.685352 1_665
C3 Y0 2.685352 1_556
C3 Y0 2.685352 1_555
C3 Y1 2.685352 1_666
