# generated using pymatgen
data_K3SbO3
_symmetry_space_group_name_H-M   'P 1'
_cell_length_a   8.36735302
_cell_length_b   8.36735302
_cell_length_c   8.36735302
_cell_angle_alpha   90.00000000
_cell_angle_beta   90.00000000
_cell_angle_gamma   90.00000000
_symmetry_Int_Tables_number   1
_chemical_formula_structural   K3SbO3
_chemical_formula_sum   'K12 Sb4 O12'
_cell_volume   585.82011128
_cell_formula_units_Z   4
loop_
 _symmetry_equiv_pos_site_id
 _symmetry_equiv_pos_as_xyz
  1  'x, y, z'
loop_
 _atom_site_type_symbol
 _atom_site_label
 _atom_site_symmetry_multiplicity
 _atom_site_fract_x
 _atom_site_fract_y
 _atom_site_fract_z
 _atom_site_occupancy
  K  K0  1  0.02391567  0.02391567  0.02391567  1
  K  K1  1  0.47608433  0.97608433  0.52391567  1
  K  K2  1  0.52391567  0.47608433  0.97608433  1
  K  K3  1  0.97608433  0.52391567  0.47608433  1
  K  K4  1  0.21520082  0.71520082  0.78479918  1
  K  K5  1  0.28479918  0.28479918  0.28479918  1
  K  K6  1  0.21076934  0.28923066  0.71076934  1
  K  K7  1  0.28923066  0.71076934  0.21076934  1
  K  K8  1  0.71076934  0.21076934  0.28923066  1
  K  K9  1  0.78923066  0.78923066  0.78923066  1
  K  K10  1  0.71520082  0.78479918  0.21520082  1
  K  K11  1  0.78479918  0.21520082  0.71520082  1
  Sb  Sb0  1  0.48551603  0.01448397  0.98551603  1
  Sb  Sb1  1  0.01448397  0.98551603  0.48551603  1
  Sb  Sb2  1  0.98551603  0.48551603  0.01448397  1
  Sb  Sb3  1  0.51448397  0.51448397  0.51448397  1
  O  O0  1  0.49449776  0.78622899  0.94116931  1
  O  O1  1  0.99449776  0.71377101  0.05883069  1
  O  O2  1  0.50550224  0.28622899  0.55883069  1
  O  O3  1  0.71377101  0.05883069  0.99449776  1
  O  O4  1  0.78622899  0.94116931  0.49449776  1
  O  O5  1  0.94116931  0.49449776  0.78622899  1
  O  O6  1  0.28622899  0.55883069  0.50550224  1
  O  O7  1  0.21377101  0.44116931  0.00550224  1
  O  O8  1  0.44116931  0.00550224  0.21377101  1
  O  O9  1  0.00550224  0.21377101  0.44116931  1
  O  O10  1  0.55883069  0.50550224  0.28622899  1
  O  O11  1  0.05883069  0.99449776  0.71377101  1
loop_
_geom_bond_atom_site_label_1
_geom_bond_atom_site_label_2
_geom_bond_distance
_geom_bond_site_symmetry_2
K0 O1 2.623058 1_445
K0 O3 2.623058 1_454
K0 O11 2.623058 1_544
K1 O4 2.623058 1_555
K1 O8 2.623058 1_565
K1 O2 2.623058 1_565
K2 O0 2.623058 1_555
K2 O7 2.623058 1_556
K2 O10 2.623058 1_556
K3 O5 2.623058 1_555
K3 O6 2.623058 1_655
K3 O9 2.623058 1_655
K4 O11 2.743464 1_555
K4 O0 2.743464 1_555
K4 O6 2.743464 1_555
K4 O1 2.944133 1_456
K4 O7 2.944133 1_556
K4 O5 2.944133 1_455
K5 O8 2.743464 1_555
K5 O7 2.743464 1_555
K5 O9 2.743464 1_555
K5 O6 2.944133 1_555
K5 O10 2.944133 1_555
K5 O2 2.944133 1_555
K6 O2 2.774656 1_555
K6 O11 2.774656 1_545
K6 O7 2.774656 1_556
K6 O9 2.904724 1_555
K6 O5 2.904724 1_455
K6 O6 2.904724 1_555
K7 O8 2.774656 1_565
K7 O6 2.774656 1_555
K7 O1 2.774656 1_455
K7 O7 2.904724 1_555
K7 O0 2.904724 1_554
K7 O10 2.904724 1_555
K8 O3 2.774656 1_554
K8 O10 2.774656 1_555
K8 O9 2.774656 1_655
K8 O4 2.904724 1_545
K8 O2 2.904724 1_555
K8 O8 2.904724 1_555
K9 O5 2.774656 1_555
K9 O0 2.774656 1_555
K9 O4 2.774656 1_555
K9 O11 2.904724 1_655
K9 O1 2.904724 1_556
K9 O3 2.904724 1_565
K10 O4 2.743464 1_555
K10 O1 2.743464 1_555
K10 O10 2.743464 1_555
K10 O3 2.944133 1_564
K10 O8 2.944133 1_565
K10 O0 2.944133 1_554
K11 O5 2.743464 1_555
K11 O3 2.743464 1_555
K11 O2 2.743464 1_555
K11 O11 2.944133 1_645
K11 O4 2.944133 1_545
K11 O9 2.944133 1_655
O0 Sb0 1.947053 1_565
O1 Sb2 1.947053 1_555
O2 Sb3 1.947053 1_555
O3 Sb0 1.947053 1_555
O4 Sb1 1.947053 1_655
O5 Sb2 1.947053 1_556
O6 Sb3 1.947053 1_555
O7 Sb2 1.947053 1_455
O8 Sb0 1.947053 1_554
O9 Sb1 1.947053 1_545
O10 Sb3 1.947053 1_555
O11 Sb1 1.947053 1_555
