# generated using pymatgen
data_Mn3Cr2Fe(PO4)6
_symmetry_space_group_name_H-M   'P 1'
_cell_length_a   8.44192753
_cell_length_b   8.44192753
_cell_length_c   8.44192758
_cell_angle_alpha   61.69044480
_cell_angle_beta   61.69044480
_cell_angle_gamma   61.69044958
_symmetry_Int_Tables_number   1
_chemical_formula_structural   Mn3Cr2Fe(PO4)6
_chemical_formula_sum   'Mn3 Cr2 Fe1 P6 O24'
_cell_volume   441.53322187
_cell_formula_units_Z   1
loop_
 _symmetry_equiv_pos_site_id
 _symmetry_equiv_pos_as_xyz
  1  'x, y, z'
loop_
 _atom_site_type_symbol
 _atom_site_label
 _atom_site_symmetry_multiplicity
 _atom_site_fract_x
 _atom_site_fract_y
 _atom_site_fract_z
 _atom_site_occupancy
  Mn  Mn0  1  0.14536900  0.14536900  0.14536900  1
  Mn  Mn1  1  0.35484700  0.35484700  0.35484700  1
  Mn  Mn2  1  0.64526200  0.64526200  0.64526200  1
  Cr  Cr0  1  0.99947700  0.99947700  0.99947700  1
  Cr  Cr1  1  0.50056400  0.50056400  0.50056400  1
  Fe  Fe0  1  0.85357900  0.85357900  0.85357900  1
  P  P0  1  0.95195600  0.54968400  0.24960000  1
  P  P1  1  0.24960000  0.95195600  0.54968400  1
  P  P2  1  0.54968400  0.24960000  0.95195600  1
  P  P3  1  0.45185500  0.75018000  0.04811900  1
  P  P4  1  0.75018000  0.04811900  0.45185500  1
  P  P5  1  0.04811900  0.45185500  0.75018000  1
  O  O0  1  0.51319500  0.32089600  0.10446900  1
  O  O1  1  0.10446900  0.51319500  0.32089600  1
  O  O2  1  0.24801000  0.90492700  0.06370300  1
  O  O3  1  0.32089600  0.10446900  0.51319500  1
  O  O4  1  0.60670000  0.82263800  0.00457000  1
  O  O5  1  0.44049200  0.59496100  0.25073500  1
  O  O6  1  0.90492700  0.06370300  0.24801000  1
  O  O7  1  0.59496100  0.25073500  0.44049200  1
  O  O8  1  0.98745300  0.39530000  0.18066900  1
  O  O9  1  0.25073500  0.44049200  0.59496100  1
  O  O10  1  0.93586200  0.75257100  0.09285800  1
  O  O11  1  0.18066900  0.98745300  0.39530000  1
  O  O12  1  0.82263800  0.00457000  0.60670000  1
  O  O13  1  0.06370300  0.24801000  0.90492700  1
  O  O14  1  0.74842600  0.56363700  0.40574400  1
  O  O15  1  0.00457000  0.60670000  0.82263800  1
  O  O16  1  0.40574400  0.74842600  0.56363700  1
  O  O17  1  0.09285800  0.93586200  0.75257100  1
  O  O18  1  0.56363700  0.40574400  0.74842600  1
  O  O19  1  0.39530000  0.18066900  0.98745300  1
  O  O20  1  0.68070700  0.89435200  0.48663200  1
  O  O21  1  0.75257100  0.09285800  0.93586200  1
  O  O22  1  0.89435200  0.48663200  0.68070700  1
  O  O23  1  0.48663200  0.68070700  0.89435200  1
loop_
_geom_bond_atom_site_label_1
_geom_bond_atom_site_label_2
_geom_bond_distance
_geom_bond_site_symmetry_2
Mn0 O19 1.967087 1_554
Mn0 O11 1.967087 1_545
Mn0 O8 1.967087 1_455
Mn0 O6 2.106817 1_455
Mn0 O13 2.106817 1_554
Mn0 O2 2.106817 1_545
Mn1 O3 1.966725 1_555
Mn1 O0 1.966725 1_555
Mn1 O1 1.966726 1_555
Mn1 O5 2.121700 1_555
Mn1 O9 2.121700 1_555
Mn1 O7 2.121700 1_555
Mn2 O20 1.962267 1_555
Mn2 O23 1.962267 1_555
Mn2 O22 1.962267 1_555
Mn2 O18 2.098534 1_555
Mn2 O14 2.098534 1_555
Mn2 O16 2.098534 1_555
Cr0 O10 2.087128 1_556
Cr0 O17 2.087128 1_655
Cr0 O21 2.087128 1_565
Cr0 O13 2.100760 1_665
Cr0 O6 2.100760 1_566
Cr0 O2 2.100760 1_656
Cr1 O14 2.089591 1_555
Cr1 O18 2.089591 1_555
Cr1 O16 2.089591 1_555
Cr1 O9 2.092203 1_555
Cr1 O5 2.092203 1_555
Cr1 O7 2.092203 1_555
Fe0 O4 1.928074 1_556
Fe0 O12 1.928074 1_565
Fe0 O15 1.928074 1_655
Fe0 O17 2.103632 1_655
Fe0 O10 2.103632 1_556
Fe0 O21 2.103632 1_565
O0 P2 1.515844 1_554
O1 P0 1.515844 1_455
O2 P3 1.581542 1_555
O3 P1 1.515844 1_545
O4 P3 1.518996 1_555
O5 P3 1.577878 1_555
O6 P4 1.581541 1_555
O7 P4 1.577878 1_555
O8 P0 1.520036 1_555
O9 P5 1.577878 1_555
O10 P0 1.582126 1_555
O11 P1 1.520036 1_555
O12 P4 1.518996 1_555
O13 P5 1.581542 1_555
O14 P0 1.584535 1_555
O15 P5 1.518996 1_555
O16 P1 1.584535 1_555
O17 P1 1.582126 1_555
O18 P2 1.584535 1_555
O19 P2 1.520036 1_555
O20 P4 1.520692 1_565
O21 P2 1.582126 1_555
O22 P5 1.520692 1_655
O23 P3 1.520692 1_556
