# generated using pymatgen
data_CrFe2N3
_symmetry_space_group_name_H-M   'P 1'
_cell_length_a   5.23232865
_cell_length_b   5.12917750
_cell_length_c   4.89092000
_cell_angle_alpha   90.00000000
_cell_angle_beta   90.00000000
_cell_angle_gamma   119.34997461
_symmetry_Int_Tables_number   1
_chemical_formula_structural   CrFe2N3
_chemical_formula_sum   'Cr2 Fe4 N6'
_cell_volume   114.41197855
_cell_formula_units_Z   2
loop_
 _symmetry_equiv_pos_site_id
 _symmetry_equiv_pos_as_xyz
  1  'x, y, z'
loop_
 _atom_site_type_symbol
 _atom_site_label
 _atom_site_symmetry_multiplicity
 _atom_site_fract_x
 _atom_site_fract_y
 _atom_site_fract_z
 _atom_site_occupancy
  Cr  Cr0  1  0.00000000  0.67019700  0.52631100  1
  Cr  Cr1  1  0.00000000  0.32980300  0.02631100  1
  Fe  Fe0  1  0.37819200  0.38198900  0.47571700  1
  Fe  Fe1  1  0.62180800  0.00379700  0.47571700  1
  Fe  Fe2  1  0.62180800  0.61801100  0.97571700  1
  Fe  Fe3  1  0.37819200  0.99620300  0.97571700  1
  N  N0  1  0.29524300  0.29048100  0.84496500  1
  N  N1  1  0.70475700  0.99523900  0.84496500  1
  N  N2  1  0.70475700  0.70951900  0.34496500  1
  N  N3  1  0.29524300  0.00476100  0.34496500  1
  N  N4  1  0.00000000  0.67118400  0.90432500  1
  N  N5  1  0.00000000  0.32881600  0.40432500  1
loop_
_geom_bond_atom_site_label_1
_geom_bond_atom_site_label_2
_geom_bond_distance
_geom_bond_site_symmetry_2
Cr0 N4 1.848843 1_555
Cr0 N5 1.849858 1_555
Cr0 N3 1.875956 1_565
Cr0 N2 1.875958 1_455
Cr1 N5 1.848843 1_555
Cr1 N4 1.849858 1_554
Cr1 N1 1.875956 1_444
Cr1 N0 1.875958 1_554
Fe0 N2 1.826722 1_555
Fe0 N0 1.862921 1_555
Fe0 N3 1.875590 1_555
Fe0 N5 1.892881 1_555
Fe1 N3 1.826719 1_555
Fe1 N1 1.862921 1_545
Fe1 N2 1.875585 1_545
Fe1 N5 1.892881 1_655
Fe2 N0 1.826722 1_555
Fe2 N2 1.862921 1_556
Fe2 N1 1.875590 1_555
Fe2 N4 1.892881 1_655
Fe3 N1 1.826719 1_555
Fe3 N3 1.862921 1_566
Fe3 N0 1.875585 1_565
Fe3 N4 1.892881 1_555
