# generated using pymatgen
data_Ca3(CoN2)2
_symmetry_space_group_name_H-M   'P 1'
_cell_length_a   8.56922700
_cell_length_b   8.61342100
_cell_length_c   11.72206600
_cell_angle_alpha   90.00000000
_cell_angle_beta   90.00000000
_cell_angle_gamma   90.00000000
_symmetry_Int_Tables_number   1
_chemical_formula_structural   Ca3(CoN2)2
_chemical_formula_sum   'Ca12 Co8 N16'
_cell_volume   865.20990901
_cell_formula_units_Z   4
loop_
 _symmetry_equiv_pos_site_id
 _symmetry_equiv_pos_as_xyz
  1  'x, y, z'
loop_
 _atom_site_type_symbol
 _atom_site_label
 _atom_site_symmetry_multiplicity
 _atom_site_fract_x
 _atom_site_fract_y
 _atom_site_fract_z
 _atom_site_occupancy
  Ca  Ca0  1  0.38713900  0.10682700  0.62896300  1
  Ca  Ca1  1  0.57979200  0.86759100  0.83549000  1
  Ca  Ca2  1  0.90431600  0.90252400  0.65694100  1
  Ca  Ca3  1  0.40431600  0.40252400  0.84305900  1
  Ca  Ca4  1  0.42020800  0.36759100  0.16451000  1
  Ca  Ca5  1  0.88713900  0.60682700  0.87103700  1
  Ca  Ca6  1  0.59568400  0.90252400  0.15694100  1
  Ca  Ca7  1  0.09568400  0.40252400  0.34305900  1
  Ca  Ca8  1  0.07979200  0.36759100  0.66451000  1
  Ca  Ca9  1  0.92020800  0.86759100  0.33549000  1
  Ca  Ca10  1  0.11286100  0.10682700  0.12896300  1
  Ca  Ca11  1  0.61286100  0.60682700  0.37103700  1
  Co  Co0  1  0.93442200  0.60762700  0.52128200  1
  Co  Co1  1  0.13473900  0.42314200  0.00493200  1
  Co  Co2  1  0.06557800  0.10762700  0.47871800  1
  Co  Co3  1  0.56557800  0.60762700  0.02128200  1
  Co  Co4  1  0.63473900  0.92314200  0.49506800  1
  Co  Co5  1  0.86526100  0.92314200  0.99506800  1
  Co  Co6  1  0.43442200  0.10762700  0.97871800  1
  Co  Co7  1  0.36526100  0.42314200  0.50493200  1
  N  N0  1  0.88951700  0.92540700  0.13483700  1
  N  N1  1  0.89315800  0.59152000  0.38352800  1
  N  N2  1  0.60684200  0.59152000  0.88352800  1
  N  N3  1  0.35706700  0.38419300  0.64335600  1
  N  N4  1  0.85706700  0.88419300  0.85664400  1
  N  N5  1  0.10684200  0.09152000  0.61647200  1
  N  N6  1  0.38951700  0.42540700  0.36516300  1
  N  N7  1  0.11048300  0.42540700  0.86516300  1
  N  N8  1  0.61048300  0.92540700  0.63483700  1
  N  N9  1  0.56248700  0.61483800  0.16217700  1
  N  N10  1  0.64293300  0.88419300  0.35664400  1
  N  N11  1  0.43751300  0.11483800  0.83782300  1
  N  N12  1  0.39315800  0.09152000  0.11647200  1
  N  N13  1  0.06248700  0.11483800  0.33782300  1
  N  N14  1  0.14293300  0.38419300  0.14335600  1
  N  N15  1  0.93751300  0.61483800  0.66217700  1
loop_
_geom_bond_atom_site_label_1
_geom_bond_atom_site_label_2
_geom_bond_distance
_geom_bond_site_symmetry_2
Ca0 N3 2.408844 1_555
Ca0 N5 2.409997 1_555
Ca0 N8 2.471753 1_545
Ca0 N11 2.486991 1_555
Ca1 N4 2.393213 1_555
Ca1 N8 2.418551 1_555
Ca1 N11 2.454104 1_565
Ca1 N2 2.454649 1_555
Ca2 N4 2.380930 1_555
Ca2 N5 2.426321 1_665
Ca2 N15 2.494991 1_555
Ca2 N8 2.538880 1_555
Ca3 N3 2.380930 1_555
Ca3 N2 2.426321 1_555
Ca3 N11 2.494991 1_555
Ca3 N7 2.538880 1_555
Ca4 N14 2.393213 1_555
Ca4 N6 2.418551 1_555
Ca4 N9 2.454104 1_555
Ca4 N12 2.454649 1_555
Ca5 N4 2.408844 1_555
Ca5 N2 2.409997 1_555
Ca5 N7 2.471753 1_655
Ca5 N15 2.486991 1_555
Ca6 N10 2.380930 1_555
Ca6 N12 2.426321 1_565
Ca6 N9 2.494991 1_555
Ca6 N0 2.538880 1_555
Ca7 N14 2.380930 1_555
Ca7 N1 2.426321 1_455
Ca7 N13 2.494991 1_555
Ca7 N6 2.538880 1_555
Ca8 N3 2.393213 1_555
Ca8 N7 2.418551 1_555
Ca8 N15 2.454104 1_455
Ca8 N5 2.454649 1_555
Ca9 N10 2.393213 1_555
Ca9 N0 2.418551 1_555
Ca9 N13 2.454104 1_665
Ca9 N1 2.454649 1_555
Ca10 N14 2.408844 1_555
Ca10 N12 2.409997 1_555
Ca10 N0 2.471753 1_445
Ca10 N13 2.486991 1_555
Ca11 N10 2.408844 1_555
Ca11 N1 2.409997 1_555
Ca11 N6 2.471753 1_555
Ca11 N9 2.486991 1_555
Co0 N15 1.652960 1_555
Co0 N1 1.658836 1_555
Co1 N7 1.651629 1_554
Co1 N14 1.658421 1_555
Co2 N13 1.652960 1_555
Co2 N5 1.658836 1_555
Co3 N9 1.652960 1_555
Co3 N2 1.658836 1_554
Co4 N8 1.651629 1_555
Co4 N10 1.658421 1_555
Co5 N0 1.651629 1_556
Co5 N4 1.658421 1_555
Co6 N11 1.652960 1_555
Co6 N12 1.658836 1_556
Co7 N6 1.651629 1_555
Co7 N3 1.658421 1_555
