# generated using pymatgen
data_Pr6GaFe13
_symmetry_space_group_name_H-M   'P 1'
_cell_length_a   8.06206600
_cell_length_b   8.06206600
_cell_length_c   13.04024463
_cell_angle_alpha   108.00635614
_cell_angle_beta   108.00635614
_cell_angle_gamma   90.00000000
_symmetry_Int_Tables_number   1
_chemical_formula_structural   Pr6GaFe13
_chemical_formula_sum   'Pr12 Ga2 Fe26'
_cell_volume   762.29355377
_cell_formula_units_Z   2
loop_
 _symmetry_equiv_pos_site_id
 _symmetry_equiv_pos_as_xyz
  1  'x, y, z'
loop_
 _atom_site_type_symbol
 _atom_site_label
 _atom_site_symmetry_multiplicity
 _atom_site_fract_x
 _atom_site_fract_y
 _atom_site_fract_z
 _atom_site_occupancy
  Pr  Pr0  1  0.10682100  0.10682100  0.21364200  1
  Pr  Pr1  1  0.89317900  0.89317900  0.78635800  1
  Pr  Pr2  1  0.39317900  0.39317900  0.78635800  1
  Pr  Pr3  1  0.60682100  0.60682100  0.21364200  1
  Pr  Pr4  1  0.35363900  0.85363900  0.37442700  1
  Pr  Pr5  1  0.64636100  0.14636100  0.62557300  1
  Pr  Pr6  1  0.02078800  0.52078800  0.37442700  1
  Pr  Pr7  1  0.52078800  0.35363900  0.37442700  1
  Pr  Pr8  1  0.14636100  0.97921200  0.62557300  1
  Pr  Pr9  1  0.97921200  0.47921200  0.62557300  1
  Pr  Pr10  1  0.47921200  0.64636100  0.62557300  1
  Pr  Pr11  1  0.85363900  0.02078800  0.37442700  1
  Ga  Ga0  1  0.25000000  0.25000000  0.50000000  1
  Ga  Ga1  1  0.75000000  0.75000000  0.50000000  1
  Fe  Fe0  1  0.23705100  0.73705100  0.11759600  1
  Fe  Fe1  1  0.76294900  0.26294900  0.88240400  1
  Fe  Fe2  1  0.88054500  0.38054500  0.11759600  1
  Fe  Fe3  1  0.38054500  0.23705100  0.11759600  1
  Fe  Fe4  1  0.26294900  0.11945500  0.88240400  1
  Fe  Fe5  1  0.11945500  0.61945500  0.88240400  1
  Fe  Fe6  1  0.61945500  0.76294900  0.88240400  1
  Fe  Fe7  1  0.73705100  0.88054500  0.11759600  1
  Fe  Fe8  1  0.00000000  0.50000000  0.00000000  1
  Fe  Fe9  1  0.50000000  0.00000000  0.00000000  1
  Fe  Fe10  1  0.06609900  0.20981300  0.00000000  1
  Fe  Fe11  1  0.93390100  0.79018700  0.00000000  1
  Fe  Fe12  1  0.79018700  0.06609900  0.00000000  1
  Fe  Fe13  1  0.43390100  0.70981300  0.00000000  1
  Fe  Fe14  1  0.20981300  0.93390100  0.00000000  1
  Fe  Fe15  1  0.56609900  0.29018700  0.00000000  1
  Fe  Fe16  1  0.70981300  0.56609900  0.00000000  1
  Fe  Fe17  1  0.29018700  0.43390100  0.00000000  1
  Fe  Fe18  1  0.70644300  0.20644300  0.18631600  1
  Fe  Fe19  1  0.29355700  0.79355700  0.81368400  1
  Fe  Fe20  1  0.47987300  0.97987300  0.18631600  1
  Fe  Fe21  1  0.97987300  0.70644300  0.18631600  1
  Fe  Fe22  1  0.79355700  0.52012700  0.81368400  1
  Fe  Fe23  1  0.52012700  0.02012700  0.81368400  1
  Fe  Fe24  1  0.02012700  0.29355700  0.81368400  1
  Fe  Fe25  1  0.20644300  0.47987300  0.18631600  1
loop_
_geom_bond_atom_site_label_1
_geom_bond_atom_site_label_2
_geom_bond_distance
_geom_bond_site_symmetry_2
Ga0 Pr7 3.346870 1_555
Ga0 Pr4 3.346870 1_545
Ga0 Pr10 3.346870 1_555
Ga0 Pr11 3.346870 1_455
Ga0 Pr5 3.346870 1_555
Ga0 Pr6 3.346870 1_555
Ga0 Pr9 3.346870 1_455
Ga0 Pr8 3.346870 1_545
Ga0 Pr0 3.358450 1_555
Ga0 Pr2 3.358450 1_555
Ga1 Pr8 3.346870 1_655
Ga1 Pr6 3.346870 1_655
Ga1 Pr5 3.346870 1_565
Ga1 Pr11 3.346870 1_565
Ga1 Pr9 3.346870 1_555
Ga1 Pr4 3.346870 1_555
Ga1 Pr7 3.346870 1_555
Ga1 Pr10 3.346870 1_555
Ga1 Pr1 3.358450 1_555
Ga1 Pr3 3.358450 1_555
Fe0 Fe8 2.456133 1_555
Fe0 Fe13 2.492954 1_555
Fe0 Fe14 2.492954 1_555
Fe0 Fe20 2.509708 1_555
Fe0 Fe21 2.539347 1_455
Fe0 Fe25 2.539347 1_555
Fe0 Fe11 2.568528 1_455
Fe0 Fe17 2.568528 1_555
Fe0 Fe5 2.758367 1_554
Fe0 Pr4 3.015170 1_555
Fe0 Pr3 3.172167 1_555
Fe0 Pr0 3.172167 1_565
Fe1 Fe8 2.456133 1_656
Fe1 Fe15 2.492954 1_556
Fe1 Fe12 2.492954 1_556
Fe1 Fe23 2.509708 1_555
Fe1 Fe24 2.539347 1_655
Fe1 Fe22 2.539347 1_555
Fe1 Fe10 2.568528 1_656
Fe1 Fe16 2.568528 1_556
Fe1 Fe2 2.758367 1_556
Fe1 Pr5 3.015170 1_555
Fe1 Pr1 3.172167 1_545
Fe1 Pr2 3.172167 1_555
Fe2 Fe8 2.456133 1_655
Fe2 Fe25 2.539347 1_655
Fe2 Fe21 2.539347 1_555
Fe2 Pr6 3.015170 1_655
Fe2 Pr3 3.172167 1_555
Fe2 Pr0 3.172167 1_655
Fe3 Fe9 2.456133 1_555
Fe3 Fe4 2.758367 1_554
Fe3 Pr7 3.015170 1_555
Fe3 Pr3 3.172167 1_555
Fe3 Pr0 3.172167 1_555
Fe4 Fe9 2.456133 1_556
Fe4 Pr8 3.015170 1_545
Fe4 Pr2 3.172167 1_555
Fe4 Pr1 3.172167 1_445
Fe5 Fe8 2.456133 1_556
Fe5 Pr9 3.015170 1_455
Fe5 Pr1 3.172167 1_455
Fe5 Pr2 3.172167 1_555
Fe6 Fe9 2.456133 1_566
Fe6 Fe7 2.758367 1_556
Fe6 Pr10 3.015170 1_555
Fe6 Pr1 3.172167 1_555
Fe6 Pr2 3.172167 1_555
Fe7 Fe9 2.456133 1_565
Fe7 Pr11 3.015170 1_565
Fe7 Pr3 3.172167 1_555
Fe7 Pr0 3.172167 1_665
Fe10 Fe8 2.399431 1_555
Fe10 Fe3 2.492954 1_555
Fe10 Fe4 2.492954 1_554
Fe10 Fe12 2.508082 1_455
Fe10 Fe14 2.508082 1_545
Fe10 Fe17 2.554936 1_555
Fe10 Fe2 2.568528 1_455
Fe10 Fe24 2.636967 1_554
Fe10 Fe25 2.636967 1_555
Fe10 Pr0 3.069755 1_555
Fe10 Pr1 3.069755 1_444
Fe11 Fe8 2.399431 1_655
Fe11 Fe6 2.492954 1_554
Fe11 Fe7 2.492954 1_555
Fe11 Fe12 2.508082 1_565
Fe11 Fe14 2.508082 1_655
Fe11 Fe16 2.554936 1_555
Fe11 Fe5 2.568528 1_654
Fe11 Fe22 2.636967 1_554
Fe11 Fe21 2.636967 1_555
Fe11 Pr1 3.069755 1_554
Fe11 Pr0 3.069755 1_665
Fe12 Fe9 2.399431 1_555
Fe12 Fe2 2.492954 1_555
Fe12 Fe15 2.554936 1_555
Fe12 Fe7 2.568528 1_545
Fe12 Fe6 2.568528 1_544
Fe12 Fe18 2.636967 1_555
Fe12 Fe23 2.636967 1_554
Fe12 Pr1 3.069755 1_544
Fe12 Pr0 3.069755 1_655
Fe13 Fe9 2.399431 1_565
Fe13 Fe5 2.492954 1_554
Fe13 Fe17 2.508082 1_555
Fe13 Fe16 2.508082 1_555
Fe13 Fe14 2.554936 1_555
Fe13 Fe6 2.568528 1_554
Fe13 Fe7 2.568528 1_555
Fe13 Fe20 2.636967 1_555
Fe13 Fe19 2.636967 1_554
Fe13 Pr2 3.069755 1_554
Fe13 Pr3 3.069755 1_555
Fe14 Fe9 2.399431 1_565
Fe14 Fe5 2.492954 1_554
Fe14 Fe3 2.568528 1_565
Fe14 Fe4 2.568528 1_564
Fe14 Fe20 2.636967 1_555
Fe14 Fe19 2.636967 1_554
Fe14 Pr0 3.069755 1_565
Fe14 Pr1 3.069755 1_454
Fe15 Fe9 2.399431 1_555
Fe15 Fe2 2.492954 1_555
Fe15 Fe17 2.508082 1_555
Fe15 Fe16 2.508082 1_555
Fe15 Fe3 2.568528 1_555
Fe15 Fe4 2.568528 1_554
Fe15 Fe18 2.636967 1_555
Fe15 Fe23 2.636967 1_554
Fe15 Pr2 3.069755 1_554
Fe15 Pr3 3.069755 1_555
Fe16 Fe8 2.399431 1_655
Fe16 Fe6 2.492954 1_554
Fe16 Fe7 2.492954 1_555
Fe16 Fe2 2.568528 1_555
Fe16 Fe22 2.636967 1_554
Fe16 Fe21 2.636967 1_555
Fe16 Pr2 3.069755 1_554
Fe16 Pr3 3.069755 1_555
Fe17 Fe8 2.399431 1_555
Fe17 Fe3 2.492954 1_555
Fe17 Fe4 2.492954 1_554
Fe17 Fe5 2.568528 1_554
Fe17 Fe24 2.636967 1_554
Fe17 Fe25 2.636967 1_555
Fe17 Pr2 3.069755 1_554
Fe17 Pr3 3.069755 1_555
Fe18 Fe2 2.509708 1_555
Fe18 Fe9 2.538330 1_555
Fe18 Fe7 2.539347 1_545
Fe18 Fe3 2.539347 1_555
Fe18 Fe20 2.583234 1_545
Fe18 Pr11 3.183719 1_555
Fe18 Pr7 3.183719 1_555
Fe18 Pr0 3.264512 1_655
Fe18 Pr3 3.264512 1_555
Fe18 Pr6 3.342987 1_655
Fe19 Fe5 2.509708 1_555
Fe19 Fe9 2.538330 1_566
Fe19 Fe6 2.539347 1_555
Fe19 Fe4 2.539347 1_565
Fe19 Fe23 2.583234 1_565
Fe19 Pr10 3.183719 1_555
Fe19 Pr8 3.183719 1_555
Fe19 Pr2 3.264512 1_555
Fe19 Pr1 3.264512 1_455
Fe19 Pr9 3.342987 1_455
Fe20 Fe9 2.538330 1_565
Fe20 Fe7 2.539347 1_555
Fe20 Fe3 2.539347 1_565
Fe20 Pr7 3.183719 1_565
Fe20 Pr11 3.183719 1_565
Fe20 Pr3 3.264512 1_555
Fe20 Pr0 3.264512 1_565
Fe20 Pr4 3.342987 1_555
Fe21 Fe7 2.509708 1_555
Fe21 Fe8 2.538330 1_655
Fe21 Fe25 2.583234 1_655
Fe21 Pr6 3.183719 1_655
Fe21 Pr4 3.183719 1_655
Fe21 Pr3 3.264512 1_555
Fe21 Pr0 3.264512 1_665
Fe21 Pr11 3.342987 1_565
Fe22 Fe6 2.509708 1_555
Fe22 Fe8 2.538330 1_656
Fe22 Fe5 2.539347 1_655
Fe22 Fe24 2.583234 1_655
Fe22 Pr9 3.183719 1_555
Fe22 Pr5 3.183719 1_555
Fe22 Pr1 3.264512 1_555
Fe22 Pr2 3.264512 1_555
Fe22 Pr10 3.342987 1_555
Fe23 Fe9 2.538330 1_556
Fe23 Fe6 2.539347 1_545
Fe23 Fe4 2.539347 1_555
Fe23 Pr8 3.183719 1_545
Fe23 Pr10 3.183719 1_545
Fe23 Pr1 3.264512 1_545
Fe23 Pr2 3.264512 1_555
Fe23 Pr5 3.342987 1_555
Fe24 Fe4 2.509708 1_555
Fe24 Fe8 2.538330 1_556
Fe24 Fe5 2.539347 1_555
Fe24 Pr9 3.183719 1_455
Fe24 Pr5 3.183719 1_455
Fe24 Pr2 3.264512 1_555
Fe24 Pr1 3.264512 1_445
Fe24 Pr8 3.342987 1_545
Fe25 Fe3 2.509708 1_555
Fe25 Fe8 2.538330 1_555
Fe25 Pr4 3.183719 1_555
Fe25 Pr6 3.183719 1_555
Fe25 Pr0 3.264512 1_555
Fe25 Pr3 3.264512 1_555
Fe25 Pr7 3.342987 1_555
