# generated using pymatgen
data_MgCo3P3O13
_symmetry_space_group_name_H-M   'P 1'
_cell_length_a   6.28561000
_cell_length_b   7.52057300
_cell_length_c   10.04732530
_cell_angle_alpha   79.61009721
_cell_angle_beta   90.00000000
_cell_angle_gamma   90.00000000
_symmetry_Int_Tables_number   1
_chemical_formula_structural   MgCo3P3O13
_chemical_formula_sum   'Mg2 Co6 P6 O26'
_cell_volume   467.16337661
_cell_formula_units_Z   2
loop_
 _symmetry_equiv_pos_site_id
 _symmetry_equiv_pos_as_xyz
  1  'x, y, z'
loop_
 _atom_site_type_symbol
 _atom_site_label
 _atom_site_symmetry_multiplicity
 _atom_site_fract_x
 _atom_site_fract_y
 _atom_site_fract_z
 _atom_site_occupancy
  Mg  Mg0  1  0.75000000  0.36909300  0.17870800  1
  Mg  Mg1  1  0.25000000  0.63090700  0.82129200  1
  Co  Co0  1  0.25000000  0.64919800  0.20203300  1
  Co  Co1  1  0.75000000  0.35080200  0.79796700  1
  Co  Co2  1  0.25000000  0.20994100  0.43220800  1
  Co  Co3  1  0.50000000  0.00000000  0.00000000  1
  Co  Co4  1  0.75000000  0.79005900  0.56779200  1
  Co  Co5  1  0.00000000  0.00000000  0.00000000  1
  P  P0  1  0.25000000  0.77903400  0.49613200  1
  P  P1  1  0.75000000  0.22096600  0.50386800  1
  P  P2  1  0.25000000  0.26669200  0.76157500  1
  P  P3  1  0.75000000  0.73330800  0.23842500  1
  P  P4  1  0.75000000  0.68211600  0.88845400  1
  P  P5  1  0.25000000  0.31788400  0.11154600  1
  O  O0  1  0.75000000  0.62986300  0.74562500  1
  O  O1  1  0.55938800  0.25329600  0.40513900  1
  O  O2  1  0.25000000  0.21794700  0.62121900  1
  O  O3  1  0.54102400  0.78895900  0.90104200  1
  O  O4  1  0.75000000  0.34724500  0.60697600  1
  O  O5  1  0.75000000  0.12434800  0.90720500  1
  O  O6  1  0.25000000  0.65275500  0.39302400  1
  O  O7  1  0.04102400  0.21104100  0.09895800  1
  O  O8  1  0.25000000  0.97594000  0.41236700  1
  O  O9  1  0.75000000  0.02406000  0.58763300  1
  O  O10  1  0.06179500  0.38896000  0.78871700  1
  O  O11  1  0.25000000  0.87565200  0.09279500  1
  O  O12  1  0.56179500  0.61104000  0.21128300  1
  O  O13  1  0.75000000  0.49132400  0.97777700  1
  O  O14  1  0.75000000  0.78205300  0.37878100  1
  O  O15  1  0.45897600  0.21104100  0.09895800  1
  O  O16  1  0.94061200  0.25329600  0.40513900  1
  O  O17  1  0.44061200  0.74670400  0.59486100  1
  O  O18  1  0.43820500  0.38896000  0.78871700  1
  O  O19  1  0.25000000  0.37013700  0.25437500  1
  O  O20  1  0.75000000  0.91119500  0.13039700  1
  O  O21  1  0.25000000  0.08880500  0.86960300  1
  O  O22  1  0.93820500  0.61104000  0.21128300  1
  O  O23  1  0.95897600  0.78895900  0.90104200  1
  O  O24  1  0.05938800  0.74670400  0.59486100  1
  O  O25  1  0.25000000  0.50867600  0.02222300  1
loop_
_geom_bond_atom_site_label_1
_geom_bond_atom_site_label_2
_geom_bond_distance
_geom_bond_site_symmetry_2
Mg0 O13 2.061862 1_554
Mg0 O22 2.243267 1_555
Mg0 O12 2.243267 1_555
Mg0 O7 2.396799 1_655
Mg0 O15 2.396799 1_555
Mg0 O16 2.579729 1_555
Mg0 O1 2.579729 1_555
Mg1 O25 2.061862 1_556
Mg1 O18 2.243267 1_555
Mg1 O10 2.243267 1_555
Mg1 O3 2.396799 1_555
Mg1 O23 2.396799 1_455
Mg1 O17 2.579729 1_555
Mg1 O24 2.579729 1_555
Co0 O11 1.852252 1_555
Co0 O6 1.923953 1_555
Co0 O12 1.980472 1_555
Co0 O22 1.980472 1_455
Co0 O19 2.069543 1_555
Co0 O25 2.251516 1_555
Co1 O5 1.852252 1_555
Co1 O4 1.923953 1_555
Co1 O10 1.980472 1_655
Co1 O18 1.980472 1_555
Co1 O0 2.069543 1_555
Co1 O13 2.251516 1_555
Co2 O8 1.806447 1_545
Co2 O2 1.910832 1_555
Co2 O19 1.966594 1_555
Co2 O1 1.982454 1_555
Co2 O16 1.982454 1_455
Co3 O11 1.974492 1_545
Co3 O5 1.974492 1_554
Co3 O15 2.035505 1_555
Co3 O3 2.035505 1_544
Co3 O20 2.077550 1_545
Co3 O21 2.077550 1_554
Co4 O9 1.806447 1_565
Co4 O14 1.910832 1_555
Co4 O0 1.966594 1_555
Co4 O24 1.982454 1_655
Co4 O17 1.982454 1_555
Co5 O11 1.974492 1_545
Co5 O5 1.974492 1_454
Co5 O7 2.035505 1_555
Co5 O23 2.035505 1_444
Co5 O20 2.077550 1_445
Co5 O21 2.077550 1_554
O0 P4 1.554735 1_555
O1 P1 1.546476 1_555
O2 P2 1.519712 1_555
O3 P4 1.556820 1_555
O4 P1 1.526430 1_555
O6 P0 1.526430 1_555
O7 P5 1.556820 1_555
O8 P0 1.565787 1_555
O9 P1 1.565787 1_555
O10 P2 1.552350 1_555
O12 P3 1.552350 1_555
O13 P4 1.549127 1_555
O14 P3 1.519712 1_555
O15 P5 1.556820 1_555
O16 P1 1.546476 1_555
O17 P0 1.546476 1_555
O18 P2 1.552350 1_555
O19 P5 1.554735 1_555
O20 P3 1.563354 1_555
O21 P2 1.563354 1_555
O22 P3 1.552350 1_555
O23 P4 1.556820 1_555
O24 P0 1.546476 1_555
O25 P5 1.549127 1_555
