# generated using pymatgen
data_CsNb3(PO5)3
_symmetry_space_group_name_H-M   'P 1'
_cell_length_a   6.52580500
_cell_length_b   13.72401600
_cell_length_c   15.06654500
_cell_angle_alpha   90.00000000
_cell_angle_beta   90.00000000
_cell_angle_gamma   90.00000000
_symmetry_Int_Tables_number   1
_chemical_formula_structural   CsNb3(PO5)3
_chemical_formula_sum   'Cs4 Nb12 P12 O60'
_cell_volume   1349.36357048
_cell_formula_units_Z   4
loop_
 _symmetry_equiv_pos_site_id
 _symmetry_equiv_pos_as_xyz
  1  'x, y, z'
loop_
 _atom_site_type_symbol
 _atom_site_label
 _atom_site_symmetry_multiplicity
 _atom_site_fract_x
 _atom_site_fract_y
 _atom_site_fract_z
 _atom_site_occupancy
  Cs  Cs0  1  0.00000000  0.50951400  0.32885200  1
  Cs  Cs1  1  0.00000000  0.49048600  0.67114800  1
  Cs  Cs2  1  0.50000000  0.99048600  0.82885200  1
  Cs  Cs3  1  0.50000000  0.00951400  0.17114800  1
  Nb  Nb0  1  0.00000000  0.06183500  0.61251000  1
  Nb  Nb1  1  0.00000000  0.93816500  0.38749000  1
  Nb  Nb2  1  0.50000000  0.43816500  0.11251000  1
  Nb  Nb3  1  0.50000000  0.56183500  0.88749000  1
  Nb  Nb4  1  0.00000000  0.18808900  0.27263500  1
  Nb  Nb5  1  0.00000000  0.81191100  0.72736500  1
  Nb  Nb6  1  0.50000000  0.31191100  0.77263500  1
  Nb  Nb7  1  0.50000000  0.68808900  0.22736500  1
  Nb  Nb8  1  0.00000000  0.14061500  0.02232100  1
  Nb  Nb9  1  0.00000000  0.85938500  0.97767900  1
  Nb  Nb10  1  0.50000000  0.35938500  0.52232100  1
  Nb  Nb11  1  0.50000000  0.64061500  0.47767900  1
  P  P0  1  0.00000000  0.77131800  0.20459000  1
  P  P1  1  0.00000000  0.22868200  0.79541000  1
  P  P2  1  0.50000000  0.72868200  0.70459000  1
  P  P3  1  0.50000000  0.27131800  0.29541000  1
  P  P4  1  0.00000000  0.28781800  0.49183400  1
  P  P5  1  0.00000000  0.71218200  0.50816600  1
  P  P6  1  0.50000000  0.21218200  0.99183400  1
  P  P7  1  0.50000000  0.78781800  0.00816600  1
  P  P8  1  0.00000000  0.36837600  0.11797500  1
  P  P9  1  0.00000000  0.63162400  0.88202500  1
  P  P10  1  0.50000000  0.13162400  0.61797500  1
  P  P11  1  0.50000000  0.86837600  0.38202500  1
  O  O0  1  0.00000000  0.06066100  0.32384500  1
  O  O1  1  0.00000000  0.93933900  0.67615500  1
  O  O2  1  0.50000000  0.43933900  0.82384500  1
  O  O3  1  0.50000000  0.56066100  0.17615500  1
  O  O4  1  0.00000000  0.81293200  0.11010500  1
  O  O5  1  0.00000000  0.18706800  0.88989500  1
  O  O6  1  0.50000000  0.68706800  0.61010500  1
  O  O7  1  0.50000000  0.31293200  0.38989500  1
  O  O8  1  0.00000000  0.00000000  0.00000000  1
  O  O9  1  0.50000000  0.50000000  0.50000000  1
  O  O10  1  0.00000000  0.14202400  0.73053600  1
  O  O11  1  0.00000000  0.85797600  0.26946400  1
  O  O12  1  0.50000000  0.35797600  0.23053600  1
  O  O13  1  0.50000000  0.64202400  0.76946400  1
  O  O14  1  0.00000000  0.00000000  0.50000000  1
  O  O15  1  0.50000000  0.50000000  0.00000000  1
  O  O16  1  0.31193500  0.20366000  0.27835600  1
  O  O17  1  0.68806500  0.79634000  0.72164400  1
  O  O18  1  0.31193500  0.79634000  0.72164400  1
  O  O19  1  0.18806500  0.29634000  0.77835600  1
  O  O20  1  0.68806500  0.20366000  0.27835600  1
  O  O21  1  0.81193500  0.70366000  0.22164400  1
  O  O22  1  0.18806500  0.70366000  0.22164400  1
  O  O23  1  0.81193500  0.29634000  0.77835600  1
  O  O24  1  0.00000000  0.13479500  0.15054600  1
  O  O25  1  0.00000000  0.86520500  0.84945400  1
  O  O26  1  0.50000000  0.36520500  0.65054600  1
  O  O27  1  0.50000000  0.63479500  0.34945400  1
  O  O28  1  0.19036000  0.43576100  0.11235000  1
  O  O29  1  0.80964000  0.56423900  0.88765000  1
  O  O30  1  0.19036000  0.56423900  0.88765000  1
  O  O31  1  0.30964000  0.06423900  0.61235000  1
  O  O32  1  0.80964000  0.43576100  0.11235000  1
  O  O33  1  0.69036000  0.93576100  0.38765000  1
  O  O34  1  0.30964000  0.93576100  0.38765000  1
  O  O35  1  0.69036000  0.06423900  0.61235000  1
  O  O36  1  0.00000000  0.19780100  0.55102900  1
  O  O37  1  0.00000000  0.80219900  0.44897100  1
  O  O38  1  0.50000000  0.30219900  0.05102900  1
  O  O39  1  0.50000000  0.69780100  0.94897100  1
  O  O40  1  0.31284700  0.14561600  0.01375000  1
  O  O41  1  0.68715300  0.85438400  0.98625000  1
  O  O42  1  0.31284700  0.85438400  0.98625000  1
  O  O43  1  0.18715300  0.35438400  0.51375000  1
  O  O44  1  0.68715300  0.14561600  0.01375000  1
  O  O45  1  0.81284700  0.64561600  0.48625000  1
  O  O46  1  0.18715300  0.64561600  0.48625000  1
  O  O47  1  0.81284700  0.35438400  0.51375000  1
  O  O48  1  0.00000000  0.26368400  0.39263700  1
  O  O49  1  0.00000000  0.73631600  0.60736300  1
  O  O50  1  0.50000000  0.23631600  0.89263700  1
  O  O51  1  0.50000000  0.76368400  0.10736300  1
  O  O52  1  0.00000000  0.32446500  0.21236900  1
  O  O53  1  0.00000000  0.67553500  0.78763100  1
  O  O54  1  0.50000000  0.17553500  0.71236900  1
  O  O55  1  0.50000000  0.82446500  0.28763100  1
  O  O56  1  0.00000000  0.29323900  0.04308600  1
  O  O57  1  0.00000000  0.70676100  0.95691400  1
  O  O58  1  0.50000000  0.20676100  0.54308600  1
  O  O59  1  0.50000000  0.79323900  0.45691400  1
loop_
_geom_bond_atom_site_label_1
_geom_bond_atom_site_label_2
_geom_bond_distance
_geom_bond_site_symmetry_2
Cs0 O52 3.087015 1_555
Cs0 O46 3.256425 1_555
Cs0 O45 3.256425 1_455
Cs0 O22 3.348823 1_555
Cs0 O21 3.348823 1_455
Cs0 O48 3.507979 1_555
Cs0 O32 3.634274 1_455
Cs0 O28 3.634274 1_555
Cs0 O27 3.701226 1_555
Cs0 O27 3.701226 1_455
Cs0 O43 3.712794 1_555
Cs0 O47 3.712794 1_455
Cs1 O53 3.087015 1_555
Cs1 O43 3.256425 1_555
Cs1 O47 3.256425 1_455
Cs1 O19 3.348823 1_555
Cs1 O23 3.348823 1_455
Cs1 O49 3.507979 1_555
Cs1 O30 3.634274 1_555
Cs1 O29 3.634274 1_455
Cs1 O26 3.701226 1_555
Cs1 O26 3.701226 1_455
Cs1 O46 3.712794 1_555
Cs1 O45 3.712794 1_455
Cs2 O54 3.087015 1_565
Cs2 O41 3.256425 1_555
Cs2 O42 3.256425 1_555
Cs2 O17 3.348823 1_555
Cs2 O18 3.348823 1_555
Cs2 O50 3.507979 1_565
Cs2 O35 3.634274 1_565
Cs2 O31 3.634274 1_565
Cs2 O25 3.701226 1_655
Cs2 O25 3.701226 1_555
Cs2 O40 3.712794 1_566
Cs2 O44 3.712794 1_566
Cs3 O55 3.087015 1_545
Cs3 O44 3.256425 1_555
Cs3 O40 3.256425 1_555
Cs3 O20 3.348823 1_555
Cs3 O16 3.348823 1_555
Cs3 O51 3.507979 1_545
Cs3 O34 3.634274 1_545
Cs3 O33 3.634274 1_545
Cs3 O24 3.701226 1_555
Cs3 O24 3.701226 1_655
Cs3 O41 3.712794 1_544
Cs3 O42 3.712794 1_544
Nb0 O14 1.895693 1_555
Nb0 O1 1.935389 1_545
Nb0 O35 2.020921 1_455
Nb0 O31 2.020921 1_555
Nb0 O36 2.083266 1_555
Nb0 O10 2.091240 1_555
Nb1 O14 1.895693 1_565
Nb1 O0 1.935389 1_565
Nb1 O33 2.020921 1_455
Nb1 O34 2.020921 1_555
Nb1 O37 2.083266 1_555
Nb1 O11 2.091240 1_555
Nb2 O15 1.895693 1_555
Nb2 O3 1.935389 1_555
Nb2 O28 2.020921 1_555
Nb2 O32 2.020921 1_555
Nb2 O38 2.083266 1_555
Nb2 O12 2.091240 1_555
Nb3 O15 1.895693 1_556
Nb3 O2 1.935389 1_555
Nb3 O29 2.020921 1_555
Nb3 O30 2.020921 1_555
Nb3 O39 2.083266 1_555
Nb3 O13 2.091240 1_555
Nb4 O0 1.911462 1_555
Nb4 O24 1.979537 1_555
Nb4 O16 2.048627 1_555
Nb4 O20 2.048627 1_455
Nb4 O52 2.080252 1_555
Nb4 O48 2.084528 1_555
Nb5 O1 1.911462 1_555
Nb5 O25 1.979537 1_555
Nb5 O18 2.048627 1_555
Nb5 O17 2.048627 1_455
Nb5 O53 2.080252 1_555
Nb5 O49 2.084528 1_555
Nb6 O2 1.911462 1_555
Nb6 O26 1.979537 1_555
Nb6 O23 2.048627 1_555
Nb6 O19 2.048627 1_555
Nb6 O54 2.080252 1_555
Nb6 O50 2.084528 1_555
Nb7 O3 1.911462 1_555
Nb7 O27 1.979537 1_555
Nb7 O21 2.048627 1_555
Nb7 O22 2.048627 1_555
Nb7 O55 2.080252 1_555
Nb7 O51 2.084528 1_555
Nb8 O24 1.933558 1_555
Nb8 O8 1.958886 1_555
Nb8 O44 2.046810 1_455
Nb8 O40 2.046810 1_555
Nb8 O5 2.094580 1_554
Nb8 O56 2.117850 1_555
Nb9 O25 1.933558 1_555
Nb9 O8 1.958886 1_566
Nb9 O41 2.046810 1_455
Nb9 O42 2.046810 1_555
Nb9 O4 2.094580 1_556
Nb9 O57 2.117850 1_555
Nb10 O26 1.933558 1_555
Nb10 O9 1.958886 1_555
Nb10 O47 2.046810 1_555
Nb10 O43 2.046810 1_555
Nb10 O7 2.094580 1_555
Nb10 O58 2.117850 1_555
Nb11 O27 1.933558 1_555
Nb11 O9 1.958886 1_555
Nb11 O45 2.046810 1_555
Nb11 O46 2.046810 1_555
Nb11 O6 2.094580 1_555
Nb11 O59 2.117850 1_555
O4 P0 1.533851 1_555
O5 P1 1.533851 1_555
O6 P2 1.533851 1_555
O7 P3 1.533851 1_555
O10 P1 1.539412 1_555
O11 P0 1.539412 1_555
O12 P3 1.539412 1_555
O13 P2 1.539412 1_555
O16 P3 1.560260 1_555
O17 P2 1.560260 1_555
O18 P2 1.560260 1_555
O19 P1 1.560260 1_555
O20 P3 1.560260 1_555
O21 P0 1.560260 1_655
O22 P0 1.560260 1_555
O23 P1 1.560260 1_655
O28 P8 1.551004 1_555
O29 P9 1.551004 1_655
O30 P9 1.551004 1_555
O31 P10 1.551004 1_555
O32 P8 1.551004 1_655
O33 P11 1.551004 1_555
O34 P11 1.551004 1_555
O35 P10 1.551004 1_555
O36 P4 1.523687 1_555
O37 P5 1.523687 1_555
O38 P6 1.523687 1_554
O39 P7 1.523687 1_556
O40 P6 1.560526 1_554
O41 P7 1.560526 1_556
O42 P7 1.560526 1_556
O43 P4 1.560526 1_555
O44 P6 1.560526 1_554
O45 P5 1.560526 1_655
O46 P5 1.560526 1_555
O47 P4 1.560526 1_655
O48 P4 1.530817 1_555
O49 P5 1.530817 1_555
O50 P6 1.530817 1_555
O51 P7 1.530817 1_555
O52 P8 1.544603 1_555
O53 P9 1.544603 1_555
O54 P10 1.544603 1_555
O55 P11 1.544603 1_555
O56 P8 1.528541 1_555
O57 P9 1.528541 1_555
O58 P10 1.528541 1_555
O59 P11 1.528541 1_555
