# generated using pymatgen
data_LiGa3
_symmetry_space_group_name_H-M   'P 1'
_cell_length_a   5.61735518
_cell_length_b   5.61735518
_cell_length_c   4.75247352
_cell_angle_alpha   90.00000000
_cell_angle_beta   90.00000000
_cell_angle_gamma   119.99998987
_symmetry_Int_Tables_number   1
_chemical_formula_structural   LiGa3
_chemical_formula_sum   'Li2 Ga6'
_cell_volume   129.87158813
_cell_formula_units_Z   2
loop_
 _symmetry_equiv_pos_site_id
 _symmetry_equiv_pos_as_xyz
  1  'x, y, z'
loop_
 _atom_site_type_symbol
 _atom_site_label
 _atom_site_symmetry_multiplicity
 _atom_site_fract_x
 _atom_site_fract_y
 _atom_site_fract_z
 _atom_site_occupancy
  Li  Li0  1  0.66666700  0.33333300  0.25000000  1
  Li  Li1  1  0.33333300  0.66666700  0.75000000  1
  Ga  Ga0  1  0.83316936  0.16683064  0.75000000  1
  Ga  Ga1  1  0.33366028  0.16683064  0.75000000  1
  Ga  Ga2  1  0.83316936  0.66633972  0.75000000  1
  Ga  Ga3  1  0.16683064  0.83316936  0.25000000  1
  Ga  Ga4  1  0.66633972  0.83316936  0.25000000  1
  Ga  Ga5  1  0.16683064  0.33366028  0.25000000  1
loop_
_geom_bond_atom_site_label_1
_geom_bond_atom_site_label_2
_geom_bond_distance
_geom_bond_site_symmetry_2
Ga0 Li1 2.808678 1_655
Ga0 Li1 2.808678 1_545
Ga0 Li0 2.875913 1_555
Ga0 Li0 2.875913 1_556
Ga1 Li1 2.808678 1_555
Ga1 Li1 2.808678 1_545
Ga1 Li0 2.875919 1_556
Ga1 Li0 2.875919 1_555
Ga2 Li1 2.808678 1_555
Ga2 Li1 2.808678 1_655
Ga2 Li0 2.875919 1_556
Ga2 Li0 2.875919 1_555
Ga3 Li0 2.808678 1_455
Ga3 Li0 2.808678 1_565
Ga3 Li1 2.875913 1_554
Ga3 Li1 2.875913 1_555
Ga4 Li0 2.808678 1_555
Ga4 Li0 2.808678 1_565
Ga4 Li1 2.875919 1_554
Ga4 Li1 2.875919 1_555
Ga5 Li0 2.808678 1_555
Ga5 Li0 2.808678 1_455
Ga5 Li1 2.875919 1_555
Ga5 Li1 2.875919 1_554
