# generated using pymatgen
data_NbO2
_symmetry_space_group_name_H-M   'P 1'
_cell_length_a   11.30913925
_cell_length_b   11.24296082
_cell_length_c   11.59416102
_cell_angle_alpha   87.95558777
_cell_angle_beta   92.59621534
_cell_angle_gamma   87.55089755
_symmetry_Int_Tables_number   1
_chemical_formula_structural   NbO2
_chemical_formula_sum   'Nb34 O68'
_cell_volume   1470.27349484
_cell_formula_units_Z   34
loop_
 _symmetry_equiv_pos_site_id
 _symmetry_equiv_pos_as_xyz
  1  'x, y, z'
loop_
 _atom_site_type_symbol
 _atom_site_label
 _atom_site_symmetry_multiplicity
 _atom_site_fract_x
 _atom_site_fract_y
 _atom_site_fract_z
 _atom_site_occupancy
  Nb  Nb0  1  0.49784093  0.70007001  0.35736532  1
  Nb  Nb1  1  0.86359785  0.08050557  0.60047225  1
  Nb  Nb2  1  0.99712087  0.65908391  0.16759343  1
  Nb  Nb3  1  0.27753354  0.72738097  0.04405925  1
  Nb  Nb4  1  0.55417604  0.65107641  0.08702341  1
  Nb  Nb5  1  0.41915497  0.16643927  0.25291547  1
  Nb  Nb6  1  0.79336608  0.60694300  0.84967849  1
  Nb  Nb7  1  0.23729219  0.41752771  0.11881591  1
  Nb  Nb8  1  0.18592899  0.96984993  0.05114645  1
  Nb  Nb9  1  0.98720876  0.19376655  0.39313076  1
  Nb  Nb10  1  0.16059731  0.13087358  0.79500421  1
  Nb  Nb11  1  0.43122066  0.88301410  0.17333701  1
  Nb  Nb12  1  0.37226392  0.46361823  0.42538695  1
  Nb  Nb13  1  0.54581731  0.39800171  0.24891387  1
  Nb  Nb14  1  0.42462292  0.03433993  0.88147404  1
  Nb  Nb15  1  0.70423631  0.32620706  0.54375630  1
  Nb  Nb16  1  0.69521239  0.85898582  0.01143966  1
  Nb  Nb17  1  0.33169038  0.92491789  0.36676963  1
  Nb  Nb18  1  0.66792150  0.14880540  0.16340770  1
  Nb  Nb19  1  0.40663039  0.24334149  0.72226081  1
  Nb  Nb20  1  0.93642325  0.29926713  0.79106334  1
  Nb  Nb21  1  0.17992167  0.67863663  0.45087141  1
  Nb  Nb22  1  0.20131545  0.84425551  0.74149240  1
  Nb  Nb23  1  0.91181898  0.98483306  0.20364605  1
  Nb  Nb24  1  0.15557356  0.42566182  0.59603742  1
  Nb  Nb25  1  0.42009967  0.78773664  0.65484632  1
  Nb  Nb26  1  0.70078629  0.37044675  0.99539963  1
  Nb  Nb27  1  0.93531699  0.87690559  0.82087173  1
  Nb  Nb28  1  0.89814883  0.38043975  0.15916995  1
  Nb  Nb29  1  0.76034633  0.75489150  0.55856792  1
  Nb  Nb30  1  0.53260448  0.05361933  0.57915555  1
  Nb  Nb31  1  0.57960454  0.48883082  0.67592725  1
  Nb  Nb32  1  0.33607116  0.54831690  0.83565967  1
  Nb  Nb33  1  0.96358956  0.50341177  0.45058814  1
  O  O0  1  0.22511451  0.26995903  0.72273976  1
  O  O1  1  0.38274165  0.14062553  0.58768901  1
  O  O2  1  0.92429269  0.61048314  0.94243511  1
  O  O3  1  0.07694912  0.59014404  0.55751403  1
  O  O4  1  0.44989714  0.05307938  0.40283298  1
  O  O5  1  0.03353250  0.81026460  0.70489846  1
  O  O6  1  0.48257581  0.54475566  0.53174516  1
  O  O7  1  0.43590698  0.20734855  0.89044879  1
  O  O8  1  0.05361704  0.61822283  0.32702100  1
  O  O9  1  0.84147747  0.21144436  0.46016871  1
  O  O10  1  0.01269929  0.40560782  0.70020552  1
  O  O11  1  0.85146794  0.39360640  0.90202161  1
  O  O12  1  0.15756652  0.62292309  0.10542447  1
  O  O13  1  0.05770718  0.23211481  0.89810640  1
  O  O14  1  0.58043315  0.58563517  0.24990702  1
  O  O15  1  0.81226716  0.92347178  0.55301458  1
  O  O16  1  0.64352497  0.75268757  0.43301310  1
  O  O17  1  0.06975861  0.40758795  0.13806410  1
  O  O18  1  0.67820903  0.20550867  0.99599761  1
  O  O19  1  0.83911445  0.00212565  0.76125077  1
  O  O20  1  0.18477511  0.84588094  0.40025881  1
  O  O21  1  0.30179267  0.26311361  0.14794393  1
  O  O22  1  0.24724185  0.83533169  0.17179507  1
  O  O23  1  0.92441971  0.81431633  0.20290099  1
  O  O24  1  0.25557132  0.08947794  0.94048683  1
  O  O25  1  0.18764561  0.00767929  0.68361715  1
  O  O26  1  0.45675480  0.65086879  0.75119252  1
  O  O27  1  0.07090910  0.32598984  0.46099145  1
  O  O28  1  0.41937432  0.63487173  0.98092398  1
  O  O29  1  0.60327646  0.81507971  0.15258570  1
  O  O30  1  0.94250791  0.22496155  0.22718875  1
  O  O31  1  0.87199753  0.67273192  0.48251360  1
  O  O32  1  0.87209238  0.55592380  0.18100983  1
  O  O33  1  0.24864692  0.74454565  0.60561948  1
  O  O34  1  0.77191572  0.07535420  0.27984866  1
  O  O35  1  0.63137936  0.37691547  0.40099202  1
  O  O36  1  0.53048935  0.09863338  0.74490899  1
  O  O37  1  0.29686952  0.03412101  0.20975808  1
  O  O38  1  0.51870499  0.05517116  0.15604521  1
  O  O39  1  0.01956048  0.03160777  0.31746031  1
  O  O40  1  0.83637094  0.43761623  0.52075032  1
  O  O41  1  0.56670425  0.89071745  0.62440939  1
  O  O42  1  0.23663123  0.71647588  0.86965818  1
  O  O43  1  0.68739870  0.67656504  0.96979266  1
  O  O44  1  0.68836654  0.62229953  0.65241027  1
  O  O45  1  0.00677664  0.06972944  0.52198309  1
  O  O46  1  0.42071449  0.81462463  0.47831141  1
  O  O47  1  0.75680731  0.99794165  0.08921454  1
  O  O48  1  0.43991860  0.42114559  0.76603755  1
  O  O49  1  0.42830112  0.30363288  0.35573598  1
  O  O50  1  0.86268246  0.84002103  0.96245078  1
  O  O51  1  0.71444614  0.32350716  0.18778335  1
  O  O52  1  0.35687397  0.89931737  0.99884681  1
  O  O53  1  0.32922918  0.64099755  0.37283590  1
  O  O54  1  0.66139632  0.48012715  0.83878066  1
  O  O55  1  0.09856361  0.93682569  0.88383541  1
  O  O56  1  0.66968746  0.13742296  0.55180600  1
  O  O57  1  0.99543026  0.14296490  0.71792841  1
  O  O58  1  0.27602377  0.45137881  0.96405103  1
  O  O59  1  0.82443400  0.74915881  0.75197147  1
  O  O60  1  0.31681111  0.36707418  0.55292456  1
  O  O61  1  0.35395577  0.47383392  0.23065971  1
  O  O62  1  0.02487882  0.01193879  0.08690480  1
  O  O63  1  0.58273777  0.93400844  0.91509509  1
  O  O64  1  0.80405010  0.24599703  0.68602822  1
  O  O65  1  0.38473619  0.90857320  0.76850224  1
  O  O66  1  0.22062255  0.51936990  0.72847980  1
  O  O67  1  0.57541631  0.46702026  0.06911010  1
loop_
_geom_bond_atom_site_label_1
_geom_bond_atom_site_label_2
_geom_bond_distance
_geom_bond_site_symmetry_2
Nb0 O16 1.955271 1_555
Nb0 O14 2.048677 1_555
Nb0 O53 2.059145 1_555
Nb0 O46 2.128280 1_555
Nb0 O6 2.640476 1_555
Nb1 O45 1.894545 1_655
Nb1 O15 1.970986 1_545
Nb1 O19 2.068446 1_555
Nb1 O57 2.131719 1_555
Nb1 O9 2.153308 1_555
Nb1 O64 2.232594 1_555
Nb1 O56 2.297640 1_555
Nb2 O32 1.875072 1_555
Nb2 O8 1.960433 1_655
Nb2 O23 1.961727 1_555
Nb2 O12 2.013356 1_655
Nb3 O12 1.972349 1_555
Nb3 O22 1.980503 1_555
Nb3 O28 2.051542 1_554
Nb3 O42 2.062868 1_554
Nb3 O52 2.221533 1_554
Nb4 O28 1.933993 1_554
Nb4 O14 2.006820 1_555
Nb4 O67 2.091815 1_555
Nb4 O43 2.096210 1_554
Nb4 O29 2.106021 1_555
Nb5 O49 1.986125 1_555
Nb5 O21 2.014997 1_555
Nb5 O38 2.046531 1_555
Nb5 O4 2.125036 1_555
Nb5 O37 2.131256 1_555
Nb6 O2 1.792862 1_555
Nb6 O59 1.979434 1_555
Nb6 O43 2.033979 1_555
Nb6 O54 2.110429 1_555
Nb6 O11 2.505663 1_555
Nb6 O44 2.525711 1_555
Nb7 O21 1.867541 1_555
Nb7 O58 1.895573 1_554
Nb7 O17 1.925267 1_555
Nb7 O61 1.948833 1_555
Nb7 O12 2.439975 1_555
Nb8 O62 1.929204 1_565
Nb8 O24 2.033302 1_564
Nb8 O22 2.096750 1_555
Nb8 O52 2.177942 1_554
Nb8 O55 2.187717 1_554
Nb8 O37 2.332670 1_565
Nb9 O9 1.859815 1_555
Nb9 O27 1.964997 1_655
Nb9 O30 1.982113 1_555
Nb9 O45 2.005143 1_655
Nb9 O39 2.076928 1_655
Nb10 O0 1.933656 1_555
Nb10 O25 1.951154 1_555
Nb10 O24 1.988090 1_555
Nb10 O57 2.030888 1_455
Nb10 O13 2.046562 1_555
Nb10 O55 2.519634 1_545
Nb11 O29 2.087081 1_555
Nb11 O52 2.153976 1_554
Nb11 O22 2.170121 1_555
Nb11 O38 2.217965 1_565
Nb11 O37 2.293862 1_565
Nb12 O60 1.945678 1_555
Nb12 O6 1.986772 1_555
Nb12 O49 2.083669 1_555
Nb12 O53 2.094921 1_555
Nb12 O61 2.256188 1_555
Nb13 O35 1.974199 1_555
Nb13 O49 2.145165 1_555
Nb13 O14 2.162294 1_555
Nb13 O51 2.206566 1_555
Nb13 O67 2.242777 1_555
Nb13 O61 2.295014 1_555
Nb14 O7 1.960891 1_555
Nb14 O65 2.012855 1_545
Nb14 O63 2.086848 1_545
Nb14 O24 2.134243 1_555
Nb14 O36 2.151046 1_555
Nb14 O52 2.188578 1_545
Nb15 O35 1.874216 1_555
Nb15 O40 2.011302 1_555
Nb15 O64 2.108686 1_555
Nb15 O56 2.174026 1_555
Nb15 O9 2.251066 1_555
Nb16 O63 1.813709 1_554
Nb16 O47 1.968673 1_555
Nb16 O50 2.006657 1_554
Nb16 O29 2.035458 1_555
Nb16 O43 2.128295 1_554
Nb17 O20 1.964924 1_555
Nb17 O46 1.970954 1_555
Nb17 O4 2.048198 1_565
Nb17 O37 2.170408 1_565
Nb18 O34 1.892443 1_555
Nb18 O38 2.026918 1_555
Nb18 O18 2.031224 1_554
Nb18 O51 2.080651 1_555
Nb18 O47 2.159651 1_545
Nb19 O7 1.987368 1_555
Nb19 O1 1.989479 1_555
Nb19 O0 2.062081 1_555
Nb19 O36 2.102239 1_555
Nb19 O48 2.124832 1_555
Nb19 O60 2.515018 1_555
Nb20 O10 1.834074 1_655
Nb20 O13 1.918864 1_655
Nb20 O11 1.955838 1_555
Nb20 O64 2.011545 1_555
Nb20 O57 2.075999 1_555
Nb21 O20 1.953454 1_555
Nb21 O53 1.988335 1_555
Nb21 O3 2.004109 1_555
Nb21 O33 2.095229 1_555
Nb21 O8 2.128447 1_555
Nb22 O25 1.930917 1_565
Nb22 O5 1.981690 1_555
Nb22 O33 2.043532 1_555
Nb22 O42 2.043624 1_555
Nb22 O65 2.238151 1_555
Nb22 O55 2.313026 1_555
Nb23 O39 1.860407 1_665
Nb23 O23 1.916676 1_555
Nb23 O62 1.928828 1_665
Nb23 O34 2.091132 1_565
Nb23 O47 2.146717 1_555
Nb24 O60 2.003036 1_555
Nb24 O66 2.021986 1_555
Nb24 O3 2.043153 1_555
Nb24 O10 2.075749 1_555
Nb24 O27 2.169138 1_555
Nb24 O0 2.331339 1_555
Nb25 O26 1.889033 1_555
Nb25 O65 1.967517 1_555
Nb25 O46 2.058650 1_555
Nb25 O33 2.078748 1_555
Nb25 O41 2.098055 1_555
Nb26 O18 1.882477 1_555
Nb26 O67 1.990956 1_556
Nb26 O11 2.080563 1_555
Nb26 O54 2.176334 1_555
Nb26 O51 2.270563 1_556
Nb27 O19 1.837134 1_565
Nb27 O50 1.908904 1_555
Nb27 O5 1.933684 1_655
Nb27 O55 2.101053 1_655
Nb27 O59 2.102021 1_555
Nb28 O30 1.928749 1_555
Nb28 O17 2.001976 1_655
Nb28 O32 2.009040 1_555
Nb28 O51 2.235352 1_555
Nb29 O31 1.812308 1_555
Nb29 O16 1.922566 1_555
Nb29 O15 2.007754 1_555
Nb29 O44 2.033944 1_555
Nb29 O59 2.322942 1_555
Nb29 O41 2.767548 1_555
Nb30 O56 1.881421 1_555
Nb30 O41 1.905555 1_545
Nb30 O1 1.928600 1_555
Nb30 O36 2.005600 1_555
Nb30 O4 2.209586 1_555
Nb31 O44 1.999485 1_555
Nb31 O6 2.023308 1_555
Nb31 O54 2.061832 1_555
Nb31 O48 2.088463 1_555
Nb31 O26 2.453074 1_555
Nb32 O66 1.809134 1_555
Nb32 O58 1.975843 1_555
Nb32 O48 2.024811 1_555
Nb32 O26 2.079959 1_555
Nb32 O28 2.173166 1_555
Nb32 O42 2.214965 1_555
Nb33 O40 1.852822 1_555
Nb33 O3 2.044603 1_655
Nb33 O31 2.179531 1_555
Nb33 O8 2.206315 1_655
Nb33 O27 2.286761 1_655
