# generated using pymatgen
data_BaV4O7
_symmetry_space_group_name_H-M   'P 1'
_cell_length_a   6.58473853
_cell_length_b   6.58473853
_cell_length_c   10.82968300
_cell_angle_alpha   90.00000000
_cell_angle_beta   90.00000000
_cell_angle_gamma   120.00000535
_symmetry_Int_Tables_number   1
_chemical_formula_structural   BaV4O7
_chemical_formula_sum   'Ba2 V8 O14'
_cell_volume   406.65247692
_cell_formula_units_Z   2
loop_
 _symmetry_equiv_pos_site_id
 _symmetry_equiv_pos_as_xyz
  1  'x, y, z'
loop_
 _atom_site_type_symbol
 _atom_site_label
 _atom_site_symmetry_multiplicity
 _atom_site_fract_x
 _atom_site_fract_y
 _atom_site_fract_z
 _atom_site_occupancy
  Ba  Ba0  1  0.66666700  0.33333300  0.53070000  1
  Ba  Ba1  1  0.33333300  0.66666700  0.03070000  1
  V  V0  1  0.83014000  0.16986000  0.18964900  1
  V  V1  1  0.66028000  0.83014000  0.68964900  1
  V  V2  1  0.16986000  0.33972000  0.68964900  1
  V  V3  1  0.83014000  0.66028000  0.18964900  1
  V  V4  1  0.33972000  0.16986000  0.18964900  1
  V  V5  1  0.16986000  0.83014000  0.68964900  1
  V  V6  1  0.00000000  0.00000000  0.44529800  1
  V  V7  1  0.00000000  0.00000000  0.94529800  1
  O  O0  1  0.84953400  0.15046600  0.01643500  1
  O  O1  1  0.69906800  0.84953400  0.51643500  1
  O  O2  1  0.15046600  0.30093200  0.51643500  1
  O  O3  1  0.84953400  0.69906800  0.01643500  1
  O  O4  1  0.30093200  0.15046600  0.01643500  1
  O  O5  1  0.15046600  0.84953400  0.51643500  1
  O  O6  1  0.00000000  0.00000000  0.75817700  1
  O  O7  1  0.00000000  0.00000000  0.25817700  1
  O  O8  1  0.50839900  0.49160100  0.23387600  1
  O  O9  1  0.01679800  0.50839900  0.73387600  1
  O  O10  1  0.49160100  0.98320200  0.73387600  1
  O  O11  1  0.50839900  0.01679800  0.23387600  1
  O  O12  1  0.49160100  0.50839900  0.73387600  1
  O  O13  1  0.98320200  0.49160100  0.23387600  1
loop_
_geom_bond_atom_site_label_1
_geom_bond_atom_site_label_2
_geom_bond_distance
_geom_bond_site_symmetry_2
Ba0 O10 2.971200 1_545
Ba0 O9 2.971200 1_655
Ba0 O12 2.971204 1_555
Ba0 O2 3.301163 1_655
Ba0 O1 3.301163 1_545
Ba0 O5 3.301167 1_655
Ba0 O5 3.301167 1_545
Ba0 O1 3.301170 1_555
Ba0 O2 3.301170 1_555
Ba1 O13 2.971200 1_455
Ba1 O11 2.971200 1_565
Ba1 O8 2.971204 1_555
Ba1 O3 3.301163 1_455
Ba1 O4 3.301163 1_565
Ba1 O0 3.301167 1_455
Ba1 O0 3.301167 1_565
Ba1 O4 3.301170 1_555
Ba1 O3 3.301170 1_555
O0 V7 1.881072 1_654
O0 V0 1.888848 1_555
O1 V6 1.881072 1_665
O1 V1 1.888848 1_555
O2 V6 1.881072 1_555
O2 V2 1.888848 1_555
O3 V7 1.881072 1_664
O3 V3 1.888848 1_555
O4 V7 1.881072 1_554
O4 V4 1.888848 1_555
O5 V6 1.881072 1_565
O5 V5 1.888848 1_555
O6 V7 2.026461 1_555
O6 V2 2.074556 1_555
O6 V1 2.074556 1_445
O6 V5 2.074556 1_545
O7 V6 2.026461 1_555
O7 V3 2.074556 1_445
O7 V4 2.074556 1_555
O7 V0 2.074556 1_455
O8 V3 1.896928 1_555
O8 V4 1.896928 1_555
O9 V5 1.896928 1_555
O9 V2 1.896929 1_555
O10 V5 1.896928 1_555
O10 V1 1.896929 1_555
O11 V0 1.896928 1_555
O11 V4 1.896929 1_555
O12 V1 1.896928 1_555
O12 V2 1.896928 1_555
O13 V0 1.896928 1_555
O13 V3 1.896929 1_555
