# generated using pymatgen
data_Nd3Si3Ni
_symmetry_space_group_name_H-M   'P 1'
_cell_length_a   9.47619393
_cell_length_b   9.47619393
_cell_length_c   9.47619393
_cell_angle_alpha   155.45007675
_cell_angle_beta   153.58725775
_cell_angle_gamma   36.36922256
_symmetry_Int_Tables_number   1
_chemical_formula_structural   Nd3Si3Ni
_chemical_formula_sum   'Nd3 Si3 Ni1'
_cell_volume   157.06871197
_cell_formula_units_Z   1
loop_
 _symmetry_equiv_pos_site_id
 _symmetry_equiv_pos_as_xyz
  1  'x, y, z'
loop_
 _atom_site_type_symbol
 _atom_site_label
 _atom_site_symmetry_multiplicity
 _atom_site_fract_x
 _atom_site_fract_y
 _atom_site_fract_z
 _atom_site_occupancy
  Nd  Nd0  1  0.81475300  0.31475300  0.50000000  1
  Nd  Nd1  1  0.18213000  0.68213000  0.50000000  1
  Nd  Nd2  1  0.00065700  0.00065700  0.00000000  1
  Si  Si0  1  0.63591700  0.13591700  0.50000000  1
  Si  Si1  1  0.35918900  0.85918900  0.50000000  1
  Si  Si2  1  0.44061000  0.44061000  0.00000000  1
  Ni  Ni0  1  0.56674500  0.56674500  0.00000000  1
loop_
_geom_bond_atom_site_label_1
_geom_bond_atom_site_label_2
_geom_bond_distance
_geom_bond_site_symmetry_2
Nd0 Si1 3.063652 1_656
Nd0 Si1 3.063652 1_544
Nd0 Si1 3.063652 1_645
Nd0 Si1 3.063652 1_555
Nd0 Si2 3.134066 1_656
Nd0 Si2 3.134066 1_555
Nd0 Si0 3.220090 1_555
Nd1 Ni0 3.000554 1_455
Nd1 Ni0 3.000554 1_556
Nd1 Si0 3.072163 1_465
Nd1 Si0 3.072163 1_454
Nd1 Si0 3.072163 1_566
Nd1 Si0 3.072163 1_555
Nd1 Si1 3.188094 1_555
Nd2 Si2 3.148774 1_545
Nd2 Si2 3.148774 1_444
Nd2 Si2 3.148774 1_556
Nd2 Si2 3.148774 1_455
Nd2 Ni0 3.187761 1_455
Nd2 Ni0 3.187761 1_556
Nd2 Ni0 3.187761 1_444
Nd2 Ni0 3.187761 1_545
Nd2 Si0 3.258588 1_454
Nd2 Si0 3.258588 1_555
Nd2 Si1 3.342958 1_545
Nd2 Si1 3.342958 1_444
Si1 Si2 2.491628 1_566
Si1 Si2 2.491628 1_555
Ni0 Si2 2.271165 1_555
Ni0 Si0 2.368579 1_565
Ni0 Si0 2.368579 1_554
