# generated using pymatgen
data_Th7S12
_symmetry_space_group_name_H-M   'P 1'
_cell_length_a   4.00955719
_cell_length_b   11.15120556
_cell_length_c   11.15120201
_cell_angle_alpha   120.00002451
_cell_angle_beta   90.00000000
_cell_angle_gamma   90.00000000
_symmetry_Int_Tables_number   1
_chemical_formula_structural   Th7S12
_chemical_formula_sum   'Th7 S12'
_cell_volume   431.78787380
_cell_formula_units_Z   1
loop_
 _symmetry_equiv_pos_site_id
 _symmetry_equiv_pos_as_xyz
  1  'x, y, z'
loop_
 _atom_site_type_symbol
 _atom_site_label
 _atom_site_symmetry_multiplicity
 _atom_site_fract_x
 _atom_site_fract_y
 _atom_site_fract_z
 _atom_site_occupancy
  Th  Th0  1  0.75000000  0.00000026  0.00000044  1
  Th  Th1  1  0.75000000  0.43322676  0.28212149  1
  Th  Th2  1  0.75000000  0.71787825  0.15110526  1
  Th  Th3  1  0.75000000  0.84889487  0.56677306  1
  Th  Th4  1  0.25000000  0.55949125  0.71225988  1
  Th  Th5  1  0.25000000  0.28774022  0.84723083  1
  Th  Th6  1  0.25000000  0.15276943  0.44050911  1
  S  S0  1  0.75000000  0.13908987  0.62723515  1
  S  S1  1  0.75000000  0.37276479  0.51185417  1
  S  S2  1  0.75000000  0.48814585  0.86091032  1
  S  S3  1  0.25000000  0.85995374  0.38322822  1
  S  S4  1  0.25000000  0.61677201  0.47672546  1
  S  S5  1  0.25000000  0.52327448  0.14004620  1
  S  S6  1  0.75000000  0.24851932  0.99496828  1
  S  S7  1  0.75000000  0.00503139  0.25355112  1
  S  S8  1  0.75000000  0.74644932  0.75148043  1
  S  S9  1  0.25000000  0.79067760  0.00531398  1
  S  S10  1  0.25000000  0.99468634  0.78536346  1
  S  S11  1  0.25000000  0.21463626  0.20932214  1
loop_
_geom_bond_atom_site_label_1
_geom_bond_atom_site_label_2
_geom_bond_distance
_geom_bond_site_symmetry_2
S0 Th6 2.948843 1_555
S0 Th6 2.948843 1_655
S0 Th5 2.952730 1_555
S0 Th5 2.952730 1_655
S0 Th3 2.957131 1_545
S1 Th4 2.948845 1_655
S1 Th4 2.948845 1_555
S1 Th6 2.952729 1_655
S1 Th6 2.952729 1_555
S1 Th1 2.957127 1_555
S2 Th5 2.948844 1_555
S2 Th5 2.948844 1_655
S2 Th4 2.952732 1_655
S2 Th4 2.952732 1_555
S2 Th2 2.957127 1_556
S3 Th3 2.911343 1_555
S3 Th3 2.911343 1_455
S3 Th6 2.997360 1_565
S3 Th2 3.021314 1_555
S3 Th2 3.021314 1_455
S4 Th1 2.911345 1_455
S4 Th1 2.911345 1_555
S4 Th4 2.997354 1_555
S4 Th3 3.021314 1_455
S4 Th3 3.021314 1_555
S5 Th2 2.911343 1_455
S5 Th2 2.911343 1_555
S5 Th5 2.997354 1_554
S5 Th1 3.021315 1_555
S5 Th1 3.021315 1_455
S6 Th5 2.764967 1_655
S6 Th5 2.764967 1_555
S6 Th0 2.799766 1_556
S6 Th1 2.810776 1_556
S7 Th6 2.764966 1_555
S7 Th6 2.764966 1_655
S7 Th0 2.799765 1_555
S7 Th2 2.810777 1_545
S8 Th4 2.764966 1_555
S8 Th4 2.764966 1_655
S8 Th0 2.799768 1_566
S8 Th3 2.810775 1_555
S9 Th2 2.939557 1_455
S9 Th2 2.939557 1_555
S9 Th4 2.983393 1_554
S9 Th0 3.099910 1_465
S9 Th0 3.099910 1_565
S10 Th3 2.939556 1_455
S10 Th3 2.939556 1_555
S10 Th5 2.983394 1_565
S10 Th0 3.099915 1_566
S10 Th0 3.099915 1_466
S11 Th1 2.939556 1_555
S11 Th1 2.939556 1_455
S11 Th6 2.983394 1_555
S11 Th0 3.099905 1_555
S11 Th0 3.099905 1_455
