# generated using pymatgen
data_Hg2C3I7N9
_symmetry_space_group_name_H-M   'P 1'
_cell_length_a   8.79981683
_cell_length_b   8.79981683
_cell_length_c   17.63055735
_cell_angle_alpha   80.64756305
_cell_angle_beta   80.64756305
_cell_angle_gamma   93.14150904
_symmetry_Int_Tables_number   1
_chemical_formula_structural   Hg2C3I7N9
_chemical_formula_sum   'Hg4 C6 I14 N18'
_cell_volume   1324.56699245
_cell_formula_units_Z   2
loop_
 _symmetry_equiv_pos_site_id
 _symmetry_equiv_pos_as_xyz
  1  'x, y, z'
loop_
 _atom_site_type_symbol
 _atom_site_label
 _atom_site_symmetry_multiplicity
 _atom_site_fract_x
 _atom_site_fract_y
 _atom_site_fract_z
 _atom_site_occupancy
  Hg  Hg0  1  0.06402900  0.09734100  0.13309500  1
  Hg  Hg1  1  0.90265900  0.93597100  0.36690500  1
  Hg  Hg2  1  0.93597100  0.90265900  0.86690500  1
  Hg  Hg3  1  0.09734100  0.06402900  0.63309500  1
  C  C0  1  0.42350600  0.57649400  0.25000000  1
  C  C1  1  0.57649400  0.42350600  0.75000000  1
  C  C2  1  0.56930000  0.74918200  0.05231600  1
  C  C3  1  0.25081800  0.43070000  0.44768400  1
  C  C4  1  0.43070000  0.25081800  0.94768400  1
  C  C5  1  0.74918200  0.56930000  0.55231600  1
  I  I0  1  0.91439100  0.24404300  0.01663400  1
  I  I1  1  0.75595700  0.08560900  0.48336600  1
  I  I2  1  0.08560900  0.75595700  0.98336600  1
  I  I3  1  0.24404300  0.91439100  0.51663400  1
  I  I4  1  0.98163200  0.72480300  0.15283900  1
  I  I5  1  0.27519700  0.01836800  0.34716100  1
  I  I6  1  0.01836800  0.27519700  0.84716100  1
  I  I7  1  0.72480300  0.98163200  0.65283900  1
  I  I8  1  0.35024600  0.07041400  0.17522400  1
  I  I9  1  0.92958600  0.64975400  0.32477600  1
  I  I10  1  0.64975400  0.92958600  0.82477600  1
  I  I11  1  0.07041400  0.35024600  0.67522400  1
  I  I12  1  0.82629000  0.17371000  0.25000000  1
  I  I13  1  0.17371000  0.82629000  0.75000000  1
  N  N0  1  0.53089900  0.46910100  0.25000000  1
  N  N1  1  0.46910100  0.53089900  0.75000000  1
  N  N2  1  0.29398600  0.49083900  0.25934900  1
  N  N3  1  0.50916100  0.70601400  0.24065100  1
  N  N4  1  0.70601400  0.50916100  0.74065100  1
  N  N5  1  0.49083900  0.29398600  0.75934900  1
  N  N6  1  0.51426200  0.60212400  0.07975900  1
  N  N7  1  0.39787600  0.48573800  0.42024100  1
  N  N8  1  0.48573800  0.39787600  0.92024100  1
  N  N9  1  0.60212400  0.51426200  0.57975900  1
  N  N10  1  0.64901500  0.86163200  0.02139600  1
  N  N11  1  0.13836800  0.35098500  0.47860400  1
  N  N12  1  0.35098500  0.13836800  0.97860400  1
  N  N13  1  0.86163200  0.64901500  0.52139600  1
  N  N14  1  0.39213800  0.52770900  0.09219900  1
  N  N15  1  0.47229100  0.60786200  0.40780100  1
  N  N16  1  0.60786200  0.47229100  0.90780100  1
  N  N17  1  0.52770900  0.39213800  0.59219900  1
loop_
_geom_bond_atom_site_label_1
_geom_bond_atom_site_label_2
_geom_bond_distance
_geom_bond_site_symmetry_2
Hg0 I8 2.750945 1_555
Hg0 I0 2.796421 1_455
Hg0 I12 2.877380 1_455
Hg0 I4 3.268101 1_445
Hg1 I9 2.750945 1_555
Hg1 I1 2.796421 1_565
Hg1 I12 2.877380 1_565
Hg1 I5 3.268101 1_665
Hg2 I10 2.750945 1_555
Hg2 I2 2.796421 1_655
Hg2 I13 2.877380 1_655
Hg2 I6 3.268101 1_665
Hg3 I11 2.750945 1_555
Hg3 I3 2.796421 1_545
Hg3 I13 2.877380 1_545
Hg3 I7 3.268101 1_445
C0 N3 1.303358 1_555
C0 N2 1.303358 1_555
C0 N0 1.372619 1_555
C1 N4 1.303358 1_555
C1 N5 1.303358 1_555
C1 N1 1.372619 1_555
C2 N10 1.180145 1_555
C2 N6 1.339762 1_555
C3 N11 1.180145 1_555
C3 N7 1.339762 1_555
C4 N12 1.180145 1_555
C4 N8 1.339762 1_555
C5 N13 1.180145 1_555
C5 N9 1.339762 1_555
I0 I6 2.942387 1_654
I1 I7 2.942387 1_545
I2 I4 2.942387 1_456
I3 I5 2.942387 1_565
I4 I9 2.949563 1_555
I5 I8 2.949563 1_555
I10 I7 2.949563 1_555
I11 I6 2.949563 1_555
N14 N6 1.196416 1_555
N15 N7 1.196416 1_555
N16 N8 1.196416 1_555
N17 N9 1.196416 1_555
