# generated using pymatgen
data_Ba2CaMnFe2F14
_symmetry_space_group_name_H-M   'P 1'
_cell_length_a   7.50070859
_cell_length_b   7.50070859
_cell_length_c   15.27585065
_cell_angle_alpha   88.10724323
_cell_angle_beta   88.10724323
_cell_angle_gamma   42.87134675
_symmetry_Int_Tables_number   1
_chemical_formula_structural   Ba2CaMnFe2F14
_chemical_formula_sum   'Ba4 Ca2 Mn2 Fe4 F28'
_cell_volume   584.34810685
_cell_formula_units_Z   2
loop_
 _symmetry_equiv_pos_site_id
 _symmetry_equiv_pos_as_xyz
  1  'x, y, z'
loop_
 _atom_site_type_symbol
 _atom_site_label
 _atom_site_symmetry_multiplicity
 _atom_site_fract_x
 _atom_site_fract_y
 _atom_site_fract_z
 _atom_site_occupancy
  Ba  Ba0  1  0.64380300  0.73968300  0.88060600  1
  Ba  Ba1  1  0.35619700  0.26031700  0.11939400  1
  Ba  Ba2  1  0.26031700  0.35619700  0.61939400  1
  Ba  Ba3  1  0.73968300  0.64380300  0.38060600  1
  Ca  Ca0  1  0.93874200  0.06125800  0.75000000  1
  Ca  Ca1  1  0.06125800  0.93874200  0.25000000  1
  Mn  Mn0  1  0.00000000  0.00000000  0.50000000  1
  Mn  Mn1  1  0.00000000  0.00000000  0.00000000  1
  Fe  Fe0  1  0.61069700  0.62620700  0.62290800  1
  Fe  Fe1  1  0.38930300  0.37379300  0.37709200  1
  Fe  Fe2  1  0.37379300  0.38930300  0.87709200  1
  Fe  Fe3  1  0.62620700  0.61069700  0.12290800  1
  F  F0  1  0.57460000  0.40425200  0.65880700  1
  F  F1  1  0.42540000  0.59574800  0.34119300  1
  F  F2  1  0.59574800  0.42540000  0.84119300  1
  F  F3  1  0.40425200  0.57460000  0.15880700  1
  F  F4  1  0.67143600  0.07746500  0.95087600  1
  F  F5  1  0.32856400  0.92253500  0.04912400  1
  F  F6  1  0.92253500  0.32856400  0.54912400  1
  F  F7  1  0.07746500  0.67143600  0.45087600  1
  F  F8  1  0.53811700  0.13611000  0.77962900  1
  F  F9  1  0.46188300  0.86389000  0.22037100  1
  F  F10  1  0.86389000  0.46188300  0.72037100  1
  F  F11  1  0.13611000  0.53811700  0.27962900  1
  F  F12  1  0.69343000  0.80530500  0.58166400  1
  F  F13  1  0.30657000  0.19469500  0.41833600  1
  F  F14  1  0.19469500  0.30657000  0.91833600  1
  F  F15  1  0.80530500  0.69343000  0.08166400  1
  F  F16  1  0.33119100  0.91969900  0.69680900  1
  F  F17  1  0.66880900  0.08030100  0.30319100  1
  F  F18  1  0.08030100  0.66880900  0.80319100  1
  F  F19  1  0.91969900  0.33119100  0.19680900  1
  F  F20  1  0.40782500  0.75571800  0.51536700  1
  F  F21  1  0.59217500  0.24428200  0.48463300  1
  F  F22  1  0.24428200  0.59217500  0.98463300  1
  F  F23  1  0.75571800  0.40782500  0.01536700  1
  F  F24  1  0.85832100  0.01965800  0.12443400  1
  F  F25  1  0.14167900  0.98034200  0.87556600  1
  F  F26  1  0.98034200  0.14167900  0.37556600  1
  F  F27  1  0.01965800  0.85832100  0.62443400  1
loop_
_geom_bond_atom_site_label_1
_geom_bond_atom_site_label_2
_geom_bond_distance
_geom_bond_site_symmetry_2
Ba0 F2 2.720851 1_555
Ba0 F25 2.737540 1_555
Ba0 F23 2.802024 1_556
Ba0 F10 2.843659 1_555
Ba0 F8 2.858692 1_565
Ba0 F14 2.884035 1_655
Ba0 F4 2.928898 1_565
Ba0 F14 2.966211 1_565
Ba0 F5 3.029271 1_556
Ba0 F18 3.104040 1_655
Ba0 F15 3.252730 1_556
Ba0 F16 3.278410 1_555
Ba1 F3 2.720851 1_555
Ba1 F24 2.737540 1_555
Ba1 F22 2.802024 1_554
Ba1 F11 2.843659 1_555
Ba1 F9 2.858692 1_545
Ba1 F15 2.884035 1_455
Ba1 F5 2.928898 1_545
Ba1 F15 2.966211 1_545
Ba1 F4 3.029271 1_554
Ba1 F19 3.104040 1_455
Ba1 F14 3.252730 1_554
Ba1 F17 3.278410 1_555
Ba2 F0 2.720851 1_555
Ba2 F27 2.737540 1_555
Ba2 F21 2.802024 1_555
Ba2 F8 2.843659 1_555
Ba2 F10 2.858692 1_455
Ba2 F12 2.884035 1_545
Ba2 F6 2.928898 1_455
Ba2 F12 2.966211 1_455
Ba2 F7 3.029271 1_555
Ba2 F16 3.104040 1_545
Ba2 F13 3.252730 1_555
Ba2 F18 3.278410 1_555
Ba3 F1 2.720851 1_555
Ba3 F26 2.737540 1_555
Ba3 F20 2.802024 1_555
Ba3 F9 2.843659 1_555
Ba3 F11 2.858692 1_655
Ba3 F13 2.884035 1_565
Ba3 F7 2.928898 1_655
Ba3 F13 2.966211 1_655
Ba3 F6 3.029271 1_555
Ba3 F17 3.104040 1_565
Ba3 F12 3.252730 1_555
Ba3 F19 3.278410 1_555
Ca0 F25 2.264156 1_645
Ca0 F27 2.264156 1_645
Ca0 F2 2.394648 1_555
Ca0 F0 2.394648 1_555
Ca0 F16 2.402155 1_645
Ca0 F18 2.402155 1_645
Ca0 F10 2.646497 1_555
Ca0 F8 2.646497 1_555
Ca1 F26 2.264156 1_465
Ca1 F24 2.264156 1_465
Ca1 F1 2.394648 1_555
Ca1 F3 2.394648 1_555
Ca1 F19 2.402155 1_465
Ca1 F17 2.402155 1_465
Ca1 F11 2.646497 1_555
Ca1 F9 2.646497 1_555
F0 Fe0 1.932937 1_555
F1 Fe1 1.932937 1_555
F2 Fe2 1.932937 1_555
F3 Fe3 1.932937 1_555
F4 Fe2 2.015816 1_555
F4 Mn1 2.229069 1_656
F5 Fe3 2.015816 1_555
F5 Mn1 2.229069 1_565
F6 Fe0 2.015816 1_555
F6 Mn0 2.229069 1_655
F7 Fe1 2.015816 1_555
F7 Mn0 2.229069 1_565
F8 Fe2 1.994246 1_555
F9 Fe3 1.994246 1_555
F10 Fe0 1.994246 1_555
F11 Fe1 1.994246 1_555
F12 Fe0 1.930500 1_555
F13 Fe1 1.930500 1_555
F14 Fe2 1.930500 1_555
F15 Fe3 1.930500 1_555
F16 Fe0 1.938775 1_555
F17 Fe1 1.938775 1_555
F18 Fe2 1.938775 1_555
F19 Fe3 1.938775 1_555
F20 Fe0 1.962379 1_555
F20 Mn0 2.138511 1_565
F21 Fe1 1.962379 1_555
F21 Mn0 2.138511 1_655
F22 Fe2 1.962379 1_555
F22 Mn1 2.138511 1_566
F23 Fe3 1.962379 1_555
F23 Mn1 2.138511 1_655
F24 Mn1 2.102293 1_655
F25 Mn1 2.102293 1_566
F26 Mn0 2.102293 1_655
F27 Mn0 2.102293 1_565
