# generated using pymatgen
data_Fe6WN4
_symmetry_space_group_name_H-M   'P 1'
_cell_length_a   6.76339400
_cell_length_b   6.76339400
_cell_length_c   4.64641300
_cell_angle_alpha   90.00000000
_cell_angle_beta   90.00000000
_cell_angle_gamma   90.00000000
_symmetry_Int_Tables_number   1
_chemical_formula_structural   Fe6WN4
_chemical_formula_sum   'Fe12 W2 N8'
_cell_volume   212.54318563
_cell_formula_units_Z   2
loop_
 _symmetry_equiv_pos_site_id
 _symmetry_equiv_pos_as_xyz
  1  'x, y, z'
loop_
 _atom_site_type_symbol
 _atom_site_label
 _atom_site_symmetry_multiplicity
 _atom_site_fract_x
 _atom_site_fract_y
 _atom_site_fract_z
 _atom_site_occupancy
  Fe  Fe0  1  0.00000000  0.50000000  0.51304400  1
  Fe  Fe1  1  0.50000000  0.00000000  0.98695600  1
  Fe  Fe2  1  0.50000000  0.00000000  0.48695600  1
  Fe  Fe3  1  0.00000000  0.50000000  0.01304400  1
  Fe  Fe4  1  0.19422200  0.19422200  0.50000000  1
  Fe  Fe5  1  0.80577800  0.80577800  0.50000000  1
  Fe  Fe6  1  0.69422200  0.69422200  0.00000000  1
  Fe  Fe7  1  0.30577800  0.30577800  0.00000000  1
  Fe  Fe8  1  0.80577800  0.19422200  0.50000000  1
  Fe  Fe9  1  0.19422200  0.80577800  0.50000000  1
  Fe  Fe10  1  0.30577800  0.69422200  0.00000000  1
  Fe  Fe11  1  0.69422200  0.30577800  0.00000000  1
  W  W0  1  0.50000000  0.50000000  0.50000000  1
  W  W1  1  0.00000000  0.00000000  0.00000000  1
  N  N0  1  0.23061600  0.50000000  0.28573300  1
  N  N1  1  0.76938400  0.50000000  0.28573300  1
  N  N2  1  0.73061600  0.00000000  0.21426700  1
  N  N3  1  0.26938400  0.00000000  0.21426700  1
  N  N4  1  0.50000000  0.23061600  0.71426700  1
  N  N5  1  0.50000000  0.76938400  0.71426700  1
  N  N6  1  0.00000000  0.73061600  0.78573300  1
  N  N7  1  0.00000000  0.26938400  0.78573300  1
loop_
_geom_bond_atom_site_label_1
_geom_bond_atom_site_label_2
_geom_bond_distance
_geom_bond_site_symmetry_2
Fe0 N0 1.883701 1_555
Fe0 N1 1.883701 1_455
Fe0 N6 2.009518 1_555
Fe0 N7 2.009518 1_555
Fe1 N2 1.883701 1_556
Fe1 N3 1.883701 1_556
Fe1 N4 2.009518 1_555
Fe1 N5 2.009518 1_545
Fe2 N4 1.883701 1_555
Fe2 N5 1.883701 1_545
Fe2 N2 2.009518 1_555
Fe2 N3 2.009518 1_555
Fe3 N6 1.883701 1_554
Fe3 N7 1.883701 1_554
Fe3 N0 2.009518 1_555
Fe3 N1 2.009518 1_455
Fe4 N7 1.935607 1_555
Fe4 N3 1.935607 1_555
Fe4 N0 2.308415 1_555
Fe4 N4 2.308415 1_555
Fe5 N6 1.935607 1_655
Fe5 N2 1.935607 1_565
Fe5 N1 2.308415 1_555
Fe5 N5 2.308415 1_555
Fe6 N1 1.935607 1_555
Fe6 N5 1.935607 1_554
Fe6 N2 2.308415 1_565
Fe6 N6 2.308415 1_654
Fe7 N4 1.935607 1_554
Fe7 N0 1.935607 1_555
Fe7 N3 2.308415 1_555
Fe7 N7 2.308415 1_554
Fe8 N2 1.935607 1_555
Fe8 N7 1.935607 1_655
Fe8 N4 2.308415 1_555
Fe8 N1 2.308415 1_555
Fe9 N6 1.935607 1_555
Fe9 N3 1.935607 1_565
Fe9 N0 2.308415 1_555
Fe9 N5 2.308415 1_555
Fe10 N0 1.935607 1_555
Fe10 N5 1.935607 1_554
Fe10 N3 2.308415 1_565
Fe10 N6 2.308415 1_554
Fe11 N1 1.935607 1_555
Fe11 N4 1.935607 1_554
Fe11 N2 2.308415 1_555
Fe11 N7 2.308415 1_654
N0 W0 2.076215 1_555
N1 W0 2.076215 1_555
N2 W1 2.076215 1_655
N3 W1 2.076215 1_555
N4 W0 2.076215 1_555
N5 W0 2.076215 1_555
N6 W1 2.076215 1_566
N7 W1 2.076215 1_556
