# generated using pymatgen
data_Mn2NbC8(NO)8
_symmetry_space_group_name_H-M   'P 1'
_cell_length_a   10.51112033
_cell_length_b   10.51112033
_cell_length_c   10.51112033
_cell_angle_alpha   113.57042152
_cell_angle_beta   113.57042152
_cell_angle_gamma   101.55147178
_symmetry_Int_Tables_number   1
_chemical_formula_structural   Mn2NbC8(NO)8
_chemical_formula_sum   'Mn4 Nb2 C16 N16 O16'
_cell_volume   881.41553378
_cell_formula_units_Z   2
loop_
 _symmetry_equiv_pos_site_id
 _symmetry_equiv_pos_as_xyz
  1  'x, y, z'
loop_
 _atom_site_type_symbol
 _atom_site_label
 _atom_site_symmetry_multiplicity
 _atom_site_fract_x
 _atom_site_fract_y
 _atom_site_fract_z
 _atom_site_occupancy
  Mn  Mn0  1  0.19142200  0.68793100  0.87935300  1
  Mn  Mn1  1  0.80857800  0.31206900  0.12064700  1
  Mn  Mn2  1  0.68793100  0.80857800  0.49650900  1
  Mn  Mn3  1  0.31206900  0.19142200  0.50349100  1
  Nb  Nb0  1  0.25378400  0.25378400  0.00000000  1
  Nb  Nb1  1  0.74621600  0.74621600  0.00000000  1
  C  C0  1  0.24346300  0.02136500  0.94029200  1
  C  C1  1  0.08107400  0.30317100  0.05970800  1
  C  C2  1  0.02136500  0.08107400  0.77790300  1
  C  C3  1  0.30317100  0.24346300  0.22209700  1
  C  C4  1  0.75653700  0.97863500  0.05970800  1
  C  C5  1  0.91892600  0.69682900  0.94029200  1
  C  C6  1  0.97863500  0.91892600  0.22209700  1
  C  C7  1  0.69682900  0.75653700  0.77790300  1
  C  C8  1  0.18455900  0.39357800  0.89476100  1
  C  C9  1  0.49881700  0.28979800  0.10523900  1
  C  C10  1  0.39357800  0.49881700  0.20901900  1
  C  C11  1  0.28979800  0.18455900  0.79098100  1
  C  C12  1  0.81544100  0.60642200  0.10523900  1
  C  C13  1  0.50118300  0.71020200  0.89476100  1
  C  C14  1  0.60642200  0.50118300  0.79098100  1
  C  C15  1  0.71020200  0.81544100  0.20901900  1
  N  N0  1  0.22975700  0.89903400  0.91399100  1
  N  N1  1  0.98504300  0.31576500  0.08600900  1
  N  N2  1  0.89903400  0.98504300  0.66927800  1
  N  N3  1  0.31576500  0.22975700  0.33072200  1
  N  N4  1  0.77024300  0.10096600  0.08600900  1
  N  N5  1  0.01495700  0.68423500  0.91399100  1
  N  N6  1  0.10096600  0.01495700  0.33072200  1
  N  N7  1  0.68423500  0.77024300  0.66927800  1
  N  N8  1  0.16517700  0.48371500  0.86048100  1
  N  N9  1  0.62323400  0.30469500  0.13951900  1
  N  N10  1  0.48371500  0.62323400  0.31853800  1
  N  N11  1  0.30469500  0.16517700  0.68146200  1
  N  N12  1  0.83482300  0.51628500  0.13951900  1
  N  N13  1  0.37676600  0.69530500  0.86048100  1
  N  N14  1  0.51628500  0.37676600  0.68146200  1
  N  N15  1  0.69530500  0.83482300  0.31853800  1
  O  O0  1  0.07279700  0.60717000  0.67996700  1
  O  O1  1  0.92720300  0.39283000  0.32003300  1
  O  O2  1  0.60717000  0.92720300  0.53437300  1
  O  O3  1  0.39283000  0.07279700  0.46562700  1
  O  O4  1  0.30950200  0.77287800  0.08238000  1
  O  O5  1  0.69049800  0.22712200  0.91762000  1
  O  O6  1  0.77287800  0.69049800  0.46337700  1
  O  O7  1  0.22712200  0.30950200  0.53662300  1
  O  O8  1  0.67307100  0.18652900  0.37552400  1
  O  O9  1  0.81100500  0.29754700  0.62447600  1
  O  O10  1  0.18652900  0.81100500  0.51345800  1
  O  O11  1  0.29754700  0.67307100  0.48654200  1
  O  O12  1  0.32692900  0.81347100  0.62447600  1
  O  O13  1  0.18899500  0.70245300  0.37552400  1
  O  O14  1  0.81347100  0.18899500  0.48654200  1
  O  O15  1  0.70245300  0.32692900  0.51345800  1
loop_
_geom_bond_atom_site_label_1
_geom_bond_atom_site_label_2
_geom_bond_distance
_geom_bond_site_symmetry_2
Mn0 O0 1.652560 1_555
Mn0 O4 1.675062 1_556
Mn0 N0 2.024118 1_555
Mn0 N5 2.024119 1_555
Mn0 N13 2.025246 1_555
Mn0 N8 2.025247 1_555
Mn1 O1 1.652560 1_555
Mn1 O5 1.675062 1_554
Mn1 N4 2.024118 1_555
Mn1 N1 2.024119 1_555
Mn1 N9 2.025246 1_555
Mn1 N12 2.025247 1_555
Mn2 O2 1.652560 1_555
Mn2 O6 1.675061 1_555
Mn2 N2 2.024119 1_555
Mn2 N7 2.024125 1_555
Mn2 N10 2.025247 1_555
Mn2 N15 2.025251 1_555
Mn3 O3 1.652560 1_555
Mn3 O7 1.675061 1_555
Mn3 N6 2.024119 1_555
Mn3 N3 2.024125 1_555
Mn3 N14 2.025247 1_555
Mn3 N11 2.025251 1_555
C0 N0 1.166286 1_545
C0 Nb0 2.233167 1_556
C1 N1 1.166294 1_455
C1 Nb0 2.233157 1_555
C2 N2 1.166289 1_445
C2 Nb0 2.233163 1_556
C3 N3 1.166289 1_555
C3 Nb0 2.233157 1_555
C4 N4 1.166286 1_565
C4 Nb1 2.233167 1_555
C5 N5 1.166294 1_655
C5 Nb1 2.233157 1_556
C6 N6 1.166289 1_665
C6 Nb1 2.233163 1_555
C7 N7 1.166289 1_555
C7 Nb1 2.233157 1_556
C8 N8 1.166447 1_555
C8 Nb0 2.235309 1_556
C9 N9 1.166449 1_555
C9 Nb0 2.235309 1_555
C10 N10 1.166447 1_555
C10 Nb0 2.235309 1_555
C11 N11 1.166441 1_555
C11 Nb0 2.235309 1_556
C12 N12 1.166447 1_555
C12 Nb1 2.235309 1_555
C13 N13 1.166449 1_555
C13 Nb1 2.235309 1_556
C14 N14 1.166447 1_555
C14 Nb1 2.235309 1_556
C15 N15 1.166441 1_555
C15 Nb1 2.235309 1_555
O10 O13 1.457220 1_555
O10 O12 1.457220 1_555
O11 O13 1.457220 1_555
O11 O12 1.457220 1_555
O14 O8 1.457220 1_555
O14 O9 1.457220 1_555
O15 O8 1.457220 1_555
O15 O9 1.457220 1_555
