# generated using pymatgen
data_Zn(GaS2)2
_symmetry_space_group_name_H-M   'P 1'
_cell_length_a   13.74347587
_cell_length_b   11.69743150
_cell_length_c   11.19498313
_cell_angle_alpha   73.75324094
_cell_angle_beta   54.79921422
_cell_angle_gamma   51.44754484
_symmetry_Int_Tables_number   1
_chemical_formula_structural   Zn(GaS2)2
_chemical_formula_sum   'Zn8 Ga16 S32'
_cell_volume   1141.16283379
_cell_formula_units_Z   8
loop_
 _symmetry_equiv_pos_site_id
 _symmetry_equiv_pos_as_xyz
  1  'x, y, z'
loop_
 _atom_site_type_symbol
 _atom_site_label
 _atom_site_symmetry_multiplicity
 _atom_site_fract_x
 _atom_site_fract_y
 _atom_site_fract_z
 _atom_site_occupancy
  Zn  Zn0  1  0.00000000  0.00000000  0.00000000  1
  Zn  Zn1  1  0.25000000  0.25000000  0.25000000  1
  Zn  Zn2  1  0.50000000  0.50000000  0.50000000  1
  Zn  Zn3  1  0.75000000  0.75000000  0.75000000  1
  Zn  Zn4  1  0.74425600  0.25574400  0.74425600  1
  Zn  Zn5  1  0.25574400  0.74425600  0.25574400  1
  Zn  Zn6  1  0.50574400  0.99425600  0.50574400  1
  Zn  Zn7  1  0.99425600  0.50574400  0.99425600  1
  Ga  Ga0  1  0.16004500  0.48083200  0.59333900  1
  Ga  Ga1  1  0.59333900  0.76578300  0.16004500  1
  Ga  Ga2  1  0.48083200  0.16004500  0.76578300  1
  Ga  Ga3  1  0.76578300  0.59333900  0.48083200  1
  Ga  Ga4  1  0.08995500  0.76916800  0.65666100  1
  Ga  Ga5  1  0.65666100  0.48421700  0.08995500  1
  Ga  Ga6  1  0.76916800  0.08995500  0.48421700  1
  Ga  Ga7  1  0.48421700  0.65666100  0.76916800  1
  Ga  Ga8  1  0.51132200  0.26142500  0.24101600  1
  Ga  Ga9  1  0.24101600  0.98623600  0.51132200  1
  Ga  Ga10  1  0.26142500  0.51132200  0.98623600  1
  Ga  Ga11  1  0.98623600  0.24101600  0.26142500  1
  Ga  Ga12  1  0.73867800  0.98857500  0.00898400  1
  Ga  Ga13  1  0.00898400  0.26376400  0.73867800  1
  Ga  Ga14  1  0.98857500  0.73867800  0.26376400  1
  Ga  Ga15  1  0.26376400  0.00898400  0.98857500  1
  S  S0  1  0.03600600  0.72566200  0.03295500  1
  S  S1  1  0.03295500  0.20537800  0.03600600  1
  S  S2  1  0.72566200  0.03600600  0.20537800  1
  S  S3  1  0.20537800  0.03295500  0.72566200  1
  S  S4  1  0.21399400  0.52433800  0.21704500  1
  S  S5  1  0.21704500  0.04462200  0.21399400  1
  S  S6  1  0.52433800  0.21399400  0.04462200  1
  S  S7  1  0.04462200  0.21704500  0.52433800  1
  S  S8  1  0.52943900  0.71832100  0.53817200  1
  S  S9  1  0.53817200  0.21406800  0.52943900  1
  S  S10  1  0.71832100  0.52943900  0.21406800  1
  S  S11  1  0.21406800  0.53817200  0.71832100  1
  S  S12  1  0.72056100  0.53167900  0.71182800  1
  S  S13  1  0.71182800  0.03593200  0.72056100  1
  S  S14  1  0.53167900  0.72056100  0.03593200  1
  S  S15  1  0.03593200  0.71182800  0.53167900  1
  S  S16  1  0.78784500  0.77264900  0.96355500  1
  S  S17  1  0.96355500  0.47595100  0.78784500  1
  S  S18  1  0.77264900  0.78784500  0.47595100  1
  S  S19  1  0.47595100  0.96355500  0.77264800  1
  S  S20  1  0.46215500  0.47735200  0.28644500  1
  S  S21  1  0.28644500  0.77404900  0.46215500  1
  S  S22  1  0.47735200  0.46215500  0.77404900  1
  S  S23  1  0.77404900  0.28644500  0.47735100  1
  S  S24  1  0.44776600  0.97386000  0.31417200  1
  S  S25  1  0.31417200  0.26420200  0.44776600  1
  S  S26  1  0.97386000  0.44776600  0.26420200  1
  S  S27  1  0.26420200  0.31417200  0.97386000  1
  S  S28  1  0.80223400  0.27614000  0.93582800  1
  S  S29  1  0.93582800  0.98579800  0.80223400  1
  S  S30  1  0.27614000  0.80223400  0.98579800  1
  S  S31  1  0.98579800  0.93582800  0.27614000  1
loop_
_geom_bond_atom_site_label_1
_geom_bond_atom_site_label_2
_geom_bond_distance
_geom_bond_site_symmetry_2
Ga0 S25 2.281311 1_555
Ga0 S15 2.292599 1_555
Ga0 S11 2.302677 1_555
Ga0 S17 2.319607 1_455
Ga1 S24 2.281319 1_555
Ga1 S14 2.292591 1_555
Ga1 S10 2.302669 1_555
Ga1 S16 2.319613 1_554
Ga2 S27 2.281316 1_555
Ga2 S13 2.292603 1_555
Ga2 S9 2.302667 1_555
Ga2 S19 2.319607 1_545
Ga3 S26 2.281313 1_555
Ga3 S12 2.292601 1_555
Ga3 S8 2.302665 1_555
Ga3 S18 2.319616 1_555
Ga4 S29 2.281311 1_455
Ga4 S11 2.292599 1_555
Ga4 S15 2.302677 1_555
Ga4 S21 2.319607 1_555
Ga5 S28 2.281319 1_554
Ga5 S10 2.292591 1_555
Ga5 S14 2.302669 1_555
Ga5 S20 2.319607 1_555
Ga6 S31 2.281316 1_545
Ga6 S9 2.292603 1_555
Ga6 S13 2.302667 1_555
Ga6 S23 2.319604 1_555
Ga7 S30 2.281313 1_555
Ga7 S8 2.292601 1_555
Ga7 S12 2.302665 1_555
Ga7 S22 2.319607 1_555
Ga8 S6 2.297653 1_555
Ga8 S20 2.300014 1_555
Ga8 S2 2.311153 1_555
Ga8 S25 2.324214 1_555
Ga9 S7 2.297653 1_565
Ga9 S21 2.299991 1_555
Ga9 S3 2.311162 1_565
Ga9 S24 2.324219 1_555
Ga10 S4 2.297653 1_556
Ga10 S22 2.300006 1_555
Ga10 S0 2.311148 1_556
Ga10 S27 2.324210 1_555
Ga11 S5 2.297653 1_655
Ga11 S23 2.299995 1_555
Ga11 S1 2.311140 1_655
Ga11 S26 2.324222 1_555
Ga12 S2 2.297653 1_565
Ga12 S16 2.300002 1_554
Ga12 S6 2.311153 1_565
Ga12 S29 2.324214 1_554
Ga13 S3 2.297653 1_555
Ga13 S17 2.299991 1_455
Ga13 S7 2.311162 1_555
Ga13 S28 2.324219 1_455
Ga14 S0 2.297653 1_655
Ga14 S18 2.299998 1_555
Ga14 S4 2.311148 1_655
Ga14 S31 2.324210 1_555
Ga15 S1 2.297653 1_556
Ga15 S19 2.300000 1_545
Ga15 S5 2.311140 1_556
Ga15 S30 2.324222 1_545
S0 Zn0 2.871869 1_565
S1 Zn0 2.871881 1_555
S2 Zn0 2.871870 1_655
S3 Zn0 2.871875 1_556
S4 Zn1 2.871869 1_555
S5 Zn1 2.871881 1_555
S6 Zn1 2.871870 1_555
S7 Zn1 2.871875 1_555
S8 Zn6 2.970950 1_555
S8 Zn2 2.994340 1_555
S9 Zn6 2.970950 1_545
S9 Zn2 2.994340 1_555
S10 Zn7 2.970950 1_554
S10 Zn2 2.994340 1_555
S11 Zn7 2.970950 1_455
S11 Zn2 2.994340 1_555
S12 Zn4 2.970950 1_555
S12 Zn3 2.994340 1_555
S13 Zn4 2.970950 1_555
S13 Zn3 2.994340 1_545
S14 Zn5 2.970950 1_555
S14 Zn3 2.994340 1_554
S15 Zn5 2.970950 1_555
S15 Zn3 2.994340 1_455
S16 Zn7 2.719760 1_555
S16 Zn3 2.831279 1_555
S17 Zn7 2.719760 1_555
S17 Zn3 2.831279 1_555
S18 Zn6 2.719760 1_555
S18 Zn3 2.831279 1_555
S19 Zn6 2.719749 1_555
S19 Zn3 2.831284 1_555
S20 Zn5 2.719755 1_555
S20 Zn2 2.831274 1_555
S21 Zn5 2.719760 1_555
S21 Zn2 2.831279 1_555
S22 Zn4 2.719750 1_555
S22 Zn2 2.831285 1_555
S23 Zn4 2.719760 1_555
S23 Zn2 2.831279 1_555
S24 Zn6 2.790121 1_555
S24 Zn1 2.889073 1_565
S25 Zn6 2.790121 1_545
S25 Zn1 2.889073 1_555
S26 Zn7 2.790121 1_554
S26 Zn1 2.889073 1_655
S27 Zn7 2.790121 1_455
S27 Zn1 2.889073 1_556
S28 Zn4 2.790121 1_555
S28 Zn0 2.889073 1_656
S29 Zn4 2.790121 1_565
S29 Zn0 2.889073 1_666
S30 Zn5 2.790121 1_556
S30 Zn0 2.889073 1_566
S31 Zn5 2.790121 1_655
S31 Zn0 2.889073 1_665
