# generated using pymatgen
data_YGeRh
_symmetry_space_group_name_H-M   'P 1'
_cell_length_a   4.29393090
_cell_length_b   6.92236246
_cell_length_c   7.56254784
_cell_angle_alpha   90.00000000
_cell_angle_beta   90.00000000
_cell_angle_gamma   90.00000000
_symmetry_Int_Tables_number   1
_chemical_formula_structural   YGeRh
_chemical_formula_sum   'Y4 Ge4 Rh4'
_cell_volume   224.79027664
_cell_formula_units_Z   4
loop_
 _symmetry_equiv_pos_site_id
 _symmetry_equiv_pos_as_xyz
  1  'x, y, z'
loop_
 _atom_site_type_symbol
 _atom_site_label
 _atom_site_symmetry_multiplicity
 _atom_site_fract_x
 _atom_site_fract_y
 _atom_site_fract_z
 _atom_site_occupancy
  Y  Y0  1  0.25000000  0.50287110  0.69556097  1
  Y  Y1  1  0.25000000  0.00287110  0.80443903  1
  Y  Y2  1  0.75000000  0.49712890  0.30443903  1
  Y  Y3  1  0.75000000  0.99712890  0.19556097  1
  Ge  Ge0  1  0.25000000  0.79038342  0.39537073  1
  Ge  Ge1  1  0.25000000  0.29038342  0.10462927  1
  Ge  Ge2  1  0.75000000  0.20961658  0.60462927  1
  Ge  Ge3  1  0.75000000  0.70961658  0.89537073  1
  Rh  Rh0  1  0.25000000  0.15480437  0.43257460  1
  Rh  Rh1  1  0.25000000  0.65480437  0.06742540  1
  Rh  Rh2  1  0.75000000  0.84519563  0.56742540  1
  Rh  Rh3  1  0.75000000  0.34519563  0.93257460  1
loop_
_geom_bond_atom_site_label_1
_geom_bond_atom_site_label_2
_geom_bond_distance
_geom_bond_site_symmetry_2
Ge0 Rh0 2.538295 1_565
Ge0 Rh2 2.538991 1_455
Ge0 Rh2 2.538991 1_555
Ge0 Rh1 2.651743 1_555
Ge0 Y3 2.990156 1_555
Ge0 Y3 2.990156 1_455
Ge0 Y0 3.019102 1_555
Ge0 Y2 3.033697 1_455
Ge0 Y2 3.033697 1_555
Ge1 Rh1 2.538295 1_555
Ge1 Rh3 2.538991 1_454
Ge1 Rh3 2.538991 1_554
Ge1 Rh0 2.651743 1_555
Ge1 Y2 2.990156 1_455
Ge1 Y2 2.990156 1_555
Ge1 Y1 3.019102 1_554
Ge1 Y3 3.033697 1_545
Ge1 Y3 3.033697 1_445
Ge2 Rh2 2.538295 1_545
Ge2 Rh0 2.538991 1_555
Ge2 Rh0 2.538991 1_655
Ge2 Rh3 2.651743 1_555
Ge2 Y1 2.990156 1_555
Ge2 Y1 2.990156 1_655
Ge2 Y2 3.019102 1_555
Ge2 Y0 3.033697 1_555
Ge2 Y0 3.033697 1_655
Ge3 Rh3 2.538295 1_555
Ge3 Rh1 2.538991 1_556
Ge3 Rh1 2.538991 1_656
Ge3 Rh2 2.651743 1_555
Ge3 Y0 2.990156 1_555
Ge3 Y0 2.990156 1_655
Ge3 Y3 3.019102 1_556
Ge3 Y1 3.033697 1_565
Ge3 Y1 3.033697 1_665
Rh0 Y3 3.002266 1_545
Rh0 Y3 3.002266 1_445
Rh0 Y1 3.002476 1_555
Rh0 Y0 3.124249 1_555
Rh0 Y2 3.341247 1_455
Rh0 Y2 3.341247 1_555
Rh1 Y2 3.002266 1_455
Rh1 Y2 3.002266 1_555
Rh1 Y0 3.002476 1_554
Rh1 Y1 3.124249 1_564
Rh1 Y3 3.341247 1_455
Rh1 Y3 3.341247 1_555
Rh2 Y1 3.002266 1_565
Rh2 Y1 3.002266 1_665
Rh2 Y3 3.002476 1_555
Rh2 Y2 3.124249 1_555
Rh2 Y0 3.341247 1_655
Rh2 Y0 3.341247 1_555
Rh3 Y0 3.002266 1_655
Rh3 Y0 3.002266 1_555
Rh3 Y2 3.002476 1_556
Rh3 Y3 3.124249 1_546
Rh3 Y1 3.341247 1_555
Rh3 Y1 3.341247 1_655
