# generated using pymatgen
data_CeZnNi2
_symmetry_space_group_name_H-M   'P 1'
_cell_length_a   5.27162237
_cell_length_b   5.27162237
_cell_length_c   16.33301900
_cell_angle_alpha   90.00000000
_cell_angle_beta   90.00000000
_cell_angle_gamma   120.00000466
_symmetry_Int_Tables_number   1
_chemical_formula_structural   CeZnNi2
_chemical_formula_sum   'Ce6 Zn6 Ni12'
_cell_volume   393.08426838
_cell_formula_units_Z   6
loop_
 _symmetry_equiv_pos_site_id
 _symmetry_equiv_pos_as_xyz
  1  'x, y, z'
loop_
 _atom_site_type_symbol
 _atom_site_label
 _atom_site_symmetry_multiplicity
 _atom_site_fract_x
 _atom_site_fract_y
 _atom_site_fract_z
 _atom_site_occupancy
  Ce  Ce0  1  0.33333300  0.66666700  0.95435900  1
  Ce  Ce1  1  0.66666700  0.33333300  0.04564100  1
  Ce  Ce2  1  0.66666700  0.33333300  0.45435900  1
  Ce  Ce3  1  0.33333300  0.66666700  0.54564100  1
  Ce  Ce4  1  0.33333300  0.66666700  0.75000000  1
  Ce  Ce5  1  0.66666700  0.33333300  0.25000000  1
  Zn  Zn0  1  0.33333300  0.66666700  0.25000000  1
  Zn  Zn1  1  0.66666700  0.33333300  0.75000000  1
  Zn  Zn2  1  0.00000000  0.00000000  0.25000000  1
  Zn  Zn3  1  0.00000000  0.00000000  0.75000000  1
  Zn  Zn4  1  0.00000000  0.00000000  0.50000000  1
  Zn  Zn5  1  0.00000000  0.00000000  0.00000000  1
  Ni  Ni0  1  0.16813600  0.83186400  0.37463800  1
  Ni  Ni1  1  0.16813600  0.33627200  0.37463800  1
  Ni  Ni2  1  0.66372800  0.83186400  0.37463800  1
  Ni  Ni3  1  0.83186400  0.16813600  0.62536200  1
  Ni  Ni4  1  0.83186400  0.66372800  0.62536200  1
  Ni  Ni5  1  0.33627200  0.16813600  0.62536200  1
  Ni  Ni6  1  0.83186400  0.16813600  0.87463800  1
  Ni  Ni7  1  0.83186400  0.66372800  0.87463800  1
  Ni  Ni8  1  0.33627200  0.16813600  0.87463800  1
  Ni  Ni9  1  0.16813600  0.83186400  0.12536200  1
  Ni  Ni10  1  0.16813600  0.33627200  0.12536200  1
  Ni  Ni11  1  0.66372800  0.83186400  0.12536200  1
loop_
_geom_bond_atom_site_label_1
_geom_bond_atom_site_label_2
_geom_bond_distance
_geom_bond_site_symmetry_2
Ce0 Ni8 2.939913 1_565
Ce0 Ni7 2.939913 1_455
Ce0 Ni6 2.939916 1_565
Ce0 Ni6 2.939916 1_455
Ce0 Ni7 2.939918 1_555
Ce0 Ni8 2.939918 1_555
Ce0 Zn5 3.133532 1_566
Ce0 Zn5 3.133536 1_666
Ce0 Zn5 3.133536 1_556
Ce0 Ni9 3.174271 1_556
Ce0 Ni11 3.174273 1_556
Ce0 Ni10 3.174273 1_556
Ce0 Ce4 3.337799 1_555
Ce1 Ni10 2.939913 1_655
Ce1 Ni11 2.939913 1_545
Ce1 Ni9 2.939916 1_655
Ce1 Ni9 2.939916 1_545
Ce1 Ni11 2.939918 1_555
Ce1 Ni10 2.939918 1_555
Ce1 Zn5 3.133532 1_655
Ce1 Zn5 3.133536 1_555
Ce1 Zn5 3.133536 1_665
Ce1 Ni6 3.174271 1_554
Ce1 Ni7 3.174273 1_554
Ce1 Ni8 3.174273 1_554
Ce1 Ce5 3.337799 1_555
Ce2 Ni1 2.939913 1_655
Ce2 Ni2 2.939913 1_545
Ce2 Ni0 2.939916 1_655
Ce2 Ni0 2.939916 1_545
Ce2 Ni2 2.939918 1_555
Ce2 Ni1 2.939918 1_555
Ce2 Zn4 3.133532 1_655
Ce2 Zn4 3.133536 1_555
Ce2 Zn4 3.133536 1_665
Ce2 Ni3 3.174271 1_555
Ce2 Ni4 3.174273 1_555
Ce2 Ni5 3.174273 1_555
Ce2 Ce5 3.337799 1_555
Ce3 Ni5 2.939913 1_565
Ce3 Ni4 2.939913 1_455
Ce3 Ni3 2.939916 1_565
Ce3 Ni3 2.939916 1_455
Ce3 Ni4 2.939918 1_555
Ce3 Ni5 2.939918 1_555
Ce3 Zn4 3.133532 1_565
Ce3 Zn4 3.133536 1_665
Ce3 Zn4 3.133536 1_555
Ce3 Ni0 3.174271 1_555
Ce3 Ni2 3.174273 1_555
Ce3 Ni1 3.174273 1_555
Ce3 Ce4 3.337799 1_555
Ce4 Zn1 3.043569 1_455
Ce4 Zn1 3.043569 1_565
Ce4 Zn3 3.043570 1_565
Ce4 Zn3 3.043574 1_665
Ce4 Zn3 3.043574 1_555
Ce4 Zn1 3.043579 1_555
Ce4 Ni8 3.330436 1_565
Ce4 Ni7 3.330436 1_455
Ce4 Ni5 3.330436 1_565
Ce4 Ni4 3.330436 1_455
Ce4 Ni6 3.330438 1_565
Ce4 Ni6 3.330438 1_455
Ce4 Ni3 3.330438 1_565
Ce4 Ni3 3.330438 1_455
Ce4 Ni7 3.330440 1_555
Ce4 Ni8 3.330440 1_555
Ce4 Ni4 3.330440 1_555
Ce4 Ni5 3.330440 1_555
Ce5 Zn0 3.043569 1_545
Ce5 Zn0 3.043569 1_655
Ce5 Zn2 3.043570 1_655
Ce5 Zn2 3.043574 1_555
Ce5 Zn2 3.043574 1_665
Ce5 Zn0 3.043579 1_555
Ce5 Ni1 3.330436 1_655
Ce5 Ni2 3.330436 1_545
Ce5 Ni10 3.330436 1_655
Ce5 Ni11 3.330436 1_545
Ce5 Ni0 3.330438 1_655
Ce5 Ni0 3.330438 1_545
Ce5 Ni9 3.330438 1_655
Ce5 Ni9 3.330438 1_545
Ce5 Ni2 3.330440 1_555
Ce5 Ni1 3.330440 1_555
Ce5 Ni11 3.330440 1_555
Ce5 Ni10 3.330440 1_555
Ni0 Zn0 2.533635 1_555
Ni0 Zn2 2.549702 1_565
Ni0 Zn4 2.559153 1_565
Ni0 Ni1 2.612574 1_555
Ni0 Ni2 2.612574 1_555
Ni0 Ni2 2.659048 1_455
Ni0 Ni1 2.659048 1_565
Ni1 Zn0 2.533638 1_555
Ni1 Zn2 2.549702 1_555
Ni1 Zn4 2.559153 1_555
Ni1 Ni2 2.612574 1_555
Ni1 Ni2 2.659048 1_445
Ni2 Zn0 2.533638 1_555
Ni2 Zn2 2.549702 1_665
Ni2 Zn4 2.559153 1_665
Ni3 Zn1 2.533635 1_555
Ni3 Zn3 2.549702 1_655
Ni3 Zn4 2.559153 1_655
Ni3 Ni5 2.612574 1_555
Ni3 Ni4 2.612574 1_555
Ni3 Ni4 2.659048 1_545
Ni3 Ni5 2.659048 1_655
Ni4 Zn1 2.533638 1_555
Ni4 Zn3 2.549702 1_665
Ni4 Zn4 2.559153 1_665
Ni4 Ni5 2.612574 1_555
Ni4 Ni5 2.659048 1_665
Ni5 Zn1 2.533638 1_555
Ni5 Zn3 2.549702 1_555
Ni5 Zn4 2.559153 1_555
Ni6 Zn1 2.533635 1_555
Ni6 Zn3 2.549702 1_655
Ni6 Zn5 2.559153 1_656
Ni6 Ni8 2.612574 1_555
Ni6 Ni7 2.612574 1_555
Ni6 Ni7 2.659048 1_545
Ni6 Ni8 2.659048 1_655
Ni7 Zn1 2.533638 1_555
Ni7 Zn3 2.549702 1_665
Ni7 Zn5 2.559153 1_666
Ni7 Ni8 2.612574 1_555
Ni7 Ni8 2.659048 1_665
Ni8 Zn1 2.533638 1_555
Ni8 Zn3 2.549702 1_555
Ni8 Zn5 2.559153 1_556
Ni9 Zn0 2.533635 1_555
Ni9 Zn2 2.549702 1_565
Ni9 Zn5 2.559153 1_565
Ni10 Zn0 2.533638 1_555
Ni10 Zn2 2.549702 1_555
Ni10 Zn5 2.559153 1_555
Ni10 Ni11 2.612574 1_555
Ni10 Ni9 2.612574 1_555
Ni10 Ni11 2.659048 1_445
Ni10 Ni9 2.659048 1_545
Ni11 Zn0 2.533638 1_555
Ni11 Zn2 2.549702 1_665
Ni11 Zn5 2.559153 1_665
Ni11 Ni9 2.612574 1_555
Ni11 Ni9 2.659048 1_655
