# generated using pymatgen
data_In2CuAgS4
_symmetry_space_group_name_H-M   'P 1'
_cell_length_a   7.00012192
_cell_length_b   7.00012192
_cell_length_c   7.00012192
_cell_angle_alpha   131.59067119
_cell_angle_beta   131.59067119
_cell_angle_gamma   70.87629063
_symmetry_Int_Tables_number   1
_chemical_formula_structural   In2CuAgS4
_chemical_formula_sum   'In2 Cu1 Ag1 S4'
_cell_volume   187.91387584
_cell_formula_units_Z   1
loop_
 _symmetry_equiv_pos_site_id
 _symmetry_equiv_pos_as_xyz
  1  'x, y, z'
loop_
 _atom_site_type_symbol
 _atom_site_label
 _atom_site_symmetry_multiplicity
 _atom_site_fract_x
 _atom_site_fract_y
 _atom_site_fract_z
 _atom_site_occupancy
  In  In0  1  0.75000000  0.25000000  0.50000000  1
  In  In1  1  0.50000000  0.50000000  0.00000000  1
  Cu  Cu0  1  0.00000000  0.00000000  0.00000000  1
  Ag  Ag0  1  0.25000000  0.75000000  0.50000000  1
  S  S0  1  0.65096400  0.64298800  0.52779900  1
  S  S1  1  0.11518900  0.12316600  0.47220100  1
  S  S2  1  0.87683400  0.34903600  0.99202300  1
  S  S3  1  0.35701200  0.88481100  0.00797700  1
loop_
_geom_bond_atom_site_label_1
_geom_bond_atom_site_label_2
_geom_bond_distance
_geom_bond_site_symmetry_2
In0 S2 2.510990 1_555
In0 S0 2.510993 1_555
In0 S1 2.510994 1_655
In0 S3 2.510994 1_545
In1 S2 2.523691 1_554
In1 S3 2.523691 1_555
In1 S1 2.523691 1_554
In1 S0 2.523694 1_555
Cu0 S1 2.335185 1_555
Cu0 S3 2.335185 1_545
Cu0 S0 2.335188 1_444
Cu0 S2 2.335191 1_454
Ag0 S0 2.562788 1_555
Ag0 S2 2.562791 1_454
Ag0 S1 2.562795 1_565
Ag0 S3 2.562795 1_556
