# generated using pymatgen
data_Mg(ScS2)2
_symmetry_space_group_name_H-M   'P 1'
_cell_length_a   7.70540200
_cell_length_b   7.22156700
_cell_length_c   10.73463200
_cell_angle_alpha   90.00000000
_cell_angle_beta   90.00000000
_cell_angle_gamma   90.00000000
_symmetry_Int_Tables_number   1
_chemical_formula_structural   Mg(ScS2)2
_chemical_formula_sum   'Mg4 Sc8 S16'
_cell_volume   597.32942211
_cell_formula_units_Z   4
loop_
 _symmetry_equiv_pos_site_id
 _symmetry_equiv_pos_as_xyz
  1  'x, y, z'
loop_
 _atom_site_type_symbol
 _atom_site_label
 _atom_site_symmetry_multiplicity
 _atom_site_fract_x
 _atom_site_fract_y
 _atom_site_fract_z
 _atom_site_occupancy
  Mg  Mg0  1  0.17133100  0.25000000  0.39134300  1
  Mg  Mg1  1  0.82866900  0.75000000  0.60865700  1
  Mg  Mg2  1  0.32866900  0.75000000  0.89134300  1
  Mg  Mg3  1  0.67133100  0.25000000  0.10865700  1
  Sc  Sc0  1  0.03001800  0.75000000  0.29998200  1
  Sc  Sc1  1  0.96998200  0.25000000  0.70001800  1
  Sc  Sc2  1  0.46998200  0.25000000  0.79998200  1
  Sc  Sc3  1  0.53001800  0.75000000  0.20001800  1
  Sc  Sc4  1  0.06193800  0.25000000  0.00758700  1
  Sc  Sc5  1  0.93806200  0.75000000  0.99241300  1
  Sc  Sc6  1  0.43806200  0.75000000  0.50758700  1
  Sc  Sc7  1  0.56193800  0.25000000  0.49241300  1
  S  S0  1  0.09781900  0.51653300  0.83946300  1
  S  S1  1  0.90218100  0.48346700  0.16053700  1
  S  S2  1  0.40218100  0.48346700  0.33946300  1
  S  S3  1  0.59781900  0.51653300  0.66053700  1
  S  S4  1  0.59781900  0.98346700  0.66053700  1
  S  S5  1  0.40218100  0.01653300  0.33946300  1
  S  S6  1  0.90218100  0.01653300  0.16053700  1
  S  S7  1  0.09781900  0.98346700  0.83946300  1
  S  S8  1  0.88129300  0.25000000  0.47405400  1
  S  S9  1  0.11870700  0.75000000  0.52594600  1
  S  S10  1  0.61870700  0.75000000  0.97405400  1
  S  S11  1  0.38129300  0.25000000  0.02594600  1
  S  S12  1  0.23036000  0.75000000  0.11317600  1
  S  S13  1  0.76964000  0.25000000  0.88682400  1
  S  S14  1  0.26964000  0.25000000  0.61317600  1
  S  S15  1  0.73036000  0.75000000  0.38682400  1
loop_
_geom_bond_atom_site_label_1
_geom_bond_atom_site_label_2
_geom_bond_distance
_geom_bond_site_symmetry_2
Mg0 S8 2.404769 1_455
Mg0 S14 2.498878 1_555
Mg0 S2 2.513333 1_555
Mg0 S5 2.513333 1_555
Mg1 S9 2.404769 1_655
Mg1 S15 2.498878 1_555
Mg1 S4 2.513333 1_555
Mg1 S3 2.513333 1_555
Mg2 S10 2.404769 1_555
Mg2 S12 2.498878 1_556
Mg2 S7 2.513333 1_555
Mg2 S0 2.513333 1_555
Mg3 S11 2.404769 1_555
Mg3 S13 2.498878 1_554
Mg3 S6 2.513333 1_555
Mg3 S1 2.513333 1_555
S0 Sc1 2.629787 1_455
S0 Sc4 2.652991 1_556
S0 Sc5 2.655869 1_455
S1 Sc0 2.629787 1_655
S1 Sc5 2.652991 1_554
S1 Sc4 2.655869 1_655
S2 Sc3 2.629787 1_555
S2 Sc6 2.652991 1_555
S2 Sc7 2.655869 1_555
S3 Sc2 2.629787 1_555
S3 Sc7 2.652991 1_555
S3 Sc6 2.655869 1_555
S4 Sc2 2.629787 1_565
S4 Sc7 2.652991 1_565
S4 Sc6 2.655869 1_555
S5 Sc3 2.629787 1_545
S5 Sc6 2.652991 1_545
S5 Sc7 2.655869 1_555
S6 Sc0 2.629787 1_645
S6 Sc5 2.652991 1_544
S6 Sc4 2.655869 1_655
S7 Sc1 2.629787 1_465
S7 Sc4 2.652991 1_566
S7 Sc5 2.655869 1_455
S8 Sc7 2.468638 1_555
S8 Sc1 2.520069 1_555
S9 Sc6 2.468638 1_555
S9 Sc0 2.520069 1_555
S10 Sc5 2.468638 1_555
S10 Sc3 2.520069 1_556
S11 Sc4 2.468638 1_555
S11 Sc2 2.520069 1_554
S12 Sc3 2.490069 1_555
S12 Sc0 2.530664 1_555
S12 Sc5 2.598702 1_454
S13 Sc2 2.490069 1_555
S13 Sc1 2.530664 1_555
S13 Sc4 2.598702 1_656
S14 Sc1 2.490069 1_455
S14 Sc2 2.530664 1_555
S14 Sc7 2.598702 1_555
S15 Sc0 2.490069 1_655
S15 Sc3 2.530664 1_555
S15 Sc6 2.598702 1_555
