# generated using pymatgen
data_LiHf8(N2O)4
_symmetry_space_group_name_H-M   'P 1'
_cell_length_a   5.60457494
_cell_length_b   5.44826313
_cell_length_c   10.88920007
_cell_angle_alpha   87.54739056
_cell_angle_beta   70.02775739
_cell_angle_gamma   58.61214943
_symmetry_Int_Tables_number   1
_chemical_formula_structural   LiHf8(N2O)4
_chemical_formula_sum   'Li1 Hf8 N8 O4'
_cell_volume   262.96522331
_cell_formula_units_Z   1
loop_
 _symmetry_equiv_pos_site_id
 _symmetry_equiv_pos_as_xyz
  1  'x, y, z'
loop_
 _atom_site_type_symbol
 _atom_site_label
 _atom_site_symmetry_multiplicity
 _atom_site_fract_x
 _atom_site_fract_y
 _atom_site_fract_z
 _atom_site_occupancy
  Li  Li0  1  0.72905900  0.48950600  0.55914800  1
  Hf  Hf0  1  0.07911600  0.43890600  0.27714500  1
  Hf  Hf1  1  0.16502000  0.93781200  0.78222000  1
  Hf  Hf2  1  0.35879800  0.36896300  0.96861400  1
  Hf  Hf3  1  0.49861600  0.17849700  0.52011300  1
  Hf  Hf4  1  0.25721500  0.83472100  0.46190600  1
  Hf  Hf5  1  0.78000300  0.10882300  0.21672100  1
  Hf  Hf6  1  0.62735800  0.70719700  0.04512100  1
  Hf  Hf7  1  0.87456600  0.60701900  0.74675600  1
  N  N0  1  0.39441900  0.11436100  0.35780700  1
  N  N1  1  0.51073700  0.40208000  0.12610700  1
  N  N2  1  0.27804100  0.60003600  0.63410200  1
  N  N3  1  0.68507100  0.42724700  0.38123500  1
  N  N4  1  0.45963700  0.65616500  0.88201400  1
  N  N5  1  0.92107100  0.68506900  0.12985200  1
  N  N6  1  0.07015300  0.19950300  0.62461400  1
  N  N7  1  0.76548100  0.95126300  0.88969100  1
  O  O0  1  0.20876200  0.08289300  0.13432100  1
  O  O1  1  0.97265700  0.82546000  0.38406600  1
  O  O2  1  0.06617200  0.33769700  0.88854000  1
  O  O3  1  0.62896000  0.86335400  0.64018000  1
loop_
_geom_bond_atom_site_label_1
_geom_bond_atom_site_label_2
_geom_bond_distance
_geom_bond_site_symmetry_2
Li0 O3 1.966554 1_555
Li0 N6 2.085047 1_655
Li0 N3 2.097311 1_555
Li0 N2 2.113162 1_555
Hf0 O1 2.138543 1_455
Hf0 N3 2.143827 1_455
Hf0 N0 2.166424 1_555
Hf0 N5 2.169050 1_455
Hf0 O0 2.174191 1_555
Hf0 N1 2.324186 1_555
Hf1 N7 2.106033 1_455
Hf1 N4 2.169270 1_555
Hf1 N2 2.175124 1_555
Hf1 N6 2.210233 1_565
Hf1 O2 2.216839 1_565
Hf1 O3 2.350621 1_555
Hf2 N4 2.021862 1_555
Hf2 N7 2.130452 1_545
Hf2 O2 2.181665 1_555
Hf2 N1 2.209750 1_556
Hf2 N5 2.232154 1_456
Hf2 O0 2.545618 1_556
Hf3 O3 2.084434 1_545
Hf3 N0 2.134774 1_555
Hf3 N2 2.140529 1_555
Hf3 N6 2.220957 1_555
Hf3 O1 2.277048 1_545
Hf3 N3 2.331517 1_555
Hf4 O1 2.067705 1_455
Hf4 N3 2.152438 1_555
Hf4 N0 2.162075 1_565
Hf4 N2 2.225596 1_555
Hf4 N6 2.247259 1_565
Hf5 N1 2.043160 1_555
Hf5 N5 2.150516 1_545
Hf5 N0 2.167782 1_555
Hf5 O0 2.187193 1_655
Hf5 N3 2.270552 1_555
Hf5 O1 2.497363 1_545
Hf6 O0 2.061188 1_565
Hf6 N5 2.096876 1_555
Hf6 N1 2.140307 1_555
Hf6 N7 2.283997 1_554
Hf6 O2 2.297883 1_654
Hf6 N4 2.360187 1_554
Hf7 O3 2.035224 1_555
Hf7 N6 2.149813 1_655
Hf7 N2 2.153873 1_655
Hf7 N4 2.166628 1_555
Hf7 N7 2.172395 1_555
Hf7 O2 2.233224 1_655
