# generated using pymatgen
data_NdCdNi4
_symmetry_space_group_name_H-M   'P 1'
_cell_length_a   4.99559093
_cell_length_b   4.99560453
_cell_length_c   4.99560221
_cell_angle_alpha   60.00186552
_cell_angle_beta   60.00183429
_cell_angle_gamma   60.00182361
_symmetry_Int_Tables_number   1
_chemical_formula_structural   NdCdNi4
_chemical_formula_sum   'Nd1 Cd1 Ni4'
_cell_volume   88.15884657
_cell_formula_units_Z   1
loop_
 _symmetry_equiv_pos_site_id
 _symmetry_equiv_pos_as_xyz
  1  'x, y, z'
loop_
 _atom_site_type_symbol
 _atom_site_label
 _atom_site_symmetry_multiplicity
 _atom_site_fract_x
 _atom_site_fract_y
 _atom_site_fract_z
 _atom_site_occupancy
  Nd  Nd0  1  0.24999930  0.24999868  0.25000152  1
  Cd  Cd0  1  0.00000053  0.00000176  0.99999883  1
  Ni  Ni0  1  0.62645428  0.62645377  0.12063541  1
  Ni  Ni1  1  0.62645413  0.12063580  0.62645417  1
  Ni  Ni2  1  0.12063569  0.62645368  0.62645353  1
  Ni  Ni3  1  0.62645808  0.62645730  0.62645756  1
loop_
_geom_bond_atom_site_label_1
_geom_bond_atom_site_label_2
_geom_bond_distance
_geom_bond_site_symmetry_2
Nd0 Ni1 2.932063 1_555
Nd0 Ni2 2.932064 1_555
Nd0 Ni0 2.932068 1_555
Nd0 Ni1 2.932122 1_455
Nd0 Ni0 2.932127 1_455
Nd0 Ni2 2.932130 1_545
Nd0 Ni0 2.932134 1_545
Nd0 Ni1 2.932136 1_554
Nd0 Ni2 2.932141 1_554
Nd0 Ni3 2.932159 1_455
Nd0 Ni3 2.932163 1_545
Nd0 Ni3 2.932174 1_554
Cd0 Ni1 2.925876 1_455
Cd0 Ni0 2.925885 1_446
Cd0 Ni2 2.925888 1_545
Cd0 Ni1 2.925919 1_555
Cd0 Ni2 2.925922 1_555
Cd0 Ni0 2.925924 1_456
Cd0 Ni0 2.925925 1_546
Cd0 Ni1 2.925932 1_456
Cd0 Ni2 2.925932 1_546
Cd0 Ni3 2.925950 1_455
Cd0 Ni3 2.925955 1_545
Cd0 Ni3 2.925964 1_446
Cd0 Nd0 3.059118 1_556
Cd0 Nd0 3.059230 1_555
Cd0 Nd0 3.059237 1_456
Cd0 Nd0 3.059254 1_546
Ni0 Ni3 2.468698 1_554
Ni0 Ni2 2.468801 1_654
Ni0 Ni1 2.468805 1_564
Ni0 Ni3 2.526905 1_555
Ni0 Ni2 2.526934 1_555
Ni0 Ni1 2.526939 1_555
Ni1 Ni3 2.468702 1_545
Ni1 Ni2 2.468802 1_645
Ni1 Ni3 2.526903 1_555
Ni1 Ni2 2.526934 1_555
Ni2 Ni3 2.468690 1_455
Ni2 Ni3 2.526901 1_555
