# generated using pymatgen
data_K5Na3Nb7WO24
_symmetry_space_group_name_H-M   'P 1'
_cell_length_a   8.07001525
_cell_length_b   8.07001525
_cell_length_c   8.06887702
_cell_angle_alpha   89.99682656
_cell_angle_beta   89.99682656
_cell_angle_gamma   89.99519051
_symmetry_Int_Tables_number   1
_chemical_formula_structural   K5Na3Nb7WO24
_chemical_formula_sum   'K5 Na3 Nb7 W1 O24'
_cell_volume   525.48679146
_cell_formula_units_Z   1
loop_
 _symmetry_equiv_pos_site_id
 _symmetry_equiv_pos_as_xyz
  1  'x, y, z'
loop_
 _atom_site_type_symbol
 _atom_site_label
 _atom_site_symmetry_multiplicity
 _atom_site_fract_x
 _atom_site_fract_y
 _atom_site_fract_z
 _atom_site_occupancy
  K  K0  1  0.74927700  0.74927700  0.74927100  1
  K  K1  1  0.74926900  0.25070800  0.74926300  1
  K  K2  1  0.25070800  0.74926900  0.74926300  1
  K  K3  1  0.25072900  0.25072900  0.74927900  1
  K  K4  1  0.25072700  0.25072700  0.25072900  1
  Na  Na0  1  0.74926400  0.74926400  0.25074300  1
  Na  Na1  1  0.74927300  0.25073000  0.25075000  1
  Na  Na2  1  0.25073000  0.74927300  0.25075000  1
  Nb  Nb0  1  0.99967800  0.99967800  0.49860400  1
  Nb  Nb1  1  0.99968300  0.50046300  0.00095100  1
  Nb  Nb2  1  0.99965900  0.50035200  0.49894200  1
  Nb  Nb3  1  0.50046300  0.99968300  0.00095100  1
  Nb  Nb4  1  0.50035200  0.99965900  0.49894200  1
  Nb  Nb5  1  0.50035200  0.50035200  0.00102800  1
  Nb  Nb6  1  0.50036100  0.50036100  0.49891300  1
  W  W0  1  0.99971500  0.99971500  0.00086200  1
  O  O0  1  0.75629700  0.99986700  0.00194700  1
  O  O1  1  0.75121900  0.99987400  0.49797400  1
  O  O2  1  0.75122300  0.50010400  0.00200700  1
  O  O3  1  0.75044200  0.50011500  0.49804100  1
  O  O4  1  0.24348600  0.99908500  0.00118100  1
  O  O5  1  0.24877000  0.99905000  0.49882100  1
  O  O6  1  0.24876600  0.50097400  0.00120400  1
  O  O7  1  0.24955100  0.50093200  0.49884100  1
  O  O8  1  0.99986700  0.75629700  0.00194700  1
  O  O9  1  0.99987400  0.75121900  0.49797400  1
  O  O10  1  0.99908500  0.24348600  0.00118100  1
  O  O11  1  0.99905000  0.24877000  0.49882100  1
  O  O12  1  0.50010400  0.75122300  0.00200700  1
  O  O13  1  0.50011500  0.75044200  0.49804100  1
  O  O14  1  0.50097400  0.24876600  0.00120400  1
  O  O15  1  0.50093200  0.24955100  0.49884100  1
  O  O16  1  0.99986900  0.99986900  0.75672500  1
  O  O17  1  0.99910500  0.99910500  0.24391100  1
  O  O18  1  0.99987500  0.50010300  0.75125000  1
  O  O19  1  0.99907000  0.50095100  0.24878700  1
  O  O20  1  0.50010300  0.99987500  0.75125000  1
  O  O21  1  0.50095100  0.99907000  0.24878700  1
  O  O22  1  0.50011300  0.50011300  0.75046500  1
  O  O23  1  0.50091000  0.50091000  0.24955700  1
loop_
_geom_bond_atom_site_label_1
_geom_bond_atom_site_label_2
_geom_bond_distance
_geom_bond_site_symmetry_2
K0 O22 2.843775 1_555
K0 O20 2.851817 1_555
K0 O18 2.851817 1_555
K0 O13 2.855333 1_555
K0 O3 2.855333 1_555
K0 O16 2.860695 1_555
K0 O9 2.863753 1_555
K0 O1 2.863753 1_555
K0 O12 2.863905 1_556
K0 O2 2.863905 1_556
K0 O0 2.872283 1_556
K0 O8 2.872283 1_556
K1 O22 2.844867 1_555
K1 O15 2.846017 1_555
K1 O20 2.853355 1_545
K1 O18 2.853361 1_555
K1 O11 2.854218 1_555
K1 O14 2.854364 1_556
K1 O3 2.856523 1_555
K1 O16 2.861906 1_545
K1 O10 2.863564 1_556
K1 O1 2.865216 1_545
K1 O2 2.865376 1_556
K1 O0 2.873590 1_546
K2 O22 2.844867 1_555
K2 O7 2.846017 1_555
K2 O18 2.853355 1_455
K2 O20 2.853361 1_555
K2 O5 2.854218 1_555
K2 O6 2.854364 1_556
K2 O13 2.856523 1_555
K2 O16 2.861906 1_455
K2 O4 2.863564 1_556
K2 O9 2.865216 1_455
K2 O12 2.865376 1_556
K2 O8 2.873590 1_456
K3 O22 2.846287 1_555
K3 O18 2.854419 1_455
K3 O20 2.854419 1_545
K3 O15 2.856574 1_555
K3 O7 2.856574 1_555
K3 O16 2.863742 1_445
K3 O5 2.865308 1_545
K3 O11 2.865308 1_455
K3 O14 2.865498 1_556
K3 O6 2.865498 1_556
K3 O4 2.873730 1_546
K3 O10 2.873730 1_456
K4 O15 2.843497 1_555
K4 O7 2.843497 1_555
K4 O14 2.851647 1_555
K4 O6 2.851647 1_555
K4 O5 2.851703 1_545
K4 O11 2.851703 1_455
K4 O23 2.855405 1_555
K4 O4 2.860479 1_545
K4 O10 2.860479 1_455
K4 O21 2.863849 1_545
K4 O19 2.863849 1_455
K4 O17 2.872344 1_445
Na0 O13 2.832665 1_555
Na0 O3 2.832665 1_555
Na0 O23 2.834532 1_555
Na0 O9 2.840853 1_555
Na0 O1 2.840853 1_555
Na0 O12 2.841097 1_555
Na0 O2 2.841097 1_555
Na0 O21 2.842385 1_555
Na0 O19 2.842385 1_555
Na0 O8 2.850058 1_555
Na0 O0 2.850058 1_555
Na0 O17 2.852015 1_555
Na1 O15 2.832559 1_555
Na1 O3 2.834135 1_555
Na1 O14 2.840816 1_555
Na1 O11 2.840840 1_555
Na1 O1 2.842067 1_545
Na1 O2 2.842204 1_555
Na1 O23 2.844783 1_555
Na1 O10 2.849968 1_555
Na1 O0 2.851737 1_545
Na1 O21 2.853307 1_545
Na1 O19 2.853447 1_555
Na1 O17 2.861926 1_545
Na2 O7 2.832559 1_555
Na2 O13 2.834135 1_555
Na2 O6 2.840816 1_555
Na2 O5 2.840840 1_555
Na2 O9 2.842067 1_455
Na2 O12 2.842204 1_555
Na2 O23 2.844783 1_555
Na2 O4 2.849968 1_555
Na2 O8 2.851737 1_455
Na2 O19 2.853307 1_455
Na2 O21 2.853447 1_555
Na2 O17 2.861926 1_455
Nb0 O9 2.005075 1_555
Nb0 O1 2.005075 1_555
Nb0 O11 2.010183 1_565
Nb0 O5 2.010183 1_655
Nb0 O17 2.055097 1_555
Nb0 O16 2.082748 1_555
Nb1 O19 1.999768 1_555
Nb1 O2 2.005096 1_555
Nb1 O6 2.010109 1_655
Nb1 O18 2.014809 1_554
Nb1 O8 2.064601 1_555
Nb1 O10 2.073815 1_555
Nb2 O3 2.011200 1_555
Nb2 O7 2.016638 1_655
Nb2 O19 2.018481 1_555
Nb2 O9 2.024516 1_555
Nb2 O11 2.030277 1_555
Nb2 O18 2.035844 1_555
Nb3 O21 1.999768 1_555
Nb3 O12 2.005096 1_555
Nb3 O14 2.010109 1_565
Nb3 O20 2.014809 1_554
Nb3 O0 2.064601 1_555
Nb3 O4 2.073815 1_555
Nb4 O13 2.011200 1_555
Nb4 O15 2.016638 1_565
Nb4 O21 2.018481 1_555
Nb4 O1 2.024516 1_555
Nb4 O5 2.030277 1_555
Nb4 O20 2.035844 1_555
Nb5 O23 2.005361 1_555
Nb5 O22 2.021764 1_554
Nb5 O12 2.024549 1_555
Nb5 O2 2.024549 1_555
Nb5 O14 2.030309 1_555
Nb5 O6 2.030309 1_555
Nb6 O23 2.012032 1_555
Nb6 O3 2.018170 1_555
Nb6 O13 2.018170 1_555
Nb6 O15 2.024045 1_555
Nb6 O7 2.024045 1_555
Nb6 O22 2.029744 1_555
O0 W0 1.964406 1_555
O4 W0 1.967244 1_455
O8 W0 1.964406 1_555
O10 W0 1.967244 1_545
O16 W0 1.969912 1_556
O17 W0 1.961144 1_555
