# generated using pymatgen
data_Mn3Ge
_symmetry_space_group_name_H-M   'P 1'
_cell_length_a   5.17778582
_cell_length_b   5.17778582
_cell_length_c   4.17842600
_cell_angle_alpha   90.00000000
_cell_angle_beta   90.00000000
_cell_angle_gamma   119.99999766
_symmetry_Int_Tables_number   1
_chemical_formula_structural   Mn3Ge
_chemical_formula_sum   'Mn6 Ge2'
_cell_volume   97.01335416
_cell_formula_units_Z   2
loop_
 _symmetry_equiv_pos_site_id
 _symmetry_equiv_pos_as_xyz
  1  'x, y, z'
loop_
 _atom_site_type_symbol
 _atom_site_label
 _atom_site_symmetry_multiplicity
 _atom_site_fract_x
 _atom_site_fract_y
 _atom_site_fract_z
 _atom_site_occupancy
  Mn  Mn0  1  0.83866600  0.16133400  0.25000000  1
  Mn  Mn1  1  0.83866600  0.67733100  0.25000000  1
  Mn  Mn2  1  0.32266900  0.16133400  0.25000000  1
  Mn  Mn3  1  0.16133400  0.83866600  0.75000000  1
  Mn  Mn4  1  0.16133400  0.32266900  0.75000000  1
  Mn  Mn5  1  0.67733100  0.83866600  0.75000000  1
  Ge  Ge0  1  0.33333300  0.66666700  0.25000000  1
  Ge  Ge1  1  0.66666700  0.33333300  0.75000000  1
loop_
_geom_bond_atom_site_label_1
_geom_bond_atom_site_label_2
_geom_bond_distance
_geom_bond_site_symmetry_2
Mn0 Mn1 2.506064 1_545
Mn0 Mn2 2.506064 1_655
Mn0 Mn5 2.541310 1_545
Mn0 Mn5 2.541310 1_544
Mn0 Mn4 2.541310 1_655
Mn0 Mn4 2.541310 1_654
Mn0 Mn2 2.671722 1_555
Mn0 Mn1 2.671722 1_555
Mn1 Mn2 2.506064 1_665
Mn1 Mn3 2.541310 1_654
Mn1 Mn3 2.541310 1_655
Mn1 Mn5 2.541315 1_555
Mn1 Mn5 2.541315 1_554
Mn1 Mn2 2.671722 1_555
Mn2 Mn3 2.541310 1_544
Mn2 Mn3 2.541310 1_545
Mn2 Mn4 2.541315 1_554
Mn2 Mn4 2.541315 1_555
Mn3 Mn5 2.506064 1_455
Mn3 Mn4 2.506064 1_565
Mn3 Mn4 2.671722 1_555
Mn3 Mn5 2.671722 1_555
Mn4 Mn5 2.506064 1_445
Mn4 Mn5 2.671722 1_555
Ge0 Mn2 2.589329 1_565
Ge0 Mn1 2.589329 1_455
Ge0 Mn0 2.589335 1_565
Ge0 Mn0 2.589335 1_455
Ge0 Mn1 2.589340 1_555
Ge0 Mn2 2.589340 1_555
Ge0 Mn3 2.596955 1_554
Ge0 Mn3 2.596955 1_555
Ge0 Mn5 2.596955 1_555
Ge0 Mn4 2.596955 1_554
Ge0 Mn4 2.596955 1_555
Ge0 Mn5 2.596955 1_554
Ge1 Mn4 2.589329 1_655
Ge1 Mn5 2.589329 1_545
Ge1 Mn3 2.589335 1_655
Ge1 Mn3 2.589335 1_545
Ge1 Mn5 2.589340 1_555
Ge1 Mn4 2.589340 1_555
Ge1 Mn0 2.596955 1_555
Ge1 Mn0 2.596955 1_556
Ge1 Mn2 2.596955 1_555
Ge1 Mn2 2.596955 1_556
Ge1 Mn1 2.596955 1_556
Ge1 Mn1 2.596955 1_555
