# generated using pymatgen
data_Cd(CoO2)2
_symmetry_space_group_name_H-M   'P 1'
_cell_length_a   5.86139037
_cell_length_b   6.42509990
_cell_length_c   5.80046548
_cell_angle_alpha   62.86545974
_cell_angle_beta   90.75396720
_cell_angle_gamma   118.29026926
_symmetry_Int_Tables_number   1
_chemical_formula_structural   Cd(CoO2)2
_chemical_formula_sum   'Cd2 Co4 O8'
_cell_volume   165.34002325
_cell_formula_units_Z   2
loop_
 _symmetry_equiv_pos_site_id
 _symmetry_equiv_pos_as_xyz
  1  'x, y, z'
loop_
 _atom_site_type_symbol
 _atom_site_label
 _atom_site_symmetry_multiplicity
 _atom_site_fract_x
 _atom_site_fract_y
 _atom_site_fract_z
 _atom_site_occupancy
  Cd  Cd0  1  0.00679900  0.99628500  0.00435900  1
  Cd  Cd1  1  0.74320000  0.50371400  0.74564200  1
  Co  Co0  1  0.37500100  0.25000100  0.37500000  1
  Co  Co1  1  0.87500000  0.25000000  0.37500000  1
  Co  Co2  1  0.37500000  0.75000000  0.37500000  1
  Co  Co3  1  0.37500100  0.75000100  0.87500000  1
  O  O0  1  0.16166600  0.29630600  0.12750900  1
  O  O1  1  0.60481900  0.22077300  0.17617900  1
  O  O2  1  0.56844200  0.71359200  0.14570400  1
  O  O3  1  0.12758900  0.69059600  0.15413300  1
  O  O4  1  0.58833300  0.20369500  0.62249000  1
  O  O5  1  0.14518100  0.27922700  0.57382100  1
  O  O6  1  0.18155800  0.78640700  0.60429600  1
  O  O7  1  0.62241100  0.80940400  0.59586700  1
loop_
_geom_bond_atom_site_label_1
_geom_bond_atom_site_label_2
_geom_bond_distance
_geom_bond_site_symmetry_2
Cd0 O0 2.151860 1_565
Cd0 O5 2.171135 1_564
Cd0 O2 2.201467 1_455
Cd0 O3 2.204333 1_555
Cd1 O4 2.151858 1_555
Cd1 O1 2.171130 1_556
Cd1 O6 2.201471 1_655
Cd1 O7 2.204334 1_555
Co0 O4 1.904915 1_555
Co0 O0 1.904931 1_555
Co0 O5 1.912597 1_555
Co0 O1 1.912598 1_555
Co0 O2 2.269695 1_555
Co0 O6 2.269709 1_545
Co1 O1 1.934104 1_555
Co1 O5 1.934104 1_655
Co1 O0 2.042711 1_655
Co1 O4 2.042716 1_555
Co1 O3 2.148518 1_655
Co1 O7 2.148518 1_545
Co2 O6 1.919414 1_555
Co2 O2 1.919419 1_555
Co2 O7 1.939706 1_555
Co2 O3 1.939706 1_555
Co2 O1 2.300123 1_565
Co2 O5 2.300123 1_555
Co3 O2 1.917123 1_556
Co3 O6 1.917130 1_555
Co3 O7 1.960515 1_555
Co3 O3 1.960516 1_556
Co3 O4 2.214690 1_565
Co3 O0 2.214693 1_556
