# generated using pymatgen
data_La2Si2PbSe8
_symmetry_space_group_name_H-M   'P 1'
_cell_length_a   9.55111825
_cell_length_b   9.55111825
_cell_length_c   10.82437750
_cell_angle_alpha   65.30072898
_cell_angle_beta   65.30072898
_cell_angle_gamma   59.94065762
_symmetry_Int_Tables_number   1
_chemical_formula_structural   La2Si2PbSe8
_chemical_formula_sum   'La4 Si4 Pb2 Se16'
_cell_volume   748.64243290
_cell_formula_units_Z   2
loop_
 _symmetry_equiv_pos_site_id
 _symmetry_equiv_pos_as_xyz
  1  'x, y, z'
loop_
 _atom_site_type_symbol
 _atom_site_label
 _atom_site_symmetry_multiplicity
 _atom_site_fract_x
 _atom_site_fract_y
 _atom_site_fract_z
 _atom_site_occupancy
  La  La0  1  0.24831600  0.43987200  0.25239900  1
  La  La1  1  0.94396300  0.05918300  0.24598100  1
  La  La2  1  0.43987200  0.24831600  0.75239900  1
  La  La3  1  0.05918300  0.94396300  0.74598100  1
  Si  Si0  1  0.33082500  0.84896300  0.97847400  1
  Si  Si1  1  0.84896300  0.33082500  0.47847400  1
  Si  Si2  1  0.65318300  0.16603000  0.02234400  1
  Si  Si3  1  0.16603000  0.65318300  0.52234400  1
  Pb  Pb0  1  0.57022600  0.74848800  0.24998900  1
  Pb  Pb1  1  0.74848800  0.57022600  0.74998900  1
  Se  Se0  1  0.40703000  0.93105000  0.73687100  1
  Se  Se1  1  0.93105000  0.40703000  0.23687100  1
  Se  Se2  1  0.58696100  0.09519000  0.26337300  1
  Se  Se3  1  0.09519000  0.58696100  0.76337300  1
  Se  Se4  1  0.53045200  0.60986800  0.07435800  1
  Se  Se5  1  0.09701400  0.78936600  0.05585100  1
  Se  Se6  1  0.27273400  0.06953300  0.05193000  1
  Se  Se7  1  0.78936600  0.09701400  0.55585100  1
  Se  Se8  1  0.60986800  0.53045200  0.57435800  1
  Se  Se9  1  0.06953300  0.27273400  0.55193000  1
  Se  Se10  1  0.42723100  0.39594800  0.95337600  1
  Se  Se11  1  0.89007100  0.22051200  0.93159200  1
  Se  Se12  1  0.71093600  0.95705300  0.93346300  1
  Se  Se13  1  0.22051200  0.89007100  0.43159200  1
  Se  Se14  1  0.39594800  0.42723100  0.45337600  1
  Se  Se15  1  0.95705300  0.71093600  0.43346300  1
loop_
_geom_bond_atom_site_label_1
_geom_bond_atom_site_label_2
_geom_bond_distance
_geom_bond_site_symmetry_2
La0 Se14 2.984777 1_555
La0 Se10 3.060531 1_554
La0 Se5 3.091783 1_555
La0 Se9 3.123269 1_555
La0 Se2 3.262009 1_555
La0 Se1 3.275815 1_455
La0 Se15 3.278986 1_455
La0 Se4 3.322629 1_555
La1 Se6 2.984541 1_655
La1 Se15 3.058047 1_545
La1 Se7 3.146509 1_555
La1 Se2 3.181688 1_555
La1 Se1 3.223148 1_555
La1 Se11 3.241481 1_554
La1 Se13 3.327337 1_645
La1 Se5 3.340335 1_645
La2 Se10 2.984777 1_555
La2 Se14 3.060531 1_555
La2 Se7 3.091783 1_555
La2 Se6 3.123269 1_556
La2 Se3 3.262009 1_555
La2 Se0 3.275815 1_545
La2 Se12 3.278986 1_545
La2 Se8 3.322629 1_555
La3 Se9 2.984541 1_565
La3 Se12 3.058047 1_455
La3 Se5 3.146509 1_556
La3 Se3 3.181688 1_555
La3 Se0 3.223148 1_555
La3 Se13 3.241481 1_555
La3 Se11 3.327337 1_465
La3 Se7 3.340335 1_465
Pb0 Se4 2.953353 1_555
Pb0 Se13 3.009793 1_555
Pb0 Se12 3.262396 1_554
Pb0 Se8 3.319400 1_555
Pb0 Se1 3.354343 1_555
Pb1 Se8 2.953353 1_555
Pb1 Se11 3.009793 1_555
Pb1 Se15 3.262396 1_555
Pb1 Se4 3.319400 1_556
Pb1 Se0 3.354343 1_555
Se0 Si0 2.291535 1_555
Se1 Si1 2.291535 1_555
Se2 Si2 2.288902 1_555
Se3 Si3 2.288902 1_555
Se4 Si0 2.288805 1_554
Se5 Si0 2.307465 1_554
Se6 Si0 2.288760 1_544
Se7 Si1 2.307465 1_555
Se8 Si1 2.288805 1_555
Se9 Si1 2.288760 1_455
Se10 Si2 2.294719 1_556
Se11 Si2 2.291224 1_556
Se12 Si2 2.296101 1_566
Se13 Si3 2.291224 1_555
Se14 Si3 2.294719 1_555
Se15 Si3 2.296101 1_655
