# generated using pymatgen
data_HfGe2Ru
_symmetry_space_group_name_H-M   'P 1'
_cell_length_a   8.07864300
_cell_length_b   9.30961300
_cell_length_c   10.48103000
_cell_angle_alpha   90.00000000
_cell_angle_beta   90.00000000
_cell_angle_gamma   90.00000000
_symmetry_Int_Tables_number   1
_chemical_formula_structural   HfGe2Ru
_chemical_formula_sum   'Hf12 Ge24 Ru12'
_cell_volume   788.26820341
_cell_formula_units_Z   12
loop_
 _symmetry_equiv_pos_site_id
 _symmetry_equiv_pos_as_xyz
  1  'x, y, z'
loop_
 _atom_site_type_symbol
 _atom_site_label
 _atom_site_symmetry_multiplicity
 _atom_site_fract_x
 _atom_site_fract_y
 _atom_site_fract_z
 _atom_site_occupancy
  Hf  Hf0  1  0.24123100  0.82671300  0.45178000  1
  Hf  Hf1  1  0.24123100  0.17328700  0.54822000  1
  Hf  Hf2  1  0.75876900  0.32671300  0.04822000  1
  Hf  Hf3  1  0.75876900  0.67328700  0.95178000  1
  Hf  Hf4  1  0.75876900  0.17328700  0.54822000  1
  Hf  Hf5  1  0.75876900  0.82671300  0.45178000  1
  Hf  Hf6  1  0.24123100  0.67328700  0.95178000  1
  Hf  Hf7  1  0.24123100  0.32671300  0.04822000  1
  Hf  Hf8  1  0.00000000  0.83366600  0.18088300  1
  Hf  Hf9  1  0.00000000  0.16633400  0.81911700  1
  Hf  Hf10  1  0.00000000  0.33366600  0.31911700  1
  Hf  Hf11  1  0.00000000  0.66633400  0.68088300  1
  Ge  Ge0  1  0.34688400  0.84551600  0.18253900  1
  Ge  Ge1  1  0.34688400  0.15448400  0.81746100  1
  Ge  Ge2  1  0.65311600  0.34551600  0.31746100  1
  Ge  Ge3  1  0.65311600  0.65448400  0.68253900  1
  Ge  Ge4  1  0.65311600  0.15448400  0.81746100  1
  Ge  Ge5  1  0.65311600  0.84551600  0.18253900  1
  Ge  Ge6  1  0.34688400  0.65448400  0.68253900  1
  Ge  Ge7  1  0.34688400  0.34551600  0.31746100  1
  Ge  Ge8  1  0.50000000  0.54682500  0.11310700  1
  Ge  Ge9  1  0.50000000  0.45317500  0.88689300  1
  Ge  Ge10  1  0.50000000  0.04682500  0.38689300  1
  Ge  Ge11  1  0.50000000  0.95317500  0.61310700  1
  Ge  Ge12  1  0.00000000  0.53624100  0.11608800  1
  Ge  Ge13  1  0.00000000  0.46375900  0.88391200  1
  Ge  Ge14  1  0.00000000  0.03624100  0.38391200  1
  Ge  Ge15  1  0.00000000  0.96375900  0.61608800  1
  Ge  Ge16  1  0.50000000  0.63660900  0.40506400  1
  Ge  Ge17  1  0.50000000  0.36339100  0.59493600  1
  Ge  Ge18  1  0.50000000  0.13660900  0.09493600  1
  Ge  Ge19  1  0.50000000  0.86339100  0.90506400  1
  Ge  Ge20  1  0.00000000  0.63205300  0.40161100  1
  Ge  Ge21  1  0.00000000  0.36794700  0.59838900  1
  Ge  Ge22  1  0.00000000  0.13205300  0.09838900  1
  Ge  Ge23  1  0.00000000  0.86794700  0.90161100  1
  Ru  Ru0  1  0.25029000  0.59766300  0.24253900  1
  Ru  Ru1  1  0.25029000  0.40233700  0.75746100  1
  Ru  Ru2  1  0.74971000  0.09766300  0.25746100  1
  Ru  Ru3  1  0.74971000  0.90233700  0.74253900  1
  Ru  Ru4  1  0.74971000  0.40233700  0.75746100  1
  Ru  Ru5  1  0.74971000  0.59766300  0.24253900  1
  Ru  Ru6  1  0.25029000  0.90233700  0.74253900  1
  Ru  Ru7  1  0.25029000  0.09766300  0.25746100  1
  Ru  Ru8  1  0.24651700  0.50000000  0.50000000  1
  Ru  Ru9  1  0.75348300  0.00000000  0.00000000  1
  Ru  Ru10  1  0.75348300  0.50000000  0.50000000  1
  Ru  Ru11  1  0.24651700  0.00000000  0.00000000  1
loop_
_geom_bond_atom_site_label_1
_geom_bond_atom_site_label_2
_geom_bond_distance
_geom_bond_site_symmetry_2
Hf0 Ru0 3.059716 1_555
Hf0 Ru8 3.083570 1_555
Hf0 Ru6 3.128576 1_555
Hf0 Ru7 3.242847 1_565
Hf1 Ru1 3.059716 1_555
Hf1 Ru8 3.083570 1_555
Hf1 Ru7 3.128576 1_555
Hf1 Ru6 3.242847 1_545
Hf2 Ru2 3.059716 1_555
Hf2 Ru9 3.083570 1_555
Hf2 Ru4 3.128576 1_554
Hf2 Ru5 3.242847 1_555
Hf3 Ru3 3.059716 1_555
Hf3 Ru9 3.083570 1_566
Hf3 Ru5 3.128576 1_556
Hf3 Ru4 3.242847 1_555
Hf4 Ru4 3.059716 1_555
Hf4 Ru10 3.083570 1_555
Hf4 Ru2 3.128576 1_555
Hf4 Ru3 3.242847 1_545
Hf5 Ru5 3.059716 1_555
Hf5 Ru10 3.083570 1_555
Hf5 Ru3 3.128576 1_555
Hf5 Ru2 3.242847 1_565
Hf6 Ru6 3.059716 1_555
Hf6 Ru11 3.083570 1_566
Hf6 Ru0 3.128576 1_556
Hf6 Ru1 3.242847 1_555
Hf7 Ru7 3.059716 1_555
Hf7 Ru11 3.083570 1_555
Hf7 Ru1 3.128576 1_554
Hf7 Ru0 3.242847 1_555
Hf8 Ru5 3.055050 1_455
Hf8 Ru0 3.055050 1_555
Hf8 Ru9 3.155668 1_465
Hf8 Ru11 3.155668 1_565
Hf8 Ru2 3.282229 1_465
Hf8 Ru7 3.282229 1_565
Hf9 Ru4 3.055050 1_455
Hf9 Ru1 3.055050 1_555
Hf9 Ru9 3.155668 1_456
Hf9 Ru11 3.155668 1_556
Hf9 Ru3 3.282229 1_445
Hf9 Ru6 3.282229 1_545
Hf10 Ru2 3.055050 1_455
Hf10 Ru7 3.055050 1_555
Hf10 Ru10 3.155668 1_455
Hf10 Ru8 3.155668 1_555
Hf10 Ru5 3.282229 1_455
Hf10 Ru0 3.282229 1_555
Hf11 Ru3 3.055050 1_455
Hf11 Ru6 3.055050 1_555
Hf11 Ru10 3.155668 1_455
Hf11 Ru8 3.155668 1_555
Hf11 Ru4 3.282229 1_455
Hf11 Ru1 3.282229 1_555
Ge0 Ge5 2.473939 1_555
Ge0 Ru0 2.515666 1_555
Ge0 Ru11 2.527082 1_565
Ge0 Ru7 2.595346 1_565
Ge0 Hf8 2.804576 1_555
Ge0 Hf0 2.953373 1_555
Ge0 Hf6 3.024723 1_554
Ge1 Ge4 2.473939 1_555
Ge1 Ru1 2.515666 1_555
Ge1 Ru11 2.527082 1_556
Ge1 Ru6 2.595346 1_545
Ge1 Hf9 2.804576 1_555
Ge1 Hf1 2.953373 1_555
Ge1 Hf7 3.024723 1_556
Ge2 Ge7 2.473939 1_555
Ge2 Ru2 2.515666 1_555
Ge2 Ru10 2.527082 1_555
Ge2 Ru5 2.595346 1_555
Ge2 Hf10 2.804576 1_655
Ge2 Hf2 2.953373 1_555
Ge2 Hf4 3.024723 1_555
Ge3 Ge6 2.473939 1_555
Ge3 Ru3 2.515666 1_555
Ge3 Ru10 2.527082 1_555
Ge3 Ru4 2.595346 1_555
Ge3 Hf11 2.804576 1_655
Ge3 Hf3 2.953373 1_555
Ge3 Hf5 3.024723 1_555
Ge4 Ru4 2.515666 1_555
Ge4 Ru9 2.527082 1_556
Ge4 Ru3 2.595346 1_545
Ge4 Hf9 2.804576 1_655
Ge4 Hf4 2.953373 1_555
Ge4 Hf2 3.024723 1_556
Ge5 Ru5 2.515666 1_555
Ge5 Ru9 2.527082 1_565
Ge5 Ru2 2.595346 1_565
Ge5 Hf8 2.804576 1_655
Ge5 Hf5 2.953373 1_555
Ge5 Hf3 3.024723 1_554
Ge6 Ru6 2.515666 1_555
Ge6 Ru8 2.527082 1_555
Ge6 Ru1 2.595346 1_555
Ge6 Hf11 2.804576 1_555
Ge6 Hf6 2.953373 1_555
Ge6 Hf0 3.024723 1_555
Ge7 Ru7 2.515666 1_555
Ge7 Ru8 2.527082 1_555
Ge7 Ru0 2.595346 1_555
Ge7 Hf10 2.804576 1_555
Ge7 Hf7 2.953373 1_555
Ge7 Hf1 3.024723 1_555
Ge8 Ru0 2.476667 1_555
Ge8 Ru5 2.476667 1_555
Ge8 Ge9 2.526172 1_554
Ge8 Hf3 2.935186 1_554
Ge8 Hf6 2.935186 1_554
Ge8 Hf2 3.005289 1_555
Ge8 Hf7 3.005289 1_555
Ge9 Ru1 2.476667 1_555
Ge9 Ru4 2.476667 1_555
Ge9 Hf2 2.935186 1_556
Ge9 Hf7 2.935186 1_556
Ge9 Hf3 3.005289 1_555
Ge9 Hf6 3.005289 1_555
Ge10 Ru7 2.476667 1_555
Ge10 Ru2 2.476667 1_555
Ge10 Ge11 2.526172 1_545
Ge10 Hf4 2.935186 1_555
Ge10 Hf1 2.935186 1_555
Ge10 Hf5 3.005289 1_545
Ge10 Hf0 3.005289 1_545
Ge11 Ru6 2.476667 1_555
Ge11 Ru3 2.476667 1_555
Ge11 Hf5 2.935186 1_555
Ge11 Hf0 2.935186 1_555
Ge11 Hf4 3.005289 1_565
Ge11 Hf1 3.005289 1_565
Ge12 Ru5 2.484349 1_455
Ge12 Ru0 2.484349 1_555
Ge12 Ge13 2.525267 1_554
Ge12 Hf10 2.843375 1_555
Ge12 Hf7 2.847599 1_555
Ge12 Hf2 2.847599 1_455
Ge12 Hf8 2.850978 1_555
Ge12 Hf6 2.896785 1_554
Ge12 Hf3 2.896785 1_454
Ge13 Ru4 2.484349 1_455
Ge13 Ru1 2.484349 1_555
Ge13 Hf11 2.843375 1_555
Ge13 Hf6 2.847599 1_555
Ge13 Hf3 2.847599 1_455
Ge13 Hf9 2.850978 1_555
Ge13 Hf7 2.896785 1_556
Ge13 Hf2 2.896785 1_456
Ge14 Ru2 2.484349 1_455
Ge14 Ru7 2.484349 1_555
Ge14 Ge15 2.525267 1_545
Ge14 Hf8 2.843375 1_545
Ge14 Hf0 2.847599 1_545
Ge14 Hf5 2.847599 1_445
Ge14 Hf10 2.850978 1_555
Ge14 Hf1 2.896785 1_555
Ge14 Hf4 2.896785 1_455
Ge15 Ru3 2.484349 1_455
Ge15 Ru6 2.484349 1_555
Ge15 Hf9 2.843375 1_565
Ge15 Hf1 2.847599 1_565
Ge15 Hf4 2.847599 1_465
Ge15 Hf11 2.850978 1_555
Ge15 Hf0 2.896785 1_555
Ge15 Hf5 2.896785 1_455
Ge16 Ru8 2.607868 1_555
Ge16 Ru10 2.607868 1_555
Ge16 Ru0 2.665089 1_555
Ge16 Ru5 2.665089 1_555
Ge16 Hf5 2.782465 1_555
Ge16 Hf0 2.782465 1_555
Ge17 Ru8 2.607868 1_555
Ge17 Ru10 2.607868 1_555
Ge17 Ru1 2.665089 1_555
Ge17 Ru4 2.665089 1_555
Ge17 Hf4 2.782465 1_555
Ge17 Hf1 2.782465 1_555
Ge18 Ru11 2.607868 1_555
Ge18 Ru9 2.607868 1_555
Ge18 Ru7 2.665089 1_555
Ge18 Ru2 2.665089 1_555
Ge18 Hf2 2.782465 1_555
Ge18 Hf7 2.782465 1_555
Ge19 Ru11 2.607868 1_566
Ge19 Ru9 2.607868 1_566
Ge19 Ru6 2.665089 1_555
Ge19 Ru3 2.665089 1_555
Ge19 Hf3 2.782465 1_555
Ge19 Hf6 2.782465 1_555
Ge20 Ru10 2.557519 1_455
Ge20 Ru8 2.557519 1_555
Ge20 Ru5 2.640205 1_455
Ge20 Ru0 2.640205 1_555
Ge20 Hf0 2.712653 1_555
Ge20 Hf5 2.712653 1_455
Ge20 Hf10 2.909316 1_555
Ge20 Hf11 2.944405 1_555
Ge20 Hf8 2.979091 1_555
Ge21 Ru10 2.557519 1_455
Ge21 Ru8 2.557519 1_555
Ge21 Ru4 2.640205 1_455
Ge21 Ru1 2.640205 1_555
Ge21 Hf1 2.712653 1_555
Ge21 Hf4 2.712653 1_455
Ge21 Hf11 2.909316 1_555
Ge21 Hf10 2.944405 1_555
Ge21 Hf9 2.979091 1_555
Ge22 Ru11 2.557519 1_555
Ge22 Ru9 2.557519 1_455
Ge22 Ru2 2.640205 1_455
Ge22 Ru7 2.640205 1_555
Ge22 Hf7 2.712653 1_555
Ge22 Hf2 2.712653 1_455
Ge22 Hf8 2.909316 1_545
Ge22 Hf9 2.944405 1_554
Ge22 Hf10 2.979091 1_555
Ge23 Ru11 2.557519 1_566
Ge23 Ru9 2.557519 1_466
Ge23 Ru3 2.640205 1_455
Ge23 Ru6 2.640205 1_555
Ge23 Hf6 2.712653 1_555
Ge23 Hf3 2.712653 1_455
Ge23 Hf9 2.909316 1_565
Ge23 Hf8 2.944405 1_556
Ge23 Hf11 2.979091 1_555
Ru0 Ru8 2.847674 1_555
Ru1 Ru8 2.847674 1_555
Ru2 Ru9 2.847674 1_555
Ru3 Ru9 2.847674 1_566
Ru10 Ru4 2.847674 1_555
Ru10 Ru5 2.847674 1_555
Ru11 Ru7 2.847674 1_555
Ru11 Ru6 2.847674 1_544
