# generated using pymatgen
data_TeMoWSe2S
_symmetry_space_group_name_H-M   'P 1'
_cell_length_a   3.34307709
_cell_length_b   3.34307709
_cell_length_c   38.16836400
_cell_angle_alpha   90.00000000
_cell_angle_beta   90.00000000
_cell_angle_gamma   120.00002155
_symmetry_Int_Tables_number   1
_chemical_formula_structural   TeMoWSe2S
_chemical_formula_sum   'Te2 Mo2 W2 Se4 S2'
_cell_volume   369.42549602
_cell_formula_units_Z   2
loop_
 _symmetry_equiv_pos_site_id
 _symmetry_equiv_pos_as_xyz
  1  'x, y, z'
loop_
 _atom_site_type_symbol
 _atom_site_label
 _atom_site_symmetry_multiplicity
 _atom_site_fract_x
 _atom_site_fract_y
 _atom_site_fract_z
 _atom_site_occupancy
  Te  Te0  1  0.33333300  0.66666700  0.41967900  1
  Te  Te1  1  0.33333300  0.66666700  0.51960500  1
  Mo  Mo0  1  0.00000000  0.00000000  0.09393700  1
  Mo  Mo1  1  0.33333300  0.66666700  0.65755200  1
  W  W0  1  0.00000000  0.00000000  0.46964300  1
  W  W1  1  0.33333300  0.66666700  0.28180000  1
  Se  Se0  1  0.00000000  0.00000000  0.70117200  1
  Se  Se1  1  0.33333300  0.66666700  0.05030600  1
  Se  Se2  1  0.33333300  0.66666700  0.13754300  1
  Se  Se3  1  0.00000000  0.00000000  0.61393200  1
  S  S0  1  0.00000000  0.00000000  0.32170100  1
  S  S1  1  0.00000000  0.00000000  0.24187700  1
loop_
_geom_bond_atom_site_label_1
_geom_bond_atom_site_label_2
_geom_bond_distance
_geom_bond_site_symmetry_2
Te0 W0 2.713337 1_565
Te0 W0 2.713339 1_665
Te0 W0 2.713339 1_555
Te1 W0 2.713284 1_565
Te1 W0 2.713285 1_665
Te1 W0 2.713285 1_555
Mo0 Se2 2.548629 1_545
Mo0 Se2 2.548630 1_555
Mo0 Se2 2.548630 1_445
Mo0 Se1 2.549252 1_545
Mo0 Se1 2.549254 1_445
Mo0 Se1 2.549254 1_555
Mo1 Se0 2.548978 1_565
Mo1 Se3 2.548978 1_565
Mo1 Se0 2.548979 1_665
Mo1 Se0 2.548979 1_555
Mo1 Se3 2.548979 1_665
Mo1 Se3 2.548979 1_555
S0 W1 2.458613 1_545
S0 W1 2.458614 1_445
S0 W1 2.458614 1_555
S1 W1 2.459133 1_545
S1 W1 2.459135 1_445
S1 W1 2.459135 1_555
