# generated using pymatgen
data_Mg6MnB
_symmetry_space_group_name_H-M   'P 1'
_cell_length_a   4.67450000
_cell_length_b   6.06014800
_cell_length_c   10.51829400
_cell_angle_alpha   90.00000000
_cell_angle_beta   90.00000000
_cell_angle_gamma   90.00000000
_symmetry_Int_Tables_number   1
_chemical_formula_structural   Mg6MnB
_chemical_formula_sum   'Mg12 Mn2 B2'
_cell_volume   297.96393457
_cell_formula_units_Z   2
loop_
 _symmetry_equiv_pos_site_id
 _symmetry_equiv_pos_as_xyz
  1  'x, y, z'
loop_
 _atom_site_type_symbol
 _atom_site_label
 _atom_site_symmetry_multiplicity
 _atom_site_fract_x
 _atom_site_fract_y
 _atom_site_fract_z
 _atom_site_occupancy
  Mg  Mg0  1  0.50000000  0.24967800  0.41691300  1
  Mg  Mg1  1  0.50000000  0.75032200  0.41691300  1
  Mg  Mg2  1  0.00000000  0.74482300  0.08836300  1
  Mg  Mg3  1  0.00000000  0.25517700  0.08836300  1
  Mg  Mg4  1  0.00000000  0.00000000  0.32796000  1
  Mg  Mg5  1  0.00000000  0.50000000  0.32323900  1
  Mg  Mg6  1  0.50000000  0.74967800  0.91691300  1
  Mg  Mg7  1  0.50000000  0.25032200  0.91691300  1
  Mg  Mg8  1  0.00000000  0.24482300  0.58836300  1
  Mg  Mg9  1  0.00000000  0.75517700  0.58836300  1
  Mg  Mg10  1  0.00000000  0.50000000  0.82796000  1
  Mg  Mg11  1  0.00000000  0.00000000  0.82323900  1
  Mn  Mn0  1  0.50000000  0.00000000  0.16868400  1
  Mn  Mn1  1  0.50000000  0.50000000  0.66868400  1
  B  B0  1  0.50000000  0.50000000  0.16956200  1
  B  B1  1  0.50000000  0.00000000  0.66956200  1
loop_
_geom_bond_atom_site_label_1
_geom_bond_atom_site_label_2
_geom_bond_distance
_geom_bond_site_symmetry_2
Mg0 Mg4 2.937274 1_555
Mg0 Mg4 2.937274 1_655
Mg0 Mg8 2.952239 1_555
Mg0 Mg8 2.952239 1_655
Mg0 Mg5 2.955468 1_655
Mg0 Mg5 2.955468 1_555
Mg0 Mn0 3.017692 1_555
Mg0 Mg1 3.026171 1_545
Mg0 Mg1 3.033977 1_555
Mg0 Mn1 3.051921 1_555
Mg1 Mg4 2.937274 1_565
Mg1 Mg4 2.937274 1_665
Mg1 Mg9 2.952239 1_655
Mg1 Mg9 2.952239 1_555
Mg1 Mg5 2.955468 1_655
Mg1 Mg5 2.955468 1_555
Mg1 Mn0 3.017692 1_565
Mg1 Mn1 3.051921 1_555
Mg2 Mg5 2.881771 1_555
Mg2 Mn0 2.927094 1_565
Mg2 Mn0 2.927094 1_465
Mg2 Mg6 2.952239 1_554
Mg2 Mg6 2.952239 1_454
Mg2 Mg4 2.956780 1_565
Mg2 Mg3 2.967327 1_555
Mg2 Mg3 3.092821 1_565
Mg3 Mg5 2.881771 1_555
Mg3 Mn0 2.927094 1_455
Mg3 Mn0 2.927094 1_555
Mg3 Mg7 2.952239 1_454
Mg3 Mg7 2.952239 1_554
Mg3 Mg4 2.956780 1_555
Mg4 Mn0 2.875658 1_455
Mg4 Mn0 2.875658 1_555
Mg4 Mg5 3.030481 1_545
Mg4 Mg5 3.030481 1_555
Mg4 Mg8 3.115021 1_555
Mg4 Mg9 3.115021 1_545
Mg5 Mg9 3.188725 1_555
Mg5 Mg8 3.188725 1_555
Mg6 Mn1 3.017692 1_555
Mg6 Mg7 3.026171 1_555
Mg6 Mg7 3.033977 1_565
Mg6 Mn0 3.051921 1_566
Mg7 Mn1 3.017692 1_555
Mg7 Mn0 3.051921 1_556
Mg8 Mn1 2.927094 1_455
Mg8 Mn1 2.927094 1_555
Mg8 Mg9 2.967327 1_545
Mg8 Mg9 3.092821 1_555
Mg9 Mn1 2.927094 1_455
Mg9 Mn1 2.927094 1_555
Mg10 Mn1 2.875658 1_555
Mg10 Mn1 2.875658 1_455
Mg10 Mg7 2.937274 1_455
Mg10 Mg7 2.937274 1_555
Mg10 Mg6 2.937274 1_455
Mg10 Mg6 2.937274 1_555
Mg10 Mg9 2.956780 1_555
Mg10 Mg8 2.956780 1_555
Mg10 Mg11 3.030481 1_555
Mg10 Mg11 3.030481 1_565
Mg10 Mg3 3.115021 1_556
Mg10 Mg2 3.115021 1_556
Mg11 Mg8 2.881771 1_555
Mg11 Mg9 2.881771 1_545
Mg11 Mg7 2.955468 1_455
Mg11 Mg6 2.955468 1_545
Mg11 Mg7 2.955468 1_555
Mg11 Mg6 2.955468 1_445
Mg11 Mg3 3.188725 1_556
Mg11 Mg2 3.188725 1_546
B0 Mg5 2.841751 1_555
B0 Mg5 2.841751 1_655
B0 Mg2 2.897143 1_655
B0 Mg3 2.897143 1_555
B0 Mg3 2.897143 1_655
B0 Mg2 2.897143 1_555
B0 Mg1 3.011669 1_555
B0 Mg0 3.011669 1_555
B0 Mn0 3.030088 1_565
B0 Mn0 3.030088 1_555
B0 Mg6 3.058005 1_554
B0 Mg7 3.058005 1_554
B1 Mg11 2.841751 1_555
B1 Mg11 2.841751 1_655
B1 Mg8 2.897143 1_555
B1 Mg8 2.897143 1_655
B1 Mg9 2.897143 1_545
B1 Mg9 2.897143 1_645
B1 Mg7 3.011669 1_555
B1 Mg6 3.011669 1_545
B1 Mn1 3.030088 1_545
B1 Mn1 3.030088 1_555
B1 Mg0 3.058005 1_555
B1 Mg1 3.058005 1_545
