# generated using pymatgen
data_YSi2Ag3O7
_symmetry_space_group_name_H-M   'P 1'
_cell_length_a   9.57036953
_cell_length_b   9.57036953
_cell_length_c   14.11141200
_cell_angle_alpha   90.00000000
_cell_angle_beta   90.00000000
_cell_angle_gamma   119.99999675
_symmetry_Int_Tables_number   1
_chemical_formula_structural   YSi2Ag3O7
_chemical_formula_sum   'Y6 Si12 Ag18 O42'
_cell_volume   1119.33099992
_cell_formula_units_Z   6
loop_
 _symmetry_equiv_pos_site_id
 _symmetry_equiv_pos_as_xyz
  1  'x, y, z'
loop_
 _atom_site_type_symbol
 _atom_site_label
 _atom_site_symmetry_multiplicity
 _atom_site_fract_x
 _atom_site_fract_y
 _atom_site_fract_z
 _atom_site_occupancy
  Y  Y0  1  0.66666700  0.33333300  0.98186700  1
  Y  Y1  1  0.33333300  0.66666700  0.01813300  1
  Y  Y2  1  0.33333300  0.66666700  0.48186700  1
  Y  Y3  1  0.66666700  0.33333300  0.51813300  1
  Y  Y4  1  0.00000000  0.00000000  0.75000000  1
  Y  Y5  1  0.00000000  0.00000000  0.25000000  1
  Si  Si0  1  0.65231800  0.67128700  0.85875400  1
  Si  Si1  1  0.34768200  0.32871300  0.14124600  1
  Si  Si2  1  0.01896800  0.34768200  0.85875400  1
  Si  Si3  1  0.34768200  0.32871300  0.35875400  1
  Si  Si4  1  0.98103200  0.65231800  0.14124600  1
  Si  Si5  1  0.65231800  0.67128700  0.64124600  1
  Si  Si6  1  0.32871300  0.98103200  0.85875400  1
  Si  Si7  1  0.98103200  0.65231800  0.35875400  1
  Si  Si8  1  0.67128700  0.01896800  0.14124600  1
  Si  Si9  1  0.01896800  0.34768200  0.64124600  1
  Si  Si10  1  0.67128700  0.01896800  0.35875400  1
  Si  Si11  1  0.32871300  0.98103200  0.64124600  1
  Ag  Ag0  1  0.68420500  0.00807300  0.90711800  1
  Ag  Ag1  1  0.31579500  0.99192700  0.09288200  1
  Ag  Ag2  1  0.32386800  0.31579500  0.90711800  1
  Ag  Ag3  1  0.31579500  0.99192700  0.40711800  1
  Ag  Ag4  1  0.67613200  0.68420500  0.09288200  1
  Ag  Ag5  1  0.68420500  0.00807300  0.59288200  1
  Ag  Ag6  1  0.99192700  0.67613200  0.90711800  1
  Ag  Ag7  1  0.67613200  0.68420500  0.40711800  1
  Ag  Ag8  1  0.00807300  0.32386800  0.09288200  1
  Ag  Ag9  1  0.32386800  0.31579500  0.59288200  1
  Ag  Ag10  1  0.00807300  0.32386800  0.40711800  1
  Ag  Ag11  1  0.99192700  0.67613200  0.59288200  1
  Ag  Ag12  1  0.33333300  0.66666700  0.75000000  1
  Ag  Ag13  1  0.66666700  0.33333300  0.25000000  1
  Ag  Ag14  1  0.66666700  0.33333300  0.75000000  1
  Ag  Ag15  1  0.33333300  0.66666700  0.25000000  1
  Ag  Ag16  1  0.00000000  0.00000000  0.00000000  1
  Ag  Ag17  1  0.00000000  0.00000000  0.50000000  1
  O  O0  1  0.95049900  0.15195000  0.85620800  1
  O  O1  1  0.04950100  0.84805000  0.14379200  1
  O  O2  1  0.20145100  0.04950100  0.85620800  1
  O  O3  1  0.04950100  0.84805000  0.35620800  1
  O  O4  1  0.79854900  0.95049900  0.14379200  1
  O  O5  1  0.95049900  0.15195000  0.64379200  1
  O  O6  1  0.84805000  0.79854900  0.85620800  1
  O  O7  1  0.79854900  0.95049900  0.35620800  1
  O  O8  1  0.15195000  0.20145100  0.14379200  1
  O  O9  1  0.20145100  0.04950100  0.64379200  1
  O  O10  1  0.15195000  0.20145100  0.35620800  1
  O  O11  1  0.84805000  0.79854900  0.64379200  1
  O  O12  1  0.87715200  0.39078600  0.88232800  1
  O  O13  1  0.12284800  0.60921400  0.11767200  1
  O  O14  1  0.51363400  0.12284800  0.88232800  1
  O  O15  1  0.12284800  0.60921400  0.38232800  1
  O  O16  1  0.48636600  0.87715200  0.11767200  1
  O  O17  1  0.87715200  0.39078600  0.61767200  1
  O  O18  1  0.60921400  0.48636600  0.88232800  1
  O  O19  1  0.48636600  0.87715200  0.38232800  1
  O  O20  1  0.39078600  0.51363400  0.11767200  1
  O  O21  1  0.51363400  0.12284800  0.61767200  1
  O  O22  1  0.39078600  0.51363400  0.38232800  1
  O  O23  1  0.60921400  0.48636600  0.61767200  1
  O  O24  1  0.55741400  0.73115200  0.93050700  1
  O  O25  1  0.44258600  0.26884800  0.06949300  1
  O  O26  1  0.17373800  0.44258600  0.93050700  1
  O  O27  1  0.44258600  0.26884800  0.43050700  1
  O  O28  1  0.82626200  0.55741400  0.06949300  1
  O  O29  1  0.55741400  0.73115200  0.56949300  1
  O  O30  1  0.26884800  0.82626200  0.93050700  1
  O  O31  1  0.82626200  0.55741400  0.43050700  1
  O  O32  1  0.73115200  0.17373800  0.06949300  1
  O  O33  1  0.17373800  0.44258600  0.56949300  1
  O  O34  1  0.73115200  0.17373800  0.43050700  1
  O  O35  1  0.26884800  0.82626200  0.56949300  1
  O  O36  1  0.58284200  0.67634200  0.75000000  1
  O  O37  1  0.41715800  0.32365800  0.25000000  1
  O  O38  1  0.09350000  0.41715800  0.75000000  1
  O  O39  1  0.90650000  0.58284200  0.25000000  1
  O  O40  1  0.32365800  0.90650000  0.75000000  1
  O  O41  1  0.67634200  0.09350000  0.25000000  1
loop_
_geom_bond_atom_site_label_1
_geom_bond_atom_site_label_2
_geom_bond_distance
_geom_bond_site_symmetry_2
Ag0 O24 2.321470 1_545
Ag0 O0 2.323343 1_555
Ag0 O14 2.405595 1_555
Ag0 O32 2.693230 1_556
Ag1 O25 2.321470 1_565
Ag1 O1 2.323343 1_555
Ag1 O16 2.405595 1_555
Ag1 O30 2.693230 1_554
Ag2 O26 2.321470 1_555
Ag2 O2 2.323343 1_555
Ag2 O18 2.405595 1_555
Ag2 O25 2.693230 1_556
Ag3 O27 2.321470 1_565
Ag3 O3 2.323343 1_555
Ag3 O19 2.405595 1_555
Ag3 O35 2.693230 1_555
Ag4 O28 2.321470 1_555
Ag4 O4 2.323343 1_555
Ag4 O20 2.405595 1_555
Ag4 O24 2.693230 1_554
Ag5 O29 2.321470 1_545
Ag5 O5 2.323343 1_555
Ag5 O21 2.405595 1_555
Ag5 O34 2.693230 1_555
Ag6 O30 2.321470 1_655
Ag6 O6 2.323343 1_555
Ag6 O12 2.405595 1_555
Ag6 O28 2.693230 1_556
Ag7 O31 2.321470 1_555
Ag7 O7 2.323343 1_555
Ag7 O22 2.405595 1_555
Ag7 O29 2.693230 1_555
Ag8 O32 2.321470 1_455
Ag8 O8 2.323343 1_555
Ag8 O13 2.405595 1_555
Ag8 O26 2.693230 1_554
Ag9 O33 2.321470 1_555
Ag9 O9 2.323343 1_555
Ag9 O23 2.405595 1_555
Ag9 O27 2.693230 1_555
Ag10 O34 2.321470 1_455
Ag10 O10 2.323343 1_555
Ag10 O15 2.405595 1_555
Ag10 O33 2.693230 1_555
Ag11 O35 2.321470 1_655
Ag11 O11 2.323343 1_555
Ag11 O17 2.405595 1_555
Ag11 O31 2.693230 1_555
Ag12 O40 2.342960 1_555
Ag12 O38 2.342965 1_555
Ag12 O36 2.342969 1_555
Ag13 O41 2.342960 1_555
Ag13 O39 2.342965 1_555
Ag13 O37 2.342969 1_555
Ag14 O17 2.596061 1_555
Ag14 O12 2.596061 1_555
Ag14 O21 2.596063 1_555
Ag14 O14 2.596063 1_555
Ag14 O18 2.596068 1_555
Ag14 O23 2.596068 1_555
Ag15 O15 2.596061 1_555
Ag15 O13 2.596061 1_555
Ag15 O19 2.596063 1_555
Ag15 O16 2.596063 1_555
Ag15 O20 2.596068 1_555
Ag15 O22 2.596068 1_555
Ag16 O1 2.673086 1_545
Ag16 O0 2.673086 1_454
Ag16 O4 2.673086 1_445
Ag16 O2 2.673086 1_554
Ag16 O8 2.673086 1_555
Ag16 O6 2.673086 1_444
Ag17 O5 2.673086 1_455
Ag17 O3 2.673086 1_545
Ag17 O9 2.673086 1_555
Ag17 O7 2.673086 1_445
Ag17 O11 2.673086 1_445
Ag17 O10 2.673086 1_555
O0 Si2 1.646870 1_655
O0 Y4 2.296594 1_655
O1 Si4 1.646870 1_455
O1 Y5 2.296594 1_565
O2 Si6 1.646861 1_545
O2 Y4 2.296594 1_555
O3 Si7 1.646870 1_455
O3 Y5 2.296594 1_565
O4 Si8 1.646861 1_565
O4 Y5 2.296594 1_665
O5 Si9 1.646870 1_655
O5 Y4 2.296594 1_655
O6 Si0 1.646868 1_555
O6 Y4 2.296594 1_665
O7 Si10 1.646861 1_565
O7 Y5 2.296594 1_665
O8 Si1 1.646868 1_555
O8 Y5 2.296594 1_555
O9 Si11 1.646861 1_545
O9 Y4 2.296594 1_555
O10 Si3 1.646868 1_555
O10 Y5 2.296594 1_555
O11 Si5 1.646868 1_555
O11 Y4 2.296594 1_665
O12 Si2 1.637926 1_655
O12 Y0 2.285956 1_555
O13 Si4 1.637926 1_455
O13 Y1 2.285956 1_555
O14 Si6 1.637933 1_545
O14 Y0 2.285958 1_555
O15 Si7 1.637926 1_455
O15 Y2 2.285956 1_555
O16 Si8 1.637933 1_565
O16 Y1 2.285958 1_555
O17 Si9 1.637926 1_655
O17 Y3 2.285956 1_555
O18 Si0 1.637935 1_555
O18 Y0 2.285964 1_555
O19 Si10 1.637933 1_565
O19 Y2 2.285958 1_555
O20 Si1 1.637935 1_555
O20 Y1 2.285964 1_555
O21 Si11 1.637933 1_545
O21 Y3 2.285958 1_555
O22 Si3 1.637935 1_555
O22 Y2 2.285964 1_555
O23 Si5 1.637935 1_555
O23 Y3 2.285964 1_555
O24 Si0 1.642802 1_555
O24 Y1 2.277151 1_556
O25 Si1 1.642802 1_555
O25 Y0 2.277151 1_554
O26 Si2 1.642808 1_555
O26 Y1 2.277149 1_556
O27 Si3 1.642802 1_555
O27 Y3 2.277151 1_555
O28 Si4 1.642808 1_555
O28 Y0 2.277149 1_554
O29 Si5 1.642802 1_555
O29 Y2 2.277151 1_555
O30 Si6 1.642809 1_555
O30 Y1 2.277144 1_556
O31 Si7 1.642808 1_555
O31 Y3 2.277149 1_555
O32 Si8 1.642809 1_555
O32 Y0 2.277144 1_554
O33 Si9 1.642808 1_555
O33 Y2 2.277149 1_555
O34 Si10 1.642809 1_555
O34 Y3 2.277144 1_555
O35 Si11 1.642809 1_555
O35 Y2 2.277144 1_555
O36 Si0 1.682805 1_555
O36 Si5 1.682805 1_555
O37 Si3 1.682805 1_555
O37 Si1 1.682805 1_555
O38 Si2 1.682808 1_555
O38 Si9 1.682808 1_555
O39 Si7 1.682808 1_555
O39 Si4 1.682808 1_555
O40 Si6 1.682809 1_555
O40 Si11 1.682809 1_555
O41 Si10 1.682809 1_555
O41 Si8 1.682809 1_555
