# generated using pymatgen
data_Rb2Ba8Li(Sb3O)2
_symmetry_space_group_name_H-M   'P 1'
_cell_length_a   9.28588979
_cell_length_b   9.25302542
_cell_length_c   10.71809171
_cell_angle_alpha   117.80327014
_cell_angle_beta   118.03924320
_cell_angle_gamma   86.11830474
_symmetry_Int_Tables_number   1
_chemical_formula_structural   Rb2Ba8Li(Sb3O)2
_chemical_formula_sum   'Rb2 Ba8 Li1 Sb6 O2'
_cell_volume   705.31654238
_cell_formula_units_Z   1
loop_
 _symmetry_equiv_pos_site_id
 _symmetry_equiv_pos_as_xyz
  1  'x, y, z'
loop_
 _atom_site_type_symbol
 _atom_site_label
 _atom_site_symmetry_multiplicity
 _atom_site_fract_x
 _atom_site_fract_y
 _atom_site_fract_z
 _atom_site_occupancy
  Rb  Rb0  1  0.00795200  0.99707100  0.00187000  1
  Rb  Rb1  1  0.49719000  0.50836900  0.00346900  1
  Ba  Ba0  1  0.50218600  0.69395700  0.71157300  1
  Ba  Ba1  1  0.19347600  0.00324500  0.71158400  1
  Ba  Ba2  1  0.83662000  0.99906200  0.29200700  1
  Ba  Ba3  1  0.98052900  0.48067400  0.68198600  1
  Ba  Ba4  1  0.49763900  0.33162700  0.29273900  1
  Ba  Ba5  1  0.69141400  0.19254700  0.71734900  1
  Ba  Ba6  1  0.99483200  0.49549400  0.30751000  1
  Ba  Ba7  1  0.29325900  0.79440300  0.31874800  1
  Li  Li0  1  0.55165200  0.03869600  0.35089300  1
  Sb  Sb0  1  0.88138800  0.61249400  0.99636400  1
  Sb  Sb1  1  0.63464900  0.13458000  0.00688500  1
  Sb  Sb2  1  0.11200100  0.38194400  0.99730200  1
  Sb  Sb3  1  0.38576400  0.88585300  0.01600800  1
  Sb  Sb4  1  0.25732900  0.24217000  0.49747300  1
  Sb  Sb5  1  0.73971300  0.75886000  0.49558200  1
  O  O0  1  0.72716800  0.22525500  0.47873100  1
  O  O1  1  0.24381100  0.74512800  0.50942600  1
loop_
_geom_bond_atom_site_label_1
_geom_bond_atom_site_label_2
_geom_bond_distance
_geom_bond_site_symmetry_2
Rb0 Sb3 3.542198 1_555
Rb0 Sb1 3.626611 1_465
Rb0 Sb2 3.780388 1_564
Rb0 Sb0 3.788505 1_454
Rb0 Sb4 4.078050 1_565
Rb0 Sb5 4.169755 1_454
Rb1 Sb3 3.534443 1_555
Rb1 Sb1 3.615182 1_555
Rb1 Sb2 3.799816 1_554
Rb1 Sb0 3.801479 1_554
Rb1 Sb5 4.049559 1_555
Rb1 Sb4 4.167122 1_554
Ba0 O1 2.567269 1_555
Ba0 Sb1 3.624124 1_566
Ba0 Sb0 3.737180 1_555
Ba0 Sb4 3.917132 1_555
Ba0 Sb5 4.106293 1_555
Ba1 O1 2.567281 1_545
Ba1 Sb1 3.629451 1_556
Ba1 Sb2 3.746727 1_555
Ba1 Sb5 3.932269 1_445
Ba1 Sb4 4.085966 1_555
Ba2 O0 2.671252 1_565
Ba2 Sb1 3.506670 1_565
Ba2 Sb0 3.670378 1_554
Ba2 Sb4 3.694864 1_665
Ba2 Sb5 4.141413 1_555
Ba3 O0 2.645340 1_555
Ba3 Sb2 3.549197 1_655
Ba3 Sb0 3.552369 1_555
Ba3 Sb4 3.915032 1_655
Ba3 Sb5 3.928842 1_555
Ba4 O0 2.652792 1_555
Ba4 Sb1 3.531193 1_555
Ba4 Sb2 3.681855 1_554
Ba4 Sb5 3.741420 1_555
Ba4 Sb4 4.126512 1_555
Ba5 O0 2.876936 1_555
Ba5 Sb0 3.504612 1_555
Ba5 Sb2 3.511624 1_655
Ba5 Sb1 3.650312 1_556
Ba5 Sb5 3.716834 1_545
Ba5 Sb4 3.720288 1_555
Ba6 O1 2.592297 1_655
Ba6 Sb0 3.648840 1_554
Ba6 Sb2 3.650975 1_654
Ba6 Sb1 3.750128 1_555
Ba6 Sb4 3.820217 1_655
Ba6 Sb5 3.839213 1_555
Ba7 O1 2.524936 1_555
Ba7 Sb2 3.524227 1_554
Ba7 Sb0 3.524436 1_454
Ba7 Sb5 3.727880 1_555
Ba7 Sb4 3.735867 1_565
Li0 O0 1.894344 1_555
Li0 Sb3 2.759999 1_545
Sb0 Sb2 2.918570 1_655
