# generated using pymatgen
data_TaBeB
_symmetry_space_group_name_H-M   'P 1'
_cell_length_a   3.24988426
_cell_length_b   3.24992415
_cell_length_c   3.24610302
_cell_angle_alpha   89.99999898
_cell_angle_beta   89.99999784
_cell_angle_gamma   119.99971650
_symmetry_Int_Tables_number   1
_chemical_formula_structural   TaBeB
_chemical_formula_sum   'Ta1 Be1 B1'
_cell_volume   29.69171548
_cell_formula_units_Z   1
loop_
 _symmetry_equiv_pos_site_id
 _symmetry_equiv_pos_as_xyz
  1  'x, y, z'
loop_
 _atom_site_type_symbol
 _atom_site_label
 _atom_site_symmetry_multiplicity
 _atom_site_fract_x
 _atom_site_fract_y
 _atom_site_fract_z
 _atom_site_occupancy
  Ta  Ta0  1  0.99997006  0.00000433  0.00000001  1
  Be  Be0  1  0.33330501  0.66666863  0.49999998  1
  B  B0  1  0.66662392  0.33332705  0.50000000  1
loop_
_geom_bond_atom_site_label_1
_geom_bond_atom_site_label_2
_geom_bond_distance
_geom_bond_site_symmetry_2
Be0 Ta0 2.480903 1_565
Be0 Ta0 2.480904 1_566
Be0 Ta0 2.480918 1_465
Be0 Ta0 2.480918 1_466
Be0 Ta0 2.480919 1_455
Be0 Ta0 2.480919 1_456
B0 Be0 1.876313 1_555
B0 Be0 1.876327 1_545
B0 Be0 1.876368 1_655
B0 Ta0 2.480880 1_456
B0 Ta0 2.480880 1_455
B0 Ta0 2.480914 1_555
B0 Ta0 2.480914 1_556
B0 Ta0 2.480947 1_565
B0 Ta0 2.480947 1_566
