# generated using pymatgen
data_ThTaN3
_symmetry_space_group_name_H-M   'P 1'
_cell_length_a   4.06443700
_cell_length_b   4.06443700
_cell_length_c   4.06443700
_cell_angle_alpha   90.00000000
_cell_angle_beta   90.00000000
_cell_angle_gamma   90.00000000
_symmetry_Int_Tables_number   1
_chemical_formula_structural   ThTaN3
_chemical_formula_sum   'Th1 Ta1 N3'
_cell_volume   67.14306907
_cell_formula_units_Z   1
loop_
 _symmetry_equiv_pos_site_id
 _symmetry_equiv_pos_as_xyz
  1  'x, y, z'
loop_
 _atom_site_type_symbol
 _atom_site_label
 _atom_site_symmetry_multiplicity
 _atom_site_fract_x
 _atom_site_fract_y
 _atom_site_fract_z
 _atom_site_occupancy
  Th  Th0  1  0.00000000  0.00000000  0.00000000  1
  Ta  Ta0  1  0.50000000  0.50000000  0.50000000  1
  N  N0  1  0.50000000  0.00000000  0.50000000  1
  N  N1  1  0.50000000  0.50000000  0.00000000  1
  N  N2  1  0.00000000  0.50000000  0.50000000  1
loop_
_geom_bond_atom_site_label_1
_geom_bond_atom_site_label_2
_geom_bond_distance
_geom_bond_site_symmetry_2
N0 Ta0 2.032218 1_555
N0 Ta0 2.032218 1_545
N0 Th0 2.873991 1_556
N0 Th0 2.873991 1_655
N0 Th0 2.873991 1_656
N0 Th0 2.873991 1_555
N1 Ta0 2.032218 1_554
N1 Ta0 2.032218 1_555
N1 Th0 2.873991 1_655
N1 Th0 2.873991 1_565
N1 Th0 2.873991 1_665
N1 Th0 2.873991 1_555
N2 Ta0 2.032218 1_555
N2 Ta0 2.032218 1_455
N2 Th0 2.873991 1_556
N2 Th0 2.873991 1_566
N2 Th0 2.873991 1_565
N2 Th0 2.873991 1_555
