# generated using pymatgen
data_Mn2CuH16(C2N11)2
_symmetry_space_group_name_H-M   'P 1'
_cell_length_a   6.32677408
_cell_length_b   9.38995900
_cell_length_c   9.38995900
_cell_angle_alpha   119.33332636
_cell_angle_beta   92.04376780
_cell_angle_gamma   92.04376780
_symmetry_Int_Tables_number   1
_chemical_formula_structural   Mn2CuH16(C2N11)2
_chemical_formula_sum   'Mn2 Cu1 H16 C4 N22'
_cell_volume   485.10229117
_cell_formula_units_Z   1
loop_
 _symmetry_equiv_pos_site_id
 _symmetry_equiv_pos_as_xyz
  1  'x, y, z'
loop_
 _atom_site_type_symbol
 _atom_site_label
 _atom_site_symmetry_multiplicity
 _atom_site_fract_x
 _atom_site_fract_y
 _atom_site_fract_z
 _atom_site_occupancy
  Mn  Mn0  1  0.50000000  0.61064500  0.38935500  1
  Mn  Mn1  1  0.50000000  0.38935500  0.61064500  1
  Cu  Cu0  1  0.00000000  0.00000000  0.00000000  1
  H  H0  1  0.03563000  0.64416700  0.08836900  1
  H  H1  1  0.03563000  0.08836900  0.64416700  1
  H  H2  1  0.96437000  0.35583300  0.91163100  1
  H  H3  1  0.96437000  0.91163100  0.35583300  1
  H  H4  1  0.23901300  0.80209900  0.17471100  1
  H  H5  1  0.23901300  0.17471100  0.80209900  1
  H  H6  1  0.76098700  0.19790100  0.82528900  1
  H  H7  1  0.76098700  0.82528900  0.19790100  1
  H  H8  1  0.98276300  0.68905400  0.87133400  1
  H  H9  1  0.98276300  0.87133400  0.68905400  1
  H  H10  1  0.01723700  0.31094600  0.12866600  1
  H  H11  1  0.01723700  0.12866600  0.31094600  1
  H  H12  1  0.23259200  0.75548600  0.91972200  1
  H  H13  1  0.23259200  0.91972200  0.75548600  1
  H  H14  1  0.76740800  0.24451400  0.08027800  1
  H  H15  1  0.76740800  0.08027800  0.24451400  1
  C  C0  1  0.07890700  0.76971000  0.11537600  1
  C  C1  1  0.07890700  0.11537600  0.76971000  1
  C  C2  1  0.92109300  0.23029000  0.88462400  1
  C  C3  1  0.92109300  0.88462400  0.23029000  1
  N  N0  1  0.63988400  0.87075700  0.87075700  1
  N  N1  1  0.36011600  0.12924300  0.12924300  1
  N  N2  1  0.46352100  0.64113000  0.64113000  1
  N  N3  1  0.53647900  0.35887000  0.35887000  1
  N  N4  1  0.55516700  0.75728900  0.75728900  1
  N  N5  1  0.44483300  0.24271100  0.24271100  1
  N  N6  1  0.44025100  0.86877100  0.47626600  1
  N  N7  1  0.44025100  0.47626600  0.86877100  1
  N  N8  1  0.55974900  0.13122900  0.52373400  1
  N  N9  1  0.55974900  0.52373400  0.13122900  1
  N  N10  1  0.50000000  0.00000000  0.50000000  1
  N  N11  1  0.50000000  0.50000000  0.00000000  1
  N  N12  1  0.84735400  0.67654600  0.45495500  1
  N  N13  1  0.84735400  0.45495500  0.67654600  1
  N  N14  1  0.15264600  0.32345400  0.54504500  1
  N  N15  1  0.15264600  0.54504500  0.32345400  1
  N  N16  1  0.00000000  0.61051500  0.38948500  1
  N  N17  1  0.00000000  0.38948500  0.61051500  1
  N  N18  1  0.08398900  0.77845000  0.96192000  1
  N  N19  1  0.08398900  0.96192000  0.77845000  1
  N  N20  1  0.91601100  0.22155000  0.03808000  1
  N  N21  1  0.91601100  0.03808000  0.22155000  1
loop_
_geom_bond_atom_site_label_1
_geom_bond_atom_site_label_2
_geom_bond_distance
_geom_bond_site_symmetry_2
Mn0 N9 2.198406 1_555
Mn0 N6 2.198406 1_555
Mn0 N15 2.241633 1_555
Mn0 N12 2.241633 1_555
Mn0 N3 2.259427 1_555
Mn0 N2 2.259427 1_555
Mn1 N7 2.198406 1_555
Mn1 N8 2.198406 1_555
Mn1 N14 2.241633 1_555
Mn1 N13 2.241633 1_555
Mn1 N2 2.259427 1_555
Mn1 N3 2.259427 1_555
Cu0 N20 2.025248 1_455
Cu0 N21 2.025248 1_455
Cu0 N19 2.025248 1_544
Cu0 N18 2.025248 1_544
Cu0 N0 2.509805 1_444
Cu0 N1 2.509805 1_555
H8 N18 1.030307 1_655
H9 N19 1.030307 1_655
H10 N20 1.030307 1_455
H11 N21 1.030307 1_455
H12 N18 1.022131 1_555
H13 N19 1.022131 1_555
H14 N20 1.022131 1_555
H15 N21 1.022131 1_555
C0 H4 1.095784 1_555
C0 H0 1.099124 1_555
C0 N18 1.484276 1_554
C1 H5 1.095784 1_555
C1 H1 1.099124 1_555
C1 N19 1.484276 1_545
C2 H6 1.095784 1_555
C2 H2 1.099124 1_555
C2 N20 1.484276 1_556
C3 H7 1.095784 1_555
C3 H3 1.099124 1_555
C3 N21 1.484276 1_565
N0 N4 1.167894 1_555
N1 N5 1.167894 1_555
N2 N4 1.208190 1_555
N3 N5 1.208190 1_555
N10 N8 1.184344 1_555
N10 N6 1.184344 1_545
N11 N9 1.184344 1_555
N11 N7 1.184344 1_554
N12 N16 1.186021 1_655
N13 N17 1.186021 1_655
N14 N17 1.186021 1_555
N15 N16 1.186021 1_555
