# generated using pymatgen
data_Te4Xe(OF5)4
_symmetry_space_group_name_H-M   'P 1'
_cell_length_a   5.71099800
_cell_length_b   8.84720065
_cell_length_c   10.55591560
_cell_angle_alpha   109.77399924
_cell_angle_beta   97.92283498
_cell_angle_gamma   91.23994234
_symmetry_Int_Tables_number   1
_chemical_formula_structural   Te4Xe(OF5)4
_chemical_formula_sum   'Te4 Xe1 O4 F20'
_cell_volume   495.77616286
_cell_formula_units_Z   1
loop_
 _symmetry_equiv_pos_site_id
 _symmetry_equiv_pos_as_xyz
  1  'x, y, z'
loop_
 _atom_site_type_symbol
 _atom_site_label
 _atom_site_symmetry_multiplicity
 _atom_site_fract_x
 _atom_site_fract_y
 _atom_site_fract_z
 _atom_site_occupancy
  Te  Te0  1  0.26256600  0.09957400  0.74109700  1
  Te  Te1  1  0.73743400  0.90042600  0.25890300  1
  Te  Te2  1  0.22702700  0.39262100  0.25182700  1
  Te  Te3  1  0.77297300  0.60737900  0.74817300  1
  Xe  Xe0  1  0.00000000  0.00000000  0.00000000  1
  O  O0  1  0.76441700  0.03334200  0.14897600  1
  O  O1  1  0.23558300  0.96665800  0.85102400  1
  O  O2  1  0.26285300  0.16981800  0.14990100  1
  O  O3  1  0.73714700  0.83018200  0.85009900  1
  F  F0  1  0.13164600  0.27081200  0.86431500  1
  F  F1  1  0.86835400  0.72918800  0.13568500  1
  F  F2  1  0.08431000  0.33543300  0.37996800  1
  F  F3  1  0.91569000  0.66456700  0.62003200  1
  F  F4  1  0.30130200  0.22890200  0.63715700  1
  F  F5  1  0.69869800  0.77109800  0.36284300  1
  F  F6  1  0.92795100  0.38561500  0.14882000  1
  F  F7  1  0.07204900  0.61438500  0.85118000  1
  F  F8  1  0.60921100  0.06893000  0.38425200  1
  F  F9  1  0.39078900  0.93107000  0.61574800  1
  F  F10  1  0.37144000  0.46451400  0.13187400  1
  F  F11  1  0.62856000  0.53548600  0.86812600  1
  F  F12  1  0.52668800  0.40147200  0.35277700  1
  F  F13  1  0.47331200  0.59852800  0.64722300  1
  F  F14  1  0.04235400  0.96933900  0.35712500  1
  F  F15  1  0.95764600  0.03066100  0.64287500  1
  F  F16  1  0.43150800  0.82371200  0.16292600  1
  F  F17  1  0.56849200  0.17628800  0.83707400  1
  F  F18  1  0.19437700  0.60722200  0.35292100  1
  F  F19  1  0.80562300  0.39277800  0.64707900  1
loop_
_geom_bond_atom_site_label_1
_geom_bond_atom_site_label_2
_geom_bond_distance
_geom_bond_site_symmetry_2
O0 Te1 1.928153 1_545
O0 Xe0 2.157946 1_655
O1 Te0 1.928153 1_565
O1 Xe0 2.157946 1_566
O2 Te2 1.930846 1_555
O2 Xe0 2.157202 1_555
O3 Te3 1.930846 1_555
O3 Xe0 2.157202 1_666
F0 Te0 1.878773 1_555
F1 Te1 1.878773 1_555
F2 Te2 1.870589 1_555
F3 Te3 1.870589 1_555
F4 Te0 1.862068 1_555
F5 Te1 1.862068 1_555
F6 Te2 1.881835 1_655
F7 Te3 1.881835 1_455
F8 Te1 1.867927 1_545
F9 Te0 1.867927 1_565
F10 Te2 1.870343 1_555
F11 Te3 1.870343 1_555
F12 Te2 1.872281 1_555
F13 Te3 1.872281 1_555
F14 Te1 1.872905 1_455
F15 Te0 1.872905 1_655
F16 Te1 1.880166 1_555
F17 Te0 1.880166 1_555
F18 Te2 1.864829 1_555
F19 Te3 1.864829 1_555
