# generated using pymatgen
data_Mg2VCr3S8
_symmetry_space_group_name_H-M   'P 1'
_cell_length_a   7.23511240
_cell_length_b   7.23118159
_cell_length_c   7.22642154
_cell_angle_alpha   60.08021631
_cell_angle_beta   60.07905826
_cell_angle_gamma   60.06443593
_symmetry_Int_Tables_number   1
_chemical_formula_structural   Mg2VCr3S8
_chemical_formula_sum   'Mg2 V1 Cr3 S8'
_cell_volume   267.79108608
_cell_formula_units_Z   1
loop_
 _symmetry_equiv_pos_site_id
 _symmetry_equiv_pos_as_xyz
  1  'x, y, z'
loop_
 _atom_site_type_symbol
 _atom_site_label
 _atom_site_symmetry_multiplicity
 _atom_site_fract_x
 _atom_site_fract_y
 _atom_site_fract_z
 _atom_site_occupancy
  Mg  Mg0  1  0.87521259  0.87521119  0.87521919  1
  Mg  Mg1  1  0.12478087  0.12477893  0.12479481  1
  V  V0  1  0.49999947  0.50001701  0.49998110  1
  Cr  Cr0  1  0.49999427  0.49999673  -0.00000370  1
  Cr  Cr1  1  0.00001533  0.50001731  0.49998853  1
  Cr  Cr2  1  0.50001098  0.99998886  0.50000486  1
  S  S0  1  0.73677581  0.73685713  0.73684655  1
  S  S1  1  0.26220825  0.26234898  0.71159494  1
  S  S2  1  0.26220515  0.71161488  0.26227493  1
  S  S3  1  0.71161762  0.26227402  0.26218229  1
  S  S4  1  0.73777599  0.28840201  0.73771037  1
  S  S5  1  0.28837581  0.73771725  0.73782853  1
  S  S6  1  0.26322234  0.26312528  0.26316907  1
  S  S7  1  0.73780951  0.73764542  0.28840955  1
loop_
_geom_bond_atom_site_label_1
_geom_bond_atom_site_label_2
_geom_bond_distance
_geom_bond_site_symmetry_2
Mg0 S7 2.440504 1_556
Mg0 S4 2.441756 1_565
Mg0 S5 2.442892 1_655
Mg0 S0 2.449747 1_555
Mg1 S1 2.440561 1_554
Mg1 S2 2.441597 1_545
Mg1 S3 2.442893 1_455
Mg1 S6 2.449739 1_555
Cr0 S4 2.430273 1_554
Cr0 S5 2.430347 1_554
Cr0 S2 2.430347 1_555
Cr0 S3 2.430468 1_555
Cr0 S0 2.431880 1_554
Cr0 S6 2.431900 1_555
Cr1 S0 2.430406 1_455
Cr1 S6 2.430453 1_555
Cr1 S7 2.430761 1_455
Cr1 S1 2.430825 1_555
Cr1 S2 2.431994 1_555
Cr1 S4 2.432345 1_455
Cr2 S0 2.430485 1_555
Cr2 S6 2.430574 1_565
Cr2 S7 2.430782 1_555
Cr2 S1 2.430847 1_565
Cr2 S3 2.432346 1_565
Cr2 S5 2.432411 1_555
S1 V0 2.440639 1_555
S2 V0 2.439445 1_555
S3 V0 2.438858 1_555
S4 V0 2.439464 1_555
S5 V0 2.438886 1_555
S7 V0 2.440551 1_555
