# generated using pymatgen
data_Nb3S4
_symmetry_space_group_name_H-M   'P 1'
_cell_length_a   9.67466317
_cell_length_b   9.67466519
_cell_length_c   3.40989076
_cell_angle_alpha   90.00000000
_cell_angle_beta   90.00000000
_cell_angle_gamma   120.00000000
_symmetry_Int_Tables_number   1
_chemical_formula_structural   Nb3S4
_chemical_formula_sum   'Nb6 S8'
_cell_volume   276.40309124
_cell_formula_units_Z   2
loop_
 _symmetry_equiv_pos_site_id
 _symmetry_equiv_pos_as_xyz
  1  'x, y, z'
loop_
 _atom_site_type_symbol
 _atom_site_label
 _atom_site_symmetry_multiplicity
 _atom_site_fract_x
 _atom_site_fract_y
 _atom_site_fract_z
 _atom_site_occupancy
  Nb  Nb0  1  0.51483784  0.88793127  0.75000000  1
  Nb  Nb1  1  0.62690658  0.51483784  0.25000000  1
  Nb  Nb2  1  0.88793127  0.37309342  0.25000000  1
  Nb  Nb3  1  0.11206873  0.62690658  0.75000000  1
  Nb  Nb4  1  0.37309342  0.48516216  0.75000000  1
  Nb  Nb5  1  0.48516216  0.11206873  0.25000000  1
  S  S0  1  0.65388580  0.71154077  0.75000000  1
  S  S1  1  0.94234603  0.65388580  0.25000000  1
  S  S2  1  0.71154077  0.05765397  0.25000000  1
  S  S3  1  0.28845923  0.94234603  0.75000000  1
  S  S4  1  0.05765397  0.34611420  0.75000000  1
  S  S5  1  0.34611420  0.28845923  0.25000000  1
  S  S6  1  0.33333300  0.66666700  0.25000000  1
  S  S7  1  0.66666700  0.33333300  0.75000000  1
loop_
_geom_bond_atom_site_label_1
_geom_bond_atom_site_label_2
_geom_bond_distance
_geom_bond_site_symmetry_2
Nb0 S2 2.469772 1_566
Nb0 S2 2.469772 1_565
Nb0 S3 2.495361 1_555
Nb0 S6 2.610324 1_555
Nb0 S6 2.610324 1_556
Nb0 S0 2.649069 1_555
Nb1 S0 2.469775 1_554
Nb1 S0 2.469775 1_555
Nb1 S5 2.495355 1_555
Nb1 S7 2.610329 1_555
Nb1 S7 2.610329 1_554
Nb1 S1 2.649077 1_555
Nb2 S4 2.469768 1_655
Nb2 S4 2.469768 1_654
Nb2 S1 2.495353 1_555
Nb2 S7 2.610322 1_555
Nb2 S7 2.610322 1_554
Nb2 S2 2.649077 1_555
Nb3 S1 2.469768 1_455
Nb3 S1 2.469768 1_456
Nb3 S4 2.495353 1_555
Nb3 S6 2.610322 1_555
Nb3 S6 2.610322 1_556
Nb3 S3 2.649077 1_555
Nb4 S5 2.469775 1_555
Nb4 S5 2.469775 1_556
Nb4 S0 2.495355 1_555
Nb4 S6 2.610329 1_555
Nb4 S6 2.610329 1_556
Nb4 S4 2.649077 1_555
Nb5 S3 2.469772 1_545
Nb5 S3 2.469772 1_544
Nb5 S2 2.495361 1_555
Nb5 S7 2.610324 1_554
Nb5 S7 2.610324 1_555
Nb5 S5 2.649069 1_555
