# generated using pymatgen
data_CeY(AlPd)2
_symmetry_space_group_name_H-M   'P 1'
_cell_length_a   4.14127200
_cell_length_b   7.22149800
_cell_length_c   12.37029683
_cell_angle_alpha   89.70332760
_cell_angle_beta   90.00000000
_cell_angle_gamma   90.00000000
_symmetry_Int_Tables_number   1
_chemical_formula_structural   CeY(AlPd)2
_chemical_formula_sum   'Ce3 Y3 Al6 Pd6'
_cell_volume   369.94345666
_cell_formula_units_Z   3
loop_
 _symmetry_equiv_pos_site_id
 _symmetry_equiv_pos_as_xyz
  1  'x, y, z'
loop_
 _atom_site_type_symbol
 _atom_site_label
 _atom_site_symmetry_multiplicity
 _atom_site_fract_x
 _atom_site_fract_y
 _atom_site_fract_z
 _atom_site_occupancy
  Ce  Ce0  1  0.50000000  0.92013700  0.49942400  1
  Ce  Ce1  1  0.50000000  0.42112300  0.00103400  1
  Ce  Ce2  1  0.50000000  0.78895500  0.78915300  1
  Y  Y0  1  0.50000000  0.29063200  0.29219500  1
  Y  Y1  1  0.50000000  0.29131800  0.70791800  1
  Y  Y2  1  0.50000000  0.79068600  0.20907000  1
  Al  Al0  1  0.00000000  0.76972300  0.00187900  1
  Al  Al1  1  0.00000000  0.26808300  0.49931000  1
  Al  Al2  1  0.00000000  0.61387400  0.61637500  1
  Al  Al3  1  0.00000000  0.11660000  0.11992300  1
  Al  Al4  1  0.00000000  0.11984900  0.88166800  1
  Al  Al5  1  0.00000000  0.61502500  0.38017600  1
  Pd  Pd0  1  0.00000000  0.99405100  0.66500200  1
  Pd  Pd1  1  0.00000000  0.49678100  0.16523600  1
  Pd  Pd2  1  0.00000000  0.50197900  0.83623100  1
  Pd  Pd3  1  0.00000000  0.99748000  0.33587900  1
  Pd  Pd4  1  0.50000000  0.00161600  0.99938500  1
  Pd  Pd5  1  0.50000000  0.50228600  0.50014200  1
loop_
_geom_bond_atom_site_label_1
_geom_bond_atom_site_label_2
_geom_bond_distance
_geom_bond_site_symmetry_2
Ce0 Pd3 2.946307 1_555
Ce0 Pd3 2.946307 1_655
Ce0 Pd0 2.962953 1_555
Ce0 Pd0 2.962953 1_655
Ce0 Pd5 3.017477 1_555
Ce1 Pd1 2.953544 1_655
Ce1 Pd1 2.953544 1_555
Ce1 Pd2 2.961805 1_654
Ce1 Pd2 2.961805 1_554
Ce1 Pd4 3.029643 1_554
Ce2 Pd0 2.969221 1_655
Ce2 Pd0 2.969221 1_555
Ce2 Pd2 2.984798 1_655
Ce2 Pd2 2.984798 1_555
Ce2 Pd4 3.027064 1_565
Al0 Pd4 2.663134 1_564
Al0 Pd4 2.663134 1_464
Al0 Pd1 2.815550 1_555
Al0 Pd2 2.824601 1_554
Al1 Pd5 2.673631 1_555
Al1 Pd5 2.673631 1_455
Al1 Pd3 2.819021 1_545
Al1 Pd0 2.841695 1_545
Al1 Y1 3.313514 1_455
Al1 Y1 3.313514 1_555
Al2 Pd5 2.648825 1_555
Al2 Pd5 2.648825 1_455
Al2 Pd0 2.813614 1_555
Al2 Pd2 2.833173 1_555
Al2 Y1 3.311856 1_455
Al2 Y1 3.311856 1_555
Al3 Pd4 2.685740 1_554
Al3 Pd4 2.685740 1_454
Al3 Pd3 2.802281 1_545
Al3 Pd1 2.804956 1_555
Al4 Pd4 2.669114 1_455
Al4 Pd4 2.669114 1_555
Al4 Pd2 2.813358 1_555
Al4 Pd0 2.834447 1_545
Al4 Y1 3.226907 1_455
Al4 Y1 3.226907 1_555
Al5 Pd5 2.672107 1_455
Al5 Pd5 2.672107 1_555
Al5 Pd1 2.796829 1_555
Al5 Pd3 2.812948 1_555
Pd0 Y1 3.031427 1_465
Pd0 Y1 3.031427 1_565
Pd1 Y0 2.991003 1_455
Pd1 Y0 2.991003 1_555
Pd1 Y2 3.016323 1_555
Pd1 Y2 3.016323 1_455
Pd2 Y1 3.024282 1_455
Pd2 Y1 3.024282 1_555
Pd3 Y2 3.000439 1_455
Pd3 Y2 3.000439 1_555
Pd3 Y0 3.008218 1_565
Pd3 Y0 3.008218 1_465
Pd4 Y2 3.001242 1_546
Pd5 Y1 2.981058 1_555
Pd5 Y0 2.998995 1_555
