# generated using pymatgen
data_Ba11(Bi3O10)3
_symmetry_space_group_name_H-M   'P 1'
_cell_length_a   8.88275100
_cell_length_b   10.78166840
_cell_length_c   10.90302130
_cell_angle_alpha   81.08740675
_cell_angle_beta   113.71757892
_cell_angle_gamma   113.37859535
_symmetry_Int_Tables_number   1
_chemical_formula_structural   Ba11(Bi3O10)3
_chemical_formula_sum   'Ba11 Bi9 O30'
_cell_volume   877.50035580
_cell_formula_units_Z   1
loop_
 _symmetry_equiv_pos_site_id
 _symmetry_equiv_pos_as_xyz
  1  'x, y, z'
loop_
 _atom_site_type_symbol
 _atom_site_label
 _atom_site_symmetry_multiplicity
 _atom_site_fract_x
 _atom_site_fract_y
 _atom_site_fract_z
 _atom_site_occupancy
  Ba  Ba0  1  0.24986800  0.99888900  0.49822700  1
  Ba  Ba1  1  0.64915900  0.59869300  0.69982600  1
  Ba  Ba2  1  0.04731000  0.19428500  0.89685200  1
  Ba  Ba3  1  0.45447500  0.80163700  0.09947600  1
  Ba  Ba4  1  0.85118500  0.39720500  0.30538000  1
  Ba  Ba5  1  0.14881500  0.60279500  0.69462000  1
  Ba  Ba6  1  0.54552500  0.19836300  0.90052400  1
  Ba  Ba7  1  0.95269000  0.80571500  0.10314800  1
  Ba  Ba8  1  0.35084100  0.40130700  0.30017400  1
  Ba  Ba9  1  0.75013200  0.00111100  0.50177300  1
  Ba  Ba10  1  0.00000000  0.50000000  0.00000000  1
  Bi  Bi0  1  0.09919400  0.90513300  0.79512700  1
  Bi  Bi1  1  0.50000000  0.50000000  0.00000000  1
  Bi  Bi2  1  0.90080600  0.09486700  0.20487300  1
  Bi  Bi3  1  0.30778500  0.70478900  0.40561800  1
  Bi  Bi4  1  0.69221500  0.29521100  0.59438200  1
  Bi  Bi5  1  0.39700700  0.09902400  0.19805000  1
  Bi  Bi6  1  0.79852300  0.69872000  0.40069700  1
  Bi  Bi7  1  0.20147700  0.30128000  0.59930300  1
  Bi  Bi8  1  0.60299300  0.90097600  0.80195000  1
  O  O0  1  0.00123900  0.29319100  0.14395900  1
  O  O1  1  0.40116000  0.91173000  0.33965300  1
  O  O2  1  0.79004200  0.50377200  0.52139700  1
  O  O3  1  0.19973600  0.11495100  0.73021400  1
  O  O4  1  0.60792200  0.70776000  0.92857600  1
  O  O5  1  0.78381200  0.36279800  0.78982200  1
  O  O6  1  0.20763300  0.97868200  0.00138200  1
  O  O7  1  0.60038300  0.57741500  0.20696500  1
  O  O8  1  0.00711900  0.16401100  0.41198300  1
  O  O9  1  0.41113600  0.77082800  0.61243400  1
  O  O10  1  0.26197100  0.52285200  0.95214100  1
  O  O11  1  0.64334900  0.10378700  0.16784700  1
  O  O12  1  0.04948400  0.71284600  0.37273200  1
  O  O13  1  0.43279100  0.30604900  0.55220500  1
  O  O14  1  0.85463400  0.93141600  0.76470800  1
  O  O15  1  0.99876100  0.70680900  0.85604100  1
  O  O16  1  0.39207800  0.29224000  0.07142400  1
  O  O17  1  0.80026400  0.88504900  0.26978600  1
  O  O18  1  0.20995800  0.49622800  0.47860300  1
  O  O19  1  0.59884000  0.08827000  0.66034700  1
  O  O20  1  0.21618800  0.63720200  0.21017800  1
  O  O21  1  0.58886400  0.22917200  0.38756600  1
  O  O22  1  0.99288100  0.83598900  0.58801700  1
  O  O23  1  0.39961700  0.42258500  0.79303500  1
  O  O24  1  0.79236700  0.02131800  0.99861800  1
  O  O25  1  0.73802900  0.47714800  0.04785900  1
  O  O26  1  0.14536600  0.06858400  0.23529200  1
  O  O27  1  0.56720900  0.69395100  0.44779500  1
  O  O28  1  0.95051600  0.28715400  0.62726800  1
  O  O29  1  0.35665100  0.89621300  0.83215300  1
loop_
_geom_bond_atom_site_label_1
_geom_bond_atom_site_label_2
_geom_bond_distance
_geom_bond_site_symmetry_2
Ba0 O22 2.708741 1_455
Ba0 O26 2.718472 1_565
Ba0 O19 2.722372 1_565
Ba0 O1 3.008844 1_555
Ba0 O13 3.085134 1_565
Ba0 O12 3.089245 1_555
Ba0 O8 3.098365 1_565
Ba0 O9 3.171810 1_555
Ba0 O3 3.238960 1_565
Ba1 O27 2.691718 1_555
Ba1 O15 2.718613 1_555
Ba1 O23 2.724983 1_555
Ba1 O5 3.091735 1_555
Ba1 O4 3.118150 1_555
Ba1 O9 3.125383 1_555
Ba1 O2 3.160675 1_555
Ba1 O13 3.242243 1_555
Ba2 O16 2.735664 1_556
Ba2 O24 2.804623 1_455
Ba2 O28 2.849469 1_455
Ba2 O14 2.910252 1_445
Ba2 O6 3.038287 1_546
Ba2 O3 3.040620 1_555
Ba2 O5 3.265225 1_455
Ba2 O0 3.269088 1_556
Ba2 O10 3.305279 1_555
Ba3 O17 2.725485 1_555
Ba3 O20 2.737553 1_555
Ba3 O29 2.834566 1_554
Ba3 O7 3.047010 1_555
Ba3 O11 3.064610 1_565
Ba3 O10 3.121944 1_554
Ba3 O4 3.174376 1_554
Ba3 O6 3.224543 1_555
Ba3 O1 3.301131 1_555
Ba4 O25 2.702601 1_555
Ba4 O21 2.709451 1_555
Ba4 O18 2.818819 1_655
Ba4 O2 3.086264 1_555
Ba4 O0 3.133166 1_655
Ba4 O8 3.186527 1_655
Ba4 O12 3.193715 1_655
Ba4 O11 3.205106 1_555
Ba4 O7 3.279599 1_555
Ba4 O28 3.398940 1_555
Ba5 O10 2.702601 1_555
Ba5 O9 2.709451 1_555
Ba5 O2 2.818819 1_455
Ba5 O18 3.086264 1_555
Ba5 O15 3.133166 1_455
Ba5 O22 3.186527 1_455
Ba5 O28 3.193715 1_455
Ba5 O29 3.205106 1_555
Ba5 O23 3.279599 1_555
Ba5 O12 3.398940 1_555
Ba6 O3 2.725485 1_555
Ba6 O5 2.737553 1_555
Ba6 O11 2.834566 1_556
Ba6 O23 3.047010 1_555
Ba6 O29 3.064610 1_545
Ba6 O25 3.121944 1_556
Ba6 O16 3.174376 1_556
Ba6 O24 3.224543 1_555
Ba6 O19 3.301131 1_555
Ba7 O4 2.735664 1_554
Ba7 O6 2.804623 1_655
Ba7 O12 2.849469 1_655
Ba7 O26 2.910252 1_665
Ba7 O24 3.038287 1_564
Ba7 O17 3.040620 1_555
Ba7 O20 3.265225 1_655
Ba7 O15 3.269088 1_554
Ba7 O25 3.305279 1_555
Ba8 O13 2.691718 1_555
Ba8 O0 2.718613 1_555
Ba8 O7 2.724983 1_555
Ba8 O20 3.091735 1_555
Ba8 O16 3.118150 1_555
Ba8 O21 3.125383 1_555
Ba8 O18 3.160675 1_555
Ba8 O27 3.242243 1_555
Ba9 O8 2.708741 1_655
Ba9 O14 2.718472 1_545
Ba9 O1 2.722372 1_545
Ba9 O19 3.008844 1_555
Ba9 O27 3.085134 1_545
Ba9 O28 3.089245 1_555
Ba9 O22 3.098365 1_545
Ba9 O21 3.171810 1_555
Ba9 O17 3.238960 1_545
Ba10 O10 2.495997 1_554
Ba10 O25 2.495997 1_455
Ba10 O0 2.521239 1_555
Ba10 O15 2.521239 1_454
Ba10 O5 2.526483 1_454
Ba10 O20 2.526483 1_555
Bi0 O15 2.081314 1_455
Bi0 O14 2.188445 1_455
Bi0 O22 2.189546 1_455
Bi0 O6 2.194896 1_556
Bi0 O29 2.195922 1_555
Bi0 O3 2.196597 1_565
Bi1 O10 2.071114 1_554
Bi1 O25 2.071114 1_555
Bi1 O4 2.213348 1_554
Bi1 O16 2.213348 1_555
Bi1 O23 2.226665 1_554
Bi1 O7 2.226665 1_555
Bi2 O0 2.081314 1_655
Bi2 O26 2.188445 1_655
Bi2 O8 2.189546 1_655
Bi2 O24 2.194896 1_554
Bi2 O11 2.195922 1_555
Bi2 O17 2.196597 1_545
Bi3 O20 2.085558 1_555
Bi3 O1 2.167339 1_555
Bi3 O9 2.178954 1_555
Bi3 O27 2.209060 1_555
Bi3 O12 2.210701 1_555
Bi3 O18 2.212650 1_555
Bi4 O5 2.085558 1_555
Bi4 O19 2.167339 1_555
Bi4 O21 2.178954 1_555
Bi4 O13 2.209060 1_555
Bi4 O28 2.210701 1_555
Bi4 O2 2.212650 1_555
Bi5 O21 2.304496 1_555
Bi5 O6 2.310696 1_545
Bi5 O26 2.318547 1_555
Bi5 O16 2.319540 1_555
Bi5 O11 2.320460 1_555
Bi5 O1 2.347341 1_545
Bi6 O17 2.275510 1_555
Bi6 O27 2.290178 1_555
Bi6 O2 2.291805 1_555
Bi6 O7 2.303995 1_555
Bi6 O12 2.312695 1_655
Bi6 O22 2.326902 1_555
Bi7 O3 2.275510 1_555
Bi7 O13 2.290178 1_555
Bi7 O18 2.291805 1_555
Bi7 O23 2.303995 1_555
Bi7 O28 2.312695 1_455
Bi7 O8 2.326902 1_555
Bi8 O9 2.304496 1_555
Bi8 O24 2.310696 1_565
Bi8 O14 2.318547 1_555
Bi8 O4 2.319540 1_555
Bi8 O29 2.320460 1_555
Bi8 O19 2.347341 1_565
