# generated using pymatgen
data_TmTlS2
_symmetry_space_group_name_H-M   'P 1'
_cell_length_a   3.95305652
_cell_length_b   3.95305652
_cell_length_c   7.83774364
_cell_angle_alpha   75.39340105
_cell_angle_beta   75.39340105
_cell_angle_gamma   60.00000038
_symmetry_Int_Tables_number   1
_chemical_formula_structural   TmTlS2
_chemical_formula_sum   'Tm1 Tl1 S2'
_cell_volume   101.47224547
_cell_formula_units_Z   1
loop_
 _symmetry_equiv_pos_site_id
 _symmetry_equiv_pos_as_xyz
  1  'x, y, z'
loop_
 _atom_site_type_symbol
 _atom_site_label
 _atom_site_symmetry_multiplicity
 _atom_site_fract_x
 _atom_site_fract_y
 _atom_site_fract_z
 _atom_site_occupancy
  Tm  Tm0  1  -0.00000000  -0.00000000  0.00000000  1
  Tl  Tl0  1  0.50000000  0.50000000  0.50000000  1
  S  S0  1  0.26823946  0.26823946  0.19528263  1
  S  S1  1  0.73176054  0.73176054  0.80471737  1
loop_
_geom_bond_atom_site_label_1
_geom_bond_atom_site_label_2
_geom_bond_distance
_geom_bond_site_symmetry_2
S0 Tm0 2.711623 1_565
S0 Tm0 2.711623 1_655
S0 Tm0 2.711626 1_555
S0 Tl0 3.229424 1_555
S0 Tl0 3.229426 1_545
S0 Tl0 3.229426 1_455
S1 Tm0 2.711623 1_656
S1 Tm0 2.711623 1_566
S1 Tm0 2.711626 1_666
S1 Tl0 3.229424 1_555
S1 Tl0 3.229426 1_565
S1 Tl0 3.229426 1_655
