# generated using pymatgen
data_BeAlBO3F2
_symmetry_space_group_name_H-M   'P 1'
_cell_length_a   4.61426833
_cell_length_b   4.61426920
_cell_length_c   49.89398400
_cell_angle_alpha   89.99994666
_cell_angle_beta   90.00002369
_cell_angle_gamma   120.00012567
_symmetry_Int_Tables_number   1
_chemical_formula_structural   BeAlBO3F2
_chemical_formula_sum   'Be1 Al1 B1 O3 F2'
_cell_volume   919.99197531
_cell_formula_units_Z   1
loop_
 _symmetry_equiv_pos_site_id
 _symmetry_equiv_pos_as_xyz
  1  'x, y, z'
loop_
 _atom_site_type_symbol
 _atom_site_label
 _atom_site_symmetry_multiplicity
 _atom_site_fract_x
 _atom_site_fract_y
 _atom_site_fract_z
 _atom_site_occupancy
  Be  Be0  1  0.66666700  0.33333500  0.82723300  1
  Al  Al0  1  0.33333200  0.66666700  0.79928000  1
  B  B0  1  0.00000000  0.00000000  0.81373800  1
  O  O0  1  0.30683400  0.29222400  0.81282800  1
  O  O1  1  0.98538800  0.69316600  0.81282800  1
  O  O2  1  0.70777900  0.01461300  0.81282800  1
  F  F0  1  0.33333300  0.66666700  0.76615200  1
  F  F1  1  0.66666600  0.33333300  0.85559300  1
loop_
_geom_bond_atom_site_label_1
_geom_bond_atom_site_label_2
_geom_bond_distance
_geom_bond_site_symmetry_2
Be0 F1 1.414993 1_555
Be0 O1 1.730423 1_555
Be0 O0 1.730432 1_555
Be0 O2 1.730436 1_555
Al0 F0 1.652888 1_555
Al0 O1 1.801622 1_455
Al0 O0 1.801623 1_555
Al0 O2 1.801633 1_565
B0 O2 1.384078 1_455
B0 O1 1.384081 1_445
B0 O0 1.384082 1_555
