# generated using pymatgen
data_InGeTe2
_symmetry_space_group_name_H-M   'P 1'
_cell_length_a   7.53144458
_cell_length_b   7.53144458
_cell_length_c   7.53144507
_cell_angle_alpha   33.51095611
_cell_angle_beta   33.51095611
_cell_angle_gamma   33.51096021
_symmetry_Int_Tables_number   1
_chemical_formula_structural   InGeTe2
_chemical_formula_sum   'In1 Ge1 Te2'
_cell_volume   115.97773983
_cell_formula_units_Z   1
loop_
 _symmetry_equiv_pos_site_id
 _symmetry_equiv_pos_as_xyz
  1  'x, y, z'
loop_
 _atom_site_type_symbol
 _atom_site_label
 _atom_site_symmetry_multiplicity
 _atom_site_fract_x
 _atom_site_fract_y
 _atom_site_fract_z
 _atom_site_occupancy
  In  In0  1  0.50000000  0.50000000  0.50000000  1
  Ge  Ge0  1  0.00000000  0.00000000  0.00000000  1
  Te  Te0  1  0.25454000  0.25454000  0.25454000  1
  Te  Te1  1  0.74546000  0.74546000  0.74546000  1
loop_
_geom_bond_atom_site_label_1
_geom_bond_atom_site_label_2
_geom_bond_distance
_geom_bond_site_symmetry_2
In0 Te1 3.129020 1_455
In0 Te1 3.129020 1_545
In0 Te0 3.129020 1_565
In0 Te0 3.129020 1_655
In0 Te1 3.129020 1_554
In0 Te0 3.129020 1_556
Ge0 Te0 3.017252 1_455
Ge0 Te0 3.017252 1_545
Ge0 Te1 3.017252 1_544
Ge0 Te1 3.017252 1_454
Ge0 Te0 3.017253 1_554
Ge0 Te1 3.017253 1_445
