# generated using pymatgen
data_Na2Ca5TiSi4(O8F)2
_symmetry_space_group_name_H-M   'P 1'
_cell_length_a   5.80962200
_cell_length_b   7.44091836
_cell_length_c   9.78605486
_cell_angle_alpha   101.05717374
_cell_angle_beta   101.43044090
_cell_angle_gamma   89.95439233
_symmetry_Int_Tables_number   1
_chemical_formula_structural   Na2Ca5TiSi4(O8F)2
_chemical_formula_sum   'Na2 Ca5 Ti1 Si4 O16 F2'
_cell_volume   406.64799508
_cell_formula_units_Z   1
loop_
 _symmetry_equiv_pos_site_id
 _symmetry_equiv_pos_as_xyz
  1  'x, y, z'
loop_
 _atom_site_type_symbol
 _atom_site_label
 _atom_site_symmetry_multiplicity
 _atom_site_fract_x
 _atom_site_fract_y
 _atom_site_fract_z
 _atom_site_occupancy
  Na  Na0  1  0.99845700  0.49968400  0.00086500  1
  Na  Na1  1  0.77850400  0.59332600  0.36608100  1
  Ca  Ca0  1  0.50903000  0.76387100  0.01252800  1
  Ca  Ca1  1  0.49733800  0.23552300  0.99063600  1
  Ca  Ca2  1  0.79289900  0.08856000  0.36070100  1
  Ca  Ca3  1  0.20832500  0.90916400  0.63877000  1
  Ca  Ca4  1  0.21056700  0.41004500  0.63489500  1
  Ti  Ti0  1  0.00182900  0.99992700  0.99676900  1
  Si  Si0  1  0.25086400  0.35255600  0.28305900  1
  Si  Si1  1  0.74919800  0.64696500  0.71621300  1
  Si  Si2  1  0.24996700  0.78622500  0.27833900  1
  Si  Si3  1  0.74681400  0.21447400  0.72113000  1
  O  O0  1  0.75142700  0.03175400  0.10563200  1
  O  O1  1  0.24843700  0.96778200  0.89600000  1
  O  O2  1  0.52790100  0.84505300  0.32075300  1
  O  O3  1  0.46682300  0.16360500  0.67406800  1
  O  O4  1  0.52280900  0.32633600  0.35590600  1
  O  O5  1  0.47362200  0.66443100  0.64588700  1
  O  O6  1  0.21697700  0.55971600  0.24500800  1
  O  O7  1  0.78560500  0.44100200  0.75790800  1
  O  O8  1  0.16445000  0.82833100  0.11623400  1
  O  O9  1  0.83232600  0.16858100  0.88227800  1
  O  O10  1  0.09008600  0.87069400  0.38945000  1
  O  O11  1  0.91960900  0.13969000  0.61388100  1
  O  O12  1  0.19270300  0.22164500  0.12310100  1
  O  O13  1  0.80631200  0.78095700  0.87605300  1
  O  O14  1  0.07518400  0.32769800  0.38776300  1
  O  O15  1  0.94160600  0.66592600  0.62055400  1
  F  F0  1  0.68366900  0.51854300  0.10491200  1
  F  F1  1  0.30666100  0.47793600  0.88462300  1
loop_
_geom_bond_atom_site_label_1
_geom_bond_atom_site_label_2
_geom_bond_distance
_geom_bond_site_symmetry_2
Na0 O7 2.410408 1_554
Na0 O6 2.430804 1_655
Na0 O8 2.588047 1_655
Na0 O9 2.609847 1_554
Na0 O12 2.719399 1_655
Na0 O13 2.748588 1_554
Na1 O2 2.425541 1_555
Na1 O15 2.437364 1_555
Na1 O4 2.456333 1_555
Na1 O14 2.633043 1_655
Na1 O10 2.692475 1_655
Ca0 F0 2.333579 1_555
Ca0 O0 2.363426 1_565
Ca0 O13 2.400510 1_554
Ca0 O1 2.422876 1_554
Ca0 F1 2.423824 1_554
Ca0 O8 2.425811 1_555
Ca1 F0 2.340479 1_556
Ca1 O1 2.384063 1_545
Ca1 O0 2.395189 1_556
Ca1 O9 2.402890 1_555
Ca1 O12 2.405056 1_556
Ca1 F1 2.411669 1_555
Ca2 O2 2.302224 1_545
Ca2 O14 2.361708 1_655
Ca2 O4 2.364933 1_555
Ca2 O10 2.380359 1_645
Ca2 O11 2.396097 1_555
Ca2 O0 2.413382 1_555
Ca3 O15 2.340909 1_455
Ca3 O3 2.346742 1_565
Ca3 O10 2.361110 1_555
Ca3 O5 2.387089 1_555
Ca3 O11 2.410156 1_465
Ca3 O1 2.434684 1_555
Ca4 O14 2.349760 1_555
Ca4 F1 2.350620 1_555
Ca4 O3 2.401047 1_555
Ca4 O5 2.406534 1_555
Ca4 O15 2.469274 1_455
Ca4 O11 2.579814 1_455
O0 Ti0 1.955569 1_644
O1 Ti0 1.884478 1_555
O2 Si2 1.623858 1_555
O3 Si3 1.624354 1_555
O4 Si0 1.627512 1_555
O5 Si1 1.628179 1_555
O6 Si0 1.656547 1_555
O6 Si2 1.657914 1_555
O7 Si3 1.660496 1_555
O7 Si1 1.662854 1_555
O8 Si2 1.655165 1_555
O8 Ti0 2.005625 1_554
O9 Si3 1.657144 1_555
O9 Ti0 1.974839 1_645
O10 Si2 1.605411 1_555
O11 Si3 1.616060 1_555
O12 Si0 1.649055 1_555
O12 Ti0 2.038889 1_544
O13 Si1 1.657555 1_555
O13 Ti0 2.018243 1_655
O14 Si0 1.616568 1_555
O15 Si1 1.615988 1_555
F0 Na0 2.254726 1_555
F0 Na1 2.458093 1_555
F1 Na0 2.294017 1_456
