# generated using pymatgen
data_Fe2NiB
_symmetry_space_group_name_H-M   'P 1'
_cell_length_a   6.37431749
_cell_length_b   6.37431749
_cell_length_c   6.37431749
_cell_angle_alpha   96.23032578
_cell_angle_beta   96.23032578
_cell_angle_gamma   141.53137632
_symmetry_Int_Tables_number   1
_chemical_formula_structural   Fe2NiB
_chemical_formula_sum   'Fe8 Ni4 B4'
_cell_volume   152.12687209
_cell_formula_units_Z   4
loop_
 _symmetry_equiv_pos_site_id
 _symmetry_equiv_pos_as_xyz
  1  'x, y, z'
loop_
 _atom_site_type_symbol
 _atom_site_label
 _atom_site_symmetry_multiplicity
 _atom_site_fract_x
 _atom_site_fract_y
 _atom_site_fract_z
 _atom_site_occupancy
  Fe  Fe0  1  0.37084700  0.98437100  0.33586100  1
  Fe  Fe1  1  0.64851000  0.03498600  0.66413900  1
  Fe  Fe2  1  0.01562900  0.35149000  0.38647600  1
  Fe  Fe3  1  0.96501400  0.62915300  0.61352400  1
  Fe  Fe4  1  0.83705700  0.64662100  0.97679200  1
  Fe  Fe5  1  0.66982900  0.86026400  0.02320800  1
  Fe  Fe6  1  0.35337900  0.33017100  0.19043500  1
  Fe  Fe7  1  0.13973600  0.16294300  0.80956500  1
  Ni  Ni0  1  0.44074100  0.04665900  0.96255800  1
  Ni  Ni1  1  0.08410100  0.47818400  0.03744200  1
  Ni  Ni2  1  0.95334100  0.91589900  0.39408300  1
  Ni  Ni3  1  0.52181600  0.55925900  0.60591700  1
  B  B0  1  0.80425300  0.47459300  0.25626600  1
  B  B1  1  0.21832700  0.54798700  0.74373400  1
  B  B2  1  0.52540700  0.78167300  0.32966000  1
  B  B3  1  0.45201300  0.19574700  0.67034000  1
loop_
_geom_bond_atom_site_label_1
_geom_bond_atom_site_label_2
_geom_bond_distance
_geom_bond_site_symmetry_2
Fe0 Ni2 2.416916 1_455
Fe0 Ni1 2.459338 1_555
Fe0 Ni0 2.485273 1_564
Fe1 Ni3 2.416909 1_545
Fe1 Ni0 2.459342 1_555
Fe1 Ni1 2.485274 1_656
Fe2 Ni1 2.416916 1_555
Fe2 Ni3 2.459335 1_555
Fe2 Ni2 2.485274 1_445
Fe3 Ni0 2.416914 1_665
Fe3 Ni2 2.459338 1_555
Fe3 Ni3 2.485278 1_555
Fe4 Ni0 2.400459 1_555
Fe4 Ni0 2.465547 1_665
Fe4 Ni1 2.527355 1_656
Fe4 Ni3 2.620637 1_555
Fe4 Ni2 2.675773 1_556
Fe5 Ni1 2.400462 1_555
Fe5 Ni1 2.465556 1_665
Fe5 Ni0 2.527367 1_564
Fe5 Ni2 2.620631 1_555
Fe5 Ni3 2.675768 1_554
Fe6 Ni2 2.400462 1_555
Fe6 Ni2 2.465556 1_445
Fe6 Ni3 2.527362 1_555
Fe6 Ni0 2.620626 1_554
Fe6 Ni1 2.675770 1_555
Fe7 Ni3 2.400466 1_555
Fe7 Ni3 2.465553 1_445
Fe7 Ni2 2.527360 1_445
Fe7 Ni1 2.620636 1_556
Fe7 Ni0 2.675759 1_555
Ni0 Ni1 2.497630 1_546
Ni0 Ni1 2.497634 1_656
Ni2 Ni3 2.497628 1_555
Ni2 Ni3 2.497632 1_665
B0 Ni0 2.089850 1_554
B0 Fe4 2.136717 1_554
B0 Fe3 2.152283 1_555
B0 Fe2 2.162015 1_655
B0 Ni2 2.164316 1_555
B0 Fe0 2.174312 1_655
B0 Fe0 2.187346 1_545
B0 Fe6 2.189720 1_555
B0 Ni1 2.368814 1_655
B1 Ni1 2.089850 1_556
B1 Fe5 2.136719 1_556
B1 Fe2 2.152283 1_555
B1 Fe3 2.162015 1_455
B1 Ni3 2.164312 1_555
B1 Fe1 2.174312 1_565
B1 Fe1 2.187346 1_455
B1 Fe7 2.189727 1_555
B1 Ni0 2.368818 1_565
B2 Ni2 2.089850 1_555
B2 Fe6 2.136719 1_555
B2 Fe0 2.152283 1_555
B2 Fe1 2.162015 1_565
B2 Ni1 2.164316 1_555
B2 Fe2 2.174312 1_555
B2 Fe2 2.187346 1_665
B2 Fe5 2.189720 1_555
B2 Ni3 2.368810 1_555
B3 Ni3 2.089857 1_555
B3 Fe7 2.136715 1_555
B3 Fe1 2.152283 1_555
B3 Fe0 2.162015 1_545
B3 Ni0 2.164315 1_555
B3 Fe3 2.174312 1_445
B3 Fe3 2.187346 1_555
B3 Fe4 2.189720 1_555
B3 Ni2 2.368814 1_445
