# generated using pymatgen
data_RbCrF3
_symmetry_space_group_name_H-M   'P 1'
_cell_length_a   4.41431900
_cell_length_b   4.41431900
_cell_length_c   4.09864700
_cell_angle_alpha   90.00000000
_cell_angle_beta   90.00000000
_cell_angle_gamma   90.00000000
_symmetry_Int_Tables_number   1
_chemical_formula_structural   RbCrF3
_chemical_formula_sum   'Rb1 Cr1 F3'
_cell_volume   79.86710531
_cell_formula_units_Z   1
loop_
 _symmetry_equiv_pos_site_id
 _symmetry_equiv_pos_as_xyz
  1  'x, y, z'
loop_
 _atom_site_type_symbol
 _atom_site_label
 _atom_site_symmetry_multiplicity
 _atom_site_fract_x
 _atom_site_fract_y
 _atom_site_fract_z
 _atom_site_occupancy
  Rb  Rb0  1  0.50000000  0.50000000  0.50000000  1
  Cr  Cr0  1  0.00000000  0.00000000  0.00000000  1
  F  F0  1  0.00000000  0.50000000  0.00000000  1
  F  F1  1  0.50000000  0.00000000  0.00000000  1
  F  F2  1  0.00000000  0.00000000  0.50000000  1
loop_
_geom_bond_atom_site_label_1
_geom_bond_atom_site_label_2
_geom_bond_distance
_geom_bond_site_symmetry_2
Cr0 F2 2.049323 1_555
Cr0 F2 2.049323 1_554
Cr0 F0 2.207159 1_545
Cr0 F0 2.207159 1_555
Cr0 F1 2.207159 1_455
Cr0 F1 2.207159 1_555
F0 Rb0 3.011857 1_554
F0 Rb0 3.011857 1_455
F0 Rb0 3.011857 1_555
F0 Rb0 3.011857 1_454
F1 Rb0 3.011857 1_554
F1 Rb0 3.011857 1_555
F1 Rb0 3.011857 1_544
F1 Rb0 3.011857 1_545
F2 Rb0 3.121395 1_455
F2 Rb0 3.121395 1_555
F2 Rb0 3.121395 1_545
F2 Rb0 3.121395 1_445
