# generated using pymatgen
data_Ba4GaSn3
_symmetry_space_group_name_H-M   'P 1'
_cell_length_a   4.72315800
_cell_length_b   5.29094000
_cell_length_c   12.73875400
_cell_angle_alpha   90.00000000
_cell_angle_beta   90.00000000
_cell_angle_gamma   90.00000000
_symmetry_Int_Tables_number   1
_chemical_formula_structural   Ba4GaSn3
_chemical_formula_sum   'Ba4 Ga1 Sn3'
_cell_volume   318.34076933
_cell_formula_units_Z   1
loop_
 _symmetry_equiv_pos_site_id
 _symmetry_equiv_pos_as_xyz
  1  'x, y, z'
loop_
 _atom_site_type_symbol
 _atom_site_label
 _atom_site_symmetry_multiplicity
 _atom_site_fract_x
 _atom_site_fract_y
 _atom_site_fract_z
 _atom_site_occupancy
  Ba  Ba0  1  0.00000000  0.00000000  0.36230900  1
  Ba  Ba1  1  0.00000000  0.50000000  0.86317000  1
  Ba  Ba2  1  0.50000000  0.50000000  0.13592500  1
  Ba  Ba3  1  0.50000000  0.00000000  0.63715000  1
  Ga  Ga0  1  0.00000000  0.00000000  0.06912200  1
  Sn  Sn0  1  0.00000000  0.50000000  0.57187000  1
  Sn  Sn1  1  0.50000000  0.50000000  0.42780000  1
  Sn  Sn2  1  0.50000000  0.00000000  0.93265400  1
loop_
_geom_bond_atom_site_label_1
_geom_bond_atom_site_label_2
_geom_bond_distance
_geom_bond_site_symmetry_2
Ba0 Sn1 3.643018 1_455
Ba0 Sn1 3.643018 1_445
Ba0 Sn1 3.643018 1_555
Ba0 Sn1 3.643018 1_545
Ba0 Ga0 3.734837 1_555
Ba0 Sn0 3.758322 1_545
Ba0 Sn0 3.758322 1_555
Ba1 Sn2 3.655002 1_455
Ba1 Sn2 3.655002 1_565
Ba1 Sn2 3.655002 1_555
Ba1 Sn2 3.655002 1_465
Ba1 Sn0 3.710799 1_555
Ba1 Ga0 3.725807 1_566
Ba1 Ga0 3.725807 1_556
Ba2 Ga0 3.646882 1_555
Ba2 Ga0 3.646882 1_565
Ba2 Ga0 3.646882 1_655
Ba2 Ga0 3.646882 1_665
Ba2 Sn2 3.701838 1_564
Ba2 Sn2 3.701838 1_554
Ba2 Sn1 3.718124 1_555
Ba3 Sn0 3.642403 1_555
Ba3 Sn0 3.642403 1_545
Ba3 Sn0 3.642403 1_655
Ba3 Sn0 3.642403 1_645
Ba3 Sn1 3.756414 1_555
Ba3 Sn1 3.756414 1_545
Ba3 Sn2 3.764353 1_555
Ga0 Sn2 2.932440 1_454
Ga0 Sn2 2.932440 1_554
Sn0 Sn1 2.990866 1_455
Sn0 Sn1 2.990866 1_555
