# generated using pymatgen
data_Ba2Ca2NdTi2(CuO6)2
_symmetry_space_group_name_H-M   'P 1'
_cell_length_a   18.04785805
_cell_length_b   18.04785805
_cell_length_c   18.04785805
_cell_angle_alpha   167.43919071
_cell_angle_beta   167.43919071
_cell_angle_gamma   17.79960687
_symmetry_Int_Tables_number   1
_chemical_formula_structural   Ba2Ca2NdTi2(CuO6)2
_chemical_formula_sum   'Ba2 Ca2 Nd1 Ti2 Cu2 O12'
_cell_volume   278.01385695
_cell_formula_units_Z   1
loop_
 _symmetry_equiv_pos_site_id
 _symmetry_equiv_pos_as_xyz
  1  'x, y, z'
loop_
 _atom_site_type_symbol
 _atom_site_label
 _atom_site_symmetry_multiplicity
 _atom_site_fract_x
 _atom_site_fract_y
 _atom_site_fract_z
 _atom_site_occupancy
  Ba  Ba0  1  0.39231300  0.39231300  0.00000000  1
  Ba  Ba1  1  0.60768700  0.60768700  0.00000000  1
  Ca  Ca0  1  0.28625000  0.28625000  0.00000000  1
  Ca  Ca1  1  0.71375000  0.71375000  0.00000000  1
  Nd  Nd0  1  0.50000000  0.50000000  0.00000000  1
  Ti  Ti0  1  0.16867700  0.16867700  0.00000000  1
  Ti  Ti1  1  0.83132300  0.83132300  0.00000000  1
  Cu  Cu0  1  0.05240600  0.05240600  0.00000000  1
  Cu  Cu1  1  0.94759400  0.94759400  0.00000000  1
  O  O0  1  0.22264700  0.22264700  0.00000000  1
  O  O1  1  0.77735300  0.77735300  0.00000000  1
  O  O2  1  0.11114900  0.11114900  0.00000000  1
  O  O3  1  0.88885100  0.88885100  0.00000000  1
  O  O4  1  0.54215800  0.04215800  0.50000000  1
  O  O5  1  0.45784200  0.95784200  0.50000000  1
  O  O6  1  0.04215800  0.54215800  0.50000000  1
  O  O7  1  0.95784200  0.45784200  0.50000000  1
  O  O8  1  0.66845100  0.16845100  0.50000000  1
  O  O9  1  0.33154900  0.83154900  0.50000000  1
  O  O10  1  0.16845100  0.66845100  0.50000000  1
  O  O11  1  0.83154900  0.33154900  0.50000000  1
loop_
_geom_bond_atom_site_label_1
_geom_bond_atom_site_label_2
_geom_bond_distance
_geom_bond_site_symmetry_2
Ba0 O3 2.794858 1_455
Ba0 O3 2.794858 1_556
Ba0 O3 2.794858 1_444
Ba0 O3 2.794858 1_545
Ba0 O11 2.931469 1_555
Ba0 O9 2.931469 1_544
Ba0 O11 2.931469 1_454
Ba0 O9 2.931469 1_555
Ba0 O5 3.059217 1_544
Ba0 O7 3.059217 1_454
Ba0 O5 3.059217 1_555
Ba0 O7 3.059217 1_555
Ba1 O2 2.794858 1_655
Ba1 O2 2.794858 1_666
Ba1 O2 2.794858 1_554
Ba1 O2 2.794858 1_565
Ba1 O10 2.931469 1_655
Ba1 O8 2.931469 1_565
Ba1 O8 2.931469 1_554
Ba1 O10 2.931469 1_554
Ba1 O4 3.059217 1_554
Ba1 O6 3.059217 1_554
Ba1 O6 3.059217 1_655
Ba1 O4 3.059217 1_565
Ca0 O0 2.268155 1_555
Ca0 O11 2.550991 1_555
Ca0 O11 2.550991 1_454
Ca0 O9 2.550991 1_544
Ca0 O9 2.550991 1_555
Ca0 O1 2.810099 1_556
Ca0 O1 2.810099 1_444
Ca0 O1 2.810099 1_545
Ca0 O1 2.810099 1_455
Ca1 O1 2.268155 1_555
Ca1 O8 2.550991 1_554
Ca1 O8 2.550991 1_565
Ca1 O10 2.550991 1_554
Ca1 O10 2.550991 1_655
Ca1 O0 2.810099 1_565
Ca1 O0 2.810099 1_655
Ca1 O0 2.810099 1_554
Ca1 O0 2.810099 1_666
Nd0 O6 2.481575 1_655
Nd0 O4 2.481575 1_565
Nd0 O6 2.481575 1_554
Nd0 O4 2.481575 1_554
Nd0 O5 2.481575 1_544
Nd0 O7 2.481575 1_454
Nd0 O7 2.481575 1_555
Nd0 O5 2.481575 1_555
Cu0 O4 2.007873 1_454
Cu0 O6 2.007873 1_555
Cu0 O4 2.007873 1_555
Cu0 O6 2.007873 1_544
Cu0 O2 2.094842 1_555
Cu1 O5 2.007873 1_655
Cu1 O7 2.007873 1_565
Cu1 O5 2.007873 1_554
Cu1 O7 2.007873 1_554
Cu1 O3 2.094842 1_555
O0 Ti0 1.924632 1_555
O1 Ti1 1.924632 1_555
O2 Ti0 2.051514 1_555
O3 Ti1 2.051514 1_555
O8 Ti0 1.974350 1_656
O8 Ti0 1.974350 1_555
O9 Ti1 1.974350 1_455
O9 Ti1 1.974350 1_556
O10 Ti0 1.974350 1_555
O10 Ti0 1.974350 1_566
O11 Ti1 1.974350 1_556
O11 Ti1 1.974350 1_545
