# generated using pymatgen
data_RbHfMg14O15
_symmetry_space_group_name_H-M   'P 1'
_cell_length_a   9.06929356
_cell_length_b   8.72506602
_cell_length_c   4.37069813
_cell_angle_alpha   90.00000000
_cell_angle_beta   90.00000000
_cell_angle_gamma   90.00000000
_symmetry_Int_Tables_number   1
_chemical_formula_structural   RbHfMg14O15
_chemical_formula_sum   'Rb1 Hf1 Mg14 O15'
_cell_volume   345.85415189
_cell_formula_units_Z   1
loop_
 _symmetry_equiv_pos_site_id
 _symmetry_equiv_pos_as_xyz
  1  'x, y, z'
loop_
 _atom_site_type_symbol
 _atom_site_label
 _atom_site_symmetry_multiplicity
 _atom_site_fract_x
 _atom_site_fract_y
 _atom_site_fract_z
 _atom_site_occupancy
  Rb  Rb0  1  0.03266186  0.00000000  0.00000000  1
  Hf  Hf0  1  0.49566911  0.50000000  0.00000000  1
  Mg  Mg0  1  0.98435684  0.50000000  0.00000000  1
  Mg  Mg1  1  0.51133583  0.00000000  0.00000000  1
  Mg  Mg2  1  -0.01032298  0.24523622  0.50000000  1
  Mg  Mg3  1  -0.01032298  0.75476378  0.50000000  1
  Mg  Mg4  1  0.50658708  0.24546896  0.50000000  1
  Mg  Mg5  1  0.50658708  0.75453104  0.50000000  1
  Mg  Mg6  1  0.27993069  0.00000000  0.50000000  1
  Mg  Mg7  1  0.23162811  0.50000000  0.50000000  1
  Mg  Mg8  1  0.74148254  0.00000000  0.50000000  1
  Mg  Mg9  1  0.75704914  0.50000000  0.50000000  1
  Mg  Mg10  1  0.24610251  0.24601102  0.00000000  1
  Mg  Mg11  1  0.24610251  0.75398898  -0.00000000  1
  Mg  Mg12  1  0.76009262  0.24167894  0.00000000  1
  Mg  Mg13  1  0.76009262  0.75832106  0.00000000  1
  O  O0  1  0.30016753  0.00000000  0.00000000  1
  O  O1  1  0.72517941  0.00000000  0.00000000  1
  O  O2  1  0.74087131  0.50000000  0.00000000  1
  O  O3  1  0.24464937  0.23529596  0.50000000  1
  O  O4  1  0.24464937  0.76470404  0.50000000  1
  O  O5  1  0.74270046  0.25456446  0.50000000  1
  O  O6  1  0.74270046  0.74543554  0.50000000  1
  O  O7  1  0.95300757  0.00000000  0.50000000  1
  O  O8  1  0.99375633  0.50000000  0.50000000  1
  O  O9  1  0.50797030  0.00000000  0.50000000  1
  O  O10  1  0.52347729  0.50000000  0.50000000  1
  O  O11  1  -0.00559716  0.27965443  0.00000000  1
  O  O12  1  -0.00559716  0.72034557  -0.00000000  1
  O  O13  1  0.50151619  0.26121043  0.00000000  1
  O  O14  1  0.50151619  0.73878957  -0.00000000  1
loop_
_geom_bond_atom_site_label_1
_geom_bond_atom_site_label_2
_geom_bond_distance
_geom_bond_site_symmetry_2
Hf0 O14 2.084130 1_555
Hf0 O13 2.084130 1_555
Hf0 O10 2.199854 1_555
Hf0 O10 2.199854 1_554
Hf0 O2 2.223811 1_555
Mg0 O11 1.924687 1_655
Mg0 O12 1.924687 1_655
Mg0 O8 2.187011 1_554
Mg0 O8 2.187011 1_555
Mg0 O2 2.208242 1_555
Mg1 O0 1.915147 1_555
Mg1 O1 1.939410 1_555
Mg1 O9 2.185562 1_554
Mg1 O9 2.185562 1_555
Mg1 O13 2.280818 1_555
Mg1 O14 2.280818 1_545
Mg2 O7 2.165393 1_455
Mg2 O11 2.206302 1_556
Mg2 O11 2.206302 1_555
Mg2 O8 2.223139 1_455
Mg2 O5 2.241381 1_455
Mg2 O3 2.314045 1_555
Mg3 O7 2.165393 1_465
Mg3 O12 2.206302 1_555
Mg3 O12 2.206302 1_556
Mg3 O8 2.223139 1_455
Mg3 O6 2.241381 1_455
Mg3 O4 2.314045 1_555
Mg4 O9 2.141770 1_555
Mg4 O5 2.142852 1_555
Mg4 O13 2.190144 1_556
Mg4 O13 2.190144 1_555
Mg4 O10 2.226077 1_555
Mg4 O3 2.377248 1_555
Mg5 O9 2.141770 1_565
Mg5 O6 2.142852 1_555
Mg5 O14 2.190144 1_556
Mg5 O14 2.190144 1_555
Mg5 O10 2.226077 1_555
Mg5 O4 2.377248 1_555
Mg6 O9 2.068158 1_555
Mg6 O4 2.077759 1_545
Mg6 O3 2.077759 1_555
Mg6 O0 2.193042 1_555
Mg6 O0 2.193042 1_556
Mg7 O8 2.157329 1_455
Mg7 O4 2.312577 1_555
Mg7 O3 2.312577 1_555
Mg7 O10 2.646866 1_555
Mg8 O7 1.918383 1_555
Mg8 O9 2.117791 1_555
Mg8 O1 2.190345 1_555
Mg8 O1 2.190345 1_556
Mg8 O6 2.221119 1_545
Mg8 O5 2.221119 1_555
Mg9 O10 2.118332 1_555
Mg9 O6 2.145392 1_555
Mg9 O5 2.145392 1_555
Mg9 O8 2.146767 1_555
Mg9 O2 2.190269 1_556
Mg9 O2 2.190269 1_555
Mg10 O3 2.187388 1_555
Mg10 O3 2.187388 1_554
Mg10 O0 2.201755 1_555
Mg10 O11 2.301534 1_555
Mg10 O13 2.320215 1_555
Mg11 O4 2.187388 1_554
Mg11 O4 2.187388 1_555
Mg11 O0 2.201755 1_565
Mg11 O12 2.301534 1_555
Mg11 O14 2.320215 1_555
Mg12 O1 2.132305 1_555
Mg12 O11 2.150705 1_655
Mg12 O5 2.193917 1_555
Mg12 O5 2.193917 1_554
Mg12 O2 2.260600 1_555
Mg12 O13 2.351289 1_555
Mg13 O1 2.132305 1_565
Mg13 O12 2.150705 1_655
Mg13 O6 2.193917 1_555
Mg13 O6 2.193917 1_554
Mg13 O2 2.260600 1_555
Mg13 O14 2.351289 1_555
O0 Rb0 2.426087 1_555
O1 Rb0 2.788649 1_655
O7 Rb0 2.301657 1_656
O7 Rb0 2.301657 1_655
O11 Rb0 2.464551 1_555
O12 Rb0 2.464551 1_565
