# generated using pymatgen
data_K2Sb2SeO5F6
_symmetry_space_group_name_H-M   'P 1'
_cell_length_a   5.97973500
_cell_length_b   12.56428700
_cell_length_c   15.06996400
_cell_angle_alpha   90.00000000
_cell_angle_beta   90.00000000
_cell_angle_gamma   90.00000000
_symmetry_Int_Tables_number   1
_chemical_formula_structural   K2Sb2SeO5F6
_chemical_formula_sum   'K8 Sb8 Se4 O20 F24'
_cell_volume   1132.22307361
_cell_formula_units_Z   4
loop_
 _symmetry_equiv_pos_site_id
 _symmetry_equiv_pos_as_xyz
  1  'x, y, z'
loop_
 _atom_site_type_symbol
 _atom_site_label
 _atom_site_symmetry_multiplicity
 _atom_site_fract_x
 _atom_site_fract_y
 _atom_site_fract_z
 _atom_site_occupancy
  K  K0  1  0.05942600  0.76213400  0.73183100  1
  K  K1  1  0.55942600  0.73786600  0.26816900  1
  K  K2  1  0.94057400  0.26213400  0.76816900  1
  K  K3  1  0.44057400  0.23786600  0.23183100  1
  K  K4  1  0.42850900  0.02391300  0.83157900  1
  K  K5  1  0.92850900  0.47608700  0.16842100  1
  K  K6  1  0.57149100  0.52391300  0.66842100  1
  K  K7  1  0.07149100  0.97608700  0.33157900  1
  Sb  Sb0  1  0.53191100  0.85327700  0.56945000  1
  Sb  Sb1  1  0.03191100  0.64672300  0.43055000  1
  Sb  Sb2  1  0.46808900  0.35327700  0.93055000  1
  Sb  Sb3  1  0.96808900  0.14672300  0.06945000  1
  Sb  Sb4  1  0.45727600  0.22480000  0.59310300  1
  Sb  Sb5  1  0.95727600  0.27520000  0.40689700  1
  Sb  Sb6  1  0.54272400  0.72480000  0.90689700  1
  Sb  Sb7  1  0.04272400  0.77520000  0.09310300  1
  Se  Se0  1  0.98928900  0.53187700  0.92184700  1
  Se  Se1  1  0.48928900  0.96812300  0.07815300  1
  Se  Se2  1  0.01071100  0.03187700  0.57815300  1
  Se  Se3  1  0.51071100  0.46812300  0.42184700  1
  O  O0  1  0.13258000  0.44566000  0.85759300  1
  O  O1  1  0.63258000  0.05434000  0.14240700  1
  O  O2  1  0.86742000  0.94566000  0.64240700  1
  O  O3  1  0.36742000  0.55434000  0.35759300  1
  O  O4  1  0.13934700  0.12089100  0.64457100  1
  O  O5  1  0.63934700  0.37910900  0.35542900  1
  O  O6  1  0.86065300  0.62089100  0.85542900  1
  O  O7  1  0.36065300  0.87910900  0.14457100  1
  O  O8  1  0.20536400  0.96813400  0.51754900  1
  O  O9  1  0.70536400  0.53186600  0.48245100  1
  O  O10  1  0.79463600  0.46813400  0.98245100  1
  O  O11  1  0.29463600  0.03186600  0.01754900  1
  O  O12  1  0.32979400  0.40545200  0.48948100  1
  O  O13  1  0.82979400  0.09454800  0.51051900  1
  O  O14  1  0.67020600  0.90545200  0.01051900  1
  O  O15  1  0.17020600  0.59454800  0.98948100  1
  O  O16  1  0.06862700  0.52428900  0.67607100  1
  O  O17  1  0.56862700  0.97571100  0.32392900  1
  O  O18  1  0.93137300  0.02428900  0.82392900  1
  O  O19  1  0.43137300  0.47571100  0.17607100  1
  F  F0  1  0.40414800  0.89335800  0.68500600  1
  F  F1  1  0.90414800  0.60664200  0.31499400  1
  F  F2  1  0.59585200  0.39335800  0.81499400  1
  F  F3  1  0.09585200  0.10664200  0.18500600  1
  F  F4  1  0.28846700  0.74186200  0.56470400  1
  F  F5  1  0.78846700  0.75813800  0.43529600  1
  F  F6  1  0.71153300  0.24186200  0.93529600  1
  F  F7  1  0.21153300  0.25813800  0.06470400  1
  F  F8  1  0.30087300  0.23549500  0.87123100  1
  F  F9  1  0.80087300  0.26450500  0.12876900  1
  F  F10  1  0.69912700  0.73549500  0.62876900  1
  F  F11  1  0.19912700  0.76450500  0.37123100  1
  F  F12  1  0.42142900  0.65178500  0.80120800  1
  F  F13  1  0.92142900  0.84821500  0.19879200  1
  F  F14  1  0.57857100  0.15178500  0.69879200  1
  F  F15  1  0.07857100  0.34821500  0.30120800  1
  F  F16  1  0.28252600  0.82341500  0.88791000  1
  F  F17  1  0.78252600  0.67658500  0.11209000  1
  F  F18  1  0.71747400  0.32341500  0.61209000  1
  F  F19  1  0.21747400  0.17658500  0.38791000  1
  F  F20  1  0.28969500  0.32393500  0.66862200  1
  F  F21  1  0.78969500  0.17606500  0.33137800  1
  F  F22  1  0.71030500  0.82393500  0.83137800  1
  F  F23  1  0.21030500  0.67606500  0.16862200  1
loop_
_geom_bond_atom_site_label_1
_geom_bond_atom_site_label_2
_geom_bond_distance
_geom_bond_site_symmetry_2
K0 O6 2.833973 1_455
K0 O2 2.907122 1_455
K0 O16 3.104736 1_555
K1 O7 2.833973 1_555
K1 O3 2.907122 1_555
K1 O17 3.104736 1_555
K2 O4 2.833973 1_655
K2 O0 2.907122 1_655
K2 O18 3.104736 1_555
K3 O5 2.833973 1_555
K3 O1 2.907122 1_555
K3 O19 3.104736 1_555
K4 O11 2.916363 1_556
K4 O18 2.974980 1_455
K4 O18 3.009206 1_555
K5 O10 2.916363 1_554
K5 O19 2.974980 1_555
K5 O19 3.009206 1_655
K6 O9 2.916363 1_555
K6 O16 2.974980 1_655
K6 O16 3.009206 1_555
K7 O8 2.916363 1_555
K7 O17 2.974980 1_555
K7 O17 3.009206 1_455
O0 Se0 1.686783 1_455
O0 Sb2 2.565376 1_555
O1 Se1 1.686783 1_545
O1 Sb3 2.565376 1_555
O2 Se2 1.686783 1_665
O2 Sb0 2.565376 1_555
O3 Se3 1.686783 1_555
O3 Sb1 2.565376 1_555
O4 Se2 1.686514 1_555
O4 Sb4 2.433173 1_555
O5 Se3 1.686514 1_555
O5 Sb5 2.433173 1_555
O6 Se0 1.686514 1_555
O6 Sb6 2.433173 1_555
O7 Se1 1.686514 1_555
O7 Sb7 2.433173 1_555
O8 Se2 1.682370 1_565
O8 Sb0 2.550917 1_555
O9 Se3 1.682370 1_555
O9 Sb1 2.550917 1_655
O10 Se0 1.682370 1_555
O10 Sb2 2.550917 1_555
O11 Se1 1.682370 1_545
O11 Sb3 2.550917 1_455
O12 Se3 1.682037 1_555
O13 Se2 1.682037 1_655
O14 Se1 1.682037 1_555
O15 Se0 1.682037 1_455
F0 Sb0 1.967191 1_555
F0 K0 2.732292 1_555
F0 K4 2.755163 1_565
F1 Sb1 1.967191 1_655
F1 K1 2.732292 1_555
F1 K5 2.755163 1_555
F2 Sb2 1.967191 1_555
F2 K2 2.732292 1_555
F2 K6 2.755163 1_555
F3 Sb3 1.967191 1_455
F3 K3 2.732292 1_555
F3 K7 2.755163 1_545
F4 Sb0 2.020853 1_555
F4 K0 2.878198 1_555
F5 Sb1 2.020853 1_655
F5 K1 2.878198 1_555
F6 Sb2 2.020853 1_555
F6 K2 2.878198 1_555
F7 Sb3 2.020853 1_455
F7 K3 2.878198 1_555
F8 Sb2 1.997218 1_555
F8 K2 2.676959 1_455
F8 K4 2.829586 1_555
F9 Sb3 1.997218 1_555
F9 K3 2.676959 1_555
F9 K5 2.829586 1_555
F10 Sb0 1.997218 1_555
F10 K0 2.676959 1_655
F10 K6 2.829586 1_555
F11 Sb1 1.997218 1_555
F11 K1 2.676959 1_555
F11 K7 2.829586 1_555
F12 Sb6 1.975969 1_555
F12 K6 2.718605 1_555
F12 K0 2.775103 1_555
F13 Sb7 1.975969 1_655
F13 K7 2.718605 1_655
F13 K1 2.775103 1_555
F14 Sb4 1.975969 1_555
F14 K4 2.718605 1_555
F14 K2 2.775103 1_555
F15 Sb5 1.975969 1_455
F15 K5 2.718605 1_455
F15 K3 2.775103 1_555
F16 Sb6 2.009461 1_555
F16 K4 2.797964 1_565
F16 K0 2.811581 1_555
F17 Sb7 2.009461 1_655
F17 K5 2.797964 1_555
F17 K1 2.811581 1_555
F18 Sb4 2.009461 1_555
F18 K6 2.797964 1_555
F18 K2 2.811581 1_555
F19 Sb5 2.009461 1_455
F19 K7 2.797964 1_545
F19 K3 2.811581 1_555
F20 Sb4 1.962347 1_555
F20 K2 2.685466 1_455
F20 K6 3.025313 1_555
F21 Sb5 1.962347 1_555
F21 K3 2.685466 1_555
F21 K7 3.025313 1_645
F22 Sb6 1.962347 1_555
F22 K0 2.685466 1_655
F22 K4 3.025313 1_565
F23 Sb7 1.962347 1_555
F23 K1 2.685466 1_555
F23 K5 3.025313 1_455
