# generated using pymatgen
data_SnSb
_symmetry_space_group_name_H-M   'P 1'
_cell_length_a   4.34066253
_cell_length_b   4.34066309
_cell_length_c   4.34066341
_cell_angle_alpha   59.99998983
_cell_angle_beta   59.99998563
_cell_angle_gamma   60.00000359
_symmetry_Int_Tables_number   1
_chemical_formula_structural   SnSb
_chemical_formula_sum   'Sn1 Sb1'
_cell_volume   57.82999366
_cell_formula_units_Z   1
loop_
 _symmetry_equiv_pos_site_id
 _symmetry_equiv_pos_as_xyz
  1  'x, y, z'
loop_
 _atom_site_type_symbol
 _atom_site_label
 _atom_site_symmetry_multiplicity
 _atom_site_fract_x
 _atom_site_fract_y
 _atom_site_fract_z
 _atom_site_occupancy
  Sn  Sn0  1  0.50000000  0.50000000  0.50000000  1
  Sb  Sb0  1  -0.00000000  -0.00000000  0.00000000  1
loop_
_geom_bond_atom_site_label_1
_geom_bond_atom_site_label_2
_geom_bond_distance
_geom_bond_site_symmetry_2
Sb0 Sn0 3.069311 1_445
Sb0 Sn0 3.069311 1_554
Sb0 Sn0 3.069312 1_455
Sb0 Sn0 3.069312 1_454
Sb0 Sn0 3.069312 1_544
Sb0 Sn0 3.069312 1_545
