# generated using pymatgen
data_Nd2(InCu3)3
_symmetry_space_group_name_H-M   'P 1'
_cell_length_a   5.17091300
_cell_length_b   10.70687600
_cell_length_c   17.10494100
_cell_angle_alpha   90.00000000
_cell_angle_beta   90.00000000
_cell_angle_gamma   90.00000000
_symmetry_Int_Tables_number   1
_chemical_formula_structural   Nd2(InCu3)3
_chemical_formula_sum   'Nd8 In12 Cu36'
_cell_volume   947.00350062
_cell_formula_units_Z   4
loop_
 _symmetry_equiv_pos_site_id
 _symmetry_equiv_pos_as_xyz
  1  'x, y, z'
loop_
 _atom_site_type_symbol
 _atom_site_label
 _atom_site_symmetry_multiplicity
 _atom_site_fract_x
 _atom_site_fract_y
 _atom_site_fract_z
 _atom_site_occupancy
  Nd  Nd0  1  0.50000000  0.87841600  0.73614700  1
  Nd  Nd1  1  0.50000000  0.12158400  0.26385300  1
  Nd  Nd2  1  0.00000000  0.62158400  0.23614700  1
  Nd  Nd3  1  0.00000000  0.37841600  0.76385300  1
  Nd  Nd4  1  0.50000000  0.50000000  0.50000000  1
  Nd  Nd5  1  0.00000000  0.00000000  0.00000000  1
  Nd  Nd6  1  0.50000000  0.50000000  0.00000000  1
  Nd  Nd7  1  0.00000000  0.00000000  0.50000000  1
  In  In0  1  0.50000000  0.80600200  0.54914900  1
  In  In1  1  0.50000000  0.19399800  0.45085100  1
  In  In2  1  0.00000000  0.69399800  0.04914900  1
  In  In3  1  0.00000000  0.30600200  0.95085100  1
  In  In4  1  0.50000000  0.58325200  0.80608600  1
  In  In5  1  0.50000000  0.41674800  0.19391400  1
  In  In6  1  0.00000000  0.91674800  0.30608600  1
  In  In7  1  0.00000000  0.08325200  0.69391400  1
  In  In8  1  0.50000000  0.95880100  0.90953000  1
  In  In9  1  0.50000000  0.04119900  0.09047000  1
  In  In10  1  0.00000000  0.54119900  0.40953000  1
  In  In11  1  0.00000000  0.45880100  0.59047000  1
  Cu  Cu0  1  0.25822300  0.64077400  0.66075400  1
  Cu  Cu1  1  0.25822300  0.35922600  0.33924600  1
  Cu  Cu2  1  0.24177700  0.85922600  0.16075400  1
  Cu  Cu3  1  0.24177700  0.14077400  0.83924600  1
  Cu  Cu4  1  0.74177700  0.35922600  0.33924600  1
  Cu  Cu5  1  0.74177700  0.64077400  0.66075400  1
  Cu  Cu6  1  0.75822300  0.14077400  0.83924600  1
  Cu  Cu7  1  0.75822300  0.85922600  0.16075400  1
  Cu  Cu8  1  0.50000000  0.65778200  0.15271500  1
  Cu  Cu9  1  0.50000000  0.34221800  0.84728500  1
  Cu  Cu10  1  0.00000000  0.84221800  0.65271500  1
  Cu  Cu11  1  0.00000000  0.15778200  0.34728500  1
  Cu  Cu12  1  0.50000000  0.95385900  0.40353200  1
  Cu  Cu13  1  0.50000000  0.04614100  0.59646800  1
  Cu  Cu14  1  0.00000000  0.54614100  0.90353200  1
  Cu  Cu15  1  0.00000000  0.45385900  0.09646800  1
  Cu  Cu16  1  0.24476700  0.74683400  0.90611900  1
  Cu  Cu17  1  0.24476700  0.25316600  0.09388100  1
  Cu  Cu18  1  0.25523300  0.75316600  0.40611900  1
  Cu  Cu19  1  0.25523300  0.24683400  0.59388100  1
  Cu  Cu20  1  0.75523300  0.25316600  0.09388100  1
  Cu  Cu21  1  0.75523300  0.74683400  0.90611900  1
  Cu  Cu22  1  0.74476700  0.24683400  0.59388100  1
  Cu  Cu23  1  0.74476700  0.75316600  0.40611900  1
  Cu  Cu24  1  0.50000000  0.57071000  0.32895800  1
  Cu  Cu25  1  0.50000000  0.42929000  0.67104200  1
  Cu  Cu26  1  0.00000000  0.92929000  0.82895800  1
  Cu  Cu27  1  0.00000000  0.07071000  0.17104200  1
  Cu  Cu28  1  0.50000000  0.79763200  0.03495200  1
  Cu  Cu29  1  0.50000000  0.20236800  0.96504800  1
  Cu  Cu30  1  0.00000000  0.70236800  0.53495200  1
  Cu  Cu31  1  0.00000000  0.29763200  0.46504800  1
  Cu  Cu32  1  0.50000000  0.79858300  0.28117000  1
  Cu  Cu33  1  0.50000000  0.20141700  0.71883000  1
  Cu  Cu34  1  0.00000000  0.70141700  0.78117000  1
  Cu  Cu35  1  0.00000000  0.29858300  0.21883000  1
loop_
_geom_bond_atom_site_label_1
_geom_bond_atom_site_label_2
_geom_bond_distance
_geom_bond_site_symmetry_2
In0 Nd0 3.291217 1_555
In0 Nd4 3.382465 1_555
In0 Nd7 3.421366 1_565
In0 Nd7 3.421366 1_665
In1 Nd1 3.291217 1_555
In1 Nd4 3.382465 1_555
In1 Nd7 3.421366 1_655
In1 Nd7 3.421366 1_555
In2 Nd2 3.291217 1_555
In2 Nd5 3.382465 1_565
In2 Nd6 3.421366 1_455
In2 Nd6 3.421366 1_555
In3 Nd3 3.291217 1_555
In3 Nd5 3.382465 1_556
In3 Nd6 3.421366 1_456
In3 Nd6 3.421366 1_556
In4 Nd0 3.379133 1_555
In4 Nd6 3.434571 1_556
In4 Nd3 3.466462 1_655
In4 Nd3 3.466462 1_555
In5 Nd1 3.379133 1_555
In5 Nd6 3.434571 1_555
In5 Nd2 3.466462 1_555
In5 Nd2 3.466462 1_655
In6 Nd2 3.379133 1_555
In6 Nd7 3.434571 1_565
In6 Nd1 3.466462 1_465
In6 Nd1 3.466462 1_565
In7 Nd3 3.379133 1_555
In7 Nd7 3.434571 1_555
In7 Nd0 3.466462 1_445
In7 Nd0 3.466462 1_545
In8 Nd5 3.045303 1_566
In8 Nd5 3.045303 1_666
In8 Nd0 3.088069 1_555
In8 In9 3.218252 1_566
In9 Nd5 3.045303 1_655
In9 Nd5 3.045303 1_555
In9 Nd1 3.088069 1_555
In10 Nd4 3.045303 1_555
In10 Nd4 3.045303 1_455
In10 Nd2 3.088069 1_555
In10 In11 3.218252 1_555
In11 Nd4 3.045303 1_455
In11 Nd4 3.045303 1_555
In11 Nd3 3.088069 1_555
Cu0 Cu5 2.500416 1_555
Cu0 Cu34 2.539070 1_555
Cu0 Cu10 2.540421 1_555
Cu0 Cu25 2.592526 1_555
Cu0 Cu30 2.616906 1_555
Cu0 In11 2.650339 1_555
Cu0 Cu5 2.670497 1_455
Cu0 In4 2.849913 1_555
Cu0 In0 2.887372 1_555
Cu0 Nd0 3.114492 1_555
Cu0 Nd4 3.375738 1_555
Cu0 Nd3 3.575403 1_555
Cu1 Cu4 2.500416 1_555
Cu1 Cu35 2.539070 1_555
Cu1 Cu11 2.540421 1_555
Cu1 Cu24 2.592526 1_555
Cu1 Cu31 2.616906 1_555
Cu1 In10 2.650339 1_555
Cu1 Cu4 2.670497 1_455
Cu1 In5 2.849913 1_555
Cu1 In1 2.887372 1_555
Cu1 Nd1 3.114492 1_555
Cu1 Nd4 3.375738 1_555
Cu1 Nd2 3.575403 1_555
Cu2 Cu7 2.500416 1_455
Cu2 Cu32 2.539070 1_555
Cu2 Cu8 2.540421 1_555
Cu2 Cu27 2.592526 1_565
Cu2 Cu28 2.616906 1_555
Cu2 In9 2.650339 1_565
Cu2 Cu7 2.670497 1_555
Cu2 In6 2.849913 1_555
Cu2 In2 2.887372 1_555
Cu2 Nd2 3.114492 1_555
Cu2 Nd5 3.375738 1_565
Cu2 Nd1 3.575403 1_565
Cu3 Cu6 2.500416 1_455
Cu3 Cu33 2.539070 1_555
Cu3 Cu9 2.540421 1_555
Cu3 In8 2.650339 1_545
Cu3 Cu6 2.670497 1_555
Cu3 In7 2.849913 1_555
Cu3 In3 2.887372 1_555
Cu3 Nd3 3.114492 1_555
Cu3 Nd5 3.375738 1_556
Cu3 Nd0 3.575403 1_545
Cu4 In10 2.650339 1_655
Cu4 In5 2.849913 1_555
Cu4 In1 2.887372 1_555
Cu4 Nd1 3.114492 1_555
Cu4 Nd4 3.375738 1_555
Cu4 Nd2 3.575403 1_655
Cu5 In11 2.650339 1_655
Cu5 In4 2.849913 1_555
Cu5 In0 2.887372 1_555
Cu5 Nd0 3.114492 1_555
Cu5 Nd4 3.375738 1_555
Cu5 Nd3 3.575403 1_655
Cu6 Cu9 2.540421 1_555
Cu6 In8 2.650339 1_545
Cu6 In7 2.849913 1_655
Cu6 In3 2.887372 1_655
Cu6 Nd3 3.114492 1_655
Cu6 Nd5 3.375738 1_656
Cu6 Nd0 3.575403 1_545
Cu7 Cu8 2.540421 1_555
Cu7 In9 2.650339 1_565
Cu7 In6 2.849913 1_655
Cu7 In2 2.887372 1_655
Cu7 Nd2 3.114492 1_655
Cu7 Nd5 3.375738 1_665
Cu7 Nd1 3.575403 1_565
Cu8 In5 2.675207 1_555
Cu8 Nd2 2.978491 1_555
Cu8 Nd2 2.978491 1_655
Cu8 Nd6 3.110852 1_555
Cu8 In2 3.158025 1_555
Cu8 In2 3.158025 1_655
Cu9 In4 2.675207 1_555
Cu9 Nd3 2.978491 1_655
Cu9 Nd3 2.978491 1_555
Cu9 Nd6 3.110852 1_556
Cu9 In3 3.158025 1_655
Cu9 In3 3.158025 1_555
Cu10 Cu30 2.509900 1_555
Cu10 Cu5 2.540421 1_455
Cu10 Cu34 2.664663 1_555
Cu10 In7 2.675207 1_565
Cu10 Nd0 2.978491 1_455
Cu10 Nd0 2.978491 1_555
Cu10 Nd7 3.110852 1_565
Cu10 Cu26 3.155487 1_555
Cu10 In0 3.158025 1_455
Cu10 In0 3.158025 1_555
Cu11 Cu31 2.509900 1_555
Cu11 Cu4 2.540421 1_455
Cu11 Cu35 2.664663 1_555
Cu11 In6 2.675207 1_545
Cu11 Nd1 2.978491 1_455
Cu11 Nd1 2.978491 1_555
Cu11 Nd7 3.110852 1_555
Cu11 Cu27 3.155487 1_555
Cu11 In1 3.158025 1_455
Cu11 In1 3.158025 1_555
Cu12 Cu23 2.494233 1_555
Cu12 Cu18 2.494233 1_555
Cu12 Cu32 2.672939 1_555
Cu12 In1 2.695527 1_565
Cu12 In0 2.951288 1_555
Cu12 Nd1 2.988849 1_565
Cu12 In6 3.101728 1_555
Cu12 In6 3.101728 1_655
Cu12 Nd7 3.106672 1_565
Cu12 Nd7 3.106672 1_665
Cu13 Cu22 2.494233 1_555
Cu13 Cu19 2.494233 1_555
Cu13 Cu33 2.672939 1_555
Cu13 In0 2.695527 1_545
Cu13 In1 2.951288 1_555
Cu13 Nd0 2.988849 1_545
Cu13 In7 3.101728 1_555
Cu13 In7 3.101728 1_655
Cu13 Nd7 3.106672 1_655
Cu13 Nd7 3.106672 1_555
Cu14 Cu16 2.494233 1_555
Cu14 Cu21 2.494233 1_455
Cu14 Cu34 2.672939 1_555
Cu14 In3 2.695527 1_555
Cu14 In2 2.951288 1_556
Cu14 Nd3 2.988849 1_555
Cu14 In4 3.101728 1_455
Cu14 In4 3.101728 1_555
Cu14 Nd6 3.106672 1_556
Cu14 Nd6 3.106672 1_456
Cu15 Cu17 2.494233 1_555
Cu15 Cu20 2.494233 1_455
Cu15 Cu35 2.672939 1_555
Cu15 In2 2.695527 1_555
Cu15 In3 2.951288 1_554
Cu15 Nd2 2.988849 1_555
Cu15 In5 3.101728 1_455
Cu15 In5 3.101728 1_555
Cu15 Nd6 3.106672 1_455
Cu15 Nd6 3.106672 1_555
Cu16 Cu34 2.531047 1_555
Cu16 Cu21 2.531338 1_455
Cu16 Cu28 2.625617 1_556
Cu16 In8 2.626003 1_555
Cu16 Cu21 2.639575 1_555
Cu16 Cu26 2.675850 1_555
Cu16 In4 2.781573 1_555
Cu16 In2 2.812010 1_556
Cu16 Nd6 3.362295 1_556
Cu16 Nd5 3.395298 1_566
Cu16 Nd0 3.489899 1_555
Cu17 Cu35 2.531047 1_555
Cu17 Cu20 2.531338 1_455
Cu17 Cu29 2.625617 1_554
Cu17 In9 2.626003 1_555
Cu17 Cu20 2.639575 1_555
Cu17 Cu27 2.675850 1_555
Cu17 In5 2.781573 1_555
Cu17 In3 2.812010 1_554
Cu17 Nd6 3.362295 1_555
Cu17 Nd5 3.395298 1_555
Cu17 Nd1 3.489899 1_555
Cu18 Cu32 2.531047 1_555
Cu18 Cu23 2.531338 1_555
Cu18 Cu30 2.625617 1_555
Cu18 In10 2.626003 1_555
Cu18 Cu23 2.639575 1_455
Cu18 Cu24 2.675850 1_555
Cu18 In6 2.781573 1_555
Cu18 In0 2.812010 1_555
Cu18 Nd7 3.362295 1_565
Cu18 Nd4 3.395298 1_555
Cu18 Nd2 3.489899 1_555
Cu19 Cu33 2.531047 1_555
Cu19 Cu22 2.531338 1_555
Cu19 Cu31 2.625617 1_555
Cu19 In11 2.626003 1_555
Cu19 Cu22 2.639575 1_455
Cu19 Cu25 2.675850 1_555
Cu19 In7 2.781573 1_555
Cu19 In1 2.812010 1_555
Cu19 Nd7 3.362295 1_555
Cu19 Nd4 3.395298 1_555
Cu19 Nd3 3.489899 1_555
Cu20 Cu35 2.531047 1_655
Cu20 Cu29 2.625617 1_554
Cu20 In9 2.626003 1_555
Cu20 Cu27 2.675850 1_655
Cu20 In5 2.781573 1_555
Cu20 In3 2.812010 1_654
Cu20 Nd6 3.362295 1_555
Cu20 Nd5 3.395298 1_655
Cu20 Nd1 3.489899 1_555
Cu21 Cu34 2.531047 1_655
Cu21 Cu28 2.625617 1_556
Cu21 In8 2.626003 1_555
Cu21 Cu26 2.675850 1_655
Cu21 In4 2.781573 1_555
Cu21 In2 2.812010 1_656
Cu21 Nd6 3.362295 1_556
Cu21 Nd5 3.395298 1_666
Cu21 Nd0 3.489899 1_555
Cu22 Cu33 2.531047 1_555
Cu22 Cu31 2.625617 1_655
Cu22 In11 2.626003 1_655
Cu22 Cu25 2.675850 1_555
Cu22 In7 2.781573 1_655
Cu22 In1 2.812010 1_555
Cu22 Nd7 3.362295 1_655
Cu22 Nd4 3.395298 1_555
Cu22 Nd3 3.489899 1_655
Cu23 Cu32 2.531047 1_555
Cu23 Cu30 2.625617 1_655
Cu23 In10 2.626003 1_655
Cu23 Cu24 2.675850 1_555
Cu23 In6 2.781573 1_655
Cu23 In0 2.812010 1_555
Cu23 Nd7 3.362295 1_665
Cu23 Nd4 3.395298 1_555
Cu23 Nd2 3.489899 1_655
Cu24 Cu32 2.573096 1_555
Cu24 Cu4 2.592526 1_555
Cu24 In5 2.837802 1_555
Cu24 In10 2.946829 1_655
Cu24 In10 2.946829 1_555
Cu24 Nd4 3.022033 1_555
Cu24 Nd2 3.082455 1_555
Cu24 Nd2 3.082455 1_655
Cu24 Cu8 3.155487 1_555
Cu25 Cu33 2.573096 1_555
Cu25 Cu5 2.592526 1_555
Cu25 In4 2.837802 1_555
Cu25 In11 2.946829 1_555
Cu25 In11 2.946829 1_655
Cu25 Nd4 3.022033 1_555
Cu25 Nd3 3.082455 1_555
Cu25 Nd3 3.082455 1_655
Cu25 Cu9 3.155487 1_555
Cu26 Cu34 2.573096 1_555
Cu26 Cu6 2.592526 1_465
Cu26 Cu3 2.592526 1_565
Cu26 In7 2.837802 1_565
Cu26 In8 2.946829 1_455
Cu26 In8 2.946829 1_555
Cu26 Nd5 3.022033 1_566
Cu26 Nd0 3.082455 1_455
Cu26 Nd0 3.082455 1_555
Cu27 Cu35 2.573096 1_555
Cu27 Cu7 2.592526 1_445
Cu27 In6 2.837802 1_545
Cu27 In9 2.946829 1_455
Cu27 In9 2.946829 1_555
Cu27 Nd5 3.022033 1_555
Cu27 Nd1 3.082455 1_555
Cu27 Nd1 3.082455 1_455
Cu28 Cu8 2.509900 1_555
Cu28 Cu7 2.616906 1_555
Cu28 In8 2.753220 1_554
Cu28 In9 2.775363 1_565
Cu28 In2 2.823962 1_555
Cu28 In2 2.823962 1_655
Cu28 Nd6 3.242305 1_555
Cu28 Nd5 3.425891 1_665
Cu28 Nd5 3.425891 1_565
Cu29 Cu9 2.509900 1_555
Cu29 Cu6 2.616906 1_555
Cu29 Cu3 2.616906 1_555
Cu29 In9 2.753220 1_556
Cu29 In8 2.775363 1_545
Cu29 In3 2.823962 1_555
Cu29 In3 2.823962 1_655
Cu29 Nd6 3.242305 1_556
Cu29 Nd5 3.425891 1_556
Cu29 Nd5 3.425891 1_656
Cu30 Cu5 2.616906 1_455
Cu30 In10 2.753220 1_555
Cu30 In11 2.775363 1_555
Cu30 In0 2.823962 1_455
Cu30 In0 2.823962 1_555
Cu30 Nd7 3.242305 1_565
Cu30 Nd4 3.425891 1_555
Cu30 Nd4 3.425891 1_455
Cu31 Cu4 2.616906 1_455
Cu31 In11 2.753220 1_555
Cu31 In10 2.775363 1_555
Cu31 In1 2.823962 1_555
Cu31 In1 2.823962 1_455
Cu31 Nd7 3.242305 1_555
Cu31 Nd4 3.425891 1_455
Cu31 Nd4 3.425891 1_555
Cu32 Cu7 2.539070 1_555
Cu32 Cu8 2.664663 1_555
Cu32 In6 2.909793 1_555
Cu32 In6 2.909793 1_655
Cu32 Nd2 3.296831 1_555
Cu32 Nd2 3.296831 1_655
Cu32 Nd1 3.470994 1_565
Cu33 Cu6 2.539070 1_555
Cu33 Cu9 2.664663 1_555
Cu33 In7 2.909793 1_555
Cu33 In7 2.909793 1_655
Cu33 Nd3 3.296831 1_655
Cu33 Nd3 3.296831 1_555
Cu33 Nd0 3.470994 1_545
Cu34 Cu5 2.539070 1_455
Cu34 In4 2.909793 1_555
Cu34 In4 2.909793 1_455
Cu34 Nd0 3.296831 1_455
Cu34 Nd0 3.296831 1_555
Cu34 Nd3 3.470994 1_555
Cu35 Cu4 2.539070 1_455
Cu35 In5 2.909793 1_555
Cu35 In5 2.909793 1_455
Cu35 Nd1 3.296831 1_555
Cu35 Nd1 3.296831 1_455
Cu35 Nd2 3.470994 1_555
