# generated using pymatgen
data_Te4Mo3WSe4
_symmetry_space_group_name_H-M   'P 1'
_cell_length_a   3.43944994
_cell_length_b   3.43944994
_cell_length_c   39.09480600
_cell_angle_alpha   90.00000000
_cell_angle_beta   90.00000000
_cell_angle_gamma   119.99999875
_symmetry_Int_Tables_number   1
_chemical_formula_structural   Te4Mo3WSe4
_chemical_formula_sum   'Te4 Mo3 W1 Se4'
_cell_volume   400.52320609
_cell_formula_units_Z   1
loop_
 _symmetry_equiv_pos_site_id
 _symmetry_equiv_pos_as_xyz
  1  'x, y, z'
loop_
 _atom_site_type_symbol
 _atom_site_label
 _atom_site_symmetry_multiplicity
 _atom_site_fract_x
 _atom_site_fract_y
 _atom_site_fract_z
 _atom_site_occupancy
  Te  Te0  1  0.00000000  0.00000000  0.32918800  1
  Te  Te1  1  0.33333300  0.66666700  0.42198700  1
  Te  Te2  1  0.33333300  0.66666700  0.51740500  1
  Te  Te3  1  0.00000000  0.00000000  0.23433400  1
  Mo  Mo0  1  0.00000000  0.00000000  0.09391200  1
  Mo  Mo1  1  0.33333300  0.66666700  0.28174500  1
  Mo  Mo2  1  0.33333300  0.66666700  0.65753900  1
  W  W0  1  0.00000000  0.00000000  0.46971200  1
  Se  Se0  1  0.00000000  0.00000000  0.69936200  1
  Se  Se1  1  0.33333300  0.66666700  0.05211500  1
  Se  Se2  1  0.33333300  0.66666700  0.13574100  1
  Se  Se3  1  0.00000000  0.00000000  0.61570700  1
loop_
_geom_bond_atom_site_label_1
_geom_bond_atom_site_label_2
_geom_bond_distance
_geom_bond_site_symmetry_2
Te1 W0 2.724788 1_565
Te1 W0 2.724791 1_555
Te1 W0 2.724791 1_665
Te2 W0 2.723932 1_565
Te2 W0 2.723934 1_665
Te2 W0 2.723934 1_555
Mo0 Se1 2.571647 1_545
Mo0 Se1 2.571649 1_555
Mo0 Se1 2.571649 1_445
Mo0 Se2 2.572442 1_545
Mo0 Se2 2.572445 1_445
Mo0 Se2 2.572445 1_555
Mo1 Te3 2.716397 1_565
Mo1 Te3 2.716400 1_665
Mo1 Te3 2.716400 1_555
Mo1 Te0 2.717251 1_565
Mo1 Te0 2.717253 1_665
Mo1 Te0 2.717253 1_555
Mo2 Se0 2.572293 1_565
Mo2 Se0 2.572295 1_665
Mo2 Se0 2.572295 1_555
Mo2 Se3 2.572517 1_565
Mo2 Se3 2.572519 1_665
Mo2 Se3 2.572519 1_555
