# generated using pymatgen
data_Na3Nd(PO4)2
_symmetry_space_group_name_H-M   'P 1'
_cell_length_a   5.39137927
_cell_length_b   14.07503728
_cell_length_c   18.82862521
_cell_angle_alpha   90.00000000
_cell_angle_beta   90.00000000
_cell_angle_gamma   90.00000000
_symmetry_Int_Tables_number   1
_chemical_formula_structural   Na3Nd(PO4)2
_chemical_formula_sum   'Na24 Nd8 P16 O64'
_cell_volume   1428.78883881
_cell_formula_units_Z   8
loop_
 _symmetry_equiv_pos_site_id
 _symmetry_equiv_pos_as_xyz
  1  'x, y, z'
loop_
 _atom_site_type_symbol
 _atom_site_label
 _atom_site_symmetry_multiplicity
 _atom_site_fract_x
 _atom_site_fract_y
 _atom_site_fract_z
 _atom_site_occupancy
  Na  Na0  1  0.98432842  0.21640200  0.99335951  1
  Na  Na1  1  0.01567158  0.78359800  0.49335951  1
  Na  Na2  1  0.01567158  0.71640200  0.99335951  1
  Na  Na3  1  0.98432842  0.28359800  0.49335951  1
  Na  Na4  1  0.98915950  0.95191397  0.64805426  1
  Na  Na5  1  0.01084050  0.04808603  0.14805426  1
  Na  Na6  1  0.01084050  0.45191397  0.64805426  1
  Na  Na7  1  0.98915950  0.54808603  0.14805426  1
  Na  Na8  1  0.99125216  0.86185131  0.82859858  1
  Na  Na9  1  0.00874784  0.13814869  0.32859858  1
  Na  Na10  1  0.00874784  0.36185131  0.82859858  1
  Na  Na11  1  0.99125216  0.63814869  0.32859858  1
  Na  Na12  1  0.47523807  0.79758295  0.73134242  1
  Na  Na13  1  0.52476193  0.20241705  0.23134242  1
  Na  Na14  1  0.52476193  0.29758295  0.73134242  1
  Na  Na15  1  0.47523807  0.70241705  0.23134242  1
  Na  Na16  1  0.53999687  0.96742555  0.88795856  1
  Na  Na17  1  0.46000313  0.03257445  0.38795856  1
  Na  Na18  1  0.46000313  0.46742555  0.88795856  1
  Na  Na19  1  0.53999687  0.53257445  0.38795856  1
  Na  Na20  1  0.49789946  0.88480603  0.55039801  1
  Na  Na21  1  0.50210054  0.11519397  0.05039801  1
  Na  Na22  1  0.50210054  0.38480603  0.55039801  1
  Na  Na23  1  0.49789946  0.61519397  0.05039801  1
  Nd  Nd0  1  0.92781105  0.61349218  0.80276834  1
  Nd  Nd1  1  0.07218895  0.38650782  0.30276834  1
  Nd  Nd2  1  0.07218895  0.11349218  0.80276834  1
  Nd  Nd3  1  0.92781105  0.88650782  0.30276834  1
  Nd  Nd4  1  0.55607067  0.63546130  0.57479339  1
  Nd  Nd5  1  0.44392933  0.36453870  0.07479339  1
  Nd  Nd6  1  0.44392933  0.13546130  0.57479339  1
  Nd  Nd7  1  0.55607067  0.86453870  0.07479339  1
  P  P0  1  0.96850504  0.47505256  0.98060682  1
  P  P1  1  0.03149496  0.52494744  0.48060682  1
  P  P2  1  0.03149496  0.97505256  0.98060682  1
  P  P3  1  0.96850504  0.02494744  0.48060682  1
  P  P4  1  0.98653734  0.22856625  0.65298595  1
  P  P5  1  0.01346266  0.77143375  0.15298595  1
  P  P6  1  0.01346266  0.72856625  0.65298595  1
  P  P7  1  0.98653734  0.27143375  0.15298595  1
  P  P8  1  0.47499486  0.52088748  0.72394270  1
  P  P9  1  0.52500514  0.47911252  0.22394270  1
  P  P10  1  0.52500514  0.02088748  0.72394270  1
  P  P11  1  0.47499486  0.97911252  0.22394270  1
  P  P12  1  0.46025956  0.72631894  0.89652345  1
  P  P13  1  0.53974044  0.27368106  0.39652345  1
  P  P14  1  0.53974044  0.22631894  0.89652345  1
  P  P15  1  0.46025956  0.77368106  0.39652345  1
  O  O0  1  0.58353055  0.80445190  0.85095974  1
  O  O1  1  0.41646945  0.19554810  0.35095974  1
  O  O2  1  0.41646945  0.30445190  0.85095974  1
  O  O3  1  0.58353055  0.69554810  0.35095974  1
  O  O4  1  0.69314869  0.47039859  0.76296244  1
  O  O5  1  0.30685131  0.52960141  0.26296244  1
  O  O6  1  0.30685131  0.97039859  0.76296244  1
  O  O7  1  0.69314869  0.02960141  0.26296244  1
  O  O8  1  0.89968595  0.87808668  0.99487779  1
  O  O9  1  0.10031405  0.12191332  0.49487779  1
  O  O10  1  0.10031405  0.37808668  0.99487779  1
  O  O11  1  0.89968595  0.62191332  0.49487779  1
  O  O12  1  0.80217094  0.77990530  0.61139058  1
  O  O13  1  0.19782906  0.22009470  0.11139058  1
  O  O14  1  0.19782906  0.27990530  0.61139058  1
  O  O15  1  0.80217094  0.72009470  0.11139058  1
  O  O16  1  0.68474452  0.46595300  0.99789917  1
  O  O17  1  0.31525548  0.53404700  0.49789917  1
  O  O18  1  0.31525548  0.96595300  0.99789917  1
  O  O19  1  0.68474452  0.03404700  0.49789917  1
  O  O20  1  0.91248143  0.44651338  0.52697174  1
  O  O21  1  0.08751857  0.55348662  0.02697174  1
  O  O22  1  0.08751857  0.94651338  0.52697174  1
  O  O23  1  0.91248143  0.05348662  0.02697174  1
  O  O24  1  0.77356949  0.99310865  0.76028936  1
  O  O25  1  0.22643051  0.00689135  0.26028936  1
  O  O26  1  0.22643051  0.49310865  0.76028936  1
  O  O27  1  0.77356949  0.50689135  0.26028936  1
  O  O28  1  0.59588684  0.62994249  0.88394142  1
  O  O29  1  0.40411316  0.37005751  0.38394142  1
  O  O30  1  0.40411316  0.12994249  0.88394142  1
  O  O31  1  0.59588684  0.87005751  0.38394142  1
  O  O32  1  0.52079619  0.62979880  0.72639866  1
  O  O33  1  0.47920381  0.37020120  0.22639866  1
  O  O34  1  0.47920381  0.12979880  0.72639866  1
  O  O35  1  0.52079619  0.87020120  0.22639866  1
  O  O36  1  0.96525372  0.61981857  0.65061189  1
  O  O37  1  0.03474628  0.38018143  0.15061189  1
  O  O38  1  0.03474628  0.11981857  0.65061189  1
  O  O39  1  0.96525372  0.88018143  0.15061189  1
  O  O40  1  0.82051710  0.21609626  0.87589875  1
  O  O41  1  0.17948290  0.78390374  0.37589875  1
  O  O42  1  0.17948290  0.71609626  0.87589875  1
  O  O43  1  0.82051710  0.28390374  0.37589875  1
  O  O44  1  0.98983732  0.26085181  0.73207378  1
  O  O45  1  0.01016268  0.73914819  0.23207378  1
  O  O46  1  0.01016268  0.76085181  0.73207378  1
  O  O47  1  0.98983732  0.23914819  0.23207378  1
  O  O48  1  0.52928413  0.98906612  0.64458988  1
  O  O49  1  0.47071587  0.01093388  0.14458988  1
  O  O50  1  0.47071587  0.48906612  0.64458988  1
  O  O51  1  0.52928413  0.51093388  0.14458988  1
  O  O52  1  0.99557317  0.99793095  0.89993779  1
  O  O53  1  0.00442683  0.00206905  0.39993779  1
  O  O54  1  0.00442683  0.49793095  0.89993779  1
  O  O55  1  0.99557317  0.50206905  0.39993779  1
  O  O56  1  0.26656862  0.75521586  0.61873188  1
  O  O57  1  0.73343138  0.24478414  0.11873188  1
  O  O58  1  0.73343138  0.25521586  0.61873188  1
  O  O59  1  0.26656862  0.74478414  0.11873188  1
  O  O60  1  0.47226025  0.74904377  0.97773313  1
  O  O61  1  0.52773975  0.25095623  0.47773313  1
  O  O62  1  0.52773975  0.24904377  0.97773313  1
  O  O63  1  0.47226025  0.75095623  0.47773313  1
loop_
_geom_bond_atom_site_label_1
_geom_bond_atom_site_label_2
_geom_bond_distance
_geom_bond_site_symmetry_2
Na0 O10 2.360241 1_655
Na0 O40 2.381447 1_555
Na0 O23 2.410104 1_556
Na0 O13 2.503307 1_656
Na0 O62 2.521375 1_555
Na0 O57 2.749857 1_556
Na0 O62 2.980101 1_655
Na1 O11 2.360241 1_455
Na1 O41 2.381447 1_555
Na1 O22 2.410104 1_555
Na1 O12 2.503307 1_455
Na1 O63 2.521375 1_555
Na1 O56 2.749857 1_555
Na1 O63 2.980101 1_455
Na2 O8 2.360241 1_455
Na2 O42 2.381447 1_555
Na2 O21 2.410104 1_556
Na2 O15 2.503307 1_456
Na2 O60 2.521375 1_555
Na2 O59 2.749857 1_556
Na2 O60 2.980101 1_455
Na3 O9 2.360241 1_655
Na3 O43 2.381447 1_555
Na3 O20 2.410104 1_555
Na3 O14 2.503307 1_655
Na3 O61 2.521375 1_555
Na3 O58 2.749857 1_555
Na3 O61 2.980101 1_655
Na4 O22 2.341912 1_655
Na4 O38 2.376497 1_665
Na4 O24 2.480513 1_555
Na4 O48 2.534746 1_555
Na4 O12 2.711872 1_555
Na4 O6 2.771709 1_655
Na4 O48 2.959314 1_655
Na5 O23 2.341912 1_455
Na5 O39 2.376497 1_445
Na5 O25 2.480513 1_555
Na5 O49 2.534746 1_555
Na5 O13 2.711872 1_555
Na5 O7 2.771709 1_455
Na5 O49 2.959314 1_455
Na6 O20 2.341912 1_455
Na6 O36 2.376497 1_455
Na6 O26 2.480513 1_555
Na6 O50 2.534746 1_555
Na6 O14 2.711872 1_555
Na6 O4 2.771709 1_455
Na6 O50 2.959314 1_455
Na7 O21 2.341912 1_655
Na7 O37 2.376497 1_655
Na7 O27 2.480513 1_555
Na7 O51 2.534746 1_555
Na7 O15 2.711872 1_555
Na7 O5 2.771709 1_655
Na7 O51 2.959314 1_655
Na8 O46 2.309613 1_655
Na8 O52 2.339499 1_555
Na8 O0 2.379489 1_555
Na8 O42 2.455955 1_655
Na8 O24 2.538635 1_555
Na8 O6 2.599354 1_655
Na9 O47 2.309613 1_455
Na9 O53 2.339499 1_555
Na9 O1 2.379489 1_555
Na9 O43 2.455955 1_455
Na9 O25 2.538635 1_555
Na9 O7 2.599354 1_455
Na10 O44 2.309613 1_455
Na10 O54 2.339499 1_555
Na10 O2 2.379489 1_555
Na10 O40 2.455955 1_455
Na10 O26 2.538635 1_555
Na10 O4 2.599354 1_455
Na11 O45 2.309613 1_655
Na11 O55 2.339499 1_555
Na11 O3 2.379489 1_555
Na11 O41 2.455955 1_655
Na11 O27 2.538635 1_555
Na11 O5 2.599354 1_655
Na12 O0 2.328682 1_555
Na12 O32 2.376131 1_555
Na12 O56 2.473244 1_555
Na12 O46 2.560179 1_555
Na12 O6 2.663668 1_555
Na12 O12 2.875706 1_555
Na12 O46 2.929986 1_655
Na13 O1 2.328682 1_555
Na13 O33 2.376131 1_555
Na13 O57 2.473244 1_555
Na13 O47 2.560179 1_555
Na13 O7 2.663668 1_555
Na13 O13 2.875706 1_555
Na13 O47 2.929986 1_455
Na14 O2 2.328682 1_555
Na14 O34 2.376131 1_555
Na14 O58 2.473244 1_555
Na14 O44 2.560179 1_555
Na14 O4 2.663668 1_555
Na14 O14 2.875706 1_555
Na14 O44 2.929986 1_455
Na15 O3 2.328682 1_555
Na15 O35 2.376131 1_555
Na15 O59 2.473244 1_555
Na15 O45 2.560179 1_555
Na15 O5 2.663668 1_555
Na15 O15 2.875706 1_555
Na15 O45 2.929986 1_655
Na16 O18 2.398664 1_555
Na16 O30 2.403075 1_565
Na16 O0 2.408772 1_555
Na16 O52 2.503612 1_555
Na16 O6 2.668469 1_555
Na16 O24 2.737678 1_555
Na17 O19 2.398664 1_555
Na17 O31 2.403075 1_545
Na17 O1 2.408772 1_555
Na17 O53 2.503612 1_555
Na17 O7 2.668469 1_555
Na17 O25 2.737678 1_555
Na18 O16 2.398664 1_555
Na18 O28 2.403075 1_555
Na18 O2 2.408772 1_555
Na18 O54 2.503612 1_555
Na18 O4 2.668469 1_555
Na18 O26 2.737678 1_555
Na19 O17 2.398664 1_555
Na19 O29 2.403075 1_555
Na19 O3 2.408772 1_555
Na19 O55 2.503612 1_555
Na19 O5 2.668469 1_555
Na19 O27 2.737678 1_555
Na20 O48 2.308116 1_555
Na20 O63 2.332436 1_555
Na20 O22 2.417467 1_555
Na20 O12 2.487949 1_555
Na20 O19 2.530663 1_565
Na20 O56 2.556920 1_555
Na21 O49 2.308116 1_555
Na21 O62 2.332436 1_554
Na21 O23 2.417467 1_555
Na21 O13 2.487949 1_555
Na21 O18 2.530663 1_544
Na21 O57 2.556920 1_555
Na22 O50 2.308116 1_555
Na22 O61 2.332436 1_555
Na22 O20 2.417467 1_555
Na22 O14 2.487949 1_555
Na22 O17 2.530663 1_555
Na22 O58 2.556920 1_555
Na23 O51 2.308116 1_555
Na23 O60 2.332436 1_554
Na23 O21 2.417467 1_555
Na23 O15 2.487949 1_555
Na23 O16 2.530663 1_554
Na23 O59 2.556920 1_555
Nd0 O28 2.364733 1_555
Nd0 O42 2.413013 1_655
Nd0 O26 2.470368 1_655
Nd0 O54 2.482647 1_655
Nd0 O4 2.493740 1_555
Nd0 O46 2.504149 1_655
Nd0 O32 2.633554 1_555
Nd0 O36 2.873380 1_555
Nd1 O29 2.364733 1_555
Nd1 O43 2.413013 1_455
Nd1 O27 2.470368 1_455
Nd1 O55 2.482647 1_455
Nd1 O5 2.493740 1_555
Nd1 O47 2.504149 1_455
Nd1 O33 2.633554 1_555
Nd1 O37 2.873380 1_555
Nd2 O30 2.364733 1_555
Nd2 O40 2.413013 1_455
Nd2 O24 2.470368 1_445
Nd2 O52 2.482647 1_445
Nd2 O6 2.493740 1_545
Nd2 O44 2.504149 1_455
Nd2 O34 2.633554 1_555
Nd2 O38 2.873380 1_555
Nd3 O31 2.364733 1_555
Nd3 O41 2.413013 1_655
Nd3 O25 2.470368 1_665
Nd3 O53 2.482647 1_665
Nd3 O7 2.493740 1_565
Nd3 O45 2.504149 1_655
Nd3 O35 2.633554 1_555
Nd3 O39 2.873380 1_555
Nd4 O11 2.394257 1_555
Nd4 O17 2.412325 1_555
Nd4 O56 2.441649 1_555
Nd4 O50 2.486875 1_555
Nd4 O63 2.487274 1_555
Nd4 O12 2.523606 1_555
Nd4 O36 2.636874 1_555
Nd4 O32 2.861957 1_555
Nd5 O10 2.394257 1_554
Nd5 O16 2.412325 1_554
Nd5 O57 2.441649 1_555
Nd5 O51 2.486875 1_555
Nd5 O62 2.487274 1_554
Nd5 O13 2.523606 1_555
Nd5 O37 2.636874 1_555
Nd5 O33 2.861957 1_555
Nd6 O9 2.394257 1_555
Nd6 O19 2.412325 1_555
Nd6 O58 2.441649 1_555
Nd6 O48 2.486875 1_545
Nd6 O61 2.487274 1_555
Nd6 O14 2.523606 1_555
Nd6 O38 2.636874 1_555
Nd6 O34 2.861957 1_555
Nd7 O8 2.394257 1_554
Nd7 O18 2.412325 1_554
Nd7 O59 2.441649 1_555
Nd7 O49 2.486875 1_565
Nd7 O60 2.487274 1_554
Nd7 O15 2.523606 1_555
Nd7 O39 2.636874 1_555
Nd7 O35 2.861957 1_555
O0 P12 1.545019 1_555
O1 P13 1.545019 1_555
O2 P14 1.545019 1_555
O3 P15 1.545019 1_555
O4 P8 1.558234 1_555
O5 P9 1.558234 1_555
O6 P10 1.558234 1_565
O7 P11 1.558234 1_545
O8 P2 1.562010 1_655
O9 P3 1.562010 1_455
O10 P0 1.562010 1_455
O11 P1 1.562010 1_655
O12 P6 1.559871 1_655
O13 P7 1.559871 1_455
O14 P4 1.559871 1_455
O15 P5 1.559871 1_655
O16 P0 1.569359 1_555
O17 P1 1.569359 1_555
O18 P2 1.569359 1_555
O19 P3 1.569359 1_555
O20 P1 1.546787 1_655
O21 P0 1.546787 1_454
O22 P3 1.546787 1_465
O23 P2 1.546787 1_644
O24 P10 1.554702 1_565
O25 P11 1.554702 1_545
O26 P8 1.554702 1_555
O27 P9 1.554702 1_555
O28 P12 1.559135 1_555
O29 P13 1.559135 1_555
O30 P14 1.559135 1_555
O31 P15 1.559135 1_555
O32 P8 1.553381 1_555
O33 P9 1.553381 1_555
O34 P10 1.553381 1_555
O35 P11 1.553381 1_555
O36 P6 1.553182 1_655
O37 P7 1.553182 1_455
O38 P4 1.553182 1_455
O39 P5 1.553182 1_655
O40 P14 1.569400 1_555
O41 P15 1.569400 1_555
O42 P12 1.569400 1_555
O43 P13 1.569400 1_555
O44 P4 1.557009 1_555
O45 P5 1.557009 1_555
O46 P6 1.557009 1_555
O47 P7 1.557009 1_555
O48 P10 1.559963 1_565
O49 P11 1.559963 1_545
O50 P8 1.559963 1_555
O51 P9 1.559963 1_555
O52 P2 1.564678 1_655
O53 P3 1.564678 1_455
O54 P0 1.564678 1_455
O55 P1 1.564678 1_655
O56 P6 1.555240 1_555
O57 P7 1.555240 1_555
O58 P4 1.555240 1_555
O59 P5 1.555240 1_555
O60 P12 1.563501 1_555
O61 P13 1.563501 1_555
O62 P14 1.563501 1_555
O63 P15 1.563501 1_555
