# generated using pymatgen
data_Ca(NiO2)2
_symmetry_space_group_name_H-M   'P 1'
_cell_length_a   2.96803761
_cell_length_b   8.88645395
_cell_length_c   10.33947394
_cell_angle_alpha   90.00000000
_cell_angle_beta   90.00000000
_cell_angle_gamma   90.00000000
_symmetry_Int_Tables_number   1
_chemical_formula_structural   Ca(NiO2)2
_chemical_formula_sum   'Ca4 Ni8 O16'
_cell_volume   272.70703247
_cell_formula_units_Z   4
loop_
 _symmetry_equiv_pos_site_id
 _symmetry_equiv_pos_as_xyz
  1  'x, y, z'
loop_
 _atom_site_type_symbol
 _atom_site_label
 _atom_site_symmetry_multiplicity
 _atom_site_fract_x
 _atom_site_fract_y
 _atom_site_fract_z
 _atom_site_occupancy
  Ca  Ca0  1  0.25000000  0.24268208  0.33985752  1
  Ca  Ca1  1  0.75000000  0.75731792  0.66014248  1
  Ca  Ca2  1  0.25000000  0.74268208  0.16014248  1
  Ca  Ca3  1  0.75000000  0.25731792  0.83985752  1
  Ni  Ni0  1  0.75000000  0.41670660  0.10011826  1
  Ni  Ni1  1  0.25000000  0.08329340  0.60011826  1
  Ni  Ni2  1  0.75000000  0.91670660  0.39988174  1
  Ni  Ni3  1  0.25000000  0.58329340  0.89988174  1
  Ni  Ni4  1  0.25000000  0.56030290  0.38767236  1
  Ni  Ni5  1  0.75000000  0.43969710  0.61232764  1
  Ni  Ni6  1  0.25000000  0.06030290  0.11232764  1
  Ni  Ni7  1  0.75000000  0.93969710  0.88767236  1
  O  O0  1  0.75000000  0.92008988  0.07358607  1
  O  O1  1  0.25000000  0.07991012  0.92641393  1
  O  O2  1  0.75000000  0.42008988  0.42641393  1
  O  O3  1  0.25000000  0.57991012  0.57358607  1
  O  O4  1  0.75000000  0.02649913  0.71329223  1
  O  O5  1  0.25000000  0.97350087  0.28670777  1
  O  O6  1  0.75000000  0.52649913  0.78670777  1
  O  O7  1  0.25000000  0.47350087  0.21329223  1
  O  O8  1  0.75000000  0.61382064  0.02232909  1
  O  O9  1  0.25000000  0.38617936  0.97767091  1
  O  O10  1  0.75000000  0.11382064  0.47767091  1
  O  O11  1  0.25000000  0.88617936  0.52232909  1
  O  O12  1  0.25000000  0.79327021  0.84302044  1
  O  O13  1  0.75000000  0.20672979  0.15697956  1
  O  O14  1  0.75000000  0.70672979  0.34302044  1
  O  O15  1  0.25000000  0.29327021  0.65697956  1
loop_
_geom_bond_atom_site_label_1
_geom_bond_atom_site_label_2
_geom_bond_distance
_geom_bond_site_symmetry_2
Ca0 O2 2.342793 1_455
Ca0 O2 2.342793 1_555
Ca0 O10 2.354571 1_455
Ca0 O10 2.354571 1_555
Ca0 O13 2.424818 1_455
Ca0 O13 2.424818 1_555
Ca0 O7 2.433052 1_555
Ca0 O5 2.454379 1_545
Ca1 O3 2.342793 1_555
Ca1 O3 2.342793 1_655
Ca1 O11 2.354571 1_655
Ca1 O11 2.354571 1_555
Ca1 O12 2.424818 1_555
Ca1 O12 2.424818 1_655
Ca1 O6 2.433052 1_555
Ca1 O4 2.454379 1_565
Ca2 O0 2.342793 1_555
Ca2 O0 2.342793 1_455
Ca2 O8 2.354571 1_555
Ca2 O8 2.354571 1_455
Ca2 O14 2.424818 1_555
Ca2 O14 2.424818 1_455
Ca2 O5 2.433052 1_555
Ca2 O7 2.454379 1_555
Ca3 O1 2.342793 1_655
Ca3 O1 2.342793 1_555
Ca3 O9 2.354571 1_555
Ca3 O9 2.354571 1_655
Ca3 O15 2.424818 1_555
Ca3 O15 2.424818 1_655
Ca3 O4 2.433052 1_555
Ca3 O6 2.454379 1_555
Ni0 O8 1.927474 1_555
Ni0 O7 1.956095 1_655
Ni0 O7 1.956095 1_555
Ni0 O13 1.956377 1_555
Ni0 O9 1.969458 1_554
Ni0 O9 1.969458 1_654
Ni1 O11 1.927474 1_545
Ni1 O4 1.956095 1_455
Ni1 O4 1.956095 1_555
Ni1 O15 1.956377 1_555
Ni1 O10 1.969458 1_455
Ni1 O10 1.969458 1_555
Ni2 O10 1.927474 1_565
Ni2 O5 1.956095 1_655
Ni2 O5 1.956095 1_555
Ni2 O14 1.956377 1_555
Ni2 O11 1.969458 1_655
Ni2 O11 1.969458 1_555
Ni3 O9 1.927474 1_555
Ni3 O6 1.956095 1_555
Ni3 O6 1.956095 1_455
Ni3 O12 1.956377 1_555
Ni3 O8 1.969458 1_456
Ni3 O8 1.969458 1_556
Ni4 O3 1.930131 1_555
Ni4 O7 1.961072 1_555
Ni4 O2 1.978705 1_455
Ni4 O2 1.978705 1_555
Ni4 O14 2.026973 1_455
Ni4 O14 2.026973 1_555
Ni5 O2 1.930131 1_555
Ni5 O6 1.961072 1_555
Ni5 O3 1.978705 1_655
Ni5 O3 1.978705 1_555
Ni5 O15 2.026973 1_655
Ni5 O15 2.026973 1_555
Ni6 O1 1.930131 1_554
Ni6 O5 1.961072 1_545
Ni6 O0 1.978705 1_445
Ni6 O0 1.978705 1_545
Ni6 O13 2.026973 1_455
Ni6 O13 2.026973 1_555
Ni7 O0 1.930131 1_556
Ni7 O4 1.961072 1_565
Ni7 O1 1.978705 1_565
Ni7 O1 1.978705 1_665
Ni7 O12 2.026973 1_555
Ni7 O12 2.026973 1_655
