# generated using pymatgen
data_Ta3VSe6
_symmetry_space_group_name_H-M   'P 1'
_cell_length_a   6.02129067
_cell_length_b   6.02129067
_cell_length_c   12.87082283
_cell_angle_alpha   90.00000000
_cell_angle_beta   90.00000000
_cell_angle_gamma   120.00000533
_symmetry_Int_Tables_number   1
_chemical_formula_structural   Ta3VSe6
_chemical_formula_sum   'Ta6 V2 Se12'
_cell_volume   404.12536076
_cell_formula_units_Z   2
loop_
 _symmetry_equiv_pos_site_id
 _symmetry_equiv_pos_as_xyz
  1  'x, y, z'
loop_
 _atom_site_type_symbol
 _atom_site_label
 _atom_site_symmetry_multiplicity
 _atom_site_fract_x
 _atom_site_fract_y
 _atom_site_fract_z
 _atom_site_occupancy
  Ta  Ta0  1  0.00000000  -0.00000000  0.49999506  1
  Ta  Ta1  1  0.00000000  -0.00000000  0.00000494  1
  Ta  Ta2  1  0.33333300  0.66666700  0.00025485  1
  Ta  Ta3  1  0.66666700  0.33333300  0.99977725  1
  Ta  Ta4  1  0.66666700  0.33333300  0.50022275  1
  Ta  Ta5  1  0.33333300  0.66666700  0.49974515  1
  V  V0  1  0.33333300  0.66666700  0.25000000  1
  V  V1  1  0.66666700  0.33333300  0.75000000  1
  Se  Se0  1  0.33294405  0.32945318  0.37109779  1
  Se  Se1  1  0.67054682  0.00349088  0.37109779  1
  Se  Se2  1  0.99650912  0.66705595  0.37109779  1
  Se  Se3  1  0.32948527  0.33296488  0.62886516  1
  Se  Se4  1  0.00347961  0.67051473  0.62886516  1
  Se  Se5  1  0.66703512  0.99652039  0.62886516  1
  Se  Se6  1  0.66703512  0.67051473  0.87113484  1
  Se  Se7  1  0.32948527  0.99652039  0.87113484  1
  Se  Se8  1  0.00347961  0.33296488  0.87113484  1
  Se  Se9  1  0.67054682  0.66705595  0.12890221  1
  Se  Se10  1  0.99650912  0.32945318  0.12890221  1
  Se  Se11  1  0.33294405  0.00349088  0.12890221  1
loop_
_geom_bond_atom_site_label_1
_geom_bond_atom_site_label_2
_geom_bond_distance
_geom_bond_site_symmetry_2
Se0 V0 2.558779 1_555
Se0 Ta0 2.594160 1_555
Se0 Ta4 2.598754 1_555
Se0 Ta5 2.619102 1_555
Se1 V0 2.558776 1_545
Se1 Ta0 2.594160 1_655
Se1 Ta4 2.598749 1_555
Se1 Ta5 2.619099 1_545
Se2 V0 2.558774 1_655
Se2 Ta0 2.594160 1_665
Se2 Ta4 2.598752 1_555
Se2 Ta5 2.619097 1_655
Se3 V1 2.558966 1_555
Se3 Ta0 2.594058 1_555
Se3 Ta5 2.598690 1_555
Se3 Ta4 2.618960 1_555
Se4 V1 2.558963 1_455
Se4 Ta0 2.594058 1_565
Se4 Ta5 2.598685 1_555
Se4 Ta4 2.618958 1_455
Se5 V1 2.558961 1_565
Se5 Ta0 2.594058 1_665
Se5 Ta5 2.598687 1_555
Se5 Ta4 2.618955 1_565
Se6 V1 2.558966 1_555
Se6 Ta1 2.594058 1_666
Se6 Ta2 2.598690 1_556
Se6 Ta3 2.618960 1_555
Se7 V1 2.558963 1_565
Se7 Ta1 2.594058 1_566
Se7 Ta2 2.598685 1_556
Se7 Ta3 2.618958 1_565
Se8 V1 2.558961 1_455
Se8 Ta1 2.594058 1_556
Se8 Ta2 2.598687 1_556
Se8 Ta3 2.618955 1_455
Se9 V0 2.558779 1_555
Se9 Ta1 2.594160 1_665
Se9 Ta3 2.598754 1_554
Se9 Ta2 2.619102 1_555
Se10 V0 2.558776 1_655
Se10 Ta1 2.594160 1_655
Se10 Ta3 2.598749 1_554
Se10 Ta2 2.619099 1_655
Se11 V0 2.558774 1_545
Se11 Ta1 2.594160 1_555
Se11 Ta3 2.598752 1_554
Se11 Ta2 2.619097 1_545
