# generated using pymatgen
data_Mg2Si3
_symmetry_space_group_name_H-M   'P 1'
_cell_length_a   5.99284199
_cell_length_b   5.99284199
_cell_length_c   17.81354383
_cell_angle_alpha   88.24560397
_cell_angle_beta   88.24560397
_cell_angle_gamma   34.76753498
_symmetry_Int_Tables_number   1
_chemical_formula_structural   Mg2Si3
_chemical_formula_sum   'Mg8 Si12'
_cell_volume   364.63328179
_cell_formula_units_Z   4
loop_
 _symmetry_equiv_pos_site_id
 _symmetry_equiv_pos_as_xyz
  1  'x, y, z'
loop_
 _atom_site_type_symbol
 _atom_site_label
 _atom_site_symmetry_multiplicity
 _atom_site_fract_x
 _atom_site_fract_y
 _atom_site_fract_z
 _atom_site_occupancy
  Mg  Mg0  1  0.97903500  0.97903500  0.80150100  1
  Mg  Mg1  1  0.02096500  0.02096500  0.19849900  1
  Mg  Mg2  1  0.34079900  0.34079900  0.94845600  1
  Mg  Mg3  1  0.65920100  0.65920100  0.05154400  1
  Mg  Mg4  1  0.32984400  0.32984400  0.29611800  1
  Mg  Mg5  1  0.67015600  0.67015600  0.70388200  1
  Mg  Mg6  1  0.18196300  0.18196300  0.44456000  1
  Mg  Mg7  1  0.81803700  0.81803700  0.55544000  1
  Si  Si0  1  0.07303400  0.07303400  0.94837500  1
  Si  Si1  1  0.92696600  0.92696600  0.05162500  1
  Si  Si2  1  0.65316600  0.65316600  0.85933300  1
  Si  Si3  1  0.34683400  0.34683400  0.14066700  1
  Si  Si4  1  0.63373600  0.63373600  0.32285300  1
  Si  Si5  1  0.36626400  0.36626400  0.67714700  1
  Si  Si6  1  0.42672000  0.42672000  0.45012000  1
  Si  Si7  1  0.57328000  0.57328000  0.54988000  1
  Si  Si8  1  0.98582900  0.98582900  0.35756300  1
  Si  Si9  1  0.01417100  0.01417100  0.64243700  1
  Si  Si10  1  0.28362300  0.28362300  0.80519400  1
  Si  Si11  1  0.71637700  0.71637700  0.19480600  1
loop_
_geom_bond_atom_site_label_1
_geom_bond_atom_site_label_2
_geom_bond_distance
_geom_bond_site_symmetry_2
Mg0 Si9 2.849060 1_665
Mg0 Si0 2.860380 1_665
Mg0 Si10 2.862989 1_565
Mg0 Si10 2.862989 1_655
Mg0 Si2 2.892379 1_565
Mg0 Si2 2.892379 1_655
Mg0 Si5 3.155956 1_565
Mg0 Si5 3.155956 1_655
Mg1 Si8 2.849060 1_445
Mg1 Si1 2.860380 1_445
Mg1 Si11 2.862989 1_455
Mg1 Si11 2.862989 1_545
Mg1 Si3 2.892379 1_455
Mg1 Si3 2.892379 1_545
Mg1 Si4 3.155956 1_545
Mg1 Si4 3.155956 1_455
Mg2 Si10 2.654716 1_555
Mg2 Si1 2.769654 1_456
Mg2 Si1 2.769654 1_546
Mg2 Si0 3.062806 1_555
Mg2 Si0 3.203410 1_655
Mg2 Si0 3.203410 1_565
Mg3 Si11 2.654716 1_555
Mg3 Si0 2.769654 1_564
Mg3 Si0 2.769654 1_654
Mg3 Si1 3.062806 1_555
Mg3 Si1 3.203410 1_545
Mg3 Si1 3.203410 1_455
Mg4 Si3 2.769718 1_555
Mg4 Si8 2.777143 1_545
Mg4 Si8 2.777143 1_455
Mg4 Si11 2.880555 1_545
Mg4 Si11 2.880555 1_455
Mg4 Si4 2.897539 1_455
Mg4 Si4 2.897539 1_545
Mg4 Si6 2.991441 1_555
Mg5 Si2 2.769718 1_555
Mg5 Si9 2.777143 1_565
Mg5 Si9 2.777143 1_655
Mg5 Si10 2.880555 1_655
Mg5 Si10 2.880555 1_565
Mg5 Si5 2.897539 1_655
Mg5 Si5 2.897539 1_565
Mg5 Si7 2.991441 1_555
Mg6 Si8 2.767252 1_445
Mg6 Si6 2.804514 1_555
Mg6 Si7 2.849812 1_455
Mg6 Si7 2.849812 1_545
Mg6 Si4 2.878755 1_455
Mg6 Si4 2.878755 1_545
Mg7 Si9 2.767252 1_665
Mg7 Si7 2.804514 1_555
Mg7 Si6 2.849812 1_565
Mg7 Si6 2.849812 1_655
Mg7 Si5 2.878755 1_565
Mg7 Si5 2.878755 1_655
Si0 Si1 2.444813 1_446
Si0 Si2 2.543332 1_545
Si0 Si2 2.543332 1_455
Si1 Si3 2.543332 1_655
Si1 Si3 2.543332 1_565
Si4 Si8 2.526498 1_455
Si4 Si8 2.526498 1_545
Si5 Si9 2.526498 1_565
Si5 Si9 2.526498 1_655
Si6 Si7 2.481819 1_555
Si6 Si8 2.511944 1_455
Si6 Si8 2.511944 1_545
Si7 Si9 2.511944 1_565
Si7 Si9 2.511944 1_655
Si10 Si5 2.440905 1_555
Si10 Si2 2.504044 1_455
Si10 Si2 2.504044 1_545
Si11 Si4 2.440905 1_555
Si11 Si3 2.504044 1_565
Si11 Si3 2.504044 1_655
