# generated using pymatgen
data_ZnSi4SnO10
_symmetry_space_group_name_H-M   'P 1'
_cell_length_a   7.63857100
_cell_length_b   7.63857100
_cell_length_c   15.05240700
_cell_angle_alpha   90.00000000
_cell_angle_beta   90.00000000
_cell_angle_gamma   90.00000000
_symmetry_Int_Tables_number   1
_chemical_formula_structural   ZnSi4SnO10
_chemical_formula_sum   'Zn4 Si16 Sn4 O40'
_cell_volume   878.27433525
_cell_formula_units_Z   4
loop_
 _symmetry_equiv_pos_site_id
 _symmetry_equiv_pos_as_xyz
  1  'x, y, z'
loop_
 _atom_site_type_symbol
 _atom_site_label
 _atom_site_symmetry_multiplicity
 _atom_site_fract_x
 _atom_site_fract_y
 _atom_site_fract_z
 _atom_site_occupancy
  Zn  Zn0  1  0.50000000  0.50000000  0.50000000  1
  Zn  Zn1  1  0.00000000  0.00000000  0.50000000  1
  Zn  Zn2  1  0.00000000  0.00000000  0.00000000  1
  Zn  Zn3  1  0.50000000  0.50000000  0.00000000  1
  Si  Si0  1  0.13533900  0.23801300  0.64852600  1
  Si  Si1  1  0.86466100  0.76198700  0.64852600  1
  Si  Si2  1  0.23801300  0.13533900  0.85147400  1
  Si  Si3  1  0.73801300  0.36466100  0.64852600  1
  Si  Si4  1  0.26198700  0.63533900  0.64852600  1
  Si  Si5  1  0.36466100  0.73801300  0.85147400  1
  Si  Si6  1  0.63533900  0.26198700  0.85147400  1
  Si  Si7  1  0.76198700  0.86466100  0.85147400  1
  Si  Si8  1  0.36466100  0.26198700  0.35147400  1
  Si  Si9  1  0.63533900  0.73801300  0.35147400  1
  Si  Si10  1  0.26198700  0.36466100  0.14852600  1
  Si  Si11  1  0.76198700  0.13533900  0.35147400  1
  Si  Si12  1  0.23801300  0.86466100  0.35147400  1
  Si  Si13  1  0.13533900  0.76198700  0.14852600  1
  Si  Si14  1  0.86466100  0.23801300  0.14852600  1
  Si  Si15  1  0.73801300  0.63533900  0.14852600  1
  Sn  Sn0  1  0.50000000  0.00000000  0.59910700  1
  Sn  Sn1  1  0.00000000  0.50000000  0.90089300  1
  Sn  Sn2  1  0.00000000  0.50000000  0.40089300  1
  Sn  Sn3  1  0.50000000  0.00000000  0.09910700  1
  O  O0  1  0.20045800  0.09420300  0.57601300  1
  O  O1  1  0.79954200  0.90579700  0.57601300  1
  O  O2  1  0.09420300  0.20045800  0.92398700  1
  O  O3  1  0.59420300  0.29954200  0.57601300  1
  O  O4  1  0.40579700  0.70045800  0.57601300  1
  O  O5  1  0.29954200  0.59420300  0.92398700  1
  O  O6  1  0.70045800  0.40579700  0.92398700  1
  O  O7  1  0.90579700  0.79954200  0.92398700  1
  O  O8  1  0.29954200  0.40579700  0.42398700  1
  O  O9  1  0.70045800  0.59420300  0.42398700  1
  O  O10  1  0.40579700  0.29954200  0.07601300  1
  O  O11  1  0.90579700  0.20045800  0.42398700  1
  O  O12  1  0.09420300  0.79954200  0.42398700  1
  O  O13  1  0.20045800  0.90579700  0.07601300  1
  O  O14  1  0.79954200  0.09420300  0.07601300  1
  O  O15  1  0.26668400  0.07432400  0.36496300  1
  O  O16  1  0.59420300  0.70045800  0.07601300  1
  O  O17  1  0.76668400  0.57432400  0.63503700  1
  O  O18  1  0.42567600  0.23331600  0.86496300  1
  O  O19  1  0.92567600  0.26668400  0.63503700  1
  O  O20  1  0.07432400  0.73331600  0.63503700  1
  O  O21  1  0.26668400  0.92567600  0.86496300  1
  O  O22  1  0.73331600  0.07432400  0.86496300  1
  O  O23  1  0.57432400  0.76668400  0.86496300  1
  O  O24  1  0.67399900  0.67399900  0.25000000  1
  O  O25  1  0.82600100  0.17399900  0.25000000  1
  O  O26  1  0.17399900  0.82600100  0.25000000  1
  O  O27  1  0.32600100  0.32600100  0.25000000  1
  O  O28  1  0.82600100  0.82600100  0.75000000  1
  O  O29  1  0.67399900  0.32600100  0.75000000  1
  O  O30  1  0.32600100  0.67399900  0.75000000  1
  O  O31  1  0.17399900  0.17399900  0.75000000  1
  O  O32  1  0.92567600  0.73331600  0.13503700  1
  O  O33  1  0.76668400  0.42567600  0.13503700  1
  O  O34  1  0.23331600  0.57432400  0.13503700  1
  O  O35  1  0.42567600  0.76668400  0.36496300  1
  O  O36  1  0.57432400  0.23331600  0.36496300  1
  O  O37  1  0.07432400  0.26668400  0.13503700  1
  O  O38  1  0.73331600  0.92567600  0.36496300  1
  O  O39  1  0.23331600  0.42567600  0.63503700  1
loop_
_geom_bond_atom_site_label_1
_geom_bond_atom_site_label_2
_geom_bond_distance
_geom_bond_site_symmetry_2
O0 Si0 1.626497 1_555
O0 Zn1 2.042437 1_555
O0 Sn0 2.423614 1_555
O1 Si1 1.626497 1_555
O1 Zn1 2.042437 1_665
O1 Sn0 2.423614 1_565
O2 Si2 1.626497 1_555
O2 Zn2 2.042437 1_556
O2 Sn1 2.423614 1_555
O3 Si3 1.626497 1_555
O3 Zn0 2.042437 1_555
O3 Sn0 2.423614 1_555
O4 Si4 1.626497 1_555
O4 Zn0 2.042437 1_555
O4 Sn0 2.423614 1_565
O5 Si5 1.626497 1_555
O5 Zn3 2.042437 1_556
O5 Sn1 2.423614 1_555
O6 Si6 1.626497 1_555
O6 Zn3 2.042437 1_556
O6 Sn1 2.423614 1_655
O7 Si7 1.626497 1_555
O7 Zn2 2.042437 1_666
O7 Sn1 2.423614 1_655
O8 Si8 1.626497 1_555
O8 Zn0 2.042437 1_555
O8 Sn2 2.423614 1_555
O9 Si9 1.626497 1_555
O9 Zn0 2.042437 1_555
O9 Sn2 2.423614 1_655
O10 Si10 1.626497 1_555
O10 Zn3 2.042437 1_555
O10 Sn3 2.423614 1_555
O11 Si11 1.626497 1_555
O11 Zn1 2.042437 1_655
O11 Sn2 2.423614 1_655
O12 Si12 1.626497 1_555
O12 Zn1 2.042437 1_565
O12 Sn2 2.423614 1_555
O13 Si13 1.626497 1_555
O13 Zn2 2.042437 1_565
O13 Sn3 2.423614 1_565
O14 Si14 1.626497 1_555
O14 Zn2 2.042437 1_655
O14 Sn3 2.423614 1_555
O15 Si12 1.629133 1_545
O15 Si8 1.629783 1_555
O16 Si15 1.626497 1_555
O16 Zn3 2.042437 1_555
O16 Sn3 2.423614 1_565
O17 Si3 1.629133 1_555
O17 Si1 1.629783 1_555
O18 Si6 1.629133 1_555
O18 Si2 1.629783 1_555
O19 Si0 1.629133 1_655
O19 Si3 1.629783 1_555
O20 Si1 1.629133 1_455
O20 Si4 1.629783 1_555
O21 Si2 1.629133 1_565
O21 Si5 1.629783 1_555
O22 Si7 1.629133 1_545
O22 Si6 1.629783 1_555
O23 Si5 1.629133 1_555
O23 Si7 1.629783 1_555
O24 Si9 1.630748 1_555
O24 Si15 1.630748 1_555
O25 Si11 1.630748 1_555
O25 Si14 1.630748 1_555
O26 Si13 1.630748 1_555
O26 Si12 1.630748 1_555
O27 Si10 1.630748 1_555
O27 Si8 1.630748 1_555
O28 Si1 1.630748 1_555
O28 Si7 1.630748 1_555
O29 Si6 1.630748 1_555
O29 Si3 1.630748 1_555
O30 Si4 1.630748 1_555
O30 Si5 1.630748 1_555
O31 Si0 1.630748 1_555
O31 Si2 1.630748 1_555
O32 Si13 1.629133 1_655
O32 Si15 1.629783 1_555
O33 Si15 1.629133 1_555
O33 Si14 1.629783 1_555
O34 Si10 1.629133 1_555
O34 Si13 1.629783 1_555
O35 Si9 1.629133 1_555
O35 Si12 1.629783 1_555
O36 Si8 1.629133 1_555
O36 Si11 1.629783 1_555
O37 Si14 1.629133 1_455
O37 Si10 1.629783 1_555
O38 Si11 1.629133 1_565
O38 Si9 1.629783 1_555
O39 Si4 1.629133 1_555
O39 Si0 1.629783 1_555
