# generated using pymatgen
data_KP2(W3O11)2
_symmetry_space_group_name_H-M   'P 1'
_cell_length_a   5.45235900
_cell_length_b   6.81061300
_cell_length_c   12.13898171
_cell_angle_alpha   87.25302249
_cell_angle_beta   90.00000000
_cell_angle_gamma   90.00000000
_symmetry_Int_Tables_number   1
_chemical_formula_structural   KP2(W3O11)2
_chemical_formula_sum   'K1 P2 W6 O22'
_cell_volume   450.24984884
_cell_formula_units_Z   1
loop_
 _symmetry_equiv_pos_site_id
 _symmetry_equiv_pos_as_xyz
  1  'x, y, z'
loop_
 _atom_site_type_symbol
 _atom_site_label
 _atom_site_symmetry_multiplicity
 _atom_site_fract_x
 _atom_site_fract_y
 _atom_site_fract_z
 _atom_site_occupancy
  K  K0  1  0.00000000  0.13921100  0.50247000  1
  P  P0  1  0.00000000  0.66676000  0.59705200  1
  P  P1  1  0.50000000  0.33449300  0.40197100  1
  W  W0  1  0.00000000  0.64681100  0.31447500  1
  W  W1  1  0.50000000  0.35748100  0.68532700  1
  W  W2  1  0.00000000  0.00820900  0.80972100  1
  W  W3  1  0.50000000  0.99190900  0.19146800  1
  W  W4  1  0.00000000  0.32850800  0.06113800  1
  W  W5  1  0.50000000  0.67114000  0.94023500  1
  O  O0  1  0.23273000  0.54383800  0.61825900  1
  O  O1  1  0.73676900  0.45210900  0.38213800  1
  O  O2  1  0.26323100  0.45210900  0.38213800  1
  O  O3  1  0.76727000  0.54383800  0.61825900  1
  O  O4  1  0.00000000  0.74509800  0.47359500  1
  O  O5  1  0.50000000  0.25504700  0.52578300  1
  O  O6  1  0.75158700  0.82070200  0.27063900  1
  O  O7  1  0.25101200  0.18040200  0.72817900  1
  O  O8  1  0.74898800  0.18040200  0.72817900  1
  O  O9  1  0.24841300  0.82070200  0.27063900  1
  O  O10  1  0.00000000  0.85190900  0.66478300  1
  O  O11  1  0.50000000  0.14842400  0.33518400  1
  O  O12  1  0.00000000  0.16999400  0.92846400  1
  O  O13  1  0.50000000  0.82959800  0.07129700  1
  O  O14  1  0.74994300  0.15750900  0.13231300  1
  O  O15  1  0.25038800  0.84214100  0.86802400  1
  O  O16  1  0.74961200  0.84214100  0.86802400  1
  O  O17  1  0.25005700  0.15750900  0.13231300  1
  O  O18  1  0.00000000  0.49853100  0.19341300  1
  O  O19  1  0.50000000  0.50221300  0.80746500  1
  O  O20  1  0.25056900  0.50058000  0.99977700  1
  O  O21  1  0.74943100  0.50058000  0.99977700  1
loop_
_geom_bond_atom_site_label_1
_geom_bond_atom_site_label_2
_geom_bond_distance
_geom_bond_site_symmetry_2
K0 O10 2.709481 1_545
K0 O4 2.723547 1_545
K0 O5 2.855858 1_455
K0 O5 2.855858 1_555
K0 O1 2.904559 1_455
K0 O2 2.904559 1_555
K0 O8 3.087457 1_455
K0 O7 3.087457 1_555
O0 P0 1.535139 1_555
O0 W1 2.073220 1_555
O1 P1 1.532217 1_555
O1 W0 2.094875 1_655
O2 P1 1.532217 1_555
O2 W0 2.094875 1_555
O3 P0 1.535139 1_655
O3 W1 2.073220 1_555
O4 P0 1.566507 1_555
O4 W0 2.074349 1_555
O5 P1 1.572794 1_555
O5 W1 2.089741 1_555
O6 W0 1.860061 1_655
O6 W3 2.014325 1_555
O7 W1 1.872948 1_555
O7 W2 2.029019 1_555
O8 W1 1.872948 1_555
O8 W2 2.029019 1_655
O9 W0 1.860061 1_555
O9 W3 2.014325 1_555
O10 P0 1.537995 1_555
O10 W2 2.099562 1_565
O11 P1 1.536769 1_555
O11 W3 2.087591 1_545
O12 W2 1.855804 1_555
O12 W4 1.981399 1_556
O13 W3 1.872036 1_555
O13 W5 1.964787 1_554
O14 W3 1.888703 1_545
O14 W4 1.966013 1_655
O15 W2 1.888696 1_565
O15 W5 1.969547 1_555
O16 W2 1.888696 1_665
O16 W5 1.969547 1_555
O17 W3 1.888703 1_545
O17 W4 1.966013 1_555
O18 W0 1.822564 1_555
O18 W4 2.024182 1_555
O19 W1 1.819315 1_555
O19 W5 2.024581 1_555
O20 W5 1.908103 1_555
O20 W4 1.926399 1_556
O21 W5 1.908103 1_555
O21 W4 1.926399 1_656
