# generated using pymatgen
data_Ce5Sn3
_symmetry_space_group_name_H-M   'P 1'
_cell_length_a   8.33943500
_cell_length_b   8.33943500
_cell_length_c   9.00843229
_cell_angle_alpha   117.57235096
_cell_angle_beta   117.57235096
_cell_angle_gamma   90.00000000
_symmetry_Int_Tables_number   1
_chemical_formula_structural   Ce5Sn3
_chemical_formula_sum   'Ce10 Sn6'
_cell_volume   473.62302088
_cell_formula_units_Z   2
loop_
 _symmetry_equiv_pos_site_id
 _symmetry_equiv_pos_as_xyz
  1  'x, y, z'
loop_
 _atom_site_type_symbol
 _atom_site_label
 _atom_site_symmetry_multiplicity
 _atom_site_fract_x
 _atom_site_fract_y
 _atom_site_fract_z
 _atom_site_occupancy
  Ce  Ce0  1  0.50000000  0.50000000  0.00000000  1
  Ce  Ce1  1  0.00000000  0.00000000  0.00000000  1
  Ce  Ce2  1  0.98248400  0.82916100  0.31164500  1
  Ce  Ce3  1  0.32916100  0.48248400  0.31164500  1
  Ce  Ce4  1  0.82916100  0.32916100  0.31164500  1
  Ce  Ce5  1  0.48248400  0.98248400  0.31164500  1
  Ce  Ce6  1  0.01751600  0.17083900  0.68835500  1
  Ce  Ce7  1  0.67083900  0.51751600  0.68835500  1
  Ce  Ce8  1  0.17083900  0.67083900  0.68835500  1
  Ce  Ce9  1  0.51751600  0.01751600  0.68835500  1
  Sn  Sn0  1  0.75000000  0.75000000  0.50000000  1
  Sn  Sn1  1  0.25000000  0.25000000  0.50000000  1
  Sn  Sn2  1  0.62776300  0.87223700  0.00000000  1
  Sn  Sn3  1  0.37223700  0.12776300  0.00000000  1
  Sn  Sn4  1  0.87223700  0.37223700  0.00000000  1
  Sn  Sn5  1  0.12776300  0.62776300  0.00000000  1
loop_
_geom_bond_atom_site_label_1
_geom_bond_atom_site_label_2
_geom_bond_distance
_geom_bond_site_symmetry_2
Ce0 Sn5 3.282008 1_555
Ce0 Sn2 3.282008 1_555
Ce0 Sn4 3.282008 1_555
Ce0 Sn3 3.282008 1_555
Ce0 Sn1 3.405098 1_554
Ce0 Sn0 3.405098 1_555
Ce1 Sn4 3.282008 1_455
Ce1 Sn2 3.282008 1_445
Ce1 Sn3 3.282008 1_555
Ce1 Sn5 3.282008 1_545
Ce1 Sn1 3.405098 1_555
Ce1 Sn0 3.405098 1_444
Ce2 Sn2 3.163385 1_555
Ce2 Sn4 3.309696 1_555
Ce2 Sn5 3.309696 1_655
Ce2 Sn1 3.340078 1_665
Ce2 Sn0 3.340078 1_555
Ce3 Sn3 3.163385 1_555
Ce3 Sn4 3.309696 1_455
Ce3 Sn5 3.309696 1_555
Ce3 Sn0 3.340078 1_555
Ce3 Sn1 3.340078 1_555
Ce4 Sn4 3.163385 1_555
Ce4 Sn2 3.309695 1_545
Ce4 Sn3 3.309695 1_555
Ce4 Sn1 3.340078 1_655
Ce4 Sn0 3.340078 1_555
Ce5 Sn5 3.163385 1_555
Ce5 Sn2 3.309696 1_555
Ce5 Sn3 3.309696 1_565
Ce5 Sn1 3.340078 1_565
Ce5 Sn0 3.340078 1_555
Ce6 Sn3 3.163385 1_556
Ce6 Sn5 3.309696 1_556
Ce6 Sn4 3.309696 1_456
Ce6 Sn0 3.340078 1_445
Ce6 Sn1 3.340078 1_555
Ce7 Sn2 3.163385 1_556
Ce7 Sn5 3.309696 1_656
Ce7 Sn4 3.309696 1_556
Ce7 Sn1 3.340078 1_555
Ce7 Sn0 3.340078 1_555
Ce8 Sn5 3.163385 1_556
Ce8 Sn2 3.309695 1_556
Ce8 Sn3 3.309695 1_566
Ce8 Sn0 3.340078 1_455
Ce8 Sn1 3.340078 1_555
Ce9 Sn4 3.163385 1_556
Ce9 Sn3 3.309696 1_556
Ce9 Sn2 3.309696 1_546
Ce9 Sn0 3.340078 1_545
Ce9 Sn1 3.340078 1_555
Sn2 Sn3 3.013608 1_565
Sn4 Sn5 3.013608 1_655
