# generated using pymatgen
data_CsTiH10C4O13
_symmetry_space_group_name_H-M   'P 1'
_cell_length_a   11.51839900
_cell_length_b   6.76698400
_cell_length_c   8.04980540
_cell_angle_alpha   84.87087810
_cell_angle_beta   90.00000000
_cell_angle_gamma   90.00000000
_symmetry_Int_Tables_number   1
_chemical_formula_structural   CsTiH10C4O13
_chemical_formula_sum   'Cs2 Ti2 H20 C8 O26'
_cell_volume   624.92822032
_cell_formula_units_Z   2
loop_
 _symmetry_equiv_pos_site_id
 _symmetry_equiv_pos_as_xyz
  1  'x, y, z'
loop_
 _atom_site_type_symbol
 _atom_site_label
 _atom_site_symmetry_multiplicity
 _atom_site_fract_x
 _atom_site_fract_y
 _atom_site_fract_z
 _atom_site_occupancy
  Cs  Cs0  1  0.25000000  0.95329500  0.71666200  1
  Cs  Cs1  1  0.75000000  0.04670500  0.28333800  1
  Ti  Ti0  1  0.75000000  0.34218200  0.77597100  1
  Ti  Ti1  1  0.25000000  0.65781800  0.22402900  1
  H  H0  1  0.67886300  0.66129500  0.56884900  1
  H  H1  1  0.17886300  0.33870500  0.43115100  1
  H  H2  1  0.32113700  0.33870500  0.43115100  1
  H  H3  1  0.82113700  0.66129500  0.56884900  1
  H  H4  1  0.67770000  0.96626300  0.86844800  1
  H  H5  1  0.17770000  0.03373700  0.13155200  1
  H  H6  1  0.32230000  0.03373700  0.13155200  1
  H  H7  1  0.82230000  0.96626300  0.86844800  1
  H  H8  1  0.68126900  0.53005300  0.05803400  1
  H  H9  1  0.18126900  0.46994700  0.94196600  1
  H  H10  1  0.31873100  0.46994700  0.94196600  1
  H  H11  1  0.81873100  0.53005300  0.05803400  1
  H  H12  1  0.53625900  0.82655800  0.72455700  1
  H  H13  1  0.03625900  0.17344200  0.27544300  1
  H  H14  1  0.46374100  0.17344200  0.27544300  1
  H  H15  1  0.96374100  0.82655800  0.72455700  1
  H  H16  1  0.52193200  0.76083600  0.91630500  1
  H  H17  1  0.02193200  0.23916400  0.08369500  1
  H  H18  1  0.47806800  0.23916400  0.08369500  1
  H  H19  1  0.97806800  0.76083600  0.91630500  1
  C  C0  1  0.49054700  0.34076500  0.75873100  1
  C  C1  1  0.99054700  0.65923500  0.24126900  1
  C  C2  1  0.50945300  0.65923500  0.24126900  1
  C  C3  1  0.00945300  0.34076500  0.75873100  1
  C  C4  1  0.53039600  0.27316600  0.59223000  1
  C  C5  1  0.03039600  0.72683400  0.40777000  1
  C  C6  1  0.46960400  0.72683400  0.40777000  1
  C  C7  1  0.96960400  0.27316600  0.59223000  1
  O  O0  1  0.75000000  0.61706100  0.63258400  1
  O  O1  1  0.25000000  0.38293900  0.36741600  1
  O  O2  1  0.75000000  0.04726400  0.88271400  1
  O  O3  1  0.25000000  0.95273600  0.11728600  1
  O  O4  1  0.75000000  0.47208400  0.00272700  1
  O  O5  1  0.25000000  0.52791600  0.99727300  1
  O  O6  1  0.57611800  0.37763000  0.85476500  1
  O  O7  1  0.07611800  0.62237000  0.14523500  1
  O  O8  1  0.42388200  0.62237000  0.14523500  1
  O  O9  1  0.92388200  0.37763000  0.85476500  1
  O  O10  1  0.64062800  0.25052800  0.58279600  1
  O  O11  1  0.14062800  0.74947200  0.41720400  1
  O  O12  1  0.35937200  0.74947200  0.41720400  1
  O  O13  1  0.85937200  0.25052800  0.58279600  1
  O  O14  1  0.38504500  0.35383100  0.79257400  1
  O  O15  1  0.88504500  0.64616900  0.20742600  1
  O  O16  1  0.61495500  0.64616900  0.20742600  1
  O  O17  1  0.11495500  0.35383100  0.79257400  1
  O  O18  1  0.45829100  0.24436000  0.47845700  1
  O  O19  1  0.95829100  0.75564000  0.52154300  1
  O  O20  1  0.54170900  0.75564000  0.52154300  1
  O  O21  1  0.04170900  0.24436000  0.47845700  1
  O  O22  1  0.54188800  0.87441500  0.83758500  1
  O  O23  1  0.04188800  0.12558500  0.16241500  1
  O  O24  1  0.45811200  0.12558500  0.16241500  1
  O  O25  1  0.95811200  0.87441500  0.83758500  1
loop_
_geom_bond_atom_site_label_1
_geom_bond_atom_site_label_2
_geom_bond_distance
_geom_bond_site_symmetry_2
Cs0 O12 3.145604 1_555
Cs0 O11 3.145604 1_555
Cs0 O3 3.224609 1_556
Cs0 O14 3.230407 1_565
Cs0 O17 3.230407 1_565
Cs1 O13 3.145604 1_555
Cs1 O10 3.145604 1_555
Cs1 O2 3.224609 1_554
Cs1 O15 3.230407 1_545
Cs1 O16 3.230407 1_545
H0 O0 0.998376 1_555
H1 O1 0.998376 1_555
H2 O1 0.998376 1_555
H3 O0 0.998376 1_555
H4 O2 1.009165 1_565
H5 O3 1.009165 1_545
H6 O3 1.009165 1_545
H7 O2 1.009165 1_565
H8 O4 1.005019 1_555
H9 O5 1.005019 1_555
H10 O5 1.005019 1_555
H11 O4 1.005019 1_555
H12 O22 0.994786 1_555
H13 O23 0.994786 1_555
H14 O24 0.994786 1_555
H15 O25 0.994786 1_555
H16 O22 0.978790 1_555
H17 O23 0.978790 1_555
H18 O24 0.978790 1_555
H19 O25 0.978790 1_555
C0 O14 1.250235 1_555
C0 O6 1.290665 1_555
C1 O15 1.250235 1_555
C1 O7 1.290665 1_655
C2 O16 1.250235 1_555
C2 O8 1.290665 1_555
C3 O17 1.250235 1_555
C3 O9 1.290665 1_455
C4 O18 1.264313 1_555
C4 O10 1.281968 1_555
C5 O19 1.264313 1_455
C5 O11 1.281968 1_555
C6 O20 1.264313 1_555
C6 O12 1.281968 1_555
C7 O21 1.264313 1_655
C7 O13 1.281968 1_555
O0 Ti0 2.099609 1_555
O1 Ti1 2.099609 1_555
O2 Ti0 2.101084 1_555
O3 Ti1 2.101084 1_555
O4 Ti0 2.095588 1_554
O5 Ti1 2.095588 1_556
O6 Ti0 2.120950 1_555
O7 Ti1 2.120950 1_555
O8 Ti1 2.120950 1_555
O9 Ti0 2.120950 1_555
O10 Ti0 2.135950 1_555
O11 Ti1 2.135950 1_555
O12 Ti1 2.135950 1_555
O13 Ti0 2.135950 1_555
