# generated using pymatgen
data_UAu2
_symmetry_space_group_name_H-M   'P 1'
_cell_length_a   9.53846404
_cell_length_b   9.53846464
_cell_length_c   6.42037806
_cell_angle_alpha   90.00000000
_cell_angle_beta   90.00000000
_cell_angle_gamma   119.99999099
_symmetry_Int_Tables_number   1
_chemical_formula_structural   UAu2
_chemical_formula_sum   'U8 Au16'
_cell_volume   505.88079672
_cell_formula_units_Z   8
loop_
 _symmetry_equiv_pos_site_id
 _symmetry_equiv_pos_as_xyz
  1  'x, y, z'
loop_
 _atom_site_type_symbol
 _atom_site_label
 _atom_site_symmetry_multiplicity
 _atom_site_fract_x
 _atom_site_fract_y
 _atom_site_fract_z
 _atom_site_occupancy
  U  U0_0  1  0.00000000  0.00000000  0.00000000  1
  U  U0_1  1  0.00000000  0.00000000  0.50000000  1
  U  U0_2  1  0.00000000  0.50000000  0.00000000  1
  U  U0_3  1  0.00000000  0.50000000  0.50000000  1
  U  U0_4  1  0.50000000  0.00000000  0.00000000  1
  U  U0_5  1  0.50000000  0.00000000  0.50000000  1
  U  U0_6  1  0.50000000  0.50000000  0.00000000  1
  U  U0_7  1  0.50000000  0.50000000  0.50000000  1
  Au  Au0_0  1  0.16666650  0.33333350  0.25000000  1
  Au  Au0_1  1  0.16666650  0.33333350  0.75000000  1
  Au  Au0_2  1  0.16666650  0.83333350  0.25000000  1
  Au  Au0_3  1  0.16666650  0.83333350  0.75000000  1
  Au  Au0_4  1  0.66666650  0.33333350  0.25000000  1
  Au  Au0_5  1  0.66666650  0.33333350  0.75000000  1
  Au  Au0_6  1  0.66666650  0.83333350  0.25000000  1
  Au  Au0_7  1  0.66666650  0.83333350  0.75000000  1
  Au  Au1_0  1  0.33333350  0.16666650  0.25000000  1
  Au  Au1_1  1  0.33333350  0.16666650  0.75000000  1
  Au  Au1_2  1  0.33333350  0.66666650  0.25000000  1
  Au  Au1_3  1  0.33333350  0.66666650  0.75000000  1
  Au  Au1_4  1  0.83333350  0.16666650  0.25000000  1
  Au  Au1_5  1  0.83333350  0.16666650  0.75000000  1
  Au  Au1_6  1  0.83333350  0.66666650  0.25000000  1
  Au  Au1_7  1  0.83333350  0.66666650  0.75000000  1
loop_
_geom_bond_atom_site_label_1
_geom_bond_atom_site_label_2
_geom_bond_distance
_geom_bond_site_symmetry_2
Au0_0 Au1_4 2.753515 1_455
Au0_0 Au1_2 2.753515 1_555
Au0_0 Au1_0 2.753523 1_555
Au0_0 U0_2 3.187189 1_555
Au0_0 U0_3 3.187189 1_555
Au0_0 U0_6 3.187192 1_555
Au0_0 U0_7 3.187192 1_555
Au0_0 U0_1 3.187193 1_555
Au0_0 U0_0 3.187193 1_555
Au0_0 Au0_1 3.210189 1_554
Au0_0 Au0_1 3.210189 1_555
Au0_1 Au1_5 2.753515 1_455
Au0_1 Au1_3 2.753515 1_555
Au0_1 Au1_1 2.753523 1_555
Au0_1 U0_2 3.187189 1_556
Au0_1 U0_3 3.187189 1_555
Au0_1 U0_6 3.187192 1_556
Au0_1 U0_7 3.187192 1_555
Au0_1 U0_0 3.187193 1_556
Au0_1 U0_1 3.187193 1_555
Au0_2 Au1_6 2.753515 1_455
Au0_2 Au1_0 2.753515 1_565
Au0_2 Au1_2 2.753523 1_555
Au0_2 U0_1 3.187189 1_565
Au0_2 U0_0 3.187189 1_565
Au0_2 U0_5 3.187192 1_565
Au0_2 U0_4 3.187192 1_565
Au0_2 U0_2 3.187193 1_555
Au0_2 U0_3 3.187193 1_555
Au0_2 Au0_3 3.210189 1_555
Au0_2 Au0_3 3.210189 1_554
Au0_3 Au1_7 2.753515 1_455
Au0_3 Au1_1 2.753515 1_565
Au0_3 Au1_3 2.753523 1_555
Au0_3 U0_1 3.187189 1_565
Au0_3 U0_0 3.187189 1_566
Au0_3 U0_5 3.187192 1_565
Au0_3 U0_4 3.187192 1_566
Au0_3 U0_2 3.187193 1_556
Au0_3 U0_3 3.187193 1_555
Au0_4 Au1_0 2.753515 1_555
Au0_4 Au1_6 2.753515 1_555
Au0_4 Au1_4 2.753523 1_555
Au0_4 U0_6 3.187189 1_555
Au0_4 U0_7 3.187189 1_555
Au0_4 U0_3 3.187192 1_655
Au0_4 U0_2 3.187192 1_655
Au0_4 U0_4 3.187193 1_555
Au0_4 U0_5 3.187193 1_555
Au0_4 Au0_5 3.210189 1_554
Au0_4 Au0_5 3.210189 1_555
Au0_5 Au1_1 2.753515 1_555
Au0_5 Au1_7 2.753515 1_555
Au0_5 Au1_5 2.753523 1_555
Au0_5 U0_6 3.187189 1_556
Au0_5 U0_7 3.187189 1_555
Au0_5 U0_3 3.187192 1_655
Au0_5 U0_2 3.187192 1_656
Au0_5 U0_4 3.187193 1_556
Au0_5 U0_5 3.187193 1_555
Au0_6 Au1_2 2.753515 1_555
Au0_6 Au1_4 2.753515 1_565
Au0_6 Au1_6 2.753523 1_555
Au0_6 U0_5 3.187189 1_565
Au0_6 U0_4 3.187189 1_565
Au0_6 U0_0 3.187192 1_665
Au0_6 U0_1 3.187192 1_665
Au0_6 U0_7 3.187193 1_555
Au0_6 U0_6 3.187193 1_555
Au0_6 Au0_7 3.210189 1_555
Au0_6 Au0_7 3.210189 1_554
Au0_7 Au1_3 2.753515 1_555
Au0_7 Au1_5 2.753515 1_565
Au0_7 Au1_7 2.753523 1_555
Au0_7 U0_5 3.187189 1_565
Au0_7 U0_4 3.187189 1_566
Au0_7 U0_0 3.187192 1_666
Au0_7 U0_1 3.187192 1_665
Au0_7 U0_6 3.187193 1_556
Au0_7 U0_7 3.187193 1_555
Au1_0 U0_4 3.187189 1_555
Au1_0 U0_5 3.187189 1_555
Au1_0 U0_0 3.187192 1_555
Au1_0 U0_1 3.187192 1_555
Au1_0 U0_6 3.187193 1_555
Au1_0 U0_7 3.187193 1_555
Au1_0 Au1_1 3.210189 1_555
Au1_0 Au1_1 3.210189 1_554
Au1_1 U0_4 3.187189 1_556
Au1_1 U0_5 3.187189 1_555
Au1_1 U0_1 3.187192 1_555
Au1_1 U0_0 3.187192 1_556
Au1_1 U0_7 3.187193 1_555
Au1_1 U0_6 3.187193 1_556
Au1_2 U0_6 3.187189 1_555
Au1_2 U0_7 3.187189 1_555
Au1_2 U0_3 3.187192 1_555
Au1_2 U0_2 3.187192 1_555
Au1_2 U0_5 3.187193 1_565
Au1_2 U0_4 3.187193 1_565
Au1_2 Au1_3 3.210189 1_554
Au1_2 Au1_3 3.210189 1_555
Au1_3 U0_6 3.187189 1_556
Au1_3 U0_7 3.187189 1_555
Au1_3 U0_2 3.187192 1_556
Au1_3 U0_3 3.187192 1_555
Au1_3 U0_4 3.187193 1_566
Au1_3 U0_5 3.187193 1_565
Au1_4 U0_0 3.187189 1_655
Au1_4 U0_1 3.187189 1_655
Au1_4 U0_4 3.187192 1_555
Au1_4 U0_5 3.187192 1_555
Au1_4 U0_2 3.187193 1_655
Au1_4 U0_3 3.187193 1_655
Au1_4 Au1_5 3.210189 1_555
Au1_4 Au1_5 3.210189 1_554
Au1_5 U0_0 3.187189 1_656
Au1_5 U0_1 3.187189 1_655
Au1_5 U0_5 3.187192 1_555
Au1_5 U0_4 3.187192 1_556
Au1_5 U0_3 3.187193 1_655
Au1_5 U0_2 3.187193 1_656
Au1_6 U0_2 3.187189 1_655
Au1_6 U0_3 3.187189 1_655
Au1_6 U0_7 3.187192 1_555
Au1_6 U0_6 3.187192 1_555
Au1_6 U0_1 3.187193 1_665
Au1_6 U0_0 3.187193 1_665
Au1_6 Au1_7 3.210189 1_555
Au1_6 Au1_7 3.210189 1_554
Au1_7 U0_2 3.187189 1_656
Au1_7 U0_3 3.187189 1_655
Au1_7 U0_6 3.187192 1_556
Au1_7 U0_7 3.187192 1_555
Au1_7 U0_0 3.187193 1_666
Au1_7 U0_1 3.187193 1_665
