# generated using pymatgen
data_MgMn2O4
_symmetry_space_group_name_H-M   'P 1'
_cell_length_a   8.96051800
_cell_length_b   3.21352500
_cell_length_c   10.88258046
_cell_angle_alpha   82.30151651
_cell_angle_beta   90.00000000
_cell_angle_gamma   90.00000000
_symmetry_Int_Tables_number   1
_chemical_formula_structural   MgMn2O4
_chemical_formula_sum   'Mg4 Mn8 O16'
_cell_volume   310.53784323
_cell_formula_units_Z   4
loop_
 _symmetry_equiv_pos_site_id
 _symmetry_equiv_pos_as_xyz
  1  'x, y, z'
loop_
 _atom_site_type_symbol
 _atom_site_label
 _atom_site_symmetry_multiplicity
 _atom_site_fract_x
 _atom_site_fract_y
 _atom_site_fract_z
 _atom_site_occupancy
  Mg  Mg0  1  0.78509900  0.04396600  0.34443800  1
  Mg  Mg1  1  0.21490100  0.95603400  0.65556200  1
  Mg  Mg2  1  0.28509900  0.95603400  0.15556200  1
  Mg  Mg3  1  0.71490100  0.04396600  0.84443800  1
  Mn  Mn0  1  0.58262800  0.51419800  0.11668700  1
  Mn  Mn1  1  0.91737200  0.51419800  0.61668700  1
  Mn  Mn2  1  0.08262800  0.48580200  0.38331300  1
  Mn  Mn3  1  0.41737200  0.48580200  0.88331300  1
  Mn  Mn4  1  0.44607900  0.83026100  0.38924700  1
  Mn  Mn5  1  0.55392100  0.16973900  0.61075300  1
  Mn  Mn6  1  0.94607900  0.16973900  0.11075300  1
  Mn  Mn7  1  0.05392100  0.83026100  0.88924700  1
  O  O0  1  0.09498000  0.77611000  0.06661600  1
  O  O1  1  0.90502000  0.22389000  0.93338400  1
  O  O2  1  0.59498000  0.22389000  0.43338400  1
  O  O3  1  0.40502000  0.77611000  0.56661600  1
  O  O4  1  0.97599000  0.93958600  0.72158800  1
  O  O5  1  0.02401000  0.06041400  0.27841200  1
  O  O6  1  0.47599000  0.06041400  0.77841200  1
  O  O7  1  0.52401000  0.93958600  0.22158800  1
  O  O8  1  0.37568800  0.51340000  0.05810900  1
  O  O9  1  0.62431200  0.48660000  0.94189100  1
  O  O10  1  0.87568800  0.48660000  0.44189100  1
  O  O11  1  0.12431200  0.51340000  0.55810900  1
  O  O12  1  0.21462500  0.50300900  0.82114800  1
  O  O13  1  0.78537500  0.49699100  0.17885200  1
  O  O14  1  0.28537500  0.50300900  0.32114800  1
  O  O15  1  0.71462500  0.49699100  0.67885200  1
loop_
_geom_bond_atom_site_label_1
_geom_bond_atom_site_label_2
_geom_bond_distance
_geom_bond_site_symmetry_2
Mg0 O10 2.052090 1_555
Mg0 O2 2.079263 1_555
Mg0 O10 2.117260 1_545
Mg0 O13 2.159570 1_555
Mg0 O5 2.256499 1_655
Mg0 O13 2.680561 1_545
Mg1 O11 2.052090 1_555
Mg1 O3 2.079263 1_555
Mg1 O11 2.117260 1_565
Mg1 O12 2.159570 1_555
Mg1 O4 2.256499 1_455
Mg1 O12 2.680561 1_565
Mg2 O8 2.052090 1_555
Mg2 O0 2.079263 1_555
Mg2 O8 2.117260 1_565
Mg2 O14 2.159570 1_555
Mg2 O7 2.256499 1_555
Mg2 O14 2.680561 1_565
Mg3 O9 2.052090 1_555
Mg3 O1 2.079263 1_555
Mg3 O9 2.117260 1_545
Mg3 O15 2.159570 1_555
Mg3 O6 2.256499 1_555
Mg3 O15 2.680561 1_545
Mn0 O13 1.936795 1_555
Mn0 O9 1.952193 1_554
Mn0 O8 1.960922 1_555
Mn0 O7 1.966189 1_555
Mn0 O7 2.103336 1_545
Mn1 O15 1.936795 1_555
Mn1 O10 1.952193 1_555
Mn1 O11 1.960922 1_655
Mn1 O4 1.966189 1_555
Mn1 O4 2.103336 1_545
Mn2 O14 1.936795 1_555
Mn2 O11 1.952193 1_555
Mn2 O10 1.960922 1_455
Mn2 O5 1.966189 1_555
Mn2 O5 2.103336 1_565
Mn3 O12 1.936795 1_555
Mn3 O8 1.952193 1_556
Mn3 O9 1.960922 1_555
Mn3 O6 1.966189 1_555
Mn3 O6 2.103336 1_565
Mn4 O7 1.941222 1_555
Mn4 O2 1.942609 1_565
Mn4 O3 1.949729 1_555
Mn4 O14 1.984321 1_555
Mn4 O2 2.357354 1_555
Mn4 O14 2.620557 1_565
Mn5 O6 1.941222 1_555
Mn5 O3 1.942609 1_545
Mn5 O2 1.949729 1_555
Mn5 O15 1.984321 1_555
Mn5 O3 2.357354 1_555
Mn5 O15 2.620557 1_545
Mn6 O5 1.941222 1_655
Mn6 O0 1.942609 1_645
Mn6 O1 1.949729 1_554
Mn6 O13 1.984321 1_555
Mn6 O0 2.357354 1_655
Mn6 O13 2.620557 1_545
Mn7 O4 1.941222 1_455
Mn7 O1 1.942609 1_465
Mn7 O0 1.949729 1_556
Mn7 O12 1.984321 1_555
Mn7 O1 2.357354 1_455
Mn7 O12 2.620557 1_565
