# generated using pymatgen
data_Ca(GePt)2
_symmetry_space_group_name_H-M   'P 1'
_cell_length_a   4.30163800
_cell_length_b   4.24424000
_cell_length_c   10.41194208
_cell_angle_alpha   89.90248873
_cell_angle_beta   90.00000000
_cell_angle_gamma   90.00000000
_symmetry_Int_Tables_number   1
_chemical_formula_structural   Ca(GePt)2
_chemical_formula_sum   'Ca2 Ge4 Pt4'
_cell_volume   190.09246771
_cell_formula_units_Z   2
loop_
 _symmetry_equiv_pos_site_id
 _symmetry_equiv_pos_as_xyz
  1  'x, y, z'
loop_
 _atom_site_type_symbol
 _atom_site_label
 _atom_site_symmetry_multiplicity
 _atom_site_fract_x
 _atom_site_fract_y
 _atom_site_fract_z
 _atom_site_occupancy
  Ca  Ca0  1  0.25495300  0.24770600  0.75136800  1
  Ca  Ca1  1  0.75495300  0.75229400  0.24863200  1
  Ge  Ge0  1  0.74484800  0.75970300  0.63174200  1
  Ge  Ge1  1  0.76559200  0.25342300  0.00268200  1
  Ge  Ge2  1  0.26559200  0.74657700  0.99731800  1
  Ge  Ge3  1  0.24484800  0.24029700  0.36825800  1
  Pt  Pt0  1  0.24253200  0.73857800  0.50084800  1
  Pt  Pt1  1  0.76407600  0.75258700  0.86617100  1
  Pt  Pt2  1  0.26407600  0.24741300  0.13382900  1
  Pt  Pt3  1  0.74253200  0.26142200  0.49915200  1
loop_
_geom_bond_atom_site_label_1
_geom_bond_atom_site_label_2
_geom_bond_distance
_geom_bond_site_symmetry_2
Ca0 Ge0 3.207952 1_545
Ca0 Pt1 3.208566 1_445
Ca0 Pt1 3.238520 1_455
Ca0 Pt1 3.260754 1_545
Ca0 Ge0 3.265719 1_445
Ca0 Ge0 3.271877 1_555
Ca0 Pt1 3.290233 1_555
Ca0 Ge2 3.325870 1_555
Ca0 Ge2 3.326424 1_545
Ca0 Ge0 3.328535 1_455
Ca0 Pt0 3.335952 1_555
Ca0 Ge1 3.358423 1_456
Ca0 Pt3 3.361263 1_555
Ca0 Pt0 3.390444 1_545
Ca0 Ge1 3.416538 1_556
Ca0 Pt3 3.428960 1_455
Ca1 Ge3 3.207952 1_665
Ca1 Pt2 3.208566 1_565
Ca1 Pt2 3.238520 1_555
Ca1 Pt2 3.260754 1_665
Ca1 Ge3 3.265719 1_565
Ca1 Ge3 3.271877 1_655
Ca1 Pt2 3.290233 1_655
Ca1 Ge1 3.325870 1_555
Ca1 Ge1 3.326424 1_565
Ca1 Ge3 3.328535 1_555
Ca1 Pt3 3.335952 1_555
Ca1 Ge2 3.358423 1_554
Ca1 Pt0 3.361263 1_655
Ca1 Pt3 3.390444 1_565
Ca1 Ge2 3.416538 1_654
Ca1 Pt0 3.428960 1_555
Ge0 Pt1 2.442398 1_555
Ge0 Pt3 2.527519 1_555
Ge0 Pt3 2.535811 1_565
Ge0 Pt0 2.539510 1_655
Ge0 Pt0 2.556330 1_555
Ge1 Pt2 2.542267 1_655
Ge1 Pt1 2.549188 1_554
Ge1 Pt2 2.553277 1_555
Ge1 Pt1 2.559104 1_544
Ge2 Pt1 2.542267 1_555
Ge2 Pt2 2.549188 1_556
Ge2 Pt1 2.553277 1_455
Ge2 Pt2 2.559104 1_566
Ge3 Pt2 2.442398 1_555
Ge3 Pt0 2.527519 1_555
Ge3 Pt0 2.535811 1_545
Ge3 Pt3 2.539510 1_555
Ge3 Pt3 2.556330 1_455
