# generated using pymatgen
data_MgGaAu2
_symmetry_space_group_name_H-M   'P 1'
_cell_length_a   4.38648433
_cell_length_b   4.38648433
_cell_length_c   8.68906121
_cell_angle_alpha   90.00000000
_cell_angle_beta   90.00000000
_cell_angle_gamma   120.00000944
_symmetry_Int_Tables_number   1
_chemical_formula_structural   MgGaAu2
_chemical_formula_sum   'Mg2 Ga2 Au4'
_cell_volume   144.78934741
_cell_formula_units_Z   2
loop_
 _symmetry_equiv_pos_site_id
 _symmetry_equiv_pos_as_xyz
  1  'x, y, z'
loop_
 _atom_site_type_symbol
 _atom_site_label
 _atom_site_symmetry_multiplicity
 _atom_site_fract_x
 _atom_site_fract_y
 _atom_site_fract_z
 _atom_site_occupancy
  Mg  Mg0  1  0.66666700  0.33333300  0.25000000  1
  Mg  Mg1  1  0.33333300  0.66666700  0.75000000  1
  Ga  Ga0  1  0.00000000  -0.00000000  0.50000000  1
  Ga  Ga1  1  0.00000000  -0.00000000  -0.00000000  1
  Au  Au0  1  0.33333300  0.66666700  0.41086525  1
  Au  Au1  1  0.66666700  0.33333300  0.58913475  1
  Au  Au2  1  0.66666700  0.33333300  0.91086525  1
  Au  Au3  1  0.33333300  0.66666700  0.08913475  1
loop_
_geom_bond_atom_site_label_1
_geom_bond_atom_site_label_2
_geom_bond_distance
_geom_bond_site_symmetry_2
Au0 Ga0 2.648317 1_565
Au0 Ga0 2.648320 1_555
Au0 Ga0 2.648320 1_665
Au0 Mg0 2.892661 1_455
Au0 Mg0 2.892661 1_565
Au0 Mg0 2.892668 1_555
Au0 Mg1 2.946763 1_555
Au1 Ga0 2.648317 1_655
Au1 Ga0 2.648320 1_665
Au1 Ga0 2.648320 1_555
Au1 Mg1 2.892661 1_545
Au1 Mg1 2.892661 1_655
Au1 Mg1 2.892668 1_555
Au1 Mg0 2.946763 1_555
Au2 Ga1 2.648317 1_656
Au2 Ga1 2.648320 1_666
Au2 Ga1 2.648320 1_556
Au2 Mg1 2.892661 1_545
Au2 Mg1 2.892661 1_655
Au2 Mg1 2.892668 1_555
Au2 Mg0 2.946763 1_556
Au3 Ga1 2.648317 1_565
Au3 Ga1 2.648320 1_555
Au3 Ga1 2.648320 1_665
Au3 Mg0 2.892661 1_455
Au3 Mg0 2.892661 1_565
Au3 Mg0 2.892668 1_555
Au3 Mg1 2.946763 1_554
