# generated using pymatgen
data_Dy6Al43W4
_symmetry_space_group_name_H-M   'P 1'
_cell_length_a   11.06029350
_cell_length_b   11.06029350
_cell_length_c   17.60830300
_cell_angle_alpha   90.00000000
_cell_angle_beta   90.00000000
_cell_angle_gamma   119.99999701
_symmetry_Int_Tables_number   1
_chemical_formula_structural   Dy6Al43W4
_chemical_formula_sum   'Dy12 Al86 W8'
_cell_volume   1865.44071356
_cell_formula_units_Z   2
loop_
 _symmetry_equiv_pos_site_id
 _symmetry_equiv_pos_as_xyz
  1  'x, y, z'
loop_
 _atom_site_type_symbol
 _atom_site_label
 _atom_site_symmetry_multiplicity
 _atom_site_fract_x
 _atom_site_fract_y
 _atom_site_fract_z
 _atom_site_occupancy
  Dy  Dy0  1  0.46907400  0.46907400  0.90437700  1
  Dy  Dy1  1  0.53092600  0.00000000  0.90437700  1
  Dy  Dy2  1  0.00000000  0.53092600  0.90437700  1
  Dy  Dy3  1  0.53092600  0.53092600  0.09562300  1
  Dy  Dy4  1  0.46907400  0.00000000  0.09562300  1
  Dy  Dy5  1  0.00000000  0.46907400  0.09562300  1
  Dy  Dy6  1  0.53092600  0.53092600  0.40437700  1
  Dy  Dy7  1  0.46907400  0.00000000  0.40437700  1
  Dy  Dy8  1  0.00000000  0.46907400  0.40437700  1
  Dy  Dy9  1  0.46907400  0.46907400  0.59562300  1
  Dy  Dy10  1  0.53092600  0.00000000  0.59562300  1
  Dy  Dy11  1  0.00000000  0.53092600  0.59562300  1
  Al  Al0  1  0.84143200  0.23635300  0.83642300  1
  Al  Al1  1  0.76364700  0.60507900  0.83642300  1
  Al  Al2  1  0.39492100  0.15856800  0.83642300  1
  Al  Al3  1  0.23635300  0.84143200  0.83642300  1
  Al  Al4  1  0.60507900  0.76364700  0.83642300  1
  Al  Al5  1  0.15856800  0.39492100  0.83642300  1
  Al  Al6  1  0.15856800  0.76364700  0.16357700  1
  Al  Al7  1  0.23635300  0.39492100  0.16357700  1
  Al  Al8  1  0.60507900  0.84143200  0.16357700  1
  Al  Al9  1  0.76364700  0.15856800  0.16357700  1
  Al  Al10  1  0.39492100  0.23635300  0.16357700  1
  Al  Al11  1  0.84143200  0.60507900  0.16357700  1
  Al  Al12  1  0.15856800  0.76364700  0.33642300  1
  Al  Al13  1  0.23635300  0.39492100  0.33642300  1
  Al  Al14  1  0.60507900  0.84143200  0.33642300  1
  Al  Al15  1  0.76364700  0.15856800  0.33642300  1
  Al  Al16  1  0.39492100  0.23635300  0.33642300  1
  Al  Al17  1  0.84143200  0.60507900  0.33642300  1
  Al  Al18  1  0.84143200  0.23635300  0.66357700  1
  Al  Al19  1  0.76364700  0.60507900  0.66357700  1
  Al  Al20  1  0.39492100  0.15856800  0.66357700  1
  Al  Al21  1  0.23635300  0.84143200  0.66357700  1
  Al  Al22  1  0.60507900  0.76364700  0.66357700  1
  Al  Al23  1  0.15856800  0.39492100  0.66357700  1
  Al  Al24  1  0.84040000  0.84040000  0.38529100  1
  Al  Al25  1  0.15960000  0.00000000  0.38529100  1
  Al  Al26  1  0.00000000  0.15960000  0.38529100  1
  Al  Al27  1  0.15960000  0.15960000  0.61470900  1
  Al  Al28  1  0.84040000  0.00000000  0.61470900  1
  Al  Al29  1  0.00000000  0.84040000  0.61470900  1
  Al  Al30  1  0.15960000  0.15960000  0.88529100  1
  Al  Al31  1  0.84040000  0.00000000  0.88529100  1
  Al  Al32  1  0.00000000  0.84040000  0.88529100  1
  Al  Al33  1  0.84040000  0.84040000  0.11470900  1
  Al  Al34  1  0.15960000  0.00000000  0.11470900  1
  Al  Al35  1  0.00000000  0.15960000  0.11470900  1
  Al  Al36  1  0.74580000  0.74580000  0.96912900  1
  Al  Al37  1  0.25420000  0.00000000  0.96912900  1
  Al  Al38  1  0.00000000  0.25420000  0.96912900  1
  Al  Al39  1  0.25420000  0.25420000  0.03087100  1
  Al  Al40  1  0.74580000  0.00000000  0.03087100  1
  Al  Al41  1  0.00000000  0.74580000  0.03087100  1
  Al  Al42  1  0.25420000  0.25420000  0.46912900  1
  Al  Al43  1  0.74580000  0.00000000  0.46912900  1
  Al  Al44  1  0.00000000  0.74580000  0.46912900  1
  Al  Al45  1  0.74580000  0.74580000  0.53087100  1
  Al  Al46  1  0.25420000  0.00000000  0.53087100  1
  Al  Al47  1  0.00000000  0.25420000  0.53087100  1
  Al  Al48  1  0.85295500  0.44809700  0.75000000  1
  Al  Al49  1  0.55190300  0.40485800  0.75000000  1
  Al  Al50  1  0.59514200  0.14704500  0.75000000  1
  Al  Al51  1  0.44809700  0.85295500  0.75000000  1
  Al  Al52  1  0.40485800  0.55190300  0.75000000  1
  Al  Al53  1  0.14704500  0.59514200  0.75000000  1
  Al  Al54  1  0.14704500  0.55190300  0.25000000  1
  Al  Al55  1  0.44809700  0.59514200  0.25000000  1
  Al  Al56  1  0.40485800  0.85295500  0.25000000  1
  Al  Al57  1  0.55190300  0.14704500  0.25000000  1
  Al  Al58  1  0.59514200  0.44809700  0.25000000  1
  Al  Al59  1  0.85295500  0.40485800  0.25000000  1
  Al  Al60  1  0.75311400  0.24688600  0.00000000  1
  Al  Al61  1  0.75311400  0.50622700  0.00000000  1
  Al  Al62  1  0.49377300  0.24688600  0.00000000  1
  Al  Al63  1  0.24688600  0.75311400  0.00000000  1
  Al  Al64  1  0.50622700  0.75311400  0.00000000  1
  Al  Al65  1  0.24688600  0.49377300  0.00000000  1
  Al  Al66  1  0.24688600  0.75311400  0.50000000  1
  Al  Al67  1  0.24688600  0.49377300  0.50000000  1
  Al  Al68  1  0.50622700  0.75311400  0.50000000  1
  Al  Al69  1  0.75311400  0.24688600  0.50000000  1
  Al  Al70  1  0.49377300  0.24688600  0.50000000  1
  Al  Al71  1  0.75311400  0.50622700  0.50000000  1
  Al  Al72  1  0.66666700  0.33333300  0.87376000  1
  Al  Al73  1  0.33333300  0.66666700  0.87376000  1
  Al  Al74  1  0.33333300  0.66666700  0.12624000  1
  Al  Al75  1  0.66666700  0.33333300  0.12624000  1
  Al  Al76  1  0.33333300  0.66666700  0.37376000  1
  Al  Al77  1  0.66666700  0.33333300  0.37376000  1
  Al  Al78  1  0.66666700  0.33333300  0.62624000  1
  Al  Al79  1  0.33333300  0.66666700  0.62624000  1
  Al  Al80  1  0.85226300  0.85226300  0.75000000  1
  Al  Al81  1  0.14773700  0.00000000  0.75000000  1
  Al  Al82  1  0.00000000  0.14773700  0.75000000  1
  Al  Al83  1  0.14773700  0.14773700  0.25000000  1
  Al  Al84  1  0.85226300  0.00000000  0.25000000  1
  Al  Al85  1  0.00000000  0.85226300  0.25000000  1
  W  W0  1  0.27071600  0.27071600  0.75000000  1
  W  W1  1  0.72928400  0.00000000  0.75000000  1
  W  W2  1  0.00000000  0.72928400  0.75000000  1
  W  W3  1  0.72928400  0.72928400  0.25000000  1
  W  W4  1  0.27071600  0.00000000  0.25000000  1
  W  W5  1  0.00000000  0.27071600  0.25000000  1
  W  W6  1  0.00000000  0.00000000  0.00000000  1
  W  W7  1  0.00000000  0.00000000  0.50000000  1
loop_
_geom_bond_atom_site_label_1
_geom_bond_atom_site_label_2
_geom_bond_distance
_geom_bond_site_symmetry_2
Dy0 Dy3 3.436302 1_556
Dy0 W0 3.493198 1_555
Dy1 Dy4 3.436302 1_556
Dy1 W1 3.493198 1_555
Dy2 Dy5 3.436302 1_556
Dy2 W2 3.493198 1_555
Dy3 W3 3.493198 1_555
Dy4 W4 3.493198 1_555
Dy5 W5 3.493198 1_555
Dy6 Dy9 3.436302 1_555
Dy6 W3 3.493198 1_555
Dy7 W4 3.493198 1_555
Dy8 W5 3.493198 1_555
Dy9 W0 3.493198 1_555
Dy10 Dy7 3.436302 1_555
Dy10 W1 3.493198 1_555
Dy11 Dy8 3.436302 1_555
Dy11 W2 3.493198 1_555
Al0 Al72 2.718897 1_555
Al0 W1 2.728640 1_555
Al0 Al38 2.868608 1_655
Al0 Al60 3.062313 1_556
Al0 Dy2 3.067336 1_655
Al0 Dy1 3.328976 1_555
Al1 Al72 2.718907 1_555
Al1 W2 2.728640 1_655
Al1 Al36 2.868608 1_555
Al1 Al61 3.062316 1_556
Al1 Dy0 3.067336 1_555
Al1 Dy2 3.328976 1_655
Al2 Al72 2.718905 1_555
Al2 W0 2.728640 1_555
Al2 Al37 2.868608 1_555
Al2 Al62 3.062315 1_556
Al2 Dy1 3.067335 1_555
Al2 Dy0 3.328976 1_555
Al3 Al73 2.718897 1_555
Al3 W2 2.728640 1_555
Al3 Al37 2.868608 1_565
Al3 Al63 3.062313 1_556
Al3 Dy1 3.067336 1_565
Al3 Dy2 3.328976 1_555
Al4 Al73 2.718907 1_555
Al4 W1 2.728640 1_565
Al4 Al64 3.062316 1_556
Al4 Dy0 3.067336 1_555
Al4 Dy1 3.328976 1_565
Al5 Al73 2.718905 1_555
Al5 W0 2.728640 1_555
Al5 Al65 3.062315 1_556
Al5 Dy2 3.067335 1_555
Al5 Dy0 3.328976 1_555
Al6 Al74 2.718897 1_555
Al6 W4 2.728640 1_565
Al6 Al63 3.062313 1_555
Al6 Dy5 3.067336 1_555
Al6 Dy4 3.328976 1_565
Al7 Al74 2.718907 1_555
Al7 W5 2.728640 1_555
Al7 Dy3 3.067336 1_555
Al7 Dy5 3.328976 1_555
Al8 W3 2.728640 1_555
Al8 Dy4 3.067335 1_565
Al8 Dy3 3.328976 1_555
Al9 W5 2.728640 1_655
Al9 Dy4 3.067336 1_555
Al9 Dy5 3.328976 1_655
Al10 Al75 2.718907 1_555
Al10 W4 2.728640 1_555
Al10 Al39 2.868608 1_555
Al10 Al62 3.062316 1_555
Al10 Dy3 3.067336 1_555
Al10 Dy4 3.328976 1_555
Al11 Al75 2.718905 1_555
Al11 W3 2.728640 1_555
Al11 Al41 2.868608 1_655
Al11 Al61 3.062315 1_555
Al11 Dy5 3.067335 1_655
Al11 Dy3 3.328976 1_555
Al12 Al76 2.718897 1_555
Al12 W4 2.728640 1_565
Al12 Al44 2.868608 1_555
Al12 Al66 3.062313 1_555
Al12 Dy8 3.067336 1_555
Al12 Dy7 3.328976 1_565
Al13 Al76 2.718907 1_555
Al13 W5 2.728640 1_555
Al13 Al42 2.868608 1_555
Al13 Al67 3.062316 1_555
Al13 Dy6 3.067336 1_555
Al13 Dy8 3.328976 1_555
Al14 Al76 2.718905 1_555
Al14 W3 2.728640 1_555
Al14 Al43 2.868608 1_565
Al14 Al68 3.062315 1_555
Al14 Dy7 3.067335 1_565
Al14 Dy6 3.328976 1_555
Al15 Al77 2.718897 1_555
Al15 W5 2.728640 1_655
Al15 Al43 2.868608 1_555
Al15 Al69 3.062313 1_555
Al15 Dy7 3.067336 1_555
Al15 Dy8 3.328976 1_655
Al16 Al77 2.718907 1_555
Al16 W4 2.728640 1_555
Al16 Al42 2.868608 1_555
Al16 Al70 3.062316 1_555
Al16 Dy6 3.067336 1_555
Al16 Dy7 3.328976 1_555
Al17 Al77 2.718905 1_555
Al17 W3 2.728640 1_555
Al17 Al44 2.868608 1_655
Al17 Al71 3.062315 1_555
Al17 Dy8 3.067335 1_655
Al17 Dy6 3.328976 1_555
Al18 Al78 2.718897 1_555
Al18 W1 2.728640 1_555
Al18 Al47 2.868608 1_655
Al18 Al69 3.062313 1_555
Al18 Dy11 3.067336 1_655
Al18 Dy10 3.328976 1_555
Al19 Al78 2.718907 1_555
Al19 W2 2.728640 1_655
Al19 Al45 2.868608 1_555
Al19 Al71 3.062316 1_555
Al19 Dy9 3.067336 1_555
Al19 Dy11 3.328976 1_655
Al20 Al78 2.718905 1_555
Al20 W0 2.728640 1_555
Al20 Al46 2.868608 1_555
Al20 Al70 3.062315 1_555
Al20 Dy10 3.067335 1_555
Al20 Dy9 3.328976 1_555
Al21 Al79 2.718897 1_555
Al21 W2 2.728640 1_555
Al21 Al46 2.868608 1_565
Al21 Al66 3.062313 1_555
Al21 Dy10 3.067336 1_565
Al21 Dy11 3.328976 1_555
Al22 Al79 2.718907 1_555
Al22 W1 2.728640 1_565
Al22 Al45 2.868608 1_555
Al22 Al68 3.062316 1_555
Al22 Dy9 3.067336 1_555
Al22 Dy10 3.328976 1_565
Al23 Al79 2.718905 1_555
Al23 W0 2.728640 1_555
Al23 Al47 2.868608 1_555
Al23 Al67 3.062315 1_555
Al23 Dy11 3.067335 1_555
Al23 Dy9 3.328976 1_555
Al24 W3 2.680573 1_555
Al24 W7 2.682486 1_665
Al24 Al45 2.768728 1_555
Al24 Al43 2.870021 1_565
Al24 Al44 2.870021 1_655
Al24 Dy6 3.439332 1_555
Al25 W4 2.680573 1_555
Al25 W7 2.682485 1_555
Al25 Al46 2.768728 1_555
Al25 Al42 2.870021 1_555
Al25 Al44 2.870021 1_545
Al25 Dy7 3.439332 1_555
Al26 W5 2.680573 1_555
Al26 W7 2.682485 1_555
Al26 Al47 2.768728 1_555
Al26 Al42 2.870021 1_555
Al26 Al43 2.870021 1_455
Al26 Dy8 3.439332 1_555
Al27 W0 2.680573 1_555
Al27 W7 2.682486 1_555
Al27 Al42 2.768728 1_555
Al27 Al46 2.870021 1_555
Al27 Al47 2.870021 1_555
Al27 Dy9 3.439332 1_555
Al28 W1 2.680573 1_555
Al28 W7 2.682485 1_655
Al28 Al43 2.768728 1_555
Al28 Al45 2.870021 1_545
Al28 Al47 2.870021 1_655
Al28 Dy10 3.439332 1_555
Al29 W2 2.680573 1_555
Al29 W7 2.682485 1_565
Al29 Al44 2.768728 1_555
Al29 Al45 2.870021 1_455
Al29 Al46 2.870021 1_565
Al29 Dy11 3.439332 1_555
Al30 W0 2.680573 1_555
Al30 W6 2.682486 1_556
Al30 Al39 2.768728 1_556
Al30 Al37 2.870021 1_555
Al30 Al38 2.870021 1_555
Al30 Dy0 3.439332 1_555
Al31 W1 2.680573 1_555
Al31 W6 2.682485 1_656
Al31 Al40 2.768728 1_556
Al31 Al36 2.870021 1_545
Al31 Al38 2.870021 1_655
Al31 Dy1 3.439332 1_555
Al32 W2 2.680573 1_555
Al32 W6 2.682485 1_566
Al32 Al41 2.768728 1_556
Al32 Al36 2.870021 1_455
Al32 Al37 2.870021 1_565
Al32 Dy2 3.439332 1_555
Al33 W3 2.680573 1_555
Al33 W6 2.682486 1_665
Al33 Al36 2.768728 1_554
Al33 Al40 2.870021 1_565
Al33 Al41 2.870021 1_655
Al33 Dy3 3.439332 1_555
Al34 W4 2.680573 1_555
Al34 W6 2.682485 1_555
Al34 Al37 2.768728 1_554
Al34 Al39 2.870021 1_555
Al34 Al41 2.870021 1_545
Al34 Dy4 3.439332 1_555
Al35 W5 2.680573 1_555
Al35 W6 2.682485 1_555
Al35 Al38 2.768728 1_554
Al35 Al39 2.870021 1_555
Al35 Al40 2.870021 1_455
Al35 Dy5 3.439332 1_555
Al36 Al64 2.745459 1_556
Al36 Al61 2.745459 1_556
Al36 W6 2.863594 1_666
Al36 Al4 2.868608 1_555
Al36 Al40 3.014403 1_566
Al36 Al41 3.014403 1_656
Al36 Dy3 3.257169 1_556
Al36 Dy0 3.266145 1_555
Al37 Al63 2.745448 1_546
Al37 Al62 2.745453 1_556
Al37 W6 2.863593 1_556
Al37 Al39 3.014403 1_556
Al37 Al41 3.014403 1_546
Al37 Dy4 3.257169 1_556
Al37 Dy1 3.266144 1_555
Al38 Al60 2.745448 1_456
Al38 Al65 2.745453 1_556
Al38 W6 2.863593 1_556
Al38 Al5 2.868608 1_555
Al38 Al39 3.014403 1_556
Al38 Al40 3.014403 1_456
Al38 Dy5 3.257169 1_556
Al38 Dy2 3.266144 1_555
Al39 Al62 2.745459 1_555
Al39 Al65 2.745459 1_555
Al39 W6 2.863594 1_555
Al39 Al7 2.868608 1_555
Al39 Dy0 3.257169 1_554
Al39 Dy3 3.266145 1_555
Al40 Al60 2.745448 1_555
Al40 Al64 2.745453 1_545
Al40 W6 2.863593 1_655
Al40 Al9 2.868608 1_555
Al40 Al8 2.868608 1_545
Al40 Dy1 3.257169 1_554
Al40 Dy4 3.266144 1_555
Al41 Al63 2.745448 1_555
Al41 Al61 2.745453 1_455
Al41 W6 2.863593 1_565
Al41 Al6 2.868608 1_555
Al41 Dy2 3.257169 1_554
Al41 Dy5 3.266144 1_555
Al42 Al67 2.745459 1_555
Al42 Al70 2.745459 1_555
Al42 W7 2.863594 1_555
Al42 Al47 3.014403 1_555
Al42 Al46 3.014403 1_555
Al42 Dy9 3.257169 1_555
Al42 Dy6 3.266145 1_555
Al43 Al69 2.745448 1_555
Al43 Al68 2.745453 1_545
Al43 W7 2.863593 1_655
Al43 Al45 3.014403 1_545
Al43 Al47 3.014403 1_655
Al43 Dy10 3.257169 1_555
Al43 Dy7 3.266144 1_555
Al44 Al66 2.745448 1_555
Al44 Al71 2.745453 1_455
Al44 W7 2.863593 1_565
Al44 Al45 3.014403 1_455
Al44 Al46 3.014403 1_565
Al44 Dy11 3.257169 1_555
Al44 Dy8 3.266144 1_555
Al45 Al68 2.745459 1_555
Al45 Al71 2.745459 1_555
Al45 W7 2.863594 1_665
Al45 Dy6 3.257169 1_555
Al45 Dy9 3.266145 1_555
Al46 Al66 2.745448 1_545
Al46 Al70 2.745453 1_555
Al46 W7 2.863593 1_555
Al46 Dy7 3.257169 1_555
Al46 Dy10 3.266144 1_555
Al47 Al69 2.745448 1_455
Al47 Al67 2.745453 1_555
Al47 W7 2.863593 1_555
Al47 Dy8 3.257169 1_555
Al47 Dy11 3.266144 1_555
Al48 W2 2.694293 1_655
Al48 Al78 2.826667 1_555
Al48 Al72 2.826667 1_555
Al48 Dy11 3.063271 1_655
Al48 Dy2 3.063271 1_655
Al49 W0 2.694293 1_555
Al49 Al78 2.826672 1_555
Al49 Al72 2.826672 1_555
Al49 Dy9 3.063271 1_555
Al49 Dy0 3.063271 1_555
Al50 W1 2.694293 1_555
Al50 Al78 2.826666 1_555
Al50 Al72 2.826666 1_555
Al50 Dy1 3.063271 1_555
Al50 Dy10 3.063271 1_555
Al51 W1 2.694293 1_565
Al51 Al79 2.826667 1_555
Al51 Al73 2.826667 1_555
Al51 Dy10 3.063271 1_565
Al51 Dy1 3.063271 1_565
Al52 W0 2.694293 1_555
Al52 Al79 2.826672 1_555
Al52 Al73 2.826672 1_555
Al52 Dy9 3.063271 1_555
Al52 Dy0 3.063271 1_555
Al53 W2 2.694293 1_555
Al53 Al79 2.826666 1_555
Al53 Al73 2.826666 1_555
Al53 Dy11 3.063271 1_555
Al53 Dy2 3.063271 1_555
Al54 W5 2.694293 1_555
Al54 Al74 2.826667 1_555
Al54 Al76 2.826667 1_555
Al54 Dy8 3.063271 1_555
Al54 Dy5 3.063271 1_555
Al55 W3 2.694293 1_555
Al55 Al74 2.826672 1_555
Al55 Al76 2.826672 1_555
Al55 Dy6 3.063271 1_555
Al55 Dy3 3.063271 1_555
Al56 W4 2.694293 1_565
Al56 Al74 2.826666 1_555
Al56 Al76 2.826666 1_555
Al56 Dy4 3.063271 1_565
Al56 Dy7 3.063271 1_565
Al57 W4 2.694293 1_555
Al57 Al75 2.826667 1_555
Al57 Al77 2.826667 1_555
Al57 Dy7 3.063271 1_555
Al57 Dy4 3.063271 1_555
Al58 W3 2.694293 1_555
Al58 Al75 2.826672 1_555
Al58 Al77 2.826672 1_555
Al58 Dy6 3.063271 1_555
Al58 Dy3 3.063271 1_555
Al59 W5 2.694293 1_655
Al59 Al75 2.826666 1_555
Al59 Al77 2.826666 1_555
Al59 Dy5 3.063271 1_655
Al59 Dy8 3.063271 1_655
Al60 Al72 2.771951 1_554
Al60 Al75 2.771951 1_555
Al60 Al61 2.868388 1_555
Al60 Al62 2.868388 1_555
Al60 Al9 3.062313 1_555
Al60 Dy5 3.101628 1_655
Al60 Dy1 3.101628 1_554
Al60 Dy4 3.403288 1_555
Al60 Dy2 3.403288 1_654
Al61 Al72 2.771951 1_554
Al61 Al75 2.771951 1_555
Al61 Al62 2.868388 1_555
Al61 Dy2 3.101624 1_654
Al61 Dy3 3.101633 1_555
Al61 Dy5 3.403282 1_655
Al61 Dy0 3.403292 1_554
Al62 Al72 2.771951 1_554
Al62 Al75 2.771951 1_555
Al62 Dy4 3.101624 1_555
Al62 Dy0 3.101633 1_554
Al62 Dy1 3.403282 1_554
Al62 Dy3 3.403292 1_555
Al63 Al73 2.771951 1_554
Al63 Al74 2.771951 1_555
Al63 Al64 2.868388 1_555
Al63 Al65 2.868388 1_555
Al63 Dy4 3.101628 1_565
Al63 Dy2 3.101628 1_554
Al63 Dy5 3.403288 1_555
Al63 Dy1 3.403288 1_564
Al64 Al73 2.771951 1_554
Al64 Al74 2.771951 1_555
Al64 Al65 2.868388 1_555
Al64 Al8 3.062315 1_555
Al64 Dy1 3.101624 1_564
Al64 Dy3 3.101633 1_555
Al64 Dy4 3.403282 1_565
Al64 Dy0 3.403292 1_554
Al65 Al73 2.771951 1_554
Al65 Al74 2.771951 1_555
Al65 Al7 3.062316 1_555
Al65 Dy5 3.101624 1_555
Al65 Dy0 3.101633 1_554
Al65 Dy2 3.403282 1_554
Al65 Dy3 3.403292 1_555
Al66 Al76 2.771951 1_555
Al66 Al79 2.771951 1_555
Al66 Al68 2.868388 1_555
Al66 Al67 2.868388 1_555
Al66 Dy11 3.101628 1_555
Al66 Dy7 3.101628 1_565
Al66 Dy10 3.403288 1_565
Al66 Dy8 3.403288 1_555
Al67 Al76 2.771951 1_555
Al67 Al79 2.771951 1_555
Al67 Al68 2.868388 1_555
Al67 Dy8 3.101624 1_555
Al67 Dy9 3.101633 1_555
Al67 Dy11 3.403282 1_555
Al67 Dy6 3.403292 1_555
Al68 Al76 2.771951 1_555
Al68 Al79 2.771951 1_555
Al68 Dy10 3.101624 1_565
Al68 Dy6 3.101633 1_555
Al68 Dy7 3.403282 1_565
Al68 Dy9 3.403292 1_555
Al69 Al77 2.771951 1_555
Al69 Al78 2.771951 1_555
Al69 Al71 2.868388 1_555
Al69 Al70 2.868388 1_555
Al69 Dy8 3.101628 1_655
Al69 Dy10 3.101628 1_555
Al69 Dy11 3.403288 1_655
Al69 Dy7 3.403288 1_555
Al70 Al77 2.771951 1_555
Al70 Al78 2.771951 1_555
Al70 Al71 2.868388 1_555
Al70 Dy7 3.101624 1_555
Al70 Dy9 3.101633 1_555
Al70 Dy10 3.403282 1_555
Al70 Dy6 3.403292 1_555
Al71 Al77 2.771951 1_555
Al71 Al78 2.771951 1_555
Al71 Dy11 3.101624 1_655
Al71 Dy6 3.101633 1_555
Al71 Dy8 3.403282 1_655
Al71 Dy9 3.403292 1_555
Al72 Dy1 3.256039 1_555
Al72 Dy2 3.256041 1_655
Al72 Dy0 3.256049 1_555
Al73 Dy2 3.256039 1_555
Al73 Dy1 3.256041 1_565
Al73 Dy0 3.256049 1_555
Al74 Al8 2.718905 1_555
Al74 Dy4 3.256039 1_565
Al74 Dy5 3.256041 1_555
Al74 Dy3 3.256049 1_555
Al75 Al9 2.718897 1_555
Al75 Dy5 3.256039 1_655
Al75 Dy4 3.256041 1_555
Al75 Dy3 3.256049 1_555
Al76 Dy7 3.256039 1_565
Al76 Dy8 3.256041 1_555
Al76 Dy6 3.256049 1_555
Al77 Dy8 3.256039 1_655
Al77 Dy7 3.256041 1_555
Al77 Dy6 3.256049 1_555
Al78 Dy10 3.256039 1_555
Al78 Dy11 3.256041 1_655
Al78 Dy9 3.256049 1_555
Al79 Dy11 3.256039 1_555
Al79 Dy10 3.256041 1_565
Al79 Dy9 3.256049 1_555
Al80 W1 2.596664 1_565
Al80 W2 2.596664 1_655
Al81 W0 2.596664 1_555
Al81 W2 2.596664 1_545
Al82 W0 2.596664 1_555
Al82 W1 2.596664 1_455
Al83 W5 2.596664 1_555
Al83 W4 2.596664 1_555
Al84 W3 2.596664 1_545
Al84 W5 2.596664 1_655
Al85 W3 2.596664 1_455
Al85 W4 2.596664 1_565
