# generated using pymatgen
data_Mg6FeNiO8
_symmetry_space_group_name_H-M   'P 1'
_cell_length_a   4.25236900
_cell_length_b   4.25236900
_cell_length_c   8.59016800
_cell_angle_alpha   90.00000000
_cell_angle_beta   90.00000000
_cell_angle_gamma   90.00000000
_symmetry_Int_Tables_number   1
_chemical_formula_structural   Mg6FeNiO8
_chemical_formula_sum   'Mg6 Fe1 Ni1 O8'
_cell_volume   155.33293363
_cell_formula_units_Z   1
loop_
 _symmetry_equiv_pos_site_id
 _symmetry_equiv_pos_as_xyz
  1  'x, y, z'
loop_
 _atom_site_type_symbol
 _atom_site_label
 _atom_site_symmetry_multiplicity
 _atom_site_fract_x
 _atom_site_fract_y
 _atom_site_fract_z
 _atom_site_occupancy
  Mg  Mg0  1  0.50000000  0.50000000  0.00000000  1
  Mg  Mg1  1  0.50000000  0.50000000  0.50000000  1
  Mg  Mg2  1  0.00000000  0.50000000  0.25229800  1
  Mg  Mg3  1  0.00000000  0.50000000  0.74770200  1
  Mg  Mg4  1  0.50000000  0.00000000  0.25229800  1
  Mg  Mg5  1  0.50000000  0.00000000  0.74770200  1
  Fe  Fe0  1  0.00000000  0.00000000  0.00000000  1
  Ni  Ni0  1  0.00000000  0.00000000  0.50000000  1
  O  O0  1  0.00000000  0.00000000  0.25623000  1
  O  O1  1  0.00000000  0.00000000  0.74377000  1
  O  O2  1  0.50000000  0.50000000  0.24840900  1
  O  O3  1  0.50000000  0.50000000  0.75159100  1
  O  O4  1  0.00000000  0.50000000  0.00000000  1
  O  O5  1  0.00000000  0.50000000  0.50000000  1
  O  O6  1  0.50000000  0.00000000  0.00000000  1
  O  O7  1  0.50000000  0.00000000  0.50000000  1
loop_
_geom_bond_atom_site_label_1
_geom_bond_atom_site_label_2
_geom_bond_distance
_geom_bond_site_symmetry_2
Mg0 O6 2.126184 1_565
Mg0 O4 2.126184 1_555
Mg0 O4 2.126184 1_655
Mg0 O6 2.126184 1_555
Mg0 O2 2.133875 1_555
Mg0 O3 2.133875 1_554
Mg1 O7 2.126184 1_555
Mg1 O5 2.126184 1_655
Mg1 O5 2.126184 1_555
Mg1 O7 2.126184 1_565
Mg1 O3 2.161209 1_555
Mg1 O2 2.161209 1_555
Mg2 O2 2.126447 1_555
Mg2 O2 2.126447 1_455
Mg2 O0 2.126453 1_555
Mg2 O0 2.126453 1_565
Mg2 O5 2.127802 1_555
Mg2 O4 2.167282 1_555
Mg3 O3 2.126447 1_555
Mg3 O3 2.126447 1_455
Mg3 O1 2.126453 1_555
Mg3 O1 2.126453 1_565
Mg3 O5 2.127802 1_555
Mg3 O4 2.167282 1_556
Mg4 O2 2.126447 1_555
Mg4 O2 2.126447 1_545
Mg4 O0 2.126453 1_555
Mg4 O0 2.126453 1_655
Mg4 O7 2.127802 1_555
Mg4 O6 2.167282 1_555
Mg5 O3 2.126447 1_555
Mg5 O3 2.126447 1_545
Mg5 O1 2.126453 1_555
Mg5 O1 2.126453 1_655
Mg5 O7 2.127802 1_555
Mg5 O6 2.167282 1_556
Fe0 O4 2.126184 1_555
Fe0 O6 2.126184 1_555
Fe0 O6 2.126184 1_455
Fe0 O4 2.126184 1_545
Fe0 O1 2.201059 1_554
Fe0 O0 2.201059 1_555
Ni0 O0 2.094025 1_555
Ni0 O1 2.094025 1_555
Ni0 O7 2.126184 1_555
Ni0 O5 2.126184 1_555
Ni0 O7 2.126184 1_455
Ni0 O5 2.126184 1_545
