# generated using pymatgen
data_YMg30MnO32
_symmetry_space_group_name_H-M   'P 1'
_cell_length_a   8.62130500
_cell_length_b   8.62130500
_cell_length_c   8.63212200
_cell_angle_alpha   90.00000000
_cell_angle_beta   90.00000000
_cell_angle_gamma   90.00000000
_symmetry_Int_Tables_number   1
_chemical_formula_structural   YMg30MnO32
_chemical_formula_sum   'Y1 Mg30 Mn1 O32'
_cell_volume   641.59886784
_cell_formula_units_Z   1
loop_
 _symmetry_equiv_pos_site_id
 _symmetry_equiv_pos_as_xyz
  1  'x, y, z'
loop_
 _atom_site_type_symbol
 _atom_site_label
 _atom_site_symmetry_multiplicity
 _atom_site_fract_x
 _atom_site_fract_y
 _atom_site_fract_z
 _atom_site_occupancy
  Y  Y0  1  0.00000000  0.00000000  0.50000000  1
  Mg  Mg0  1  0.00000000  0.50000000  0.00000000  1
  Mg  Mg1  1  0.00000000  0.50000000  0.50000000  1
  Mg  Mg2  1  0.50000000  0.00000000  0.00000000  1
  Mg  Mg3  1  0.50000000  0.00000000  0.50000000  1
  Mg  Mg4  1  0.50000000  0.50000000  0.00000000  1
  Mg  Mg5  1  0.50000000  0.50000000  0.50000000  1
  Mg  Mg6  1  0.00000000  0.25773100  0.24398000  1
  Mg  Mg7  1  0.00000000  0.25773100  0.75602000  1
  Mg  Mg8  1  0.00000000  0.74226900  0.24398000  1
  Mg  Mg9  1  0.00000000  0.74226900  0.75602000  1
  Mg  Mg10  1  0.50000000  0.25121900  0.24887500  1
  Mg  Mg11  1  0.50000000  0.25121900  0.75112500  1
  Mg  Mg12  1  0.50000000  0.74878100  0.24887500  1
  Mg  Mg13  1  0.50000000  0.74878100  0.75112500  1
  Mg  Mg14  1  0.25773100  0.00000000  0.24398000  1
  Mg  Mg15  1  0.25773100  0.00000000  0.75602000  1
  Mg  Mg16  1  0.25121900  0.50000000  0.24887500  1
  Mg  Mg17  1  0.25121900  0.50000000  0.75112500  1
  Mg  Mg18  1  0.74226900  0.00000000  0.24398000  1
  Mg  Mg19  1  0.74226900  0.00000000  0.75602000  1
  Mg  Mg20  1  0.74878100  0.50000000  0.24887500  1
  Mg  Mg21  1  0.74878100  0.50000000  0.75112500  1
  Mg  Mg22  1  0.25215200  0.25215200  0.00000000  1
  Mg  Mg23  1  0.25666300  0.25666300  0.50000000  1
  Mg  Mg24  1  0.25215200  0.74784800  0.00000000  1
  Mg  Mg25  1  0.25666300  0.74333700  0.50000000  1
  Mg  Mg26  1  0.74784800  0.25215200  0.00000000  1
  Mg  Mg27  1  0.74333700  0.25666300  0.50000000  1
  Mg  Mg28  1  0.74784800  0.74784800  0.00000000  1
  Mg  Mg29  1  0.74333700  0.74333700  0.50000000  1
  Mn  Mn0  1  0.00000000  0.00000000  0.00000000  1
  O  O0  1  0.25851200  0.00000000  0.00000000  1
  O  O1  1  0.25927500  0.00000000  0.50000000  1
  O  O2  1  0.25119400  0.50000000  0.00000000  1
  O  O3  1  0.25148000  0.50000000  0.50000000  1
  O  O4  1  0.74148800  0.00000000  0.00000000  1
  O  O5  1  0.74072500  0.00000000  0.50000000  1
  O  O6  1  0.74880600  0.50000000  0.00000000  1
  O  O7  1  0.74852000  0.50000000  0.50000000  1
  O  O8  1  0.24939100  0.24939100  0.25024100  1
  O  O9  1  0.24939100  0.24939100  0.74975900  1
  O  O10  1  0.24939100  0.75060900  0.25024100  1
  O  O11  1  0.24939100  0.75060900  0.74975900  1
  O  O12  1  0.75060900  0.24939100  0.25024100  1
  O  O13  1  0.75060900  0.24939100  0.74975900  1
  O  O14  1  0.75060900  0.75060900  0.25024100  1
  O  O15  1  0.75060900  0.75060900  0.74975900  1
  O  O16  1  0.00000000  0.00000000  0.24544000  1
  O  O17  1  0.00000000  0.00000000  0.75456000  1
  O  O18  1  0.00000000  0.50000000  0.24997800  1
  O  O19  1  0.00000000  0.50000000  0.75002200  1
  O  O20  1  0.50000000  0.00000000  0.24997800  1
  O  O21  1  0.50000000  0.00000000  0.75002200  1
  O  O22  1  0.50000000  0.50000000  0.25026000  1
  O  O23  1  0.50000000  0.50000000  0.74974000  1
  O  O24  1  0.00000000  0.25851200  0.00000000  1
  O  O25  1  0.00000000  0.25927500  0.50000000  1
  O  O26  1  0.00000000  0.74148800  0.00000000  1
  O  O27  1  0.00000000  0.74072500  0.50000000  1
  O  O28  1  0.50000000  0.25119400  0.00000000  1
  O  O29  1  0.50000000  0.25148000  0.50000000  1
  O  O30  1  0.50000000  0.74880600  0.00000000  1
  O  O31  1  0.50000000  0.74852000  0.50000000  1
loop_
_geom_bond_atom_site_label_1
_geom_bond_atom_site_label_2
_geom_bond_distance
_geom_bond_site_symmetry_2
Mg0 O26 2.081942 1_555
Mg0 O24 2.081942 1_555
Mg0 O18 2.157841 1_555
Mg0 O19 2.157841 1_554
Mg0 O2 2.165620 1_555
Mg0 O6 2.165620 1_455
Mg1 O27 2.075364 1_555
Mg1 O25 2.075364 1_555
Mg1 O19 2.158220 1_555
Mg1 O18 2.158220 1_555
Mg1 O7 2.168086 1_455
Mg1 O3 2.168086 1_555
Mg2 O4 2.081942 1_555
Mg2 O0 2.081942 1_555
Mg2 O20 2.157841 1_555
Mg2 O21 2.157841 1_554
Mg2 O28 2.165620 1_555
Mg2 O30 2.165620 1_545
Mg3 O5 2.075364 1_555
Mg3 O1 2.075364 1_555
Mg3 O21 2.158220 1_555
Mg3 O20 2.158220 1_555
Mg3 O31 2.168086 1_545
Mg3 O29 2.168086 1_555
Mg4 O6 2.145032 1_555
Mg4 O30 2.145032 1_555
Mg4 O2 2.145032 1_555
Mg4 O28 2.145032 1_555
Mg4 O23 2.160275 1_554
Mg4 O22 2.160275 1_555
Mg5 O3 2.142567 1_555
Mg5 O29 2.142567 1_555
Mg5 O31 2.142567 1_555
Mg5 O7 2.142567 1_555
Mg5 O22 2.155786 1_555
Mg5 O23 2.155786 1_555
Mg6 O18 2.089317 1_555
Mg6 O24 2.106076 1_555
Mg6 O8 2.151957 1_555
Mg6 O12 2.151957 1_455
Mg6 O25 2.210036 1_555
Mg6 O16 2.222013 1_555
Mg7 O19 2.089317 1_555
Mg7 O24 2.106076 1_556
Mg7 O9 2.151957 1_555
Mg7 O13 2.151957 1_455
Mg7 O25 2.210036 1_555
Mg7 O17 2.222013 1_555
Mg8 O18 2.089317 1_555
Mg8 O26 2.106076 1_555
Mg8 O10 2.151957 1_555
Mg8 O14 2.151957 1_455
Mg8 O27 2.210036 1_555
Mg8 O16 2.222013 1_565
Mg9 O19 2.089317 1_555
Mg9 O26 2.106076 1_556
Mg9 O11 2.151957 1_555
Mg9 O15 2.151957 1_455
Mg9 O27 2.210036 1_555
Mg9 O17 2.222013 1_565
Mg10 O22 2.144850 1_555
Mg10 O28 2.148319 1_555
Mg10 O12 2.160666 1_555
Mg10 O8 2.160666 1_555
Mg10 O20 2.165857 1_555
Mg10 O29 2.167743 1_555
Mg11 O23 2.144850 1_555
Mg11 O28 2.148319 1_556
Mg11 O9 2.160666 1_555
Mg11 O13 2.160666 1_555
Mg11 O21 2.165857 1_555
Mg11 O29 2.167743 1_555
Mg12 O22 2.144850 1_555
Mg12 O30 2.148319 1_555
Mg12 O10 2.160666 1_555
Mg12 O14 2.160666 1_555
Mg12 O20 2.165857 1_565
Mg12 O31 2.167743 1_555
Mg13 O23 2.144850 1_555
Mg13 O30 2.148319 1_556
Mg13 O15 2.160666 1_555
Mg13 O11 2.160666 1_555
Mg13 O21 2.165857 1_565
Mg13 O31 2.167743 1_555
Mg14 O20 2.089317 1_555
Mg14 O0 2.106076 1_555
Mg14 O8 2.151957 1_555
Mg14 O10 2.151957 1_545
Mg14 O1 2.210036 1_555
Mg14 O16 2.222013 1_555
Mg15 O21 2.089317 1_555
Mg15 O0 2.106076 1_556
Mg15 O9 2.151957 1_555
Mg15 O11 2.151957 1_545
Mg15 O1 2.210036 1_555
Mg15 O17 2.222013 1_555
Mg16 O22 2.144850 1_555
Mg16 O2 2.148319 1_555
Mg16 O8 2.160666 1_555
Mg16 O10 2.160666 1_555
Mg16 O18 2.165857 1_555
Mg16 O3 2.167743 1_555
Mg17 O23 2.144850 1_555
Mg17 O2 2.148319 1_556
Mg17 O11 2.160666 1_555
Mg17 O9 2.160666 1_555
Mg17 O19 2.165857 1_555
Mg17 O3 2.167743 1_555
Mg18 O20 2.089317 1_555
Mg18 O4 2.106076 1_555
Mg18 O12 2.151957 1_555
Mg18 O14 2.151957 1_545
Mg18 O5 2.210036 1_555
Mg18 O16 2.222013 1_655
Mg19 O21 2.089317 1_555
Mg19 O4 2.106076 1_556
Mg19 O13 2.151957 1_555
Mg19 O15 2.151957 1_545
Mg19 O5 2.210036 1_555
Mg19 O17 2.222013 1_655
Mg20 O22 2.144850 1_555
Mg20 O6 2.148319 1_555
Mg20 O12 2.160666 1_555
Mg20 O14 2.160666 1_555
Mg20 O18 2.165857 1_655
Mg20 O7 2.167743 1_555
Mg21 O23 2.144850 1_555
Mg21 O6 2.148319 1_556
Mg21 O15 2.160666 1_555
Mg21 O13 2.160666 1_555
Mg21 O19 2.165857 1_655
Mg21 O7 2.167743 1_555
Mg22 O28 2.136789 1_555
Mg22 O2 2.136789 1_555
Mg22 O8 2.160373 1_555
Mg22 O9 2.160373 1_554
Mg22 O24 2.174571 1_555
Mg22 O0 2.174571 1_555
Mg23 O3 2.098358 1_555
Mg23 O29 2.098358 1_555
Mg23 O9 2.157773 1_555
Mg23 O8 2.157773 1_555
Mg23 O1 2.212885 1_555
Mg23 O25 2.212885 1_555
Mg24 O2 2.136789 1_555
Mg24 O30 2.136789 1_555
Mg24 O10 2.160373 1_555
Mg24 O11 2.160373 1_554
Mg24 O0 2.174571 1_565
Mg24 O26 2.174571 1_555
Mg25 O3 2.098358 1_555
Mg25 O31 2.098358 1_555
Mg25 O11 2.157773 1_555
Mg25 O10 2.157773 1_555
Mg25 O27 2.212885 1_555
Mg25 O1 2.212885 1_565
Mg26 O28 2.136789 1_555
Mg26 O6 2.136789 1_555
Mg26 O12 2.160373 1_555
Mg26 O13 2.160373 1_554
Mg26 O24 2.174571 1_655
Mg26 O4 2.174571 1_555
Mg27 O29 2.098358 1_555
Mg27 O7 2.098358 1_555
Mg27 O13 2.157773 1_555
Mg27 O12 2.157773 1_555
Mg27 O5 2.212885 1_555
Mg27 O25 2.212885 1_655
Mg28 O30 2.136789 1_555
Mg28 O6 2.136789 1_555
Mg28 O14 2.160373 1_555
Mg28 O15 2.160373 1_554
Mg28 O4 2.174571 1_565
Mg28 O26 2.174571 1_655
Mg29 O7 2.098358 1_555
Mg29 O31 2.098358 1_555
Mg29 O15 2.157773 1_555
Mg29 O14 2.157773 1_555
Mg29 O5 2.212885 1_565
Mg29 O27 2.212885 1_655
Mn0 O17 2.118668 1_554
Mn0 O16 2.118668 1_555
Mn0 O0 2.228711 1_555
Mn0 O24 2.228711 1_555
Mn0 O26 2.228711 1_545
Mn0 O4 2.228711 1_455
O1 Y0 2.235289 1_555
O5 Y0 2.235289 1_655
O16 Y0 2.197393 1_555
O17 Y0 2.197393 1_555
O25 Y0 2.235289 1_555
O27 Y0 2.235289 1_565
