# generated using pymatgen
data_Hf3Sn
_symmetry_space_group_name_H-M   'P 1'
_cell_length_a   6.24216421
_cell_length_b   6.24216421
_cell_length_c   5.07085203
_cell_angle_alpha   90.00000000
_cell_angle_beta   90.00000000
_cell_angle_gamma   120.00000757
_symmetry_Int_Tables_number   1
_chemical_formula_structural   Hf3Sn
_chemical_formula_sum   'Hf6 Sn2'
_cell_volume   171.11257053
_cell_formula_units_Z   2
loop_
 _symmetry_equiv_pos_site_id
 _symmetry_equiv_pos_as_xyz
  1  'x, y, z'
loop_
 _atom_site_type_symbol
 _atom_site_label
 _atom_site_symmetry_multiplicity
 _atom_site_fract_x
 _atom_site_fract_y
 _atom_site_fract_z
 _atom_site_occupancy
  Hf  Hf0  1  0.16644865  0.33289830  0.25000000  1
  Hf  Hf1  1  0.66710170  0.83355135  0.25000000  1
  Hf  Hf2  1  0.16644865  0.83355135  0.25000000  1
  Hf  Hf3  1  0.83355135  0.66710170  0.75000000  1
  Hf  Hf4  1  0.33289830  0.16644865  0.75000000  1
  Hf  Hf5  1  0.83355135  0.16644865  0.75000000  1
  Sn  Sn0  1  0.33333300  0.66666700  0.75000000  1
  Sn  Sn1  1  0.66666700  0.33333300  0.25000000  1
loop_
_geom_bond_atom_site_label_1
_geom_bond_atom_site_label_2
_geom_bond_distance
_geom_bond_site_symmetry_2
Hf0 Hf5 3.109171 1_454
Hf0 Hf5 3.109171 1_455
Hf0 Hf4 3.109178 1_555
Hf0 Hf4 3.109178 1_554
Hf0 Sn0 3.111900 1_555
Hf0 Sn0 3.111900 1_554
Hf0 Hf1 3.117005 1_445
Hf0 Hf2 3.117006 1_545
Hf0 Sn1 3.121077 1_455
Hf0 Sn1 3.121089 1_555
Hf0 Hf1 3.125158 1_555
Hf0 Hf2 3.125159 1_555
Hf1 Hf5 3.109171 1_565
Hf1 Hf5 3.109171 1_564
Hf1 Hf3 3.109178 1_554
Hf1 Hf3 3.109178 1_555
Hf1 Sn0 3.111900 1_555
Hf1 Sn0 3.111900 1_554
Hf1 Hf2 3.117006 1_655
Hf1 Sn1 3.121077 1_565
Hf1 Sn1 3.121089 1_555
Hf1 Hf2 3.125159 1_555
Hf2 Hf4 3.109171 1_564
Hf2 Hf3 3.109171 1_455
Hf2 Hf3 3.109171 1_454
Hf2 Hf4 3.109171 1_565
Hf2 Sn0 3.111900 1_555
Hf2 Sn0 3.111900 1_554
Hf2 Sn1 3.121083 1_455
Hf2 Sn1 3.121083 1_565
Hf3 Sn1 3.111900 1_556
Hf3 Sn1 3.111900 1_555
Hf3 Hf4 3.117005 1_665
Hf3 Hf5 3.117006 1_565
Hf3 Sn0 3.121077 1_655
Hf3 Sn0 3.121089 1_555
Hf3 Hf4 3.125158 1_555
Hf3 Hf5 3.125159 1_555
Hf4 Sn1 3.111900 1_556
Hf4 Sn1 3.111900 1_555
Hf4 Hf5 3.117006 1_455
Hf4 Sn0 3.121077 1_545
Hf4 Sn0 3.121089 1_555
Hf4 Hf5 3.125159 1_555
Hf5 Sn1 3.111900 1_556
Hf5 Sn1 3.111900 1_555
Hf5 Sn0 3.121083 1_545
Hf5 Sn0 3.121083 1_655
