# generated using pymatgen
data_Nd6Al43W4
_symmetry_space_group_name_H-M   'P 1'
_cell_length_a   11.12373690
_cell_length_b   11.12373690
_cell_length_c   17.82412300
_cell_angle_alpha   90.00000000
_cell_angle_beta   90.00000000
_cell_angle_gamma   120.00000535
_symmetry_Int_Tables_number   1
_chemical_formula_structural   Nd6Al43W4
_chemical_formula_sum   'Nd12 Al86 W8'
_cell_volume   1910.03002994
_cell_formula_units_Z   2
loop_
 _symmetry_equiv_pos_site_id
 _symmetry_equiv_pos_as_xyz
  1  'x, y, z'
loop_
 _atom_site_type_symbol
 _atom_site_label
 _atom_site_symmetry_multiplicity
 _atom_site_fract_x
 _atom_site_fract_y
 _atom_site_fract_z
 _atom_site_occupancy
  Nd  Nd0  1  0.46982500  0.46982500  0.90452300  1
  Nd  Nd1  1  0.53017500  0.00000000  0.90452300  1
  Nd  Nd2  1  0.00000000  0.53017500  0.90452300  1
  Nd  Nd3  1  0.53017500  0.53017500  0.09547700  1
  Nd  Nd4  1  0.46982500  0.00000000  0.09547700  1
  Nd  Nd5  1  0.00000000  0.46982500  0.09547700  1
  Nd  Nd6  1  0.53017500  0.53017500  0.40452300  1
  Nd  Nd7  1  0.46982500  0.00000000  0.40452300  1
  Nd  Nd8  1  0.00000000  0.46982500  0.40452300  1
  Nd  Nd9  1  0.46982500  0.46982500  0.59547700  1
  Nd  Nd10  1  0.53017500  0.00000000  0.59547700  1
  Nd  Nd11  1  0.00000000  0.53017500  0.59547700  1
  Al  Al0  1  0.84177200  0.23498400  0.83495100  1
  Al  Al1  1  0.76501600  0.60678900  0.83495100  1
  Al  Al2  1  0.39321100  0.15822800  0.83495100  1
  Al  Al3  1  0.23498400  0.84177200  0.83495100  1
  Al  Al4  1  0.60678900  0.76501600  0.83495100  1
  Al  Al5  1  0.15822800  0.39321100  0.83495100  1
  Al  Al6  1  0.15822800  0.76501600  0.16504900  1
  Al  Al7  1  0.23498400  0.39321100  0.16504900  1
  Al  Al8  1  0.60678900  0.84177200  0.16504900  1
  Al  Al9  1  0.76501600  0.15822800  0.16504900  1
  Al  Al10  1  0.39321100  0.23498400  0.16504900  1
  Al  Al11  1  0.84177200  0.60678900  0.16504900  1
  Al  Al12  1  0.15822800  0.76501600  0.33495100  1
  Al  Al13  1  0.23498400  0.39321100  0.33495100  1
  Al  Al14  1  0.60678900  0.84177200  0.33495100  1
  Al  Al15  1  0.76501600  0.15822800  0.33495100  1
  Al  Al16  1  0.39321100  0.23498400  0.33495100  1
  Al  Al17  1  0.84177200  0.60678900  0.33495100  1
  Al  Al18  1  0.84177200  0.23498400  0.66504900  1
  Al  Al19  1  0.76501600  0.60678900  0.66504900  1
  Al  Al20  1  0.39321100  0.15822800  0.66504900  1
  Al  Al21  1  0.23498400  0.84177200  0.66504900  1
  Al  Al22  1  0.60678900  0.76501600  0.66504900  1
  Al  Al23  1  0.15822800  0.39321100  0.66504900  1
  Al  Al24  1  0.84221900  0.84221900  0.38445900  1
  Al  Al25  1  0.15778100  0.00000000  0.38445900  1
  Al  Al26  1  0.00000000  0.15778100  0.38445900  1
  Al  Al27  1  0.15778100  0.15778100  0.61554100  1
  Al  Al28  1  0.84221900  0.00000000  0.61554100  1
  Al  Al29  1  0.00000000  0.84221900  0.61554100  1
  Al  Al30  1  0.15778100  0.15778100  0.88445900  1
  Al  Al31  1  0.84221900  0.00000000  0.88445900  1
  Al  Al32  1  0.00000000  0.84221900  0.88445900  1
  Al  Al33  1  0.84221900  0.84221900  0.11554100  1
  Al  Al34  1  0.15778100  0.00000000  0.11554100  1
  Al  Al35  1  0.00000000  0.15778100  0.11554100  1
  Al  Al36  1  0.74895400  0.74895400  0.96877100  1
  Al  Al37  1  0.25104600  0.00000000  0.96877100  1
  Al  Al38  1  0.00000000  0.25104600  0.96877100  1
  Al  Al39  1  0.25104600  0.25104600  0.03122900  1
  Al  Al40  1  0.74895400  0.00000000  0.03122900  1
  Al  Al41  1  0.00000000  0.74895400  0.03122900  1
  Al  Al42  1  0.25104600  0.25104600  0.46877100  1
  Al  Al43  1  0.74895400  0.00000000  0.46877100  1
  Al  Al44  1  0.00000000  0.74895400  0.46877100  1
  Al  Al45  1  0.74895400  0.74895400  0.53122900  1
  Al  Al46  1  0.25104600  0.00000000  0.53122900  1
  Al  Al47  1  0.00000000  0.25104600  0.53122900  1
  Al  Al48  1  0.85224300  0.44817000  0.75000000  1
  Al  Al49  1  0.55183000  0.40407300  0.75000000  1
  Al  Al50  1  0.59592700  0.14775700  0.75000000  1
  Al  Al51  1  0.44817000  0.85224300  0.75000000  1
  Al  Al52  1  0.40407300  0.55183000  0.75000000  1
  Al  Al53  1  0.14775700  0.59592700  0.75000000  1
  Al  Al54  1  0.14775700  0.55183000  0.25000000  1
  Al  Al55  1  0.44817000  0.59592700  0.25000000  1
  Al  Al56  1  0.40407300  0.85224300  0.25000000  1
  Al  Al57  1  0.55183000  0.14775700  0.25000000  1
  Al  Al58  1  0.59592700  0.44817000  0.25000000  1
  Al  Al59  1  0.85224300  0.40407300  0.25000000  1
  Al  Al60  1  0.75316700  0.24683300  0.00000000  1
  Al  Al61  1  0.75316700  0.50633500  0.00000000  1
  Al  Al62  1  0.49366500  0.24683300  0.00000000  1
  Al  Al63  1  0.24683300  0.75316700  0.00000000  1
  Al  Al64  1  0.50633500  0.75316700  0.00000000  1
  Al  Al65  1  0.24683300  0.49366500  0.00000000  1
  Al  Al66  1  0.24683300  0.75316700  0.50000000  1
  Al  Al67  1  0.24683300  0.49366500  0.50000000  1
  Al  Al68  1  0.50633500  0.75316700  0.50000000  1
  Al  Al69  1  0.75316700  0.24683300  0.50000000  1
  Al  Al70  1  0.49366500  0.24683300  0.50000000  1
  Al  Al71  1  0.75316700  0.50633500  0.50000000  1
  Al  Al72  1  0.66666700  0.33333300  0.87288500  1
  Al  Al73  1  0.33333300  0.66666700  0.87288500  1
  Al  Al74  1  0.33333300  0.66666700  0.12711500  1
  Al  Al75  1  0.66666700  0.33333300  0.12711500  1
  Al  Al76  1  0.33333300  0.66666700  0.37288500  1
  Al  Al77  1  0.66666700  0.33333300  0.37288500  1
  Al  Al78  1  0.66666700  0.33333300  0.62711500  1
  Al  Al79  1  0.33333300  0.66666700  0.62711500  1
  Al  Al80  1  0.85340200  0.85340200  0.75000000  1
  Al  Al81  1  0.14659800  0.00000000  0.75000000  1
  Al  Al82  1  0.00000000  0.14659800  0.75000000  1
  Al  Al83  1  0.14659800  0.14659800  0.25000000  1
  Al  Al84  1  0.85340200  0.00000000  0.25000000  1
  Al  Al85  1  0.00000000  0.85340200  0.25000000  1
  W  W0  1  0.26951000  0.26951000  0.75000000  1
  W  W1  1  0.73049000  0.00000000  0.75000000  1
  W  W2  1  0.00000000  0.73049000  0.75000000  1
  W  W3  1  0.73049000  0.73049000  0.25000000  1
  W  W4  1  0.26951000  0.00000000  0.25000000  1
  W  W5  1  0.00000000  0.26951000  0.25000000  1
  W  W6  1  0.00000000  0.00000000  0.00000000  1
  W  W7  1  0.00000000  0.00000000  0.50000000  1
loop_
_geom_bond_atom_site_label_1
_geom_bond_atom_site_label_2
_geom_bond_distance
_geom_bond_site_symmetry_2
Nd0 Nd3 3.469161 1_556
Nd0 W0 3.542728 1_555
Nd1 Nd4 3.469161 1_556
Nd1 W1 3.542729 1_555
Nd2 Nd5 3.469161 1_556
Nd2 W2 3.542729 1_555
Nd3 W3 3.542728 1_555
Nd4 W4 3.542729 1_555
Nd5 W5 3.542729 1_555
Nd6 Nd9 3.469161 1_555
Nd6 W3 3.542728 1_555
Nd7 W4 3.542729 1_555
Nd8 W5 3.542729 1_555
Nd9 W0 3.542728 1_555
Nd10 Nd7 3.469161 1_555
Nd10 W1 3.542729 1_555
Nd11 Nd8 3.469161 1_555
Nd11 W2 3.542729 1_555
Al0 W1 2.724309 1_555
Al0 Al72 2.752992 1_555
Al0 Al31 2.761194 1_555
Al0 Al48 2.766539 1_555
Al0 Al50 2.838907 1_555
Al0 Al82 2.843901 1_655
Al0 Al38 2.916273 1_655
Al0 Al18 3.028354 1_555
Al0 Al5 3.048559 1_655
Al0 Nd2 3.104576 1_655
Al0 Al60 3.126216 1_556
Al0 Nd1 3.365135 1_555
Al1 W2 2.724309 1_655
Al1 Al72 2.753012 1_555
Al1 Al32 2.761188 1_655
Al1 Al49 2.766543 1_555
Al1 Al48 2.838916 1_555
Al1 Al80 2.843892 1_555
Al1 Al36 2.916267 1_555
Al1 Al19 3.028354 1_555
Al1 Al4 3.048540 1_555
Al1 Nd0 3.104575 1_555
Al1 Al61 3.126216 1_556
Al1 Nd2 3.365142 1_655
Al2 W0 2.724301 1_555
Al2 Al72 2.753008 1_555
Al2 Al30 2.761183 1_555
Al2 Al50 2.766549 1_555
Al2 Al49 2.838909 1_555
Al2 Al81 2.843893 1_555
Al2 Al37 2.916270 1_555
Al2 Al20 3.028354 1_555
Al2 Al3 3.048559 1_545
Al2 Nd1 3.104585 1_555
Al2 Al62 3.126216 1_556
Al2 Nd0 3.365132 1_555
Al3 W2 2.724309 1_555
Al3 Al73 2.752992 1_555
Al3 Al32 2.761194 1_555
Al3 Al51 2.766539 1_555
Al3 Al53 2.838907 1_555
Al3 Al81 2.843901 1_565
Al3 Al37 2.916273 1_565
Al3 Nd1 3.104576 1_565
Al3 Al63 3.126216 1_556
Al3 Nd2 3.365135 1_555
Al4 W1 2.724309 1_565
Al4 Al73 2.753012 1_555
Al4 Al52 2.766543 1_555
Al4 Al51 2.838916 1_555
Al4 Al80 2.843892 1_555
Al4 Nd0 3.104575 1_555
Al4 Al64 3.126216 1_556
Al4 Nd1 3.365142 1_565
Al5 W0 2.724301 1_555
Al5 Al73 2.753008 1_555
Al5 Al53 2.766549 1_555
Al5 Al52 2.838909 1_555
Al5 Al82 2.843893 1_555
Al5 Nd2 3.104585 1_555
Al5 Al65 3.126216 1_556
Al5 Nd0 3.365132 1_555
Al6 W4 2.724309 1_565
Al6 Al74 2.752992 1_555
Al6 Al85 2.843901 1_555
Al6 Nd5 3.104576 1_555
Al6 Al63 3.126216 1_555
Al6 Nd4 3.365135 1_565
Al7 W5 2.724309 1_555
Al7 Al74 2.753012 1_555
Al7 Al83 2.843892 1_555
Al7 Nd3 3.104575 1_555
Al7 Nd5 3.365142 1_555
Al8 W3 2.724301 1_555
Al8 Al84 2.843893 1_565
Al8 Al9 3.048559 1_565
Al8 Nd4 3.104585 1_565
Al8 Nd3 3.365132 1_555
Al9 W5 2.724309 1_655
Al9 Nd4 3.104576 1_555
Al9 Nd5 3.365135 1_655
Al10 W4 2.724309 1_555
Al10 Al75 2.753012 1_555
Al10 Al34 2.761188 1_555
Al10 Al58 2.766543 1_555
Al10 Al57 2.838916 1_555
Al10 Al83 2.843892 1_555
Al10 Al39 2.916267 1_555
Al10 Al16 3.028354 1_555
Al10 Al7 3.048540 1_555
Al10 Nd3 3.104575 1_555
Al10 Al62 3.126216 1_555
Al10 Nd4 3.365142 1_555
Al11 W3 2.724301 1_555
Al11 Al75 2.753008 1_555
Al11 Al33 2.761183 1_555
Al11 Al59 2.766549 1_555
Al11 Al58 2.838909 1_555
Al11 Al85 2.843893 1_655
Al11 Al41 2.916270 1_655
Al11 Al17 3.028354 1_555
Al11 Al6 3.048559 1_655
Al11 Nd5 3.104585 1_655
Al11 Al61 3.126216 1_555
Al11 Nd3 3.365132 1_555
Al12 W4 2.724309 1_565
Al12 Al76 2.752992 1_555
Al12 Al25 2.761194 1_565
Al12 Al54 2.766539 1_555
Al12 Al56 2.838907 1_555
Al12 Al85 2.843901 1_555
Al12 Al44 2.916273 1_555
Al12 Al6 3.028354 1_555
Al12 Al17 3.048559 1_455
Al12 Nd8 3.104576 1_555
Al12 Al66 3.126216 1_555
Al12 Nd7 3.365135 1_565
Al13 W5 2.724309 1_555
Al13 Al76 2.753012 1_555
Al13 Al26 2.761188 1_555
Al13 Al55 2.766543 1_555
Al13 Al54 2.838916 1_555
Al13 Al83 2.843892 1_555
Al13 Al42 2.916267 1_555
Al13 Al7 3.028354 1_555
Al13 Al16 3.048540 1_555
Al13 Nd6 3.104575 1_555
Al13 Al67 3.126216 1_555
Al13 Nd8 3.365142 1_555
Al14 W3 2.724301 1_555
Al14 Al76 2.753008 1_555
Al14 Al24 2.761183 1_555
Al14 Al56 2.766549 1_555
Al14 Al55 2.838909 1_555
Al14 Al84 2.843893 1_565
Al14 Al43 2.916270 1_565
Al14 Al8 3.028354 1_555
Al14 Al15 3.048559 1_565
Al14 Nd7 3.104585 1_565
Al14 Al68 3.126216 1_555
Al14 Nd6 3.365132 1_555
Al15 W5 2.724309 1_655
Al15 Al77 2.752992 1_555
Al15 Al26 2.761194 1_655
Al15 Al57 2.766539 1_555
Al15 Al59 2.838907 1_555
Al15 Al84 2.843901 1_555
Al15 Al43 2.916273 1_555
Al15 Al9 3.028354 1_555
Al15 Nd7 3.104576 1_555
Al15 Al69 3.126216 1_555
Al15 Nd8 3.365135 1_655
Al16 W4 2.724309 1_555
Al16 Al77 2.753012 1_555
Al16 Al25 2.761188 1_555
Al16 Al58 2.766543 1_555
Al16 Al57 2.838916 1_555
Al16 Al83 2.843892 1_555
Al16 Al42 2.916267 1_555
Al16 Nd6 3.104575 1_555
Al16 Al70 3.126216 1_555
Al16 Nd7 3.365142 1_555
Al17 W3 2.724301 1_555
Al17 Al77 2.753008 1_555
Al17 Al24 2.761183 1_555
Al17 Al59 2.766549 1_555
Al17 Al58 2.838909 1_555
Al17 Al85 2.843893 1_655
Al17 Al44 2.916270 1_655
Al17 Nd8 3.104585 1_655
Al17 Al71 3.126216 1_555
Al17 Nd6 3.365132 1_555
Al18 W1 2.724309 1_555
Al18 Al78 2.752992 1_555
Al18 Al28 2.761194 1_555
Al18 Al48 2.766539 1_555
Al18 Al50 2.838907 1_555
Al18 Al82 2.843901 1_655
Al18 Al47 2.916273 1_655
Al18 Al23 3.048559 1_655
Al18 Nd11 3.104576 1_655
Al18 Al69 3.126216 1_555
Al18 Nd10 3.365135 1_555
Al19 W2 2.724309 1_655
Al19 Al78 2.753012 1_555
Al19 Al29 2.761188 1_655
Al19 Al49 2.766543 1_555
Al19 Al48 2.838916 1_555
Al19 Al80 2.843892 1_555
Al19 Al45 2.916267 1_555
Al19 Al22 3.048540 1_555
Al19 Nd9 3.104575 1_555
Al19 Al71 3.126216 1_555
Al19 Nd11 3.365142 1_655
Al20 W0 2.724301 1_555
Al20 Al78 2.753008 1_555
Al20 Al27 2.761183 1_555
Al20 Al50 2.766549 1_555
Al20 Al49 2.838909 1_555
Al20 Al81 2.843893 1_555
Al20 Al46 2.916270 1_555
Al20 Al21 3.048559 1_545
Al20 Nd10 3.104585 1_555
Al20 Al70 3.126216 1_555
Al20 Nd9 3.365132 1_555
Al21 W2 2.724309 1_555
Al21 Al79 2.752992 1_555
Al21 Al29 2.761194 1_555
Al21 Al51 2.766539 1_555
Al21 Al53 2.838907 1_555
Al21 Al81 2.843901 1_565
Al21 Al46 2.916273 1_565
Al21 Al3 3.028354 1_555
Al21 Nd10 3.104576 1_565
Al21 Al66 3.126216 1_555
Al21 Nd11 3.365135 1_555
Al22 W1 2.724309 1_565
Al22 Al79 2.753012 1_555
Al22 Al28 2.761188 1_565
Al22 Al52 2.766543 1_555
Al22 Al51 2.838916 1_555
Al22 Al80 2.843892 1_555
Al22 Al45 2.916267 1_555
Al22 Al4 3.028354 1_555
Al22 Nd9 3.104575 1_555
Al22 Al68 3.126216 1_555
Al22 Nd10 3.365142 1_565
Al23 W0 2.724301 1_555
Al23 Al79 2.753008 1_555
Al23 Al27 2.761183 1_555
Al23 Al53 2.766549 1_555
Al23 Al52 2.838909 1_555
Al23 Al82 2.843893 1_555
Al23 Al47 2.916270 1_555
Al23 Al5 3.028354 1_555
Al23 Nd11 3.104585 1_555
Al23 Al67 3.126216 1_555
Al23 Nd9 3.365132 1_555
Al24 W3 2.699707 1_555
Al24 W7 2.705850 1_665
Al24 Al45 2.814252 1_555
Al24 Al44 2.869837 1_655
Al24 Al43 2.869837 1_565
Al24 Al85 2.936210 1_655
Al24 Al84 2.936210 1_565
Al24 Al25 3.039947 1_665
Al24 Al26 3.039947 1_665
Al24 Nd6 3.489469 1_555
Al25 W4 2.699707 1_555
Al25 W7 2.705850 1_555
Al25 Al46 2.814252 1_555
Al25 Al44 2.869837 1_545
Al25 Al42 2.869837 1_555
Al25 Al85 2.936210 1_545
Al25 Al83 2.936210 1_555
Al25 Al26 3.039947 1_555
Al25 Nd7 3.489469 1_555
Al26 W5 2.699707 1_555
Al26 W7 2.705850 1_555
Al26 Al47 2.814252 1_555
Al26 Al43 2.869837 1_455
Al26 Al42 2.869837 1_555
Al26 Al84 2.936210 1_455
Al26 Al83 2.936210 1_555
Al26 Nd8 3.489469 1_555
Al27 W0 2.699707 1_555
Al27 W7 2.705850 1_555
Al27 Al42 2.814252 1_555
Al27 Al47 2.869837 1_555
Al27 Al46 2.869837 1_555
Al27 Al81 2.936210 1_555
Al27 Al82 2.936210 1_555
Al27 Al29 3.039947 1_545
Al27 Al28 3.039947 1_455
Al27 Nd9 3.489469 1_555
Al28 W1 2.699707 1_555
Al28 W7 2.705850 1_655
Al28 Al43 2.814252 1_555
Al28 Al47 2.869837 1_655
Al28 Al45 2.869837 1_545
Al28 Al82 2.936210 1_655
Al28 Al80 2.936210 1_545
Al28 Al29 3.039947 1_645
Al28 Nd10 3.489469 1_555
Al29 W2 2.699707 1_555
Al29 W7 2.705850 1_565
Al29 Al44 2.814252 1_555
Al29 Al46 2.869837 1_565
Al29 Al45 2.869837 1_455
Al29 Al81 2.936210 1_565
Al29 Al80 2.936210 1_455
Al29 Nd11 3.489469 1_555
Al30 W0 2.699707 1_555
Al30 W6 2.705850 1_556
Al30 Al5 2.761183 1_555
Al30 Al39 2.814252 1_556
Al30 Al37 2.869837 1_555
Al30 Al38 2.869837 1_555
Al30 Al81 2.936210 1_555
Al30 Al82 2.936210 1_555
Al30 Al31 3.039947 1_455
Al30 Al32 3.039947 1_545
Al30 Nd0 3.489469 1_555
Al31 W1 2.699707 1_555
Al31 W6 2.705850 1_656
Al31 Al4 2.761188 1_545
Al31 Al40 2.814252 1_556
Al31 Al38 2.869837 1_655
Al31 Al36 2.869837 1_545
Al31 Al82 2.936210 1_655
Al31 Al80 2.936210 1_545
Al31 Al32 3.039947 1_645
Al31 Nd1 3.489469 1_555
Al32 W2 2.699707 1_555
Al32 W6 2.705850 1_566
Al32 Al41 2.814252 1_556
Al32 Al37 2.869837 1_565
Al32 Al36 2.869837 1_455
Al32 Al81 2.936210 1_565
Al32 Al80 2.936210 1_455
Al32 Nd2 3.489469 1_555
Al33 W3 2.699707 1_555
Al33 W6 2.705850 1_665
Al33 Al8 2.761183 1_555
Al33 Al36 2.814252 1_554
Al33 Al40 2.869837 1_565
Al33 Al41 2.869837 1_655
Al33 Al84 2.936210 1_565
Al33 Al85 2.936210 1_655
Al33 Al35 3.039947 1_665
Al33 Al34 3.039947 1_665
Al33 Nd3 3.489469 1_555
Al34 W4 2.699707 1_555
Al34 W6 2.705850 1_555
Al34 Al6 2.761194 1_545
Al34 Al37 2.814252 1_554
Al34 Al41 2.869837 1_545
Al34 Al39 2.869837 1_555
Al34 Al85 2.936210 1_545
Al34 Al83 2.936210 1_555
Al34 Al35 3.039947 1_555
Al34 Nd4 3.489469 1_555
Al35 W5 2.699707 1_555
Al35 W6 2.705850 1_555
Al35 Al7 2.761188 1_555
Al35 Al9 2.761194 1_455
Al35 Al38 2.814252 1_554
Al35 Al40 2.869837 1_455
Al35 Al39 2.869837 1_555
Al35 Al84 2.936210 1_455
Al35 Al83 2.936210 1_555
Al35 Nd5 3.489469 1_555
Al36 Al61 2.778884 1_556
Al36 Al64 2.778884 1_556
Al36 W6 2.847504 1_666
Al36 Al4 2.916267 1_555
Al36 Al40 3.006292 1_566
Al36 Al41 3.006292 1_656
Al36 Nd0 3.309405 1_555
Al36 Nd3 3.320102 1_556
Al37 Al62 2.778889 1_556
Al37 Al63 2.778895 1_546
Al37 W6 2.847504 1_556
Al37 Al41 3.006292 1_546
Al37 Al39 3.006292 1_556
Al37 Nd1 3.309405 1_555
Al37 Nd4 3.320102 1_556
Al38 Al65 2.778889 1_556
Al38 Al60 2.778895 1_456
Al38 W6 2.847504 1_556
Al38 Al5 2.916270 1_555
Al38 Al40 3.006292 1_456
Al38 Al39 3.006292 1_556
Al38 Nd2 3.309405 1_555
Al38 Nd5 3.320102 1_556
Al39 Al62 2.778884 1_555
Al39 Al65 2.778884 1_555
Al39 W6 2.847504 1_555
Al39 Al7 2.916267 1_555
Al39 Nd3 3.309405 1_555
Al39 Nd0 3.320102 1_554
Al40 Al64 2.778889 1_545
Al40 Al60 2.778895 1_555
Al40 W6 2.847504 1_655
Al40 Al8 2.916270 1_545
Al40 Al9 2.916273 1_555
Al40 Nd4 3.309405 1_555
Al40 Nd1 3.320102 1_554
Al41 Al61 2.778889 1_455
Al41 Al63 2.778895 1_555
Al41 W6 2.847504 1_565
Al41 Al6 2.916273 1_555
Al41 Nd5 3.309405 1_555
Al41 Nd2 3.320102 1_554
Al42 Al67 2.778884 1_555
Al42 Al70 2.778884 1_555
Al42 W7 2.847504 1_555
Al42 Al46 3.006292 1_555
Al42 Al47 3.006292 1_555
Al42 Nd6 3.309405 1_555
Al42 Nd9 3.320102 1_555
Al43 Al68 2.778889 1_545
Al43 Al69 2.778895 1_555
Al43 W7 2.847504 1_655
Al43 Al47 3.006292 1_655
Al43 Al45 3.006292 1_545
Al43 Nd7 3.309405 1_555
Al43 Nd10 3.320102 1_555
Al44 Al71 2.778889 1_455
Al44 Al66 2.778895 1_555
Al44 W7 2.847504 1_565
Al44 Al46 3.006292 1_565
Al44 Al45 3.006292 1_455
Al44 Nd8 3.309405 1_555
Al44 Nd11 3.320102 1_555
Al45 Al71 2.778884 1_555
Al45 Al68 2.778884 1_555
Al45 W7 2.847504 1_665
Al45 Nd9 3.309405 1_555
Al45 Nd6 3.320102 1_555
Al46 Al70 2.778889 1_555
Al46 Al66 2.778895 1_545
Al46 W7 2.847504 1_555
Al46 Nd10 3.309405 1_555
Al46 Nd7 3.320102 1_555
Al47 Al67 2.778889 1_555
Al47 Al69 2.778895 1_455
Al47 W7 2.847504 1_555
Al47 Nd11 3.309405 1_555
Al47 Nd8 3.320102 1_555
Al48 W2 2.720702 1_655
Al48 Al72 2.837894 1_555
Al48 Al78 2.837894 1_555
Al48 Al53 2.846816 1_655
Al48 Nd2 3.101626 1_655
Al48 Nd11 3.101626 1_655
Al49 W0 2.720702 1_555
Al49 Al72 2.837900 1_555
Al49 Al78 2.837900 1_555
Al49 Al52 2.846816 1_555
Al49 Nd0 3.101626 1_555
Al49 Nd9 3.101626 1_555
Al50 W1 2.720702 1_555
Al50 Al72 2.837893 1_555
Al50 Al78 2.837893 1_555
Al50 Al51 2.846816 1_545
Al50 Nd1 3.101626 1_555
Al50 Nd10 3.101626 1_555
Al51 W1 2.720702 1_565
Al51 Al73 2.837894 1_555
Al51 Al79 2.837894 1_555
Al51 Nd1 3.101626 1_565
Al51 Nd10 3.101626 1_565
Al52 W0 2.720702 1_555
Al52 Al73 2.837900 1_555
Al52 Al79 2.837900 1_555
Al52 Nd0 3.101626 1_555
Al52 Nd9 3.101626 1_555
Al53 W2 2.720702 1_555
Al53 Al73 2.837893 1_555
Al53 Al79 2.837893 1_555
Al53 Nd2 3.101626 1_555
Al53 Nd11 3.101626 1_555
Al54 W5 2.720702 1_555
Al54 Al6 2.766539 1_555
Al54 Al76 2.837894 1_555
Al54 Al74 2.837894 1_555
Al54 Al7 2.838916 1_555
Al54 Al59 2.846816 1_455
Al54 Nd8 3.101626 1_555
Al54 Nd5 3.101626 1_555
Al55 W3 2.720702 1_555
Al55 Al7 2.766543 1_555
Al55 Al76 2.837900 1_555
Al55 Al74 2.837900 1_555
Al55 Al8 2.838909 1_555
Al55 Al58 2.846816 1_555
Al55 Nd6 3.101626 1_555
Al55 Nd3 3.101626 1_555
Al56 W4 2.720702 1_565
Al56 Al8 2.766549 1_555
Al56 Al76 2.837893 1_555
Al56 Al74 2.837893 1_555
Al56 Al6 2.838907 1_555
Al56 Al57 2.846816 1_565
Al56 Nd7 3.101626 1_565
Al56 Nd4 3.101626 1_565
Al57 W4 2.720702 1_555
Al57 Al9 2.766539 1_555
Al57 Al77 2.837894 1_555
Al57 Al75 2.837894 1_555
Al57 Nd7 3.101626 1_555
Al57 Nd4 3.101626 1_555
Al58 W3 2.720702 1_555
Al58 Al77 2.837900 1_555
Al58 Al75 2.837900 1_555
Al58 Nd6 3.101626 1_555
Al58 Nd3 3.101626 1_555
Al59 W5 2.720702 1_655
Al59 Al77 2.837893 1_555
Al59 Al75 2.837893 1_555
Al59 Al9 2.838907 1_555
Al59 Nd8 3.101626 1_655
Al59 Nd5 3.101626 1_655
Al60 Al75 2.812643 1_555
Al60 Al72 2.812643 1_554
Al60 Al61 2.886632 1_555
Al60 Al62 2.886632 1_555
Al60 Al9 3.126216 1_555
Al60 Nd5 3.126846 1_655
Al60 Nd1 3.126846 1_554
Al60 Nd4 3.422719 1_555
Al60 Nd2 3.422719 1_654
Al61 Al75 2.812655 1_555
Al61 Al72 2.812655 1_554
Al61 Al62 2.886632 1_555
Al61 Nd3 3.126841 1_555
Al61 Nd2 3.126850 1_654
Al61 Nd0 3.422715 1_554
Al61 Nd5 3.422725 1_655
Al62 Al75 2.812655 1_555
Al62 Al72 2.812655 1_554
Al62 Nd0 3.126841 1_554
Al62 Nd4 3.126850 1_555
Al62 Nd3 3.422715 1_555
Al62 Nd1 3.422725 1_554
Al63 Al74 2.812643 1_555
Al63 Al73 2.812643 1_554
Al63 Al64 2.886632 1_555
Al63 Al65 2.886632 1_555
Al63 Nd4 3.126846 1_565
Al63 Nd2 3.126846 1_554
Al63 Nd5 3.422719 1_555
Al63 Nd1 3.422719 1_564
Al64 Al74 2.812655 1_555
Al64 Al73 2.812655 1_554
Al64 Al65 2.886632 1_555
Al64 Al8 3.126216 1_555
Al64 Nd3 3.126841 1_555
Al64 Nd1 3.126850 1_564
Al64 Nd0 3.422715 1_554
Al64 Nd4 3.422725 1_565
Al65 Al74 2.812655 1_555
Al65 Al73 2.812655 1_554
Al65 Al7 3.126216 1_555
Al65 Nd0 3.126841 1_554
Al65 Nd5 3.126850 1_555
Al65 Nd3 3.422715 1_555
Al65 Nd2 3.422725 1_554
Al66 Al79 2.812643 1_555
Al66 Al76 2.812643 1_555
Al66 Al67 2.886632 1_555
Al66 Al68 2.886632 1_555
Al66 Nd11 3.126846 1_555
Al66 Nd7 3.126846 1_565
Al66 Nd10 3.422719 1_565
Al66 Nd8 3.422719 1_555
Al67 Al79 2.812655 1_555
Al67 Al76 2.812655 1_555
Al67 Al68 2.886632 1_555
Al67 Nd9 3.126841 1_555
Al67 Nd8 3.126850 1_555
Al67 Nd6 3.422715 1_555
Al67 Nd11 3.422725 1_555
Al68 Al79 2.812655 1_555
Al68 Al76 2.812655 1_555
Al68 Nd6 3.126841 1_555
Al68 Nd10 3.126850 1_565
Al68 Nd9 3.422715 1_555
Al68 Nd7 3.422725 1_565
Al69 Al78 2.812643 1_555
Al69 Al77 2.812643 1_555
Al69 Al70 2.886632 1_555
Al69 Al71 2.886632 1_555
Al69 Nd10 3.126846 1_555
Al69 Nd8 3.126846 1_655
Al69 Nd11 3.422719 1_655
Al69 Nd7 3.422719 1_555
Al70 Al78 2.812655 1_555
Al70 Al77 2.812655 1_555
Al70 Al71 2.886632 1_555
Al70 Nd9 3.126841 1_555
Al70 Nd7 3.126850 1_555
Al70 Nd6 3.422715 1_555
Al70 Nd10 3.422725 1_555
Al71 Al78 2.812655 1_555
Al71 Al77 2.812655 1_555
Al71 Nd6 3.126841 1_555
Al71 Nd11 3.126850 1_655
Al71 Nd9 3.422715 1_555
Al71 Nd8 3.422725 1_655
Al72 Nd1 3.277515 1_555
Al72 Nd2 3.277516 1_655
Al72 Nd0 3.277526 1_555
Al73 Nd2 3.277515 1_555
Al73 Nd1 3.277516 1_565
Al73 Nd0 3.277526 1_555
Al74 Al8 2.753008 1_555
Al74 Nd4 3.277515 1_565
Al74 Nd5 3.277516 1_555
Al74 Nd3 3.277526 1_555
Al75 Al9 2.752992 1_555
Al75 Nd5 3.277515 1_655
Al75 Nd4 3.277516 1_555
Al75 Nd3 3.277526 1_555
Al76 Nd7 3.277515 1_565
Al76 Nd8 3.277516 1_555
Al76 Nd6 3.277526 1_555
Al77 Nd8 3.277515 1_655
Al77 Nd7 3.277516 1_555
Al77 Nd6 3.277526 1_555
Al78 Nd10 3.277515 1_555
Al78 Nd11 3.277516 1_655
Al78 Nd9 3.277526 1_555
Al79 Nd11 3.277515 1_555
Al79 Nd10 3.277516 1_565
Al79 Nd9 3.277526 1_555
Al80 W1 2.599648 1_565
Al80 W2 2.599648 1_655
Al80 Al81 2.824486 1_665
Al80 Al82 2.824486 1_665
Al81 W2 2.599648 1_545
Al81 W0 2.599648 1_555
Al81 Al82 2.824486 1_555
Al82 W1 2.599648 1_455
Al82 W0 2.599648 1_555
Al83 W5 2.599648 1_555
Al83 W4 2.599648 1_555
Al83 Al85 2.824486 1_545
Al83 Al84 2.824486 1_455
Al84 W5 2.599648 1_655
Al84 W3 2.599648 1_545
Al84 Al85 2.824486 1_645
Al84 Al9 2.843901 1_555
Al85 W4 2.599648 1_565
Al85 W3 2.599648 1_455
