# generated using pymatgen
data_PdC8(NCl3)2
_symmetry_space_group_name_H-M   'P 1'
_cell_length_a   16.54406530
_cell_length_b   16.54406530
_cell_length_c   16.54406530
_cell_angle_alpha   60.00000000
_cell_angle_beta   60.00000000
_cell_angle_gamma   60.00000000
_symmetry_Int_Tables_number   1
_chemical_formula_structural   PdC8(NCl3)2
_chemical_formula_sum   'Pd8 C64 N16 Cl48'
_cell_volume   3201.92908209
_cell_formula_units_Z   8
loop_
 _symmetry_equiv_pos_site_id
 _symmetry_equiv_pos_as_xyz
  1  'x, y, z'
loop_
 _atom_site_type_symbol
 _atom_site_label
 _atom_site_symmetry_multiplicity
 _atom_site_fract_x
 _atom_site_fract_y
 _atom_site_fract_z
 _atom_site_occupancy
  Pd  Pd0  1  0.50000000  0.00000000  0.50000000  1
  Pd  Pd1  1  0.50000000  0.50000000  -0.00000000  1
  Pd  Pd2  1  0.00000000  0.50000000  0.50000000  1
  Pd  Pd3  1  0.50000000  0.50000000  0.50000000  1
  Pd  Pd4  1  0.00000000  0.50000000  -0.00000000  1
  Pd  Pd5  1  0.50000000  0.00000000  -0.00000000  1
  Pd  Pd6  1  0.00000000  0.00000000  0.50000000  1
  Pd  Pd7  1  0.00000000  0.00000000  -0.00000000  1
  C  C0  1  0.71071994  0.04035260  0.09671238  1
  C  C1  1  0.65221508  0.09671238  0.04035260  1
  C  C2  1  0.04035260  0.71071994  0.65221508  1
  C  C3  1  0.09671238  0.65221508  0.71071994  1
  C  C4  1  0.04035260  0.09671238  0.71071994  1
  C  C5  1  0.09671238  0.04035260  0.65221508  1
  C  C6  1  0.71071994  0.65221508  0.04035260  1
  C  C7  1  0.65221508  0.71071994  0.09671238  1
  C  C8  1  0.09671238  0.71071994  0.04035260  1
  C  C9  1  0.04035260  0.65221508  0.09671238  1
  C  C10  1  0.65221508  0.04035260  0.71071994  1
  C  C11  1  0.71071994  0.09671238  0.65221508  1
  C  C12  1  0.28928006  0.95964740  0.90328762  1
  C  C13  1  0.34778492  0.90328762  0.95964740  1
  C  C14  1  0.95964740  0.28928006  0.34778492  1
  C  C15  1  0.90328762  0.34778492  0.28928006  1
  C  C16  1  0.95964740  0.90328762  0.28928006  1
  C  C17  1  0.90328762  0.95964740  0.34778492  1
  C  C18  1  0.28928006  0.34778492  0.95964740  1
  C  C19  1  0.34778492  0.28928006  0.90328762  1
  C  C20  1  0.90328762  0.28928006  0.95964740  1
  C  C21  1  0.95964740  0.34778492  0.90328762  1
  C  C22  1  0.34778492  0.95964740  0.28928006  1
  C  C23  1  0.28928006  0.90328762  0.34778492  1
  C  C24  1  0.59671238  0.54035260  0.21071994  1
  C  C25  1  0.54035260  0.59671238  0.15221508  1
  C  C26  1  0.15221508  0.21071994  0.54035260  1
  C  C27  1  0.21071994  0.15221508  0.59671238  1
  C  C28  1  0.21071994  0.59671238  0.54035260  1
  C  C29  1  0.15221508  0.54035260  0.59671238  1
  C  C30  1  0.54035260  0.15221508  0.21071994  1
  C  C31  1  0.59671238  0.21071994  0.15221508  1
  C  C32  1  0.54035260  0.21071994  0.59671238  1
  C  C33  1  0.59671238  0.15221508  0.54035260  1
  C  C34  1  0.21071994  0.54035260  0.15221508  1
  C  C35  1  0.15221508  0.59671238  0.21071994  1
  C  C36  1  0.40328762  0.45964740  0.78928006  1
  C  C37  1  0.45964740  0.40328762  0.84778492  1
  C  C38  1  0.84778492  0.78928006  0.45964740  1
  C  C39  1  0.78928006  0.84778492  0.40328762  1
  C  C40  1  0.78928006  0.40328762  0.45964740  1
  C  C41  1  0.84778492  0.45964740  0.40328762  1
  C  C42  1  0.45964740  0.84778492  0.78928006  1
  C  C43  1  0.40328762  0.78928006  0.84778492  1
  C  C44  1  0.45964740  0.78928006  0.40328762  1
  C  C45  1  0.40328762  0.84778492  0.45964740  1
  C  C46  1  0.78928006  0.45964740  0.84778492  1
  C  C47  1  0.84778492  0.40328762  0.78928006  1
  C  C48  1  0.33998352  0.48004944  0.33998352  1
  C  C49  1  0.33998352  0.33998352  0.48004944  1
  C  C50  1  0.48004944  0.33998352  0.33998352  1
  C  C51  1  0.33998352  0.33998352  0.33998352  1
  C  C52  1  0.66001648  0.51995056  0.66001648  1
  C  C53  1  0.66001648  0.66001648  0.51995056  1
  C  C54  1  0.51995056  0.66001648  0.66001648  1
  C  C55  1  0.66001648  0.66001648  0.66001648  1
  C  C56  1  0.83998352  0.98004944  0.83998352  1
  C  C57  1  0.98004944  0.83998352  0.83998352  1
  C  C58  1  0.83998352  0.83998352  0.98004944  1
  C  C59  1  0.83998352  0.83998352  0.83998352  1
  C  C60  1  0.16001648  0.01995056  0.16001648  1
  C  C61  1  0.01995056  0.16001648  0.16001648  1
  C  C62  1  0.16001648  0.16001648  0.01995056  1
  C  C63  1  0.16001648  0.16001648  0.16001648  1
  N  N0  1  0.37500000  0.37500000  0.37500000  1
  N  N1  1  0.62500000  0.62500000  0.62500000  1
  N  N2  1  0.87500000  0.87500000  0.87500000  1
  N  N3  1  0.12500000  0.12500000  0.12500000  1
  N  N4  1  0.62500000  0.12500000  0.12500000  1
  N  N5  1  0.12500000  0.62500000  0.62500000  1
  N  N6  1  0.12500000  0.12500000  0.62500000  1
  N  N7  1  0.62500000  0.62500000  0.12500000  1
  N  N8  1  0.12500000  0.62500000  0.12500000  1
  N  N9  1  0.62500000  0.12500000  0.62500000  1
  N  N10  1  0.37500000  0.87500000  0.87500000  1
  N  N11  1  0.87500000  0.37500000  0.37500000  1
  N  N12  1  0.87500000  0.87500000  0.37500000  1
  N  N13  1  0.37500000  0.37500000  0.87500000  1
  N  N14  1  0.87500000  0.37500000  0.87500000  1
  N  N15  1  0.37500000  0.87500000  0.37500000  1
  Cl  Cl0  1  0.32347227  0.09691733  0.60653467  1
  Cl  Cl1  1  0.47307572  0.60653467  0.09691733  1
  Cl  Cl2  1  0.09691733  0.32347227  0.47307572  1
  Cl  Cl3  1  0.60653467  0.47307572  0.32347227  1
  Cl  Cl4  1  0.09691733  0.60653467  0.32347227  1
  Cl  Cl5  1  0.60653467  0.09691733  0.47307572  1
  Cl  Cl6  1  0.32347227  0.47307572  0.09691733  1
  Cl  Cl7  1  0.47307572  0.32347227  0.60653467  1
  Cl  Cl8  1  0.60653467  0.32347227  0.09691733  1
  Cl  Cl9  1  0.09691733  0.47307572  0.60653467  1
  Cl  Cl10  1  0.47307572  0.09691733  0.32347227  1
  Cl  Cl11  1  0.32347227  0.60653467  0.47307572  1
  Cl  Cl12  1  0.67652773  0.90308267  0.39346533  1
  Cl  Cl13  1  0.52692428  0.39346533  0.90308267  1
  Cl  Cl14  1  0.90308267  0.67652773  0.52692428  1
  Cl  Cl15  1  0.39346533  0.52692428  0.67652773  1
  Cl  Cl16  1  0.90308267  0.39346533  0.67652773  1
  Cl  Cl17  1  0.39346533  0.90308267  0.52692428  1
  Cl  Cl18  1  0.67652773  0.52692428  0.90308267  1
  Cl  Cl19  1  0.52692428  0.67652773  0.39346533  1
  Cl  Cl20  1  0.39346533  0.67652773  0.90308267  1
  Cl  Cl21  1  0.90308267  0.52692428  0.39346533  1
  Cl  Cl22  1  0.52692428  0.90308267  0.67652773  1
  Cl  Cl23  1  0.67652773  0.39346533  0.52692428  1
  Cl  Cl24  1  0.10653467  0.59691733  0.82347227  1
  Cl  Cl25  1  0.59691733  0.10653467  0.97307572  1
  Cl  Cl26  1  0.97307572  0.82347227  0.59691733  1
  Cl  Cl27  1  0.82347227  0.97307572  0.10653467  1
  Cl  Cl28  1  0.82347227  0.10653467  0.59691733  1
  Cl  Cl29  1  0.97307572  0.59691733  0.10653467  1
  Cl  Cl30  1  0.59691733  0.97307572  0.82347227  1
  Cl  Cl31  1  0.10653467  0.82347227  0.97307572  1
  Cl  Cl32  1  0.59691733  0.82347227  0.10653467  1
  Cl  Cl33  1  0.10653467  0.97307572  0.59691733  1
  Cl  Cl34  1  0.82347227  0.59691733  0.97307572  1
  Cl  Cl35  1  0.97307572  0.10653467  0.82347227  1
  Cl  Cl36  1  0.89346533  0.40308267  0.17652773  1
  Cl  Cl37  1  0.40308267  0.89346533  0.02692428  1
  Cl  Cl38  1  0.02692428  0.17652773  0.40308267  1
  Cl  Cl39  1  0.17652773  0.02692428  0.89346533  1
  Cl  Cl40  1  0.17652773  0.89346533  0.40308267  1
  Cl  Cl41  1  0.02692428  0.40308267  0.89346533  1
  Cl  Cl42  1  0.40308267  0.02692428  0.17652773  1
  Cl  Cl43  1  0.89346533  0.17652773  0.02692428  1
  Cl  Cl44  1  0.40308267  0.17652773  0.89346533  1
  Cl  Cl45  1  0.89346533  0.02692428  0.40308267  1
  Cl  Cl46  1  0.17652773  0.40308267  0.02692428  1
  Cl  Cl47  1  0.02692428  0.89346533  0.17652773  1
loop_
_geom_bond_atom_site_label_1
_geom_bond_atom_site_label_2
_geom_bond_distance
_geom_bond_site_symmetry_2
C0 C1 1.343969 1_555
C0 N4 1.482238 1_555
C0 Cl27 1.670606 1_545
C1 N4 1.482238 1_555
C1 Cl25 1.670606 1_554
C2 C3 1.343969 1_555
C2 N5 1.482238 1_555
C2 Cl26 1.670606 1_455
C3 N5 1.482238 1_555
C3 Cl24 1.670606 1_555
C4 C5 1.343969 1_555
C4 N6 1.482238 1_555
C4 Cl35 1.670606 1_455
C5 N6 1.482238 1_555
C5 Cl33 1.670606 1_545
C6 C7 1.343969 1_555
C6 N7 1.482238 1_555
C6 Cl34 1.670606 1_554
C7 N7 1.482238 1_555
C7 Cl32 1.670606 1_555
C8 C9 1.343969 1_555
C8 N8 1.482238 1_555
C8 Cl31 1.670606 1_554
C9 N8 1.482238 1_555
C9 Cl29 1.670606 1_455
C10 C11 1.343969 1_555
C10 N9 1.482238 1_555
C10 Cl30 1.670606 1_545
C11 N9 1.482238 1_555
C11 Cl28 1.670606 1_555
C12 C13 1.343969 1_555
C12 N10 1.482238 1_555
C12 Cl39 1.670606 1_565
C13 N10 1.482238 1_555
C13 Cl37 1.670606 1_556
C14 C15 1.343969 1_555
C14 N11 1.482238 1_555
C14 Cl38 1.670606 1_655
C15 N11 1.482238 1_555
C15 Cl36 1.670606 1_555
C16 C17 1.343969 1_555
C16 N12 1.482238 1_555
C16 Cl47 1.670606 1_655
C17 N12 1.482238 1_555
C17 Cl45 1.670606 1_565
C18 C19 1.343969 1_555
C18 N13 1.482238 1_555
C18 Cl46 1.670606 1_556
C19 N13 1.482238 1_555
C19 Cl44 1.670606 1_555
C20 C21 1.343969 1_555
C20 N14 1.482238 1_555
C20 Cl43 1.670606 1_556
C21 N14 1.482238 1_555
C21 Cl41 1.670606 1_655
C22 C23 1.343969 1_555
C22 N15 1.482238 1_555
C22 Cl42 1.670606 1_565
C23 N15 1.482238 1_555
C23 Cl40 1.670606 1_555
C24 C25 1.343969 1_555
C24 N7 1.482238 1_555
C24 Cl3 1.670606 1_555
C25 N7 1.482238 1_555
C25 Cl1 1.670606 1_555
C26 C27 1.343969 1_555
C26 N6 1.482238 1_555
C26 Cl2 1.670606 1_555
C27 N6 1.482238 1_555
C27 Cl0 1.670606 1_555
C28 C29 1.343969 1_555
C28 N5 1.482238 1_555
C28 Cl11 1.670606 1_555
C29 N5 1.482238 1_555
C29 Cl9 1.670606 1_555
C30 C31 1.343969 1_555
C30 N4 1.482238 1_555
C30 Cl10 1.670606 1_555
C31 N4 1.482238 1_555
C31 Cl8 1.670606 1_555
C32 C33 1.343969 1_555
C32 N9 1.482238 1_555
C32 Cl7 1.670606 1_555
C33 N9 1.482238 1_555
C33 Cl5 1.670606 1_555
C34 C35 1.343969 1_555
C34 N8 1.482238 1_555
C34 Cl6 1.670606 1_555
C35 N8 1.482238 1_555
C35 Cl4 1.670606 1_555
C36 C37 1.343969 1_555
C36 N13 1.482238 1_555
C36 Cl15 1.670606 1_555
C37 N13 1.482238 1_555
C37 Cl13 1.670606 1_555
C38 C39 1.343969 1_555
C38 N12 1.482238 1_555
C38 Cl14 1.670606 1_555
C39 N12 1.482238 1_555
C39 Cl12 1.670606 1_555
C40 C41 1.343969 1_555
C40 N11 1.482238 1_555
C40 Cl23 1.670606 1_555
C41 N11 1.482238 1_555
C41 Cl21 1.670606 1_555
C42 C43 1.343969 1_555
C42 N10 1.482238 1_555
C42 Cl22 1.670606 1_555
C43 N10 1.482238 1_555
C43 Cl20 1.670606 1_555
C44 C45 1.343969 1_555
C44 N15 1.482238 1_555
C44 Cl19 1.670606 1_555
C45 N15 1.482238 1_555
C45 Cl17 1.670606 1_555
C46 C47 1.343969 1_555
C46 N14 1.482238 1_555
C46 Cl18 1.670606 1_555
C47 N14 1.482238 1_555
C47 Cl16 1.670606 1_555
C48 N0 1.419026 1_555
C49 N0 1.419026 1_555
C50 N0 1.419026 1_555
C51 N0 1.419026 1_555
C52 N1 1.419026 1_555
C53 N1 1.419026 1_555
C54 N1 1.419026 1_555
C55 N1 1.419026 1_555
C56 N2 1.419026 1_555
C57 N2 1.419026 1_555
C58 N2 1.419026 1_555
C59 N2 1.419026 1_555
C60 N3 1.419026 1_555
C61 N3 1.419026 1_555
C62 N3 1.419026 1_555
C63 N3 1.419026 1_555
Cl0 Pd0 2.683750 1_555
Cl1 Pd1 2.683750 1_555
Cl2 Pd2 2.683750 1_555
Cl3 Pd3 2.683750 1_555
Cl4 Pd2 2.683750 1_555
Cl5 Pd0 2.683750 1_555
Cl6 Pd1 2.683750 1_555
Cl7 Pd3 2.683750 1_555
Cl8 Pd1 2.683750 1_555
Cl9 Pd2 2.683750 1_555
Cl10 Pd0 2.683750 1_555
Cl11 Pd3 2.683750 1_555
Cl12 Pd0 2.683750 1_565
Cl13 Pd1 2.683750 1_556
Cl14 Pd2 2.683750 1_655
Cl15 Pd3 2.683750 1_555
Cl16 Pd2 2.683750 1_655
Cl17 Pd0 2.683750 1_565
Cl18 Pd1 2.683750 1_556
Cl19 Pd3 2.683750 1_555
Cl20 Pd1 2.683750 1_556
Cl21 Pd2 2.683750 1_655
Cl22 Pd0 2.683750 1_565
Cl23 Pd3 2.683750 1_555
Cl24 Pd4 2.683750 1_556
Cl25 Pd5 2.683750 1_556
Cl26 Pd6 2.683750 1_665
Cl27 Pd7 2.683750 1_665
Cl28 Pd6 2.683750 1_655
Cl29 Pd4 2.683750 1_655
Cl30 Pd5 2.683750 1_566
Cl31 Pd7 2.683750 1_566
Cl32 Pd5 2.683750 1_565
Cl33 Pd6 2.683750 1_565
Cl34 Pd4 2.683750 1_656
Cl35 Pd7 2.683750 1_656
Cl36 Pd4 2.683750 1_655
Cl37 Pd5 2.683750 1_565
Cl38 Pd6 2.683750 1_555
Cl39 Pd7 2.683750 1_556
Cl40 Pd6 2.683750 1_565
Cl41 Pd4 2.683750 1_556
Cl42 Pd5 2.683750 1_555
Cl43 Pd7 2.683750 1_655
Cl44 Pd5 2.683750 1_556
Cl45 Pd6 2.683750 1_655
Cl46 Pd4 2.683750 1_555
Cl47 Pd7 2.683750 1_565
