# generated using pymatgen
data_Sr7Mn4O15
_symmetry_space_group_name_H-M   'P 1'
_cell_length_a   9.77042800
_cell_length_b   6.89448500
_cell_length_c   10.58891357
_cell_angle_alpha   88.39997737
_cell_angle_beta   90.00000000
_cell_angle_gamma   90.00000000
_symmetry_Int_Tables_number   1
_chemical_formula_structural   Sr7Mn4O15
_chemical_formula_sum   'Sr14 Mn8 O30'
_cell_volume   713.01302059
_cell_formula_units_Z   2
loop_
 _symmetry_equiv_pos_site_id
 _symmetry_equiv_pos_as_xyz
  1  'x, y, z'
loop_
 _atom_site_type_symbol
 _atom_site_label
 _atom_site_symmetry_multiplicity
 _atom_site_fract_x
 _atom_site_fract_y
 _atom_site_fract_z
 _atom_site_occupancy
  Sr  Sr0  1  0.74919800  0.82084500  0.33383600  1
  Sr  Sr1  1  0.25178800  0.17753900  0.16757500  1
  Sr  Sr2  1  0.74821200  0.17753900  0.66757500  1
  Sr  Sr3  1  0.25080200  0.82084500  0.83383600  1
  Sr  Sr4  1  0.93681500  0.00112200  0.96390200  1
  Sr  Sr5  1  0.43514100  0.99773200  0.53557600  1
  Sr  Sr6  1  0.56485900  0.99773200  0.03557600  1
  Sr  Sr7  1  0.06318500  0.00112200  0.46390200  1
  Sr  Sr8  1  0.75594100  0.50074400  0.00498400  1
  Sr  Sr9  1  0.24405900  0.50074400  0.50498400  1
  Sr  Sr10  1  0.89886900  0.64826400  0.69586700  1
  Sr  Sr11  1  0.40235700  0.35211000  0.80398300  1
  Sr  Sr12  1  0.59764300  0.35211000  0.30398300  1
  Sr  Sr13  1  0.10113100  0.64826400  0.19586700  1
  Mn  Mn0  1  0.91966700  0.21917500  0.21906100  1
  Mn  Mn1  1  0.41655800  0.77942200  0.27951300  1
  Mn  Mn2  1  0.58344200  0.77942200  0.77951300  1
  Mn  Mn3  1  0.08033300  0.21917500  0.71906100  1
  Mn  Mn4  1  0.91654700  0.42371800  0.42399400  1
  Mn  Mn5  1  0.41799400  0.57580200  0.07401700  1
  Mn  Mn6  1  0.58200600  0.57580200  0.57401700  1
  Mn  Mn7  1  0.08345300  0.42371800  0.92399400  1
  O  O0  1  0.96968300  0.31733700  0.58336400  1
  O  O1  1  0.47517100  0.68436300  0.91615800  1
  O  O2  1  0.52482900  0.68436300  0.41615800  1
  O  O3  1  0.03031700  0.31733700  0.08336400  1
  O  O4  1  0.99632300  0.66282600  0.45324500  1
  O  O5  1  0.49728000  0.33579600  0.04697000  1
  O  O6  1  0.50272000  0.33579600  0.54697000  1
  O  O7  1  0.00367700  0.66282600  0.95324500  1
  O  O8  1  0.83295700  0.16005600  0.38125400  1
  O  O9  1  0.33217700  0.84029200  0.11611100  1
  O  O10  1  0.66782300  0.84029200  0.61611100  1
  O  O11  1  0.16704300  0.16005600  0.88125400  1
  O  O12  1  0.92472200  0.32059800  0.83730600  1
  O  O13  1  0.42507800  0.67857500  0.66316700  1
  O  O14  1  0.57492200  0.67857500  0.16316700  1
  O  O15  1  0.07527800  0.32059800  0.33730600  1
  O  O16  1  0.00036200  0.97399000  0.20777300  1
  O  O17  1  0.49772400  0.02553700  0.29101600  1
  O  O18  1  0.50227600  0.02553700  0.79101600  1
  O  O19  1  0.99963800  0.97399000  0.70777300  1
  O  O20  1  0.85094400  0.49244700  0.25181000  1
  O  O21  1  0.34836000  0.50739600  0.24288700  1
  O  O22  1  0.65164000  0.50739600  0.74288700  1
  O  O23  1  0.14905600  0.49244700  0.75181000  1
  O  O24  1  0.76950400  0.15835600  0.12010600  1
  O  O25  1  0.26661600  0.83940400  0.37873800  1
  O  O26  1  0.73338400  0.83940400  0.87873800  1
  O  O27  1  0.23049600  0.15835600  0.62010600  1
  O  O28  1  0.74747700  0.50355200  0.49378800  1
  O  O29  1  0.25252300  0.50355200  0.99378800  1
loop_
_geom_bond_atom_site_label_1
_geom_bond_atom_site_label_2
_geom_bond_distance
_geom_bond_site_symmetry_2
Mn0 O24 1.857646 1_555
Mn0 O16 1.872089 1_645
Mn0 O3 1.907126 1_655
Mn0 O8 1.947923 1_555
Mn0 O20 2.038948 1_555
Mn0 O15 2.101702 1_655
Mn1 O25 1.856190 1_555
Mn1 O17 1.880033 1_565
Mn1 O2 1.894521 1_555
Mn1 O9 1.951674 1_555
Mn1 O21 2.037754 1_555
Mn1 O14 2.107870 1_555
Mn2 O26 1.856190 1_555
Mn2 O18 1.880033 1_565
Mn2 O1 1.894521 1_555
Mn2 O10 1.951674 1_555
Mn2 O22 2.037754 1_555
Mn2 O13 2.107870 1_555
Mn3 O27 1.857646 1_555
Mn3 O19 1.872089 1_445
Mn3 O0 1.907126 1_455
Mn3 O11 1.947923 1_555
Mn3 O23 2.038948 1_555
Mn3 O12 2.101702 1_455
Mn4 O4 1.857317 1_555
Mn4 O0 1.893724 1_555
Mn4 O28 1.897521 1_555
Mn4 O15 1.946716 1_655
Mn4 O20 1.977711 1_555
Mn4 O8 2.054805 1_555
Mn5 O5 1.856522 1_555
Mn5 O1 1.896450 1_554
Mn5 O29 1.899281 1_554
Mn5 O14 1.944589 1_555
Mn5 O21 1.958493 1_555
Mn5 O9 2.066961 1_555
Mn6 O6 1.856522 1_555
Mn6 O2 1.896450 1_555
Mn6 O28 1.899281 1_555
Mn6 O13 1.944589 1_555
Mn6 O22 1.958493 1_555
Mn6 O10 2.066961 1_555
Mn7 O7 1.857317 1_555
Mn7 O3 1.893724 1_556
Mn7 O29 1.897521 1_555
Mn7 O12 1.946716 1_455
Mn7 O23 1.977711 1_555
Mn7 O11 2.054805 1_555
O0 Sr2 2.521594 1_555
O0 Sr10 2.693550 1_555
O0 Sr7 2.709567 1_655
O0 Sr9 3.068503 1_655
O1 Sr3 2.530839 1_555
O1 Sr6 2.680907 1_556
O1 Sr11 2.704873 1_555
O1 Sr8 3.153762 1_556
O2 Sr0 2.530839 1_555
O2 Sr5 2.680907 1_555
O2 Sr12 2.704873 1_555
O2 Sr9 3.153762 1_555
O3 Sr1 2.521594 1_555
O3 Sr13 2.693550 1_555
O3 Sr4 2.709567 1_454
O3 Sr8 3.068503 1_455
O4 Sr7 2.427792 1_665
O4 Sr9 2.715412 1_655
O4 Sr10 2.739086 1_555
O4 Sr13 2.915738 1_655
O4 Sr0 2.922093 1_555
O5 Sr6 2.428734 1_545
O5 Sr11 2.734373 1_554
O5 Sr8 2.801714 1_555
O5 Sr12 2.897896 1_555
O5 Sr1 2.914911 1_555
O6 Sr5 2.428734 1_545
O6 Sr12 2.734373 1_555
O6 Sr9 2.801714 1_555
O6 Sr11 2.897896 1_555
O6 Sr2 2.914911 1_555
O7 Sr4 2.427792 1_465
O7 Sr8 2.715412 1_456
O7 Sr13 2.739086 1_556
O7 Sr10 2.915738 1_455
O7 Sr3 2.922093 1_555
O8 Sr0 2.541033 1_545
O8 Sr7 2.640637 1_655
O8 Sr12 2.765537 1_555
O8 Sr2 3.148412 1_555
O9 Sr1 2.528029 1_565
O9 Sr6 2.649932 1_555
O9 Sr13 2.738527 1_555
O9 Sr3 3.099440 1_554
O10 Sr2 2.528029 1_565
O10 Sr5 2.649932 1_555
O10 Sr10 2.738527 1_555
O10 Sr0 3.099440 1_555
O11 Sr3 2.541033 1_545
O11 Sr4 2.640637 1_455
O11 Sr11 2.765537 1_555
O11 Sr1 3.148412 1_556
O12 Sr4 2.549038 1_555
O12 Sr10 2.687267 1_555
O12 Sr2 2.697435 1_555
O12 Sr8 2.745479 1_556
O13 Sr5 2.551636 1_555
O13 Sr11 2.674199 1_555
O13 Sr3 2.688205 1_555
O13 Sr9 2.748005 1_555
O14 Sr6 2.551636 1_555
O14 Sr12 2.674199 1_555
O14 Sr0 2.688205 1_555
O14 Sr8 2.748005 1_555
O15 Sr7 2.549038 1_555
O15 Sr13 2.687267 1_555
O15 Sr1 2.697435 1_555
O15 Sr9 2.745479 1_555
O16 Sr13 2.458512 1_555
O16 Sr4 2.657430 1_464
O16 Sr7 2.792082 1_565
O16 Sr1 2.855143 1_565
O16 Sr0 2.973217 1_455
O17 Sr12 2.461437 1_555
O17 Sr5 2.662531 1_545
O17 Sr6 2.795009 1_545
O17 Sr0 2.863278 1_545
O17 Sr1 2.916198 1_555
O18 Sr11 2.461437 1_555
O18 Sr6 2.662531 1_546
O18 Sr5 2.795009 1_545
O18 Sr3 2.863278 1_545
O18 Sr2 2.916198 1_555
O19 Sr10 2.458512 1_555
O19 Sr7 2.657430 1_665
O19 Sr4 2.792082 1_565
O19 Sr2 2.855143 1_565
O19 Sr3 2.973217 1_655
O20 Sr0 2.641737 1_555
O20 Sr12 2.708586 1_555
O20 Sr13 2.728498 1_655
O20 Sr8 2.772638 1_555
O21 Sr1 2.607582 1_555
O21 Sr13 2.645552 1_555
O21 Sr12 2.730976 1_555
O21 Sr9 2.955656 1_555
O22 Sr2 2.607582 1_555
O22 Sr10 2.645552 1_555
O22 Sr11 2.730976 1_555
O22 Sr8 2.955656 1_556
O23 Sr3 2.641737 1_555
O23 Sr11 2.708586 1_555
O23 Sr10 2.728498 1_455
O23 Sr9 2.772638 1_555
O24 Sr6 2.465924 1_545
O24 Sr4 2.585218 1_554
O24 Sr8 2.629686 1_555
O24 Sr12 2.922379 1_555
O24 Sr0 3.206550 1_545
O25 Sr7 2.462338 1_565
O25 Sr5 2.600392 1_555
O25 Sr9 2.667024 1_555
O25 Sr13 2.871068 1_555
O25 Sr1 3.188155 1_565
O26 Sr4 2.462338 1_565
O26 Sr6 2.600392 1_556
O26 Sr8 2.667024 1_556
O26 Sr10 2.871068 1_555
O26 Sr2 3.188155 1_565
O27 Sr5 2.465924 1_545
O27 Sr7 2.585218 1_555
O27 Sr9 2.629686 1_555
O27 Sr11 2.922379 1_555
O27 Sr3 3.206550 1_545
O28 Sr12 2.718437 1_555
O28 Sr0 2.729015 1_555
O28 Sr10 2.807368 1_555
O28 Sr2 2.864887 1_555
O29 Sr11 2.718437 1_555
O29 Sr3 2.729015 1_555
O29 Sr13 2.807368 1_556
O29 Sr1 2.864887 1_556
