# generated using pymatgen
data_MgTeMoO6
_symmetry_space_group_name_H-M   'P 1'
_cell_length_a   5.08877800
_cell_length_b   5.36432300
_cell_length_c   9.27286000
_cell_angle_alpha   90.00000000
_cell_angle_beta   90.00000000
_cell_angle_gamma   90.00000000
_symmetry_Int_Tables_number   1
_chemical_formula_structural   MgTeMoO6
_chemical_formula_sum   'Mg2 Te2 Mo2 O12'
_cell_volume   253.12913085
_cell_formula_units_Z   2
loop_
 _symmetry_equiv_pos_site_id
 _symmetry_equiv_pos_as_xyz
  1  'x, y, z'
loop_
 _atom_site_type_symbol
 _atom_site_label
 _atom_site_symmetry_multiplicity
 _atom_site_fract_x
 _atom_site_fract_y
 _atom_site_fract_z
 _atom_site_occupancy
  Mg  Mg0  1  0.00000000  0.50000000  0.03194000  1
  Mg  Mg1  1  0.50000000  0.00000000  0.96806000  1
  Te  Te0  1  0.00000000  0.00000000  0.23620300  1
  Te  Te1  1  0.50000000  0.50000000  0.76379700  1
  Mo  Mo0  1  0.00000000  0.00000000  0.69654200  1
  Mo  Mo1  1  0.50000000  0.50000000  0.30345800  1
  O  O0  1  0.23589000  0.67657000  0.20202100  1
  O  O1  1  0.76411000  0.32343000  0.20202100  1
  O  O2  1  0.26411000  0.17657000  0.79797900  1
  O  O3  1  0.73589000  0.82343000  0.79797900  1
  O  O4  1  0.22020300  0.17115600  0.10127500  1
  O  O5  1  0.77979700  0.82884400  0.10127500  1
  O  O6  1  0.27979700  0.67115600  0.89872500  1
  O  O7  1  0.72020300  0.32884400  0.89872500  1
  O  O8  1  0.34119100  0.28973400  0.41586400  1
  O  O9  1  0.65880900  0.71026600  0.41586400  1
  O  O10  1  0.15880900  0.78973400  0.58413600  1
  O  O11  1  0.84119100  0.21026600  0.58413600  1
loop_
_geom_bond_atom_site_label_1
_geom_bond_atom_site_label_2
_geom_bond_distance
_geom_bond_site_symmetry_2
Mg0 O7 2.096706 1_454
Mg0 O6 2.096706 1_554
Mg0 O5 2.186507 1_455
Mg0 O4 2.186507 1_555
Mg0 O1 2.196691 1_455
Mg0 O0 2.196691 1_555
Mg1 O5 2.096706 1_546
Mg1 O4 2.096706 1_556
Mg1 O6 2.186507 1_545
Mg1 O7 2.186507 1_555
Mg1 O2 2.196691 1_555
Mg1 O3 2.196691 1_545
Mo0 O10 1.735447 1_545
Mo0 O11 1.735447 1_455
Mo0 O3 1.894261 1_445
Mo0 O2 1.894261 1_555
Mo1 O9 1.735447 1_555
Mo1 O8 1.735447 1_555
Mo1 O1 1.894261 1_555
Mo1 O0 1.894261 1_555
O0 Te0 2.133442 1_565
O1 Te0 2.133442 1_655
O2 Te1 2.133442 1_555
O3 Te1 2.133442 1_555
O4 Te0 1.914174 1_555
O5 Te0 1.914174 1_665
O6 Te1 1.914174 1_555
O7 Te1 1.914174 1_555
