# generated using pymatgen
data_MnZn4O5
_symmetry_space_group_name_H-M   'P 1'
_cell_length_a   6.19276957
_cell_length_b   6.48449830
_cell_length_c   12.50591153
_cell_angle_alpha   89.93611351
_cell_angle_beta   86.82028837
_cell_angle_gamma   105.03122559
_symmetry_Int_Tables_number   1
_chemical_formula_structural   MnZn4O5
_chemical_formula_sum   'Mn4 Zn16 O20'
_cell_volume   484.20771235
_cell_formula_units_Z   4
loop_
 _symmetry_equiv_pos_site_id
 _symmetry_equiv_pos_as_xyz
  1  'x, y, z'
loop_
 _atom_site_type_symbol
 _atom_site_label
 _atom_site_symmetry_multiplicity
 _atom_site_fract_x
 _atom_site_fract_y
 _atom_site_fract_z
 _atom_site_occupancy
  Mn  Mn0  1  0.27012174  0.56884743  0.76857713  1
  Mn  Mn1  1  0.87068396  0.96430417  0.36509507  1
  Mn  Mn2  1  0.27011785  0.06885147  0.76857213  1
  Mn  Mn3  1  0.87066643  0.46432137  0.36508336  1
  Zn  Zn0  1  0.13910804  0.03405684  0.13151001  1
  Zn  Zn1  1  0.13911766  0.53406578  0.13150741  1
  Zn  Zn2  1  0.53225727  0.13123952  0.53399542  1
  Zn  Zn3  1  0.53223997  0.63122448  0.53400241  1
  Zn  Zn4  1  0.93100129  0.23255065  0.93550166  1
  Zn  Zn5  1  0.93098612  0.73254605  0.93550161  1
  Zn  Zn6  1  0.66864984  0.16708083  0.16473434  1
  Zn  Zn7  1  0.66865146  0.66708060  0.16473350  1
  Zn  Zn8  1  0.33913811  0.33438849  0.33211029  1
  Zn  Zn9  1  0.33917203  0.83439291  0.33211230  1
  Zn  Zn10  1  0.74002145  0.43475106  0.73230005  1
  Zn  Zn11  1  0.74001825  0.93474854  0.73229749  1
  Zn  Zn12  1  0.47097514  0.36758181  0.96732661  1
  Zn  Zn13  1  0.47096590  0.86757963  0.96732064  1
  Zn  Zn14  1  0.06729957  0.26559965  0.56603407  1
  Zn  Zn15  1  0.06730268  0.76559523  0.56603287  1
  O  O0  1  0.44098299  0.11006262  0.05670967  1
  O  O1  1  0.44098848  0.61006816  0.05670891  1
  O  O2  1  0.03800485  0.00799482  0.65530502  1
  O  O3  1  0.03800964  0.50799541  0.65530824  1
  O  O4  1  0.83485945  0.20566606  0.46122246  1
  O  O5  1  0.83484394  0.70563543  0.46122694  1
  O  O6  1  0.97230300  0.24297638  0.09114988  1
  O  O7  1  0.97229939  0.74297007  0.09114775  1
  O  O8  1  0.57937366  0.14502906  0.68913773  1
  O  O9  1  0.57936947  0.64502238  0.68914086  1
  O  O10  1  0.18110702  0.04527828  0.28733282  1
  O  O11  1  0.18109140  0.54528609  0.28733383  1
  O  O12  1  0.63570885  0.40847809  0.25364745  1
  O  O13  1  0.63572159  0.90847855  0.25364446  1
  O  O14  1  0.23492717  0.30983734  0.86436096  1
  O  O15  1  0.23491472  0.80983390  0.86435540  1
  O  O16  1  0.36969003  0.34103848  0.48953618  1
  O  O17  1  0.36969887  0.84104578  0.48953966  1
  O  O18  1  0.77088442  0.44311599  0.88964703  1
  O  O19  1  0.77088530  0.94312059  0.88964539  1
loop_
_geom_bond_atom_site_label_1
_geom_bond_atom_site_label_2
_geom_bond_distance
_geom_bond_site_symmetry_2
Mn0 O15 2.018943 1_555
Mn0 O14 2.019888 1_555
Mn0 O3 2.039941 1_555
Mn0 O9 2.048334 1_555
Mn1 O5 2.020111 1_555
Mn1 O4 2.024523 1_565
Mn1 O13 2.035637 1_555
Mn1 O10 2.045698 1_665
Mn2 O14 2.018990 1_555
Mn2 O15 2.019916 1_545
Mn2 O2 2.039929 1_555
Mn2 O8 2.048366 1_555
Mn3 O4 2.020123 1_555
Mn3 O5 2.024390 1_555
Mn3 O12 2.035482 1_555
Mn3 O11 2.045640 1_655
O0 Zn12 1.970901 1_554
O0 Zn13 1.972021 1_544
O0 Zn6 1.972707 1_555
O0 Zn0 1.984905 1_555
O1 Zn13 1.970911 1_554
O1 Zn12 1.971997 1_554
O1 Zn7 1.972689 1_555
O1 Zn1 1.984874 1_555
O2 Zn15 1.969614 1_545
O2 Zn14 1.971254 1_555
O2 Zn11 1.976183 1_445
O3 Zn14 1.969595 1_555
O3 Zn15 1.971260 1_555
O3 Zn10 1.976187 1_455
O4 Zn14 1.965053 1_655
O4 Zn2 1.978277 1_555
O5 Zn15 1.965087 1_655
O5 Zn3 1.978299 1_555
O6 Zn4 1.976233 1_554
O6 Zn1 1.983274 1_655
O6 Zn0 1.984772 1_655
O6 Zn6 1.988002 1_555
O7 Zn5 1.976220 1_554
O7 Zn0 1.983266 1_665
O7 Zn1 1.984748 1_655
O7 Zn7 1.987980 1_555
O8 Zn11 1.975317 1_545
O8 Zn10 1.975603 1_555
O8 Zn2 1.976651 1_555
O9 Zn10 1.975298 1_555
O9 Zn11 1.975605 1_555
O9 Zn3 1.976619 1_555
O10 Zn9 1.973628 1_545
O10 Zn8 1.974198 1_555
O10 Zn0 1.979173 1_555
O11 Zn8 1.973603 1_555
O11 Zn9 1.974265 1_555
O11 Zn1 1.979190 1_555
O12 Zn6 1.967908 1_555
O12 Zn7 1.970610 1_555
O12 Zn8 1.976891 1_555
O13 Zn7 1.967877 1_555
O13 Zn6 1.970595 1_565
O13 Zn9 1.976809 1_555
O14 Zn12 1.964978 1_555
O14 Zn4 1.977154 1_455
O15 Zn13 1.964989 1_555
O15 Zn5 1.977196 1_455
O16 Zn2 1.986022 1_555
O16 Zn3 1.986282 1_555
O16 Zn8 1.987695 1_555
O16 Zn14 1.996585 1_555
O17 Zn3 1.986040 1_555
O17 Zn2 1.986297 1_565
O17 Zn9 1.987690 1_555
O17 Zn15 1.996590 1_555
O18 Zn5 1.983575 1_555
O18 Zn4 1.984940 1_555
O18 Zn10 1.986999 1_555
O18 Zn12 1.989977 1_555
O19 Zn4 1.983606 1_565
O19 Zn5 1.984926 1_555
O19 Zn11 1.987014 1_555
O19 Zn13 1.990007 1_555
