# generated using pymatgen
data_ZnTeO3
_symmetry_space_group_name_H-M   'P 1'
_cell_length_a   6.32906732
_cell_length_b   7.33928353
_cell_length_c   12.32774028
_cell_angle_alpha   90.00000000
_cell_angle_beta   90.00000000
_cell_angle_gamma   90.00000000
_symmetry_Int_Tables_number   1
_chemical_formula_structural   ZnTeO3
_chemical_formula_sum   'Zn8 Te8 O24'
_cell_volume   572.63363911
_cell_formula_units_Z   8
loop_
 _symmetry_equiv_pos_site_id
 _symmetry_equiv_pos_as_xyz
  1  'x, y, z'
loop_
 _atom_site_type_symbol
 _atom_site_label
 _atom_site_symmetry_multiplicity
 _atom_site_fract_x
 _atom_site_fract_y
 _atom_site_fract_z
 _atom_site_occupancy
  Zn  Zn0  1  0.87792430  0.89062354  0.40998313  1
  Zn  Zn1  1  0.37792430  0.10937646  0.09001687  1
  Zn  Zn2  1  0.62207570  0.39062354  0.59001687  1
  Zn  Zn3  1  0.12207570  0.60937646  0.90998313  1
  Zn  Zn4  1  0.12207570  0.10937646  0.59001687  1
  Zn  Zn5  1  0.62207570  0.89062354  0.90998313  1
  Zn  Zn6  1  0.37792430  0.60937646  0.40998313  1
  Zn  Zn7  1  0.87792430  0.39062354  0.09001687  1
  Te  Te0  1  0.90962050  0.93647360  0.14367677  1
  Te  Te1  1  0.40962050  0.06352640  0.35632323  1
  Te  Te2  1  0.59037950  0.43647360  0.85632323  1
  Te  Te3  1  0.09037950  0.56352640  0.64367677  1
  Te  Te4  1  0.09037950  0.06352640  0.85632323  1
  Te  Te5  1  0.59037950  0.93647360  0.64367677  1
  Te  Te6  1  0.40962050  0.56352640  0.14367677  1
  Te  Te7  1  0.90962050  0.43647360  0.35632323  1
  O  O0  1  0.52928020  0.34427001  0.08985115  1
  O  O1  1  0.02928020  0.65572999  0.41014885  1
  O  O2  1  0.97071980  0.84427001  0.91014885  1
  O  O3  1  0.47071980  0.15572999  0.58985115  1
  O  O4  1  0.47071980  0.65572999  0.91014885  1
  O  O5  1  0.97071980  0.34427001  0.58985115  1
  O  O6  1  0.02928020  0.15572999  0.08985115  1
  O  O7  1  0.52928020  0.84427001  0.41014885  1
  O  O8  1  0.65543201  0.46193725  0.43446896  1
  O  O9  1  0.15543201  0.53806275  0.06553104  1
  O  O10  1  0.84456799  0.96193725  0.56553104  1
  O  O11  1  0.34456799  0.03806275  0.93446896  1
  O  O12  1  0.34456799  0.53806275  0.56553104  1
  O  O13  1  0.84456799  0.46193725  0.93446896  1
  O  O14  1  0.15543201  0.03806275  0.43446896  1
  O  O15  1  0.65543201  0.96193725  0.06553104  1
  O  O16  1  0.80277177  0.52747173  0.22503711  1
  O  O17  1  0.30277177  0.47252827  0.27496289  1
  O  O18  1  0.69722823  0.02747173  0.77496289  1
  O  O19  1  0.19722823  0.97252827  0.72503711  1
  O  O20  1  0.19722823  0.47252827  0.77496289  1
  O  O21  1  0.69722823  0.52747173  0.72503711  1
  O  O22  1  0.30277177  0.97252827  0.22503711  1
  O  O23  1  0.80277177  0.02747173  0.27496289  1
loop_
_geom_bond_atom_site_label_1
_geom_bond_atom_site_label_2
_geom_bond_distance
_geom_bond_site_symmetry_2
O0 Te6 1.898243 1_555
O0 Zn1 1.972222 1_555
O0 Zn7 2.232664 1_555
O1 Te7 1.898243 1_455
O1 Zn0 1.972222 1_455
O1 Zn6 2.232664 1_555
O2 Te4 1.898243 1_665
O2 Zn3 1.972222 1_655
O2 Zn5 2.232664 1_555
O3 Te5 1.898243 1_545
O3 Zn2 1.972222 1_555
O3 Zn4 2.232664 1_555
O4 Te2 1.898243 1_555
O4 Zn5 1.972222 1_555
O4 Zn3 2.232664 1_555
O5 Te3 1.898243 1_655
O5 Zn4 1.972222 1_655
O5 Zn2 2.232664 1_555
O6 Te0 1.898243 1_445
O6 Zn7 1.972222 1_455
O6 Zn1 2.232664 1_555
O7 Te1 1.898243 1_565
O7 Zn6 1.972222 1_555
O7 Zn0 2.232664 1_555
O8 Te7 1.884449 1_555
O8 Zn2 1.998880 1_555
O8 Zn6 2.084915 1_555
O9 Te6 1.884449 1_555
O9 Zn3 1.998880 1_554
O9 Zn7 2.084915 1_455
O10 Te5 1.884449 1_555
O10 Zn0 1.998880 1_555
O10 Zn4 2.084915 1_665
O11 Te4 1.884449 1_555
O11 Zn1 1.998880 1_556
O11 Zn5 2.084915 1_545
O12 Te3 1.884449 1_555
O12 Zn6 1.998880 1_555
O12 Zn2 2.084915 1_555
O13 Te2 1.884449 1_555
O13 Zn7 1.998880 1_556
O13 Zn3 2.084915 1_655
O14 Te1 1.884449 1_555
O14 Zn4 1.998880 1_555
O14 Zn0 2.084915 1_445
O15 Te0 1.884449 1_555
O15 Zn5 1.998880 1_554
O15 Zn1 2.084915 1_565
O16 Te7 1.876905 1_555
O16 Zn7 2.001383 1_555
O17 Te6 1.876905 1_555
O17 Zn6 2.001383 1_555
O18 Te5 1.876905 1_545
O18 Zn5 2.001383 1_545
O19 Te4 1.876905 1_565
O19 Zn4 2.001383 1_565
O20 Te3 1.876905 1_555
O20 Zn3 2.001383 1_555
O21 Te2 1.876905 1_555
O21 Zn2 2.001383 1_555
O22 Te1 1.876905 1_565
O22 Zn1 2.001383 1_565
O23 Te0 1.876905 1_545
O23 Zn0 2.001383 1_545
