# generated using pymatgen
data_Ba7ZrN6
_symmetry_space_group_name_H-M   'P 1'
_cell_length_a   12.49340500
_cell_length_b   7.32672100
_cell_length_c   15.03471000
_cell_angle_alpha   90.00000000
_cell_angle_beta   90.00000000
_cell_angle_gamma   90.00000000
_symmetry_Int_Tables_number   1
_chemical_formula_structural   Ba7ZrN6
_chemical_formula_sum   'Ba28 Zr4 N24'
_cell_volume   1376.21259552
_cell_formula_units_Z   4
loop_
 _symmetry_equiv_pos_site_id
 _symmetry_equiv_pos_as_xyz
  1  'x, y, z'
loop_
 _atom_site_type_symbol
 _atom_site_label
 _atom_site_symmetry_multiplicity
 _atom_site_fract_x
 _atom_site_fract_y
 _atom_site_fract_z
 _atom_site_occupancy
  Ba  Ba0  1  0.00557600  0.74116800  0.97344700  1
  Ba  Ba1  1  0.49442400  0.75883200  0.47344700  1
  Ba  Ba2  1  0.50557600  0.75883200  0.02655300  1
  Ba  Ba3  1  0.99442400  0.74116800  0.52655300  1
  Ba  Ba4  1  0.99442400  0.25883200  0.02655300  1
  Ba  Ba5  1  0.50557600  0.24116800  0.52655300  1
  Ba  Ba6  1  0.49442400  0.24116800  0.97344700  1
  Ba  Ba7  1  0.00557600  0.25883200  0.47344700  1
  Ba  Ba8  1  0.26953800  0.72888900  0.62710400  1
  Ba  Ba9  1  0.23046200  0.77111100  0.12710400  1
  Ba  Ba10  1  0.76953800  0.77111100  0.37289600  1
  Ba  Ba11  1  0.73046200  0.72888900  0.87289600  1
  Ba  Ba12  1  0.73046200  0.27111100  0.37289600  1
  Ba  Ba13  1  0.76953800  0.22888900  0.87289600  1
  Ba  Ba14  1  0.23046200  0.22888900  0.62710400  1
  Ba  Ba15  1  0.26953800  0.27111100  0.12710400  1
  Ba  Ba16  1  0.27987400  0.57207800  0.87747000  1
  Ba  Ba17  1  0.22012600  0.92792200  0.37747000  1
  Ba  Ba18  1  0.77987400  0.92792200  0.12253000  1
  Ba  Ba19  1  0.72012600  0.57207800  0.62253000  1
  Ba  Ba20  1  0.72012600  0.42792200  0.12253000  1
  Ba  Ba21  1  0.77987400  0.07207800  0.62253000  1
  Ba  Ba22  1  0.22012600  0.07207800  0.87747000  1
  Ba  Ba23  1  0.27987400  0.42792200  0.37747000  1
  Ba  Ba24  1  0.00000000  0.44195000  0.75000000  1
  Ba  Ba25  1  0.50000000  0.05805000  0.25000000  1
  Ba  Ba26  1  0.00000000  0.55805000  0.25000000  1
  Ba  Ba27  1  0.50000000  0.94195000  0.75000000  1
  Zr  Zr0  1  0.00000000  0.93395100  0.75000000  1
  Zr  Zr1  1  0.50000000  0.56604900  0.25000000  1
  Zr  Zr2  1  0.00000000  0.06604900  0.25000000  1
  Zr  Zr3  1  0.50000000  0.43395100  0.75000000  1
  N  N0  1  0.13232700  0.75815600  0.78040500  1
  N  N1  1  0.36767300  0.74184400  0.28040500  1
  N  N2  1  0.63232700  0.74184400  0.21959500  1
  N  N3  1  0.86767300  0.75815600  0.71959500  1
  N  N4  1  0.86767300  0.24184400  0.21959500  1
  N  N5  1  0.63232700  0.25815600  0.71959500  1
  N  N6  1  0.36767300  0.25815600  0.78040500  1
  N  N7  1  0.13232700  0.24184400  0.28040500  1
  N  N8  1  0.16441000  0.51665900  0.51735700  1
  N  N9  1  0.33559000  0.98334100  0.01735700  1
  N  N10  1  0.66441000  0.98334100  0.48264300  1
  N  N11  1  0.83559000  0.51665900  0.98264300  1
  N  N12  1  0.83559000  0.48334100  0.48264300  1
  N  N13  1  0.66441000  0.01665900  0.98264300  1
  N  N14  1  0.33559000  0.01665900  0.51735700  1
  N  N15  1  0.16441000  0.48334100  0.01735700  1
  N  N16  1  0.48174800  0.60818500  0.63964800  1
  N  N17  1  0.01825200  0.89181500  0.13964800  1
  N  N18  1  0.98174800  0.89181500  0.36035200  1
  N  N19  1  0.51825200  0.60818500  0.86035200  1
  N  N20  1  0.51825200  0.39181500  0.36035200  1
  N  N21  1  0.98174800  0.10818500  0.86035200  1
  N  N22  1  0.01825200  0.10818500  0.63964800  1
  N  N23  1  0.48174800  0.39181500  0.13964800  1
loop_
_geom_bond_atom_site_label_1
_geom_bond_atom_site_label_2
_geom_bond_distance
_geom_bond_site_symmetry_2
Ba0 N11 2.689792 1_455
Ba0 N17 2.736286 1_556
Ba0 N15 2.818156 1_556
Ba0 N21 3.195419 1_465
Ba0 N0 3.308572 1_555
Ba1 N10 2.689792 1_555
Ba1 N16 2.736286 1_555
Ba1 N14 2.818156 1_565
Ba1 N20 3.195419 1_555
Ba1 N1 3.308572 1_555
Ba2 N9 2.689792 1_555
Ba2 N19 2.736286 1_554
Ba2 N13 2.818156 1_564
Ba2 N23 3.195419 1_555
Ba2 N2 3.308572 1_555
Ba3 N8 2.689792 1_655
Ba3 N18 2.736286 1_555
Ba3 N12 2.818156 1_555
Ba3 N22 3.195419 1_665
Ba3 N3 3.308572 1_555
Ba4 N15 2.689792 1_655
Ba4 N21 2.736286 1_554
Ba4 N11 2.818156 1_554
Ba4 N17 3.195419 1_645
Ba4 N4 3.308572 1_555
Ba5 N14 2.689792 1_555
Ba5 N20 2.736286 1_555
Ba5 N10 2.818156 1_545
Ba5 N16 3.195419 1_555
Ba5 N5 3.308572 1_555
Ba6 N13 2.689792 1_555
Ba6 N23 2.736286 1_556
Ba6 N9 2.818156 1_546
Ba6 N19 3.195419 1_555
Ba6 N6 3.308572 1_555
Ba7 N12 2.689792 1_455
Ba7 N22 2.736286 1_555
Ba7 N8 2.818156 1_555
Ba7 N18 3.195419 1_445
Ba7 N7 3.308572 1_555
Ba8 N8 2.620201 1_555
Ba8 N16 2.801190 1_555
Ba8 N14 2.801593 1_565
Ba8 N0 2.880424 1_555
Ba9 N9 2.620201 1_555
Ba9 N17 2.801190 1_555
Ba9 N15 2.801593 1_555
Ba9 N1 2.880424 1_555
Ba10 N10 2.620201 1_555
Ba10 N18 2.801190 1_555
Ba10 N12 2.801593 1_555
Ba10 N2 2.880424 1_555
Ba11 N11 2.620201 1_555
Ba11 N19 2.801190 1_555
Ba11 N13 2.801593 1_565
Ba11 N3 2.880424 1_555
Ba12 N12 2.620201 1_555
Ba12 N20 2.801190 1_555
Ba12 N10 2.801593 1_545
Ba12 N4 2.880424 1_555
Ba13 N13 2.620201 1_555
Ba13 N21 2.801190 1_555
Ba13 N11 2.801593 1_555
Ba13 N5 2.880424 1_555
Ba14 N14 2.620201 1_555
Ba14 N22 2.801190 1_555
Ba14 N8 2.801593 1_555
Ba14 N6 2.880424 1_555
Ba15 N15 2.620201 1_555
Ba15 N23 2.801190 1_555
Ba15 N9 2.801593 1_545
Ba15 N7 2.880424 1_555
Ba16 N15 2.631900 1_556
Ba16 N0 2.717789 1_555
Ba16 N6 2.936491 1_555
Ba16 N19 3.000936 1_555
Ba17 N14 2.631900 1_565
Ba17 N1 2.717789 1_555
Ba17 N7 2.936491 1_565
Ba17 N18 3.000936 1_455
Ba18 N13 2.631900 1_564
Ba18 N2 2.717789 1_555
Ba18 N4 2.936491 1_565
Ba18 N17 3.000936 1_655
Ba19 N12 2.631900 1_555
Ba19 N3 2.717789 1_555
Ba19 N5 2.936491 1_555
Ba19 N16 3.000936 1_555
Ba20 N11 2.631900 1_554
Ba20 N4 2.717789 1_555
Ba20 N2 2.936491 1_555
Ba20 N23 3.000936 1_555
Ba21 N10 2.631900 1_545
Ba21 N5 2.717789 1_555
Ba21 N3 2.936491 1_545
Ba21 N22 3.000936 1_655
Ba22 N9 2.631900 1_546
Ba22 N6 2.717789 1_555
Ba22 N0 2.936491 1_545
Ba22 N21 3.000936 1_455
Ba23 N8 2.631900 1_555
Ba23 N7 2.717789 1_555
Ba23 N1 2.936491 1_555
Ba23 N20 3.000936 1_555
Ba24 N3 2.882609 1_455
Ba24 N0 2.882609 1_555
Ba24 N22 2.963889 1_555
Ba24 N21 2.963889 1_455
Ba25 N1 2.882609 1_545
Ba25 N2 2.882609 1_545
Ba25 N20 2.963889 1_555
Ba25 N23 2.963889 1_555
Ba26 N4 2.882609 1_455
Ba26 N7 2.882609 1_555
Ba26 N18 2.963889 1_455
Ba26 N17 2.963889 1_555
Ba27 N5 2.882609 1_565
Ba27 N6 2.882609 1_565
Ba27 N19 2.963889 1_555
Ba27 N16 2.963889 1_555
N0 Zr0 2.145002 1_555
N1 Zr1 2.145002 1_555
N2 Zr1 2.145002 1_555
N3 Zr0 2.145002 1_655
N4 Zr2 2.145002 1_655
N5 Zr3 2.145002 1_555
N6 Zr3 2.145002 1_555
N7 Zr2 2.145002 1_555
N16 Zr3 2.105768 1_555
N17 Zr2 2.105768 1_565
N18 Zr2 2.105768 1_665
N19 Zr3 2.105768 1_555
N20 Zr1 2.105768 1_555
N21 Zr0 2.105768 1_645
N22 Zr0 2.105768 1_545
N23 Zr1 2.105768 1_555
