# generated using pymatgen
data_SrLaMnO4
_symmetry_space_group_name_H-M   'P 1'
_cell_length_a   5.50052213
_cell_length_b   5.52247214
_cell_length_c   6.97338742
_cell_angle_alpha   90.00019325
_cell_angle_beta   66.77250922
_cell_angle_gamma   90.00004410
_symmetry_Int_Tables_number   1
_chemical_formula_structural   SrLaMnO4
_chemical_formula_sum   'Sr2 La2 Mn2 O8'
_cell_volume   194.65758862
_cell_formula_units_Z   2
loop_
 _symmetry_equiv_pos_site_id
 _symmetry_equiv_pos_as_xyz
  1  'x, y, z'
loop_
 _atom_site_type_symbol
 _atom_site_label
 _atom_site_symmetry_multiplicity
 _atom_site_fract_x
 _atom_site_fract_y
 _atom_site_fract_z
 _atom_site_occupancy
  Sr  Sr0  1  0.85535900  0.50000000  0.28929100  1
  Sr  Sr1  1  0.64464000  0.00000100  0.71071100  1
  La  La0  1  0.35964500  0.00000100  0.28071600  1
  La  La1  1  0.14035800  0.49999700  0.71928500  1
  Mn  Mn0  1  0.50290300  0.49999800  0.99420700  1
  Mn  Mn1  1  0.99710600  0.99999700  0.00577400  1
  O  O0  1  0.17799900  0.99999900  0.64397300  1
  O  O1  1  0.66538400  0.50000100  0.66924300  1
  O  O2  1  0.32201900  0.50000100  0.35598900  1
  O  O3  1  0.83458600  0.00000100  0.33081800  1
  O  O4  1  0.25003800  0.25003900  0.99999900  1
  O  O5  1  0.74996300  0.74996300  0.99999800  1
  O  O6  1  0.74996200  0.25004100  0.99999800  1
  O  O7  1  0.25003800  0.74996000  0.99999800  1
loop_
_geom_bond_atom_site_label_1
_geom_bond_atom_site_label_2
_geom_bond_distance
_geom_bond_site_symmetry_2
La0 O0 2.327812 1_545
La0 O4 2.651996 1_554
La0 O5 2.651998 1_544
La0 O7 2.652003 1_544
La0 O6 2.652006 1_554
La0 O3 2.768890 1_555
La0 O3 2.768985 1_455
La0 O2 2.803050 1_555
La0 O2 2.803053 1_545
La1 O2 2.328062 1_555
La1 O4 2.651957 1_555
La1 O7 2.651958 1_555
La1 O6 2.651975 1_455
La1 O5 2.651996 1_455
La1 O1 2.768862 1_455
La1 O1 2.768924 1_555
La1 O0 2.803082 1_545
La1 O0 2.803107 1_555
Mn0 O6 1.948621 1_555
Mn0 O5 1.948655 1_555
Mn0 O4 1.948685 1_555
Mn0 O7 1.948700 1_555
Mn0 O1 2.082424 1_555
Mn0 O2 2.318360 1_556
Mn1 O5 1.949216 1_554
Mn1 O6 1.949261 1_564
Mn1 O7 1.949280 1_654
Mn1 O4 1.949300 1_664
Mn1 O3 2.082937 1_565
Mn1 O0 2.318482 1_654
O0 Sr1 2.783265 1_465
O0 Sr1 2.783363 1_565
O1 Sr0 2.434796 1_555
O1 Sr1 2.773992 1_565
O1 Sr1 2.773994 1_555
O2 Sr0 2.783231 1_555
O2 Sr0 2.783318 1_455
O3 Sr1 2.434418 1_555
O3 Sr0 2.774025 1_555
O3 Sr0 2.774034 1_545
O4 Sr1 2.689550 1_555
O4 Sr0 2.689560 1_456
O5 Sr1 2.689553 1_565
O5 Sr0 2.689581 1_556
O6 Sr1 2.689548 1_555
O6 Sr0 2.689565 1_556
O7 Sr1 2.689561 1_565
O7 Sr0 2.689566 1_456
