# generated using pymatgen
data_Na4Al3Ge3NO15
_symmetry_space_group_name_H-M   'P 1'
_cell_length_a   9.24874700
_cell_length_b   9.18434776
_cell_length_c   9.31223254
_cell_angle_alpha   90.17572374
_cell_angle_beta   90.00000000
_cell_angle_gamma   90.00000000
_symmetry_Int_Tables_number   1
_chemical_formula_structural   Na4Al3Ge3NO15
_chemical_formula_sum   'Na8 Al6 Ge6 N2 O30'
_cell_volume   791.01184877
_cell_formula_units_Z   2
loop_
 _symmetry_equiv_pos_site_id
 _symmetry_equiv_pos_as_xyz
  1  'x, y, z'
loop_
 _atom_site_type_symbol
 _atom_site_label
 _atom_site_symmetry_multiplicity
 _atom_site_fract_x
 _atom_site_fract_y
 _atom_site_fract_z
 _atom_site_occupancy
  Na  Na0  1  0.18794200  0.18856400  0.19049700  1
  Na  Na1  1  0.18794200  0.81143600  0.80950300  1
  Na  Na2  1  0.31351200  0.31637200  0.69248800  1
  Na  Na3  1  0.31351200  0.68362800  0.30751200  1
  Na  Na4  1  0.68511600  0.32269500  0.31034400  1
  Na  Na5  1  0.68511600  0.67730500  0.68965600  1
  Na  Na6  1  0.80852200  0.18973700  0.81121700  1
  Na  Na7  1  0.80852200  0.81026300  0.18878300  1
  Al  Al0  1  0.99925400  0.24932400  0.50117300  1
  Al  Al1  1  0.99925400  0.75067600  0.49882700  1
  Al  Al2  1  0.24687800  0.50000000  0.00000000  1
  Al  Al3  1  0.49935700  0.99895500  0.74880300  1
  Al  Al4  1  0.49935700  0.00104500  0.25119700  1
  Al  Al5  1  0.74879900  0.50000000  0.00000000  1
  Ge  Ge0  1  0.99823500  0.49900100  0.25085900  1
  Ge  Ge1  1  0.99823500  0.50099900  0.74914100  1
  Ge  Ge2  1  0.25078400  0.00000000  0.50000000  1
  Ge  Ge3  1  0.49797800  0.75083500  0.99948000  1
  Ge  Ge4  1  0.49797800  0.24916500  0.00052000  1
  Ge  Ge5  1  0.74803200  0.00000000  0.50000000  1
  N  N0  1  0.99998400  0.00000000  0.00000000  1
  N  N1  1  0.44847600  0.50000000  0.50000000  1
  O  O0  1  0.06559800  0.35500000  0.64575100  1
  O  O1  1  0.06559800  0.64500000  0.35424900  1
  O  O2  1  0.14619300  0.14605700  0.43480900  1
  O  O3  1  0.14619300  0.85394300  0.56519100  1
  O  O4  1  0.14374900  0.43406000  0.14618200  1
  O  O5  1  0.14374900  0.56594000  0.85381800  1
  O  O6  1  0.35059900  0.35204500  0.93629100  1
  O  O7  1  0.35059900  0.64795500  0.06370900  1
  O  O8  1  0.35622100  0.06796000  0.64309000  1
  O  O9  1  0.35622100  0.93204000  0.35691000  1
  O  O10  1  0.43393800  0.14851500  0.14881200  1
  O  O11  1  0.43393800  0.85148500  0.85118800  1
  O  O12  1  0.52046900  0.46959500  0.61187400  1
  O  O13  1  0.52046900  0.53040500  0.38812600  1
  O  O14  1  0.56367300  0.14476000  0.85497800  1
  O  O15  1  0.56367300  0.85524000  0.14502200  1
  O  O16  1  0.64441800  0.06910500  0.35605600  1
  O  O17  1  0.64441800  0.93089500  0.64394400  1
  O  O18  1  0.64365300  0.35423300  0.06480900  1
  O  O19  1  0.64365300  0.64576700  0.93519100  1
  O  O20  1  0.85100300  0.56279500  0.14856800  1
  O  O21  1  0.85100300  0.43720500  0.85143200  1
  O  O22  1  0.85303200  0.14523100  0.56792900  1
  O  O23  1  0.85303200  0.85476900  0.43207100  1
  O  O24  1  0.93288500  0.35399000  0.35640500  1
  O  O25  1  0.93288500  0.64601000  0.64359500  1
  O  O26  1  0.09201000  0.96217000  0.10710400  1
  O  O27  1  0.09201000  0.03783000  0.89289600  1
  O  O28  1  0.90656500  0.89163200  0.96315200  1
  O  O29  1  0.90656500  0.10836800  0.03684800  1
loop_
_geom_bond_atom_site_label_1
_geom_bond_atom_site_label_2
_geom_bond_distance
_geom_bond_site_symmetry_2
Na0 O4 2.329556 1_555
Na0 O10 2.336971 1_555
Na0 O2 2.341578 1_555
Na0 O26 2.388261 1_545
Na1 O5 2.329556 1_555
Na1 O11 2.336971 1_555
Na1 O3 2.341578 1_555
Na1 O27 2.388261 1_565
Na2 O6 2.318389 1_555
Na2 O8 2.359332 1_555
Na2 O0 2.360846 1_555
Na2 O12 2.492817 1_555
Na3 O7 2.318389 1_555
Na3 O9 2.359332 1_555
Na3 O1 2.360846 1_555
Na3 O13 2.492817 1_555
Na4 O18 2.337308 1_555
Na4 O24 2.348841 1_555
Na4 O16 2.398642 1_555
Na4 O13 2.544459 1_555
Na5 O19 2.337308 1_555
Na5 O25 2.348841 1_555
Na5 O17 2.398642 1_555
Na5 O12 2.544459 1_555
Na6 O21 2.335628 1_555
Na6 O22 2.337436 1_555
Na6 O14 2.337928 1_555
Na6 O29 2.409378 1_556
Na7 O20 2.335628 1_555
Na7 O23 2.337436 1_555
Na7 O15 2.337928 1_555
Na7 O28 2.409378 1_554
Al0 O0 1.767237 1_655
Al0 O2 1.767696 1_655
Al0 O24 1.768113 1_555
Al0 O22 1.770023 1_555
Al1 O1 1.767237 1_655
Al1 O3 1.767696 1_655
Al1 O25 1.768113 1_555
Al1 O23 1.770023 1_555
Al2 O7 1.764594 1_555
Al2 O6 1.764594 1_554
Al2 O4 1.770501 1_555
Al2 O5 1.770501 1_554
Al3 O14 1.765375 1_565
Al3 O11 1.765637 1_555
Al3 O8 1.768361 1_565
Al3 O17 1.772135 1_555
Al4 O15 1.765375 1_545
Al4 O10 1.765637 1_555
Al4 O9 1.768361 1_545
Al4 O16 1.772135 1_555
Al5 O19 1.762726 1_554
Al5 O18 1.762726 1_555
Al5 O20 1.770681 1_555
Al5 O21 1.770681 1_554
Ge0 O1 1.762168 1_655
Ge0 O20 1.763047 1_555
Ge0 O24 1.764410 1_555
Ge0 O4 1.764540 1_655
Ge1 O0 1.762168 1_655
Ge1 O21 1.763047 1_555
Ge1 O25 1.764410 1_555
Ge1 O5 1.764540 1_655
Ge2 O3 1.763159 1_545
Ge2 O2 1.763159 1_555
Ge2 O9 1.763787 1_545
Ge2 O8 1.763787 1_555
Ge3 O19 1.761052 1_555
Ge3 O7 1.764081 1_556
Ge3 O15 1.765664 1_556
Ge3 O11 1.766388 1_555
Ge4 O18 1.761052 1_555
Ge4 O6 1.764081 1_554
Ge4 O14 1.765664 1_554
Ge4 O10 1.766388 1_555
Ge5 O23 1.765560 1_545
Ge5 O22 1.765560 1_555
Ge5 O16 1.767247 1_555
Ge5 O17 1.767247 1_545
N0 O26 1.357210 1_645
N0 O27 1.357210 1_654
N0 O29 1.361161 1_555
N0 O28 1.361161 1_544
N1 O12 1.268249 1_555
N1 O13 1.268249 1_555
