# generated using pymatgen
data_Li3MnCoO5
_symmetry_space_group_name_H-M   'P 1'
_cell_length_a   2.89481639
_cell_length_b   5.90973440
_cell_length_c   10.58385583
_cell_angle_alpha   97.69148392
_cell_angle_beta   97.12980996
_cell_angle_gamma   91.40917067
_symmetry_Int_Tables_number   1
_chemical_formula_structural   Li3MnCoO5
_chemical_formula_sum   'Li6 Mn2 Co2 O10'
_cell_volume   177.89145300
_cell_formula_units_Z   2
loop_
 _symmetry_equiv_pos_site_id
 _symmetry_equiv_pos_as_xyz
  1  'x, y, z'
loop_
 _atom_site_type_symbol
 _atom_site_label
 _atom_site_symmetry_multiplicity
 _atom_site_fract_x
 _atom_site_fract_y
 _atom_site_fract_z
 _atom_site_occupancy
  Li  Li0  1  0.60002500  0.30000000  0.19999900  1
  Li  Li1  1  0.60003200  0.80000900  0.20000400  1
  Li  Li2  1  0.01132600  0.51187100  0.01942000  1
  Li  Li3  1  0.18864700  0.08813700  0.38058600  1
  Li  Li4  1  0.40076100  0.69927000  0.80287900  1
  Li  Li5  1  0.79920000  0.90074300  0.59711800  1
  Mn  Mn0  1  0.01210400  0.99879300  0.01071500  1
  Mn  Mn1  1  0.18791700  0.60120100  0.38927700  1
  Co  Co0  1  0.79003400  0.39843500  0.59826000  1
  Co  Co1  1  0.40995500  0.20156800  0.80174800  1
  O  O0  1  0.51713500  0.22432100  0.99924300  1
  O  O1  1  0.68285600  0.37565800  0.40074800  1
  O  O2  1  0.09386100  0.04626800  0.18459500  1
  O  O3  1  0.10614500  0.55375700  0.21540200  1
  O  O4  1  0.88526500  0.43471900  0.79816900  1
  O  O5  1  0.31467800  0.16530300  0.60183700  1
  O  O6  1  0.26875500  0.63070300  0.58929300  1
  O  O7  1  0.93126400  0.96928200  0.81069600  1
  O  O8  1  0.70170300  0.82188200  0.40057200  1
  O  O9  1  0.49833900  0.77808000  0.99944000  1
loop_
_geom_bond_atom_site_label_1
_geom_bond_atom_site_label_2
_geom_bond_distance
_geom_bond_site_symmetry_2
Li0 O2 2.046755 1_555
Li0 O3 2.046773 1_655
Li0 O1 2.094212 1_555
Li0 O0 2.094290 1_554
Li0 O2 2.101559 1_655
Li0 O3 2.101755 1_555
Li1 O2 2.051157 1_665
Li1 O3 2.051213 1_555
Li1 O9 2.092570 1_554
Li1 O8 2.092636 1_555
Li1 O3 2.097623 1_655
Li1 O2 2.097781 1_565
Li2 O3 2.038871 1_555
Li2 O9 2.135719 1_554
Li2 O0 2.165045 1_454
Li2 O9 2.202497 1_454
Li2 O0 2.276003 1_554
Li2 O4 2.306178 1_454
Li3 O2 2.038966 1_555
Li3 O8 2.135805 1_445
Li3 O1 2.164963 1_555
Li3 O8 2.202842 1_545
Li3 O1 2.275828 1_455
Li3 O5 2.306180 1_555
Li4 O9 2.052549 1_555
Li4 O7 2.121206 1_455
Li4 O4 2.125624 1_555
Li4 O4 2.125927 1_455
Li4 O7 2.173499 1_555
Li4 O6 2.225562 1_555
Li5 O8 2.052421 1_555
Li5 O6 2.121446 1_655
Li5 O5 2.125700 1_565
Li5 O5 2.125915 1_665
Li5 O6 2.173489 1_555
Li5 O7 2.225479 1_555
Mn0 O2 1.808844 1_565
Mn0 O9 1.935556 1_454
Mn0 O9 1.946058 1_554
Mn0 O0 1.979907 1_564
Mn0 O0 1.984497 1_464
Mn0 O7 2.083972 1_454
Mn1 O3 1.808789 1_555
Mn1 O8 1.935453 1_555
Mn1 O8 1.945897 1_455
Mn1 O1 1.980027 1_455
Mn1 O1 1.984495 1_555
Mn1 O6 2.083943 1_555
Co0 O5 1.930501 1_555
Co0 O6 1.946171 1_655
Co0 O1 2.060567 1_555
Co0 O6 2.066749 1_555
Co0 O5 2.075771 1_655
Co0 O4 2.080740 1_555
Co1 O4 1.930491 1_555
Co1 O7 1.946137 1_445
Co1 O0 2.060400 1_555
Co1 O7 2.066878 1_545
Co1 O4 2.075947 1_455
Co1 O5 2.080766 1_555
