# generated using pymatgen
data_Be12Au
_symmetry_space_group_name_H-M   'P 1'
_cell_length_a   5.60306649
_cell_length_b   5.60306649
_cell_length_c   5.60306649
_cell_angle_alpha   98.40945793
_cell_angle_beta   98.40945793
_cell_angle_gamma   135.03246623
_symmetry_Int_Tables_number   1
_chemical_formula_structural   Be12Au
_chemical_formula_sum   'Be12 Au1'
_cell_volume   114.86359195
_cell_formula_units_Z   1
loop_
 _symmetry_equiv_pos_site_id
 _symmetry_equiv_pos_as_xyz
  1  'x, y, z'
loop_
 _atom_site_type_symbol
 _atom_site_label
 _atom_site_symmetry_multiplicity
 _atom_site_fract_x
 _atom_site_fract_y
 _atom_site_fract_z
 _atom_site_occupancy
  Be  Be0  1  0.00000000  0.00000000  0.50000000  1
  Be  Be1  1  0.50000000  0.00000000  0.00000000  1
  Be  Be2  1  0.00000000  0.50000000  0.00000000  1
  Be  Be3  1  0.50000000  0.50000000  0.50000000  1
  Be  Be4  1  0.64875800  0.00000000  0.64875800  1
  Be  Be5  1  0.00000000  0.64875800  0.64875800  1
  Be  Be6  1  0.00000000  0.35124200  0.35124200  1
  Be  Be7  1  0.35124200  0.00000000  0.35124200  1
  Be  Be8  1  0.73543800  0.50000000  0.23543800  1
  Be  Be9  1  0.50000000  0.73543800  0.23543800  1
  Be  Be10  1  0.50000000  0.26456200  0.76456200  1
  Be  Be11  1  0.26456200  0.50000000  0.76456200  1
  Au  Au0  1  0.00000000  0.00000000  0.00000000  1
loop_
_geom_bond_atom_site_label_1
_geom_bond_atom_site_label_2
_geom_bond_distance
_geom_bond_site_symmetry_2
Be0 Be11 2.123576 1_555
Be0 Be8 2.123576 1_445
Be0 Be9 2.123576 1_445
Be0 Be10 2.123576 1_555
Be0 Be3 2.142734 1_445
Be0 Be3 2.142734 1_555
Be0 Be6 2.246701 1_555
Be0 Be7 2.246701 1_555
Be0 Be5 2.246701 1_545
Be0 Be4 2.246701 1_455
Be1 Be8 2.123576 1_555
Be1 Be11 2.123576 1_544
Be1 Be10 2.123576 1_554
Be1 Be9 2.123576 1_545
Be1 Be2 2.142734 1_545
Be1 Be2 2.142734 1_655
Be1 Be6 2.246701 1_655
Be1 Be7 2.246701 1_555
Be1 Be4 2.246701 1_554
Be1 Be5 2.246701 1_544
Be2 Be9 2.123576 1_555
Be2 Be8 2.123576 1_455
Be2 Be6 2.246701 1_555
Be2 Be7 2.246701 1_565
Be2 Be4 2.246701 1_454
Be2 Be5 2.246701 1_554
Be3 Be8 2.123576 1_555
Be3 Be9 2.123576 1_555
Be3 Be6 2.246701 1_555
Be3 Be4 2.246701 1_565
Be3 Be5 2.246701 1_655
Be3 Be7 2.246701 1_555
Be4 Be7 2.178299 1_555
Be4 Be9 2.222229 1_545
Be5 Be6 2.178299 1_555
Be5 Be8 2.222229 1_455
Be6 Be8 2.222229 1_455
Be6 Be9 2.304386 1_555
Be6 Be9 2.304386 1_445
Be7 Be9 2.222229 1_545
Be7 Be8 2.304386 1_555
Be7 Be8 2.304386 1_445
Be8 Be9 2.437803 1_555
Be10 Be3 2.123576 1_555
Be10 Be2 2.123576 1_656
Be10 Be4 2.222229 1_555
Be10 Be7 2.222229 1_555
Be10 Be5 2.304386 1_545
Be10 Be5 2.304386 1_655
Be10 Be11 2.437803 1_555
Be10 Be8 2.437803 1_556
Be11 Be3 2.123576 1_555
Be11 Be2 2.123576 1_556
Be11 Be6 2.222229 1_555
Be11 Be5 2.222229 1_555
Be11 Be4 2.304386 1_455
Be11 Be4 2.304386 1_565
Be11 Be9 2.437803 1_556
Au0 Be7 2.571660 1_555
Au0 Be6 2.571660 1_555
Au0 Be4 2.571660 1_454
Au0 Be5 2.571660 1_544
Au0 Be10 2.750046 1_554
Au0 Be10 2.750046 1_444
Au0 Be9 2.750046 1_445
Au0 Be11 2.750046 1_554
Au0 Be8 2.750046 1_445
Au0 Be11 2.750046 1_444
Au0 Be8 2.750046 1_555
Au0 Be9 2.750046 1_555
Au0 Be1 2.801533 1_555
Au0 Be3 2.801533 1_444
Au0 Be0 2.801533 1_554
Au0 Be3 2.801533 1_555
Au0 Be2 2.801533 1_555
Au0 Be2 2.801533 1_545
Au0 Be1 2.801533 1_455
Au0 Be0 2.801533 1_555
