# generated using pymatgen
data_KCo2(MoO5)2
_symmetry_space_group_name_H-M   'P 1'
_cell_length_a   5.91806061
_cell_length_b   5.91806061
_cell_length_c   8.55022363
_cell_angle_alpha   67.14776485
_cell_angle_beta   67.14776485
_cell_angle_gamma   61.23633514
_symmetry_Int_Tables_number   1
_chemical_formula_structural   KCo2(MoO5)2
_chemical_formula_sum   'K1 Co2 Mo2 O10'
_cell_volume   234.25922069
_cell_formula_units_Z   1
loop_
 _symmetry_equiv_pos_site_id
 _symmetry_equiv_pos_as_xyz
  1  'x, y, z'
loop_
 _atom_site_type_symbol
 _atom_site_label
 _atom_site_symmetry_multiplicity
 _atom_site_fract_x
 _atom_site_fract_y
 _atom_site_fract_z
 _atom_site_occupancy
  K  K0  1  0.50000000  0.50000000  0.50000000  1
  Co  Co0  1  0.00000000  0.50000000  0.00000000  1
  Co  Co1  1  0.50000000  0.00000000  0.00000000  1
  Mo  Mo0  1  0.06951500  0.06951500  0.74415100  1
  Mo  Mo1  1  0.93048500  0.93048500  0.25584900  1
  O  O0  1  0.19226800  0.71213300  0.78656300  1
  O  O1  1  0.71213300  0.19226800  0.78656300  1
  O  O2  1  0.80773200  0.28786700  0.21343700  1
  O  O3  1  0.28786700  0.80773200  0.21343700  1
  O  O4  1  0.17330700  0.17330700  0.87639000  1
  O  O5  1  0.82669300  0.82669300  0.12361000  1
  O  O6  1  0.30133200  0.30133200  0.07611400  1
  O  O7  1  0.69866800  0.69866800  0.92388600  1
  O  O8  1  0.19257400  0.19257400  0.52216800  1
  O  O9  1  0.80742600  0.80742600  0.47783200  1
loop_
_geom_bond_atom_site_label_1
_geom_bond_atom_site_label_2
_geom_bond_distance
_geom_bond_site_symmetry_2
K0 O2 2.760268 1_555
K0 O1 2.760268 1_555
K0 O3 2.760268 1_555
K0 O0 2.760268 1_555
K0 O8 3.050580 1_555
K0 O9 3.050580 1_555
Co0 O6 1.809782 1_555
Co0 O7 1.809782 1_454
Co0 O2 2.045383 1_455
Co0 O0 2.045383 1_554
Co0 O4 2.178011 1_554
Co0 O5 2.178011 1_455
Co1 O6 1.809782 1_555
Co1 O7 1.809782 1_544
Co1 O1 2.045383 1_554
Co1 O3 2.045383 1_545
Co1 O4 2.178011 1_554
Co1 O5 2.178011 1_545
Mo0 O8 1.739648 1_555
Mo0 O0 1.806299 1_545
Mo0 O1 1.806299 1_455
Mo0 O4 1.864137 1_555
Mo1 O9 1.739648 1_555
Mo1 O2 1.806299 1_565
Mo1 O3 1.806299 1_655
Mo1 O5 1.864137 1_555
