# generated using pymatgen
data_Ba4Ti(CuO3)3
_symmetry_space_group_name_H-M   'P 1'
_cell_length_a   7.97374000
_cell_length_b   7.97374000
_cell_length_c   7.97374000
_cell_angle_alpha   90.00000000
_cell_angle_beta   90.00000000
_cell_angle_gamma   90.00000000
_symmetry_Int_Tables_number   1
_chemical_formula_structural   Ba4Ti(CuO3)3
_chemical_formula_sum   'Ba8 Ti2 Cu6 O18'
_cell_volume   506.97461199
_cell_formula_units_Z   2
loop_
 _symmetry_equiv_pos_site_id
 _symmetry_equiv_pos_as_xyz
  1  'x, y, z'
loop_
 _atom_site_type_symbol
 _atom_site_label
 _atom_site_symmetry_multiplicity
 _atom_site_fract_x
 _atom_site_fract_y
 _atom_site_fract_z
 _atom_site_occupancy
  Ba  Ba0  1  0.25000000  0.25000000  0.25000000  1
  Ba  Ba1  1  0.75000000  0.75000000  0.25000000  1
  Ba  Ba2  1  0.75000000  0.25000000  0.75000000  1
  Ba  Ba3  1  0.25000000  0.75000000  0.75000000  1
  Ba  Ba4  1  0.25000000  0.75000000  0.25000000  1
  Ba  Ba5  1  0.75000000  0.25000000  0.25000000  1
  Ba  Ba6  1  0.25000000  0.25000000  0.75000000  1
  Ba  Ba7  1  0.75000000  0.75000000  0.75000000  1
  Ti  Ti0  1  0.50000000  0.50000000  0.50000000  1
  Ti  Ti1  1  0.00000000  0.00000000  0.00000000  1
  Cu  Cu0  1  0.50000000  0.00000000  0.50000000  1
  Cu  Cu1  1  0.50000000  0.00000000  0.00000000  1
  Cu  Cu2  1  0.00000000  0.50000000  0.00000000  1
  Cu  Cu3  1  0.00000000  0.00000000  0.50000000  1
  Cu  Cu4  1  0.50000000  0.50000000  0.00000000  1
  Cu  Cu5  1  0.00000000  0.50000000  0.50000000  1
  O  O0  1  0.00000000  0.50000000  0.25000000  1
  O  O1  1  0.50000000  0.50000000  0.24636500  1
  O  O2  1  0.24636500  0.50000000  0.50000000  1
  O  O3  1  0.50000000  0.75000000  0.00000000  1
  O  O4  1  0.25000000  0.00000000  0.50000000  1
  O  O5  1  0.75000000  0.00000000  0.50000000  1
  O  O6  1  0.50000000  0.25000000  0.00000000  1
  O  O7  1  0.00000000  0.00000000  0.25363500  1
  O  O8  1  0.00000000  0.00000000  0.74636500  1
  O  O9  1  0.00000000  0.25363500  0.00000000  1
  O  O10  1  0.50000000  0.75363500  0.50000000  1
  O  O11  1  0.25363500  0.00000000  0.00000000  1
  O  O12  1  0.74636500  0.00000000  0.00000000  1
  O  O13  1  0.50000000  0.24636500  0.50000000  1
  O  O14  1  0.00000000  0.50000000  0.75000000  1
  O  O15  1  0.50000000  0.50000000  0.75363500  1
  O  O16  1  0.75363500  0.50000000  0.50000000  1
  O  O17  1  0.00000000  0.74636500  0.00000000  1
loop_
_geom_bond_atom_site_label_1
_geom_bond_atom_site_label_2
_geom_bond_distance
_geom_bond_site_symmetry_2
Ba0 O0 2.819143 1_555
Ba0 O4 2.819143 1_555
Ba0 O6 2.819143 1_555
Ba0 O11 2.819292 1_555
Ba0 O1 2.819292 1_555
Ba0 O7 2.819292 1_555
Ba0 O9 2.819292 1_555
Ba0 O13 2.819292 1_555
Ba0 O2 2.819292 1_555
Ba1 O5 2.819143 1_565
Ba1 O3 2.819143 1_555
Ba1 O0 2.819143 1_655
Ba1 O1 2.819292 1_555
Ba1 O7 2.819292 1_665
Ba1 O17 2.819292 1_655
Ba1 O16 2.819292 1_555
Ba1 O10 2.819292 1_555
Ba1 O12 2.819292 1_565
Ba2 O5 2.819143 1_555
Ba2 O14 2.819143 1_655
Ba2 O6 2.819143 1_556
Ba2 O9 2.819292 1_656
Ba2 O15 2.819292 1_555
Ba2 O12 2.819292 1_556
Ba2 O8 2.819292 1_655
Ba2 O16 2.819292 1_555
Ba2 O13 2.819292 1_555
Ba3 O3 2.819143 1_556
Ba3 O4 2.819143 1_565
Ba3 O14 2.819143 1_555
Ba3 O17 2.819292 1_556
Ba3 O15 2.819292 1_555
Ba3 O11 2.819292 1_566
Ba3 O8 2.819292 1_565
Ba3 O10 2.819292 1_555
Ba3 O2 2.819292 1_555
Ba4 O0 2.819143 1_555
Ba4 O3 2.819143 1_555
Ba4 O4 2.819143 1_565
Ba4 O17 2.819292 1_555
Ba4 O7 2.819292 1_565
Ba4 O1 2.819292 1_555
Ba4 O11 2.819292 1_565
Ba4 O10 2.819292 1_555
Ba4 O2 2.819292 1_555
Ba5 O5 2.819143 1_555
Ba5 O0 2.819143 1_655
Ba5 O6 2.819143 1_555
Ba5 O9 2.819292 1_655
Ba5 O1 2.819292 1_555
Ba5 O7 2.819292 1_655
Ba5 O12 2.819292 1_555
Ba5 O16 2.819292 1_555
Ba5 O13 2.819292 1_555
Ba6 O4 2.819143 1_555
Ba6 O6 2.819143 1_556
Ba6 O14 2.819143 1_555
Ba6 O11 2.819292 1_556
Ba6 O8 2.819292 1_555
Ba6 O15 2.819292 1_555
Ba6 O9 2.819292 1_556
Ba6 O13 2.819292 1_555
Ba6 O2 2.819292 1_555
Ba7 O14 2.819143 1_655
Ba7 O5 2.819143 1_565
Ba7 O3 2.819143 1_556
Ba7 O15 2.819292 1_555
Ba7 O17 2.819292 1_656
Ba7 O12 2.819292 1_566
Ba7 O16 2.819292 1_555
Ba7 O10 2.819292 1_555
Ba7 O8 2.819292 1_665
Cu0 O13 1.964450 1_555
Cu0 O10 1.964450 1_545
Cu0 O5 1.993435 1_555
Cu0 O4 1.993435 1_555
Cu1 O12 1.964450 1_555
Cu1 O11 1.964450 1_555
Cu1 O3 1.993435 1_545
Cu1 O6 1.993435 1_555
Cu2 O17 1.964450 1_555
Cu2 O9 1.964450 1_555
Cu2 O14 1.993435 1_554
Cu2 O0 1.993435 1_555
Cu3 O8 1.964450 1_555
Cu3 O7 1.964450 1_555
Cu3 O5 1.993435 1_455
Cu3 O4 1.993435 1_555
Cu4 O1 1.964450 1_555
Cu4 O15 1.964450 1_554
Cu4 O6 1.993435 1_555
Cu4 O3 1.993435 1_555
Cu5 O2 1.964450 1_555
Cu5 O16 1.964450 1_455
Cu5 O14 1.993435 1_555
Cu5 O0 1.993435 1_555
O1 Ti0 2.022420 1_555
O2 Ti0 2.022420 1_555
O7 Ti1 2.022420 1_555
O8 Ti1 2.022420 1_556
O9 Ti1 2.022420 1_555
O10 Ti0 2.022420 1_555
O11 Ti1 2.022420 1_555
O12 Ti1 2.022420 1_655
O13 Ti0 2.022420 1_555
O15 Ti0 2.022420 1_555
O16 Ti0 2.022420 1_555
O17 Ti1 2.022420 1_565
