# generated using pymatgen
data_Na4Er2(IrO4)3
_symmetry_space_group_name_H-M   'P 1'
_cell_length_a   9.45705846
_cell_length_b   9.45705846
_cell_length_c   3.18992300
_cell_angle_alpha   90.00000000
_cell_angle_beta   90.00000000
_cell_angle_gamma   120.00000319
_symmetry_Int_Tables_number   1
_chemical_formula_structural   Na4Er2(IrO4)3
_chemical_formula_sum   'Na4 Er2 Ir3 O12'
_cell_volume   247.07167798
_cell_formula_units_Z   1
loop_
 _symmetry_equiv_pos_site_id
 _symmetry_equiv_pos_as_xyz
  1  'x, y, z'
loop_
 _atom_site_type_symbol
 _atom_site_label
 _atom_site_symmetry_multiplicity
 _atom_site_fract_x
 _atom_site_fract_y
 _atom_site_fract_z
 _atom_site_occupancy
  Na  Na0  1  0.69963800  0.00000000  0.50000000  1
  Na  Na1  1  0.00000000  0.69963800  0.50000000  1
  Na  Na2  1  0.30036200  0.30036200  0.50000000  1
  Na  Na3  1  0.00000000  0.00000000  0.00000000  1
  Er  Er0  1  0.33333300  0.66666700  0.50000000  1
  Er  Er1  1  0.66666700  0.33333300  0.50000000  1
  Ir  Ir0  1  0.33245100  0.00000000  0.00000000  1
  Ir  Ir1  1  0.00000000  0.33245100  0.00000000  1
  Ir  Ir2  1  0.66754900  0.66754900  0.00000000  1
  O  O0  1  0.19804300  0.00000000  0.50000000  1
  O  O1  1  0.00000000  0.19804300  0.50000000  1
  O  O2  1  0.80195700  0.80195700  0.50000000  1
  O  O3  1  0.45962700  0.00000000  0.50000000  1
  O  O4  1  0.00000000  0.45962700  0.50000000  1
  O  O5  1  0.54037300  0.54037300  0.50000000  1
  O  O6  1  0.24365000  0.46339300  0.00000000  1
  O  O7  1  0.53660700  0.78025700  0.00000000  1
  O  O8  1  0.46339300  0.24365000  0.00000000  1
  O  O9  1  0.21974300  0.75635000  0.00000000  1
  O  O10  1  0.78025700  0.53660700  0.00000000  1
  O  O11  1  0.75635000  0.21974300  0.00000000  1
loop_
_geom_bond_atom_site_label_1
_geom_bond_atom_site_label_2
_geom_bond_distance
_geom_bond_site_symmetry_2
Na0 O3 2.269798 1_555
Na0 O7 2.456743 1_546
Na0 O7 2.456743 1_545
Na0 O11 2.456743 1_556
Na0 O11 2.456743 1_555
Na0 O1 2.501276 1_655
Na0 O2 2.501276 1_545
Na1 O4 2.269798 1_555
Na1 O10 2.456743 1_456
Na1 O10 2.456743 1_455
Na1 O9 2.456743 1_556
Na1 O9 2.456743 1_555
Na1 O0 2.501276 1_565
Na1 O2 2.501276 1_455
Na2 O5 2.269798 1_555
Na2 O8 2.456743 1_555
Na2 O6 2.456743 1_555
Na2 O6 2.456743 1_556
Na2 O8 2.456743 1_556
Na2 O1 2.501276 1_555
Na2 O0 2.501276 1_555
Na3 O2 2.460015 1_444
Na3 O2 2.460015 1_445
Na3 O0 2.460015 1_555
Na3 O0 2.460015 1_554
Na3 O1 2.460015 1_554
Na3 O1 2.460015 1_555
Er0 O9 2.308310 1_556
Er0 O9 2.308310 1_555
Er0 O7 2.308316 1_555
Er0 O7 2.308316 1_556
Er0 O6 2.308316 1_555
Er0 O6 2.308316 1_556
Er0 O3 2.756584 1_565
Er0 O4 2.756585 1_555
Er0 O5 2.756593 1_555
Er1 O11 2.308310 1_555
Er1 O11 2.308310 1_556
Er1 O10 2.308316 1_556
Er1 O10 2.308316 1_555
Er1 O8 2.308316 1_556
Er1 O8 2.308316 1_555
Er1 O4 2.756584 1_655
Er1 O3 2.756585 1_555
Er1 O5 2.756593 1_555
Ir0 O8 1.997368 1_555
Ir0 O9 1.997368 1_545
Ir0 O3 1.997602 1_555
Ir0 O3 1.997602 1_554
Ir0 O0 2.039512 1_555
Ir0 O0 2.039512 1_554
Ir1 O6 1.997368 1_555
Ir1 O11 1.997368 1_455
Ir1 O4 1.997602 1_554
Ir1 O4 1.997602 1_555
Ir1 O1 2.039512 1_554
Ir1 O1 2.039512 1_555
Ir2 O7 1.997368 1_555
Ir2 O10 1.997368 1_555
Ir2 O5 1.997602 1_555
Ir2 O5 1.997602 1_554
Ir2 O2 2.039512 1_555
Ir2 O2 2.039512 1_554
