# generated using pymatgen
data_TaNbC2
_symmetry_space_group_name_H-M   'P 1'
_cell_length_a   5.50328963
_cell_length_b   5.50328963
_cell_length_c   5.50328994
_cell_angle_alpha   33.49045442
_cell_angle_beta   33.49045442
_cell_angle_gamma   33.49045005
_symmetry_Int_Tables_number   1
_chemical_formula_structural   TaNbC2
_chemical_formula_sum   'Ta1 Nb1 C2'
_cell_volume   45.19835732
_cell_formula_units_Z   1
loop_
 _symmetry_equiv_pos_site_id
 _symmetry_equiv_pos_as_xyz
  1  'x, y, z'
loop_
 _atom_site_type_symbol
 _atom_site_label
 _atom_site_symmetry_multiplicity
 _atom_site_fract_x
 _atom_site_fract_y
 _atom_site_fract_z
 _atom_site_occupancy
  Ta  Ta0  1  -0.00000000  -0.00000000  0.00000000  1
  Nb  Nb0  1  0.50000000  0.50000000  0.50000000  1
  C  C0  1  0.25233862  0.25233862  0.25233862  1
  C  C1  1  0.74766138  0.74766138  0.74766138  1
loop_
_geom_bond_atom_site_label_1
_geom_bond_atom_site_label_2
_geom_bond_distance
_geom_bond_site_symmetry_2
C0 Ta0 2.223138 1_655
C0 Ta0 2.223138 1_565
C0 Ta0 2.223139 1_556
C0 Nb0 2.265239 1_545
C0 Nb0 2.265239 1_455
C0 Nb0 2.265240 1_554
C1 Ta0 2.223138 1_566
C1 Ta0 2.223138 1_656
C1 Ta0 2.223139 1_665
C1 Nb0 2.265239 1_655
C1 Nb0 2.265239 1_565
C1 Nb0 2.265240 1_556
