# generated using pymatgen
data_Mg14NiBi
_symmetry_space_group_name_H-M   'P 1'
_cell_length_a   6.27069808
_cell_length_b   6.31986419
_cell_length_c   10.27803487
_cell_angle_alpha   90.00000000
_cell_angle_beta   90.00000000
_cell_angle_gamma   120.25971127
_symmetry_Int_Tables_number   1
_chemical_formula_structural   Mg14NiBi
_chemical_formula_sum   'Mg14 Ni1 Bi1'
_cell_volume   351.82106377
_cell_formula_units_Z   1
loop_
 _symmetry_equiv_pos_site_id
 _symmetry_equiv_pos_as_xyz
  1  'x, y, z'
loop_
 _atom_site_type_symbol
 _atom_site_label
 _atom_site_symmetry_multiplicity
 _atom_site_fract_x
 _atom_site_fract_y
 _atom_site_fract_z
 _atom_site_occupancy
  Mg  Mg0  1  0.16752020  0.33375960  0.62500000  1
  Mg  Mg1  1  0.16871682  0.83435791  0.62500000  1
  Mg  Mg2  1  0.66924906  0.33563298  0.12500000  1
  Mg  Mg3  1  0.66587198  0.33137977  0.62500000  1
  Mg  Mg4  1  0.66924906  0.83361507  0.12500000  1
  Mg  Mg5  1  0.66587198  0.83449121  0.62500000  1
  Mg  Mg6  1  0.33090626  0.17605558  0.36847328  1
  Mg  Mg7  1  0.33090626  0.17605558  0.88152672  1
  Mg  Mg8  1  0.33090626  0.65485167  0.36847328  1
  Mg  Mg9  1  0.33090626  0.65485167  0.88152672  1
  Mg  Mg10  1  0.84263222  0.17131661  0.36582629  1
  Mg  Mg11  1  0.84263222  0.17131661  0.88417371  1
  Mg  Mg12  1  0.82839193  0.66419647  0.38281821  1
  Mg  Mg13  1  0.82839193  0.66419647  0.86718179  1
  Ni  Ni0  1  0.16612955  0.33306428  0.12500000  1
  Bi  Bi0  1  0.16171802  0.83085851  0.12500000  1
loop_
_geom_bond_atom_site_label_1
_geom_bond_atom_site_label_2
_geom_bond_distance
_geom_bond_site_symmetry_2
Mg0 Mg5 3.132619 1_555
Mg0 Mg3 3.132620 1_555
Mg0 Mg5 3.138132 1_445
Mg0 Mg3 3.138132 1_455
Mg0 Mg1 3.159939 1_555
Mg0 Mg1 3.159939 1_545
Mg0 Mg6 3.166036 1_555
Mg0 Mg7 3.166036 1_555
Mg0 Mg8 3.166042 1_555
Mg0 Mg9 3.166042 1_555
Mg0 Mg10 3.192545 1_455
Mg0 Mg11 3.192545 1_455
Mg1 Mg12 3.097364 1_455
Mg1 Mg13 3.097364 1_455
Mg1 Mg3 3.117085 1_565
Mg1 Mg5 3.117085 1_555
Mg1 Mg3 3.153613 1_455
Mg1 Mg5 3.153613 1_455
Mg1 Mg9 3.230450 1_555
Mg1 Mg8 3.230450 1_555
Mg1 Mg6 3.230456 1_565
Mg1 Mg7 3.230456 1_565
Mg2 Mg7 3.102279 1_554
Mg2 Mg6 3.102279 1_555
Mg2 Ni0 3.124000 1_655
Mg2 Ni0 3.146761 1_555
Mg2 Mg4 3.147179 1_555
Mg2 Mg4 3.172685 1_545
Mg3 Mg5 3.140268 1_545
Mg3 Mg5 3.179596 1_555
Mg3 Mg6 3.201426 1_555
Mg3 Mg7 3.201426 1_555
Mg4 Mg9 3.102279 1_554
Mg4 Mg8 3.102279 1_555
Mg4 Ni0 3.123999 1_665
Mg4 Ni0 3.146761 1_555
Mg5 Mg8 3.201425 1_555
Mg5 Mg9 3.201425 1_555
Mg6 Mg8 3.025926 1_555
Mg6 Ni0 3.057402 1_555
Mg6 Mg8 3.293938 1_545
Mg7 Mg9 3.025926 1_555
Mg7 Ni0 3.057402 1_556
Mg7 Mg9 3.293938 1_545
Mg8 Ni0 3.057408 1_555
Mg9 Ni0 3.057408 1_556
Mg10 Ni0 3.032622 1_655
Mg10 Mg8 3.046958 1_655
Mg10 Mg6 3.046958 1_655
Mg10 Mg2 3.086274 1_555
Mg10 Mg4 3.086280 1_545
Mg10 Mg12 3.165694 1_545
Mg10 Mg12 3.165694 1_555
Mg10 Mg8 3.224190 1_545
Mg10 Mg6 3.224190 1_555
Mg10 Mg3 3.236929 1_555
Mg10 Mg5 3.236935 1_545
Mg11 Ni0 3.032622 1_656
Mg11 Mg9 3.046958 1_655
Mg11 Mg7 3.046958 1_655
Mg11 Mg2 3.086274 1_556
Mg11 Mg4 3.086280 1_546
Mg11 Mg13 3.165694 1_545
Mg11 Mg13 3.165694 1_555
Mg11 Mg9 3.224190 1_545
Mg11 Mg7 3.224190 1_555
Mg11 Mg3 3.236929 1_555
Mg11 Mg5 3.236935 1_545
Mg12 Mg5 3.081911 1_555
Mg12 Mg3 3.081918 1_555
Mg12 Mg6 3.093758 1_555
Mg12 Mg8 3.093758 1_555
Mg12 Mg6 3.184699 1_665
Mg12 Mg8 3.184700 1_655
Mg12 Mg4 3.200146 1_555
Mg12 Mg2 3.200152 1_555
Mg13 Mg5 3.081911 1_555
Mg13 Mg3 3.081918 1_555
Mg13 Mg7 3.093758 1_555
Mg13 Mg9 3.093758 1_555
Mg13 Mg7 3.184699 1_665
Mg13 Mg9 3.184700 1_655
Mg13 Mg4 3.200146 1_556
Mg13 Mg2 3.200152 1_556
Bi0 Mg2 3.096939 1_455
Bi0 Mg4 3.096940 1_455
Bi0 Mg9 3.132790 1_554
Bi0 Mg8 3.132790 1_555
Bi0 Mg7 3.132797 1_564
Bi0 Mg6 3.132797 1_565
Bi0 Ni0 3.160022 1_555
Bi0 Ni0 3.160022 1_565
Bi0 Mg2 3.173830 1_565
Bi0 Mg4 3.173831 1_555
Bi0 Mg13 3.206439 1_454
Bi0 Mg12 3.206439 1_455
