# generated using pymatgen
data_Ba2PrBiO6
_symmetry_space_group_name_H-M   'P 1'
_cell_length_a   6.25906932
_cell_length_b   6.25906932
_cell_length_c   6.31072258
_cell_angle_alpha   60.03861366
_cell_angle_beta   60.03861366
_cell_angle_gamma   60.12858220
_symmetry_Int_Tables_number   1
_chemical_formula_structural   Ba2PrBiO6
_chemical_formula_sum   'Ba2 Pr1 Bi1 O6'
_cell_volume   175.08848625
_cell_formula_units_Z   1
loop_
 _symmetry_equiv_pos_site_id
 _symmetry_equiv_pos_as_xyz
  1  'x, y, z'
loop_
 _atom_site_type_symbol
 _atom_site_label
 _atom_site_symmetry_multiplicity
 _atom_site_fract_x
 _atom_site_fract_y
 _atom_site_fract_z
 _atom_site_occupancy
  Ba  Ba0  1  0.75157600  0.75157600  0.74173700  1
  Ba  Ba1  1  0.24842400  0.24842400  0.25826300  1
  Pr  Pr0  1  0.00000000  0.00000000  0.00000000  1
  Bi  Bi0  1  0.50000000  0.50000000  0.50000000  1
  O  O0  1  0.73735600  0.73735600  0.19315800  1
  O  O1  1  0.26264400  0.26264400  0.80684200  1
  O  O2  1  0.70189300  0.22218600  0.30137100  1
  O  O3  1  0.29810700  0.77781400  0.69862900  1
  O  O4  1  0.77781400  0.29810700  0.69862900  1
  O  O5  1  0.22218600  0.70189300  0.30137100  1
loop_
_geom_bond_atom_site_label_1
_geom_bond_atom_site_label_2
_geom_bond_distance
_geom_bond_site_symmetry_2
Ba0 O0 2.762759 1_556
Ba0 O5 2.875867 1_655
Ba0 O2 2.875867 1_565
Ba0 O3 2.901585 1_555
Ba0 O4 2.901585 1_555
Ba0 O1 3.173661 1_565
Ba0 O1 3.173661 1_655
Ba1 O1 2.762759 1_554
Ba1 O3 2.875867 1_545
Ba1 O4 2.875867 1_455
Ba1 O5 2.901585 1_555
Ba1 O2 2.901585 1_555
Ba1 O0 3.173661 1_545
Ba1 O0 3.173661 1_455
Bi0 O3 2.144268 1_555
Bi0 O4 2.144268 1_555
Bi0 O5 2.144268 1_555
Bi0 O2 2.144268 1_555
Bi0 O0 2.148372 1_555
Bi0 O1 2.148372 1_555
O0 Pr0 2.362118 1_665
O1 Pr0 2.362118 1_556
O2 Pr0 2.354810 1_655
O3 Pr0 2.354810 1_566
O4 Pr0 2.354810 1_656
O5 Pr0 2.354810 1_565
