# generated using pymatgen
data_KAl3(SiO4)3
_symmetry_space_group_name_H-M   'P 1'
_cell_length_a   5.29912464
_cell_length_b   5.29912464
_cell_length_c   20.59165109
_cell_angle_alpha   86.73895504
_cell_angle_beta   86.73895504
_cell_angle_gamma   119.95103587
_symmetry_Int_Tables_number   1
_chemical_formula_structural   KAl3(SiO4)3
_chemical_formula_sum   'K2 Al6 Si6 O24'
_cell_volume   497.75921154
_cell_formula_units_Z   2
loop_
 _symmetry_equiv_pos_site_id
 _symmetry_equiv_pos_as_xyz
  1  'x, y, z'
loop_
 _atom_site_type_symbol
 _atom_site_label
 _atom_site_symmetry_multiplicity
 _atom_site_fract_x
 _atom_site_fract_y
 _atom_site_fract_z
 _atom_site_occupancy
  K  K0  1  0.10289900  0.90775500  0.73922000  1
  K  K1  1  0.90775500  0.10289900  0.23922000  1
  Al  Al0  1  0.80597600  0.62525600  0.50287200  1
  Al  Al1  1  0.36716100  0.18159600  0.00307800  1
  Al  Al2  1  0.18159600  0.36716100  0.50307800  1
  Al  Al3  1  0.62525600  0.80597600  0.00287200  1
  Al  Al4  1  0.46201300  0.61218300  0.63523900  1
  Al  Al5  1  0.61218300  0.46201300  0.13523900  1
  Si  Si0  1  0.39189300  0.53677600  0.86637800  1
  Si  Si1  1  0.53677600  0.39189300  0.36637800  1
  Si  Si2  1  0.80465400  0.29584900  0.63743100  1
  Si  Si3  1  0.70545800  0.19185400  0.86665000  1
  Si  Si4  1  0.19185400  0.70545800  0.36665000  1
  Si  Si5  1  0.29584900  0.80465400  0.13743100  1
  O  O0  1  0.70000900  0.51001700  0.66789800  1
  O  O1  1  0.53199500  0.34847100  0.83439700  1
  O  O2  1  0.34847100  0.53199500  0.33439700  1
  O  O3  1  0.51001700  0.70000900  0.16789800  1
  O  O4  1  0.54897600  0.95924500  0.65609200  1
  O  O5  1  0.05776800  0.40832100  0.84464000  1
  O  O6  1  0.40832100  0.05776900  0.34464000  1
  O  O7  1  0.95924500  0.54897600  0.15609200  1
  O  O8  1  0.88216200  0.38047400  0.55601400  1
  O  O9  1  0.61738000  0.12177600  0.94523500  1
  O  O10  1  0.12177600  0.61738000  0.44523500  1
  O  O11  1  0.38047400  0.88216200  0.05601400  1
  O  O12  1  0.10382200  0.35726700  0.66884300  1
  O  O13  1  0.59338000  0.88025400  0.83333200  1
  O  O14  1  0.88025400  0.59338000  0.33333200  1
  O  O15  1  0.35726700  0.10382200  0.16884300  1
  O  O16  1  0.06712100  0.98304600  0.53183100  1
  O  O17  1  0.01456400  0.94360400  0.96576300  1
  O  O18  1  0.94360400  0.01456400  0.46576300  1
  O  O19  1  0.98304600  0.06712100  0.03183100  1
  O  O20  1  0.47911000  0.57789900  0.55061900  1
  O  O21  1  0.41404800  0.52796600  0.94446800  1
  O  O22  1  0.52796600  0.41404800  0.44446800  1
  O  O23  1  0.57789900  0.47911000  0.05061900  1
loop_
_geom_bond_atom_site_label_1
_geom_bond_atom_site_label_2
_geom_bond_distance
_geom_bond_site_symmetry_2
K0 O12 2.714588 1_565
K0 O0 2.715323 1_455
K0 O4 2.726655 1_555
K0 O13 3.169619 1_455
K0 O1 3.192294 1_565
K0 O5 3.229405 1_555
K1 O15 2.714588 1_655
K1 O3 2.715323 1_545
K1 O7 2.726655 1_555
K1 O14 3.169619 1_545
K1 O2 3.192294 1_655
K1 O6 3.229407 1_555
Al0 O20 1.836837 1_555
Al0 O8 1.858672 1_555
Al0 O16 1.862255 1_655
Al0 O22 1.891463 1_555
Al0 O18 1.904376 1_565
Al0 O10 2.015000 1_655
Al1 O23 1.798041 1_555
Al1 O19 1.857630 1_455
Al1 O9 1.886864 1_554
Al1 O17 1.895442 1_544
Al1 O11 1.906475 1_545
Al1 O21 2.036097 1_554
Al2 O20 1.798041 1_555
Al2 O16 1.857630 1_545
Al2 O10 1.886864 1_555
Al2 O18 1.895442 1_455
Al2 O8 1.906475 1_455
Al2 O22 2.036097 1_555
Al3 O23 1.836837 1_555
Al3 O11 1.858672 1_555
Al3 O19 1.862255 1_565
Al3 O21 1.891463 1_554
Al3 O17 1.904376 1_654
Al3 O9 2.015000 1_564
Al4 O4 1.745056 1_555
Al4 O0 1.752929 1_555
Al4 O12 1.757939 1_555
Al4 O20 1.764055 1_555
Al5 O7 1.745056 1_555
Al5 O3 1.752929 1_555
Al5 O15 1.757939 1_555
Al5 O23 1.764055 1_555
O0 Si2 1.630619 1_555
O1 Si0 1.655123 1_555
O1 Si3 1.656291 1_555
O2 Si1 1.655123 1_555
O2 Si4 1.656291 1_555
O3 Si5 1.630619 1_555
O4 Si2 1.616977 1_565
O5 Si3 1.647084 1_455
O5 Si0 1.649250 1_555
O6 Si4 1.647088 1_545
O6 Si1 1.649246 1_555
O7 Si5 1.616977 1_655
O8 Si2 1.683060 1_555
O9 Si3 1.626941 1_555
O10 Si4 1.626941 1_555
O11 Si5 1.683060 1_555
O12 Si2 1.631867 1_455
O13 Si3 1.657086 1_565
O13 Si0 1.658874 1_555
O14 Si4 1.657086 1_655
O14 Si1 1.658874 1_555
O15 Si5 1.631867 1_545
O16 O18 1.578525 1_465
O17 O19 1.578525 1_466
O21 Si0 1.618655 1_555
O22 Si1 1.618655 1_555
