# generated using pymatgen
data_HfCo3
_symmetry_space_group_name_H-M   'P 1'
_cell_length_a   5.33402238
_cell_length_b   5.33402238
_cell_length_c   4.24098500
_cell_angle_alpha   90.00000000
_cell_angle_beta   90.00000000
_cell_angle_gamma   120.00000477
_symmetry_Int_Tables_number   1
_chemical_formula_structural   HfCo3
_chemical_formula_sum   'Hf2 Co6'
_cell_volume   104.49776816
_cell_formula_units_Z   2
loop_
 _symmetry_equiv_pos_site_id
 _symmetry_equiv_pos_as_xyz
  1  'x, y, z'
loop_
 _atom_site_type_symbol
 _atom_site_label
 _atom_site_symmetry_multiplicity
 _atom_site_fract_x
 _atom_site_fract_y
 _atom_site_fract_z
 _atom_site_occupancy
  Hf  Hf0  1  0.33333300  0.66666700  0.75000000  1
  Hf  Hf1  1  0.66666700  0.33333300  0.25000000  1
  Co  Co0  1  0.15493900  0.30987700  0.25000000  1
  Co  Co1  1  0.69012300  0.84506100  0.25000000  1
  Co  Co2  1  0.15493900  0.84506100  0.25000000  1
  Co  Co3  1  0.84506100  0.69012300  0.75000000  1
  Co  Co4  1  0.30987700  0.15493900  0.75000000  1
  Co  Co5  1  0.84506100  0.15493900  0.75000000  1
loop_
_geom_bond_atom_site_label_1
_geom_bond_atom_site_label_2
_geom_bond_distance
_geom_bond_site_symmetry_2
Co0 Co1 2.479339 1_445
Co0 Co2 2.479339 1_545
Co0 Co4 2.558420 1_555
Co0 Co4 2.558420 1_554
Co0 Co5 2.558425 1_455
Co0 Co5 2.558425 1_454
Co0 Hf1 2.669211 1_555
Co0 Hf1 2.669211 1_455
Co0 Hf0 2.685685 1_555
Co0 Hf0 2.685685 1_554
Co0 Co1 2.854683 1_555
Co0 Co2 2.854683 1_555
Co1 Co2 2.479339 1_655
Co1 Co3 2.558420 1_555
Co1 Co3 2.558420 1_554
Co1 Co5 2.558425 1_565
Co1 Co5 2.558425 1_564
Co1 Hf1 2.669211 1_555
Co1 Hf1 2.669211 1_565
Co1 Hf0 2.685685 1_555
Co1 Hf0 2.685685 1_554
Co1 Co2 2.854683 1_555
Co2 Co3 2.558425 1_455
Co2 Co4 2.558425 1_565
Co2 Co3 2.558425 1_454
Co2 Co4 2.558425 1_564
Co2 Hf1 2.669211 1_455
Co2 Hf1 2.669211 1_565
Co2 Hf0 2.685679 1_555
Co2 Hf0 2.685679 1_554
Co3 Co4 2.479339 1_665
Co3 Co5 2.479339 1_565
Co3 Hf0 2.669211 1_555
Co3 Hf0 2.669211 1_655
Co3 Hf1 2.685685 1_555
Co3 Hf1 2.685685 1_556
Co3 Co4 2.854683 1_555
Co3 Co5 2.854683 1_555
Co4 Co5 2.479339 1_455
Co4 Hf0 2.669211 1_555
Co4 Hf0 2.669211 1_545
Co4 Hf1 2.685685 1_555
Co4 Hf1 2.685685 1_556
Co4 Co5 2.854683 1_555
Co5 Hf0 2.669211 1_655
Co5 Hf0 2.669211 1_545
Co5 Hf1 2.685679 1_556
Co5 Hf1 2.685679 1_555
