# generated using pymatgen
data_Si4MoO10
_symmetry_space_group_name_H-M   'P 1'
_cell_length_a   7.55614900
_cell_length_b   7.55614900
_cell_length_c   15.77303200
_cell_angle_alpha   90.00000000
_cell_angle_beta   90.00000000
_cell_angle_gamma   90.00000000
_symmetry_Int_Tables_number   1
_chemical_formula_structural   Si4MoO10
_chemical_formula_sum   'Si16 Mo4 O40'
_cell_volume   900.56737741
_cell_formula_units_Z   4
loop_
 _symmetry_equiv_pos_site_id
 _symmetry_equiv_pos_as_xyz
  1  'x, y, z'
loop_
 _atom_site_type_symbol
 _atom_site_label
 _atom_site_symmetry_multiplicity
 _atom_site_fract_x
 _atom_site_fract_y
 _atom_site_fract_z
 _atom_site_occupancy
  Si  Si0  1  0.16916400  0.25915300  0.65154700  1
  Si  Si1  1  0.83083600  0.74084700  0.65154700  1
  Si  Si2  1  0.25915300  0.16916400  0.84845300  1
  Si  Si3  1  0.75915300  0.33083600  0.65154700  1
  Si  Si4  1  0.24084700  0.66916400  0.65154700  1
  Si  Si5  1  0.33083600  0.75915300  0.84845300  1
  Si  Si6  1  0.66916400  0.24084700  0.84845300  1
  Si  Si7  1  0.74084700  0.83083600  0.84845300  1
  Si  Si8  1  0.33083600  0.24084700  0.34845300  1
  Si  Si9  1  0.66916400  0.75915300  0.34845300  1
  Si  Si10  1  0.24084700  0.33083600  0.15154700  1
  Si  Si11  1  0.74084700  0.16916400  0.34845300  1
  Si  Si12  1  0.25915300  0.83083600  0.34845300  1
  Si  Si13  1  0.16916400  0.74084700  0.15154700  1
  Si  Si14  1  0.83083600  0.25915300  0.15154700  1
  Si  Si15  1  0.75915300  0.66916400  0.15154700  1
  Mo  Mo0  1  0.50000000  0.00000000  0.57844600  1
  Mo  Mo1  1  0.00000000  0.50000000  0.92155400  1
  Mo  Mo2  1  0.00000000  0.50000000  0.42155400  1
  Mo  Mo3  1  0.50000000  0.00000000  0.07844600  1
  O  O0  1  0.27137100  0.11912000  0.59032400  1
  O  O1  1  0.72862900  0.88088000  0.59032400  1
  O  O2  1  0.11912000  0.27137100  0.90967600  1
  O  O3  1  0.61912000  0.22862900  0.59032400  1
  O  O4  1  0.38088000  0.77137100  0.59032400  1
  O  O5  1  0.22862900  0.61912000  0.90967600  1
  O  O6  1  0.77137100  0.38088000  0.90967600  1
  O  O7  1  0.88088000  0.72862900  0.90967600  1
  O  O8  1  0.22862900  0.38088000  0.40967600  1
  O  O9  1  0.77137100  0.61912000  0.40967600  1
  O  O10  1  0.38088000  0.22862900  0.09032400  1
  O  O11  1  0.88088000  0.27137100  0.40967600  1
  O  O12  1  0.11912000  0.72862900  0.40967600  1
  O  O13  1  0.27137100  0.88088000  0.09032400  1
  O  O14  1  0.72862900  0.11912000  0.09032400  1
  O  O15  1  0.25628600  0.04219600  0.36733100  1
  O  O16  1  0.61912000  0.77137100  0.09032400  1
  O  O17  1  0.75628600  0.54219600  0.63266900  1
  O  O18  1  0.45780400  0.24371400  0.86733100  1
  O  O19  1  0.95780400  0.25628600  0.63266900  1
  O  O20  1  0.04219600  0.74371400  0.63266900  1
  O  O21  1  0.25628600  0.95780400  0.86733100  1
  O  O22  1  0.74371400  0.04219600  0.86733100  1
  O  O23  1  0.54219600  0.75628600  0.86733100  1
  O  O24  1  0.70498700  0.70498700  0.25000000  1
  O  O25  1  0.79501300  0.20498700  0.25000000  1
  O  O26  1  0.20498700  0.79501300  0.25000000  1
  O  O27  1  0.29501300  0.29501300  0.25000000  1
  O  O28  1  0.79501300  0.79501300  0.75000000  1
  O  O29  1  0.70498700  0.29501300  0.75000000  1
  O  O30  1  0.29501300  0.70498700  0.75000000  1
  O  O31  1  0.20498700  0.20498700  0.75000000  1
  O  O32  1  0.95780400  0.74371400  0.13266900  1
  O  O33  1  0.75628600  0.45780400  0.13266900  1
  O  O34  1  0.24371400  0.54219600  0.13266900  1
  O  O35  1  0.45780400  0.75628600  0.36733100  1
  O  O36  1  0.54219600  0.24371400  0.36733100  1
  O  O37  1  0.04219600  0.25628600  0.13266900  1
  O  O38  1  0.74371400  0.95780400  0.36733100  1
  O  O39  1  0.24371400  0.45780400  0.63266900  1
loop_
_geom_bond_atom_site_label_1
_geom_bond_atom_site_label_2
_geom_bond_distance
_geom_bond_site_symmetry_2
Mo0 O1 1.956963 1_545
Mo0 O3 1.956963 1_555
Mo0 O0 1.956963 1_555
Mo0 O4 1.956963 1_545
Mo1 O7 1.956963 1_455
Mo1 O5 1.956963 1_555
Mo1 O2 1.956963 1_555
Mo1 O6 1.956963 1_455
Mo2 O11 1.956963 1_455
Mo2 O8 1.956963 1_555
Mo2 O12 1.956963 1_555
Mo2 O9 1.956963 1_455
Mo3 O10 1.956963 1_555
Mo3 O13 1.956963 1_545
Mo3 O14 1.956963 1_555
Mo3 O16 1.956963 1_545
O0 Si0 1.627438 1_555
O1 Si1 1.627438 1_555
O2 Si2 1.627438 1_555
O3 Si3 1.627438 1_555
O4 Si4 1.627438 1_555
O5 Si5 1.627438 1_555
O6 Si6 1.627438 1_555
O7 Si7 1.627438 1_555
O8 Si8 1.627438 1_555
O9 Si9 1.627438 1_555
O10 Si10 1.627438 1_555
O11 Si11 1.627438 1_555
O12 Si12 1.627438 1_555
O13 Si13 1.627438 1_555
O14 Si14 1.627438 1_555
O15 Si12 1.624733 1_545
O15 Si8 1.630673 1_555
O16 Si15 1.627438 1_555
O17 Si3 1.624733 1_555
O17 Si1 1.630673 1_555
O18 Si6 1.624733 1_555
O18 Si2 1.630673 1_555
O19 Si0 1.624733 1_655
O19 Si3 1.630673 1_555
O20 Si1 1.624733 1_455
O20 Si4 1.630673 1_555
O21 Si2 1.624733 1_565
O21 Si5 1.630673 1_555
O22 Si7 1.624733 1_545
O22 Si6 1.630673 1_555
O23 Si5 1.624733 1_555
O23 Si7 1.630673 1_555
O24 Si9 1.628586 1_555
O24 Si15 1.628586 1_555
O25 Si11 1.628586 1_555
O25 Si14 1.628586 1_555
O26 Si12 1.628586 1_555
O26 Si13 1.628586 1_555
O27 Si8 1.628586 1_555
O27 Si10 1.628586 1_555
O28 Si1 1.628586 1_555
O28 Si7 1.628586 1_555
O29 Si6 1.628586 1_555
O29 Si3 1.628586 1_555
O30 Si4 1.628586 1_555
O30 Si5 1.628586 1_555
O31 Si0 1.628586 1_555
O31 Si2 1.628586 1_555
O32 Si13 1.624733 1_655
O32 Si15 1.630673 1_555
O33 Si15 1.624733 1_555
O33 Si14 1.630673 1_555
O34 Si10 1.624733 1_555
O34 Si13 1.630673 1_555
O35 Si9 1.624733 1_555
O35 Si12 1.630673 1_555
O36 Si8 1.624733 1_555
O36 Si11 1.630673 1_555
O37 Si14 1.624733 1_455
O37 Si10 1.630673 1_555
O38 Si11 1.624733 1_565
O38 Si9 1.630673 1_555
O39 Si4 1.624733 1_555
O39 Si0 1.630673 1_555
