# generated using pymatgen
data_SmMg2W3S8
_symmetry_space_group_name_H-M   'P 1'
_cell_length_a   7.64033747
_cell_length_b   7.64036359
_cell_length_c   7.46645584
_cell_angle_alpha   57.40671757
_cell_angle_beta   57.40597582
_cell_angle_gamma   59.34435100
_symmetry_Int_Tables_number   1
_chemical_formula_structural   SmMg2W3S8
_chemical_formula_sum   'Sm1 Mg2 W3 S8'
_cell_volume   294.18824844
_cell_formula_units_Z   1
loop_
 _symmetry_equiv_pos_site_id
 _symmetry_equiv_pos_as_xyz
  1  'x, y, z'
loop_
 _atom_site_type_symbol
 _atom_site_label
 _atom_site_symmetry_multiplicity
 _atom_site_fract_x
 _atom_site_fract_y
 _atom_site_fract_z
 _atom_site_occupancy
  Sm  Sm0  1  0.50000200  0.50001300  0.49998000  1
  Mg  Mg0  1  0.87622300  0.87622600  0.86787700  1
  Mg  Mg1  1  0.12377200  0.12376800  0.13215100  1
  W  W0  1  0.50017800  0.50017200  0.99964900  1
  W  W1  1  0.99984500  0.49999200  0.50017400  1
  W  W2  1  0.49999800  0.99984400  0.50016800  1
  S  S0  1  0.74279600  0.74279600  0.73503600  1
  S  S1  1  0.23999800  0.23999800  0.72507800  1
  S  S2  1  0.24491700  0.73008600  0.23964700  1
  S  S3  1  0.73008700  0.24492000  0.23964500  1
  S  S4  1  0.75507400  0.26981600  0.76033400  1
  S  S5  1  0.26981400  0.75508200  0.76034200  1
  S  S6  1  0.25730600  0.25729700  0.26495200  1
  S  S7  1  0.75999400  0.75998500  0.27496700  1
loop_
_geom_bond_atom_site_label_1
_geom_bond_atom_site_label_2
_geom_bond_distance
_geom_bond_site_symmetry_2
Mg0 S7 2.409156 1_556
Mg0 S5 2.430107 1_655
Mg0 S4 2.430113 1_565
Mg0 S0 2.510135 1_555
Mg1 S1 2.409060 1_554
Mg1 S3 2.430764 1_455
Mg1 S2 2.430769 1_545
Mg1 S6 2.511186 1_555
S0 W0 2.527575 1_555
S0 W1 2.540195 1_555
S0 W2 2.540216 1_555
S1 W1 2.478196 1_455
S1 W2 2.478209 1_545
S1 Sm0 2.747335 1_555
S2 W1 2.475671 1_455
S2 W0 2.496565 1_554
S2 Sm0 2.751951 1_555
S3 W2 2.475668 1_545
S3 W0 2.496551 1_554
S3 Sm0 2.751977 1_555
S4 W1 2.474506 1_555
S4 W0 2.495359 1_555
S4 Sm0 2.751895 1_555
S5 W2 2.474500 1_555
S5 W0 2.495390 1_555
S5 Sm0 2.751906 1_555
S6 W0 2.530181 1_554
S6 W2 2.541468 1_545
S6 W1 2.541491 1_455
S7 W2 2.478038 1_555
S7 W1 2.478048 1_555
S7 Sm0 2.747121 1_555
