# generated using pymatgen
data_Ce(Al10Co)2
_symmetry_space_group_name_H-M   'P 1'
_cell_length_a   10.18414643
_cell_length_b   10.18414643
_cell_length_c   10.18414643
_cell_angle_alpha   60.00000000
_cell_angle_beta   60.00000000
_cell_angle_gamma   60.00000000
_symmetry_Int_Tables_number   1
_chemical_formula_structural   Ce(Al10Co)2
_chemical_formula_sum   'Ce2 Al40 Co4'
_cell_volume   746.89389083
_cell_formula_units_Z   2
loop_
 _symmetry_equiv_pos_site_id
 _symmetry_equiv_pos_as_xyz
  1  'x, y, z'
loop_
 _atom_site_type_symbol
 _atom_site_label
 _atom_site_symmetry_multiplicity
 _atom_site_fract_x
 _atom_site_fract_y
 _atom_site_fract_z
 _atom_site_occupancy
  Ce  Ce0  1  0.25000000  0.25000000  0.25000000  1
  Ce  Ce1  1  0.00000000  0.00000000  0.00000000  1
  Al  Al0  1  0.12500000  0.12500000  0.12500000  1
  Al  Al1  1  0.62500000  0.12500000  0.12500000  1
  Al  Al2  1  0.12500000  0.62500000  0.12500000  1
  Al  Al3  1  0.12500000  0.12500000  0.62500000  1
  Al  Al4  1  0.63473800  0.36526200  0.63473800  1
  Al  Al5  1  0.88473800  0.61526200  0.61526200  1
  Al  Al6  1  0.61526200  0.88473800  0.88473800  1
  Al  Al7  1  0.88473800  0.61526200  0.88473800  1
  Al  Al8  1  0.61526200  0.61526200  0.88473800  1
  Al  Al9  1  0.88473800  0.88473800  0.61526200  1
  Al  Al10  1  0.63473800  0.63473800  0.36526200  1
  Al  Al11  1  0.36526200  0.63473800  0.63473800  1
  Al  Al12  1  0.63473800  0.36526200  0.36526200  1
  Al  Al13  1  0.36526200  0.36526200  0.63473800  1
  Al  Al14  1  0.61526200  0.88473800  0.61526200  1
  Al  Al15  1  0.36526200  0.63473800  0.36526200  1
  Al  Al16  1  0.33537500  0.79823700  0.79823700  1
  Al  Al17  1  0.18184900  0.45176300  0.91462500  1
  Al  Al18  1  0.45176300  0.18184900  0.45176300  1
  Al  Al19  1  0.45176300  0.45176300  0.18184900  1
  Al  Al20  1  0.18184900  0.91462500  0.45176300  1
  Al  Al21  1  0.45176300  0.91462500  0.18184900  1
  Al  Al22  1  0.45176300  0.18184900  0.91462500  1
  Al  Al23  1  0.79823700  0.33537500  0.79823700  1
  Al  Al24  1  0.79823700  0.79823700  0.33537500  1
  Al  Al25  1  0.33537500  0.06815100  0.79823700  1
  Al  Al26  1  0.33537500  0.79823700  0.06815100  1
  Al  Al27  1  0.79823700  0.06815100  0.79823700  1
  Al  Al28  1  0.06815100  0.33537500  0.79823700  1
  Al  Al29  1  0.06815100  0.79823700  0.33537500  1
  Al  Al30  1  0.79823700  0.79823700  0.06815100  1
  Al  Al31  1  0.91462500  0.18184900  0.45176300  1
  Al  Al32  1  0.91462500  0.45176300  0.18184900  1
  Al  Al33  1  0.18184900  0.45176300  0.45176300  1
  Al  Al34  1  0.91462500  0.45176300  0.45176300  1
  Al  Al35  1  0.45176300  0.91462500  0.45176300  1
  Al  Al36  1  0.45176300  0.45176300  0.91462500  1
  Al  Al37  1  0.79823700  0.33537500  0.06815100  1
  Al  Al38  1  0.79823700  0.06815100  0.33537500  1
  Al  Al39  1  0.06815100  0.79823700  0.79823700  1
  Co  Co0  1  0.62500000  0.62500000  0.12500000  1
  Co  Co1  1  0.62500000  0.12500000  0.62500000  1
  Co  Co2  1  0.62500000  0.62500000  0.62500000  1
  Co  Co3  1  0.12500000  0.62500000  0.62500000  1
loop_
_geom_bond_atom_site_label_1
_geom_bond_atom_site_label_2
_geom_bond_distance
_geom_bond_site_symmetry_2
Al0 Al32 3.091308 1_455
Al0 Al29 3.091308 1_545
Al0 Al31 3.091308 1_455
Al0 Al26 3.091308 1_545
Al0 Al28 3.091308 1_554
Al0 Al38 3.091308 1_455
Al0 Al25 3.091308 1_554
Al0 Al21 3.091308 1_545
Al0 Al22 3.091308 1_554
Al0 Al20 3.091308 1_545
Al0 Al37 3.091308 1_455
Al0 Al17 3.091308 1_554
Al0 Ce0 3.118245 1_555
Al0 Ce1 3.118245 1_555
Al1 Al37 3.091308 1_555
Al1 Al22 3.091308 1_554
Al1 Al21 3.091308 1_545
Al1 Al38 3.091308 1_555
Al1 Al23 3.091308 1_554
Al1 Al24 3.091308 1_545
Al1 Al36 3.091308 1_554
Al1 Al35 3.091308 1_545
Al1 Al18 3.091308 1_555
Al1 Al27 3.091308 1_554
Al1 Al30 3.091308 1_545
Al1 Al19 3.091308 1_555
Al1 Ce0 3.118245 1_555
Al1 Ce1 3.118245 1_655
Al2 Al32 3.091308 1_455
Al2 Al36 3.091308 1_554
Al2 Al24 3.091308 1_455
Al2 Al26 3.091308 1_555
Al2 Al34 3.091308 1_455
Al2 Al29 3.091308 1_555
Al2 Al30 3.091308 1_455
Al2 Al39 3.091308 1_554
Al2 Al33 3.091308 1_555
Al2 Ce1 3.118245 1_565
Al2 Ce0 3.118245 1_555
Al3 Al31 3.091308 1_455
Al3 Al35 3.091308 1_545
Al3 Al34 3.091308 1_455
Al3 Al33 3.091308 1_555
Al3 Al39 3.091308 1_545
Al3 Ce0 3.118245 1_555
Al3 Ce1 3.118245 1_556
Al4 Co1 2.549897 1_555
Al4 Co2 2.549897 1_555
Al5 Co3 2.549897 1_655
Al5 Co2 2.549897 1_555
Al5 Al8 2.744383 1_555
Al5 Al9 2.744383 1_555
Al5 Al7 2.744383 1_555
Al6 Co0 2.549897 1_556
Al6 Co1 2.549897 1_565
Al6 Al8 2.744383 1_555
Al6 Al9 2.744383 1_555
Al6 Al7 2.744383 1_555
Al7 Co0 2.549897 1_556
Al7 Co3 2.549897 1_655
Al7 Al8 2.744383 1_555
Al7 Al9 2.744383 1_555
Al8 Co0 2.549897 1_556
Al8 Co2 2.549897 1_555
Al9 Co3 2.549897 1_655
Al9 Co1 2.549897 1_565
Al10 Co0 2.549897 1_555
Al10 Co2 2.549897 1_555
Al10 Al24 2.719682 1_555
Al10 Al30 2.719682 1_555
Al10 Al15 2.744383 1_555
Al10 Al12 2.744383 1_555
Al10 Al11 2.744383 1_555
Al10 Al4 2.744383 1_555
Al10 Al21 2.816237 1_555
Al10 Al32 2.816237 1_555
Al10 Al35 2.816237 1_555
Al10 Al34 2.816237 1_555
Al11 Co3 2.549897 1_555
Al11 Co2 2.549897 1_555
Al11 Al16 2.719682 1_555
Al11 Al39 2.719682 1_555
Al11 Al15 2.744383 1_555
Al11 Al13 2.744383 1_555
Al11 Al4 2.744383 1_555
Al11 Al20 2.816237 1_555
Al11 Al17 2.816237 1_555
Al11 Al35 2.816237 1_555
Al11 Al36 2.816237 1_555
Al12 Co0 2.549897 1_555
Al12 Co1 2.549897 1_555
Al12 Al38 2.719682 1_555
Al12 Al37 2.719682 1_555
Al12 Al15 2.744383 1_555
Al12 Al13 2.744383 1_555
Al12 Al4 2.744383 1_555
Al12 Al19 2.816237 1_555
Al12 Al18 2.816237 1_555
Al12 Al31 2.816237 1_555
Al12 Al32 2.816237 1_555
Al13 Co3 2.549897 1_555
Al13 Co1 2.549897 1_555
Al13 Al28 2.719682 1_555
Al13 Al25 2.719682 1_555
Al13 Al15 2.744383 1_555
Al13 Al4 2.744383 1_555
Al13 Al33 2.816237 1_555
Al13 Al18 2.816237 1_555
Al13 Al17 2.816237 1_555
Al13 Al22 2.816237 1_555
Al14 Co1 2.549897 1_565
Al14 Co2 2.549897 1_555
Al14 Al35 2.719682 1_555
Al14 Al18 2.719682 1_565
Al14 Al5 2.744383 1_555
Al14 Al8 2.744383 1_555
Al14 Al9 2.744383 1_555
Al14 Al6 2.744383 1_555
Al14 Al16 2.816237 1_555
Al14 Al24 2.816237 1_555
Al14 Al25 2.816237 1_565
Al14 Al38 2.816237 1_565
Al15 Co3 2.549897 1_555
Al15 Co0 2.549897 1_555
Al15 Al26 2.719682 1_555
Al15 Al29 2.719682 1_555
Al15 Al33 2.816237 1_555
Al15 Al19 2.816237 1_555
Al15 Al20 2.816237 1_555
Al15 Al21 2.816237 1_555
Al16 Al39 2.721448 1_555
Al16 Al25 2.748844 1_565
Al16 Al26 2.748844 1_556
Al16 Co2 2.762294 1_555
Al16 Al8 2.816237 1_555
Al16 Al36 2.881086 1_555
Al16 Al35 2.881086 1_555
Al16 Al3 3.091308 1_565
Al16 Al2 3.091308 1_556
Al16 Ce1 3.208714 1_566
Al17 Al7 2.719682 1_455
Al17 Al32 2.721448 1_456
Al17 Al36 2.748844 1_555
Al17 Al22 2.748844 1_555
Al17 Co3 2.762294 1_555
Al17 Al39 2.881086 1_555
Al17 Al28 2.881086 1_555
Al17 Al2 3.091308 1_556
Al17 Ce0 3.208714 1_556
Al18 Al35 2.721448 1_545
Al18 Al19 2.748844 1_555
Al18 Al33 2.748844 1_555
Al18 Co1 2.762294 1_555
Al18 Al38 2.881086 1_555
Al18 Al25 2.881086 1_555
Al18 Al3 3.091308 1_555
Al18 Ce0 3.208714 1_555
Al19 Al8 2.719682 1_554
Al19 Al36 2.721448 1_554
Al19 Al33 2.748844 1_555
Al19 Co0 2.762294 1_555
Al19 Al26 2.881086 1_555
Al19 Al37 2.881086 1_555
Al19 Al2 3.091308 1_555
Al19 Ce0 3.208714 1_555
Al20 Al9 2.719682 1_455
Al20 Al31 2.721448 1_465
Al20 Al35 2.748844 1_555
Al20 Al21 2.748844 1_555
Al20 Co3 2.762294 1_555
Al20 Al39 2.881086 1_555
Al20 Al29 2.881086 1_555
Al20 Al3 3.091308 1_565
Al20 Ce0 3.208714 1_565
Al21 Al6 2.719682 1_554
Al21 Al22 2.721448 1_564
Al21 Al35 2.748844 1_555
Al21 Co0 2.762294 1_555
Al21 Al30 2.881086 1_555
Al21 Al26 2.881086 1_555
Al21 Ce0 3.208714 1_565
Al22 Al6 2.719682 1_545
Al22 Al36 2.748844 1_555
Al22 Co1 2.762294 1_555
Al22 Al4 2.816237 1_555
Al22 Al27 2.881086 1_555
Al22 Al25 2.881086 1_555
Al22 Ce0 3.208714 1_556
Al23 Al4 2.719682 1_555
Al23 Al27 2.721448 1_555
Al23 Al37 2.748844 1_556
Al23 Al28 2.748844 1_655
Al23 Co2 2.762294 1_555
Al23 Al5 2.816237 1_555
Al23 Al8 2.816237 1_555
Al23 Al34 2.881086 1_555
Al23 Al36 2.881086 1_555
Al23 Al3 3.091308 1_655
Al23 Ce1 3.208714 1_656
Al24 Al30 2.721448 1_555
Al24 Al38 2.748844 1_565
Al24 Al29 2.748844 1_655
Al24 Co2 2.762294 1_555
Al24 Al5 2.816237 1_555
Al24 Al34 2.881086 1_555
Al24 Al35 2.881086 1_555
Al24 Ce1 3.208714 1_665
Al25 Al28 2.721448 1_555
Al25 Al26 2.748844 1_546
Al25 Co1 2.762294 1_555
Al25 Al6 2.816237 1_545
Al25 Al3 3.091308 1_555
Al25 Ce1 3.208714 1_556
Al26 Al29 2.721448 1_555
Al26 Co0 2.762294 1_555
Al26 Al6 2.816237 1_554
Al26 Al8 2.816237 1_554
Al26 Ce1 3.208714 1_565
Al27 Al4 2.719682 1_555
Al27 Al30 2.748844 1_546
Al27 Al39 2.748844 1_645
Al27 Co1 2.762294 1_555
Al27 Al9 2.816237 1_545
Al27 Al6 2.816237 1_545
Al27 Al31 2.881086 1_555
Al27 Al3 3.091308 1_655
Al27 Ce1 3.208714 1_656
Al28 Al37 2.748844 1_456
Al28 Co3 2.762294 1_555
Al28 Al5 2.816237 1_455
Al28 Al7 2.816237 1_455
Al28 Al33 2.881086 1_555
Al28 Al3 3.091308 1_555
Al28 Ce1 3.208714 1_556
Al29 Al38 2.748844 1_465
Al29 Co3 2.762294 1_555
Al29 Al5 2.816237 1_455
Al29 Al9 2.816237 1_455
Al29 Al33 2.881086 1_555
Al29 Ce1 3.208714 1_565
Al30 Al39 2.748844 1_654
Al30 Co0 2.762294 1_555
Al30 Al6 2.816237 1_554
Al30 Al7 2.816237 1_554
Al30 Al32 2.881086 1_555
Al30 Ce1 3.208714 1_665
Al31 Al9 2.719682 1_545
Al31 Al34 2.748844 1_555
Al31 Al32 2.748844 1_555
Al31 Co1 2.762294 1_555
Al31 Al4 2.816237 1_555
Al31 Al38 2.881086 1_555
Al31 Ce0 3.208714 1_655
Al32 Al7 2.719682 1_554
Al32 Al34 2.748844 1_555
Al32 Co0 2.762294 1_555
Al32 Al37 2.881086 1_555
Al32 Ce0 3.208714 1_655
Al33 Al5 2.719682 1_455
Al33 Al34 2.721448 1_455
Al33 Co3 2.762294 1_555
Al33 Ce0 3.208714 1_555
Al34 Al5 2.719682 1_555
Al34 Co2 2.762294 1_555
Al34 Al4 2.816237 1_555
Al34 Ce0 3.208714 1_655
Al35 Co2 2.762294 1_555
Al35 Ce0 3.208714 1_565
Al36 Al8 2.719682 1_555
Al36 Co2 2.762294 1_555
Al36 Al4 2.816237 1_555
Al36 Ce0 3.208714 1_556
Al37 Al38 2.721448 1_555
Al37 Co0 2.762294 1_555
Al37 Al7 2.816237 1_554
Al37 Al8 2.816237 1_554
Al37 Ce1 3.208714 1_655
Al38 Co1 2.762294 1_555
Al38 Al9 2.816237 1_545
Al38 Ce1 3.208714 1_655
Al39 Co3 2.762294 1_555
Al39 Al7 2.816237 1_455
Al39 Al9 2.816237 1_455
Al39 Ce1 3.208714 1_566
