# generated using pymatgen
data_NdFeCoSi2
_symmetry_space_group_name_H-M   'P 1'
_cell_length_a   5.65697202
_cell_length_b   5.65697202
_cell_length_c   5.65697202
_cell_angle_alpha   138.74888892
_cell_angle_beta   138.74888892
_cell_angle_gamma   59.75795459
_symmetry_Int_Tables_number   1
_chemical_formula_structural   NdFeCoSi2
_chemical_formula_sum   'Nd1 Fe1 Co1 Si2'
_cell_volume   77.91042020
_cell_formula_units_Z   1
loop_
 _symmetry_equiv_pos_site_id
 _symmetry_equiv_pos_as_xyz
  1  'x, y, z'
loop_
 _atom_site_type_symbol
 _atom_site_label
 _atom_site_symmetry_multiplicity
 _atom_site_fract_x
 _atom_site_fract_y
 _atom_site_fract_z
 _atom_site_occupancy
  Nd  Nd0  1  0.00000000  0.00000000  0.00000000  1
  Fe  Fe0  1  0.75000000  0.25000000  0.50000000  1
  Co  Co0  1  0.25000000  0.75000000  0.50000000  1
  Si  Si0  1  0.63640700  0.63640700  0.00000000  1
  Si  Si1  1  0.36359300  0.36359300  0.00000000  1
loop_
_geom_bond_atom_site_label_1
_geom_bond_atom_site_label_2
_geom_bond_distance
_geom_bond_site_symmetry_2
Nd0 Si1 3.119704 1_444
Nd0 Si1 3.119704 1_455
Nd0 Si0 3.119704 1_444
Nd0 Si0 3.119704 1_455
Nd0 Si0 3.119704 1_545
Nd0 Si0 3.119704 1_556
Nd0 Si1 3.119704 1_556
Nd0 Si1 3.119704 1_545
Fe0 Si0 2.283139 1_545
Fe0 Si0 2.283139 1_556
Fe0 Si1 2.283139 1_656
Fe0 Si1 2.283139 1_555
Fe0 Nd0 3.160032 1_555
Fe0 Nd0 3.160032 1_655
Fe0 Nd0 3.160032 1_666
Fe0 Nd0 3.160032 1_656
Co0 Si0 2.283139 1_455
Co0 Si0 2.283139 1_556
Co0 Si1 2.283139 1_555
Co0 Si1 2.283139 1_566
Co0 Fe0 2.818132 1_555
Co0 Fe0 2.818132 1_465
Co0 Fe0 2.818132 1_566
Co0 Fe0 2.818132 1_454
Co0 Nd0 3.160032 1_666
Co0 Nd0 3.160032 1_565
Co0 Nd0 3.160032 1_566
Co0 Nd0 3.160032 1_555
Si0 Si1 2.676330 1_555
