# generated using pymatgen
data_Ca2W9O13
_symmetry_space_group_name_H-M   'P 1'
_cell_length_a   3.29645400
_cell_length_b   5.50477180
_cell_length_c   18.41098904
_cell_angle_alpha   89.33852386
_cell_angle_beta   86.15028971
_cell_angle_gamma   84.52929841
_symmetry_Int_Tables_number   1
_chemical_formula_structural   Ca2W9O13
_chemical_formula_sum   'Ca2 W9 O13'
_cell_volume   331.81337396
_cell_formula_units_Z   1
loop_
 _symmetry_equiv_pos_site_id
 _symmetry_equiv_pos_as_xyz
  1  'x, y, z'
loop_
 _atom_site_type_symbol
 _atom_site_label
 _atom_site_symmetry_multiplicity
 _atom_site_fract_x
 _atom_site_fract_y
 _atom_site_fract_z
 _atom_site_occupancy
  Ca  Ca0  1  0.67886700  0.56810400  0.76978200  1
  Ca  Ca1  1  0.32113300  0.43189600  0.23021800  1
  W  W0  1  0.00000000  0.00000000  0.50000000  1
  W  W1  1  0.72333100  0.67542300  0.95801300  1
  W  W2  1  0.27666900  0.32457700  0.04198700  1
  W  W3  1  0.77086300  0.50707200  0.57012500  1
  W  W4  1  0.22913700  0.49292800  0.42987500  1
  W  W5  1  0.16713900  0.13316000  0.87317200  1
  W  W6  1  0.83286100  0.86684000  0.12682800  1
  W  W7  1  0.33581200  0.09935100  0.66223300  1
  W  W8  1  0.66418800  0.90064900  0.33776700  1
  O  O0  1  0.00000000  0.00000000  0.00000000  1
  O  O1  1  0.22373600  0.28063000  0.76554200  1
  O  O2  1  0.77626400  0.71937000  0.23445800  1
  O  O3  1  0.63357200  0.38708700  0.88766500  1
  O  O4  1  0.36642800  0.61291300  0.11233500  1
  O  O5  1  0.71597500  0.87548800  0.86138900  1
  O  O6  1  0.28402500  0.12451200  0.13861100  1
  O  O7  1  0.84946900  0.89505100  0.69849400  1
  O  O8  1  0.15053100  0.10494900  0.30150600  1
  O  O9  1  0.25229500  0.46917100  0.63606600  1
  O  O10  1  0.74770500  0.53082900  0.36393400  1
  O  O11  1  0.49674500  0.88315900  0.56572600  1
  O  O12  1  0.50325500  0.11684100  0.43427400  1
loop_
_geom_bond_atom_site_label_1
_geom_bond_atom_site_label_2
_geom_bond_distance
_geom_bond_site_symmetry_2
Ca0 O1 2.275632 1_655
Ca0 O1 2.287481 1_555
Ca0 O7 2.305946 1_555
Ca0 O3 2.379187 1_555
Ca0 O5 2.419854 1_555
Ca1 O2 2.275632 1_455
Ca1 O2 2.287481 1_555
Ca1 O8 2.305946 1_555
Ca1 O4 2.379187 1_555
Ca1 O6 2.419854 1_555
O0 W2 2.249222 1_555
O0 W1 2.249222 1_444
O0 W6 2.481525 1_445
O0 W5 2.481525 1_554
O0 W2 2.906457 1_455
O0 W1 2.906457 1_544
O1 W5 2.136010 1_555
O1 W7 2.151546 1_555
O2 W6 2.136010 1_555
O2 W8 2.151546 1_555
O3 W1 2.114895 1_555
O3 W5 2.143719 1_655
O3 W5 2.205156 1_555
O4 W2 2.114895 1_555
O4 W6 2.143719 1_455
O4 W6 2.205156 1_555
O5 W1 2.081725 1_555
O5 W5 2.173371 1_665
O5 W5 2.190281 1_565
O6 W2 2.081725 1_555
O6 W6 2.173371 1_445
O6 W6 2.190281 1_545
O7 W7 2.085406 1_565
O7 W7 2.112694 1_665
O8 W8 2.085406 1_545
O8 W8 2.112694 1_445
O9 W3 2.055012 1_555
O9 W3 2.055670 1_455
O9 W7 2.083402 1_555
O10 W4 2.055012 1_555
O10 W4 2.055670 1_655
O10 W8 2.083402 1_555
O11 W0 2.132144 1_665
O11 W0 2.146313 1_565
O11 W7 2.157915 1_565
O11 W3 2.181369 1_555
O12 W0 2.132144 1_555
O12 W0 2.146313 1_655
O12 W8 2.157915 1_545
O12 W4 2.181369 1_555
