# generated using pymatgen
data_LaPbAu
_symmetry_space_group_name_H-M   'P 1'
_cell_length_a   4.82649830
_cell_length_b   4.83251363
_cell_length_c   8.24239682
_cell_angle_alpha   90.00000000
_cell_angle_beta   90.00000000
_cell_angle_gamma   119.95884580
_symmetry_Int_Tables_number   1
_chemical_formula_structural   LaPbAu
_chemical_formula_sum   'La2 Pb2 Au2'
_cell_volume   166.55947668
_cell_formula_units_Z   2
loop_
 _symmetry_equiv_pos_site_id
 _symmetry_equiv_pos_as_xyz
  1  'x, y, z'
loop_
 _atom_site_type_symbol
 _atom_site_label
 _atom_site_symmetry_multiplicity
 _atom_site_fract_x
 _atom_site_fract_y
 _atom_site_fract_z
 _atom_site_occupancy
  La  La0  1  0.00000000  0.00000000  0.50000000  1
  La  La1  1  0.00000000  0.00000000  -0.00000000  1
  Pb  Pb0  1  0.33233820  0.66467741  0.75000000  1
  Pb  Pb1  1  0.66766180  0.33532259  0.25000000  1
  Au  Au0  1  0.33480285  0.66960471  0.25000000  1
  Au  Au1  1  0.66519715  0.33039529  0.75000000  1
loop_
_geom_bond_atom_site_label_1
_geom_bond_atom_site_label_2
_geom_bond_distance
_geom_bond_site_symmetry_2
La0 Pb0 3.462729 1_555
La0 Pb1 3.462729 1_445
La0 Pb0 3.469994 1_545
La0 Pb1 3.469994 1_455
La0 Pb1 3.469997 1_555
La0 Pb0 3.469997 1_445
La1 Pb1 3.462729 1_445
La1 Pb0 3.462729 1_554
La1 Pb0 3.469994 1_544
La1 Pb1 3.469994 1_455
La1 Pb1 3.469997 1_555
La1 Pb0 3.469997 1_444
Au0 Pb1 2.787237 1_565
Au0 Pb1 2.789729 1_455
Au0 Pb1 2.789729 1_555
Au0 La0 3.461698 1_665
Au0 La1 3.461698 1_665
Au0 La0 3.461702 1_565
Au0 La1 3.461702 1_565
Au0 La1 3.479330 1_555
Au0 La0 3.479330 1_555
Au1 Pb0 2.787237 1_545
Au1 Pb0 2.789729 1_655
Au1 Pb0 2.789729 1_555
Au1 La1 3.461698 1_556
Au1 La0 3.461698 1_555
Au1 La0 3.461702 1_655
Au1 La1 3.461702 1_656
Au1 La0 3.479330 1_665
Au1 La1 3.479330 1_666
