# generated using pymatgen
data_Mn3Ga
_symmetry_space_group_name_H-M   'P 1'
_cell_length_a   5.14173737
_cell_length_b   5.14173737
_cell_length_c   4.18644500
_cell_angle_alpha   90.00000000
_cell_angle_beta   90.00000000
_cell_angle_gamma   119.99999189
_symmetry_Int_Tables_number   1
_chemical_formula_structural   Mn3Ga
_chemical_formula_sum   'Mn6 Ga2'
_cell_volume   95.85082098
_cell_formula_units_Z   2
loop_
 _symmetry_equiv_pos_site_id
 _symmetry_equiv_pos_as_xyz
  1  'x, y, z'
loop_
 _atom_site_type_symbol
 _atom_site_label
 _atom_site_symmetry_multiplicity
 _atom_site_fract_x
 _atom_site_fract_y
 _atom_site_fract_z
 _atom_site_occupancy
  Mn  Mn0  1  0.84202100  0.15797900  0.25000000  1
  Mn  Mn1  1  0.84202100  0.68404100  0.25000000  1
  Mn  Mn2  1  0.31595900  0.15797900  0.25000000  1
  Mn  Mn3  1  0.15797900  0.84202100  0.75000000  1
  Mn  Mn4  1  0.15797900  0.31595900  0.75000000  1
  Mn  Mn5  1  0.68404100  0.84202100  0.75000000  1
  Ga  Ga0  1  0.33333300  0.66666700  0.25000000  1
  Ga  Ga1  1  0.66666700  0.33333300  0.75000000  1
loop_
_geom_bond_atom_site_label_1
_geom_bond_atom_site_label_2
_geom_bond_distance
_geom_bond_site_symmetry_2
Mn0 Mn2 2.436865 1_655
Mn0 Mn1 2.436865 1_545
Mn0 Mn5 2.522104 1_545
Mn0 Mn5 2.522104 1_544
Mn0 Mn4 2.522104 1_655
Mn0 Mn4 2.522104 1_654
Mn0 Mn1 2.704873 1_555
Mn0 Mn2 2.704873 1_555
Mn1 Mn2 2.436865 1_665
Mn1 Mn3 2.522104 1_654
Mn1 Mn3 2.522104 1_655
Mn1 Mn5 2.522109 1_555
Mn1 Mn5 2.522109 1_554
Mn1 Mn2 2.704873 1_555
Mn2 Mn3 2.522104 1_544
Mn2 Mn3 2.522104 1_545
Mn2 Mn4 2.522109 1_554
Mn2 Mn4 2.522109 1_555
Mn3 Mn4 2.436865 1_565
Mn3 Mn5 2.436865 1_455
Mn3 Mn4 2.704873 1_555
Mn3 Mn5 2.704873 1_555
Mn4 Mn5 2.436865 1_445
Mn4 Mn5 2.704873 1_555
Ga0 Mn1 2.572027 1_455
Ga0 Mn2 2.572027 1_565
Ga0 Mn0 2.572033 1_455
Ga0 Mn0 2.572033 1_565
Ga0 Mn1 2.572038 1_555
Ga0 Mn2 2.572038 1_555
Ga0 Mn3 2.611582 1_554
Ga0 Mn3 2.611582 1_555
Ga0 Mn4 2.611582 1_554
Ga0 Mn4 2.611582 1_555
Ga0 Mn5 2.611582 1_554
Ga0 Mn5 2.611582 1_555
Ga1 Mn5 2.572027 1_545
Ga1 Mn4 2.572027 1_655
Ga1 Mn3 2.572033 1_545
Ga1 Mn3 2.572033 1_655
Ga1 Mn5 2.572038 1_555
Ga1 Mn4 2.572038 1_555
Ga1 Mn0 2.611582 1_555
Ga1 Mn0 2.611582 1_556
Ga1 Mn1 2.611582 1_556
Ga1 Mn2 2.611582 1_555
Ga1 Mn2 2.611582 1_556
Ga1 Mn1 2.611582 1_555
