# generated using pymatgen
data_SrMn2(SiO5)2
_symmetry_space_group_name_H-M   'P 1'
_cell_length_a   5.39514742
_cell_length_b   5.39514742
_cell_length_c   13.54578900
_cell_angle_alpha   90.00000000
_cell_angle_beta   90.00000000
_cell_angle_gamma   112.07779321
_symmetry_Int_Tables_number   1
_chemical_formula_structural   SrMn2(SiO5)2
_chemical_formula_sum   'Sr2 Mn4 Si4 O20'
_cell_volume   365.37438178
_cell_formula_units_Z   2
loop_
 _symmetry_equiv_pos_site_id
 _symmetry_equiv_pos_as_xyz
  1  'x, y, z'
loop_
 _atom_site_type_symbol
 _atom_site_label
 _atom_site_symmetry_multiplicity
 _atom_site_fract_x
 _atom_site_fract_y
 _atom_site_fract_z
 _atom_site_occupancy
  Sr  Sr0  1  0.33704000  0.66296000  0.75000000  1
  Sr  Sr1  1  0.66296000  0.33704000  0.25000000  1
  Mn  Mn0  1  0.50000000  0.00000000  0.00000000  1
  Mn  Mn1  1  0.00000000  0.50000000  0.50000000  1
  Mn  Mn2  1  0.00000000  0.50000000  0.00000000  1
  Mn  Mn3  1  0.50000000  0.00000000  0.50000000  1
  Si  Si0  1  0.02403700  0.97596300  0.36674500  1
  Si  Si1  1  0.97596300  0.02403700  0.63325500  1
  Si  Si2  1  0.02403700  0.97596300  0.13325500  1
  Si  Si3  1  0.97596300  0.02403700  0.86674500  1
  O  O0  1  0.35793100  0.64206900  0.04724700  1
  O  O1  1  0.64206900  0.35793100  0.95275300  1
  O  O2  1  0.35793100  0.64206900  0.45275300  1
  O  O3  1  0.64206900  0.35793100  0.54724700  1
  O  O4  1  0.37477100  0.62522900  0.25000000  1
  O  O5  1  0.62522900  0.37477100  0.75000000  1
  O  O6  1  0.34382400  0.10762300  0.11315500  1
  O  O7  1  0.65617600  0.89237700  0.88684500  1
  O  O8  1  0.89237700  0.65617600  0.38684500  1
  O  O9  1  0.10762300  0.34382400  0.88684500  1
  O  O10  1  0.10762300  0.34382400  0.61315500  1
  O  O11  1  0.89237700  0.65617600  0.11315500  1
  O  O12  1  0.65617600  0.89237700  0.61315500  1
  O  O13  1  0.34382400  0.10762300  0.38684500  1
  O  O14  1  0.86315500  0.13684500  0.43043700  1
  O  O15  1  0.13684500  0.86315500  0.56956300  1
  O  O16  1  0.86315500  0.13684500  0.06956300  1
  O  O17  1  0.13684500  0.86315500  0.93043700  1
  O  O18  1  0.96505700  0.03494300  0.25000000  1
  O  O19  1  0.03494300  0.96505700  0.75000000  1
loop_
_geom_bond_atom_site_label_1
_geom_bond_atom_site_label_2
_geom_bond_distance
_geom_bond_site_symmetry_2
Mn0 O0 1.900929 1_545
Mn0 O1 1.900929 1_554
Mn0 O6 1.940176 1_555
Mn0 O7 1.940176 1_544
Mn0 O16 2.045567 1_555
Mn0 O17 2.045567 1_544
Mn1 O3 1.900929 1_455
Mn1 O2 1.900929 1_555
Mn1 O8 1.940176 1_455
Mn1 O10 1.940176 1_555
Mn1 O15 2.045567 1_555
Mn1 O14 2.045567 1_455
Mn2 O0 1.900929 1_555
Mn2 O1 1.900929 1_454
Mn2 O11 1.940176 1_455
Mn2 O9 1.940176 1_554
Mn2 O16 2.045567 1_455
Mn2 O17 2.045567 1_554
Mn3 O3 1.900929 1_555
Mn3 O2 1.900929 1_545
Mn3 O12 1.940176 1_545
Mn3 O13 1.940176 1_555
Mn3 O15 2.045567 1_545
Mn3 O14 2.045567 1_555
O4 Sr1 2.579192 1_555
O5 Sr0 2.579192 1_555
O6 Si2 1.622986 1_545
O6 Sr1 2.516072 1_555
O7 Si3 1.622986 1_565
O7 Sr0 2.516072 1_555
O8 Si0 1.622986 1_655
O8 Sr1 2.516072 1_555
O9 Si3 1.622986 1_455
O9 Sr0 2.516072 1_555
O10 Si1 1.622986 1_455
O10 Sr0 2.516072 1_555
O11 Si2 1.622986 1_655
O11 Sr1 2.516072 1_555
O12 Si1 1.622986 1_565
O12 Sr0 2.516072 1_555
O13 Si0 1.622986 1_545
O13 Sr1 2.516072 1_555
O14 Si0 1.678537 1_645
O15 Si1 1.678537 1_465
O16 Si2 1.678537 1_645
O17 Si3 1.678537 1_465
O18 Si0 1.667172 1_645
O18 Si2 1.667172 1_645
O18 Sr1 2.703664 1_555
O19 Si3 1.667172 1_465
O19 Si1 1.667172 1_465
O19 Sr0 2.703664 1_555
