# generated using pymatgen
data_Th2Br5
_symmetry_space_group_name_H-M   'P 1'
_cell_length_a   9.99629048
_cell_length_b   9.99629048
_cell_length_c   9.99629048
_cell_angle_alpha   109.47122063
_cell_angle_beta   109.47122063
_cell_angle_gamma   109.47122063
_symmetry_Int_Tables_number   1
_chemical_formula_structural   Th2Br5
_chemical_formula_sum   'Th6 Br15'
_cell_volume   768.94399991
_cell_formula_units_Z   3
loop_
 _symmetry_equiv_pos_site_id
 _symmetry_equiv_pos_as_xyz
  1  'x, y, z'
loop_
 _atom_site_type_symbol
 _atom_site_label
 _atom_site_symmetry_multiplicity
 _atom_site_fract_x
 _atom_site_fract_y
 _atom_site_fract_z
 _atom_site_occupancy
  Th  Th0  1  0.76434800  0.76434800  0.00000000  1
  Th  Th1  1  0.23565200  0.00000000  0.23565200  1
  Th  Th2  1  0.00000000  0.23565200  0.23565200  1
  Th  Th3  1  0.23565200  0.23565200  0.00000000  1
  Th  Th4  1  0.76434800  0.00000000  0.76434800  1
  Th  Th5  1  0.00000000  0.76434800  0.76434800  1
  Br  Br0  1  0.74695300  0.00000000  0.25304700  1
  Br  Br1  1  0.00000000  0.74695300  0.25304700  1
  Br  Br2  1  0.25304700  0.25304700  0.50609400  1
  Br  Br3  1  0.25304700  0.50609400  0.25304700  1
  Br  Br4  1  0.00000000  0.25304700  0.74695300  1
  Br  Br5  1  0.74695300  0.25304700  0.00000000  1
  Br  Br6  1  0.25304700  0.00000000  0.74695300  1
  Br  Br7  1  0.50609400  0.25304700  0.25304700  1
  Br  Br8  1  0.25304700  0.74695300  0.00000000  1
  Br  Br9  1  0.74695300  0.49390600  0.74695300  1
  Br  Br10  1  0.49390600  0.74695300  0.74695300  1
  Br  Br11  1  0.74695300  0.74695300  0.49390600  1
  Br  Br12  1  0.50000000  0.50000000  0.00000000  1
  Br  Br13  1  0.50000000  0.00000000  0.50000000  1
  Br  Br14  1  0.00000000  0.50000000  0.50000000  1
loop_
_geom_bond_atom_site_label_1
_geom_bond_atom_site_label_2
_geom_bond_distance
_geom_bond_site_symmetry_2
Br0 Th2 2.927744 1_655
Br0 Th0 2.927744 1_545
Br1 Th1 2.927744 1_565
Br1 Th0 2.927744 1_455
Br2 Th2 2.927744 1_555
Br2 Th1 2.927744 1_555
Br3 Th2 2.927744 1_555
Br3 Th3 2.927744 1_555
Br4 Th4 2.927744 1_455
Br4 Th3 2.927744 1_556
Br5 Th2 2.927744 1_655
Br5 Th4 2.927744 1_554
Br6 Th5 2.927744 1_545
Br6 Th3 2.927744 1_556
Br7 Th1 2.927744 1_555
Br7 Th3 2.927744 1_555
Br8 Th5 2.927744 1_554
Br8 Th1 2.927744 1_565
Br9 Th5 2.927744 1_655
Br9 Th0 2.927744 1_556
Br10 Th4 2.927744 1_565
Br10 Th0 2.927744 1_556
Br11 Th5 2.927744 1_655
Br11 Th4 2.927744 1_565
Br12 Th0 3.051295 1_555
Br12 Th3 3.051295 1_555
Br13 Th1 3.051295 1_555
Br13 Th4 3.051295 1_555
Br14 Th2 3.051295 1_555
Br14 Th5 3.051295 1_555
