# generated using pymatgen
data_Ho3Ru2
_symmetry_space_group_name_H-M   'P 1'
_cell_length_a   4.72190900
_cell_length_b   7.56205361
_cell_length_c   7.56205325
_cell_angle_alpha   120.00000377
_cell_angle_beta   90.00000000
_cell_angle_gamma   90.00000000
_symmetry_Int_Tables_number   1
_chemical_formula_structural   Ho3Ru2
_chemical_formula_sum   'Ho6 Ru4'
_cell_volume   233.84479710
_cell_formula_units_Z   2
loop_
 _symmetry_equiv_pos_site_id
 _symmetry_equiv_pos_as_xyz
  1  'x, y, z'
loop_
 _atom_site_type_symbol
 _atom_site_label
 _atom_site_symmetry_multiplicity
 _atom_site_fract_x
 _atom_site_fract_y
 _atom_site_fract_z
 _atom_site_occupancy
  Ho  Ho0  1  0.75000000  0.61655600  0.69526500  1
  Ho  Ho1  1  0.25000000  0.38344400  0.30473500  1
  Ho  Ho2  1  0.75000000  0.07870900  0.38344400  1
  Ho  Ho3  1  0.25000000  0.92129100  0.61655600  1
  Ho  Ho4  1  0.75000000  0.30473500  0.92129100  1
  Ho  Ho5  1  0.25000000  0.69526500  0.07870900  1
  Ru  Ru0  1  0.75000000  0.66666700  0.33333300  1
  Ru  Ru1  1  0.25000000  0.33333300  0.66666700  1
  Ru  Ru2  1  0.00000000  0.00000000  0.00000000  1
  Ru  Ru3  1  0.50000000  0.00000000  0.00000000  1
loop_
_geom_bond_atom_site_label_1
_geom_bond_atom_site_label_2
_geom_bond_distance
_geom_bond_site_symmetry_2
Ho0 Ru2 2.903403 1_666
Ho0 Ru3 2.903403 1_566
Ho0 Ru0 2.944764 1_555
Ho0 Ru1 3.121664 1_655
Ho0 Ru1 3.121664 1_555
Ho0 Ho1 3.492434 1_555
Ho0 Ho1 3.492434 1_655
Ho0 Ho2 3.537229 1_555
Ho0 Ho4 3.537229 1_555
Ho0 Ho5 3.551103 1_556
Ho0 Ho5 3.551103 1_656
Ho0 Ho3 3.551103 1_555
Ho0 Ho3 3.551103 1_655
Ho1 Ru3 2.903403 1_555
Ho1 Ru2 2.903403 1_555
Ho1 Ru1 2.944764 1_555
Ho1 Ru0 3.121664 1_555
Ho1 Ru0 3.121664 1_455
Ho1 Ho3 3.537229 1_555
Ho1 Ho5 3.537229 1_555
Ho1 Ho4 3.551103 1_554
Ho1 Ho4 3.551103 1_454
Ho1 Ho2 3.551103 1_455
Ho1 Ho2 3.551103 1_555
Ho2 Ru2 2.903403 1_655
Ho2 Ru3 2.903403 1_555
Ho2 Ru0 2.944756 1_545
Ho2 Ru1 3.121661 1_555
Ho2 Ru1 3.121661 1_655
Ho2 Ho3 3.492434 1_545
Ho2 Ho3 3.492434 1_645
Ho2 Ho4 3.537229 1_555
Ho2 Ho5 3.551102 1_545
Ho2 Ho5 3.551102 1_645
Ho3 Ru2 2.903403 1_566
Ho3 Ru3 2.903403 1_566
Ho3 Ru1 2.944756 1_565
Ho3 Ru0 3.121661 1_555
Ho3 Ru0 3.121661 1_455
Ho3 Ho5 3.537229 1_555
Ho3 Ho4 3.551102 1_565
Ho3 Ho4 3.551102 1_465
Ho4 Ru3 2.903403 1_556
Ho4 Ru2 2.903403 1_656
Ho4 Ru0 2.944759 1_556
Ho4 Ru1 3.121659 1_555
Ho4 Ru1 3.121659 1_655
Ho4 Ho5 3.492434 1_556
Ho4 Ho5 3.492434 1_656
Ho5 Ru3 2.903403 1_565
Ho5 Ru2 2.903403 1_565
Ho5 Ru1 2.944759 1_554
Ho5 Ru0 3.121659 1_455
Ho5 Ru0 3.121659 1_555
Ru2 Ru3 2.360955 1_455
Ru2 Ru3 2.360955 1_555
