# generated using pymatgen
data_Ta9P2O25
_symmetry_space_group_name_H-M   'P 1'
_cell_length_a   11.42303175
_cell_length_b   11.42303175
_cell_length_c   11.42303175
_cell_angle_alpha   91.62927891
_cell_angle_beta   91.62927891
_cell_angle_gamma   160.58490270
_symmetry_Int_Tables_number   1
_chemical_formula_structural   Ta9P2O25
_chemical_formula_sum   'Ta9 P2 O25'
_cell_volume   488.37596771
_cell_formula_units_Z   1
loop_
 _symmetry_equiv_pos_site_id
 _symmetry_equiv_pos_as_xyz
  1  'x, y, z'
loop_
 _atom_site_type_symbol
 _atom_site_label
 _atom_site_symmetry_multiplicity
 _atom_site_fract_x
 _atom_site_fract_y
 _atom_site_fract_z
 _atom_site_occupancy
  Ta  Ta0  1  -0.00000000  0.00000000  -0.00000000  1
  Ta  Ta1  1  0.22086091  0.09752485  0.31838476  1
  Ta  Ta2  1  0.77913909  0.90247515  0.68161524  1
  Ta  Ta3  1  0.90247515  0.22086091  0.12333606  1
  Ta  Ta4  1  0.09752485  0.77913909  0.87666394  1
  Ta  Ta5  1  0.12472462  0.31731638  0.44204100  1
  Ta  Ta6  1  0.87527538  0.68268362  0.55795900  1
  Ta  Ta7  1  0.68268362  0.12472462  0.80740724  1
  Ta  Ta8  1  0.31731638  0.87527538  0.19259276  1
  P  P0  1  0.25000000  0.75000000  0.50000000  1
  P  P1  1  0.75000000  0.25000000  0.50000000  1
  O  O0  1  0.34936375  0.16133492  0.51069866  1
  O  O1  1  0.65063625  0.83866508  0.48930134  1
  O  O2  1  0.83866508  0.34936375  0.18802883  1
  O  O3  1  0.16133492  0.65063625  0.81197117  1
  O  O4  1  0.25012483  0.38849461  0.63862044  1
  O  O5  1  0.74987517  0.61150539  0.36137956  1
  O  O6  1  0.61150539  0.25012483  0.86163022  1
  O  O7  1  0.38849461  0.74987517  0.13836978  1
  O  O8  1  0.17918462  0.21154536  0.39072998  1
  O  O9  1  0.82081538  0.78845464  0.60927002  1
  O  O10  1  0.78845464  0.17918462  0.96763926  1
  O  O11  1  0.21154536  0.82081538  0.03236074  1
  O  O12  1  0.08589246  0.43937429  0.52526775  1
  O  O13  1  0.91410754  0.56062571  0.47473225  1
  O  O14  1  0.56062571  0.08589246  0.64651817  1
  O  O15  1  0.43937429  0.91410754  0.35348183  1
  O  O16  1  0.50000000  0.50000000  -0.00000000  1
  O  O17  1  0.11619236  0.04881496  0.16500633  1
  O  O18  1  0.88380764  0.95118504  0.83499367  1
  O  O19  1  0.95118504  0.11619236  0.06737740  1
  O  O20  1  0.04881496  0.88380764  0.93262260  1
  O  O21  1  0.01499915  0.27913109  0.29413023  1
  O  O22  1  0.98500085  0.72086891  0.70586977  1
  O  O23  1  0.72086891  0.01499915  0.73586806  1
  O  O24  1  0.27913109  0.98500085  0.26413194  1
loop_
_geom_bond_atom_site_label_1
_geom_bond_atom_site_label_2
_geom_bond_distance
_geom_bond_site_symmetry_2
O0 Ta6 1.998956 1_555
O0 Ta6 1.998956 1_445
O0 Ta1 2.284584 1_555
O1 Ta5 1.998956 1_555
O1 Ta5 1.998956 1_665
O1 Ta2 2.284584 1_555
O2 Ta8 1.998954 1_655
O2 Ta8 1.998958 1_545
O2 Ta3 2.284574 1_555
O3 Ta7 1.998954 1_455
O3 Ta7 1.998958 1_565
O3 Ta4 2.284574 1_555
O4 Ta2 1.993246 1_555
O4 Ta2 1.993246 1_445
O4 Ta5 2.296034 1_555
O5 Ta1 1.993246 1_665
O5 Ta1 1.993246 1_555
O5 Ta6 2.296034 1_555
O6 Ta4 1.993246 1_655
O6 Ta4 1.993246 1_545
O6 Ta7 2.296027 1_555
O7 Ta3 1.993246 1_565
O7 Ta3 1.993246 1_455
O7 Ta8 2.296027 1_555
O8 Ta5 1.894363 1_555
O8 Ta1 1.933068 1_555
O9 Ta6 1.894363 1_555
O9 Ta2 1.933068 1_555
O10 Ta7 1.894374 1_555
O10 Ta3 1.933063 1_556
O11 Ta8 1.894374 1_555
O11 Ta4 1.933063 1_554
O12 P1 1.931323 1_455
O12 P0 1.931325 1_555
O12 Ta5 2.039559 1_555
O13 P0 1.931323 1_655
O13 P1 1.931325 1_555
O13 Ta6 2.039559 1_555
O14 P1 1.931322 1_555
O14 P0 1.931322 1_545
O14 Ta7 2.039544 1_555
O15 P1 1.931322 1_565
O15 P0 1.931322 1_555
O15 Ta8 2.039544 1_555
O16 Ta0 1.926143 1_665
O16 Ta0 1.926143 1_555
O17 Ta1 1.838307 1_555
O17 Ta0 2.006803 1_555
O18 Ta2 1.838307 1_555
O18 Ta0 2.006803 1_666
O19 Ta3 1.838307 1_555
O19 Ta0 2.006813 1_655
O20 Ta4 1.838307 1_555
O20 Ta0 2.006813 1_566
O21 Ta5 1.849968 1_555
O21 Ta3 2.017743 1_455
O22 Ta6 1.849968 1_555
O22 Ta4 2.017743 1_655
O23 Ta7 1.849963 1_555
O23 Ta2 2.017740 1_545
O24 Ta8 1.849963 1_555
O24 Ta1 2.017740 1_565
