# generated using pymatgen
data_Re2Ni(MoS4)2
_symmetry_space_group_name_H-M   'P 1'
_cell_length_a   6.82542579
_cell_length_b   6.82542579
_cell_length_c   6.82542579
_cell_angle_alpha   120.50773339
_cell_angle_beta   119.42457441
_cell_angle_gamma   90.06119013
_symmetry_Int_Tables_number   1
_chemical_formula_structural   Re2Ni(MoS4)2
_chemical_formula_sum   'Re2 Ni1 Mo2 S8'
_cell_volume   224.93014269
_cell_formula_units_Z   1
loop_
 _symmetry_equiv_pos_site_id
 _symmetry_equiv_pos_as_xyz
  1  'x, y, z'
loop_
 _atom_site_type_symbol
 _atom_site_label
 _atom_site_symmetry_multiplicity
 _atom_site_fract_x
 _atom_site_fract_y
 _atom_site_fract_z
 _atom_site_occupancy
  Re  Re0  1  0.39514800  0.18679900  0.79165100  1
  Re  Re1  1  0.39514800  0.60349700  0.20834900  1
  Ni  Ni0  1  0.99977200  0.99977200  0.00000000  1
  Mo  Mo0  1  0.80973600  0.60275500  0.20698100  1
  Mo  Mo1  1  0.39577400  0.60275500  0.79301900  1
  S  S0  1  0.59581800  0.86901100  0.72680700  1
  S  S1  1  0.14220500  0.86901100  0.27319300  1
  S  S2  1  0.13662800  0.40111200  0.26448400  1
  S  S3  1  0.13662800  0.87214400  0.73551600  1
  S  S4  1  0.09392900  0.36261500  0.73131400  1
  S  S5  1  0.63130000  0.36261500  0.26868600  1
  S  S6  1  0.63395700  0.90679300  0.27283600  1
  S  S7  1  0.63395700  0.36112100  0.72716400  1
loop_
_geom_bond_atom_site_label_1
_geom_bond_atom_site_label_2
_geom_bond_distance
_geom_bond_site_symmetry_2
Re0 S7 2.344934 1_555
Re0 S5 2.347697 1_556
Re0 S4 2.347697 1_555
Re0 S3 2.522873 1_545
Re0 S0 2.530583 1_545
Re0 S1 2.530584 1_545
Re1 S6 2.344934 1_555
Re1 S5 2.347693 1_555
Re1 S4 2.347697 1_554
Re1 S2 2.522873 1_555
Re1 S1 2.530578 1_555
Re1 S0 2.530583 1_555
Ni0 S2 2.225340 1_665
Ni0 S3 2.225340 1_654
Ni0 S0 2.264733 1_554
Ni0 S1 2.264734 1_655
Mo0 S7 2.352876 1_554
Mo0 S6 2.352876 1_555
Mo0 S5 2.355371 1_555
Mo0 S3 2.592484 1_655
Mo0 S2 2.592484 1_655
Mo0 S1 2.608833 1_655
Mo1 S7 2.352876 1_555
Mo1 S6 2.352876 1_556
Mo1 S4 2.355367 1_555
Mo1 S2 2.592484 1_555
Mo1 S3 2.592484 1_555
Mo1 S0 2.608827 1_555
