# generated using pymatgen
data_Te2Mo(WS2)3
_symmetry_space_group_name_H-M   'P 1'
_cell_length_a   3.27414993
_cell_length_b   3.27414993
_cell_length_c   38.98438600
_cell_angle_alpha   90.00000000
_cell_angle_beta   90.00000000
_cell_angle_gamma   119.99999867
_symmetry_Int_Tables_number   1
_chemical_formula_structural   Te2Mo(WS2)3
_chemical_formula_sum   'Te2 Mo1 W3 S6'
_cell_volume   361.92489968
_cell_formula_units_Z   1
loop_
 _symmetry_equiv_pos_site_id
 _symmetry_equiv_pos_as_xyz
  1  'x, y, z'
loop_
 _atom_site_type_symbol
 _atom_site_label
 _atom_site_symmetry_multiplicity
 _atom_site_fract_x
 _atom_site_fract_y
 _atom_site_fract_z
 _atom_site_occupancy
  Te  Te0  1  0.33333300  0.66666700  0.33134900  1
  Te  Te1  1  0.33333300  0.66666700  0.23182300  1
  Mo  Mo0  1  0.33333300  0.66666700  0.09272500  1
  W  W0  1  0.33333300  0.66666700  0.47083300  1
  W  W1  1  0.66666700  0.33333300  0.28161900  1
  W  W2  1  0.66666700  0.33333300  0.65777000  1
  S  S0  1  0.33333300  0.66666700  0.69736100  1
  S  S1  1  0.66666700  0.33333300  0.05331400  1
  S  S2  1  0.66666700  0.33333300  0.43122100  1
  S  S3  1  0.66666700  0.33333300  0.13214700  1
  S  S4  1  0.66666700  0.33333300  0.51042400  1
  S  S5  1  0.33333300  0.66666700  0.61816100  1
loop_
_geom_bond_atom_site_label_1
_geom_bond_atom_site_label_2
_geom_bond_distance
_geom_bond_site_symmetry_2
Te0 W1 2.707744 1_455
Te0 W1 2.707744 1_565
Te0 W1 2.707748 1_555
Te1 W1 2.709587 1_455
Te1 W1 2.709587 1_565
Te1 W1 2.709591 1_555
Mo0 S1 2.435962 1_565
Mo0 S1 2.435962 1_455
Mo0 S1 2.435967 1_555
Mo0 S3 2.436233 1_455
Mo0 S3 2.436233 1_565
Mo0 S3 2.436237 1_555
S0 W2 2.440394 1_455
S0 W2 2.440394 1_565
S0 W2 2.440399 1_555
S2 W0 2.440912 1_545
S2 W0 2.440912 1_655
S2 W0 2.440916 1_555
S4 W0 2.440394 1_655
S4 W0 2.440394 1_545
S4 W0 2.440399 1_555
S5 W2 2.440838 1_455
S5 W2 2.440838 1_565
S5 W2 2.440843 1_555
