# generated using pymatgen
data_La2MgZn
_symmetry_space_group_name_H-M   'P 1'
_cell_length_a   12.43353545
_cell_length_b   12.84493884
_cell_length_c   12.84493913
_cell_angle_alpha   60.75272699
_cell_angle_beta   61.05350764
_cell_angle_gamma   61.05351118
_symmetry_Int_Tables_number   1
_chemical_formula_structural   La2MgZn
_chemical_formula_sum   'La2 Mg1 Zn1'
_cell_volume   1481.71698512
_cell_formula_units_Z   1
loop_
 _symmetry_equiv_pos_site_id
 _symmetry_equiv_pos_as_xyz
  1  'x, y, z'
loop_
 _atom_site_type_symbol
 _atom_site_label
 _atom_site_symmetry_multiplicity
 _atom_site_fract_x
 _atom_site_fract_y
 _atom_site_fract_z
 _atom_site_occupancy
  La  La0  1  0.73453243  0.00000012  0.00000012  1
  La  La1  1  0.26546757  0.99999988  -0.00000012  1
  Mg  Mg0  1  0.00000000  -0.00000000  0.00000000  1
  Zn  Zn0  1  0.50000000  0.00000000  -0.00000000  1
loop_
_geom_bond_atom_site_label_1
_geom_bond_atom_site_label_2
_geom_bond_distance
_geom_bond_site_symmetry_2
La0 Zn0 2.916069 1_555
La0 Mg0 3.300699 1_655
La1 Zn0 2.916069 1_565
La1 Mg0 3.300699 1_565
