# generated using pymatgen
data_Al2PbS4
_symmetry_space_group_name_H-M   'P 1'
_cell_length_a   6.02216573
_cell_length_b   6.02216573
_cell_length_c   10.52339961
_cell_angle_alpha   90.00000000
_cell_angle_beta   90.00000000
_cell_angle_gamma   120.97695361
_symmetry_Int_Tables_number   1
_chemical_formula_structural   Al2PbS4
_chemical_formula_sum   'Al4 Pb2 S8'
_cell_volume   327.21407691
_cell_formula_units_Z   2
loop_
 _symmetry_equiv_pos_site_id
 _symmetry_equiv_pos_as_xyz
  1  'x, y, z'
loop_
 _atom_site_type_symbol
 _atom_site_label
 _atom_site_symmetry_multiplicity
 _atom_site_fract_x
 _atom_site_fract_y
 _atom_site_fract_z
 _atom_site_occupancy
  Al  Al0  1  0.76208606  0.24025159  0.50000000  1
  Al  Al1  1  0.23791394  0.75974841  0.50000000  1
  Al  Al2  1  0.75974841  0.23791394  0.00000000  1
  Al  Al3  1  0.24025159  0.76208606  0.00000000  1
  Pb  Pb0  1  0.50000000  0.50000000  0.75000000  1
  Pb  Pb1  1  0.50000000  0.50000000  0.25000000  1
  S  S0  1  0.35487529  0.17863392  0.50000000  1
  S  S1  1  0.64512471  0.82136608  0.50000000  1
  S  S2  1  0.82136608  0.64512471  0.00000000  1
  S  S3  1  0.17863392  0.35487529  0.00000000  1
  S  S4  1  0.50000000  0.00000000  0.83767259  1
  S  S5  1  -0.00000000  0.50000000  0.66232741  1
  S  S6  1  0.50000000  0.00000000  0.16232741  1
  S  S7  1  -0.00000000  0.50000000  0.33767259  1
loop_
_geom_bond_atom_site_label_1
_geom_bond_atom_site_label_2
_geom_bond_distance
_geom_bond_site_symmetry_2
Al0 S1 2.242898 1_545
Al0 S5 2.260683 1_655
Al0 S7 2.260683 1_655
Al0 S0 2.283573 1_555
Al1 S0 2.242898 1_565
Al1 S5 2.260683 1_555
Al1 S7 2.260683 1_555
Al1 S1 2.283573 1_555
Al2 S3 2.242898 1_655
Al2 S4 2.260683 1_554
Al2 S6 2.260683 1_555
Al2 S2 2.283573 1_555
Al3 S2 2.242898 1_455
Al3 S4 2.260683 1_564
Al3 S6 2.260683 1_565
Al3 S3 2.283573 1_555
Pb0 S2 3.112803 1_556
Pb0 S3 3.112803 1_556
Pb0 S0 3.112803 1_555
Pb0 S1 3.112803 1_555
Pb0 S4 3.149260 1_565
Pb0 S5 3.149260 1_655
Pb0 S4 3.149260 1_555
Pb0 S5 3.149260 1_555
Pb1 S2 3.112803 1_555
Pb1 S0 3.112803 1_555
Pb1 S3 3.112803 1_555
Pb1 S1 3.112803 1_555
Pb1 S6 3.149260 1_555
Pb1 S7 3.149260 1_555
Pb1 S6 3.149260 1_565
Pb1 S7 3.149260 1_655
