# generated using pymatgen
data_Ca(Fe9O13)2
_symmetry_space_group_name_H-M   'P 1'
_cell_length_a   5.26193800
_cell_length_b   5.99812752
_cell_length_c   17.49230391
_cell_angle_alpha   90.00011936
_cell_angle_beta   98.06981389
_cell_angle_gamma   106.61246742
_symmetry_Int_Tables_number   1
_chemical_formula_structural   Ca(Fe9O13)2
_chemical_formula_sum   'Ca1 Fe18 O26'
_cell_volume   523.33658684
_cell_formula_units_Z   1
loop_
 _symmetry_equiv_pos_site_id
 _symmetry_equiv_pos_as_xyz
  1  'x, y, z'
loop_
 _atom_site_type_symbol
 _atom_site_label
 _atom_site_symmetry_multiplicity
 _atom_site_fract_x
 _atom_site_fract_y
 _atom_site_fract_z
 _atom_site_occupancy
  Ca  Ca0  1  0.58458400  0.39292900  0.77069400  1
  Fe  Fe0  1  0.99455400  0.74969900  0.49999900  1
  Fe  Fe1  1  0.00755200  0.25190300  0.50014800  1
  Fe  Fe2  1  0.71551000  0.67990300  0.95946400  1
  Fe  Fe3  1  0.70789400  0.17593700  0.95825000  1
  Fe  Fe4  1  0.28851400  0.82174700  0.04250400  1
  Fe  Fe5  1  0.29181100  0.32284800  0.04430500  1
  Fe  Fe6  1  0.50572700  0.62814300  0.58256700  1
  Fe  Fe7  1  0.50335300  0.12344300  0.58295400  1
  Fe  Fe8  1  0.49826800  0.87579400  0.41599800  1
  Fe  Fe9  1  0.49988600  0.37363500  0.41773700  1
  Fe  Fe10  1  0.14932100  0.53894500  0.87659000  1
  Fe  Fe11  1  0.11163800  0.02486600  0.86980800  1
  Fe  Fe12  1  0.86986200  0.96778500  0.13352000  1
  Fe  Fe13  1  0.87501100  0.46971000  0.13477200  1
  Fe  Fe14  1  0.04324900  0.51251900  0.67133900  1
  Fe  Fe15  1  0.00768400  0.00192400  0.67569300  1
  Fe  Fe16  1  0.98130800  0.99561000  0.32260500  1
  Fe  Fe17  1  0.97986800  0.49523300  0.32419900  1
  O  O0  1  0.01343900  0.01407000  0.99649200  1
  O  O1  1  0.02359800  0.49727300  0.99772000  1
  O  O2  1  0.22841700  0.54561500  0.77376000  1
  O  O3  1  0.22761900  0.06223300  0.77197300  1
  O  O4  1  0.76611400  0.94139900  0.22866700  1
  O  O5  1  0.76830300  0.44252200  0.22940100  1
  O  O6  1  0.40525700  0.86247300  0.93208000  1
  O  O7  1  0.41274600  0.34215000  0.92825800  1
  O  O8  1  0.57881400  0.64460700  0.06818300  1
  O  O9  1  0.58297400  0.14669900  0.06661200  1
  O  O10  1  0.87061300  0.70548500  0.86039900  1
  O  O11  1  0.86263400  0.22431300  0.86278800  1
  O  O12  1  0.12034900  0.78227300  0.13296400  1
  O  O13  1  0.12028800  0.27930200  0.13485400  1
  O  O14  1  0.76967800  0.68148700  0.68020600  1
  O  O15  1  0.76978600  0.20426000  0.67878500  1
  O  O16  1  0.23003200  0.80744700  0.32620300  1
  O  O17  1  0.23053300  0.30840800  0.32920200  1
  O  O18  1  0.20432900  0.80272400  0.60848100  1
  O  O19  1  0.22103700  0.30403900  0.61526100  1
  O  O20  1  0.76342800  0.69227800  0.39091300  1
  O  O21  1  0.75600400  0.18984100  0.38966500  1
  O  O22  1  0.74456400  0.92757400  0.52624600  1
  O  O23  1  0.73855200  0.44434900  0.52418100  1
  O  O24  1  0.27148300  0.57926800  0.46727400  1
  O  O25  1  0.27693100  0.05860100  0.46806000  1
loop_
_geom_bond_atom_site_label_1
_geom_bond_atom_site_label_2
_geom_bond_distance
_geom_bond_site_symmetry_2
Ca0 O3 2.311826 1_555
Ca0 O2 2.315948 1_555
Ca0 O15 2.426006 1_555
Ca0 O14 2.432822 1_555
Ca0 O11 2.437825 1_555
Ca0 O10 2.442474 1_555
Fe0 O22 2.012837 1_555
Fe0 O23 2.024171 1_555
Fe0 O18 2.032644 1_655
Fe0 O20 2.085122 1_555
Fe0 O24 2.140572 1_655
Fe0 O25 2.147505 1_665
Fe1 O22 2.132113 1_445
Fe1 O19 2.139699 1_555
Fe1 O23 2.148026 1_455
Fe1 O21 2.150717 1_455
Fe1 O24 2.186318 1_555
Fe1 O25 2.198102 1_555
Fe2 O10 2.004483 1_555
Fe2 O8 2.115611 1_556
Fe2 O0 2.193829 1_665
Fe2 O7 2.202410 1_555
Fe2 O6 2.212799 1_555
Fe2 O1 2.233100 1_655
Fe3 O11 1.944791 1_555
Fe3 O7 2.082720 1_555
Fe3 O9 2.083183 1_556
Fe3 O6 2.088999 1_545
Fe3 O0 2.136730 1_655
Fe3 O1 2.190531 1_655
Fe4 O12 1.901637 1_555
Fe4 O8 2.097490 1_555
Fe4 O6 2.101268 1_554
Fe4 O9 2.113600 1_565
Fe4 O1 2.118206 1_554
Fe4 O0 2.168235 1_564
Fe5 O13 1.912628 1_555
Fe5 O1 2.066842 1_554
Fe5 O8 2.082355 1_555
Fe5 O9 2.091316 1_555
Fe5 O0 2.092875 1_554
Fe5 O7 2.204429 1_554
Fe6 O14 2.007069 1_555
Fe6 O24 2.183554 1_555
Fe6 O22 2.198341 1_555
Fe6 O23 2.209713 1_555
Fe6 O19 2.219392 1_555
Fe6 O18 2.229046 1_555
Fe7 O15 1.990490 1_555
Fe7 O25 2.161632 1_555
Fe7 O18 2.200525 1_545
Fe7 O19 2.203493 1_555
Fe7 O22 2.276250 1_545
Fe7 O23 2.299718 1_555
Fe8 O16 1.916794 1_555
Fe8 O21 2.077112 1_565
Fe8 O20 2.097856 1_555
Fe8 O25 2.101448 1_565
Fe8 O24 2.116330 1_555
Fe8 O22 2.136183 1_555
Fe9 O17 1.904454 1_555
Fe9 O23 2.064662 1_555
Fe9 O21 2.075572 1_555
Fe9 O20 2.112658 1_555
Fe9 O25 2.178122 1_555
Fe9 O24 2.203764 1_555
Fe10 O2 1.900244 1_555
Fe10 O10 1.987428 1_455
Fe10 O11 2.040928 1_455
Fe10 O6 2.158763 1_555
Fe10 O7 2.171491 1_555
Fe10 O1 2.299698 1_555
Fe11 O3 1.888506 1_555
Fe11 O10 1.964077 1_445
Fe11 O11 2.003512 1_455
Fe11 O6 2.215933 1_545
Fe11 O7 2.235751 1_555
Fe11 O0 2.341831 1_555
Fe12 O4 1.816258 1_555
Fe12 O13 1.952385 1_665
Fe12 O12 1.953895 1_655
Fe12 O8 2.284809 1_555
Fe12 O9 2.287041 1_565
Fe12 O0 2.604157 1_664
Fe13 O5 1.813947 1_555
Fe13 O12 1.951916 1_655
Fe13 O13 1.952543 1_655
Fe13 O8 2.304693 1_555
Fe13 O9 2.306487 1_555
Fe13 O1 2.615011 1_654
Fe14 O2 1.896790 1_555
Fe14 O14 2.005073 1_455
Fe14 O15 2.009369 1_455
Fe14 O19 2.080308 1_555
Fe14 O18 2.091749 1_555
Fe15 O3 1.876157 1_555
Fe15 O14 1.979959 1_445
Fe15 O15 1.982562 1_455
Fe15 O19 2.198076 1_555
Fe15 O18 2.220137 1_545
Fe16 O4 1.831685 1_555
Fe16 O17 1.950352 1_665
Fe16 O16 1.952464 1_655
Fe16 O20 2.290044 1_555
Fe16 O21 2.306289 1_565
Fe17 O5 1.835612 1_555
Fe17 O17 1.953422 1_655
Fe17 O16 1.954099 1_655
Fe17 O20 2.280050 1_555
Fe17 O21 2.280201 1_555
