# generated using pymatgen
data_Li3MnCoO5
_symmetry_space_group_name_H-M   'P 1'
_cell_length_a   2.97991100
_cell_length_b   5.09955809
_cell_length_c   12.50547860
_cell_angle_alpha   100.73961627
_cell_angle_beta   88.94400177
_cell_angle_gamma   104.49726846
_symmetry_Int_Tables_number   1
_chemical_formula_structural   Li3MnCoO5
_chemical_formula_sum   'Li6 Mn2 Co2 O10'
_cell_volume   180.68307302
_cell_formula_units_Z   2
loop_
 _symmetry_equiv_pos_site_id
 _symmetry_equiv_pos_as_xyz
  1  'x, y, z'
loop_
 _atom_site_type_symbol
 _atom_site_label
 _atom_site_symmetry_multiplicity
 _atom_site_fract_x
 _atom_site_fract_y
 _atom_site_fract_z
 _atom_site_occupancy
  Li  Li0  1  0.29937500  0.59961400  0.10351400  1
  Li  Li1  1  0.90531400  0.79876000  0.30201000  1
  Li  Li2  1  0.49701400  0.98902100  0.50180600  1
  Li  Li3  1  0.07166000  0.18553400  0.68938500  1
  Li  Li4  1  0.71425600  0.41440000  0.90194100  1
  Li  Li5  1  0.81861200  0.61635100  0.59809200  1
  Mn  Mn0  1  0.99462700  0.99537000  0.00182200  1
  Mn  Mn1  1  0.39263200  0.79743300  0.79211900  1
  Co  Co0  1  0.60685100  0.20130100  0.20520800  1
  Co  Co1  1  0.20876100  0.40776600  0.40824700  1
  O  O0  1  0.67704100  0.28670300  0.05621000  1
  O  O1  1  0.23658000  0.48013800  0.25960000  1
  O  O2  1  0.86689100  0.67253800  0.44448000  1
  O  O3  1  0.45519600  0.90676100  0.66004500  1
  O  O4  1  0.00839500  0.06330600  0.84950200  1
  O  O5  1  0.96371100  0.91272600  0.14817100  1
  O  O6  1  0.52911800  0.11855800  0.34640300  1
  O  O7  1  0.14997100  0.29993800  0.53247200  1
  O  O8  1  0.78463000  0.54247800  0.75464300  1
  O  O9  1  0.31936300  0.71130400  0.94433000  1
loop_
_geom_bond_atom_site_label_1
_geom_bond_atom_site_label_2
_geom_bond_distance
_geom_bond_site_symmetry_2
Li0 O5 2.075726 1_455
Li0 O0 2.131298 1_455
Li0 O1 2.142183 1_555
Li0 O0 2.164612 1_555
Li0 O9 2.166090 1_554
Li0 O5 2.215018 1_555
Li1 O2 1.996175 1_555
Li1 O1 2.087675 1_655
Li1 O5 2.103069 1_555
Li1 O6 2.146176 1_665
Li1 O6 2.186201 1_565
Li1 O1 2.233641 1_555
Li2 O7 2.076101 1_565
Li2 O3 2.093198 1_555
Li2 O6 2.159221 1_565
Li2 O7 2.168699 1_665
Li2 O2 2.178445 1_455
Li2 O2 2.182617 1_555
Li3 O3 2.013246 1_445
Li3 O3 2.016301 1_545
Li3 O7 2.141718 1_555
Li3 O4 2.196775 1_555
Li3 O8 2.216087 1_455
Li3 O8 2.463178 1_555
Li4 O9 2.047940 1_655
Li4 O8 2.056508 1_555
Li4 O9 2.127929 1_555
Li4 O0 2.140647 1_556
Li4 O4 2.175055 1_655
Li4 O4 2.405767 1_555
Li5 O2 1.991812 1_555
Li5 O8 2.057523 1_555
Li5 O3 2.076221 1_555
Li5 O7 2.127520 1_655
Li5 O3 2.147550 1_655
Li5 O7 2.281259 1_555
Mn0 O5 1.948696 1_555
Mn0 O9 1.959548 1_654
Mn0 O0 1.966994 1_565
Mn0 O4 1.996509 1_664
Mn0 O9 2.206851 1_554
Mn0 O0 2.228645 1_665
Mn1 O3 1.831211 1_555
Mn1 O8 1.946192 1_555
Mn1 O8 1.953833 1_455
Mn1 O4 2.012113 1_565
Mn1 O9 2.027817 1_555
Mn1 O4 2.039732 1_665
Co0 O6 1.887617 1_555
Co0 O0 1.986891 1_555
Co0 O1 2.024702 1_555
Co0 O5 2.041953 1_545
Co0 O1 2.087251 1_655
Co0 O5 2.143477 1_445
Co1 O7 1.733925 1_555
Co1 O2 1.873471 1_455
Co1 O1 1.957878 1_555
Co1 O6 1.984233 1_555
Co1 O2 2.086518 1_555
Co1 O6 2.238788 1_455
