# generated using pymatgen
data_Zn2H24C12Br7O6
_symmetry_space_group_name_H-M   'P 1'
_cell_length_a   8.69669000
_cell_length_b   10.69974025
_cell_length_c   16.34866467
_cell_angle_alpha   98.28624587
_cell_angle_beta   103.68756460
_cell_angle_gamma   99.32643251
_symmetry_Int_Tables_number   1
_chemical_formula_structural   Zn2H24C12Br7O6
_chemical_formula_sum   'Zn4 H48 C24 Br14 O12'
_cell_volume   1431.88126442
_cell_formula_units_Z   2
loop_
 _symmetry_equiv_pos_site_id
 _symmetry_equiv_pos_as_xyz
  1  'x, y, z'
loop_
 _atom_site_type_symbol
 _atom_site_label
 _atom_site_symmetry_multiplicity
 _atom_site_fract_x
 _atom_site_fract_y
 _atom_site_fract_z
 _atom_site_occupancy
  Zn  Zn0  1  0.42872700  0.92172200  0.72532900  1
  Zn  Zn1  1  0.57127300  0.07827800  0.27467100  1
  Zn  Zn2  1  0.24672800  0.24071600  0.79206000  1
  Zn  Zn3  1  0.75327200  0.75928400  0.20794000  1
  H  H0  1  0.57374600  0.70394500  0.91081000  1
  H  H1  1  0.42625400  0.29605500  0.08919000  1
  H  H2  1  0.39746700  0.77334500  0.90439900  1
  H  H3  1  0.60253300  0.22665500  0.09560100  1
  H  H4  1  0.32879500  0.57284200  0.79539300  1
  H  H5  1  0.67120500  0.42715800  0.20460700  1
  H  H6  1  0.49341900  0.63205200  0.75199100  1
  H  H7  1  0.50658100  0.36794800  0.24800900  1
  H  H8  1  0.26725700  0.60699000  0.61713800  1
  H  H9  1  0.73274300  0.39301000  0.38286200  1
  H  H10  1  0.10993800  0.57727900  0.67071500  1
  H  H11  1  0.89006200  0.42272100  0.32928500  1
  H  H12  1  0.03066300  0.78370300  0.64659300  1
  H  H13  1  0.96933700  0.21629700  0.35340700  1
  H  H14  1  0.03595300  0.69500100  0.54527900  1
  H  H15  1  0.96404700  0.30499900  0.45472100  1
  H  H16  1  0.09136200  0.90992400  0.50208000  1
  H  H17  1  0.90863800  0.09007600  0.49792000  1
  H  H18  1  0.09529200  0.98965800  0.60802700  1
  H  H19  1  0.90470800  0.01034200  0.39197300  1
  H  H20  1  0.26293600  0.13522600  0.54431800  1
  H  H21  1  0.73706400  0.86477400  0.45568200  1
  H  H22  1  0.37574300  0.01436400  0.52188100  1
  H  H23  1  0.62425700  0.98563600  0.47811900  1
  H  H24  1  0.65786500  0.16698000  0.69876600  1
  H  H25  1  0.34213500  0.83302000  0.30123400  1
  H  H26  1  0.56937900  0.20403200  0.59727900  1
  H  H27  1  0.43062100  0.79596800  0.40272100  1
  H  H28  1  0.41747000  0.34747300  0.66127200  1
  H  H29  1  0.58253000  0.65252700  0.33872800  1
  H  H30  1  0.62923100  0.39793500  0.71280200  1
  H  H31  1  0.37076900  0.60206500  0.28719800  1
  H  H32  1  0.55795700  0.36664100  0.91226200  1
  H  H33  1  0.44204300  0.63335900  0.08773800  1
  H  H34  1  0.68364000  0.45255600  0.85765100  1
  H  H35  1  0.31636000  0.54744400  0.14234900  1
  H  H36  1  0.81490000  0.30879700  0.94283200  1
  H  H37  1  0.18510000  0.69120300  0.05716800  1
  H  H38  1  0.82067000  0.27529700  0.83409700  1
  H  H39  1  0.17933000  0.72470300  0.16590300  1
  H  H40  1  0.83260800  0.03292400  0.85449200  1
  H  H41  1  0.16739200  0.96707600  0.14550800  1
  H  H42  1  0.86119300  0.12007400  0.96087900  1
  H  H43  1  0.13880700  0.87992600  0.03912100  1
  H  H44  1  0.60959200  0.98002700  0.97193100  1
  H  H45  1  0.39040800  0.01997300  0.02806900  1
  H  H46  1  0.76512500  0.89360900  0.95975200  1
  H  H47  1  0.23487500  0.10639100  0.04024800  1
  C  C0  1  0.48713000  0.74924800  0.87020600  1
  C  C1  1  0.51287000  0.25075200  0.12979400  1
  C  C2  1  0.40418600  0.65934000  0.78551900  1
  C  C3  1  0.59581400  0.34066000  0.21448100  1
  C  C4  1  0.19598400  0.65242400  0.65593300  1
  C  C5  1  0.80401600  0.34757600  0.34406700  1
  C  C6  1  0.10917200  0.74413600  0.60996500  1
  C  C7  1  0.89082800  0.25586400  0.39003500  1
  C  C8  1  0.16780400  0.94944300  0.56779800  1
  C  C9  1  0.83219600  0.05055700  0.43220200  1
  C  C10  1  0.30823700  0.05184300  0.56583700  1
  C  C11  1  0.69176300  0.94815700  0.43416300  1
  C  C12  1  0.55058800  0.19399900  0.66046500  1
  C  C13  1  0.44941200  0.80600100  0.33953500  1
  C  C14  1  0.52187600  0.32077800  0.70237700  1
  C  C15  1  0.47812400  0.67922200  0.29762300  1
  C  C16  1  0.61739900  0.35678000  0.86024400  1
  C  C17  1  0.38260100  0.64322000  0.13975600  1
  C  C18  1  0.73874300  0.27020400  0.87660800  1
  C  C19  1  0.26125700  0.72979600  0.12339200  1
  C  C20  1  0.76972100  0.06316700  0.90289900  1
  C  C21  1  0.23027900  0.93683300  0.09710100  1
  C  C22  1  0.67913800  0.94790700  0.92740500  1
  C  C23  1  0.32086200  0.05209300  0.07259500  1
  Br  Br0  1  0.65196100  0.87363100  0.66790500  1
  Br  Br1  1  0.34803900  0.12636900  0.33209500  1
  Br  Br2  1  0.25350900  0.01713800  0.80801000  1
  Br  Br3  1  0.74649100  0.98286200  0.19199000  1
  Br  Br4  1  0.06289000  0.27288500  0.66876300  1
  Br  Br5  1  0.93711000  0.72711500  0.33123700  1
  Br  Br6  1  0.22535200  0.36797100  0.92386700  1
  Br  Br7  1  0.77464800  0.63202900  0.07613300  1
  Br  Br8  1  0.03637600  0.56259600  0.86408200  1
  Br  Br9  1  0.96362400  0.43740400  0.13591800  1
  Br  Br10  1  0.87779400  0.70825600  0.80252100  1
  Br  Br11  1  0.12220600  0.29174400  0.19747900  1
  Br  Br12  1  0.54443200  0.60592100  0.54615200  1
  Br  Br13  1  0.45556800  0.39407900  0.45384800  1
  O  O0  1  0.57221500  0.86407500  0.85184900  1
  O  O1  1  0.42778500  0.13592500  0.14815100  1
  O  O2  1  0.30231200  0.72916300  0.73488600  1
  O  O3  1  0.69768800  0.27083700  0.26511400  1
  O  O4  1  0.23255000  0.84723000  0.60311700  1
  O  O5  1  0.76745000  0.15277000  0.39688300  1
  O  O6  1  0.41386300  0.09124400  0.65150600  1
  O  O7  1  0.58613700  0.90875600  0.34849400  1
  O  O8  1  0.48430300  0.31352600  0.78340000  1
  O  O9  1  0.51569700  0.68647400  0.21660000  1
  O  O10  1  0.65823300  0.14079100  0.87068700  1
  O  O11  1  0.34176700  0.85920900  0.12931300  1
loop_
_geom_bond_atom_site_label_1
_geom_bond_atom_site_label_2
_geom_bond_distance
_geom_bond_site_symmetry_2
C0 H2 1.103143 1_555
C0 H0 1.103399 1_555
C0 O0 1.436601 1_555
C1 H3 1.103143 1_555
C1 H1 1.103399 1_555
C1 O1 1.436601 1_555
C2 H4 1.099534 1_555
C2 H6 1.102972 1_555
C2 O2 1.440141 1_555
C3 H5 1.099534 1_555
C3 H7 1.102972 1_555
C3 O3 1.440141 1_555
C4 H10 1.100647 1_555
C4 H8 1.103466 1_555
C4 O2 1.441845 1_555
C5 H11 1.100647 1_555
C5 H9 1.103466 1_555
C5 O3 1.441845 1_555
C6 H14 1.101265 1_555
C6 H12 1.103674 1_555
C6 O4 1.445486 1_555
C7 H15 1.101265 1_555
C7 H13 1.103674 1_555
C7 O5 1.445486 1_555
C8 H16 1.102271 1_555
C8 H18 1.103649 1_555
C8 O4 1.440239 1_555
C9 H17 1.102271 1_555
C9 H19 1.103649 1_555
C9 O5 1.440239 1_555
C10 H20 1.101707 1_555
C10 H22 1.102177 1_555
C10 O6 1.441727 1_555
C11 H21 1.101707 1_555
C11 H23 1.102177 1_555
C11 O7 1.441727 1_555
C12 H24 1.099635 1_555
C12 H26 1.100683 1_555
C12 O6 1.446215 1_555
C13 H25 1.099635 1_555
C13 H27 1.100683 1_555
C13 O7 1.446215 1_555
C14 H28 1.099200 1_555
C14 H30 1.102989 1_555
C14 O8 1.446946 1_555
C15 H29 1.099200 1_555
C15 H31 1.102989 1_555
C15 O9 1.446946 1_555
C16 H32 1.096112 1_555
C16 H34 1.102982 1_555
C16 O8 1.450125 1_555
C17 H33 1.096112 1_555
C17 H35 1.102982 1_555
C17 O9 1.450125 1_555
C18 H36 1.106569 1_555
C18 H38 1.107393 1_555
C18 O10 1.425488 1_555
C19 H37 1.106569 1_555
C19 H39 1.107393 1_555
C19 O11 1.425488 1_555
C20 H40 1.103856 1_555
C20 H42 1.105380 1_555
C20 O10 1.432715 1_555
C21 H41 1.103856 1_555
C21 H43 1.105380 1_555
C21 O11 1.432715 1_555
C22 H44 1.103377 1_555
C22 H46 1.103911 1_555
C22 O0 1.435886 1_555
C23 H45 1.103377 1_555
C23 H47 1.103911 1_555
C23 O1 1.435886 1_555
Br0 Zn0 2.441771 1_555
Br1 Zn1 2.441771 1_555
Br2 Zn2 2.452034 1_555
Br2 Zn0 2.504541 1_545
Br3 Zn3 2.452034 1_555
Br3 Zn1 2.504541 1_565
Br4 Zn2 2.364522 1_555
Br5 Zn3 2.364522 1_555
Br6 Zn2 2.440876 1_555
Br6 Br8 2.988073 1_555
Br7 Zn3 2.440876 1_555
Br7 Br9 2.988073 1_555
Br10 Br8 2.415748 1_655
Br11 Br9 2.415748 1_455
Br12 Br13 2.430350 1_555
O0 Zn0 2.368908 1_555
O1 Zn1 2.368908 1_555
O2 Zn0 2.217647 1_555
O3 Zn1 2.217647 1_555
O4 Zn0 2.241665 1_555
O5 Zn1 2.241665 1_555
O6 Zn0 2.323039 1_545
O7 Zn1 2.323039 1_565
O8 Zn2 2.131742 1_555
O9 Zn3 2.131742 1_555
