# generated using pymatgen
data_MgSi2
_symmetry_space_group_name_H-M   'P 1'
_cell_length_a   3.69541700
_cell_length_b   5.94014986
_cell_length_c   10.19678989
_cell_angle_alpha   97.87065319
_cell_angle_beta   92.99100996
_cell_angle_gamma   92.58055458
_symmetry_Int_Tables_number   1
_chemical_formula_structural   MgSi2
_chemical_formula_sum   'Mg4 Si8'
_cell_volume   221.11436633
_cell_formula_units_Z   4
loop_
 _symmetry_equiv_pos_site_id
 _symmetry_equiv_pos_as_xyz
  1  'x, y, z'
loop_
 _atom_site_type_symbol
 _atom_site_label
 _atom_site_symmetry_multiplicity
 _atom_site_fract_x
 _atom_site_fract_y
 _atom_site_fract_z
 _atom_site_occupancy
  Mg  Mg0  1  0.96342300  0.07787000  0.08260200  1
  Mg  Mg1  1  0.44516100  0.35895700  0.92008400  1
  Mg  Mg2  1  0.54258600  0.10017800  0.56764700  1
  Mg  Mg3  1  0.01972900  0.66007400  0.41758200  1
  Si  Si0  1  0.45626300  0.91490700  0.84256900  1
  Si  Si1  1  0.00020900  0.60240400  0.11963600  1
  Si  Si2  1  0.04390500  0.16032000  0.36000000  1
  Si  Si3  1  0.03221900  0.43483600  0.68173000  1
  Si  Si4  1  0.50003600  0.42184600  0.22589600  1
  Si  Si5  1  0.94764600  0.68835500  0.89322400  1
  Si  Si6  1  0.53820600  0.66711200  0.62890300  1
  Si  Si7  1  0.51013800  0.91283300  0.25986900  1
loop_
_geom_bond_atom_site_label_1
_geom_bond_atom_site_label_2
_geom_bond_distance
_geom_bond_site_symmetry_2
Mg0 Si7 2.772657 1_545
Mg0 Si5 2.799703 1_544
Mg0 Si2 2.801573 1_655
Mg0 Si1 2.908486 1_645
Mg0 Si7 2.931324 1_645
Mg0 Si4 2.959276 1_655
Mg0 Si4 3.000124 1_555
Mg0 Si0 3.024762 1_544
Mg0 Mg1 3.082415 1_654
Mg0 Si1 3.082793 1_655
Mg0 Mg1 3.149062 1_554
Mg0 Si0 3.196820 1_644
Mg1 Si0 2.650688 1_545
Mg1 Si5 2.687806 1_555
Mg1 Si5 2.775233 1_455
Mg1 Si3 2.900654 1_555
Mg1 Si1 2.948333 1_556
Mg1 Si1 2.988348 1_656
Mg1 Si4 3.084255 1_556
Mg2 Si3 2.720675 1_655
Mg2 Si6 2.728628 1_545
Mg2 Si2 2.804642 1_555
Mg2 Si2 2.932526 1_655
Mg2 Si3 2.965695 1_555
Mg2 Si0 3.174620 1_545
Mg3 Si6 2.802351 1_555
Mg3 Si4 2.849070 1_455
Mg3 Si6 2.862416 1_455
Mg3 Si2 2.952521 1_555
Mg3 Si4 2.967157 1_555
Mg3 Si7 2.974087 1_555
Mg3 Si7 2.997763 1_455
Mg3 Si1 3.007064 1_555
Mg3 Si2 3.105184 1_565
Mg3 Si3 3.166468 1_555
Si0 Si5 2.382116 1_455
Si0 Si5 2.384900 1_555
Si0 Si6 2.497150 1_555
Si1 Si5 2.431736 1_454
Si1 Si4 2.454346 1_555
Si1 Si4 2.467689 1_455
Si1 Si7 2.771232 1_555
Si1 Si7 2.928072 1_455
Si2 Si7 2.484500 1_545
Si2 Si7 2.492396 1_445
Si2 Si4 2.776869 1_555
Si3 Si6 2.401355 1_555
Si3 Si6 2.419583 1_455
Si3 Si5 2.497910 1_455
