# generated using pymatgen
data_KAs2Rh
_symmetry_space_group_name_H-M   'P 1'
_cell_length_a   6.91356664
_cell_length_b   6.91356664
_cell_length_c   6.91356664
_cell_angle_alpha   145.48323312
_cell_angle_beta   145.48323312
_cell_angle_gamma   49.61497782
_symmetry_Int_Tables_number   1
_chemical_formula_structural   KAs2Rh
_chemical_formula_sum   'K1 As2 Rh1'
_cell_volume   105.60877240
_cell_formula_units_Z   1
loop_
 _symmetry_equiv_pos_site_id
 _symmetry_equiv_pos_as_xyz
  1  'x, y, z'
loop_
 _atom_site_type_symbol
 _atom_site_label
 _atom_site_symmetry_multiplicity
 _atom_site_fract_x
 _atom_site_fract_y
 _atom_site_fract_z
 _atom_site_occupancy
  K  K0  1  0.00000000  0.00000000  0.00000000  1
  As  As0  1  0.65734700  0.65734700  0.00000000  1
  As  As1  1  0.34265300  0.34265300  0.00000000  1
  Rh  Rh0  1  0.25000000  0.75000000  0.50000000  1
loop_
_geom_bond_atom_site_label_1
_geom_bond_atom_site_label_2
_geom_bond_distance
_geom_bond_site_symmetry_2
As0 Rh0 2.357853 1_554
As0 Rh0 2.357853 1_655
As0 K0 3.509194 1_565
As0 K0 3.509194 1_655
As0 K0 3.509194 1_666
As0 K0 3.509194 1_554
As1 Rh0 2.357853 1_544
As1 Rh0 2.357853 1_555
As1 K0 3.509194 1_565
As1 K0 3.509194 1_655
As1 K0 3.509194 1_666
As1 K0 3.509194 1_554
