# generated using pymatgen
data_Ca2Mn2O5
_symmetry_space_group_name_H-M   'P 1'
_cell_length_a   5.48369071
_cell_length_b   5.63887658
_cell_length_c   8.49237648
_cell_angle_alpha   110.53294206
_cell_angle_beta   70.12517640
_cell_angle_gamma   92.86115429
_symmetry_Int_Tables_number   1
_chemical_formula_structural   Ca2Mn2O5
_chemical_formula_sum   'Ca4 Mn4 O10'
_cell_volume   230.55217383
_cell_formula_units_Z   2
loop_
 _symmetry_equiv_pos_site_id
 _symmetry_equiv_pos_as_xyz
  1  'x, y, z'
loop_
 _atom_site_type_symbol
 _atom_site_label
 _atom_site_symmetry_multiplicity
 _atom_site_fract_x
 _atom_site_fract_y
 _atom_site_fract_z
 _atom_site_occupancy
  Ca  Ca0  1  0.40095300  0.12654500  0.21261300  1
  Ca  Ca1  1  0.60377900  0.86979400  0.78209400  1
  Ca  Ca2  1  0.88895500  0.58380900  0.21678700  1
  Ca  Ca3  1  0.11669500  0.41785600  0.78740800  1
  Mn  Mn0  1  0.70937200  0.19383200  0.50099400  1
  Mn  Mn1  1  0.21695000  0.81872100  0.49919100  1
  Mn  Mn2  1  0.51192500  0.49611500  0.00375300  1
  Mn  Mn3  1  0.01388600  0.99486300  0.99781900  1
  O  O0  1  0.35203900  0.16948300  0.49913400  1
  O  O1  1  0.84318200  0.87401700  0.50006600  1
  O  O2  1  0.27844700  0.23697700  0.97164000  1
  O  O3  1  0.25530800  0.74228300  0.03914200  1
  O  O4  1  0.76724100  0.24004700  0.96238500  1
  O  O5  1  0.74613500  0.75886300  0.02781800  1
  O  O6  1  0.88880200  0.18987400  0.26514500  1
  O  O7  1  0.17426000  0.80133000  0.74046200  1
  O  O8  1  0.41493200  0.55632000  0.25598600  1
  O  O9  1  0.64513900  0.42927200  0.73756300  1
loop_
_geom_bond_atom_site_label_1
_geom_bond_atom_site_label_2
_geom_bond_distance
_geom_bond_site_symmetry_2
Ca0 O0 2.280501 1_555
Ca0 O8 2.321447 1_555
Ca0 O3 2.427178 1_545
Ca0 O5 2.536526 1_545
Ca0 O4 2.623631 1_554
Ca0 O2 2.626291 1_554
Ca0 O6 2.711191 1_455
Ca0 O6 2.843882 1_555
Ca1 O1 2.315052 1_555
Ca1 O9 2.388284 1_555
Ca1 O4 2.451657 1_565
Ca1 O2 2.477702 1_565
Ca1 O7 2.490261 1_555
Ca1 O3 2.657333 1_556
Ca1 O5 2.725322 1_556
Ca1 O7 3.055053 1_655
Ca2 O1 2.323187 1_555
Ca2 O6 2.396366 1_555
Ca2 O3 2.411681 1_655
Ca2 O5 2.491207 1_555
Ca2 O8 2.509844 1_555
Ca2 O4 2.604641 1_554
Ca2 O2 2.694151 1_654
Ca2 O8 3.031118 1_655
Ca3 O0 2.290724 1_555
Ca3 O7 2.320656 1_555
Ca3 O4 2.408897 1_455
Ca3 O2 2.535406 1_555
Ca3 O3 2.591781 1_556
Ca3 O5 2.609656 1_456
Ca3 O9 2.765869 1_455
Ca3 O9 2.783372 1_555
Mn0 O6 1.900309 1_555
Mn0 O9 1.901931 1_555
Mn0 O0 1.962504 1_555
Mn0 O1 1.977101 1_545
Mn1 O7 2.018712 1_555
Mn1 O8 2.031209 1_555
Mn1 O0 2.077263 1_565
Mn1 O1 2.085683 1_455
Mn2 O3 1.900583 1_555
Mn2 O2 1.902611 1_554
Mn2 O5 1.913773 1_555
Mn2 O4 1.918363 1_554
Mn2 O8 1.928678 1_555
Mn2 O9 2.023094 1_554
Mn3 O5 1.944246 1_456
Mn3 O2 1.952935 1_565
Mn3 O7 1.963892 1_555
Mn3 O6 2.024582 1_466
Mn3 O4 2.141638 1_465
Mn3 O3 2.181538 1_556
