# generated using pymatgen
data_KBi3
_symmetry_space_group_name_H-M   'P 1'
_cell_length_a   5.07235300
_cell_length_b   5.07235300
_cell_length_c   5.07235300
_cell_angle_alpha   90.00000000
_cell_angle_beta   90.00000000
_cell_angle_gamma   90.00000000
_symmetry_Int_Tables_number   1
_chemical_formula_structural   KBi3
_chemical_formula_sum   'K1 Bi3'
_cell_volume   130.50537811
_cell_formula_units_Z   1
loop_
 _symmetry_equiv_pos_site_id
 _symmetry_equiv_pos_as_xyz
  1  'x, y, z'
loop_
 _atom_site_type_symbol
 _atom_site_label
 _atom_site_symmetry_multiplicity
 _atom_site_fract_x
 _atom_site_fract_y
 _atom_site_fract_z
 _atom_site_occupancy
  K  K0  1  0.00000000  0.00000000  0.00000000  1
  Bi  Bi0  1  0.00000000  0.50000000  0.50000000  1
  Bi  Bi1  1  0.50000000  0.00000000  0.50000000  1
  Bi  Bi2  1  0.50000000  0.50000000  0.00000000  1
loop_
_geom_bond_atom_site_label_1
_geom_bond_atom_site_label_2
_geom_bond_distance
_geom_bond_site_symmetry_2
Bi0 Bi1 3.586695 1_465
Bi0 Bi2 3.586695 1_455
Bi0 Bi2 3.586695 1_555
Bi0 Bi1 3.586695 1_455
Bi0 K0 3.586695 1_556
Bi0 Bi1 3.586695 1_565
Bi0 Bi1 3.586695 1_555
Bi0 K0 3.586695 1_555
Bi0 K0 3.586695 1_566
Bi0 Bi2 3.586695 1_456
Bi0 K0 3.586695 1_565
Bi0 Bi2 3.586695 1_556
Bi1 K0 3.586695 1_655
Bi1 K0 3.586695 1_656
Bi1 Bi2 3.586695 1_555
Bi1 Bi2 3.586695 1_545
Bi1 K0 3.586695 1_555
Bi1 K0 3.586695 1_556
Bi1 Bi2 3.586695 1_546
Bi1 Bi2 3.586695 1_556
Bi2 K0 3.586695 1_655
Bi2 K0 3.586695 1_665
Bi2 K0 3.586695 1_555
Bi2 K0 3.586695 1_565
