# generated using pymatgen
data_Li3Fe2P4HO14
_symmetry_space_group_name_H-M   'P 1'
_cell_length_a   5.11800600
_cell_length_b   5.23657884
_cell_length_c   12.45390942
_cell_angle_alpha   101.04470006
_cell_angle_beta   89.17679087
_cell_angle_gamma   118.69583122
_symmetry_Int_Tables_number   1
_chemical_formula_structural   Li3Fe2P4HO14
_chemical_formula_sum   'Li3 Fe2 P4 H1 O14'
_cell_volume   286.18820923
_cell_formula_units_Z   1
loop_
 _symmetry_equiv_pos_site_id
 _symmetry_equiv_pos_as_xyz
  1  'x, y, z'
loop_
 _atom_site_type_symbol
 _atom_site_label
 _atom_site_symmetry_multiplicity
 _atom_site_fract_x
 _atom_site_fract_y
 _atom_site_fract_z
 _atom_site_occupancy
  Li  Li0  1  0.79002300  0.19451000  0.99917500  1
  Li  Li1  1  0.00000000  0.00000000  0.50000000  1
  Li  Li2  1  0.20997700  0.80549000  0.00082500  1
  Fe  Fe0  1  0.86403500  0.06310300  0.23144700  1
  Fe  Fe1  1  0.13596500  0.93689700  0.76855300  1
  P  P0  1  0.70622100  0.41144100  0.37232400  1
  P  P1  1  0.46356000  0.43033900  0.14306000  1
  P  P2  1  0.53644000  0.56966100  0.85694000  1
  P  P3  1  0.29377900  0.58855900  0.62767600  1
  H  H0  1  0.50000000  0.50000000  0.50000000  1
  O  O0  1  0.85189000  0.22092200  0.36659900  1
  O  O1  1  0.70632600  0.36215300  0.12103500  1
  O  O2  1  0.14585100  0.22413400  0.09887100  1
  O  O3  1  0.42965500  0.33805800  0.27446400  1
  O  O4  1  0.54417100  0.31465700  0.47674200  1
  O  O5  1  0.46282700  0.24092400  0.88674600  1
  O  O6  1  0.91157600  0.74207000  0.34949600  1
  O  O7  1  0.08842400  0.25793000  0.65050400  1
  O  O8  1  0.53717300  0.75907600  0.11325400  1
  O  O9  1  0.45582900  0.68534300  0.52325800  1
  O  O10  1  0.57034500  0.66194200  0.72553600  1
  O  O11  1  0.85414900  0.77586600  0.90112900  1
  O  O12  1  0.29367400  0.63784700  0.87896500  1
  O  O13  1  0.14811000  0.77907800  0.63340100  1
loop_
_geom_bond_atom_site_label_1
_geom_bond_atom_site_label_2
_geom_bond_distance
_geom_bond_site_symmetry_2
Li0 O1 1.757655 1_556
Li0 O2 2.145236 1_656
Li0 O5 2.326470 1_555
Li0 O11 2.461400 1_545
Li1 O7 2.002431 1_555
Li1 O6 2.002431 1_445
Li1 O13 2.507557 1_545
Li1 O0 2.507557 1_455
Li1 O9 2.511626 1_445
Li1 O4 2.511626 1_555
Li2 O12 1.757655 1_554
Li2 O11 2.145236 1_454
Li2 O8 2.326470 1_555
Li2 O2 2.461400 1_565
Fe0 O0 1.741629 1_555
Fe0 O8 2.028568 1_545
Fe0 O2 2.194205 1_655
Fe0 O6 2.529191 1_545
Fe0 O3 2.546876 1_655
Fe0 O1 2.658089 1_555
Fe1 O13 1.741629 1_555
Fe1 O5 2.028568 1_565
Fe1 O11 2.194205 1_455
Fe1 O7 2.529191 1_565
Fe1 O10 2.546876 1_455
Fe1 O12 2.658089 1_555
H0 O4 1.085408 1_555
H0 O9 1.085408 1_555
O0 P0 1.497246 1_555
O1 P1 1.457807 1_555
O2 P1 1.491553 1_555
O3 P0 1.727519 1_555
O3 P1 1.776528 1_555
O4 P0 1.566418 1_555
O5 P2 1.691490 1_555
O6 P0 1.617283 1_555
O7 P3 1.617283 1_555
O8 P1 1.691490 1_555
O9 P3 1.566418 1_555
O10 P3 1.727519 1_555
O10 P2 1.776528 1_555
O11 P2 1.491553 1_555
O12 P2 1.457807 1_555
O13 P3 1.497246 1_555
