# generated using pymatgen
data_Mg7Sc
_symmetry_space_group_name_H-M   'P 1'
_cell_length_a   6.37481446
_cell_length_b   6.37481446
_cell_length_c   6.37481516
_cell_angle_alpha   59.99986336
_cell_angle_beta   59.99986336
_cell_angle_gamma   59.99987436
_symmetry_Int_Tables_number   1
_chemical_formula_structural   Mg7Sc
_chemical_formula_sum   'Mg7 Sc1'
_cell_volume   183.18351460
_cell_formula_units_Z   1
loop_
 _symmetry_equiv_pos_site_id
 _symmetry_equiv_pos_as_xyz
  1  'x, y, z'
loop_
 _atom_site_type_symbol
 _atom_site_label
 _atom_site_symmetry_multiplicity
 _atom_site_fract_x
 _atom_site_fract_y
 _atom_site_fract_z
 _atom_site_occupancy
  Mg  Mg0  1  0.50000000  0.50000000  0.50000000  1
  Mg  Mg1  1  0.00000000  0.00000000  0.50000000  1
  Mg  Mg2  1  0.50000000  0.00000000  0.50000000  1
  Mg  Mg3  1  0.00000000  0.50000000  0.50000000  1
  Mg  Mg4  1  0.50000000  0.50000000  -0.00000000  1
  Mg  Mg5  1  0.00000000  0.50000000  0.00000000  1
  Mg  Mg6  1  0.50000000  -0.00000000  0.00000000  1
  Sc  Sc0  1  0.00000000  0.00000000  0.00000000  1
loop_
_geom_bond_atom_site_label_1
_geom_bond_atom_site_label_2
_geom_bond_distance
_geom_bond_site_symmetry_2
Mg0 Mg6 3.187401 1_565
Mg0 Mg6 3.187401 1_556
Mg0 Mg5 3.187401 1_655
Mg0 Mg5 3.187401 1_556
Mg0 Mg1 3.187401 1_655
Mg0 Mg1 3.187401 1_565
Mg0 Mg2 3.187407 1_555
Mg0 Mg2 3.187407 1_565
Mg0 Mg3 3.187407 1_555
Mg0 Mg3 3.187407 1_655
Mg0 Mg4 3.187408 1_556
Mg0 Mg4 3.187408 1_555
Mg1 Mg6 3.187401 1_555
Mg1 Mg6 3.187401 1_456
Mg1 Mg5 3.187401 1_546
Mg1 Mg5 3.187401 1_555
Mg1 Mg2 3.187407 1_555
Mg1 Mg3 3.187407 1_545
Mg1 Mg3 3.187407 1_555
Mg1 Mg2 3.187407 1_455
Mg1 Sc0 3.187408 1_556
Mg1 Sc0 3.187408 1_555
Mg2 Mg4 3.187401 1_555
Mg2 Sc0 3.187401 1_655
Mg2 Sc0 3.187401 1_556
Mg2 Mg4 3.187401 1_546
Mg2 Mg3 3.187401 1_555
Mg2 Mg3 3.187401 1_645
Mg2 Mg6 3.187408 1_556
Mg2 Mg6 3.187408 1_555
Mg3 Mg4 3.187401 1_555
Mg3 Sc0 3.187401 1_556
Mg3 Sc0 3.187401 1_565
Mg3 Mg4 3.187401 1_456
Mg3 Mg5 3.187408 1_556
Mg3 Mg5 3.187408 1_555
Mg4 Sc0 3.187401 1_565
Mg4 Sc0 3.187401 1_655
Mg4 Mg5 3.187407 1_655
Mg4 Mg6 3.187407 1_565
Mg4 Mg5 3.187407 1_555
Mg4 Mg6 3.187407 1_555
Mg5 Mg6 3.187401 1_555
Mg5 Mg6 3.187401 1_465
Mg5 Sc0 3.187407 1_555
Mg5 Sc0 3.187407 1_565
Mg6 Sc0 3.187407 1_555
Mg6 Sc0 3.187407 1_655
