# generated using pymatgen
data_KCeMg14
_symmetry_space_group_name_H-M   'P 1'
_cell_length_a   7.11299580
_cell_length_b   7.11299580
_cell_length_c   10.89481400
_cell_angle_alpha   90.00000000
_cell_angle_beta   90.00000000
_cell_angle_gamma   119.99999812
_symmetry_Int_Tables_number   1
_chemical_formula_structural   KCeMg14
_chemical_formula_sum   'K1 Ce1 Mg14'
_cell_volume   477.37048568
_cell_formula_units_Z   1
loop_
 _symmetry_equiv_pos_site_id
 _symmetry_equiv_pos_as_xyz
  1  'x, y, z'
loop_
 _atom_site_type_symbol
 _atom_site_label
 _atom_site_symmetry_multiplicity
 _atom_site_fract_x
 _atom_site_fract_y
 _atom_site_fract_z
 _atom_site_occupancy
  K  K0  1  0.00000000  0.00000000  0.00000000  1
  Ce  Ce0  1  0.00000000  0.00000000  0.50000000  1
  Mg  Mg0  1  0.00570500  0.50285200  0.00000000  1
  Mg  Mg1  1  0.00747300  0.50373600  0.50000000  1
  Mg  Mg2  1  0.49714800  0.99429500  0.00000000  1
  Mg  Mg3  1  0.49626400  0.99252700  0.50000000  1
  Mg  Mg4  1  0.49714800  0.50285200  0.00000000  1
  Mg  Mg5  1  0.49626400  0.50373600  0.50000000  1
  Mg  Mg6  1  0.16809700  0.83190300  0.25780000  1
  Mg  Mg7  1  0.16809700  0.83190300  0.74220000  1
  Mg  Mg8  1  0.16809700  0.33619400  0.25780000  1
  Mg  Mg9  1  0.16809700  0.33619400  0.74220000  1
  Mg  Mg10  1  0.66380600  0.83190300  0.25780000  1
  Mg  Mg11  1  0.66380600  0.83190300  0.74220000  1
  Mg  Mg12  1  0.66666700  0.33333300  0.25157700  1
  Mg  Mg13  1  0.66666700  0.33333300  0.74842300  1
loop_
_geom_bond_atom_site_label_1
_geom_bond_atom_site_label_2
_geom_bond_distance
_geom_bond_site_symmetry_2
K0 Mg7 3.489642 1_544
K0 Mg6 3.489642 1_545
K0 Mg9 3.489642 1_554
K0 Mg11 3.489642 1_444
K0 Mg8 3.489642 1_555
K0 Mg10 3.489642 1_445
K0 Mg2 3.556668 1_445
K0 Mg0 3.556668 1_555
K0 Mg4 3.556672 1_555
K0 Mg4 3.556672 1_445
K0 Mg0 3.556675 1_545
K0 Mg2 3.556675 1_545
Ce0 Mg6 3.354365 1_545
Ce0 Mg7 3.354365 1_545
Ce0 Mg8 3.354365 1_555
Ce0 Mg10 3.354365 1_445
Ce0 Mg9 3.354365 1_555
Ce0 Mg11 3.354365 1_445
Ce0 Mg3 3.556792 1_445
Ce0 Mg1 3.556792 1_555
Ce0 Mg5 3.556796 1_555
Ce0 Mg5 3.556796 1_445
Ce0 Mg1 3.556799 1_545
Ce0 Mg3 3.556799 1_545
Mg0 Mg13 3.445899 1_454
Mg0 Mg12 3.445899 1_455
Mg0 Mg9 3.463740 1_554
Mg0 Mg8 3.463740 1_555
Mg0 Mg7 3.463744 1_554
Mg0 Mg6 3.463744 1_555
Mg0 Mg4 3.495632 1_555
Mg0 Mg2 3.495632 1_555
Mg1 Mg8 3.324152 1_555
Mg1 Mg9 3.324152 1_555
Mg1 Mg6 3.324156 1_555
Mg1 Mg7 3.324156 1_555
Mg1 Mg13 3.425295 1_455
Mg1 Mg12 3.425295 1_455
Mg1 Mg5 3.476768 1_555
Mg1 Mg3 3.476768 1_555
Mg2 Mg7 3.463744 1_554
Mg2 Mg6 3.463744 1_555
Mg2 Mg4 3.495632 1_555
Mg3 Mg6 3.324156 1_555
Mg3 Mg7 3.324156 1_555
Mg3 Mg5 3.476768 1_555
Mg4 Mg9 3.463744 1_554
Mg4 Mg8 3.463744 1_555
Mg5 Mg8 3.324156 1_555
Mg5 Mg9 3.324156 1_555
Mg6 Mg8 3.525976 1_555
Mg6 Mg8 3.587020 1_565
Mg7 Mg9 3.525976 1_555
Mg7 Mg9 3.587020 1_565
Mg10 Mg3 3.324152 1_555
Mg10 Mg5 3.324156 1_555
Mg10 Mg2 3.463740 1_555
Mg10 Mg4 3.463744 1_555
Mg10 Mg6 3.525976 1_555
Mg10 Mg8 3.525976 1_555
Mg10 Mg12 3.557184 1_565
Mg10 Mg12 3.557191 1_555
Mg10 Mg6 3.587020 1_655
Mg10 Mg8 3.587020 1_665
Mg11 Mg3 3.324152 1_555
Mg11 Mg5 3.324156 1_555
Mg11 Mg2 3.463740 1_556
Mg11 Mg4 3.463744 1_556
Mg11 Mg7 3.525976 1_555
Mg11 Mg9 3.525976 1_555
Mg11 Mg13 3.557184 1_565
Mg11 Mg13 3.557191 1_555
Mg11 Mg7 3.587020 1_655
Mg11 Mg9 3.587020 1_665
Mg12 Mg5 3.425295 1_555
Mg12 Mg3 3.425295 1_545
Mg12 Mg4 3.445899 1_555
Mg12 Mg2 3.445899 1_545
Mg12 Mg8 3.557184 1_655
Mg12 Mg6 3.557188 1_655
Mg12 Mg6 3.557188 1_545
Mg12 Mg8 3.557191 1_555
Mg13 Mg5 3.425295 1_555
Mg13 Mg3 3.425295 1_545
Mg13 Mg4 3.445899 1_556
Mg13 Mg2 3.445899 1_546
Mg13 Mg9 3.557184 1_655
Mg13 Mg7 3.557188 1_655
Mg13 Mg7 3.557188 1_545
Mg13 Mg9 3.557191 1_555
