# generated using pymatgen
data_MnAu3
_symmetry_space_group_name_H-M   'P 1'
_cell_length_a   17.90037228
_cell_length_b   17.90037228
_cell_length_c   17.90037363
_cell_angle_alpha   19.63630585
_cell_angle_beta   19.63630585
_cell_angle_gamma   19.63630692
_symmetry_Int_Tables_number   1
_chemical_formula_structural   MnAu3
_chemical_formula_sum   'Mn8 Au24'
_cell_volume   566.43458158
_cell_formula_units_Z   8
loop_
 _symmetry_equiv_pos_site_id
 _symmetry_equiv_pos_as_xyz
  1  'x, y, z'
loop_
 _atom_site_type_symbol
 _atom_site_label
 _atom_site_symmetry_multiplicity
 _atom_site_fract_x
 _atom_site_fract_y
 _atom_site_fract_z
 _atom_site_occupancy
  Mn  Mn0_0  1  0.00000000  0.00000000  0.00000000  1
  Mn  Mn0_1  1  0.00000000  0.00000000  0.50000000  1
  Mn  Mn0_2  1  1.00000000  0.50000000  0.00000000  1
  Mn  Mn0_3  1  1.00000000  0.50000000  0.50000000  1
  Mn  Mn0_4  1  0.50000000  0.00000000  0.00000000  1
  Mn  Mn0_5  1  0.50000000  1.00000000  0.50000000  1
  Mn  Mn0_6  1  0.50000000  0.50000000  0.00000000  1
  Mn  Mn0_7  1  0.50000000  0.50000000  0.50000000  1
  Au  Au0_0  1  0.12800750  0.12800750  0.12800750  1
  Au  Au0_1  1  0.12800750  0.12800750  0.62800750  1
  Au  Au0_2  1  0.12800750  0.62800750  0.12800750  1
  Au  Au0_3  1  0.12800750  0.62800750  0.62800750  1
  Au  Au0_4  1  0.62800750  0.12800750  0.12800750  1
  Au  Au0_5  1  0.62800750  0.12800750  0.62800750  1
  Au  Au0_6  1  0.62800750  0.62800750  0.12800750  1
  Au  Au0_7  1  0.62800750  0.62800750  0.62800750  1
  Au  Au1_0  1  0.25000000  0.25000000  0.25000000  1
  Au  Au1_1  1  0.25000000  0.25000000  0.75000000  1
  Au  Au1_2  1  0.25000000  0.75000000  0.25000000  1
  Au  Au1_3  1  0.25000000  0.75000000  0.75000000  1
  Au  Au1_4  1  0.75000000  0.25000000  0.25000000  1
  Au  Au1_5  1  0.75000000  0.25000000  0.75000000  1
  Au  Au1_6  1  0.75000000  0.75000000  0.25000000  1
  Au  Au1_7  1  0.75000000  0.75000000  0.75000000  1
  Au  Au2_0  1  0.37199250  0.37199250  0.37199250  1
  Au  Au2_1  1  0.37199250  0.37199250  0.87199250  1
  Au  Au2_2  1  0.37199250  0.87199250  0.37199250  1
  Au  Au2_3  1  0.37199250  0.87199250  0.87199250  1
  Au  Au2_4  1  0.87199250  0.37199250  0.37199250  1
  Au  Au2_5  1  0.87199250  0.37199250  0.87199250  1
  Au  Au2_6  1  0.87199250  0.87199250  0.37199250  1
  Au  Au2_7  1  0.87199250  0.87199250  0.87199250  1
loop_
_geom_bond_atom_site_label_1
_geom_bond_atom_site_label_2
_geom_bond_distance
_geom_bond_site_symmetry_2
Au0_0 Mn0_4 2.692316 1_555
Au0_0 Mn0_2 2.692316 1_455
Au0_0 Mn0_1 2.692316 1_555
Au0_0 Au1_4 2.939053 1_455
Au0_0 Au1_2 2.939053 1_545
Au0_0 Au1_1 2.939053 1_554
Au0_1 Mn0_3 2.692316 1_455
Au0_1 Mn0_5 2.692316 1_545
Au0_1 Mn0_0 2.692316 1_556
Au0_1 Au1_5 2.939053 1_455
Au0_1 Au1_3 2.939053 1_545
Au0_1 Au1_0 2.939053 1_555
Au0_2 Mn0_6 2.692316 1_555
Au0_2 Mn0_0 2.692316 1_565
Au0_2 Mn0_3 2.692316 1_455
Au0_2 Au1_0 2.939053 1_555
Au0_2 Au1_6 2.939053 1_455
Au0_2 Au1_3 2.939053 1_554
Au0_3 Mn0_7 2.692316 1_555
Au0_3 Mn0_1 2.692316 1_565
Au0_3 Mn0_2 2.692316 1_456
Au0_3 Au1_1 2.939053 1_555
Au0_3 Au1_7 2.939053 1_455
Au0_3 Au1_2 2.939053 1_555
Au0_4 Mn0_6 2.692316 1_555
Au0_4 Mn0_0 2.692316 1_655
Au0_4 Mn0_5 2.692316 1_545
Au0_4 Au1_0 2.939053 1_555
Au0_4 Au1_6 2.939053 1_545
Au0_4 Au1_5 2.939053 1_554
Au0_5 Mn0_7 2.692316 1_555
Au0_5 Mn0_1 2.692316 1_655
Au0_5 Mn0_4 2.692316 1_556
Au0_5 Au1_7 2.939053 1_545
Au0_5 Au1_1 2.939053 1_555
Au0_5 Au1_4 2.939053 1_555
Au0_6 Mn0_2 2.692316 1_555
Au0_6 Mn0_4 2.692316 1_565
Au0_6 Mn0_7 2.692316 1_555
Au0_6 Au1_4 2.939053 1_555
Au0_6 Au1_2 2.939053 1_555
Au0_6 Au1_7 2.939053 1_554
Au0_7 Mn0_3 2.692316 1_555
Au0_7 Mn0_5 2.692316 1_555
Au0_7 Mn0_6 2.692316 1_556
Au0_7 Au1_5 2.939053 1_555
Au0_7 Au1_3 2.939053 1_555
Au0_7 Au1_6 2.939053 1_555
Au1_0 Au2_2 2.939053 1_545
Au1_0 Au2_4 2.939053 1_455
Au1_0 Au2_1 2.939053 1_554
Au1_0 Au1_3 3.052402 1_554
Au1_0 Au1_5 3.052402 1_554
Au1_0 Au1_5 3.052402 1_455
Au1_0 Au1_3 3.052402 1_545
Au1_0 Au1_6 3.052402 1_455
Au1_0 Au1_6 3.052402 1_545
Au1_1 Au2_5 2.939053 1_455
Au1_1 Au2_3 2.939053 1_545
Au1_1 Au2_0 2.939053 1_555
Au1_1 Au1_4 3.052402 1_555
Au1_1 Au1_2 3.052402 1_555
Au1_1 Au1_4 3.052402 1_456
Au1_1 Au1_2 3.052402 1_546
Au1_1 Au1_7 3.052402 1_455
Au1_1 Au1_7 3.052402 1_545
Au1_2 Au2_0 2.939053 1_555
Au1_2 Au2_6 2.939053 1_455
Au1_2 Au2_3 2.939053 1_554
Au1_2 Au1_7 3.052402 1_554
Au1_2 Au1_7 3.052402 1_455
Au1_2 Au1_4 3.052402 1_555
Au1_2 Au1_4 3.052402 1_465
Au1_3 Au2_1 2.939053 1_555
Au1_3 Au2_7 2.939053 1_455
Au1_3 Au2_2 2.939053 1_555
Au1_3 Au1_6 3.052402 1_555
Au1_3 Au1_6 3.052402 1_456
Au1_3 Au1_5 3.052402 1_465
Au1_3 Au1_5 3.052402 1_555
Au1_4 Au2_6 2.939053 1_545
Au1_4 Au2_0 2.939053 1_555
Au1_4 Au2_5 2.939053 1_554
Au1_4 Au1_7 3.052402 1_545
Au1_4 Au1_7 3.052402 1_554
Au1_5 Au2_1 2.939053 1_555
Au1_5 Au2_7 2.939053 1_545
Au1_5 Au2_4 2.939053 1_555
Au1_5 Au1_6 3.052402 1_546
Au1_5 Au1_6 3.052402 1_555
Au1_6 Au2_2 2.939053 1_555
Au1_6 Au2_4 2.939053 1_555
Au1_6 Au2_7 2.939053 1_554
Au1_7 Au2_5 2.939053 1_555
Au1_7 Au2_3 2.939053 1_555
Au1_7 Au2_6 2.939053 1_555
Au2_0 Mn0_5 2.692316 1_545
Au2_0 Mn0_3 2.692316 1_455
Au2_0 Mn0_6 2.692316 1_555
Au2_1 Mn0_4 2.692316 1_556
Au2_1 Mn0_2 2.692316 1_456
Au2_1 Mn0_7 2.692316 1_555
Au2_2 Mn0_1 2.692316 1_565
Au2_2 Mn0_7 2.692316 1_555
Au2_2 Mn0_4 2.692316 1_565
Au2_3 Mn0_0 2.692316 1_566
Au2_3 Mn0_6 2.692316 1_556
Au2_3 Mn0_5 2.692316 1_555
Au2_4 Mn0_1 2.692316 1_655
Au2_4 Mn0_7 2.692316 1_555
Au2_4 Mn0_2 2.692316 1_555
Au2_5 Mn0_0 2.692316 1_656
Au2_5 Mn0_6 2.692316 1_556
Au2_5 Mn0_3 2.692316 1_555
Au2_6 Mn0_5 2.692316 1_555
Au2_6 Mn0_3 2.692316 1_555
Au2_6 Mn0_0 2.692316 1_665
Au2_7 Mn0_4 2.692316 1_566
Au2_7 Mn0_2 2.692316 1_556
Au2_7 Mn0_1 2.692316 1_665
