# generated using pymatgen
data_MgAg4
_symmetry_space_group_name_H-M   'P 1'
_cell_length_a   23.55340248
_cell_length_b   23.55340248
_cell_length_c   23.55340109
_cell_angle_alpha   14.70997536
_cell_angle_beta   14.70997536
_cell_angle_gamma   14.70997614
_symmetry_Int_Tables_number   1
_chemical_formula_structural   MgAg4
_chemical_formula_sum   'Mg8 Ag32'
_cell_volume   733.64489365
_cell_formula_units_Z   8
loop_
 _symmetry_equiv_pos_site_id
 _symmetry_equiv_pos_as_xyz
  1  'x, y, z'
loop_
 _atom_site_type_symbol
 _atom_site_label
 _atom_site_symmetry_multiplicity
 _atom_site_fract_x
 _atom_site_fract_y
 _atom_site_fract_z
 _atom_site_occupancy
  Mg  Mg0_0  1  0.00000000  0.00000000  0.00000000  1
  Mg  Mg0_1  1  0.00000000  0.00000000  0.50000000  1
  Mg  Mg0_2  1  0.00000000  0.50000000  0.00000000  1
  Mg  Mg0_3  1  0.00000000  0.50000000  0.50000000  1
  Mg  Mg0_4  1  0.50000000  0.00000000  0.00000000  1
  Mg  Mg0_5  1  0.50000000  0.00000000  0.50000000  1
  Mg  Mg0_6  1  0.50000000  0.50000000  0.00000000  1
  Mg  Mg0_7  1  0.50000000  0.50000000  0.50000000  1
  Ag  Ag0_0  1  0.30032700  0.30032700  0.30032700  1
  Ag  Ag0_1  1  0.30032700  0.30032700  0.80032700  1
  Ag  Ag0_2  1  0.30032700  0.80032700  0.30032700  1
  Ag  Ag0_3  1  0.30032700  0.80032700  0.80032700  1
  Ag  Ag0_4  1  0.80032700  0.30032700  0.30032700  1
  Ag  Ag0_5  1  0.80032700  0.30032700  0.80032700  1
  Ag  Ag0_6  1  0.80032700  0.80032700  0.30032700  1
  Ag  Ag0_7  1  0.80032700  0.80032700  0.80032700  1
  Ag  Ag1_0  1  0.09995950  0.09995950  0.09995950  1
  Ag  Ag1_1  1  0.09995950  0.09995950  0.59995950  1
  Ag  Ag1_2  1  0.09995950  0.59995950  0.09995950  1
  Ag  Ag1_3  1  0.09995950  0.59995950  0.59995950  1
  Ag  Ag1_4  1  0.59995950  0.09995950  0.09995950  1
  Ag  Ag1_5  1  0.59995950  0.09995950  0.59995950  1
  Ag  Ag1_6  1  0.59995950  0.59995950  0.09995950  1
  Ag  Ag1_7  1  0.59995950  0.59995950  0.59995950  1
  Ag  Ag2_0  1  0.40004050  0.40004050  0.40004050  1
  Ag  Ag2_1  1  0.40004050  0.40004050  0.90004050  1
  Ag  Ag2_2  1  0.40004050  0.90004050  0.40004050  1
  Ag  Ag2_3  1  0.40004050  0.90004050  0.90004050  1
  Ag  Ag2_4  1  0.90004050  0.40004050  0.40004050  1
  Ag  Ag2_5  1  0.90004050  0.40004050  0.90004050  1
  Ag  Ag2_6  1  0.90004050  0.90004050  0.40004050  1
  Ag  Ag2_7  1  0.90004050  0.90004050  0.90004050  1
  Ag  Ag3_0  1  0.19967300  0.19967300  0.19967300  1
  Ag  Ag3_1  1  0.19967300  0.19967300  0.69967300  1
  Ag  Ag3_2  1  0.19967300  0.69967300  0.19967300  1
  Ag  Ag3_3  1  0.19967300  0.69967300  0.69967300  1
  Ag  Ag3_4  1  0.69967300  0.19967300  0.19967300  1
  Ag  Ag3_5  1  0.69967300  0.19967300  0.69967300  1
  Ag  Ag3_6  1  0.69967300  0.69967300  0.19967300  1
  Ag  Ag3_7  1  0.69967300  0.69967300  0.69967300  1
loop_
_geom_bond_atom_site_label_1
_geom_bond_atom_site_label_2
_geom_bond_distance
_geom_bond_site_symmetry_2
Mg0_0 Mg0_3 3.015224 1_545
Mg0_0 Mg0_5 3.015224 1_554
Mg0_0 Mg0_3 3.015224 1_554
Mg0_0 Mg0_5 3.015224 1_455
Mg0_0 Mg0_6 3.015224 1_455
Mg0_0 Mg0_6 3.015224 1_545
Mg0_1 Mg0_2 3.015224 1_546
Mg0_1 Mg0_4 3.015224 1_555
Mg0_1 Mg0_2 3.015224 1_555
Mg0_1 Mg0_4 3.015224 1_456
Mg0_1 Mg0_7 3.015224 1_455
Mg0_1 Mg0_7 3.015224 1_545
Mg0_2 Mg0_7 3.015224 1_554
Mg0_2 Mg0_7 3.015224 1_455
Mg0_2 Mg0_4 3.015224 1_555
Mg0_2 Mg0_4 3.015224 1_465
Mg0_3 Mg0_6 3.015224 1_555
Mg0_3 Mg0_6 3.015224 1_456
Mg0_3 Mg0_5 3.015224 1_555
Mg0_3 Mg0_5 3.015224 1_465
Mg0_4 Mg0_7 3.015224 1_554
Mg0_4 Mg0_7 3.015224 1_545
Mg0_5 Mg0_6 3.015224 1_555
Mg0_5 Mg0_6 3.015224 1_546
Ag0_0 Mg0_5 2.889807 1_555
Ag0_0 Mg0_3 2.889807 1_555
Ag0_0 Mg0_6 2.889808 1_555
Ag0_0 Ag1_2 2.928693 1_555
Ag0_0 Ag1_4 2.928693 1_555
Ag0_0 Ag1_1 2.928693 1_555
Ag0_0 Ag0_5 3.015224 1_455
Ag0_0 Ag0_3 3.015224 1_545
Ag0_0 Ag0_5 3.015224 1_554
Ag0_0 Ag0_3 3.015224 1_554
Ag0_0 Ag0_6 3.015224 1_455
Ag0_0 Ag0_6 3.015224 1_545
Ag0_1 Mg0_2 2.889807 1_556
Ag0_1 Mg0_4 2.889807 1_556
Ag0_1 Mg0_7 2.889808 1_555
Ag0_1 Ag1_5 2.928693 1_555
Ag0_1 Ag1_3 2.928693 1_555
Ag0_1 Ag1_0 2.928693 1_556
Ag0_1 Ag0_2 3.015224 1_555
Ag0_1 Ag0_4 3.015224 1_555
Ag0_1 Ag0_4 3.015224 1_456
Ag0_1 Ag0_2 3.015224 1_546
Ag0_1 Ag0_7 3.015224 1_455
Ag0_1 Ag0_7 3.015224 1_545
Ag0_2 Mg0_7 2.889807 1_555
Ag0_2 Mg0_1 2.889807 1_565
Ag0_2 Mg0_4 2.889808 1_565
Ag0_2 Ag1_6 2.928693 1_555
Ag0_2 Ag1_0 2.928693 1_565
Ag0_2 Ag1_3 2.928693 1_555
Ag0_2 Ag0_7 3.015224 1_455
Ag0_2 Ag0_7 3.015224 1_554
Ag0_2 Ag0_4 3.015224 1_555
Ag0_2 Ag0_4 3.015224 1_465
Ag0_3 Mg0_0 2.889807 1_566
Ag0_3 Mg0_6 2.889807 1_556
Ag0_3 Mg0_5 2.889808 1_565
Ag0_3 Ag1_1 2.928693 1_565
Ag0_3 Ag1_7 2.928693 1_555
Ag0_3 Ag1_2 2.928693 1_556
Ag0_3 Ag0_6 3.015224 1_555
Ag0_3 Ag0_6 3.015224 1_456
Ag0_3 Ag0_5 3.015224 1_555
Ag0_3 Ag0_5 3.015224 1_465
Ag0_4 Mg0_7 2.889807 1_555
Ag0_4 Mg0_1 2.889807 1_655
Ag0_4 Mg0_2 2.889808 1_655
Ag0_4 Ag1_6 2.928693 1_555
Ag0_4 Ag1_0 2.928693 1_655
Ag0_4 Ag1_5 2.928693 1_555
Ag0_4 Ag0_7 3.015224 1_545
Ag0_4 Ag0_7 3.015224 1_554
Ag0_5 Mg0_6 2.889807 1_556
Ag0_5 Mg0_0 2.889807 1_656
Ag0_5 Mg0_3 2.889808 1_655
Ag0_5 Ag1_1 2.928693 1_655
Ag0_5 Ag1_7 2.928693 1_555
Ag0_5 Ag1_4 2.928693 1_556
Ag0_5 Ag0_6 3.015224 1_555
Ag0_5 Ag0_6 3.015224 1_546
Ag0_6 Mg0_5 2.889807 1_565
Ag0_6 Mg0_3 2.889807 1_655
Ag0_6 Mg0_0 2.889808 1_665
Ag0_6 Ag1_2 2.928693 1_655
Ag0_6 Ag1_4 2.928693 1_565
Ag0_6 Ag1_7 2.928693 1_555
Ag0_7 Mg0_2 2.889807 1_656
Ag0_7 Mg0_4 2.889807 1_566
Ag0_7 Mg0_1 2.889808 1_665
Ag0_7 Ag1_3 2.928693 1_655
Ag0_7 Ag1_5 2.928693 1_565
Ag0_7 Ag1_6 2.928693 1_556
Ag1_0 Ag2_5 2.903548 1_454
Ag1_0 Ag2_3 2.903548 1_544
Ag1_0 Ag2_6 2.903548 1_445
Ag1_0 Ag1_3 3.015224 1_545
Ag1_0 Ag1_3 3.015224 1_554
Ag1_0 Ag1_5 3.015224 1_554
Ag1_0 Ag1_5 3.015224 1_455
Ag1_0 Ag1_6 3.015224 1_545
Ag1_0 Ag1_6 3.015224 1_455
Ag1_1 Ag2_2 2.903548 1_545
Ag1_1 Ag2_4 2.903548 1_455
Ag1_1 Ag2_7 2.903548 1_445
Ag1_1 Ag1_2 3.015224 1_546
Ag1_1 Ag1_4 3.015224 1_456
Ag1_1 Ag1_4 3.015224 1_555
Ag1_1 Ag1_2 3.015224 1_555
Ag1_1 Ag1_7 3.015224 1_455
Ag1_1 Ag1_7 3.015224 1_545
Ag1_2 Ag2_7 2.903548 1_454
Ag1_2 Ag2_1 2.903548 1_554
Ag1_2 Ag2_4 2.903548 1_455
Ag1_2 Ag1_7 3.015224 1_455
Ag1_2 Ag1_7 3.015224 1_554
Ag1_2 Ag1_4 3.015224 1_465
Ag1_2 Ag1_4 3.015224 1_555
Ag1_3 Ag2_0 2.903548 1_555
Ag1_3 Ag2_6 2.903548 1_455
Ag1_3 Ag2_5 2.903548 1_455
Ag1_3 Ag1_6 3.015224 1_456
Ag1_3 Ag1_6 3.015224 1_555
Ag1_3 Ag1_5 3.015224 1_555
Ag1_3 Ag1_5 3.015224 1_465
Ag1_4 Ag2_7 2.903548 1_544
Ag1_4 Ag2_1 2.903548 1_554
Ag1_4 Ag2_2 2.903548 1_545
Ag1_4 Ag1_7 3.015224 1_554
Ag1_4 Ag1_7 3.015224 1_545
Ag1_5 Ag2_0 2.903548 1_555
Ag1_5 Ag2_6 2.903548 1_545
Ag1_5 Ag2_3 2.903548 1_545
Ag1_5 Ag1_6 3.015224 1_546
Ag1_5 Ag1_6 3.015224 1_555
Ag1_6 Ag2_3 2.903548 1_554
Ag1_6 Ag2_5 2.903548 1_554
Ag1_6 Ag2_0 2.903548 1_555
Ag1_7 Ag2_4 2.903548 1_555
Ag1_7 Ag2_2 2.903548 1_555
Ag1_7 Ag2_1 2.903548 1_555
Ag2_0 Ag3_2 2.928693 1_555
Ag2_0 Ag3_4 2.928693 1_555
Ag2_0 Ag3_1 2.928693 1_555
Ag2_0 Ag2_5 3.015224 1_455
Ag2_0 Ag2_3 3.015224 1_545
Ag2_0 Ag2_3 3.015224 1_554
Ag2_0 Ag2_5 3.015224 1_554
Ag2_0 Ag2_6 3.015224 1_545
Ag2_0 Ag2_6 3.015224 1_455
Ag2_1 Ag3_3 2.928693 1_555
Ag2_1 Ag3_5 2.928693 1_555
Ag2_1 Ag3_0 2.928693 1_556
Ag2_1 Ag2_4 3.015224 1_456
Ag2_1 Ag2_2 3.015224 1_546
Ag2_1 Ag2_4 3.015224 1_555
Ag2_1 Ag2_2 3.015224 1_555
Ag2_1 Ag2_7 3.015224 1_455
Ag2_1 Ag2_7 3.015224 1_545
Ag2_2 Ag3_6 2.928693 1_555
Ag2_2 Ag3_0 2.928693 1_565
Ag2_2 Ag3_3 2.928693 1_555
Ag2_2 Ag2_7 3.015224 1_455
Ag2_2 Ag2_7 3.015224 1_554
Ag2_2 Ag2_4 3.015224 1_465
Ag2_2 Ag2_4 3.015224 1_555
Ag2_3 Ag3_7 2.928693 1_555
Ag2_3 Ag3_1 2.928693 1_565
Ag2_3 Ag3_2 2.928693 1_556
Ag2_3 Ag2_6 3.015224 1_555
Ag2_3 Ag2_6 3.015224 1_456
Ag2_3 Ag2_5 3.015224 1_555
Ag2_3 Ag2_5 3.015224 1_465
Ag2_4 Ag3_6 2.928693 1_555
Ag2_4 Ag3_0 2.928693 1_655
Ag2_4 Ag3_5 2.928693 1_555
Ag2_4 Ag2_7 3.015224 1_545
Ag2_4 Ag2_7 3.015224 1_554
Ag2_5 Ag3_7 2.928693 1_555
Ag2_5 Ag3_1 2.928693 1_655
Ag2_5 Ag3_4 2.928693 1_556
Ag2_5 Ag2_6 3.015224 1_555
Ag2_5 Ag2_6 3.015224 1_546
Ag2_6 Ag3_2 2.928693 1_655
Ag2_6 Ag3_4 2.928693 1_565
Ag2_6 Ag3_7 2.928693 1_555
Ag2_7 Ag3_3 2.928693 1_655
Ag2_7 Ag3_5 2.928693 1_565
Ag2_7 Ag3_6 2.928693 1_556
Ag3_0 Mg0_4 2.889807 1_555
Ag3_0 Mg0_2 2.889807 1_555
Ag3_0 Mg0_1 2.889808 1_555
Ag3_0 Ag3_5 3.015224 1_554
Ag3_0 Ag3_3 3.015224 1_554
Ag3_0 Ag3_5 3.015224 1_455
Ag3_0 Ag3_3 3.015224 1_545
Ag3_0 Ag3_6 3.015224 1_545
Ag3_0 Ag3_6 3.015224 1_455
Ag3_1 Mg0_5 2.889807 1_555
Ag3_1 Mg0_3 2.889807 1_555
Ag3_1 Mg0_0 2.889808 1_556
Ag3_1 Ag3_2 3.015224 1_555
Ag3_1 Ag3_4 3.015224 1_555
Ag3_1 Ag3_2 3.015224 1_546
Ag3_1 Ag3_4 3.015224 1_456
Ag3_1 Ag3_7 3.015224 1_545
Ag3_1 Ag3_7 3.015224 1_455
Ag3_2 Mg0_6 2.889807 1_555
Ag3_2 Mg0_0 2.889807 1_565
Ag3_2 Mg0_3 2.889808 1_555
Ag3_2 Ag3_7 3.015224 1_455
Ag3_2 Ag3_7 3.015224 1_554
Ag3_2 Ag3_4 3.015224 1_555
Ag3_2 Ag3_4 3.015224 1_465
Ag3_3 Mg0_7 2.889807 1_555
Ag3_3 Mg0_1 2.889807 1_565
Ag3_3 Mg0_2 2.889808 1_556
Ag3_3 Ag3_6 3.015224 1_555
Ag3_3 Ag3_6 3.015224 1_456
Ag3_3 Ag3_5 3.015224 1_555
Ag3_3 Ag3_5 3.015224 1_465
Ag3_4 Mg0_6 2.889807 1_555
Ag3_4 Mg0_0 2.889807 1_655
Ag3_4 Mg0_5 2.889808 1_555
Ag3_4 Ag3_7 3.015224 1_545
Ag3_4 Ag3_7 3.015224 1_554
Ag3_5 Mg0_7 2.889807 1_555
Ag3_5 Mg0_1 2.889807 1_655
Ag3_5 Mg0_4 2.889808 1_556
Ag3_5 Ag3_6 3.015224 1_555
Ag3_5 Ag3_6 3.015224 1_546
Ag3_6 Mg0_2 2.889807 1_655
Ag3_6 Mg0_4 2.889807 1_565
Ag3_6 Mg0_7 2.889808 1_555
Ag3_7 Mg0_5 2.889807 1_565
Ag3_7 Mg0_3 2.889807 1_655
Ag3_7 Mg0_6 2.889808 1_556
