# generated using pymatgen
data_MgSc3
_symmetry_space_group_name_H-M   'P 1'
_cell_length_a   12.43680536
_cell_length_b   12.43680536
_cell_length_c   12.43680536
_cell_angle_alpha   149.58256745
_cell_angle_beta   126.20374070
_cell_angle_gamma   63.06251773
_symmetry_Int_Tables_number   1
_chemical_formula_structural   MgSc3
_chemical_formula_sum   'Mg8 Sc24'
_cell_volume   778.38209460
_cell_formula_units_Z   8
loop_
 _symmetry_equiv_pos_site_id
 _symmetry_equiv_pos_as_xyz
  1  'x, y, z'
loop_
 _atom_site_type_symbol
 _atom_site_label
 _atom_site_symmetry_multiplicity
 _atom_site_fract_x
 _atom_site_fract_y
 _atom_site_fract_z
 _atom_site_occupancy
  Mg  Mg0_0  1  0.08422438  0.25000000  0.33422438  1
  Mg  Mg0_1  1  0.08422437  0.25000000  0.83422438  1
  Mg  Mg0_2  1  0.08422437  0.75000000  0.33422438  1
  Mg  Mg0_3  1  0.08422437  0.75000000  0.83422438  1
  Mg  Mg0_4  1  0.58422437  0.25000000  0.33422437  1
  Mg  Mg0_5  1  0.58422438  0.25000000  0.83422438  1
  Mg  Mg0_6  1  0.58422438  0.75000000  0.33422438  1
  Mg  Mg0_7  1  0.58422437  0.75000000  0.83422438  1
  Sc  Sc0_0  1  0.38042427  0.37798726  0.00243751  1
  Sc  Sc0_1  1  0.38042427  0.37798726  0.50243751  1
  Sc  Sc0_2  1  0.38042427  0.87798726  0.00243751  1
  Sc  Sc0_3  1  0.38042427  0.87798726  0.50243751  1
  Sc  Sc0_4  1  0.88042427  0.37798726  0.00243751  1
  Sc  Sc0_5  1  0.88042427  0.37798726  0.50243751  1
  Sc  Sc0_6  1  0.88042427  0.87798726  0.00243751  1
  Sc  Sc0_7  1  0.88042427  0.87798726  0.50243751  1
  Sc  Sc1_0  1  0.12445075  0.12201274  0.00243751  1
  Sc  Sc1_1  1  0.12445075  0.12201274  0.50243751  1
  Sc  Sc1_2  1  0.12445075  0.62201274  0.00243751  1
  Sc  Sc1_3  1  0.12445075  0.62201274  0.50243751  1
  Sc  Sc1_4  1  0.62445075  0.12201274  0.00243751  1
  Sc  Sc1_5  1  0.62445075  0.12201274  0.50243751  1
  Sc  Sc1_6  1  0.62445075  0.62201274  0.00243751  1
  Sc  Sc1_7  1  0.62445075  0.62201274  0.50243751  1
  Sc  Sc2_0  1  0.32759060  0.00000000  0.32759060  1
  Sc  Sc2_1  1  0.32759060  0.00000000  0.82759060  1
  Sc  Sc2_2  1  0.32759060  0.50000000  0.32759060  1
  Sc  Sc2_3  1  0.32759060  0.50000000  0.82759060  1
  Sc  Sc2_4  1  0.82759060  0.00000000  0.32759060  1
  Sc  Sc2_5  1  0.82759060  0.00000000  0.82759060  1
  Sc  Sc2_6  1  0.82759060  0.50000000  0.32759060  1
  Sc  Sc2_7  1  0.82759060  0.50000000  0.82759060  1
loop_
_geom_bond_atom_site_label_1
_geom_bond_atom_site_label_2
_geom_bond_distance
_geom_bond_site_symmetry_2
Mg0_0 Sc2_3 3.187641 1_555
Mg0_0 Sc2_0 3.187641 1_555
Mg0_0 Sc1_3 3.193714 1_555
Mg0_0 Sc0_6 3.193716 1_445
Mg0_0 Sc1_0 3.193716 1_555
Mg0_0 Sc0_5 3.193718 1_455
Mg0_0 Mg0_3 3.262622 1_555
Mg0_0 Mg0_3 3.262622 1_544
Mg0_0 Sc0_1 3.308469 1_555
Mg0_0 Sc1_1 3.308473 1_555
Mg0_0 Sc2_6 3.316788 1_455
Mg0_0 Sc2_5 3.316788 1_454
Mg0_1 Sc2_1 3.187641 1_555
Mg0_1 Sc2_2 3.187641 1_556
Mg0_1 Sc1_2 3.193714 1_556
Mg0_1 Sc0_7 3.193716 1_445
Mg0_1 Sc1_1 3.193716 1_555
Mg0_1 Sc0_4 3.193718 1_456
Mg0_1 Mg0_2 3.262622 1_545
Mg0_1 Mg0_2 3.262622 1_556
Mg0_1 Sc0_0 3.308469 1_556
Mg0_1 Sc1_0 3.308473 1_556
Mg0_1 Sc2_7 3.316788 1_455
Mg0_1 Sc2_4 3.316788 1_455
Mg0_2 Sc2_1 3.187641 1_565
Mg0_2 Sc2_2 3.187641 1_555
Mg0_2 Sc1_1 3.193714 1_565
Mg0_2 Sc0_4 3.193716 1_455
Mg0_2 Sc1_2 3.193716 1_555
Mg0_2 Sc0_7 3.193718 1_455
Mg0_2 Sc0_3 3.308469 1_555
Mg0_2 Sc1_3 3.308473 1_555
Mg0_2 Sc2_7 3.316788 1_454
Mg0_2 Sc2_4 3.316788 1_465
Mg0_3 Sc2_0 3.187641 1_566
Mg0_3 Sc2_3 3.187641 1_555
Mg0_3 Sc1_0 3.193714 1_566
Mg0_3 Sc0_5 3.193716 1_455
Mg0_3 Sc1_3 3.193716 1_555
Mg0_3 Sc0_6 3.193718 1_456
Mg0_3 Sc0_2 3.308469 1_556
Mg0_3 Sc1_2 3.308473 1_556
Mg0_3 Sc2_5 3.316788 1_465
Mg0_3 Sc2_6 3.316788 1_455
Mg0_4 Sc2_4 3.187641 1_555
Mg0_4 Sc2_7 3.187641 1_555
Mg0_4 Sc1_7 3.193714 1_555
Mg0_4 Sc0_2 3.193716 1_545
Mg0_4 Sc1_4 3.193716 1_555
Mg0_4 Sc0_1 3.193718 1_555
Mg0_4 Mg0_7 3.262622 1_555
Mg0_4 Mg0_7 3.262622 1_544
Mg0_4 Sc0_5 3.308469 1_555
Mg0_4 Sc1_5 3.308473 1_555
Mg0_4 Sc2_2 3.316788 1_555
Mg0_4 Sc2_1 3.316788 1_554
Mg0_5 Sc2_5 3.187641 1_555
Mg0_5 Sc2_6 3.187641 1_556
Mg0_5 Sc1_6 3.193714 1_556
Mg0_5 Sc0_3 3.193716 1_545
Mg0_5 Sc1_5 3.193716 1_555
Mg0_5 Sc0_0 3.193718 1_556
Mg0_5 Mg0_6 3.262622 1_556
Mg0_5 Mg0_6 3.262622 1_545
Mg0_5 Sc0_4 3.308469 1_556
Mg0_5 Sc1_4 3.308473 1_556
Mg0_5 Sc2_3 3.316788 1_555
Mg0_5 Sc2_0 3.316788 1_555
Mg0_6 Sc2_5 3.187641 1_565
Mg0_6 Sc2_6 3.187641 1_555
Mg0_6 Sc1_5 3.193714 1_565
Mg0_6 Sc0_0 3.193716 1_555
Mg0_6 Sc1_6 3.193716 1_555
Mg0_6 Sc0_3 3.193718 1_555
Mg0_6 Sc0_7 3.308469 1_555
Mg0_6 Sc1_7 3.308473 1_555
Mg0_6 Sc2_0 3.316788 1_565
Mg0_6 Sc2_3 3.316788 1_554
Mg0_7 Sc2_4 3.187641 1_566
Mg0_7 Sc2_7 3.187641 1_555
Mg0_7 Sc1_4 3.193714 1_566
Mg0_7 Sc0_1 3.193716 1_555
Mg0_7 Sc1_7 3.193716 1_555
Mg0_7 Sc0_2 3.193718 1_556
Mg0_7 Sc0_6 3.308469 1_556
Mg0_7 Sc1_6 3.308473 1_556
Mg0_7 Sc2_2 3.316788 1_555
Mg0_7 Sc2_1 3.316788 1_565
Sc0_0 Sc2_3 3.250052 1_554
Sc0_0 Sc1_2 3.254458 1_555
Sc0_0 Sc1_1 3.254461 1_554
Sc0_0 Sc1_7 3.254467 1_555
Sc0_0 Sc1_4 3.254471 1_555
Sc0_0 Sc0_3 3.262622 1_544
Sc0_0 Sc0_3 3.262622 1_555
Sc0_0 Sc2_2 3.277087 1_555
Sc0_0 Sc2_1 3.277089 1_554
Sc0_1 Sc2_2 3.250052 1_555
Sc0_1 Sc1_3 3.254458 1_555
Sc0_1 Sc1_0 3.254461 1_555
Sc0_1 Sc1_6 3.254467 1_556
Sc0_1 Sc1_5 3.254471 1_555
Sc0_1 Sc0_2 3.262622 1_556
Sc0_1 Sc0_2 3.262622 1_545
Sc0_1 Sc2_3 3.277087 1_555
Sc0_1 Sc2_0 3.277089 1_555
Sc0_2 Sc2_1 3.250052 1_564
Sc0_2 Sc1_0 3.254458 1_565
Sc0_2 Sc1_3 3.254461 1_554
Sc0_2 Sc1_5 3.254467 1_565
Sc0_2 Sc1_6 3.254471 1_555
Sc0_2 Sc2_0 3.277087 1_565
Sc0_2 Sc2_3 3.277089 1_554
Sc0_3 Sc2_0 3.250052 1_565
Sc0_3 Sc1_1 3.254458 1_565
Sc0_3 Sc1_2 3.254461 1_555
Sc0_3 Sc1_4 3.254467 1_566
Sc0_3 Sc1_7 3.254471 1_555
Sc0_3 Sc2_1 3.277087 1_565
Sc0_3 Sc2_2 3.277089 1_555
Sc0_4 Sc2_7 3.250052 1_554
Sc0_4 Sc1_6 3.254458 1_555
Sc0_4 Sc1_5 3.254461 1_554
Sc0_4 Sc1_3 3.254467 1_655
Sc0_4 Sc1_0 3.254471 1_655
Sc0_4 Sc0_7 3.262622 1_555
Sc0_4 Sc0_7 3.262622 1_544
Sc0_4 Sc2_6 3.277087 1_555
Sc0_4 Sc2_5 3.277089 1_554
Sc0_5 Sc2_6 3.250052 1_555
Sc0_5 Sc1_7 3.254458 1_555
Sc0_5 Sc1_4 3.254461 1_555
Sc0_5 Sc1_2 3.254467 1_656
Sc0_5 Sc1_1 3.254471 1_655
Sc0_5 Sc0_6 3.262622 1_556
Sc0_5 Sc0_6 3.262622 1_545
Sc0_5 Sc2_7 3.277087 1_555
Sc0_5 Sc2_4 3.277089 1_555
Sc0_6 Sc2_5 3.250052 1_564
Sc0_6 Sc1_4 3.254458 1_565
Sc0_6 Sc1_7 3.254461 1_554
Sc0_6 Sc1_1 3.254467 1_665
Sc0_6 Sc1_2 3.254471 1_655
Sc0_6 Sc2_4 3.277087 1_565
Sc0_6 Sc2_7 3.277089 1_554
Sc0_7 Sc2_4 3.250052 1_565
Sc0_7 Sc1_5 3.254458 1_565
Sc0_7 Sc1_6 3.254461 1_555
Sc0_7 Sc1_0 3.254467 1_666
Sc0_7 Sc1_3 3.254471 1_655
Sc0_7 Sc2_5 3.277087 1_565
Sc0_7 Sc2_6 3.277089 1_555
Sc1_0 Sc2_5 3.250055 1_454
Sc1_0 Sc1_3 3.262622 1_555
Sc1_0 Sc1_3 3.262622 1_544
Sc1_0 Sc2_1 3.277086 1_554
Sc1_0 Sc2_2 3.277087 1_555
Sc1_1 Sc2_4 3.250055 1_455
Sc1_1 Sc1_2 3.262622 1_545
Sc1_1 Sc1_2 3.262622 1_556
Sc1_1 Sc2_0 3.277086 1_555
Sc1_1 Sc2_3 3.277087 1_555
Sc1_2 Sc2_7 3.250055 1_454
Sc1_2 Sc2_3 3.277086 1_554
Sc1_2 Sc2_0 3.277087 1_565
Sc1_3 Sc2_6 3.250055 1_455
Sc1_3 Sc2_2 3.277086 1_555
Sc1_3 Sc2_1 3.277087 1_565
Sc1_4 Sc2_1 3.250055 1_554
Sc1_4 Sc1_7 3.262622 1_555
Sc1_4 Sc1_7 3.262622 1_544
Sc1_4 Sc2_5 3.277086 1_554
Sc1_4 Sc2_6 3.277087 1_555
Sc1_5 Sc2_0 3.250055 1_555
Sc1_5 Sc1_6 3.262622 1_556
Sc1_5 Sc1_6 3.262622 1_545
Sc1_5 Sc2_4 3.277086 1_555
Sc1_5 Sc2_7 3.277087 1_555
Sc1_6 Sc2_3 3.250055 1_554
Sc1_6 Sc2_7 3.277086 1_554
Sc1_6 Sc2_4 3.277087 1_565
Sc1_7 Sc2_2 3.250055 1_555
Sc1_7 Sc2_6 3.277086 1_555
Sc1_7 Sc2_5 3.277087 1_565
Sc2_0 Sc2_3 3.262622 1_555
Sc2_0 Sc2_3 3.262622 1_544
Sc2_1 Sc2_2 3.262622 1_556
Sc2_1 Sc2_2 3.262622 1_545
Sc2_4 Sc2_7 3.262622 1_555
Sc2_4 Sc2_7 3.262622 1_544
Sc2_5 Sc2_6 3.262622 1_556
Sc2_5 Sc2_6 3.262622 1_545
