# generated using pymatgen
data_POsS
_symmetry_space_group_name_H-M   'P 1'
_cell_length_a   5.77709541
_cell_length_b   5.77159231
_cell_length_c   5.84023214
_cell_angle_alpha   69.36825589
_cell_angle_beta   90.00000000
_cell_angle_gamma   90.00000000
_symmetry_Int_Tables_number   1
_chemical_formula_structural   POsS
_chemical_formula_sum   'P4 Os4 S4'
_cell_volume   182.24190664
_cell_formula_units_Z   4
loop_
 _symmetry_equiv_pos_site_id
 _symmetry_equiv_pos_as_xyz
  1  'x, y, z'
loop_
 _atom_site_type_symbol
 _atom_site_label
 _atom_site_symmetry_multiplicity
 _atom_site_fract_x
 _atom_site_fract_y
 _atom_site_fract_z
 _atom_site_occupancy
  P  P0  1  0.12286536  0.84968460  0.87444676  1
  P  P1  1  0.62286536  0.15031540  0.62555324  1
  P  P2  1  0.87713464  0.15031540  0.12555324  1
  P  P3  1  0.37713464  0.84968460  0.37444676  1
  Os  Os0  1  0.49707641  0.72711364  0.79237546  1
  Os  Os1  1  0.99707641  0.27288636  0.70762454  1
  Os  Os2  1  0.50292359  0.27288636  0.20762454  1
  Os  Os3  1  0.00292359  0.72711364  0.29237546  1
  S  S0  1  0.87793705  0.66329925  0.69151973  1
  S  S1  1  0.37793705  0.33670075  0.80848027  1
  S  S2  1  0.12206295  0.33670075  0.30848027  1
  S  S3  1  0.62206295  0.66329925  0.19151973  1
loop_
_geom_bond_atom_site_label_1
_geom_bond_atom_site_label_2
_geom_bond_distance
_geom_bond_site_symmetry_2
P0 S0 2.260667 1_455
P1 S1 2.260667 1_555
P2 S2 2.260667 1_655
P3 S3 2.260667 1_555
Os0 S1 2.326069 1_555
Os0 S0 2.340227 1_555
Os0 S3 2.342216 1_556
Os0 P0 2.375451 1_555
Os0 P3 2.391915 1_555
Os0 P1 2.401313 1_565
Os1 S0 2.326069 1_555
Os1 S1 2.340227 1_655
Os1 S2 2.342216 1_655
Os1 P1 2.375451 1_555
Os1 P2 2.391915 1_556
Os1 P0 2.401313 1_645
Os2 S3 2.326069 1_555
Os2 S2 2.340227 1_555
Os2 S1 2.342216 1_554
Os2 P2 2.375451 1_555
Os2 P1 2.391915 1_555
Os2 P3 2.401313 1_545
Os3 S2 2.326069 1_555
Os3 S3 2.340227 1_455
Os3 S0 2.342216 1_455
Os3 P3 2.375451 1_555
Os3 P0 2.391915 1_554
Os3 P2 2.401313 1_465
