# generated using pymatgen
data_Mg4Si7
_symmetry_space_group_name_H-M   'P 1'
_cell_length_a   3.93530700
_cell_length_b   6.81519200
_cell_length_c   14.67019702
_cell_angle_alpha   86.49615403
_cell_angle_beta   90.00000000
_cell_angle_gamma   90.00000000
_symmetry_Int_Tables_number   1
_chemical_formula_structural   Mg4Si7
_chemical_formula_sum   'Mg8 Si14'
_cell_volume   392.71733588
_cell_formula_units_Z   2
loop_
 _symmetry_equiv_pos_site_id
 _symmetry_equiv_pos_as_xyz
  1  'x, y, z'
loop_
 _atom_site_type_symbol
 _atom_site_label
 _atom_site_symmetry_multiplicity
 _atom_site_fract_x
 _atom_site_fract_y
 _atom_site_fract_z
 _atom_site_occupancy
  Mg  Mg0  1  0.50000000  0.81048100  0.93165100  1
  Mg  Mg1  1  0.50000000  0.55478200  0.50381400  1
  Mg  Mg2  1  0.00000000  0.76699400  0.33370700  1
  Mg  Mg3  1  0.00000000  0.35306300  0.66192200  1
  Mg  Mg4  1  0.50000000  0.33436500  0.83990800  1
  Mg  Mg5  1  0.00000000  0.78939700  0.09751900  1
  Mg  Mg6  1  0.00000000  0.25343600  0.42612300  1
  Mg  Mg7  1  0.00000000  0.85561300  0.58259800  1
  Si  Si0  1  0.00000000  0.49965300  0.96121400  1
  Si  Si1  1  0.00000000  0.13069100  0.96267100  1
  Si  Si2  1  0.50000000  0.48026200  0.07587200  1
  Si  Si3  1  0.50000000  0.11544000  0.07095600  1
  Si  Si4  1  0.50000000  0.17240800  0.56083300  1
  Si  Si5  1  0.50000000  0.93357300  0.44921500  1
  Si  Si6  1  0.00000000  0.09583300  0.20397900  1
  Si  Si7  1  0.00000000  0.01860500  0.80656100  1
  Si  Si8  1  0.50000000  0.64435100  0.69571200  1
  Si  Si9  1  0.50000000  0.46665800  0.31537500  1
  Si  Si10  1  0.00000000  0.45644000  0.20809100  1
  Si  Si11  1  0.00000000  0.65205900  0.80508200  1
  Si  Si12  1  0.50000000  0.00617400  0.70861000  1
  Si  Si13  1  0.50000000  0.10613100  0.30215700  1
loop_
_geom_bond_atom_site_label_1
_geom_bond_atom_site_label_2
_geom_bond_distance
_geom_bond_site_symmetry_2
Mg0 Si0 2.904285 1_555
Mg0 Si0 2.904285 1_655
Mg0 Si11 2.954671 1_655
Mg0 Si11 2.954671 1_555
Mg0 Si7 2.988804 1_565
Mg0 Si7 2.988804 1_665
Mg0 Si2 2.993188 1_556
Mg0 Si1 2.993750 1_565
Mg0 Si1 2.993750 1_665
Mg0 Si3 3.002524 1_566
Mg1 Si5 2.655774 1_555
Mg1 Si4 2.687795 1_555
Mg1 Si9 2.864568 1_555
Mg1 Si8 2.916834 1_555
Mg2 Si6 2.850110 1_565
Mg2 Si9 2.863713 1_555
Mg2 Si9 2.863713 1_455
Mg2 Si5 2.875248 1_455
Mg2 Si5 2.875248 1_555
Mg2 Si10 2.890017 1_555
Mg2 Si13 3.049124 1_465
Mg2 Si13 3.049124 1_565
Mg3 Si4 2.794631 1_455
Mg3 Si4 2.794631 1_555
Mg3 Si8 2.859829 1_455
Mg3 Si8 2.859829 1_555
Mg3 Si11 3.014326 1_555
Mg3 Si7 3.017755 1_555
Mg3 Si12 3.119599 1_455
Mg3 Si12 3.119599 1_555
Mg4 Si8 2.896850 1_555
Mg4 Si0 2.924472 1_655
Mg4 Si0 2.924472 1_555
Mg4 Si11 2.947088 1_655
Mg4 Si11 2.947088 1_555
Mg4 Si1 2.955724 1_555
Mg4 Si1 2.955724 1_655
Mg4 Si7 2.978358 1_655
Mg4 Si7 2.978358 1_555
Mg4 Si12 3.039651 1_555
Mg5 Si6 2.683163 1_565
Mg5 Si10 2.707481 1_555
Mg5 Si0 2.894894 1_554
Mg5 Si2 2.914267 1_555
Mg5 Si2 2.914267 1_455
Mg5 Si1 2.959938 1_564
Mg5 Si3 2.975762 1_565
Mg5 Si3 2.975762 1_465
Mg6 Si4 2.819339 1_555
Mg6 Si4 2.819339 1_455
Mg6 Si9 2.886929 1_455
Mg6 Si9 2.886929 1_555
Mg6 Si13 2.899997 1_555
Mg6 Si13 2.899997 1_455
Mg6 Si5 2.940789 1_445
Mg6 Si5 2.940789 1_545
Mg7 Si5 2.802814 1_455
Mg7 Si5 2.802814 1_555
Mg7 Si8 2.899353 1_555
Mg7 Si8 2.899353 1_455
Mg7 Si4 2.924160 1_465
Mg7 Si4 2.924160 1_565
Mg7 Si12 2.928106 1_465
Mg7 Si12 2.928106 1_565
Si0 Si11 2.456498 1_555
Si0 Si1 2.513331 1_555
Si0 Si2 2.586748 1_556
Si0 Si2 2.586748 1_456
Si1 Si7 2.458091 1_555
Si1 Si3 2.527016 1_556
Si1 Si3 2.527016 1_456
Si2 Si3 2.491780 1_555
Si3 Si6 2.768735 1_555
Si3 Si6 2.768735 1_655
Si4 Si5 2.378335 1_545
Si10 Si6 2.462029 1_555
Si10 Si9 2.523291 1_455
Si10 Si9 2.523291 1_555
Si10 Si2 2.760775 1_455
Si10 Si2 2.760775 1_555
Si11 Si7 2.499501 1_565
Si11 Si8 2.541471 1_555
Si11 Si8 2.541471 1_455
Si12 Si4 2.383938 1_555
Si12 Si7 2.441019 1_655
Si12 Si7 2.441019 1_555
Si12 Si8 2.484646 1_545
Si13 Si5 2.393145 1_545
Si13 Si6 2.442003 1_555
Si13 Si6 2.442003 1_655
Si13 Si9 2.476487 1_555
