# generated using pymatgen
data_Mn2V2O7
_symmetry_space_group_name_H-M   'P 1'
_cell_length_a   5.00880091
_cell_length_b   5.40074740
_cell_length_c   5.40080281
_cell_angle_alpha   107.69644633
_cell_angle_beta   96.89068431
_cell_angle_gamma   96.88378777
_symmetry_Int_Tables_number   1
_chemical_formula_structural   Mn2V2O7
_chemical_formula_sum   'Mn2 V2 O7'
_cell_volume   136.27935633
_cell_formula_units_Z   1
loop_
 _symmetry_equiv_pos_site_id
 _symmetry_equiv_pos_as_xyz
  1  'x, y, z'
loop_
 _atom_site_type_symbol
 _atom_site_label
 _atom_site_symmetry_multiplicity
 _atom_site_fract_x
 _atom_site_fract_y
 _atom_site_fract_z
 _atom_site_occupancy
  Mn  Mn0  1  0.49998810  0.68525199  0.31472542  1
  Mn  Mn1  1  0.50000841  0.31027098  0.68973855  1
  V  V0  1  0.10380636  0.75008353  0.75488399  1
  V  V1  1  0.89619079  0.24511904  0.24991746  1
  O  O0  1  -0.00001415  0.99682707  0.00322149  1
  O  O1  1  0.70336457  0.06162520  0.39794387  1
  O  O2  1  0.29663501  0.60206898  0.93835072  1
  O  O3  1  0.70453327  0.39273450  0.06561404  1
  O  O4  1  0.29549581  0.93443492  0.60722914  1
  O  O5  1  0.22181046  0.41991390  0.42430862  1
  O  O6  1  0.77818037  0.57567091  0.58006971  1
loop_
_geom_bond_atom_site_label_1
_geom_bond_atom_site_label_2
_geom_bond_distance
_geom_bond_site_symmetry_2
Mn0 O2 2.051726 1_554
Mn0 O1 2.051809 1_565
Mn0 O6 2.140019 1_555
Mn0 O5 2.140109 1_555
Mn0 O4 2.186787 1_555
Mn0 O3 2.186806 1_555
Mn1 O4 2.051857 1_545
Mn1 O3 2.052022 1_556
Mn1 O5 2.140535 1_555
Mn1 O6 2.140576 1_555
Mn1 O2 2.179600 1_555
Mn1 O1 2.179633 1_555
O0 V1 1.758061 1_465
O0 V0 1.758406 1_554
O1 V1 1.729609 1_555
O2 V0 1.729358 1_555
O3 V1 1.727582 1_555
O4 V0 1.728105 1_555
O5 V1 1.777665 1_455
O5 V0 2.299339 1_555
O6 V0 1.777747 1_655
O6 V1 2.299227 1_555
