# generated using pymatgen
data_Li3MnCoO5
_symmetry_space_group_name_H-M   'P 1'
_cell_length_a   3.00899628
_cell_length_b   3.00899628
_cell_length_c   24.42921547
_cell_angle_alpha   89.22934493
_cell_angle_beta   89.22934493
_cell_angle_gamma   56.26226276
_symmetry_Int_Tables_number   1
_chemical_formula_structural   Li3MnCoO5
_chemical_formula_sum   'Li6 Mn2 Co2 O10'
_cell_volume   183.91230152
_cell_formula_units_Z   2
loop_
 _symmetry_equiv_pos_site_id
 _symmetry_equiv_pos_as_xyz
  1  'x, y, z'
loop_
 _atom_site_type_symbol
 _atom_site_label
 _atom_site_symmetry_multiplicity
 _atom_site_fract_x
 _atom_site_fract_y
 _atom_site_fract_z
 _atom_site_occupancy
  Li  Li0  1  0.68458400  0.68458400  0.90593700  1
  Li  Li1  1  0.31541600  0.31541600  0.09406300  1
  Li  Li2  1  0.89692900  0.89692900  0.30265800  1
  Li  Li3  1  0.50000000  0.50000000  0.50000000  1
  Li  Li4  1  0.10307100  0.10307100  0.69734200  1
  Li  Li5  1  0.00000000  0.00000000  0.00000000  1
  Mn  Mn0  1  0.39758100  0.39758100  0.79873700  1
  Mn  Mn1  1  0.60241900  0.60241900  0.20126300  1
  Co  Co0  1  0.19981600  0.19981600  0.40097800  1
  Co  Co1  1  0.80018400  0.80018400  0.59902200  1
  O  O0  1  0.04050200  0.04050200  0.84237800  1
  O  O1  1  0.64962500  0.64962500  0.05112100  1
  O  O2  1  0.23615500  0.23615500  0.24848100  1
  O  O3  1  0.83256100  0.83256100  0.44550400  1
  O  O4  1  0.43211600  0.43211600  0.64367900  1
  O  O5  1  0.35037500  0.35037500  0.94887900  1
  O  O6  1  0.95949800  0.95949800  0.15762200  1
  O  O7  1  0.56788400  0.56788400  0.35632100  1
  O  O8  1  0.16743900  0.16743900  0.55449600  1
  O  O9  1  0.76384500  0.76384500  0.75151900  1
loop_
_geom_bond_atom_site_label_1
_geom_bond_atom_site_label_2
_geom_bond_distance
_geom_bond_site_symmetry_2
Li0 O5 1.978777 1_655
Li0 O5 1.978777 1_565
Li0 O5 2.046866 1_555
Li0 O0 2.246004 1_565
Li0 O0 2.246004 1_655
Li0 O0 2.426790 1_665
Li1 O1 1.978777 1_545
Li1 O1 1.978777 1_455
Li1 O1 2.046866 1_555
Li1 O6 2.246004 1_455
Li1 O6 2.246004 1_545
Li1 O6 2.426790 1_445
Li2 O2 2.127646 1_565
Li2 O2 2.127646 1_655
Li2 O7 2.142605 1_655
Li2 O7 2.142605 1_565
Li2 O7 2.167536 1_555
Li2 O2 2.218123 1_665
Li3 O3 2.147282 1_545
Li3 O3 2.147282 1_455
Li3 O8 2.147282 1_655
Li3 O8 2.147282 1_565
Li3 O3 2.194461 1_555
Li3 O8 2.194461 1_555
Li4 O9 2.127646 1_545
Li4 O9 2.127646 1_455
Li4 O4 2.142605 1_545
Li4 O4 2.142605 1_455
Li4 O4 2.167536 1_555
Li4 O9 2.218123 1_445
Li5 O5 2.057467 1_544
Li5 O1 2.057467 1_455
Li5 O5 2.057467 1_454
Li5 O1 2.057467 1_545
Li5 O1 2.224055 1_445
Li5 O5 2.224055 1_554
Mn0 O0 1.936320 1_655
Mn0 O0 1.936320 1_565
Mn0 O9 1.967747 1_545
Mn0 O9 1.967747 1_455
Mn0 O0 2.160137 1_555
Mn0 O9 2.245108 1_555
Mn1 O6 1.936320 1_545
Mn1 O6 1.936320 1_455
Mn1 O2 1.967747 1_565
Mn1 O2 1.967747 1_655
Mn1 O6 2.160137 1_555
Mn1 O2 2.245108 1_555
Co0 O3 1.927589 1_455
Co0 O3 1.927589 1_545
Co0 O7 1.927806 1_545
Co0 O7 1.927806 1_455
Co0 O3 2.217503 1_445
Co0 O7 2.222790 1_555
Co1 O8 1.927589 1_655
Co1 O8 1.927589 1_565
Co1 O4 1.927806 1_655
Co1 O4 1.927806 1_565
Co1 O8 2.217503 1_665
Co1 O4 2.222790 1_555
