# generated using pymatgen
data_Dy2MgS4
_symmetry_space_group_name_H-M   'P 1'
_cell_length_a   3.84730200
_cell_length_b   12.59574800
_cell_length_c   13.49555600
_cell_angle_alpha   90.00000000
_cell_angle_beta   90.00000000
_cell_angle_gamma   90.00000000
_symmetry_Int_Tables_number   1
_chemical_formula_structural   Dy2MgS4
_chemical_formula_sum   'Dy8 Mg4 S16'
_cell_volume   653.98987270
_cell_formula_units_Z   4
loop_
 _symmetry_equiv_pos_site_id
 _symmetry_equiv_pos_as_xyz
  1  'x, y, z'
loop_
 _atom_site_type_symbol
 _atom_site_label
 _atom_site_symmetry_multiplicity
 _atom_site_fract_x
 _atom_site_fract_y
 _atom_site_fract_z
 _atom_site_occupancy
  Dy  Dy0  1  0.25000000  0.11766400  0.07500500  1
  Dy  Dy1  1  0.75000000  0.88233600  0.92499500  1
  Dy  Dy2  1  0.75000000  0.38233600  0.57500500  1
  Dy  Dy3  1  0.25000000  0.61766400  0.42499500  1
  Dy  Dy4  1  0.25000000  0.13848200  0.70515900  1
  Dy  Dy5  1  0.75000000  0.86151800  0.29484100  1
  Dy  Dy6  1  0.75000000  0.36151800  0.20515900  1
  Dy  Dy7  1  0.25000000  0.63848200  0.79484100  1
  Mg  Mg0  1  0.75000000  0.11088300  0.45250100  1
  Mg  Mg1  1  0.25000000  0.88911700  0.54749900  1
  Mg  Mg2  1  0.25000000  0.38911700  0.95250100  1
  Mg  Mg3  1  0.75000000  0.61088300  0.04749900  1
  S  S0  1  0.75000000  0.00904400  0.61519100  1
  S  S1  1  0.25000000  0.99095600  0.38480900  1
  S  S2  1  0.25000000  0.49095600  0.11519100  1
  S  S3  1  0.75000000  0.50904400  0.88480900  1
  S  S4  1  0.25000000  0.02767700  0.88353300  1
  S  S5  1  0.75000000  0.97232300  0.11646700  1
  S  S6  1  0.75000000  0.47232300  0.38353300  1
  S  S7  1  0.25000000  0.52767700  0.61646700  1
  S  S8  1  0.25000000  0.22504100  0.24752600  1
  S  S9  1  0.75000000  0.77495900  0.75247400  1
  S  S10  1  0.75000000  0.27495900  0.74752600  1
  S  S11  1  0.25000000  0.72504100  0.25247400  1
  S  S12  1  0.75000000  0.26227500  0.01627000  1
  S  S13  1  0.25000000  0.73772500  0.98373000  1
  S  S14  1  0.25000000  0.23772500  0.51627000  1
  S  S15  1  0.75000000  0.76227500  0.48373000  1
loop_
_geom_bond_atom_site_label_1
_geom_bond_atom_site_label_2
_geom_bond_distance
_geom_bond_site_symmetry_2
Dy0 S8 2.692595 1_555
Dy0 S5 2.713838 1_445
Dy0 S5 2.713838 1_545
Dy0 S12 2.765239 1_455
Dy0 S12 2.765239 1_555
Dy0 S4 2.821681 1_554
Dy1 S9 2.692595 1_555
Dy1 S4 2.713838 1_565
Dy1 S4 2.713838 1_665
Dy1 S13 2.765239 1_555
Dy1 S13 2.765239 1_655
Dy1 S5 2.821681 1_556
Dy2 S10 2.692595 1_555
Dy2 S7 2.713838 1_655
Dy2 S7 2.713838 1_555
Dy2 S14 2.765239 1_655
Dy2 S14 2.765239 1_555
Dy2 S6 2.821681 1_555
Dy3 S11 2.692595 1_555
Dy3 S6 2.713838 1_455
Dy3 S6 2.713838 1_555
Dy3 S15 2.765239 1_455
Dy3 S15 2.765239 1_555
Dy3 S7 2.821681 1_555
Dy4 S10 2.642426 1_455
Dy4 S10 2.642426 1_555
Dy4 S4 2.782586 1_555
Dy4 S0 2.798703 1_455
Dy4 S0 2.798703 1_555
Dy4 S14 2.839160 1_555
Dy5 S11 2.642426 1_555
Dy5 S11 2.642426 1_655
Dy5 S5 2.782586 1_555
Dy5 S1 2.798703 1_555
Dy5 S1 2.798703 1_655
Dy5 S15 2.839160 1_555
Dy6 S8 2.642426 1_555
Dy6 S8 2.642426 1_655
Dy6 S6 2.782586 1_555
Dy6 S2 2.798703 1_655
Dy6 S2 2.798703 1_555
Dy6 S12 2.839160 1_555
Dy7 S9 2.642426 1_455
Dy7 S9 2.642426 1_555
Dy7 S7 2.782586 1_555
Dy7 S3 2.798703 1_455
Dy7 S3 2.798703 1_555
Dy7 S13 2.839160 1_555
Mg0 S0 2.542841 1_555
Mg0 S1 2.610903 1_645
Mg0 S1 2.610903 1_545
Mg0 S14 2.644544 1_555
Mg0 S14 2.644544 1_655
Mg1 S1 2.542841 1_555
Mg1 S0 2.610903 1_565
Mg1 S0 2.610903 1_465
Mg1 S15 2.644544 1_455
Mg1 S15 2.644544 1_555
Mg2 S2 2.542841 1_556
Mg2 S3 2.610903 1_455
Mg2 S3 2.610903 1_555
Mg2 S12 2.644544 1_556
Mg2 S12 2.644544 1_456
Mg3 S3 2.542841 1_554
Mg3 S2 2.610903 1_555
Mg3 S2 2.610903 1_655
Mg3 S13 2.644544 1_554
Mg3 S13 2.644544 1_654
