# generated using pymatgen
data_CaAl2(SiO5)2
_symmetry_space_group_name_H-M   'P 1'
_cell_length_a   9.11621400
_cell_length_b   14.03684800
_cell_length_c   14.29592400
_cell_angle_alpha   90.00000000
_cell_angle_beta   90.00000000
_cell_angle_gamma   90.00000000
_symmetry_Int_Tables_number   1
_chemical_formula_structural   CaAl2(SiO5)2
_chemical_formula_sum   'Ca8 Al16 Si16 O80'
_cell_volume   1829.34803980
_cell_formula_units_Z   8
loop_
 _symmetry_equiv_pos_site_id
 _symmetry_equiv_pos_as_xyz
  1  'x, y, z'
loop_
 _atom_site_type_symbol
 _atom_site_label
 _atom_site_symmetry_multiplicity
 _atom_site_fract_x
 _atom_site_fract_y
 _atom_site_fract_z
 _atom_site_occupancy
  Ca  Ca0  1  0.13715500  0.83025600  0.61729600  1
  Ca  Ca1  1  0.36284500  0.16974400  0.11729600  1
  Ca  Ca2  1  0.86284500  0.33025600  0.88270400  1
  Ca  Ca3  1  0.63715500  0.66974400  0.38270400  1
  Ca  Ca4  1  0.88686300  0.63286100  0.08054300  1
  Ca  Ca5  1  0.61313700  0.36713900  0.58054300  1
  Ca  Ca6  1  0.11313700  0.13286100  0.41945700  1
  Ca  Ca7  1  0.38686300  0.86713900  0.91945700  1
  Al  Al0  1  0.24181800  0.75108800  0.42969800  1
  Al  Al1  1  0.25818200  0.24891200  0.92969800  1
  Al  Al2  1  0.75818200  0.25108800  0.07030200  1
  Al  Al3  1  0.74181800  0.74891200  0.57030200  1
  Al  Al4  1  0.24739600  0.24051300  0.63775800  1
  Al  Al5  1  0.25260400  0.75948700  0.13775800  1
  Al  Al6  1  0.75260400  0.74051300  0.86224200  1
  Al  Al7  1  0.74739600  0.25948700  0.36224200  1
  Al  Al8  1  0.90359200  0.46393900  0.64903200  1
  Al  Al9  1  0.59640800  0.53606100  0.14903200  1
  Al  Al10  1  0.09640800  0.96393900  0.85096800  1
  Al  Al11  1  0.40359200  0.03606100  0.35096800  1
  Al  Al12  1  0.89217300  0.97112500  0.14610400  1
  Al  Al13  1  0.60782700  0.02887500  0.64610400  1
  Al  Al14  1  0.10782700  0.47112500  0.35389600  1
  Al  Al15  1  0.39217300  0.52887500  0.85389600  1
  Si  Si0  1  0.00074400  0.81262500  0.00070100  1
  Si  Si1  1  0.49925600  0.18737500  0.50070100  1
  Si  Si2  1  0.99925600  0.31262500  0.49929900  1
  Si  Si3  1  0.50074400  0.68737500  0.99929900  1
  Si  Si4  1  0.50677200  0.37934800  0.00014500  1
  Si  Si5  1  0.99322800  0.62065200  0.50014500  1
  Si  Si6  1  0.49322800  0.87934800  0.49985500  1
  Si  Si7  1  0.00677200  0.12065200  0.99985500  1
  Si  Si8  1  0.85546400  0.89816100  0.71361100  1
  Si  Si9  1  0.64453600  0.10183900  0.21361100  1
  Si  Si10  1  0.14453600  0.39816100  0.78638900  1
  Si  Si11  1  0.35546400  0.60183900  0.28638900  1
  Si  Si12  1  0.85388300  0.40722400  0.21957400  1
  Si  Si13  1  0.64611700  0.59277600  0.71957400  1
  Si  Si14  1  0.14611700  0.90722400  0.28042600  1
  Si  Si15  1  0.35388300  0.09277600  0.78042600  1
  O  O0  1  0.89533600  0.73301000  0.94742100  1
  O  O1  1  0.60466400  0.26699000  0.44742100  1
  O  O2  1  0.10466400  0.23301000  0.55257900  1
  O  O3  1  0.39533600  0.76699000  0.05257900  1
  O  O4  1  0.91604800  0.24076100  0.42392000  1
  O  O5  1  0.58395200  0.75923900  0.92392000  1
  O  O6  1  0.08395200  0.74076100  0.07608000  1
  O  O7  1  0.41604800  0.25923900  0.57608000  1
  O  O8  1  0.38038000  0.29579500  0.01613500  1
  O  O9  1  0.11962000  0.70420500  0.51613500  1
  O  O10  1  0.61962000  0.79579500  0.48386500  1
  O  O11  1  0.88038000  0.20420500  0.98386500  1
  O  O12  1  0.32987400  0.82856700  0.51081900  1
  O  O13  1  0.17012600  0.17143300  0.01081900  1
  O  O14  1  0.67012600  0.32856700  0.98918100  1
  O  O15  1  0.82987400  0.67143300  0.48918100  1
  O  O16  1  0.12275600  0.86479100  0.93117300  1
  O  O17  1  0.37724400  0.13520900  0.43117300  1
  O  O18  1  0.87724400  0.36479100  0.56882700  1
  O  O19  1  0.62275600  0.63520900  0.06882700  1
  O  O20  1  0.10443200  0.38440800  0.44275000  1
  O  O21  1  0.39556800  0.61559200  0.94275000  1
  O  O22  1  0.89556800  0.88440800  0.05725000  1
  O  O23  1  0.60443200  0.11559200  0.55725000  1
  O  O24  1  0.03070000  0.91533900  0.74382800  1
  O  O25  1  0.46930000  0.08466100  0.24382800  1
  O  O26  1  0.96930000  0.41533900  0.75617200  1
  O  O27  1  0.53070000  0.58466100  0.25617200  1
  O  O28  1  0.01790600  0.43528900  0.25202600  1
  O  O29  1  0.48209400  0.56471100  0.75202600  1
  O  O30  1  0.98209400  0.93528900  0.24797400  1
  O  O31  1  0.51790600  0.06471100  0.74797400  1
  O  O32  1  0.28408500  0.99319300  0.83032300  1
  O  O33  1  0.21591500  0.00680700  0.33032300  1
  O  O34  1  0.71591500  0.49319300  0.66967700  1
  O  O35  1  0.78408500  0.50680700  0.16967700  1
  O  O36  1  0.28673100  0.50275400  0.32145000  1
  O  O37  1  0.21326900  0.49724600  0.82145000  1
  O  O38  1  0.71326900  0.00275400  0.17855000  1
  O  O39  1  0.78673100  0.99724600  0.67855000  1
  O  O40  1  0.24913700  0.87132300  0.19322200  1
  O  O41  1  0.25086300  0.12867700  0.69322200  1
  O  O42  1  0.75086300  0.37132300  0.30677800  1
  O  O43  1  0.74913700  0.62867700  0.80677800  1
  O  O44  1  0.23076100  0.34475200  0.70302000  1
  O  O45  1  0.26923900  0.65524800  0.20302000  1
  O  O46  1  0.76923900  0.84475200  0.79698000  1
  O  O47  1  0.73076100  0.15524800  0.29698000  1
  O  O48  1  0.99706400  0.55441400  0.59335300  1
  O  O49  1  0.50293600  0.44558600  0.09335300  1
  O  O50  1  0.00293600  0.05441400  0.90664700  1
  O  O51  1  0.49706400  0.94558600  0.40664700  1
  O  O52  1  0.97840700  0.07195300  0.10005200  1
  O  O53  1  0.52159300  0.92804700  0.60005200  1
  O  O54  1  0.02159300  0.57195300  0.39994800  1
  O  O55  1  0.47840700  0.42804700  0.89994800  1
  O  O56  1  0.87648400  0.82309500  0.62305800  1
  O  O57  1  0.62351600  0.17690500  0.12305800  1
  O  O58  1  0.12351600  0.32309500  0.87694200  1
  O  O59  1  0.37648400  0.67690500  0.37694200  1
  O  O60  1  0.86234300  0.32215400  0.14278000  1
  O  O61  1  0.63765700  0.67784600  0.64278000  1
  O  O62  1  0.13765700  0.82215400  0.35722000  1
  O  O63  1  0.36234300  0.17784600  0.85722000  1
  O  O64  1  0.47402200  0.01474200  0.01476200  1
  O  O65  1  0.02597800  0.98525800  0.51476200  1
  O  O66  1  0.52597800  0.51474200  0.48523800  1
  O  O67  1  0.97402200  0.48525800  0.98523800  1
  O  O68  1  0.41559500  0.53398000  0.53290000  1
  O  O69  1  0.08440500  0.46602000  0.03290000  1
  O  O70  1  0.58440500  0.03398000  0.96710000  1
  O  O71  1  0.91559500  0.96602000  0.46710000  1
  O  O72  1  0.31874000  0.76992300  0.76095500  1
  O  O73  1  0.18126000  0.23007700  0.26095500  1
  O  O74  1  0.68126000  0.26992300  0.73904500  1
  O  O75  1  0.81874000  0.73007700  0.23904500  1
  O  O76  1  0.22546900  0.70534400  0.76152900  1
  O  O77  1  0.27453100  0.29465600  0.26152900  1
  O  O78  1  0.77453100  0.20534400  0.73847100  1
  O  O79  1  0.72546900  0.79465600  0.23847100  1
loop_
_geom_bond_atom_site_label_1
_geom_bond_atom_site_label_2
_geom_bond_distance
_geom_bond_site_symmetry_2
Ca0 O9 2.290775 1_555
Ca0 O12 2.324693 1_555
Ca0 O24 2.374919 1_555
Ca0 O56 2.379884 1_455
Ca0 O72 2.770433 1_555
Ca0 O65 2.812414 1_555
Ca0 O76 2.823843 1_555
Ca1 O8 2.290775 1_555
Ca1 O13 2.324693 1_555
Ca1 O25 2.374919 1_555
Ca1 O57 2.379884 1_555
Ca1 O73 2.770433 1_555
Ca1 O64 2.812414 1_555
Ca1 O77 2.823843 1_555
Ca2 O11 2.290775 1_555
Ca2 O14 2.324693 1_555
Ca2 O26 2.374919 1_555
Ca2 O58 2.379884 1_655
Ca2 O74 2.770433 1_555
Ca2 O67 2.812414 1_555
Ca2 O78 2.823843 1_555
Ca3 O10 2.290775 1_555
Ca3 O15 2.324693 1_555
Ca3 O27 2.374919 1_555
Ca3 O59 2.379884 1_555
Ca3 O75 2.770433 1_555
Ca3 O66 2.812414 1_555
Ca3 O79 2.823843 1_555
Ca4 O6 2.350779 1_655
Ca4 O0 2.367271 1_554
Ca4 O35 2.373261 1_555
Ca4 O19 2.413700 1_555
Ca4 O67 2.603910 1_554
Ca4 O75 2.717034 1_555
Ca5 O7 2.350779 1_555
Ca5 O1 2.367271 1_555
Ca5 O34 2.373261 1_555
Ca5 O18 2.413700 1_555
Ca5 O66 2.603910 1_555
Ca5 O74 2.717034 1_555
Ca6 O4 2.350779 1_455
Ca6 O2 2.367271 1_555
Ca6 O33 2.373261 1_555
Ca6 O17 2.413700 1_555
Ca6 O65 2.603910 1_545
Ca6 O73 2.717034 1_555
Ca7 O5 2.350779 1_555
Ca7 O3 2.367271 1_556
Ca7 O32 2.373261 1_555
Ca7 O16 2.413700 1_555
Ca7 O64 2.603910 1_566
Ca7 O72 2.717034 1_555
Al0 O62 1.723465 1_555
Al0 O59 1.777700 1_555
Al0 O12 1.781033 1_555
Al0 O9 1.789130 1_555
Al1 O63 1.723465 1_555
Al1 O58 1.777700 1_555
Al1 O13 1.781033 1_556
Al1 O8 1.789130 1_556
Al2 O60 1.723465 1_555
Al2 O57 1.777700 1_555
Al2 O14 1.781033 1_554
Al2 O11 1.789130 1_554
Al3 O61 1.723465 1_555
Al3 O56 1.777700 1_555
Al3 O15 1.781033 1_555
Al3 O10 1.789130 1_555
Al4 O44 1.741943 1_555
Al4 O41 1.758992 1_555
Al4 O2 1.785210 1_555
Al4 O7 1.791751 1_555
Al5 O45 1.741943 1_555
Al5 O40 1.758992 1_555
Al5 O3 1.785210 1_555
Al5 O6 1.791751 1_555
Al6 O46 1.741943 1_555
Al6 O43 1.758992 1_555
Al6 O0 1.785210 1_555
Al6 O5 1.791751 1_555
Al7 O47 1.741943 1_555
Al7 O42 1.758992 1_555
Al7 O1 1.785210 1_555
Al7 O4 1.791751 1_555
Al8 O48 1.724106 1_555
Al8 O26 1.780504 1_555
Al8 O34 1.784074 1_555
Al8 O18 1.819147 1_555
Al9 O49 1.724106 1_555
Al9 O27 1.780504 1_555
Al9 O35 1.784074 1_555
Al9 O19 1.819147 1_555
Al10 O50 1.724106 1_565
Al10 O24 1.780504 1_555
Al10 O32 1.784074 1_555
Al10 O16 1.819147 1_555
Al11 O51 1.724106 1_545
Al11 O25 1.780504 1_555
Al11 O33 1.784074 1_555
Al11 O17 1.819147 1_555
Al12 O30 1.745248 1_555
Al12 O52 1.747720 1_565
Al12 O38 1.752765 1_565
Al12 O22 1.759588 1_555
Al13 O31 1.745248 1_555
Al13 O53 1.747720 1_545
Al13 O39 1.752765 1_545
Al13 O23 1.759588 1_555
Al14 O28 1.745248 1_555
Al14 O54 1.747720 1_555
Al14 O36 1.752765 1_555
Al14 O20 1.759588 1_555
Al15 O29 1.745248 1_555
Al15 O55 1.747720 1_555
Al15 O37 1.752765 1_555
Al15 O21 1.759588 1_555
O0 Si0 1.659048 1_656
O1 Si1 1.659048 1_555
O2 Si2 1.659048 1_455
O3 Si3 1.659048 1_554
O4 Si2 1.659578 1_555
O5 Si3 1.659578 1_555
O6 Si0 1.659578 1_555
O7 Si1 1.659578 1_555
O8 Si4 1.659929 1_555
O9 Si5 1.659929 1_455
O10 Si6 1.659929 1_555
O11 Si7 1.659929 1_655
O12 Si6 1.658399 1_555
O13 Si7 1.658399 1_554
O14 Si4 1.658399 1_556
O15 Si5 1.658399 1_555
O16 Si0 1.661728 1_556
O17 Si1 1.661728 1_555
O18 Si2 1.661728 1_555
O19 Si3 1.661728 1_554
O20 Si2 1.608765 1_455
O21 Si3 1.608765 1_555
O22 Si0 1.608765 1_655
O23 Si1 1.608765 1_555
O24 Si8 1.672339 1_455
O25 Si9 1.672339 1_555
O26 Si10 1.672339 1_655
O27 Si11 1.672339 1_555
O28 Si12 1.614389 1_455
O29 Si13 1.614389 1_555
O30 Si14 1.614389 1_655
O31 Si15 1.614389 1_555
O32 Si15 1.693409 1_565
O33 Si14 1.693409 1_545
O34 Si13 1.693409 1_555
O35 Si12 1.693409 1_555
O36 Si11 1.605702 1_555
O37 Si10 1.605702 1_555
O38 Si9 1.605702 1_555
O39 Si8 1.605702 1_555
O40 Si14 1.640160 1_555
O41 Si15 1.640160 1_555
O42 Si12 1.640160 1_555
O43 Si13 1.640160 1_555
O44 Si10 1.612571 1_555
O45 Si11 1.612571 1_555
O46 Si8 1.612571 1_555
O47 Si9 1.612571 1_555
O48 Si5 1.625190 1_555
O49 Si4 1.625190 1_555
O50 Si7 1.625190 1_555
O51 Si6 1.625190 1_555
O52 Si7 1.608086 1_654
O53 Si6 1.608086 1_555
O54 Si5 1.608086 1_455
O55 Si4 1.608086 1_556
O56 Si8 1.680123 1_555
O57 Si9 1.680123 1_555
O58 Si10 1.680123 1_555
O59 Si11 1.680123 1_555
O60 Si12 1.623919 1_555
O61 Si13 1.623919 1_555
O62 Si14 1.623919 1_555
O63 Si15 1.623919 1_555
O64 O70 1.244902 1_554
O65 O71 1.244902 1_455
O66 O68 1.244902 1_555
O67 O69 1.244902 1_656
O72 O76 1.242882 1_555
O73 O77 1.242882 1_555
O74 O78 1.242882 1_555
O75 O79 1.242882 1_555
