# generated using pymatgen
data_HgCSN3Cl2
_symmetry_space_group_name_H-M   'P 1'
_cell_length_a   8.53265000
_cell_length_b   9.64477700
_cell_length_c   11.82046477
_cell_angle_alpha   86.64436516
_cell_angle_beta   90.00000000
_cell_angle_gamma   90.00000000
_symmetry_Int_Tables_number   1
_chemical_formula_structural   HgCSN3Cl2
_chemical_formula_sum   'Hg4 C4 S4 N12 Cl8'
_cell_volume   971.10327085
_cell_formula_units_Z   4
loop_
 _symmetry_equiv_pos_site_id
 _symmetry_equiv_pos_as_xyz
  1  'x, y, z'
loop_
 _atom_site_type_symbol
 _atom_site_label
 _atom_site_symmetry_multiplicity
 _atom_site_fract_x
 _atom_site_fract_y
 _atom_site_fract_z
 _atom_site_occupancy
  Hg  Hg0  1  0.02087800  0.83390400  0.20717400  1
  Hg  Hg1  1  0.52087800  0.16609600  0.29282600  1
  Hg  Hg2  1  0.97912200  0.16609600  0.79282600  1
  Hg  Hg3  1  0.47912200  0.83390400  0.70717400  1
  C  C0  1  0.06271500  0.71556000  0.94926800  1
  C  C1  1  0.56271500  0.28444000  0.55073200  1
  C  C2  1  0.93728500  0.28444000  0.05073200  1
  C  C3  1  0.43728500  0.71556000  0.44926800  1
  S  S0  1  0.15926200  0.83580900  0.01396300  1
  S  S1  1  0.65926200  0.16419100  0.48603700  1
  S  S2  1  0.84073800  0.16419100  0.98603700  1
  S  S3  1  0.34073800  0.83580900  0.51396300  1
  N  N0  1  0.66913100  0.68732000  0.02692000  1
  N  N1  1  0.16913100  0.31268000  0.47308000  1
  N  N2  1  0.33086900  0.31268000  0.97308000  1
  N  N3  1  0.83086900  0.68732000  0.52692000  1
  N  N4  1  0.70337100  0.76786600  0.08591900  1
  N  N5  1  0.20337100  0.23213400  0.41408100  1
  N  N6  1  0.29662900  0.23213400  0.91408100  1
  N  N7  1  0.79662900  0.76786600  0.58591900  1
  N  N8  1  0.99492000  0.63563600  0.89474700  1
  N  N9  1  0.49492000  0.36436400  0.60525300  1
  N  N10  1  0.00508000  0.36436400  0.10525300  1
  N  N11  1  0.50508000  0.63563600  0.39474700  1
  Cl  Cl0  1  0.02936300  0.60453600  0.29515600  1
  Cl  Cl1  1  0.52936300  0.39546400  0.20484400  1
  Cl  Cl2  1  0.97063700  0.39546400  0.70484400  1
  Cl  Cl3  1  0.47063700  0.60453600  0.79515600  1
  Cl  Cl4  1  0.88959900  0.02551000  0.28889600  1
  Cl  Cl5  1  0.38959900  0.97449000  0.21110400  1
  Cl  Cl6  1  0.11040100  0.97449000  0.71110400  1
  Cl  Cl7  1  0.61040100  0.02551000  0.78889600  1
loop_
_geom_bond_atom_site_label_1
_geom_bond_atom_site_label_2
_geom_bond_distance
_geom_bond_site_symmetry_2
Hg0 S0 2.570139 1_555
Hg1 S1 2.570139 1_555
Hg2 S2 2.570139 1_555
Hg3 S3 2.570139 1_555
C0 N8 1.184199 1_455
C0 S0 1.646924 1_556
C1 N9 1.184199 1_555
C1 S1 1.646924 1_555
C2 N10 1.184199 1_655
C2 S2 1.646924 1_554
C3 N11 1.184199 1_555
C3 S3 1.646924 1_555
N0 N4 1.112939 1_555
N1 N5 1.112939 1_555
N2 N6 1.112939 1_555
N3 N7 1.112939 1_555
Cl0 Hg0 2.389839 1_555
Cl1 Hg1 2.389839 1_555
Cl2 Hg2 2.389839 1_555
Cl3 Hg3 2.389839 1_555
Cl4 Hg0 2.410803 1_645
Cl5 Hg1 2.410803 1_565
Cl6 Hg2 2.410803 1_465
Cl7 Hg3 2.410803 1_545
