# generated using pymatgen
data_NdSb2Au
_symmetry_space_group_name_H-M   'P 1'
_cell_length_a   4.42028335
_cell_length_b   4.42028335
_cell_length_c   10.43437707
_cell_angle_alpha   90.00000000
_cell_angle_beta   90.00000000
_cell_angle_gamma   90.00000000
_symmetry_Int_Tables_number   1
_chemical_formula_structural   NdSb2Au
_chemical_formula_sum   'Nd2 Sb4 Au2'
_cell_volume   203.87630120
_cell_formula_units_Z   2
loop_
 _symmetry_equiv_pos_site_id
 _symmetry_equiv_pos_as_xyz
  1  'x, y, z'
loop_
 _atom_site_type_symbol
 _atom_site_label
 _atom_site_symmetry_multiplicity
 _atom_site_fract_x
 _atom_site_fract_y
 _atom_site_fract_z
 _atom_site_occupancy
  Nd  Nd0  1  0.00000000  0.50000000  0.75699809  1
  Nd  Nd1  1  0.50000000  -0.00000000  0.24300191  1
  Sb  Sb0  1  0.50000000  0.50000000  -0.00000000  1
  Sb  Sb1  1  0.00000000  0.00000000  -0.00000000  1
  Sb  Sb2  1  0.00000000  0.50000000  0.32773407  1
  Sb  Sb3  1  0.50000000  0.00000000  0.67226593  1
  Au  Au0  1  0.50000000  0.50000000  0.50000000  1
  Au  Au1  1  -0.00000000  -0.00000000  0.50000000  1
loop_
_geom_bond_atom_site_label_1
_geom_bond_atom_site_label_2
_geom_bond_distance
_geom_bond_site_symmetry_2
Nd0 Sb3 3.248251 1_455
Nd0 Sb3 3.248251 1_565
Nd0 Sb3 3.248251 1_465
Nd0 Sb3 3.248251 1_555
Nd0 Sb1 3.363608 1_566
Nd0 Sb0 3.363608 1_556
Nd0 Sb1 3.363608 1_556
Nd0 Sb0 3.363608 1_456
Nd1 Sb2 3.248251 1_655
Nd1 Sb2 3.248251 1_545
Nd1 Sb2 3.248251 1_645
Nd1 Sb2 3.248251 1_555
Nd1 Sb1 3.363608 1_655
Nd1 Sb0 3.363608 1_545
Nd1 Sb0 3.363608 1_555
Nd1 Sb1 3.363608 1_555
Sb0 Sb1 3.125612 1_655
Sb0 Sb1 3.125612 1_665
Sb0 Sb1 3.125612 1_555
Sb0 Sb1 3.125612 1_565
Au0 Sb3 2.848805 1_555
Au0 Sb3 2.848805 1_565
Au0 Sb2 2.848805 1_555
Au0 Sb2 2.848805 1_655
Au0 Au1 3.125612 1_655
Au0 Au1 3.125612 1_565
Au0 Au1 3.125612 1_665
Au0 Au1 3.125612 1_555
Au0 Nd1 3.475023 1_565
Au0 Nd1 3.475023 1_555
Au0 Nd0 3.475023 1_655
Au0 Nd0 3.475023 1_555
Au1 Sb2 2.848805 1_545
Au1 Sb3 2.848805 1_555
Au1 Sb2 2.848805 1_555
Au1 Sb3 2.848805 1_455
Au1 Nd1 3.475023 1_455
Au1 Nd1 3.475023 1_555
Au1 Nd0 3.475023 1_555
Au1 Nd0 3.475023 1_545
