# generated using pymatgen
data_Ag15S5I4Br
_symmetry_space_group_name_H-M   'P 1'
_cell_length_a   6.99391357
_cell_length_b   8.55899514
_cell_length_c   10.98724307
_cell_angle_alpha   105.12331588
_cell_angle_beta   72.02611549
_cell_angle_gamma   89.56575805
_symmetry_Int_Tables_number   1
_chemical_formula_structural   Ag15S5I4Br
_chemical_formula_sum   'Ag15 S5 I4 Br1'
_cell_volume   601.15584618
_cell_formula_units_Z   1
loop_
 _symmetry_equiv_pos_site_id
 _symmetry_equiv_pos_as_xyz
  1  'x, y, z'
loop_
 _atom_site_type_symbol
 _atom_site_label
 _atom_site_symmetry_multiplicity
 _atom_site_fract_x
 _atom_site_fract_y
 _atom_site_fract_z
 _atom_site_occupancy
  Ag  Ag0  1  0.27447000  0.24389800  0.86724400  1
  Ag  Ag1  1  0.67852500  0.64586500  0.06418500  1
  Ag  Ag2  1  0.07845200  0.04505600  0.26053900  1
  Ag  Ag3  1  0.47634900  0.44432800  0.46550200  1
  Ag  Ag4  1  0.87676300  0.84532500  0.66680400  1
  Ag  Ag5  1  0.44617700  0.05542800  0.01223100  1
  Ag  Ag6  1  0.84461500  0.45541700  0.21178700  1
  Ag  Ag7  1  0.24284200  0.85815900  0.41309400  1
  Ag  Ag8  1  0.64302500  0.25703600  0.61321200  1
  Ag  Ag9  1  0.04526300  0.66081600  0.81523000  1
  Ag  Ag10  1  0.39517600  0.88595400  0.75031900  1
  Ag  Ag11  1  0.80168300  0.28104500  0.94901200  1
  Ag  Ag12  1  0.19791300  0.68557700  0.14855800  1
  Ag  Ag13  1  0.59966900  0.08497700  0.34694700  1
  Ag  Ag14  1  0.99789300  0.48415200  0.54973900  1
  S  S0  1  0.84458500  0.30494800  0.38387800  1
  S  S1  1  0.24210900  0.70787700  0.58710500  1
  S  S2  1  0.64169600  0.10634500  0.78775700  1
  S  S3  1  0.04228900  0.50701000  0.98570300  1
  S  S4  1  0.44295500  0.90706200  0.18442100  1
  I  I0  1  0.39550400  0.40070900  0.20245700  1
  I  I1  1  0.79507100  0.80025600  0.40089000  1
  I  I2  1  0.19464500  0.19945800  0.60243900  1
  I  I3  1  0.59586700  0.59896200  0.80050400  1
  Br  Br0  1  0.00846200  0.00134000  0.99644100  1
loop_
_geom_bond_atom_site_label_1
_geom_bond_atom_site_label_2
_geom_bond_distance
_geom_bond_site_symmetry_2
Ag0 S3 2.552073 1_555
Ag0 S2 2.603561 1_555
Ag0 I2 3.057723 1_555
Ag0 Br0 3.122921 1_555
Ag1 S4 2.552907 1_555
Ag1 S3 2.587296 1_654
Ag1 I3 3.052706 1_554
Ag1 I0 3.240273 1_555
Ag2 S0 2.542392 1_455
Ag2 S4 2.591616 1_545
Ag2 Br0 3.018676 1_554
Ag2 I1 3.249422 1_445
Ag3 S1 2.564712 1_555
Ag3 S0 2.613405 1_555
Ag3 I0 3.043143 1_555
Ag3 I2 3.227460 1_555
Ag4 S2 2.550833 1_565
Ag4 S1 2.591483 1_655
Ag4 I1 3.075197 1_555
Ag4 I3 3.218960 1_555
Ag5 S4 2.533778 1_545
Ag5 S2 2.575097 1_554
Ag5 I0 3.087317 1_555
Ag5 Br0 3.150171 1_554
Ag6 S0 2.550318 1_555
Ag6 S3 2.595944 1_654
Ag6 I1 3.080348 1_555
Ag6 I0 3.208097 1_555
Ag7 S1 2.566538 1_555
Ag7 S4 2.614189 1_555
Ag7 I2 3.058779 1_565
Ag7 I1 3.212315 1_455
Ag8 S2 2.573176 1_555
Ag8 S0 2.619206 1_555
Ag8 I3 3.054857 1_555
Ag8 I2 3.211387 1_555
Ag9 S3 2.550412 1_555
Ag9 S1 2.597214 1_555
Ag9 Br0 3.028097 1_565
Ag9 I3 3.237207 1_455
Ag10 S1 2.543285 1_555
Ag10 S2 2.604267 1_565
Ag10 I3 3.072461 1_555
Ag10 Br0 3.107286 1_565
Ag11 S2 2.548220 1_555
Ag11 S3 2.606898 1_655
Ag11 Br0 3.026193 1_655
Ag11 I0 3.234024 1_556
Ag12 S3 2.553904 1_554
Ag12 S4 2.600437 1_555
Ag12 I0 3.067998 1_555
Ag12 I1 3.210161 1_455
Ag13 S4 2.554069 1_545
Ag13 S0 2.592806 1_555
Ag13 I1 3.059510 1_545
Ag13 I2 3.237205 1_555
Ag14 S0 2.568184 1_555
Ag14 S1 2.612420 1_655
Ag14 I2 3.056704 1_655
Ag14 I3 3.197957 1_555
