# generated using pymatgen
data_Gd2NiO4
_symmetry_space_group_name_H-M   'P 1'
_cell_length_a   6.58939234
_cell_length_b   6.58939234
_cell_length_c   6.58939234
_cell_angle_alpha   146.11149092
_cell_angle_beta   146.11149092
_cell_angle_gamma   48.68119125
_symmetry_Int_Tables_number   1
_chemical_formula_structural   Gd2NiO4
_chemical_formula_sum   'Gd2 Ni1 O4'
_cell_volume   88.56646622
_cell_formula_units_Z   1
loop_
 _symmetry_equiv_pos_site_id
 _symmetry_equiv_pos_as_xyz
  1  'x, y, z'
loop_
 _atom_site_type_symbol
 _atom_site_label
 _atom_site_symmetry_multiplicity
 _atom_site_fract_x
 _atom_site_fract_y
 _atom_site_fract_z
 _atom_site_occupancy
  Gd  Gd0  1  0.36413700  0.36413700  0.00000000  1
  Gd  Gd1  1  0.63586300  0.63586300  0.00000000  1
  Ni  Ni0  1  0.00000000  0.00000000  0.00000000  1
  O  O0  1  0.18125100  0.18125100  0.00000000  1
  O  O1  1  0.81874900  0.81874900  0.00000000  1
  O  O2  1  0.50000000  0.00000000  0.50000000  1
  O  O3  1  0.00000000  0.50000000  0.50000000  1
loop_
_geom_bond_atom_site_label_1
_geom_bond_atom_site_label_2
_geom_bond_distance
_geom_bond_site_symmetry_2
Gd0 O0 2.195975 1_555
Gd0 O3 2.519787 1_655
Gd0 O2 2.519787 1_565
Gd0 O2 2.519787 1_554
Gd0 O3 2.519787 1_554
Gd0 O1 2.770025 1_545
Gd0 O1 2.770025 1_455
Gd0 O1 2.770025 1_556
Gd0 O1 2.770025 1_444
Gd1 O1 2.195975 1_555
Gd1 O2 2.519787 1_554
Gd1 O3 2.519787 1_655
Gd1 O3 2.519787 1_554
Gd1 O2 2.519787 1_565
Gd1 O0 2.770025 1_554
Gd1 O0 2.770025 1_655
Gd1 O0 2.770025 1_565
Gd1 O0 2.770025 1_666
Ni0 O2 1.920420 1_555
Ni0 O2 1.920420 1_454
Ni0 O3 1.920420 1_544
Ni0 O3 1.920420 1_555
Ni0 O0 2.176343 1_555
Ni0 O1 2.176343 1_445
