# generated using pymatgen
data_Sr3Cr
_symmetry_space_group_name_H-M   'P 1'
_cell_length_a   6.74141862
_cell_length_b   6.74141862
_cell_length_c   6.74141862
_cell_angle_alpha   131.28461215
_cell_angle_beta   131.28461215
_cell_angle_gamma   71.36127843
_symmetry_Int_Tables_number   1
_chemical_formula_structural   Sr3Cr
_chemical_formula_sum   'Sr3 Cr1'
_cell_volume   169.32631825
_cell_formula_units_Z   1
loop_
 _symmetry_equiv_pos_site_id
 _symmetry_equiv_pos_as_xyz
  1  'x, y, z'
loop_
 _atom_site_type_symbol
 _atom_site_label
 _atom_site_symmetry_multiplicity
 _atom_site_fract_x
 _atom_site_fract_y
 _atom_site_fract_z
 _atom_site_occupancy
  Sr  Sr0  1  0.75000000  0.25000000  0.50000000  1
  Sr  Sr1  1  0.25000000  0.75000000  0.50000000  1
  Sr  Sr2  1  0.50000000  0.50000000  0.00000000  1
  Cr  Cr0  1  0.00000000  0.00000000  0.00000000  1
loop_
_geom_bond_atom_site_label_1
_geom_bond_atom_site_label_2
_geom_bond_distance
_geom_bond_site_symmetry_2
Sr0 Sr2 3.902169 1_656
Sr0 Sr2 3.902169 1_545
Sr0 Sr2 3.902169 1_556
Sr0 Sr2 3.902169 1_555
Sr0 Sr1 3.932045 1_555
Sr0 Sr1 3.932045 1_656
Sr0 Sr1 3.932045 1_645
Sr0 Sr1 3.932045 1_544
Sr1 Sr2 3.902169 1_455
Sr1 Sr2 3.902169 1_556
Sr1 Sr2 3.902169 1_555
Sr1 Sr2 3.902169 1_566
Cr0 Sr1 3.902169 1_444
Cr0 Sr0 3.902169 1_555
Cr0 Sr0 3.902169 1_444
Cr0 Sr1 3.902169 1_555
Cr0 Sr1 3.902169 1_544
Cr0 Sr1 3.902169 1_545
Cr0 Sr0 3.902169 1_455
Cr0 Sr0 3.902169 1_454
Cr0 Sr2 3.932045 1_455
Cr0 Sr2 3.932045 1_545
Cr0 Sr2 3.932045 1_556
Cr0 Sr2 3.932045 1_444
