# generated using pymatgen
data_Li6V3P8O29
_symmetry_space_group_name_H-M   'P 1'
_cell_length_a   9.81765800
_cell_length_b   9.82103148
_cell_length_c   14.00449628
_cell_angle_alpha   89.76775803
_cell_angle_beta   89.74734455
_cell_angle_gamma   60.12759338
_symmetry_Int_Tables_number   1
_chemical_formula_structural   Li6V3P8O29
_chemical_formula_sum   'Li12 V6 P16 O58'
_cell_volume   1170.88664493
_cell_formula_units_Z   2
loop_
 _symmetry_equiv_pos_site_id
 _symmetry_equiv_pos_as_xyz
  1  'x, y, z'
loop_
 _atom_site_type_symbol
 _atom_site_label
 _atom_site_symmetry_multiplicity
 _atom_site_fract_x
 _atom_site_fract_y
 _atom_site_fract_z
 _atom_site_occupancy
  Li  Li0  1  0.22644100  0.68489300  0.06049400  1
  Li  Li1  1  0.09326200  0.66662200  0.56106400  1
  Li  Li2  1  0.66533100  0.23674800  0.55871600  1
  Li  Li3  1  0.32941300  0.33831800  0.88760400  1
  Li  Li4  1  0.68979600  0.08381400  0.06545700  1
  Li  Li5  1  0.09052100  0.22714000  0.06245400  1
  Li  Li6  1  0.23376300  0.09551100  0.55801400  1
  Li  Li7  1  0.31660800  0.90700100  0.94164900  1
  Li  Li8  1  0.33619000  0.76505900  0.43728700  1
  Li  Li9  1  0.89700500  0.33697200  0.43753300  1
  Li  Li10  1  0.77545800  0.31394900  0.94086300  1
  Li  Li11  1  0.96129100  0.98607400  0.48908400  1
  V  V0  1  0.57253800  0.99472700  0.25388800  1
  V  V1  1  0.43937000  0.00072600  0.74762300  1
  V  V2  1  0.99685600  0.56797300  0.75255600  1
  V  V3  1  0.99947800  0.43563300  0.24989500  1
  V  V4  1  0.43337300  0.56840900  0.24867100  1
  V  V5  1  0.56454100  0.43509600  0.74808500  1
  P  P0  1  0.22892500  0.67920400  0.84150100  1
  P  P1  1  0.08736500  0.68560400  0.34518100  1
  P  P2  1  0.68376400  0.22833000  0.34059300  1
  P  P3  1  0.33664600  0.33090900  0.12877100  1
  P  P4  1  0.33029500  0.33605500  0.62840500  1
  P  P5  1  0.67960700  0.09083500  0.84616600  1
  P  P6  1  0.77825000  0.91827000  0.66071900  1
  P  P7  1  0.09201900  0.22785300  0.84080100  1
  P  P8  1  0.91621200  0.77044300  0.16121200  1
  P  P9  1  0.22755700  0.08740600  0.34109400  1
  P  P10  1  0.32048400  0.91382500  0.15815500  1
  P  P11  1  0.66505600  0.66502200  0.37158100  1
  P  P12  1  0.66461300  0.66533900  0.87008900  1
  P  P13  1  0.31567300  0.77214300  0.65768800  1
  P  P14  1  0.91503900  0.31514700  0.65649300  1
  P  P15  1  0.76856800  0.32167800  0.15833500  1
  O  O0  1  0.22692300  0.77175200  0.56976800  1
  O  O1  1  0.25627300  0.66160600  0.33537900  1
  O  O2  1  0.01162100  0.76063300  0.07636800  1
  O  O3  1  0.08355300  0.66136400  0.84072900  1
  O  O4  1  0.37389500  0.51201600  0.82362000  1
  O  O5  1  0.32973500  0.48556200  0.16616500  1
  O  O6  1  0.53067700  0.38382800  0.33206900  1
  O  O7  1  0.75528600  0.24497900  0.06871400  1
  O  O8  1  0.66633300  0.25485200  0.84019300  1
  O  O9  1  0.18586900  0.48850100  0.67038900  1
  O  O10  1  0.08796800  0.53089600  0.33359500  1
  O  O11  1  0.48609100  0.32715800  0.66783900  1
  O  O12  1  0.33374200  0.33329700  0.02065000  1
  O  O13  1  0.32970600  0.33634100  0.52192400  1
  O  O14  1  0.48883600  0.18477100  0.16621600  1
  O  O15  1  0.11599100  0.37149500  0.82528500  1
  O  O16  1  0.18756400  0.32651600  0.16720900  1
  O  O17  1  0.65788300  0.08648200  0.33596700  1
  O  O18  1  0.79429600  0.99204300  0.76002300  1
  O  O19  1  0.78976100  0.01279100  0.57957800  1
  O  O20  1  0.74325800  0.01071500  0.93855100  1
  O  O21  1  0.51177600  0.11633400  0.82330700  1
  O  O22  1  0.32323400  0.18874400  0.66930800  1
  O  O23  1  0.74912200  0.91436000  0.16076900  1
  O  O24  1  0.37916200  0.09192100  0.33031300  1
  O  O25  1  0.08110200  0.25481100  0.33832800  1
  O  O26  1  0.99256300  0.79661000  0.25698400  1
  O  O27  1  0.01753100  0.77338800  0.43680700  1
  O  O28  1  0.00267900  0.22626900  0.56784600  1
  O  O29  1  0.91688200  0.74904200  0.65963400  1
  O  O30  1  0.61871300  0.92201200  0.66678400  1
  O  O31  1  0.25520700  0.07816000  0.84164400  1
  O  O32  1  0.67761100  0.80443000  0.32724700  1
  O  O33  1  0.47784100  0.90622500  0.17662100  1
  O  O34  1  0.24197700  0.00290000  0.06808600  1
  O  O35  1  0.22015800  0.00145200  0.42965500  1
  O  O36  1  0.20706000  0.00139700  0.24827300  1
  O  O37  1  0.33791200  0.91659200  0.65816400  1
  O  O38  1  0.81507800  0.65838700  0.82449600  1
  O  O39  1  0.90700200  0.61808500  0.17868300  1
  O  O40  1  0.51853600  0.81697300  0.82737100  1
  O  O41  1  0.66327100  0.66162100  0.97591000  1
  O  O42  1  0.65714400  0.66146100  0.47823700  1
  O  O43  1  0.50890800  0.67874000  0.32879700  1
  O  O44  1  0.91372900  0.47057500  0.66861200  1
  O  O45  1  0.80991300  0.50865900  0.33243800  1
  O  O46  1  0.33802900  0.74851500  0.15668600  1
  O  O47  1  0.21205100  0.79043900  0.75171800  1
  O  O48  1  0.25104900  0.75147200  0.93023000  1
  O  O49  1  0.47262200  0.61794700  0.66928800  1
  O  O50  1  0.66258400  0.51646700  0.82793300  1
  O  O51  1  0.62113300  0.48145400  0.17715600  1
  O  O52  1  0.91785300  0.33648100  0.15777200  1
  O  O53  1  0.99954800  0.24435100  0.93034300  1
  O  O54  1  0.00203600  0.20952400  0.75036500  1
  O  O55  1  0.74931100  0.33489700  0.65809900  1
  O  O56  1  0.77863900  0.21655200  0.42932300  1
  O  O57  1  0.79157000  0.20933200  0.24844900  1
loop_
_geom_bond_atom_site_label_1
_geom_bond_atom_site_label_2
_geom_bond_distance
_geom_bond_site_symmetry_2
Li0 O2 1.866869 1_555
Li0 O48 1.989404 1_554
Li0 O46 2.026590 1_555
Li0 O5 2.250094 1_555
Li1 O27 1.974950 1_555
Li1 O29 2.037415 1_455
Li1 O0 2.038362 1_555
Li1 O9 2.153394 1_555
Li2 O19 1.933089 1_555
Li2 O56 2.079858 1_555
Li2 O55 2.087758 1_555
Li2 O11 2.156679 1_555
Li3 O12 1.863807 1_556
Li3 O15 2.142870 1_555
Li3 O4 2.151738 1_555
Li3 O21 2.209679 1_555
Li4 O20 1.891105 1_554
Li4 O23 1.978334 1_545
Li4 O7 1.983771 1_555
Li4 O14 2.214707 1_555
Li5 O34 1.950596 1_555
Li5 O52 1.996759 1_455
Li5 O53 2.027554 1_454
Li5 O16 2.227696 1_555
Li6 O28 1.977775 1_555
Li6 O35 2.059377 1_555
Li6 O37 2.074414 1_545
Li6 O22 2.205472 1_555
Li7 O48 1.937828 1_555
Li7 O34 1.968218 1_566
Li7 O31 2.032099 1_565
Li7 O40 2.347472 1_555
Li8 O35 2.015840 1_565
Li8 O43 2.111445 1_555
Li8 O1 2.121418 1_555
Li8 O0 2.123805 1_555
Li9 O56 2.033127 1_555
Li9 O45 2.072487 1_555
Li9 O25 2.093362 1_655
Li9 O28 2.113269 1_655
Li10 O7 1.955646 1_556
Li10 O53 1.956799 1_555
Li10 O8 2.027718 1_555
Li10 O50 2.340837 1_555
Li11 O19 2.013603 1_565
Li11 O27 2.015909 1_655
Li11 O56 2.234766 1_565
O0 P13 1.512640 1_555
O1 P1 1.559878 1_555
O1 V4 1.934037 1_555
O2 P8 1.483140 1_455
O3 P0 1.522168 1_555
O3 V2 1.971451 1_455
O4 P0 1.567382 1_555
O4 V5 1.942541 1_555
O5 P3 1.577732 1_555
O5 V4 1.968508 1_555
O6 P2 1.522839 1_555
O6 V4 1.957159 1_555
O7 P15 1.505533 1_555
O8 P5 1.551967 1_555
O8 V5 2.006691 1_555
O9 P4 1.575705 1_555
O9 V2 1.980529 1_455
O10 P1 1.525760 1_555
O10 V3 1.957446 1_455
O11 P4 1.589362 1_555
O11 V5 1.952041 1_555
O12 P3 1.514441 1_555
O13 P4 1.491235 1_555
O14 P3 1.559485 1_555
O14 V0 2.031951 1_545
O15 P7 1.555798 1_555
O15 V2 1.968555 1_455
O16 P3 1.577856 1_555
O16 V3 1.979673 1_455
O17 P2 1.537190 1_555
O17 V0 1.898527 1_545
O18 P5 1.604314 1_565
O18 P6 1.614809 1_555
O19 P6 1.503524 1_545
O20 P5 1.480760 1_555
O21 P5 1.572609 1_555
O21 V1 1.933452 1_555
O22 P4 1.587087 1_555
O22 V1 1.951905 1_555
O23 P8 1.542450 1_555
O23 V0 1.988585 1_555
O24 P9 1.517835 1_555
O24 V0 1.961157 1_545
O25 P9 1.554697 1_555
O25 V3 1.975588 1_455
O26 P1 1.602764 1_655
O26 P8 1.621850 1_555
O27 P1 1.507406 1_555
O28 P14 1.514817 1_455
O29 P6 1.536749 1_555
O29 V2 2.017826 1_555
O30 P6 1.550261 1_555
O30 V1 1.900810 1_565
O31 P7 1.543380 1_555
O31 V1 2.049038 1_555
O32 P11 1.560686 1_555
O32 V0 1.919828 1_555
O33 P10 1.532187 1_555
O33 V0 1.900576 1_555
O34 P10 1.509430 1_545
O35 P9 1.519179 1_555
O36 P10 1.617056 1_545
O36 P9 1.619972 1_555
O37 P13 1.539117 1_555
O37 V1 2.020832 1_565
O38 P12 1.576731 1_555
O38 V2 1.844246 1_555
O39 P8 1.561603 1_555
O39 V3 1.844612 1_555
O40 P12 1.582792 1_555
O40 V1 1.924122 1_565
O41 P12 1.482434 1_555
O42 P11 1.496512 1_555
O43 P11 1.590275 1_555
O43 V4 1.949577 1_555
O44 P14 1.530224 1_555
O44 V2 1.938623 1_555
O45 P11 1.582936 1_555
O45 V3 1.993093 1_555
O46 P10 1.545173 1_555
O46 V4 2.001811 1_555
O47 P13 1.615340 1_555
O47 P0 1.616251 1_555
O48 P0 1.502691 1_555
O49 P13 1.539400 1_555
O49 V5 1.906664 1_555
O50 P12 1.588307 1_555
O50 V5 1.896991 1_555
O51 P15 1.537645 1_555
O51 V4 1.884905 1_555
O52 P15 1.543181 1_555
O52 V3 2.012838 1_555
O53 P7 1.505992 1_655
O54 P7 1.608420 1_555
O54 P14 1.627906 1_455
O55 P14 1.539738 1_555
O55 V5 2.014650 1_555
O56 P2 1.525384 1_555
O57 P15 1.613708 1_555
O57 P2 1.616611 1_555
