# generated using pymatgen
data_K10CoMo7O27
_symmetry_space_group_name_H-M   'P 1'
_cell_length_a   8.03323100
_cell_length_b   10.75643500
_cell_length_c   18.62914600
_cell_angle_alpha   90.00000000
_cell_angle_beta   90.00000000
_cell_angle_gamma   90.00000000
_symmetry_Int_Tables_number   1
_chemical_formula_structural   K10CoMo7O27
_chemical_formula_sum   'K20 Co2 Mo14 O54'
_cell_volume   1609.72451849
_cell_formula_units_Z   2
loop_
 _symmetry_equiv_pos_site_id
 _symmetry_equiv_pos_as_xyz
  1  'x, y, z'
loop_
 _atom_site_type_symbol
 _atom_site_label
 _atom_site_symmetry_multiplicity
 _atom_site_fract_x
 _atom_site_fract_y
 _atom_site_fract_z
 _atom_site_occupancy
  K  K0  1  0.87881500  0.09705600  0.00000000  1
  K  K1  1  0.12118500  0.59705600  0.50000000  1
  K  K2  1  0.23399000  0.86125700  0.15355100  1
  K  K3  1  0.76601000  0.36125700  0.34644900  1
  K  K4  1  0.76601000  0.36125700  0.65355100  1
  K  K5  1  0.23399000  0.86125700  0.84644900  1
  K  K6  1  0.55610700  0.17469500  0.17945800  1
  K  K7  1  0.44389300  0.67469500  0.32054200  1
  K  K8  1  0.44389300  0.67469500  0.67945800  1
  K  K9  1  0.55610700  0.17469500  0.82054200  1
  K  K10  1  0.59737200  0.74639800  0.00000000  1
  K  K11  1  0.40262800  0.24639800  0.50000000  1
  K  K12  1  0.11939600  0.00352700  0.35840700  1
  K  K13  1  0.88060400  0.50352700  0.14159300  1
  K  K14  1  0.88060400  0.50352700  0.85840700  1
  K  K15  1  0.11939600  0.00352700  0.64159300  1
  K  K16  1  0.24114200  0.34617300  0.31654000  1
  K  K17  1  0.75885800  0.84617300  0.18346000  1
  K  K18  1  0.75885800  0.84617300  0.81654000  1
  K  K19  1  0.24114200  0.34617300  0.68346000  1
  Co  Co0  1  0.21727800  0.35503700  0.00000000  1
  Co  Co1  1  0.78272200  0.85503700  0.50000000  1
  Mo  Mo0  1  0.05935700  0.68207000  0.00000000  1
  Mo  Mo1  1  0.94064300  0.18207000  0.50000000  1
  Mo  Mo2  1  0.40677500  0.51945700  0.15355800  1
  Mo  Mo3  1  0.59322500  0.01945700  0.34644200  1
  Mo  Mo4  1  0.59322500  0.01945700  0.65355800  1
  Mo  Mo5  1  0.40677500  0.51945700  0.84644200  1
  Mo  Mo6  1  0.61010300  0.36656200  0.00000000  1
  Mo  Mo7  1  0.38989700  0.86656200  0.50000000  1
  Mo  Mo8  1  0.03775400  0.19075100  0.16550500  1
  Mo  Mo9  1  0.96224600  0.69075100  0.33449500  1
  Mo  Mo10  1  0.96224600  0.69075100  0.66550500  1
  Mo  Mo11  1  0.03775400  0.19075100  0.83449500  1
  Mo  Mo12  1  0.39962300  0.04508200  0.00000000  1
  Mo  Mo13  1  0.60037700  0.54508200  0.50000000  1
  O  O0  1  0.04997500  0.23648100  0.42123000  1
  O  O1  1  0.95002500  0.73648100  0.07877000  1
  O  O2  1  0.95002500  0.73648100  0.92123000  1
  O  O3  1  0.04997500  0.23648100  0.57877000  1
  O  O4  1  0.09641900  0.56148000  0.35410900  1
  O  O5  1  0.90358100  0.06148000  0.14589100  1
  O  O6  1  0.90358100  0.06148000  0.85410900  1
  O  O7  1  0.09641900  0.56148000  0.64589100  1
  O  O8  1  0.39683200  0.42831900  0.06879900  1
  O  O9  1  0.60316800  0.92831900  0.43120100  1
  O  O10  1  0.60316800  0.92831900  0.56879900  1
  O  O11  1  0.39683200  0.42831900  0.93120100  1
  O  O12  1  0.49737800  0.48245300  0.42216500  1
  O  O13  1  0.50262200  0.98245300  0.07783500  1
  O  O14  1  0.50262200  0.98245300  0.92216500  1
  O  O15  1  0.49737800  0.48245300  0.57783500  1
  O  O16  1  0.26698800  0.74030500  0.00000000  1
  O  O17  1  0.73301200  0.24030500  0.50000000  1
  O  O18  1  0.22022800  0.13303800  0.21014500  1
  O  O19  1  0.77977200  0.63303800  0.28985500  1
  O  O20  1  0.77977200  0.63303800  0.71014500  1
  O  O21  1  0.22022800  0.13303800  0.78985500  1
  O  O22  1  0.09438500  0.26884100  0.08246200  1
  O  O23  1  0.90561500  0.76884100  0.41753800  1
  O  O24  1  0.90561500  0.76884100  0.58246200  1
  O  O25  1  0.09438500  0.26884100  0.91753800  1
  O  O26  1  0.49681000  0.42587000  0.22330000  1
  O  O27  1  0.50319000  0.92587000  0.27670000  1
  O  O28  1  0.50319000  0.92587000  0.72330000  1
  O  O29  1  0.49681000  0.42587000  0.77670000  1
  O  O30  1  0.47303700  0.15915300  0.35461200  1
  O  O31  1  0.52696300  0.65915300  0.14538800  1
  O  O32  1  0.52696300  0.65915300  0.85461200  1
  O  O33  1  0.47303700  0.15915300  0.64538800  1
  O  O34  1  0.41455100  0.21614100  0.00000000  1
  O  O35  1  0.58544900  0.71614100  0.50000000  1
  O  O36  1  0.06181200  0.79879600  0.27473300  1
  O  O37  1  0.93818800  0.29879600  0.22526700  1
  O  O38  1  0.93818800  0.29879600  0.77473300  1
  O  O39  1  0.06181200  0.79879600  0.72526700  1
  O  O40  1  0.20487300  0.56069500  0.18138900  1
  O  O41  1  0.79512700  0.06069500  0.31861100  1
  O  O42  1  0.79512700  0.06069500  0.68138900  1
  O  O43  1  0.20487300  0.56069500  0.81861100  1
  O  O44  1  0.18812800  0.00252400  0.00000000  1
  O  O45  1  0.81187200  0.50252400  0.50000000  1
  O  O46  1  0.06848400  0.51383200  0.00000000  1
  O  O47  1  0.93151600  0.01383200  0.50000000  1
  O  O48  1  0.70631000  0.29451200  0.07523600  1
  O  O49  1  0.29369000  0.79451200  0.42476400  1
  O  O50  1  0.29369000  0.79451200  0.57523600  1
  O  O51  1  0.70631000  0.29451200  0.92476400  1
  O  O52  1  0.69690800  0.51793300  0.00000000  1
  O  O53  1  0.30309200  0.01793300  0.50000000  1
loop_
_geom_bond_atom_site_label_1
_geom_bond_atom_site_label_2
_geom_bond_distance
_geom_bond_site_symmetry_2
K0 O44 2.684787 1_655
K0 O5 2.751834 1_555
K0 O6 2.751834 1_554
K0 O51 2.897559 1_554
K0 O48 2.897559 1_555
K0 O22 2.961944 1_655
K0 O25 2.961944 1_654
K1 O45 2.684787 1_455
K1 O4 2.751834 1_555
K1 O7 2.751834 1_555
K1 O49 2.897559 1_555
K1 O50 2.897559 1_555
K1 O23 2.961944 1_455
K1 O24 2.961944 1_455
K2 O36 2.731459 1_555
K2 O13 2.888934 1_555
K2 O1 2.990948 1_455
K2 O18 3.109663 1_565
K2 O16 3.153648 1_555
K2 O31 3.207507 1_555
K2 O27 3.228438 1_555
K2 O44 3.259954 1_565
K2 O40 3.282649 1_555
K2 O5 3.421078 1_465
K3 O37 2.731459 1_555
K3 O12 2.888934 1_555
K3 O0 2.990948 1_655
K3 O19 3.109663 1_555
K3 O17 3.153648 1_555
K3 O30 3.207507 1_555
K3 O26 3.228438 1_555
K3 O45 3.259954 1_555
K3 O41 3.282649 1_555
K3 O4 3.421078 1_655
K4 O38 2.731459 1_555
K4 O15 2.888934 1_555
K4 O3 2.990948 1_655
K4 O20 3.109663 1_555
K4 O17 3.153648 1_555
K4 O33 3.207507 1_555
K4 O29 3.228438 1_555
K4 O45 3.259954 1_555
K4 O42 3.282649 1_555
K4 O7 3.421078 1_655
K5 O39 2.731459 1_555
K5 O14 2.888934 1_555
K5 O2 2.990948 1_455
K5 O21 3.109663 1_565
K5 O16 3.153648 1_556
K5 O32 3.207507 1_555
K5 O28 3.228438 1_555
K5 O44 3.259954 1_566
K5 O43 3.282649 1_555
K5 O6 3.421078 1_465
K6 O48 2.624237 1_555
K6 O18 2.794250 1_555
K6 O13 2.836296 1_545
K6 O26 2.862413 1_555
K7 O49 2.624237 1_555
K7 O19 2.794250 1_555
K7 O12 2.836296 1_555
K7 O27 2.862413 1_555
K8 O50 2.624237 1_555
K8 O20 2.794250 1_555
K8 O15 2.836296 1_555
K8 O28 2.862413 1_555
K9 O51 2.624237 1_555
K9 O21 2.794250 1_555
K9 O14 2.836296 1_545
K9 O29 2.862413 1_555
K10 O52 2.584281 1_555
K10 O16 2.654860 1_555
K10 O32 2.921698 1_554
K10 O31 2.921698 1_555
K10 O14 3.021411 1_554
K10 O13 3.021411 1_555
K10 O1 3.192219 1_555
K10 O2 3.192219 1_554
K11 O53 2.584281 1_555
K11 O17 2.654860 1_555
K11 O33 2.921698 1_555
K11 O30 2.921698 1_555
K11 O12 3.021411 1_555
K11 O15 3.021411 1_555
K11 O3 3.192219 1_555
K11 O0 3.192219 1_555
K12 O36 2.737397 1_545
K12 O41 2.777301 1_455
K12 O0 2.821259 1_555
K12 O49 2.922873 1_545
K12 O53 3.026447 1_555
K12 O47 3.041050 1_455
K12 O18 3.197716 1_555
K12 O23 3.245805 1_445
K12 O30 3.298152 1_555
K13 O37 2.737397 1_555
K13 O40 2.777301 1_655
K13 O1 2.821259 1_555
K13 O48 2.922873 1_555
K13 O52 3.026447 1_555
K13 O46 3.041050 1_655
K13 O19 3.197716 1_555
K13 O22 3.245805 1_655
K13 O31 3.298152 1_555
K14 O38 2.737397 1_555
K14 O43 2.777301 1_655
K14 O2 2.821259 1_555
K14 O51 2.922873 1_555
K14 O52 3.026447 1_556
K14 O46 3.041050 1_656
K14 O20 3.197716 1_555
K14 O25 3.245805 1_655
K14 O32 3.298152 1_555
K15 O39 2.737397 1_545
K15 O42 2.777301 1_455
K15 O3 2.821259 1_555
K15 O50 2.922873 1_545
K15 O53 3.026447 1_555
K15 O47 3.041050 1_455
K15 O21 3.197716 1_555
K15 O24 3.245805 1_445
K15 O33 3.298152 1_555
K16 O4 2.684215 1_555
K16 O0 2.748473 1_555
K16 O26 2.823163 1_555
K16 O30 2.831981 1_555
K16 O37 3.012265 1_455
K16 O18 3.035232 1_555
K16 O12 3.202765 1_555
K17 O5 2.684215 1_565
K17 O1 2.748473 1_555
K17 O27 2.823163 1_555
K17 O31 2.831981 1_555
K17 O36 3.012265 1_655
K17 O19 3.035232 1_555
K17 O13 3.202765 1_555
K18 O6 2.684215 1_565
K18 O2 2.748473 1_555
K18 O28 2.823163 1_555
K18 O32 2.831981 1_555
K18 O39 3.012265 1_655
K18 O20 3.035232 1_555
K18 O14 3.202765 1_555
K19 O7 2.684215 1_555
K19 O3 2.748473 1_555
K19 O29 2.823163 1_555
K19 O33 2.831981 1_555
K19 O38 3.012265 1_455
K19 O21 3.035232 1_555
K19 O15 3.202765 1_555
Co0 O22 2.047962 1_555
Co0 O25 2.047962 1_554
Co0 O8 2.084353 1_555
Co0 O11 2.084353 1_554
Co0 O46 2.084762 1_555
Co0 O34 2.177961 1_555
Co1 O23 2.047962 1_555
Co1 O24 2.047962 1_555
Co1 O9 2.084353 1_555
Co1 O10 2.084353 1_555
Co1 O47 2.084762 1_565
Co1 O35 2.177961 1_555
Mo0 O16 1.781692 1_555
Mo0 O2 1.807553 1_454
Mo0 O1 1.807553 1_455
Mo0 O46 1.811126 1_555
Mo1 O17 1.781692 1_555
Mo1 O3 1.807553 1_655
Mo1 O0 1.807553 1_655
Mo1 O47 1.811126 1_555
Mo2 O40 1.759605 1_555
Mo2 O31 1.792554 1_555
Mo2 O26 1.795689 1_555
Mo2 O8 1.860271 1_555
Mo3 O41 1.759605 1_555
Mo3 O30 1.792554 1_555
Mo3 O27 1.795689 1_545
Mo3 O9 1.860271 1_545
Mo4 O42 1.759605 1_555
Mo4 O33 1.792554 1_555
Mo4 O28 1.795689 1_545
Mo4 O10 1.860271 1_545
Mo5 O43 1.759605 1_555
Mo5 O32 1.792554 1_555
Mo5 O29 1.795689 1_555
Mo5 O11 1.860271 1_555
Mo6 O52 1.771253 1_555
Mo6 O51 1.778303 1_554
Mo6 O48 1.778303 1_555
Mo6 O8 2.240354 1_555
Mo6 O11 2.240354 1_554
Mo6 O34 2.255144 1_555
Mo7 O53 1.771253 1_565
Mo7 O50 1.778303 1_555
Mo7 O49 1.778303 1_555
Mo7 O9 2.240354 1_555
Mo7 O10 2.240354 1_555
Mo7 O35 2.255144 1_555
Mo8 O18 1.796017 1_555
Mo8 O5 1.796868 1_455
Mo8 O37 1.797184 1_455
Mo8 O22 1.818181 1_555
Mo9 O19 1.796017 1_555
Mo9 O4 1.796868 1_655
Mo9 O36 1.797184 1_655
Mo9 O23 1.818181 1_555
Mo10 O20 1.796017 1_555
Mo10 O7 1.796868 1_655
Mo10 O39 1.797184 1_655
Mo10 O24 1.818181 1_555
Mo11 O21 1.796017 1_555
Mo11 O6 1.796868 1_455
Mo11 O38 1.797184 1_455
Mo11 O25 1.818181 1_555
Mo12 O44 1.759578 1_555
Mo12 O14 1.800261 1_544
Mo12 O13 1.800261 1_545
Mo12 O34 1.843889 1_555
Mo13 O45 1.759578 1_555
Mo13 O12 1.800261 1_555
Mo13 O15 1.800261 1_555
Mo13 O35 1.843889 1_555
