# generated using pymatgen
data_Na2Mg3(MoO4)4
_symmetry_space_group_name_H-M   'P 1'
_cell_length_a   9.90614900
_cell_length_b   10.43501086
_cell_length_c   12.46950427
_cell_angle_alpha   86.63083879
_cell_angle_beta   102.45485187
_cell_angle_gamma   116.09547548
_symmetry_Int_Tables_number   1
_chemical_formula_structural   Na2Mg3(MoO4)4
_chemical_formula_sum   'Na6 Mg9 Mo12 O48'
_cell_volume   1129.38601931
_cell_formula_units_Z   3
loop_
 _symmetry_equiv_pos_site_id
 _symmetry_equiv_pos_as_xyz
  1  'x, y, z'
loop_
 _atom_site_type_symbol
 _atom_site_label
 _atom_site_symmetry_multiplicity
 _atom_site_fract_x
 _atom_site_fract_y
 _atom_site_fract_z
 _atom_site_occupancy
  Na  Na0  1  0.75812400  0.55934300  0.21046100  1
  Na  Na1  1  0.01519200  0.51416700  0.50750500  1
  Na  Na2  1  0.47504400  0.48286000  0.98491100  1
  Na  Na3  1  0.54116300  0.80544100  0.24791100  1
  Na  Na4  1  0.04033100  0.80120900  0.74712500  1
  Na  Na5  1  0.96005000  0.19765800  0.25379400  1
  Mg  Mg0  1  0.91920300  0.60555100  0.95861500  1
  Mg  Mg1  1  0.41740400  0.60428100  0.46235200  1
  Mg  Mg2  1  0.08633400  0.39681400  0.03884600  1
  Mg  Mg3  1  0.58536000  0.39770700  0.54176500  1
  Mg  Mg4  1  0.62680600  0.98174800  0.82902600  1
  Mg  Mg5  1  0.12775000  0.98190100  0.32909800  1
  Mg  Mg6  1  0.37109500  0.01687000  0.17138100  1
  Mg  Mg7  1  0.86761800  0.01650800  0.66961700  1
  Mg  Mg8  1  0.47080100  0.19827700  0.74957500  1
  Mo  Mo0  1  0.35665400  0.33370800  0.26159600  1
  Mo  Mo1  1  0.85098100  0.33094800  0.76298500  1
  Mo  Mo2  1  0.64351600  0.66668100  0.73867100  1
  Mo  Mo3  1  0.14489500  0.66669500  0.23840100  1
  Mo  Mo4  1  0.68909200  0.26262300  0.02193800  1
  Mo  Mo5  1  0.19375100  0.25999400  0.53011900  1
  Mo  Mo6  1  0.31043100  0.73861000  0.97482200  1
  Mo  Mo7  1  0.80983100  0.73878500  0.47628900  1
  Mo  Mo8  1  0.82483600  0.86857900  0.08089300  1
  Mo  Mo9  1  0.32424800  0.87300100  0.58225500  1
  Mo  Mo10  1  0.18398800  0.13253100  0.91269000  1
  Mo  Mo11  1  0.67670100  0.13419900  0.41940500  1
  O  O0  1  0.65477700  0.75101900  0.12759600  1
  O  O1  1  0.14752300  0.75746200  0.61879500  1
  O  O2  1  0.35875600  0.22880100  0.85923700  1
  O  O3  1  0.85214700  0.24575200  0.37862300  1
  O  O4  1  0.45035300  0.00456800  0.69816900  1
  O  O5  1  0.96004100  0.98814300  0.19444600  1
  O  O6  1  0.54149800  0.01538400  0.30438000  1
  O  O7  1  0.03771800  0.01087600  0.80604500  1
  O  O8  1  0.77655500  0.96611800  0.96871500  1
  O  O9  1  0.27732900  0.96412200  0.46631300  1
  O  O10  1  0.22581700  0.03799100  0.02849000  1
  O  O11  1  0.71903200  0.03457500  0.53261600  1
  O  O12  1  0.89466500  0.74802100  0.04442100  1
  O  O13  1  0.39786700  0.75828400  0.54309400  1
  O  O14  1  0.12446700  0.25585600  0.95702200  1
  O  O15  1  0.60545500  0.24972300  0.46197000  1
  O  O16  1  0.49791600  0.42253400  0.18288100  1
  O  O17  1  0.98289600  0.42145500  0.68111900  1
  O  O18  1  0.50539200  0.57777400  0.81662600  1
  O  O19  1  0.99776500  0.58009500  0.31253100  1
  O  O20  1  0.42958300  0.41873000  0.40029200  1
  O  O21  1  0.92783800  0.42026800  0.90032000  1
  O  O22  1  0.56983400  0.57654200  0.60111800  1
  O  O23  1  0.06860900  0.57642300  0.10173000  1
  O  O24  1  0.31557800  0.14666100  0.25931300  1
  O  O25  1  0.81831400  0.14607700  0.76318900  1
  O  O26  1  0.68029700  0.85409100  0.73894100  1
  O  O27  1  0.18429200  0.85388000  0.23900200  1
  O  O28  1  0.55674800  0.17124500  0.10651400  1
  O  O29  1  0.05344600  0.17151900  0.60932600  1
  O  O30  1  0.44433800  0.82950100  0.88986000  1
  O  O31  1  0.93984100  0.82394700  0.38709700  1
  O  O32  1  0.61965600  0.16857400  0.88619100  1
  O  O33  1  0.13414400  0.16097100  0.40077900  1
  O  O34  1  0.37162300  0.83842200  0.10437100  1
  O  O35  1  0.87386700  0.84051800  0.60498800  1
  O  O36  1  0.71295900  0.44535600  0.01441600  1
  O  O37  1  0.21619400  0.43960000  0.50661500  1
  O  O38  1  0.28926100  0.55895000  0.99794300  1
  O  O39  1  0.78949400  0.55863100  0.49606700  1
  O  O40  1  0.67206100  0.34182500  0.69891900  1
  O  O41  1  0.18868100  0.35339300  0.19258800  1
  O  O42  1  0.31013500  0.64426900  0.30933400  1
  O  O43  1  0.81172600  0.64541700  0.80693900  1
  O  O44  1  0.86968000  0.26553900  0.08681600  1
  O  O45  1  0.37499200  0.26257400  0.60684100  1
  O  O46  1  0.12675600  0.72971800  0.90825300  1
  O  O47  1  0.62583600  0.72781500  0.40815700  1
loop_
_geom_bond_atom_site_label_1
_geom_bond_atom_site_label_2
_geom_bond_distance
_geom_bond_site_symmetry_2
Na0 O16 2.288813 1_555
Na0 O19 2.362032 1_555
Na0 O36 2.644389 1_555
Na0 O0 2.686738 1_555
Na0 O12 2.894589 1_555
Na1 O17 2.346339 1_455
Na1 O37 2.437997 1_555
Na1 O39 2.449837 1_455
Na1 O19 2.478067 1_455
Na1 O1 2.606006 1_555
Na1 O3 2.909672 1_455
Na2 O18 2.289240 1_555
Na2 O38 2.339571 1_555
Na2 O16 2.498620 1_556
Na2 O36 2.502721 1_556
Na2 O2 2.798950 1_555
Na2 O0 3.000263 1_556
Na3 O47 2.244325 1_555
Na3 O0 2.287086 1_555
Na3 O34 2.298308 1_555
Na3 O6 2.338622 1_565
Na3 O42 2.423098 1_555
Na4 O46 2.229365 1_555
Na4 O1 2.267566 1_555
Na4 O35 2.297341 1_455
Na4 O7 2.360980 1_565
Na4 O43 2.382187 1_455
Na5 O3 2.258029 1_555
Na5 O44 2.284500 1_555
Na5 O5 2.348936 1_545
Na5 O33 2.369600 1_655
Na5 O41 2.390572 1_655
Mg0 O12 2.007777 1_556
Mg0 O43 2.076610 1_555
Mg0 O46 2.101952 1_655
Mg0 O21 2.147411 1_555
Mg0 O23 2.158780 1_656
Mg0 O36 2.219152 1_556
Mg1 O13 2.044868 1_555
Mg1 O42 2.089476 1_555
Mg1 O47 2.130626 1_555
Mg1 O22 2.134617 1_555
Mg1 O37 2.140176 1_555
Mg1 O20 2.187299 1_555
Mg2 O14 2.044191 1_554
Mg2 O41 2.090956 1_555
Mg2 O38 2.124243 1_554
Mg2 O21 2.151124 1_454
Mg2 O23 2.163340 1_555
Mg2 O44 2.170604 1_455
Mg3 O15 1.987642 1_555
Mg3 O40 2.120890 1_555
Mg3 O22 2.125521 1_555
Mg3 O20 2.149322 1_555
Mg3 O39 2.151975 1_555
Mg3 O45 2.235940 1_555
Mg4 O30 2.071263 1_555
Mg4 O8 2.079937 1_555
Mg4 O26 2.090627 1_555
Mg4 O32 2.149510 1_565
Mg4 O25 2.204059 1_565
Mg4 O4 2.205643 1_565
Mg5 O9 2.066035 1_555
Mg5 O33 2.088627 1_565
Mg5 O31 2.108604 1_455
Mg5 O5 2.112497 1_455
Mg5 O27 2.113433 1_555
Mg5 O24 2.209850 1_565
Mg6 O34 2.087822 1_545
Mg6 O6 2.100613 1_555
Mg6 O10 2.102683 1_555
Mg6 O24 2.104505 1_555
Mg6 O28 2.124559 1_555
Mg6 O27 2.182593 1_545
Mg7 O11 2.059645 1_555
Mg7 O35 2.078787 1_545
Mg7 O29 2.098765 1_655
Mg7 O25 2.107176 1_555
Mg7 O7 2.139100 1_655
Mg7 O26 2.194538 1_545
Mg8 O45 2.051811 1_555
Mg8 O2 2.054302 1_555
Mg8 O4 2.067337 1_555
Mg8 O40 2.102944 1_555
Mg8 O32 2.104513 1_555
Mo0 O16 1.767829 1_555
Mo0 O41 1.792690 1_555
Mo0 O24 1.810770 1_555
Mo0 O20 1.837843 1_555
Mo1 O17 1.737253 1_555
Mo1 O25 1.810208 1_555
Mo1 O40 1.829777 1_555
Mo1 O21 1.839015 1_555
Mo2 O18 1.740331 1_555
Mo2 O43 1.800477 1_555
Mo2 O26 1.825001 1_555
Mo2 O22 1.845290 1_555
Mo3 O19 1.766239 1_455
Mo3 O42 1.790160 1_555
Mo3 O27 1.815899 1_555
Mo3 O23 1.835679 1_555
Mo4 O28 1.765969 1_555
Mo4 O44 1.785057 1_555
Mo4 O36 1.814551 1_555
Mo4 O32 1.844093 1_554
Mo5 O29 1.765137 1_555
Mo5 O37 1.801359 1_555
Mo5 O33 1.807171 1_555
Mo5 O45 1.832772 1_555
Mo6 O30 1.778434 1_555
Mo6 O46 1.793690 1_555
Mo6 O38 1.805125 1_555
Mo6 O34 1.811563 1_556
Mo7 O31 1.783300 1_555
Mo7 O47 1.793598 1_555
Mo7 O39 1.808099 1_555
Mo7 O35 1.809279 1_555
Mo8 O8 1.787093 1_554
Mo8 O0 1.789735 1_555
Mo8 O12 1.799018 1_555
Mo8 O5 1.809687 1_555
Mo9 O9 1.774168 1_555
Mo9 O1 1.774449 1_555
Mo9 O13 1.787070 1_555
Mo9 O4 1.865522 1_565
Mo10 O10 1.778786 1_556
Mo10 O14 1.789158 1_555
Mo10 O7 1.796817 1_555
Mo10 O2 1.827504 1_555
Mo11 O3 1.779351 1_555
Mo11 O11 1.790277 1_555
Mo11 O15 1.793966 1_555
Mo11 O6 1.818737 1_555
