# generated using pymatgen
data_Sr2Ca2NdMn5O15
_symmetry_space_group_name_H-M   'P 1'
_cell_length_a   5.48968100
_cell_length_b   9.37559817
_cell_length_c   12.01326658
_cell_angle_alpha   97.45301555
_cell_angle_beta   102.64957969
_cell_angle_gamma   104.61432929
_symmetry_Int_Tables_number   1
_chemical_formula_structural   Sr2Ca2NdMn5O15
_chemical_formula_sum   'Sr4 Ca4 Nd2 Mn10 O30'
_cell_volume   572.47208740
_cell_formula_units_Z   2
loop_
 _symmetry_equiv_pos_site_id
 _symmetry_equiv_pos_as_xyz
  1  'x, y, z'
loop_
 _atom_site_type_symbol
 _atom_site_label
 _atom_site_symmetry_multiplicity
 _atom_site_fract_x
 _atom_site_fract_y
 _atom_site_fract_z
 _atom_site_occupancy
  Sr  Sr0  1  0.14919800  0.35018100  0.95034100  1
  Sr  Sr1  1  0.54726000  0.94806400  0.14941600  1
  Sr  Sr2  1  0.94879000  0.55164600  0.34865300  1
  Sr  Sr3  1  0.35240600  0.15008400  0.55305200  1
  Ca  Ca0  1  0.45112200  0.04753700  0.84841500  1
  Ca  Ca1  1  0.84610000  0.65174100  0.04683500  1
  Ca  Ca2  1  0.65164500  0.84787200  0.44721100  1
  Ca  Ca3  1  0.05321500  0.45110100  0.65350600  1
  Nd  Nd0  1  0.75314300  0.74998400  0.74833100  1
  Nd  Nd1  1  0.24866500  0.24993400  0.25148000  1
  Mn  Mn0  1  0.50063600  0.50039000  0.50105000  1
  Mn  Mn1  1  0.70053600  0.30061200  0.09822600  1
  Mn  Mn2  1  0.09853300  0.89818200  0.30041000  1
  Mn  Mn3  1  0.90191900  0.10133200  0.70011000  1
  Mn  Mn4  1  0.29959000  0.69975800  0.90003900  1
  Mn  Mn5  1  0.59981900  0.39840600  0.80012400  1
  Mn  Mn6  1  0.79964200  0.19896400  0.40186800  1
  Mn  Mn7  1  0.20023500  0.80064000  0.59968500  1
  Mn  Mn8  1  0.99914200  0.99943800  0.99843100  1
  Mn  Mn9  1  0.40075600  0.60213700  0.20006700  1
  O  O0  1  0.15747900  0.34861100  0.44534300  1
  O  O1  1  0.34115300  0.15273500  0.05343100  1
  O  O2  1  0.74298200  0.75218600  0.25264800  1
  O  O3  1  0.54914700  0.94173300  0.65732000  1
  O  O4  1  0.95468800  0.55504600  0.84622300  1
  O  O5  1  0.25075800  0.25398900  0.75204900  1
  O  O6  1  0.45206200  0.05536300  0.34866300  1
  O  O7  1  0.84459400  0.65395600  0.55447500  1
  O  O8  1  0.65246500  0.84840300  0.94035300  1
  O  O9  1  0.05162300  0.43941600  0.15241000  1
  O  O10  1  0.43093700  0.58298000  0.36167400  1
  O  O11  1  0.63870600  0.38896600  0.96259400  1
  O  O12  1  0.03115500  0.98496700  0.16076800  1
  O  O13  1  0.83456700  0.18746200  0.56231500  1
  O  O14  1  0.21551900  0.78340900  0.76098900  1
  O  O15  1  0.99234000  0.01778200  0.83970000  1
  O  O16  1  0.19975100  0.82617100  0.44348400  1
  O  O17  1  0.59800400  0.42880800  0.64295400  1
  O  O18  1  0.39430600  0.62698700  0.04133100  1
  O  O19  1  0.78730100  0.22455200  0.24167700  1
  O  O20  1  0.74377900  0.23275000  0.77836800  1
  O  O21  1  0.95365000  0.03838800  0.37880000  1
  O  O22  1  0.35370300  0.63550700  0.58392500  1
  O  O23  1  0.14737900  0.83437200  0.97731600  1
  O  O24  1  0.54541700  0.43420800  0.17730600  1
  O  O25  1  0.02217500  0.95204700  0.61740600  1
  O  O26  1  0.21657600  0.74976000  0.21609300  1
  O  O27  1  0.63250200  0.35690500  0.41871900  1
  O  O28  1  0.44381700  0.56365700  0.81744600  1
  O  O29  1  0.81911200  0.15088200  0.01697300  1
loop_
_geom_bond_atom_site_label_1
_geom_bond_atom_site_label_2
_geom_bond_distance
_geom_bond_site_symmetry_2
Ca0 O29 2.414917 1_556
Ca0 O20 2.422399 1_555
Ca0 O15 2.440154 1_455
Ca0 O14 2.454046 1_545
Ca0 O3 2.600648 1_545
Ca0 O8 2.639865 1_545
Ca0 O5 2.719307 1_555
Ca0 O1 2.779323 1_556
Ca1 O11 2.413129 1_554
Ca1 O18 2.417308 1_555
Ca1 O26 2.424090 1_655
Ca1 O23 2.431398 1_654
Ca1 O8 2.677942 1_554
Ca1 O4 2.705636 1_554
Ca1 O2 2.756532 1_555
Ca1 O9 2.829482 1_655
Ca2 O16 2.427309 1_555
Ca2 O25 2.435110 1_655
Ca2 O10 2.442542 1_555
Ca2 O21 2.469377 1_565
Ca2 O2 2.591462 1_555
Ca2 O7 2.658872 1_555
Ca2 O6 2.737033 1_565
Ca2 O3 2.785272 1_555
Ca3 O17 2.428042 1_455
Ca3 O22 2.438986 1_555
Ca3 O13 2.444376 1_455
Ca3 O28 2.461639 1_555
Ca3 O4 2.613690 1_455
Ca3 O5 2.647515 1_555
Ca3 O7 2.726454 1_455
Ca3 O0 2.790267 1_555
Nd0 O14 2.445703 1_655
Nd0 O28 2.474178 1_555
Nd0 O15 2.494615 1_565
Nd0 O22 2.495348 1_555
Nd0 O3 2.582838 1_555
Nd0 O7 2.585023 1_555
Nd0 O8 2.596503 1_555
Nd0 O4 2.637353 1_555
Nd1 O12 2.452675 1_545
Nd1 O27 2.457446 1_555
Nd1 O19 2.458297 1_455
Nd1 O24 2.459198 1_555
Nd1 O9 2.587834 1_555
Nd1 O0 2.591473 1_555
Nd1 O6 2.635715 1_555
Nd1 O1 2.636095 1_555
Mn0 O17 1.928980 1_555
Mn0 O10 1.937716 1_555
Mn0 O27 1.942119 1_555
Mn0 O22 1.945970 1_555
Mn0 O0 1.967147 1_555
Mn0 O7 1.976833 1_555
Mn1 O11 1.925128 1_554
Mn1 O29 1.931614 1_555
Mn1 O24 1.944319 1_555
Mn1 O9 1.948601 1_655
Mn1 O19 1.958550 1_555
Mn1 O1 2.016254 1_555
Mn2 O26 1.938864 1_555
Mn2 O21 1.944705 1_465
Mn2 O16 1.947015 1_555
Mn2 O12 1.961446 1_555
Mn2 O2 1.992521 1_455
Mn2 O6 2.028963 1_565
Mn3 O20 1.937102 1_555
Mn3 O13 1.938667 1_555
Mn3 O25 1.942862 1_645
Mn3 O15 1.960747 1_555
Mn3 O5 1.991726 1_655
Mn3 O3 2.038590 1_545
Mn4 O18 1.926098 1_556
Mn4 O23 1.928953 1_555
Mn4 O28 1.940375 1_555
Mn4 O4 1.945184 1_455
Mn4 O14 1.950218 1_555
Mn4 O8 1.995262 1_555
Mn5 O20 1.926036 1_555
Mn5 O11 1.932556 1_555
Mn5 O17 1.944010 1_555
Mn5 O28 1.959875 1_555
Mn5 O5 1.960090 1_555
Mn5 O4 2.032582 1_555
Mn6 O13 1.914711 1_555
Mn6 O21 1.922183 1_555
Mn6 O27 1.940316 1_555
Mn6 O6 1.951481 1_555
Mn6 O19 1.958672 1_555
Mn6 O0 2.017405 1_655
Mn7 O16 1.921760 1_555
Mn7 O25 1.931018 1_555
Mn7 O22 1.947986 1_555
Mn7 O3 1.949626 1_555
Mn7 O14 1.950642 1_555
Mn7 O7 1.996221 1_455
Mn8 O15 1.929842 1_565
Mn8 O23 1.935380 1_655
Mn8 O29 1.940339 1_566
Mn8 O12 1.945027 1_656
Mn8 O1 1.968750 1_666
Mn8 O8 1.978925 1_555
Mn9 O26 1.922829 1_555
Mn9 O18 1.944684 1_555
Mn9 O10 1.947678 1_555
Mn9 O24 1.949009 1_555
Mn9 O2 1.955417 1_555
Mn9 O9 2.036174 1_555
O0 Sr3 2.703201 1_555
O0 Sr2 2.715987 1_455
O1 Sr0 2.660562 1_554
O1 Sr1 2.718509 1_545
O2 Sr1 2.658577 1_555
O2 Sr2 2.684318 1_555
O3 Sr3 2.767351 1_565
O4 Sr0 2.732609 1_655
O5 Sr0 2.660231 1_555
O5 Sr3 2.688825 1_555
O6 Sr1 2.683836 1_545
O6 Sr3 2.717472 1_555
O7 Sr2 2.764422 1_555
O8 Sr1 2.795212 1_556
O9 Sr0 2.673658 1_554
O9 Sr2 2.687535 1_455
O10 Sr2 2.555555 1_455
O10 Sr2 2.965946 1_555
O11 Sr0 2.587458 1_555
O11 Sr0 2.947640 1_655
O12 Sr1 2.561293 1_455
O12 Sr1 2.969389 1_555
O13 Sr3 2.556193 1_555
O13 Sr3 2.974506 1_655
O15 Sr0 3.047996 1_655
O16 Sr2 2.565746 1_455
O16 Sr3 2.975414 1_565
O17 Sr3 2.581707 1_555
O18 Sr0 2.568711 1_554
O18 Sr1 2.947172 1_555
O19 Sr1 2.564338 1_545
O19 Sr2 2.991457 1_555
O20 Sr0 2.567744 1_655
O20 Sr3 2.934597 1_555
O21 Sr3 2.556979 1_655
O21 Sr1 3.006091 1_545
O22 Sr2 3.055749 1_455
O23 Sr1 2.547427 1_556
O24 Sr2 2.557010 1_555
O24 Sr0 2.960849 1_554
O25 Sr3 2.572786 1_565
O26 Sr1 2.591110 1_555
O26 Sr2 2.926077 1_455
O27 Sr2 2.548713 1_555
O27 Sr3 3.020369 1_555
O28 Sr0 3.081705 1_555
O29 Sr0 2.594320 1_654
O29 Sr1 2.960979 1_545
