# generated using pymatgen
data_Ca13Al14
_symmetry_space_group_name_H-M   'P 1'
_cell_length_a   9.15599789
_cell_length_b   9.15599789
_cell_length_c   9.69125428
_cell_angle_alpha   74.67668966
_cell_angle_beta   74.67668966
_cell_angle_gamma   64.87478466
_symmetry_Int_Tables_number   1
_chemical_formula_structural   Ca13Al14
_chemical_formula_sum   'Ca13 Al14'
_cell_volume   698.57982551
_cell_formula_units_Z   1
loop_
 _symmetry_equiv_pos_site_id
 _symmetry_equiv_pos_as_xyz
  1  'x, y, z'
loop_
 _atom_site_type_symbol
 _atom_site_label
 _atom_site_symmetry_multiplicity
 _atom_site_fract_x
 _atom_site_fract_y
 _atom_site_fract_z
 _atom_site_occupancy
  Ca  Ca0  1  0.94385204  0.34910263  0.63371428  1
  Ca  Ca1  1  0.34910263  0.94385204  0.63371428  1
  Ca  Ca2  1  0.05614796  0.65089737  0.36628572  1
  Ca  Ca3  1  0.65089737  0.05614796  0.36628572  1
  Ca  Ca4  1  0.08049968  0.64392168  0.77307074  1
  Ca  Ca5  1  0.64392168  0.08049968  0.77307074  1
  Ca  Ca6  1  0.91950032  0.35607832  0.22692926  1
  Ca  Ca7  1  0.35607832  0.91950032  0.22692926  1
  Ca  Ca8  1  0.19564893  0.19564893  0.91608296  1
  Ca  Ca9  1  0.80435107  0.80435107  0.08391704  1
  Ca  Ca10  1  0.50364464  0.50364464  0.79723909  1
  Ca  Ca11  1  0.49635536  0.49635536  0.20276091  1
  Ca  Ca12  1  0.00000000  -0.00000000  0.50000000  1
  Al  Al0  1  0.79229856  0.52374448  0.91658251  1
  Al  Al1  1  0.52374448  0.79229856  0.91658251  1
  Al  Al2  1  0.20770144  0.47625552  0.08341749  1
  Al  Al3  1  0.47625552  0.20770144  0.08341749  1
  Al  Al4  1  0.00192030  0.00192030  0.84360420  1
  Al  Al5  1  0.99807970  0.99807970  0.15639580  1
  Al  Al6  1  0.25982996  0.25982996  0.34275339  1
  Al  Al7  1  0.74017004  0.74017004  0.65724661  1
  Al  Al8  1  0.34065028  0.34065028  0.56737012  1
  Al  Al9  1  0.65934972  0.65934972  0.43262988  1
  Al  Al10  1  0.64453889  0.35546111  0.50000000  1
  Al  Al11  1  0.35546111  0.64453889  0.50000000  1
  Al  Al12  1  0.77481174  0.22518826  0.00000000  1
  Al  Al13  1  0.22518826  0.77481174  0.00000000  1
loop_
_geom_bond_atom_site_label_1
_geom_bond_atom_site_label_2
_geom_bond_distance
_geom_bond_site_symmetry_2
Ca0 Ca12 3.549942 1_655
Ca0 Ca2 3.553699 1_655
Ca0 Ca8 3.650925 1_655
Ca0 Ca10 3.704729 1_555
Ca1 Ca12 3.549942 1_565
Ca1 Ca3 3.553699 1_565
Ca1 Ca8 3.650925 1_565
Ca1 Ca10 3.704729 1_555
Ca2 Ca9 3.650925 1_455
Ca3 Ca9 3.650925 1_545
Ca4 Ca9 3.575580 1_456
Ca4 Ca8 3.737575 1_555
Ca5 Ca9 3.575580 1_546
Ca5 Ca8 3.737575 1_555
Ca6 Ca8 3.575580 1_654
Ca6 Ca9 3.737575 1_555
Ca7 Ca8 3.575580 1_564
Ca7 Ca9 3.737575 1_555
Ca10 Ca4 3.579071 1_555
Ca10 Ca5 3.579071 1_555
Ca10 Ca11 3.896210 1_556
Ca11 Ca6 3.579071 1_555
Ca11 Ca7 3.579071 1_555
Ca11 Ca2 3.704729 1_555
Ca11 Ca3 3.704729 1_555
Ca12 Ca3 3.549942 1_455
Ca12 Ca2 3.549942 1_545
Ca12 Ca4 3.550508 1_545
Ca12 Ca7 3.550508 1_545
Ca12 Ca5 3.550508 1_455
Ca12 Ca6 3.550508 1_455
Al0 Al1 2.637777 1_555
Al0 Al12 2.699427 1_556
Al0 Al7 2.769428 1_555
Al0 Ca4 3.134536 1_655
Al0 Ca0 3.227912 1_555
Al0 Ca10 3.240014 1_555
Al0 Ca6 3.263713 1_556
Al0 Ca11 3.366680 1_556
Al0 Ca9 3.432266 1_556
Al0 Ca8 3.638712 1_655
Al1 Al13 2.699427 1_556
Al1 Al7 2.769428 1_555
Al1 Ca5 3.134536 1_565
Al1 Ca1 3.227912 1_555
Al1 Ca10 3.240014 1_555
Al1 Ca7 3.263713 1_556
Al1 Ca11 3.366680 1_556
Al1 Ca9 3.432266 1_556
Al1 Ca8 3.638712 1_565
Al2 Al3 2.637777 1_555
Al2 Al6 2.769428 1_555
Al2 Ca6 3.134536 1_455
Al2 Ca2 3.227912 1_555
Al2 Ca11 3.240014 1_555
Al2 Ca4 3.263713 1_554
Al2 Ca10 3.366680 1_554
Al2 Ca8 3.432266 1_554
Al2 Ca9 3.638712 1_455
Al3 Al6 2.769428 1_555
Al3 Ca7 3.134536 1_545
Al3 Ca3 3.227912 1_555
Al3 Ca11 3.240014 1_555
Al3 Ca5 3.263713 1_554
Al3 Ca10 3.366680 1_554
Al3 Ca8 3.432266 1_554
Al3 Ca9 3.638712 1_545
Al4 Al5 3.013285 1_446
Al4 Ca0 3.200610 1_455
Al4 Ca1 3.200610 1_545
Al4 Ca9 3.208423 1_446
Al4 Ca5 3.263543 1_455
Al4 Ca4 3.263543 1_545
Al4 Ca8 3.282498 1_555
Al4 Ca12 3.339367 1_555
Al5 Ca2 3.200610 1_655
Al5 Ca3 3.200610 1_565
Al5 Ca8 3.208423 1_664
Al5 Ca6 3.263543 1_565
Al5 Ca7 3.263543 1_655
Al5 Ca9 3.282498 1_555
Al5 Ca12 3.339367 1_665
Al6 Al8 2.828685 1_555
Al6 Ca7 3.277240 1_545
Al6 Ca6 3.277240 1_455
Al6 Ca2 3.299540 1_555
Al6 Ca3 3.299540 1_555
Al6 Ca0 3.447837 1_455
Al6 Ca1 3.447837 1_545
Al6 Ca11 3.478135 1_555
Al7 Al9 2.828685 1_555
Al7 Ca4 3.277240 1_655
Al7 Ca5 3.277240 1_565
Al7 Ca0 3.299540 1_555
Al7 Ca1 3.299540 1_555
Al7 Ca2 3.447837 1_655
Al7 Ca3 3.447837 1_565
Al7 Ca10 3.478135 1_555
Al8 Ca8 3.420539 1_555
Al8 Ca3 3.482222 1_555
Al8 Ca2 3.482222 1_555
Al8 Ca4 3.486743 1_555
Al8 Ca5 3.486743 1_555
Al8 Ca1 3.488784 1_545
Al8 Ca0 3.488784 1_455
Al8 Ca11 3.598835 1_555
Al9 Ca9 3.420539 1_555
Al9 Ca0 3.482222 1_555
Al9 Ca1 3.482222 1_555
Al9 Ca7 3.486743 1_555
Al9 Ca6 3.486743 1_555
Al9 Ca3 3.488784 1_565
Al9 Ca2 3.488784 1_655
Al9 Ca10 3.598835 1_555
Al10 Al8 2.738597 1_555
Al10 Al9 2.738597 1_555
Al10 Al11 2.839364 1_555
Al10 Ca5 3.134385 1_555
Al10 Ca6 3.134385 1_555
Al10 Ca11 3.227732 1_555
Al10 Ca10 3.227732 1_555
Al10 Ca3 3.300706 1_555
Al10 Ca0 3.300706 1_555
Al10 Ca12 3.491391 1_655
Al11 Al9 2.738597 1_555
Al11 Al8 2.738597 1_555
Al11 Ca4 3.134385 1_555
Al11 Ca7 3.134385 1_555
Al11 Ca11 3.227732 1_555
Al11 Ca10 3.227732 1_555
Al11 Ca2 3.300706 1_555
Al11 Ca1 3.300706 1_555
Al11 Ca12 3.491391 1_565
Al12 Al5 2.676223 1_545
Al12 Al4 2.676223 1_654
Al12 Al3 2.699427 1_555
Al12 Ca10 3.328816 1_554
Al12 Ca11 3.328816 1_555
Al12 Ca5 3.508409 1_554
Al12 Ca6 3.508409 1_555
Al12 Ca3 3.569639 1_555
Al12 Ca0 3.569639 1_554
Al12 Ca9 3.627205 1_545
Al12 Ca8 3.627205 1_654
Al13 Al5 2.676223 1_455
Al13 Al4 2.676223 1_564
Al13 Al2 2.699427 1_555
Al13 Ca10 3.328816 1_554
Al13 Ca11 3.328816 1_555
Al13 Ca4 3.508409 1_554
Al13 Ca7 3.508409 1_555
Al13 Ca2 3.569639 1_555
Al13 Ca1 3.569639 1_554
Al13 Ca9 3.627205 1_455
Al13 Ca8 3.627205 1_564
