# generated using pymatgen
data_LiPr2Pa2O8
_symmetry_space_group_name_H-M   'P 1'
_cell_length_a   7.92365177
_cell_length_b   10.41930385
_cell_length_c   6.80446433
_cell_angle_alpha   29.25708112
_cell_angle_beta   54.36538713
_cell_angle_gamma   40.76288694
_symmetry_Int_Tables_number   1
_chemical_formula_structural   LiPr2Pa2O8
_chemical_formula_sum   'Li1 Pr2 Pa2 O8'
_cell_volume   173.80001035
_cell_formula_units_Z   1
loop_
 _symmetry_equiv_pos_site_id
 _symmetry_equiv_pos_as_xyz
  1  'x, y, z'
loop_
 _atom_site_type_symbol
 _atom_site_label
 _atom_site_symmetry_multiplicity
 _atom_site_fract_x
 _atom_site_fract_y
 _atom_site_fract_z
 _atom_site_occupancy
  Li  Li0  1  0.25745200  0.00149000  0.48175000  1
  Pr  Pr0  1  0.98590000  0.99970500  0.02858600  1
  Pr  Pr1  1  0.74834600  0.50023200  0.00237300  1
  Pa  Pa0  1  0.51208300  0.99999100  0.97547900  1
  Pa  Pa1  1  0.24894400  0.50022200  0.00191700  1
  O  O0  1  0.36866500  0.01898100  0.73075400  1
  O  O1  1  0.14451300  0.46915100  0.79052700  1
  O  O2  1  0.36846500  0.49356700  0.25663100  1
  O  O3  1  0.88141600  0.98129300  0.76833800  1
  O  O4  1  0.14477300  0.98217300  0.27744500  1
  O  O5  1  0.59565000  0.53011000  0.72974900  1
  O  O6  1  0.88170200  0.50589200  0.24390800  1
  O  O7  1  0.59542400  0.01719300  0.24254300  1
loop_
_geom_bond_atom_site_label_1
_geom_bond_atom_site_label_2
_geom_bond_distance
_geom_bond_site_symmetry_2
Li0 O7 2.228813 1_555
Li0 O1 2.230602 1_554
Li0 O4 2.230916 1_545
Li0 O5 2.240812 1_545
Li0 O6 2.484866 1_455
Li0 O3 2.487631 1_445
Li0 O0 2.490455 1_555
Li0 O2 2.499139 1_546
O0 Pa0 2.322285 1_545
O0 Pa1 2.350244 1_555
O0 Pr1 2.469178 1_546
O0 Pr0 2.529110 1_446
O1 Pa1 2.337461 1_556
O1 Pa0 2.435513 1_545
O1 Pr1 2.457362 1_456
O1 Pr0 2.465309 1_455
O2 Pa0 2.323065 1_545
O2 Pa1 2.347145 1_555
O2 Pr1 2.469274 1_555
O2 Pr0 2.528613 1_455
O3 Pa0 2.323346 1_555
O3 Pa1 2.347698 1_656
O3 Pr1 2.471205 1_565
O3 Pr0 2.529780 1_556
O4 Pa1 2.338347 1_556
O4 Pa0 2.431392 1_554
O4 Pr1 2.458455 1_465
O4 Pr0 2.466037 1_455
O5 Pa1 2.331324 1_556
O5 Pa0 2.440144 1_554
O5 Pr1 2.457462 1_556
O5 Pr0 2.463690 1_546
O6 Pa0 2.324438 1_554
O6 Pa1 2.347017 1_655
O6 Pr1 2.471493 1_555
O6 Pr0 2.531945 1_546
O7 Pa1 2.340117 1_555
O7 Pa0 2.432375 1_544
O7 Pr1 2.456222 1_546
O7 Pr0 2.466925 1_545
