# generated using pymatgen
data_K2PtS6
_symmetry_space_group_name_H-M   'P 1'
_cell_length_a   7.00240778
_cell_length_b   7.30907980
_cell_length_c   8.30981856
_cell_angle_alpha   108.66501842
_cell_angle_beta   107.05573033
_cell_angle_gamma   101.64525634
_symmetry_Int_Tables_number   1
_chemical_formula_structural   K2PtS6
_chemical_formula_sum   'K2 Pt1 S6'
_cell_volume   364.10615879
_cell_formula_units_Z   1
loop_
 _symmetry_equiv_pos_site_id
 _symmetry_equiv_pos_as_xyz
  1  'x, y, z'
loop_
 _atom_site_type_symbol
 _atom_site_label
 _atom_site_symmetry_multiplicity
 _atom_site_fract_x
 _atom_site_fract_y
 _atom_site_fract_z
 _atom_site_occupancy
  K  K0  1  0.70478000  0.29498900  0.50353400  1
  K  K1  1  0.29508200  0.70492600  0.49649900  1
  Pt  Pt0  1  0.00003600  0.00001900  0.99998200  1
  S  S0  1  0.72765300  0.72413500  0.75102800  1
  S  S1  1  0.27228100  0.27587900  0.24896200  1
  S  S2  1  0.01265500  0.19532300  0.81943500  1
  S  S3  1  0.98745900  0.80467900  0.18055600  1
  S  S4  1  0.20761900  0.02130200  0.82048300  1
  S  S5  1  0.79243400  0.97874800  0.17952100  1
loop_
_geom_bond_atom_site_label_1
_geom_bond_atom_site_label_2
_geom_bond_distance
_geom_bond_site_symmetry_2
K0 S1 3.090073 1_555
K0 S0 3.093369 1_555
K0 S5 3.244635 1_545
K0 S2 3.256945 1_655
K1 S0 3.090056 1_555
K1 S1 3.093088 1_555
K1 S4 3.244184 1_565
K1 S3 3.256745 1_455
Pt0 S1 2.333393 1_556
Pt0 S0 2.333756 1_445
Pt0 S4 2.385595 1_555
Pt0 S5 2.385961 1_446
Pt0 S2 2.386243 1_555
Pt0 S3 2.386608 1_446
S2 S4 2.045200 1_555
S3 S5 2.045803 1_555
