# generated using pymatgen
data_SrCaSmBiO6
_symmetry_space_group_name_H-M   'P 1'
_cell_length_a   5.90883759
_cell_length_b   6.09579195
_cell_length_c   8.50361171
_cell_angle_alpha   89.96921887
_cell_angle_beta   89.70536647
_cell_angle_gamma   89.92511383
_symmetry_Int_Tables_number   1
_chemical_formula_structural   SrCaSmBiO6
_chemical_formula_sum   'Sr2 Ca2 Sm2 Bi2 O12'
_cell_volume   306.28761477
_cell_formula_units_Z   2
loop_
 _symmetry_equiv_pos_site_id
 _symmetry_equiv_pos_as_xyz
  1  'x, y, z'
loop_
 _atom_site_type_symbol
 _atom_site_label
 _atom_site_symmetry_multiplicity
 _atom_site_fract_x
 _atom_site_fract_y
 _atom_site_fract_z
 _atom_site_occupancy
  Sr  Sr0  1  0.51151367  0.55176000  0.25006747  1
  Sr  Sr1  1  0.48848633  0.44824000  0.74993253  1
  Ca  Ca0  1  0.98571634  0.04861770  0.24788140  1
  Ca  Ca1  1  0.01428366  0.95138230  0.75211860  1
  Sm  Sm0  1  0.50000000  -0.00000000  -0.00000000  1
  Sm  Sm1  1  0.00000000  0.50000000  0.50000000  1
  Bi  Bi0  1  0.00000000  0.50000000  -0.00000000  1
  Bi  Bi1  1  0.50000000  -0.00000000  0.50000000  1
  O  O0  1  0.18072016  0.20483152  0.93428383  1
  O  O1  1  0.31544489  0.70849490  0.55698725  1
  O  O2  1  0.81927984  0.79516848  0.06571617  1
  O  O3  1  0.68455511  0.29150510  0.44301275  1
  O  O4  1  0.29309559  0.69138810  0.94796363  1
  O  O5  1  0.20648421  0.18757779  0.56635265  1
  O  O6  1  0.70690441  0.30861190  0.05203637  1
  O  O7  1  0.79351579  0.81242221  0.43364735  1
  O  O8  1  0.37518858  0.96247723  0.26168899  1
  O  O9  1  0.10281420  0.43776005  0.23876709  1
  O  O10  1  0.62481142  0.03752277  0.73831101  1
  O  O11  1  0.89718580  0.56223995  0.76123291  1
loop_
_geom_bond_atom_site_label_1
_geom_bond_atom_site_label_2
_geom_bond_distance
_geom_bond_site_symmetry_2
Ca0 O8 2.363298 1_645
Ca0 O2 2.403313 1_545
Ca0 O7 2.416933 1_545
Ca0 O9 2.472912 1_655
Ca0 O6 2.831608 1_555
Ca0 O3 2.842103 1_555
Ca0 O0 3.051940 1_654
Ca1 O10 2.363298 1_465
Ca1 O0 2.403313 1_565
Ca1 O5 2.416933 1_565
Ca1 O11 2.472912 1_455
Ca1 O4 2.831608 1_555
Ca1 O1 2.842103 1_555
Ca1 O2 3.051940 1_456
Bi0 O6 2.133792 1_455
Bi0 O4 2.133792 1_554
Bi0 O9 2.155627 1_555
Bi0 O11 2.155627 1_454
Bi0 O0 2.163315 1_554
Bi0 O2 2.163315 1_455
Bi1 O3 2.140166 1_555
Bi1 O1 2.140166 1_545
Bi1 O5 2.149227 1_555
Bi1 O7 2.149227 1_545
Bi1 O10 2.172381 1_555
Bi1 O8 2.172381 1_545
O0 Sm0 2.331181 1_556
O0 Sr1 2.818053 1_555
O1 Sm1 2.310939 1_555
O1 Sr1 2.502903 1_555
O1 Sr0 3.005903 1_555
O2 Sm0 2.331181 1_565
O2 Sr0 2.818053 1_555
O3 Sm1 2.310939 1_655
O3 Sr0 2.502903 1_555
O3 Sr1 3.005903 1_555
O4 Sm0 2.289537 1_566
O4 Sr1 2.518691 1_555
O4 Sr0 3.003097 1_556
O5 Sm1 2.331048 1_555
O5 Sr1 2.788307 1_555
O6 Sm0 2.289537 1_555
O6 Sr0 2.518691 1_555
O6 Sr1 3.003097 1_554
O7 Sm1 2.331048 1_655
O7 Sr0 2.788307 1_555
O8 Sm0 2.351849 1_565
O8 Sr0 2.630790 1_555
O9 Sm1 2.331129 1_555
O9 Sr0 2.516132 1_555
O10 Sm0 2.351849 1_556
O10 Sr1 2.630790 1_555
O11 Sm1 2.331129 1_655
O11 Sr1 2.516132 1_555
