# generated using pymatgen
data_NaLi4(H2N)5
_symmetry_space_group_name_H-M   'P 1'
_cell_length_a   5.07744300
_cell_length_b   5.07744300
_cell_length_c   28.68239528
_cell_angle_alpha   84.92201910
_cell_angle_beta   84.92201910
_cell_angle_gamma   90.00000000
_symmetry_Int_Tables_number   1
_chemical_formula_structural   NaLi4(H2N)5
_chemical_formula_sum   'Na4 Li16 H40 N20'
_cell_volume   733.62851852
_cell_formula_units_Z   4
loop_
 _symmetry_equiv_pos_site_id
 _symmetry_equiv_pos_as_xyz
  1  'x, y, z'
loop_
 _atom_site_type_symbol
 _atom_site_label
 _atom_site_symmetry_multiplicity
 _atom_site_fract_x
 _atom_site_fract_y
 _atom_site_fract_z
 _atom_site_occupancy
  Na  Na0  1  0.95033300  0.45033300  0.09933400  1
  Na  Na1  1  0.34999600  0.84999600  0.30000800  1
  Na  Na2  1  0.75000400  0.25000400  0.49999200  1
  Na  Na3  1  0.14966700  0.64966700  0.70066600  1
  Li  Li0  1  0.90158900  0.40158900  0.19682200  1
  Li  Li1  1  0.30158500  0.80158500  0.39683000  1
  Li  Li2  1  0.70159000  0.20159000  0.59682100  1
  Li  Li3  1  0.10022600  0.60022600  0.79954700  1
  Li  Li4  1  0.50330000  0.00330000  0.99339900  1
  Li  Li5  1  0.99977400  0.49977400  0.00045300  1
  Li  Li6  1  0.39841000  0.89841000  0.20317900  1
  Li  Li7  1  0.79841500  0.29841500  0.40317000  1
  Li  Li8  1  0.19841100  0.69841100  0.60317800  1
  Li  Li9  1  0.59670000  0.09670000  0.80660100  1
  Li  Li10  1  0.00191400  0.00191400  0.99617200  1
  Li  Li11  1  0.39999500  0.39999500  0.20001000  1
  Li  Li12  1  0.80000000  0.80000000  0.40000000  1
  Li  Li13  1  0.20000500  0.20000500  0.59999000  1
  Li  Li14  1  0.59808600  0.59808600  0.80382800  1
  Li  Li15  1  0.55000000  0.05000000  0.90000000  1
  H  H0  1  0.08853400  0.84058400  0.15460900  1
  H  H1  1  0.48847900  0.24054900  0.35461100  1
  H  H2  1  0.88845500  0.64055800  0.55459600  1
  H  H3  1  0.29113300  0.03743400  0.75622800  1
  H  H4  1  0.68634300  0.43208900  0.95003300  1
  H  H5  1  0.75685600  0.00480700  0.15460900  1
  H  H6  1  0.15690900  0.40483900  0.35461100  1
  H  H7  1  0.55694800  0.80484600  0.55459600  1
  H  H8  1  0.95264000  0.20633900  0.75622800  1
  H  H9  1  0.36362400  0.61787700  0.95003300  1
  H  H10  1  0.56256600  0.64736000  0.04377200  1
  H  H11  1  0.95944200  0.04305200  0.24540400  1
  H  H12  1  0.35945100  0.44309100  0.44538900  1
  H  H13  1  0.75941600  0.84314400  0.64539100  1
  H  H14  1  0.16791100  0.23637600  0.84996700  1
  H  H15  1  0.39366100  0.30886700  0.04377200  1
  H  H16  1  0.79515400  0.71154500  0.24540400  1
  H  H17  1  0.19516100  0.11152100  0.44538900  1
  H  H18  1  0.59519300  0.51146600  0.64539100  1
  H  H19  1  0.98212300  0.91365700  0.84996700  1
  H  H20  1  0.32790000  0.67973500  0.13105300  1
  H  H21  1  0.72789300  0.07971500  0.33105800  1
  H  H22  1  0.12788100  0.47977500  0.53103900  1
  H  H23  1  0.52810700  0.87114200  0.73326300  1
  H  H24  1  0.92713300  0.27256600  0.92641600  1
  H  H25  1  0.54104700  0.18921200  0.13105300  1
  H  H26  1  0.94104900  0.58922700  0.33105800  1
  H  H27  1  0.34108100  0.98918600  0.53103900  1
  H  H28  1  0.73863000  0.39559500  0.73326300  1
  H  H29  1  0.14645100  0.80101800  0.92641600  1
  H  H30  1  0.72885800  0.86137000  0.06673700  1
  H  H31  1  0.12022500  0.25891900  0.26896100  1
  H  H32  1  0.52028500  0.65895000  0.46894200  1
  H  H33  1  0.92026500  0.05895300  0.66894700  1
  H  H34  1  0.32743400  0.45354900  0.87358400  1
  H  H35  1  0.20440500  0.07189300  0.06673700  1
  H  H36  1  0.61081400  0.47211900  0.26896100  1
  H  H37  1  0.01077300  0.87210800  0.46894200  1
  H  H38  1  0.41078800  0.27210000  0.66894700  1
  H  H39  1  0.79898200  0.67286700  0.87358400  1
  N  N0  1  0.18449700  0.66278300  0.15883700  1
  N  N1  1  0.58441000  0.06304100  0.35888600  1
  N  N2  1  0.98441200  0.46305200  0.55886800  1
  N  N3  1  0.38384000  0.85835000  0.76098900  1
  N  N4  1  0.77865500  0.25241400  0.95336800  1
  N  N5  1  0.65666600  0.17838000  0.15883700  1
  N  N6  1  0.05670400  0.57807300  0.35888600  1
  N  N7  1  0.45672000  0.97808000  0.55886800  1
  N  N8  1  0.85517200  0.38066200  0.76098900  1
  N  N9  1  0.26797600  0.79421800  0.95336800  1
  N  N10  1  0.74165000  0.74482800  0.03901100  1
  N  N11  1  0.13694800  0.14328000  0.24113200  1
  N  N12  1  0.53695900  0.54329600  0.44111400  1
  N  N13  1  0.93721700  0.94333400  0.64116300  1
  N  N14  1  0.34758600  0.33202400  0.84663200  1
  N  N15  1  0.21933800  0.21616000  0.03901100  1
  N  N16  1  0.62192000  0.61558800  0.24113200  1
  N  N17  1  0.02192700  0.01559000  0.44111400  1
  N  N18  1  0.42162000  0.41550300  0.64116300  1
  N  N19  1  0.80578200  0.82134500  0.84663200  1
loop_
_geom_bond_atom_site_label_1
_geom_bond_atom_site_label_2
_geom_bond_distance
_geom_bond_site_symmetry_2
Li0 N0 2.115745 1_655
Li0 N5 2.115745 1_555
Li0 N16 2.176523 1_555
Li0 N11 2.176523 1_655
Li1 N1 2.115782 1_565
Li1 N6 2.115782 1_555
Li1 N17 2.176081 1_565
Li1 N12 2.176081 1_555
Li2 N2 2.115893 1_555
Li2 N7 2.115900 1_545
Li2 N13 2.177724 1_545
Li2 N18 2.177724 1_555
Li3 N8 2.115639 1_455
Li3 N3 2.115651 1_555
Li4 N9 2.081253 1_545
Li4 N4 2.081256 1_555
Li4 N15 2.207900 1_556
Li4 N10 2.207900 1_546
Li5 N10 2.115645 1_555
Li5 N15 2.115645 1_655
Li6 N16 2.115896 1_555
Li6 N11 2.115897 1_565
Li6 N0 2.177721 1_555
Li6 N5 2.177727 1_565
Li7 N17 2.115782 1_655
Li7 N12 2.115782 1_555
Li7 N6 2.176081 1_655
Li7 N1 2.176081 1_555
Li8 N18 2.115745 1_555
Li8 N13 2.115745 1_455
Li8 N7 2.176523 1_555
Li8 N2 2.176523 1_455
Li9 N19 2.081253 1_545
Li9 N14 2.081256 1_555
Li9 N8 2.207900 1_555
Li9 N3 2.207900 1_545
Li10 N9 2.092838 1_545
Li10 N4 2.092841 1_455
Li10 N15 2.094895 1_556
Li10 N10 2.094901 1_446
Li11 N0 2.078938 1_555
Li11 N5 2.078938 1_555
Li11 N11 2.079179 1_555
Li11 N16 2.079179 1_555
Li12 N12 2.079024 1_555
Li12 N1 2.079025 1_565
Li12 N6 2.079025 1_655
Li12 N17 2.079025 1_665
Li13 N13 2.078938 1_445
Li13 N18 2.078938 1_555
Li13 N2 2.079179 1_455
Li13 N7 2.079179 1_545
Li14 N14 2.092838 1_555
Li14 N19 2.092841 1_555
Li14 N8 2.094898 1_555
Li14 N3 2.094898 1_555
Li15 N19 2.310917 1_545
Li15 N4 2.310917 1_555
Li15 N9 2.310920 1_545
Li15 N14 2.310920 1_555
H0 N0 1.028687 1_555
H0 Li6 2.227753 1_555
H1 N1 1.027430 1_555
H1 Li7 2.227802 1_555
H2 N2 1.027478 1_555
H2 Li8 2.228328 1_655
H3 N3 1.027825 1_545
H3 Li9 2.249219 1_555
H4 N4 1.026450 1_555
H5 N5 1.028685 1_555
H5 Li6 2.227754 1_545
H6 N6 1.027432 1_555
H6 Li7 2.227797 1_455
H7 N7 1.027476 1_555
H7 Li8 2.228325 1_555
H8 N8 1.027825 1_555
H8 Li9 2.249219 1_555
H9 N9 1.026457 1_555
H10 N10 1.027825 1_555
H10 Li4 2.249219 1_564
H11 N11 1.027476 1_655
H11 Li0 2.228325 1_555
H12 N12 1.027428 1_555
H12 Li1 2.227798 1_555
H13 N13 1.028685 1_555
H13 Li2 2.227753 1_565
H14 N14 1.026452 1_555
H15 N15 1.027825 1_555
H15 Li4 2.249219 1_554
H16 N16 1.027478 1_555
H16 Li0 2.228328 1_555
H17 N17 1.027435 1_555
H17 Li1 2.227801 1_545
H18 N18 1.028687 1_555
H18 Li2 2.227754 1_555
H19 N19 1.026454 1_555
H20 N0 1.028483 1_555
H20 Na0 2.521093 1_455
H21 N1 1.029612 1_555
H21 Na1 2.514277 1_545
H22 N2 1.029590 1_455
H22 Na2 2.514288 1_455
H23 N3 1.030020 1_555
H23 Na3 2.516952 1_555
H24 N4 1.029199 1_555
H25 N5 1.028483 1_555
H25 Na0 2.521093 1_555
H26 N6 1.029612 1_655
H26 Na1 2.514277 1_655
H27 N7 1.029587 1_555
H27 Na2 2.514284 1_565
H28 N8 1.030023 1_555
H28 Na3 2.516952 1_655
H29 N9 1.029196 1_555
H30 N10 1.030023 1_555
H30 Na0 2.516952 1_555
H31 N11 1.029587 1_555
H31 Na1 2.514284 1_545
H32 N12 1.029609 1_555
H32 Na2 2.514273 1_555
H33 N13 1.028483 1_545
H33 Na3 2.521093 1_645
H34 N14 1.029196 1_555
H35 N15 1.030020 1_555
H35 Na0 2.516952 1_455
H36 N16 1.029590 1_555
H36 Na1 2.514288 1_555
H37 N17 1.029609 1_565
H37 Na2 2.514273 1_465
H38 N18 1.028483 1_555
H38 Na3 2.521093 1_555
H39 N19 1.029199 1_555
N0 Na0 2.484977 1_455
N1 Na1 2.473434 1_545
N2 Na2 2.473381 1_555
N3 Na3 2.493742 1_555
N5 Na0 2.484977 1_555
N6 Na1 2.473434 1_555
N7 Na2 2.473381 1_565
N8 Na3 2.493737 1_655
N10 Na0 2.493740 1_555
N11 Na1 2.473381 1_545
N12 Na2 2.473434 1_555
N13 Na3 2.484977 1_655
N15 Na0 2.493740 1_455
N16 Na1 2.473381 1_555
N17 Na2 2.473434 1_455
N18 Na3 2.484977 1_555
