# generated using pymatgen
data_LaMnZnFeO6
_symmetry_space_group_name_H-M   'P 1'
_cell_length_a   5.47587400
_cell_length_b   5.33365406
_cell_length_c   7.66509891
_cell_angle_alpha   90.18062483
_cell_angle_beta   89.99989541
_cell_angle_gamma   89.99994721
_symmetry_Int_Tables_number   1
_chemical_formula_structural   LaMnZnFeO6
_chemical_formula_sum   'La2 Mn2 Zn2 Fe2 O12'
_cell_volume   223.86896746
_cell_formula_units_Z   2
loop_
 _symmetry_equiv_pos_site_id
 _symmetry_equiv_pos_as_xyz
  1  'x, y, z'
loop_
 _atom_site_type_symbol
 _atom_site_label
 _atom_site_symmetry_multiplicity
 _atom_site_fract_x
 _atom_site_fract_y
 _atom_site_fract_z
 _atom_site_occupancy
  La  La0  1  0.02941400  0.99165500  0.25015600  1
  La  La1  1  0.47058900  0.49165600  0.75015400  1
  Mn  Mn0  1  0.50413800  0.99994900  0.50017200  1
  Mn  Mn1  1  0.99584300  0.49991800  0.00017000  1
  Zn  Zn0  1  0.52911100  0.51943000  0.25064500  1
  Zn  Zn1  1  0.97088900  0.01943000  0.75064400  1
  Fe  Fe0  1  0.50419400  0.00119100  0.00130000  1
  Fe  Fe1  1  0.99581800  0.50118200  0.50129500  1
  O  O0  1  0.01701500  0.62991200  0.75546400  1
  O  O1  1  0.19718500  0.20210100  0.94294400  1
  O  O2  1  0.20565600  0.19128600  0.55702200  1
  O  O3  1  0.29434400  0.69128500  0.05702100  1
  O  O4  1  0.30281600  0.70210200  0.44294500  1
  O  O5  1  0.48298600  0.12991200  0.25546500  1
  O  O6  1  0.53567000  0.92444200  0.74439400  1
  O  O7  1  0.72814600  0.26482600  0.55111300  1
  O  O8  1  0.73470700  0.27522700  0.94679100  1
  O  O9  1  0.76529300  0.77522700  0.44679200  1
  O  O10  1  0.77185700  0.76482700  0.05111300  1
  O  O11  1  0.96433000  0.42444300  0.24439400  1
loop_
_geom_bond_atom_site_label_1
_geom_bond_atom_site_label_2
_geom_bond_distance
_geom_bond_site_symmetry_2
La0 O11 2.336246 1_465
La0 O9 2.388936 1_455
La0 O10 2.401841 1_455
La0 O5 2.591145 1_565
La0 O4 2.612389 1_555
La0 O3 2.616838 1_555
La0 O2 2.753537 1_565
La0 O1 2.768695 1_564
La1 O6 2.336234 1_555
La1 O8 2.388935 1_555
La1 O7 2.401832 1_555
La1 O0 2.591153 1_555
La1 O1 2.612405 1_555
La1 O2 2.616839 1_555
La1 O3 2.753541 1_556
La1 O4 2.768681 1_555
Mn0 O9 1.909445 1_555
Mn0 O7 1.910375 1_565
Mn0 O6 1.923821 1_555
Mn0 O2 1.974836 1_565
Mn0 O4 1.981674 1_555
Mn0 O5 2.005087 1_565
Mn1 O8 1.909265 1_554
Mn1 O10 1.910425 1_555
Mn1 O11 1.923790 1_555
Mn1 O3 1.975009 1_655
Mn1 O1 1.981603 1_654
Mn1 O0 2.005143 1_654
Fe0 O10 1.971393 1_545
Fe0 O8 1.976875 1_554
Fe0 O6 2.017419 1_544
Fe0 O1 2.043927 1_554
Fe0 O3 2.059008 1_545
Fe0 O5 2.066855 1_555
Fe1 O7 1.971410 1_555
Fe1 O9 1.976942 1_555
Fe1 O11 2.017378 1_555
Fe1 O4 2.043895 1_655
Fe1 O2 2.058937 1_655
Fe1 O0 2.066897 1_655
O0 Zn1 2.093293 1_465
O1 Zn1 2.156022 1_455
O2 Zn1 2.168885 1_455
O3 Zn0 2.168896 1_555
O4 Zn0 2.156017 1_555
O5 Zn0 2.093293 1_555
O6 Zn1 2.436901 1_565
O7 Zn1 2.414897 1_555
O8 Zn1 2.404488 1_555
O9 Zn0 2.404492 1_555
O10 Zn0 2.414912 1_555
O11 Zn0 2.436899 1_555
