# generated using pymatgen
data_Gd2SCl4
_symmetry_space_group_name_H-M   'P 1'
_cell_length_a   6.74167868
_cell_length_b   7.56686034
_cell_length_c   9.48756931
_cell_angle_alpha   80.56655586
_cell_angle_beta   110.80124218
_cell_angle_gamma   89.96822099
_symmetry_Int_Tables_number   1
_chemical_formula_structural   Gd2SCl4
_chemical_formula_sum   'Gd4 S2 Cl8'
_cell_volume   445.41941842
_cell_formula_units_Z   2
loop_
 _symmetry_equiv_pos_site_id
 _symmetry_equiv_pos_as_xyz
  1  'x, y, z'
loop_
 _atom_site_type_symbol
 _atom_site_label
 _atom_site_symmetry_multiplicity
 _atom_site_fract_x
 _atom_site_fract_y
 _atom_site_fract_z
 _atom_site_occupancy
  Gd  Gd0  1  0.61700200  0.31854700  0.72232400  1
  Gd  Gd1  1  0.89374000  0.18178600  0.27802300  1
  Gd  Gd2  1  0.10626000  0.81821400  0.72197700  1
  Gd  Gd3  1  0.38299800  0.68145300  0.27767600  1
  S  S0  1  0.85520100  0.24923300  0.00026000  1
  S  S1  1  0.14479900  0.75076700  0.99974000  1
  Cl  Cl0  1  0.71334700  0.65352700  0.60167000  1
  Cl  Cl1  1  0.28716000  0.49680200  0.73981300  1
  Cl  Cl2  1  0.45216500  0.99810000  0.73950800  1
  Cl  Cl3  1  0.11209800  0.84684900  0.39949500  1
  Cl  Cl4  1  0.54783500  0.00190000  0.26049200  1
  Cl  Cl5  1  0.71284000  0.50319800  0.26018700  1
  Cl  Cl6  1  0.88790200  0.15315100  0.60050500  1
  Cl  Cl7  1  0.28665300  0.34647300  0.39833000  1
loop_
_geom_bond_atom_site_label_1
_geom_bond_atom_site_label_2
_geom_bond_distance
_geom_bond_site_symmetry_2
Gd0 S0 2.519008 1_556
Gd1 S0 2.519012 1_555
Gd2 S1 2.519012 1_555
Gd3 S1 2.519008 1_554
Cl0 Gd0 2.781361 1_555
Cl0 Gd2 2.862669 1_655
Cl0 Gd3 3.062321 1_555
Cl1 Gd0 2.669039 1_555
Cl1 Gd2 2.673241 1_555
Cl2 Gd2 2.668489 1_555
Cl2 Gd0 2.672667 1_565
Cl3 Gd1 2.784237 1_465
Cl3 Gd3 2.865030 1_555
Cl3 Gd2 3.045930 1_555
Cl4 Gd1 2.668489 1_555
Cl4 Gd3 2.672667 1_545
Cl5 Gd3 2.669039 1_555
Cl5 Gd1 2.673241 1_555
Cl6 Gd2 2.784237 1_645
Cl6 Gd0 2.865030 1_555
Cl6 Gd1 3.045930 1_555
Cl7 Gd3 2.781361 1_555
Cl7 Gd1 2.862669 1_455
Cl7 Gd0 3.062321 1_555
