# generated using pymatgen
data_Y2(CoCu)5
_symmetry_space_group_name_H-M   'P 1'
_cell_length_a   4.05092500
_cell_length_b   4.99119300
_cell_length_c   8.55218400
_cell_angle_alpha   90.00000000
_cell_angle_beta   90.00000000
_cell_angle_gamma   90.00000000
_symmetry_Int_Tables_number   1
_chemical_formula_structural   Y2(CoCu)5
_chemical_formula_sum   'Y2 Co5 Cu5'
_cell_volume   172.91616789
_cell_formula_units_Z   1
loop_
 _symmetry_equiv_pos_site_id
 _symmetry_equiv_pos_as_xyz
  1  'x, y, z'
loop_
 _atom_site_type_symbol
 _atom_site_label
 _atom_site_symmetry_multiplicity
 _atom_site_fract_x
 _atom_site_fract_y
 _atom_site_fract_z
 _atom_site_occupancy
  Y  Y0  1  0.00000000  0.50000000  0.00000000  1
  Y  Y1  1  0.00000000  0.00000000  0.50000000  1
  Co  Co0  1  0.00000000  0.50000000  0.34563300  1
  Co  Co1  1  0.00000000  0.00000000  0.83580000  1
  Co  Co2  1  0.00000000  0.00000000  0.16420000  1
  Co  Co3  1  0.00000000  0.50000000  0.65436700  1
  Co  Co4  1  0.50000000  0.50000000  0.50000000  1
  Cu  Cu0  1  0.50000000  0.00000000  0.00000000  1
  Cu  Cu1  1  0.50000000  0.75025700  0.25143100  1
  Cu  Cu2  1  0.50000000  0.24974300  0.74856900  1
  Cu  Cu3  1  0.50000000  0.24974300  0.25143100  1
  Cu  Cu4  1  0.50000000  0.75025700  0.74856900  1
loop_
_geom_bond_atom_site_label_1
_geom_bond_atom_site_label_2
_geom_bond_distance
_geom_bond_site_symmetry_2
Co0 Co4 2.417718 1_455
Co0 Co4 2.417718 1_555
Co0 Cu1 2.512319 1_555
Co0 Cu3 2.512319 1_555
Co0 Cu1 2.512319 1_455
Co0 Cu3 2.512319 1_455
Co0 Co3 2.640350 1_555
Co0 Y1 2.823272 1_565
Co0 Y1 2.823272 1_555
Co0 Co2 2.938642 1_565
Co0 Co2 2.938642 1_555
Co0 Y0 2.955917 1_555
Co1 Cu0 2.464644 1_556
Co1 Cu0 2.464644 1_456
Co1 Cu2 2.492557 1_555
Co1 Cu2 2.492557 1_455
Co1 Cu4 2.492557 1_445
Co1 Cu4 2.492557 1_545
Co1 Y0 2.863559 1_556
Co1 Y0 2.863559 1_546
Co1 Y1 2.871823 1_555
Co1 Co3 2.938642 1_555
Co1 Co3 2.938642 1_545
Co2 Cu0 2.464644 1_555
Co2 Cu0 2.464644 1_455
Co2 Cu3 2.492557 1_555
Co2 Cu3 2.492557 1_455
Co2 Cu1 2.492557 1_545
Co2 Cu1 2.492557 1_445
Co2 Y0 2.863559 1_555
Co2 Y0 2.863559 1_545
Co2 Y1 2.871823 1_555
Co3 Co4 2.417718 1_555
Co3 Co4 2.417718 1_455
Co3 Cu4 2.512319 1_555
Co3 Cu2 2.512319 1_455
Co3 Cu4 2.512319 1_455
Co3 Cu2 2.512319 1_555
Co3 Y1 2.823272 1_565
Co3 Y1 2.823272 1_555
Co3 Y0 2.955917 1_556
Co4 Cu4 2.465616 1_555
Co4 Cu2 2.465616 1_555
Co4 Cu3 2.465616 1_555
Co4 Cu1 2.465616 1_555
Co4 Y1 3.214110 1_565
Co4 Y1 3.214110 1_655
Co4 Y1 3.214110 1_665
Co4 Y1 3.214110 1_555
Cu0 Cu3 2.485462 1_555
Cu0 Cu1 2.485462 1_545
Cu0 Cu4 2.485462 1_544
Cu0 Cu2 2.485462 1_554
Cu0 Y0 3.214110 1_555
Cu0 Y0 3.214110 1_645
Cu0 Y0 3.214110 1_545
Cu0 Y0 3.214110 1_655
Cu1 Cu3 2.493031 1_565
Cu1 Cu3 2.498162 1_555
Cu1 Y1 3.189884 1_565
Cu1 Y1 3.189884 1_665
Cu1 Y0 3.207245 1_655
Cu1 Y0 3.207245 1_555
Cu2 Cu4 2.493031 1_545
Cu2 Cu4 2.498162 1_555
Cu2 Y1 3.189884 1_555
Cu2 Y1 3.189884 1_655
Cu2 Y0 3.207245 1_656
Cu2 Y0 3.207245 1_556
Cu3 Y1 3.189884 1_555
Cu3 Y1 3.189884 1_655
Cu3 Y0 3.207245 1_555
Cu3 Y0 3.207245 1_655
Cu4 Y1 3.189884 1_565
Cu4 Y1 3.189884 1_665
Cu4 Y0 3.207245 1_656
Cu4 Y0 3.207245 1_556
