# generated using pymatgen
data_Tm11Cd45
_symmetry_space_group_name_H-M   'P 1'
_cell_length_a   15.38242355
_cell_length_b   15.38242355
_cell_length_c   15.38242355
_cell_angle_alpha   60.00000000
_cell_angle_beta   60.00000000
_cell_angle_gamma   60.00000000
_symmetry_Int_Tables_number   1
_chemical_formula_structural   Tm11Cd45
_chemical_formula_sum   'Tm22 Cd90'
_cell_volume   2573.70814996
_cell_formula_units_Z   2
loop_
 _symmetry_equiv_pos_site_id
 _symmetry_equiv_pos_as_xyz
  1  'x, y, z'
loop_
 _atom_site_type_symbol
 _atom_site_label
 _atom_site_symmetry_multiplicity
 _atom_site_fract_x
 _atom_site_fract_y
 _atom_site_fract_z
 _atom_site_occupancy
  Tm  Tm0  1  0.00000000  0.00000000  0.00000000  1
  Tm  Tm1  1  0.01370400  0.33379100  0.63880200  1
  Tm  Tm2  1  0.01370400  0.01370400  0.63880200  1
  Tm  Tm3  1  0.33379100  0.01370400  0.63880200  1
  Tm  Tm4  1  0.01370400  0.63880200  0.33379100  1
  Tm  Tm5  1  0.33379100  0.63880200  0.01370400  1
  Tm  Tm6  1  0.01370400  0.63880200  0.01370400  1
  Tm  Tm7  1  0.63880200  0.01370400  0.01370400  1
  Tm  Tm8  1  0.63880200  0.33379100  0.01370400  1
  Tm  Tm9  1  0.63880200  0.01370400  0.33379100  1
  Tm  Tm10  1  0.33379100  0.01370400  0.01370400  1
  Tm  Tm11  1  0.01370400  0.01370400  0.33379100  1
  Tm  Tm12  1  0.01370400  0.33379100  0.01370400  1
  Tm  Tm13  1  0.25000000  0.25000000  0.25000000  1
  Tm  Tm14  1  0.40644000  0.40644000  0.78068100  1
  Tm  Tm15  1  0.40644000  0.78068100  0.40644000  1
  Tm  Tm16  1  0.78068100  0.40644000  0.40644000  1
  Tm  Tm17  1  0.40644000  0.40644000  0.40644000  1
  Tm  Tm18  1  0.66166400  0.66166400  0.01500800  1
  Tm  Tm19  1  0.66166400  0.01500800  0.66166400  1
  Tm  Tm20  1  0.01500800  0.66166400  0.66166400  1
  Tm  Tm21  1  0.66166400  0.66166400  0.66166400  1
  Cd  Cd0  1  0.08342800  0.08342800  0.74971700  1
  Cd  Cd1  1  0.08342800  0.74971700  0.08342800  1
  Cd  Cd2  1  0.74971700  0.08342800  0.08342800  1
  Cd  Cd3  1  0.08342800  0.08342800  0.08342800  1
  Cd  Cd4  1  0.91345700  0.91345700  0.25963000  1
  Cd  Cd5  1  0.91345700  0.25963000  0.91345700  1
  Cd  Cd6  1  0.25963000  0.91345700  0.91345700  1
  Cd  Cd7  1  0.91345700  0.91345700  0.91345700  1
  Cd  Cd8  1  0.15598600  0.15598600  0.84401400  1
  Cd  Cd9  1  0.84401400  0.15598600  0.84401400  1
  Cd  Cd10  1  0.15598600  0.84401400  0.84401400  1
  Cd  Cd11  1  0.84401400  0.84401400  0.15598600  1
  Cd  Cd12  1  0.15598600  0.84401400  0.15598600  1
  Cd  Cd13  1  0.84401400  0.15598600  0.15598600  1
  Cd  Cd14  1  0.39084700  0.20089500  0.01741100  1
  Cd  Cd15  1  0.39084700  0.39084700  0.01741100  1
  Cd  Cd16  1  0.20089500  0.39084700  0.01741100  1
  Cd  Cd17  1  0.39084700  0.01741100  0.20089500  1
  Cd  Cd18  1  0.20089500  0.01741100  0.39084700  1
  Cd  Cd19  1  0.39084700  0.01741100  0.39084700  1
  Cd  Cd20  1  0.01741100  0.39084700  0.39084700  1
  Cd  Cd21  1  0.01741100  0.20089500  0.39084700  1
  Cd  Cd22  1  0.01741100  0.39084700  0.20089500  1
  Cd  Cd23  1  0.20089500  0.39084700  0.39084700  1
  Cd  Cd24  1  0.39084700  0.39084700  0.20089500  1
  Cd  Cd25  1  0.39084700  0.20089500  0.39084700  1
  Cd  Cd26  1  0.16322700  0.16322700  0.51032000  1
  Cd  Cd27  1  0.16322700  0.51032000  0.16322700  1
  Cd  Cd28  1  0.51032000  0.16322700  0.16322700  1
  Cd  Cd29  1  0.16322700  0.16322700  0.16322700  1
  Cd  Cd30  1  0.26313900  0.61050400  0.86321800  1
  Cd  Cd31  1  0.26313900  0.26313900  0.86321800  1
  Cd  Cd32  1  0.61050400  0.26313900  0.86321800  1
  Cd  Cd33  1  0.26313900  0.86321800  0.61050400  1
  Cd  Cd34  1  0.61050400  0.86321800  0.26313900  1
  Cd  Cd35  1  0.26313900  0.86321800  0.26313900  1
  Cd  Cd36  1  0.86321800  0.26313900  0.26313900  1
  Cd  Cd37  1  0.86321800  0.61050400  0.26313900  1
  Cd  Cd38  1  0.86321800  0.26313900  0.61050400  1
  Cd  Cd39  1  0.61050400  0.26313900  0.26313900  1
  Cd  Cd40  1  0.26313900  0.26313900  0.61050400  1
  Cd  Cd41  1  0.26313900  0.61050400  0.26313900  1
  Cd  Cd42  1  0.50000000  0.50000000  0.50000000  1
  Cd  Cd43  1  0.64052900  0.45005200  0.26889000  1
  Cd  Cd44  1  0.64052900  0.64052900  0.26889000  1
  Cd  Cd45  1  0.45005200  0.64052900  0.26889000  1
  Cd  Cd46  1  0.64052900  0.26889000  0.45005200  1
  Cd  Cd47  1  0.45005200  0.26889000  0.64052900  1
  Cd  Cd48  1  0.64052900  0.26889000  0.64052900  1
  Cd  Cd49  1  0.26889000  0.64052900  0.64052900  1
  Cd  Cd50  1  0.26889000  0.45005200  0.64052900  1
  Cd  Cd51  1  0.26889000  0.64052900  0.45005200  1
  Cd  Cd52  1  0.45005200  0.64052900  0.64052900  1
  Cd  Cd53  1  0.64052900  0.64052900  0.45005200  1
  Cd  Cd54  1  0.64052900  0.45005200  0.64052900  1
  Cd  Cd55  1  0.51279000  0.83326100  0.14115900  1
  Cd  Cd56  1  0.51279000  0.51279000  0.14115900  1
  Cd  Cd57  1  0.83326100  0.51279000  0.14115900  1
  Cd  Cd58  1  0.51279000  0.14115900  0.83326100  1
  Cd  Cd59  1  0.83326100  0.14115900  0.51279000  1
  Cd  Cd60  1  0.51279000  0.14115900  0.51279000  1
  Cd  Cd61  1  0.14115900  0.51279000  0.51279000  1
  Cd  Cd62  1  0.14115900  0.83326100  0.51279000  1
  Cd  Cd63  1  0.14115900  0.51279000  0.83326100  1
  Cd  Cd64  1  0.83326100  0.51279000  0.51279000  1
  Cd  Cd65  1  0.51279000  0.51279000  0.83326100  1
  Cd  Cd66  1  0.51279000  0.83326100  0.51279000  1
  Cd  Cd67  1  0.75000000  0.75000000  0.75000000  1
  Cd  Cd68  1  0.83010500  0.83010500  0.50968500  1
  Cd  Cd69  1  0.83010500  0.50968500  0.83010500  1
  Cd  Cd70  1  0.50968500  0.83010500  0.83010500  1
  Cd  Cd71  1  0.83010500  0.83010500  0.83010500  1
  Cd  Cd72  1  0.91119300  0.91119300  0.58880700  1
  Cd  Cd73  1  0.58880700  0.91119300  0.58880700  1
  Cd  Cd74  1  0.91119300  0.58880700  0.58880700  1
  Cd  Cd75  1  0.58880700  0.58880700  0.91119300  1
  Cd  Cd76  1  0.91119300  0.58880700  0.91119300  1
  Cd  Cd77  1  0.58880700  0.91119300  0.91119300  1
  Cd  Cd78  1  0.76420300  0.06661000  0.40498400  1
  Cd  Cd79  1  0.76420300  0.76420300  0.40498400  1
  Cd  Cd80  1  0.06661000  0.76420300  0.40498400  1
  Cd  Cd81  1  0.76420300  0.40498400  0.06661000  1
  Cd  Cd82  1  0.06661000  0.40498400  0.76420300  1
  Cd  Cd83  1  0.76420300  0.40498400  0.76420300  1
  Cd  Cd84  1  0.40498400  0.76420300  0.76420300  1
  Cd  Cd85  1  0.40498400  0.06661000  0.76420300  1
  Cd  Cd86  1  0.40498400  0.76420300  0.06661000  1
  Cd  Cd87  1  0.06661000  0.76420300  0.76420300  1
  Cd  Cd88  1  0.76420300  0.76420300  0.06661000  1
  Cd  Cd89  1  0.76420300  0.06661000  0.76420300  1
loop_
_geom_bond_atom_site_label_1
_geom_bond_atom_site_label_2
_geom_bond_distance
_geom_bond_site_symmetry_2
Cd0 Cd26 3.006754 1_555
Cd0 Cd8 3.013146 1_555
Cd0 Cd9 3.013158 1_455
Cd0 Cd10 3.013158 1_545
Cd0 Tm0 3.143478 1_556
Cd0 Tm3 3.165691 1_555
Cd0 Tm2 3.165691 1_555
Cd0 Tm1 3.165691 1_555
Cd1 Cd27 3.006754 1_555
Cd1 Cd12 3.013146 1_555
Cd1 Cd10 3.013158 1_554
Cd1 Cd11 3.013158 1_455
Cd1 Tm0 3.143478 1_565
Cd1 Tm5 3.165691 1_555
Cd1 Tm6 3.165691 1_555
Cd1 Tm4 3.165691 1_555
Cd2 Cd28 3.006754 1_555
Cd2 Cd9 3.013158 1_554
Cd2 Tm0 3.143478 1_655
Cd2 Tm8 3.165691 1_555
Cd2 Tm9 3.165691 1_555
Cd2 Tm7 3.165691 1_555
Cd3 Cd8 3.013159 1_554
Cd3 Tm0 3.143491 1_555
Cd3 Tm10 3.165691 1_555
Cd3 Tm12 3.165691 1_555
Cd3 Tm11 3.165691 1_555
Cd4 Cd68 3.140615 1_555
Cd4 Cd80 3.247419 1_655
Cd4 Cd78 3.247419 1_565
Cd4 Cd79 3.247430 1_555
Cd4 Tm0 3.260874 1_665
Cd4 Tm11 3.457354 1_665
Cd4 Tm4 3.457354 1_655
Cd4 Tm9 3.457354 1_565
Cd5 Cd8 3.061197 1_655
Cd5 Cd9 3.061209 1_555
Cd5 Cd69 3.140615 1_555
Cd5 Cd82 3.247419 1_655
Cd5 Cd81 3.247419 1_556
Cd5 Cd83 3.247430 1_555
Cd5 Tm0 3.260874 1_656
Cd5 Tm12 3.457354 1_656
Cd5 Tm1 3.457354 1_655
Cd5 Tm8 3.457354 1_556
Cd6 Cd8 3.061197 1_565
Cd6 Cd70 3.140615 1_555
Cd6 Cd86 3.247419 1_556
Cd6 Cd85 3.247419 1_565
Cd6 Cd84 3.247430 1_555
Cd6 Tm0 3.260874 1_566
Cd6 Tm10 3.457354 1_566
Cd6 Tm5 3.457354 1_556
Cd6 Tm3 3.457354 1_565
Cd7 Cd9 3.061196 1_565
Cd7 Cd71 3.140627 1_555
Cd7 Cd89 3.247430 1_565
Cd7 Cd87 3.247430 1_655
Cd7 Cd88 3.247430 1_556
Cd7 Tm0 3.260861 1_666
Cd7 Tm2 3.457354 1_665
Cd7 Tm7 3.457354 1_566
Cd7 Tm6 3.457354 1_656
Cd8 Cd85 3.128493 1_555
Cd8 Cd82 3.128493 1_555
Cd8 Tm0 3.393324 1_556
Cd8 Tm3 3.811073 1_555
Cd8 Tm1 3.811073 1_555
Cd8 Tm10 3.811084 1_556
Cd8 Tm12 3.811084 1_556
Cd9 Tm0 3.393324 1_656
Cd9 Tm2 3.811073 1_655
Cd9 Tm7 3.811073 1_556
Cd9 Tm1 3.811082 1_655
Cd9 Tm8 3.811082 1_556
Cd10 Cd30 3.035043 1_555
Cd10 Cd33 3.035043 1_555
Cd10 Cd7 3.061196 1_455
Cd10 Cd6 3.061209 1_555
Cd10 Cd87 3.128493 1_555
Cd10 Cd84 3.128493 1_555
Cd10 Tm0 3.393324 1_566
Cd10 Tm2 3.811073 1_565
Cd10 Tm6 3.811073 1_556
Cd10 Tm5 3.811082 1_556
Cd10 Tm3 3.811082 1_565
Cd11 Cd2 3.013158 1_565
Cd11 Cd37 3.035043 1_555
Cd11 Cd34 3.035043 1_555
Cd11 Cd7 3.061196 1_554
Cd11 Cd4 3.061209 1_555
Cd11 Cd88 3.128493 1_555
Cd11 Cd79 3.128493 1_555
Cd11 Tm0 3.393324 1_665
Cd11 Tm7 3.811073 1_565
Cd11 Tm6 3.811073 1_655
Cd11 Tm9 3.811082 1_565
Cd11 Tm4 3.811082 1_655
Cd12 Cd3 3.013159 1_565
Cd12 Cd41 3.035043 1_555
Cd12 Cd35 3.035043 1_555
Cd12 Cd6 3.061197 1_554
Cd12 Cd4 3.061197 1_455
Cd12 Cd86 3.128493 1_555
Cd12 Cd80 3.128493 1_555
Cd12 Tm0 3.393324 1_565
Cd12 Tm4 3.811073 1_555
Cd12 Tm5 3.811073 1_555
Cd12 Tm10 3.811084 1_565
Cd12 Tm11 3.811084 1_565
Cd13 Cd2 3.013146 1_555
Cd13 Cd3 3.013159 1_655
Cd13 Cd39 3.035043 1_555
Cd13 Cd36 3.035043 1_555
Cd13 Cd5 3.061197 1_554
Cd13 Cd4 3.061197 1_545
Cd13 Cd81 3.128493 1_555
Cd13 Cd78 3.128493 1_555
Cd13 Tm0 3.393324 1_655
Cd13 Tm9 3.811073 1_555
Cd13 Tm8 3.811073 1_555
Cd13 Tm12 3.811084 1_655
Cd13 Tm11 3.811084 1_655
Cd14 Cd58 2.820060 1_554
Cd14 Cd17 2.822429 1_555
Cd14 Cd16 2.921922 1_555
Cd14 Cd15 2.921922 1_555
Cd14 Cd29 3.240650 1_555
Cd14 Cd28 3.240663 1_555
Cd14 Cd32 3.302896 1_554
Cd14 Cd31 3.302896 1_554
Cd14 Tm13 3.373361 1_555
Cd14 Tm14 3.418501 1_554
Cd14 Tm10 3.436015 1_555
Cd14 Tm7 3.436025 1_555
Cd15 Cd65 2.820060 1_554
Cd15 Cd24 2.822429 1_555
Cd15 Cd16 2.921922 1_555
Cd15 Cd27 3.240656 1_555
Cd15 Cd28 3.240656 1_555
Cd15 Cd32 3.302896 1_554
Cd15 Cd30 3.302896 1_554
Cd15 Tm13 3.373361 1_555
Cd15 Tm14 3.418494 1_554
Cd15 Tm5 3.436029 1_555
Cd15 Tm8 3.436029 1_555
Cd16 Cd63 2.820060 1_554
Cd16 Cd22 2.822429 1_555
Cd16 Cd29 3.240650 1_555
Cd16 Cd27 3.240663 1_555
Cd16 Cd30 3.302896 1_554
Cd16 Cd31 3.302896 1_554
Cd16 Tm13 3.373361 1_555
Cd16 Tm14 3.418501 1_554
Cd16 Tm12 3.436015 1_555
Cd16 Tm6 3.436025 1_555
Cd17 Cd55 2.820060 1_545
Cd17 Cd18 2.921922 1_555
Cd17 Cd19 2.921922 1_555
Cd17 Cd29 3.240650 1_555
Cd17 Cd28 3.240663 1_555
Cd17 Cd34 3.302896 1_545
Cd17 Cd35 3.302896 1_545
Cd17 Tm13 3.373361 1_555
Cd17 Tm15 3.418501 1_545
Cd17 Tm10 3.436015 1_555
Cd17 Tm7 3.436025 1_555
Cd18 Cd62 2.820060 1_545
Cd18 Cd21 2.822429 1_555
Cd18 Cd19 2.921922 1_555
Cd18 Cd29 3.240650 1_555
Cd18 Cd26 3.240663 1_555
Cd18 Cd33 3.302896 1_545
Cd18 Cd35 3.302896 1_545
Cd18 Tm13 3.373361 1_555
Cd18 Tm15 3.418501 1_545
Cd18 Tm11 3.436015 1_555
Cd18 Tm2 3.436025 1_555
Cd19 Cd66 2.820060 1_545
Cd19 Cd25 2.822429 1_555
Cd19 Cd26 3.240656 1_555
Cd19 Cd28 3.240656 1_555
Cd19 Cd34 3.302896 1_545
Cd19 Cd33 3.302896 1_545
Cd19 Tm13 3.373361 1_555
Cd19 Tm15 3.418494 1_545
Cd19 Tm9 3.436029 1_555
Cd19 Tm3 3.436029 1_555
Cd20 Cd64 2.820060 1_455
Cd20 Cd23 2.822429 1_555
Cd20 Cd21 2.921922 1_555
Cd20 Cd22 2.921922 1_555
Cd20 Cd26 3.240656 1_555
Cd20 Cd27 3.240656 1_555
Cd20 Cd37 3.302896 1_455
Cd20 Cd38 3.302896 1_455
Cd20 Tm13 3.373361 1_555
Cd20 Tm16 3.418494 1_455
Cd20 Tm1 3.436029 1_555
Cd20 Tm4 3.436029 1_555
Cd21 Cd59 2.820060 1_455
Cd21 Cd22 2.921922 1_555
Cd21 Cd29 3.240650 1_555
Cd21 Cd26 3.240663 1_555
Cd21 Cd38 3.302896 1_455
Cd21 Cd36 3.302896 1_455
Cd21 Tm13 3.373361 1_555
Cd21 Tm16 3.418501 1_455
Cd21 Tm11 3.436015 1_555
Cd21 Tm2 3.436025 1_555
Cd22 Cd57 2.820060 1_455
Cd22 Cd29 3.240650 1_555
Cd22 Cd27 3.240663 1_555
Cd22 Cd37 3.302896 1_455
Cd22 Cd36 3.302896 1_455
Cd22 Tm13 3.373361 1_555
Cd22 Tm16 3.418501 1_455
Cd22 Tm12 3.436015 1_555
Cd22 Tm6 3.436025 1_555
Cd23 Cd61 2.820060 1_555
Cd23 Cd25 2.921922 1_555
Cd23 Cd24 2.921922 1_555
Cd23 Cd27 3.240649 1_555
Cd23 Cd26 3.240649 1_555
Cd23 Cd40 3.302896 1_555
Cd23 Cd41 3.302896 1_555
Cd23 Tm13 3.373361 1_555
Cd23 Tm17 3.418510 1_555
Cd23 Tm1 3.436023 1_555
Cd23 Tm4 3.436023 1_555
Cd24 Cd56 2.820060 1_555
Cd24 Cd25 2.921922 1_555
Cd24 Cd27 3.240649 1_555
Cd24 Cd28 3.240649 1_555
Cd24 Cd41 3.302896 1_555
Cd24 Cd39 3.302896 1_555
Cd24 Tm13 3.373361 1_555
Cd24 Tm17 3.418510 1_555
Cd24 Tm5 3.436023 1_555
Cd24 Tm8 3.436023 1_555
Cd25 Cd60 2.820060 1_555
Cd25 Cd28 3.240649 1_555
Cd25 Cd26 3.240649 1_555
Cd25 Cd40 3.302896 1_555
Cd25 Cd39 3.302896 1_555
Cd25 Tm13 3.373361 1_555
Cd25 Tm17 3.418510 1_555
Cd25 Tm9 3.436023 1_555
Cd25 Tm3 3.436023 1_555
Cd26 Tm2 3.268791 1_555
Cd26 Tm1 3.268791 1_555
Cd26 Tm3 3.268791 1_555
Cd26 Tm13 3.269540 1_555
Cd27 Tm6 3.268791 1_555
Cd27 Tm4 3.268791 1_555
Cd27 Tm5 3.268791 1_555
Cd27 Tm13 3.269540 1_555
Cd28 Tm7 3.268791 1_555
Cd28 Tm9 3.268791 1_555
Cd28 Tm8 3.268791 1_555
Cd28 Tm13 3.269540 1_555
Cd29 Cd3 3.006754 1_555
Cd29 Tm10 3.268791 1_555
Cd29 Tm11 3.268791 1_555
Cd29 Tm12 3.268791 1_555
Cd29 Tm13 3.269528 1_555
Cd30 Cd49 3.179764 1_555
Cd30 Cd52 3.179764 1_555
Cd30 Cd63 3.220225 1_555
Cd30 Cd65 3.220225 1_555
Cd30 Tm14 3.254474 1_555
Cd30 Tm6 3.274979 1_556
Cd30 Tm5 3.274991 1_556
Cd30 Cd87 3.302227 1_555
Cd30 Cd84 3.302227 1_555
Cd31 Cd8 3.035043 1_555
Cd31 Cd47 3.179764 1_555
Cd31 Cd50 3.179764 1_555
Cd31 Cd63 3.220225 1_555
Cd31 Cd58 3.220225 1_555
Cd31 Tm14 3.254487 1_555
Cd31 Tm10 3.274980 1_556
Cd31 Tm12 3.274980 1_556
Cd31 Cd85 3.302227 1_555
Cd31 Cd82 3.302227 1_555
Cd32 Cd9 3.035043 1_555
Cd32 Cd48 3.179764 1_555
Cd32 Cd54 3.179764 1_555
Cd32 Cd58 3.220225 1_555
Cd32 Cd65 3.220225 1_555
Cd32 Tm14 3.254474 1_555
Cd32 Tm7 3.274979 1_556
Cd32 Tm8 3.274991 1_556
Cd32 Cd89 3.302227 1_555
Cd32 Cd83 3.302227 1_555
Cd33 Cd49 3.179764 1_555
Cd33 Cd52 3.179764 1_555
Cd33 Cd62 3.220225 1_555
Cd33 Cd66 3.220225 1_555
Cd33 Tm15 3.254474 1_555
Cd33 Tm2 3.274979 1_565
Cd33 Tm3 3.274991 1_565
Cd33 Cd87 3.302227 1_555
Cd33 Cd84 3.302227 1_555
Cd34 Cd44 3.179764 1_555
Cd34 Cd53 3.179764 1_555
Cd34 Cd55 3.220225 1_555
Cd34 Cd66 3.220225 1_555
Cd34 Tm15 3.254474 1_555
Cd34 Tm7 3.274979 1_565
Cd34 Tm9 3.274991 1_565
Cd34 Cd88 3.302227 1_555
Cd34 Cd79 3.302227 1_555
Cd35 Cd51 3.179764 1_555
Cd35 Cd45 3.179764 1_555
Cd35 Cd62 3.220225 1_555
Cd35 Cd55 3.220225 1_555
Cd35 Tm15 3.254487 1_555
Cd35 Tm11 3.274980 1_565
Cd35 Tm10 3.274980 1_565
Cd35 Cd86 3.302227 1_555
Cd35 Cd80 3.302227 1_555
Cd36 Cd46 3.179764 1_555
Cd36 Cd43 3.179764 1_555
Cd36 Cd57 3.220225 1_555
Cd36 Cd59 3.220225 1_555
Cd36 Tm16 3.254487 1_555
Cd36 Tm11 3.274980 1_655
Cd36 Tm12 3.274980 1_655
Cd36 Cd78 3.302227 1_555
Cd36 Cd81 3.302227 1_555
Cd37 Cd44 3.179764 1_555
Cd37 Cd53 3.179764 1_555
Cd37 Cd57 3.220225 1_555
Cd37 Cd64 3.220225 1_555
Cd37 Tm16 3.254474 1_555
Cd37 Tm6 3.274979 1_655
Cd37 Tm4 3.274991 1_655
Cd37 Cd88 3.302227 1_555
Cd37 Cd79 3.302227 1_555
Cd38 Cd9 3.035043 1_555
Cd38 Cd48 3.179764 1_555
Cd38 Cd54 3.179764 1_555
Cd38 Cd59 3.220225 1_555
Cd38 Cd64 3.220225 1_555
Cd38 Tm16 3.254474 1_555
Cd38 Tm2 3.274979 1_655
Cd38 Tm1 3.274991 1_655
Cd38 Cd89 3.302227 1_555
Cd38 Cd83 3.302227 1_555
Cd39 Cd46 3.179764 1_555
Cd39 Cd43 3.179764 1_555
Cd39 Cd56 3.220225 1_555
Cd39 Cd60 3.220225 1_555
Cd39 Tm17 3.254482 1_555
Cd39 Tm9 3.274976 1_555
Cd39 Tm8 3.274976 1_555
Cd39 Cd81 3.302227 1_555
Cd39 Cd78 3.302227 1_555
Cd40 Cd8 3.035043 1_555
Cd40 Cd50 3.179764 1_555
Cd40 Cd47 3.179764 1_555
Cd40 Cd61 3.220225 1_555
Cd40 Cd60 3.220225 1_555
Cd40 Tm17 3.254482 1_555
Cd40 Tm1 3.274976 1_555
Cd40 Tm3 3.274976 1_555
Cd40 Cd82 3.302227 1_555
Cd40 Cd85 3.302227 1_555
Cd41 Cd51 3.179764 1_555
Cd41 Cd45 3.179764 1_555
Cd41 Cd56 3.220225 1_555
Cd41 Cd61 3.220225 1_555
Cd41 Tm17 3.254482 1_555
Cd41 Tm4 3.274976 1_555
Cd41 Tm5 3.274976 1_555
Cd41 Cd80 3.302227 1_555
Cd41 Cd86 3.302227 1_555
Cd42 Cd54 3.359632 1_555
Cd42 Cd52 3.359632 1_555
Cd42 Cd53 3.359632 1_555
Cd42 Cd48 3.359632 1_555
Cd42 Cd49 3.359632 1_555
Cd42 Cd44 3.359632 1_555
Cd42 Cd46 3.359632 1_555
Cd42 Cd51 3.359632 1_555
Cd42 Cd43 3.359632 1_555
Cd42 Cd50 3.359632 1_555
Cd42 Cd47 3.359632 1_555
Cd42 Cd45 3.359632 1_555
Cd42 Tm17 3.525256 1_555
Cd42 Tm15 3.525268 1_555
Cd42 Tm16 3.525268 1_555
Cd42 Tm14 3.525268 1_555
Cd43 Cd46 2.786711 1_555
Cd43 Cd45 2.929998 1_555
Cd43 Cd44 2.929998 1_555
Cd43 Cd81 2.949634 1_555
Cd43 Cd56 2.953148 1_555
Cd43 Cd57 2.953148 1_555
Cd43 Tm17 3.357141 1_555
Cd43 Tm16 3.357154 1_555
Cd43 Tm18 3.609614 1_555
Cd44 Cd53 2.786711 1_555
Cd44 Cd45 2.929998 1_555
Cd44 Cd88 2.949634 1_555
Cd44 Cd55 2.953148 1_555
Cd44 Cd57 2.953148 1_555
Cd44 Tm15 3.357147 1_555
Cd44 Tm16 3.357147 1_555
Cd44 Tm18 3.609614 1_555
Cd45 Cd51 2.786711 1_555
Cd45 Cd86 2.949634 1_555
Cd45 Cd56 2.953148 1_555
Cd45 Cd55 2.953148 1_555
Cd45 Tm17 3.357141 1_555
Cd45 Tm15 3.357154 1_555
Cd45 Tm18 3.609614 1_555
Cd46 Cd48 2.929998 1_555
Cd46 Cd47 2.929998 1_555
Cd46 Cd78 2.949634 1_555
Cd46 Cd60 2.953148 1_555
Cd46 Cd59 2.953148 1_555
Cd46 Tm17 3.357141 1_555
Cd46 Tm16 3.357154 1_555
Cd46 Tm19 3.609614 1_555
Cd47 Cd50 2.786711 1_555
Cd47 Cd48 2.929998 1_555
Cd47 Cd85 2.949634 1_555
Cd47 Cd60 2.953148 1_555
Cd47 Cd58 2.953148 1_555
Cd47 Tm17 3.357141 1_555
Cd47 Tm14 3.357154 1_555
Cd47 Tm19 3.609614 1_555
Cd48 Cd54 2.786711 1_555
Cd48 Cd89 2.949634 1_555
Cd48 Cd59 2.953148 1_555
Cd48 Cd58 2.953148 1_555
Cd48 Tm16 3.357147 1_555
Cd48 Tm14 3.357147 1_555
Cd48 Tm19 3.609614 1_555
Cd49 Cd52 2.786711 1_555
Cd49 Cd51 2.929998 1_555
Cd49 Cd50 2.929998 1_555
Cd49 Cd87 2.949634 1_555
Cd49 Cd63 2.953148 1_555
Cd49 Cd62 2.953148 1_555
Cd49 Tm15 3.357147 1_555
Cd49 Tm14 3.357147 1_555
Cd49 Tm20 3.609614 1_555
Cd50 Cd51 2.929998 1_555
Cd50 Cd82 2.949634 1_555
Cd50 Cd61 2.953148 1_555
Cd50 Cd63 2.953148 1_555
Cd50 Tm17 3.357141 1_555
Cd50 Tm14 3.357154 1_555
Cd50 Tm20 3.609614 1_555
Cd51 Cd80 2.949634 1_555
Cd51 Cd61 2.953148 1_555
Cd51 Cd62 2.953148 1_555
Cd51 Tm17 3.357141 1_555
Cd51 Tm15 3.357154 1_555
Cd51 Tm20 3.609614 1_555
Cd52 Cd54 2.929998 1_555
Cd52 Cd53 2.929998 1_555
Cd52 Cd84 2.949634 1_555
Cd52 Cd65 2.953148 1_555
Cd52 Cd66 2.953148 1_555
Cd52 Tm15 3.357141 1_555
Cd52 Tm14 3.357141 1_555
Cd52 Tm21 3.609614 1_555
Cd53 Cd54 2.929998 1_555
Cd53 Cd79 2.949634 1_555
Cd53 Cd66 2.953148 1_555
Cd53 Cd64 2.953148 1_555
Cd53 Tm16 3.357141 1_555
Cd53 Tm15 3.357141 1_555
Cd53 Tm21 3.609614 1_555
Cd54 Cd83 2.949634 1_555
Cd54 Cd64 2.953148 1_555
Cd54 Cd65 2.953148 1_555
Cd54 Tm16 3.357141 1_555
Cd54 Tm14 3.357141 1_555
Cd54 Tm21 3.609614 1_555
Cd55 Cd77 2.888353 1_554
Cd55 Cd88 3.174099 1_555
Cd55 Cd86 3.174099 1_555
Cd55 Tm18 3.257417 1_555
Cd55 Tm15 3.365896 1_555
Cd55 Tm10 3.382802 1_565
Cd55 Tm7 3.382813 1_565
Cd56 Cd75 2.888353 1_554
Cd56 Cd86 3.174099 1_555
Cd56 Cd81 3.174099 1_555
Cd56 Tm18 3.257417 1_555
Cd56 Tm17 3.365895 1_555
Cd56 Tm5 3.382800 1_555
Cd56 Tm8 3.382800 1_555
Cd57 Cd76 2.888353 1_554
Cd57 Cd88 3.174099 1_555
Cd57 Cd81 3.174099 1_555
Cd57 Tm18 3.257417 1_555
Cd57 Tm16 3.365896 1_555
Cd57 Tm12 3.382802 1_655
Cd57 Tm6 3.382813 1_655
Cd58 Cd77 2.888353 1_545
Cd58 Cd89 3.174099 1_555
Cd58 Cd85 3.174099 1_555
Cd58 Tm19 3.257417 1_555
Cd58 Tm14 3.365896 1_555
Cd58 Tm10 3.382802 1_556
Cd58 Tm7 3.382813 1_556
Cd59 Cd72 2.888353 1_545
Cd59 Cd89 3.174099 1_555
Cd59 Cd78 3.174099 1_555
Cd59 Tm19 3.257417 1_555
Cd59 Tm16 3.365896 1_555
Cd59 Tm11 3.382802 1_655
Cd59 Tm2 3.382813 1_655
Cd60 Cd73 2.888353 1_545
Cd60 Cd85 3.174099 1_555
Cd60 Cd78 3.174099 1_555
Cd60 Tm19 3.257417 1_555
Cd60 Tm17 3.365895 1_555
Cd60 Tm3 3.382800 1_555
Cd60 Tm9 3.382800 1_555
Cd61 Cd74 2.888353 1_455
Cd61 Cd82 3.174099 1_555
Cd61 Cd80 3.174099 1_555
Cd61 Tm20 3.257417 1_555
Cd61 Tm17 3.365895 1_555
Cd61 Tm1 3.382800 1_555
Cd61 Tm4 3.382800 1_555
Cd62 Cd72 2.888353 1_455
Cd62 Cd87 3.174099 1_555
Cd62 Cd80 3.174099 1_555
Cd62 Tm20 3.257417 1_555
Cd62 Tm15 3.365896 1_555
Cd62 Tm11 3.382802 1_565
Cd62 Tm2 3.382813 1_565
Cd63 Cd76 2.888353 1_455
Cd63 Cd87 3.174099 1_555
Cd63 Cd82 3.174099 1_555
Cd63 Tm20 3.257417 1_555
Cd63 Tm14 3.365896 1_555
Cd63 Tm12 3.382802 1_556
Cd63 Tm6 3.382813 1_556
Cd64 Cd74 2.888353 1_555
Cd64 Cd83 3.174099 1_555
Cd64 Cd79 3.174099 1_555
Cd64 Tm21 3.257417 1_555
Cd64 Tm16 3.365883 1_555
Cd64 Tm1 3.382811 1_655
Cd64 Tm4 3.382811 1_655
Cd65 Cd75 2.888353 1_555
Cd65 Cd84 3.174099 1_555
Cd65 Cd83 3.174099 1_555
Cd65 Tm21 3.257417 1_555
Cd65 Tm14 3.365883 1_555
Cd65 Tm8 3.382811 1_556
Cd65 Tm5 3.382811 1_556
Cd66 Cd73 2.888353 1_555
Cd66 Cd84 3.174099 1_555
Cd66 Cd79 3.174099 1_555
Cd66 Tm21 3.257417 1_555
Cd66 Tm15 3.365883 1_555
Cd66 Tm3 3.382811 1_565
Cd66 Tm9 3.382811 1_565
Cd67 Cd71 3.018283 1_555
Cd67 Cd68 3.018283 1_555
Cd67 Cd69 3.018283 1_555
Cd67 Cd70 3.018283 1_555
Cd67 Tm18 3.328420 1_556
Cd67 Tm19 3.328420 1_565
Cd67 Tm20 3.328420 1_655
Cd67 Tm21 3.328420 1_555
Cd68 Cd80 2.990350 1_655
Cd68 Cd79 2.990350 1_555
Cd68 Cd78 2.990350 1_565
Cd68 Cd72 3.030680 1_555
Cd68 Cd73 3.030680 1_555
Cd68 Cd74 3.030680 1_555
Cd68 Tm20 3.673010 1_655
Cd68 Tm19 3.673010 1_565
Cd68 Tm21 3.673010 1_555
Cd69 Cd82 2.990350 1_655
Cd69 Cd83 2.990350 1_555
Cd69 Cd81 2.990350 1_556
Cd69 Cd76 3.030680 1_555
Cd69 Cd75 3.030680 1_555
Cd69 Cd74 3.030680 1_555
Cd69 Tm18 3.673010 1_556
Cd69 Tm20 3.673010 1_655
Cd69 Tm21 3.673010 1_555
Cd70 Cd84 2.990350 1_555
Cd70 Cd85 2.990350 1_565
Cd70 Cd86 2.990350 1_556
Cd70 Cd77 3.030680 1_555
Cd70 Cd75 3.030680 1_555
Cd70 Cd73 3.030680 1_555
Cd70 Tm19 3.673010 1_565
Cd70 Tm18 3.673010 1_556
Cd70 Tm21 3.673010 1_555
Cd71 Cd87 2.990350 1_655
Cd71 Cd89 2.990350 1_565
Cd71 Cd88 2.990350 1_556
Cd71 Cd72 3.030680 1_555
Cd71 Cd76 3.030680 1_555
Cd71 Cd77 3.030680 1_555
Cd71 Tm20 3.673010 1_655
Cd71 Tm18 3.673010 1_556
Cd71 Tm19 3.673010 1_565
Cd72 Tm19 3.146045 1_565
Cd72 Tm20 3.146045 1_655
Cd72 Tm11 3.236704 1_665
Cd72 Tm2 3.236715 1_665
Cd73 Tm19 3.146045 1_565
Cd73 Tm21 3.146045 1_555
Cd73 Tm3 3.236702 1_565
Cd73 Tm9 3.236702 1_565
Cd74 Tm20 3.146045 1_655
Cd74 Tm21 3.146045 1_555
Cd74 Tm1 3.236702 1_655
Cd74 Tm4 3.236702 1_655
Cd75 Tm18 3.146045 1_556
Cd75 Tm21 3.146045 1_555
Cd75 Tm5 3.236702 1_556
Cd75 Tm8 3.236702 1_556
Cd76 Tm20 3.146045 1_655
Cd76 Tm18 3.146045 1_556
Cd76 Tm12 3.236704 1_656
Cd76 Tm6 3.236715 1_656
Cd77 Tm19 3.146045 1_565
Cd77 Tm18 3.146045 1_556
Cd77 Tm10 3.236704 1_566
Cd77 Tm7 3.236715 1_566
Cd78 Tm9 3.186857 1_555
Cd78 Tm11 3.186871 1_655
Cd78 Tm19 3.255407 1_555
Cd79 Tm4 3.186868 1_655
Cd79 Tm9 3.186868 1_565
Cd79 Tm21 3.255407 1_555
Cd80 Tm4 3.186857 1_555
Cd80 Tm11 3.186871 1_565
Cd80 Tm20 3.255407 1_555
Cd81 Tm8 3.186857 1_555
Cd81 Tm12 3.186871 1_655
Cd81 Tm18 3.255407 1_555
Cd82 Tm1 3.186857 1_555
Cd82 Tm12 3.186871 1_556
Cd82 Tm20 3.255407 1_555
Cd83 Cd9 3.128493 1_555
Cd83 Tm1 3.186868 1_655
Cd83 Tm8 3.186868 1_556
Cd83 Tm21 3.255407 1_555
Cd84 Tm5 3.186868 1_556
Cd84 Tm3 3.186868 1_565
Cd84 Tm21 3.255407 1_555
Cd85 Tm3 3.186857 1_555
Cd85 Tm10 3.186871 1_556
Cd85 Tm19 3.255407 1_555
Cd86 Tm5 3.186857 1_555
Cd86 Tm10 3.186871 1_565
Cd86 Tm18 3.255407 1_555
Cd87 Tm2 3.186869 1_565
Cd87 Tm6 3.186869 1_556
Cd87 Tm20 3.255407 1_555
Cd88 Tm6 3.186869 1_655
Cd88 Tm7 3.186869 1_565
Cd88 Tm18 3.255407 1_555
Cd89 Cd9 3.128493 1_555
Cd89 Tm2 3.186869 1_655
Cd89 Tm7 3.186869 1_556
Cd89 Tm19 3.255407 1_555
