# generated using pymatgen
data_Zr(VGa2)2
_symmetry_space_group_name_H-M   'P 1'
_cell_length_a   5.16269906
_cell_length_b   5.23123927
_cell_length_c   5.23123927
_cell_angle_alpha   75.90728038
_cell_angle_beta   60.43248207
_cell_angle_gamma   60.43248207
_symmetry_Int_Tables_number   1
_chemical_formula_structural   Zr(VGa2)2
_chemical_formula_sum   'Zr1 V2 Ga4'
_cell_volume   106.88078497
_cell_formula_units_Z   1
loop_
 _symmetry_equiv_pos_site_id
 _symmetry_equiv_pos_as_xyz
  1  'x, y, z'
loop_
 _atom_site_type_symbol
 _atom_site_label
 _atom_site_symmetry_multiplicity
 _atom_site_fract_x
 _atom_site_fract_y
 _atom_site_fract_z
 _atom_site_occupancy
  Zr  Zr0  1  0.00000000  -0.00000000  -0.00000000  1
  V  V0  1  0.25000000  0.50000000  0.50000000  1
  V  V1  1  0.75000000  0.50000000  0.50000000  1
  Ga  Ga0  1  0.30305839  -0.00000000  0.39388321  1
  Ga  Ga1  1  0.69694161  0.00000000  0.60611679  1
  Ga  Ga2  1  0.69694161  0.60611679  0.00000000  1
  Ga  Ga3  1  0.30305839  0.39388321  -0.00000000  1
loop_
_geom_bond_atom_site_label_1
_geom_bond_atom_site_label_2
_geom_bond_distance
_geom_bond_site_symmetry_2
V0 V1 2.581350 1_555
V0 V1 2.581350 1_455
Ga0 Ga3 2.534509 1_555
Ga0 Ga2 2.534509 1_545
Ga0 V0 2.659811 1_555
Ga0 V0 2.659811 1_545
Ga0 V1 2.659811 1_545
Ga0 V1 2.659811 1_455
Ga0 Ga1 2.756061 1_555
Ga0 Ga1 2.756061 1_455
Ga0 Zr0 2.757831 1_556
Ga0 Zr0 3.142488 1_555
Ga0 Zr0 3.142489 1_655
Ga1 Ga2 2.534509 1_546
Ga1 Ga3 2.534509 1_556
Ga1 V1 2.659811 1_545
Ga1 V1 2.659811 1_555
Ga1 V0 2.659811 1_555
Ga1 V0 2.659811 1_645
Ga1 Zr0 2.757831 1_655
Ga1 Zr0 3.142488 1_656
Ga1 Zr0 3.142489 1_556
Ga2 V1 2.659811 1_554
Ga2 V1 2.659811 1_555
Ga2 V0 2.659811 1_555
Ga2 V0 2.659811 1_654
Ga2 Ga3 2.756061 1_555
Ga2 Ga3 2.756061 1_655
Ga2 Zr0 2.757831 1_655
Ga2 Zr0 3.142488 1_665
Ga2 Zr0 3.142489 1_565
Ga3 V0 2.659811 1_555
Ga3 V0 2.659811 1_554
Ga3 V1 2.659811 1_554
Ga3 V1 2.659811 1_455
Ga3 Zr0 2.757831 1_565
Ga3 Zr0 3.142488 1_555
Ga3 Zr0 3.142489 1_655
