# generated using pymatgen
data_BaCaZr2O6
_symmetry_space_group_name_H-M   'P 1'
_cell_length_a   5.87632065
_cell_length_b   5.88153828
_cell_length_c   5.88153828
_cell_angle_alpha   60.83466932
_cell_angle_beta   60.02934129
_cell_angle_gamma   60.02934129
_symmetry_Int_Tables_number   1
_chemical_formula_structural   BaCaZr2O6
_chemical_formula_sum   'Ba1 Ca1 Zr2 O6'
_cell_volume   144.68786698
_cell_formula_units_Z   1
loop_
 _symmetry_equiv_pos_site_id
 _symmetry_equiv_pos_as_xyz
  1  'x, y, z'
loop_
 _atom_site_type_symbol
 _atom_site_label
 _atom_site_symmetry_multiplicity
 _atom_site_fract_x
 _atom_site_fract_y
 _atom_site_fract_z
 _atom_site_occupancy
  Ba  Ba0  1  0.50215906  -0.00000000  -0.00000000  1
  Ca  Ca0  1  0.97131413  0.50000000  0.50000000  1
  Zr  Zr0  1  0.74768058  0.25135100  0.25135100  1
  Zr  Zr1  1  0.25038257  0.74864900  0.74864900  1
  O  O0  1  0.39083320  0.50000000  0.50000000  1
  O  O1  1  0.05738610  -0.00000000  -0.00000000  1
  O  O2  1  0.97431578  0.52802357  0.06346704  1
  O  O3  1  0.56580640  0.93653296  0.47197643  1
  O  O4  1  0.56580640  0.47197643  0.93653296  1
  O  O5  1  0.97431578  0.06346704  0.52802357  1
loop_
_geom_bond_atom_site_label_1
_geom_bond_atom_site_label_2
_geom_bond_distance
_geom_bond_site_symmetry_2
Ba0 O1 2.613629 1_555
Ba0 O5 2.805883 1_554
Ba0 O2 2.805883 1_545
Ba0 O3 2.805883 1_545
Ba0 O4 2.805883 1_554
Ba0 O0 3.048804 1_545
Ba0 O0 3.048804 1_554
Ba0 O4 3.123112 1_544
Ba0 O3 3.123112 1_544
Ba0 O2 3.123112 1_455
Ba0 O5 3.123112 1_455
Ba0 O1 3.262692 1_655
Ca0 O0 2.465229 1_655
Ca0 O4 2.482873 1_555
Ca0 O3 2.482873 1_555
Ca0 O5 2.482874 1_555
Ca0 O2 2.482874 1_555
O0 Zr1 2.152048 1_555
O0 Zr0 2.152048 1_555
O1 Zr0 2.106422 1_455
O1 Zr1 2.106422 1_544
O2 Zr1 2.122325 1_654
O2 Zr0 2.141253 1_555
O3 Zr0 2.122325 1_565
O3 Zr1 2.141253 1_555
O4 Zr0 2.122325 1_556
O4 Zr1 2.141253 1_555
O5 Zr1 2.122325 1_645
O5 Zr0 2.141253 1_555
