# generated using pymatgen
data_Tb3HoCo8
_symmetry_space_group_name_H-M   'P 1'
_cell_length_a   5.04748942
_cell_length_b   5.04748942
_cell_length_c   8.78793879
_cell_angle_alpha   73.31063657
_cell_angle_beta   90.00000000
_cell_angle_gamma   120.00000000
_symmetry_Int_Tables_number   1
_chemical_formula_structural   Tb3HoCo8
_chemical_formula_sum   'Tb3 Ho1 Co8'
_cell_volume   182.92454483
_cell_formula_units_Z   1
loop_
 _symmetry_equiv_pos_site_id
 _symmetry_equiv_pos_as_xyz
  1  'x, y, z'
loop_
 _atom_site_type_symbol
 _atom_site_label
 _atom_site_symmetry_multiplicity
 _atom_site_fract_x
 _atom_site_fract_y
 _atom_site_fract_z
 _atom_site_occupancy
  Tb  Tb0  1  0.81252600  0.12505300  0.56242100  1
  Tb  Tb1  1  0.18748700  0.87497300  0.43754000  1
  Tb  Tb2  1  0.68740000  0.87480000  0.93779900  1
  Ho  Ho0  1  0.31257800  0.12515600  0.06226600  1
  Co  Co0  1  0.99997100  0.49994300  0.00008600  1
  Co  Co1  1  0.50001700  0.50003500  0.49994800  1
  Co  Co2  1  0.75009600  0.00019300  0.24968400  1
  Co  Co3  1  0.24999500  0.99999000  0.75029700  1
  Co  Co4  1  0.75009600  0.50022000  0.24968400  1
  Co  Co5  1  0.24999500  0.49970800  0.75029700  1
  Co  Co6  1  0.25012400  0.50022000  0.24968400  1
  Co  Co7  1  0.74971300  0.49970800  0.75029700  1
loop_
_geom_bond_atom_site_label_1
_geom_bond_atom_site_label_2
_geom_bond_distance
_geom_bond_site_symmetry_2
Tb0 Tb1 3.092623 1_545
Tb0 Tb1 3.092623 1_655
Tb0 Tb1 3.092631 1_645
Tb0 Tb2 3.112141 1_545
Ho0 Tb2 3.091475 1_554
Ho0 Tb2 3.091479 1_544
Ho0 Tb2 3.091479 1_444
Ho0 Tb1 3.111279 1_545
Co0 Co4 2.530907 1_555
Co0 Co2 2.530907 1_555
Co0 Co6 2.530909 1_655
Co0 Co7 2.532628 1_554
Co0 Co3 2.532629 1_654
Co0 Co5 2.532631 1_654
Co0 Ho0 2.959414 1_665
Co0 Ho0 2.959414 1_555
Co0 Ho0 2.959418 1_655
Co0 Tb2 2.959566 1_554
Co0 Tb2 2.959570 1_654
Co0 Tb2 2.959574 1_544
Co1 Co6 2.535330 1_555
Co1 Co4 2.535333 1_555
Co1 Co2 2.535333 1_565
Co1 Co5 2.535481 1_555
Co1 Co7 2.535483 1_555
Co1 Co3 2.535484 1_545
Co1 Tb1 2.959739 1_555
Co1 Tb1 2.959748 1_545
Co1 Tb1 2.959748 1_655
Co1 Tb0 2.959839 1_565
Co1 Tb0 2.959839 1_555
Co1 Tb0 2.959839 1_455
Co2 Co6 2.523606 1_545
Co2 Co4 2.523608 1_545
Co2 Co4 2.523881 1_555
Co2 Co6 2.523884 1_655
Co2 Ho0 2.963721 1_555
Co2 Ho0 2.963726 1_655
Co2 Tb1 2.965625 1_545
Co2 Tb1 2.965633 1_645
Co2 Tb2 2.967985 1_544
Co2 Tb0 2.974216 1_555
Co3 Co5 2.522321 1_565
Co3 Co7 2.522321 1_565
Co3 Co7 2.525168 1_455
Co3 Co5 2.525168 1_555
Co3 Tb2 2.964089 1_455
Co3 Tb2 2.964089 1_555
Co3 Tb0 2.965714 1_565
Co3 Tb0 2.965718 1_465
Co3 Ho0 2.968225 1_566
Co3 Tb1 2.974725 1_555
Co4 Co6 2.523603 1_555
Co4 Co6 2.523886 1_655
Co4 Ho0 2.963723 1_555
Co4 Ho0 2.963723 1_665
Co4 Tb1 2.965629 1_655
Co4 Tb1 2.965629 1_545
Co4 Tb2 2.967981 1_554
Co4 Tb0 2.974216 1_555
Co5 Co7 2.522321 1_555
Co5 Co7 2.525168 1_455
Co5 Tb2 2.964086 1_555
Co5 Tb2 2.964091 1_445
Co5 Tb0 2.965716 1_455
Co5 Tb0 2.965716 1_565
Co5 Ho0 2.968225 1_556
Co5 Tb1 2.974723 1_555
Co6 Ho0 2.963723 1_555
Co6 Ho0 2.963723 1_565
Co6 Tb1 2.965627 1_555
Co6 Tb1 2.965631 1_545
Co6 Tb2 2.967981 1_554
Co6 Tb0 2.974218 1_455
Co7 Tb2 2.964086 1_555
Co7 Tb2 2.964091 1_545
Co7 Tb0 2.965714 1_555
Co7 Tb0 2.965718 1_565
Co7 Ho0 2.968225 1_556
Co7 Tb1 2.974725 1_655
