# generated using pymatgen
data_RbDyS2O9
_symmetry_space_group_name_H-M   'P 1'
_cell_length_a   8.60910200
_cell_length_b   10.68806905
_cell_length_c   10.19704242
_cell_angle_alpha   120.35860132
_cell_angle_beta   90.00000000
_cell_angle_gamma   90.00000000
_symmetry_Int_Tables_number   1
_chemical_formula_structural   RbDyS2O9
_chemical_formula_sum   'Rb4 Dy4 S8 O36'
_cell_volume   809.62007449
_cell_formula_units_Z   4
loop_
 _symmetry_equiv_pos_site_id
 _symmetry_equiv_pos_as_xyz
  1  'x, y, z'
loop_
 _atom_site_type_symbol
 _atom_site_label
 _atom_site_symmetry_multiplicity
 _atom_site_fract_x
 _atom_site_fract_y
 _atom_site_fract_z
 _atom_site_occupancy
  Rb  Rb0  1  0.33507800  0.67981100  0.95985700  1
  Rb  Rb1  1  0.66492200  0.32018900  0.04014300  1
  Rb  Rb2  1  0.83507800  0.82018900  0.54014300  1
  Rb  Rb3  1  0.16492200  0.17981100  0.45985700  1
  Dy  Dy0  1  0.37115400  0.97017400  0.71863300  1
  Dy  Dy1  1  0.62884600  0.02982600  0.28136700  1
  Dy  Dy2  1  0.87115400  0.52982600  0.78136700  1
  Dy  Dy3  1  0.12884600  0.47017400  0.21863300  1
  S  S0  1  0.13184700  0.31442700  0.87559300  1
  S  S1  1  0.86815300  0.68557300  0.12440700  1
  S  S2  1  0.63184700  0.18557300  0.62440700  1
  S  S3  1  0.36815300  0.81442700  0.37559300  1
  S  S4  1  0.19633900  0.61169800  0.59847700  1
  S  S5  1  0.80366100  0.38830200  0.40152300  1
  S  S6  1  0.69633900  0.88830200  0.90152300  1
  S  S7  1  0.30366100  0.11169800  0.09847700  1
  O  O0  1  0.79268000  0.02125900  0.97443900  1
  O  O1  1  0.20732000  0.97874100  0.02556100  1
  O  O2  1  0.29268000  0.47874100  0.52556100  1
  O  O3  1  0.70732000  0.52125900  0.47443900  1
  O  O4  1  0.20302300  0.17424400  0.76359400  1
  O  O5  1  0.79697700  0.82575600  0.23640600  1
  O  O6  1  0.70302300  0.32575600  0.73640600  1
  O  O7  1  0.29697700  0.67424400  0.26359400  1
  O  O8  1  0.29795800  0.74340200  0.68204600  1
  O  O9  1  0.70204200  0.25659800  0.31795400  1
  O  O10  1  0.79795800  0.75659800  0.81795400  1
  O  O11  1  0.20204200  0.24340200  0.18204600  1
  O  O12  1  0.39526500  0.12423900  0.98173000  1
  O  O13  1  0.60473500  0.87576100  0.01827000  1
  O  O14  1  0.89526500  0.37576100  0.51827000  1
  O  O15  1  0.10473500  0.62423900  0.48173000  1
  O  O16  1  0.11960800  0.93909600  0.77921100  1
  O  O17  1  0.88039200  0.06090400  0.22078900  1
  O  O18  1  0.61960800  0.56090400  0.72078900  1
  O  O19  1  0.38039200  0.43909600  0.27921100  1
  O  O20  1  0.25204900  0.41665600  0.98441500  1
  O  O21  1  0.74795100  0.58334400  0.01558500  1
  O  O22  1  0.75204900  0.08334400  0.51558500  1
  O  O23  1  0.24795100  0.91665600  0.48441500  1
  O  O24  1  0.01281500  0.30071800  0.97354500  1
  O  O25  1  0.98718500  0.69928200  0.02645500  1
  O  O26  1  0.51281500  0.19928200  0.52645500  1
  O  O27  1  0.48718500  0.80071800  0.47354500  1
  O  O28  1  0.06142300  0.37856900  0.78897700  1
  O  O29  1  0.93857700  0.62143100  0.21102300  1
  O  O30  1  0.56142300  0.12143100  0.71102300  1
  O  O31  1  0.43857700  0.87856900  0.28897700  1
  O  O32  1  0.59340800  0.89110000  0.78650700  1
  O  O33  1  0.40659200  0.10890000  0.21349300  1
  O  O34  1  0.09340800  0.60890000  0.71349300  1
  O  O35  1  0.90659200  0.39110000  0.28650700  1
loop_
_geom_bond_atom_site_label_1
_geom_bond_atom_site_label_2
_geom_bond_distance
_geom_bond_site_symmetry_2
Dy0 O16 2.321437 1_555
Dy0 O30 2.330143 1_565
Dy0 O32 2.333601 1_555
Dy0 O12 2.342343 1_565
Dy0 O8 2.344532 1_555
Dy0 O23 2.403208 1_555
Dy0 O27 2.438981 1_555
Dy0 O4 2.460039 1_565
Dy1 O17 2.321437 1_555
Dy1 O31 2.330143 1_545
Dy1 O33 2.333601 1_555
Dy1 O13 2.342343 1_545
Dy1 O9 2.344532 1_555
Dy1 O22 2.403208 1_555
Dy1 O26 2.438981 1_555
Dy1 O5 2.460039 1_545
Dy2 O18 2.321437 1_555
Dy2 O28 2.330143 1_655
Dy2 O34 2.333601 1_655
Dy2 O14 2.342343 1_555
Dy2 O10 2.344532 1_555
Dy2 O21 2.403208 1_556
Dy2 O25 2.438981 1_556
Dy2 O6 2.460039 1_555
Dy3 O19 2.321437 1_555
Dy3 O29 2.330143 1_455
Dy3 O35 2.333601 1_455
Dy3 O15 2.342343 1_555
Dy3 O11 2.344532 1_555
Dy3 O20 2.403208 1_554
Dy3 O24 2.438981 1_554
Dy3 O7 2.460039 1_555
O0 S6 1.480581 1_545
O0 Rb1 3.114930 1_556
O1 S7 1.480581 1_565
O1 Rb0 3.114930 1_554
O2 S4 1.480581 1_555
O2 Rb3 3.114930 1_555
O3 S5 1.480581 1_555
O3 Rb2 3.114930 1_555
O4 S0 1.481549 1_555
O4 Rb3 3.144866 1_555
O5 S1 1.481549 1_555
O5 Rb2 3.144866 1_555
O6 S2 1.481549 1_555
O6 Rb1 3.144866 1_556
O7 S3 1.481549 1_555
O7 Rb0 3.144866 1_554
O8 S4 1.503500 1_555
O8 Rb0 3.245818 1_555
O9 S5 1.503500 1_555
O9 Rb1 3.245818 1_555
O10 S6 1.503500 1_555
O10 Rb2 3.245818 1_555
O11 S7 1.503500 1_555
O11 Rb3 3.245818 1_555
O12 S7 1.489438 1_556
O12 Rb1 2.978156 1_556
O13 S6 1.489438 1_554
O13 Rb0 2.978156 1_554
O14 S5 1.489438 1_555
O14 Rb3 2.978156 1_655
O15 S4 1.489438 1_555
O15 Rb2 2.978156 1_455
O16 Rb2 3.229019 1_455
O17 Rb3 3.229019 1_655
O18 Rb0 3.229019 1_555
O19 Rb1 3.229019 1_555
O20 S0 1.506817 1_555
O20 Rb0 3.032562 1_555
O21 S1 1.506817 1_555
O21 Rb1 3.032562 1_555
O22 S2 1.506817 1_555
O22 Rb2 3.032562 1_545
O23 S3 1.506817 1_555
O23 Rb3 3.032562 1_565
O24 S0 1.489018 1_555
O24 Rb1 3.054822 1_456
O25 S1 1.489018 1_555
O25 Rb0 3.054822 1_654
O26 S2 1.489018 1_555
O26 Rb3 3.054822 1_555
O27 S3 1.489018 1_555
O27 Rb2 3.054822 1_555
O28 S0 1.493222 1_555
O28 Rb3 3.059951 1_555
O29 S1 1.493222 1_555
O29 Rb2 3.059951 1_555
O30 S2 1.493222 1_555
O30 Rb1 3.059951 1_556
O31 S3 1.493222 1_555
O31 Rb0 3.059951 1_554
O32 S6 1.482266 1_555
O32 Rb2 3.047889 1_555
O33 S7 1.482266 1_555
O33 Rb3 3.047889 1_555
O34 S4 1.482266 1_555
O34 Rb0 3.047889 1_555
O35 S5 1.482266 1_555
O35 Rb1 3.047889 1_555
