# generated using pymatgen
data_CaAsWO5
_symmetry_space_group_name_H-M   'P 1'
_cell_length_a   9.74458200
_cell_length_b   6.02236200
_cell_length_c   8.37836822
_cell_angle_alpha   89.43302134
_cell_angle_beta   90.00000000
_cell_angle_gamma   90.00000000
_symmetry_Int_Tables_number   1
_chemical_formula_structural   CaAsWO5
_chemical_formula_sum   'Ca4 As4 W4 O20'
_cell_volume   491.66381928
_cell_formula_units_Z   4
loop_
 _symmetry_equiv_pos_site_id
 _symmetry_equiv_pos_as_xyz
  1  'x, y, z'
loop_
 _atom_site_type_symbol
 _atom_site_label
 _atom_site_symmetry_multiplicity
 _atom_site_fract_x
 _atom_site_fract_y
 _atom_site_fract_z
 _atom_site_occupancy
  Ca  Ca0  1  0.11524700  0.28448300  0.67083800  1
  Ca  Ca1  1  0.61524700  0.71551700  0.32916200  1
  Ca  Ca2  1  0.89301400  0.22540400  0.15306300  1
  Ca  Ca3  1  0.39301400  0.77459600  0.84693700  1
  As  As0  1  0.95541700  0.77093100  0.37129000  1
  As  As1  1  0.45541700  0.22906900  0.62871000  1
  As  As2  1  0.04643000  0.73206600  0.88054100  1
  As  As3  1  0.54643000  0.26793400  0.11945900  1
  W  W0  1  0.75650300  0.96568500  0.74378200  1
  W  W1  1  0.25650300  0.03431500  0.25621800  1
  W  W2  1  0.24318500  0.53112000  0.24020100  1
  W  W3  1  0.74318500  0.46888000  0.75979900  1
  O  O0  1  0.74106900  0.70001800  0.58586500  1
  O  O1  1  0.24106900  0.29998200  0.41413500  1
  O  O2  1  0.25852300  0.80326200  0.08498800  1
  O  O3  1  0.75852300  0.19673800  0.91501200  1
  O  O4  1  0.81704000  0.85969700  0.25270600  1
  O  O5  1  0.31704000  0.14030300  0.74729400  1
  O  O6  1  0.18552500  0.63966900  0.76550100  1
  O  O7  1  0.68552500  0.36033100  0.23449900  1
  O  O8  1  0.03713100  0.55407100  0.23876000  1
  O  O9  1  0.53713100  0.44592900  0.76124000  1
  O  O10  1  0.96258100  0.94819600  0.74457800  1
  O  O11  1  0.46258100  0.05180400  0.25542200  1
  O  O12  1  0.05613000  0.01583600  0.30935100  1
  O  O13  1  0.55613000  0.98416400  0.69064900  1
  O  O14  1  0.94196300  0.48561500  0.82467600  1
  O  O15  1  0.44196300  0.51438500  0.17532400  1
  O  O16  1  0.78783800  0.23643600  0.59996300  1
  O  O17  1  0.28783800  0.76356400  0.40003700  1
  O  O18  1  0.20295800  0.26631700  0.09570800  1
  O  O19  1  0.70295800  0.73368300  0.90429200  1
loop_
_geom_bond_atom_site_label_1
_geom_bond_atom_site_label_2
_geom_bond_distance
_geom_bond_site_symmetry_2
Ca0 O5 2.240528 1_555
Ca0 O6 2.388971 1_555
Ca0 O14 2.451676 1_455
Ca0 O1 2.476642 1_555
Ca0 O10 2.582963 1_445
Ca1 O4 2.240528 1_555
Ca1 O7 2.388971 1_555
Ca1 O15 2.451676 1_555
Ca1 O0 2.476642 1_555
Ca1 O11 2.582963 1_565
Ca2 O7 2.285792 1_555
Ca2 O3 2.394186 1_554
Ca2 O12 2.408590 1_655
Ca2 O4 2.461570 1_545
Ca2 O8 2.536476 1_655
Ca3 O6 2.285792 1_555
Ca3 O2 2.394186 1_556
Ca3 O13 2.408590 1_555
Ca3 O5 2.461570 1_565
Ca3 O9 2.536476 1_555
As0 O4 1.755175 1_555
As0 O12 1.841919 1_665
As0 O8 1.897725 1_655
As1 O5 1.755175 1_555
As1 O13 1.841919 1_545
As1 O9 1.897725 1_555
As2 O6 1.756821 1_555
As2 O14 1.863337 1_455
As2 O10 1.905287 1_455
As3 O7 1.756821 1_555
As3 O15 1.863337 1_555
As3 O11 1.905287 1_555
O0 W3 2.005395 1_555
O0 W0 2.091624 1_555
O1 W2 2.005395 1_555
O1 W1 2.091624 1_555
O2 W1 2.008552 1_565
O2 W2 2.087438 1_555
O3 W0 2.008552 1_545
O3 W3 2.087438 1_555
O8 W2 2.012690 1_555
O9 W3 2.012690 1_555
O10 W0 2.010912 1_555
O11 W1 2.010912 1_555
O12 W1 2.005501 1_555
O13 W0 2.005501 1_555
O14 W3 2.014623 1_555
O15 W2 2.014623 1_555
O16 W3 1.994846 1_555
O16 W0 2.040840 1_545
O17 W2 1.994846 1_555
O17 W1 2.040840 1_565
O18 W1 1.998937 1_555
O18 W2 2.049550 1_555
O19 W0 1.998937 1_555
O19 W3 2.049550 1_555
