# generated using pymatgen
data_LiTi3O4
_symmetry_space_group_name_H-M   'P 1'
_cell_length_a   5.50702737
_cell_length_b   6.32354959
_cell_length_c   6.42722941
_cell_angle_alpha   120.68580453
_cell_angle_beta   125.51959040
_cell_angle_gamma   106.28704801
_symmetry_Int_Tables_number   1
_chemical_formula_structural   LiTi3O4
_chemical_formula_sum   'Li1 Ti3 O4'
_cell_volume   88.70506108
_cell_formula_units_Z   1
loop_
 _symmetry_equiv_pos_site_id
 _symmetry_equiv_pos_as_xyz
  1  'x, y, z'
loop_
 _atom_site_type_symbol
 _atom_site_label
 _atom_site_symmetry_multiplicity
 _atom_site_fract_x
 _atom_site_fract_y
 _atom_site_fract_z
 _atom_site_occupancy
  Li  Li0  1  0.21124800  0.00008800  0.85373700  1
  Ti  Ti0  1  0.07141000  0.50018500  0.53571900  1
  Ti  Ti1  1  0.95067200  0.99955300  0.02060800  1
  Ti  Ti2  1  0.94777800  0.99961500  0.42691100  1
  O  O0  1  0.49623900  0.99990700  0.20643100  1
  O  O1  1  0.53974200  0.49950900  0.76916400  1
  O  O2  1  0.50036200  0.00020700  0.79106900  1
  O  O3  1  0.51881900  0.50010200  0.25980500  1
loop_
_geom_bond_atom_site_label_1
_geom_bond_atom_site_label_2
_geom_bond_distance
_geom_bond_site_symmetry_2
Li0 O3 1.764698 1_445
Li0 O3 1.764856 1_556
Li0 O2 1.855262 1_555
Li0 O0 1.863197 1_546
Li0 Ti2 2.234977 1_445
Li0 Ti1 2.235809 1_446
O0 Ti2 2.025401 1_555
O0 Ti0 2.067151 1_554
O0 Ti0 2.067976 1_665
O0 Ti1 2.505431 1_455
O1 Ti2 2.061286 1_445
O1 Ti1 2.062178 1_556
O1 Ti2 2.062220 1_556
O1 Ti1 2.062361 1_445
O1 Ti0 2.102222 1_555
O2 Ti1 2.021673 1_546
O2 Ti0 2.068963 1_545
O2 Ti0 2.069262 1_656
O2 Ti2 2.539126 1_445
O3 Ti1 2.460312 1_556
O3 Ti1 2.461904 1_445
O3 Ti2 2.472913 1_555
O3 Ti2 2.475264 1_444
