# generated using pymatgen
data_FeH10N3O14
_symmetry_space_group_name_H-M   'P 1'
_cell_length_a   6.91371300
_cell_length_b   7.23625504
_cell_length_c   12.02746534
_cell_angle_alpha   87.71084653
_cell_angle_beta   79.97212878
_cell_angle_gamma   69.97134878
_symmetry_Int_Tables_number   1
_chemical_formula_structural   FeH10N3O14
_chemical_formula_sum   'Fe2 H20 N6 O28'
_cell_volume   556.57253478
_cell_formula_units_Z   2
loop_
 _symmetry_equiv_pos_site_id
 _symmetry_equiv_pos_as_xyz
  1  'x, y, z'
loop_
 _atom_site_type_symbol
 _atom_site_label
 _atom_site_symmetry_multiplicity
 _atom_site_fract_x
 _atom_site_fract_y
 _atom_site_fract_z
 _atom_site_occupancy
  Fe  Fe0  1  0.71829800  0.27374700  0.74838300  1
  Fe  Fe1  1  0.28170200  0.72625300  0.25161700  1
  H  H0  1  0.05959400  0.37519800  0.66166800  1
  H  H1  1  0.94040600  0.62480200  0.33833200  1
  H  H2  1  0.91586600  0.52461000  0.77010600  1
  H  H3  1  0.08413400  0.47539000  0.22989400  1
  H  H4  1  0.75608800  0.10082500  0.95281100  1
  H  H5  1  0.24391200  0.89917500  0.04718900  1
  H  H6  1  0.76897600  0.32440700  0.95654700  1
  H  H7  1  0.23102400  0.67559300  0.04345300  1
  H  H8  1  0.05089300  0.94521800  0.74842600  1
  H  H9  1  0.94910700  0.05478200  0.25157400  1
  H  H10  1  0.93307700  0.93114500  0.64356800  1
  H  H11  1  0.06692300  0.06885500  0.35643200  1
  H  H12  1  0.41021000  0.14135600  0.85210300  1
  H  H13  1  0.58979000  0.85864400  0.14789700  1
  H  H14  1  0.52411500  0.02789200  0.72822000  1
  H  H15  1  0.47588500  0.97210800  0.27178000  1
  H  H16  1  0.53013100  0.31058800  0.56223400  1
  H  H17  1  0.46986900  0.68941200  0.43776600  1
  H  H18  1  0.76706000  0.31959800  0.52267800  1
  H  H19  1  0.23294000  0.68040200  0.47732200  1
  N  N0  1  0.35253700  0.65198100  0.77279900  1
  N  N1  1  0.64746300  0.34801900  0.22720100  1
  N  N2  1  0.78033400  0.71114700  0.96180100  1
  N  N3  1  0.21966600  0.28885300  0.03819900  1
  N  N4  1  0.73604300  0.78334400  0.53714800  1
  N  N5  1  0.26395700  0.21665600  0.46285200  1
  O  O0  1  0.78038800  0.21203800  0.90832300  1
  O  O1  1  0.21961200  0.78796200  0.09167700  1
  O  O2  1  0.92614600  0.41712800  0.71645900  1
  O  O3  1  0.07385400  0.58287200  0.28354100  1
  O  O4  1  0.95408300  0.02259300  0.69738100  1
  O  O5  1  0.04591700  0.97740700  0.30261900  1
  O  O6  1  0.49799200  0.14530700  0.77583700  1
  O  O7  1  0.50200800  0.85469300  0.22416300  1
  O  O8  1  0.66650900  0.29745600  0.58503500  1
  O  O9  1  0.33349100  0.70254400  0.41496500  1
  O  O10  1  0.52031900  0.54092800  0.81063200  1
  O  O11  1  0.47968100  0.45907200  0.18936800  1
  O  O12  1  0.29039100  0.59132400  0.69578300  1
  O  O13  1  0.70960900  0.40867600  0.30421700  1
  O  O14  1  0.26222900  0.81871900  0.81928500  1
  O  O15  1  0.73777100  0.18128100  0.18071500  1
  O  O16  1  0.72195500  0.68869700  0.45309100  1
  O  O17  1  0.27804500  0.31130300  0.54690900  1
  O  O18  1  0.91344000  0.79280300  0.54515000  1
  O  O19  1  0.08656000  0.20719700  0.45485000  1
  O  O20  1  0.57663300  0.86320700  0.60921100  1
  O  O21  1  0.42336700  0.13679300  0.39078900  1
  O  O22  1  0.75839500  0.55979600  0.00879100  1
  O  O23  1  0.24160500  0.44020400  0.99120900  1
  O  O24  1  0.85989100  0.71255100  0.85912700  1
  O  O25  1  0.14010900  0.28744900  0.14087300  1
  O  O26  1  0.72019300  0.87220300  0.02034100  1
  O  O27  1  0.27980700  0.12779700  0.97965900  1
loop_
_geom_bond_atom_site_label_1
_geom_bond_atom_site_label_2
_geom_bond_distance
_geom_bond_site_symmetry_2
Fe0 O4 2.011996 1_555
Fe0 O6 2.015641 1_555
Fe0 O2 2.021432 1_555
Fe0 O10 2.029314 1_555
Fe0 O0 2.042510 1_555
Fe0 O8 2.047807 1_555
Fe1 O5 2.011996 1_555
Fe1 O7 2.015641 1_555
Fe1 O3 2.021432 1_555
Fe1 O11 2.029314 1_555
Fe1 O1 2.042510 1_555
Fe1 O9 2.047807 1_555
H0 O2 0.995012 1_455
H1 O3 0.995012 1_655
H2 O2 1.006260 1_555
H2 O24 1.660494 1_555
H3 O3 1.006260 1_555
H3 O25 1.660494 1_555
H4 O0 0.994528 1_555
H5 O1 0.994528 1_555
H6 O0 0.990765 1_555
H7 O1 0.990765 1_555
H8 O4 0.998674 1_465
H9 O5 0.998674 1_645
H10 O4 1.005328 1_565
H10 O18 1.632638 1_555
H11 O5 1.005328 1_545
H11 O19 1.632638 1_555
H12 O6 1.013152 1_555
H12 O27 1.656207 1_555
H13 O7 1.013152 1_555
H13 O26 1.656207 1_555
H14 O6 0.990077 1_555
H15 O7 0.990077 1_555
H16 O8 0.999925 1_555
H17 O9 0.999925 1_555
H18 O8 0.978042 1_555
H19 O9 0.978042 1_555
N0 O12 1.239184 1_555
N0 O14 1.254798 1_555
N0 O10 1.309396 1_555
N1 O13 1.239184 1_555
N1 O15 1.254798 1_555
N1 O11 1.309396 1_555
N2 O22 1.255551 1_556
N2 O24 1.262504 1_555
N2 O26 1.287846 1_556
N3 O23 1.255551 1_554
N3 O25 1.262504 1_555
N3 O27 1.287846 1_554
N4 O20 1.253369 1_555
N4 O18 1.271739 1_555
N4 O16 1.279050 1_555
N5 O21 1.253369 1_555
N5 O19 1.271739 1_555
N5 O17 1.279050 1_555
