# generated using pymatgen
data_YbMnB4
_symmetry_space_group_name_H-M   'P 1'
_cell_length_a   3.34747500
_cell_length_b   5.90109900
_cell_length_c   11.42660200
_cell_angle_alpha   90.00000000
_cell_angle_beta   90.00000000
_cell_angle_gamma   90.00000000
_symmetry_Int_Tables_number   1
_chemical_formula_structural   YbMnB4
_chemical_formula_sum   'Yb4 Mn4 B16'
_cell_volume   225.71859777
_cell_formula_units_Z   4
loop_
 _symmetry_equiv_pos_site_id
 _symmetry_equiv_pos_as_xyz
  1  'x, y, z'
loop_
 _atom_site_type_symbol
 _atom_site_label
 _atom_site_symmetry_multiplicity
 _atom_site_fract_x
 _atom_site_fract_y
 _atom_site_fract_z
 _atom_site_occupancy
  Yb  Yb0  1  0.50000000  0.37565000  0.15129600  1
  Yb  Yb1  1  0.50000000  0.62435000  0.84870400  1
  Yb  Yb2  1  0.50000000  0.12435000  0.65129600  1
  Yb  Yb3  1  0.50000000  0.87565000  0.34870400  1
  Mn  Mn0  1  0.50000000  0.37906500  0.42118600  1
  Mn  Mn1  1  0.50000000  0.62093500  0.57881400  1
  Mn  Mn2  1  0.50000000  0.12093500  0.92118600  1
  Mn  Mn3  1  0.50000000  0.87906500  0.07881400  1
  B  B0  1  0.00000000  0.11316100  0.04682900  1
  B  B1  1  0.00000000  0.88683900  0.95317100  1
  B  B2  1  0.00000000  0.38683900  0.54682900  1
  B  B3  1  0.00000000  0.61316100  0.45317100  1
  B  B4  1  0.00000000  0.13837300  0.46692000  1
  B  B5  1  0.00000000  0.86162700  0.53308000  1
  B  B6  1  0.00000000  0.36162700  0.96692000  1
  B  B7  1  0.00000000  0.63837300  0.03308000  1
  B  B8  1  0.00000000  0.02315300  0.19079900  1
  B  B9  1  0.00000000  0.97684700  0.80920100  1
  B  B10  1  0.00000000  0.47684700  0.69079900  1
  B  B11  1  0.00000000  0.52315300  0.30920100  1
  B  B12  1  0.00000000  0.22057900  0.31721200  1
  B  B13  1  0.00000000  0.77942100  0.68278800  1
  B  B14  1  0.00000000  0.27942100  0.81721200  1
  B  B15  1  0.00000000  0.72057900  0.18278800  1
loop_
_geom_bond_atom_site_label_1
_geom_bond_atom_site_label_2
_geom_bond_distance
_geom_bond_site_symmetry_2
B0 B1 1.711433 1_544
B0 B6 1.727292 1_554
B0 B8 1.728708 1_555
B0 Mn3 2.200751 1_545
B0 Mn3 2.200751 1_445
B0 Mn2 2.205597 1_554
B0 Mn2 2.205597 1_454
B0 Yb0 2.574032 1_555
B0 Yb0 2.574032 1_455
B1 B7 1.727292 1_556
B1 B9 1.728708 1_555
B1 Mn2 2.200751 1_565
B1 Mn2 2.200751 1_465
B1 Mn3 2.205597 1_456
B1 Mn3 2.205597 1_556
B1 Yb1 2.574032 1_455
B1 Yb1 2.574032 1_555
B2 B3 1.711433 1_555
B2 B4 1.727292 1_555
B2 Mn1 2.200751 1_555
B2 Mn1 2.200751 1_455
B2 Mn0 2.205597 1_455
B2 Mn0 2.205597 1_555
B2 Yb2 2.574032 1_455
B2 Yb2 2.574032 1_555
B3 B5 1.727292 1_555
B3 Mn0 2.200751 1_455
B3 Mn0 2.200751 1_555
B3 Mn1 2.205597 1_555
B3 Mn1 2.205597 1_455
B3 Yb3 2.574032 1_455
B3 Yb3 2.574032 1_555
B4 B5 1.799596 1_545
B4 Mn0 2.256519 1_455
B4 Mn0 2.256519 1_555
B4 Yb3 2.651354 1_545
B4 Yb3 2.651354 1_445
B4 Yb2 2.691991 1_455
B4 Yb2 2.691991 1_555
B5 Mn1 2.256519 1_555
B5 Mn1 2.256519 1_455
B5 Yb2 2.651354 1_465
B5 Yb2 2.651354 1_565
B5 Yb3 2.691991 1_455
B5 Yb3 2.691991 1_555
B6 B7 1.799596 1_556
B6 Mn2 2.256519 1_455
B6 Mn2 2.256519 1_555
B6 Yb1 2.651354 1_455
B6 Yb1 2.651354 1_555
B6 Yb0 2.691991 1_456
B6 Yb0 2.691991 1_556
B7 Mn3 2.256519 1_455
B7 Mn3 2.256519 1_555
B7 Yb0 2.651354 1_555
B7 Yb0 2.651354 1_455
B7 Yb1 2.691991 1_454
B7 Yb1 2.691991 1_554
B8 Mn3 2.271952 1_545
B8 Mn3 2.271952 1_445
B8 Yb3 2.610480 1_545
B8 Yb3 2.610480 1_445
B8 Yb0 2.707775 1_455
B8 Yb0 2.707775 1_555
B9 Mn2 2.271952 1_565
B9 Mn2 2.271952 1_465
B9 Yb2 2.610480 1_465
B9 Yb2 2.610480 1_565
B9 Yb1 2.707775 1_555
B9 Yb1 2.707775 1_455
B10 B2 1.728708 1_555
B10 B13 1.787864 1_555
B10 B14 1.855746 1_555
B10 Mn1 2.271952 1_555
B10 Mn1 2.271952 1_455
B10 Yb1 2.610480 1_455
B10 Yb1 2.610480 1_555
B10 Yb2 2.707775 1_455
B10 Yb2 2.707775 1_555
B11 B3 1.728708 1_555
B11 B12 1.787864 1_555
B11 B15 1.855746 1_555
B11 Mn0 2.271952 1_455
B11 Mn0 2.271952 1_555
B11 Yb0 2.610480 1_455
B11 Yb0 2.610480 1_555
B11 Yb3 2.707775 1_455
B11 Yb3 2.707775 1_555
B12 B4 1.778107 1_555
B12 B8 1.855746 1_555
B12 Mn0 2.255567 1_455
B12 Mn0 2.255567 1_555
B12 Yb3 2.659696 1_545
B12 Yb3 2.659696 1_445
B12 Yb0 2.689434 1_455
B12 Yb0 2.689434 1_555
B13 B5 1.778107 1_555
B13 B9 1.855746 1_555
B13 Mn1 2.255567 1_555
B13 Mn1 2.255567 1_455
B13 Yb2 2.659696 1_565
B13 Yb2 2.659696 1_465
B13 Yb1 2.689434 1_455
B13 Yb1 2.689434 1_555
B14 B6 1.778107 1_555
B14 B9 1.787864 1_545
B14 Mn2 2.255567 1_555
B14 Mn2 2.255567 1_455
B14 Yb1 2.659696 1_555
B14 Yb1 2.659696 1_455
B14 Yb2 2.689434 1_455
B14 Yb2 2.689434 1_555
B15 B7 1.778107 1_555
B15 B8 1.787864 1_565
B15 Mn3 2.255567 1_455
B15 Mn3 2.255567 1_555
B15 Yb0 2.659696 1_455
B15 Yb0 2.659696 1_555
B15 Yb3 2.689434 1_455
B15 Yb3 2.689434 1_555
