# generated using pymatgen
data_Sm3Zn22
_symmetry_space_group_name_H-M   'P 1'
_cell_length_a   8.74484798
_cell_length_b   8.74484798
_cell_length_c   12.15851775
_cell_angle_alpha   111.07675135
_cell_angle_beta   111.07675135
_cell_angle_gamma   90.00000000
_symmetry_Int_Tables_number   1
_chemical_formula_structural   Sm3Zn22
_chemical_formula_sum   'Sm6 Zn44'
_cell_volume   800.56509988
_cell_formula_units_Z   2
loop_
 _symmetry_equiv_pos_site_id
 _symmetry_equiv_pos_as_xyz
  1  'x, y, z'
loop_
 _atom_site_type_symbol
 _atom_site_label
 _atom_site_symmetry_multiplicity
 _atom_site_fract_x
 _atom_site_fract_y
 _atom_site_fract_z
 _atom_site_occupancy
  Sm  Sm0  1  0.49640138  0.74640138  0.99280375  1
  Sm  Sm1  1  0.74640138  0.49640138  0.49280375  1
  Sm  Sm2  1  0.50359862  0.25359862  0.00719625  1
  Sm  Sm3  1  0.25359862  0.50359862  0.50719625  1
  Sm  Sm4  1  0.12500000  0.87500000  0.25000000  1
  Sm  Sm5  1  0.87500000  0.12500000  0.75000000  1
  Zn  Zn0  1  0.42135462  0.19629524  0.37756928  1
  Zn  Zn1  1  0.42135462  0.68127404  0.37756928  1
  Zn  Zn2  1  0.19629524  0.42135462  0.87756928  1
  Zn  Zn3  1  0.19629524  0.95621466  0.87756928  1
  Zn  Zn4  1  0.95621466  0.19629524  0.37756928  1
  Zn  Zn5  1  0.95621466  0.68127404  0.37756928  1
  Zn  Zn6  1  0.68127404  0.42135462  0.87756928  1
  Zn  Zn7  1  0.68127404  0.95621466  0.87756928  1
  Zn  Zn8  1  0.57864538  0.80370476  0.62243072  1
  Zn  Zn9  1  0.57864538  0.31872596  0.62243072  1
  Zn  Zn10  1  0.80370476  0.57864538  0.12243072  1
  Zn  Zn11  1  0.80370476  0.04378534  0.12243072  1
  Zn  Zn12  1  0.04378534  0.80370476  0.62243072  1
  Zn  Zn13  1  0.04378534  0.31872596  0.62243072  1
  Zn  Zn14  1  0.31872596  0.57864538  0.12243072  1
  Zn  Zn15  1  0.31872596  0.04378534  0.12243072  1
  Zn  Zn16  1  0.15003539  0.62337809  0.74675819  1
  Zn  Zn17  1  0.62337809  0.15003539  0.24675819  1
  Zn  Zn18  1  0.62337809  0.59672180  0.24675819  1
  Zn  Zn19  1  0.59672180  0.62337809  0.74675819  1
  Zn  Zn20  1  0.84996461  0.37662191  0.25324181  1
  Zn  Zn21  1  0.37662191  0.84996461  0.75324181  1
  Zn  Zn22  1  0.37662191  0.40327820  0.75324181  1
  Zn  Zn23  1  0.40327820  0.37662191  0.25324181  1
  Zn  Zn24  1  0.48575176  0.88289801  0.26579502  1
  Zn  Zn25  1  0.88289801  0.48575176  0.76579502  1
  Zn  Zn26  1  0.88289801  0.78004525  0.76579502  1
  Zn  Zn27  1  0.78004525  0.88289801  0.26579502  1
  Zn  Zn28  1  0.51424824  0.11710199  0.73420498  1
  Zn  Zn29  1  0.11710199  0.51424824  0.23420498  1
  Zn  Zn30  1  0.11710199  0.21995475  0.23420498  1
  Zn  Zn31  1  0.21995475  0.11710199  0.73420498  1
  Zn  Zn32  1  0.83503554  0.73713453  0.97427006  1
  Zn  Zn33  1  0.73713453  0.83503554  0.47427006  1
  Zn  Zn34  1  0.73713453  0.13923452  0.47427006  1
  Zn  Zn35  1  0.13923452  0.73713453  0.97427006  1
  Zn  Zn36  1  0.16496446  0.26286547  0.02572994  1
  Zn  Zn37  1  0.26286547  0.16496446  0.52572994  1
  Zn  Zn38  1  0.26286547  0.86076548  0.52572994  1
  Zn  Zn39  1  0.86076548  0.26286547  0.02572994  1
  Zn  Zn40  1  0.50000000  -0.00000000  0.50000000  1
  Zn  Zn41  1  0.00000000  0.50000000  0.00000000  1
  Zn  Zn42  1  0.00000000  -0.00000000  0.00000000  1
  Zn  Zn43  1  0.00000000  -0.00000000  0.50000000  1
loop_
_geom_bond_atom_site_label_1
_geom_bond_atom_site_label_2
_geom_bond_distance
_geom_bond_site_symmetry_2
Sm0 Zn35 3.048513 1_555
Sm0 Zn32 3.048522 1_555
Sm0 Zn24 3.134186 1_556
Sm0 Zn27 3.134196 1_556
Sm0 Zn22 3.178699 1_555
Sm0 Zn21 3.178710 1_555
Sm0 Zn16 3.232525 1_555
Sm0 Zn19 3.232525 1_555
Sm0 Zn14 3.236423 1_556
Sm0 Zn15 3.236429 1_566
Sm0 Zn10 3.236429 1_556
Sm0 Zn11 3.236434 1_566
Sm0 Zn2 3.379515 1_555
Sm0 Zn6 3.379521 1_555
Sm0 Zn3 3.379521 1_555
Sm0 Zn7 3.379527 1_555
Sm0 Zn17 3.594594 1_566
Sm0 Zn18 3.594594 1_556
Sm1 Zn34 3.048513 1_555
Sm1 Zn33 3.048522 1_555
Sm1 Zn25 3.134186 1_555
Sm1 Zn26 3.134196 1_555
Sm1 Zn23 3.178699 1_555
Sm1 Zn20 3.178710 1_555
Sm1 Zn17 3.232525 1_555
Sm1 Zn18 3.232525 1_555
Sm1 Zn9 3.236423 1_555
Sm1 Zn13 3.236429 1_655
Sm1 Zn8 3.236429 1_555
Sm1 Zn12 3.236434 1_655
Sm1 Zn0 3.379515 1_555
Sm1 Zn1 3.379521 1_555
Sm1 Zn4 3.379521 1_555
Sm1 Zn5 3.379527 1_555
Sm1 Zn16 3.594594 1_655
Sm1 Zn19 3.594594 1_555
Sm2 Zn39 3.048513 1_555
Sm2 Zn36 3.048522 1_555
Sm2 Zn28 3.134186 1_554
Sm2 Zn31 3.134196 1_554
Sm2 Zn18 3.178699 1_555
Sm2 Zn17 3.178710 1_555
Sm2 Zn20 3.232525 1_555
Sm2 Zn23 3.232525 1_555
Sm2 Zn6 3.236423 1_554
Sm2 Zn7 3.236429 1_544
Sm2 Zn2 3.236429 1_554
Sm2 Zn3 3.236434 1_544
Sm2 Zn10 3.379515 1_555
Sm2 Zn14 3.379521 1_555
Sm2 Zn11 3.379521 1_555
Sm2 Zn15 3.379527 1_555
Sm2 Zn21 3.594594 1_544
Sm2 Zn22 3.594594 1_554
Sm3 Zn38 3.048513 1_555
Sm3 Zn37 3.048522 1_555
Sm3 Zn29 3.134186 1_555
Sm3 Zn30 3.134196 1_555
Sm3 Zn19 3.178699 1_555
Sm3 Zn16 3.178710 1_555
Sm3 Zn21 3.232525 1_555
Sm3 Zn22 3.232525 1_555
Sm3 Zn1 3.236423 1_555
Sm3 Zn5 3.236429 1_455
Sm3 Zn0 3.236429 1_555
Sm3 Zn4 3.236434 1_455
Sm3 Zn8 3.379515 1_555
Sm3 Zn9 3.379521 1_555
Sm3 Zn12 3.379521 1_555
Sm3 Zn13 3.379527 1_555
Sm3 Zn20 3.594594 1_455
Sm3 Zn23 3.594594 1_555
Sm4 Zn27 3.090067 1_455
Sm4 Zn30 3.090067 1_565
Sm4 Zn29 3.090084 1_555
Sm4 Zn24 3.090084 1_555
Sm4 Zn32 3.178236 1_454
Sm4 Zn37 3.178236 1_565
Sm4 Zn35 3.178236 1_554
Sm4 Zn38 3.178236 1_555
Sm4 Zn10 3.315241 1_455
Sm4 Zn0 3.315241 1_565
Sm4 Zn11 3.315241 1_465
Sm4 Zn4 3.315241 1_465
Sm4 Zn14 3.315241 1_555
Sm4 Zn1 3.315241 1_555
Sm4 Zn15 3.315241 1_565
Sm4 Zn5 3.315241 1_455
Sm4 Zn41 3.410148 1_555
Sm4 Zn40 3.410148 1_565
Sm4 Zn42 3.410148 1_565
Sm4 Zn43 3.410148 1_565
Sm5 Zn26 3.090067 1_545
Sm5 Zn31 3.090067 1_655
Sm5 Zn28 3.090084 1_555
Sm5 Zn25 3.090084 1_555
Sm5 Zn36 3.178236 1_656
Sm5 Zn33 3.178236 1_545
Sm5 Zn39 3.178236 1_556
Sm5 Zn34 3.178236 1_555
Sm5 Zn2 3.315241 1_655
Sm5 Zn8 3.315241 1_545
Sm5 Zn3 3.315241 1_645
Sm5 Zn12 3.315241 1_645
Sm5 Zn6 3.315241 1_555
Sm5 Zn9 3.315241 1_555
Sm5 Zn13 3.315241 1_655
Sm5 Zn7 3.315241 1_545
Sm5 Zn40 3.410148 1_555
Sm5 Zn41 3.410148 1_656
Sm5 Zn43 3.410148 1_655
Sm5 Zn42 3.410148 1_656
Zn0 Zn23 2.517808 1_555
Zn0 Zn9 2.581440 1_555
Zn0 Zn40 2.595568 1_555
Zn0 Zn30 2.661571 1_555
Zn0 Zn15 2.688716 1_555
Zn0 Zn34 2.709931 1_555
Zn0 Zn17 2.715238 1_555
Zn0 Zn37 2.718778 1_555
Zn0 Zn24 2.747112 1_545
Zn1 Zn23 2.517793 1_555
Zn1 Zn8 2.581440 1_555
Zn1 Zn40 2.595568 1_565
Zn1 Zn29 2.661576 1_555
Zn1 Zn14 2.688716 1_555
Zn1 Zn33 2.709931 1_555
Zn1 Zn18 2.715238 1_555
Zn1 Zn38 2.718777 1_555
Zn1 Zn24 2.747119 1_555
Zn2 Zn22 2.517808 1_555
Zn2 Zn41 2.595568 1_556
Zn2 Zn31 2.661571 1_555
Zn2 Zn35 2.709931 1_555
Zn2 Zn36 2.718778 1_556
Zn2 Zn25 2.747112 1_455
Zn3 Zn42 2.595568 1_566
Zn3 Zn31 2.661564 1_565
Zn3 Zn35 2.709939 1_555
Zn3 Zn36 2.718784 1_566
Zn4 Zn43 2.595568 1_655
Zn6 Zn9 2.688716 1_555
Zn7 Zn8 2.688716 1_555
Zn10 Zn18 2.517808 1_555
Zn10 Zn6 2.581440 1_554
Zn10 Zn41 2.595568 1_655
Zn10 Zn27 2.661571 1_555
Zn10 Zn5 2.688716 1_555
Zn10 Zn39 2.709931 1_555
Zn10 Zn20 2.715238 1_555
Zn10 Zn32 2.718778 1_554
Zn10 Zn29 2.747112 1_655
Zn11 Zn17 2.517806 1_555
Zn11 Zn7 2.581440 1_544
Zn11 Zn42 2.595568 1_655
Zn11 Zn27 2.661564 1_545
Zn11 Zn4 2.688716 1_555
Zn11 Zn39 2.709939 1_555
Zn11 Zn20 2.715253 1_555
Zn11 Zn32 2.718784 1_544
Zn11 Zn30 2.747105 1_655
Zn12 Zn16 2.517806 1_555
Zn12 Zn5 2.581440 1_455
Zn12 Zn43 2.595568 1_565
Zn12 Zn26 2.661564 1_455
Zn12 Zn3 2.688716 1_555
Zn12 Zn38 2.709939 1_555
Zn12 Zn21 2.715253 1_555
Zn12 Zn33 2.718784 1_455
Zn12 Zn31 2.747105 1_565
Zn13 Zn16 2.517791 1_555
Zn13 Zn4 2.581440 1_455
Zn13 Zn43 2.595568 1_555
Zn13 Zn25 2.661570 1_455
Zn13 Zn2 2.688716 1_555
Zn13 Zn37 2.709939 1_555
Zn13 Zn22 2.715253 1_555
Zn13 Zn34 2.718784 1_455
Zn13 Zn31 2.747112 1_555
Zn14 Zn18 2.517793 1_555
Zn14 Zn2 2.581440 1_554
Zn14 Zn41 2.595568 1_555
Zn14 Zn24 2.661576 1_555
Zn14 Zn36 2.709931 1_555
Zn14 Zn23 2.715238 1_555
Zn14 Zn35 2.718777 1_554
Zn14 Zn29 2.747119 1_555
Zn15 Zn17 2.517791 1_555
Zn15 Zn3 2.581440 1_544
Zn15 Zn42 2.595568 1_555
Zn15 Zn24 2.661570 1_545
Zn15 Zn36 2.709939 1_555
Zn15 Zn23 2.715253 1_555
Zn15 Zn35 2.718784 1_544
Zn15 Zn30 2.747112 1_555
Zn16 Zn35 2.618999 1_555
Zn16 Zn2 2.715238 1_555
Zn16 Zn3 2.715253 1_555
Zn16 Zn25 2.747460 1_455
Zn16 Zn26 2.747477 1_455
Zn16 Zn22 2.762938 1_555
Zn16 Zn21 2.762956 1_555
Zn17 Zn34 2.618999 1_555
Zn17 Zn4 2.715253 1_555
Zn17 Zn24 2.747460 1_545
Zn17 Zn27 2.747477 1_545
Zn17 Zn23 2.762938 1_555
Zn17 Zn20 2.762956 1_555
Zn18 Zn33 2.619003 1_555
Zn18 Zn5 2.715253 1_555
Zn18 Zn24 2.747476 1_555
Zn18 Zn27 2.747492 1_555
Zn18 Zn23 2.762919 1_555
Zn18 Zn20 2.762938 1_555
Zn19 Zn9 2.517793 1_555
Zn19 Zn8 2.517808 1_555
Zn19 Zn32 2.619003 1_555
Zn19 Zn6 2.715238 1_555
Zn19 Zn7 2.715253 1_555
Zn19 Zn25 2.747476 1_555
Zn19 Zn26 2.747492 1_555
Zn19 Zn22 2.762919 1_555
Zn19 Zn21 2.762938 1_555
Zn20 Zn5 2.517791 1_555
Zn20 Zn4 2.517806 1_555
Zn20 Zn39 2.618999 1_555
Zn20 Zn29 2.747460 1_655
Zn20 Zn30 2.747477 1_655
Zn21 Zn7 2.517791 1_555
Zn21 Zn3 2.517806 1_555
Zn21 Zn38 2.618999 1_555
Zn21 Zn8 2.715238 1_555
Zn21 Zn28 2.747460 1_565
Zn21 Zn31 2.747477 1_565
Zn22 Zn6 2.517793 1_555
Zn22 Zn37 2.619003 1_555
Zn22 Zn9 2.715238 1_555
Zn22 Zn28 2.747476 1_555
Zn22 Zn31 2.747492 1_555
Zn23 Zn36 2.619003 1_555
Zn23 Zn29 2.747476 1_555
Zn23 Zn30 2.747492 1_555
Zn24 Zn27 2.573552 1_555
Zn24 Zn40 2.611592 1_565
Zn24 Zn34 2.861469 1_565
Zn24 Zn33 2.861474 1_555
Zn25 Zn26 2.573552 1_555
Zn25 Zn41 2.611592 1_656
Zn25 Zn9 2.661576 1_555
Zn25 Zn6 2.747119 1_555
Zn25 Zn35 2.861469 1_655
Zn25 Zn32 2.861474 1_555
Zn26 Zn42 2.611586 1_666
Zn26 Zn8 2.661571 1_555
Zn26 Zn3 2.747105 1_655
Zn26 Zn7 2.747112 1_555
Zn26 Zn35 2.861481 1_655
Zn26 Zn32 2.861485 1_555
Zn27 Zn43 2.611586 1_665
Zn27 Zn4 2.747105 1_565
Zn27 Zn5 2.747112 1_555
Zn27 Zn34 2.861481 1_565
Zn27 Zn33 2.861485 1_555
Zn28 Zn31 2.573552 1_555
Zn28 Zn40 2.611592 1_555
Zn28 Zn7 2.661570 1_545
Zn28 Zn6 2.661576 1_555
Zn28 Zn8 2.747112 1_545
Zn28 Zn9 2.747119 1_555
Zn28 Zn38 2.861469 1_545
Zn28 Zn37 2.861474 1_555
Zn29 Zn30 2.573552 1_555
Zn29 Zn41 2.611592 1_555
Zn29 Zn5 2.661570 1_455
Zn29 Zn39 2.861469 1_455
Zn29 Zn36 2.861474 1_555
Zn30 Zn42 2.611586 1_555
Zn30 Zn4 2.661564 1_455
Zn30 Zn39 2.861481 1_455
Zn30 Zn36 2.861485 1_555
Zn31 Zn43 2.611586 1_555
Zn31 Zn38 2.861481 1_545
Zn31 Zn37 2.861485 1_555
Zn32 Zn41 2.573167 1_656
Zn32 Zn42 2.573175 1_666
Zn32 Zn35 2.660174 1_655
Zn32 Zn6 2.709931 1_555
Zn32 Zn7 2.709939 1_555
Zn33 Zn40 2.573167 1_565
Zn33 Zn43 2.573175 1_665
Zn33 Zn34 2.660174 1_565
Zn33 Zn5 2.709939 1_555
Zn33 Zn8 2.718778 1_555
Zn34 Zn40 2.573167 1_555
Zn34 Zn43 2.573175 1_655
Zn34 Zn4 2.709939 1_555
Zn34 Zn9 2.718777 1_555
Zn35 Zn41 2.573167 1_556
Zn35 Zn42 2.573175 1_566
Zn36 Zn41 2.573167 1_555
Zn36 Zn42 2.573175 1_555
Zn36 Zn39 2.660174 1_455
Zn37 Zn40 2.573167 1_555
Zn37 Zn43 2.573175 1_555
Zn37 Zn38 2.660174 1_545
Zn37 Zn9 2.709931 1_555
Zn37 Zn4 2.718784 1_455
Zn38 Zn40 2.573167 1_565
Zn38 Zn43 2.573175 1_565
Zn38 Zn8 2.709931 1_555
Zn38 Zn5 2.718784 1_455
Zn39 Zn41 2.573167 1_655
Zn39 Zn42 2.573175 1_655
Zn39 Zn6 2.718777 1_554
Zn39 Zn7 2.718784 1_544
Zn40 Zn9 2.595568 1_555
Zn40 Zn8 2.595568 1_545
Zn41 Zn6 2.595568 1_454
Zn42 Zn7 2.595568 1_444
Zn43 Zn5 2.595568 1_445
