# generated using pymatgen
data_Li3V2(CO3)4
_symmetry_space_group_name_H-M   'P 1'
_cell_length_a   9.73308500
_cell_length_b   6.22573100
_cell_length_c   7.82951706
_cell_angle_alpha   87.89646704
_cell_angle_beta   90.00000000
_cell_angle_gamma   90.00000000
_symmetry_Int_Tables_number   1
_chemical_formula_structural   Li3V2(CO3)4
_chemical_formula_sum   'Li6 V4 C8 O24'
_cell_volume   474.11433547
_cell_formula_units_Z   2
loop_
 _symmetry_equiv_pos_site_id
 _symmetry_equiv_pos_as_xyz
  1  'x, y, z'
loop_
 _atom_site_type_symbol
 _atom_site_label
 _atom_site_symmetry_multiplicity
 _atom_site_fract_x
 _atom_site_fract_y
 _atom_site_fract_z
 _atom_site_occupancy
  Li  Li0  1  0.49013400  0.40395100  0.74284400  1
  Li  Li1  1  0.50727800  0.66923000  0.01406500  1
  Li  Li2  1  0.00727800  0.33077000  0.98593500  1
  Li  Li3  1  0.99013400  0.59604900  0.25715600  1
  Li  Li4  1  0.49008700  0.40659200  0.36670200  1
  Li  Li5  1  0.99008700  0.59340800  0.63329800  1
  V  V0  1  0.28198000  0.06984000  0.94999100  1
  V  V1  1  0.78198000  0.93016000  0.05000900  1
  V  V2  1  0.79731900  0.96549200  0.47568900  1
  V  V3  1  0.29731900  0.03450800  0.52431100  1
  C  C0  1  0.03163100  0.10099700  0.70875700  1
  C  C1  1  0.53163100  0.89900300  0.29124300  1
  C  C2  1  0.55939200  0.98398300  0.75630700  1
  C  C3  1  0.74934200  0.43419900  0.00535100  1
  C  C4  1  0.24934200  0.56580100  0.99464900  1
  C  C5  1  0.05939200  0.01601700  0.24369300  1
  C  C6  1  0.24893300  0.54746300  0.50155900  1
  C  C7  1  0.74893300  0.45253700  0.49844100  1
  O  O0  1  0.94082100  0.95616400  0.66888500  1
  O  O1  1  0.43356700  0.06575300  0.73699100  1
  O  O2  1  0.00289800  0.29302800  0.74005100  1
  O  O3  1  0.16041900  0.03017100  0.72500100  1
  O  O4  1  0.59717000  0.92777400  0.90779100  1
  O  O5  1  0.62704900  0.44698300  0.94576100  1
  O  O6  1  0.31817100  0.39815400  0.94254200  1
  O  O7  1  0.31659900  0.74505500  0.98115400  1
  O  O8  1  0.81659900  0.25494500  0.01884600  1
  O  O9  1  0.81817100  0.60184600  0.05745800  1
  O  O10  1  0.12704900  0.55301700  0.05423900  1
  O  O11  1  0.09717000  0.07222600  0.09220900  1
  O  O12  1  0.66041900  0.96982900  0.27499900  1
  O  O13  1  0.93356700  0.93424700  0.26300900  1
  O  O14  1  0.44082100  0.04383600  0.33111500  1
  O  O15  1  0.50289800  0.70697200  0.25994900  1
  O  O16  1  0.13287800  0.03221600  0.37609100  1
  O  O17  1  0.12377100  0.55511600  0.45465200  1
  O  O18  1  0.82024800  0.63397500  0.49540600  1
  O  O19  1  0.81695300  0.28738300  0.44714400  1
  O  O20  1  0.31695300  0.71261700  0.55285600  1
  O  O21  1  0.32024800  0.36602500  0.50459400  1
  O  O22  1  0.62377100  0.44488400  0.54534800  1
  O  O23  1  0.63287800  0.96778400  0.62390900  1
loop_
_geom_bond_atom_site_label_1
_geom_bond_atom_site_label_2
_geom_bond_distance
_geom_bond_site_symmetry_2
Li0 O22 2.029501 1_555
Li0 O5 2.098323 1_555
Li0 O1 2.178432 1_555
Li0 O6 2.289801 1_555
Li0 O21 2.510348 1_555
Li1 O5 1.900989 1_554
Li1 O7 1.929938 1_554
Li1 O15 1.948448 1_555
Li1 O4 1.987566 1_554
Li2 O10 1.900989 1_556
Li2 O8 1.929938 1_456
Li2 O2 1.948448 1_555
Li2 O11 1.987566 1_556
Li3 O17 2.029501 1_655
Li3 O10 2.098323 1_655
Li3 O13 2.178432 1_555
Li3 O9 2.289801 1_555
Li3 O18 2.510348 1_555
Li4 O22 1.931507 1_555
Li4 O21 1.985438 1_555
Li4 O15 2.024012 1_555
Li4 O14 2.335428 1_555
Li5 O17 1.931507 1_655
Li5 O18 1.985438 1_555
Li5 O2 2.024012 1_655
Li5 O0 2.335428 1_555
C0 O2 1.260574 1_555
C0 O0 1.308579 1_445
C0 O3 1.333328 1_555
C1 O15 1.260574 1_555
C1 O14 1.308579 1_565
C1 O12 1.333328 1_555
C2 O23 1.266486 1_555
C2 O4 1.278240 1_555
C2 O1 1.332736 1_565
C3 O5 1.279872 1_554
C3 O8 1.294782 1_555
C3 O9 1.317518 1_555
C4 O10 1.279872 1_556
C4 O7 1.294782 1_555
C4 O6 1.317518 1_555
C5 O16 1.266486 1_555
C5 O11 1.278240 1_555
C5 O13 1.332736 1_445
C6 O17 1.272755 1_555
C6 O20 1.298896 1_555
C6 O21 1.325274 1_555
C7 O22 1.272755 1_555
C7 O19 1.298896 1_555
C7 O18 1.325274 1_555
O0 V2 2.058105 1_555
O1 V3 2.143134 1_555
O1 V0 2.227504 1_555
O3 V3 2.059627 1_555
O3 V0 2.143808 1_555
O4 V1 2.115867 1_556
O6 V0 2.072835 1_555
O7 V0 2.055585 1_565
O8 V1 2.055585 1_545
O9 V1 2.072835 1_555
O11 V0 2.115867 1_554
O12 V2 2.059627 1_555
O12 V1 2.143808 1_555
O13 V2 2.143134 1_555
O13 V1 2.227504 1_555
O14 V3 2.058105 1_555
O16 V3 1.977326 1_555
O18 V2 2.076072 1_555
O19 V2 2.017333 1_545
O20 V3 2.017333 1_565
O21 V3 2.076072 1_555
O23 V2 1.977326 1_555
