# generated using pymatgen
data_V2P3O11
_symmetry_space_group_name_H-M   'P 1'
_cell_length_a   7.28427203
_cell_length_b   7.29437635
_cell_length_c   8.96040084
_cell_angle_alpha   70.75657846
_cell_angle_beta   109.20460581
_cell_angle_gamma   108.14896130
_symmetry_Int_Tables_number   1
_chemical_formula_structural   V2P3O11
_chemical_formula_sum   'V4 P6 O22'
_cell_volume   413.33016928
_cell_formula_units_Z   2
loop_
 _symmetry_equiv_pos_site_id
 _symmetry_equiv_pos_as_xyz
  1  'x, y, z'
loop_
 _atom_site_type_symbol
 _atom_site_label
 _atom_site_symmetry_multiplicity
 _atom_site_fract_x
 _atom_site_fract_y
 _atom_site_fract_z
 _atom_site_occupancy
  V  V0  1  0.11064500  0.36684300  0.95895500  1
  V  V1  1  0.36593500  0.11098900  0.54113100  1
  V  V2  1  0.64063400  0.88681800  0.46078300  1
  V  V3  1  0.88762600  0.64095100  0.03929200  1
  P  P0  1  0.03982100  0.04023800  0.74975100  1
  P  P1  1  0.45778200  0.67195300  0.78847700  1
  P  P2  1  0.32732100  0.54434100  0.29101100  1
  P  P3  1  0.67172400  0.45728000  0.71117800  1
  P  P4  1  0.54410500  0.32730600  0.20934600  1
  P  P5  1  0.96089000  0.96054300  0.25014900  1
  O  O0  1  0.00784100  0.85543400  0.89836200  1
  O  O1  1  0.04233600  0.22963500  0.78632900  1
  O  O2  1  0.13670600  0.97862600  0.39827700  1
  O  O3  1  0.25778200  0.61747800  0.82708300  1
  O  O4  1  0.22930600  0.04213100  0.71321600  1
  O  O5  1  0.15326100  0.54282700  0.13161800  1
  O  O6  1  0.47107000  0.84288100  0.63011500  1
  O  O7  1  0.27561300  0.37247600  0.43136200  1
  O  O8  1  0.63429600  0.72001800  0.93220300  1
  O  O9  1  0.48134700  0.48125000  0.75013400  1
  O  O10  1  0.39703900  0.74829700  0.33027300  1
  O  O11  1  0.61718100  0.25767700  0.67299600  1
  O  O12  1  0.51582800  0.51596100  0.24991700  1
  O  O13  1  0.37193400  0.27610500  0.06870600  1
  O  O14  1  0.72028000  0.63398800  0.56772900  1
  O  O15  1  0.54189100  0.15354100  0.36876400  1
  O  O16  1  0.97951400  0.13660700  0.10201000  1
  O  O17  1  0.76466400  0.94717900  0.29188500  1
  O  O18  1  0.74837000  0.39709400  0.16975400  1
  O  O19  1  0.85566000  0.00733000  0.60133100  1
  O  O20  1  0.94729900  0.76444600  0.20831500  1
  O  O21  1  0.84315900  0.47062400  0.86954300  1
loop_
_geom_bond_atom_site_label_1
_geom_bond_atom_site_label_2
_geom_bond_distance
_geom_bond_site_symmetry_2
O0 P0 1.571578 1_565
O0 V3 1.838719 1_456
O1 P0 1.514974 1_555
O1 V0 1.961054 1_555
O2 P5 1.520237 1_455
O2 V1 1.939836 1_565
O3 P1 1.510062 1_555
O3 V0 2.018879 1_555
O4 P0 1.514891 1_555
O4 V1 1.951428 1_555
O5 P2 1.567758 1_555
O5 V3 2.088092 1_455
O5 V0 2.209696 1_554
O6 P1 1.557694 1_555
O6 V1 2.133166 1_565
O6 V2 2.143883 1_555
O7 P2 1.507745 1_555
O7 V1 2.039077 1_555
O8 P1 1.536911 1_555
O8 V3 1.947286 1_556
O9 P1 1.607836 1_555
O9 P3 1.607872 1_555
O10 P2 1.533557 1_555
O10 V2 1.958020 1_555
O11 P3 1.507756 1_555
O11 V1 2.020198 1_555
O12 P4 1.619843 1_555
O12 P2 1.619849 1_555
O13 P4 1.509674 1_555
O13 V0 2.037670 1_554
O14 P3 1.536776 1_555
O14 V2 1.947297 1_555
O15 P4 1.567246 1_555
O15 V2 2.099209 1_545
O15 V1 2.205228 1_555
O16 P5 1.521826 1_545
O16 V0 1.939870 1_654
O17 P5 1.559894 1_555
O17 V2 1.874289 1_555
O18 P4 1.534688 1_555
O18 V3 1.960859 1_555
O19 P0 1.569063 1_655
O19 V2 1.840197 1_545
O20 P5 1.561145 1_555
O20 V3 1.875216 1_555
O21 P3 1.559503 1_555
O21 V0 2.122146 1_655
O21 V3 2.152412 1_556
