# generated using pymatgen
data_MgMo2P2O9
_symmetry_space_group_name_H-M   'P 1'
_cell_length_a   6.65639200
_cell_length_b   7.22830100
_cell_length_c   14.91539200
_cell_angle_alpha   90.00000000
_cell_angle_beta   90.00000000
_cell_angle_gamma   90.00000000
_symmetry_Int_Tables_number   1
_chemical_formula_structural   MgMo2P2O9
_chemical_formula_sum   'Mg4 Mo8 P8 O36'
_cell_volume   717.64521068
_cell_formula_units_Z   4
loop_
 _symmetry_equiv_pos_site_id
 _symmetry_equiv_pos_as_xyz
  1  'x, y, z'
loop_
 _atom_site_type_symbol
 _atom_site_label
 _atom_site_symmetry_multiplicity
 _atom_site_fract_x
 _atom_site_fract_y
 _atom_site_fract_z
 _atom_site_occupancy
  Mg  Mg0  1  0.75000000  0.92827400  0.77064000  1
  Mg  Mg1  1  0.75000000  0.57172600  0.27064000  1
  Mg  Mg2  1  0.25000000  0.42827400  0.72936000  1
  Mg  Mg3  1  0.25000000  0.07172600  0.22936000  1
  Mo  Mo0  1  0.75000000  0.37117700  0.87589500  1
  Mo  Mo1  1  0.25000000  0.62882300  0.12410500  1
  Mo  Mo2  1  0.25000000  0.87117700  0.62410500  1
  Mo  Mo3  1  0.75000000  0.12882300  0.37589500  1
  Mo  Mo4  1  0.50000000  0.00000000  0.00000000  1
  Mo  Mo5  1  0.50000000  0.50000000  0.50000000  1
  Mo  Mo6  1  0.00000000  0.50000000  0.50000000  1
  Mo  Mo7  1  0.00000000  0.00000000  0.00000000  1
  P  P0  1  0.25000000  0.37845600  0.92093100  1
  P  P1  1  0.75000000  0.62154400  0.07906900  1
  P  P2  1  0.75000000  0.87845600  0.57906900  1
  P  P3  1  0.25000000  0.12154400  0.42093100  1
  P  P4  1  0.75000000  0.39753400  0.69161200  1
  P  P5  1  0.75000000  0.10246600  0.19161200  1
  P  P6  1  0.25000000  0.89753400  0.80838800  1
  P  P7  1  0.25000000  0.60246600  0.30838800  1
  O  O0  1  0.05066600  0.60378700  0.36326500  1
  O  O1  1  0.55066600  0.39621300  0.63673500  1
  O  O2  1  0.94933400  0.10378700  0.13673500  1
  O  O3  1  0.44933400  0.89621300  0.86326500  1
  O  O4  1  0.94933400  0.39621300  0.63673500  1
  O  O5  1  0.44933400  0.60378700  0.36326500  1
  O  O6  1  0.05066600  0.89621300  0.86326500  1
  O  O7  1  0.55066600  0.10378700  0.13673500  1
  O  O8  1  0.25000000  0.31353000  0.47059700  1
  O  O9  1  0.75000000  0.68647000  0.52940300  1
  O  O10  1  0.75000000  0.81353000  0.02940300  1
  O  O11  1  0.25000000  0.18647000  0.97059700  1
  O  O12  1  0.75000000  0.11432600  0.93477100  1
  O  O13  1  0.25000000  0.88567400  0.06522900  1
  O  O14  1  0.25000000  0.61432600  0.56522900  1
  O  O15  1  0.75000000  0.38567400  0.43477100  1
  O  O16  1  0.75000000  0.21807800  0.75154700  1
  O  O17  1  0.25000000  0.78192200  0.24845300  1
  O  O18  1  0.25000000  0.71807800  0.74845300  1
  O  O19  1  0.75000000  0.28192200  0.25154700  1
  O  O20  1  0.42932400  0.11237000  0.35456900  1
  O  O21  1  0.92932400  0.88763000  0.64543100  1
  O  O22  1  0.57067600  0.61237000  0.14543100  1
  O  O23  1  0.07067600  0.38763000  0.85456900  1
  O  O24  1  0.57067600  0.88763000  0.64543100  1
  O  O25  1  0.07067600  0.11237000  0.35456900  1
  O  O26  1  0.42932400  0.38763000  0.85456900  1
  O  O27  1  0.92932400  0.61237000  0.14543100  1
  O  O28  1  0.75000000  0.47022600  0.00976900  1
  O  O29  1  0.25000000  0.06358300  0.74096300  1
  O  O30  1  0.25000000  0.43641700  0.24096300  1
  O  O31  1  0.75000000  0.56358300  0.75903700  1
  O  O32  1  0.75000000  0.02977400  0.50976900  1
  O  O33  1  0.25000000  0.97022600  0.49023100  1
  O  O34  1  0.25000000  0.52977400  0.99023100  1
  O  O35  1  0.75000000  0.93641700  0.25903700  1
loop_
_geom_bond_atom_site_label_1
_geom_bond_atom_site_label_2
_geom_bond_distance
_geom_bond_site_symmetry_2
Mg0 O16 2.114059 1_565
Mg0 O21 2.235805 1_555
Mg0 O24 2.235805 1_555
Mg0 O6 2.442900 1_655
Mg0 O3 2.442900 1_555
Mg0 O31 2.641771 1_555
Mg1 O19 2.114059 1_555
Mg1 O27 2.235805 1_555
Mg1 O22 2.235805 1_555
Mg1 O0 2.442900 1_655
Mg1 O5 2.442900 1_555
Mg1 O35 2.641771 1_555
Mg2 O18 2.114059 1_555
Mg2 O26 2.235805 1_555
Mg2 O23 2.235805 1_555
Mg2 O1 2.442900 1_555
Mg2 O4 2.442900 1_455
Mg2 O29 2.641771 1_555
Mg3 O17 2.114059 1_545
Mg3 O25 2.235805 1_555
Mg3 O20 2.235805 1_555
Mg3 O7 2.442900 1_555
Mg3 O2 2.442900 1_455
Mg3 O30 2.641771 1_555
Mo0 O12 2.053804 1_555
Mo0 O28 2.121258 1_556
Mo0 O16 2.159762 1_555
Mo0 O23 2.161390 1_655
Mo0 O26 2.161390 1_555
Mo0 O31 2.229849 1_555
Mo1 O13 2.053804 1_555
Mo1 O34 2.121258 1_554
Mo1 O17 2.159762 1_555
Mo1 O22 2.161390 1_555
Mo1 O27 2.161390 1_455
Mo1 O30 2.229849 1_555
Mo2 O14 2.053804 1_555
Mo2 O33 2.121258 1_555
Mo2 O18 2.159762 1_555
Mo2 O24 2.161390 1_555
Mo2 O21 2.161390 1_455
Mo2 O29 2.229849 1_565
Mo3 O15 2.053804 1_555
Mo3 O32 2.121258 1_555
Mo3 O19 2.159762 1_555
Mo3 O25 2.161390 1_655
Mo3 O20 2.161390 1_555
Mo3 O35 2.229849 1_545
Mo4 O13 2.097307 1_545
Mo4 O12 2.097307 1_554
Mo4 O10 2.185929 1_545
Mo4 O11 2.185929 1_554
Mo4 O7 2.199074 1_555
Mo4 O3 2.199074 1_544
Mo5 O14 2.097307 1_555
Mo5 O15 2.097307 1_555
Mo5 O9 2.185929 1_555
Mo5 O8 2.185929 1_555
Mo5 O1 2.199074 1_555
Mo5 O5 2.199074 1_555
Mo6 O14 2.097307 1_555
Mo6 O15 2.097307 1_455
Mo6 O9 2.185929 1_455
Mo6 O8 2.185929 1_555
Mo6 O4 2.199074 1_455
Mo6 O0 2.199074 1_555
Mo7 O13 2.097307 1_545
Mo7 O12 2.097307 1_454
Mo7 O10 2.185929 1_445
Mo7 O11 2.185929 1_554
Mo7 O2 2.199074 1_455
Mo7 O6 2.199074 1_544
O0 P7 1.559029 1_555
O1 P4 1.559029 1_555
O2 P5 1.559029 1_555
O3 P6 1.559029 1_555
O4 P4 1.559029 1_555
O5 P7 1.559029 1_555
O6 P6 1.559029 1_555
O7 P5 1.559029 1_555
O8 P3 1.573076 1_555
O9 P2 1.573076 1_555
O10 P1 1.573076 1_555
O11 P0 1.573076 1_555
O16 P4 1.575368 1_555
O17 P7 1.575368 1_555
O18 P6 1.575368 1_555
O19 P5 1.575368 1_555
O20 P3 1.552074 1_555
O21 P2 1.552074 1_555
O22 P1 1.552074 1_555
O23 P0 1.552074 1_555
O24 P2 1.552074 1_555
O25 P3 1.552074 1_555
O26 P0 1.552074 1_555
O27 P1 1.552074 1_555
O28 P1 1.504906 1_555
O29 P6 1.565879 1_545
O30 P7 1.565879 1_555
O31 P4 1.565879 1_555
O32 P2 1.504906 1_545
O33 P3 1.504906 1_565
O34 P0 1.504906 1_555
O35 P5 1.565879 1_565
