# generated using pymatgen
data_Y8Cu3(GeS7)3
_symmetry_space_group_name_H-M   'P 1'
_cell_length_a   9.84123889
_cell_length_b   9.81806317
_cell_length_c   17.68645244
_cell_angle_alpha   90.00000000
_cell_angle_beta   90.00000000
_cell_angle_gamma   119.83668121
_symmetry_Int_Tables_number   1
_chemical_formula_structural   Y8Cu3(GeS7)3
_chemical_formula_sum   'Y16 Cu6 Ge6 S42'
_cell_volume   1482.37926155
_cell_formula_units_Z   2
loop_
 _symmetry_equiv_pos_site_id
 _symmetry_equiv_pos_as_xyz
  1  'x, y, z'
loop_
 _atom_site_type_symbol
 _atom_site_label
 _atom_site_symmetry_multiplicity
 _atom_site_fract_x
 _atom_site_fract_y
 _atom_site_fract_z
 _atom_site_occupancy
  Y  Y0  1  0.13159339  0.77257015  0.24812558  1
  Y  Y1  1  0.13559258  0.77214716  0.58332446  1
  Y  Y2  1  0.77593527  0.63953298  0.08366165  1
  Y  Y3  1  0.76898368  0.63344777  0.41807555  1
  Y  Y4  1  0.77676263  0.63864982  0.75461752  1
  Y  Y5  1  0.35508129  0.12539145  0.08241644  1
  Y  Y6  1  0.36842850  0.13792664  0.41944302  1
  Y  Y7  1  0.36065303  0.13006881  0.75430887  1
  Y  Y8  1  0.63934697  0.86993119  0.25430887  1
  Y  Y9  1  0.64491871  0.87460855  0.58241644  1
  Y  Y10  1  0.63157150  0.86207336  0.91944302  1
  Y  Y11  1  0.86440742  0.22785284  0.08332446  1
  Y  Y12  1  0.86840661  0.22742985  0.74812558  1
  Y  Y13  1  0.22323737  0.36135018  0.25461752  1
  Y  Y14  1  0.22406473  0.36046702  0.58366165  1
  Y  Y15  1  0.23101632  0.36655223  0.91807555  1
  Cu  Cu0  1  0.99947130  0.99848964  0.06587571  1
  Cu  Cu1  1  0.99613999  0.00931068  0.39850332  1
  Cu  Cu2  1  0.00082602  0.00326534  0.72887099  1
  Cu  Cu3  1  0.99917398  0.99673466  0.22887099  1
  Cu  Cu4  1  0.00052870  0.00151036  0.56587571  1
  Cu  Cu5  1  0.00386001  0.99068932  0.89850332  1
  Ge  Ge0  1  0.67205714  0.33207002  0.27847228  1
  Ge  Ge1  1  0.66347453  0.33476307  0.60767689  1
  Ge  Ge2  1  0.66923107  0.33320767  0.94537952  1
  Ge  Ge3  1  0.33652547  0.66523693  0.10767689  1
  Ge  Ge4  1  0.33076893  0.66679233  0.44537952  1
  Ge  Ge5  1  0.32794286  0.66792998  0.77847228  1
  S  S0  1  0.48250849  0.57967884  0.16703930  1
  S  S1  1  0.48202975  0.58104305  0.49786006  1
  S  S2  1  0.48209277  0.58128190  0.83044903  1
  S  S3  1  0.90481983  0.48817268  0.33037399  1
  S  S4  1  0.89986344  0.48163278  0.66326812  1
  S  S5  1  0.90297092  0.48137532  0.99604922  1
  S  S6  1  0.90182554  0.15786357  0.23247440  1
  S  S7  1  0.90697176  0.16276549  0.58127149  1
  S  S8  1  0.90521794  0.15532839  0.90334953  1
  S  S9  1  0.09302824  0.83723451  0.08127149  1
  S  S10  1  0.09478206  0.84467161  0.40334953  1
  S  S11  1  0.09817446  0.84213643  0.73247440  1
  S  S12  1  0.10013656  0.51836722  0.16326812  1
  S  S13  1  0.09702908  0.51862468  0.49604922  1
  S  S14  1  0.09518017  0.51182732  0.83037399  1
  S  S15  1  0.33364036  0.66888625  0.31954916  1
  S  S16  1  0.33454530  0.66734230  0.65226359  1
  S  S17  1  0.33481897  0.66526545  0.98477842  1
  S  S18  1  0.74077123  0.90146669  0.07031117  1
  S  S19  1  0.74009309  0.89558486  0.40517379  1
  S  S20  1  0.74198960  0.89906287  0.73774455  1
  S  S21  1  0.66545470  0.33265770  0.15226359  1
  S  S22  1  0.66518103  0.33473455  0.48477842  1
  S  S23  1  0.66635964  0.33111375  0.81954916  1
  S  S24  1  0.56918399  0.09103476  0.32687711  1
  S  S25  1  0.58029521  0.09939846  0.66369674  1
  S  S26  1  0.57780468  0.09457821  0.99685660  1
  S  S27  1  0.25801040  0.10093713  0.23774455  1
  S  S28  1  0.25922877  0.09853331  0.57031117  1
  S  S29  1  0.25990691  0.10441514  0.90517379  1
  S  S30  1  0.15947640  0.25768084  0.07010209  1
  S  S31  1  0.16630952  0.25889431  0.40697152  1
  S  S32  1  0.16418204  0.25964258  0.73926134  1
  S  S33  1  0.41970479  0.90060154  0.16369674  1
  S  S34  1  0.42219532  0.90542179  0.49685660  1
  S  S35  1  0.43081601  0.90896524  0.82687711  1
  S  S36  1  0.83581796  0.74035742  0.23926134  1
  S  S37  1  0.84052360  0.74231916  0.57010209  1
  S  S38  1  0.83369048  0.74110569  0.90697152  1
  S  S39  1  0.51790723  0.41871810  0.33044903  1
  S  S40  1  0.51749151  0.42032116  0.66703930  1
  S  S41  1  0.51797025  0.41895695  0.99786006  1
loop_
_geom_bond_atom_site_label_1
_geom_bond_atom_site_label_2
_geom_bond_distance
_geom_bond_site_symmetry_2
Cu0 S9 2.208827 1_655
Cu0 S30 2.230155 1_665
Cu0 S18 2.232062 1_555
Cu0 Y5 3.089767 1_665
Cu0 Y2 3.105508 1_555
Cu0 Y11 3.148252 1_565
Cu1 S31 2.179031 1_655
Cu1 S19 2.193281 1_545
Cu1 S10 2.263627 1_645
Cu2 S32 2.219811 1_555
Cu2 S11 2.220948 1_545
Cu2 S20 2.228617 1_445
Cu2 Y4 3.167023 1_445
Cu3 S36 2.219811 1_555
Cu3 S6 2.220948 1_565
Cu3 S27 2.228617 1_665
Cu3 Y13 3.167023 1_665
Cu4 S7 2.208827 1_455
Cu4 S37 2.230155 1_445
Cu4 S28 2.232062 1_555
Cu4 Y9 3.089767 1_445
Cu4 Y14 3.105508 1_555
Cu4 Y1 3.148252 1_545
Cu5 S38 2.179031 1_455
Cu5 S29 2.193281 1_565
Cu5 S8 2.263627 1_465
Ge0 S3 2.223820 1_555
Ge0 S24 2.230290 1_555
Ge0 S21 2.233220 1_555
Ge0 S39 2.270320 1_555
Ge1 S22 2.173704 1_555
Ge1 S40 2.252278 1_555
Ge1 S25 2.260398 1_555
Ge1 S4 2.262735 1_555
Ge2 S5 2.209279 1_555
Ge2 S23 2.225637 1_555
Ge2 S26 2.242757 1_555
Ge2 S41 2.243498 1_555
Ge3 S17 2.173704 1_554
Ge3 S0 2.252278 1_555
Ge3 S33 2.260398 1_555
Ge3 S12 2.262735 1_555
Ge4 S13 2.209279 1_555
Ge4 S15 2.225637 1_555
Ge4 S34 2.242757 1_555
Ge4 S1 2.243498 1_555
Ge5 S14 2.223820 1_555
Ge5 S35 2.230290 1_555
Ge5 S16 2.233220 1_555
Ge5 S2 2.270320 1_555
S0 Y13 2.839388 1_555
S0 Y8 2.916989 1_555
S0 Y2 3.028215 1_555
S1 Y14 2.822606 1_555
S1 Y9 2.918231 1_555
S1 Y3 2.963953 1_555
S2 Y15 2.787183 1_555
S2 Y10 2.864635 1_555
S2 Y4 2.983331 1_555
S3 Y3 2.850385 1_555
S3 Y0 2.948316 1_655
S4 Y12 2.794356 1_555
S4 Y4 2.883205 1_555
S4 Y1 2.988690 1_655
S5 Y11 2.789684 1_556
S5 Y2 2.882183 1_556
S6 Y8 2.747174 1_545
S6 Y11 2.796117 1_555
S6 Y13 2.803884 1_655
S7 Y9 2.719416 1_545
S7 Y14 2.735003 1_655
S7 Y12 3.081495 1_555
S8 Y10 2.812068 1_545
S8 Y15 2.834132 1_655
S8 Y12 2.902507 1_555
S8 Y11 3.329433 1_556
S9 Y5 2.719416 1_565
S9 Y2 2.735003 1_455
S9 Y0 3.081495 1_555
S10 Y6 2.812068 1_565
S10 Y3 2.834132 1_455
S10 Y0 2.902507 1_555
S10 Y1 3.329433 1_555
S11 Y7 2.747174 1_565
S11 Y1 2.796117 1_555
S11 Y4 2.803884 1_455
S12 Y0 2.794356 1_555
S12 Y13 2.883205 1_555
S12 Y11 2.988690 1_455
S13 Y1 2.789684 1_555
S13 Y14 2.882183 1_555
S14 Y15 2.850385 1_555
S14 Y12 2.948316 1_455
S15 Y13 2.889944 1_555
S15 Y8 2.893049 1_555
S15 Y0 2.932552 1_555
S16 Y1 2.895467 1_555
S16 Y14 2.910728 1_555
S16 Y9 2.968480 1_555
S17 Y10 2.825356 1_555
S17 Y15 2.838202 1_555
S18 Y2 2.770309 1_555
S18 Y11 2.814671 1_565
S18 Y10 2.830343 1_554
S18 Y8 3.372667 1_555
S19 Y3 2.735847 1_555
S19 Y8 2.813823 1_555
S19 Y9 3.248797 1_555
S20 Y4 2.759305 1_555
S20 Y12 2.825621 1_565
S20 Y9 2.879086 1_555
S20 Y10 3.353692 1_555
S21 Y11 2.895467 1_555
S21 Y2 2.910728 1_555
S21 Y5 2.968480 1_555
S22 Y6 2.825356 1_555
S22 Y3 2.838202 1_555
S23 Y4 2.889944 1_555
S23 Y7 2.893049 1_555
S23 Y12 2.932552 1_555
S24 Y6 2.775007 1_555
S24 Y8 2.885830 1_545
S25 Y7 2.824713 1_555
S25 Y12 2.881443 1_555
S25 Y9 2.956106 1_545
S26 Y5 2.800997 1_556
S26 Y11 2.886850 1_556
S26 Y10 2.927021 1_545
S27 Y13 2.759305 1_555
S27 Y0 2.825621 1_545
S27 Y5 2.879086 1_555
S27 Y6 3.353692 1_555
S28 Y14 2.770309 1_555
S28 Y1 2.814671 1_545
S28 Y6 2.830343 1_555
S28 Y7 3.372667 1_555
S29 Y15 2.735847 1_555
S29 Y7 2.813823 1_555
S29 Y5 3.248797 1_556
S30 Y11 2.779670 1_455
S30 Y5 2.815646 1_555
S30 Y15 2.849403 1_554
S30 Y13 3.382918 1_555
S31 Y6 2.786836 1_555
S31 Y13 2.832993 1_555
S31 Y14 3.243348 1_555
S32 Y12 2.771516 1_455
S32 Y7 2.806300 1_555
S32 Y14 2.884485 1_555
S32 Y15 3.293837 1_555
S33 Y8 2.824713 1_555
S33 Y0 2.881443 1_555
S33 Y5 2.956106 1_565
S34 Y9 2.800997 1_555
S34 Y1 2.886850 1_555
S34 Y6 2.927021 1_565
S35 Y10 2.775007 1_555
S35 Y7 2.885830 1_565
S36 Y0 2.771516 1_655
S36 Y8 2.806300 1_555
S36 Y2 2.884485 1_555
S36 Y3 3.293837 1_555
S37 Y1 2.779670 1_655
S37 Y9 2.815646 1_555
S37 Y3 2.849403 1_555
S37 Y4 3.382918 1_555
S38 Y10 2.786836 1_555
S38 Y4 2.832993 1_555
S38 Y2 3.243348 1_556
S39 Y3 2.787183 1_555
S39 Y6 2.864635 1_555
S39 Y13 2.983331 1_555
S40 Y4 2.839388 1_555
S40 Y7 2.916989 1_555
S40 Y14 3.028215 1_555
S41 Y2 2.822606 1_556
S41 Y5 2.918231 1_556
S41 Y15 2.963953 1_555
