# generated using pymatgen
data_Ca2ScTaO6
_symmetry_space_group_name_H-M   'P 1'
_cell_length_a   5.71291700
_cell_length_b   5.53344500
_cell_length_c   9.67508376
_cell_angle_alpha   55.07507247
_cell_angle_beta   90.00000000
_cell_angle_gamma   90.00000000
_symmetry_Int_Tables_number   1
_chemical_formula_structural   Ca2ScTaO6
_chemical_formula_sum   'Ca4 Sc2 Ta2 O12'
_cell_volume   250.76715647
_cell_formula_units_Z   2
loop_
 _symmetry_equiv_pos_site_id
 _symmetry_equiv_pos_as_xyz
  1  'x, y, z'
loop_
 _atom_site_type_symbol
 _atom_site_label
 _atom_site_symmetry_multiplicity
 _atom_site_fract_x
 _atom_site_fract_y
 _atom_site_fract_z
 _atom_site_occupancy
  Ca  Ca0  1  0.44834700  0.23634900  0.75042300  1
  Ca  Ca1  1  0.55165300  0.76365100  0.24957700  1
  Ca  Ca2  1  0.94834700  0.76365100  0.74957700  1
  Ca  Ca3  1  0.05165300  0.23634900  0.25042300  1
  Sc  Sc0  1  0.00000000  0.00000000  0.00000000  1
  Sc  Sc1  1  0.50000000  0.00000000  0.50000000  1
  Ta  Ta0  1  0.00000000  0.50000000  0.50000000  1
  Ta  Ta1  1  0.50000000  0.50000000  0.00000000  1
  O  O0  1  0.03291800  0.35516900  0.74280300  1
  O  O1  1  0.96708200  0.64483100  0.25719700  1
  O  O2  1  0.53291800  0.64483100  0.75719700  1
  O  O3  1  0.46708200  0.35516900  0.24280300  1
  O  O4  1  0.69676200  0.84176300  0.94974500  1
  O  O5  1  0.30323800  0.15823700  0.05025500  1
  O  O6  1  0.19676200  0.15823700  0.55025500  1
  O  O7  1  0.80323800  0.84176300  0.44974500  1
  O  O8  1  0.21039900  0.74719100  0.94653500  1
  O  O9  1  0.78960100  0.25280900  0.05346500  1
  O  O10  1  0.71039900  0.25280900  0.55346500  1
  O  O11  1  0.28960100  0.74719100  0.44653500  1
loop_
_geom_bond_atom_site_label_1
_geom_bond_atom_site_label_2
_geom_bond_distance
_geom_bond_site_symmetry_2
Ca0 O2 2.348693 1_555
Ca0 O4 2.383092 1_545
Ca0 O10 2.383710 1_555
Ca0 O0 2.452514 1_555
Ca0 O8 2.625634 1_545
Ca0 O6 2.638492 1_555
Ca0 O5 2.802429 1_556
Ca0 O11 2.818005 1_555
Ca1 O3 2.348693 1_555
Ca1 O5 2.383092 1_565
Ca1 O11 2.383710 1_555
Ca1 O1 2.452514 1_555
Ca1 O9 2.625634 1_565
Ca1 O7 2.638492 1_555
Ca1 O4 2.802429 1_554
Ca1 O10 2.818005 1_555
Ca2 O0 2.348693 1_655
Ca2 O6 2.383092 1_665
Ca2 O8 2.383710 1_655
Ca2 O2 2.452514 1_555
Ca2 O10 2.625634 1_565
Ca2 O4 2.638492 1_555
Ca2 O7 2.802429 1_555
Ca2 O9 2.818005 1_556
Ca3 O1 2.348693 1_455
Ca3 O7 2.383092 1_445
Ca3 O9 2.383710 1_455
Ca3 O3 2.452514 1_555
Ca3 O11 2.625634 1_545
Ca3 O5 2.638492 1_555
Ca3 O6 2.802429 1_555
Ca3 O8 2.818005 1_554
O0 Ta0 2.010090 1_555
O0 Sc0 2.119039 1_556
O1 Ta0 2.010090 1_655
O1 Sc0 2.119039 1_665
O2 Ta1 2.010090 1_556
O2 Sc1 2.119039 1_565
O3 Ta1 2.010090 1_555
O3 Sc1 2.119039 1_555
O4 Ta1 2.005866 1_556
O4 Sc0 2.119355 1_666
O5 Ta1 2.005866 1_555
O5 Sc0 2.119355 1_555
O6 Ta0 2.005866 1_555
O6 Sc1 2.119355 1_555
O7 Ta0 2.005866 1_655
O7 Sc1 2.119355 1_565
O8 Ta1 2.016339 1_556
O8 Sc0 2.120813 1_566
O9 Ta1 2.016339 1_555
O9 Sc0 2.120813 1_655
O10 Ta0 2.016339 1_655
O10 Sc1 2.120813 1_555
O11 Ta0 2.016339 1_555
O11 Sc1 2.120813 1_565
