# generated using pymatgen
data_Rb2Ba8Ca(Sb3O)2
_symmetry_space_group_name_H-M   'P 1'
_cell_length_a   9.39343808
_cell_length_b   9.39343781
_cell_length_c   10.68779830
_cell_angle_alpha   114.45165207
_cell_angle_beta   114.45165375
_cell_angle_gamma   93.32941369
_symmetry_Int_Tables_number   1
_chemical_formula_structural   Rb2Ba8Ca(Sb3O)2
_chemical_formula_sum   'Rb2 Ba8 Ca1 Sb6 O2'
_cell_volume   750.93414038
_cell_formula_units_Z   1
loop_
 _symmetry_equiv_pos_site_id
 _symmetry_equiv_pos_as_xyz
  1  'x, y, z'
loop_
 _atom_site_type_symbol
 _atom_site_label
 _atom_site_symmetry_multiplicity
 _atom_site_fract_x
 _atom_site_fract_y
 _atom_site_fract_z
 _atom_site_occupancy
  Rb  Rb0  1  0.98377100  0.00766700  0.00000000  1
  Rb  Rb1  1  0.50766700  0.48377100  0.00000000  1
  Ba  Ba0  1  0.49519200  0.68409900  0.69883500  1
  Ba  Ba1  1  0.18409900  0.99519200  0.69883500  1
  Ba  Ba2  1  0.79635700  0.98526500  0.30116500  1
  Ba  Ba3  1  0.96991500  0.46991500  0.59431800  1
  Ba  Ba4  1  0.48526500  0.29635700  0.30116500  1
  Ba  Ba5  1  0.74162700  0.24162700  0.73105900  1
  Ba  Ba6  1  0.01056800  0.51056800  0.26894100  1
  Ba  Ba7  1  0.37559800  0.87559800  0.40568200  1
  Ca  Ca0  1  0.15498200  0.65498200  0.00000000  1
  Sb  Sb0  1  0.84217400  0.65794700  0.00000000  1
  Sb  Sb1  1  0.61141800  0.11141800  0.00000000  1
  Sb  Sb2  1  0.15794700  0.34217400  0.00000000  1
  Sb  Sb3  1  0.38608100  0.88608100  0.00000000  1
  Sb  Sb4  1  0.24913700  0.24913700  0.50000000  1
  Sb  Sb5  1  0.74913700  0.74913700  0.50000000  1
  O  O0  1  0.74164400  0.24164400  0.49136300  1
  O  O1  1  0.25028000  0.75028000  0.50863700  1
loop_
_geom_bond_atom_site_label_1
_geom_bond_atom_site_label_2
_geom_bond_distance
_geom_bond_site_symmetry_2
Rb0 Sb2 3.457306 1_655
Rb0 Sb0 3.471787 1_545
Rb0 Sb1 3.685033 1_555
Rb0 Sb3 4.010879 1_645
Rb1 Sb0 3.457306 1_555
Rb1 Sb2 3.471787 1_555
Rb1 Sb1 3.685033 1_555
Rb1 Sb3 4.010879 1_555
Ba0 O1 2.674345 1_555
Ba0 Sb3 3.593344 1_556
Ba0 Sb0 3.620334 1_556
Ba0 Sb1 3.681100 1_566
Ba0 Sb4 3.768389 1_555
Ba0 Sb5 3.960006 1_555
Ba1 O1 2.674345 1_555
Ba1 Sb3 3.593344 1_556
Ba1 Sb2 3.620334 1_566
Ba1 Sb1 3.681100 1_566
Ba1 Sb5 3.768389 1_455
Ba1 Sb4 3.960006 1_565
Ba2 O0 2.674340 1_565
Ba2 Sb3 3.593343 1_555
Ba2 Sb0 3.620339 1_555
Ba2 Sb1 3.681093 1_565
Ba2 Sb5 3.768397 1_555
Ba2 Sb4 3.960003 1_665
Ba3 O0 2.442502 1_555
Ba3 Sb5 3.645051 1_555
Ba3 Sb4 3.645051 1_655
Ba4 O0 2.674340 1_555
Ba4 Sb3 3.593343 1_545
Ba4 Sb2 3.620339 1_555
Ba4 Sb1 3.681093 1_555
Ba4 Sb4 3.768397 1_555
Ba4 Sb5 3.960003 1_555
Ba5 O0 2.561955 1_555
Ba5 Sb0 3.530632 1_556
Ba5 Sb2 3.530632 1_656
Ba5 Sb1 4.111115 1_556
Ba6 O1 2.561947 1_555
Ba6 Sb0 3.530632 1_455
Ba6 Sb2 3.530632 1_555
Ba6 Sb1 4.111115 1_455
Ba7 O1 2.442526 1_555
Ba7 Sb4 3.645048 1_565
Ba7 Sb5 3.645048 1_555
Ca0 Sb2 2.940091 1_555
Ca0 Sb0 2.940092 1_455
Ca0 Sb3 2.979514 1_555
Sb1 Sb3 2.905226 1_545
