# generated using pymatgen
data_Ca2YVO5
_symmetry_space_group_name_H-M   'P 1'
_cell_length_a   8.93504853
_cell_length_b   8.93504853
_cell_length_c   8.93504853
_cell_angle_alpha   144.16001452
_cell_angle_beta   142.67762281
_cell_angle_gamma   52.70693303
_symmetry_Int_Tables_number   1
_chemical_formula_structural   Ca2YVO5
_chemical_formula_sum   'Ca4 Y2 V2 O10'
_cell_volume   251.71923995
_cell_formula_units_Z   2
loop_
 _symmetry_equiv_pos_site_id
 _symmetry_equiv_pos_as_xyz
  1  'x, y, z'
loop_
 _atom_site_type_symbol
 _atom_site_label
 _atom_site_symmetry_multiplicity
 _atom_site_fract_x
 _atom_site_fract_y
 _atom_site_fract_z
 _atom_site_occupancy
  Ca  Ca0  1  0.43006600  0.90869600  0.53769800  1
  Ca  Ca1  1  0.12900200  0.60763200  0.53769800  1
  Ca  Ca2  1  0.56993400  0.10763200  0.47863000  1
  Ca  Ca3  1  0.87099800  0.40869600  0.47863000  1
  Y  Y0  1  0.79503100  0.79167300  0.08670400  1
  Y  Y1  1  0.20496900  0.29167300  0.99664200  1
  V  V0  1  0.50000000  0.48281800  0.98281800  1
  V  V1  1  0.00000000  0.98281800  0.98281800  1
  O  O0  1  0.83301300  0.19353900  0.52655200  1
  O  O1  1  0.16698700  0.69353900  0.36052600  1
  O  O2  1  0.45210700  0.32148700  0.03244300  1
  O  O3  1  0.54789300  0.58033500  0.86938000  1
  O  O4  1  0.78904500  0.82148700  0.86938000  1
  O  O5  1  0.21095500  0.08033500  0.03244300  1
  O  O6  1  0.77022600  0.25224600  0.98471100  1
  O  O7  1  0.22977400  0.21448500  0.48202000  1
  O  O8  1  0.23246500  0.71448500  0.98471100  1
  O  O9  1  0.76753500  0.75224600  0.48202000  1
loop_
_geom_bond_atom_site_label_1
_geom_bond_atom_site_label_2
_geom_bond_distance
_geom_bond_site_symmetry_2
Ca0 O4 2.296719 1_555
Ca0 O7 2.403724 1_565
Ca0 O2 2.498975 1_566
Ca0 O1 2.520058 1_555
Ca0 O8 2.545276 1_554
Ca0 O6 2.594855 1_565
Ca0 O9 2.728407 1_555
Ca1 O3 2.296719 1_555
Ca1 O9 2.403724 1_455
Ca1 O5 2.498972 1_566
Ca1 O1 2.520058 1_555
Ca1 O6 2.545276 1_454
Ca1 O8 2.594855 1_555
Ca1 O7 2.728407 1_555
Ca2 O5 2.296714 1_555
Ca2 O6 2.403724 1_555
Ca2 O3 2.498970 1_555
Ca2 O0 2.520058 1_555
Ca2 O9 2.545276 1_545
Ca2 O7 2.594855 1_555
Ca2 O8 2.728407 1_544
Ca3 O2 2.296718 1_555
Ca3 O8 2.403724 1_655
Ca3 O4 2.498970 1_555
Ca3 O0 2.520058 1_555
Ca3 O7 2.545276 1_655
Ca3 O9 2.594855 1_555
Ca3 O6 2.728407 1_554
O0 Y1 2.194194 1_655
O0 Y0 2.220278 1_545
O1 Y0 2.194194 1_455
O1 Y1 2.220278 1_554
O2 Y1 2.121462 1_554
O2 V0 2.131481 1_554
O3 Y0 2.121469 1_556
O3 V0 2.131473 1_555
O4 Y0 2.121469 1_556
O4 V1 2.131473 1_655
O5 Y1 2.121476 1_554
O5 V1 2.131465 1_544
O6 V1 2.002675 1_645
O6 V0 2.009514 1_555
O7 V1 2.002675 1_544
O7 V0 2.009514 1_555
O8 V0 2.002675 1_555
O8 V1 2.009514 1_555
O9 V0 2.002675 1_554
O9 V1 2.009514 1_655
