# generated using pymatgen
data_Sm2Mo4O15
_symmetry_space_group_name_H-M   'P 1'
_cell_length_a   9.39211358
_cell_length_b   10.96523730
_cell_length_c   11.50792807
_cell_angle_alpha   104.33866004
_cell_angle_beta   109.47016427
_cell_angle_gamma   108.92879086
_symmetry_Int_Tables_number   1
_chemical_formula_structural   Sm2Mo4O15
_chemical_formula_sum   'Sm6 Mo12 O45'
_cell_volume   969.21710036
_cell_formula_units_Z   3
loop_
 _symmetry_equiv_pos_site_id
 _symmetry_equiv_pos_as_xyz
  1  'x, y, z'
loop_
 _atom_site_type_symbol
 _atom_site_label
 _atom_site_symmetry_multiplicity
 _atom_site_fract_x
 _atom_site_fract_y
 _atom_site_fract_z
 _atom_site_occupancy
  Sm  Sm0  1  0.33500764  0.65924560  0.79862793  1
  Sm  Sm1  1  0.66499236  0.34075440  0.20137207  1
  Sm  Sm2  1  0.23445947  0.22312661  0.17523550  1
  Sm  Sm3  1  0.76554053  0.77687339  0.82476450  1
  Sm  Sm4  1  0.78454075  0.94346921  0.40935530  1
  Sm  Sm5  1  0.21545925  0.05653079  0.59064470  1
  Mo  Mo0  1  0.47387308  0.56584889  0.13298241  1
  Mo  Mo1  1  0.52612692  0.43415111  0.86701759  1
  Mo  Mo2  1  0.26742865  0.98172125  0.92066289  1
  Mo  Mo3  1  0.73257135  0.01827875  0.07933711  1
  Mo  Mo4  1  0.08943731  0.53296197  0.18193415  1
  Mo  Mo5  1  0.91056269  0.46703803  0.81806585  1
  Mo  Mo6  1  0.08492650  0.31115188  0.44697734  1
  Mo  Mo7  1  0.91507350  0.68884812  0.55302266  1
  Mo  Mo8  1  0.93378233  0.13168566  0.79677805  1
  Mo  Mo9  1  0.06621767  0.86831434  0.20322195  1
  Mo  Mo10  1  0.41582750  0.77651206  0.51896976  1
  Mo  Mo11  1  0.58417250  0.22348794  0.48103024  1
  O  O0  1  0.45189093  0.42627240  0.19454879  1
  O  O1  1  0.54810907  0.57372760  0.80545121  1
  O  O2  1  0.32688319  0.61242711  0.16722661  1
  O  O3  1  0.67311681  0.38757289  0.83277339  1
  O  O4  1  0.38458843  0.14361146  0.06641904  1
  O  O5  1  0.61541157  0.85638854  0.93358096  1
  O  O6  1  0.05510388  0.92161177  0.88881106  1
  O  O7  1  0.94489612  0.07838823  0.11118894  1
  O  O8  1  0.33475526  0.85470969  0.94755140  1
  O  O9  1  0.66524474  0.14529031  0.05244860  1
  O  O10  1  0.41050765  0.55649423  0.95965403  1
  O  O11  1  0.58949235  0.44350577  0.04034597  1
  O  O12  1  0.09225971  0.50296881  0.80051745  1
  O  O13  1  0.90774029  0.49703119  0.19948255  1
  O  O14  1  0.18661732  0.46435380  0.59283970  1
  O  O15  1  0.10870152  0.37999390  0.16733241  1
  O  O16  1  0.22604641  0.30862087  0.37838256  1
  O  O17  1  0.89129848  0.62000610  0.83266759  1
  O  O18  1  0.41671316  0.16509617  0.52070885  1
  O  O19  1  0.58328684  0.83490383  0.47929115  1
  O  O20  1  0.33428572  0.28714666  0.75486959  1
  O  O21  1  0.66571428  0.71285334  0.24513041  1
  O  O22  1  0.29014163  0.01542576  0.78464951  1
  O  O23  1  0.70985837  0.98457424  0.21535049  1
  O  O24  1  0.96593321  0.84018413  0.51221411  1
  O  O25  1  0.03406679  0.15981587  0.48778589  1
  O  O26  1  0.02930095  0.93424070  0.34181785  1
  O  O27  1  0.97069905  0.06575930  0.65818215  1
  O  O28  1  0.65736017  0.09737254  0.45118479  1
  O  O29  1  0.34263983  0.90262746  0.54881521  1
  O  O30  1  0.52517669  0.26643343  0.33889250  1
  O  O31  1  0.47482331  0.73356657  0.66110750  1
  O  O32  1  0.75387619  0.38130612  0.61918906  1
  O  O33  1  0.24612381  0.61869388  0.38081094  1
  O  O34  1  -0.00000000  0.50000000  0.00000000  1
  O  O35  1  0.21888314  0.00894565  0.19971670  1
  O  O36  1  0.78111686  0.99105435  0.80028330  1
  O  O37  1  0.14802486  0.74533745  0.22541820  1
  O  O38  1  0.85197514  0.25466255  0.77458180  1
  O  O39  1  0.88105750  0.78716828  0.05199154  1
  O  O40  1  0.11894250  0.21283172  0.94800846  1
  O  O41  1  0.10343639  0.70022465  0.66712068  1
  O  O42  1  0.89656361  0.29977535  0.33287932  1
  O  O43  1  0.77395359  0.69137913  0.62161744  1
  O  O44  1  0.81338268  0.53564620  0.40716030  1
loop_
_geom_bond_atom_site_label_1
_geom_bond_atom_site_label_2
_geom_bond_distance
_geom_bond_site_symmetry_2
Mo0 O2 1.744279 1_555
Mo0 O21 1.745145 1_555
Mo0 O0 1.821151 1_555
Mo0 O10 1.846900 1_554
Mo0 O11 2.263591 1_555
Mo1 O3 1.744279 1_555
Mo1 O20 1.745145 1_555
Mo1 O1 1.821151 1_555
Mo1 O11 1.846900 1_556
Mo1 O10 2.263591 1_555
Mo2 O6 1.756653 1_555
Mo2 O8 1.757733 1_555
Mo2 O22 1.757842 1_565
Mo2 O4 1.789697 1_566
Mo3 O7 1.756653 1_555
Mo3 O9 1.757733 1_555
Mo3 O23 1.757842 1_545
Mo3 O5 1.789697 1_544
Mo4 O13 1.714979 1_455
Mo4 O15 1.718130 1_555
Mo4 O34 1.864286 1_555
Mo4 O33 2.019634 1_555
Mo4 O37 2.093834 1_555
Mo4 O2 2.196650 1_555
Mo5 O12 1.714979 1_655
Mo5 O17 1.718130 1_555
Mo5 O34 1.864286 1_656
Mo5 O32 2.019634 1_555
Mo5 O38 2.093834 1_555
Mo5 O3 2.196650 1_555
Mo6 O14 1.745135 1_555
Mo6 O16 1.758154 1_555
Mo6 O42 1.759710 1_455
Mo6 O25 1.795469 1_555
Mo7 O44 1.745135 1_555
Mo7 O43 1.758154 1_555
Mo7 O41 1.759710 1_655
Mo7 O24 1.795469 1_555
Mo8 O40 1.748229 1_655
Mo8 O36 1.752240 1_545
Mo8 O27 1.773940 1_555
Mo8 O38 1.784920 1_555
Mo9 O39 1.748229 1_455
Mo9 O35 1.752240 1_565
Mo9 O26 1.773940 1_555
Mo9 O37 1.784920 1_555
Mo10 O29 1.744044 1_555
Mo10 O19 1.749962 1_555
Mo10 O31 1.775087 1_555
Mo10 O33 1.794815 1_555
Mo11 O28 1.744044 1_555
Mo11 O18 1.749962 1_555
Mo11 O30 1.775087 1_555
Mo11 O32 1.794815 1_555
O0 Sm2 2.383820 1_555
O0 Sm1 2.457794 1_555
O1 Sm3 2.383820 1_555
O1 Sm0 2.457794 1_555
O4 Sm2 2.398006 1_555
O4 Sm1 2.436745 1_555
O5 Sm3 2.398006 1_555
O5 Sm0 2.436745 1_555
O6 Sm3 2.396333 1_455
O7 Sm2 2.396333 1_655
O8 Sm0 2.391138 1_555
O9 Sm1 2.391138 1_555
O10 Sm0 2.425419 1_555
O11 Sm1 2.425419 1_555
O12 Sm0 2.377336 1_555
O13 Sm1 2.377336 1_555
O14 Sm0 2.340594 1_555
O15 Sm2 2.384539 1_555
O16 Sm2 2.331542 1_555
O17 Sm3 2.384539 1_555
O18 Sm5 2.380448 1_555
O19 Sm4 2.380448 1_555
O20 Sm5 2.368056 1_555
O21 Sm4 2.368056 1_555
O22 Sm5 2.310674 1_555
O23 Sm4 2.310674 1_555
O24 Sm5 2.420148 1_665
O24 Sm4 2.481474 1_555
O25 Sm4 2.420148 1_445
O25 Sm5 2.481474 1_555
O26 Sm5 2.508811 1_565
O26 Sm4 2.683632 1_455
O27 Sm4 2.508811 1_545
O27 Sm5 2.683632 1_655
O28 Sm4 2.407334 1_545
O29 Sm5 2.407334 1_565
O30 Sm1 2.494587 1_555
O30 Sm2 2.552565 1_555
O31 Sm0 2.494587 1_555
O31 Sm3 2.552565 1_555
O35 Sm2 2.397649 1_555
O36 Sm3 2.397649 1_555
O39 Sm3 2.431191 1_554
O40 Sm2 2.431191 1_556
O41 Sm0 2.449337 1_555
O42 Sm1 2.449337 1_555
O43 Sm3 2.331542 1_555
O44 Sm1 2.340594 1_555
