# generated using pymatgen
data_TaCr3(CuS4)2
_symmetry_space_group_name_H-M   'P 1'
_cell_length_a   3.40007000
_cell_length_b   11.08112500
_cell_length_c   12.59772000
_cell_angle_alpha   90.00000000
_cell_angle_beta   90.00000000
_cell_angle_gamma   90.00000000
_symmetry_Int_Tables_number   1
_chemical_formula_structural   TaCr3(CuS4)2
_chemical_formula_sum   'Ta2 Cr6 Cu4 S16'
_cell_volume   474.63926590
_cell_formula_units_Z   2
loop_
 _symmetry_equiv_pos_site_id
 _symmetry_equiv_pos_as_xyz
  1  'x, y, z'
loop_
 _atom_site_type_symbol
 _atom_site_label
 _atom_site_symmetry_multiplicity
 _atom_site_fract_x
 _atom_site_fract_y
 _atom_site_fract_z
 _atom_site_occupancy
  Ta  Ta0  1  0.50000000  0.91493300  0.33536700  1
  Ta  Ta1  1  0.50000000  0.41493300  0.66463300  1
  Cr  Cr0  1  0.50000000  0.94371500  0.87429400  1
  Cr  Cr1  1  0.00000000  0.06001100  0.64278600  1
  Cr  Cr2  1  0.00000000  0.56001100  0.35721400  1
  Cr  Cr3  1  0.50000000  0.44371500  0.12570600  1
  Cr  Cr4  1  0.00000000  0.08578700  0.16620600  1
  Cr  Cr5  1  0.00000000  0.58578700  0.83379400  1
  Cu  Cu0  1  0.50000000  0.71523500  0.05455000  1
  Cu  Cu1  1  0.00000000  0.29181100  0.39158900  1
  Cu  Cu2  1  0.00000000  0.79181100  0.60841100  1
  Cu  Cu3  1  0.50000000  0.21523500  0.94545000  1
  S  S0  1  0.00000000  0.94452800  0.47222000  1
  S  S1  1  0.50000000  0.04471500  0.04507100  1
  S  S2  1  0.50000000  0.54471500  0.95492900  1
  S  S3  1  0.00000000  0.44452800  0.52778000  1
  S  S4  1  0.50000000  0.91292800  0.68948100  1
  S  S5  1  0.00000000  0.09223800  0.82804700  1
  S  S6  1  0.00000000  0.59223800  0.17195300  1
  S  S7  1  0.50000000  0.41292700  0.31051900  1
  S  S8  1  0.00000000  0.87160500  0.19951300  1
  S  S9  1  0.50000000  0.12888900  0.30058400  1
  S  S10  1  0.50000000  0.62888900  0.69941600  1
  S  S11  1  0.00000000  0.37160500  0.80048700  1
  S  S12  1  0.00000000  0.79630500  0.91459600  1
  S  S13  1  0.50000000  0.19730100  0.59559900  1
  S  S14  1  0.50000000  0.69730100  0.40440100  1
  S  S15  1  0.00000000  0.29630500  0.08540400  1
loop_
_geom_bond_atom_site_label_1
_geom_bond_atom_site_label_2
_geom_bond_distance
_geom_bond_site_symmetry_2
Cr0 S4 2.353084 1_555
Cr0 S12 2.411662 1_555
Cr0 S12 2.411662 1_655
Cr0 S1 2.425102 1_566
Cr0 S5 2.436845 1_565
Cr0 S5 2.436845 1_665
Cr1 S13 2.357525 1_455
Cr1 S13 2.357525 1_555
Cr1 S5 2.361029 1_555
Cr1 S4 2.427458 1_545
Cr1 S4 2.427458 1_445
Cr1 S0 2.500936 1_545
Cr2 S14 2.357525 1_455
Cr2 S14 2.357525 1_555
Cr2 S6 2.361029 1_555
Cr2 S7 2.427466 1_455
Cr2 S7 2.427466 1_555
Cr2 S3 2.500936 1_555
Cr3 S7 2.353086 1_555
Cr3 S15 2.411662 1_555
Cr3 S15 2.411662 1_655
Cr3 S2 2.425102 1_554
Cr3 S6 2.436845 1_555
Cr3 S6 2.436845 1_655
Cr4 S1 2.329379 1_455
Cr4 S1 2.329379 1_555
Cr4 S8 2.410182 1_545
Cr4 S9 2.446222 1_455
Cr4 S9 2.446222 1_555
Cr4 S15 2.545193 1_555
Cr5 S2 2.329379 1_555
Cr5 S2 2.329379 1_455
Cr5 S11 2.410182 1_555
Cr5 S10 2.446222 1_555
Cr5 S10 2.446222 1_455
Cr5 S12 2.545193 1_555
Cu0 S2 2.268354 1_554
Cu0 S12 2.608768 1_654
Cu0 S12 2.608768 1_554
Cu0 S6 2.633479 1_655
Cu0 S6 2.633479 1_555
Cu1 S7 2.394661 1_455
Cu1 S7 2.394661 1_555
Cu1 S3 2.409857 1_555
Cu1 S9 2.731996 1_555
Cu1 S9 2.731996 1_455
Cu2 S4 2.394668 1_455
Cu2 S4 2.394668 1_555
Cu2 S0 2.409857 1_555
Cu2 S10 2.731996 1_455
Cu2 S10 2.731996 1_555
Cu3 S1 2.268354 1_556
Cu3 S15 2.608768 1_556
Cu3 S15 2.608768 1_656
Cu3 S5 2.633479 1_555
Cu3 S5 2.633479 1_655
S0 Ta0 2.443352 1_455
S0 Ta0 2.443352 1_555
S3 Ta1 2.443352 1_555
S3 Ta1 2.443352 1_455
S8 Ta0 2.459614 1_455
S8 Ta0 2.459614 1_555
S9 Ta0 2.411026 1_545
S10 Ta1 2.411026 1_555
S11 Ta1 2.459614 1_455
S11 Ta1 2.459614 1_555
S13 Ta1 2.563626 1_555
S14 Ta0 2.563626 1_555
