# generated using pymatgen
data_Ba2TlSn2O7
_symmetry_space_group_name_H-M   'P 1'
_cell_length_a   3.83072056
_cell_length_b   3.83072056
_cell_length_c   13.93059565
_cell_angle_alpha   90.00000000
_cell_angle_beta   90.00000000
_cell_angle_gamma   90.00000000
_symmetry_Int_Tables_number   1
_chemical_formula_structural   Ba2TlSn2O7
_chemical_formula_sum   'Ba2 Tl1 Sn2 O7'
_cell_volume   204.42341154
_cell_formula_units_Z   1
loop_
 _symmetry_equiv_pos_site_id
 _symmetry_equiv_pos_as_xyz
  1  'x, y, z'
loop_
 _atom_site_type_symbol
 _atom_site_label
 _atom_site_symmetry_multiplicity
 _atom_site_fract_x
 _atom_site_fract_y
 _atom_site_fract_z
 _atom_site_occupancy
  Ba  Ba0  1  0.50000000  0.50000000  0.69961104  1
  Ba  Ba1  1  0.50000000  0.50000000  0.30038896  1
  Tl  Tl0  1  -0.00000000  -0.00000000  0.50000000  1
  Sn  Sn0  1  0.00000000  0.00000000  0.89829832  1
  Sn  Sn1  1  -0.00000000  -0.00000000  0.10170168  1
  O  O0  1  0.50000000  0.50000000  0.50000000  1
  O  O1  1  0.00000000  0.50000000  0.84528230  1
  O  O2  1  0.50000000  0.00000000  0.84528230  1
  O  O3  1  -0.00000000  0.50000000  0.15471770  1
  O  O4  1  0.50000000  -0.00000000  0.15471770  1
  O  O5  1  -0.00000000  0.00000000  0.64492793  1
  O  O6  1  0.00000000  -0.00000000  0.35507207  1
loop_
_geom_bond_atom_site_label_1
_geom_bond_atom_site_label_2
_geom_bond_distance
_geom_bond_site_symmetry_2
Ba0 O0 2.780701 1_555
Ba0 O1 2.790450 1_555
Ba0 O2 2.790450 1_565
Ba0 O2 2.790450 1_555
Ba0 O1 2.790450 1_655
Ba0 O5 2.813805 1_655
Ba0 O5 2.813805 1_565
Ba0 O5 2.813805 1_665
Ba0 O5 2.813805 1_555
Ba1 O0 2.780701 1_555
Ba1 O3 2.790450 1_555
Ba1 O3 2.790450 1_655
Ba1 O4 2.790450 1_555
Ba1 O4 2.790450 1_565
Ba1 O6 2.813805 1_555
Ba1 O6 2.813805 1_655
Ba1 O6 2.813805 1_565
Ba1 O6 2.813805 1_665
O0 Tl0 2.708728 1_655
O0 Tl0 2.708728 1_555
O0 Tl0 2.708728 1_565
O0 Tl0 2.708728 1_665
O1 Sn0 2.052816 1_555
O1 Sn0 2.052816 1_565
O2 Sn0 2.052816 1_555
O2 Sn0 2.052816 1_655
O3 Sn1 2.052816 1_565
O3 Sn1 2.052816 1_555
O4 Sn1 2.052816 1_655
O4 Sn1 2.052816 1_555
O5 Tl0 2.018932 1_555
O6 Tl0 2.018932 1_555
