# generated using pymatgen
data_Sr13Hg58
_symmetry_space_group_name_H-M   'P 1'
_cell_length_a   15.77471651
_cell_length_b   17.07733655
_cell_length_c   17.07733655
_cell_angle_alpha   119.99998788
_cell_angle_beta   90.00000000
_cell_angle_gamma   90.00000000
_symmetry_Int_Tables_number   1
_chemical_formula_structural   Sr13Hg58
_chemical_formula_sum   'Sr26 Hg116'
_cell_volume   3984.12102719
_cell_formula_units_Z   2
loop_
 _symmetry_equiv_pos_site_id
 _symmetry_equiv_pos_as_xyz
  1  'x, y, z'
loop_
 _atom_site_type_symbol
 _atom_site_label
 _atom_site_symmetry_multiplicity
 _atom_site_fract_x
 _atom_site_fract_y
 _atom_site_fract_z
 _atom_site_occupancy
  Sr  Sr0  1  0.50000000  -0.00000000  -0.00000000  1
  Sr  Sr1  1  -0.00000000  -0.00000000  -0.00000000  1
  Sr  Sr2  1  0.75000000  0.45930353  0.91860459  1
  Sr  Sr3  1  0.75000000  0.45930368  0.54069632  1
  Sr  Sr4  1  0.75000000  0.08139541  0.54069647  1
  Sr  Sr5  1  0.25000000  0.54069647  0.08139541  1
  Sr  Sr6  1  0.25000000  0.54069632  0.45930368  1
  Sr  Sr7  1  0.25000000  0.91860459  0.45930353  1
  Sr  Sr8  1  0.75000000  0.12479542  0.24958866  1
  Sr  Sr9  1  0.75000000  0.12479091  0.87520909  1
  Sr  Sr10  1  0.75000000  0.75041134  0.87520458  1
  Sr  Sr11  1  0.25000000  0.87520458  0.75041134  1
  Sr  Sr12  1  0.25000000  0.87520909  0.12479091  1
  Sr  Sr13  1  0.25000000  0.24958866  0.12479542  1
  Sr  Sr14  1  0.55744144  0.79237050  0.58474193  1
  Sr  Sr15  1  0.55743762  0.79237328  0.20762672  1
  Sr  Sr16  1  0.55744144  0.41525807  0.20762950  1
  Sr  Sr17  1  0.44255856  0.20762950  0.41525807  1
  Sr  Sr18  1  0.44256238  0.20762672  0.79237328  1
  Sr  Sr19  1  0.44255856  0.58474193  0.79237050  1
  Sr  Sr20  1  0.05744144  0.20762950  0.41525807  1
  Sr  Sr21  1  0.05743762  0.20762672  0.79237328  1
  Sr  Sr22  1  0.05744144  0.58474193  0.79237050  1
  Sr  Sr23  1  0.94255856  0.79237050  0.58474193  1
  Sr  Sr24  1  0.94256238  0.79237328  0.20762672  1
  Sr  Sr25  1  0.94255856  0.41525807  0.20762950  1
  Hg  Hg0  1  0.75000000  0.99999964  0.00000036  1
  Hg  Hg1  1  0.25000000  0.00000036  0.99999964  1
  Hg  Hg2  1  0.25000000  0.66666609  0.33333391  1
  Hg  Hg3  1  0.75000000  0.33333391  0.66666609  1
  Hg  Hg4  1  0.59246829  0.66667160  0.33332840  1
  Hg  Hg5  1  0.40753171  0.33332840  0.66667160  1
  Hg  Hg6  1  0.09246829  0.33332840  0.66667160  1
  Hg  Hg7  1  0.90753171  0.66667160  0.33332840  1
  Hg  Hg8  1  0.50000000  0.50000000  -0.00000000  1
  Hg  Hg9  1  0.50000000  0.50000000  0.50000000  1
  Hg  Hg10  1  0.50000000  -0.00000000  0.50000000  1
  Hg  Hg11  1  -0.00000000  0.50000000  -0.00000000  1
  Hg  Hg12  1  -0.00000000  0.50000000  0.50000000  1
  Hg  Hg13  1  -0.00000000  -0.00000000  0.50000000  1
  Hg  Hg14  1  0.75000000  0.73384867  0.46769879  1
  Hg  Hg15  1  0.75000000  0.73385296  0.26614704  1
  Hg  Hg16  1  0.75000000  0.53230121  0.26615133  1
  Hg  Hg17  1  0.25000000  0.26615133  0.53230121  1
  Hg  Hg18  1  0.25000000  0.26614704  0.73385296  1
  Hg  Hg19  1  0.25000000  0.46769879  0.73384867  1
  Hg  Hg20  1  0.50000012  0.80058765  0.99999904  1
  Hg  Hg21  1  0.50000000  0.19941195  0.19941195  1
  Hg  Hg22  1  0.49999988  0.99999904  0.80058765  1
  Hg  Hg23  1  0.49999988  0.19941235  0.00000096  1
  Hg  Hg24  1  0.50000012  0.00000096  0.19941235  1
  Hg  Hg25  1  0.50000000  0.80058805  0.80058805  1
  Hg  Hg26  1  0.00000012  0.19941235  0.00000096  1
  Hg  Hg27  1  -0.00000000  0.80058805  0.80058805  1
  Hg  Hg28  1  -0.00000012  0.00000096  0.19941235  1
  Hg  Hg29  1  -0.00000012  0.80058765  0.99999904  1
  Hg  Hg30  1  0.00000012  0.99999904  0.80058765  1
  Hg  Hg31  1  -0.00000000  0.19941195  0.19941195  1
  Hg  Hg32  1  0.75000000  0.92046625  0.64857848  1
  Hg  Hg33  1  0.75000000  0.72811466  0.07953001  1
  Hg  Hg34  1  0.75000000  0.35141976  0.27188856  1
  Hg  Hg35  1  0.75000000  0.72811144  0.64858024  1
  Hg  Hg36  1  0.75000000  0.35142152  0.07953375  1
  Hg  Hg37  1  0.75000000  0.92046999  0.27188534  1
  Hg  Hg38  1  0.25000000  0.07953375  0.35142152  1
  Hg  Hg39  1  0.25000000  0.27188534  0.92046999  1
  Hg  Hg40  1  0.25000000  0.64858024  0.72811144  1
  Hg  Hg41  1  0.25000000  0.27188856  0.35141976  1
  Hg  Hg42  1  0.25000000  0.64857848  0.92046625  1
  Hg  Hg43  1  0.25000000  0.07953001  0.72811466  1
  Hg  Hg44  1  0.65596089  0.90685380  0.81370759  1
  Hg  Hg45  1  0.65596140  0.90685347  0.09314653  1
  Hg  Hg46  1  0.65596089  0.18629241  0.09314620  1
  Hg  Hg47  1  0.34403911  0.09314620  0.18629241  1
  Hg  Hg48  1  0.34403860  0.09314653  0.90685347  1
  Hg  Hg49  1  0.34403911  0.81370759  0.90685380  1
  Hg  Hg50  1  0.15596089  0.09314620  0.18629241  1
  Hg  Hg51  1  0.15596140  0.09314653  0.90685347  1
  Hg  Hg52  1  0.15596089  0.81370759  0.90685380  1
  Hg  Hg53  1  0.84403911  0.90685380  0.81370759  1
  Hg  Hg54  1  0.84403860  0.90685347  0.09314653  1
  Hg  Hg55  1  0.84403911  0.18629241  0.09314620  1
  Hg  Hg56  1  0.64856821  0.56221501  0.12442905  1
  Hg  Hg57  1  0.64856603  0.56221778  0.43778222  1
  Hg  Hg58  1  0.64856821  0.87557095  0.43778499  1
  Hg  Hg59  1  0.35143179  0.43778499  0.87557095  1
  Hg  Hg60  1  0.35143397  0.43778222  0.56221778  1
  Hg  Hg61  1  0.35143179  0.12442905  0.56221501  1
  Hg  Hg62  1  0.14856821  0.43778499  0.87557095  1
  Hg  Hg63  1  0.14856603  0.43778222  0.56221778  1
  Hg  Hg64  1  0.14856821  0.12442905  0.56221501  1
  Hg  Hg65  1  0.85143179  0.56221501  0.12442905  1
  Hg  Hg66  1  0.85143397  0.56221778  0.43778222  1
  Hg  Hg67  1  0.85143179  0.87557095  0.43778499  1
  Hg  Hg68  1  0.55587363  0.40010047  0.80020679  1
  Hg  Hg69  1  0.55586353  0.40009969  0.59990031  1
  Hg  Hg70  1  0.55587363  0.19979321  0.59989953  1
  Hg  Hg71  1  0.44412637  0.59989953  0.19979321  1
  Hg  Hg72  1  0.44413647  0.59990031  0.40009969  1
  Hg  Hg73  1  0.44412637  0.80020679  0.40010047  1
  Hg  Hg74  1  0.05587363  0.59989953  0.19979321  1
  Hg  Hg75  1  0.05586353  0.59990031  0.40009969  1
  Hg  Hg76  1  0.05587363  0.80020679  0.40010047  1
  Hg  Hg77  1  0.94412637  0.40010047  0.80020679  1
  Hg  Hg78  1  0.94413647  0.40009969  0.59990031  1
  Hg  Hg79  1  0.94412637  0.19979321  0.59989953  1
  Hg  Hg80  1  0.65967952  0.23409885  0.46819406  1
  Hg  Hg81  1  0.65968104  0.23409497  0.76590503  1
  Hg  Hg82  1  0.65967952  0.53180594  0.76590115  1
  Hg  Hg83  1  0.34032048  0.76590115  0.53180594  1
  Hg  Hg84  1  0.34031896  0.76590503  0.23409497  1
  Hg  Hg85  1  0.34032048  0.46819406  0.23409885  1
  Hg  Hg86  1  0.15967952  0.76590115  0.53180594  1
  Hg  Hg87  1  0.15968104  0.76590503  0.23409497  1
  Hg  Hg88  1  0.15967952  0.46819406  0.23409885  1
  Hg  Hg89  1  0.84032048  0.23409885  0.46819406  1
  Hg  Hg90  1  0.84031896  0.23409497  0.76590503  1
  Hg  Hg91  1  0.84032048  0.53180594  0.76590115  1
  Hg  Hg92  1  0.60509680  0.63494095  0.96031186  1
  Hg  Hg93  1  0.60509455  0.32537493  0.36506062  1
  Hg  Hg94  1  0.60509633  0.03968541  0.67462712  1
  Hg  Hg95  1  0.60509633  0.32537288  0.96031459  1
  Hg  Hg96  1  0.60509680  0.03968814  0.36505905  1
  Hg  Hg97  1  0.60509455  0.63493938  0.67462507  1
  Hg  Hg98  1  0.39490320  0.36505905  0.03968814  1
  Hg  Hg99  1  0.39490545  0.67462507  0.63493938  1
  Hg  Hg100  1  0.39490367  0.96031459  0.32537288  1
  Hg  Hg101  1  0.39490367  0.67462712  0.03968541  1
  Hg  Hg102  1  0.39490320  0.96031186  0.63494095  1
  Hg  Hg103  1  0.39490545  0.36506062  0.32537493  1
  Hg  Hg104  1  0.10509680  0.36505905  0.03968814  1
  Hg  Hg105  1  0.10509455  0.67462507  0.63493938  1
  Hg  Hg106  1  0.10509633  0.96031459  0.32537288  1
  Hg  Hg107  1  0.10509633  0.67462712  0.03968541  1
  Hg  Hg108  1  0.10509680  0.96031186  0.63494095  1
  Hg  Hg109  1  0.10509455  0.36506062  0.32537493  1
  Hg  Hg110  1  0.89490320  0.63494095  0.96031186  1
  Hg  Hg111  1  0.89490545  0.32537493  0.36506062  1
  Hg  Hg112  1  0.89490367  0.03968541  0.67462712  1
  Hg  Hg113  1  0.89490367  0.32537288  0.96031459  1
  Hg  Hg114  1  0.89490320  0.03968814  0.36505905  1
  Hg  Hg115  1  0.89490545  0.63493938  0.67462507  1
loop_
_geom_bond_atom_site_label_1
_geom_bond_atom_site_label_2
_geom_bond_distance
_geom_bond_site_symmetry_2
Hg0 Hg54 3.129128 1_555
Hg0 Hg45 3.129128 1_555
Hg0 Hg53 3.129138 1_554
Hg0 Hg44 3.129138 1_554
Hg0 Hg46 3.129138 1_565
Hg0 Hg55 3.129138 1_565
Hg0 Sr9 3.691178 1_564
Hg0 Sr10 3.691263 1_554
Hg0 Sr8 3.691263 1_565
Hg0 Sr0 3.943679 1_565
Hg0 Sr1 3.943679 1_665
Hg1 Hg48 3.129128 1_555
Hg1 Hg51 3.129128 1_555
Hg1 Hg49 3.129138 1_545
Hg1 Hg52 3.129138 1_545
Hg1 Hg50 3.129138 1_556
Hg1 Hg47 3.129138 1_556
Hg1 Sr12 3.691178 1_546
Hg1 Sr11 3.691263 1_545
Hg1 Sr13 3.691263 1_556
Hg1 Sr1 3.943679 1_556
Hg1 Sr0 3.943679 1_556
Hg2 Hg85 3.262804 1_555
Hg2 Hg88 3.262804 1_555
Hg2 Hg83 3.262804 1_555
Hg2 Hg86 3.262804 1_555
Hg2 Hg87 3.262871 1_555
Hg2 Hg84 3.262871 1_555
Hg2 Sr5 3.726022 1_555
Hg2 Sr7 3.726022 1_555
Hg2 Sr6 3.726036 1_555
Hg3 Hg80 3.262804 1_555
Hg3 Hg89 3.262804 1_555
Hg3 Hg91 3.262804 1_555
Hg3 Hg82 3.262804 1_555
Hg3 Hg81 3.262871 1_555
Hg3 Hg90 3.262871 1_555
Hg3 Sr4 3.726022 1_555
Hg3 Sr2 3.726022 1_555
Hg3 Sr3 3.726036 1_555
Hg4 Hg72 3.061990 1_555
Hg4 Hg71 3.062041 1_555
Hg4 Hg73 3.062041 1_555
Hg4 Hg56 3.213744 1_555
Hg4 Hg58 3.213744 1_555
Hg4 Hg57 3.213852 1_555
Hg4 Sr15 3.758947 1_555
Hg4 Sr16 3.759087 1_555
Hg4 Sr14 3.759087 1_555
Hg5 Hg69 3.061990 1_555
Hg5 Hg70 3.062041 1_555
Hg5 Hg68 3.062041 1_555
Hg5 Hg61 3.213744 1_555
Hg5 Hg59 3.213744 1_555
Hg5 Hg60 3.213852 1_555
Hg5 Sr18 3.758947 1_555
Hg5 Sr17 3.759087 1_555
Hg5 Sr19 3.759087 1_555
Hg6 Hg78 3.061990 1_455
Hg6 Hg79 3.062041 1_455
Hg6 Hg77 3.062041 1_455
Hg6 Hg64 3.213744 1_555
Hg6 Hg62 3.213744 1_555
Hg6 Hg63 3.213852 1_555
Hg6 Sr21 3.758947 1_555
Hg6 Sr20 3.759087 1_555
Hg6 Sr22 3.759087 1_555
Hg7 Hg75 3.061990 1_655
Hg7 Hg74 3.062041 1_655
Hg7 Hg76 3.062041 1_655
Hg7 Sr24 3.758947 1_555
Hg7 Sr25 3.759087 1_555
Hg7 Sr23 3.759087 1_555
Hg8 Hg95 3.174911 1_554
Hg8 Hg98 3.174931 1_555
Hg8 Hg92 3.174931 1_554
Hg9 Hg93 3.174866 1_555
Hg9 Hg97 3.174866 1_555
Hg9 Hg99 3.174866 1_555
Hg10 Hg58 2.979768 1_545
Hg10 Hg61 2.979768 1_555
Hg10 Hg73 3.083477 1_545
Hg10 Hg70 3.083477 1_555
Hg10 Hg100 3.174911 1_545
Hg10 Hg94 3.174911 1_555
Hg10 Hg96 3.174931 1_555
Hg10 Hg102 3.174931 1_545
Hg11 Hg62 2.979768 1_554
Hg11 Hg65 2.979768 1_455
Hg11 Hg77 3.083477 1_454
Hg11 Hg74 3.083477 1_555
Hg11 Hg113 3.174911 1_454
Hg11 Hg110 3.174931 1_454
Hg12 Hg63 2.979800 1_555
Hg12 Hg66 2.979800 1_455
Hg12 Hg75 3.083536 1_555
Hg12 Hg78 3.083536 1_455
Hg13 Hg67 2.979768 1_445
Hg13 Hg64 2.979768 1_555
Hg13 Hg76 3.083477 1_545
Hg13 Hg79 3.083477 1_455
Hg14 Hg32 3.139085 1_555
Hg14 Hg35 3.139109 1_555
Hg14 Hg66 3.148750 1_555
Hg14 Hg57 3.148750 1_555
Hg14 Hg67 3.148822 1_555
Hg14 Hg58 3.148822 1_555
Hg14 Hg7 3.181904 1_555
Hg14 Hg4 3.181904 1_555
Hg14 Sr14 3.496156 1_555
Hg14 Sr23 3.496156 1_555
Hg15 Hg33 3.139072 1_555
Hg15 Hg37 3.139072 1_555
Hg15 Hg65 3.148818 1_555
Hg15 Hg58 3.148818 1_555
Hg15 Hg56 3.148818 1_555
Hg15 Hg67 3.148818 1_555
Hg15 Hg4 3.181833 1_555
Hg15 Hg7 3.181833 1_555
Hg15 Sr24 3.496190 1_555
Hg15 Sr15 3.496190 1_555
Hg16 Hg36 3.139085 1_555
Hg16 Hg34 3.139109 1_555
Hg16 Hg66 3.148750 1_555
Hg16 Hg57 3.148750 1_555
Hg16 Hg56 3.148822 1_555
Hg16 Hg65 3.148822 1_555
Hg16 Hg7 3.181904 1_555
Hg16 Hg4 3.181904 1_555
Hg16 Sr16 3.496156 1_555
Hg16 Sr25 3.496156 1_555
Hg17 Hg38 3.139085 1_555
Hg17 Hg41 3.139109 1_555
Hg17 Hg60 3.148750 1_555
Hg17 Hg63 3.148750 1_555
Hg17 Hg64 3.148822 1_555
Hg17 Hg61 3.148822 1_555
Hg17 Hg5 3.181904 1_555
Hg17 Hg6 3.181904 1_555
Hg17 Sr20 3.496156 1_555
Hg17 Sr17 3.496156 1_555
Hg18 Hg43 3.139072 1_555
Hg18 Hg39 3.139072 1_555
Hg18 Hg61 3.148818 1_555
Hg18 Hg62 3.148818 1_555
Hg18 Hg64 3.148818 1_555
Hg18 Hg59 3.148818 1_555
Hg18 Hg5 3.181833 1_555
Hg18 Hg6 3.181833 1_555
Hg18 Sr21 3.496190 1_555
Hg18 Sr18 3.496190 1_555
Hg19 Hg42 3.139085 1_555
Hg19 Hg40 3.139109 1_555
Hg19 Hg60 3.148750 1_555
Hg19 Hg63 3.148750 1_555
Hg19 Hg62 3.148822 1_555
Hg19 Hg59 3.148822 1_555
Hg19 Hg5 3.181904 1_555
Hg19 Hg6 3.181904 1_555
Hg19 Sr22 3.496156 1_555
Hg19 Sr19 3.496156 1_555
Hg20 Hg49 2.998269 1_555
Hg20 Hg45 2.998286 1_556
Hg20 Hg92 3.048408 1_555
Hg20 Hg25 3.405412 1_555
Hg20 Sr0 3.405424 1_566
Hg20 Hg24 3.405449 1_566
Hg20 Sr15 3.729638 1_556
Hg20 Sr19 3.729693 1_555
Hg21 Hg46 2.998275 1_555
Hg21 Hg47 2.998275 1_555
Hg21 Hg93 3.048423 1_555
Hg21 Hg23 3.405412 1_555
Hg21 Hg24 3.405412 1_555
Hg21 Sr0 3.405426 1_555
Hg21 Sr17 3.729696 1_555
Hg21 Sr16 3.729696 1_555
Hg22 Hg44 2.998269 1_555
Hg22 Hg48 2.998286 1_565
Hg22 Hg94 3.048412 1_565
Hg22 Hg25 3.405412 1_555
Hg22 Sr0 3.405424 1_566
Hg22 Hg23 3.405449 1_566
Hg22 Sr18 3.729638 1_565
Hg22 Sr14 3.729693 1_555
Hg23 Hg46 2.998269 1_555
Hg23 Hg48 2.998286 1_554
Hg23 Hg98 3.048408 1_555
Hg23 Hg95 3.048412 1_554
Hg23 Sr0 3.405424 1_555
Hg23 Sr18 3.729638 1_554
Hg23 Sr16 3.729693 1_555
Hg24 Hg47 2.998269 1_555
Hg24 Hg45 2.998286 1_545
Hg24 Hg96 3.048408 1_555
Hg24 Sr0 3.405424 1_555
Hg24 Sr15 3.729638 1_545
Hg24 Sr17 3.729693 1_555
Hg25 Hg49 2.998275 1_555
Hg25 Hg44 2.998275 1_555
Hg25 Hg97 3.048423 1_555
Hg25 Hg99 3.048423 1_555
Hg25 Sr0 3.405426 1_566
Hg25 Sr14 3.729696 1_555
Hg25 Sr19 3.729696 1_555
Hg26 Hg55 2.998269 1_455
Hg26 Hg51 2.998286 1_554
Hg26 Hg31 3.405412 1_555
Hg26 Sr1 3.405424 1_555
Hg26 Hg30 3.405449 1_544
Hg26 Sr21 3.729638 1_554
Hg26 Sr25 3.729693 1_455
Hg27 Hg52 2.998275 1_555
Hg27 Hg53 2.998275 1_455
Hg27 Hg29 3.405412 1_555
Hg27 Hg30 3.405412 1_555
Hg27 Sr1 3.405426 1_566
Hg27 Sr23 3.729696 1_455
Hg27 Sr22 3.729696 1_555
Hg28 Hg50 2.998269 1_555
Hg28 Hg54 2.998286 1_445
Hg28 Hg31 3.405412 1_555
Hg28 Sr1 3.405424 1_555
Hg28 Hg29 3.405449 1_544
Hg28 Sr24 3.729638 1_445
Hg28 Sr20 3.729693 1_555
Hg29 Hg52 2.998269 1_555
Hg29 Hg54 2.998286 1_456
Hg29 Sr1 3.405424 1_566
Hg29 Sr24 3.729638 1_456
Hg29 Sr22 3.729693 1_555
Hg30 Hg53 2.998269 1_455
Hg30 Hg51 2.998286 1_565
Hg30 Sr1 3.405424 1_566
Hg30 Sr21 3.729638 1_565
Hg30 Sr23 3.729693 1_455
Hg31 Hg55 2.998275 1_455
Hg31 Hg50 2.998275 1_555
Hg31 Sr1 3.405426 1_555
Hg31 Sr25 3.729696 1_455
Hg31 Sr20 3.729696 1_555
Hg32 Hg94 2.943167 1_565
Hg32 Hg35 3.284923 1_555
Hg32 Hg44 3.295813 1_555
Hg32 Hg53 3.295813 1_555
Hg32 Sr14 3.579908 1_555
Hg32 Sr23 3.579908 1_555
Hg32 Sr9 3.694543 1_565
Hg33 Hg92 2.943165 1_554
Hg33 Hg37 3.284917 1_555
Hg33 Hg54 3.295740 1_555
Hg33 Hg45 3.295740 1_555
Hg33 Sr24 3.579967 1_555
Hg33 Sr15 3.579967 1_555
Hg33 Sr10 3.694464 1_554
Hg34 Hg93 2.943178 1_555
Hg34 Hg36 3.284923 1_555
Hg34 Hg55 3.295808 1_555
Hg34 Hg46 3.295808 1_555
Hg34 Sr16 3.579921 1_555
Hg34 Sr25 3.579921 1_555
Hg34 Sr8 3.694479 1_555
Hg35 Hg97 2.943178 1_555
Hg35 Hg44 3.295808 1_555
Hg35 Hg53 3.295808 1_555
Hg35 Sr14 3.579921 1_555
Hg35 Sr23 3.579921 1_555
Hg35 Sr10 3.694479 1_555
Hg36 Hg95 2.943167 1_554
Hg36 Hg55 3.295813 1_555
Hg36 Hg46 3.295813 1_555
Hg36 Sr16 3.579908 1_555
Hg36 Sr25 3.579908 1_555
Hg36 Sr9 3.694543 1_554
Hg37 Hg96 2.943165 1_565
Hg37 Hg54 3.295740 1_555
Hg37 Hg45 3.295740 1_555
Hg37 Sr24 3.579967 1_555
Hg37 Sr15 3.579967 1_555
Hg37 Sr8 3.694464 1_565
Hg38 Hg41 3.284923 1_555
Hg38 Hg47 3.295813 1_555
Hg38 Hg50 3.295813 1_555
Hg38 Sr17 3.579908 1_555
Hg38 Sr20 3.579908 1_555
Hg38 Sr12 3.694543 1_545
Hg39 Hg98 2.943165 1_556
Hg39 Hg43 3.284917 1_555
Hg39 Hg48 3.295740 1_555
Hg39 Hg51 3.295740 1_555
Hg39 Sr18 3.579967 1_555
Hg39 Sr21 3.579967 1_555
Hg39 Sr13 3.694464 1_556
Hg40 Hg99 2.943178 1_555
Hg40 Hg42 3.284923 1_555
Hg40 Hg49 3.295808 1_555
Hg40 Hg52 3.295808 1_555
Hg40 Sr22 3.579921 1_555
Hg40 Sr19 3.579921 1_555
Hg40 Sr11 3.694479 1_555
Hg41 Hg47 3.295808 1_555
Hg41 Hg50 3.295808 1_555
Hg41 Sr20 3.579921 1_555
Hg41 Sr17 3.579921 1_555
Hg41 Sr13 3.694479 1_555
Hg42 Hg49 3.295813 1_555
Hg42 Hg52 3.295813 1_555
Hg42 Sr22 3.579908 1_555
Hg42 Sr19 3.579908 1_555
Hg42 Sr12 3.694543 1_556
Hg43 Hg48 3.295740 1_555
Hg43 Hg51 3.295740 1_555
Hg43 Sr21 3.579967 1_555
Hg43 Sr18 3.579967 1_555
Hg43 Sr11 3.694464 1_545
Hg44 Hg53 2.966881 1_555
Hg44 Sr9 3.639567 1_565
Hg44 Sr10 3.639619 1_555
Hg44 Sr0 3.693731 1_566
Hg44 Sr14 3.725866 1_555
Hg45 Hg54 2.966865 1_555
Hg45 Sr8 3.639643 1_565
Hg45 Sr10 3.639643 1_554
Hg45 Sr0 3.693744 1_565
Hg45 Sr15 3.725823 1_555
Hg46 Hg55 2.966881 1_555
Hg46 Sr9 3.639567 1_554
Hg46 Sr8 3.639619 1_555
Hg46 Sr0 3.693731 1_555
Hg46 Sr16 3.725866 1_555
Hg47 Hg50 2.966881 1_555
Hg47 Sr12 3.639567 1_545
Hg47 Sr13 3.639619 1_555
Hg47 Sr0 3.693731 1_555
Hg47 Sr17 3.725866 1_555
Hg48 Hg51 2.966865 1_555
Hg48 Sr13 3.639643 1_556
Hg48 Sr11 3.639643 1_545
Hg48 Sr0 3.693744 1_556
Hg48 Sr18 3.725823 1_555
Hg49 Hg52 2.966881 1_555
Hg49 Sr12 3.639567 1_556
Hg49 Sr11 3.639619 1_555
Hg49 Sr0 3.693731 1_566
Hg49 Sr19 3.725866 1_555
Hg50 Sr12 3.639567 1_545
Hg50 Sr13 3.639619 1_555
Hg50 Sr1 3.693731 1_555
Hg50 Sr20 3.725866 1_555
Hg51 Sr11 3.639643 1_545
Hg51 Sr13 3.639643 1_556
Hg51 Sr1 3.693744 1_556
Hg51 Sr21 3.725823 1_555
Hg52 Sr12 3.639567 1_556
Hg52 Sr11 3.639619 1_555
Hg52 Sr1 3.693731 1_566
Hg52 Sr22 3.725866 1_555
Hg53 Sr9 3.639567 1_565
Hg53 Sr10 3.639619 1_555
Hg53 Sr1 3.693731 1_666
Hg53 Sr23 3.725866 1_555
Hg54 Sr10 3.639643 1_554
Hg54 Sr8 3.639643 1_565
Hg54 Sr1 3.693744 1_665
Hg54 Sr24 3.725823 1_555
Hg55 Sr9 3.639567 1_554
Hg55 Sr8 3.639619 1_555
Hg55 Sr1 3.693731 1_655
Hg55 Sr25 3.725866 1_555
Hg56 Hg8 2.979768 1_555
Hg56 Hg65 3.200115 1_555
Hg56 Hg71 3.412187 1_555
Hg56 Sr2 3.438932 1_554
Hg56 Sr16 3.734869 1_555
Hg56 Sr15 3.734912 1_555
Hg57 Hg9 2.979800 1_555
Hg57 Hg66 3.200184 1_555
Hg57 Hg72 3.412008 1_555
Hg57 Sr3 3.438997 1_555
Hg57 Sr14 3.734806 1_555
Hg57 Sr16 3.734806 1_555
Hg58 Hg67 3.200115 1_555
Hg58 Hg73 3.412187 1_555
Hg58 Sr4 3.438932 1_565
Hg58 Sr14 3.734869 1_555
Hg58 Sr15 3.734912 1_555
Hg59 Hg8 2.979768 1_556
Hg59 Hg62 3.200115 1_555
Hg59 Hg68 3.412187 1_555
Hg59 Sr5 3.438932 1_556
Hg59 Sr19 3.734869 1_555
Hg59 Sr18 3.734912 1_555
Hg60 Hg9 2.979800 1_555
Hg60 Hg63 3.200184 1_555
Hg60 Hg69 3.412008 1_555
Hg60 Sr6 3.438997 1_555
Hg60 Sr19 3.734806 1_555
Hg60 Sr17 3.734806 1_555
Hg61 Hg64 3.200115 1_555
Hg61 Hg70 3.412187 1_555
Hg61 Sr7 3.438932 1_545
Hg61 Sr17 3.734869 1_555
Hg61 Sr18 3.734912 1_555
Hg62 Hg77 3.412187 1_455
Hg62 Sr5 3.438932 1_556
Hg62 Sr22 3.734869 1_555
Hg62 Sr21 3.734912 1_555
Hg63 Hg78 3.412008 1_455
Hg63 Sr6 3.438997 1_555
Hg63 Sr22 3.734806 1_555
Hg63 Sr20 3.734806 1_555
Hg64 Hg79 3.412187 1_455
Hg64 Sr7 3.438932 1_545
Hg64 Sr20 3.734869 1_555
Hg64 Sr21 3.734912 1_555
Hg65 Hg7 3.213744 1_555
Hg65 Hg74 3.412187 1_655
Hg65 Sr2 3.438932 1_554
Hg65 Sr25 3.734869 1_555
Hg65 Sr24 3.734912 1_555
Hg66 Hg7 3.213852 1_555
Hg66 Hg75 3.412008 1_655
Hg66 Sr3 3.438997 1_555
Hg66 Sr23 3.734806 1_555
Hg66 Sr25 3.734806 1_555
Hg67 Hg7 3.213744 1_555
Hg67 Hg76 3.412187 1_655
Hg67 Sr4 3.438932 1_565
Hg67 Sr23 3.734869 1_555
Hg67 Sr24 3.734912 1_555
Hg68 Hg81 3.066079 1_555
Hg68 Hg82 3.066127 1_555
Hg68 Hg8 3.083477 1_556
Hg68 Sr2 3.527567 1_555
Hg68 Sr18 3.684717 1_555
Hg68 Sr19 3.684787 1_555
Hg69 Hg80 3.066119 1_555
Hg69 Hg82 3.066119 1_555
Hg69 Hg9 3.083536 1_555
Hg69 Sr3 3.527780 1_555
Hg69 Sr19 3.684655 1_555
Hg69 Sr17 3.684655 1_555
Hg70 Hg81 3.066079 1_555
Hg70 Hg80 3.066127 1_555
Hg70 Sr4 3.527567 1_555
Hg70 Sr18 3.684717 1_555
Hg70 Sr17 3.684787 1_555
Hg71 Hg84 3.066079 1_555
Hg71 Hg85 3.066127 1_555
Hg71 Hg8 3.083477 1_555
Hg71 Sr5 3.527567 1_555
Hg71 Sr15 3.684717 1_555
Hg71 Sr16 3.684787 1_555
Hg72 Hg85 3.066119 1_555
Hg72 Hg83 3.066119 1_555
Hg72 Hg9 3.083536 1_555
Hg72 Sr6 3.527780 1_555
Hg72 Sr14 3.684655 1_555
Hg72 Sr16 3.684655 1_555
Hg73 Hg84 3.066079 1_555
Hg73 Hg83 3.066127 1_555
Hg73 Sr7 3.527567 1_555
Hg73 Sr15 3.684717 1_555
Hg73 Sr14 3.684787 1_555
Hg74 Hg87 3.066079 1_555
Hg74 Hg88 3.066127 1_555
Hg74 Sr5 3.527567 1_555
Hg74 Sr24 3.684717 1_455
Hg74 Sr25 3.684787 1_455
Hg75 Hg88 3.066119 1_555
Hg75 Hg86 3.066119 1_555
Hg75 Sr6 3.527780 1_555
Hg75 Sr23 3.684655 1_455
Hg75 Sr25 3.684655 1_455
Hg76 Hg87 3.066079 1_555
Hg76 Hg86 3.066127 1_555
Hg76 Sr7 3.527567 1_555
Hg76 Sr24 3.684717 1_455
Hg76 Sr23 3.684787 1_455
Hg77 Hg90 3.066079 1_555
Hg77 Hg91 3.066127 1_555
Hg77 Sr2 3.527567 1_555
Hg77 Sr21 3.684717 1_655
Hg77 Sr22 3.684787 1_655
Hg78 Hg89 3.066119 1_555
Hg78 Hg91 3.066119 1_555
Hg78 Sr3 3.527780 1_555
Hg78 Sr22 3.684655 1_655
Hg78 Sr20 3.684655 1_655
Hg79 Hg90 3.066079 1_555
Hg79 Hg89 3.066127 1_555
Hg79 Sr4 3.527567 1_555
Hg79 Sr21 3.684717 1_655
Hg79 Sr20 3.684787 1_655
Hg80 Hg89 2.849560 1_555
Hg80 Hg93 3.003075 1_555
Hg80 Hg96 3.003083 1_555
Hg80 Sr17 3.513359 1_555
Hg80 Sr8 3.533069 1_555
Hg80 Sr3 3.686754 1_555
Hg80 Sr4 3.686769 1_555
Hg81 Hg90 2.849512 1_555
Hg81 Hg95 3.003074 1_555
Hg81 Hg94 3.003074 1_555
Hg81 Sr18 3.513325 1_555
Hg81 Sr9 3.533096 1_555
Hg81 Sr4 3.686780 1_555
Hg81 Sr2 3.686780 1_555
Hg82 Hg91 2.849560 1_555
Hg82 Hg97 3.003075 1_555
Hg82 Hg92 3.003083 1_555
Hg82 Sr19 3.513359 1_555
Hg82 Sr10 3.533069 1_555
Hg82 Sr3 3.686754 1_555
Hg82 Sr2 3.686769 1_555
Hg83 Hg86 2.849560 1_555
Hg83 Hg99 3.003075 1_555
Hg83 Sr14 3.513359 1_555
Hg83 Sr11 3.533069 1_555
Hg83 Sr6 3.686754 1_555
Hg83 Sr7 3.686769 1_555
Hg84 Hg87 2.849512 1_555
Hg84 Sr15 3.513325 1_555
Hg84 Sr12 3.533096 1_555
Hg84 Sr5 3.686780 1_555
Hg84 Sr7 3.686780 1_555
Hg85 Hg88 2.849560 1_555
Hg85 Hg98 3.003083 1_555
Hg85 Sr16 3.513359 1_555
Hg85 Sr13 3.533069 1_555
Hg85 Sr6 3.686754 1_555
Hg85 Sr5 3.686769 1_555
Hg86 Sr23 3.513359 1_455
Hg86 Sr11 3.533069 1_555
Hg86 Sr6 3.686754 1_555
Hg86 Sr7 3.686769 1_555
Hg87 Sr24 3.513325 1_455
Hg87 Sr12 3.533096 1_555
Hg87 Sr5 3.686780 1_555
Hg87 Sr7 3.686780 1_555
Hg88 Sr25 3.513359 1_455
Hg88 Sr13 3.533069 1_555
Hg88 Sr6 3.686754 1_555
Hg88 Sr5 3.686769 1_555
Hg89 Sr20 3.513359 1_655
Hg89 Sr8 3.533069 1_555
Hg89 Sr3 3.686754 1_555
Hg89 Sr4 3.686769 1_555
Hg90 Sr21 3.513325 1_655
Hg90 Sr9 3.533096 1_555
Hg90 Sr4 3.686780 1_555
Hg90 Sr2 3.686780 1_555
Hg91 Sr22 3.513359 1_655
Hg91 Sr10 3.533069 1_555
Hg91 Sr3 3.686754 1_555
Hg91 Sr2 3.686769 1_555
Hg92 Sr2 3.548577 1_555
Hg92 Sr19 3.616036 1_555
Hg92 Sr10 3.753905 1_555
Hg92 Sr15 3.778391 1_556
Hg93 Sr3 3.548579 1_555
Hg93 Sr17 3.616032 1_555
Hg93 Sr8 3.753950 1_555
Hg93 Sr16 3.778360 1_555
Hg94 Sr4 3.548612 1_555
Hg94 Sr18 3.615998 1_555
Hg94 Sr9 3.753965 1_555
Hg94 Sr14 3.778371 1_545
Hg95 Sr2 3.548612 1_555
Hg95 Sr18 3.615998 1_555
Hg95 Sr9 3.753965 1_555
Hg95 Sr16 3.778371 1_556
Hg96 Sr4 3.548577 1_555
Hg96 Sr17 3.616036 1_555
Hg96 Sr8 3.753905 1_555
Hg96 Sr15 3.778391 1_545
Hg97 Sr3 3.548579 1_555
Hg97 Sr19 3.616032 1_555
Hg97 Sr10 3.753950 1_555
Hg97 Sr14 3.778360 1_555
Hg98 Sr5 3.548577 1_555
Hg98 Sr16 3.616036 1_555
Hg98 Sr13 3.753905 1_555
Hg98 Sr18 3.778391 1_554
Hg99 Sr6 3.548579 1_555
Hg99 Sr14 3.616032 1_555
Hg99 Sr11 3.753950 1_555
Hg99 Sr19 3.778360 1_555
Hg100 Hg38 2.943167 1_565
Hg100 Hg84 3.003074 1_555
Hg100 Hg24 3.048412 1_565
Hg100 Sr7 3.548612 1_555
Hg100 Sr15 3.615998 1_555
Hg100 Sr12 3.753965 1_555
Hg100 Sr17 3.778371 1_565
Hg101 Hg42 2.943167 1_554
Hg101 Hg84 3.003074 1_555
Hg101 Hg20 3.048412 1_554
Hg101 Hg8 3.174911 1_555
Hg101 Sr5 3.548612 1_555
Hg101 Sr15 3.615998 1_555
Hg101 Sr12 3.753965 1_555
Hg101 Sr19 3.778371 1_554
Hg102 Hg43 2.943165 1_565
Hg102 Hg83 3.003083 1_555
Hg102 Hg22 3.048408 1_555
Hg102 Sr7 3.548577 1_555
Hg102 Sr14 3.616036 1_555
Hg102 Sr11 3.753905 1_555
Hg102 Sr18 3.778391 1_565
Hg103 Hg41 2.943178 1_555
Hg103 Hg85 3.003075 1_555
Hg103 Hg21 3.048423 1_555
Hg103 Hg9 3.174866 1_555
Hg103 Sr6 3.548579 1_555
Hg103 Sr16 3.616032 1_555
Hg103 Sr13 3.753950 1_555
Hg103 Sr17 3.778360 1_555
Hg104 Hg39 2.943165 1_554
Hg104 Hg88 3.003083 1_555
Hg104 Hg26 3.048408 1_555
Hg104 Hg11 3.174931 1_555
Hg104 Sr5 3.548577 1_555
Hg104 Sr25 3.616036 1_455
Hg104 Sr13 3.753905 1_555
Hg104 Sr21 3.778391 1_554
Hg105 Hg40 2.943178 1_555
Hg105 Hg86 3.003075 1_555
Hg105 Hg27 3.048423 1_555
Hg105 Hg12 3.174866 1_555
Hg105 Sr6 3.548579 1_555
Hg105 Sr23 3.616032 1_455
Hg105 Sr11 3.753950 1_555
Hg105 Sr22 3.778360 1_555
Hg106 Hg38 2.943167 1_565
Hg106 Hg87 3.003074 1_555
Hg106 Hg28 3.048412 1_565
Hg106 Hg13 3.174911 1_565
Hg106 Sr7 3.548612 1_555
Hg106 Sr24 3.615998 1_455
Hg106 Sr12 3.753965 1_555
Hg106 Sr20 3.778371 1_565
Hg107 Hg42 2.943167 1_554
Hg107 Hg87 3.003074 1_555
Hg107 Hg29 3.048412 1_554
Hg107 Hg11 3.174911 1_555
Hg107 Sr5 3.548612 1_555
Hg107 Sr24 3.615998 1_455
Hg107 Sr12 3.753965 1_555
Hg107 Sr22 3.778371 1_554
Hg108 Hg43 2.943165 1_565
Hg108 Hg86 3.003083 1_555
Hg108 Hg30 3.048408 1_555
Hg108 Hg13 3.174931 1_565
Hg108 Sr7 3.548577 1_555
Hg108 Sr23 3.616036 1_455
Hg108 Sr11 3.753905 1_555
Hg108 Sr21 3.778391 1_565
Hg109 Hg41 2.943178 1_555
Hg109 Hg88 3.003075 1_555
Hg109 Hg31 3.048423 1_555
Hg109 Hg12 3.174866 1_555
Hg109 Sr6 3.548579 1_555
Hg109 Sr25 3.616032 1_455
Hg109 Sr13 3.753950 1_555
Hg109 Sr20 3.778360 1_555
Hg110 Hg33 2.943165 1_556
Hg110 Hg91 3.003083 1_555
Hg110 Hg29 3.048408 1_655
Hg110 Sr2 3.548577 1_555
Hg110 Sr22 3.616036 1_655
Hg110 Sr10 3.753905 1_555
Hg110 Sr24 3.778391 1_556
Hg111 Hg34 2.943178 1_555
Hg111 Hg89 3.003075 1_555
Hg111 Hg31 3.048423 1_655
Hg111 Hg12 3.174866 1_655
Hg111 Sr3 3.548579 1_555
Hg111 Sr20 3.616032 1_655
Hg111 Sr8 3.753950 1_555
Hg111 Sr25 3.778360 1_555
Hg112 Hg32 2.943167 1_545
Hg112 Hg90 3.003074 1_555
Hg112 Hg30 3.048412 1_645
Hg112 Hg13 3.174911 1_655
Hg112 Sr4 3.548612 1_555
Hg112 Sr21 3.615998 1_655
Hg112 Sr9 3.753965 1_555
Hg112 Sr23 3.778371 1_545
Hg113 Hg36 2.943167 1_556
Hg113 Hg90 3.003074 1_555
Hg113 Hg26 3.048412 1_656
Hg113 Sr2 3.548612 1_555
Hg113 Sr21 3.615998 1_655
Hg113 Sr9 3.753965 1_555
Hg113 Sr25 3.778371 1_556
Hg114 Hg37 2.943165 1_545
Hg114 Hg89 3.003083 1_555
Hg114 Hg28 3.048408 1_655
Hg114 Hg13 3.174931 1_655
Hg114 Sr4 3.548577 1_555
Hg114 Sr20 3.616036 1_655
Hg114 Sr8 3.753905 1_555
Hg114 Sr24 3.778391 1_545
Hg115 Hg35 2.943178 1_555
Hg115 Hg91 3.003075 1_555
Hg115 Hg27 3.048423 1_655
Hg115 Hg12 3.174866 1_655
Hg115 Sr3 3.548579 1_555
Hg115 Sr22 3.616032 1_655
Hg115 Sr10 3.753950 1_555
Hg115 Sr23 3.778360 1_555
