# generated using pymatgen
data_Ba2H2C4O9
_symmetry_space_group_name_H-M   'P 1'
_cell_length_a   6.47319600
_cell_length_b   8.69412351
_cell_length_c   9.76985822
_cell_angle_alpha   65.07721681
_cell_angle_beta   83.74496131
_cell_angle_gamma   82.03360026
_symmetry_Int_Tables_number   1
_chemical_formula_structural   Ba2H2C4O9
_chemical_formula_sum   'Ba4 H4 C8 O18'
_cell_volume   493.03804503
_cell_formula_units_Z   2
loop_
 _symmetry_equiv_pos_site_id
 _symmetry_equiv_pos_as_xyz
  1  'x, y, z'
loop_
 _atom_site_type_symbol
 _atom_site_label
 _atom_site_symmetry_multiplicity
 _atom_site_fract_x
 _atom_site_fract_y
 _atom_site_fract_z
 _atom_site_occupancy
  Ba  Ba0  1  0.75074100  0.49061200  0.20365300  1
  Ba  Ba1  1  0.24925900  0.50938800  0.79634700  1
  Ba  Ba2  1  0.19367000  0.13441500  0.57805500  1
  Ba  Ba3  1  0.80633000  0.86558500  0.42194500  1
  H  H0  1  0.14019800  0.04053700  0.96793300  1
  H  H1  1  0.85980200  0.95946300  0.03206700  1
  H  H2  1  0.71759700  0.10152800  0.07139100  1
  H  H3  1  0.28240300  0.89847200  0.92860900  1
  C  C0  1  0.39205100  0.18447800  0.18826500  1
  C  C1  1  0.60794900  0.81552200  0.81173500  1
  C  C2  1  0.23200500  0.58580000  0.31937900  1
  C  C3  1  0.76799500  0.41420000  0.68062100  1
  C  C4  1  0.34847800  0.67595200  0.39246200  1
  C  C5  1  0.65152200  0.32404800  0.60753800  1
  C  C6  1  0.14943000  0.22337900  0.19282800  1
  C  C7  1  0.85057000  0.77662100  0.80717200  1
  O  O0  1  0.06665200  0.32256200  0.07098700  1
  O  O1  1  0.93334800  0.67743800  0.92901300  1
  O  O2  1  0.47734300  0.11165400  0.31406500  1
  O  O3  1  0.52265700  0.88834600  0.68593500  1
  O  O4  1  0.83592800  0.00924100  0.10560600  1
  O  O5  1  0.16407200  0.99075900  0.89439400  1
  O  O6  1  0.96438800  0.37569500  0.69061300  1
  O  O7  1  0.03561200  0.62430500  0.30938700  1
  O  O8  1  0.45747600  0.31287600  0.64271400  1
  O  O9  1  0.54252400  0.68712400  0.35728600  1
  O  O10  1  0.48401100  0.23294600  0.05764700  1
  O  O11  1  0.51598900  0.76705400  0.94235300  1
  O  O12  1  0.04633100  0.15807900  0.31900900  1
  O  O13  1  0.95366900  0.84192100  0.68099100  1
  O  O14  1  0.24120600  0.72752200  0.48453100  1
  O  O15  1  0.75879400  0.27247800  0.51546900  1
  O  O16  1  0.33952400  0.47552100  0.28071500  1
  O  O17  1  0.66047600  0.52447900  0.71928500  1
loop_
_geom_bond_atom_site_label_1
_geom_bond_atom_site_label_2
_geom_bond_distance
_geom_bond_site_symmetry_2
Ba0 O16 2.691940 1_555
Ba0 O1 2.720848 1_554
Ba0 O7 2.799952 1_655
Ba0 O15 2.831594 1_555
Ba0 O9 2.840892 1_555
Ba0 O0 2.861242 1_655
Ba0 O11 3.043792 1_554
Ba0 O12 3.078988 1_655
Ba1 O17 2.691940 1_555
Ba1 O0 2.720848 1_556
Ba1 O6 2.799952 1_455
Ba1 O14 2.831594 1_555
Ba1 O8 2.840892 1_555
Ba1 O1 2.861242 1_455
Ba1 O10 3.043792 1_556
Ba1 O13 3.078988 1_455
Ba2 O12 2.718438 1_555
Ba2 O8 2.741909 1_555
Ba2 O3 2.747507 1_545
Ba2 O5 2.798649 1_545
Ba2 O13 2.913926 1_445
Ba2 O6 2.921992 1_455
Ba2 O15 2.925582 1_455
Ba2 O2 3.059484 1_555
Ba2 O16 3.323086 1_555
Ba3 O13 2.718438 1_555
Ba3 O9 2.741909 1_555
Ba3 O2 2.747507 1_565
Ba3 O4 2.798649 1_565
Ba3 O12 2.913926 1_665
Ba3 O7 2.921992 1_655
Ba3 O14 2.925582 1_655
Ba3 O3 3.059484 1_555
Ba3 O17 3.323086 1_555
H0 O5 0.972980 1_545
H1 O4 0.972980 1_565
H2 O4 1.000817 1_555
H3 O5 1.000817 1_555
C0 O10 1.269328 1_555
C0 O2 1.269409 1_555
C1 O11 1.269328 1_555
C1 O3 1.269409 1_555
C2 O16 1.268594 1_555
C2 O7 1.272522 1_555
C3 O17 1.268594 1_555
C3 O6 1.272522 1_555
C4 O14 1.268778 1_555
C4 O9 1.271590 1_555
C5 O15 1.268778 1_555
C5 O8 1.271590 1_555
C6 O0 1.262338 1_555
C6 O12 1.274098 1_555
C7 O1 1.262338 1_555
C7 O13 1.274098 1_555
