# generated using pymatgen
data_NiIr
_symmetry_space_group_name_H-M   'P 1'
_cell_length_a   8.78113099
_cell_length_b   8.78113099
_cell_length_c   8.78113248
_cell_angle_alpha   35.29343872
_cell_angle_beta   35.29343872
_cell_angle_gamma   35.29343046
_symmetry_Int_Tables_number   1
_chemical_formula_structural   NiIr
_chemical_formula_sum   'Ni8 Ir8'
_cell_volume   201.91313240
_cell_formula_units_Z   8
loop_
 _symmetry_equiv_pos_site_id
 _symmetry_equiv_pos_as_xyz
  1  'x, y, z'
loop_
 _atom_site_type_symbol
 _atom_site_label
 _atom_site_symmetry_multiplicity
 _atom_site_fract_x
 _atom_site_fract_y
 _atom_site_fract_z
 _atom_site_occupancy
  Ni  Ni0_0  1  0.25000000  0.25000000  0.25000000  1
  Ni  Ni0_1  1  0.25000000  0.25000000  0.75000000  1
  Ni  Ni0_2  1  0.25000000  0.75000000  0.25000000  1
  Ni  Ni0_3  1  0.25000000  0.75000000  0.75000000  1
  Ni  Ni0_4  1  0.75000000  0.25000000  0.25000000  1
  Ni  Ni0_5  1  0.75000000  0.25000000  0.75000000  1
  Ni  Ni0_6  1  0.75000000  0.75000000  0.25000000  1
  Ni  Ni0_7  1  0.75000000  0.75000000  0.75000000  1
  Ir  Ir0_0  1  0.00000000  0.00000000  0.00000000  1
  Ir  Ir0_1  1  0.00000000  0.00000000  0.50000000  1
  Ir  Ir0_2  1  0.00000000  0.50000000  0.00000000  1
  Ir  Ir0_3  1  0.00000000  0.50000000  0.50000000  1
  Ir  Ir0_4  1  0.50000000  0.00000000  0.00000000  1
  Ir  Ir0_5  1  0.50000000  0.00000000  0.50000000  1
  Ir  Ir0_6  1  0.50000000  0.50000000  0.00000000  1
  Ir  Ir0_7  1  0.50000000  0.50000000  0.50000000  1
loop_
_geom_bond_atom_site_label_1
_geom_bond_atom_site_label_2
_geom_bond_distance
_geom_bond_site_symmetry_2
Ni0_0 Ni0_6 2.661973 1_545
Ni0_0 Ni0_6 2.661973 1_455
Ni0_0 Ni0_3 2.661974 1_554
Ni0_0 Ni0_5 2.661974 1_455
Ni0_0 Ni0_5 2.661974 1_554
Ni0_0 Ni0_3 2.661974 1_545
Ni0_1 Ni0_7 2.661973 1_455
Ni0_1 Ni0_7 2.661973 1_545
Ni0_1 Ni0_4 2.661974 1_456
Ni0_1 Ni0_2 2.661974 1_555
Ni0_1 Ni0_4 2.661974 1_555
Ni0_1 Ni0_2 2.661974 1_546
Ni0_2 Ni0_4 2.661973 1_555
Ni0_2 Ni0_4 2.661973 1_465
Ni0_2 Ni0_7 2.661974 1_554
Ni0_2 Ni0_7 2.661974 1_455
Ni0_3 Ni0_5 2.661973 1_555
Ni0_3 Ni0_5 2.661973 1_465
Ni0_3 Ni0_6 2.661974 1_456
Ni0_3 Ni0_6 2.661974 1_555
Ni0_4 Ni0_7 2.661974 1_554
Ni0_4 Ni0_7 2.661974 1_545
Ni0_5 Ni0_6 2.661974 1_546
Ni0_5 Ni0_6 2.661974 1_555
Ir0_0 Ni0_1 2.567254 1_554
Ir0_0 Ni0_6 2.567254 1_445
Ir0_0 Ni0_2 2.567254 1_545
Ir0_0 Ni0_4 2.567254 1_455
Ir0_0 Ni0_5 2.567254 1_454
Ir0_0 Ni0_3 2.567254 1_544
Ir0_0 Ir0_6 2.661973 1_455
Ir0_0 Ir0_6 2.661973 1_545
Ir0_0 Ir0_3 2.661974 1_545
Ir0_0 Ir0_5 2.661974 1_554
Ir0_0 Ir0_5 2.661974 1_455
Ir0_0 Ir0_3 2.661974 1_554
Ir0_1 Ni0_0 2.567254 1_555
Ir0_1 Ni0_7 2.567254 1_445
Ir0_1 Ni0_5 2.567254 1_455
Ir0_1 Ni0_3 2.567254 1_545
Ir0_1 Ni0_4 2.567254 1_455
Ir0_1 Ni0_2 2.567254 1_545
Ir0_1 Ir0_7 2.661973 1_545
Ir0_1 Ir0_7 2.661973 1_455
Ir0_1 Ir0_2 2.661974 1_546
Ir0_1 Ir0_2 2.661974 1_555
Ir0_1 Ir0_4 2.661974 1_456
Ir0_1 Ir0_4 2.661974 1_555
Ir0_2 Ni0_4 2.567254 1_455
Ir0_2 Ni0_3 2.567254 1_554
Ir0_2 Ni0_1 2.567254 1_554
Ir0_2 Ni0_0 2.567254 1_555
Ir0_2 Ni0_6 2.567254 1_455
Ir0_2 Ni0_7 2.567254 1_454
Ir0_2 Ir0_4 2.661973 1_555
Ir0_2 Ir0_4 2.661973 1_465
Ir0_2 Ir0_7 2.661974 1_554
Ir0_2 Ir0_7 2.661974 1_455
Ir0_3 Ni0_2 2.567254 1_555
Ir0_3 Ni0_5 2.567254 1_455
Ir0_3 Ni0_7 2.567254 1_455
Ir0_3 Ni0_1 2.567254 1_555
Ir0_3 Ni0_6 2.567254 1_455
Ir0_3 Ni0_0 2.567254 1_555
Ir0_3 Ir0_5 2.661973 1_555
Ir0_3 Ir0_5 2.661973 1_465
Ir0_3 Ir0_6 2.661974 1_456
Ir0_3 Ir0_6 2.661974 1_555
Ir0_4 Ni0_5 2.567254 1_554
Ir0_4 Ni0_2 2.567254 1_545
Ir0_4 Ni0_6 2.567254 1_545
Ir0_4 Ni0_0 2.567254 1_555
Ir0_4 Ni0_1 2.567254 1_554
Ir0_4 Ni0_7 2.567254 1_544
Ir0_4 Ir0_7 2.661974 1_554
Ir0_4 Ir0_7 2.661974 1_545
Ir0_5 Ni0_4 2.567254 1_555
Ir0_5 Ni0_3 2.567254 1_545
Ir0_5 Ni0_7 2.567254 1_545
Ir0_5 Ni0_6 2.567254 1_545
Ir0_5 Ni0_0 2.567254 1_555
Ir0_5 Ni0_1 2.567254 1_555
Ir0_5 Ir0_6 2.661974 1_546
Ir0_5 Ir0_6 2.661974 1_555
Ir0_6 Ni0_7 2.567254 1_554
Ir0_6 Ni0_0 2.567254 1_555
Ir0_6 Ni0_2 2.567254 1_555
Ir0_6 Ni0_4 2.567254 1_555
Ir0_6 Ni0_5 2.567254 1_554
Ir0_6 Ni0_3 2.567254 1_554
Ir0_7 Ni0_1 2.567254 1_555
Ir0_7 Ni0_6 2.567254 1_555
Ir0_7 Ni0_3 2.567254 1_555
Ir0_7 Ni0_2 2.567254 1_555
Ir0_7 Ni0_5 2.567254 1_555
Ir0_7 Ni0_4 2.567254 1_555
