# generated using pymatgen
data_Zr3Fe8Si
_symmetry_space_group_name_H-M   'P 1'
_cell_length_a   4.92151269
_cell_length_b   4.92151269
_cell_length_c   8.48695009
_cell_angle_alpha   106.85472190
_cell_angle_beta   73.14527810
_cell_angle_gamma   120.00000000
_symmetry_Int_Tables_number   1
_chemical_formula_structural   Zr3Fe8Si
_chemical_formula_sum   'Zr3 Fe8 Si1'
_cell_volume   167.75041029
_cell_formula_units_Z   1
loop_
 _symmetry_equiv_pos_site_id
 _symmetry_equiv_pos_as_xyz
  1  'x, y, z'
loop_
 _atom_site_type_symbol
 _atom_site_label
 _atom_site_symmetry_multiplicity
 _atom_site_fract_x
 _atom_site_fract_y
 _atom_site_fract_z
 _atom_site_occupancy
  Zr  Zr0  1  0.37535400  0.62464600  0.87393800  1
  Zr  Zr1  1  0.99586200  0.00413800  0.01241500  1
  Zr  Zr2  1  0.50320900  0.49679100  0.49037300  1
  Fe  Fe0  1  0.43648400  0.56351600  0.19023800  1
  Fe  Fe1  1  0.93790200  0.06209800  0.68340200  1
  Fe  Fe2  1  0.43648400  0.06320500  0.19023800  1
  Fe  Fe3  1  0.93790200  0.55920500  0.68340200  1
  Fe  Fe4  1  0.18800400  0.81199600  0.43598900  1
  Fe  Fe5  1  0.68772900  0.31227100  0.93681200  1
  Fe  Fe6  1  0.93679500  0.56351600  0.19023800  1
  Fe  Fe7  1  0.44079500  0.06209800  0.68340200  1
  Si  Si0  1  0.87348200  0.12651800  0.37955500  1
loop_
_geom_bond_atom_site_label_1
_geom_bond_atom_site_label_2
_geom_bond_distance
_geom_bond_site_symmetry_2
Zr0 Zr1 3.049612 1_466
Zr0 Zr1 3.049616 1_456
Zr0 Zr1 3.049616 1_566
Fe0 Fe4 2.424536 1_555
Fe0 Fe2 2.459226 1_565
Fe0 Fe6 2.459226 1_455
Fe0 Fe6 2.462287 1_555
Fe0 Fe2 2.462287 1_555
Fe0 Fe5 2.475561 1_554
Fe0 Zr2 2.789630 1_555
Fe0 Zr1 2.842117 1_565
Fe0 Zr1 2.842117 1_455
Fe0 Si0 2.889206 1_455
Fe0 Si0 2.889206 1_565
Fe0 Zr0 2.900744 1_554
Fe1 Fe4 2.440641 1_645
Fe1 Fe7 2.446518 1_555
Fe1 Fe3 2.446518 1_555
Fe1 Fe5 2.470245 1_555
Fe1 Fe3 2.474994 1_545
Fe1 Fe7 2.474994 1_655
Fe1 Si0 2.810628 1_555
Fe1 Zr0 2.894338 1_655
Fe1 Zr0 2.894338 1_545
Fe1 Zr2 2.904884 1_545
Fe1 Zr2 2.904884 1_655
Fe1 Zr1 2.994147 1_556
Fe2 Fe4 2.424536 1_545
Fe2 Fe6 2.459226 1_445
Fe2 Fe6 2.462287 1_555
Fe2 Fe5 2.475566 1_554
Fe2 Zr2 2.789632 1_555
Fe2 Zr1 2.842117 1_555
Fe2 Zr1 2.842117 1_455
Fe2 Si0 2.889206 1_455
Fe2 Si0 2.889206 1_555
Fe2 Zr0 2.900742 1_544
Fe3 Fe4 2.440641 1_655
Fe3 Fe7 2.446518 1_555
Fe3 Fe5 2.470241 1_555
Fe3 Fe7 2.474994 1_665
Fe3 Si0 2.810627 1_555
Fe3 Zr0 2.894336 1_655
Fe3 Zr0 2.894340 1_555
Fe3 Zr2 2.904881 1_655
Fe3 Zr2 2.904886 1_555
Fe3 Zr1 2.994147 1_566
Fe4 Fe6 2.424536 1_455
Fe4 Fe7 2.440641 1_565
Fe4 Zr2 2.874526 1_555
Fe4 Zr2 2.874530 1_455
Fe4 Zr2 2.874530 1_565
Fe4 Si0 2.877055 1_455
Fe4 Si0 2.877055 1_565
Fe4 Si0 2.877055 1_465
Fe5 Fe7 2.470241 1_555
Fe5 Fe6 2.475566 1_556
Fe5 Zr0 2.885579 1_555
Fe5 Zr0 2.885583 1_545
Fe5 Zr0 2.885583 1_655
Fe5 Zr1 2.905047 1_456
Fe5 Zr1 2.905047 1_566
Fe5 Zr1 2.905055 1_556
Fe6 Zr2 2.789632 1_555
Fe6 Zr1 2.842117 1_555
Fe6 Zr1 2.842117 1_565
Fe6 Si0 2.889206 1_565
Fe6 Si0 2.889206 1_555
Fe6 Zr0 2.900742 1_654
Fe7 Si0 2.810627 1_555
Fe7 Zr0 2.894336 1_545
Fe7 Zr0 2.894340 1_555
Fe7 Zr2 2.904881 1_545
Fe7 Zr2 2.904886 1_555
Fe7 Zr1 2.994147 1_456
Si0 Zr1 2.936077 1_555
Si0 Zr2 2.976434 1_655
Si0 Zr2 2.976434 1_545
Si0 Zr2 2.976438 1_555
