# generated using pymatgen
data_NaHg2
_symmetry_space_group_name_H-M   'P 1'
_cell_length_a   10.21147976
_cell_length_b   10.21147677
_cell_length_c   6.51997858
_cell_angle_alpha   90.00000000
_cell_angle_beta   90.00000000
_cell_angle_gamma   120.00000296
_symmetry_Int_Tables_number   1
_chemical_formula_structural   NaHg2
_chemical_formula_sum   'Na8 Hg16'
_cell_volume   588.78131924
_cell_formula_units_Z   8
loop_
 _symmetry_equiv_pos_site_id
 _symmetry_equiv_pos_as_xyz
  1  'x, y, z'
loop_
 _atom_site_type_symbol
 _atom_site_label
 _atom_site_symmetry_multiplicity
 _atom_site_fract_x
 _atom_site_fract_y
 _atom_site_fract_z
 _atom_site_occupancy
  Na  Na0_0  1  0.00000000  0.00000000  0.00000000  1
  Na  Na0_1  1  0.00000000  0.00000000  0.50000000  1
  Na  Na0_2  1  0.00000000  0.50000000  0.00000000  1
  Na  Na0_3  1  0.00000000  0.50000000  0.50000000  1
  Na  Na0_4  1  0.50000000  0.00000000  0.00000000  1
  Na  Na0_5  1  0.50000000  0.00000000  0.50000000  1
  Na  Na0_6  1  0.50000000  0.50000000  0.00000000  1
  Na  Na0_7  1  0.50000000  0.50000000  0.50000000  1
  Hg  Hg0_0  1  0.33333350  0.16666650  0.25000000  1
  Hg  Hg0_1  1  0.33333350  0.16666650  0.75000000  1
  Hg  Hg0_2  1  0.33333350  0.66666650  0.25000000  1
  Hg  Hg0_3  1  0.33333350  0.66666650  0.75000000  1
  Hg  Hg0_4  1  0.83333350  0.16666650  0.25000000  1
  Hg  Hg0_5  1  0.83333350  0.16666650  0.75000000  1
  Hg  Hg0_6  1  0.83333350  0.66666650  0.25000000  1
  Hg  Hg0_7  1  0.83333350  0.66666650  0.75000000  1
  Hg  Hg1_0  1  0.16666650  0.33333350  0.25000000  1
  Hg  Hg1_1  1  0.16666650  0.33333350  0.75000000  1
  Hg  Hg1_2  1  0.16666650  0.83333350  0.25000000  1
  Hg  Hg1_3  1  0.16666650  0.83333350  0.75000000  1
  Hg  Hg1_4  1  0.66666650  0.33333350  0.25000000  1
  Hg  Hg1_5  1  0.66666650  0.33333350  0.75000000  1
  Hg  Hg1_6  1  0.66666650  0.83333350  0.25000000  1
  Hg  Hg1_7  1  0.66666650  0.83333350  0.75000000  1
loop_
_geom_bond_atom_site_label_1
_geom_bond_atom_site_label_2
_geom_bond_distance
_geom_bond_site_symmetry_2
Na0_0 Na0_1 3.259989 1_554
Na0_0 Na0_1 3.259989 1_555
Na0_2 Na0_3 3.259989 1_555
Na0_2 Na0_3 3.259989 1_554
Na0_4 Na0_5 3.259989 1_555
Na0_4 Na0_5 3.259989 1_554
Na0_6 Na0_7 3.259989 1_555
Na0_6 Na0_7 3.259989 1_554
Hg0_0 Hg1_2 2.947796 1_545
Hg0_0 Hg1_4 2.947797 1_555
Hg0_0 Hg1_0 2.947806 1_555
Hg0_0 Hg0_1 3.259989 1_555
Hg0_0 Hg0_1 3.259989 1_554
Hg0_0 Na0_4 3.368440 1_555
Hg0_0 Na0_5 3.368440 1_555
Hg0_0 Na0_7 3.368444 1_555
Hg0_0 Na0_6 3.368444 1_555
Hg0_0 Na0_1 3.368444 1_555
Hg0_0 Na0_0 3.368444 1_555
Hg0_1 Hg1_3 2.947796 1_545
Hg0_1 Hg1_5 2.947797 1_555
Hg0_1 Hg1_1 2.947806 1_555
Hg0_1 Na0_4 3.368440 1_556
Hg0_1 Na0_5 3.368440 1_555
Hg0_1 Na0_7 3.368444 1_555
Hg0_1 Na0_6 3.368444 1_556
Hg0_1 Na0_1 3.368444 1_555
Hg0_1 Na0_0 3.368444 1_556
Hg0_2 Hg1_0 2.947796 1_555
Hg0_2 Hg1_6 2.947797 1_555
Hg0_2 Hg1_2 2.947806 1_555
Hg0_2 Hg0_3 3.259989 1_555
Hg0_2 Hg0_3 3.259989 1_554
Hg0_2 Na0_7 3.368440 1_555
Hg0_2 Na0_6 3.368440 1_555
Hg0_2 Na0_4 3.368444 1_565
Hg0_2 Na0_5 3.368444 1_565
Hg0_2 Na0_2 3.368444 1_555
Hg0_2 Na0_3 3.368444 1_555
Hg0_3 Hg1_1 2.947796 1_555
Hg0_3 Hg1_7 2.947797 1_555
Hg0_3 Hg1_3 2.947806 1_555
Hg0_3 Na0_7 3.368440 1_555
Hg0_3 Na0_6 3.368440 1_556
Hg0_3 Na0_4 3.368444 1_566
Hg0_3 Na0_5 3.368444 1_565
Hg0_3 Na0_2 3.368444 1_556
Hg0_3 Na0_3 3.368444 1_555
Hg0_4 Hg1_6 2.947796 1_545
Hg0_4 Hg1_0 2.947797 1_655
Hg0_4 Hg1_4 2.947806 1_555
Hg0_4 Hg0_5 3.259989 1_555
Hg0_4 Hg0_5 3.259989 1_554
Hg0_4 Na0_1 3.368440 1_655
Hg0_4 Na0_0 3.368440 1_655
Hg0_4 Na0_2 3.368444 1_655
Hg0_4 Na0_3 3.368444 1_655
Hg0_4 Na0_5 3.368444 1_555
Hg0_4 Na0_4 3.368444 1_555
Hg0_5 Hg1_7 2.947796 1_545
Hg0_5 Hg1_1 2.947797 1_655
Hg0_5 Hg1_5 2.947806 1_555
Hg0_5 Na0_1 3.368440 1_655
Hg0_5 Na0_0 3.368440 1_656
Hg0_5 Na0_2 3.368444 1_656
Hg0_5 Na0_3 3.368444 1_655
Hg0_5 Na0_5 3.368444 1_555
Hg0_5 Na0_4 3.368444 1_556
Hg0_6 Hg1_4 2.947796 1_555
Hg0_6 Hg1_2 2.947797 1_655
Hg0_6 Hg1_6 2.947806 1_555
Hg0_6 Hg0_7 3.259989 1_554
Hg0_6 Hg0_7 3.259989 1_555
Hg0_6 Na0_2 3.368440 1_655
Hg0_6 Na0_3 3.368440 1_655
Hg0_6 Na0_1 3.368444 1_665
Hg0_6 Na0_0 3.368444 1_665
Hg0_6 Na0_6 3.368444 1_555
Hg0_6 Na0_7 3.368444 1_555
Hg0_7 Hg1_5 2.947796 1_555
Hg0_7 Hg1_3 2.947797 1_655
Hg0_7 Hg1_7 2.947806 1_555
Hg0_7 Na0_2 3.368440 1_656
Hg0_7 Na0_3 3.368440 1_655
Hg0_7 Na0_0 3.368444 1_666
Hg0_7 Na0_1 3.368444 1_665
Hg0_7 Na0_6 3.368444 1_556
Hg0_7 Na0_7 3.368444 1_555
Hg1_0 Hg1_1 3.259989 1_555
Hg1_0 Hg1_1 3.259989 1_554
Hg1_0 Na0_2 3.368440 1_555
Hg1_0 Na0_3 3.368440 1_555
Hg1_0 Na0_1 3.368444 1_555
Hg1_0 Na0_0 3.368444 1_555
Hg1_0 Na0_6 3.368444 1_555
Hg1_0 Na0_7 3.368444 1_555
Hg1_1 Na0_2 3.368440 1_556
Hg1_1 Na0_3 3.368440 1_555
Hg1_1 Na0_0 3.368444 1_556
Hg1_1 Na0_1 3.368444 1_555
Hg1_1 Na0_6 3.368444 1_556
Hg1_1 Na0_7 3.368444 1_555
Hg1_2 Hg1_3 3.259989 1_554
Hg1_2 Hg1_3 3.259989 1_555
Hg1_2 Na0_0 3.368440 1_565
Hg1_2 Na0_1 3.368440 1_565
Hg1_2 Na0_2 3.368444 1_555
Hg1_2 Na0_3 3.368444 1_555
Hg1_2 Na0_4 3.368444 1_565
Hg1_2 Na0_5 3.368444 1_565
Hg1_3 Na0_0 3.368440 1_566
Hg1_3 Na0_1 3.368440 1_565
Hg1_3 Na0_2 3.368444 1_556
Hg1_3 Na0_3 3.368444 1_555
Hg1_3 Na0_4 3.368444 1_566
Hg1_3 Na0_5 3.368444 1_565
Hg1_4 Hg1_5 3.259989 1_555
Hg1_4 Hg1_5 3.259989 1_554
Hg1_4 Na0_6 3.368440 1_555
Hg1_4 Na0_7 3.368440 1_555
Hg1_4 Na0_4 3.368444 1_555
Hg1_4 Na0_5 3.368444 1_555
Hg1_4 Na0_2 3.368444 1_655
Hg1_4 Na0_3 3.368444 1_655
Hg1_5 Na0_6 3.368440 1_556
Hg1_5 Na0_7 3.368440 1_555
Hg1_5 Na0_4 3.368444 1_556
Hg1_5 Na0_5 3.368444 1_555
Hg1_5 Na0_2 3.368444 1_656
Hg1_5 Na0_3 3.368444 1_655
Hg1_6 Hg1_7 3.259989 1_554
Hg1_6 Hg1_7 3.259989 1_555
Hg1_6 Na0_4 3.368440 1_565
Hg1_6 Na0_5 3.368440 1_565
Hg1_6 Na0_7 3.368444 1_555
Hg1_6 Na0_6 3.368444 1_555
Hg1_6 Na0_1 3.368444 1_665
Hg1_6 Na0_0 3.368444 1_665
Hg1_7 Na0_4 3.368440 1_566
Hg1_7 Na0_5 3.368440 1_565
Hg1_7 Na0_7 3.368444 1_555
Hg1_7 Na0_6 3.368444 1_556
Hg1_7 Na0_1 3.368444 1_665
Hg1_7 Na0_0 3.368444 1_666
