# generated using pymatgen
data_Li2Fe2P2O9F
_symmetry_space_group_name_H-M   'P 1'
_cell_length_a   5.23588883
_cell_length_b   5.37110413
_cell_length_c   7.30319993
_cell_angle_alpha   106.04614725
_cell_angle_beta   107.68624419
_cell_angle_gamma   98.22347479
_symmetry_Int_Tables_number   1
_chemical_formula_structural   Li2Fe2P2O9F
_chemical_formula_sum   'Li2 Fe2 P2 O9 F1'
_cell_volume   182.18153519
_cell_formula_units_Z   1
loop_
 _symmetry_equiv_pos_site_id
 _symmetry_equiv_pos_as_xyz
  1  'x, y, z'
loop_
 _atom_site_type_symbol
 _atom_site_label
 _atom_site_symmetry_multiplicity
 _atom_site_fract_x
 _atom_site_fract_y
 _atom_site_fract_z
 _atom_site_occupancy
  Li  Li0  1  0.74014900  0.38738100  0.29854400  1
  Li  Li1  1  0.26239800  0.61651300  0.70319800  1
  Fe  Fe0  1  0.00814200  0.00788600  0.49905100  1
  Fe  Fe1  1  0.99059500  0.99740700  0.00525500  1
  P  P0  1  0.31877700  0.63484700  0.25600100  1
  P  P1  1  0.67955900  0.36472900  0.74251700  1
  O  O0  1  0.63123500  0.75996100  0.39176000  1
  O  O1  1  0.37433400  0.24477700  0.59283800  1
  O  O2  1  0.13996400  0.66785800  0.39343700  1
  O  O3  1  0.87721400  0.34122600  0.61894200  1
  O  O4  1  0.30888900  0.33349000  0.16355200  1
  O  O5  1  0.68315600  0.66219700  0.83989400  1
  O  O6  1  0.23488800  0.76247700  0.09053200  1
  O  O7  1  0.74968700  0.22371100  0.90113800  1
  O  O8  1  0.88775700  0.06618300  0.24109900  1
  F  F0  1  0.11325500  0.92935700  0.76223800  1
loop_
_geom_bond_atom_site_label_1
_geom_bond_atom_site_label_2
_geom_bond_distance
_geom_bond_site_symmetry_2
Li0 O8 1.981895 1_555
Li0 O4 2.111180 1_555
Li0 O0 2.145350 1_555
Li0 O2 2.184307 1_655
Li0 O3 2.324435 1_555
Li1 O5 2.069745 1_555
Li1 O3 2.126549 1_455
Li1 O1 2.170665 1_555
Li1 O2 2.262535 1_555
Fe0 O8 1.924939 1_455
Fe0 O1 1.945928 1_555
Fe0 O0 2.003384 1_445
Fe0 O3 2.071552 1_455
Fe0 O2 2.076561 1_545
Fe1 O8 1.913577 1_565
Fe1 O7 2.003361 1_564
Fe1 O6 2.007063 1_655
Fe1 O5 2.019642 1_554
Fe1 O4 2.046338 1_665
O0 P0 1.562909 1_555
O1 P1 1.555210 1_555
O2 P0 1.560623 1_555
O3 P1 1.563118 1_555
O4 P0 1.558559 1_555
O5 P1 1.553694 1_555
O6 P0 1.531274 1_555
O7 P1 1.535144 1_555
F0 Li1 1.949001 1_555
F0 Fe0 2.011748 1_565
F0 Fe1 2.024127 1_456
