# generated using pymatgen
data_H4CN5O
_symmetry_space_group_name_H-M   'P 1'
_cell_length_a   7.33890881
_cell_length_b   7.95953400
_cell_length_c   16.78664470
_cell_angle_alpha   90.00000000
_cell_angle_beta   95.14961734
_cell_angle_gamma   90.00000000
_symmetry_Int_Tables_number   1
_chemical_formula_structural   H4CN5O
_chemical_formula_sum   'H32 C8 N40 O8'
_cell_volume   976.62209733
_cell_formula_units_Z   8
loop_
 _symmetry_equiv_pos_site_id
 _symmetry_equiv_pos_as_xyz
  1  'x, y, z'
loop_
 _atom_site_type_symbol
 _atom_site_label
 _atom_site_symmetry_multiplicity
 _atom_site_fract_x
 _atom_site_fract_y
 _atom_site_fract_z
 _atom_site_occupancy
  H  H0  1  0.53312900  0.34634300  0.27595400  1
  H  H1  1  0.46687100  0.84634300  0.72404600  1
  H  H2  1  0.85987400  0.33653000  0.17526400  1
  H  H3  1  0.14012600  0.83653000  0.82473600  1
  H  H4  1  0.11696400  0.13681200  0.40030000  1
  H  H5  1  0.88303600  0.63681200  0.59970000  1
  H  H6  1  0.34929300  0.03830500  0.31039500  1
  H  H7  1  0.65070700  0.53830500  0.68960500  1
  H  H8  1  0.43069500  0.13744000  0.15392100  1
  H  H9  1  0.56930500  0.63744000  0.84607900  1
  H  H10  1  0.12770600  0.03825200  0.85132800  1
  H  H11  1  0.87229400  0.53825200  0.14867200  1
  H  H12  1  0.37931600  0.48914600  0.37223600  1
  H  H13  1  0.62068400  0.98914600  0.62776400  1
  H  H14  1  0.13401700  0.45671700  0.82515700  1
  H  H15  1  0.86598300  0.95671700  0.17484300  1
  H  H16  1  0.89986100  0.51072300  0.32710700  1
  H  H17  1  0.10013900  0.01072300  0.67289300  1
  H  H18  1  0.08416000  0.52836500  0.40510400  1
  H  H19  1  0.91584000  0.02836500  0.59489600  1
  H  H20  1  0.18009500  0.43110300  0.17341200  1
  H  H21  1  0.81990500  0.93110300  0.82658800  1
  H  H22  1  0.46396800  0.93031200  0.15200600  1
  H  H23  1  0.53603200  0.43031200  0.84799400  1
  H  H24  1  0.53251100  0.54554800  0.24580400  1
  H  H25  1  0.46748900  0.04554800  0.75419600  1
  H  H26  1  0.14463800  0.01851800  0.11385900  1
  H  H27  1  0.85536200  0.51851800  0.88614100  1
  H  H28  1  0.17127700  0.93586000  0.41615500  1
  H  H29  1  0.82872300  0.43586000  0.58384500  1
  H  H30  1  0.12055700  0.47982500  0.71844400  1
  H  H31  1  0.87944300  0.97982500  0.28155600  1
  C  C0  1  0.24189300  0.45346200  0.99831000  1
  C  C1  1  0.75810700  0.95346200  0.00169000  1
  C  C2  1  0.15051500  0.47776200  0.29225800  1
  C  C3  1  0.84948500  0.97776200  0.70774200  1
  C  C4  1  0.68235400  0.02185300  0.44057100  1
  C  C5  1  0.31764600  0.52185300  0.55942900  1
  C  C6  1  0.11784000  0.00333700  0.23509100  1
  C  C7  1  0.88216000  0.50333700  0.76490900  1
  N  N0  1  0.15756700  0.22523200  0.94304200  1
  N  N1  1  0.84243300  0.72523200  0.05695800  1
  N  N2  1  0.03319300  0.49541000  0.34796400  1
  N  N3  1  0.96680700  0.99541000  0.65203600  1
  N  N4  1  0.89946700  0.45379500  0.19482600  1
  N  N5  1  0.10053300  0.95379500  0.80517400  1
  N  N6  1  0.33215200  0.48423200  0.31292000  1
  N  N7  1  0.66784800  0.98423200  0.68708000  1
  N  N8  1  0.06459100  0.49347200  0.77156900  1
  N  N9  1  0.93540900  0.99347200  0.22843100  1
  N  N10  1  0.20997000  0.01968600  0.30715700  1
  N  N11  1  0.79003000  0.51968600  0.69284300  1
  N  N12  1  0.30416500  0.62361000  0.00877900  1
  N  N13  1  0.69583500  0.12361000  0.99122100  1
  N  N14  1  0.28907000  0.34780200  0.57637200  1
  N  N15  1  0.71093000  0.84780200  0.42362800  1
  N  N16  1  0.16272800  0.20618600  0.02257700  1
  N  N17  1  0.83727200  0.70618600  0.97742300  1
  N  N18  1  0.45186000  0.44434400  0.25531000  1
  N  N19  1  0.54814000  0.94434400  0.74469000  1
  N  N20  1  0.20733200  0.38151400  0.92637100  1
  N  N21  1  0.79266800  0.88151400  0.07362900  1
  N  N22  1  0.69893300  0.25546800  0.49969500  1
  N  N23  1  0.30106700  0.75546800  0.50030500  1
  N  N24  1  0.08917700  0.45371200  0.21565200  1
  N  N25  1  0.91082300  0.95371200  0.78434800  1
  N  N26  1  0.60539700  0.27574700  0.42789000  1
  N  N27  1  0.39460300  0.77574700  0.57211000  1
  N  N28  1  0.59331900  0.12876800  0.38913600  1
  N  N29  1  0.40668100  0.62876800  0.61086400  1
  N  N30  1  0.11133500  0.01969800  0.37508200  1
  N  N31  1  0.88866500  0.51969800  0.62491800  1
  N  N32  1  0.21124300  0.99804300  0.16952800  1
  N  N33  1  0.78875700  0.49804300  0.83047200  1
  N  N34  1  0.21597800  0.34958900  0.05893100  1
  N  N35  1  0.78402200  0.84958900  0.94106900  1
  N  N36  1  0.25158700  0.59492200  0.49103300  1
  N  N37  1  0.74841300  0.09492200  0.50896700  1
  N  N38  1  0.40073800  0.02520400  0.17972400  1
  N  N39  1  0.59926200  0.52520400  0.82027600  1
  O  O0  1  0.20908900  0.26006600  0.52276500  1
  O  O1  1  0.79091100  0.76006600  0.47723500  1
  O  O2  1  0.34416200  0.29641600  0.64445500  1
  O  O3  1  0.65583800  0.79641600  0.35554500  1
  O  O4  1  0.33254500  0.67610200  0.07850400  1
  O  O5  1  0.66745500  0.17610200  0.92149600  1
  O  O6  1  0.67339900  0.20667200  0.05259200  1
  O  O7  1  0.32660100  0.70667200  0.94740800  1
loop_
_geom_bond_atom_site_label_1
_geom_bond_atom_site_label_2
_geom_bond_distance
_geom_bond_site_symmetry_2
H0 N18 1.023318 1_555
H1 N19 1.023318 1_555
H2 N4 1.022900 1_555
H3 N5 1.022900 1_555
H4 N30 1.023092 1_555
H5 N31 1.023092 1_555
H6 N10 1.029759 1_555
H7 N11 1.029759 1_555
H8 N38 1.025238 1_555
H9 N39 1.025238 1_555
H10 N5 1.031604 1_545
H11 N4 1.031604 1_555
H12 N6 1.025144 1_555
H13 N7 1.025144 1_555
H14 N8 1.035434 1_555
H15 N9 1.035434 1_555
H16 N2 1.016574 1_655
H17 N3 1.016574 1_445
H18 N2 1.031673 1_555
H19 N3 1.031673 1_545
H20 N24 1.032134 1_555
H21 N25 1.032134 1_555
H22 N38 1.020324 1_565
H23 N39 1.020324 1_555
H24 N18 1.020609 1_555
H25 N19 1.020609 1_545
H26 N32 1.027996 1_545
H27 N33 1.027996 1_555
H28 N30 1.029445 1_565
H29 N31 1.029445 1_555
H30 N8 1.020559 1_555
H31 N9 1.020559 1_555
C0 N34 1.337923 1_556
C0 N20 1.340013 1_555
C0 N12 1.435078 1_556
C1 N35 1.337923 1_554
C1 N21 1.340013 1_555
C1 N13 1.435078 1_564
C2 N2 1.334188 1_555
C2 N24 1.337555 1_555
C2 N6 1.347921 1_555
C3 N3 1.334188 1_555
C3 N25 1.337555 1_555
C3 N7 1.347921 1_555
C4 N37 1.338502 1_555
C4 N28 1.339913 1_555
C4 N15 1.433463 1_545
C5 N36 1.338502 1_555
C5 N29 1.339913 1_555
C5 N14 1.433463 1_555
C6 N9 1.335777 1_445
C6 N10 1.338187 1_555
C6 N32 1.348468 1_545
C7 N8 1.335777 1_655
C7 N11 1.338187 1_555
C7 N33 1.348468 1_555
N0 N20 1.333198 1_555
N0 N16 1.340858 1_556
N1 N21 1.333198 1_555
N1 N17 1.340858 1_554
N10 N30 1.404383 1_555
N11 N31 1.404383 1_555
N12 O4 1.242632 1_555
N12 O7 1.247398 1_554
N13 O5 1.242632 1_555
N13 O6 1.247398 1_556
N14 O0 1.243857 1_555
N14 O2 1.246593 1_555
N15 O1 1.243857 1_555
N15 O3 1.246593 1_555
N16 N34 1.336103 1_555
N17 N35 1.336103 1_555
N18 N6 1.400130 1_555
N19 N7 1.400130 1_555
N22 N37 1.333753 1_555
N22 N26 1.342252 1_555
N23 N36 1.333753 1_555
N23 N27 1.342252 1_555
N24 N4 1.404722 1_455
N25 N5 1.404722 1_655
N26 N28 1.337666 1_555
N27 N29 1.337666 1_555
N32 N38 1.402609 1_565
N33 N39 1.402609 1_555
