# generated using pymatgen
data_YMg14TiO16
_symmetry_space_group_name_H-M   'P 1'
_cell_length_a   4.35727200
_cell_length_b   8.70254100
_cell_length_c   8.74435300
_cell_angle_alpha   90.00000000
_cell_angle_beta   90.00000000
_cell_angle_gamma   90.00000000
_symmetry_Int_Tables_number   1
_chemical_formula_structural   YMg14TiO16
_chemical_formula_sum   'Y1 Mg14 Ti1 O16'
_cell_volume   331.58007899
_cell_formula_units_Z   1
loop_
 _symmetry_equiv_pos_site_id
 _symmetry_equiv_pos_as_xyz
  1  'x, y, z'
loop_
 _atom_site_type_symbol
 _atom_site_label
 _atom_site_symmetry_multiplicity
 _atom_site_fract_x
 _atom_site_fract_y
 _atom_site_fract_z
 _atom_site_occupancy
  Y  Y0  1  0.00000000  0.00000000  0.00000000  1
  Mg  Mg0  1  0.00000000  0.50000000  0.00000000  1
  Mg  Mg1  1  0.00000000  0.50000000  0.50000000  1
  Mg  Mg2  1  0.50000000  0.00000000  0.26178900  1
  Mg  Mg3  1  0.50000000  0.00000000  0.73821100  1
  Mg  Mg4  1  0.50000000  0.50000000  0.25228100  1
  Mg  Mg5  1  0.50000000  0.50000000  0.74771900  1
  Mg  Mg6  1  0.50000000  0.26238800  0.00000000  1
  Mg  Mg7  1  0.50000000  0.25278700  0.50000000  1
  Mg  Mg8  1  0.50000000  0.73761200  0.00000000  1
  Mg  Mg9  1  0.50000000  0.74721300  0.50000000  1
  Mg  Mg10  1  0.00000000  0.25629600  0.25758900  1
  Mg  Mg11  1  0.00000000  0.25629600  0.74241100  1
  Mg  Mg12  1  0.00000000  0.74370400  0.25758900  1
  Mg  Mg13  1  0.00000000  0.74370400  0.74241100  1
  Ti  Ti0  1  0.00000000  0.00000000  0.50000000  1
  O  O0  1  0.00000000  0.26152200  0.00000000  1
  O  O1  1  0.00000000  0.26129400  0.50000000  1
  O  O2  1  0.00000000  0.73847800  0.00000000  1
  O  O3  1  0.00000000  0.73870600  0.50000000  1
  O  O4  1  0.50000000  0.24903200  0.24929500  1
  O  O5  1  0.50000000  0.24903200  0.75070500  1
  O  O6  1  0.50000000  0.75096800  0.24929500  1
  O  O7  1  0.50000000  0.75096800  0.75070500  1
  O  O8  1  0.50000000  0.00000000  0.00000000  1
  O  O9  1  0.50000000  0.00000000  0.50000000  1
  O  O10  1  0.50000000  0.50000000  0.00000000  1
  O  O11  1  0.50000000  0.50000000  0.50000000  1
  O  O12  1  0.00000000  0.00000000  0.25285700  1
  O  O13  1  0.00000000  0.00000000  0.74714300  1
  O  O14  1  0.00000000  0.50000000  0.24984900  1
  O  O15  1  0.00000000  0.50000000  0.75015100  1
loop_
_geom_bond_atom_site_label_1
_geom_bond_atom_site_label_2
_geom_bond_distance
_geom_bond_site_symmetry_2
Mg0 O2 2.075365 1_555
Mg0 O0 2.075365 1_555
Mg0 O10 2.178636 1_455
Mg0 O10 2.178636 1_555
Mg0 O15 2.184768 1_554
Mg0 O14 2.184768 1_555
Mg1 O1 2.077349 1_555
Mg1 O3 2.077349 1_555
Mg1 O11 2.178636 1_455
Mg1 O11 2.178636 1_555
Mg1 O14 2.187409 1_555
Mg1 O15 2.187409 1_555
Mg2 O9 2.083001 1_555
Mg2 O4 2.169963 1_555
Mg2 O6 2.169963 1_545
Mg2 O12 2.180036 1_655
Mg2 O12 2.180036 1_555
Mg2 O8 2.289175 1_555
Mg3 O9 2.083001 1_555
Mg3 O5 2.169963 1_555
Mg3 O7 2.169963 1_545
Mg3 O13 2.180036 1_655
Mg3 O13 2.180036 1_555
Mg3 O8 2.289175 1_556
Mg4 O11 2.166142 1_555
Mg4 O14 2.178740 1_555
Mg4 O14 2.178740 1_655
Mg4 O4 2.184215 1_555
Mg4 O6 2.184215 1_555
Mg4 O10 2.206034 1_555
Mg5 O11 2.166142 1_555
Mg5 O15 2.178740 1_555
Mg5 O15 2.178740 1_655
Mg5 O7 2.184215 1_555
Mg5 O5 2.184215 1_555
Mg5 O10 2.206034 1_556
Mg6 O10 2.067828 1_555
Mg6 O0 2.178649 1_555
Mg6 O0 2.178649 1_655
Mg6 O4 2.183020 1_555
Mg6 O5 2.183020 1_554
Mg6 O8 2.283442 1_555
Mg7 O11 2.151381 1_555
Mg7 O1 2.179893 1_655
Mg7 O1 2.179893 1_555
Mg7 O5 2.192497 1_555
Mg7 O4 2.192497 1_555
Mg7 O9 2.199889 1_555
Mg8 O10 2.067828 1_555
Mg8 O2 2.178649 1_655
Mg8 O2 2.178649 1_555
Mg8 O6 2.183020 1_555
Mg8 O7 2.183020 1_554
Mg8 O8 2.283442 1_565
Mg9 O11 2.151381 1_555
Mg9 O3 2.179893 1_655
Mg9 O3 2.179893 1_555
Mg9 O7 2.192497 1_555
Mg9 O6 2.192497 1_555
Mg9 O9 2.199889 1_565
Mg10 O1 2.120174 1_555
Mg10 O14 2.121924 1_555
Mg10 O4 2.180759 1_455
Mg10 O4 2.180759 1_555
Mg10 O12 2.230810 1_555
Mg10 O0 2.252908 1_555
Mg11 O1 2.120174 1_555
Mg11 O15 2.121924 1_555
Mg11 O5 2.180759 1_455
Mg11 O5 2.180759 1_555
Mg11 O13 2.230810 1_555
Mg11 O0 2.252908 1_556
Mg12 O3 2.120174 1_555
Mg12 O14 2.121924 1_555
Mg12 O6 2.180759 1_555
Mg12 O6 2.180759 1_455
Mg12 O12 2.230810 1_565
Mg12 O2 2.252908 1_555
Mg13 O3 2.120174 1_555
Mg13 O15 2.121924 1_555
Mg13 O7 2.180759 1_455
Mg13 O7 2.180759 1_555
Mg13 O13 2.230810 1_565
Mg13 O2 2.252908 1_556
O0 Y0 2.275906 1_555
O1 Ti0 2.273922 1_555
O2 Y0 2.275906 1_565
O3 Ti0 2.273922 1_565
O8 Y0 2.178636 1_655
O8 Y0 2.178636 1_555
O9 Ti0 2.178636 1_655
O9 Ti0 2.178636 1_555
O12 Ti0 2.161106 1_555
O12 Y0 2.211071 1_555
O13 Ti0 2.161106 1_555
O13 Y0 2.211071 1_556
