# generated using pymatgen
data_Al2(CN2)3
_symmetry_space_group_name_H-M   'P 1'
_cell_length_a   9.75282183
_cell_length_b   9.75282183
_cell_length_c   9.75282186
_cell_angle_alpha   32.69272913
_cell_angle_beta   32.69272913
_cell_angle_gamma   32.69272412
_symmetry_Int_Tables_number   1
_chemical_formula_structural   Al2(CN2)3
_chemical_formula_sum   'Al4 C6 N12'
_cell_volume   240.72757942
_cell_formula_units_Z   2
loop_
 _symmetry_equiv_pos_site_id
 _symmetry_equiv_pos_as_xyz
  1  'x, y, z'
loop_
 _atom_site_type_symbol
 _atom_site_label
 _atom_site_symmetry_multiplicity
 _atom_site_fract_x
 _atom_site_fract_y
 _atom_site_fract_z
 _atom_site_occupancy
  Al  Al0  1  0.33497900  0.33497900  0.33497900  1
  Al  Al1  1  0.83497900  0.83497900  0.83497900  1
  Al  Al2  1  0.66502100  0.66502100  0.66502100  1
  Al  Al3  1  0.16502100  0.16502100  0.16502100  1
  C  C0  1  0.25000000  0.93739000  0.56261000  1
  C  C1  1  0.56261000  0.25000000  0.93739000  1
  C  C2  1  0.93739000  0.56261000  0.25000000  1
  C  C3  1  0.43739000  0.75000000  0.06261000  1
  C  C4  1  0.06261000  0.43739000  0.75000000  1
  C  C5  1  0.75000000  0.06261000  0.43739000  1
  N  N0  1  0.45874500  0.85041700  0.07063900  1
  N  N1  1  0.07063900  0.45874500  0.85041700  1
  N  N2  1  0.85041700  0.07063900  0.45874500  1
  N  N3  1  0.35041700  0.95874500  0.57063900  1
  N  N4  1  0.57063900  0.35041700  0.95874500  1
  N  N5  1  0.95874500  0.57063900  0.35041700  1
  N  N6  1  0.54125500  0.14958300  0.92936100  1
  N  N7  1  0.92936100  0.54125500  0.14958300  1
  N  N8  1  0.14958300  0.92936100  0.54125500  1
  N  N9  1  0.64958300  0.04125500  0.42936100  1
  N  N10  1  0.42936100  0.64958300  0.04125500  1
  N  N11  1  0.04125500  0.42936100  0.64958300  1
loop_
_geom_bond_atom_site_label_1
_geom_bond_atom_site_label_2
_geom_bond_distance
_geom_bond_site_symmetry_2
Al0 N9 1.997286 1_555
Al0 N11 1.997287 1_555
Al0 N10 1.997287 1_555
Al0 N5 2.055945 1_455
Al0 N3 2.055945 1_545
Al0 N4 2.055945 1_554
Al1 N6 1.997286 1_565
Al1 N7 1.997287 1_556
Al1 N8 1.997287 1_655
Al1 N1 2.055945 1_655
Al1 N0 2.055945 1_556
Al1 N2 2.055945 1_565
Al2 N3 1.997286 1_555
Al2 N5 1.997287 1_555
Al2 N4 1.997287 1_555
Al2 N11 2.055945 1_655
Al2 N9 2.055945 1_565
Al2 N10 2.055945 1_556
Al3 N0 1.997286 1_545
Al3 N1 1.997287 1_554
Al3 N2 1.997287 1_455
Al3 N7 2.055945 1_455
Al3 N6 2.055945 1_554
Al3 N8 2.055945 1_545
C0 N8 1.228201 1_555
C0 N3 1.228201 1_555
C1 N4 1.228201 1_555
C1 N6 1.228201 1_555
C2 N5 1.228201 1_555
C2 N7 1.228201 1_555
C3 N10 1.228201 1_555
C3 N0 1.228201 1_555
C4 N1 1.228201 1_555
C4 N11 1.228201 1_555
C5 N2 1.228201 1_555
C5 N9 1.228201 1_555
