# generated using pymatgen
data_Nb3RhSe6
_symmetry_space_group_name_H-M   'P 1'
_cell_length_a   6.05631571
_cell_length_b   6.05631571
_cell_length_c   12.62234424
_cell_angle_alpha   90.00000000
_cell_angle_beta   90.00000000
_cell_angle_gamma   120.00000010
_symmetry_Int_Tables_number   1
_chemical_formula_structural   Nb3RhSe6
_chemical_formula_sum   'Nb6 Rh2 Se12'
_cell_volume   400.94764247
_cell_formula_units_Z   2
loop_
 _symmetry_equiv_pos_site_id
 _symmetry_equiv_pos_as_xyz
  1  'x, y, z'
loop_
 _atom_site_type_symbol
 _atom_site_label
 _atom_site_symmetry_multiplicity
 _atom_site_fract_x
 _atom_site_fract_y
 _atom_site_fract_z
 _atom_site_occupancy
  Nb  Nb0  1  0.00000000  0.00000000  0.50000000  1
  Nb  Nb1  1  0.00000000  0.00000000  -0.00000000  1
  Nb  Nb2  1  0.33333300  0.66666700  -0.00077771  1
  Nb  Nb3  1  0.66666700  0.33333300  0.00077771  1
  Nb  Nb4  1  0.66666700  0.33333300  0.49922229  1
  Nb  Nb5  1  0.33333300  0.66666700  0.50077771  1
  Rh  Rh0  1  0.33333300  0.66666700  0.25000000  1
  Rh  Rh1  1  0.66666700  0.33333300  0.75000000  1
  Se  Se0  1  0.33344426  0.32837337  0.36774230  1
  Se  Se1  1  0.67162663  0.00507189  0.36774230  1
  Se  Se2  1  0.99492811  0.66655574  0.36774230  1
  Se  Se3  1  0.32837337  0.33344426  0.63225770  1
  Se  Se4  1  0.00507189  0.67162663  0.63225770  1
  Se  Se5  1  0.66655574  0.99492811  0.63225770  1
  Se  Se6  1  0.66655574  0.67162663  0.86774230  1
  Se  Se7  1  0.32837337  0.99492811  0.86774230  1
  Se  Se8  1  0.00507189  0.33344426  0.86774230  1
  Se  Se9  1  0.67162663  0.66655574  0.13225770  1
  Se  Se10  1  0.99492811  0.32837337  0.13225770  1
  Se  Se11  1  0.33344426  0.00507189  0.13225770  1
loop_
_geom_bond_atom_site_label_1
_geom_bond_atom_site_label_2
_geom_bond_distance
_geom_bond_site_symmetry_2
Nb0 Se5 2.608442 1_445
Nb0 Se2 2.608442 1_445
Nb0 Se3 2.608444 1_555
Nb0 Se0 2.608444 1_555
Nb0 Se4 2.608447 1_545
Nb0 Se1 2.608447 1_455
Nb1 Se11 2.608442 1_555
Nb1 Se8 2.608442 1_554
Nb1 Se9 2.608444 1_445
Nb1 Se6 2.608444 1_444
Nb1 Se10 2.608447 1_455
Nb1 Se7 2.608447 1_544
Nb2 Se7 2.601384 1_554
Nb2 Se8 2.601388 1_554
Nb2 Se6 2.601393 1_554
Nb2 Se10 2.649300 1_455
Nb2 Se11 2.649300 1_565
Nb2 Se9 2.649300 1_555
Nb3 Se10 2.601384 1_555
Nb3 Se11 2.601388 1_555
Nb3 Se9 2.601393 1_555
Nb3 Se7 2.649300 1_544
Nb3 Se8 2.649300 1_654
Nb3 Se6 2.649300 1_554
Nb4 Se1 2.601384 1_555
Nb4 Se2 2.601388 1_555
Nb4 Se0 2.601393 1_555
Nb4 Se4 2.649300 1_655
Nb4 Se5 2.649300 1_545
Nb4 Se3 2.649300 1_555
Nb5 Se4 2.601384 1_555
Nb5 Se5 2.601388 1_555
Nb5 Se3 2.601393 1_555
Nb5 Se1 2.649300 1_565
Nb5 Se2 2.649300 1_455
Nb5 Se0 2.649300 1_555
Rh0 Se1 2.531355 1_565
Rh0 Se10 2.531355 1_455
Rh0 Se2 2.531355 1_455
Rh0 Se11 2.531355 1_565
Rh0 Se0 2.531355 1_555
Rh0 Se9 2.531355 1_555
Rh1 Se7 2.531355 1_545
Rh1 Se4 2.531355 1_655
Rh1 Se8 2.531355 1_655
Rh1 Se5 2.531355 1_545
Rh1 Se6 2.531355 1_555
Rh1 Se3 2.531355 1_555
