# generated using pymatgen
data_KMnO2
_symmetry_space_group_name_H-M   'P 1'
_cell_length_a   5.89257763
_cell_length_b   6.37202194
_cell_length_c   6.57670811
_cell_angle_alpha   113.84826739
_cell_angle_beta   90.00501450
_cell_angle_gamma   89.99487677
_symmetry_Int_Tables_number   1
_chemical_formula_structural   KMnO2
_chemical_formula_sum   'K4 Mn4 O8'
_cell_volume   225.85595341
_cell_formula_units_Z   4
loop_
 _symmetry_equiv_pos_site_id
 _symmetry_equiv_pos_as_xyz
  1  'x, y, z'
loop_
 _atom_site_type_symbol
 _atom_site_label
 _atom_site_symmetry_multiplicity
 _atom_site_fract_x
 _atom_site_fract_y
 _atom_site_fract_z
 _atom_site_occupancy
  K  K0  1  0.00007000  0.49995300  0.49989000  1
  K  K1  1  0.74990100  0.00006500  0.49996500  1
  K  K2  1  0.50006200  0.49996800  0.49988800  1
  K  K3  1  0.24990100  0.00005900  0.49997300  1
  Mn  Mn0  1  0.00111300  0.99998900  0.00005100  1
  Mn  Mn1  1  0.74892000  0.50004800  0.00014100  1
  Mn  Mn2  1  0.24893400  0.50008500  0.00011100  1
  Mn  Mn3  1  0.50108300  0.99989100  0.00010900  1
  O  O0  1  0.25062200  0.18015200  0.18454300  1
  O  O1  1  0.99937300  0.68027400  0.18462100  1
  O  O2  1  0.75062300  0.18016700  0.18454800  1
  O  O3  1  0.49942900  0.68035200  0.18463200  1
  O  O4  1  0.25059700  0.81970200  0.81534000  1
  O  O5  1  0.99936200  0.31979400  0.81549000  1
  O  O6  1  0.75062400  0.81967100  0.81525900  1
  O  O7  1  0.49940000  0.31980000  0.81543400  1
loop_
_geom_bond_atom_site_label_1
_geom_bond_atom_site_label_2
_geom_bond_distance
_geom_bond_site_symmetry_2
K0 O6 2.682528 1_455
K0 O2 2.682643 1_455
K0 O0 2.686273 1_555
K0 O4 2.686360 1_555
K0 O1 2.746969 1_455
K0 O5 2.748235 1_455
K1 O1 2.682743 1_545
K1 O5 2.683087 1_555
K1 O3 2.685722 1_545
K1 O7 2.686294 1_555
K1 O2 2.746860 1_555
K1 O6 2.747457 1_545
K2 O0 2.682715 1_555
K2 O4 2.682889 1_555
K2 O6 2.686101 1_555
K2 O2 2.686281 1_555
K2 O3 2.747180 1_555
K2 O7 2.747947 1_555
K3 O3 2.682676 1_545
K3 O7 2.683047 1_555
K3 O1 2.686166 1_445
K3 O5 2.686564 1_455
K3 O0 2.746897 1_555
K3 O4 2.747730 1_545
Mn0 O0 1.955860 1_565
Mn0 O4 1.956573 1_554
Mn0 O2 1.960259 1_465
Mn0 O6 1.961291 1_454
Mn0 O1 2.761081 1_455
Mn0 O5 2.761560 1_464
Mn1 O3 1.956086 1_555
Mn1 O7 1.956633 1_554
Mn1 O1 1.960150 1_555
Mn1 O5 1.960596 1_554
Mn1 O2 2.761255 1_555
Mn1 O6 2.762058 1_554
Mn2 O1 1.956197 1_455
Mn2 O5 1.956739 1_454
Mn2 O3 1.960527 1_555
Mn2 O7 1.960834 1_554
Mn2 O4 2.761483 1_554
Mn2 O0 2.761680 1_555
Mn3 O2 1.956106 1_565
Mn3 O6 1.957032 1_554
Mn3 O0 1.960150 1_565
Mn3 O4 1.960944 1_554
Mn3 O3 2.759824 1_555
Mn3 O7 2.762719 1_564
