# generated using pymatgen
data_H6PdC2(SO3)2
_symmetry_space_group_name_H-M   'P 1'
_cell_length_a   4.93543100
_cell_length_b   11.41759400
_cell_length_c   8.07145567
_cell_angle_alpha   90.00000000
_cell_angle_beta   112.75119786
_cell_angle_gamma   90.00000000
_symmetry_Int_Tables_number   1
_chemical_formula_structural   H6PdC2(SO3)2
_chemical_formula_sum   'H12 Pd2 C4 S4 O12'
_cell_volume   419.44335068
_cell_formula_units_Z   2
loop_
 _symmetry_equiv_pos_site_id
 _symmetry_equiv_pos_as_xyz
  1  'x, y, z'
loop_
 _atom_site_type_symbol
 _atom_site_label
 _atom_site_symmetry_multiplicity
 _atom_site_fract_x
 _atom_site_fract_y
 _atom_site_fract_z
 _atom_site_occupancy
  H  H0  1  0.48557200  0.16373300  0.54479700  1
  H  H1  1  0.48557200  0.33626700  0.04479700  1
  H  H2  1  0.51442800  0.83626700  0.45520300  1
  H  H3  1  0.51442800  0.66373300  0.95520300  1
  H  H4  1  0.33259800  0.26350000  0.65853000  1
  H  H5  1  0.33259800  0.23650000  0.15853000  1
  H  H6  1  0.66740200  0.73650000  0.34147000  1
  H  H7  1  0.66740200  0.76350000  0.84147000  1
  H  H8  1  0.09313600  0.16748900  0.48471300  1
  H  H9  1  0.09313600  0.33251100  0.98471300  1
  H  H10  1  0.90686400  0.83251100  0.51528700  1
  H  H11  1  0.90686400  0.66748900  0.01528700  1
  Pd  Pd0  1  0.00000000  0.00000000  0.00000000  1
  Pd  Pd1  1  0.00000000  0.50000000  0.50000000  1
  C  C0  1  0.30949900  0.17798100  0.59341500  1
  C  C1  1  0.30949900  0.32201900  0.09341500  1
  C  C2  1  0.69050100  0.82201900  0.40658500  1
  C  C3  1  0.69050100  0.67798100  0.90658500  1
  S  S0  1  0.35088300  0.06608700  0.75337600  1
  S  S1  1  0.35088300  0.43391300  0.25337600  1
  S  S2  1  0.64911700  0.93391300  0.24662400  1
  S  S3  1  0.64911700  0.56608700  0.74662400  1
  O  O0  1  0.62470500  0.09710500  0.91551500  1
  O  O1  1  0.62470500  0.40289500  0.41551500  1
  O  O2  1  0.37529500  0.90289500  0.08448500  1
  O  O3  1  0.37529500  0.59710500  0.58448500  1
  O  O4  1  0.09076700  0.08609900  0.80425500  1
  O  O5  1  0.09076700  0.41390100  0.30425500  1
  O  O6  1  0.90923300  0.91390100  0.19574500  1
  O  O7  1  0.90923300  0.58609900  0.69574500  1
  O  O8  1  0.36237800  0.95240300  0.67690000  1
  O  O9  1  0.36237800  0.54759700  0.17690000  1
  O  O10  1  0.63762200  0.04759700  0.32310000  1
  O  O11  1  0.63762200  0.45240300  0.82310000  1
loop_
_geom_bond_atom_site_label_1
_geom_bond_atom_site_label_2
_geom_bond_distance
_geom_bond_site_symmetry_2
C0 H4 1.093745 1_555
C0 H0 1.095157 1_555
C0 H8 1.095346 1_555
C1 H5 1.093745 1_555
C1 H1 1.095157 1_555
C1 H9 1.095346 1_554
C2 H6 1.093745 1_555
C2 H2 1.095157 1_555
C2 H10 1.095346 1_555
C3 H7 1.093745 1_555
C3 H3 1.095157 1_555
C3 H11 1.095346 1_556
O0 S0 1.515428 1_555
O0 Pd0 2.036689 1_656
O1 S1 1.515428 1_555
O1 Pd1 2.036689 1_655
O2 S2 1.515428 1_555
O2 Pd0 2.036689 1_565
O3 S3 1.515428 1_555
O3 Pd1 2.036689 1_555
O4 S0 1.508885 1_555
O4 Pd0 2.052005 1_556
O5 S1 1.508885 1_555
O5 Pd1 2.052005 1_555
O6 S2 1.508885 1_555
O6 Pd0 2.052005 1_665
O7 S3 1.508885 1_555
O7 Pd1 2.052005 1_655
O8 S0 1.447801 1_565
O9 S1 1.447801 1_555
O10 S2 1.447801 1_545
O11 S3 1.447801 1_555
