# generated using pymatgen
data_Mg2IrPd
_symmetry_space_group_name_H-M   'P 1'
_cell_length_a   4.44951185
_cell_length_b   4.44951185
_cell_length_c   4.44951185
_cell_angle_alpha   60.00000000
_cell_angle_beta   60.00000000
_cell_angle_gamma   60.00000000
_symmetry_Int_Tables_number   1
_chemical_formula_structural   Mg2IrPd
_chemical_formula_sum   'Mg2 Ir1 Pd1'
_cell_volume   62.29054124
_cell_formula_units_Z   1
loop_
 _symmetry_equiv_pos_site_id
 _symmetry_equiv_pos_as_xyz
  1  'x, y, z'
loop_
 _atom_site_type_symbol
 _atom_site_label
 _atom_site_symmetry_multiplicity
 _atom_site_fract_x
 _atom_site_fract_y
 _atom_site_fract_z
 _atom_site_occupancy
  Mg  Mg0  1  0.25000000  0.25000000  0.25000000  1
  Mg  Mg1  1  0.75000000  0.75000000  0.75000000  1
  Ir  Ir0  1  0.50000000  0.50000000  0.50000000  1
  Pd  Pd0  1  0.00000000  0.00000000  0.00000000  1
loop_
_geom_bond_atom_site_label_1
_geom_bond_atom_site_label_2
_geom_bond_distance
_geom_bond_site_symmetry_2
Mg0 Pd0 2.724758 1_555
Mg0 Pd0 2.724758 1_556
Mg0 Pd0 2.724758 1_655
Mg0 Pd0 2.724758 1_565
Mg1 Pd0 2.724758 1_656
Mg1 Pd0 2.724758 1_566
Mg1 Pd0 2.724758 1_665
Mg1 Pd0 2.724758 1_666
Ir0 Mg1 2.724758 1_555
Ir0 Mg1 2.724758 1_554
Ir0 Mg1 2.724758 1_545
Ir0 Mg0 2.724758 1_565
Ir0 Mg0 2.724758 1_555
Ir0 Mg0 2.724758 1_556
Ir0 Mg1 2.724758 1_455
Ir0 Mg0 2.724758 1_655
