# generated using pymatgen
data_Na6Cd(SnS3)4
_symmetry_space_group_name_H-M   'P 1'
_cell_length_a   8.91213269
_cell_length_b   8.91213269
_cell_length_c   6.65697141
_cell_angle_alpha   82.78684643
_cell_angle_beta   82.78684643
_cell_angle_gamma   80.92360561
_symmetry_Int_Tables_number   1
_chemical_formula_structural   Na6Cd(SnS3)4
_chemical_formula_sum   'Na6 Cd1 Sn4 S12'
_cell_volume   514.95799968
_cell_formula_units_Z   1
loop_
 _symmetry_equiv_pos_site_id
 _symmetry_equiv_pos_as_xyz
  1  'x, y, z'
loop_
 _atom_site_type_symbol
 _atom_site_label
 _atom_site_symmetry_multiplicity
 _atom_site_fract_x
 _atom_site_fract_y
 _atom_site_fract_z
 _atom_site_occupancy
  Na  Na0  1  0.58926000  0.90829400  0.75247600  1
  Na  Na1  1  0.09170600  0.41074000  0.24752400  1
  Na  Na2  1  0.90829400  0.58926000  0.75247600  1
  Na  Na3  1  0.41074000  0.09170600  0.24752400  1
  Na  Na4  1  0.74741000  0.74741000  0.24791500  1
  Na  Na5  1  0.25259000  0.25259000  0.75208500  1
  Cd  Cd0  1  0.00000000  0.00000000  0.50000000  1
  Sn  Sn0  1  0.33877400  0.66122600  0.50000000  1
  Sn  Sn1  1  0.82608900  0.17391100  0.00000000  1
  Sn  Sn2  1  0.17391100  0.82608900  0.00000000  1
  Sn  Sn3  1  0.66122600  0.33877400  0.50000000  1
  S  S0  1  0.10689600  0.10689600  0.11249000  1
  S  S1  1  0.61174000  0.61174000  0.60565100  1
  S  S2  1  0.38826000  0.38826000  0.39434900  1
  S  S3  1  0.89310400  0.89310400  0.88751000  1
  S  S4  1  0.20840700  0.57045800  0.85309700  1
  S  S5  1  0.71567600  0.06519400  0.36086900  1
  S  S6  1  0.06519400  0.71567600  0.36086900  1
  S  S7  1  0.57045800  0.20840700  0.85309700  1
  S  S8  1  0.28432400  0.93480600  0.63913100  1
  S  S9  1  0.79159300  0.42954200  0.14690300  1
  S  S10  1  0.42954200  0.79159300  0.14690300  1
  S  S11  1  0.93480600  0.28432400  0.63913100  1
loop_
_geom_bond_atom_site_label_1
_geom_bond_atom_site_label_2
_geom_bond_distance
_geom_bond_site_symmetry_2
Na0 S7 2.812615 1_565
Na0 S8 2.877193 1_555
Na0 S1 2.900519 1_555
Na0 S3 2.936690 1_555
Na0 S10 2.974029 1_556
Na0 S5 2.977360 1_565
Na1 S9 2.812615 1_455
Na1 S6 2.877193 1_555
Na1 S2 2.900519 1_555
Na1 S0 2.936690 1_555
Na1 S4 2.974029 1_554
Na1 S11 2.977360 1_455
Na2 S4 2.812615 1_655
Na2 S11 2.877193 1_555
Na2 S1 2.900519 1_555
Na2 S3 2.936690 1_555
Na2 S9 2.974029 1_556
Na2 S6 2.977360 1_655
Na3 S10 2.812615 1_545
Na3 S5 2.877193 1_555
Na3 S2 2.900519 1_555
Na3 S0 2.936690 1_555
Na3 S7 2.974029 1_554
Na3 S8 2.977360 1_545
Na4 S1 2.758662 1_555
Na4 S3 2.845245 1_554
Na4 S9 2.948283 1_555
Na4 S10 2.948283 1_555
Na4 S6 2.982454 1_655
Na4 S5 2.982454 1_565
Na5 S2 2.758662 1_555
Na5 S0 2.845245 1_556
Na5 S7 2.948283 1_555
Na5 S4 2.948283 1_555
Na5 S8 2.982454 1_545
Na5 S11 2.982454 1_455
Cd0 S3 2.742586 1_445
Cd0 S0 2.742586 1_555
Cd0 S11 2.757889 1_455
Cd0 S8 2.757889 1_545
Cd0 S6 2.757889 1_545
Cd0 S5 2.757889 1_455
S0 Sn1 2.658412 1_455
S0 Sn2 2.658412 1_545
S1 Sn3 2.573033 1_555
S1 Sn0 2.573033 1_555
S2 Sn3 2.573033 1_555
S2 Sn0 2.573033 1_555
S3 Sn2 2.658412 1_656
S3 Sn1 2.658412 1_566
S4 Sn2 2.550322 1_556
S4 Sn0 2.581203 1_555
S5 Sn1 2.607824 1_555
S5 Sn3 2.668140 1_555
S6 Sn2 2.607824 1_555
S6 Sn0 2.668140 1_555
S7 Sn1 2.550322 1_556
S7 Sn3 2.581203 1_555
S8 Sn2 2.607824 1_556
S8 Sn0 2.668140 1_555
S9 Sn1 2.550322 1_555
S9 Sn3 2.581203 1_555
S10 Sn2 2.550322 1_555
S10 Sn0 2.581203 1_555
S11 Sn1 2.607824 1_556
S11 Sn3 2.668140 1_555
