# generated using pymatgen
data_Hf4N3
_symmetry_space_group_name_H-M   'P 1'
_cell_length_a   10.69416843
_cell_length_b   10.69416843
_cell_length_c   10.69416930
_cell_angle_alpha   17.07120858
_cell_angle_beta   17.07120858
_cell_angle_gamma   17.07120627
_symmetry_Int_Tables_number   1
_chemical_formula_structural   Hf4N3
_chemical_formula_sum   'Hf4 N3'
_cell_volume   91.95301366
_cell_formula_units_Z   1
loop_
 _symmetry_equiv_pos_site_id
 _symmetry_equiv_pos_as_xyz
  1  'x, y, z'
loop_
 _atom_site_type_symbol
 _atom_site_label
 _atom_site_symmetry_multiplicity
 _atom_site_fract_x
 _atom_site_fract_y
 _atom_site_fract_z
 _atom_site_occupancy
  Hf  Hf0  1  0.62563396  0.62563396  0.62563396  1
  Hf  Hf1  1  0.37500246  0.37500246  0.37500246  1
  Hf  Hf2  1  0.79070665  0.79070665  0.79070665  1
  Hf  Hf3  1  0.20642060  0.20642060  0.20642060  1
  N  N0  1  0.50108312  0.50108312  0.50108312  1
  N  N1  1  0.00193703  0.00193703  0.00193703  1
  N  N2  1  0.91421620  0.91421620  0.91421620  1
loop_
_geom_bond_atom_site_label_1
_geom_bond_atom_site_label_2
_geom_bond_distance
_geom_bond_site_symmetry_2
Hf0 N1 2.281204 1_665
Hf0 N1 2.281204 1_656
Hf0 N1 2.281204 1_566
Hf0 N2 2.315168 1_455
Hf0 N2 2.315168 1_545
Hf0 N2 2.315169 1_554
Hf1 N1 2.221797 1_556
Hf1 N1 2.221798 1_565
Hf1 N1 2.221798 1_655
Hf2 N0 2.295207 1_655
Hf2 N0 2.295207 1_565
Hf2 N0 2.295208 1_556
Hf3 N0 2.203010 1_545
Hf3 N0 2.203010 1_455
Hf3 N0 2.203011 1_554
Hf3 N2 2.247048 1_454
Hf3 N2 2.247048 1_544
Hf3 N2 2.247049 1_445
