# generated using pymatgen
data_Ti4GaC3
_symmetry_space_group_name_H-M   'P 1'
_cell_length_a   3.08321259
_cell_length_b   3.08321259
_cell_length_c   23.19383878
_cell_angle_alpha   90.00000000
_cell_angle_beta   90.00000000
_cell_angle_gamma   119.99998222
_symmetry_Int_Tables_number   1
_chemical_formula_structural   Ti4GaC3
_chemical_formula_sum   'Ti8 Ga2 C6'
_cell_volume   190.94587702
_cell_formula_units_Z   2
loop_
 _symmetry_equiv_pos_site_id
 _symmetry_equiv_pos_as_xyz
  1  'x, y, z'
loop_
 _atom_site_type_symbol
 _atom_site_label
 _atom_site_symmetry_multiplicity
 _atom_site_fract_x
 _atom_site_fract_y
 _atom_site_fract_z
 _atom_site_occupancy
  Ti  Ti0  1  -0.00000000  -0.00000000  0.34461169  1
  Ti  Ti1  1  -0.00000000  -0.00000000  0.65538831  1
  Ti  Ti2  1  0.00000000  -0.00000000  0.84461169  1
  Ti  Ti3  1  -0.00000000  0.00000000  0.15538831  1
  Ti  Ti4  1  0.33333300  0.66666700  0.44830986  1
  Ti  Ti5  1  0.66666700  0.33333300  0.55169014  1
  Ti  Ti6  1  0.66666700  0.33333300  0.94830986  1
  Ti  Ti7  1  0.33333300  0.66666700  0.05169014  1
  Ga  Ga0  1  0.33333300  0.66666700  0.25000000  1
  Ga  Ga1  1  0.66666700  0.33333300  0.75000000  1
  C  C0  1  -0.00000000  -0.00000000  0.50000000  1
  C  C1  1  -0.00000000  -0.00000000  0.00000000  1
  C  C2  1  0.66666700  0.33333300  0.39024576  1
  C  C3  1  0.33333300  0.66666700  0.60975424  1
  C  C4  1  0.33333300  0.66666700  0.89024576  1
  C  C5  1  0.66666700  0.33333300  0.10975424  1
loop_
_geom_bond_atom_site_label_1
_geom_bond_atom_site_label_2
_geom_bond_distance
_geom_bond_site_symmetry_2
Ga0 Ti3 2.825625 1_565
Ga0 Ti0 2.825625 1_565
Ga0 Ti3 2.825627 1_665
Ga0 Ti3 2.825627 1_555
Ga0 Ti0 2.825627 1_555
Ga0 Ti0 2.825627 1_665
Ga1 Ti2 2.825625 1_655
Ga1 Ti1 2.825625 1_655
Ga1 Ti1 2.825627 1_665
Ga1 Ti2 2.825627 1_665
Ga1 Ti1 2.825627 1_555
Ga1 Ti2 2.825627 1_555
C0 Ti4 2.146176 1_545
C0 Ti5 2.146176 1_455
C0 Ti4 2.146178 1_555
C0 Ti4 2.146178 1_445
C0 Ti5 2.146178 1_555
C0 Ti5 2.146178 1_445
C1 Ti6 2.146176 1_454
C1 Ti7 2.146176 1_545
C1 Ti6 2.146178 1_444
C1 Ti6 2.146178 1_554
C1 Ti7 2.146178 1_445
C1 Ti7 2.146178 1_555
C2 Ti0 2.070990 1_655
C2 Ti0 2.070993 1_555
C2 Ti0 2.070993 1_665
C2 Ti4 2.232131 1_545
C2 Ti4 2.232131 1_655
C2 Ti4 2.232135 1_555
C3 Ti1 2.070990 1_565
C3 Ti1 2.070993 1_665
C3 Ti1 2.070993 1_555
C3 Ti5 2.232131 1_455
C3 Ti5 2.232131 1_565
C3 Ti5 2.232135 1_555
C4 Ti2 2.070990 1_565
C4 Ti2 2.070993 1_665
C4 Ti2 2.070993 1_555
C4 Ti6 2.232131 1_565
C4 Ti6 2.232131 1_455
C4 Ti6 2.232135 1_555
C5 Ti3 2.070990 1_655
C5 Ti3 2.070993 1_665
C5 Ti3 2.070993 1_555
C5 Ti7 2.232131 1_545
C5 Ti7 2.232131 1_655
C5 Ti7 2.232135 1_555
