# generated using pymatgen
data_Ca2TaVO6
_symmetry_space_group_name_H-M   'P 1'
_cell_length_a   7.75294000
_cell_length_b   5.49263600
_cell_length_c   5.67608865
_cell_angle_alpha   89.86543361
_cell_angle_beta   90.00000000
_cell_angle_gamma   90.00000000
_symmetry_Int_Tables_number   1
_chemical_formula_structural   Ca2TaVO6
_chemical_formula_sum   'Ca4 Ta2 V2 O12'
_cell_volume   241.71033168
_cell_formula_units_Z   2
loop_
 _symmetry_equiv_pos_site_id
 _symmetry_equiv_pos_as_xyz
  1  'x, y, z'
loop_
 _atom_site_type_symbol
 _atom_site_label
 _atom_site_symmetry_multiplicity
 _atom_site_fract_x
 _atom_site_fract_y
 _atom_site_fract_z
 _atom_site_occupancy
  Ca  Ca0  1  0.75000000  0.98692300  0.04347700  1
  Ca  Ca1  1  0.75000000  0.51375400  0.56232800  1
  Ca  Ca2  1  0.25000000  0.48624600  0.43767200  1
  Ca  Ca3  1  0.25000000  0.01307700  0.95652300  1
  Ta  Ta0  1  0.00000000  0.00000000  0.50000000  1
  Ta  Ta1  1  0.50000000  0.00000000  0.50000000  1
  V  V0  1  0.00000000  0.50000000  0.00000000  1
  V  V1  1  0.50000000  0.50000000  0.00000000  1
  O  O0  1  0.45209100  0.19631500  0.21286700  1
  O  O1  1  0.54527600  0.71025000  0.30178600  1
  O  O2  1  0.54790900  0.80368500  0.78713300  1
  O  O3  1  0.04527600  0.28975000  0.69821400  1
  O  O4  1  0.25000000  0.90610200  0.52841200  1
  O  O5  1  0.45472400  0.28975000  0.69821400  1
  O  O6  1  0.95472400  0.71025000  0.30178600  1
  O  O7  1  0.04790900  0.19631500  0.21286700  1
  O  O8  1  0.75000000  0.42139300  0.97953100  1
  O  O9  1  0.95209100  0.80368500  0.78713300  1
  O  O10  1  0.25000000  0.57860700  0.02046900  1
  O  O11  1  0.75000000  0.09389800  0.47158800  1
loop_
_geom_bond_atom_site_label_1
_geom_bond_atom_site_label_2
_geom_bond_distance
_geom_bond_site_symmetry_2
Ca0 O2 2.364702 1_554
Ca0 O9 2.364702 1_554
Ca0 O8 2.412988 1_564
Ca0 O11 2.501366 1_565
Ca0 O1 2.639670 1_555
Ca0 O6 2.639670 1_555
Ca0 O0 2.754444 1_565
Ca0 O7 2.754444 1_665
Ca1 O11 2.364112 1_555
Ca1 O8 2.420645 1_555
Ca1 O6 2.421491 1_555
Ca1 O1 2.421491 1_555
Ca1 O2 2.574612 1_555
Ca1 O9 2.574612 1_555
Ca1 O5 2.710159 1_555
Ca1 O3 2.710159 1_655
Ca2 O4 2.364112 1_555
Ca2 O10 2.420645 1_555
Ca2 O5 2.421491 1_555
Ca2 O3 2.421491 1_555
Ca2 O7 2.574612 1_555
Ca2 O0 2.574612 1_555
Ca2 O1 2.710159 1_555
Ca2 O6 2.710159 1_455
Ca3 O7 2.364702 1_556
Ca3 O0 2.364702 1_556
Ca3 O10 2.412988 1_546
Ca3 O4 2.501366 1_545
Ca3 O5 2.639670 1_555
Ca3 O3 2.639670 1_555
Ca3 O2 2.754444 1_545
Ca3 O9 2.754444 1_445
O0 Ta1 1.987117 1_555
O0 V1 2.090622 1_555
O1 Ta1 1.982493 1_565
O1 V1 2.097708 1_555
O2 Ta1 1.987117 1_565
O2 V1 2.090622 1_556
O3 Ta0 1.982493 1_555
O3 V0 2.097708 1_556
O4 Ta0 2.012056 1_565
O4 Ta1 2.012056 1_565
O5 Ta1 1.982493 1_555
O5 V1 2.097708 1_556
O6 Ta0 1.982493 1_665
O6 V0 2.097708 1_655
O7 Ta0 1.987117 1_555
O7 V0 2.090622 1_555
O8 V1 1.989197 1_556
O8 V0 1.989197 1_656
O9 Ta0 1.987117 1_665
O9 V0 2.090622 1_656
O10 V1 1.989197 1_555
O10 V0 1.989197 1_555
O11 Ta1 2.012056 1_555
O11 Ta0 2.012056 1_655
