# generated using pymatgen
data_Nd3Pd4
_symmetry_space_group_name_H-M   'P 1'
_cell_length_a   5.81158601
_cell_length_b   8.13051281
_cell_length_c   8.13051353
_cell_angle_alpha   114.50964523
_cell_angle_beta   103.78400866
_cell_angle_gamma   103.78400980
_symmetry_Int_Tables_number   1
_chemical_formula_structural   Nd3Pd4
_chemical_formula_sum   'Nd6 Pd8'
_cell_volume   313.81906744
_cell_formula_units_Z   2
loop_
 _symmetry_equiv_pos_site_id
 _symmetry_equiv_pos_as_xyz
  1  'x, y, z'
loop_
 _atom_site_type_symbol
 _atom_site_label
 _atom_site_symmetry_multiplicity
 _atom_site_fract_x
 _atom_site_fract_y
 _atom_site_fract_z
 _atom_site_occupancy
  Nd  Nd0  1  0.40552325  0.12430485  0.37653415  1
  Nd  Nd1  1  0.02899010  0.62346585  0.74777169  1
  Nd  Nd2  1  0.28121840  0.25222831  0.87569515  1
  Nd  Nd3  1  0.59447675  0.87569515  0.62346585  1
  Nd  Nd4  1  0.97100990  0.37653415  0.25222831  1
  Nd  Nd5  1  0.71878160  0.74777169  0.12430485  1
  Pd  Pd0  1  -0.00000000  0.00000000  -0.00000000  1
  Pd  Pd1  1  0.50000000  0.00000000  -0.00000000  1
  Pd  Pd2  1  0.22156292  0.66658658  0.16453337  1
  Pd  Pd3  1  0.05702855  0.83546663  0.50205422  1
  Pd  Pd4  1  0.55497433  0.49794578  0.33341342  1
  Pd  Pd5  1  0.77843708  0.33341342  0.83546663  1
  Pd  Pd6  1  0.94297145  0.16453337  0.49794578  1
  Pd  Pd7  1  0.44502567  0.50205422  0.66658658  1
loop_
_geom_bond_atom_site_label_1
_geom_bond_atom_site_label_2
_geom_bond_distance
_geom_bond_site_symmetry_2
Nd0 Pd7 2.905790 1_555
Nd0 Pd6 2.934836 1_555
Nd0 Pd0 2.967771 1_555
Nd0 Pd1 3.032075 1_555
Nd0 Pd6 3.118208 1_455
Nd0 Pd2 3.141218 1_545
Nd0 Pd4 3.142853 1_555
Nd0 Pd5 3.261534 1_555
Nd0 Pd3 3.371249 1_545
Nd1 Pd5 2.905784 1_455
Nd1 Pd7 2.934835 1_555
Nd1 Pd0 2.967772 1_566
Nd1 Pd1 3.032071 1_566
Nd1 Pd7 3.118210 1_455
Nd1 Pd3 3.141217 1_555
Nd1 Pd2 3.142854 1_556
Nd1 Pd6 3.261536 1_455
Nd1 Pd4 3.371252 1_455
Nd2 Pd6 2.905795 1_455
Nd2 Pd5 2.934831 1_555
Nd2 Pd0 2.967765 1_556
Nd2 Pd1 3.032067 1_556
Nd2 Pd5 3.118221 1_455
Nd2 Pd4 3.141218 1_556
Nd2 Pd3 3.142854 1_545
Nd2 Pd7 3.261550 1_555
Nd2 Pd2 3.371247 1_556
Nd3 Pd4 2.905790 1_555
Nd3 Pd3 2.934836 1_555
Nd3 Pd0 2.967771 1_666
Nd3 Pd1 3.032075 1_566
Nd3 Pd3 3.118208 1_655
Nd3 Pd5 3.141218 1_565
Nd3 Pd7 3.142853 1_555
Nd3 Pd2 3.261534 1_555
Nd3 Pd6 3.371249 1_565
Nd4 Pd2 2.905784 1_655
Nd4 Pd4 2.934835 1_555
Nd4 Pd0 2.967772 1_655
Nd4 Pd1 3.032071 1_555
Nd4 Pd4 3.118210 1_655
Nd4 Pd6 3.141217 1_555
Nd4 Pd5 3.142854 1_554
Nd4 Pd3 3.261536 1_655
Nd4 Pd7 3.371252 1_655
Nd5 Pd3 2.905795 1_655
Nd5 Pd2 2.934831 1_555
Nd5 Pd0 2.967765 1_665
Nd5 Pd1 3.032067 1_565
Nd5 Pd2 3.118221 1_655
Nd5 Pd7 3.141218 1_554
Nd5 Pd6 3.142854 1_565
Nd5 Pd4 3.261550 1_555
Nd5 Pd5 3.371247 1_554
Pd2 Pd5 2.916742 1_454
Pd2 Pd4 3.013321 1_555
Pd2 Pd3 3.013333 1_555
Pd3 Pd6 2.916742 1_465
Pd3 Pd4 3.013328 1_455
Pd4 Pd7 2.916726 1_555
Pd5 Pd7 3.013321 1_555
Pd5 Pd6 3.013333 1_555
Pd6 Pd7 3.013328 1_655
