# generated using pymatgen
data_Sr4Pd
_symmetry_space_group_name_H-M   'P 1'
_cell_length_a   8.94041773
_cell_length_b   8.94041773
_cell_length_c   8.94041773
_cell_angle_alpha   60.00000000
_cell_angle_beta   60.00000000
_cell_angle_gamma   60.00000000
_symmetry_Int_Tables_number   1
_chemical_formula_structural   Sr4Pd
_chemical_formula_sum   'Sr8 Pd2'
_cell_volume   505.31063055
_cell_formula_units_Z   2
loop_
 _symmetry_equiv_pos_site_id
 _symmetry_equiv_pos_as_xyz
  1  'x, y, z'
loop_
 _atom_site_type_symbol
 _atom_site_label
 _atom_site_symmetry_multiplicity
 _atom_site_fract_x
 _atom_site_fract_y
 _atom_site_fract_z
 _atom_site_occupancy
  Sr  Sr0  1  0.61940800  0.61940800  0.61940800  1
  Sr  Sr1  1  0.14177500  0.61940800  0.61940800  1
  Sr  Sr2  1  0.61940800  0.14177500  0.61940800  1
  Sr  Sr3  1  0.60822500  0.13059200  0.13059200  1
  Sr  Sr4  1  0.13059200  0.13059200  0.13059200  1
  Sr  Sr5  1  0.61940800  0.61940800  0.14177500  1
  Sr  Sr6  1  0.13059200  0.60822500  0.13059200  1
  Sr  Sr7  1  0.13059200  0.13059200  0.60822500  1
  Pd  Pd0  1  0.00000000  0.00000000  0.00000000  1
  Pd  Pd1  1  0.75000000  0.75000000  0.75000000  1
loop_
_geom_bond_atom_site_label_1
_geom_bond_atom_site_label_2
_geom_bond_distance
_geom_bond_site_symmetry_2
Pd0 Sr3 2.859887 1_455
Pd0 Sr6 2.859887 1_545
Pd0 Sr7 2.859887 1_554
Pd0 Sr4 2.859894 1_555
Pd1 Sr2 2.859887 1_565
Pd1 Sr1 2.859887 1_655
Pd1 Sr5 2.859887 1_556
Pd1 Sr0 2.859894 1_555
