# generated using pymatgen
data_NbPd
_symmetry_space_group_name_H-M   'P 1'
_cell_length_a   9.96099509
_cell_length_b   9.96099509
_cell_length_c   9.96099359
_cell_angle_alpha   33.54051913
_cell_angle_beta   33.54051913
_cell_angle_gamma   33.54051720
_symmetry_Int_Tables_number   1
_chemical_formula_structural   NbPd
_chemical_formula_sum   'Nb8 Pd8'
_cell_volume   268.74807765
_cell_formula_units_Z   8
loop_
 _symmetry_equiv_pos_site_id
 _symmetry_equiv_pos_as_xyz
  1  'x, y, z'
loop_
 _atom_site_type_symbol
 _atom_site_label
 _atom_site_symmetry_multiplicity
 _atom_site_fract_x
 _atom_site_fract_y
 _atom_site_fract_z
 _atom_site_occupancy
  Nb  Nb0_0  1  0.00000000  0.00000000  0.00000000  1
  Nb  Nb0_1  1  0.00000000  0.00000000  0.50000000  1
  Nb  Nb0_2  1  0.00000000  0.50000000  0.00000000  1
  Nb  Nb0_3  1  0.00000000  0.50000000  0.50000000  1
  Nb  Nb0_4  1  0.50000000  0.00000000  0.00000000  1
  Nb  Nb0_5  1  0.50000000  0.00000000  0.50000000  1
  Nb  Nb0_6  1  0.50000000  0.50000000  0.00000000  1
  Nb  Nb0_7  1  0.50000000  0.50000000  0.50000000  1
  Pd  Pd0_0  1  0.25000000  0.25000000  0.25000000  1
  Pd  Pd0_1  1  0.25000000  0.25000000  0.75000000  1
  Pd  Pd0_2  1  0.25000000  0.75000000  0.25000000  1
  Pd  Pd0_3  1  0.25000000  0.75000000  0.75000000  1
  Pd  Pd0_4  1  0.75000000  0.25000000  0.25000000  1
  Pd  Pd0_5  1  0.75000000  0.25000000  0.75000000  1
  Pd  Pd0_6  1  0.75000000  0.75000000  0.25000000  1
  Pd  Pd0_7  1  0.75000000  0.75000000  0.75000000  1
loop_
_geom_bond_atom_site_label_1
_geom_bond_atom_site_label_2
_geom_bond_distance
_geom_bond_site_symmetry_2
Nb0_0 Nb0_3 2.874094 1_554
Nb0_0 Nb0_5 2.874094 1_554
Nb0_0 Nb0_3 2.874094 1_545
Nb0_0 Nb0_5 2.874094 1_455
Nb0_0 Nb0_6 2.874094 1_455
Nb0_0 Nb0_6 2.874094 1_545
Nb0_0 Pd0_4 2.875142 1_455
Nb0_0 Pd0_2 2.875142 1_545
Nb0_0 Pd0_3 2.875142 1_544
Nb0_0 Pd0_5 2.875142 1_454
Nb0_0 Pd0_1 2.875143 1_554
Nb0_0 Pd0_6 2.875143 1_445
Nb0_1 Nb0_2 2.874094 1_555
Nb0_1 Nb0_4 2.874094 1_555
Nb0_1 Nb0_4 2.874094 1_456
Nb0_1 Nb0_2 2.874094 1_546
Nb0_1 Nb0_7 2.874094 1_455
Nb0_1 Nb0_7 2.874094 1_545
Nb0_1 Pd0_5 2.875142 1_455
Nb0_1 Pd0_4 2.875142 1_455
Nb0_1 Pd0_2 2.875142 1_545
Nb0_1 Pd0_3 2.875142 1_545
Nb0_1 Pd0_0 2.875143 1_555
Nb0_1 Pd0_7 2.875143 1_445
Nb0_2 Nb0_7 2.874094 1_455
Nb0_2 Nb0_7 2.874094 1_554
Nb0_2 Nb0_4 2.874094 1_465
Nb0_2 Nb0_4 2.874094 1_555
Nb0_2 Pd0_1 2.875142 1_554
Nb0_2 Pd0_7 2.875142 1_454
Nb0_2 Pd0_6 2.875142 1_455
Nb0_2 Pd0_0 2.875142 1_555
Nb0_2 Pd0_4 2.875143 1_455
Nb0_2 Pd0_3 2.875143 1_554
Nb0_3 Nb0_6 2.874094 1_456
Nb0_3 Nb0_6 2.874094 1_555
Nb0_3 Nb0_5 2.874094 1_555
Nb0_3 Nb0_5 2.874094 1_465
Nb0_3 Pd0_0 2.875142 1_555
Nb0_3 Pd0_7 2.875142 1_455
Nb0_3 Pd0_1 2.875142 1_555
Nb0_3 Pd0_6 2.875142 1_455
Nb0_3 Pd0_2 2.875143 1_555
Nb0_3 Pd0_5 2.875143 1_455
Nb0_4 Nb0_7 2.874094 1_554
Nb0_4 Nb0_7 2.874094 1_545
Nb0_4 Pd0_1 2.875142 1_554
Nb0_4 Pd0_0 2.875142 1_555
Nb0_4 Pd0_6 2.875142 1_545
Nb0_4 Pd0_7 2.875142 1_544
Nb0_4 Pd0_5 2.875143 1_554
Nb0_4 Pd0_2 2.875143 1_545
Nb0_5 Nb0_6 2.874094 1_546
Nb0_5 Nb0_6 2.874094 1_555
Nb0_5 Pd0_0 2.875142 1_555
Nb0_5 Pd0_1 2.875142 1_555
Nb0_5 Pd0_6 2.875142 1_545
Nb0_5 Pd0_7 2.875142 1_545
Nb0_5 Pd0_3 2.875143 1_545
Nb0_5 Pd0_4 2.875143 1_555
Nb0_6 Pd0_3 2.875142 1_554
Nb0_6 Pd0_5 2.875142 1_554
Nb0_6 Pd0_4 2.875142 1_555
Nb0_6 Pd0_2 2.875142 1_555
Nb0_6 Pd0_0 2.875143 1_555
Nb0_6 Pd0_7 2.875143 1_554
Nb0_7 Pd0_5 2.875142 1_555
Nb0_7 Pd0_4 2.875142 1_555
Nb0_7 Pd0_3 2.875142 1_555
Nb0_7 Pd0_2 2.875142 1_555
Nb0_7 Pd0_6 2.875143 1_555
Nb0_7 Pd0_1 2.875143 1_555
Pd0_0 Pd0_3 2.874094 1_554
Pd0_0 Pd0_5 2.874094 1_554
Pd0_0 Pd0_3 2.874094 1_545
Pd0_0 Pd0_5 2.874094 1_455
Pd0_0 Pd0_6 2.874094 1_455
Pd0_0 Pd0_6 2.874094 1_545
Pd0_1 Pd0_4 2.874094 1_555
Pd0_1 Pd0_2 2.874094 1_546
Pd0_1 Pd0_4 2.874094 1_456
Pd0_1 Pd0_2 2.874094 1_555
Pd0_1 Pd0_7 2.874094 1_455
Pd0_1 Pd0_7 2.874094 1_545
Pd0_2 Pd0_7 2.874094 1_554
Pd0_2 Pd0_7 2.874094 1_455
Pd0_2 Pd0_4 2.874094 1_465
Pd0_2 Pd0_4 2.874094 1_555
Pd0_3 Pd0_6 2.874094 1_456
Pd0_3 Pd0_6 2.874094 1_555
Pd0_3 Pd0_5 2.874094 1_555
Pd0_3 Pd0_5 2.874094 1_465
Pd0_4 Pd0_7 2.874094 1_554
Pd0_4 Pd0_7 2.874094 1_545
Pd0_5 Pd0_6 2.874094 1_546
Pd0_5 Pd0_6 2.874094 1_555
