# generated using pymatgen
data_Mg2Fe3WS8
_symmetry_space_group_name_H-M   'P 1'
_cell_length_a   7.21842932
_cell_length_b   7.19838541
_cell_length_c   7.22091614
_cell_angle_alpha   60.00678720
_cell_angle_beta   60.10148341
_cell_angle_gamma   60.01711695
_symmetry_Int_Tables_number   1
_chemical_formula_structural   Mg2Fe3WS8
_chemical_formula_sum   'Mg2 Fe3 W1 S8'
_cell_volume   265.56181919
_cell_formula_units_Z   1
loop_
 _symmetry_equiv_pos_site_id
 _symmetry_equiv_pos_as_xyz
  1  'x, y, z'
loop_
 _atom_site_type_symbol
 _atom_site_label
 _atom_site_symmetry_multiplicity
 _atom_site_fract_x
 _atom_site_fract_y
 _atom_site_fract_z
 _atom_site_occupancy
  Mg  Mg0  1  0.87044300  0.88784900  0.87064400  1
  Mg  Mg1  1  0.12955300  0.11215400  0.12935900  1
  Fe  Fe0  1  0.49999900  0.50001900  0.49996700  1
  Fe  Fe1  1  0.50003400  0.50000200  0.00000400  1
  Fe  Fe2  1  0.99999700  0.49998400  0.50001500  1
  W  W0  1  0.50000100  0.99999400  0.50000600  1
  S  S0  1  0.73719100  0.74771600  0.73706700  1
  S  S1  1  0.26267700  0.25286300  0.72181500  1
  S  S2  1  0.26558200  0.70346500  0.26565200  1
  S  S3  1  0.72172900  0.25257500  0.26293800  1
  S  S4  1  0.73440300  0.29653400  0.73433700  1
  S  S5  1  0.27826700  0.74741900  0.73705100  1
  S  S6  1  0.26280200  0.25228400  0.26295300  1
  S  S7  1  0.73732600  0.74713700  0.27819100  1
loop_
_geom_bond_atom_site_label_1
_geom_bond_atom_site_label_2
_geom_bond_distance
_geom_bond_site_symmetry_2
Mg0 S0 2.395944 1_555
Mg0 S4 2.401850 1_565
Mg0 S7 2.404828 1_556
Mg0 S5 2.405871 1_655
Mg1 S6 2.396008 1_555
Mg1 S2 2.401873 1_545
Mg1 S1 2.404810 1_554
Mg1 S3 2.405870 1_455
Fe0 S2 2.402254 1_555
Fe0 S4 2.402455 1_555
Fe0 S7 2.475149 1_555
Fe0 S1 2.475296 1_555
Fe0 S3 2.476174 1_555
Fe0 S5 2.476228 1_555
Fe1 S2 2.404968 1_555
Fe1 S4 2.405094 1_554
Fe1 S3 2.477356 1_555
Fe1 S5 2.477803 1_554
Fe1 S0 2.478075 1_554
Fe1 S6 2.478462 1_555
Fe2 S4 2.403774 1_555
Fe2 S2 2.403872 1_655
Fe2 S1 2.476424 1_655
Fe2 S7 2.476496 1_555
Fe2 S6 2.478249 1_655
Fe2 S0 2.478358 1_555
S0 W0 2.421930 1_555
S1 W0 2.424073 1_545
S3 W0 2.421396 1_545
S5 W0 2.421394 1_555
S6 W0 2.421939 1_545
S7 W0 2.424040 1_555
