# generated using pymatgen
data_Nd2Fe17H3
_symmetry_space_group_name_H-M   'P 1'
_cell_length_a   6.46340674
_cell_length_b   6.46340674
_cell_length_c   6.46340694
_cell_angle_alpha   84.43531688
_cell_angle_beta   84.43531688
_cell_angle_gamma   84.43532005
_symmetry_Int_Tables_number   1
_chemical_formula_structural   Nd2Fe17H3
_chemical_formula_sum   'Nd2 Fe17 H3'
_cell_volume   266.42683952
_cell_formula_units_Z   1
loop_
 _symmetry_equiv_pos_site_id
 _symmetry_equiv_pos_as_xyz
  1  'x, y, z'
loop_
 _atom_site_type_symbol
 _atom_site_label
 _atom_site_symmetry_multiplicity
 _atom_site_fract_x
 _atom_site_fract_y
 _atom_site_fract_z
 _atom_site_occupancy
  Nd  Nd0  1  0.65521200  0.65521200  0.65521200  1
  Nd  Nd1  1  0.34478800  0.34478800  0.34478800  1
  Fe  Fe0  1  0.00000000  0.00000000  0.50000000  1
  Fe  Fe1  1  0.50000000  0.00000000  0.00000000  1
  Fe  Fe2  1  0.00000000  0.50000000  0.00000000  1
  Fe  Fe3  1  0.71715900  0.28284100  0.00000000  1
  Fe  Fe4  1  0.00000000  0.71715900  0.28284100  1
  Fe  Fe5  1  0.28284100  0.00000000  0.71715900  1
  Fe  Fe6  1  0.00000000  0.28284100  0.71715900  1
  Fe  Fe7  1  0.71715900  0.00000000  0.28284100  1
  Fe  Fe8  1  0.28284100  0.71715900  0.00000000  1
  Fe  Fe9  1  0.34121400  0.34121400  0.85023300  1
  Fe  Fe10  1  0.85023300  0.34121400  0.34121400  1
  Fe  Fe11  1  0.34121400  0.85023300  0.34121400  1
  Fe  Fe12  1  0.65878600  0.65878600  0.14976700  1
  Fe  Fe13  1  0.14976700  0.65878600  0.65878600  1
  Fe  Fe14  1  0.65878600  0.14976700  0.65878600  1
  Fe  Fe15  1  0.90254600  0.90254600  0.90254600  1
  Fe  Fe16  1  0.09745400  0.09745400  0.09745400  1
  H  H0  1  0.50000000  0.50000000  0.00000000  1
  H  H1  1  0.00000000  0.50000000  0.50000000  1
  H  H2  1  0.50000000  0.00000000  0.50000000  1
loop_
_geom_bond_atom_site_label_1
_geom_bond_atom_site_label_2
_geom_bond_distance
_geom_bond_site_symmetry_2
Fe0 Fe5 2.410331 1_555
Fe0 Fe6 2.410331 1_555
Fe0 Fe4 2.410331 1_545
Fe0 Fe7 2.410331 1_455
Fe0 Fe10 2.488737 1_455
Fe0 Fe11 2.488737 1_545
Fe0 Fe14 2.488737 1_455
Fe0 Fe13 2.488737 1_545
Fe0 Fe16 2.646553 1_555
Fe0 Fe15 2.646553 1_445
Fe0 Nd1 3.321877 1_555
Fe0 Nd0 3.321877 1_445
Fe1 Fe3 2.410331 1_555
Fe1 Fe8 2.410331 1_545
Fe1 Fe5 2.410331 1_554
Fe1 Fe7 2.410331 1_555
Fe1 Fe11 2.488737 1_545
Fe1 Fe14 2.488737 1_554
Fe1 Fe9 2.488737 1_554
Fe1 Fe12 2.488737 1_545
Fe1 Fe15 2.646553 1_544
Fe1 Fe16 2.646553 1_555
Fe1 Nd1 3.321878 1_555
Fe1 Nd0 3.321878 1_544
Fe2 Fe3 2.410331 1_455
Fe2 Fe8 2.410331 1_555
Fe2 Fe6 2.410331 1_554
Fe2 Fe4 2.410331 1_555
Fe2 Fe9 2.488737 1_554
Fe2 Nd1 3.321878 1_555
Fe2 Nd0 3.321878 1_454
Fe3 H0 1.886277 1_555
Fe4 H1 1.886277 1_555
Fe5 H2 1.886277 1_555
Fe6 H1 1.886277 1_555
Fe7 H2 1.886277 1_555
Fe8 H0 1.886277 1_555
Fe9 H0 1.906102 1_556
Fe10 H1 1.906102 1_655
Fe10 Fe2 2.488737 1_655
Fe10 Fe16 2.650038 1_655
Fe11 H2 1.906102 1_565
Fe11 Fe16 2.650038 1_565
Fe12 H0 1.906102 1_555
Fe12 Fe2 2.488737 1_655
Fe12 Fe15 2.650038 1_554
Fe13 H1 1.906102 1_555
Fe13 Fe2 2.488737 1_556
Fe13 Fe15 2.650038 1_455
Fe14 H2 1.906102 1_555
Fe14 Fe15 2.650038 1_545
Fe15 Fe16 2.384201 1_666
Fe15 Fe2 2.646553 1_656
Fe15 Fe5 2.730747 1_665
Fe15 Fe6 2.730747 1_665
Fe15 Fe3 2.730747 1_566
Fe15 Fe8 2.730747 1_656
Fe15 Fe4 2.730747 1_656
Fe15 Fe7 2.730747 1_566
Fe15 Nd0 3.025499 1_555
Fe16 Fe2 2.646553 1_555
Fe16 Fe9 2.650038 1_554
Fe16 Fe4 2.730747 1_545
Fe16 Fe7 2.730747 1_455
Fe16 Fe3 2.730747 1_455
Fe16 Fe8 2.730747 1_545
Fe16 Fe6 2.730747 1_554
Fe16 Fe5 2.730747 1_554
Fe16 Nd1 3.025499 1_555
H0 Nd1 2.511390 1_555
H0 Nd0 2.511390 1_554
H1 Nd1 2.511390 1_555
H1 Nd0 2.511390 1_455
H2 Nd0 2.511390 1_545
H2 Nd1 2.511390 1_555
