# generated using pymatgen
data_CeSe2
_symmetry_space_group_name_H-M   'P 1'
_cell_length_a   4.10763899
_cell_length_b   4.10763899
_cell_length_c   26.60849100
_cell_angle_alpha   90.00000000
_cell_angle_beta   90.00000000
_cell_angle_gamma   120.00001594
_symmetry_Int_Tables_number   1
_chemical_formula_structural   CeSe2
_chemical_formula_sum   'Ce4 Se8'
_cell_volume   388.80813479
_cell_formula_units_Z   4
loop_
 _symmetry_equiv_pos_site_id
 _symmetry_equiv_pos_as_xyz
  1  'x, y, z'
loop_
 _atom_site_type_symbol
 _atom_site_label
 _atom_site_symmetry_multiplicity
 _atom_site_fract_x
 _atom_site_fract_y
 _atom_site_fract_z
 _atom_site_occupancy
  Ce  Ce0  1  0.33333300  0.66666700  0.88103300  1
  Ce  Ce1  1  0.66666700  0.33333300  0.38103300  1
  Ce  Ce2  1  0.33333300  0.66666700  0.62380600  1
  Ce  Ce3  1  0.66666700  0.33333300  0.12380600  1
  Se  Se0  1  0.00000000  0.00000000  0.44435700  1
  Se  Se1  1  0.00000000  0.00000000  0.94435700  1
  Se  Se2  1  0.00000000  0.00000000  0.31749400  1
  Se  Se3  1  0.00000000  0.00000000  0.81749400  1
  Se  Se4  1  0.33333300  0.66666700  0.18712200  1
  Se  Se5  1  0.66666700  0.33333300  0.68712200  1
  Se  Se6  1  0.33333300  0.66666700  0.06018700  1
  Se  Se7  1  0.66666700  0.33333300  0.56018700  1
loop_
_geom_bond_atom_site_label_1
_geom_bond_atom_site_label_2
_geom_bond_distance
_geom_bond_site_symmetry_2
Ce0 Se1 2.909175 1_565
Ce0 Se1 2.909177 1_555
Ce0 Se1 2.909177 1_665
Ce0 Se3 2.912492 1_565
Ce0 Se3 2.912495 1_665
Ce0 Se3 2.912495 1_555
Ce1 Se0 2.909175 1_655
Ce1 Se0 2.909177 1_665
Ce1 Se0 2.909177 1_555
Ce1 Se2 2.912492 1_655
Ce1 Se2 2.912495 1_665
Ce1 Se2 2.912495 1_555
Ce2 Se5 2.909051 1_455
Ce2 Se5 2.909051 1_565
Ce2 Se5 2.909058 1_555
Ce2 Se7 2.913728 1_455
Ce2 Se7 2.913728 1_565
Ce2 Se7 2.913734 1_555
Ce3 Se4 2.909051 1_545
Ce3 Se4 2.909051 1_655
Ce3 Se4 2.909058 1_555
Ce3 Se6 2.913728 1_545
Ce3 Se6 2.913728 1_655
Ce3 Se6 2.913734 1_555
