# generated using pymatgen
data_CrSO6
_symmetry_space_group_name_H-M   'P 1'
_cell_length_a   7.20076554
_cell_length_b   7.20076554
_cell_length_c   14.08443967
_cell_angle_alpha   85.63720494
_cell_angle_beta   85.63720494
_cell_angle_gamma   60.12244238
_symmetry_Int_Tables_number   1
_chemical_formula_structural   CrSO6
_chemical_formula_sum   'Cr6 S6 O36'
_cell_volume   630.78012835
_cell_formula_units_Z   6
loop_
 _symmetry_equiv_pos_site_id
 _symmetry_equiv_pos_as_xyz
  1  'x, y, z'
loop_
 _atom_site_type_symbol
 _atom_site_label
 _atom_site_symmetry_multiplicity
 _atom_site_fract_x
 _atom_site_fract_y
 _atom_site_fract_z
 _atom_site_occupancy
  Cr  Cr0  1  0.93339000  0.08038600  0.50846900  1
  Cr  Cr1  1  0.08038600  0.93339000  0.00846900  1
  Cr  Cr2  1  0.15194600  0.26496100  0.31787000  1
  Cr  Cr3  1  0.26496100  0.15194600  0.81787000  1
  Cr  Cr4  1  0.39759100  0.77113800  0.20382500  1
  Cr  Cr5  1  0.77113800  0.39759100  0.70382500  1
  S  S0  1  0.65767300  0.58187800  0.40179600  1
  S  S1  1  0.58187800  0.65767300  0.90179600  1
  S  S2  1  0.89695900  0.01115700  0.29141200  1
  S  S3  1  0.01115700  0.89695900  0.79141200  1
  S  S4  1  0.23510700  0.47138900  0.12367500  1
  S  S5  1  0.47138900  0.23510700  0.62367500  1
  O  O0  1  0.67266400  0.39704500  0.46224700  1
  O  O1  1  0.39704500  0.67266400  0.96224700  1
  O  O2  1  0.55376400  0.77589200  0.45492000  1
  O  O3  1  0.77589200  0.55376400  0.95492000  1
  O  O4  1  0.81854400  0.01687000  0.39584500  1
  O  O5  1  0.01687000  0.81854400  0.89584500  1
  O  O6  1  0.87490400  0.53735500  0.36326500  1
  O  O7  1  0.53735500  0.87490400  0.86326500  1
  O  O8  1  0.51912000  0.60236000  0.32183100  1
  O  O9  1  0.60236000  0.51912000  0.82183100  1
  O  O10  1  0.11485600  0.81655300  0.28528300  1
  O  O11  1  0.81655300  0.11485600  0.78528300  1
  O  O12  1  0.91159800  0.20868100  0.26756100  1
  O  O13  1  0.20868100  0.91159800  0.76756100  1
  O  O14  1  0.74962800  0.99724700  0.23237800  1
  O  O15  1  0.99724700  0.74962800  0.73237800  1
  O  O16  1  0.09286900  0.44680900  0.20519600  1
  O  O17  1  0.44680900  0.09286900  0.70519600  1
  O  O18  1  0.39530800  0.51483900  0.16757700  1
  O  O19  1  0.51483900  0.39530800  0.66757700  1
  O  O20  1  0.07846200  0.66630600  0.06899000  1
  O  O21  1  0.66630600  0.07846200  0.56899000  1
  O  O22  1  0.34428700  0.27985200  0.07151200  1
  O  O23  1  0.27985200  0.34428700  0.57151200  1
  O  O24  1  0.09694000  0.13491800  0.43002800  1
  O  O25  1  0.13491800  0.09694000  0.93002800  1
  O  O26  1  0.33327200  0.03422600  0.26557500  1
  O  O27  1  0.03422600  0.33327200  0.76557500  1
  O  O28  1  0.20818300  0.93258800  0.10823800  1
  O  O29  1  0.93258800  0.20818300  0.60823800  1
  O  O30  1  0.29927400  0.33424700  0.36517100  1
  O  O31  1  0.33424700  0.29927400  0.86517100  1
  O  O32  1  0.62040500  0.72017800  0.15264600  1
  O  O33  1  0.72017800  0.62040500  0.65264600  1
  O  O34  1  0.83458700  0.08179500  0.03574900  1
  O  O35  1  0.08179500  0.83458700  0.53574900  1
loop_
_geom_bond_atom_site_label_1
_geom_bond_atom_site_label_2
_geom_bond_distance
_geom_bond_site_symmetry_2
Cr0 O35 1.580154 1_645
Cr0 O24 1.720025 1_655
Cr0 O29 1.735407 1_555
Cr0 O4 2.023868 1_555
Cr0 O21 2.049598 1_555
Cr0 O0 2.200654 1_555
Cr1 O34 1.580154 1_465
Cr1 O25 1.720025 1_564
Cr1 O28 1.735407 1_555
Cr1 O5 2.023868 1_554
Cr1 O20 2.049598 1_555
Cr1 O1 2.200654 1_554
Cr2 O30 1.582284 1_555
Cr2 O26 1.698924 1_555
Cr2 O24 1.891671 1_555
Cr2 O16 1.909345 1_555
Cr2 O6 2.081840 1_455
Cr2 O12 2.142579 1_455
Cr3 O31 1.582284 1_555
Cr3 O27 1.698924 1_555
Cr3 O25 1.891671 1_555
Cr3 O17 1.909345 1_555
Cr3 O7 2.081840 1_545
Cr3 O13 2.142579 1_545
Cr4 O32 1.583087 1_555
Cr4 O28 1.867012 1_555
Cr4 O18 1.960056 1_555
Cr4 O8 1.964588 1_555
Cr4 O26 1.968510 1_565
Cr4 O10 2.146283 1_555
Cr5 O33 1.583087 1_555
Cr5 O29 1.867012 1_555
Cr5 O19 1.960056 1_555
Cr5 O9 1.964588 1_555
Cr5 O27 1.968510 1_655
Cr5 O11 2.146283 1_555
O0 S0 1.485397 1_555
O1 S1 1.485397 1_555
O2 S0 1.450465 1_555
O3 S1 1.450465 1_555
O4 S2 1.530919 1_555
O5 S3 1.530919 1_555
O6 S0 1.497261 1_555
O7 S1 1.497261 1_555
O8 S0 1.511517 1_555
O9 S1 1.511517 1_555
O10 S2 1.496728 1_465
O11 S3 1.496728 1_645
O12 S2 1.489382 1_555
O13 S3 1.489382 1_555
O14 S2 1.442083 1_565
O15 S3 1.442083 1_655
O16 S4 1.539300 1_555
O17 S5 1.539300 1_555
O18 S4 1.519372 1_555
O19 S5 1.519372 1_555
O20 S4 1.491943 1_555
O21 S5 1.491943 1_555
O22 S4 1.430408 1_555
O23 S5 1.430408 1_555
