# generated using pymatgen
data_GeH10Se3N4
_symmetry_space_group_name_H-M   'P 1'
_cell_length_a   12.93912263
_cell_length_b   12.93912263
_cell_length_c   14.34010977
_cell_angle_alpha   116.81758378
_cell_angle_beta   116.81758378
_cell_angle_gamma   90.00000000
_symmetry_Int_Tables_number   1
_chemical_formula_structural   GeH10Se3N4
_chemical_formula_sum   'Ge8 H80 Se24 N32'
_cell_volume   1848.68075133
_cell_formula_units_Z   8
loop_
 _symmetry_equiv_pos_site_id
 _symmetry_equiv_pos_as_xyz
  1  'x, y, z'
loop_
 _atom_site_type_symbol
 _atom_site_label
 _atom_site_symmetry_multiplicity
 _atom_site_fract_x
 _atom_site_fract_y
 _atom_site_fract_z
 _atom_site_occupancy
  Ge  Ge0  1  0.03937066  0.03937066  0.07874131  1
  Ge  Ge1  1  0.53937066  0.53937066  0.07874131  1
  Ge  Ge2  1  0.78937066  0.28937066  0.57874131  1
  Ge  Ge3  1  0.28937066  0.78937066  0.57874131  1
  Ge  Ge4  1  0.18865303  0.18865303  0.37730606  1
  Ge  Ge5  1  0.68865303  0.68865303  0.37730606  1
  Ge  Ge6  1  0.93865303  0.43865303  0.87730606  1
  Ge  Ge7  1  0.43865303  0.93865303  0.87730606  1
  H  H0  1  0.42899887  0.93157449  0.32810083  1
  H  H1  1  0.92899887  0.89652635  0.32810083  1
  H  H2  1  0.68157449  0.14910196  0.82810083  1
  H  H3  1  0.64652635  0.64910196  0.82810083  1
  H  H4  1  0.89910196  0.39652635  0.32810083  1
  H  H5  1  0.39910196  0.43157449  0.32810083  1
  H  H6  1  0.14652635  0.67899887  0.82810083  1
  H  H7  1  0.18157449  0.17899887  0.82810083  1
  H  H8  1  0.65932536  0.16400957  0.14738668  1
  H  H9  1  0.15932536  0.48337711  0.14738668  1
  H  H10  1  0.91400957  0.73806132  0.64738668  1
  H  H11  1  0.23337711  0.23806132  0.64738668  1
  H  H12  1  0.48806132  0.98337711  0.14738668  1
  H  H13  1  0.98806132  0.66400957  0.14738668  1
  H  H14  1  0.73337711  0.90932536  0.64738668  1
  H  H15  1  0.41400957  0.40932536  0.64738668  1
  H  H16  1  0.24944585  0.79187281  0.18412991  1
  H  H17  1  0.74944585  0.89225710  0.18412991  1
  H  H18  1  0.54187281  0.18468406  0.68412991  1
  H  H19  1  0.64225710  0.68468406  0.68412991  1
  H  H20  1  0.93468406  0.39225710  0.18412991  1
  H  H21  1  0.43468406  0.29187281  0.18412991  1
  H  H22  1  0.14225710  0.49944585  0.68412991  1
  H  H23  1  0.04187281  0.99944585  0.68412991  1
  H  H24  1  0.73200010  0.22528406  0.30137215  1
  H  H25  1  0.23200010  0.57608809  0.30137215  1
  H  H26  1  0.97528406  0.81937205  0.80137215  1
  H  H27  1  0.32608809  0.31937205  0.80137215  1
  H  H28  1  0.56937205  0.07608809  0.30137215  1
  H  H29  1  0.06937205  0.72528406  0.30137215  1
  H  H30  1  0.82608809  0.98200010  0.80137215  1
  H  H31  1  0.47528406  0.48200010  0.80137215  1
  H  H32  1  0.84093620  0.17774585  0.15632402  1
  H  H33  1  0.34093620  0.47857817  0.15632402  1
  H  H34  1  0.92774585  0.56538782  0.65632402  1
  H  H35  1  0.22857817  0.06538782  0.65632402  1
  H  H36  1  0.31538782  0.97857817  0.15632402  1
  H  H37  1  0.81538782  0.67774585  0.15632402  1
  H  H38  1  0.72857817  0.09093620  0.65632402  1
  H  H39  1  0.42774585  0.59093620  0.65632402  1
  H  H40  1  0.36384257  0.73508139  0.17838886  1
  H  H41  1  0.86384257  0.94330747  0.17838886  1
  H  H42  1  0.48508139  0.06454629  0.67838886  1
  H  H43  1  0.69330747  0.56454629  0.67838886  1
  H  H44  1  0.81454629  0.44330747  0.17838886  1
  H  H45  1  0.31454629  0.23508139  0.17838886  1
  H  H46  1  0.19330747  0.61384257  0.67838886  1
  H  H47  1  0.98508139  0.11384257  0.67838886  1
  H  H48  1  0.47586402  0.83739141  0.38957761  1
  H  H49  1  0.97586402  0.05218620  0.38957761  1
  H  H50  1  0.58739141  0.16371359  0.88957761  1
  H  H51  1  0.80218620  0.66371359  0.88957761  1
  H  H52  1  0.91371359  0.55218620  0.38957761  1
  H  H53  1  0.41371359  0.33739141  0.38957761  1
  H  H54  1  0.30218620  0.72586402  0.88957761  1
  H  H55  1  0.08739141  0.22586402  0.88957761  1
  H  H56  1  0.91478419  0.21959634  0.30228410  1
  H  H57  1  0.41478419  0.58268776  0.30228410  1
  H  H58  1  0.96959634  0.63749991  0.80228410  1
  H  H59  1  0.33268776  0.13749991  0.80228410  1
  H  H60  1  0.38749991  0.08268776  0.30228410  1
  H  H61  1  0.88749991  0.71959634  0.30228410  1
  H  H62  1  0.83268776  0.16478419  0.80228410  1
  H  H63  1  0.46959634  0.66478419  0.80228410  1
  H  H64  1  0.35903643  0.89430800  0.39265154  1
  H  H65  1  0.85903643  0.99834354  0.39265154  1
  H  H66  1  0.64430800  0.28361511  0.89265154  1
  H  H67  1  0.74834354  0.78361511  0.89265154  1
  H  H68  1  0.03361511  0.49834354  0.39265154  1
  H  H69  1  0.53361511  0.39430800  0.39265154  1
  H  H70  1  0.24834354  0.60903643  0.89265154  1
  H  H71  1  0.14430800  0.10903643  0.89265154  1
  H  H72  1  0.74363292  0.08455359  0.21235883  1
  H  H73  1  0.24363292  0.62780524  0.21235883  1
  H  H74  1  0.83455359  0.71872591  0.71235883  1
  H  H75  1  0.37780524  0.21872591  0.71235883  1
  H  H76  1  0.46872591  0.12780524  0.21235883  1
  H  H77  1  0.96872591  0.58455359  0.21235883  1
  H  H78  1  0.87780524  0.99363292  0.71235883  1
  H  H79  1  0.33455359  0.49363292  0.71235883  1
  Se  Se0  1  0.12079026  0.25467893  0.22824554  1
  Se  Se1  1  0.62079026  0.47356661  0.22824554  1
  Se  Se2  1  0.00467893  0.35745529  0.72824554  1
  Se  Se3  1  0.22356661  0.85745529  0.72824554  1
  Se  Se4  1  0.10745529  0.97356661  0.22824554  1
  Se  Se5  1  0.60745529  0.75467893  0.22824554  1
  Se  Se6  1  0.72356661  0.37079026  0.72824554  1
  Se  Se7  1  0.50467893  0.87079026  0.72824554  1
  Se  Se8  1  0.09035431  0.24987589  0.48904817  1
  Se  Se9  1  0.59035431  0.73917228  0.48904817  1
  Se  Se10  1  0.99987589  0.64869385  0.98904817  1
  Se  Se11  1  0.48917228  0.14869385  0.98904817  1
  Se  Se12  1  0.39869385  0.23917228  0.48904817  1
  Se  Se13  1  0.89869385  0.74987589  0.48904817  1
  Se  Se14  1  0.98917228  0.34035431  0.98904817  1
  Se  Se15  1  0.49987589  0.84035431  0.98904817  1
  Se  Se16  1  0.13884563  0.97602668  0.96819893  1
  Se  Se17  1  0.63884563  0.49217225  0.96819893  1
  Se  Se18  1  0.72602668  0.07935330  0.46819893  1
  Se  Se19  1  0.24217225  0.57935330  0.46819893  1
  Se  Se20  1  0.82935330  0.99217225  0.96819893  1
  Se  Se21  1  0.32935330  0.47602668  0.96819893  1
  Se  Se22  1  0.74217225  0.38884563  0.46819893  1
  Se  Se23  1  0.22602668  0.88884563  0.46819893  1
  N  N0  1  0.84195076  0.22888631  0.23689749  1
  N  N1  1  0.34195076  0.50801118  0.23689749  1
  N  N2  1  0.97888631  0.64494674  0.73689749  1
  N  N3  1  0.25801118  0.14494674  0.73689749  1
  N  N4  1  0.39494674  0.00801118  0.23689749  1
  N  N5  1  0.89494674  0.72888631  0.23689749  1
  N  N6  1  0.75801118  0.09195076  0.73689749  1
  N  N7  1  0.47888631  0.59195076  0.73689749  1
  N  N8  1  0.31973372  0.76178635  0.22661731  1
  N  N9  1  0.81973372  0.96483096  0.22661731  1
  N  N10  1  0.51178635  0.15688359  0.72661731  1
  N  N11  1  0.71483096  0.65688359  0.72661731  1
  N  N12  1  0.90688359  0.46483096  0.22661731  1
  N  N13  1  0.40688359  0.26178635  0.22661731  1
  N  N14  1  0.21483096  0.56973372  0.72661731  1
  N  N15  1  0.01178635  0.06973372  0.72661731  1
  N  N16  1  0.73677821  0.17005216  0.22283040  1
  N  N17  1  0.23677821  0.55277825  0.22283040  1
  N  N18  1  0.92005216  0.73605220  0.72283040  1
  N  N19  1  0.30277825  0.23605220  0.72283040  1
  N  N20  1  0.48605220  0.05277825  0.22283040  1
  N  N21  1  0.98605220  0.67005216  0.22283040  1
  N  N22  1  0.80277825  0.98677821  0.72283040  1
  N  N23  1  0.42005216  0.48677821  0.72283040  1
  N  N24  1  0.40292873  0.86509397  0.34241393  1
  N  N25  1  0.90292873  0.97731996  0.34241393  1
  N  N26  1  0.61509397  0.18948519  0.84241393  1
  N  N27  1  0.72731996  0.68948519  0.84241393  1
  N  N28  1  0.93948519  0.47731996  0.34241393  1
  N  N29  1  0.43948519  0.36509397  0.34241393  1
  N  N30  1  0.22731996  0.65292873  0.84241393  1
  N  N31  1  0.11509397  0.15292873  0.84241393  1
loop_
_geom_bond_atom_site_label_1
_geom_bond_atom_site_label_2
_geom_bond_distance
_geom_bond_site_symmetry_2
Ge0 Se16 2.347329 1_544
Ge0 Se20 2.347329 1_444
Ge0 Se0 2.457702 1_555
Ge0 Se4 2.457702 1_545
Ge1 Se17 2.347329 1_554
Ge1 Se21 2.347329 1_554
Ge1 Se5 2.457702 1_555
Ge1 Se1 2.457702 1_555
Ge2 Se22 2.347329 1_555
Ge2 Se18 2.347329 1_555
Ge2 Se2 2.457702 1_655
Ge2 Se6 2.457702 1_555
Ge3 Se23 2.347329 1_555
Ge3 Se19 2.347329 1_555
Ge3 Se7 2.457702 1_555
Ge3 Se3 2.457702 1_555
Ge4 Se12 2.346602 1_555
Ge4 Se8 2.346602 1_555
Ge4 Se4 2.454413 1_545
Ge4 Se0 2.454413 1_555
Ge5 Se13 2.346602 1_555
Ge5 Se9 2.346602 1_555
Ge5 Se5 2.454413 1_555
Ge5 Se1 2.454413 1_555
Ge6 Se10 2.346602 1_555
Ge6 Se14 2.346602 1_555
Ge6 Se2 2.454413 1_655
Ge6 Se6 2.454413 1_555
Ge7 Se11 2.346602 1_565
Ge7 Se15 2.346602 1_555
Ge7 Se3 2.454413 1_555
Ge7 Se7 2.454413 1_555
H0 N24 1.057185 1_555
H1 N25 1.057185 1_555
H2 N26 1.057185 1_555
H3 N27 1.057185 1_555
H4 N28 1.057185 1_555
H5 N29 1.057185 1_555
H6 N30 1.057185 1_555
H7 N31 1.057185 1_555
H8 N16 1.061267 1_555
H9 N17 1.061267 1_555
H10 N18 1.061267 1_555
H11 N19 1.061267 1_555
H12 N20 1.061267 1_565
H13 N21 1.061267 1_555
H14 N22 1.061267 1_555
H15 N23 1.061267 1_555
H16 N8 1.031467 1_555
H17 N9 1.031467 1_555
H18 N10 1.031467 1_555
H19 N11 1.031467 1_555
H20 N12 1.031467 1_555
H21 N13 1.031467 1_555
H22 N14 1.031467 1_555
H23 N15 1.031467 1_565
H24 N16 1.058136 1_555
H25 N17 1.058136 1_555
H26 N18 1.058136 1_555
H27 N19 1.058136 1_555
H28 N20 1.058136 1_555
H29 N21 1.058136 1_455
H30 N22 1.058136 1_555
H31 N23 1.058136 1_555
H32 N0 1.034169 1_555
H33 N1 1.034169 1_555
H34 N2 1.034169 1_555
H35 N3 1.034169 1_555
H36 N4 1.034169 1_565
H37 N5 1.034169 1_555
H38 N6 1.034169 1_555
H39 N7 1.034169 1_555
H40 N8 1.031489 1_555
H41 N9 1.031489 1_555
H42 N10 1.031489 1_555
H43 N11 1.031489 1_555
H44 N12 1.031489 1_555
H45 N13 1.031489 1_555
H46 N14 1.031489 1_555
H47 N15 1.031489 1_655
H48 N24 1.057993 1_555
H49 N25 1.057993 1_545
H50 N26 1.057993 1_555
H51 N27 1.057993 1_555
H52 N28 1.057993 1_555
H53 N29 1.057993 1_555
H54 N30 1.057993 1_555
H55 N31 1.057993 1_555
H56 N0 1.042181 1_555
H57 N1 1.042181 1_555
H58 N2 1.042181 1_555
H59 N3 1.042181 1_555
H60 N4 1.042181 1_555
H61 N5 1.042181 1_555
H62 N6 1.042181 1_555
H63 N7 1.042181 1_555
H64 N24 1.052559 1_555
H65 N25 1.052559 1_555
H66 N26 1.052559 1_555
H67 N27 1.052559 1_555
H68 N28 1.052559 1_455
H69 N29 1.052559 1_555
H70 N30 1.052559 1_555
H71 N31 1.052559 1_555
H72 N16 1.056593 1_555
H73 N17 1.056593 1_555
H74 N18 1.056593 1_555
H75 N19 1.056593 1_555
H76 N20 1.056593 1_555
H77 N21 1.056593 1_555
H78 N22 1.056593 1_555
H79 N23 1.056593 1_555
