# generated using pymatgen
data_Ba2NdMoO6
_symmetry_space_group_name_H-M   'P 1'
_cell_length_a   6.13890291
_cell_length_b   6.13890291
_cell_length_c   6.13890291
_cell_angle_alpha   120.69198967
_cell_angle_beta   120.69198967
_cell_angle_gamma   88.80556006
_symmetry_Int_Tables_number   1
_chemical_formula_structural   Ba2NdMoO6
_chemical_formula_sum   'Ba2 Nd1 Mo1 O6'
_cell_volume   161.84099977
_cell_formula_units_Z   1
loop_
 _symmetry_equiv_pos_site_id
 _symmetry_equiv_pos_as_xyz
  1  'x, y, z'
loop_
 _atom_site_type_symbol
 _atom_site_label
 _atom_site_symmetry_multiplicity
 _atom_site_fract_x
 _atom_site_fract_y
 _atom_site_fract_z
 _atom_site_occupancy
  Ba  Ba0  1  0.25000000  0.75000000  0.50000000  1
  Ba  Ba1  1  0.75000000  0.25000000  0.50000000  1
  Nd  Nd0  1  0.00000000  0.00000000  0.00000000  1
  Mo  Mo0  1  0.50000000  0.50000000  0.00000000  1
  O  O0  1  0.26632100  0.26632100  0.00000000  1
  O  O1  1  0.73367900  0.73367900  0.00000000  1
  O  O2  1  0.23547400  0.31334600  0.54882000  1
  O  O3  1  0.76452600  0.68665400  0.45118000  1
  O  O4  1  0.68665400  0.23547400  0.92212900  1
  O  O5  1  0.31334600  0.76452600  0.07787100  1
loop_
_geom_bond_atom_site_label_1
_geom_bond_atom_site_label_2
_geom_bond_distance
_geom_bond_site_symmetry_2
Ba0 O4 2.853178 1_565
Ba0 O2 2.853179 1_555
Ba0 O3 2.853179 1_455
Ba0 O5 2.853185 1_555
Ba0 O0 3.040663 1_555
Ba0 O1 3.040663 1_455
Ba0 O1 3.040663 1_556
Ba0 O0 3.040663 1_566
Ba0 O5 3.318751 1_556
Ba0 O4 3.318757 1_454
Ba0 O3 3.318757 1_555
Ba0 O2 3.318757 1_565
Ba1 O5 2.853178 1_545
Ba1 O3 2.853179 1_555
Ba1 O2 2.853179 1_655
Ba1 O4 2.853185 1_555
Ba1 O0 3.040663 1_555
Ba1 O0 3.040663 1_656
Ba1 O1 3.040663 1_556
Ba1 O1 3.040663 1_545
Ba1 O4 3.318751 1_554
Ba1 O5 3.318757 1_656
Ba1 O3 3.318757 1_545
Ba1 O2 3.318757 1_555
Nd0 O0 2.336099 1_555
Nd0 O1 2.336099 1_445
Nd0 O4 2.381001 1_454
Nd0 O5 2.381001 1_545
Nd0 O3 2.381002 1_444
Nd0 O2 2.381002 1_555
Mo0 O5 1.966642 1_555
Mo0 O4 1.966642 1_554
Mo0 O3 1.966643 1_555
Mo0 O2 1.966643 1_554
Mo0 O1 2.049771 1_555
Mo0 O0 2.049771 1_555
