# generated using pymatgen
data_BaAl2O6
_symmetry_space_group_name_H-M   'P 1'
_cell_length_a   5.67300800
_cell_length_b   9.64291700
_cell_length_c   11.09699900
_cell_angle_alpha   90.00000000
_cell_angle_beta   90.00000000
_cell_angle_gamma   90.00000000
_symmetry_Int_Tables_number   1
_chemical_formula_structural   BaAl2O6
_chemical_formula_sum   'Ba4 Al8 O24'
_cell_volume   607.05406492
_cell_formula_units_Z   4
loop_
 _symmetry_equiv_pos_site_id
 _symmetry_equiv_pos_as_xyz
  1  'x, y, z'
loop_
 _atom_site_type_symbol
 _atom_site_label
 _atom_site_symmetry_multiplicity
 _atom_site_fract_x
 _atom_site_fract_y
 _atom_site_fract_z
 _atom_site_occupancy
  Ba  Ba0  1  0.64171300  0.95939500  0.32977300  1
  Ba  Ba1  1  0.35828700  0.04060500  0.82977300  1
  Ba  Ba2  1  0.85828700  0.45939500  0.82977300  1
  Ba  Ba3  1  0.14171300  0.54060500  0.32977300  1
  Al  Al0  1  0.61798000  0.65671700  0.14511000  1
  Al  Al1  1  0.38202000  0.34328300  0.64511000  1
  Al  Al2  1  0.88202000  0.15671700  0.64511000  1
  Al  Al3  1  0.11798000  0.84328300  0.14511000  1
  Al  Al4  1  0.66117300  0.32292800  0.21675000  1
  Al  Al5  1  0.33882700  0.67707200  0.71675000  1
  Al  Al6  1  0.83882700  0.82292800  0.71675000  1
  Al  Al7  1  0.16117300  0.17707200  0.21675000  1
  O  O0  1  0.59321100  0.49721500  0.22318000  1
  O  O1  1  0.40678900  0.50278500  0.72318000  1
  O  O2  1  0.90678900  0.99721500  0.72318000  1
  O  O3  1  0.09321100  0.00278500  0.22318000  1
  O  O4  1  0.63027500  0.59253000  0.99601900  1
  O  O5  1  0.36972500  0.40747000  0.49601900  1
  O  O6  1  0.86972500  0.09253000  0.49601900  1
  O  O7  1  0.13027500  0.90747000  0.99601900  1
  O  O8  1  0.37128000  0.75330500  0.19484400  1
  O  O9  1  0.62872000  0.24669500  0.69484400  1
  O  O10  1  0.12872000  0.25330500  0.69484400  1
  O  O11  1  0.87128000  0.74669500  0.19484400  1
  O  O12  1  0.66678300  0.14313500  0.02510500  1
  O  O13  1  0.33321700  0.85686500  0.52510500  1
  O  O14  1  0.83321700  0.64313500  0.52510500  1
  O  O15  1  0.16678300  0.35686500  0.02510500  1
  O  O16  1  0.44654500  0.20848100  0.26619500  1
  O  O17  1  0.55345500  0.79151900  0.76619500  1
  O  O18  1  0.05345500  0.70848100  0.76619500  1
  O  O19  1  0.94654500  0.29151900  0.26619500  1
  O  O20  1  0.82599000  0.77886800  0.54502300  1
  O  O21  1  0.17401000  0.22113200  0.04502300  1
  O  O22  1  0.67401000  0.27886800  0.04502300  1
  O  O23  1  0.32599000  0.72113200  0.54502300  1
loop_
_geom_bond_atom_site_label_1
_geom_bond_atom_site_label_2
_geom_bond_distance
_geom_bond_site_symmetry_2
Ba0 O6 2.593212 1_565
Ba0 O16 2.737304 1_565
Ba0 O3 2.852148 1_665
Ba0 O11 2.853911 1_555
Ba0 O8 2.923183 1_555
Ba0 O13 2.956153 1_555
Ba0 O20 3.135096 1_555
Ba0 O3 3.355090 1_565
Ba1 O7 2.593212 1_545
Ba1 O17 2.737304 1_545
Ba1 O2 2.852148 1_445
Ba1 O10 2.853911 1_555
Ba1 O9 2.923183 1_555
Ba1 O12 2.956153 1_556
Ba1 O21 3.135096 1_556
Ba1 O2 3.355090 1_545
Ba2 O4 2.593212 1_555
Ba2 O18 2.737304 1_655
Ba2 O1 2.852148 1_555
Ba2 O9 2.853911 1_555
Ba2 O10 2.923183 1_655
Ba2 O15 2.956153 1_656
Ba2 O22 3.135096 1_556
Ba2 O1 3.355090 1_655
Ba3 O5 2.593212 1_555
Ba3 O19 2.737304 1_455
Ba3 O0 2.852148 1_555
Ba3 O8 2.853911 1_555
Ba3 O11 2.923183 1_455
Ba3 O14 2.956153 1_455
Ba3 O23 3.135096 1_555
Ba3 O0 3.355090 1_455
Al0 O11 1.767003 1_555
Al0 O4 1.767827 1_554
Al0 O8 1.769397 1_555
Al0 O0 1.770858 1_555
Al1 O10 1.767003 1_555
Al1 O5 1.767827 1_555
Al1 O9 1.769397 1_555
Al1 O1 1.770858 1_555
Al2 O9 1.767003 1_555
Al2 O6 1.767827 1_555
Al2 O10 1.769397 1_655
Al2 O2 1.770858 1_545
Al3 O8 1.767003 1_555
Al3 O7 1.767827 1_554
Al3 O11 1.769397 1_455
Al3 O3 1.770858 1_565
Al4 O0 1.725768 1_555
Al4 O16 1.732489 1_555
Al4 O19 1.735998 1_555
Al4 O22 1.953800 1_555
Al5 O1 1.725768 1_555
Al5 O17 1.732489 1_555
Al5 O18 1.735998 1_555
Al5 O23 1.953800 1_555
Al6 O2 1.725768 1_555
Al6 O18 1.732489 1_655
Al6 O17 1.735998 1_555
Al6 O20 1.953800 1_555
Al7 O3 1.725768 1_555
Al7 O19 1.732489 1_455
Al7 O16 1.735998 1_555
Al7 O21 1.953800 1_555
O12 O22 1.328027 1_555
O13 O23 1.328027 1_555
O14 O20 1.328027 1_555
O15 O21 1.328027 1_555
