# generated using pymatgen
data_La(CeB8)3
_symmetry_space_group_name_H-M   'P 1'
_cell_length_a   4.12216600
_cell_length_b   4.12216600
_cell_length_c   16.49663300
_cell_angle_alpha   90.00000000
_cell_angle_beta   90.00000000
_cell_angle_gamma   90.00000000
_symmetry_Int_Tables_number   1
_chemical_formula_structural   La(CeB8)3
_chemical_formula_sum   'La1 Ce3 B24'
_cell_volume   280.31495386
_cell_formula_units_Z   1
loop_
 _symmetry_equiv_pos_site_id
 _symmetry_equiv_pos_as_xyz
  1  'x, y, z'
loop_
 _atom_site_type_symbol
 _atom_site_label
 _atom_site_symmetry_multiplicity
 _atom_site_fract_x
 _atom_site_fract_y
 _atom_site_fract_z
 _atom_site_occupancy
  La  La0  1  0.00000000  0.00000000  0.00000000  1
  Ce  Ce0  1  0.00000000  0.00000000  0.25057600  1
  Ce  Ce1  1  0.00000000  0.00000000  0.50000000  1
  Ce  Ce2  1  0.00000000  0.00000000  0.74942400  1
  B  B0  1  0.50000000  0.50000000  0.20044100  1
  B  B1  1  0.50000000  0.50000000  0.45026100  1
  B  B2  1  0.50000000  0.50000000  0.70025600  1
  B  B3  1  0.50000000  0.50000000  0.94994900  1
  B  B4  1  0.50000000  0.19944000  0.12535800  1
  B  B5  1  0.50000000  0.19885800  0.37498300  1
  B  B6  1  0.50000000  0.19885800  0.62501700  1
  B  B7  1  0.50000000  0.19944000  0.87464200  1
  B  B8  1  0.19944000  0.50000000  0.12535800  1
  B  B9  1  0.19885800  0.50000000  0.37498300  1
  B  B10  1  0.19885800  0.50000000  0.62501700  1
  B  B11  1  0.19944000  0.50000000  0.87464200  1
  B  B12  1  0.50000000  0.50000000  0.05005100  1
  B  B13  1  0.50000000  0.50000000  0.29974400  1
  B  B14  1  0.50000000  0.50000000  0.54973900  1
  B  B15  1  0.50000000  0.50000000  0.79955900  1
  B  B16  1  0.50000000  0.80056000  0.12535800  1
  B  B17  1  0.50000000  0.80114200  0.37498300  1
  B  B18  1  0.50000000  0.80114200  0.62501700  1
  B  B19  1  0.50000000  0.80056000  0.87464200  1
  B  B20  1  0.80056000  0.50000000  0.12535800  1
  B  B21  1  0.80114200  0.50000000  0.37498300  1
  B  B22  1  0.80114200  0.50000000  0.62501700  1
  B  B23  1  0.80056000  0.50000000  0.87464200  1
loop_
_geom_bond_atom_site_label_1
_geom_bond_atom_site_label_2
_geom_bond_distance
_geom_bond_site_symmetry_2
B0 B13 1.638165 1_555
B0 B4 1.751910 1_555
B0 B8 1.751910 1_555
B0 B16 1.751910 1_555
B0 B20 1.751910 1_555
B0 Ce0 3.029877 1_555
B0 Ce0 3.029877 1_655
B0 Ce0 3.029877 1_665
B0 Ce0 3.029877 1_565
B1 B14 1.641052 1_555
B1 B17 1.755881 1_555
B1 B21 1.755881 1_555
B1 B5 1.755881 1_555
B1 B9 1.755881 1_555
B1 Ce1 3.028100 1_555
B1 Ce1 3.028100 1_655
B1 Ce1 3.028100 1_665
B1 Ce1 3.028100 1_565
B2 B22 1.755426 1_555
B2 B6 1.755426 1_555
B2 Ce2 3.025561 1_665
B2 Ce2 3.025561 1_655
B2 Ce2 3.025561 1_555
B2 Ce2 3.025561 1_565
B3 B7 1.754525 1_555
B3 La0 3.029499 1_566
B3 La0 3.029499 1_666
B3 La0 3.029499 1_656
B3 La0 3.029499 1_556
B4 B8 1.752152 1_555
B4 Ce0 3.031661 1_555
B4 Ce0 3.031661 1_655
B4 La0 3.033235 1_655
B4 La0 3.033235 1_555
B5 B9 1.755544 1_555
B5 Ce0 3.021909 1_655
B5 Ce0 3.021909 1_555
B5 Ce1 3.028752 1_555
B5 Ce1 3.028752 1_655
B6 Ce2 3.021909 1_655
B6 Ce2 3.021909 1_555
B6 Ce1 3.028752 1_555
B6 Ce1 3.028752 1_655
B7 Ce2 3.031661 1_555
B7 Ce2 3.031661 1_655
B7 La0 3.033235 1_556
B7 La0 3.033235 1_656
B8 Ce0 3.031661 1_555
B8 Ce0 3.031661 1_565
B8 La0 3.033235 1_565
B8 La0 3.033235 1_555
B9 Ce0 3.021909 1_555
B9 Ce0 3.021909 1_565
B9 Ce1 3.028752 1_565
B9 Ce1 3.028752 1_555
B10 B22 1.639451 1_455
B10 B2 1.755426 1_555
B10 B18 1.755544 1_555
B10 B6 1.755544 1_555
B10 B14 1.755881 1_555
B10 Ce2 3.021909 1_555
B10 Ce2 3.021909 1_565
B10 Ce1 3.028752 1_565
B10 Ce1 3.028752 1_555
B11 B23 1.644250 1_455
B11 B15 1.751910 1_555
B11 B7 1.752152 1_555
B11 B19 1.752152 1_555
B11 B3 1.754525 1_555
B11 Ce2 3.031661 1_555
B11 Ce2 3.031661 1_565
B11 La0 3.033235 1_556
B11 La0 3.033235 1_566
B12 B3 1.651346 1_554
B12 B4 1.754525 1_555
B12 B8 1.754525 1_555
B12 B20 1.754525 1_555
B12 B16 1.754525 1_555
B12 La0 3.029499 1_655
B12 La0 3.029499 1_665
B12 La0 3.029499 1_555
B12 La0 3.029499 1_565
B13 B17 1.755426 1_555
B13 B21 1.755426 1_555
B13 B5 1.755426 1_555
B13 B9 1.755426 1_555
B13 Ce0 3.025561 1_565
B13 Ce0 3.025561 1_555
B13 Ce0 3.025561 1_655
B13 Ce0 3.025561 1_665
B14 B18 1.755881 1_555
B14 B22 1.755881 1_555
B14 B6 1.755881 1_555
B14 Ce1 3.028100 1_655
B14 Ce1 3.028100 1_665
B14 Ce1 3.028100 1_565
B14 Ce1 3.028100 1_555
B15 B2 1.638165 1_555
B15 B19 1.751910 1_555
B15 B23 1.751910 1_555
B15 B7 1.751910 1_555
B15 Ce2 3.029877 1_665
B15 Ce2 3.029877 1_655
B15 Ce2 3.029877 1_565
B15 Ce2 3.029877 1_555
B16 B4 1.644250 1_565
B16 B8 1.752152 1_555
B16 B20 1.752152 1_555
B16 Ce0 3.031661 1_665
B16 Ce0 3.031661 1_565
B16 La0 3.033235 1_565
B16 La0 3.033235 1_665
B17 B5 1.639451 1_565
B17 B21 1.755544 1_555
B17 B9 1.755544 1_555
B17 Ce0 3.021909 1_665
B17 Ce0 3.021909 1_565
B17 Ce1 3.028752 1_665
B17 Ce1 3.028752 1_565
B18 B6 1.639451 1_565
B18 B2 1.755426 1_555
B18 B22 1.755544 1_555
B18 Ce2 3.021909 1_665
B18 Ce2 3.021909 1_565
B18 Ce1 3.028752 1_665
B18 Ce1 3.028752 1_565
B19 B7 1.644250 1_565
B19 B23 1.752152 1_555
B19 B3 1.754525 1_555
B19 Ce2 3.031661 1_665
B19 Ce2 3.031661 1_565
B19 La0 3.033235 1_666
B19 La0 3.033235 1_566
B20 B8 1.644250 1_655
B20 B4 1.752152 1_555
B20 Ce0 3.031661 1_655
B20 Ce0 3.031661 1_665
B20 La0 3.033235 1_655
B20 La0 3.033235 1_665
B21 B9 1.639451 1_655
B21 B5 1.755544 1_555
B21 Ce0 3.021909 1_655
B21 Ce0 3.021909 1_665
B21 Ce1 3.028752 1_655
B21 Ce1 3.028752 1_665
B22 B6 1.755544 1_555
B22 Ce2 3.021909 1_665
B22 Ce2 3.021909 1_655
B22 Ce1 3.028752 1_665
B22 Ce1 3.028752 1_655
B23 B7 1.752152 1_555
B23 B3 1.754525 1_555
B23 Ce2 3.031661 1_665
B23 Ce2 3.031661 1_655
B23 La0 3.033235 1_666
B23 La0 3.033235 1_656
