# generated using pymatgen
data_Mg30TiNbO32
_symmetry_space_group_name_H-M   'P 1'
_cell_length_a   8.58831658
_cell_length_b   8.56410020
_cell_length_c   8.56410020
_cell_angle_alpha   90.00000000
_cell_angle_beta   90.00000000
_cell_angle_gamma   90.00000000
_symmetry_Int_Tables_number   1
_chemical_formula_structural   Mg30TiNbO32
_chemical_formula_sum   'Mg30 Ti1 Nb1 O32'
_cell_volume   629.89987866
_cell_formula_units_Z   1
loop_
 _symmetry_equiv_pos_site_id
 _symmetry_equiv_pos_as_xyz
  1  'x, y, z'
loop_
 _atom_site_type_symbol
 _atom_site_label
 _atom_site_symmetry_multiplicity
 _atom_site_fract_x
 _atom_site_fract_y
 _atom_site_fract_z
 _atom_site_occupancy
  Mg  Mg0  1  0.00000000  0.00000000  0.50000000  1
  Mg  Mg1  1  0.00000000  0.50000000  0.00000000  1
  Mg  Mg2  1  0.50000000  0.00000000  0.00000000  1
  Mg  Mg3  1  0.50000000  0.00000000  0.50000000  1
  Mg  Mg4  1  0.50000000  0.50000000  0.00000000  1
  Mg  Mg5  1  0.50000000  0.50000000  0.50000000  1
  Mg  Mg6  1  0.00000000  0.24993683  0.24993683  1
  Mg  Mg7  1  0.00000000  0.24993683  0.75006317  1
  Mg  Mg8  1  0.00000000  0.75006317  0.24993683  1
  Mg  Mg9  1  0.00000000  0.75006317  0.75006317  1
  Mg  Mg10  1  0.50000000  0.24989663  0.24989663  1
  Mg  Mg11  1  0.50000000  0.24989663  0.75010337  1
  Mg  Mg12  1  0.50000000  0.75010337  0.24989663  1
  Mg  Mg13  1  0.50000000  0.75010337  0.75010337  1
  Mg  Mg14  1  0.25126150  0.00000000  0.24970216  1
  Mg  Mg15  1  0.25126150  0.00000000  0.75029784  1
  Mg  Mg16  1  0.25221740  0.50000000  0.24804752  1
  Mg  Mg17  1  0.25221740  0.50000000  0.75195248  1
  Mg  Mg18  1  0.74873850  0.00000000  0.24970216  1
  Mg  Mg19  1  0.74873850  0.00000000  0.75029784  1
  Mg  Mg20  1  0.74778260  0.50000000  0.24804752  1
  Mg  Mg21  1  0.74778260  0.50000000  0.75195248  1
  Mg  Mg22  1  0.25126150  0.24970216  0.00000000  1
  Mg  Mg23  1  0.25221740  0.24804752  0.50000000  1
  Mg  Mg24  1  0.25126150  0.75029784  0.00000000  1
  Mg  Mg25  1  0.25221740  0.75195248  0.50000000  1
  Mg  Mg26  1  0.74873850  0.24970216  0.00000000  1
  Mg  Mg27  1  0.74778260  0.24804752  0.50000000  1
  Mg  Mg28  1  0.74873850  0.75029784  0.00000000  1
  Mg  Mg29  1  0.74778260  0.75195248  0.50000000  1
  Ti  Ti0  1  0.00000000  0.00000000  0.00000000  1
  Nb  Nb0  1  0.00000000  0.50000000  0.50000000  1
  O  O0  1  0.25909970  0.00000000  0.00000000  1
  O  O1  1  0.25134074  0.00000000  0.50000000  1
  O  O2  1  0.25134074  0.50000000  0.00000000  1
  O  O3  1  0.26209221  0.50000000  0.50000000  1
  O  O4  1  0.74090030  0.00000000  0.00000000  1
  O  O5  1  0.74865926  0.00000000  0.50000000  1
  O  O6  1  0.74865926  0.50000000  0.00000000  1
  O  O7  1  0.73790779  0.50000000  0.50000000  1
  O  O8  1  0.24921203  0.25025401  0.25025401  1
  O  O9  1  0.24921203  0.25025401  0.74974599  1
  O  O10  1  0.24921203  0.74974599  0.25025401  1
  O  O11  1  0.24921203  0.74974599  0.74974599  1
  O  O12  1  0.75078797  0.25025401  0.25025401  1
  O  O13  1  0.75078797  0.25025401  0.74974599  1
  O  O14  1  0.75078797  0.74974599  0.25025401  1
  O  O15  1  0.75078797  0.74974599  0.74974599  1
  O  O16  1  0.00000000  0.00000000  0.25138092  1
  O  O17  1  0.00000000  0.00000000  0.74861908  1
  O  O18  1  0.00000000  0.50000000  0.23788625  1
  O  O19  1  0.00000000  0.50000000  0.76211375  1
  O  O20  1  0.50000000  0.00000000  0.25095812  1
  O  O21  1  0.50000000  0.00000000  0.74904188  1
  O  O22  1  0.50000000  0.50000000  0.24879743  1
  O  O23  1  0.50000000  0.50000000  0.75120257  1
  O  O24  1  0.00000000  0.25138092  0.00000000  1
  O  O25  1  0.00000000  0.23788625  0.50000000  1
  O  O26  1  0.00000000  0.74861908  0.00000000  1
  O  O27  1  0.00000000  0.76211375  0.50000000  1
  O  O28  1  0.50000000  0.25095812  0.00000000  1
  O  O29  1  0.50000000  0.24879743  0.50000000  1
  O  O30  1  0.50000000  0.74904188  0.00000000  1
  O  O31  1  0.50000000  0.75120257  0.50000000  1
loop_
_geom_bond_atom_site_label_1
_geom_bond_atom_site_label_2
_geom_bond_distance
_geom_bond_site_symmetry_2
Mg0 O25 2.037282 1_555
Mg0 O27 2.037282 1_545
Mg0 O17 2.129199 1_555
Mg0 O16 2.129199 1_555
Mg0 O5 2.158594 1_455
Mg0 O1 2.158594 1_555
Mg1 O19 2.037282 1_554
Mg1 O18 2.037282 1_555
Mg1 O26 2.129199 1_555
Mg1 O24 2.129199 1_555
Mg1 O6 2.158594 1_455
Mg1 O2 2.158594 1_555
Mg2 O4 2.068928 1_555
Mg2 O0 2.068928 1_555
Mg2 O21 2.149230 1_554
Mg2 O30 2.149230 1_545
Mg2 O20 2.149230 1_555
Mg2 O28 2.149230 1_555
Mg3 O31 2.130726 1_545
Mg3 O29 2.130726 1_555
Mg3 O20 2.132820 1_555
Mg3 O21 2.132820 1_555
Mg3 O1 2.135564 1_555
Mg3 O5 2.135564 1_555
Mg4 O23 2.130726 1_554
Mg4 O22 2.130726 1_555
Mg4 O28 2.132820 1_555
Mg4 O30 2.132820 1_555
Mg4 O2 2.135564 1_555
Mg4 O6 2.135564 1_555
Mg5 O3 2.043227 1_555
Mg5 O7 2.043227 1_555
Mg5 O31 2.151324 1_555
Mg5 O22 2.151324 1_555
Mg5 O23 2.151324 1_555
Mg5 O29 2.151324 1_555
Mg6 O12 2.140315 1_455
Mg6 O8 2.140315 1_555
Mg6 O24 2.140520 1_555
Mg6 O16 2.140520 1_555
Mg6 O25 2.144051 1_555
Mg6 O18 2.144051 1_555
Mg7 O9 2.140315 1_555
Mg7 O13 2.140315 1_455
Mg7 O17 2.140520 1_555
Mg7 O24 2.140520 1_556
Mg7 O19 2.144051 1_555
Mg7 O25 2.144051 1_555
Mg8 O10 2.140315 1_555
Mg8 O14 2.140315 1_455
Mg8 O16 2.140520 1_565
Mg8 O26 2.140520 1_555
Mg8 O27 2.144051 1_555
Mg8 O18 2.144051 1_555
Mg9 O11 2.140315 1_555
Mg9 O15 2.140315 1_455
Mg9 O26 2.140520 1_556
Mg9 O17 2.140520 1_565
Mg9 O19 2.144051 1_555
Mg9 O27 2.144051 1_555
Mg10 O28 2.140159 1_555
Mg10 O20 2.140159 1_555
Mg10 O22 2.141931 1_555
Mg10 O29 2.141931 1_555
Mg10 O8 2.153851 1_555
Mg10 O12 2.153851 1_555
Mg11 O28 2.140159 1_556
Mg11 O21 2.140159 1_555
Mg11 O23 2.141931 1_555
Mg11 O29 2.141931 1_555
Mg11 O9 2.153851 1_555
Mg11 O13 2.153851 1_555
Mg12 O20 2.140159 1_565
Mg12 O30 2.140159 1_555
Mg12 O31 2.141931 1_555
Mg12 O22 2.141931 1_555
Mg12 O14 2.153851 1_555
Mg12 O10 2.153851 1_555
Mg13 O30 2.140159 1_556
Mg13 O21 2.140159 1_565
Mg13 O31 2.141931 1_555
Mg13 O23 2.141931 1_555
Mg13 O11 2.153851 1_555
Mg13 O15 2.153851 1_555
Mg14 O20 2.136272 1_555
Mg14 O0 2.139534 1_555
Mg14 O8 2.143278 1_555
Mg14 O10 2.143278 1_545
Mg14 O1 2.143576 1_555
Mg14 O16 2.157961 1_555
Mg15 O21 2.136272 1_555
Mg15 O0 2.139534 1_556
Mg15 O9 2.143278 1_555
Mg15 O11 2.143278 1_545
Mg15 O1 2.143576 1_555
Mg15 O17 2.157961 1_555
Mg16 O2 2.124317 1_555
Mg16 O22 2.128045 1_555
Mg16 O10 2.139089 1_555
Mg16 O8 2.139089 1_555
Mg16 O3 2.159412 1_555
Mg16 O18 2.167870 1_555
Mg17 O2 2.124317 1_556
Mg17 O23 2.128045 1_555
Mg17 O11 2.139089 1_555
Mg17 O9 2.139089 1_555
Mg17 O3 2.159412 1_555
Mg17 O19 2.167870 1_555
Mg18 O20 2.136272 1_555
Mg18 O4 2.139534 1_555
Mg18 O14 2.143278 1_545
Mg18 O12 2.143278 1_555
Mg18 O5 2.143576 1_555
Mg18 O16 2.157961 1_655
Mg19 O21 2.136272 1_555
Mg19 O4 2.139534 1_556
Mg19 O15 2.143278 1_545
Mg19 O13 2.143278 1_555
Mg19 O5 2.143576 1_555
Mg19 O17 2.157961 1_655
Mg20 O6 2.124317 1_555
Mg20 O22 2.128045 1_555
Mg20 O12 2.139089 1_555
Mg20 O14 2.139089 1_555
Mg20 O7 2.159412 1_555
Mg20 O18 2.167870 1_655
Mg21 O6 2.124317 1_556
Mg21 O23 2.128045 1_555
Mg21 O13 2.139089 1_555
Mg21 O15 2.139089 1_555
Mg21 O7 2.159412 1_555
Mg21 O19 2.167870 1_655
Mg22 O28 2.136272 1_555
Mg22 O0 2.139534 1_555
Mg22 O9 2.143278 1_554
Mg22 O8 2.143278 1_555
Mg22 O2 2.143576 1_555
Mg22 O24 2.157961 1_555
Mg23 O1 2.124317 1_555
Mg23 O29 2.128045 1_555
Mg23 O8 2.139089 1_555
Mg23 O9 2.139089 1_555
Mg23 O3 2.159412 1_555
Mg23 O25 2.167870 1_555
Mg24 O30 2.136272 1_555
Mg24 O0 2.139534 1_565
Mg24 O10 2.143278 1_555
Mg24 O11 2.143278 1_554
Mg24 O2 2.143576 1_555
Mg24 O26 2.157961 1_555
Mg25 O1 2.124317 1_565
Mg25 O31 2.128045 1_555
Mg25 O10 2.139089 1_555
Mg25 O11 2.139089 1_555
Mg25 O3 2.159412 1_555
Mg25 O27 2.167870 1_555
Mg26 O28 2.136272 1_555
Mg26 O4 2.139534 1_555
Mg26 O13 2.143278 1_554
Mg26 O12 2.143278 1_555
Mg26 O6 2.143576 1_555
Mg26 O24 2.157961 1_655
Mg27 O5 2.124317 1_555
Mg27 O29 2.128045 1_555
Mg27 O13 2.139089 1_555
Mg27 O12 2.139089 1_555
Mg27 O7 2.159412 1_555
Mg27 O25 2.167870 1_655
Mg28 O30 2.136272 1_555
Mg28 O4 2.139534 1_565
Mg28 O14 2.143278 1_555
Mg28 O15 2.143278 1_554
Mg28 O6 2.143576 1_555
Mg28 O26 2.157961 1_655
Mg29 O5 2.124317 1_565
Mg29 O31 2.128045 1_555
Mg29 O14 2.139089 1_555
Mg29 O15 2.139089 1_555
Mg29 O7 2.159412 1_555
Mg29 O27 2.167870 1_655
Nb0 O25 2.244768 1_555
Nb0 O18 2.244768 1_555
Nb0 O19 2.244768 1_555
Nb0 O27 2.244768 1_555
Nb0 O7 2.250931 1_455
Nb0 O3 2.250931 1_555
O0 Ti0 2.225230 1_555
O4 Ti0 2.225230 1_655
O16 Ti0 2.152851 1_555
O17 Ti0 2.152851 1_556
O24 Ti0 2.152851 1_555
O26 Ti0 2.152851 1_565
