# generated using pymatgen
data_Mg2Si
_symmetry_space_group_name_H-M   'P 1'
_cell_length_a   5.75696600
_cell_length_b   6.18694700
_cell_length_c   7.21347703
_cell_angle_alpha   74.10879162
_cell_angle_beta   90.00000000
_cell_angle_gamma   90.00000000
_symmetry_Int_Tables_number   1
_chemical_formula_structural   Mg2Si
_chemical_formula_sum   'Mg8 Si4'
_cell_volume   247.11093359
_cell_formula_units_Z   4
loop_
 _symmetry_equiv_pos_site_id
 _symmetry_equiv_pos_as_xyz
  1  'x, y, z'
loop_
 _atom_site_type_symbol
 _atom_site_label
 _atom_site_symmetry_multiplicity
 _atom_site_fract_x
 _atom_site_fract_y
 _atom_site_fract_z
 _atom_site_occupancy
  Mg  Mg0  1  0.88286800  0.38959800  0.05280100  1
  Mg  Mg1  1  0.30034500  0.31764100  0.37445500  1
  Mg  Mg2  1  0.30188500  0.75824800  0.49752100  1
  Mg  Mg3  1  0.40704400  0.05320400  0.08843700  1
  Mg  Mg4  1  0.80188500  0.24175200  0.50247900  1
  Mg  Mg5  1  0.90704400  0.94679600  0.91156300  1
  Mg  Mg6  1  0.38286800  0.61040200  0.94719900  1
  Mg  Mg7  1  0.80034500  0.68235900  0.62554500  1
  Si  Si0  1  0.16017700  0.34345900  0.73541000  1
  Si  Si1  1  0.66017700  0.65654100  0.26459000  1
  Si  Si2  1  0.94532600  0.96639400  0.28015300  1
  Si  Si3  1  0.44532600  0.03360600  0.71984700  1
loop_
_geom_bond_atom_site_label_1
_geom_bond_atom_site_label_2
_geom_bond_distance
_geom_bond_site_symmetry_2
Mg0 Si2 2.706115 1_545
Mg0 Si1 2.843757 1_555
Mg0 Si0 2.868771 1_654
Mg1 Si3 2.755827 1_555
Mg1 Si0 2.771984 1_555
Mg1 Si1 2.899268 1_555
Mg1 Si2 3.189371 1_445
Mg2 Si2 2.687890 1_455
Mg2 Si3 2.766308 1_565
Mg2 Si0 2.790055 1_555
Mg2 Si1 2.837747 1_555
Mg3 Si3 2.703538 1_554
Mg3 Si1 2.837839 1_545
Mg3 Si2 2.976525 1_445
Mg3 Si0 3.037317 1_554
Mg4 Si3 2.687890 1_555
Mg4 Si2 2.766308 1_545
Mg4 Si1 2.790055 1_555
Mg4 Si0 2.837747 1_655
Mg5 Si2 2.703538 1_556
Mg5 Si0 2.837839 1_665
Mg5 Si3 2.976525 1_565
Mg5 Si1 3.037317 1_556
Mg6 Si3 2.706115 1_565
Mg6 Si0 2.843757 1_555
Mg6 Si1 2.868771 1_556
Mg7 Si2 2.755827 1_555
Mg7 Si1 2.771984 1_555
Mg7 Si0 2.899268 1_655
Mg7 Si3 3.189371 1_565
Si0 Si3 2.549577 1_555
Si1 Si2 2.549577 1_555
