# generated using pymatgen
data_BaCaV2Ni3(HO5)2
_symmetry_space_group_name_H-M   'P 1'
_cell_length_a   5.98556200
_cell_length_b   6.29684092
_cell_length_c   8.12555771
_cell_angle_alpha   73.44475040
_cell_angle_beta   68.38814059
_cell_angle_gamma   61.62222686
_symmetry_Int_Tables_number   1
_chemical_formula_structural   BaCaV2Ni3(HO5)2
_chemical_formula_sum   'Ba1 Ca1 V2 Ni3 H2 O10'
_cell_volume   248.23872433
_cell_formula_units_Z   1
loop_
 _symmetry_equiv_pos_site_id
 _symmetry_equiv_pos_as_xyz
  1  'x, y, z'
loop_
 _atom_site_type_symbol
 _atom_site_label
 _atom_site_symmetry_multiplicity
 _atom_site_fract_x
 _atom_site_fract_y
 _atom_site_fract_z
 _atom_site_occupancy
  Ba  Ba0  1  0.00000000  0.50000000  0.50000000  1
  Ca  Ca0  1  0.50000000  0.00000000  0.00000000  1
  V  V0  1  0.58370300  0.17410400  0.65849000  1
  V  V1  1  0.41629700  0.82589600  0.34151000  1
  Ni  Ni0  1  0.00000000  0.00000000  0.00000000  1
  Ni  Ni1  1  0.00000000  0.50000000  0.00000000  1
  Ni  Ni2  1  0.50000000  0.50000000  0.00000000  1
  H  H0  1  0.25717200  0.72336400  0.76229100  1
  H  H1  1  0.74282800  0.27663600  0.23770900  1
  O  O0  1  0.24545500  0.23989900  0.79426500  1
  O  O1  1  0.72038100  0.23989900  0.79426500  1
  O  O2  1  0.75454500  0.76010100  0.20573500  1
  O  O3  1  0.27961900  0.76010100  0.20573500  1
  O  O4  1  0.71979300  0.86366200  0.69675200  1
  O  O5  1  0.28020700  0.13633800  0.30324800  1
  O  O6  1  0.36114900  0.71547400  0.56222800  1
  O  O7  1  0.63885100  0.28452600  0.43777200  1
  O  O8  1  0.19818400  0.70578900  0.89784200  1
  O  O9  1  0.80181600  0.29421100  0.10215800  1
loop_
_geom_bond_atom_site_label_1
_geom_bond_atom_site_label_2
_geom_bond_distance
_geom_bond_site_symmetry_2
Ba0 O4 2.659503 1_455
Ba0 O5 2.659503 1_555
Ba0 O3 2.937152 1_555
Ba0 O0 2.937152 1_555
Ba0 O2 2.937152 1_455
Ba0 O1 2.937152 1_455
Ba0 O6 3.279263 1_555
Ba0 O7 3.279263 1_555
Ba0 O7 3.279263 1_455
Ba0 O6 3.279263 1_455
Ca0 O1 2.376387 1_554
Ca0 O2 2.376387 1_545
Ca0 O0 2.376387 1_554
Ca0 O3 2.376387 1_545
Ca0 O5 2.506664 1_555
Ca0 O4 2.506664 1_544
Ni0 O9 1.894828 1_455
Ni0 O8 1.894828 1_544
Ni0 O0 2.469084 1_554
Ni0 O3 2.469084 1_545
Ni0 O1 2.469084 1_454
Ni0 O2 2.469084 1_445
Ni1 O9 1.974385 1_455
Ni1 O8 1.974385 1_554
Ni1 O2 2.258174 1_455
Ni1 O0 2.258174 1_554
Ni2 O9 1.974390 1_555
Ni2 O8 1.974390 1_554
Ni2 O3 2.258174 1_555
Ni2 O1 2.258174 1_554
H0 O8 1.015511 1_555
H0 O6 1.517833 1_555
H1 O9 1.015511 1_555
H1 O7 1.517833 1_555
O0 V0 1.818130 1_555
O1 V0 1.818130 1_555
O2 V1 1.818130 1_555
O3 V1 1.818130 1_555
O4 V0 1.705298 1_565
O5 V1 1.705298 1_545
O6 V1 1.697156 1_555
O7 V0 1.697156 1_555
