# generated using pymatgen
data_NaMg30CrO32
_symmetry_space_group_name_H-M   'P 1'
_cell_length_a   8.53048800
_cell_length_b   8.53048800
_cell_length_c   8.53839400
_cell_angle_alpha   90.00000000
_cell_angle_beta   90.00000000
_cell_angle_gamma   90.00000000
_symmetry_Int_Tables_number   1
_chemical_formula_structural   NaMg30CrO32
_chemical_formula_sum   'Na1 Mg30 Cr1 O32'
_cell_volume   621.33231855
_cell_formula_units_Z   1
loop_
 _symmetry_equiv_pos_site_id
 _symmetry_equiv_pos_as_xyz
  1  'x, y, z'
loop_
 _atom_site_type_symbol
 _atom_site_label
 _atom_site_symmetry_multiplicity
 _atom_site_fract_x
 _atom_site_fract_y
 _atom_site_fract_z
 _atom_site_occupancy
  Na  Na0  1  0.00000000  0.00000000  0.00000000  1
  Mg  Mg0  1  0.00000000  0.50000000  0.00000000  1
  Mg  Mg1  1  0.00000000  0.50000000  0.50000000  1
  Mg  Mg2  1  0.50000000  0.00000000  0.00000000  1
  Mg  Mg3  1  0.50000000  0.00000000  0.50000000  1
  Mg  Mg4  1  0.50000000  0.50000000  0.00000000  1
  Mg  Mg5  1  0.50000000  0.50000000  0.50000000  1
  Mg  Mg6  1  0.00000000  0.25027400  0.24612700  1
  Mg  Mg7  1  0.00000000  0.25027400  0.75387300  1
  Mg  Mg8  1  0.00000000  0.74972600  0.24612700  1
  Mg  Mg9  1  0.00000000  0.74972600  0.75387300  1
  Mg  Mg10  1  0.50000000  0.24990000  0.24873300  1
  Mg  Mg11  1  0.50000000  0.24990000  0.75126700  1
  Mg  Mg12  1  0.50000000  0.75010000  0.24873300  1
  Mg  Mg13  1  0.50000000  0.75010000  0.75126700  1
  Mg  Mg14  1  0.25027400  0.00000000  0.24612700  1
  Mg  Mg15  1  0.25027400  0.00000000  0.75387300  1
  Mg  Mg16  1  0.24990000  0.50000000  0.24873300  1
  Mg  Mg17  1  0.24990000  0.50000000  0.75126700  1
  Mg  Mg18  1  0.74972600  0.00000000  0.24612700  1
  Mg  Mg19  1  0.74972600  0.00000000  0.75387300  1
  Mg  Mg20  1  0.75010000  0.50000000  0.24873300  1
  Mg  Mg21  1  0.75010000  0.50000000  0.75126700  1
  Mg  Mg22  1  0.24884000  0.24884000  0.00000000  1
  Mg  Mg23  1  0.25092700  0.25092700  0.50000000  1
  Mg  Mg24  1  0.24884000  0.75116000  0.00000000  1
  Mg  Mg25  1  0.25092700  0.74907300  0.50000000  1
  Mg  Mg26  1  0.75116000  0.24884000  0.00000000  1
  Mg  Mg27  1  0.74907300  0.25092700  0.50000000  1
  Mg  Mg28  1  0.75116000  0.75116000  0.00000000  1
  Mg  Mg29  1  0.74907300  0.74907300  0.50000000  1
  Cr  Cr0  1  0.00000000  0.00000000  0.50000000  1
  O  O0  1  0.26230000  0.00000000  0.00000000  1
  O  O1  1  0.24355000  0.00000000  0.50000000  1
  O  O2  1  0.25186600  0.50000000  0.00000000  1
  O  O3  1  0.24875900  0.50000000  0.50000000  1
  O  O4  1  0.73770000  0.00000000  0.00000000  1
  O  O5  1  0.75645000  0.00000000  0.50000000  1
  O  O6  1  0.74813400  0.50000000  0.00000000  1
  O  O7  1  0.75124100  0.50000000  0.50000000  1
  O  O8  1  0.24950900  0.24950900  0.25093200  1
  O  O9  1  0.24950900  0.24950900  0.74906800  1
  O  O10  1  0.24950900  0.75049100  0.25093200  1
  O  O11  1  0.24950900  0.75049100  0.74906800  1
  O  O12  1  0.75049100  0.24950900  0.25093200  1
  O  O13  1  0.75049100  0.24950900  0.74906800  1
  O  O14  1  0.75049100  0.75049100  0.25093200  1
  O  O15  1  0.75049100  0.75049100  0.74906800  1
  O  O16  1  0.00000000  0.00000000  0.26592000  1
  O  O17  1  0.00000000  0.00000000  0.73408000  1
  O  O18  1  0.00000000  0.50000000  0.25469600  1
  O  O19  1  0.00000000  0.50000000  0.74530400  1
  O  O20  1  0.50000000  0.00000000  0.25469600  1
  O  O21  1  0.50000000  0.00000000  0.74530400  1
  O  O22  1  0.50000000  0.50000000  0.25153800  1
  O  O23  1  0.50000000  0.50000000  0.74846200  1
  O  O24  1  0.00000000  0.26230000  0.00000000  1
  O  O25  1  0.00000000  0.24355000  0.50000000  1
  O  O26  1  0.00000000  0.73770000  0.00000000  1
  O  O27  1  0.00000000  0.75645000  0.50000000  1
  O  O28  1  0.50000000  0.25186600  0.00000000  1
  O  O29  1  0.50000000  0.24875900  0.50000000  1
  O  O30  1  0.50000000  0.74813400  0.00000000  1
  O  O31  1  0.50000000  0.75124100  0.50000000  1
loop_
_geom_bond_atom_site_label_1
_geom_bond_atom_site_label_2
_geom_bond_distance
_geom_bond_site_symmetry_2
Na0 O26 2.237547 1_545
Na0 O4 2.237547 1_455
Na0 O0 2.237547 1_555
Na0 O24 2.237547 1_555
Na0 O17 2.270530 1_554
Na0 O16 2.270530 1_555
Mg0 O24 2.027697 1_555
Mg0 O26 2.027697 1_555
Mg0 O2 2.148540 1_555
Mg0 O6 2.148540 1_455
Mg0 O18 2.174695 1_555
Mg0 O19 2.174695 1_554
Mg1 O19 2.094502 1_555
Mg1 O18 2.094502 1_555
Mg1 O3 2.122036 1_555
Mg1 O7 2.122036 1_455
Mg1 O25 2.187644 1_555
Mg1 O27 2.187644 1_555
Mg2 O0 2.027697 1_555
Mg2 O4 2.027697 1_555
Mg2 O28 2.148540 1_555
Mg2 O30 2.148540 1_545
Mg2 O20 2.174695 1_555
Mg2 O21 2.174695 1_554
Mg3 O21 2.094502 1_555
Mg3 O20 2.094502 1_555
Mg3 O29 2.122036 1_555
Mg3 O31 2.122036 1_545
Mg3 O1 2.187644 1_555
Mg3 O5 2.187644 1_555
Mg4 O30 2.116704 1_555
Mg4 O6 2.116704 1_555
Mg4 O28 2.116704 1_555
Mg4 O2 2.116704 1_555
Mg4 O22 2.147731 1_555
Mg4 O23 2.147731 1_554
Mg5 O23 2.121466 1_555
Mg5 O22 2.121466 1_555
Mg5 O7 2.143208 1_555
Mg5 O31 2.143208 1_555
Mg5 O29 2.143208 1_555
Mg5 O3 2.143208 1_555
Mg6 O24 2.104032 1_555
Mg6 O8 2.128839 1_555
Mg6 O12 2.128839 1_455
Mg6 O18 2.131541 1_555
Mg6 O16 2.141638 1_555
Mg6 O25 2.168426 1_555
Mg7 O24 2.104032 1_556
Mg7 O9 2.128839 1_555
Mg7 O13 2.128839 1_455
Mg7 O19 2.131541 1_555
Mg7 O17 2.141638 1_555
Mg7 O25 2.168426 1_555
Mg8 O26 2.104032 1_555
Mg8 O10 2.128839 1_555
Mg8 O14 2.128839 1_455
Mg8 O18 2.131541 1_555
Mg8 O16 2.141638 1_565
Mg8 O27 2.168426 1_555
Mg9 O26 2.104032 1_556
Mg9 O11 2.128839 1_555
Mg9 O15 2.128839 1_455
Mg9 O19 2.131541 1_555
Mg9 O17 2.141638 1_565
Mg9 O27 2.168426 1_555
Mg10 O28 2.123847 1_555
Mg10 O20 2.132377 1_555
Mg10 O22 2.133609 1_555
Mg10 O12 2.136896 1_555
Mg10 O8 2.136896 1_555
Mg10 O29 2.145439 1_555
Mg11 O28 2.123847 1_556
Mg11 O21 2.132377 1_555
Mg11 O23 2.133609 1_555
Mg11 O13 2.136896 1_555
Mg11 O9 2.136896 1_555
Mg11 O29 2.145439 1_555
Mg12 O30 2.123847 1_555
Mg12 O20 2.132377 1_565
Mg12 O22 2.133609 1_555
Mg12 O14 2.136896 1_555
Mg12 O10 2.136896 1_555
Mg12 O31 2.145439 1_555
Mg13 O30 2.123847 1_556
Mg13 O21 2.132377 1_565
Mg13 O23 2.133609 1_555
Mg13 O15 2.136896 1_555
Mg13 O11 2.136896 1_555
Mg13 O31 2.145439 1_555
Mg14 O0 2.104032 1_555
Mg14 O8 2.128839 1_555
Mg14 O10 2.128839 1_545
Mg14 O20 2.131541 1_555
Mg14 O16 2.141638 1_555
Mg14 O1 2.168426 1_555
Mg15 O0 2.104032 1_556
Mg15 O9 2.128839 1_555
Mg15 O11 2.128839 1_545
Mg15 O21 2.131541 1_555
Mg15 O17 2.141638 1_555
Mg15 O1 2.168426 1_555
Mg16 O2 2.123847 1_555
Mg16 O18 2.132377 1_555
Mg16 O22 2.133609 1_555
Mg16 O10 2.136896 1_555
Mg16 O8 2.136896 1_555
Mg16 O3 2.145439 1_555
Mg17 O2 2.123847 1_556
Mg17 O19 2.132377 1_555
Mg17 O23 2.133609 1_555
Mg17 O11 2.136896 1_555
Mg17 O9 2.136896 1_555
Mg17 O3 2.145439 1_555
Mg18 O4 2.104032 1_555
Mg18 O12 2.128839 1_555
Mg18 O14 2.128839 1_545
Mg18 O20 2.131541 1_555
Mg18 O16 2.141638 1_655
Mg18 O5 2.168426 1_555
Mg19 O4 2.104032 1_556
Mg19 O13 2.128839 1_555
Mg19 O15 2.128839 1_545
Mg19 O21 2.131541 1_555
Mg19 O17 2.141638 1_655
Mg19 O5 2.168426 1_555
Mg20 O6 2.123847 1_555
Mg20 O18 2.132377 1_655
Mg20 O22 2.133609 1_555
Mg20 O14 2.136896 1_555
Mg20 O12 2.136896 1_555
Mg20 O7 2.145439 1_555
Mg21 O6 2.123847 1_556
Mg21 O19 2.132377 1_655
Mg21 O23 2.133609 1_555
Mg21 O15 2.136896 1_555
Mg21 O13 2.136896 1_555
Mg21 O7 2.145439 1_555
Mg22 O0 2.125830 1_555
Mg22 O24 2.125830 1_555
Mg22 O8 2.142571 1_555
Mg22 O9 2.142571 1_554
Mg22 O2 2.142673 1_555
Mg22 O28 2.142673 1_555
Mg23 O29 2.124795 1_555
Mg23 O3 2.124795 1_555
Mg23 O9 2.126710 1_555
Mg23 O8 2.126710 1_555
Mg23 O25 2.141455 1_555
Mg23 O1 2.141455 1_555
Mg24 O0 2.125830 1_565
Mg24 O26 2.125830 1_555
Mg24 O10 2.142571 1_555
Mg24 O11 2.142571 1_554
Mg24 O30 2.142673 1_555
Mg24 O2 2.142673 1_555
Mg25 O31 2.124795 1_555
Mg25 O3 2.124795 1_555
Mg25 O11 2.126710 1_555
Mg25 O10 2.126710 1_555
Mg25 O27 2.141455 1_555
Mg25 O1 2.141455 1_565
Mg26 O24 2.125830 1_655
Mg26 O4 2.125830 1_555
Mg26 O12 2.142571 1_555
Mg26 O13 2.142571 1_554
Mg26 O6 2.142673 1_555
Mg26 O28 2.142673 1_555
Mg27 O7 2.124795 1_555
Mg27 O29 2.124795 1_555
Mg27 O13 2.126710 1_555
Mg27 O12 2.126710 1_555
Mg27 O5 2.141455 1_555
Mg27 O25 2.141455 1_655
Mg28 O26 2.125830 1_655
Mg28 O4 2.125830 1_565
Mg28 O14 2.142571 1_555
Mg28 O15 2.142571 1_554
Mg28 O30 2.142673 1_555
Mg28 O6 2.142673 1_555
Mg29 O7 2.124795 1_555
Mg29 O31 2.124795 1_555
Mg29 O15 2.126710 1_555
Mg29 O14 2.126710 1_555
Mg29 O27 2.141455 1_655
Mg29 O5 2.141455 1_565
Cr0 O16 1.998667 1_555
Cr0 O17 1.998667 1_555
Cr0 O5 2.077600 1_455
Cr0 O27 2.077600 1_545
Cr0 O25 2.077600 1_555
Cr0 O1 2.077600 1_555
