# generated using pymatgen
data_Ho6Ni2Sn
_symmetry_space_group_name_H-M   'P 1'
_cell_length_a   8.36168834
_cell_length_b   8.36168834
_cell_length_c   8.36168834
_cell_angle_alpha   112.18701813
_cell_angle_beta   110.04185965
_cell_angle_gamma   106.24005807
_symmetry_Int_Tables_number   1
_chemical_formula_structural   Ho6Ni2Sn
_chemical_formula_sum   'Ho12 Ni4 Sn2'
_cell_volume   448.81625968
_cell_formula_units_Z   2
loop_
 _symmetry_equiv_pos_site_id
 _symmetry_equiv_pos_as_xyz
  1  'x, y, z'
loop_
 _atom_site_type_symbol
 _atom_site_label
 _atom_site_symmetry_multiplicity
 _atom_site_fract_x
 _atom_site_fract_y
 _atom_site_fract_z
 _atom_site_occupancy
  Ho  Ho0  1  0.44027300  0.23421700  0.20605500  1
  Ho  Ho1  1  0.55972700  0.76578300  0.79394500  1
  Ho  Ho2  1  0.02816200  0.23421700  0.79394500  1
  Ho  Ho3  1  0.97183800  0.76578300  0.20605500  1
  Ho  Ho4  1  0.18392600  0.28800700  0.47193300  1
  Ho  Ho5  1  0.81607400  0.71199300  0.52806700  1
  Ho  Ho6  1  0.18392600  0.71199300  0.89592000  1
  Ho  Ho7  1  0.81607400  0.28800700  0.10408000  1
  Ho  Ho8  1  0.32184200  0.62956800  0.30772600  1
  Ho  Ho9  1  0.67815800  0.37043200  0.69227400  1
  Ho  Ho10  1  0.32184200  0.01411600  0.69227400  1
  Ho  Ho11  1  0.67815800  0.98588400  0.30772600  1
  Ni  Ni0  1  0.35756300  0.00000000  0.35756300  1
  Ni  Ni1  1  0.64243700  0.00000000  0.64243700  1
  Ni  Ni2  1  0.12036300  0.62036300  0.50000000  1
  Ni  Ni3  1  0.87963700  0.37963700  0.50000000  1
  Sn  Sn0  1  0.50000000  0.50000000  0.00000000  1
  Sn  Sn1  1  0.00000000  0.00000000  0.00000000  1
loop_
_geom_bond_atom_site_label_1
_geom_bond_atom_site_label_2
_geom_bond_distance
_geom_bond_site_symmetry_2
Ho0 Ni0 2.763257 1_555
Ho0 Sn1 3.070553 1_555
Ho0 Ni3 3.173593 1_555
Ho0 Sn0 3.319344 1_555
Ho1 Ni1 2.763257 1_565
Ho1 Sn1 3.070553 1_666
Ho1 Ni2 3.173593 1_555
Ho1 Sn0 3.319344 1_556
Ho2 Ni1 2.763255 1_455
Ho2 Sn1 3.070546 1_556
Ho2 Ni3 3.173600 1_455
Ho2 Sn0 3.319346 1_556
Ho3 Ni0 2.763255 1_665
Ho3 Sn1 3.070546 1_665
Ho3 Ni2 3.173600 1_655
Ho3 Sn0 3.319346 1_555
Ho4 Ni2 2.912006 1_555
Ho4 Ni3 2.912006 1_455
Ho4 Ni0 3.160708 1_555
Ho4 Sn1 3.213755 1_555
Ho4 Sn0 3.618502 1_556
Ho5 Ni3 2.912006 1_555
Ho5 Ni2 2.912006 1_655
Ho5 Ni1 3.160708 1_565
Ho5 Sn1 3.213755 1_666
Ho5 Sn0 3.618502 1_555
Ho6 Ni3 2.912010 1_455
Ho6 Ni2 2.912015 1_555
Ho6 Ni0 3.160702 1_566
Ho6 Sn1 3.213754 1_566
Ho6 Sn0 3.618501 1_556
Ho7 Ni2 2.912010 1_655
Ho7 Ni3 2.912015 1_555
Ho7 Ni1 3.160702 1_554
Ho7 Sn1 3.213754 1_655
Ho7 Sn0 3.618501 1_555
Ho8 Ni2 2.703032 1_555
Ho8 Ni0 2.877384 1_565
Ho8 Ni1 2.877384 1_565
Ho8 Sn0 3.382076 1_555
Ho9 Ni3 2.703032 1_555
Ho9 Ni0 2.877384 1_555
Ho9 Ni1 2.877384 1_555
Ho9 Sn0 3.382076 1_556
Ho10 Ni2 2.703032 1_545
Ho10 Ni0 2.877384 1_555
Ho10 Ni1 2.877384 1_555
Ho10 Sn0 3.382076 1_556
Ho11 Ni3 2.703032 1_565
Ho11 Ni1 2.877384 1_565
Ho11 Ni0 2.877384 1_565
Ho11 Sn0 3.382076 1_555
Ni0 Ni1 2.731124 1_555
Ni2 Ni3 2.416017 1_455
