# generated using pymatgen
data_NaNi2(MoO5)2
_symmetry_space_group_name_H-M   'P 1'
_cell_length_a   5.76876049
_cell_length_b   5.76876049
_cell_length_c   7.89265211
_cell_angle_alpha   65.41168125
_cell_angle_beta   65.41168125
_cell_angle_gamma   61.88251296
_symmetry_Int_Tables_number   1
_chemical_formula_structural   NaNi2(MoO5)2
_chemical_formula_sum   'Na1 Ni2 Mo2 O10'
_cell_volume   202.57164239
_cell_formula_units_Z   1
loop_
 _symmetry_equiv_pos_site_id
 _symmetry_equiv_pos_as_xyz
  1  'x, y, z'
loop_
 _atom_site_type_symbol
 _atom_site_label
 _atom_site_symmetry_multiplicity
 _atom_site_fract_x
 _atom_site_fract_y
 _atom_site_fract_z
 _atom_site_occupancy
  Na  Na0  1  0.00000000  0.00000000  0.00000000  1
  Ni  Ni0  1  0.50000000  0.00000000  0.50000000  1
  Ni  Ni1  1  0.00000000  0.50000000  0.50000000  1
  Mo  Mo0  1  0.42570200  0.42570200  0.77293300  1
  Mo  Mo1  1  0.57429800  0.57429800  0.22706700  1
  O  O0  1  0.72117800  0.72117800  0.98818400  1
  O  O1  1  0.27882200  0.27882200  0.01181600  1
  O  O2  1  0.33268400  0.33268400  0.61661200  1
  O  O3  1  0.66731600  0.66731600  0.38338800  1
  O  O4  1  0.29701400  0.79133200  0.73997000  1
  O  O5  1  0.70298600  0.20866800  0.26003000  1
  O  O6  1  0.20866800  0.70298600  0.26003000  1
  O  O7  1  0.79133200  0.29701400  0.73997000  1
  O  O8  1  0.19322200  0.19322200  0.41569700  1
  O  O9  1  0.80677800  0.80677800  0.58430300  1
loop_
_geom_bond_atom_site_label_1
_geom_bond_atom_site_label_2
_geom_bond_distance
_geom_bond_site_symmetry_2
Na0 O6 2.404647 1_545
Na0 O5 2.404647 1_455
Na0 O4 2.404647 1_544
Na0 O7 2.404647 1_454
Na0 O0 2.805560 1_444
Na0 O1 2.805560 1_555
Ni0 O9 1.822227 1_545
Ni0 O8 1.822227 1_555
Ni0 O5 1.998269 1_555
Ni0 O4 1.998269 1_545
Ni0 O2 2.108701 1_555
Ni0 O3 2.108701 1_545
Ni1 O9 1.822227 1_455
Ni1 O8 1.822227 1_555
Ni1 O6 1.998269 1_555
Ni1 O7 1.998269 1_455
Ni1 O2 2.108701 1_555
Ni1 O3 2.108701 1_455
Mo0 O1 1.734496 1_556
Mo0 O7 1.815442 1_555
Mo0 O4 1.815442 1_555
Mo0 O2 1.863171 1_555
Mo1 O0 1.734496 1_554
Mo1 O5 1.815442 1_555
Mo1 O6 1.815442 1_555
Mo1 O3 1.863171 1_555
