# generated using pymatgen
data_CaLaVCrO6
_symmetry_space_group_name_H-M   'P 1'
_cell_length_a   5.45520451
_cell_length_b   5.52810852
_cell_length_c   7.81994610
_cell_angle_alpha   90.03894040
_cell_angle_beta   90.35038841
_cell_angle_gamma   90.03047964
_symmetry_Int_Tables_number   1
_chemical_formula_structural   CaLaVCrO6
_chemical_formula_sum   'Ca2 La2 V2 Cr2 O12'
_cell_volume   235.82132345
_cell_formula_units_Z   2
loop_
 _symmetry_equiv_pos_site_id
 _symmetry_equiv_pos_as_xyz
  1  'x, y, z'
loop_
 _atom_site_type_symbol
 _atom_site_label
 _atom_site_symmetry_multiplicity
 _atom_site_fract_x
 _atom_site_fract_y
 _atom_site_fract_z
 _atom_site_occupancy
  Ca  Ca0  1  0.49085500  0.45791000  0.75045100  1
  Ca  Ca1  1  0.99114500  0.04202100  0.25040200  1
  La  La0  1  0.00538300  0.96677300  0.74901500  1
  La  La1  1  0.50567500  0.53345700  0.24888500  1
  V  V0  1  0.00018300  0.49916200  0.50080600  1
  V  V1  1  0.50034100  0.00101900  0.00069500  1
  Cr  Cr0  1  0.50052100  0.99955400  0.49917000  1
  Cr  Cr1  1  0.00018700  0.50051500  0.99923000  1
  O  O0  1  0.07379000  0.47786800  0.25179600  1
  O  O1  1  0.57429900  0.02306100  0.75198500  1
  O  O2  1  0.22569900  0.21132300  0.96333000  1
  O  O3  1  0.72588700  0.28940500  0.46392400  1
  O  O4  1  0.21505500  0.21581700  0.54221800  1
  O  O5  1  0.71444400  0.28428000  0.04316500  1
  O  O6  1  0.29121000  0.71394000  0.95437700  1
  O  O7  1  0.79056500  0.78613400  0.45531300  1
  O  O8  1  0.27905600  0.70463700  0.53911200  1
  O  O9  1  0.77914500  0.79451200  0.03967600  1
  O  O10  1  0.41795600  0.97957600  0.24803200  1
  O  O11  1  0.91859600  0.51903600  0.74841900  1
loop_
_geom_bond_atom_site_label_1
_geom_bond_atom_site_label_2
_geom_bond_distance
_geom_bond_site_symmetry_2
Ca0 O11 2.357728 1_555
Ca0 O6 2.398385 1_555
Ca0 O8 2.430627 1_555
Ca0 O1 2.446874 1_555
Ca0 O4 2.582880 1_555
Ca0 O2 2.598496 1_555
Ca0 O3 2.750563 1_555
Ca0 O5 2.760194 1_556
Ca1 O10 2.354157 1_645
Ca1 O7 2.406000 1_545
Ca1 O9 2.428380 1_545
Ca1 O0 2.450996 1_655
Ca1 O5 2.583309 1_555
Ca1 O3 2.603978 1_555
Ca1 O4 2.753943 1_655
Ca1 O2 2.754887 1_654
La0 O1 2.372565 1_465
La0 O4 2.417194 1_565
La0 O2 2.459964 1_565
La0 O11 2.519760 1_455
La0 O6 2.634103 1_555
La0 O8 2.655588 1_555
La0 O7 2.758294 1_455
La0 O9 2.762669 1_456
La1 O0 2.376065 1_555
La1 O5 2.409052 1_555
La1 O3 2.463976 1_555
La1 O10 2.512446 1_555
La1 O7 2.633670 1_555
La1 O9 2.648679 1_555
La1 O8 2.758143 1_555
La1 O6 2.763989 1_554
Cr0 O4 1.993879 1_565
Cr0 O7 2.005282 1_555
Cr0 O10 2.015129 1_555
Cr0 O1 2.019223 1_565
Cr0 O3 2.039004 1_565
Cr0 O8 2.053863 1_555
Cr1 O5 1.995468 1_456
Cr1 O6 2.010189 1_555
Cr1 O11 2.011230 1_455
Cr1 O0 2.017031 1_556
Cr1 O2 2.038072 1_555
Cr1 O9 2.049766 1_456
O0 V0 1.994030 1_555
O1 V1 1.992517 1_556
O2 V1 1.917974 1_556
O3 V0 1.912908 1_655
O4 V0 1.982510 1_555
O5 V1 1.979673 1_555
O6 V1 1.985839 1_566
O7 V0 1.987108 1_655
O8 V0 1.920021 1_555
O9 V1 1.925108 1_565
O10 V1 1.991960 1_565
O11 V0 1.992436 1_655
