# generated using pymatgen
data_Tb3(VFe8)4
_symmetry_space_group_name_H-M   'P 1'
_cell_length_a   4.66523600
_cell_length_b   6.43219183
_cell_length_c   18.11719486
_cell_angle_alpha   92.91211571
_cell_angle_beta   82.60254143
_cell_angle_gamma   111.26287461
_symmetry_Int_Tables_number   1
_chemical_formula_structural   Tb3(VFe8)4
_chemical_formula_sum   'Tb3 V4 Fe32'
_cell_volume   502.42479494
_cell_formula_units_Z   1
loop_
 _symmetry_equiv_pos_site_id
 _symmetry_equiv_pos_as_xyz
  1  'x, y, z'
loop_
 _atom_site_type_symbol
 _atom_site_label
 _atom_site_symmetry_multiplicity
 _atom_site_fract_x
 _atom_site_fract_y
 _atom_site_fract_z
 _atom_site_occupancy
  Tb  Tb0  1  0.99985400  0.99995700  0.00024800  1
  Tb  Tb1  1  0.32958100  0.99423200  0.33506900  1
  Tb  Tb2  1  0.66311700  0.99464900  0.66841500  1
  V  V0  1  0.57228700  0.35790200  0.21332800  1
  V  V1  1  0.91329700  0.37005800  0.54346500  1
  V  V2  1  0.24686900  0.37022300  0.87648500  1
  V  V3  1  0.76066800  0.64140400  0.12006800  1
  Fe  Fe0  1  0.34856700  0.77272000  0.07558700  1
  Fe  Fe1  1  0.68093100  0.77172600  0.40986300  1
  Fe  Fe2  1  0.01378700  0.77044100  0.74286800  1
  Fe  Fe3  1  0.98539200  0.22811100  0.25732600  1
  Fe  Fe4  1  0.31913900  0.22866100  0.59038400  1
  Fe  Fe5  1  0.65226000  0.22836900  0.92384900  1
  Fe  Fe6  1  0.75850100  0.77484300  0.25783900  1
  Fe  Fe7  1  0.09193100  0.77552200  0.59166100  1
  Fe  Fe8  1  0.42499500  0.77514800  0.92515800  1
  Fe  Fe9  1  0.57503200  0.22532900  0.07526500  1
  Fe  Fe10  1  0.90857600  0.22529800  0.40814600  1
  Fe  Fe11  1  0.24218400  0.22571200  0.74134400  1
  Fe  Fe12  1  0.16720500  0.00015300  0.16677800  1
  Fe  Fe13  1  0.49965800  0.99940900  0.50039400  1
  Fe  Fe14  1  0.83244200  0.99900700  0.83362700  1
  Fe  Fe15  1  0.66617100  0.00015300  0.16677800  1
  Fe  Fe16  1  0.99935600  0.99940900  0.50039400  1
  Fe  Fe17  1  0.33293600  0.99900700  0.83362700  1
  Fe  Fe18  1  0.33380800  0.50006700  0.33335600  1
  Fe  Fe19  1  0.66593600  0.49892200  0.66691000  1
  Fe  Fe20  1  0.99934400  0.49923300  0.00005600  1
  Fe  Fe21  1  0.83290100  0.50006700  0.33335600  1
  Fe  Fe22  1  0.16607700  0.49892200  0.66691000  1
  Fe  Fe23  1  0.49983300  0.49923300  0.00005600  1
  Fe  Fe24  1  0.09097100  0.63655300  0.45461000  1
  Fe  Fe25  1  0.42419500  0.63629900  0.78791000  1
  Fe  Fe26  1  0.11953300  0.35865200  0.11958500  1
  Fe  Fe27  1  0.45361000  0.35991200  0.45269200  1
  Fe  Fe28  1  0.78695100  0.35994600  0.78604600  1
  Fe  Fe29  1  0.21409500  0.64162200  0.21343100  1
  Fe  Fe30  1  0.54754200  0.64193300  0.54685000  1
  Fe  Fe31  1  0.88046600  0.64119800  0.88026600  1
loop_
_geom_bond_atom_site_label_1
_geom_bond_atom_site_label_2
_geom_bond_distance
_geom_bond_site_symmetry_2
Tb0 V3 3.048749 1_555
Tb0 V2 3.148711 1_664
Tb1 V0 3.094949 1_565
Tb2 V1 3.185673 1_565
V0 V3 2.391814 1_555
Fe0 Fe23 2.423257 1_555
Fe0 Fe20 2.423259 1_455
Fe0 Fe12 2.424388 1_565
Fe0 Fe15 2.424388 1_565
Fe0 V3 2.589395 1_555
Fe0 V3 2.589399 1_455
Fe0 Fe29 2.601582 1_555
Fe0 Fe26 2.608247 1_555
Fe0 Fe8 2.702772 1_554
Fe0 Fe9 2.713119 1_565
Fe0 Tb0 3.024079 1_555
Fe0 Tb0 3.024087 1_455
Fe1 Fe16 2.418084 1_555
Fe1 Fe13 2.418084 1_555
Fe1 Fe21 2.424160 1_555
Fe1 Fe18 2.424162 1_555
Fe1 Fe30 2.584509 1_555
Fe1 Fe27 2.588966 1_555
Fe1 Fe24 2.598032 1_555
Fe1 Fe24 2.598032 1_655
Fe1 Fe10 2.719172 1_565
Fe1 Fe6 2.731472 1_555
Fe1 Tb1 3.006951 1_655
Fe1 Tb1 3.006951 1_555
Fe2 Fe22 2.419227 1_555
Fe2 Fe28 2.583320 1_455
Fe2 Fe31 2.590550 1_455
Fe2 Fe25 2.597756 1_455
Fe2 Fe25 2.597756 1_555
Fe2 Fe7 2.716952 1_555
Fe2 Tb2 3.008768 1_555
Fe2 Tb2 3.008772 1_455
Fe3 V0 2.583938 1_555
Fe3 V0 2.583942 1_655
Fe3 Fe6 2.717094 1_545
Fe3 Tb1 3.061852 1_545
Fe3 Tb1 3.061852 1_645
Fe4 V1 2.622298 1_555
Fe4 V1 2.622298 1_455
Fe4 Fe7 2.716463 1_545
Fe4 Tb2 3.064591 1_545
Fe4 Tb2 3.064595 1_445
Fe5 V2 2.625781 1_655
Fe5 V2 2.625781 1_555
Fe5 Fe8 2.716962 1_545
Fe5 Fe9 2.720543 1_556
Fe5 Tb0 3.035876 1_546
Fe5 Tb0 3.035879 1_446
Fe6 V3 2.597892 1_555
Fe6 V0 2.620714 1_555
Fe6 Tb1 3.013237 1_555
Fe6 Tb1 3.013241 1_655
Fe7 V1 2.576494 1_455
Fe7 Tb2 3.008643 1_555
Fe7 Tb2 3.008646 1_455
Fe8 V2 2.576312 1_555
Fe8 Tb0 3.010141 1_556
Fe8 Tb0 3.010144 1_456
Fe9 V0 2.601315 1_555
Fe9 V3 2.617358 1_555
Fe9 Tb0 3.011062 1_545
Fe9 Tb0 3.011065 1_445
Fe10 Fe18 2.429660 1_655
Fe10 Fe21 2.429664 1_555
Fe10 Fe16 2.441090 1_545
Fe10 Fe13 2.441092 1_545
Fe10 V1 2.577772 1_555
Fe10 Fe27 2.593648 1_555
Fe10 Fe27 2.593648 1_655
Fe10 Fe24 2.599185 1_655
Fe10 Fe3 2.709820 1_555
Fe10 Tb1 3.011173 1_645
Fe10 Tb1 3.011176 1_545
Fe11 Fe22 2.418573 1_555
Fe11 Fe19 2.418575 1_555
Fe11 Fe17 2.445134 1_545
Fe11 Fe14 2.445139 1_445
Fe11 V2 2.574264 1_555
Fe11 Fe28 2.593802 1_455
Fe11 Fe28 2.593810 1_555
Fe11 Fe25 2.595975 1_555
Fe11 Fe4 2.712344 1_555
Fe11 Fe2 2.729304 1_545
Fe11 Tb2 3.010013 1_445
Fe11 Tb2 3.010013 1_545
Fe12 Fe15 2.327794 1_555
Fe12 Fe15 2.337442 1_455
Fe12 Fe3 2.420720 1_455
Fe12 Fe6 2.426167 1_445
Fe12 Fe9 2.428902 1_555
Fe12 V0 2.576214 1_555
Fe12 V3 2.584299 1_445
Fe12 Fe29 2.586908 1_545
Fe12 Fe26 2.592120 1_555
Fe12 Tb0 3.212106 1_445
Fe12 Tb1 3.240204 1_545
Fe13 Fe16 2.331209 1_555
Fe13 Fe16 2.334027 1_455
Fe13 Fe4 2.417566 1_565
Fe13 Fe7 2.423086 1_555
Fe13 Fe30 2.581262 1_555
Fe13 Fe24 2.598767 1_555
Fe13 Fe27 2.604364 1_565
Fe13 V1 2.622693 1_565
Fe13 Tb1 3.191351 1_555
Fe13 Tb2 3.236197 1_555
Fe14 Fe17 2.330313 1_555
Fe14 Fe17 2.334923 1_655
Fe14 Fe5 2.419823 1_565
Fe14 Fe2 2.424700 1_655
Fe14 Fe8 2.425324 1_555
Fe14 Fe31 2.584837 1_555
Fe14 Fe25 2.596813 1_555
Fe14 Fe28 2.604981 1_565
Fe14 V2 2.625283 1_665
Fe14 Tb2 3.188757 1_555
Fe14 Tb0 3.213156 1_556
Fe15 Fe3 2.420715 1_555
Fe15 Fe6 2.426160 1_545
Fe15 Fe9 2.428905 1_555
Fe15 V0 2.576216 1_555
Fe15 V3 2.584297 1_545
Fe15 Fe29 2.586912 1_545
Fe15 Fe26 2.592116 1_655
Fe15 Tb0 3.212103 1_545
Fe15 Tb1 3.240207 1_545
Fe16 Fe4 2.417570 1_665
Fe16 Fe7 2.423091 1_655
Fe16 Fe30 2.581258 1_555
Fe16 Fe24 2.598767 1_655
Fe16 Fe27 2.604366 1_665
Fe16 V1 2.622689 1_565
Fe16 Tb1 3.191351 1_655
Fe16 Tb2 3.236195 1_555
Fe17 Fe5 2.419827 1_565
Fe17 Fe2 2.424693 1_555
Fe17 Fe8 2.425329 1_555
Fe17 Fe31 2.584833 1_455
Fe17 Fe25 2.596819 1_555
Fe17 Fe28 2.604989 1_565
Fe17 V2 2.625278 1_565
Fe17 Tb2 3.188760 1_555
Fe17 Tb0 3.213155 1_456
Fe18 Fe21 2.328387 1_555
Fe18 Fe21 2.336849 1_455
Fe18 Fe3 2.422569 1_455
Fe18 Fe6 2.434952 1_555
Fe18 Fe27 2.583431 1_555
Fe18 V0 2.591445 1_555
Fe18 Fe29 2.596897 1_555
Fe18 Fe24 2.600877 1_555
Fe18 Tb1 3.184321 1_555
Fe18 Tb1 3.248232 1_545
Fe19 Fe22 2.331960 1_555
Fe19 Fe22 2.333276 1_655
Fe19 Fe2 2.419227 1_655
Fe19 Fe4 2.419615 1_555
Fe19 Fe7 2.440869 1_655
Fe19 Fe28 2.579230 1_555
Fe19 Fe25 2.597632 1_555
Fe19 Fe30 2.600712 1_555
Fe19 V1 2.619426 1_555
Fe19 Tb2 3.192122 1_555
Fe19 Tb2 3.240322 1_545
Fe20 Fe23 2.330337 1_555
Fe20 Fe23 2.334899 1_655
Fe20 Fe5 2.418404 1_554
Fe20 Fe9 2.428773 1_555
Fe20 Fe8 2.434951 1_654
Fe20 Fe26 2.588619 1_655
Fe20 V3 2.591654 1_555
Fe20 Fe31 2.594232 1_554
Fe20 V2 2.621957 1_654
Fe20 Tb0 3.212481 1_545
Fe20 Tb0 3.219716 1_555
Fe21 Fe3 2.422571 1_555
Fe21 Fe6 2.434952 1_555
Fe21 Fe27 2.583427 1_555
Fe21 V0 2.591441 1_555
Fe21 Fe29 2.596899 1_655
Fe21 Fe24 2.600879 1_655
Fe21 Tb1 3.184323 1_655
Fe21 Tb1 3.248230 1_545
Fe22 Fe4 2.419615 1_555
Fe22 Fe7 2.440869 1_555
Fe22 Fe28 2.579228 1_455
Fe22 Fe25 2.597632 1_555
Fe22 Fe30 2.600712 1_555
Fe22 V1 2.619426 1_455
Fe22 Tb2 3.192121 1_555
Fe22 Tb2 3.240324 1_445
Fe23 Fe5 2.418404 1_554
Fe23 Fe9 2.428773 1_555
Fe23 Fe8 2.434951 1_554
Fe23 Fe26 2.588621 1_555
Fe23 V3 2.591654 1_555
Fe23 Fe31 2.594232 1_554
Fe23 V2 2.621957 1_554
Fe23 Tb0 3.212483 1_445
Fe23 Tb0 3.219714 1_555
Fe24 V1 2.263422 1_455
Fe24 Fe7 2.595894 1_555
Fe24 Fe30 2.861474 1_455
Fe24 Fe30 2.861481 1_555
Fe24 Fe27 2.862107 1_455
Fe24 Fe27 2.862111 1_555
Fe24 Tb1 3.041484 1_555
Fe25 V2 2.258079 1_555
Fe25 Fe8 2.599019 1_555
Fe25 Fe28 2.861098 1_455
Fe25 Fe28 2.861102 1_555
Fe25 Fe31 2.862659 1_555
Fe25 Fe31 2.862663 1_455
Fe25 Tb2 3.043748 1_555
Fe26 Fe29 2.386324 1_555
Fe26 Fe9 2.590014 1_455
Fe26 Fe9 2.590018 1_555
Fe26 Fe3 2.598796 1_455
Fe26 V0 2.877116 1_455
Fe26 V0 2.877120 1_555
Fe26 V3 2.883358 1_455
Fe26 V3 2.883362 1_555
Fe26 Tb0 3.029692 1_445
Fe27 Fe30 2.386255 1_555
Fe27 Fe4 2.599260 1_555
Fe27 V1 2.846688 1_455
Fe27 V1 2.846691 1_555
Fe27 Tb1 3.038016 1_545
Fe28 Fe31 2.383793 1_555
Fe28 Fe5 2.601761 1_555
Fe28 V2 2.843268 1_655
Fe28 V2 2.843275 1_555
Fe28 Tb2 3.036467 1_545
Fe29 Fe6 2.590310 1_555
Fe29 Fe6 2.590315 1_455
Fe29 Fe3 2.604497 1_455
Fe29 V3 2.873106 1_455
Fe29 V3 2.873110 1_555
Fe29 V0 2.886778 1_455
Fe29 V0 2.886782 1_555
Fe29 Tb1 3.033547 1_555
Fe30 Fe7 2.593219 1_555
Fe30 Fe7 2.593219 1_655
Fe30 Fe4 2.601146 1_555
Fe30 V1 2.846027 1_555
Fe30 V1 2.846027 1_455
Fe30 Tb2 3.033048 1_555
Fe31 Fe8 2.594335 1_655
Fe31 Fe8 2.594335 1_555
Fe31 Fe5 2.598883 1_555
Fe31 V2 2.843085 1_655
Fe31 V2 2.843085 1_555
Fe31 Tb0 3.038138 1_556
