# generated using pymatgen
data_BaMnAlF7
_symmetry_space_group_name_H-M   'P 1'
_cell_length_a   7.42770522
_cell_length_b   7.42770522
_cell_length_c   14.70767261
_cell_angle_alpha   88.79267673
_cell_angle_beta   88.79267673
_cell_angle_gamma   41.69185678
_symmetry_Int_Tables_number   1
_chemical_formula_structural   BaMnAlF7
_chemical_formula_sum   'Ba4 Mn4 Al4 F28'
_cell_volume   539.56731581
_cell_formula_units_Z   4
loop_
 _symmetry_equiv_pos_site_id
 _symmetry_equiv_pos_as_xyz
  1  'x, y, z'
loop_
 _atom_site_type_symbol
 _atom_site_label
 _atom_site_symmetry_multiplicity
 _atom_site_fract_x
 _atom_site_fract_y
 _atom_site_fract_z
 _atom_site_occupancy
  Ba  Ba0  1  0.64983300  0.73008700  0.87825500  1
  Ba  Ba1  1  0.35016700  0.26991300  0.12174500  1
  Ba  Ba2  1  0.26991300  0.35016700  0.62174500  1
  Ba  Ba3  1  0.73008700  0.64983300  0.37825500  1
  Mn  Mn0  1  0.00000000  0.00000000  0.50000000  1
  Mn  Mn1  1  0.00000000  0.00000000  0.00000000  1
  Mn  Mn2  1  0.95249100  0.04750900  0.75000000  1
  Mn  Mn3  1  0.04750900  0.95249100  0.25000000  1
  Al  Al0  1  0.38627600  0.37322100  0.87492500  1
  Al  Al1  1  0.61372400  0.62677900  0.12507500  1
  Al  Al2  1  0.62677900  0.61372400  0.62507500  1
  Al  Al3  1  0.37322100  0.38627600  0.37492500  1
  F  F0  1  0.41521300  0.75050500  0.52426300  1
  F  F1  1  0.58478700  0.24949500  0.47573700  1
  F  F2  1  0.24949500  0.58478700  0.97573700  1
  F  F3  1  0.75050500  0.41521300  0.02426300  1
  F  F4  1  0.69082300  0.79856200  0.59054300  1
  F  F5  1  0.30917700  0.20143800  0.40945700  1
  F  F6  1  0.20143800  0.30917700  0.90945700  1
  F  F7  1  0.79856200  0.69082300  0.09054300  1
  F  F8  1  0.54694500  0.12809700  0.78100900  1
  F  F9  1  0.45305500  0.87190300  0.21899100  1
  F  F10  1  0.87190300  0.45305500  0.71899100  1
  F  F11  1  0.12809700  0.54694500  0.28100900  1
  F  F12  1  0.60323400  0.39409700  0.65649800  1
  F  F13  1  0.39676600  0.60590300  0.34350200  1
  F  F14  1  0.60590300  0.39676600  0.84350200  1
  F  F15  1  0.39409700  0.60323400  0.15649800  1
  F  F16  1  0.35177100  0.88797700  0.69899300  1
  F  F17  1  0.64822900  0.11202300  0.30100700  1
  F  F18  1  0.11202300  0.64822900  0.80100700  1
  F  F19  1  0.88797700  0.35177100  0.19899300  1
  F  F20  1  0.66453200  0.07818500  0.95084600  1
  F  F21  1  0.33546800  0.92181500  0.04915400  1
  F  F22  1  0.92181500  0.33546800  0.54915400  1
  F  F23  1  0.07818500  0.66453200  0.45084600  1
  F  F24  1  0.86046200  0.02004200  0.12889800  1
  F  F25  1  0.13953800  0.97995800  0.87110200  1
  F  F26  1  0.97995800  0.13953800  0.37110200  1
  F  F27  1  0.02004200  0.86046200  0.62889800  1
loop_
_geom_bond_atom_site_label_1
_geom_bond_atom_site_label_2
_geom_bond_distance
_geom_bond_site_symmetry_2
Ba0 F25 2.706416 1_555
Ba0 F10 2.722693 1_555
Ba0 F6 2.767693 1_655
Ba0 F14 2.786436 1_555
Ba0 F8 2.804129 1_565
Ba0 F3 2.807978 1_556
Ba0 F20 2.894786 1_565
Ba0 F6 2.903140 1_565
Ba0 F21 2.955582 1_556
Ba0 F16 3.076706 1_555
Ba0 F18 3.192719 1_655
Ba0 F7 3.267994 1_556
Ba1 F24 2.706416 1_555
Ba1 F11 2.722693 1_555
Ba1 F7 2.767693 1_455
Ba1 F15 2.786436 1_555
Ba1 F9 2.804129 1_545
Ba1 F2 2.807978 1_554
Ba1 F21 2.894786 1_545
Ba1 F7 2.903140 1_545
Ba1 F20 2.955582 1_554
Ba1 F17 3.076706 1_555
Ba1 F19 3.192719 1_455
Ba1 F6 3.267994 1_554
Ba2 F27 2.706416 1_555
Ba2 F8 2.722693 1_555
Ba2 F4 2.767693 1_545
Ba2 F12 2.786436 1_555
Ba2 F10 2.804129 1_455
Ba2 F1 2.807978 1_555
Ba2 F22 2.894786 1_455
Ba2 F4 2.903140 1_455
Ba2 F23 2.955582 1_555
Ba2 F18 3.076706 1_555
Ba2 F16 3.192719 1_545
Ba2 F5 3.267994 1_555
Ba3 F26 2.706416 1_555
Ba3 F9 2.722693 1_555
Ba3 F5 2.767693 1_565
Ba3 F13 2.786436 1_555
Ba3 F11 2.804129 1_655
Ba3 F0 2.807978 1_555
Ba3 F23 2.894786 1_655
Ba3 F5 2.903140 1_655
Ba3 F22 2.955582 1_555
Ba3 F19 3.076706 1_555
Ba3 F17 3.192719 1_565
Ba3 F4 3.267994 1_555
Al0 F18 1.813677 1_555
Al0 F14 1.815571 1_555
Al0 F6 1.817957 1_555
Al0 F2 1.830410 1_555
Al0 F8 1.854345 1_555
Al0 F20 1.884343 1_555
Al1 F19 1.813677 1_555
Al1 F15 1.815571 1_555
Al1 F7 1.817957 1_555
Al1 F3 1.830410 1_555
Al1 F9 1.854345 1_555
Al1 F21 1.884343 1_555
Al2 F16 1.813677 1_555
Al2 F12 1.815571 1_555
Al2 F4 1.817957 1_555
Al2 F0 1.830410 1_555
Al2 F10 1.854345 1_555
Al2 F22 1.884343 1_555
Al3 F17 1.813677 1_555
Al3 F13 1.815571 1_555
Al3 F5 1.817957 1_555
Al3 F1 1.830410 1_555
Al3 F11 1.854345 1_555
Al3 F23 1.884343 1_555
F0 Mn0 2.134478 1_565
F1 Mn0 2.134478 1_655
F2 Mn1 2.134478 1_566
F3 Mn1 2.134478 1_655
F8 Mn2 2.626948 1_555
F9 Mn3 2.626948 1_555
F10 Mn2 2.626948 1_555
F11 Mn3 2.626948 1_555
F12 Mn2 2.296849 1_555
F13 Mn3 2.296849 1_555
F14 Mn2 2.296849 1_555
F15 Mn3 2.296849 1_555
F16 Mn2 2.336185 1_465
F17 Mn3 2.336185 1_645
F18 Mn2 2.336185 1_465
F19 Mn3 2.336185 1_645
F20 Mn1 2.228419 1_656
F21 Mn1 2.228419 1_565
F22 Mn0 2.228419 1_655
F23 Mn0 2.228419 1_565
F24 Mn3 2.092831 1_645
F24 Mn1 2.095009 1_655
F25 Mn2 2.092831 1_465
F25 Mn1 2.095009 1_566
F26 Mn3 2.092831 1_645
F26 Mn0 2.095009 1_655
F27 Mn2 2.092831 1_465
F27 Mn0 2.095009 1_565
