# generated using pymatgen
data_La7SmMn2(FeO4)6
_symmetry_space_group_name_H-M   'P 1'
_cell_length_a   7.86440385
_cell_length_b   7.86440385
_cell_length_c   7.87519400
_cell_angle_alpha   90.00000000
_cell_angle_beta   90.00000000
_cell_angle_gamma   90.62717908
_symmetry_Int_Tables_number   1
_chemical_formula_structural   La7SmMn2(FeO4)6
_chemical_formula_sum   'La7 Sm1 Mn2 Fe6 O24'
_cell_volume   487.04249502
_cell_formula_units_Z   1
loop_
 _symmetry_equiv_pos_site_id
 _symmetry_equiv_pos_as_xyz
  1  'x, y, z'
loop_
 _atom_site_type_symbol
 _atom_site_label
 _atom_site_symmetry_multiplicity
 _atom_site_fract_x
 _atom_site_fract_y
 _atom_site_fract_z
 _atom_site_occupancy
  La  La0  1  0.00000000  0.50000000  0.75487800  1
  La  La1  1  0.50000000  0.50000000  0.76022900  1
  La  La2  1  0.00000000  0.50000000  0.24502100  1
  La  La3  1  0.50000000  0.50000000  0.24650300  1
  La  La4  1  0.50000000  0.00000000  0.75487800  1
  La  La5  1  0.00000000  0.00000000  0.23962700  1
  La  La6  1  0.50000000  0.00000000  0.24502100  1
  Sm  Sm0  1  0.00000000  0.00000000  0.75758900  1
  Mn  Mn0  1  0.24938100  0.75061900  0.50046100  1
  Mn  Mn1  1  0.75061900  0.24938100  0.50046100  1
  Fe  Fe0  1  0.75003000  0.75003000  0.99978800  1
  Fe  Fe1  1  0.24946500  0.75053500  0.99941900  1
  Fe  Fe2  1  0.75076400  0.75076400  0.50060100  1
  Fe  Fe3  1  0.75053500  0.24946500  0.99941900  1
  Fe  Fe4  1  0.24997000  0.24997000  0.99978800  1
  Fe  Fe5  1  0.24923600  0.24923600  0.50060100  1
  O  O0  1  0.75193300  0.49526700  0.00139600  1
  O  O1  1  0.24806700  0.50473300  0.00139600  1
  O  O2  1  0.75089200  0.49541800  0.50087900  1
  O  O3  1  0.24910800  0.50458200  0.50087900  1
  O  O4  1  0.75104800  0.00432800  0.99557300  1
  O  O5  1  0.24895200  0.99567200  0.99557300  1
  O  O6  1  0.75112800  0.00458000  0.50108800  1
  O  O7  1  0.24887200  0.99542000  0.50108800  1
  O  O8  1  0.75335600  0.75335600  0.74138600  1
  O  O9  1  0.24863100  0.75136900  0.74441500  1
  O  O10  1  0.74921000  0.74921000  0.25887100  1
  O  O11  1  0.24895800  0.75104200  0.25531100  1
  O  O12  1  0.75136900  0.24863100  0.74441500  1
  O  O13  1  0.24664400  0.24664400  0.74138600  1
  O  O14  1  0.75104200  0.24895800  0.25531100  1
  O  O15  1  0.25079000  0.25079000  0.25887100  1
  O  O16  1  0.00432800  0.75104800  0.99557300  1
  O  O17  1  0.49526700  0.75193300  0.00139600  1
  O  O18  1  0.00458000  0.75112800  0.50108800  1
  O  O19  1  0.49541800  0.75089200  0.50087900  1
  O  O20  1  0.99567200  0.24895200  0.99557300  1
  O  O21  1  0.50473300  0.24806700  0.00139600  1
  O  O22  1  0.99542000  0.24887200  0.50108800  1
  O  O23  1  0.50458200  0.24910800  0.50087900  1
loop_
_geom_bond_atom_site_label_1
_geom_bond_atom_site_label_2
_geom_bond_distance
_geom_bond_site_symmetry_2
La0 O20 2.736917 1_455
La0 O16 2.736917 1_555
La0 O0 2.752226 1_456
La0 O1 2.752226 1_556
La0 O9 2.766497 1_555
La0 O12 2.766497 1_455
La0 O8 2.797928 1_455
La0 O13 2.797928 1_555
La0 O2 2.799810 1_455
La0 O3 2.799810 1_555
La0 O18 2.809775 1_555
La0 O22 2.809775 1_455
La1 O0 2.745116 1_556
La1 O1 2.745116 1_556
La1 O17 2.745116 1_556
La1 O21 2.745116 1_556
La1 O8 2.806274 1_555
La1 O13 2.806274 1_555
La1 O9 2.813729 1_555
La1 O12 2.813729 1_555
La1 O2 2.840347 1_555
La1 O19 2.840347 1_555
La1 O3 2.840347 1_555
La1 O23 2.840347 1_555
La2 O1 2.736203 1_555
La2 O0 2.736203 1_455
La2 O14 2.766439 1_455
La2 O11 2.766439 1_555
La2 O16 2.785101 1_554
La2 O20 2.785101 1_454
La2 O15 2.797804 1_555
La2 O10 2.797804 1_455
La2 O2 2.810288 1_455
La2 O3 2.810288 1_555
La2 O18 2.822559 1_555
La2 O22 2.822559 1_455
La3 O15 2.758209 1_555
La3 O10 2.758209 1_555
La3 O21 2.766674 1_555
La3 O0 2.766674 1_555
La3 O17 2.766674 1_555
La3 O1 2.766674 1_555
La3 O11 2.808172 1_555
La3 O14 2.808172 1_555
La3 O3 2.812311 1_555
La3 O23 2.812311 1_555
La3 O2 2.812311 1_555
La3 O19 2.812311 1_555
La4 O5 2.736917 1_545
La4 O4 2.736917 1_555
La4 O17 2.752226 1_546
La4 O21 2.752226 1_556
La4 O12 2.766497 1_555
La4 O9 2.766497 1_545
La4 O8 2.797928 1_545
La4 O13 2.797928 1_555
La4 O19 2.799810 1_545
La4 O23 2.799810 1_555
La4 O6 2.809775 1_555
La4 O7 2.809775 1_545
La5 O4 2.744050 1_454
La5 O16 2.744050 1_544
La5 O5 2.744050 1_544
La5 O20 2.744050 1_454
La5 O10 2.778102 1_445
La5 O15 2.778102 1_555
La5 O14 2.786749 1_455
La5 O11 2.786749 1_545
La5 O22 2.841356 1_455
La5 O7 2.841356 1_545
La5 O6 2.841356 1_455
La5 O18 2.841356 1_545
La6 O21 2.736203 1_555
La6 O17 2.736203 1_545
La6 O14 2.766439 1_555
La6 O11 2.766439 1_545
La6 O4 2.785101 1_554
La6 O5 2.785101 1_544
La6 O15 2.797804 1_555
La6 O10 2.797804 1_545
La6 O19 2.810288 1_545
La6 O23 2.810288 1_555
La6 O6 2.822559 1_555
La6 O7 2.822559 1_545
Mn0 O9 1.921203 1_555
Mn0 O7 1.925268 1_555
Mn0 O18 1.925268 1_555
Mn0 O11 1.930610 1_555
Mn0 O19 1.934915 1_555
Mn0 O3 1.934915 1_555
Mn1 O12 1.921203 1_555
Mn1 O22 1.925268 1_555
Mn1 O6 1.925268 1_555
Mn1 O14 1.930610 1_555
Mn1 O2 1.934915 1_555
Mn1 O23 1.934915 1_555
Fe0 O16 2.000106 1_655
Fe0 O4 2.000106 1_565
Fe0 O0 2.003819 1_556
Fe0 O17 2.003819 1_556
Fe0 O8 2.035298 1_555
Fe0 O10 2.040349 1_556
Fe1 O16 1.928143 1_555
Fe1 O5 1.928143 1_555
Fe1 O1 1.933060 1_556
Fe1 O17 1.933060 1_556
Fe1 O9 2.008228 1_555
Fe1 O11 2.015207 1_556
Fe2 O8 1.896445 1_555
Fe2 O10 1.903748 1_555
Fe2 O18 1.996086 1_655
Fe2 O6 1.996086 1_565
Fe2 O19 2.008157 1_555
Fe2 O2 2.008157 1_555
Fe3 O4 1.928143 1_555
Fe3 O20 1.928143 1_555
Fe3 O21 1.933060 1_556
Fe3 O0 1.933060 1_556
Fe3 O12 2.008228 1_555
Fe3 O14 2.015207 1_556
Fe4 O5 2.000106 1_545
Fe4 O20 2.000106 1_455
Fe4 O21 2.003819 1_556
Fe4 O1 2.003819 1_556
Fe4 O13 2.035298 1_555
Fe4 O15 2.040349 1_556
Fe5 O13 1.896445 1_555
Fe5 O15 1.903748 1_555
Fe5 O22 1.996086 1_455
Fe5 O7 1.996086 1_545
Fe5 O3 2.008157 1_555
Fe5 O23 2.008157 1_555
O4 Sm0 2.710783 1_655
O5 Sm0 2.710783 1_565
O6 Sm0 2.813178 1_655
O7 Sm0 2.813178 1_565
O8 Sm0 2.731089 1_665
O9 Sm0 2.782289 1_565
O12 Sm0 2.782289 1_655
O13 Sm0 2.731089 1_555
O16 Sm0 2.710783 1_565
O18 Sm0 2.813178 1_565
O20 Sm0 2.710783 1_655
O22 Sm0 2.813178 1_655
