# generated using pymatgen
data_BaCa2WN4
_symmetry_space_group_name_H-M   'P 1'
_cell_length_a   9.45255600
_cell_length_b   10.29939200
_cell_length_c   11.72939500
_cell_angle_alpha   90.00000000
_cell_angle_beta   90.00000000
_cell_angle_gamma   90.00000000
_symmetry_Int_Tables_number   1
_chemical_formula_structural   BaCa2WN4
_chemical_formula_sum   'Ba8 Ca16 W8 N32'
_cell_volume   1141.92204912
_cell_formula_units_Z   8
loop_
 _symmetry_equiv_pos_site_id
 _symmetry_equiv_pos_as_xyz
  1  'x, y, z'
loop_
 _atom_site_type_symbol
 _atom_site_label
 _atom_site_symmetry_multiplicity
 _atom_site_fract_x
 _atom_site_fract_y
 _atom_site_fract_z
 _atom_site_occupancy
  Ba  Ba0  1  0.17993000  0.73785400  0.88100800  1
  Ba  Ba1  1  0.82007000  0.26214600  0.11899200  1
  Ba  Ba2  1  0.32007000  0.23785400  0.11899200  1
  Ba  Ba3  1  0.82007000  0.76214600  0.38100800  1
  Ba  Ba4  1  0.67993000  0.76214600  0.88100800  1
  Ba  Ba5  1  0.17993000  0.23785400  0.61899200  1
  Ba  Ba6  1  0.67993000  0.26214600  0.61899200  1
  Ba  Ba7  1  0.32007000  0.73785400  0.38100800  1
  Ca  Ca0  1  0.03387600  0.62159700  0.60357600  1
  Ca  Ca1  1  0.96612400  0.37840300  0.39642400  1
  Ca  Ca2  1  0.46612400  0.12159700  0.39642400  1
  Ca  Ca3  1  0.96612400  0.87840300  0.10357600  1
  Ca  Ca4  1  0.53387600  0.87840300  0.60357600  1
  Ca  Ca5  1  0.03387600  0.12159700  0.89642400  1
  Ca  Ca6  1  0.53387600  0.37840300  0.89642400  1
  Ca  Ca7  1  0.46612400  0.62159700  0.10357600  1
  Ca  Ca8  1  0.37816300  0.54143700  0.63608400  1
  Ca  Ca9  1  0.62183700  0.45856300  0.36391600  1
  Ca  Ca10  1  0.12183700  0.04143700  0.36391600  1
  Ca  Ca11  1  0.62183700  0.95856300  0.13608400  1
  Ca  Ca12  1  0.87816300  0.95856300  0.63608400  1
  Ca  Ca13  1  0.37816300  0.04143700  0.86391600  1
  Ca  Ca14  1  0.87816300  0.45856300  0.86391600  1
  Ca  Ca15  1  0.12183700  0.54143700  0.13608400  1
  W  W0  1  0.20088400  0.90298900  0.61352200  1
  W  W1  1  0.79911600  0.09701100  0.38647800  1
  W  W2  1  0.29911600  0.40298900  0.38647800  1
  W  W3  1  0.79911600  0.59701100  0.11352200  1
  W  W4  1  0.70088400  0.59701100  0.61352200  1
  W  W5  1  0.20088400  0.40298900  0.88647800  1
  W  W6  1  0.70088400  0.09701100  0.88647800  1
  W  W7  1  0.29911600  0.90298900  0.11352200  1
  N  N0  1  0.30774000  0.76394000  0.67215500  1
  N  N1  1  0.69226000  0.23606000  0.32784500  1
  N  N2  1  0.19226000  0.26394000  0.32784500  1
  N  N3  1  0.69226000  0.73606000  0.17215500  1
  N  N4  1  0.80774000  0.73606000  0.67215500  1
  N  N5  1  0.30774000  0.26394000  0.82784500  1
  N  N6  1  0.80774000  0.23606000  0.82784500  1
  N  N7  1  0.19226000  0.76394000  0.17215500  1
  N  N8  1  0.32188100  0.51055800  0.97253100  1
  N  N9  1  0.67811900  0.48944200  0.02746900  1
  N  N10  1  0.17811900  0.01055800  0.02746900  1
  N  N11  1  0.67811900  0.98944200  0.47253100  1
  N  N12  1  0.82188100  0.98944200  0.97253100  1
  N  N13  1  0.32188100  0.01055800  0.52746900  1
  N  N14  1  0.82188100  0.48944200  0.52746900  1
  N  N15  1  0.17811900  0.51055800  0.47253100  1
  N  N16  1  0.11282000  0.49825500  0.76823800  1
  N  N17  1  0.88718000  0.50174500  0.23176200  1
  N  N18  1  0.38718000  0.99825500  0.23176200  1
  N  N19  1  0.88718000  0.00174500  0.26823800  1
  N  N20  1  0.61282000  0.00174500  0.76823800  1
  N  N21  1  0.11282000  0.99825500  0.73176200  1
  N  N22  1  0.61282000  0.50174500  0.73176200  1
  N  N23  1  0.38718000  0.49825500  0.26823800  1
  N  N24  1  0.06166600  0.84156800  0.51255900  1
  N  N25  1  0.93833400  0.15843200  0.48744100  1
  N  N26  1  0.43833400  0.34156800  0.48744100  1
  N  N27  1  0.93833400  0.65843200  0.01255900  1
  N  N28  1  0.56166600  0.65843200  0.51255900  1
  N  N29  1  0.06166600  0.34156800  0.98744100  1
  N  N30  1  0.56166600  0.15843200  0.98744100  1
  N  N31  1  0.43833400  0.84156800  0.01255900  1
loop_
_geom_bond_atom_site_label_1
_geom_bond_atom_site_label_2
_geom_bond_distance
_geom_bond_site_symmetry_2
Ba0 N0 2.744611 1_555
Ba0 N16 2.870832 1_555
Ba0 N27 2.874943 1_456
Ba0 N8 2.903994 1_555
Ba0 N31 3.080278 1_556
Ba0 N21 3.264945 1_555
Ba0 N10 3.292443 1_566
Ba0 N7 3.427513 1_556
Ba1 N1 2.744611 1_555
Ba1 N17 2.870832 1_555
Ba1 N29 2.874943 1_654
Ba1 N9 2.903994 1_555
Ba1 N30 3.080278 1_554
Ba1 N19 3.264945 1_555
Ba1 N12 3.292443 1_544
Ba1 N6 3.427513 1_554
Ba2 N2 2.744611 1_555
Ba2 N18 2.870832 1_545
Ba2 N30 2.874943 1_554
Ba2 N10 2.903994 1_555
Ba2 N29 3.080278 1_554
Ba2 N23 3.264945 1_555
Ba2 N8 3.292443 1_554
Ba2 N5 3.427513 1_554
Ba3 N3 2.744611 1_555
Ba3 N19 2.870832 1_565
Ba3 N24 2.874943 1_655
Ba3 N11 2.903994 1_555
Ba3 N28 3.080278 1_555
Ba3 N17 3.264945 1_555
Ba3 N14 3.292443 1_555
Ba3 N4 3.427513 1_555
Ba4 N4 2.744611 1_555
Ba4 N20 2.870832 1_565
Ba4 N31 2.874943 1_556
Ba4 N12 2.903994 1_555
Ba4 N27 3.080278 1_556
Ba4 N22 3.264945 1_555
Ba4 N9 3.292443 1_556
Ba4 N3 3.427513 1_556
Ba5 N5 2.744611 1_555
Ba5 N21 2.870832 1_545
Ba5 N25 2.874943 1_455
Ba5 N13 2.903994 1_555
Ba5 N26 3.080278 1_555
Ba5 N16 3.264945 1_555
Ba5 N15 3.292443 1_555
Ba5 N2 3.427513 1_555
Ba6 N6 2.744611 1_555
Ba6 N22 2.870832 1_555
Ba6 N26 2.874943 1_555
Ba6 N14 2.903994 1_555
Ba6 N25 3.080278 1_555
Ba6 N20 3.264945 1_555
Ba6 N11 3.292443 1_545
Ba6 N1 3.427513 1_555
Ba7 N7 2.744611 1_555
Ba7 N23 2.870832 1_555
Ba7 N28 2.874943 1_555
Ba7 N15 2.903994 1_555
Ba7 N24 3.080278 1_555
Ba7 N18 3.264945 1_555
Ba7 N13 3.292443 1_565
Ba7 N0 3.427513 1_555
Ca0 N15 2.351499 1_555
Ca0 N16 2.429173 1_555
Ca0 N24 2.518237 1_555
Ca0 N4 2.570219 1_455
Ca0 N14 2.581690 1_455
Ca1 N14 2.351499 1_555
Ca1 N17 2.429173 1_555
Ca1 N25 2.518237 1_555
Ca1 N2 2.570219 1_655
Ca1 N15 2.581690 1_655
Ca2 N13 2.351499 1_555
Ca2 N18 2.429173 1_545
Ca2 N26 2.518237 1_555
Ca2 N1 2.570219 1_555
Ca2 N11 2.581690 1_545
Ca3 N12 2.351499 1_554
Ca3 N19 2.429173 1_565
Ca3 N27 2.518237 1_555
Ca3 N7 2.570219 1_655
Ca3 N10 2.581690 1_665
Ca4 N11 2.351499 1_555
Ca4 N20 2.429173 1_565
Ca4 N28 2.518237 1_555
Ca4 N0 2.570219 1_555
Ca4 N13 2.581690 1_565
Ca5 N10 2.351499 1_556
Ca5 N21 2.429173 1_545
Ca5 N29 2.518237 1_555
Ca5 N6 2.570219 1_455
Ca5 N12 2.581690 1_445
Ca6 N9 2.351499 1_556
Ca6 N22 2.429173 1_555
Ca6 N30 2.518237 1_555
Ca6 N5 2.570219 1_555
Ca6 N8 2.581690 1_555
Ca7 N8 2.351499 1_554
Ca7 N23 2.429173 1_555
Ca7 N31 2.518237 1_555
Ca7 N3 2.570219 1_555
Ca7 N9 2.581690 1_555
Ca8 N0 2.423587 1_555
Ca8 N22 2.519238 1_555
Ca8 N28 2.561239 1_555
Ca8 N15 2.712365 1_555
Ca8 N26 2.756956 1_555
Ca8 N16 2.981859 1_555
Ca9 N1 2.423587 1_555
Ca9 N23 2.519238 1_555
Ca9 N26 2.561239 1_555
Ca9 N14 2.712365 1_555
Ca9 N28 2.756956 1_555
Ca9 N17 2.981859 1_555
Ca10 N2 2.423587 1_555
Ca10 N19 2.519238 1_455
Ca10 N25 2.561239 1_455
Ca10 N13 2.712365 1_555
Ca10 N24 2.756956 1_545
Ca10 N18 2.981859 1_545
Ca11 N3 2.423587 1_555
Ca11 N18 2.519238 1_555
Ca11 N31 2.561239 1_555
Ca11 N12 2.712365 1_554
Ca11 N30 2.756956 1_564
Ca11 N19 2.981859 1_565
Ca12 N4 2.423587 1_555
Ca12 N21 2.519238 1_655
Ca12 N24 2.561239 1_655
Ca12 N11 2.712365 1_555
Ca12 N25 2.756956 1_565
Ca12 N20 2.981859 1_565
Ca13 N5 2.423587 1_555
Ca13 N20 2.519238 1_555
Ca13 N30 2.561239 1_555
Ca13 N10 2.712365 1_556
Ca13 N31 2.756956 1_546
Ca13 N21 2.981859 1_545
Ca14 N6 2.423587 1_555
Ca14 N16 2.519238 1_655
Ca14 N29 2.561239 1_655
Ca14 N9 2.712365 1_556
Ca14 N27 2.756956 1_556
Ca14 N22 2.981859 1_555
Ca15 N7 2.423587 1_555
Ca15 N17 2.519238 1_455
Ca15 N27 2.561239 1_455
Ca15 N8 2.712365 1_554
Ca15 N29 2.756956 1_554
Ca15 N23 2.981859 1_555
N0 W0 1.882596 1_555
N1 W1 1.882596 1_555
N2 W2 1.882596 1_555
N3 W3 1.882596 1_555
N4 W4 1.882596 1_555
N5 W5 1.882596 1_555
N6 W6 1.882596 1_555
N7 W7 1.882596 1_555
N8 W5 1.885295 1_555
N9 W3 1.885295 1_555
N10 W7 1.885295 1_545
N11 W1 1.885295 1_565
N12 W6 1.885295 1_565
N13 W0 1.885295 1_545
N14 W4 1.885295 1_555
N15 W2 1.885295 1_555
N16 W5 1.891852 1_555
N17 W3 1.891852 1_555
N18 W7 1.891852 1_555
N19 W1 1.891852 1_555
N20 W6 1.891852 1_555
N21 W0 1.891852 1_555
N22 W4 1.891852 1_555
N23 W2 1.891852 1_555
N24 W0 1.879989 1_555
N25 W1 1.879989 1_555
N26 W2 1.879989 1_555
N27 W3 1.879989 1_555
N28 W4 1.879989 1_555
N29 W5 1.879989 1_555
N30 W6 1.879989 1_555
N31 W7 1.879989 1_555
