# generated using pymatgen
data_MgNiBiO5
_symmetry_space_group_name_H-M   'P 1'
_cell_length_a   5.25492300
_cell_length_b   10.04216000
_cell_length_c   14.96318700
_cell_angle_alpha   90.00000000
_cell_angle_beta   90.00000000
_cell_angle_gamma   90.00000000
_symmetry_Int_Tables_number   1
_chemical_formula_structural   MgNiBiO5
_chemical_formula_sum   'Mg8 Ni8 Bi8 O40'
_cell_volume   789.61901267
_cell_formula_units_Z   8
loop_
 _symmetry_equiv_pos_site_id
 _symmetry_equiv_pos_as_xyz
  1  'x, y, z'
loop_
 _atom_site_type_symbol
 _atom_site_label
 _atom_site_symmetry_multiplicity
 _atom_site_fract_x
 _atom_site_fract_y
 _atom_site_fract_z
 _atom_site_occupancy
  Mg  Mg0  1  0.51770200  0.37188600  0.56141100  1
  Mg  Mg1  1  0.01770200  0.12811400  0.56141100  1
  Mg  Mg2  1  0.01770200  0.62811400  0.93858900  1
  Mg  Mg3  1  0.98229800  0.37188600  0.06141100  1
  Mg  Mg4  1  0.48229800  0.12811400  0.06141100  1
  Mg  Mg5  1  0.98229800  0.87188600  0.43858900  1
  Mg  Mg6  1  0.48229800  0.62811400  0.43858900  1
  Mg  Mg7  1  0.51770200  0.87188600  0.93858900  1
  Ni  Ni0  1  0.03836000  0.40262800  0.42593700  1
  Ni  Ni1  1  0.46164000  0.90262800  0.57406300  1
  Ni  Ni2  1  0.96164000  0.59737200  0.57406300  1
  Ni  Ni3  1  0.53836000  0.09737200  0.42593700  1
  Ni  Ni4  1  0.96164000  0.09737200  0.92593700  1
  Ni  Ni5  1  0.03836000  0.90262800  0.07406300  1
  Ni  Ni6  1  0.46164000  0.40262800  0.92593700  1
  Ni  Ni7  1  0.53836000  0.59737200  0.07406300  1
  Bi  Bi0  1  0.98995300  0.85660800  0.74936600  1
  Bi  Bi1  1  0.01004700  0.14339200  0.25063400  1
  Bi  Bi2  1  0.51004700  0.35660800  0.25063400  1
  Bi  Bi3  1  0.01004700  0.64339200  0.24936600  1
  Bi  Bi4  1  0.48995300  0.14339200  0.75063400  1
  Bi  Bi5  1  0.48995300  0.64339200  0.74936600  1
  Bi  Bi6  1  0.51004700  0.85660800  0.24936600  1
  Bi  Bi7  1  0.98995300  0.35660800  0.75063400  1
  O  O0  1  0.85436000  0.31468900  0.32528900  1
  O  O1  1  0.25149200  0.01456200  0.97531800  1
  O  O2  1  0.24850800  0.51456200  0.02468200  1
  O  O3  1  0.30406900  0.79665400  0.83348700  1
  O  O4  1  0.19593100  0.29665400  0.16651300  1
  O  O5  1  0.85436000  0.81468900  0.17471100  1
  O  O6  1  0.19593100  0.79665400  0.33348700  1
  O  O7  1  0.64564000  0.81468900  0.67471100  1
  O  O8  1  0.25149200  0.51456200  0.52468200  1
  O  O9  1  0.14564000  0.68531100  0.67471100  1
  O  O10  1  0.64564000  0.31468900  0.82528900  1
  O  O11  1  0.70864000  0.22411500  0.49051200  1
  O  O12  1  0.75149200  0.98543800  0.52468200  1
  O  O13  1  0.69593100  0.70334600  0.33348700  1
  O  O14  1  0.25374700  0.00147700  0.16438400  1
  O  O15  1  0.75149200  0.48543800  0.97531800  1
  O  O16  1  0.14564000  0.18531100  0.82528900  1
  O  O17  1  0.80406900  0.20334600  0.66651300  1
  O  O18  1  0.20864000  0.77588500  0.00948800  1
  O  O19  1  0.24850800  0.01456200  0.47531800  1
  O  O20  1  0.29136000  0.77588500  0.50948800  1
  O  O21  1  0.74625300  0.99852300  0.83561600  1
  O  O22  1  0.69593100  0.20334600  0.16651300  1
  O  O23  1  0.75374700  0.99852300  0.33561600  1
  O  O24  1  0.29136000  0.27588500  0.99051200  1
  O  O25  1  0.20864000  0.27588500  0.49051200  1
  O  O26  1  0.74850800  0.48543800  0.47531800  1
  O  O27  1  0.74850800  0.98543800  0.02468200  1
  O  O28  1  0.75374700  0.49852300  0.16438400  1
  O  O29  1  0.79136000  0.72411500  0.50948800  1
  O  O30  1  0.79136000  0.22411500  0.99051200  1
  O  O31  1  0.70864000  0.72411500  0.00948800  1
  O  O32  1  0.74625300  0.49852300  0.66438400  1
  O  O33  1  0.80406900  0.70334600  0.83348700  1
  O  O34  1  0.30406900  0.29665400  0.66651300  1
  O  O35  1  0.25374700  0.50147700  0.33561600  1
  O  O36  1  0.24625300  0.50147700  0.83561600  1
  O  O37  1  0.35436000  0.18531100  0.32528900  1
  O  O38  1  0.24625300  0.00147700  0.66438400  1
  O  O39  1  0.35436000  0.68531100  0.17471100  1
loop_
_geom_bond_atom_site_label_1
_geom_bond_atom_site_label_2
_geom_bond_distance
_geom_bond_site_symmetry_2
Mg0 O34 2.074685 1_555
Mg0 O8 2.076498 1_555
Mg0 O11 2.081892 1_555
Mg0 O26 2.104964 1_555
Mg0 O25 2.166230 1_555
Mg0 O32 2.331044 1_555
Mg1 O17 2.074685 1_455
Mg1 O12 2.076498 1_445
Mg1 O25 2.081892 1_555
Mg1 O19 2.104964 1_555
Mg1 O11 2.166230 1_455
Mg1 O38 2.331044 1_555
Mg2 O33 2.074685 1_455
Mg2 O15 2.076498 1_455
Mg2 O18 2.081892 1_556
Mg2 O2 2.104964 1_556
Mg2 O31 2.166230 1_456
Mg2 O36 2.331044 1_555
Mg3 O4 2.074685 1_655
Mg3 O2 2.076498 1_655
Mg3 O30 2.081892 1_554
Mg3 O15 2.104964 1_554
Mg3 O24 2.166230 1_654
Mg3 O28 2.331044 1_555
Mg4 O22 2.074685 1_555
Mg4 O27 2.076498 1_545
Mg4 O24 2.081892 1_554
Mg4 O1 2.104964 1_554
Mg4 O30 2.166230 1_554
Mg4 O14 2.331044 1_555
Mg5 O6 2.074685 1_655
Mg5 O19 2.076498 1_665
Mg5 O29 2.081892 1_555
Mg5 O12 2.104964 1_555
Mg5 O20 2.166230 1_655
Mg5 O23 2.331044 1_555
Mg6 O13 2.074685 1_555
Mg6 O26 2.076498 1_555
Mg6 O20 2.081892 1_555
Mg6 O8 2.104964 1_555
Mg6 O29 2.166230 1_555
Mg6 O35 2.331044 1_555
Mg7 O3 2.074685 1_555
Mg7 O1 2.076498 1_565
Mg7 O31 2.081892 1_556
Mg7 O27 2.104964 1_556
Mg7 O18 2.166230 1_556
Mg7 O21 2.331044 1_555
Ni0 O25 1.831466 1_555
Ni0 O26 1.886133 1_455
Ni0 O0 1.995708 1_455
Ni0 O35 2.023107 1_555
Ni0 O8 2.168183 1_555
Ni1 O20 1.831466 1_555
Ni1 O12 1.886133 1_555
Ni1 O7 1.995708 1_555
Ni1 O38 2.023107 1_565
Ni1 O19 2.168183 1_565
Ni2 O29 1.831466 1_555
Ni2 O8 1.886133 1_655
Ni2 O9 1.995708 1_655
Ni2 O32 2.023107 1_555
Ni2 O26 2.168183 1_555
Ni3 O11 1.831466 1_555
Ni3 O19 1.886133 1_555
Ni3 O37 1.995708 1_555
Ni3 O23 2.023107 1_545
Ni3 O12 2.168183 1_545
Ni4 O30 1.831466 1_555
Ni4 O1 1.886133 1_655
Ni4 O16 1.995708 1_655
Ni4 O21 2.023107 1_545
Ni4 O27 2.168183 1_546
Ni5 O18 1.831466 1_555
Ni5 O27 1.886133 1_455
Ni5 O5 1.995708 1_455
Ni5 O14 2.023107 1_565
Ni5 O1 2.168183 1_564
Ni6 O24 1.831466 1_555
Ni6 O15 1.886133 1_555
Ni6 O10 1.995708 1_555
Ni6 O36 2.023107 1_555
Ni6 O2 2.168183 1_556
Ni7 O31 1.831466 1_555
Ni7 O2 1.886133 1_555
Ni7 O39 1.995708 1_555
Ni7 O28 2.023107 1_555
Ni7 O15 2.168183 1_554
Bi0 O3 2.161370 1_655
Bi0 O7 2.167665 1_555
Bi0 O9 2.208222 1_655
Bi0 O33 2.215241 1_555
Bi0 O21 2.310106 1_555
Bi0 O38 2.355287 1_665
Bi1 O22 2.161370 1_455
Bi1 O37 2.167665 1_555
Bi1 O0 2.208222 1_455
Bi1 O4 2.215241 1_555
Bi1 O14 2.310106 1_555
Bi1 O23 2.355287 1_445
Bi2 O4 2.161370 1_555
Bi2 O0 2.167665 1_555
Bi2 O37 2.208222 1_555
Bi2 O22 2.215241 1_555
Bi2 O28 2.310106 1_555
Bi2 O35 2.355287 1_555
Bi3 O13 2.161370 1_455
Bi3 O39 2.167665 1_555
Bi3 O5 2.208222 1_455
Bi3 O6 2.215241 1_555
Bi3 O35 2.310106 1_555
Bi3 O28 2.355287 1_455
Bi4 O17 2.161370 1_555
Bi4 O16 2.167665 1_555
Bi4 O10 2.208222 1_555
Bi4 O34 2.215241 1_555
Bi4 O38 2.310106 1_555
Bi4 O21 2.355287 1_545
Bi5 O33 2.161370 1_555
Bi5 O9 2.167665 1_555
Bi5 O7 2.208222 1_555
Bi5 O3 2.215241 1_555
Bi5 O36 2.310106 1_555
Bi5 O32 2.355287 1_555
Bi6 O6 2.161370 1_555
Bi6 O5 2.167665 1_555
Bi6 O39 2.208222 1_555
Bi6 O13 2.215241 1_555
Bi6 O23 2.310106 1_555
Bi6 O14 2.355287 1_565
Bi7 O34 2.161370 1_655
Bi7 O10 2.167665 1_555
Bi7 O16 2.208222 1_655
Bi7 O17 2.215241 1_555
Bi7 O32 2.310106 1_555
Bi7 O36 2.355287 1_655
