# generated using pymatgen
data_Co11(CN5)2
_symmetry_space_group_name_H-M   'P 1'
_cell_length_a   12.38958100
_cell_length_b   12.38958100
_cell_length_c   2.81183400
_cell_angle_alpha   90.00000000
_cell_angle_beta   90.00000000
_cell_angle_gamma   90.00000000
_symmetry_Int_Tables_number   1
_chemical_formula_structural   Co11(CN5)2
_chemical_formula_sum   'Co22 C4 N20'
_cell_volume   431.62134792
_cell_formula_units_Z   2
loop_
 _symmetry_equiv_pos_site_id
 _symmetry_equiv_pos_as_xyz
  1  'x, y, z'
loop_
 _atom_site_type_symbol
 _atom_site_label
 _atom_site_symmetry_multiplicity
 _atom_site_fract_x
 _atom_site_fract_y
 _atom_site_fract_z
 _atom_site_occupancy
  Co  Co0  1  0.50000000  0.50000000  0.50000000  1
  Co  Co1  1  0.00000000  0.00000000  0.00000000  1
  Co  Co2  1  0.99800400  0.77562900  0.50000000  1
  Co  Co3  1  0.00199600  0.22437100  0.50000000  1
  Co  Co4  1  0.50199600  0.27562900  0.00000000  1
  Co  Co5  1  0.49800400  0.72437100  0.00000000  1
  Co  Co6  1  0.77562900  0.99800400  0.50000000  1
  Co  Co7  1  0.22437100  0.00199600  0.50000000  1
  Co  Co8  1  0.27562900  0.50199600  0.00000000  1
  Co  Co9  1  0.72437100  0.49800400  0.00000000  1
  Co  Co10  1  0.65704100  0.65704100  0.50000000  1
  Co  Co11  1  0.34295900  0.34295900  0.50000000  1
  Co  Co12  1  0.84295900  0.15704100  0.00000000  1
  Co  Co13  1  0.15704100  0.84295900  0.00000000  1
  Co  Co14  1  0.40535900  0.92202500  0.50000000  1
  Co  Co15  1  0.59464100  0.07797500  0.50000000  1
  Co  Co16  1  0.09464100  0.42202500  0.00000000  1
  Co  Co17  1  0.90535900  0.57797500  0.00000000  1
  Co  Co18  1  0.92202500  0.40535900  0.50000000  1
  Co  Co19  1  0.07797500  0.59464100  0.50000000  1
  Co  Co20  1  0.42202500  0.09464100  0.00000000  1
  Co  Co21  1  0.57797500  0.90535900  0.00000000  1
  C  C0  1  0.30639600  0.69360400  0.50000000  1
  C  C1  1  0.69360400  0.30639600  0.50000000  1
  C  C2  1  0.19360400  0.19360400  0.00000000  1
  C  C3  1  0.80639600  0.80639600  0.00000000  1
  N  N0  1  0.08760400  0.91239600  0.50000000  1
  N  N1  1  0.91239600  0.08760400  0.50000000  1
  N  N2  1  0.41239600  0.41239600  0.00000000  1
  N  N3  1  0.58760400  0.58760400  0.00000000  1
  N  N4  1  0.48153900  0.17801800  0.50000000  1
  N  N5  1  0.51846100  0.82198200  0.50000000  1
  N  N6  1  0.01846100  0.67801800  0.00000000  1
  N  N7  1  0.98153900  0.32198200  0.00000000  1
  N  N8  1  0.17801800  0.48153900  0.50000000  1
  N  N9  1  0.82198200  0.51846100  0.50000000  1
  N  N10  1  0.67801800  0.01846100  0.00000000  1
  N  N11  1  0.32198200  0.98153900  0.00000000  1
  N  N12  1  0.23674900  0.76325100  0.50000000  1
  N  N13  1  0.76325100  0.23674900  0.50000000  1
  N  N14  1  0.26325100  0.26325100  0.00000000  1
  N  N15  1  0.73674900  0.73674900  0.00000000  1
  N  N16  1  0.37760300  0.62239700  0.50000000  1
  N  N17  1  0.62239700  0.37760300  0.50000000  1
  N  N18  1  0.12239700  0.12239700  0.00000000  1
  N  N19  1  0.87760300  0.87760300  0.00000000  1
loop_
_geom_bond_atom_site_label_1
_geom_bond_atom_site_label_2
_geom_bond_distance
_geom_bond_site_symmetry_2
Co0 N2 2.081511 1_556
Co0 N3 2.081511 1_556
Co0 N2 2.081511 1_555
Co0 N3 2.081511 1_555
Co0 N16 2.144581 1_555
Co0 N17 2.144581 1_555
Co1 N0 2.081511 1_545
Co1 N1 2.081511 1_455
Co1 N0 2.081511 1_544
Co1 N1 2.081511 1_454
Co1 N19 2.144581 1_445
Co1 N18 2.144581 1_555
Co2 N6 1.871735 1_655
Co2 N6 1.871735 1_656
Co2 N0 2.025739 1_655
Co2 N19 2.407913 1_555
Co2 N19 2.407913 1_556
Co3 N7 1.871735 1_455
Co3 N7 1.871735 1_456
Co3 N1 2.025739 1_455
Co3 N18 2.407913 1_556
Co3 N18 2.407913 1_555
Co4 N4 1.871735 1_554
Co4 N4 1.871735 1_555
Co4 N2 2.025739 1_555
Co4 N17 2.407913 1_555
Co4 N17 2.407913 1_554
Co5 N5 1.871735 1_554
Co5 N5 1.871735 1_555
Co5 N3 2.025739 1_555
Co5 N16 2.407913 1_554
Co5 N16 2.407913 1_555
Co6 N10 1.871735 1_565
Co6 N10 1.871735 1_566
Co6 N1 2.025739 1_565
Co6 N19 2.407913 1_555
Co6 N19 2.407913 1_556
Co7 N11 1.871735 1_546
Co7 N11 1.871735 1_545
Co7 N0 2.025739 1_545
Co7 N18 2.407913 1_556
Co7 N18 2.407913 1_555
Co8 N8 1.871735 1_555
Co8 N8 1.871735 1_554
Co8 N2 2.025739 1_555
Co8 N16 2.407913 1_554
Co8 N16 2.407913 1_555
Co9 N9 1.871735 1_555
Co9 N9 1.871735 1_554
Co9 N3 2.025739 1_555
Co9 N17 2.407913 1_555
Co9 N17 2.407913 1_554
Co10 N3 1.859252 1_555
Co10 N3 1.859252 1_556
Co10 N15 1.981693 1_555
Co10 N15 1.981693 1_556
Co11 N2 1.859252 1_556
Co11 N2 1.859252 1_555
Co11 N14 1.981693 1_556
Co11 N14 1.981693 1_555
Co12 N1 1.859252 1_554
Co12 N1 1.859252 1_555
Co12 N13 1.981693 1_555
Co12 N13 1.981693 1_554
Co13 N0 1.859252 1_554
Co13 N0 1.859252 1_555
Co13 N12 1.981693 1_555
Co13 N12 1.981693 1_554
Co14 N5 1.870813 1_555
Co14 N11 1.894042 1_556
Co14 N11 1.894042 1_555
Co15 N4 1.870813 1_555
Co15 N10 1.894042 1_555
Co15 N10 1.894042 1_556
Co16 N7 1.870813 1_455
Co16 N8 1.894042 1_554
Co16 N8 1.894042 1_555
Co17 N6 1.870813 1_655
Co17 N9 1.894042 1_555
Co17 N9 1.894042 1_554
Co18 N9 1.870813 1_555
Co18 N7 1.894042 1_555
Co18 N7 1.894042 1_556
Co19 N8 1.870813 1_555
Co19 N6 1.894042 1_555
Co19 N6 1.894042 1_556
Co20 N11 1.870813 1_545
Co20 N4 1.894042 1_555
Co20 N4 1.894042 1_554
Co21 N10 1.870813 1_565
Co21 N5 1.894042 1_554
Co21 N5 1.894042 1_555
C0 N12 1.220321 1_555
C0 N16 1.247654 1_555
C1 N13 1.220321 1_555
C1 N17 1.247654 1_555
C2 N14 1.220321 1_555
C2 N18 1.247654 1_555
C3 N15 1.220321 1_555
C3 N19 1.247654 1_555
