# generated using pymatgen
data_YbCuPd2
_symmetry_space_group_name_H-M   'P 1'
_cell_length_a   4.52497853
_cell_length_b   4.52497853
_cell_length_c   4.52497853
_cell_angle_alpha   60.00000000
_cell_angle_beta   60.00000000
_cell_angle_gamma   60.00000000
_symmetry_Int_Tables_number   1
_chemical_formula_structural   YbCuPd2
_chemical_formula_sum   'Yb1 Cu1 Pd2'
_cell_volume   65.51406837
_cell_formula_units_Z   1
loop_
 _symmetry_equiv_pos_site_id
 _symmetry_equiv_pos_as_xyz
  1  'x, y, z'
loop_
 _atom_site_type_symbol
 _atom_site_label
 _atom_site_symmetry_multiplicity
 _atom_site_fract_x
 _atom_site_fract_y
 _atom_site_fract_z
 _atom_site_occupancy
  Yb  Yb0  1  0.75000100  0.75000100  0.75000100  1
  Cu  Cu0  1  0.25000100  0.25000100  0.25000100  1
  Pd  Pd0  1  0.00000000  0.00000000  0.00000000  1
  Pd  Pd1  1  0.50000000  0.50000000  0.50000000  1
loop_
_geom_bond_atom_site_label_1
_geom_bond_atom_site_label_2
_geom_bond_distance
_geom_bond_site_symmetry_2
Cu0 Pd1 2.770961 1_555
Cu0 Pd0 2.770968 1_556
Cu0 Pd0 2.770968 1_565
Cu0 Pd0 2.770968 1_655
Cu0 Pd1 2.770976 1_545
Cu0 Pd1 2.770976 1_554
Cu0 Pd1 2.770976 1_455
Cu0 Pd0 2.770983 1_555
Cu0 Yb0 3.199643 1_445
Cu0 Yb0 3.199643 1_544
Cu0 Yb0 3.199643 1_454
Cu0 Yb0 3.199643 1_455
Cu0 Yb0 3.199643 1_545
Cu0 Yb0 3.199643 1_554
Pd0 Yb0 2.770961 1_444
Pd0 Yb0 2.770976 1_544
Pd0 Yb0 2.770976 1_454
Pd0 Yb0 2.770976 1_445
Pd1 Yb0 2.770968 1_554
Pd1 Yb0 2.770968 1_455
Pd1 Yb0 2.770968 1_545
Pd1 Yb0 2.770983 1_555
