# generated using pymatgen
data_Ti3V3Ge5
_symmetry_space_group_name_H-M   'P 1'
_cell_length_a   5.05228816
_cell_length_b   7.77532884
_cell_length_c   9.47304618
_cell_angle_alpha   65.66013626
_cell_angle_beta   74.53163616
_cell_angle_gamma   90.00172053
_symmetry_Int_Tables_number   1
_chemical_formula_structural   Ti3V3Ge5
_chemical_formula_sum   'Ti6 V6 Ge10'
_cell_volume   324.20220026
_cell_formula_units_Z   2
loop_
 _symmetry_equiv_pos_site_id
 _symmetry_equiv_pos_as_xyz
  1  'x, y, z'
loop_
 _atom_site_type_symbol
 _atom_site_label
 _atom_site_symmetry_multiplicity
 _atom_site_fract_x
 _atom_site_fract_y
 _atom_site_fract_z
 _atom_site_occupancy
  Ti  Ti0  1  0.35743810  0.74683258  0.28525518  1
  Ti  Ti1  1  0.64256190  0.25316742  0.71474482  1
  Ti  Ti2  1  0.14300562  0.03430869  0.71385757  1
  Ti  Ti3  1  0.85699438  0.96569131  0.28614243  1
  Ti  Ti4  1  0.06528864  0.32332997  0.86938885  1
  Ti  Ti5  1  0.93471136  0.67667003  0.13061115  1
  V  V0  1  0.94209089  0.69046784  0.61814410  1
  V  V1  1  0.56021274  0.30953445  0.38189066  1
  V  V2  1  0.05790911  0.30953216  0.38185590  1
  V  V3  1  0.43978726  0.69046555  0.61810934  1
  V  V4  1  0.43529292  0.19186973  0.12930859  1
  V  V5  1  0.56470708  0.80813027  0.87069141  1
  Ge  Ge0  1  0.43330962  0.52426510  0.13332354  1
  Ge  Ge1  1  0.56669038  0.47573490  0.86667646  1
  Ge  Ge2  1  0.06870582  0.66594321  0.86261305  1
  Ge  Ge3  1  0.93129418  0.33405679  0.13738695  1
  Ge  Ge4  1  0.25351130  0.00000410  0.99996376  1
  Ge  Ge5  1  0.74648870  0.99999590  0.00003624  1
  Ge  Ge6  1  0.21454386  0.41714488  0.57073097  1
  Ge  Ge7  1  0.78545614  0.58285512  0.42926903  1
  Ge  Ge8  1  0.28757061  0.99041841  0.42484914  1
  Ge  Ge9  1  0.71242939  0.00958159  0.57515086  1
loop_
_geom_bond_atom_site_label_1
_geom_bond_atom_site_label_2
_geom_bond_distance
_geom_bond_site_symmetry_2
Ge0 V5 2.468703 1_554
Ge0 V2 2.511089 1_555
Ge0 V1 2.511559 1_555
Ge0 V4 2.600370 1_555
Ge0 Ti0 2.640448 1_555
Ge0 Ti5 2.785707 1_455
Ge0 Ti5 2.786058 1_555
Ge1 V4 2.468703 1_556
Ge1 V0 2.511089 1_555
Ge1 V3 2.511559 1_555
Ge1 V5 2.600370 1_555
Ge1 Ti1 2.640448 1_555
Ge1 Ti4 2.785707 1_655
Ge1 Ti4 2.786058 1_555
Ge2 Ti5 2.483611 1_456
Ge2 V0 2.497002 1_455
Ge2 V3 2.497132 1_555
Ge2 Ti2 2.592476 1_565
Ge2 Ti4 2.638068 1_555
Ge2 V5 2.770911 1_455
Ge2 V5 2.771228 1_555
Ge3 Ti4 2.483611 1_654
Ge3 V2 2.497002 1_655
Ge3 V1 2.497132 1_555
Ge3 Ti3 2.592476 1_545
Ge3 Ti5 2.638068 1_555
Ge3 V4 2.770911 1_655
Ge3 V4 2.771228 1_555
Ge4 Ge5 2.490847 1_546
Ge4 Ge5 2.561441 1_446
Ge4 V5 2.583876 1_545
Ge4 V4 2.584039 1_556
Ge4 Ti5 2.611134 1_446
Ge4 Ti4 2.611262 1_555
Ge4 Ti1 2.796676 1_555
Ge4 Ti0 2.797556 1_546
Ge4 Ti2 2.817769 1_555
Ge4 Ti3 2.817930 1_446
Ge5 V4 2.583876 1_565
Ge5 V5 2.584039 1_554
Ge5 Ti4 2.611134 1_664
Ge5 Ti5 2.611262 1_555
Ge5 Ti0 2.796676 1_555
Ge5 Ti1 2.797556 1_564
Ge5 Ti3 2.817769 1_555
Ge5 Ti2 2.817930 1_664
Ge6 Ti4 2.503183 1_555
Ge6 V2 2.552833 1_555
Ge6 V1 2.552961 1_555
Ge6 V0 2.658963 1_455
Ge6 V3 2.659188 1_555
Ge6 Ti2 2.690967 1_555
Ge6 Ti0 2.765847 1_555
Ge6 Ti1 2.881121 1_455
Ge6 Ti1 2.881504 1_555
Ge7 Ti5 2.503183 1_555
Ge7 V0 2.552833 1_555
Ge7 V3 2.552961 1_555
Ge7 V2 2.658963 1_655
Ge7 V1 2.659188 1_555
Ge7 Ti3 2.690967 1_555
Ge7 Ti1 2.765847 1_555
Ge7 Ti0 2.881121 1_655
Ge7 Ti0 2.881504 1_555
Ge8 V4 2.473707 1_565
Ge8 V0 2.571676 1_455
Ge8 V3 2.571768 1_555
Ge8 V2 2.662310 1_565
Ge8 V1 2.662330 1_565
Ge8 Ti0 2.697389 1_555
Ge8 Ti2 2.801596 1_565
Ge8 Ti3 2.868583 1_455
Ge8 Ti3 2.869128 1_555
Ge9 V5 2.473707 1_545
Ge9 V2 2.571676 1_655
Ge9 V1 2.571768 1_555
Ge9 V0 2.662310 1_545
Ge9 V3 2.662330 1_545
Ge9 Ti1 2.697389 1_555
Ge9 Ti3 2.801596 1_545
Ge9 Ti2 2.868583 1_655
Ge9 Ti2 2.869128 1_555
