# generated using pymatgen
data_Dy14Ag51
_symmetry_space_group_name_H-M   'P 1'
_cell_length_a   12.80120275
_cell_length_b   12.80120275
_cell_length_c   9.39580000
_cell_angle_alpha   90.00000000
_cell_angle_beta   90.00000000
_cell_angle_gamma   120.00000389
_symmetry_Int_Tables_number   1
_chemical_formula_structural   Dy14Ag51
_chemical_formula_sum   'Dy14 Ag51'
_cell_volume   1333.41682552
_cell_formula_units_Z   1
loop_
 _symmetry_equiv_pos_site_id
 _symmetry_equiv_pos_as_xyz
  1  'x, y, z'
loop_
 _atom_site_type_symbol
 _atom_site_label
 _atom_site_symmetry_multiplicity
 _atom_site_fract_x
 _atom_site_fract_y
 _atom_site_fract_z
 _atom_site_occupancy
  Dy  Dy0  1  0.13380800  0.47092100  0.50000000  1
  Dy  Dy1  1  0.52907900  0.66288700  0.50000000  1
  Dy  Dy2  1  0.33711300  0.86619200  0.50000000  1
  Dy  Dy3  1  0.19922900  0.19449300  0.50000000  1
  Dy  Dy4  1  0.80550700  0.00473600  0.50000000  1
  Dy  Dy5  1  0.99526400  0.80077100  0.50000000  1
  Dy  Dy6  1  0.77953300  0.71906700  0.00000000  1
  Dy  Dy7  1  0.28093300  0.06046500  0.00000000  1
  Dy  Dy8  1  0.93953500  0.22046700  0.00000000  1
  Dy  Dy9  1  0.54937400  0.93318000  0.00000000  1
  Dy  Dy10  1  0.06682000  0.61619400  0.00000000  1
  Dy  Dy11  1  0.38380600  0.45062600  0.00000000  1
  Dy  Dy12  1  0.66666700  0.33333300  0.30719300  1
  Dy  Dy13  1  0.66666700  0.33333300  0.69280700  1
  Ag  Ag0  1  0.15986500  0.44849400  0.15231000  1
  Ag  Ag1  1  0.55150600  0.71137200  0.15231000  1
  Ag  Ag2  1  0.28862800  0.84013500  0.15231000  1
  Ag  Ag3  1  0.17127100  0.21750900  0.15183500  1
  Ag  Ag4  1  0.78249100  0.95376200  0.15183500  1
  Ag  Ag5  1  0.04623800  0.82872900  0.15183500  1
  Ag  Ag6  1  0.17127100  0.21750900  0.84816500  1
  Ag  Ag7  1  0.78249100  0.95376200  0.84816500  1
  Ag  Ag8  1  0.04623800  0.82872900  0.84816500  1
  Ag  Ag9  1  0.15986500  0.44849400  0.84769000  1
  Ag  Ag10  1  0.55150600  0.71137200  0.84769000  1
  Ag  Ag11  1  0.28862800  0.84013500  0.84769000  1
  Ag  Ag12  1  0.33333300  0.66666700  0.00000000  1
  Ag  Ag13  1  0.00000000  0.00000000  0.00000000  1
  Ag  Ag14  1  0.33333300  0.66666700  0.30446000  1
  Ag  Ag15  1  0.00000000  0.00000000  0.30388800  1
  Ag  Ag16  1  0.00000000  0.00000000  0.69611200  1
  Ag  Ag17  1  0.33333300  0.66666700  0.69554000  1
  Ag  Ag18  1  0.77197500  0.77243000  0.33262300  1
  Ag  Ag19  1  0.22757000  0.99954500  0.33262300  1
  Ag  Ag20  1  0.00045500  0.22802500  0.33262300  1
  Ag  Ag21  1  0.56097000  0.89322100  0.33323500  1
  Ag  Ag22  1  0.10677900  0.66774900  0.33323500  1
  Ag  Ag23  1  0.33225100  0.43903000  0.33323500  1
  Ag  Ag24  1  0.56097000  0.89322100  0.66676500  1
  Ag  Ag25  1  0.10677900  0.66774900  0.66676500  1
  Ag  Ag26  1  0.33225100  0.43903000  0.66676500  1
  Ag  Ag27  1  0.77197500  0.77243000  0.66737700  1
  Ag  Ag28  1  0.22757000  0.99954500  0.66737700  1
  Ag  Ag29  1  0.00045500  0.22802500  0.66737700  1
  Ag  Ag30  1  0.85868700  0.60191700  0.23830800  1
  Ag  Ag31  1  0.39808300  0.25677000  0.23830800  1
  Ag  Ag32  1  0.74323000  0.14131300  0.23830800  1
  Ag  Ag33  1  0.47653400  0.06925600  0.23226800  1
  Ag  Ag34  1  0.93074400  0.40727900  0.23226800  1
  Ag  Ag35  1  0.59272100  0.52346600  0.23226800  1
  Ag  Ag36  1  0.47653400  0.06925600  0.76773200  1
  Ag  Ag37  1  0.93074400  0.40727900  0.76773200  1
  Ag  Ag38  1  0.59272100  0.52346600  0.76773200  1
  Ag  Ag39  1  0.85868700  0.60191700  0.76169200  1
  Ag  Ag40  1  0.39808300  0.25677000  0.76169200  1
  Ag  Ag41  1  0.74323000  0.14131300  0.76169200  1
  Ag  Ag42  1  0.72640300  0.57101000  0.50000000  1
  Ag  Ag43  1  0.42899000  0.15539300  0.50000000  1
  Ag  Ag44  1  0.84460700  0.27359700  0.50000000  1
  Ag  Ag45  1  0.60621000  0.09486800  0.50000000  1
  Ag  Ag46  1  0.90513200  0.51134200  0.50000000  1
  Ag  Ag47  1  0.48865800  0.39379000  0.50000000  1
  Ag  Ag48  1  0.80186400  0.44813000  0.00000000  1
  Ag  Ag49  1  0.55187000  0.35373400  0.00000000  1
  Ag  Ag50  1  0.64626600  0.19813600  0.00000000  1
loop_
_geom_bond_atom_site_label_1
_geom_bond_atom_site_label_2
_geom_bond_distance
_geom_bond_site_symmetry_2
Ag0 Ag34 2.810326 1_455
Ag0 Ag23 2.835761 1_555
Ag0 Ag9 2.862149 1_554
Ag0 Ag14 2.927974 1_555
Ag0 Ag12 2.928709 1_555
Ag0 Ag3 3.032532 1_555
Ag0 Ag20 3.039809 1_555
Ag0 Dy11 3.191948 1_555
Ag0 Dy8 3.207919 1_455
Ag0 Dy10 3.260710 1_555
Ag0 Dy0 3.310830 1_555
Ag1 Ag35 2.810326 1_555
Ag1 Ag21 2.835751 1_555
Ag1 Ag10 2.862149 1_554
Ag1 Ag14 2.927974 1_555
Ag1 Ag12 2.928709 1_555
Ag1 Ag4 3.032525 1_555
Ag1 Ag18 3.039812 1_555
Ag1 Dy9 3.191936 1_555
Ag1 Dy6 3.207930 1_555
Ag1 Dy11 3.260719 1_555
Ag1 Dy1 3.310832 1_555
Ag2 Ag33 2.810326 1_565
Ag2 Ag22 2.835756 1_555
Ag2 Ag5 3.032519 1_555
Ag2 Dy10 3.191942 1_555
Ag2 Dy7 3.207907 1_565
Ag2 Dy9 3.260721 1_555
Ag2 Dy2 3.310832 1_555
Ag3 Ag31 2.807774 1_555
Ag3 Ag6 2.853223 1_554
Ag3 Dy11 3.197452 1_555
Ag3 Dy7 3.296900 1_555
Ag3 Dy8 3.308943 1_455
Ag3 Dy3 3.319891 1_555
Ag4 Ag7 2.853223 1_554
Ag4 Dy9 3.197452 1_555
Ag4 Dy8 3.296890 1_565
Ag4 Dy6 3.308954 1_555
Ag4 Dy4 3.319891 1_565
Ag5 Ag8 2.853223 1_554
Ag5 Dy10 3.197452 1_555
Ag5 Dy6 3.296889 1_455
Ag5 Dy7 3.308949 1_565
Ag5 Dy5 3.319891 1_455
Ag6 Ag9 3.032532 1_555
Ag6 Dy11 3.197452 1_556
Ag6 Dy7 3.296900 1_556
Ag6 Dy8 3.308943 1_456
Ag6 Dy3 3.319891 1_555
Ag7 Dy9 3.197452 1_556
Ag7 Dy8 3.296890 1_566
Ag7 Dy6 3.308954 1_556
Ag7 Dy4 3.319891 1_565
Ag8 Dy10 3.197452 1_556
Ag8 Dy6 3.296889 1_456
Ag8 Dy7 3.308949 1_566
Ag8 Dy5 3.319891 1_455
Ag9 Dy11 3.191948 1_556
Ag9 Dy8 3.207919 1_456
Ag9 Dy10 3.260710 1_556
Ag9 Dy0 3.310830 1_555
Ag10 Ag38 2.810326 1_555
Ag10 Ag24 2.835751 1_555
Ag10 Ag17 2.927974 1_555
Ag10 Ag12 2.928709 1_556
Ag10 Ag7 3.032525 1_555
Ag10 Ag27 3.039812 1_555
Ag10 Dy9 3.191936 1_556
Ag10 Dy6 3.207930 1_556
Ag10 Dy11 3.260719 1_556
Ag10 Dy1 3.310832 1_555
Ag11 Ag36 2.810326 1_565
Ag11 Ag25 2.835756 1_555
Ag11 Ag2 2.862149 1_556
Ag11 Ag17 2.927975 1_555
Ag11 Ag12 2.928709 1_556
Ag11 Ag8 3.032519 1_555
Ag11 Ag28 3.039801 1_555
Ag11 Dy10 3.191942 1_556
Ag11 Dy7 3.207907 1_566
Ag11 Dy9 3.260721 1_556
Ag11 Dy2 3.310832 1_555
Ag12 Ag17 2.860645 1_554
Ag12 Ag14 2.860645 1_555
Ag12 Ag9 2.928709 1_554
Ag12 Ag2 2.928709 1_555
Ag12 Dy10 3.138906 1_555
Ag12 Dy9 3.138910 1_555
Ag12 Dy11 3.138919 1_555
Ag13 Ag15 2.855271 1_555
Ag13 Ag16 2.855271 1_554
Ag13 Ag6 2.913802 1_554
Ag13 Ag3 2.913802 1_555
Ag13 Ag4 2.913802 1_445
Ag13 Ag7 2.913802 1_444
Ag13 Ag5 2.913802 1_545
Ag13 Ag8 2.913802 1_544
Ag13 Dy8 3.278514 1_455
Ag13 Dy6 3.278522 1_445
Ag13 Dy7 3.278527 1_555
Ag14 Ag22 2.919659 1_555
Ag14 Ag21 2.919665 1_555
Ag14 Ag23 2.919672 1_555
Ag14 Ag2 2.927975 1_555
Ag14 Dy2 3.126977 1_555
Ag14 Dy0 3.126982 1_555
Ag14 Dy1 3.126988 1_555
Ag15 Ag3 2.914806 1_555
Ag15 Ag4 2.914806 1_445
Ag15 Ag5 2.914806 1_545
Ag15 Ag18 2.928558 1_445
Ag15 Ag20 2.928558 1_555
Ag15 Ag19 2.928558 1_545
Ag15 Dy3 3.122295 1_555
Ag15 Dy5 3.122295 1_445
Ag15 Dy4 3.122295 1_455
Ag16 Ag6 2.914806 1_555
Ag16 Ag7 2.914806 1_445
Ag16 Ag8 2.914806 1_545
Ag16 Ag27 2.928558 1_445
Ag16 Ag29 2.928558 1_555
Ag16 Ag28 2.928558 1_545
Ag16 Dy3 3.122295 1_555
Ag16 Dy5 3.122295 1_445
Ag16 Dy4 3.122295 1_455
Ag17 Ag25 2.919659 1_555
Ag17 Ag24 2.919665 1_555
Ag17 Ag26 2.919672 1_555
Ag17 Ag9 2.927974 1_555
Ag17 Dy2 3.126977 1_555
Ag17 Dy0 3.126982 1_555
Ag17 Dy1 3.126988 1_555
Ag18 Ag42 2.820918 1_555
Ag18 Ag4 2.824770 1_555
Ag18 Ag35 2.999768 1_555
Ag18 Ag30 3.033947 1_555
Ag18 Dy5 3.120589 1_555
Ag18 Dy1 3.122102 1_555
Ag18 Ag27 3.145282 1_555
Ag18 Dy4 3.197564 1_565
Ag18 Dy6 3.210816 1_555
Ag19 Ag43 2.820918 1_565
Ag19 Ag5 2.824770 1_555
Ag19 Ag33 2.999765 1_565
Ag19 Ag31 3.033947 1_565
Ag19 Ag2 3.039801 1_555
Ag19 Dy3 3.120589 1_565
Ag19 Dy2 3.122102 1_555
Ag19 Ag28 3.145282 1_555
Ag19 Dy5 3.197564 1_455
Ag19 Dy7 3.210814 1_565
Ag20 Ag44 2.820918 1_455
Ag20 Ag3 2.824770 1_555
Ag20 Ag34 2.999777 1_455
Ag20 Ag32 3.033947 1_455
Ag20 Dy4 3.120589 1_455
Ag20 Dy0 3.122102 1_555
Ag20 Ag29 3.145282 1_555
Ag20 Dy3 3.197564 1_555
Ag20 Dy8 3.210813 1_455
Ag21 Ag45 2.821144 1_565
Ag21 Ag32 2.985882 1_565
Ag21 Ag4 3.057663 1_555
Ag21 Ag33 3.095493 1_565
Ag21 Dy2 3.129733 1_555
Ag21 Ag24 3.133781 1_555
Ag21 Dy4 3.134246 1_565
Ag21 Dy1 3.179944 1_555
Ag21 Dy9 3.187921 1_555
Ag22 Ag46 2.821144 1_455
Ag22 Ag30 2.985882 1_455
Ag22 Ag5 3.057663 1_555
Ag22 Ag34 3.095484 1_455
Ag22 Dy0 3.129733 1_555
Ag22 Ag25 3.133781 1_555
Ag22 Dy5 3.134246 1_455
Ag22 Dy2 3.179944 1_555
Ag22 Dy10 3.187921 1_555
Ag23 Ag47 2.821144 1_555
Ag23 Ag31 2.985882 1_555
Ag23 Ag3 3.057662 1_555
Ag23 Ag35 3.095482 1_555
Ag23 Dy1 3.129733 1_555
Ag23 Ag26 3.133781 1_555
Ag23 Dy3 3.134246 1_555
Ag23 Dy0 3.179944 1_555
Ag23 Dy11 3.187921 1_555
Ag24 Ag45 2.821144 1_565
Ag24 Ag41 2.985882 1_565
Ag24 Ag7 3.057663 1_555
Ag24 Ag36 3.095493 1_565
Ag24 Dy2 3.129733 1_555
Ag24 Dy4 3.134246 1_565
Ag24 Dy1 3.179944 1_555
Ag24 Dy9 3.187921 1_556
Ag25 Ag46 2.821144 1_455
Ag25 Ag39 2.985882 1_455
Ag25 Ag8 3.057663 1_555
Ag25 Ag37 3.095484 1_455
Ag25 Dy0 3.129733 1_555
Ag25 Dy5 3.134246 1_455
Ag25 Dy2 3.179944 1_555
Ag25 Dy10 3.187921 1_556
Ag26 Ag47 2.821144 1_555
Ag26 Ag9 2.835761 1_555
Ag26 Ag40 2.985882 1_555
Ag26 Ag6 3.057662 1_555
Ag26 Ag38 3.095482 1_555
Ag26 Dy1 3.129733 1_555
Ag26 Dy3 3.134246 1_555
Ag26 Dy0 3.179944 1_555
Ag26 Dy11 3.187921 1_556
Ag27 Ag42 2.820918 1_555
Ag27 Ag7 2.824770 1_555
Ag27 Ag38 2.999768 1_555
Ag27 Ag39 3.033947 1_555
Ag27 Dy5 3.120589 1_555
Ag27 Dy1 3.122102 1_555
Ag27 Dy4 3.197564 1_565
Ag27 Dy6 3.210816 1_556
Ag28 Ag43 2.820918 1_565
Ag28 Ag8 2.824770 1_555
Ag28 Ag36 2.999765 1_565
Ag28 Ag40 3.033947 1_565
Ag28 Dy3 3.120589 1_565
Ag28 Dy2 3.122102 1_555
Ag28 Dy5 3.197564 1_455
Ag28 Dy7 3.210814 1_566
Ag29 Ag44 2.820918 1_455
Ag29 Ag6 2.824770 1_555
Ag29 Ag37 2.999777 1_455
Ag29 Ag41 3.033947 1_455
Ag29 Ag9 3.039809 1_555
Ag29 Dy4 3.120589 1_455
Ag29 Dy0 3.122102 1_555
Ag29 Dy3 3.197564 1_555
Ag29 Dy8 3.210813 1_456
Ag30 Ag5 2.807774 1_655
Ag30 Ag48 2.825998 1_555
Ag30 Ag42 2.898251 1_555
Ag30 Ag46 2.903954 1_555
Ag30 Ag35 3.030584 1_555
Ag30 Ag34 3.059483 1_555
Ag30 Dy6 3.131899 1_555
Ag30 Dy12 3.135429 1_555
Ag30 Dy5 3.336440 1_555
Ag30 Dy10 3.414495 1_655
Ag31 Ag49 2.825998 1_555
Ag31 Ag43 2.898251 1_555
Ag31 Ag47 2.903954 1_555
Ag31 Ag33 3.030572 1_555
Ag31 Ag35 3.059492 1_555
Ag31 Dy7 3.131906 1_555
Ag31 Dy12 3.135432 1_555
Ag31 Dy3 3.336440 1_555
Ag31 Dy11 3.414495 1_555
Ag32 Ag4 2.807774 1_545
Ag32 Ag50 2.825998 1_555
Ag32 Ag44 2.898251 1_555
Ag32 Ag45 2.903954 1_555
Ag32 Ag34 3.030581 1_555
Ag32 Ag33 3.059496 1_555
Ag32 Dy8 3.131907 1_555
Ag32 Dy12 3.135420 1_555
Ag32 Dy4 3.336440 1_555
Ag32 Dy9 3.414495 1_545
Ag33 Ag43 2.930084 1_555
Ag33 Ag50 2.936118 1_555
Ag33 Ag45 2.940559 1_555
Ag33 Dy12 3.101532 1_555
Ag33 Dy9 3.207906 1_545
Ag33 Dy7 3.280726 1_555
Ag33 Dy2 3.410452 1_545
Ag34 Ag44 2.930089 1_555
Ag34 Ag48 2.936112 1_555
Ag34 Ag46 2.940553 1_555
Ag34 Dy12 3.101526 1_555
Ag34 Dy10 3.207899 1_655
Ag34 Dy8 3.280745 1_555
Ag34 Dy0 3.410453 1_655
Ag35 Ag42 2.930091 1_555
Ag35 Ag49 2.936120 1_555
Ag35 Ag47 2.940557 1_555
Ag35 Dy12 3.101550 1_555
Ag35 Dy11 3.207897 1_555
Ag35 Dy6 3.280735 1_555
Ag35 Dy1 3.410445 1_555
Ag36 Ag43 2.930084 1_555
Ag36 Ag50 2.936118 1_556
Ag36 Ag45 2.940559 1_555
Ag36 Ag40 3.030572 1_555
Ag36 Ag41 3.059496 1_555
Ag36 Dy13 3.101532 1_555
Ag36 Dy9 3.207906 1_546
Ag36 Dy7 3.280726 1_556
Ag36 Dy2 3.410452 1_545
Ag37 Ag9 2.810326 1_655
Ag37 Ag44 2.930089 1_555
Ag37 Ag48 2.936112 1_556
Ag37 Ag46 2.940553 1_555
Ag37 Ag41 3.030581 1_555
Ag37 Ag39 3.059483 1_555
Ag37 Dy13 3.101526 1_555
Ag37 Dy10 3.207899 1_656
Ag37 Dy8 3.280745 1_556
Ag37 Dy0 3.410453 1_655
Ag38 Ag42 2.930091 1_555
Ag38 Ag49 2.936120 1_556
Ag38 Ag47 2.940557 1_555
Ag38 Ag39 3.030584 1_555
Ag38 Ag40 3.059492 1_555
Ag38 Dy13 3.101550 1_555
Ag38 Dy11 3.207897 1_556
Ag38 Dy6 3.280735 1_556
Ag38 Dy1 3.410445 1_555
Ag39 Ag8 2.807774 1_655
Ag39 Ag48 2.825998 1_556
Ag39 Ag42 2.898251 1_555
Ag39 Ag46 2.903954 1_555
Ag39 Dy6 3.131899 1_556
Ag39 Dy13 3.135429 1_555
Ag39 Dy5 3.336440 1_555
Ag39 Dy10 3.414495 1_656
Ag40 Ag6 2.807774 1_555
Ag40 Ag49 2.825998 1_556
Ag40 Ag43 2.898251 1_555
Ag40 Ag47 2.903954 1_555
Ag40 Dy7 3.131906 1_556
Ag40 Dy13 3.135432 1_555
Ag40 Dy3 3.336440 1_555
Ag40 Dy11 3.414495 1_556
Ag41 Ag7 2.807774 1_545
Ag41 Ag50 2.825998 1_556
Ag41 Ag44 2.898251 1_555
Ag41 Ag45 2.903954 1_555
Ag41 Dy8 3.131907 1_556
Ag41 Dy13 3.135420 1_555
Ag41 Dy4 3.336440 1_555
Ag41 Dy9 3.414495 1_546
Ag42 Ag47 2.739471 1_555
Ag42 Ag46 2.750583 1_555
Ag42 Dy5 3.220783 1_555
Ag42 Dy1 3.276400 1_555
Ag42 Dy13 3.285889 1_555
Ag42 Dy12 3.285889 1_555
Ag43 Ag45 2.739471 1_555
Ag43 Ag47 2.750583 1_555
Ag43 Dy3 3.220783 1_555
Ag43 Dy2 3.276400 1_545
Ag43 Dy13 3.285886 1_555
Ag43 Dy12 3.285886 1_555
Ag44 Ag46 2.739471 1_555
Ag44 Ag45 2.750583 1_555
Ag44 Dy4 3.220783 1_555
Ag44 Dy0 3.276400 1_655
Ag44 Dy13 3.285878 1_555
Ag44 Dy12 3.285878 1_555
Ag45 Dy2 3.217405 1_545
Ag45 Dy4 3.283854 1_555
Ag45 Dy12 3.291939 1_555
Ag45 Dy13 3.291939 1_555
Ag46 Dy0 3.217406 1_655
Ag46 Dy5 3.283854 1_555
Ag46 Dy12 3.291942 1_555
Ag46 Dy13 3.291942 1_555
Ag47 Dy1 3.217406 1_555
Ag47 Dy3 3.283854 1_555
Ag47 Dy12 3.291949 1_555
Ag47 Dy13 3.291949 1_555
Ag48 Ag50 2.799022 1_555
Ag48 Ag49 2.799022 1_555
Ag48 Dy10 2.972461 1_655
Ag48 Dy13 3.307926 1_554
Ag48 Dy12 3.307926 1_555
Ag48 Dy6 3.619727 1_555
Ag49 Ag50 2.799023 1_555
Ag49 Dy11 2.972461 1_555
Ag49 Dy12 3.307929 1_555
Ag49 Dy13 3.307929 1_554
Ag49 Dy7 3.619734 1_555
Ag50 Dy9 2.972461 1_545
Ag50 Dy12 3.307923 1_555
Ag50 Dy13 3.307923 1_554
Ag50 Dy8 3.619740 1_555
