# generated using pymatgen
data_NaFePO4
_symmetry_space_group_name_H-M   'P 1'
_cell_length_a   5.00123442
_cell_length_b   6.81942858
_cell_length_c   8.93636781
_cell_angle_alpha   90.00000000
_cell_angle_beta   90.00000000
_cell_angle_gamma   90.00000000
_symmetry_Int_Tables_number   1
_chemical_formula_structural   NaFePO4
_chemical_formula_sum   'Na4 Fe4 P4 O16'
_cell_volume   304.77983692
_cell_formula_units_Z   4
loop_
 _symmetry_equiv_pos_site_id
 _symmetry_equiv_pos_as_xyz
  1  'x, y, z'
loop_
 _atom_site_type_symbol
 _atom_site_label
 _atom_site_symmetry_multiplicity
 _atom_site_fract_x
 _atom_site_fract_y
 _atom_site_fract_z
 _atom_site_occupancy
  Na  Na0  1  0.46534053  0.75000000  0.15072827  1
  Na  Na1  1  0.96534053  0.25000000  0.34927173  1
  Na  Na2  1  0.53465947  0.25000000  0.84927173  1
  Na  Na3  1  0.03465947  0.75000000  0.65072827  1
  Fe  Fe0  1  0.50000000  0.50000000  0.50000000  1
  Fe  Fe1  1  0.00000000  0.50000000  -0.00000000  1
  Fe  Fe2  1  0.50000000  0.00000000  0.50000000  1
  Fe  Fe3  1  0.00000000  0.00000000  -0.00000000  1
  P  P0  1  0.96408807  0.75000000  0.32495394  1
  P  P1  1  0.46408807  0.25000000  0.17504606  1
  P  P2  1  0.03591193  0.25000000  0.67504606  1
  P  P3  1  0.53591193  0.75000000  0.82495394  1
  O  O0  1  0.25192836  0.75000000  0.38571388  1
  O  O1  1  0.75192836  0.25000000  0.11428612  1
  O  O2  1  0.74807164  0.25000000  0.61428612  1
  O  O3  1  0.24807164  0.75000000  0.88571388  1
  O  O4  1  0.95465863  0.75000000  0.15174609  1
  O  O5  1  0.45465863  0.25000000  0.34825391  1
  O  O6  1  0.04534137  0.25000000  0.84825391  1
  O  O7  1  0.54534137  0.75000000  0.65174609  1
  O  O8  1  0.18350723  0.43294386  0.62021255  1
  O  O9  1  0.68350723  0.56705614  0.87978745  1
  O  O10  1  0.81649277  0.93294386  0.37978745  1
  O  O11  1  0.31649277  0.06705614  0.12021255  1
  O  O12  1  0.68350723  0.93294386  0.87978745  1
  O  O13  1  0.18350723  0.06705614  0.62021255  1
  O  O14  1  0.31649277  0.43294386  0.12021255  1
  O  O15  1  0.81649277  0.56705614  0.37978745  1
loop_
_geom_bond_atom_site_label_1
_geom_bond_atom_site_label_2
_geom_bond_distance
_geom_bond_site_symmetry_2
Na0 O14 2.302908 1_555
Na0 O11 2.302908 1_565
Na0 O0 2.355597 1_555
Na0 O4 2.447211 1_555
Na0 O4 2.554056 1_455
Na0 O3 2.605650 1_554
Na1 O10 2.302908 1_545
Na1 O15 2.302908 1_555
Na1 O1 2.355597 1_555
Na1 O5 2.447211 1_655
Na1 O5 2.554056 1_555
Na1 O2 2.605650 1_555
Na2 O12 2.302908 1_545
Na2 O9 2.302908 1_555
Na2 O2 2.355597 1_555
Na2 O6 2.447211 1_555
Na2 O6 2.554056 1_655
Na2 O1 2.605650 1_556
Na3 O8 2.302908 1_555
Na3 O13 2.302908 1_565
Na3 O3 2.355597 1_555
Na3 O7 2.447211 1_455
Na3 O7 2.554056 1_555
Na3 O0 2.605650 1_555
Fe0 O15 1.966871 1_555
Fe0 O8 1.966871 1_555
Fe0 O5 2.190172 1_555
Fe0 O7 2.190172 1_555
Fe0 O0 2.342829 1_555
Fe0 O2 2.342829 1_555
Fe1 O9 1.966871 1_454
Fe1 O14 1.966871 1_555
Fe1 O6 2.190172 1_554
Fe1 O4 2.190172 1_455
Fe1 O3 2.342829 1_554
Fe1 O1 2.342829 1_455
Fe2 O10 1.966871 1_545
Fe2 O13 1.966871 1_555
Fe2 O5 2.190172 1_555
Fe2 O7 2.190172 1_545
Fe2 O0 2.342829 1_545
Fe2 O2 2.342829 1_555
Fe3 O12 1.966871 1_444
Fe3 O11 1.966871 1_555
Fe3 O6 2.190172 1_554
Fe3 O4 2.190172 1_445
Fe3 O3 2.342829 1_544
Fe3 O1 2.342829 1_455
O0 P0 1.538552 1_455
O1 P1 1.538552 1_555
O2 P2 1.538552 1_655
O3 P3 1.538552 1_555
O4 P0 1.548567 1_555
O5 P1 1.548567 1_555
O6 P2 1.548567 1_555
O7 P3 1.548567 1_555
O8 P2 1.530172 1_555
O9 P3 1.530172 1_555
O10 P0 1.530172 1_555
O11 P1 1.530172 1_555
O12 P3 1.530172 1_555
O13 P2 1.530172 1_555
O14 P1 1.530172 1_555
O15 P0 1.530172 1_555
