# generated using pymatgen
data_Mg6FeCo
_symmetry_space_group_name_H-M   'P 1'
_cell_length_a   4.62710700
_cell_length_b   5.84605000
_cell_length_c   10.17396600
_cell_angle_alpha   90.00000000
_cell_angle_beta   90.00000000
_cell_angle_gamma   90.00000000
_symmetry_Int_Tables_number   1
_chemical_formula_structural   Mg6FeCo
_chemical_formula_sum   'Mg12 Fe2 Co2'
_cell_volume   275.20882107
_cell_formula_units_Z   2
loop_
 _symmetry_equiv_pos_site_id
 _symmetry_equiv_pos_as_xyz
  1  'x, y, z'
loop_
 _atom_site_type_symbol
 _atom_site_label
 _atom_site_symmetry_multiplicity
 _atom_site_fract_x
 _atom_site_fract_y
 _atom_site_fract_z
 _atom_site_occupancy
  Mg  Mg0  1  0.50000000  0.24950600  0.41822300  1
  Mg  Mg1  1  0.50000000  0.75049400  0.41822300  1
  Mg  Mg2  1  0.00000000  0.75107000  0.08907800  1
  Mg  Mg3  1  0.00000000  0.24893000  0.08907800  1
  Mg  Mg4  1  0.00000000  0.00000000  0.32262600  1
  Mg  Mg5  1  0.00000000  0.50000000  0.32280000  1
  Mg  Mg6  1  0.50000000  0.74950600  0.91822300  1
  Mg  Mg7  1  0.50000000  0.25049400  0.91822300  1
  Mg  Mg8  1  0.00000000  0.25107000  0.58907800  1
  Mg  Mg9  1  0.00000000  0.74893000  0.58907800  1
  Mg  Mg10  1  0.00000000  0.50000000  0.82262600  1
  Mg  Mg11  1  0.00000000  0.00000000  0.82280000  1
  Fe  Fe0  1  0.50000000  0.00000000  0.16986600  1
  Fe  Fe1  1  0.50000000  0.50000000  0.66986600  1
  Co  Co0  1  0.50000000  0.50000000  0.17010300  1
  Co  Co1  1  0.50000000  0.00000000  0.67010300  1
loop_
_geom_bond_atom_site_label_1
_geom_bond_atom_site_label_2
_geom_bond_distance
_geom_bond_site_symmetry_2
Mg0 Mg8 2.893822 1_655
Mg0 Mg8 2.893822 1_555
Mg0 Mg4 2.902769 1_555
Mg0 Mg4 2.902769 1_655
Mg0 Mg5 2.905083 1_555
Mg0 Mg5 2.905083 1_655
Mg0 Mg1 2.917249 1_545
Mg0 Mg1 2.928801 1_555
Mg1 Mg9 2.893822 1_555
Mg1 Mg9 2.893822 1_655
Mg1 Mg4 2.902769 1_565
Mg1 Mg4 2.902769 1_665
Mg1 Mg5 2.905083 1_555
Mg1 Mg5 2.905083 1_655
Mg2 Mg4 2.786336 1_565
Mg2 Mg5 2.794397 1_555
Mg2 Mg6 2.893822 1_554
Mg2 Mg6 2.893822 1_454
Mg2 Mg3 2.910514 1_565
Mg2 Mg3 2.935536 1_555
Mg3 Mg4 2.786336 1_555
Mg3 Mg5 2.794397 1_555
Mg3 Mg7 2.893822 1_454
Mg3 Mg7 2.893822 1_554
Mg4 Mg9 3.082722 1_545
Mg4 Mg8 3.082722 1_555
Mg5 Mg8 3.075226 1_555
Mg5 Mg9 3.075226 1_555
Mg6 Mg7 2.917249 1_555
Mg6 Mg7 2.928801 1_565
Mg8 Mg9 2.910514 1_555
Mg8 Mg9 2.935536 1_545
Mg10 Mg8 2.786336 1_555
Mg10 Mg9 2.786336 1_555
Mg10 Mg6 2.902769 1_555
Mg10 Mg7 2.902769 1_455
Mg10 Mg7 2.902769 1_555
Mg10 Mg6 2.902769 1_455
Mg10 Mg3 3.082722 1_556
Mg10 Mg2 3.082722 1_556
Mg11 Mg9 2.794397 1_545
Mg11 Mg8 2.794397 1_555
Mg11 Mg7 2.905083 1_455
Mg11 Mg6 2.905083 1_545
Mg11 Mg7 2.905083 1_555
Mg11 Mg6 2.905083 1_445
Mg11 Mg2 3.075226 1_546
Mg11 Mg3 3.075226 1_556
Fe0 Mg4 2.787111 1_555
Fe0 Mg4 2.787111 1_655
Fe0 Mg2 2.854099 1_545
Fe0 Mg3 2.854099 1_555
Fe0 Mg3 2.854099 1_655
Fe0 Mg2 2.854099 1_645
Fe0 Mg0 2.917564 1_555
Fe0 Mg1 2.917564 1_545
Fe0 Mg7 2.949429 1_554
Fe0 Mg6 2.949429 1_544
Fe1 Mg10 2.787111 1_655
Fe1 Mg10 2.787111 1_555
Fe1 Mg9 2.854099 1_555
Fe1 Mg8 2.854099 1_655
Fe1 Mg9 2.854099 1_655
Fe1 Mg8 2.854099 1_555
Fe1 Mg6 2.917564 1_555
Fe1 Mg7 2.917564 1_555
Fe1 Mg1 2.949429 1_555
Fe1 Mg0 2.949429 1_555
Co0 Mg5 2.786754 1_555
Co0 Mg5 2.786754 1_655
Co0 Mg2 2.861192 1_655
Co0 Mg3 2.861192 1_555
Co0 Mg3 2.861192 1_655
Co0 Mg2 2.861192 1_555
Co0 Mg1 2.918370 1_555
Co0 Mg0 2.918370 1_555
Co0 Fe0 2.923026 1_555
Co0 Fe0 2.923026 1_565
Co0 Mg7 2.948661 1_554
Co0 Mg6 2.948661 1_554
Co1 Mg11 2.786754 1_655
Co1 Mg11 2.786754 1_555
Co1 Mg9 2.861192 1_545
Co1 Mg8 2.861192 1_655
Co1 Mg9 2.861192 1_645
Co1 Mg8 2.861192 1_555
Co1 Mg6 2.918370 1_545
Co1 Mg7 2.918370 1_555
Co1 Fe1 2.923026 1_545
Co1 Fe1 2.923026 1_555
Co1 Mg0 2.948661 1_555
Co1 Mg1 2.948661 1_545
