# generated using pymatgen
data_Ca2Mg5(SiO3)8
_symmetry_space_group_name_H-M   'P 1'
_cell_length_a   10.46230637
_cell_length_b   10.46230637
_cell_length_c   5.33518717
_cell_angle_alpha   83.09847166
_cell_angle_beta   83.09847166
_cell_angle_gamma   122.92274113
_symmetry_Int_Tables_number   1
_chemical_formula_structural   Ca2Mg5(SiO3)8
_chemical_formula_sum   'Ca2 Mg5 Si8 O24'
_cell_volume   474.44385352
_cell_formula_units_Z   1
loop_
 _symmetry_equiv_pos_site_id
 _symmetry_equiv_pos_as_xyz
  1  'x, y, z'
loop_
 _atom_site_type_symbol
 _atom_site_label
 _atom_site_symmetry_multiplicity
 _atom_site_fract_x
 _atom_site_fract_y
 _atom_site_fract_z
 _atom_site_occupancy
  Ca  Ca0  1  0.72145800  0.27854200  0.50000000  1
  Ca  Ca1  1  0.27854200  0.72145800  0.50000000  1
  Mg  Mg0  1  0.90612100  0.09387900  0.50000000  1
  Mg  Mg1  1  0.09387900  0.90612100  0.50000000  1
  Mg  Mg2  1  0.82210300  0.17789700  0.00000000  1
  Mg  Mg3  1  0.17789700  0.82210300  0.00000000  1
  Mg  Mg4  1  0.00000000  0.00000000  0.00000000  1
  Si  Si0  1  0.19517800  0.36270400  0.70676400  1
  Si  Si1  1  0.36270400  0.19517800  0.70676400  1
  Si  Si2  1  0.80482200  0.63729600  0.29323600  1
  Si  Si3  1  0.63729600  0.80482200  0.29323600  1
  Si  Si4  1  0.11807000  0.45943900  0.19765000  1
  Si  Si5  1  0.45943900  0.11807000  0.19765000  1
  Si  Si6  1  0.88193000  0.54056100  0.80235000  1
  Si  Si7  1  0.54056100  0.88193000  0.80235000  1
  O  O0  1  0.02377300  0.19865200  0.78867600  1
  O  O1  1  0.19865200  0.02377300  0.78867600  1
  O  O2  1  0.97622700  0.80134800  0.21132400  1
  O  O3  1  0.80134800  0.97622700  0.21132400  1
  O  O4  1  0.94669800  0.29211600  0.27636000  1
  O  O5  1  0.29211600  0.94669800  0.27636000  1
  O  O6  1  0.05330200  0.70788400  0.72364000  1
  O  O7  1  0.70788400  0.05330200  0.72364000  1
  O  O8  1  0.08544900  0.08544900  0.31920400  1
  O  O9  1  0.91455100  0.91455100  0.68079600  1
  O  O10  1  0.12139100  0.61415000  0.20584100  1
  O  O11  1  0.61415000  0.12139100  0.20584100  1
  O  O12  1  0.87860900  0.38585000  0.79415900  1
  O  O13  1  0.38585000  0.87860900  0.79415900  1
  O  O14  1  0.21260300  0.47791100  0.90556000  1
  O  O15  1  0.47791100  0.21260300  0.90556000  1
  O  O16  1  0.78739700  0.52208900  0.09444000  1
  O  O17  1  0.52208900  0.78739700  0.09444000  1
  O  O18  1  0.22244800  0.46230500  0.41786200  1
  O  O19  1  0.46230500  0.22244800  0.41786200  1
  O  O20  1  0.77755200  0.53769500  0.58213800  1
  O  O21  1  0.53769500  0.77755200  0.58213800  1
  O  O22  1  0.33391800  0.33391800  0.70529100  1
  O  O23  1  0.66608200  0.66608200  0.29470900  1
loop_
_geom_bond_atom_site_label_1
_geom_bond_atom_site_label_2
_geom_bond_distance
_geom_bond_site_symmetry_2
Ca0 O11 2.337468 1_555
Ca0 O12 2.337468 1_555
Ca0 O4 2.432447 1_555
Ca0 O7 2.432447 1_555
Ca0 O20 2.550588 1_555
Ca0 O19 2.550588 1_555
Ca0 O15 2.838270 1_555
Ca0 O16 2.838270 1_555
Ca1 O10 2.337468 1_555
Ca1 O13 2.337468 1_555
Ca1 O5 2.432447 1_555
Ca1 O6 2.432447 1_555
Ca1 O21 2.550588 1_555
Ca1 O18 2.550588 1_555
Ca1 O14 2.838270 1_555
Ca1 O17 2.838270 1_555
Mg0 O9 2.055153 1_545
Mg0 O8 2.055153 1_655
Mg0 O7 2.057147 1_555
Mg0 O4 2.057147 1_555
Mg0 O0 2.117405 1_655
Mg0 O3 2.117405 1_545
Mg1 O9 2.055153 1_455
Mg1 O8 2.055153 1_565
Mg1 O6 2.057147 1_555
Mg1 O5 2.057147 1_555
Mg1 O1 2.117405 1_565
Mg1 O2 2.117405 1_455
Mg2 O11 2.039776 1_555
Mg2 O12 2.039776 1_554
Mg2 O4 2.119734 1_555
Mg2 O7 2.119734 1_554
Mg2 O3 2.154427 1_545
Mg2 O0 2.154427 1_654
Mg3 O10 2.039776 1_555
Mg3 O13 2.039776 1_554
Mg3 O5 2.119734 1_555
Mg3 O6 2.119734 1_554
Mg3 O2 2.154427 1_455
Mg3 O1 2.154427 1_564
Mg4 O8 2.088473 1_555
Mg4 O9 2.088473 1_444
Mg4 O2 2.111903 1_445
Mg4 O3 2.111903 1_445
Mg4 O1 2.111903 1_554
Mg4 O0 2.111903 1_554
O0 Si0 1.624317 1_555
O1 Si1 1.624317 1_555
O2 Si2 1.624317 1_555
O3 Si3 1.624317 1_555
O4 Si4 1.638936 1_655
O5 Si5 1.638936 1_565
O6 Si6 1.638936 1_455
O7 Si7 1.638936 1_545
O10 Si4 1.606027 1_555
O11 Si5 1.606027 1_555
O12 Si6 1.606027 1_555
O13 Si7 1.606027 1_555
O14 Si0 1.651000 1_555
O14 Si4 1.671361 1_556
O15 Si1 1.651000 1_555
O15 Si5 1.671361 1_556
O16 Si2 1.651000 1_555
O16 Si6 1.671361 1_554
O17 Si3 1.651000 1_555
O17 Si7 1.671361 1_554
O18 Si0 1.651715 1_555
O18 Si4 1.689667 1_555
O19 Si1 1.651715 1_555
O19 Si5 1.689667 1_555
O20 Si2 1.651715 1_555
O20 Si6 1.689667 1_555
O21 Si3 1.651715 1_555
O21 Si7 1.689667 1_555
O22 Si0 1.634245 1_555
O22 Si1 1.634245 1_555
O23 Si2 1.634245 1_555
O23 Si3 1.634245 1_555
