# generated using pymatgen
data_FeSi2C4(Cl3O2)2
_symmetry_space_group_name_H-M   'P 1'
_cell_length_a   10.10747100
_cell_length_b   8.52459500
_cell_length_c   11.90182522
_cell_angle_alpha   50.74415768
_cell_angle_beta   90.00000000
_cell_angle_gamma   90.00000000
_symmetry_Int_Tables_number   1
_chemical_formula_structural   FeSi2C4(Cl3O2)2
_chemical_formula_sum   'Fe2 Si4 C8 Cl12 O8'
_cell_volume   794.06281835
_cell_formula_units_Z   2
loop_
 _symmetry_equiv_pos_site_id
 _symmetry_equiv_pos_as_xyz
  1  'x, y, z'
loop_
 _atom_site_type_symbol
 _atom_site_label
 _atom_site_symmetry_multiplicity
 _atom_site_fract_x
 _atom_site_fract_y
 _atom_site_fract_z
 _atom_site_occupancy
  Fe  Fe0  1  0.00000000  0.50000000  0.00000000  1
  Fe  Fe1  1  0.50000000  0.50000000  0.50000000  1
  Si  Si0  1  0.84027200  0.29053600  0.00778500  1
  Si  Si1  1  0.15972800  0.70946400  0.99221500  1
  Si  Si2  1  0.34027200  0.70946400  0.49221500  1
  Si  Si3  1  0.65972800  0.29053600  0.50778500  1
  C  C0  1  0.52250900  0.68377500  0.30328000  1
  C  C1  1  0.47749100  0.31622500  0.69672000  1
  C  C2  1  0.02250900  0.31622500  0.19672000  1
  C  C3  1  0.97749100  0.68377500  0.80328000  1
  C  C4  1  0.87399200  0.62745800  0.02589400  1
  C  C5  1  0.12600800  0.37254200  0.97410600  1
  C  C6  1  0.37399200  0.37254200  0.47410600  1
  C  C7  1  0.62600800  0.62745800  0.52589400  1
  Cl  Cl0  1  0.63284000  0.26014800  0.34939100  1
  Cl  Cl1  1  0.36716000  0.73985200  0.65060900  1
  Cl  Cl2  1  0.13284000  0.73985200  0.15060900  1
  Cl  Cl3  1  0.86716000  0.26014800  0.84939100  1
  Cl  Cl4  1  0.83946900  0.99449400  0.20037300  1
  Cl  Cl5  1  0.16053100  0.00550600  0.79962700  1
  Cl  Cl6  1  0.33946900  0.00550600  0.29962700  1
  Cl  Cl7  1  0.66053100  0.99449400  0.70037300  1
  Cl  Cl8  1  0.35409400  0.61270300  0.02171000  1
  Cl  Cl9  1  0.64590600  0.38729700  0.97829000  1
  Cl  Cl10  1  0.85409400  0.38729700  0.47829000  1
  Cl  Cl11  1  0.14590600  0.61270300  0.52171000  1
  O  O0  1  0.79516600  0.70820300  0.04282600  1
  O  O1  1  0.20483400  0.29179700  0.95717400  1
  O  O2  1  0.29516600  0.29179700  0.45717400  1
  O  O3  1  0.70483400  0.70820300  0.54282600  1
  O  O4  1  0.53615600  0.79818500  0.17951300  1
  O  O5  1  0.46384400  0.20181500  0.82048700  1
  O  O6  1  0.03615600  0.20181500  0.32048700  1
  O  O7  1  0.96384400  0.79818500  0.67951300  1
loop_
_geom_bond_atom_site_label_1
_geom_bond_atom_site_label_2
_geom_bond_distance
_geom_bond_site_symmetry_2
C0 O4 1.149748 1_555
C0 Fe1 1.829153 1_555
C1 O5 1.149748 1_555
C1 Fe1 1.829153 1_555
C2 O6 1.149748 1_555
C2 Fe0 1.829153 1_555
C3 O7 1.149748 1_555
C3 Fe0 1.829153 1_656
C4 O0 1.150966 1_555
C4 Fe0 1.822475 1_655
C5 O1 1.150966 1_555
C5 Fe0 1.822475 1_556
C6 O2 1.150966 1_555
C6 Fe1 1.822475 1_555
C7 O3 1.150966 1_555
C7 Fe1 1.822475 1_555
Cl0 Si3 2.076751 1_555
Cl1 Si2 2.076751 1_555
Cl2 Si1 2.076751 1_554
Cl3 Si0 2.076751 1_556
Cl4 Si0 2.074129 1_565
Cl5 Si1 2.074129 1_545
Cl6 Si2 2.074129 1_545
Cl7 Si3 2.074129 1_565
Cl8 Si1 2.072825 1_554
Cl9 Si0 2.072825 1_556
Cl10 Si3 2.072825 1_555
Cl11 Si2 2.072825 1_555
