# generated using pymatgen
data_Yb3Mg
_symmetry_space_group_name_H-M   'P 1'
_cell_length_a   7.34831435
_cell_length_b   7.34831435
_cell_length_c   6.00606700
_cell_angle_alpha   90.00000000
_cell_angle_beta   90.00000000
_cell_angle_gamma   120.00000313
_symmetry_Int_Tables_number   1
_chemical_formula_structural   Yb3Mg
_chemical_formula_sum   'Yb6 Mg2'
_cell_volume   280.86410777
_cell_formula_units_Z   2
loop_
 _symmetry_equiv_pos_site_id
 _symmetry_equiv_pos_as_xyz
  1  'x, y, z'
loop_
 _atom_site_type_symbol
 _atom_site_label
 _atom_site_symmetry_multiplicity
 _atom_site_fract_x
 _atom_site_fract_y
 _atom_site_fract_z
 _atom_site_occupancy
  Yb  Yb0  1  0.16995700  0.33991400  0.25000000  1
  Yb  Yb1  1  0.16995700  0.83004300  0.25000000  1
  Yb  Yb2  1  0.66008600  0.83004300  0.25000000  1
  Yb  Yb3  1  0.33991400  0.16995700  0.75000000  1
  Yb  Yb4  1  0.83004300  0.16995700  0.75000000  1
  Yb  Yb5  1  0.83004300  0.66008600  0.75000000  1
  Mg  Mg0  1  0.66666700  0.33333300  0.25000000  1
  Mg  Mg1  1  0.33333300  0.66666700  0.75000000  1
loop_
_geom_bond_atom_site_label_1
_geom_bond_atom_site_label_2
_geom_bond_distance
_geom_bond_site_symmetry_2
Yb0 Yb2 3.601622 1_555
Yb0 Yb1 3.601622 1_555
Yb0 Yb4 3.701006 1_455
Yb0 Yb4 3.701006 1_454
Yb0 Yb3 3.701006 1_554
Yb0 Yb3 3.701006 1_555
Yb0 Yb2 3.746692 1_445
Yb0 Yb1 3.746692 1_545
Yb1 Yb2 3.601622 1_555
Yb1 Yb3 3.701006 1_565
Yb1 Yb3 3.701006 1_564
Yb1 Yb5 3.701006 1_454
Yb1 Yb5 3.701006 1_455
Yb1 Yb2 3.746692 1_455
Yb2 Yb4 3.701006 1_564
Yb2 Yb4 3.701006 1_565
Yb2 Yb5 3.701006 1_554
Yb2 Yb5 3.701006 1_555
Yb3 Yb5 3.601622 1_555
Yb3 Yb4 3.601622 1_555
Yb3 Yb5 3.746692 1_445
Yb3 Yb4 3.746692 1_455
Yb4 Yb5 3.601622 1_555
Yb4 Yb5 3.746692 1_545
Mg0 Yb4 3.652682 1_554
Mg0 Yb4 3.652682 1_555
Mg0 Yb5 3.652686 1_554
Mg0 Yb5 3.652686 1_555
Mg0 Yb3 3.652686 1_555
Mg0 Yb3 3.652686 1_554
Mg0 Yb0 3.674392 1_655
Mg0 Yb2 3.674392 1_545
Mg0 Yb1 3.674396 1_655
Mg0 Yb1 3.674396 1_545
Mg0 Yb0 3.674400 1_555
Mg0 Yb2 3.674400 1_555
Mg1 Yb1 3.652682 1_556
Mg1 Yb1 3.652682 1_555
Mg1 Yb0 3.652686 1_556
Mg1 Yb2 3.652686 1_555
Mg1 Yb2 3.652686 1_556
Mg1 Yb0 3.652686 1_555
Mg1 Yb3 3.674392 1_565
Mg1 Yb5 3.674392 1_455
Mg1 Yb4 3.674396 1_565
Mg1 Yb4 3.674396 1_455
Mg1 Yb5 3.674400 1_555
Mg1 Yb3 3.674400 1_555
