# generated using pymatgen
data_Gd2Fe14B
_symmetry_space_group_name_H-M   'P 1'
_cell_length_a   8.73368200
_cell_length_b   8.73368200
_cell_length_c   11.95667600
_cell_angle_alpha   90.00000000
_cell_angle_beta   90.00000000
_cell_angle_gamma   90.00000000
_symmetry_Int_Tables_number   1
_chemical_formula_structural   Gd2Fe14B
_chemical_formula_sum   'Gd8 Fe56 B4'
_cell_volume   912.02178186
_cell_formula_units_Z   4
loop_
 _symmetry_equiv_pos_site_id
 _symmetry_equiv_pos_as_xyz
  1  'x, y, z'
loop_
 _atom_site_type_symbol
 _atom_site_label
 _atom_site_symmetry_multiplicity
 _atom_site_fract_x
 _atom_site_fract_y
 _atom_site_fract_z
 _atom_site_occupancy
  Gd  Gd0  1  0.23548300  0.76451700  0.50000000  1
  Gd  Gd1  1  0.76451700  0.23548300  0.50000000  1
  Gd  Gd2  1  0.26451700  0.26451700  0.00000000  1
  Gd  Gd3  1  0.73548300  0.73548300  0.00000000  1
  Gd  Gd4  1  0.64316700  0.64316700  0.50000000  1
  Gd  Gd5  1  0.35683300  0.35683300  0.50000000  1
  Gd  Gd6  1  0.85683300  0.14316700  0.00000000  1
  Gd  Gd7  1  0.14316700  0.85683300  0.00000000  1
  Fe  Fe0  1  0.00000000  0.50000000  0.50000000  1
  Fe  Fe1  1  0.50000000  0.00000000  0.00000000  1
  Fe  Fe2  1  0.50000000  0.00000000  0.50000000  1
  Fe  Fe3  1  0.00000000  0.50000000  0.00000000  1
  Fe  Fe4  1  0.50000000  0.50000000  0.11483600  1
  Fe  Fe5  1  0.00000000  0.00000000  0.61483600  1
  Fe  Fe6  1  0.50000000  0.50000000  0.88516400  1
  Fe  Fe7  1  0.00000000  0.00000000  0.38516400  1
  Fe  Fe8  1  0.18359800  0.81640200  0.25390100  1
  Fe  Fe9  1  0.81640200  0.18359800  0.25390100  1
  Fe  Fe10  1  0.31640200  0.31640200  0.75390100  1
  Fe  Fe11  1  0.68359800  0.68359800  0.75390100  1
  Fe  Fe12  1  0.81640200  0.18359800  0.74609900  1
  Fe  Fe13  1  0.18359800  0.81640200  0.74609900  1
  Fe  Fe14  1  0.68359800  0.68359800  0.24609900  1
  Fe  Fe15  1  0.31640200  0.31640200  0.24609900  1
  Fe  Fe16  1  0.40268900  0.59731100  0.29823500  1
  Fe  Fe17  1  0.59731100  0.40268900  0.29823500  1
  Fe  Fe18  1  0.09731100  0.09731100  0.79823500  1
  Fe  Fe19  1  0.90268900  0.90268900  0.79823500  1
  Fe  Fe20  1  0.59731100  0.40268900  0.70176500  1
  Fe  Fe21  1  0.40268900  0.59731100  0.70176500  1
  Fe  Fe22  1  0.90268900  0.90268900  0.20176500  1
  Fe  Fe23  1  0.09731100  0.09731100  0.20176500  1
  Fe  Fe24  1  0.14129400  0.53618800  0.32475300  1
  Fe  Fe25  1  0.85870600  0.46381200  0.32475300  1
  Fe  Fe26  1  0.35870600  0.03618800  0.82475300  1
  Fe  Fe27  1  0.64129400  0.96381200  0.82475300  1
  Fe  Fe28  1  0.85870600  0.46381200  0.67524700  1
  Fe  Fe29  1  0.14129400  0.53618800  0.67524700  1
  Fe  Fe30  1  0.64129400  0.96381200  0.17524700  1
  Fe  Fe31  1  0.35870600  0.03618800  0.17524700  1
  Fe  Fe32  1  0.53618800  0.14129400  0.32475300  1
  Fe  Fe33  1  0.46381200  0.85870600  0.32475300  1
  Fe  Fe34  1  0.03618800  0.35870600  0.82475300  1
  Fe  Fe35  1  0.96381200  0.64129400  0.82475300  1
  Fe  Fe36  1  0.46381200  0.85870600  0.67524700  1
  Fe  Fe37  1  0.53618800  0.14129400  0.67524700  1
  Fe  Fe38  1  0.96381200  0.64129400  0.17524700  1
  Fe  Fe39  1  0.03618800  0.35870600  0.17524700  1
  Fe  Fe40  1  0.93449900  0.72531700  0.37361700  1
  Fe  Fe41  1  0.06550100  0.27468300  0.37361700  1
  Fe  Fe42  1  0.56550100  0.22531700  0.87361700  1
  Fe  Fe43  1  0.43449900  0.77468300  0.87361700  1
  Fe  Fe44  1  0.06550100  0.27468300  0.62638300  1
  Fe  Fe45  1  0.93449900  0.72531700  0.62638300  1
  Fe  Fe46  1  0.43449900  0.77468300  0.12638300  1
  Fe  Fe47  1  0.56550100  0.22531700  0.12638300  1
  Fe  Fe48  1  0.72531700  0.93449900  0.37361700  1
  Fe  Fe49  1  0.27468300  0.06550100  0.37361700  1
  Fe  Fe50  1  0.22531700  0.56550100  0.87361700  1
  Fe  Fe51  1  0.77468300  0.43449900  0.87361700  1
  Fe  Fe52  1  0.27468300  0.06550100  0.62638300  1
  Fe  Fe53  1  0.72531700  0.93449900  0.62638300  1
  Fe  Fe54  1  0.77468300  0.43449900  0.12638300  1
  Fe  Fe55  1  0.22531700  0.56550100  0.12638300  1
  B  B0  1  0.87458300  0.87458300  0.50000000  1
  B  B1  1  0.12541700  0.12541700  0.50000000  1
  B  B2  1  0.62541700  0.37458300  0.00000000  1
  B  B3  1  0.37458300  0.62541700  0.00000000  1
loop_
_geom_bond_atom_site_label_1
_geom_bond_atom_site_label_2
_geom_bond_distance
_geom_bond_site_symmetry_2
Fe0 Fe24 2.452197 1_555
Fe0 Fe25 2.452197 1_455
Fe0 Fe29 2.452197 1_555
Fe0 Fe28 2.452197 1_455
Fe0 Fe40 2.546206 1_455
Fe0 Fe44 2.546206 1_555
Fe0 Fe41 2.546206 1_555
Fe0 Fe45 2.546206 1_455
Fe0 Gd1 3.093024 1_455
Fe0 Gd0 3.093024 1_555
Fe0 Gd4 3.357945 1_455
Fe0 Gd5 3.357945 1_555
Fe1 Fe31 2.452197 1_555
Fe1 Fe30 2.452197 1_545
Fe1 Fe27 2.452197 1_544
Fe1 Fe26 2.452197 1_554
Fe1 Fe46 2.546206 1_545
Fe1 Fe47 2.546206 1_555
Fe1 Fe43 2.546206 1_544
Fe1 Fe42 2.546206 1_554
Fe1 Gd2 3.093024 1_555
Fe1 Gd3 3.093024 1_545
Fe1 Gd6 3.357945 1_555
Fe1 Gd7 3.357945 1_545
Fe2 Fe33 2.452197 1_545
Fe2 Fe32 2.452197 1_555
Fe2 Fe37 2.452197 1_555
Fe2 Fe36 2.452197 1_545
Fe2 Fe53 2.546206 1_545
Fe2 Fe49 2.546206 1_555
Fe2 Fe52 2.546206 1_555
Fe2 Fe48 2.546206 1_545
Fe2 Gd0 3.093024 1_545
Fe2 Gd1 3.093024 1_555
Fe2 Gd4 3.357945 1_545
Fe2 Gd5 3.357945 1_555
Fe3 Fe39 2.452197 1_555
Fe3 Fe38 2.452197 1_455
Fe3 Fe34 2.452197 1_554
Fe3 Fe35 2.452197 1_454
Fe3 Fe54 2.546206 1_455
Fe3 Fe51 2.546206 1_454
Fe3 Fe55 2.546206 1_555
Fe3 Fe50 2.546206 1_554
Fe3 Gd2 3.093024 1_555
Fe3 Gd3 3.093024 1_455
Fe3 Gd7 3.357945 1_555
Fe3 Gd6 3.357945 1_455
Fe4 Gd3 3.216328 1_555
Fe4 Gd2 3.216328 1_555
Fe5 Gd0 3.216328 1_545
Fe5 Gd1 3.216328 1_455
Fe6 Gd2 3.216328 1_556
Fe6 Gd3 3.216328 1_556
Fe7 Fe9 2.757820 1_455
Fe7 Fe8 2.757820 1_545
Fe7 Gd0 3.216328 1_545
Fe7 Gd1 3.216328 1_455
Fe8 Gd0 3.011502 1_555
Fe8 Gd7 3.076610 1_555
Fe9 Gd1 3.011502 1_555
Fe9 Gd6 3.076610 1_555
Fe10 Fe26 2.616000 1_555
Fe10 Fe34 2.616000 1_555
Fe10 Fe29 2.628296 1_555
Fe10 Fe37 2.628296 1_555
Fe10 Fe20 2.641124 1_555
Fe10 Fe21 2.641124 1_555
Fe10 Fe44 2.694289 1_555
Fe10 Fe52 2.694289 1_555
Fe10 Fe50 2.723009 1_555
Fe10 Fe42 2.723009 1_555
Fe10 Fe18 2.757487 1_555
Fe10 Fe6 2.757820 1_555
Fe10 Gd2 3.011502 1_556
Fe10 Gd5 3.076610 1_555
Fe11 Fe35 2.616000 1_555
Fe11 Fe27 2.616000 1_555
Fe11 Fe36 2.628296 1_555
Fe11 Fe28 2.628296 1_555
Fe11 Fe20 2.641124 1_555
Fe11 Fe21 2.641124 1_555
Fe11 Fe53 2.694289 1_555
Fe11 Fe45 2.694289 1_555
Fe11 Fe43 2.723009 1_555
Fe11 Fe51 2.723009 1_555
Fe11 Fe19 2.757487 1_555
Fe11 Fe6 2.757820 1_555
Fe11 Gd3 3.011502 1_556
Fe11 Gd4 3.076610 1_555
Fe12 Fe37 2.616000 1_555
Fe12 Fe28 2.616000 1_555
Fe12 Fe27 2.628296 1_545
Fe12 Fe34 2.628296 1_655
Fe12 Fe18 2.641124 1_655
Fe12 Fe19 2.641124 1_545
Fe12 Fe42 2.694289 1_555
Fe12 Fe51 2.694289 1_555
Fe12 Fe44 2.723009 1_655
Fe12 Fe53 2.723009 1_545
Fe12 Fe20 2.757487 1_555
Fe12 Fe5 2.757820 1_655
Fe12 Gd1 3.011502 1_555
Fe12 Gd6 3.076610 1_556
Fe13 Fe29 2.616000 1_555
Fe13 Fe36 2.616000 1_555
Fe13 Fe35 2.628296 1_455
Fe13 Fe26 2.628296 1_565
Fe13 Fe18 2.641124 1_565
Fe13 Fe19 2.641124 1_455
Fe13 Fe50 2.694289 1_555
Fe13 Fe43 2.694289 1_555
Fe13 Fe45 2.723009 1_455
Fe13 Fe52 2.723009 1_565
Fe13 Fe21 2.757487 1_555
Fe13 Fe5 2.757820 1_565
Fe13 Gd0 3.011502 1_555
Fe13 Gd7 3.076610 1_556
Fe14 Fe30 2.616000 1_555
Fe14 Fe38 2.616000 1_555
Fe14 Fe33 2.628296 1_555
Fe14 Fe25 2.628296 1_555
Fe14 Fe16 2.641124 1_555
Fe14 Fe17 2.641124 1_555
Fe14 Fe40 2.694289 1_555
Fe14 Fe48 2.694289 1_555
Fe14 Fe54 2.723009 1_555
Fe14 Fe46 2.723009 1_555
Fe14 Fe22 2.757487 1_555
Fe14 Fe4 2.757820 1_555
Fe14 Gd3 3.011502 1_555
Fe14 Gd4 3.076610 1_555
Fe15 Fe39 2.616000 1_555
Fe15 Fe31 2.616000 1_555
Fe15 Fe32 2.628296 1_555
Fe15 Fe24 2.628296 1_555
Fe15 Fe16 2.641124 1_555
Fe15 Fe17 2.641124 1_555
Fe15 Fe49 2.694289 1_555
Fe15 Fe41 2.694289 1_555
Fe15 Fe55 2.723009 1_555
Fe15 Fe47 2.723009 1_555
Fe15 Fe23 2.757487 1_555
Fe15 Fe4 2.757820 1_555
Fe15 Gd2 3.011502 1_555
Fe15 Gd5 3.076610 1_555
Fe16 Fe33 2.365866 1_555
Fe16 Fe24 2.365866 1_555
Fe16 Fe17 2.403833 1_555
Fe16 Fe4 2.500632 1_555
Fe16 Fe46 2.588251 1_555
Fe16 Fe55 2.588251 1_555
Fe16 Fe8 2.757487 1_555
Fe16 Gd0 3.175682 1_555
Fe16 Gd4 3.223560 1_555
Fe16 Gd5 3.223560 1_555
Fe17 Fe25 2.365866 1_555
Fe17 Fe32 2.365866 1_555
Fe17 Fe4 2.500632 1_555
Fe17 Fe54 2.588251 1_555
Fe17 Fe47 2.588251 1_555
Fe17 Fe9 2.757487 1_555
Fe17 Gd1 3.175682 1_555
Fe17 Gd4 3.223560 1_555
Fe17 Gd5 3.223560 1_555
Fe18 Fe34 2.365866 1_555
Fe18 Fe26 2.365866 1_555
Fe18 Fe19 2.403833 1_445
Fe18 Fe5 2.500632 1_555
Fe18 Fe44 2.588251 1_555
Fe18 Fe52 2.588251 1_555
Fe18 Gd2 3.175682 1_556
Fe18 Gd7 3.223560 1_546
Fe18 Gd6 3.223560 1_456
Fe19 Fe27 2.365866 1_555
Fe19 Fe35 2.365866 1_555
Fe19 Fe5 2.500632 1_665
Fe19 Fe45 2.588251 1_555
Fe19 Fe53 2.588251 1_555
Fe19 Gd3 3.175682 1_556
Fe19 Gd7 3.223560 1_656
Fe19 Gd6 3.223560 1_566
Fe20 Fe28 2.365866 1_555
Fe20 Fe37 2.365866 1_555
Fe20 Fe21 2.403833 1_555
Fe20 Fe6 2.500632 1_555
Fe20 Fe51 2.588251 1_555
Fe20 Fe42 2.588251 1_555
Fe20 Gd1 3.175682 1_555
Fe20 Gd4 3.223560 1_555
Fe20 Gd5 3.223560 1_555
Fe21 Fe36 2.365866 1_555
Fe21 Fe29 2.365866 1_555
Fe21 Fe6 2.500632 1_555
Fe21 Fe43 2.588251 1_555
Fe21 Fe50 2.588251 1_555
Fe21 Gd0 3.175682 1_555
Fe21 Gd5 3.223560 1_555
Fe21 Gd4 3.223560 1_555
Fe22 Fe38 2.365866 1_555
Fe22 Fe30 2.365866 1_555
Fe22 Fe23 2.403833 1_665
Fe22 Fe7 2.500632 1_665
Fe22 Fe40 2.588251 1_555
Fe22 Fe48 2.588251 1_555
Fe22 Fe8 2.641124 1_655
Fe22 Fe9 2.641124 1_565
Fe22 Gd3 3.175682 1_555
Fe22 Gd6 3.223560 1_565
Fe22 Gd7 3.223560 1_655
Fe23 Fe31 2.365866 1_555
Fe23 Fe39 2.365866 1_555
Fe23 Fe7 2.500632 1_555
Fe23 Fe49 2.588251 1_555
Fe23 Fe41 2.588251 1_555
Fe23 Fe8 2.641124 1_545
Fe23 Fe9 2.641124 1_455
Fe23 Gd2 3.175682 1_555
Fe23 Gd7 3.223560 1_545
Fe23 Gd6 3.223560 1_455
Fe24 Fe41 2.448619 1_555
Fe24 Fe55 2.495937 1_555
Fe24 Fe40 2.516287 1_455
Fe24 Fe39 2.537887 1_555
Fe24 Fe38 2.537887 1_455
Fe24 Fe25 2.547695 1_455
Fe24 Fe8 2.616000 1_555
Fe24 Gd0 3.007312 1_555
Fe24 Gd5 3.223026 1_555
Fe25 Fe40 2.448619 1_555
Fe25 Fe54 2.495937 1_555
Fe25 Fe41 2.516287 1_655
Fe25 Fe38 2.537887 1_555
Fe25 Fe39 2.537887 1_655
Fe25 Fe9 2.616000 1_555
Fe25 Gd1 3.007312 1_555
Fe25 Gd4 3.223026 1_555
Fe26 Fe43 2.448619 1_545
Fe26 Fe52 2.495937 1_555
Fe26 Fe42 2.516287 1_555
Fe26 Fe37 2.537887 1_555
Fe26 Fe36 2.537887 1_545
Fe26 Fe27 2.547695 1_545
Fe26 Gd2 3.007312 1_556
Fe26 Gd7 3.223026 1_546
Fe27 Fe42 2.448619 1_565
Fe27 Fe53 2.495937 1_555
Fe27 Fe43 2.516287 1_555
Fe27 Fe36 2.537887 1_555
Fe27 Fe37 2.537887 1_565
Fe27 Gd3 3.007312 1_556
Fe27 Gd6 3.223026 1_566
Fe28 Fe45 2.448619 1_555
Fe28 Fe51 2.495937 1_555
Fe28 Fe44 2.516287 1_655
Fe28 Fe35 2.537887 1_555
Fe28 Fe34 2.537887 1_655
Fe28 Fe29 2.547695 1_655
Fe28 Gd1 3.007312 1_555
Fe28 Gd4 3.223026 1_555
Fe29 Fe44 2.448619 1_555
Fe29 Fe50 2.495937 1_555
Fe29 Fe45 2.516287 1_455
Fe29 Fe34 2.537887 1_555
Fe29 Fe35 2.537887 1_455
Fe29 Gd0 3.007312 1_555
Fe29 Gd5 3.223026 1_555
Fe30 Fe47 2.448619 1_565
Fe30 Fe48 2.495937 1_555
Fe30 Fe46 2.516287 1_555
Fe30 Fe33 2.537887 1_555
Fe30 Fe32 2.537887 1_565
Fe30 Fe31 2.547695 1_565
Fe30 Fe9 2.628296 1_565
Fe30 Gd3 3.007312 1_555
Fe30 Gd6 3.223026 1_565
Fe31 Fe46 2.448619 1_545
Fe31 Fe49 2.495937 1_555
Fe31 Fe47 2.516287 1_555
Fe31 Fe32 2.537887 1_555
Fe31 Fe33 2.537887 1_545
Fe31 Fe8 2.628296 1_545
Fe31 Gd2 3.007312 1_555
Fe31 Gd7 3.223026 1_545
Fe32 Fe49 2.448619 1_555
Fe32 Fe47 2.495937 1_555
Fe32 Fe48 2.516287 1_545
Fe32 Fe33 2.547695 1_545
Fe32 Fe9 2.616000 1_555
Fe32 Gd1 3.007312 1_555
Fe32 Gd5 3.223026 1_555
Fe33 Fe48 2.448619 1_555
Fe33 Fe46 2.495937 1_555
Fe33 Fe49 2.516287 1_565
Fe33 Fe8 2.616000 1_555
Fe33 Gd0 3.007312 1_555
Fe33 Gd4 3.223026 1_555
Fe34 Fe51 2.448619 1_455
Fe34 Fe44 2.495937 1_555
Fe34 Fe50 2.516287 1_555
Fe34 Fe35 2.547695 1_455
Fe34 Gd2 3.007312 1_556
Fe34 Gd6 3.223026 1_456
Fe35 Fe50 2.448619 1_655
Fe35 Fe45 2.495937 1_555
Fe35 Fe51 2.516287 1_555
Fe35 Gd3 3.007312 1_556
Fe35 Gd7 3.223026 1_656
Fe36 Fe53 2.448619 1_555
Fe36 Fe43 2.495937 1_555
Fe36 Fe52 2.516287 1_565
Fe36 Fe37 2.547695 1_565
Fe36 Gd0 3.007312 1_555
Fe36 Gd4 3.223026 1_555
Fe37 Fe52 2.448619 1_555
Fe37 Fe42 2.495937 1_555
Fe37 Fe53 2.516287 1_545
Fe37 Gd1 3.007312 1_555
Fe37 Gd5 3.223026 1_555
Fe38 Fe55 2.448619 1_655
Fe38 Fe40 2.495937 1_555
Fe38 Fe54 2.516287 1_555
Fe38 Fe39 2.547695 1_655
Fe38 Fe8 2.628296 1_655
Fe38 Gd3 3.007312 1_555
Fe38 Gd7 3.223026 1_655
Fe39 Fe54 2.448619 1_455
Fe39 Fe41 2.495937 1_555
Fe39 Fe55 2.516287 1_555
Fe39 Fe9 2.628296 1_455
Fe39 Gd2 3.007312 1_555
Fe39 Gd6 3.223026 1_455
Fe40 Fe8 2.723009 1_655
Fe40 Gd4 3.045033 1_555
Fe40 Gd0 3.051352 1_655
Fe41 Fe9 2.723009 1_455
Fe41 Gd5 3.045033 1_555
Fe41 Gd1 3.051352 1_455
Fe42 Gd6 3.045033 1_556
Fe42 Gd2 3.051352 1_556
Fe43 Gd7 3.045033 1_556
Fe43 Gd3 3.051352 1_556
Fe44 Gd5 3.045033 1_555
Fe44 Gd1 3.051352 1_455
Fe45 Gd4 3.045033 1_555
Fe45 Gd0 3.051352 1_655
Fe46 Fe8 2.694289 1_555
Fe46 Gd7 3.045033 1_555
Fe46 Gd3 3.051352 1_555
Fe47 Fe9 2.694289 1_555
Fe47 Gd6 3.045033 1_555
Fe47 Gd2 3.051352 1_555
Fe48 Fe9 2.723009 1_565
Fe48 Gd4 3.045033 1_555
Fe48 Gd1 3.051352 1_565
Fe49 Fe8 2.723009 1_545
Fe49 Gd5 3.045033 1_555
Fe49 Gd0 3.051352 1_545
Fe50 Gd7 3.045033 1_556
Fe50 Gd2 3.051352 1_556
Fe51 Gd6 3.045033 1_556
Fe51 Gd3 3.051352 1_556
Fe52 Gd5 3.045033 1_555
Fe52 Gd0 3.051352 1_545
Fe53 Gd4 3.045033 1_555
Fe53 Gd1 3.051352 1_565
Fe54 Fe9 2.694289 1_555
Fe54 Gd6 3.045033 1_555
Fe54 Gd3 3.051352 1_555
Fe55 Fe8 2.694289 1_555
Fe55 Gd7 3.045033 1_555
Fe55 Gd2 3.051352 1_555
B0 Fe53 2.063201 1_555
B0 Fe48 2.063201 1_555
B0 Fe45 2.063201 1_555
B0 Fe40 2.063201 1_555
B0 Fe7 2.069995 1_665
B0 Fe5 2.069995 1_665
B0 Gd4 2.858286 1_555
B1 Fe41 2.063201 1_555
B1 Fe44 2.063201 1_555
B1 Fe52 2.063201 1_555
B1 Fe49 2.063201 1_555
B1 Fe7 2.069995 1_555
B1 Fe5 2.069995 1_555
B1 Gd5 2.858286 1_555
B2 Fe54 2.063201 1_555
B2 Fe47 2.063201 1_555
B2 Fe51 2.063201 1_554
B2 Fe42 2.063201 1_554
B2 Fe4 2.069995 1_555
B2 Fe6 2.069995 1_554
B2 Gd6 2.858286 1_555
B3 Fe55 2.063201 1_555
B3 Fe46 2.063201 1_555
B3 Fe50 2.063201 1_554
B3 Fe43 2.063201 1_554
B3 Fe4 2.069995 1_555
B3 Fe6 2.069995 1_554
B3 Gd7 2.858286 1_555
