# generated using pymatgen
data_Sr2GdRuO6
_symmetry_space_group_name_H-M   'P 1'
_cell_length_a   5.76554601
_cell_length_b   5.76554602
_cell_length_c   5.87341387
_cell_angle_alpha   60.36352377
_cell_angle_beta   60.36351281
_cell_angle_gamma   60.27038489
_symmetry_Int_Tables_number   1
_chemical_formula_structural   Sr2GdRuO6
_chemical_formula_sum   'Sr2 Gd1 Ru1 O6'
_cell_volume   139.09460786
_cell_formula_units_Z   1
loop_
 _symmetry_equiv_pos_site_id
 _symmetry_equiv_pos_as_xyz
  1  'x, y, z'
loop_
 _atom_site_type_symbol
 _atom_site_label
 _atom_site_symmetry_multiplicity
 _atom_site_fract_x
 _atom_site_fract_y
 _atom_site_fract_z
 _atom_site_occupancy
  Sr  Sr0  1  0.24617998  0.24617998  0.26529411  1
  Sr  Sr1  1  0.75382002  0.75382002  0.73470589  1
  Gd  Gd0  1  0.00000000  -0.00000000  0.00000000  1
  Ru  Ru0  1  0.50000000  0.50000000  0.50000000  1
  O  O0  1  0.26982912  0.26982912  0.81391637  1
  O  O1  1  0.73017088  0.73017088  0.18608363  1
  O  O2  1  0.68931914  0.21727552  0.31683583  1
  O  O3  1  0.78272348  0.31068086  0.68316417  1
  O  O4  1  0.31068086  0.78272448  0.68316417  1
  O  O5  1  0.21727652  0.68931914  0.31683583  1
loop_
_geom_bond_atom_site_label_1
_geom_bond_atom_site_label_2
_geom_bond_distance
_geom_bond_site_symmetry_2
Gd0 O2 2.241461 1_455
Gd0 O4 2.241461 1_544
Gd0 O5 2.241465 1_545
Gd0 O3 2.241465 1_454
Gd0 O0 2.252168 1_554
Gd0 O1 2.252168 1_445
O0 Ru0 1.956686 1_555
O0 Sr0 2.523707 1_556
O0 Sr1 2.950470 1_545
O0 Sr1 2.950470 1_455
O1 Ru0 1.956686 1_555
O1 Sr1 2.523707 1_554
O1 Sr0 2.950470 1_565
O1 Sr0 2.950470 1_655
O2 Ru0 1.952986 1_555
O2 Sr1 2.594832 1_545
O2 Sr0 2.634364 1_555
O3 Ru0 1.952982 1_555
O3 Sr0 2.594835 1_655
O3 Sr1 2.634366 1_555
O4 Ru0 1.952986 1_555
O4 Sr0 2.594832 1_565
O4 Sr1 2.634364 1_555
O5 Ru0 1.952982 1_555
O5 Sr1 2.594835 1_455
O5 Sr0 2.634366 1_555
