# generated using pymatgen
data_H9C3N6ClO5
_symmetry_space_group_name_H-M   'P 1'
_cell_length_a   5.75184200
_cell_length_b   7.66939209
_cell_length_c   12.14174604
_cell_angle_alpha   102.67790660
_cell_angle_beta   95.07849147
_cell_angle_gamma   110.27886477
_symmetry_Int_Tables_number   1
_chemical_formula_structural   H9C3N6ClO5
_chemical_formula_sum   'H18 C6 N12 Cl2 O10'
_cell_volume   482.17015280
_cell_formula_units_Z   2
loop_
 _symmetry_equiv_pos_site_id
 _symmetry_equiv_pos_as_xyz
  1  'x, y, z'
loop_
 _atom_site_type_symbol
 _atom_site_label
 _atom_site_symmetry_multiplicity
 _atom_site_fract_x
 _atom_site_fract_y
 _atom_site_fract_z
 _atom_site_occupancy
  H  H0  1  0.14704900  0.08323100  0.35570600  1
  H  H1  1  0.85295100  0.91676900  0.64429400  1
  H  H2  1  0.61191300  0.75140700  0.12200400  1
  H  H3  1  0.38808700  0.24859300  0.87799600  1
  H  H4  1  0.99138800  0.28896000  0.28287200  1
  H  H5  1  0.00861200  0.71104000  0.71712800  1
  H  H6  1  0.08929800  0.45887600  0.91692200  1
  H  H7  1  0.91070200  0.54112400  0.08307800  1
  H  H8  1  0.74990900  0.28805400  0.42888200  1
  H  H9  1  0.25009100  0.71194600  0.57111800  1
  H  H10  1  0.14964100  0.51348800  0.78632100  1
  H  H11  1  0.85035900  0.48651200  0.21367900  1
  H  H12  1  0.48871600  0.08225400  0.92684300  1
  H  H13  1  0.51128400  0.91774600  0.07315700  1
  H  H14  1  0.15229400  0.49852000  0.57946100  1
  H  H15  1  0.84770600  0.50148000  0.42053900  1
  H  H16  1  0.66253800  0.01852600  0.71629600  1
  H  H17  1  0.33746200  0.98147400  0.28370400  1
  C  C0  1  0.20810100  0.14229300  0.20136100  1
  C  C1  1  0.79189900  0.85770700  0.79863900  1
  C  C2  1  0.06181900  0.35532500  0.12928000  1
  C  C3  1  0.93818100  0.64467500  0.87072000  1
  C  C4  1  0.29236700  0.20713000  0.03098100  1
  C  C5  1  0.70763300  0.79287000  0.96901900  1
  N  N0  1  0.16733600  0.32924600  0.03667500  1
  N  N1  1  0.83266400  0.67075400  0.96332500  1
  N  N2  1  0.21920300  0.05407800  0.28325300  1
  N  N3  1  0.78079700  0.94592200  0.71674700  1
  N  N4  1  0.31987000  0.11316300  0.11093100  1
  N  N5  1  0.68013000  0.88683700  0.88906900  1
  N  N6  1  0.07489000  0.26037000  0.21148100  1
  N  N7  1  0.92511000  0.73963000  0.78851900  1
  N  N8  1  0.60356700  0.82403700  0.06184700  1
  N  N9  1  0.39643300  0.17596300  0.93815300  1
  N  N10  1  0.06144700  0.52602200  0.85505800  1
  N  N11  1  0.93855300  0.47397800  0.14494200  1
  Cl  Cl0  1  0.39581500  0.23531300  0.63123600  1
  Cl  Cl1  1  0.60418500  0.76468700  0.36876400  1
  O  O0  1  0.20011300  0.23343300  0.54466800  1
  O  O1  1  0.79988700  0.76656700  0.45533200  1
  O  O2  1  0.58634500  0.62624100  0.26019000  1
  O  O3  1  0.41365500  0.37375900  0.73981000  1
  O  O4  1  0.36104400  0.70944800  0.40583200  1
  O  O5  1  0.63895600  0.29055200  0.59416800  1
  O  O6  1  0.17581200  0.63036700  0.62033000  1
  O  O7  1  0.82418800  0.36963300  0.37967000  1
  O  O8  1  0.32794000  0.04302000  0.65060300  1
  O  O9  1  0.67206000  0.95698000  0.34939700  1
loop_
_geom_bond_atom_site_label_1
_geom_bond_atom_site_label_2
_geom_bond_distance
_geom_bond_site_symmetry_2
H0 N2 1.019184 1_555
H1 N3 1.019184 1_555
H2 N8 1.018332 1_555
H3 N9 1.018332 1_555
H4 N6 1.045657 1_655
H5 N7 1.045657 1_455
H6 N10 1.029918 1_555
H7 N11 1.029918 1_555
H8 O7 0.977249 1_555
H9 O6 0.977249 1_555
H10 N10 1.018159 1_555
H11 N11 1.018159 1_555
H12 N9 1.025250 1_555
H13 N8 1.025250 1_555
H14 O6 0.979838 1_555
H15 O7 0.979838 1_555
H16 N3 1.017839 1_545
H17 N2 1.017839 1_565
C0 N2 1.328324 1_555
C0 N4 1.336268 1_555
C0 N6 1.367861 1_555
C1 N3 1.328324 1_555
C1 N5 1.336268 1_555
C1 N7 1.367861 1_555
C2 N11 1.327438 1_455
C2 N0 1.333733 1_555
C2 N6 1.369611 1_555
C3 N10 1.327438 1_655
C3 N1 1.333733 1_555
C3 N7 1.369611 1_555
C4 N9 1.336461 1_554
C4 N4 1.358537 1_555
C4 N0 1.358810 1_555
C5 N8 1.336461 1_556
C5 N5 1.358537 1_555
C5 N1 1.358810 1_555
Cl0 O5 1.456813 1_555
Cl0 O0 1.464481 1_555
Cl0 O8 1.466979 1_555
Cl0 O3 1.470347 1_555
Cl1 O4 1.456813 1_555
Cl1 O1 1.464481 1_555
Cl1 O9 1.466979 1_555
Cl1 O2 1.470347 1_555
