# generated using pymatgen
data_NbNi3P2
_symmetry_space_group_name_H-M   'P 1'
_cell_length_a   3.58953800
_cell_length_b   5.91929200
_cell_length_c   10.41719617
_cell_angle_alpha   89.52887132
_cell_angle_beta   90.00000000
_cell_angle_gamma   90.00000000
_symmetry_Int_Tables_number   1
_chemical_formula_structural   NbNi3P2
_chemical_formula_sum   'Nb3 Ni9 P6'
_cell_volume   221.33213838
_cell_formula_units_Z   3
loop_
 _symmetry_equiv_pos_site_id
 _symmetry_equiv_pos_as_xyz
  1  'x, y, z'
loop_
 _atom_site_type_symbol
 _atom_site_label
 _atom_site_symmetry_multiplicity
 _atom_site_fract_x
 _atom_site_fract_y
 _atom_site_fract_z
 _atom_site_occupancy
  Nb  Nb0  1  0.50000000  0.29582300  0.70477300  1
  Nb  Nb1  1  0.50000000  0.29372700  0.29300300  1
  Nb  Nb2  1  0.50000000  0.79469600  0.79815200  1
  Ni  Ni0  1  0.00000000  0.74374700  0.00453300  1
  Ni  Ni1  1  0.00000000  0.24463700  0.49856300  1
  Ni  Ni2  1  0.00000000  0.63448300  0.36955600  1
  Ni  Ni3  1  0.00000000  0.12608100  0.88275900  1
  Ni  Ni4  1  0.00000000  0.12009200  0.12573700  1
  Ni  Ni5  1  0.00000000  0.63189400  0.61737900  1
  Ni  Ni6  1  0.50000000  0.40054300  0.00331900  1
  Ni  Ni7  1  0.50000000  0.90395100  0.49629100  1
  Ni  Ni8  1  0.50000000  0.80076200  0.20120400  1
  P  P0  1  0.00000000  0.99367100  0.33429300  1
  P  P1  1  0.00000000  0.49466300  0.84209700  1
  P  P2  1  0.00000000  0.50664500  0.16314900  1
  P  P3  1  0.00000000  0.99662100  0.66171900  1
  P  P4  1  0.50000000  0.00533600  0.00678000  1
  P  P5  1  0.50000000  0.51282800  0.49669300  1
loop_
_geom_bond_atom_site_label_1
_geom_bond_atom_site_label_2
_geom_bond_distance
_geom_bond_site_symmetry_2
Nb0 P5 2.510523 1_555
Nb0 P3 2.563607 1_645
Nb0 P3 2.563607 1_545
Nb0 P1 2.584688 1_555
Nb0 P1 2.584688 1_655
Nb1 P5 2.495923 1_555
Nb1 P0 2.558953 1_645
Nb1 P0 2.558953 1_545
Nb1 P2 2.571267 1_655
Nb1 P2 2.571267 1_555
Nb2 P4 2.514456 1_566
Nb2 P1 2.563495 1_555
Nb2 P1 2.563495 1_655
Nb2 P3 2.577177 1_655
Nb2 P3 2.577177 1_555
Ni0 P2 2.159124 1_555
Ni0 P1 2.253482 1_554
Ni0 P4 2.370643 1_465
Ni0 P4 2.370643 1_565
Ni1 P3 2.236729 1_545
Ni1 P0 2.275292 1_545
Ni1 P5 2.396085 1_555
Ni1 P5 2.396085 1_455
Ni2 P0 2.154660 1_555
Ni2 P2 2.285312 1_555
Ni2 P5 2.340542 1_455
Ni2 P5 2.340542 1_555
Ni3 P1 2.219062 1_555
Ni3 P4 2.320771 1_456
Ni3 P4 2.320771 1_556
Ni3 P3 2.432755 1_545
Ni4 P4 2.287371 1_455
Ni4 P4 2.287371 1_555
Ni4 P0 2.292009 1_545
Ni4 P2 2.324230 1_555
Ni5 P3 2.211495 1_555
Ni5 P5 2.305009 1_455
Ni5 P5 2.305009 1_555
Ni5 P1 2.471545 1_555
Ni6 P4 2.339327 1_555
Ni6 P1 2.517311 1_654
Ni6 P1 2.517311 1_554
Ni6 P2 2.530810 1_555
Ni6 P2 2.530810 1_655
Ni7 P5 2.315141 1_555
Ni7 P0 2.517216 1_555
Ni7 P0 2.517216 1_655
Ni7 P3 2.550958 1_655
Ni7 P3 2.550958 1_555
Ni8 P4 2.351187 1_565
Ni8 P2 2.533901 1_655
Ni8 P2 2.533901 1_555
Ni8 P0 2.544263 1_655
Ni8 P0 2.544263 1_555
