# generated using pymatgen
data_Cr2Rh2C
_symmetry_space_group_name_H-M   'P 1'
_cell_length_a   8.84897985
_cell_length_b   8.84897985
_cell_length_c   8.84897920
_cell_angle_alpha   17.70822092
_cell_angle_beta   17.70822092
_cell_angle_gamma   17.70821700
_symmetry_Int_Tables_number   1
_chemical_formula_structural   Cr2Rh2C
_chemical_formula_sum   'Cr2 Rh2 C1'
_cell_volume   55.96093864
_cell_formula_units_Z   1
loop_
 _symmetry_equiv_pos_site_id
 _symmetry_equiv_pos_as_xyz
  1  'x, y, z'
loop_
 _atom_site_type_symbol
 _atom_site_label
 _atom_site_symmetry_multiplicity
 _atom_site_fract_x
 _atom_site_fract_y
 _atom_site_fract_z
 _atom_site_occupancy
  Cr  Cr0  1  0.37730364  0.37730364  0.37730364  1
  Cr  Cr1  1  0.62269636  0.62269636  0.62269636  1
  Rh  Rh0  1  0.87790940  0.87790940  0.87790940  1
  Rh  Rh1  1  0.12209060  0.12209060  0.12209060  1
  C  C0  1  -0.00000000  -0.00000000  -0.00000000  1
loop_
_geom_bond_atom_site_label_1
_geom_bond_atom_site_label_2
_geom_bond_distance
_geom_bond_site_symmetry_2
Cr0 Rh1 2.576529 1_556
Cr0 Rh1 2.576530 1_565
Cr0 Rh1 2.576530 1_655
Cr1 Rh0 2.576529 1_554
Cr1 Rh0 2.576530 1_455
Cr1 Rh0 2.576530 1_545
C0 Cr1 1.947558 1_454
C0 Cr1 1.947558 1_544
C0 Cr0 1.947558 1_545
C0 Cr0 1.947558 1_455
C0 Cr1 1.947559 1_445
C0 Cr0 1.947559 1_554
