# generated using pymatgen
data_AgAu
_symmetry_space_group_name_H-M   'P 1'
_cell_length_a   5.83035147
_cell_length_b   5.83035147
_cell_length_c   10.04225370
_cell_angle_alpha   73.12462224
_cell_angle_beta   90.00000000
_cell_angle_gamma   120.00000000
_symmetry_Int_Tables_number   1
_chemical_formula_structural   AgAu
_chemical_formula_sum   'Ag8 Au8'
_cell_volume   278.52879344
_cell_formula_units_Z   8
loop_
 _symmetry_equiv_pos_site_id
 _symmetry_equiv_pos_as_xyz
  1  'x, y, z'
loop_
 _atom_site_type_symbol
 _atom_site_label
 _atom_site_symmetry_multiplicity
 _atom_site_fract_x
 _atom_site_fract_y
 _atom_site_fract_z
 _atom_site_occupancy
  Ag  Ag0_0  1  0.00000000  0.00000000  0.00000000  1
  Ag  Ag0_1  1  0.00000000  0.00000000  0.50000000  1
  Ag  Ag0_2  1  0.00000000  0.50000000  0.00000000  1
  Ag  Ag0_3  1  0.00000000  0.50000000  0.50000000  1
  Ag  Ag0_4  1  0.50000000  0.00000000  0.00000000  1
  Ag  Ag0_5  1  0.50000000  0.00000000  0.50000000  1
  Ag  Ag0_6  1  0.50000000  0.50000000  0.00000000  1
  Ag  Ag0_7  1  0.50000000  0.50000000  0.50000000  1
  Au  Au0_0  1  0.25000000  0.00000000  0.25000000  1
  Au  Au0_1  1  0.25000000  0.00000000  0.75000000  1
  Au  Au0_2  1  0.25000000  0.50000000  0.25000000  1
  Au  Au0_3  1  0.25000000  0.50000000  0.75000000  1
  Au  Au0_4  1  0.75000000  0.00000000  0.25000000  1
  Au  Au0_5  1  0.75000000  0.00000000  0.75000000  1
  Au  Au0_6  1  0.75000000  0.50000000  0.25000000  1
  Au  Au0_7  1  0.75000000  0.50000000  0.75000000  1
loop_
_geom_bond_atom_site_label_1
_geom_bond_atom_site_label_2
_geom_bond_distance
_geom_bond_site_symmetry_2
Ag0_0 Au0_5 2.903014 1_454
Ag0_0 Au0_0 2.903014 1_555
Ag0_0 Au0_6 2.903014 1_445
Ag0_0 Au0_4 2.903014 1_455
Ag0_0 Au0_3 2.903014 1_554
Ag0_0 Au0_1 2.903014 1_554
Ag0_0 Ag0_4 2.915176 1_555
Ag0_0 Ag0_4 2.915176 1_455
Ag0_0 Ag0_6 2.915176 1_555
Ag0_0 Ag0_2 2.915176 1_545
Ag0_0 Ag0_2 2.915176 1_555
Ag0_0 Ag0_6 2.915176 1_445
Ag0_1 Au0_4 2.903014 1_455
Ag0_1 Au0_1 2.903014 1_555
Ag0_1 Au0_0 2.903014 1_555
Ag0_1 Au0_2 2.903014 1_555
Ag0_1 Au0_7 2.903014 1_445
Ag0_1 Au0_5 2.903014 1_455
Ag0_1 Ag0_7 2.915176 1_445
Ag0_1 Ag0_5 2.915176 1_555
Ag0_1 Ag0_5 2.915176 1_455
Ag0_1 Ag0_3 2.915176 1_545
Ag0_1 Ag0_7 2.915176 1_555
Ag0_1 Ag0_3 2.915176 1_555
Ag0_2 Au0_6 2.903014 1_455
Ag0_2 Au0_2 2.903014 1_555
Ag0_2 Au0_7 2.903014 1_454
Ag0_2 Au0_4 2.903014 1_455
Ag0_2 Au0_3 2.903014 1_554
Ag0_2 Au0_1 2.903014 1_564
Ag0_2 Ag0_4 2.915176 1_455
Ag0_2 Ag0_6 2.915176 1_555
Ag0_2 Ag0_4 2.915176 1_565
Ag0_2 Ag0_6 2.915176 1_455
Ag0_3 Au0_6 2.903014 1_455
Ag0_3 Au0_0 2.903014 1_565
Ag0_3 Au0_2 2.903014 1_555
Ag0_3 Au0_7 2.903014 1_455
Ag0_3 Au0_3 2.903014 1_555
Ag0_3 Au0_5 2.903014 1_455
Ag0_3 Ag0_5 2.915176 1_565
Ag0_3 Ag0_7 2.915176 1_455
Ag0_3 Ag0_5 2.915176 1_455
Ag0_3 Ag0_7 2.915176 1_555
Ag0_4 Au0_4 2.903014 1_555
Ag0_4 Au0_5 2.903014 1_554
Ag0_4 Au0_7 2.903014 1_554
Ag0_4 Au0_0 2.903014 1_555
Ag0_4 Au0_2 2.903014 1_545
Ag0_4 Au0_1 2.903014 1_554
Ag0_4 Ag0_6 2.915176 1_555
Ag0_4 Ag0_6 2.915176 1_545
Ag0_5 Au0_1 2.903014 1_555
Ag0_5 Au0_0 2.903014 1_555
Ag0_5 Au0_6 2.903014 1_555
Ag0_5 Au0_3 2.903014 1_545
Ag0_5 Au0_4 2.903014 1_555
Ag0_5 Au0_5 2.903014 1_555
Ag0_5 Ag0_7 2.915176 1_555
Ag0_5 Ag0_7 2.915176 1_545
Ag0_6 Au0_3 2.903014 1_554
Ag0_6 Au0_2 2.903014 1_555
Ag0_6 Au0_6 2.903014 1_555
Ag0_6 Au0_5 2.903014 1_564
Ag0_6 Au0_7 2.903014 1_554
Ag0_6 Au0_0 2.903014 1_555
Ag0_7 Au0_1 2.903014 1_555
Ag0_7 Au0_2 2.903014 1_555
Ag0_7 Au0_4 2.903014 1_565
Ag0_7 Au0_6 2.903014 1_555
Ag0_7 Au0_7 2.903014 1_555
Ag0_7 Au0_3 2.903014 1_555
Au0_0 Au0_6 2.915176 1_555
Au0_0 Au0_2 2.915176 1_555
Au0_0 Au0_4 2.915176 1_455
Au0_0 Au0_4 2.915176 1_555
Au0_0 Au0_2 2.915176 1_545
Au0_0 Au0_6 2.915176 1_445
Au0_1 Au0_3 2.915176 1_555
Au0_1 Au0_3 2.915176 1_545
Au0_1 Au0_7 2.915176 1_555
Au0_1 Au0_7 2.915176 1_445
Au0_1 Au0_5 2.915176 1_555
Au0_1 Au0_5 2.915176 1_455
Au0_2 Au0_4 2.915176 1_455
Au0_2 Au0_6 2.915176 1_455
Au0_2 Au0_4 2.915176 1_565
Au0_2 Au0_6 2.915176 1_555
Au0_3 Au0_5 2.915176 1_455
Au0_3 Au0_7 2.915176 1_555
Au0_3 Au0_7 2.915176 1_455
Au0_3 Au0_5 2.915176 1_565
Au0_4 Au0_6 2.915176 1_555
Au0_4 Au0_6 2.915176 1_545
Au0_5 Au0_7 2.915176 1_555
Au0_5 Au0_7 2.915176 1_545
