# generated using pymatgen
data_Mg6CoSn
_symmetry_space_group_name_H-M   'P 1'
_cell_length_a   4.89087600
_cell_length_b   6.14681400
_cell_length_c   10.73801800
_cell_angle_alpha   90.00000000
_cell_angle_beta   90.00000000
_cell_angle_gamma   90.00000000
_symmetry_Int_Tables_number   1
_chemical_formula_structural   Mg6CoSn
_chemical_formula_sum   'Mg12 Co2 Sn2'
_cell_volume   322.82031097
_cell_formula_units_Z   2
loop_
 _symmetry_equiv_pos_site_id
 _symmetry_equiv_pos_as_xyz
  1  'x, y, z'
loop_
 _atom_site_type_symbol
 _atom_site_label
 _atom_site_symmetry_multiplicity
 _atom_site_fract_x
 _atom_site_fract_y
 _atom_site_fract_z
 _atom_site_occupancy
  Mg  Mg0  1  0.50000000  0.24826400  0.41678900  1
  Mg  Mg1  1  0.50000000  0.75173600  0.41678900  1
  Mg  Mg2  1  0.00000000  0.76641200  0.08611000  1
  Mg  Mg3  1  0.00000000  0.23358800  0.08611000  1
  Mg  Mg4  1  0.00000000  0.00000000  0.32389100  1
  Mg  Mg5  1  0.00000000  0.50000000  0.33590300  1
  Mg  Mg6  1  0.50000000  0.74826400  0.91678900  1
  Mg  Mg7  1  0.50000000  0.25173600  0.91678900  1
  Mg  Mg8  1  0.00000000  0.26641200  0.58611000  1
  Mg  Mg9  1  0.00000000  0.73358800  0.58611000  1
  Mg  Mg10  1  0.00000000  0.50000000  0.82389100  1
  Mg  Mg11  1  0.00000000  0.00000000  0.83590300  1
  Co  Co0  1  0.50000000  0.00000000  0.16600100  1
  Co  Co1  1  0.50000000  0.50000000  0.66600100  1
  Sn  Sn0  1  0.50000000  0.50000000  0.16840300  1
  Sn  Sn1  1  0.50000000  0.00000000  0.66840300  1
loop_
_geom_bond_atom_site_label_1
_geom_bond_atom_site_label_2
_geom_bond_distance
_geom_bond_site_symmetry_2
Mg0 Mg5 3.021411 1_655
Mg0 Mg5 3.021411 1_555
Mg0 Mg8 3.049321 1_655
Mg0 Mg8 3.049321 1_555
Mg0 Mg4 3.050251 1_655
Mg0 Mg4 3.050251 1_555
Mg0 Mg1 3.052065 1_545
Mg0 Sn0 3.083534 1_555
Mg0 Mg1 3.094749 1_555
Mg0 Sn1 3.103013 1_555
Mg1 Mg5 3.021411 1_655
Mg1 Mg5 3.021411 1_555
Mg1 Mg9 3.049321 1_655
Mg1 Mg9 3.049321 1_555
Mg1 Mg4 3.050251 1_565
Mg1 Mg4 3.050251 1_665
Mg1 Sn0 3.083534 1_555
Mg1 Sn1 3.103013 1_565
Mg2 Mg3 2.871644 1_565
Mg2 Mg4 2.929319 1_565
Mg2 Mg6 3.049321 1_554
Mg2 Mg6 3.049321 1_454
Mg2 Sn0 3.072900 1_555
Mg2 Sn0 3.072900 1_455
Mg2 Mg5 3.142661 1_555
Mg2 Mg3 3.275170 1_555
Mg3 Mg4 2.929319 1_555
Mg3 Mg7 3.049321 1_454
Mg3 Mg7 3.049321 1_554
Mg3 Sn0 3.072900 1_555
Mg3 Sn0 3.072900 1_455
Mg3 Mg5 3.142661 1_555
Mg4 Mg8 3.257287 1_555
Mg4 Mg9 3.257287 1_545
Mg5 Sn0 3.035654 1_555
Mg5 Sn0 3.035654 1_455
Mg5 Mg9 3.046324 1_555
Mg5 Mg8 3.046324 1_555
Mg6 Mg7 3.052065 1_555
Mg6 Sn1 3.083534 1_565
Mg6 Mg7 3.094749 1_565
Mg6 Sn0 3.103013 1_556
Mg7 Sn1 3.083534 1_555
Mg7 Sn0 3.103013 1_556
Mg8 Mg9 2.871644 1_555
Mg8 Sn1 3.072900 1_455
Mg8 Sn1 3.072900 1_555
Mg8 Mg9 3.275170 1_545
Mg9 Sn1 3.072900 1_465
Mg9 Sn1 3.072900 1_565
Mg10 Mg8 2.929319 1_555
Mg10 Mg9 2.929319 1_555
Mg10 Mg6 3.050251 1_455
Mg10 Mg6 3.050251 1_555
Mg10 Mg7 3.050251 1_455
Mg10 Mg7 3.050251 1_555
Mg10 Mg2 3.257287 1_556
Mg10 Mg3 3.257287 1_556
Mg11 Mg6 3.021411 1_445
Mg11 Mg7 3.021411 1_455
Mg11 Mg6 3.021411 1_545
Mg11 Mg7 3.021411 1_555
Mg11 Sn1 3.035654 1_455
Mg11 Sn1 3.035654 1_555
Mg11 Mg2 3.046324 1_546
Mg11 Mg3 3.046324 1_556
Mg11 Mg8 3.142661 1_555
Mg11 Mg9 3.142661 1_545
Co0 Mg3 2.962717 1_555
Co0 Mg3 2.962717 1_655
Co0 Mg2 2.962717 1_645
Co0 Mg2 2.962717 1_545
Co0 Mg4 2.975674 1_555
Co0 Mg4 2.975674 1_655
Co0 Sn0 3.073515 1_555
Co0 Sn0 3.073515 1_545
Co0 Mg6 3.091209 1_544
Co0 Mg7 3.091209 1_554
Co0 Mg0 3.095293 1_555
Co0 Mg1 3.095293 1_545
Co1 Mg9 2.962717 1_655
Co1 Mg8 2.962717 1_555
Co1 Mg9 2.962717 1_555
Co1 Mg8 2.962717 1_655
Co1 Mg10 2.975674 1_655
Co1 Mg10 2.975674 1_555
Co1 Sn1 3.073515 1_555
Co1 Sn1 3.073515 1_565
Co1 Mg0 3.091209 1_555
Co1 Mg1 3.091209 1_555
Co1 Mg7 3.095293 1_555
Co1 Mg6 3.095293 1_555
