# generated using pymatgen
data_Tm5Pt3
_symmetry_space_group_name_H-M   'P 1'
_cell_length_a   8.30779403
_cell_length_b   8.30779403
_cell_length_c   6.04287177
_cell_angle_alpha   90.00000000
_cell_angle_beta   90.00000000
_cell_angle_gamma   119.99999623
_symmetry_Int_Tables_number   1
_chemical_formula_structural   Tm5Pt3
_chemical_formula_sum   'Tm10 Pt6'
_cell_volume   361.19810908
_cell_formula_units_Z   2
loop_
 _symmetry_equiv_pos_site_id
 _symmetry_equiv_pos_as_xyz
  1  'x, y, z'
loop_
 _atom_site_type_symbol
 _atom_site_label
 _atom_site_symmetry_multiplicity
 _atom_site_fract_x
 _atom_site_fract_y
 _atom_site_fract_z
 _atom_site_occupancy
  Tm  Tm0  1  0.66666700  0.33333300  -0.00000000  1
  Tm  Tm1  1  0.33333300  0.66666700  -0.00000000  1
  Tm  Tm2  1  0.33333300  0.66666700  0.50000000  1
  Tm  Tm3  1  0.66666700  0.33333300  0.50000000  1
  Tm  Tm4  1  0.75220615  0.75220615  0.75000000  1
  Tm  Tm5  1  0.24779385  -0.00000000  0.75000000  1
  Tm  Tm6  1  -0.00000000  0.24779385  0.75000000  1
  Tm  Tm7  1  0.24779385  0.24779385  0.25000000  1
  Tm  Tm8  1  0.75220615  0.00000000  0.25000000  1
  Tm  Tm9  1  0.00000000  0.75220615  0.25000000  1
  Pt  Pt0  1  0.39440197  0.39440197  0.75000000  1
  Pt  Pt1  1  0.60559803  -0.00000000  0.75000000  1
  Pt  Pt2  1  -0.00000000  0.60559803  0.75000000  1
  Pt  Pt3  1  0.60559803  0.60559803  0.25000000  1
  Pt  Pt4  1  0.39440197  0.00000000  0.25000000  1
  Pt  Pt5  1  0.00000000  0.39440197  0.25000000  1
loop_
_geom_bond_atom_site_label_1
_geom_bond_atom_site_label_2
_geom_bond_distance
_geom_bond_site_symmetry_2
Tm0 Tm3 3.021436 1_555
Tm0 Tm3 3.021436 1_554
Tm0 Tm6 3.524776 1_654
Tm0 Tm8 3.524776 1_555
Tm0 Tm5 3.524781 1_554
Tm0 Tm9 3.524781 1_655
Tm0 Tm7 3.524783 1_555
Tm0 Tm4 3.524783 1_554
Tm1 Tm2 3.021436 1_554
Tm1 Tm2 3.021436 1_555
Tm1 Tm5 3.524776 1_564
Tm1 Tm9 3.524776 1_555
Tm1 Tm8 3.524781 1_565
Tm1 Tm6 3.524781 1_554
Tm1 Tm4 3.524783 1_554
Tm1 Tm7 3.524783 1_555
Tm2 Tm5 3.524776 1_565
Tm2 Tm9 3.524776 1_555
Tm2 Tm6 3.524781 1_555
Tm2 Tm8 3.524781 1_565
Tm2 Tm7 3.524783 1_555
Tm2 Tm4 3.524783 1_555
Tm3 Tm6 3.524776 1_655
Tm3 Tm8 3.524776 1_555
Tm3 Tm5 3.524781 1_555
Tm3 Tm9 3.524781 1_655
Tm3 Tm7 3.524783 1_555
Tm3 Tm4 3.524783 1_555
Tm4 Tm5 3.565635 1_665
Tm4 Tm6 3.565635 1_665
Tm4 Tm8 3.656090 1_565
Tm4 Tm8 3.656090 1_566
Tm4 Tm9 3.656090 1_656
Tm4 Tm9 3.656090 1_655
Tm5 Tm6 3.565635 1_555
Tm5 Tm7 3.656090 1_556
Tm5 Tm7 3.656090 1_555
Tm5 Tm9 3.656090 1_545
Tm5 Tm9 3.656090 1_546
Tm6 Tm7 3.656090 1_556
Tm6 Tm7 3.656090 1_555
Tm6 Tm8 3.656090 1_456
Tm6 Tm8 3.656090 1_455
Tm7 Tm8 3.565635 1_455
Tm7 Tm9 3.565635 1_545
Tm8 Tm9 3.565635 1_645
Pt0 Tm5 2.868588 1_555
Pt0 Tm6 2.868588 1_555
Pt0 Tm0 2.967077 1_556
Pt0 Tm1 2.967077 1_556
Pt0 Tm3 2.967077 1_555
Pt0 Tm2 2.967077 1_555
Pt0 Tm4 2.972564 1_555
Pt0 Tm7 3.257695 1_555
Pt0 Tm7 3.257695 1_556
Pt1 Tm4 2.868588 1_545
Pt1 Tm6 2.868588 1_655
Pt1 Tm3 2.967070 1_555
Pt1 Tm0 2.967070 1_556
Pt1 Tm1 2.967072 1_546
Pt1 Tm2 2.967072 1_545
Pt1 Tm5 2.972563 1_555
Pt1 Tm8 3.257695 1_555
Pt1 Tm8 3.257695 1_556
Pt2 Tm4 2.868588 1_455
Pt2 Tm5 2.868588 1_565
Pt2 Tm2 2.967070 1_555
Pt2 Tm1 2.967070 1_556
Pt2 Tm3 2.967072 1_455
Pt2 Tm0 2.967072 1_456
Pt2 Tm6 2.972563 1_555
Pt2 Tm9 3.257695 1_555
Pt2 Tm9 3.257695 1_556
Pt3 Tm8 2.868588 1_565
Pt3 Tm9 2.868588 1_655
Pt3 Tm3 2.967077 1_555
Pt3 Tm2 2.967077 1_555
Pt3 Tm1 2.967077 1_555
Pt3 Tm0 2.967077 1_555
Pt3 Tm7 2.972564 1_555
Pt3 Tm4 3.257695 1_555
Pt3 Tm4 3.257695 1_554
Pt4 Tm7 2.868588 1_555
Pt4 Tm9 2.868588 1_545
Pt4 Tm1 2.967070 1_545
Pt4 Tm2 2.967070 1_545
Pt4 Tm0 2.967072 1_555
Pt4 Tm3 2.967072 1_555
Pt4 Tm8 2.972563 1_555
Pt4 Tm5 3.257695 1_554
Pt4 Tm5 3.257695 1_555
Pt5 Tm7 2.868588 1_555
Pt5 Tm8 2.868588 1_455
Pt5 Tm3 2.967070 1_455
Pt5 Tm0 2.967070 1_455
Pt5 Tm2 2.967072 1_555
Pt5 Tm1 2.967072 1_555
Pt5 Tm9 2.972563 1_555
Pt5 Tm6 3.257695 1_555
Pt5 Tm6 3.257695 1_554
