# generated using pymatgen
data_Li3Mn2CoO6
_symmetry_space_group_name_H-M   'P 1'
_cell_length_a   5.08711558
_cell_length_b   9.81698729
_cell_length_c   5.08735291
_cell_angle_alpha   86.48280559
_cell_angle_beta   117.37570753
_cell_angle_gamma   86.48319112
_symmetry_Int_Tables_number   1
_chemical_formula_structural   Li3Mn2CoO6
_chemical_formula_sum   'Li6 Mn4 Co2 O12'
_cell_volume   224.03349165
_cell_formula_units_Z   2
loop_
 _symmetry_equiv_pos_site_id
 _symmetry_equiv_pos_as_xyz
  1  'x, y, z'
loop_
 _atom_site_type_symbol
 _atom_site_label
 _atom_site_symmetry_multiplicity
 _atom_site_fract_x
 _atom_site_fract_y
 _atom_site_fract_z
 _atom_site_occupancy
  Li  Li0  1  0.24979500  0.25025300  0.24978500  1
  Li  Li1  1  0.75024300  0.74977400  0.75020600  1
  Li  Li2  1  0.94478900  0.24404800  0.61072500  1
  Li  Li3  1  0.38931500  0.75596900  0.05526000  1
  Li  Li4  1  0.55533300  0.25574800  0.88983500  1
  Li  Li5  1  0.11010400  0.74426300  0.44460700  1
  Mn  Mn0  1  0.33043500  0.99988200  0.66954900  1
  Mn  Mn1  1  0.83644900  0.50003900  0.16345600  1
  Mn  Mn2  1  0.16996000  0.50003300  0.83016100  1
  Mn  Mn3  1  0.66286500  0.00000300  0.33712300  1
  Co  Co0  1  0.50020700  0.50003800  0.49975600  1
  Co  Co1  1  0.99956600  0.00002200  0.00042600  1
  O  O0  1  0.60338300  0.11590000  0.61050400  1
  O  O1  1  0.11341000  0.61508800  0.10646200  1
  O  O2  1  0.89352200  0.38498300  0.88659200  1
  O  O3  1  0.38950200  0.88398100  0.39660400  1
  O  O4  1  0.29322400  0.11773000  0.94114700  1
  O  O5  1  0.83238500  0.60653200  0.48356200  1
  O  O6  1  0.98363800  0.10597000  0.33031300  1
  O  O7  1  0.44128300  0.61800900  0.79439100  1
  O  O8  1  0.51633200  0.39350300  0.16752200  1
  O  O9  1  0.05880000  0.88218000  0.70683500  1
  O  O10  1  0.20566300  0.38209000  0.55872700  1
  O  O11  1  0.66979700  0.89396100  0.01645400  1
loop_
_geom_bond_atom_site_label_1
_geom_bond_atom_site_label_2
_geom_bond_distance
_geom_bond_site_symmetry_2
Li0 O8 2.162134 1_555
Li0 O6 2.163684 1_455
Li0 O0 2.172330 1_555
Li0 O10 2.175806 1_555
Li0 O4 2.177409 1_554
Li0 O2 2.185070 1_454
Li1 O5 2.162267 1_555
Li1 O11 2.163256 1_556
Li1 O3 2.171681 1_555
Li1 O7 2.175478 1_555
Li1 O9 2.176169 1_655
Li1 O1 2.184759 1_656
Li2 O10 2.041351 1_655
Li2 O4 2.059055 1_655
Li2 O6 2.091696 1_555
Li2 O2 2.117180 1_555
Li2 O0 2.205774 1_555
Li2 O8 2.582520 1_555
Li3 O7 2.040761 1_554
Li3 O9 2.058696 1_554
Li3 O11 2.091256 1_555
Li3 O1 2.116783 1_555
Li3 O3 2.204819 1_555
Li3 O5 2.581807 1_555
Li4 O4 2.044553 1_555
Li4 O10 2.063332 1_555
Li4 O8 2.079214 1_556
Li4 O0 2.116982 1_555
Li4 O2 2.204763 1_555
Li4 O6 2.577466 1_556
Li5 O9 2.044353 1_555
Li5 O7 2.063308 1_555
Li5 O5 2.079036 1_455
Li5 O3 2.116226 1_555
Li5 O1 2.204391 1_555
Li5 O11 2.576391 1_455
Mn0 O9 1.921104 1_555
Mn0 O4 1.921775 1_565
Mn0 O3 1.961788 1_555
Mn0 O0 1.962403 1_565
Mn0 O11 1.982143 1_556
Mn0 O6 1.982297 1_465
Mn1 O2 1.968504 1_554
Mn1 O1 1.968634 1_655
Mn1 O5 1.995635 1_555
Mn1 O8 1.995858 1_555
Mn1 O7 2.209996 1_554
Mn1 O10 2.210483 1_655
Mn2 O7 1.918544 1_555
Mn2 O10 1.918710 1_555
Mn2 O1 1.964982 1_556
Mn2 O2 1.965201 1_455
Mn2 O8 1.979049 1_556
Mn2 O5 1.979918 1_455
Mn3 O0 1.964506 1_555
Mn3 O3 1.965128 1_545
Mn3 O6 2.000501 1_555
Mn3 O11 2.000762 1_545
Mn3 O4 2.212193 1_554
Mn3 O9 2.212616 1_645
Co0 O10 2.063854 1_555
Co0 O7 2.064324 1_555
Co0 O5 2.071103 1_555
Co0 O8 2.071510 1_555
Co0 O1 2.231627 1_555
Co0 O2 2.231780 1_555
Co1 O6 2.057613 1_555
Co1 O11 2.057830 1_545
Co1 O4 2.059418 1_654
Co1 O9 2.059877 1_644
Co1 O0 2.248584 1_554
Co1 O3 2.249241 1_645
