# generated using pymatgen
data_Dy2MgSe4
_symmetry_space_group_name_H-M   'P 1'
_cell_length_a   13.23042640
_cell_length_b   7.90081667
_cell_length_c   13.45308258
_cell_angle_alpha   90.00000000
_cell_angle_beta   90.00000000
_cell_angle_gamma   90.00000000
_symmetry_Int_Tables_number   1
_chemical_formula_structural   Dy2MgSe4
_chemical_formula_sum   'Dy16 Mg8 Se32'
_cell_volume   1406.26650864
_cell_formula_units_Z   8
loop_
 _symmetry_equiv_pos_site_id
 _symmetry_equiv_pos_as_xyz
  1  'x, y, z'
loop_
 _atom_site_type_symbol
 _atom_site_label
 _atom_site_symmetry_multiplicity
 _atom_site_fract_x
 _atom_site_fract_y
 _atom_site_fract_z
 _atom_site_occupancy
  Dy  Dy0  1  0.10778460  0.88207870  0.68599702  1
  Dy  Dy1  1  0.89221540  0.11792130  0.18599702  1
  Dy  Dy2  1  0.39221540  0.88207870  0.18599702  1
  Dy  Dy3  1  0.60778460  0.11792130  0.68599702  1
  Dy  Dy4  1  0.12783776  0.38068723  0.32633322  1
  Dy  Dy5  1  0.87216224  0.61931277  0.82633322  1
  Dy  Dy6  1  0.37216224  0.38068723  0.82633322  1
  Dy  Dy7  1  0.62783776  0.61931277  0.32633322  1
  Dy  Dy8  1  0.13304073  0.62814872  0.99052668  1
  Dy  Dy9  1  0.86695927  0.37185128  0.49052668  1
  Dy  Dy10  1  0.36695927  0.62814872  0.49052668  1
  Dy  Dy11  1  0.63304073  0.37185128  0.99052668  1
  Dy  Dy12  1  0.13311163  0.12859932  0.99106528  1
  Dy  Dy13  1  0.86688837  0.87140068  0.49106528  1
  Dy  Dy14  1  0.36688837  0.12859932  0.49106528  1
  Dy  Dy15  1  0.63311163  0.87140068  0.99106528  1
  Mg  Mg0  1  0.11068848  0.38117187  0.69036096  1
  Mg  Mg1  1  0.88931152  0.61882813  0.19036096  1
  Mg  Mg2  1  0.38931152  0.38117187  0.19036096  1
  Mg  Mg3  1  0.61068848  0.61882813  0.69036096  1
  Mg  Mg4  1  0.12654110  0.87778016  0.32106488  1
  Mg  Mg5  1  0.87345890  0.12221984  0.82106488  1
  Mg  Mg6  1  0.37345890  0.87778016  0.82106488  1
  Mg  Mg7  1  0.62654110  0.12221984  0.32106488  1
  Se  Se0  1  0.01293438  0.87710198  0.87782282  1
  Se  Se1  1  0.98706562  0.12289802  0.37782282  1
  Se  Se2  1  0.48706562  0.87710198  0.37782282  1
  Se  Se3  1  0.51293438  0.12289802  0.87782282  1
  Se  Se4  1  0.03465505  0.37659979  0.13002322  1
  Se  Se5  1  0.96534495  0.62340021  0.63002322  1
  Se  Se6  1  0.46534495  0.37659979  0.63002322  1
  Se  Se7  1  0.53465505  0.62340021  0.13002322  1
  Se  Se8  1  0.02105458  0.37260533  0.86873897  1
  Se  Se9  1  0.97894542  0.62739467  0.36873897  1
  Se  Se10  1  0.47894542  0.37260533  0.36873897  1
  Se  Se11  1  0.52105458  0.62739467  0.86873897  1
  Se  Se12  1  0.04192936  0.87211817  0.13633700  1
  Se  Se13  1  0.95807064  0.12788183  0.63633700  1
  Se  Se14  1  0.45807064  0.87211817  0.63633700  1
  Se  Se15  1  0.54192936  0.12788183  0.13633700  1
  Se  Se16  1  0.21168115  0.87914161  0.50324405  1
  Se  Se17  1  0.78831885  0.12085839  0.00324405  1
  Se  Se18  1  0.28831885  0.87914161  0.00324405  1
  Se  Se19  1  0.71168115  0.12085839  0.50324405  1
  Se  Se20  1  0.21221652  0.37933942  0.51881303  1
  Se  Se21  1  0.78778348  0.62066058  0.01881303  1
  Se  Se22  1  0.28778348  0.37933942  0.01881303  1
  Se  Se23  1  0.71221652  0.62066058  0.51881303  1
  Se  Se24  1  0.23147181  0.12711120  0.77806773  1
  Se  Se25  1  0.76852819  0.87288880  0.27806773  1
  Se  Se26  1  0.26852819  0.12711120  0.27806773  1
  Se  Se27  1  0.73147181  0.87288880  0.77806773  1
  Se  Se28  1  0.23014319  0.63103605  0.77860614  1
  Se  Se29  1  0.76985681  0.36896395  0.27860614  1
  Se  Se30  1  0.26985681  0.63103605  0.27860614  1
  Se  Se31  1  0.73014319  0.36896395  0.77860614  1
loop_
_geom_bond_atom_site_label_1
_geom_bond_atom_site_label_2
_geom_bond_distance
_geom_bond_site_symmetry_2
Dy0 Se16 2.816864 1_555
Dy0 Se24 2.821358 1_565
Dy0 Se28 2.847271 1_555
Dy0 Se13 2.853307 1_465
Dy0 Se0 2.869859 1_555
Dy0 Se5 2.880195 1_455
Dy1 Se17 2.816864 1_555
Dy1 Se25 2.821358 1_545
Dy1 Se29 2.847271 1_555
Dy1 Se12 2.853307 1_645
Dy1 Se1 2.869859 1_555
Dy1 Se4 2.880195 1_655
Dy2 Se18 2.816864 1_555
Dy2 Se26 2.821358 1_565
Dy2 Se30 2.847271 1_555
Dy2 Se15 2.853307 1_565
Dy2 Se2 2.869859 1_555
Dy2 Se7 2.880195 1_555
Dy3 Se19 2.816864 1_555
Dy3 Se27 2.821358 1_545
Dy3 Se31 2.847271 1_555
Dy3 Se14 2.853307 1_545
Dy3 Se3 2.869859 1_555
Dy3 Se6 2.880195 1_555
Dy4 Se30 2.802700 1_555
Dy4 Se26 2.810738 1_555
Dy4 Se20 2.819862 1_555
Dy4 Se9 2.829371 1_455
Dy4 Se1 2.845518 1_455
Dy4 Se4 2.914739 1_555
Dy5 Se31 2.802700 1_555
Dy5 Se27 2.810738 1_555
Dy5 Se21 2.819862 1_556
Dy5 Se8 2.829371 1_655
Dy5 Se0 2.845518 1_655
Dy5 Se5 2.914739 1_555
Dy6 Se28 2.802700 1_555
Dy6 Se24 2.810738 1_555
Dy6 Se22 2.819862 1_556
Dy6 Se11 2.829371 1_555
Dy6 Se3 2.845518 1_555
Dy6 Se6 2.914739 1_555
Dy7 Se29 2.802700 1_555
Dy7 Se25 2.810738 1_555
Dy7 Se23 2.819862 1_555
Dy7 Se10 2.829371 1_555
Dy7 Se2 2.845518 1_555
Dy7 Se7 2.914739 1_555
Dy8 Se18 2.860471 1_556
Dy8 Se22 2.863679 1_556
Dy8 Se0 2.948363 1_555
Dy8 Se8 2.992657 1_555
Dy8 Se12 3.002738 1_556
Dy8 Se4 3.027566 1_556
Dy8 Se28 3.127156 1_555
Dy9 Se19 2.860471 1_555
Dy9 Se23 2.863679 1_555
Dy9 Se1 2.948363 1_555
Dy9 Se9 2.992657 1_555
Dy9 Se13 3.002738 1_555
Dy9 Se5 3.027566 1_555
Dy9 Se29 3.127156 1_555
Dy10 Se16 2.860471 1_555
Dy10 Se20 2.863679 1_555
Dy10 Se2 2.948363 1_555
Dy10 Se10 2.992657 1_555
Dy10 Se14 3.002738 1_555
Dy10 Se6 3.027566 1_555
Dy10 Se30 3.127156 1_555
Dy11 Se17 2.860471 1_556
Dy11 Se21 2.863679 1_556
Dy11 Se3 2.948363 1_555
Dy11 Se11 2.992657 1_555
Dy11 Se15 3.002738 1_556
Dy11 Se7 3.027566 1_556
Dy11 Se31 3.127156 1_555
Dy12 Se18 2.850975 1_546
Dy12 Se22 2.872553 1_556
Dy12 Se8 2.936461 1_555
Dy12 Se0 2.966028 1_545
Dy12 Se4 3.005129 1_556
Dy12 Se12 3.062872 1_546
Dy12 Se24 3.147155 1_555
Dy13 Se19 2.850975 1_565
Dy13 Se23 2.872553 1_555
Dy13 Se9 2.936461 1_555
Dy13 Se1 2.966028 1_565
Dy13 Se5 3.005129 1_555
Dy13 Se13 3.062872 1_565
Dy13 Se25 3.147155 1_555
Dy14 Se16 2.850975 1_545
Dy14 Se20 2.872553 1_555
Dy14 Se10 2.936461 1_555
Dy14 Se2 2.966028 1_545
Dy14 Se6 3.005129 1_555
Dy14 Se14 3.062872 1_545
Dy14 Se26 3.147155 1_555
Dy15 Se17 2.850975 1_566
Dy15 Se21 2.872553 1_556
Dy15 Se11 2.936461 1_555
Dy15 Se3 2.966028 1_565
Dy15 Se7 3.005129 1_556
Dy15 Se15 3.062872 1_566
Dy15 Se27 3.147155 1_555
Mg0 Se20 2.670341 1_555
Mg0 Se8 2.677620 1_555
Mg0 Se28 2.793626 1_555
Mg0 Se24 2.824018 1_555
Mg0 Se5 2.831837 1_455
Mg0 Se13 2.934311 1_455
Mg1 Se21 2.670341 1_555
Mg1 Se9 2.677620 1_555
Mg1 Se29 2.793626 1_555
Mg1 Se25 2.824018 1_555
Mg1 Se4 2.831837 1_655
Mg1 Se12 2.934311 1_655
Mg2 Se22 2.670341 1_555
Mg2 Se10 2.677620 1_555
Mg2 Se30 2.793626 1_555
Mg2 Se26 2.824018 1_555
Mg2 Se7 2.831837 1_555
Mg2 Se15 2.934311 1_555
Mg3 Se23 2.670341 1_555
Mg3 Se11 2.677620 1_555
Mg3 Se31 2.793626 1_555
Mg3 Se27 2.824018 1_555
Mg3 Se6 2.831837 1_555
Mg3 Se14 2.934311 1_555
Mg4 Se16 2.697360 1_555
Mg4 Se12 2.726020 1_555
Mg4 Se30 2.778857 1_555
Mg4 Se1 2.781867 1_465
Mg4 Se26 2.782827 1_565
Mg4 Se9 2.852730 1_455
Mg5 Se17 2.697360 1_556
Mg5 Se13 2.726020 1_555
Mg5 Se31 2.778857 1_555
Mg5 Se0 2.781867 1_645
Mg5 Se27 2.782827 1_545
Mg5 Se8 2.852730 1_655
Mg6 Se18 2.697360 1_556
Mg6 Se14 2.726020 1_555
Mg6 Se28 2.778857 1_555
Mg6 Se3 2.781867 1_565
Mg6 Se24 2.782827 1_565
Mg6 Se11 2.852730 1_555
Mg7 Se19 2.697360 1_555
Mg7 Se15 2.726020 1_555
Mg7 Se29 2.778857 1_555
Mg7 Se2 2.781867 1_545
Mg7 Se25 2.782827 1_545
Mg7 Se10 2.852730 1_555
