# generated using pymatgen
data_ZrMnNi
_symmetry_space_group_name_H-M   'P 1'
_cell_length_a   5.00388580
_cell_length_b   5.00388580
_cell_length_c   8.05499900
_cell_angle_alpha   90.00000000
_cell_angle_beta   90.00000000
_cell_angle_gamma   121.81099968
_symmetry_Int_Tables_number   1
_chemical_formula_structural   ZrMnNi
_chemical_formula_sum   'Zr4 Mn4 Ni4'
_cell_volume   171.39283374
_cell_formula_units_Z   4
loop_
 _symmetry_equiv_pos_site_id
 _symmetry_equiv_pos_as_xyz
  1  'x, y, z'
loop_
 _atom_site_type_symbol
 _atom_site_label
 _atom_site_symmetry_multiplicity
 _atom_site_fract_x
 _atom_site_fract_y
 _atom_site_fract_z
 _atom_site_occupancy
  Zr  Zr0  1  0.33511200  0.66488800  0.18805300  1
  Zr  Zr1  1  0.66414200  0.33585800  0.31053200  1
  Zr  Zr2  1  0.66414200  0.33585800  0.68946800  1
  Zr  Zr3  1  0.33511200  0.66488800  0.81194700  1
  Mn  Mn0  1  0.00448100  0.99551900  0.24444700  1
  Mn  Mn1  1  0.00448100  0.99551900  0.75555300  1
  Mn  Mn2  1  0.82776700  0.66658400  0.00000000  1
  Mn  Mn3  1  0.33341600  0.17223300  0.00000000  1
  Ni  Ni0  1  0.82852300  0.17147700  0.00000000  1
  Ni  Ni1  1  0.16762600  0.33188400  0.50000000  1
  Ni  Ni2  1  0.66811600  0.83237400  0.50000000  1
  Ni  Ni3  1  0.16565200  0.83434800  0.50000000  1
loop_
_geom_bond_atom_site_label_1
_geom_bond_atom_site_label_2
_geom_bond_distance
_geom_bond_site_symmetry_2
Zr0 Zr1 3.021412 1_455
Zr0 Zr1 3.021412 1_565
Zr0 Zr3 3.029533 1_554
Zr0 Zr1 3.041796 1_555
Zr1 Zr2 3.052329 1_555
Zr2 Zr3 3.021412 1_655
Zr2 Zr3 3.021412 1_545
Zr2 Zr3 3.041796 1_555
Mn0 Mn2 2.415311 1_455
Mn0 Mn3 2.415311 1_565
Mn0 Ni3 2.494764 1_555
Mn0 Ni0 2.498958 1_465
Mn0 Ni2 2.507618 1_455
Mn0 Ni1 2.507618 1_565
Mn0 Zr1 2.855351 1_455
Mn0 Zr1 2.855351 1_565
Mn0 Zr0 2.884492 1_565
Mn0 Zr0 2.884492 1_455
Mn0 Zr0 2.926827 1_555
Mn0 Zr1 3.023486 1_465
Mn1 Mn2 2.415311 1_456
Mn1 Mn3 2.415311 1_566
Mn1 Ni3 2.494764 1_555
Mn1 Ni0 2.498958 1_466
Mn1 Ni2 2.507618 1_455
Mn1 Ni1 2.507618 1_565
Mn1 Zr2 2.855351 1_455
Mn1 Zr2 2.855351 1_565
Mn1 Zr3 2.884492 1_565
Mn1 Zr3 2.884492 1_455
Mn1 Zr3 2.926827 1_555
Mn1 Zr2 3.023486 1_465
Mn2 Mn3 2.405657 1_555
Mn2 Mn3 2.460637 1_665
Mn2 Ni0 2.479455 1_555
Mn2 Ni0 2.524435 1_565
Mn2 Zr1 2.870073 1_555
Mn2 Zr2 2.870073 1_554
Mn2 Zr3 2.889584 1_554
Mn2 Zr0 2.889584 1_555
Mn2 Zr0 2.960115 1_655
Mn2 Zr3 2.960115 1_654
Mn3 Ni0 2.479455 1_555
Mn3 Ni0 2.524435 1_455
Mn3 Zr1 2.870073 1_555
Mn3 Zr2 2.870073 1_554
Mn3 Zr3 2.889584 1_554
Mn3 Zr0 2.889584 1_555
Mn3 Zr3 2.960115 1_544
Mn3 Zr0 2.960115 1_545
Ni0 Zr0 2.866713 1_655
Ni0 Zr3 2.866713 1_654
Ni0 Zr3 2.866713 1_544
Ni0 Zr0 2.866713 1_545
Ni0 Zr1 2.884980 1_555
Ni0 Zr2 2.884980 1_554
Ni1 Ni2 2.430763 1_445
Ni1 Ni2 2.435531 1_555
Ni1 Ni3 2.484421 1_545
Ni1 Ni3 2.519493 1_555
Ni1 Zr3 2.884538 1_555
Ni1 Zr0 2.884538 1_555
Ni1 Zr2 2.906936 1_555
Ni1 Zr1 2.906936 1_555
Ni1 Zr2 2.954598 1_455
Ni1 Zr1 2.954598 1_455
Ni2 Ni3 2.484421 1_655
Ni2 Ni3 2.519493 1_555
Ni2 Zr0 2.884538 1_555
Ni2 Zr3 2.884538 1_555
Ni2 Zr2 2.906936 1_555
Ni2 Zr1 2.906936 1_555
Ni2 Zr2 2.954598 1_565
Ni2 Zr1 2.954598 1_565
Ni3 Zr1 2.872204 1_455
Ni3 Zr2 2.872204 1_455
Ni3 Zr1 2.872204 1_565
Ni3 Zr2 2.872204 1_565
Ni3 Zr3 2.917178 1_555
Ni3 Zr0 2.917178 1_555
