# generated using pymatgen
data_YbCdGe
_symmetry_space_group_name_H-M   'P 1'
_cell_length_a   7.29567038
_cell_length_b   7.29567038
_cell_length_c   4.44690000
_cell_angle_alpha   90.00000000
_cell_angle_beta   90.00000000
_cell_angle_gamma   120.00000347
_symmetry_Int_Tables_number   1
_chemical_formula_structural   YbCdGe
_chemical_formula_sum   'Yb3 Cd3 Ge3'
_cell_volume   204.98325666
_cell_formula_units_Z   3
loop_
 _symmetry_equiv_pos_site_id
 _symmetry_equiv_pos_as_xyz
  1  'x, y, z'
loop_
 _atom_site_type_symbol
 _atom_site_label
 _atom_site_symmetry_multiplicity
 _atom_site_fract_x
 _atom_site_fract_y
 _atom_site_fract_z
 _atom_site_occupancy
  Yb  Yb0  1  0.42160500  0.42160500  0.50000000  1
  Yb  Yb1  1  0.57839500  0.00000000  0.50000000  1
  Yb  Yb2  1  0.00000000  0.57839500  0.50000000  1
  Cd  Cd0  1  0.74437400  0.74437400  0.00000000  1
  Cd  Cd1  1  0.25562600  0.00000000  0.00000000  1
  Cd  Cd2  1  0.00000000  0.25562600  0.00000000  1
  Ge  Ge0  1  0.66666700  0.33333300  0.00000000  1
  Ge  Ge1  1  0.33333300  0.66666700  0.00000000  1
  Ge  Ge2  1  0.00000000  0.00000000  0.50000000  1
loop_
_geom_bond_atom_site_label_1
_geom_bond_atom_site_label_2
_geom_bond_distance
_geom_bond_site_symmetry_2
Cd0 Ge0 2.759387 1_555
Cd0 Ge1 2.759387 1_555
Cd0 Ge2 2.902037 1_665
Cd0 Ge2 2.902037 1_664
Cd0 Cd2 3.230211 1_665
Cd0 Cd1 3.230211 1_665
Cd0 Yb0 3.238655 1_555
Cd0 Yb0 3.238655 1_554
Cd0 Yb2 3.485183 1_655
Cd0 Yb2 3.485183 1_654
Cd0 Yb1 3.485183 1_564
Cd0 Yb1 3.485183 1_565
Cd1 Ge1 2.759380 1_545
Cd1 Ge0 2.759385 1_555
Cd1 Ge2 2.902037 1_554
Cd1 Ge2 2.902037 1_555
Cd1 Cd2 3.230211 1_555
Cd1 Yb1 3.238655 1_555
Cd1 Yb1 3.238655 1_554
Cd1 Yb2 3.485183 1_544
Cd1 Yb2 3.485183 1_545
Cd1 Yb0 3.485183 1_555
Cd1 Yb0 3.485183 1_554
Cd2 Ge0 2.759380 1_455
Cd2 Ge1 2.759385 1_555
Cd2 Ge2 2.902037 1_554
Cd2 Ge2 2.902037 1_555
Cd2 Yb2 3.238655 1_555
Cd2 Yb2 3.238655 1_554
Cd2 Yb1 3.485183 1_454
Cd2 Yb1 3.485183 1_455
Cd2 Yb0 3.485183 1_555
Cd2 Yb0 3.485183 1_554
Ge0 Yb1 3.115510 1_555
Ge0 Yb1 3.115510 1_554
Ge0 Yb2 3.115512 1_655
Ge0 Yb2 3.115512 1_654
Ge0 Yb0 3.115515 1_555
Ge0 Yb0 3.115515 1_554
Ge1 Yb2 3.115510 1_555
Ge1 Yb2 3.115510 1_554
Ge1 Yb1 3.115512 1_565
Ge1 Yb1 3.115512 1_564
Ge1 Yb0 3.115515 1_555
Ge1 Yb0 3.115515 1_554
Ge2 Yb0 3.075891 1_555
Ge2 Yb2 3.075891 1_545
Ge2 Yb1 3.075891 1_455
