# generated using pymatgen
data_Mg14TiW
_symmetry_space_group_name_H-M   'P 1'
_cell_length_a   6.26256018
_cell_length_b   6.26255970
_cell_length_c   9.99121517
_cell_angle_alpha   90.00000000
_cell_angle_beta   90.00000000
_cell_angle_gamma   120.00000256
_symmetry_Int_Tables_number   1
_chemical_formula_structural   Mg14TiW
_chemical_formula_sum   'Mg14 Ti1 W1'
_cell_volume   339.35380530
_cell_formula_units_Z   1
loop_
 _symmetry_equiv_pos_site_id
 _symmetry_equiv_pos_as_xyz
  1  'x, y, z'
loop_
 _atom_site_type_symbol
 _atom_site_label
 _atom_site_symmetry_multiplicity
 _atom_site_fract_x
 _atom_site_fract_y
 _atom_site_fract_z
 _atom_site_occupancy
  Mg  Mg0  1  0.17027121  0.83513510  0.12500000  1
  Mg  Mg1  1  0.16809102  0.83404501  0.62500000  1
  Mg  Mg2  1  0.66486490  0.32972879  0.12500000  1
  Mg  Mg3  1  0.66595499  0.33190898  0.62500000  1
  Mg  Mg4  1  0.66486490  0.83513510  0.12500000  1
  Mg  Mg5  1  0.66595499  0.83404501  0.62500000  1
  Mg  Mg6  1  0.32594755  0.17405245  0.38050801  1
  Mg  Mg7  1  0.32594755  0.17405245  0.86949199  1
  Mg  Mg8  1  0.32594755  0.65189609  0.38050801  1
  Mg  Mg9  1  0.32594755  0.65189609  0.86949199  1
  Mg  Mg10  1  0.84810391  0.17405245  0.38050801  1
  Mg  Mg11  1  0.84810391  0.17405245  0.86949199  1
  Mg  Mg12  1  0.83333300  0.66666700  0.37325126  1
  Mg  Mg13  1  0.83333300  0.66666700  0.87674874  1
  Ti  Ti0  1  0.16666700  0.33333300  0.12500000  1
  W  W0  1  0.16666700  0.33333300  0.62500000  1
loop_
_geom_bond_atom_site_label_1
_geom_bond_atom_site_label_2
_geom_bond_distance
_geom_bond_site_symmetry_2
Mg0 Mg12 3.080815 1_455
Mg0 Mg13 3.080815 1_454
Mg0 Mg2 3.097423 1_565
Mg0 Mg4 3.097423 1_555
Mg0 Ti0 3.131341 1_555
Mg0 Ti0 3.131341 1_565
Mg0 Mg8 3.146919 1_555
Mg0 Mg9 3.146919 1_554
Mg0 Mg7 3.146926 1_564
Mg0 Mg6 3.146926 1_565
Mg0 Mg2 3.165137 1_455
Mg0 Mg4 3.165137 1_455
Mg1 Mg8 3.061597 1_555
Mg1 Mg9 3.061597 1_555
Mg1 Mg6 3.061603 1_565
Mg1 Mg7 3.061603 1_565
Mg1 Mg13 3.102082 1_455
Mg1 Mg12 3.102082 1_455
Mg1 W0 3.131289 1_555
Mg1 W0 3.131289 1_565
Mg2 Mg4 3.097423 1_545
Mg2 Ti0 3.131341 1_655
Mg2 Ti0 3.131341 1_555
Mg2 Mg6 3.146926 1_555
Mg2 Mg7 3.146926 1_554
Mg2 Mg4 3.165137 1_555
Mg3 Mg6 3.061603 1_555
Mg3 Mg7 3.061603 1_555
Mg3 W0 3.131290 1_655
Mg3 W0 3.131290 1_555
Mg4 Ti0 3.131341 1_555
Mg4 Ti0 3.131341 1_665
Mg4 Mg9 3.146926 1_554
Mg4 Mg8 3.146926 1_555
Mg5 Mg9 3.061603 1_555
Mg5 Mg8 3.061603 1_555
Mg5 W0 3.131289 1_555
Mg5 W0 3.131289 1_665
Mg6 W0 2.992019 1_555
Mg6 Mg8 2.992524 1_555
Mg6 Ti0 3.082533 1_555
Mg6 Mg8 3.270035 1_545
Mg7 W0 2.992019 1_555
Mg7 Mg9 2.992524 1_555
Mg7 Ti0 3.082533 1_556
Mg7 Mg9 3.270035 1_545
Mg8 W0 2.992025 1_555
Mg8 Ti0 3.082539 1_555
Mg9 W0 2.992025 1_555
Mg9 Ti0 3.082539 1_556
Mg10 W0 2.992025 1_655
Mg10 Mg8 2.992524 1_655
Mg10 Mg6 2.992525 1_655
Mg10 Mg3 3.061597 1_555
Mg10 Mg5 3.061603 1_545
Mg10 Ti0 3.082539 1_655
Mg10 Mg12 3.133143 1_545
Mg10 Mg12 3.133144 1_555
Mg10 Mg2 3.146919 1_555
Mg10 Mg4 3.146925 1_545
Mg10 Mg8 3.270035 1_545
Mg10 Mg6 3.270036 1_555
Mg11 W0 2.992025 1_655
Mg11 Mg9 2.992524 1_655
Mg11 Mg7 2.992525 1_655
Mg11 Mg3 3.061597 1_555
Mg11 Mg5 3.061603 1_545
Mg11 Ti0 3.082539 1_656
Mg11 Mg13 3.133143 1_545
Mg11 Mg13 3.133144 1_555
Mg11 Mg2 3.146919 1_556
Mg11 Mg4 3.146925 1_546
Mg11 Mg9 3.270035 1_545
Mg11 Mg7 3.270036 1_555
Mg12 Mg4 3.080809 1_555
Mg12 Mg2 3.080815 1_555
Mg12 Mg5 3.102076 1_555
Mg12 Mg3 3.102082 1_555
Mg12 Mg6 3.133143 1_665
Mg12 Mg6 3.133143 1_555
Mg12 Mg8 3.133144 1_555
Mg12 Mg8 3.133144 1_655
Mg13 Mg4 3.080809 1_556
Mg13 Mg2 3.080815 1_556
Mg13 Mg5 3.102076 1_555
Mg13 Mg3 3.102082 1_555
Mg13 Mg7 3.133143 1_665
Mg13 Mg7 3.133143 1_555
Mg13 Mg9 3.133144 1_555
Mg13 Mg9 3.133144 1_655
