# generated using pymatgen
data_Li9Mn7O16
_symmetry_space_group_name_H-M   'P 1'
_cell_length_a   5.35063500
_cell_length_b   6.52143285
_cell_length_c   8.68854593
_cell_angle_alpha   97.32706153
_cell_angle_beta   93.73327330
_cell_angle_gamma   95.01678935
_symmetry_Int_Tables_number   1
_chemical_formula_structural   Li9Mn7O16
_chemical_formula_sum   'Li9 Mn7 O16'
_cell_volume   298.65516742
_cell_formula_units_Z   1
loop_
 _symmetry_equiv_pos_site_id
 _symmetry_equiv_pos_as_xyz
  1  'x, y, z'
loop_
 _atom_site_type_symbol
 _atom_site_label
 _atom_site_symmetry_multiplicity
 _atom_site_fract_x
 _atom_site_fract_y
 _atom_site_fract_z
 _atom_site_occupancy
  Li  Li0  1  0.74534800  0.20029000  0.81917900  1
  Li  Li1  1  0.24978500  0.56041600  0.43464200  1
  Li  Li2  1  0.75737300  0.93986600  0.06584200  1
  Li  Li3  1  0.24262700  0.06013400  0.93415800  1
  Li  Li4  1  0.75021500  0.43958400  0.56535800  1
  Li  Li5  1  0.25465200  0.79971000  0.18082100  1
  Li  Li6  1  0.24652000  0.30891200  0.68838400  1
  Li  Li7  1  0.75348000  0.69108800  0.31161600  1
  Li  Li8  1  0.50000000  0.50000000  0.00000000  1
  Mn  Mn0  1  0.00003800  0.62359300  0.87617100  1
  Mn  Mn1  1  0.99996200  0.37640700  0.12382900  1
  Mn  Mn2  1  0.50000000  0.00000000  0.50000000  1
  Mn  Mn3  1  0.50029400  0.74778300  0.75359700  1
  Mn  Mn4  1  0.00055900  0.12585800  0.37455400  1
  Mn  Mn5  1  0.99944100  0.87414200  0.62544600  1
  Mn  Mn6  1  0.49970600  0.25221700  0.24640300  1
  O  O0  1  0.10294300  0.35530700  0.91322600  1
  O  O1  1  0.60467600  0.72886200  0.53633900  1
  O  O2  1  0.10814600  0.10691600  0.16087900  1
  O  O3  1  0.65911900  0.23712000  0.05096100  1
  O  O4  1  0.10930900  0.60226100  0.66422700  1
  O  O5  1  0.60369700  0.97469700  0.28462600  1
  O  O6  1  0.65960900  0.49928700  0.79142600  1
  O  O7  1  0.10363400  0.85387200  0.41240400  1
  O  O8  1  0.39630300  0.02530300  0.71537400  1
  O  O9  1  0.89069100  0.39773900  0.33577300  1
  O  O10  1  0.34088100  0.76288000  0.94903900  1
  O  O11  1  0.89185400  0.89308400  0.83912100  1
  O  O12  1  0.39532400  0.27113800  0.46366100  1
  O  O13  1  0.89705700  0.64469300  0.08677400  1
  O  O14  1  0.89636600  0.14612800  0.58759600  1
  O  O15  1  0.34039100  0.50071300  0.20857400  1
loop_
_geom_bond_atom_site_label_1
_geom_bond_atom_site_label_2
_geom_bond_distance
_geom_bond_site_symmetry_2
Li0 O6 2.081500 1_555
Li0 O3 2.084023 1_556
Li0 O0 2.144304 1_655
Li0 O8 2.179235 1_555
Li0 O14 2.215104 1_555
Li0 O11 2.236906 1_545
Li1 O15 2.051016 1_555
Li1 O12 2.140463 1_555
Li1 O7 2.155850 1_555
Li1 O4 2.170431 1_555
Li1 O9 2.179731 1_455
Li1 O1 2.182284 1_555
Li2 O3 2.069851 1_565
Li2 O5 2.113592 1_555
Li2 O11 2.135636 1_554
Li2 O2 2.145313 1_665
Li2 O13 2.149496 1_555
Li2 O10 2.507022 1_554
Li3 O10 2.069851 1_545
Li3 O8 2.113592 1_555
Li3 O2 2.135636 1_556
Li3 O11 2.145313 1_445
Li3 O0 2.149496 1_555
Li3 O3 2.507022 1_556
Li4 O6 2.051016 1_555
Li4 O1 2.140463 1_555
Li4 O14 2.155850 1_555
Li4 O9 2.170431 1_555
Li4 O4 2.179731 1_655
Li4 O12 2.182284 1_555
Li5 O15 2.081500 1_555
Li5 O10 2.084023 1_554
Li5 O13 2.144304 1_455
Li5 O5 2.179235 1_555
Li5 O7 2.215104 1_555
Li5 O2 2.236906 1_565
Li6 O8 2.112694 1_555
Li6 O4 2.137949 1_555
Li6 O0 2.140888 1_555
Li6 O14 2.146012 1_455
Li6 O12 2.149650 1_555
Li6 O6 2.491414 1_555
Li7 O5 2.112694 1_555
Li7 O9 2.137949 1_555
Li7 O13 2.140888 1_555
Li7 O7 2.146012 1_655
Li7 O1 2.149650 1_555
Li7 O15 2.491414 1_555
Li8 O15 2.052687 1_555
Li8 O6 2.052687 1_554
Li8 O3 2.063909 1_555
Li8 O10 2.063909 1_554
Li8 O13 2.287289 1_555
Li8 O0 2.287289 1_554
Mn0 O13 1.936796 1_456
Mn0 O0 1.938306 1_555
Mn0 O11 1.955850 1_455
Mn0 O4 1.959936 1_555
Mn0 O6 1.982942 1_455
Mn0 O10 1.991266 1_555
Mn1 O0 1.936796 1_654
Mn1 O13 1.938306 1_555
Mn1 O2 1.955850 1_655
Mn1 O9 1.959936 1_555
Mn1 O15 1.982942 1_655
Mn1 O3 1.991266 1_555
Mn2 O1 1.957682 1_545
Mn2 O12 1.957682 1_555
Mn2 O5 1.977184 1_545
Mn2 O8 1.977184 1_555
Mn2 O14 2.288352 1_555
Mn2 O7 2.288352 1_545
Mn3 O10 1.944599 1_555
Mn3 O6 1.949830 1_555
Mn3 O1 1.995079 1_555
Mn3 O8 2.000184 1_565
Mn3 O11 2.260517 1_555
Mn3 O4 2.265696 1_555
Mn4 O14 1.959448 1_455
Mn4 O7 1.963345 1_545
Mn4 O2 1.971406 1_555
Mn4 O9 1.977808 1_455
Mn4 O12 2.282225 1_555
Mn4 O5 2.304939 1_445
Mn5 O7 1.959448 1_655
Mn5 O14 1.963345 1_565
Mn5 O11 1.971406 1_555
Mn5 O4 1.977808 1_655
Mn5 O1 2.282225 1_555
Mn5 O8 2.304939 1_665
Mn6 O3 1.944599 1_555
Mn6 O15 1.949830 1_555
Mn6 O12 1.995079 1_555
Mn6 O5 2.000184 1_545
Mn6 O2 2.260517 1_555
Mn6 O9 2.265696 1_555
