# generated using pymatgen
data_Ba2AlAg3O8
_symmetry_space_group_name_H-M   'P 1'
_cell_length_a   4.01683400
_cell_length_b   4.01683400
_cell_length_c   12.67977400
_cell_angle_alpha   90.00000000
_cell_angle_beta   90.00000000
_cell_angle_gamma   90.00000000
_symmetry_Int_Tables_number   1
_chemical_formula_structural   Ba2AlAg3O8
_chemical_formula_sum   'Ba2 Al1 Ag3 O8'
_cell_volume   204.58758776
_cell_formula_units_Z   1
loop_
 _symmetry_equiv_pos_site_id
 _symmetry_equiv_pos_as_xyz
  1  'x, y, z'
loop_
 _atom_site_type_symbol
 _atom_site_label
 _atom_site_symmetry_multiplicity
 _atom_site_fract_x
 _atom_site_fract_y
 _atom_site_fract_z
 _atom_site_occupancy
  Ba  Ba0  1  0.50000000  0.50000000  0.15830500  1
  Ba  Ba1  1  0.50000000  0.50000000  0.84169500  1
  Al  Al0  1  0.50000000  0.50000000  0.50000000  1
  Ag  Ag0  1  0.00000000  0.00000000  0.35814300  1
  Ag  Ag1  1  0.00000000  0.00000000  0.00000000  1
  Ag  Ag2  1  0.00000000  0.00000000  0.64185700  1
  O  O0  1  0.00000000  0.50000000  0.40556000  1
  O  O1  1  0.50000000  0.00000000  0.40556000  1
  O  O2  1  0.50000000  0.00000000  0.00000000  1
  O  O3  1  0.00000000  0.00000000  0.16662700  1
  O  O4  1  0.00000000  0.50000000  0.59444000  1
  O  O5  1  0.50000000  0.00000000  0.59444000  1
  O  O6  1  0.00000000  0.00000000  0.83337300  1
  O  O7  1  0.00000000  0.50000000  0.00000000  1
loop_
_geom_bond_atom_site_label_1
_geom_bond_atom_site_label_2
_geom_bond_distance
_geom_bond_site_symmetry_2
Ba0 O2 2.839521 1_555
Ba0 O2 2.839521 1_565
Ba0 O7 2.839521 1_655
Ba0 O7 2.839521 1_555
Ba0 O3 2.842290 1_555
Ba0 O3 2.842290 1_655
Ba0 O3 2.842290 1_565
Ba0 O3 2.842290 1_665
Ba1 O2 2.839521 1_556
Ba1 O7 2.839521 1_556
Ba1 O2 2.839521 1_566
Ba1 O7 2.839521 1_656
Ba1 O6 2.842290 1_665
Ba1 O6 2.842290 1_555
Ba1 O6 2.842290 1_655
Ba1 O6 2.842290 1_565
Al0 O0 2.338310 1_655
Al0 O1 2.338310 1_555
Al0 O1 2.338310 1_565
Al0 O0 2.338310 1_555
Al0 O5 2.338310 1_565
Al0 O4 2.338310 1_655
Al0 O4 2.338310 1_555
Al0 O5 2.338310 1_555
Ag0 O1 2.096479 1_555
Ag0 O0 2.096479 1_555
Ag0 O0 2.096479 1_545
Ag0 O1 2.096479 1_455
Ag0 O3 2.428380 1_555
Ag1 O7 2.008417 1_555
Ag1 O2 2.008417 1_455
Ag1 O2 2.008417 1_555
Ag1 O7 2.008417 1_545
Ag1 O3 2.112793 1_555
Ag1 O6 2.112793 1_554
Ag2 O5 2.096479 1_555
Ag2 O4 2.096479 1_545
Ag2 O4 2.096479 1_555
Ag2 O5 2.096479 1_455
Ag2 O6 2.428380 1_555
