# generated using pymatgen
data_ThSiGe
_symmetry_space_group_name_H-M   'P 1'
_cell_length_a   8.36706495
_cell_length_b   8.36706495
_cell_length_c   8.36706495
_cell_angle_alpha   151.75659885
_cell_angle_beta   151.75659885
_cell_angle_gamma   40.36885598
_symmetry_Int_Tables_number   1
_chemical_formula_structural   ThSiGe
_chemical_formula_sum   'Th2 Si2 Ge2'
_cell_volume   130.90933539
_cell_formula_units_Z   2
loop_
 _symmetry_equiv_pos_site_id
 _symmetry_equiv_pos_as_xyz
  1  'x, y, z'
loop_
 _atom_site_type_symbol
 _atom_site_label
 _atom_site_symmetry_multiplicity
 _atom_site_fract_x
 _atom_site_fract_y
 _atom_site_fract_z
 _atom_site_occupancy
  Th  Th0  1  0.58242700  0.58242700  0.00000000  1
  Th  Th1  1  0.33242700  0.83242700  0.50000000  1
  Si  Si0  1  0.00048800  0.00048800  0.00000000  1
  Si  Si1  1  0.75048800  0.25048800  0.50000000  1
  Ge  Ge0  1  0.16408500  0.16408500  0.00000000  1
  Ge  Ge1  1  0.91408500  0.41408500  0.50000000  1
loop_
_geom_bond_atom_site_label_1
_geom_bond_atom_site_label_2
_geom_bond_distance
_geom_bond_site_symmetry_2
Si0 Th0 3.160862 1_556
Si0 Th0 3.160862 1_455
Si0 Th0 3.160862 1_444
Si0 Th0 3.160862 1_545
Si0 Th1 3.336926 1_444
Si0 Th1 3.336926 1_545
Si1 Th1 3.160862 1_555
Si1 Th1 3.160862 1_544
Si1 Th1 3.160862 1_656
Si1 Th1 3.160862 1_645
Si1 Th0 3.336926 1_556
Si1 Th0 3.336926 1_545
Ge0 Si1 2.451337 1_555
Ge0 Si1 2.451337 1_454
Ge0 Si0 2.569525 1_555
Ge0 Th0 3.159068 1_455
Ge0 Th0 3.159068 1_545
Ge0 Th0 3.159068 1_444
Ge0 Th0 3.159068 1_556
Ge0 Th1 3.340418 1_555
Ge0 Th1 3.340418 1_544
Ge1 Si0 2.451337 1_666
Ge1 Si0 2.451337 1_655
Ge1 Si1 2.569525 1_555
Ge1 Th1 3.159068 1_555
Ge1 Th1 3.159068 1_544
Ge1 Th1 3.159068 1_656
Ge1 Th1 3.159068 1_645
Ge1 Th0 3.340418 1_555
Ge1 Th0 3.340418 1_656
