# generated using pymatgen
data_Mg15B
_symmetry_space_group_name_H-M   'P 1'
_cell_length_a   6.28941821
_cell_length_b   6.28941821
_cell_length_c   10.05220800
_cell_angle_alpha   90.00000000
_cell_angle_beta   90.00000000
_cell_angle_gamma   120.00000216
_symmetry_Int_Tables_number   1
_chemical_formula_structural   Mg15B
_chemical_formula_sum   'Mg15 B1'
_cell_volume   344.36026673
_cell_formula_units_Z   1
loop_
 _symmetry_equiv_pos_site_id
 _symmetry_equiv_pos_as_xyz
  1  'x, y, z'
loop_
 _atom_site_type_symbol
 _atom_site_label
 _atom_site_symmetry_multiplicity
 _atom_site_fract_x
 _atom_site_fract_y
 _atom_site_fract_z
 _atom_site_occupancy
  Mg  Mg0  1  0.00000000  0.00000000  0.50000000  1
  Mg  Mg1  1  0.99459400  0.49729700  0.00000000  1
  Mg  Mg2  1  0.00274100  0.50137100  0.50000000  1
  Mg  Mg3  1  0.50270300  0.49729700  0.00000000  1
  Mg  Mg4  1  0.49862900  0.50137100  0.50000000  1
  Mg  Mg5  1  0.50270300  0.00540600  0.00000000  1
  Mg  Mg6  1  0.49862900  0.99725900  0.50000000  1
  Mg  Mg7  1  0.16182100  0.32364200  0.76229700  1
  Mg  Mg8  1  0.16182100  0.32364200  0.23770300  1
  Mg  Mg9  1  0.16182100  0.83817900  0.76229700  1
  Mg  Mg10  1  0.16182100  0.83817900  0.23770300  1
  Mg  Mg11  1  0.67635800  0.83817900  0.76229700  1
  Mg  Mg12  1  0.67635800  0.83817900  0.23770300  1
  Mg  Mg13  1  0.66666700  0.33333300  0.74897600  1
  Mg  Mg14  1  0.66666700  0.33333300  0.25102400  1
  B  B0  1  0.00000000  0.00000000  0.00000000  1
loop_
_geom_bond_atom_site_label_1
_geom_bond_atom_site_label_2
_geom_bond_distance
_geom_bond_site_symmetry_2
Mg0 Mg6 3.144741 1_545
Mg0 Mg2 3.144741 1_545
Mg0 Mg4 3.144744 1_555
Mg0 Mg4 3.144744 1_445
Mg0 Mg2 3.144748 1_555
Mg0 Mg6 3.144748 1_445
Mg0 Mg12 3.171672 1_445
Mg0 Mg7 3.171672 1_555
Mg0 Mg11 3.171672 1_445
Mg0 Mg8 3.171672 1_555
Mg0 Mg10 3.171672 1_545
Mg0 Mg9 3.171672 1_545
Mg1 Mg9 3.026090 1_654
Mg1 Mg10 3.026090 1_655
Mg1 Mg7 3.026090 1_654
Mg1 Mg8 3.026090 1_655
Mg1 Mg14 3.091538 1_555
Mg1 Mg13 3.091538 1_554
Mg2 Mg6 3.118847 1_555
Mg2 Mg4 3.118847 1_555
Mg2 Mg6 3.170571 1_445
Mg2 Mg4 3.170571 1_455
Mg2 Mg9 3.212618 1_555
Mg2 Mg8 3.212621 1_555
Mg2 Mg7 3.212621 1_555
Mg3 Mg8 3.026090 1_555
Mg3 Mg7 3.026090 1_554
Mg4 Mg6 3.118847 1_555
Mg4 Mg6 3.170571 1_545
Mg4 Mg7 3.212618 1_555
Mg4 Mg8 3.212618 1_555
Mg5 Mg9 3.026090 1_544
Mg6 Mg9 3.212618 1_555
Mg7 Mg9 3.053280 1_545
Mg7 Mg9 3.236138 1_555
Mg10 Mg5 3.026090 1_565
Mg10 Mg8 3.053280 1_565
Mg10 Mg12 3.053280 1_455
Mg10 Mg14 3.148001 1_455
Mg10 Mg14 3.148001 1_565
Mg10 Mg2 3.212618 1_555
Mg10 Mg6 3.212618 1_555
Mg10 Mg8 3.236138 1_555
Mg10 Mg12 3.236138 1_555
Mg11 Mg3 3.026090 1_556
Mg11 Mg5 3.026090 1_566
Mg11 Mg7 3.053280 1_665
Mg11 Mg9 3.053280 1_655
Mg11 Mg13 3.147998 1_565
Mg11 Mg13 3.148004 1_555
Mg11 Mg4 3.212618 1_555
Mg11 Mg6 3.212621 1_555
Mg11 Mg7 3.236138 1_555
Mg11 Mg9 3.236138 1_555
Mg12 Mg3 3.026090 1_555
Mg12 Mg5 3.026090 1_565
Mg12 Mg8 3.053280 1_665
Mg12 Mg14 3.147998 1_565
Mg12 Mg14 3.148004 1_555
Mg12 Mg4 3.212618 1_555
Mg12 Mg6 3.212621 1_555
Mg12 Mg8 3.236138 1_555
Mg13 Mg5 3.091538 1_556
Mg13 Mg3 3.091542 1_556
Mg13 Mg2 3.100746 1_655
Mg13 Mg6 3.100746 1_545
Mg13 Mg4 3.100753 1_555
Mg13 Mg7 3.147998 1_655
Mg13 Mg9 3.148001 1_655
Mg13 Mg9 3.148001 1_545
Mg13 Mg7 3.148004 1_555
Mg14 Mg5 3.091538 1_555
Mg14 Mg3 3.091542 1_555
Mg14 Mg6 3.100746 1_545
Mg14 Mg2 3.100746 1_655
Mg14 Mg4 3.100753 1_555
Mg14 Mg8 3.147998 1_655
Mg14 Mg8 3.148004 1_555
B0 Mg8 2.969331 1_555
B0 Mg11 2.969331 1_444
B0 Mg12 2.969331 1_445
B0 Mg7 2.969331 1_554
B0 Mg10 2.969331 1_545
B0 Mg9 2.969331 1_544
