# generated using pymatgen
data_Ca2Al4Si4O21
_symmetry_space_group_name_H-M   'P 1'
_cell_length_a   11.64196545
_cell_length_b   11.64196545
_cell_length_c   9.29216392
_cell_angle_alpha   91.47774622
_cell_angle_beta   88.52225378
_cell_angle_gamma   134.72937721
_symmetry_Int_Tables_number   1
_chemical_formula_structural   Ca2Al4Si4O21
_chemical_formula_sum   'Ca4 Al8 Si8 O42'
_cell_volume   894.38912947
_cell_formula_units_Z   2
loop_
 _symmetry_equiv_pos_site_id
 _symmetry_equiv_pos_as_xyz
  1  'x, y, z'
loop_
 _atom_site_type_symbol
 _atom_site_label
 _atom_site_symmetry_multiplicity
 _atom_site_fract_x
 _atom_site_fract_y
 _atom_site_fract_z
 _atom_site_occupancy
  Ca  Ca0  1  0.13155600  0.44441100  0.52678600  1
  Ca  Ca1  1  0.44441100  0.13155600  0.97321400  1
  Ca  Ca2  1  0.86844400  0.55558900  0.47321400  1
  Ca  Ca3  1  0.55558900  0.86844400  0.02678600  1
  Al  Al0  1  0.02498000  0.82301800  0.09272800  1
  Al  Al1  1  0.82301800  0.02498000  0.40727200  1
  Al  Al2  1  0.97502000  0.17698200  0.90727200  1
  Al  Al3  1  0.17698200  0.97502000  0.59272800  1
  Al  Al4  1  0.87523000  0.47266900  0.79374500  1
  Al  Al5  1  0.47266900  0.87523000  0.70625500  1
  Al  Al6  1  0.12477000  0.52733100  0.20625500  1
  Al  Al7  1  0.52733100  0.12477000  0.29374500  1
  Si  Si0  1  0.85503500  0.72574600  0.78376900  1
  Si  Si1  1  0.72574600  0.85503500  0.71623100  1
  Si  Si2  1  0.14496500  0.27425400  0.21623100  1
  Si  Si3  1  0.27425400  0.14496500  0.28376900  1
  Si  Si4  1  0.21760300  0.74183200  0.95794700  1
  Si  Si5  1  0.74183200  0.21760300  0.54205300  1
  Si  Si6  1  0.78239700  0.25816800  0.04205300  1
  Si  Si7  1  0.25816800  0.78239700  0.45794700  1
  O  O0  1  0.00126500  0.87664900  0.68552800  1
  O  O1  1  0.87664900  0.00126500  0.81447200  1
  O  O2  1  0.99873500  0.12335100  0.31447200  1
  O  O3  1  0.12335100  0.99873500  0.18552800  1
  O  O4  1  0.89157600  0.74726800  0.95483900  1
  O  O5  1  0.74726800  0.89157600  0.54516100  1
  O  O6  1  0.10842400  0.25273200  0.04516100  1
  O  O7  1  0.25273200  0.10842400  0.45483900  1
  O  O8  1  0.81527400  0.56407200  0.72464700  1
  O  O9  1  0.56407200  0.81527400  0.77535300  1
  O  O10  1  0.18472600  0.43592800  0.27535300  1
  O  O11  1  0.43592800  0.18472600  0.22464700  1
  O  O12  1  0.15366000  0.81231600  0.53661000  1
  O  O13  1  0.81231600  0.15366000  0.96339000  1
  O  O14  1  0.84634000  0.18768400  0.46339000  1
  O  O15  1  0.18768400  0.84634000  0.03661000  1
  O  O16  1  0.73510100  0.32301500  0.92311500  1
  O  O17  1  0.32301500  0.73510100  0.57688500  1
  O  O18  1  0.26489900  0.67698500  0.07688500  1
  O  O19  1  0.67698500  0.26489900  0.42311500  1
  O  O20  1  0.07088700  0.59882200  0.85704000  1
  O  O21  1  0.59882200  0.07088700  0.64296000  1
  O  O22  1  0.92911300  0.40117800  0.14296000  1
  O  O23  1  0.40117800  0.92911300  0.35704000  1
  O  O24  1  0.88015500  0.39158800  0.62967900  1
  O  O25  1  0.39158800  0.88015500  0.87032100  1
  O  O26  1  0.11984500  0.60841200  0.37032100  1
  O  O27  1  0.60841200  0.11984500  0.12967900  1
  O  O28  1  0.69838200  0.69838200  0.75000000  1
  O  O29  1  0.30161800  0.30161800  0.25000000  1
  O  O30  1  0.09250100  0.33055000  0.75532100  1
  O  O31  1  0.33055000  0.09250100  0.74467900  1
  O  O32  1  0.90749900  0.66945000  0.24467900  1
  O  O33  1  0.66945000  0.90749900  0.25532100  1
  O  O34  1  0.53892900  0.48394300  0.51234800  1
  O  O35  1  0.48394300  0.53892900  0.98765200  1
  O  O36  1  0.46107100  0.51605700  0.48765200  1
  O  O37  1  0.51605700  0.46107100  0.01234800  1
  O  O38  1  0.15478700  0.29262300  0.66303100  1
  O  O39  1  0.29262300  0.15478700  0.83696900  1
  O  O40  1  0.84521300  0.70737700  0.33696900  1
  O  O41  1  0.70737700  0.84521300  0.16303100  1
loop_
_geom_bond_atom_site_label_1
_geom_bond_atom_site_label_2
_geom_bond_distance
_geom_bond_site_symmetry_2
Ca0 O38 2.367349 1_555
Ca0 O30 2.391765 1_555
Ca0 O10 2.418891 1_555
Ca0 O17 2.448021 1_555
Ca0 O26 2.509503 1_555
Ca0 O14 2.519334 1_455
Ca0 O24 2.685351 1_455
Ca1 O39 2.367349 1_555
Ca1 O31 2.391765 1_555
Ca1 O11 2.418891 1_556
Ca1 O16 2.448021 1_555
Ca1 O27 2.509503 1_556
Ca1 O15 2.519334 1_546
Ca1 O25 2.685351 1_545
Ca2 O40 2.367349 1_555
Ca2 O32 2.391765 1_555
Ca2 O8 2.418891 1_555
Ca2 O19 2.448021 1_555
Ca2 O24 2.509503 1_555
Ca2 O12 2.519334 1_655
Ca2 O26 2.685351 1_655
Ca3 O41 2.367349 1_555
Ca3 O33 2.391765 1_555
Ca3 O9 2.418891 1_554
Ca3 O18 2.448021 1_555
Ca3 O25 2.509503 1_554
Ca3 O13 2.519334 1_564
Ca3 O27 2.685351 1_565
Al0 O3 1.703650 1_555
Al0 O4 1.716990 1_454
Al0 O15 1.779348 1_555
Al0 O32 1.910359 1_455
Al1 O2 1.703650 1_555
Al1 O5 1.716990 1_545
Al1 O14 1.779348 1_555
Al1 O33 1.910359 1_545
Al2 O1 1.703650 1_555
Al2 O6 1.716990 1_656
Al2 O13 1.779348 1_555
Al2 O30 1.910359 1_655
Al3 O0 1.703650 1_555
Al3 O7 1.716990 1_565
Al3 O12 1.779348 1_555
Al3 O31 1.910359 1_565
Al4 O20 1.734153 1_655
Al4 O8 1.770761 1_555
Al4 O16 1.774342 1_555
Al4 O24 1.793306 1_555
Al5 O21 1.734153 1_565
Al5 O9 1.770761 1_555
Al5 O17 1.774342 1_555
Al5 O25 1.793306 1_555
Al6 O22 1.734153 1_455
Al6 O10 1.770761 1_555
Al6 O18 1.774342 1_555
Al6 O26 1.793306 1_555
Al7 O23 1.734153 1_545
Al7 O11 1.770761 1_555
Al7 O19 1.774342 1_555
Al7 O27 1.793306 1_555
O0 Si0 1.615812 1_455
O1 Si1 1.615812 1_545
O2 Si2 1.615812 1_655
O3 Si3 1.615812 1_565
O4 Si0 1.623244 1_555
O5 Si1 1.623244 1_555
O6 Si2 1.623244 1_555
O7 Si3 1.623244 1_555
O8 Si0 1.670998 1_555
O9 Si1 1.670998 1_555
O10 Si2 1.670998 1_555
O11 Si3 1.670998 1_555
O12 Si7 1.635056 1_555
O13 Si6 1.635056 1_556
O14 Si5 1.635056 1_555
O15 Si4 1.635056 1_554
O16 Si6 1.659543 1_556
O17 Si7 1.659543 1_555
O18 Si4 1.659543 1_554
O19 Si5 1.659543 1_555
O20 Si4 1.602503 1_555
O21 Si5 1.602503 1_555
O22 Si6 1.602503 1_555
O23 Si7 1.602503 1_555
O24 Si5 1.658457 1_555
O25 Si4 1.658457 1_555
O26 Si7 1.658457 1_555
O27 Si6 1.658457 1_555
O28 Si0 1.653061 1_555
O28 Si1 1.653061 1_555
O29 Si3 1.653061 1_555
O29 Si2 1.653061 1_555
O30 O38 1.362080 1_555
O31 O39 1.362080 1_555
O32 O40 1.362080 1_555
O33 O41 1.362080 1_555
O34 O36 1.227263 1_555
O35 O37 1.227263 1_556
