# generated using pymatgen
data_Sr4LiMn2Cu3(SO)4
_symmetry_space_group_name_H-M   'P 1'
_cell_length_a   5.89831436
_cell_length_b   5.91664202
_cell_length_c   9.28777148
_cell_angle_alpha   91.36795149
_cell_angle_beta   71.46504365
_cell_angle_gamma   93.95321224
_symmetry_Int_Tables_number   1
_chemical_formula_structural   Sr4LiMn2Cu3(SO)4
_chemical_formula_sum   'Sr4 Li1 Mn2 Cu3 S4 O4'
_cell_volume   306.58230297
_cell_formula_units_Z   1
loop_
 _symmetry_equiv_pos_site_id
 _symmetry_equiv_pos_as_xyz
  1  'x, y, z'
loop_
 _atom_site_type_symbol
 _atom_site_label
 _atom_site_symmetry_multiplicity
 _atom_site_fract_x
 _atom_site_fract_y
 _atom_site_fract_z
 _atom_site_occupancy
  Sr  Sr0  1  0.37870500  0.04062500  0.17310700  1
  Sr  Sr1  1  0.94970500  0.46223000  0.17219800  1
  Sr  Sr2  1  0.11096300  0.48777700  0.79346500  1
  Sr  Sr3  1  0.59556000  0.01157500  0.79446900  1
  Li  Li0  1  0.62079700  0.74753200  0.25198800  1
  Mn  Mn0  1  0.52366300  0.51083400  0.96983300  1
  Mn  Mn1  1  0.00609500  0.98928900  0.97065400  1
  Cu  Cu0  1  0.50439500  0.24679500  0.49746200  1
  Cu  Cu1  1  0.48595900  0.75103200  0.52382400  1
  Cu  Cu2  1  0.99445300  0.25461100  0.49951200  1
  S  S0  1  0.17162500  0.99805800  0.66212800  1
  S  S1  1  0.66766400  0.50260000  0.66190600  1
  S  S2  1  0.32475800  0.48466000  0.36844100  1
  S  S3  1  0.80996900  0.01098900  0.36502500  1
  O  O0  1  0.25081200  0.25018300  0.99944000  1
  O  O1  1  0.72435300  0.75057600  0.04925000  1
  O  O2  1  0.75946500  0.25063600  0.98219500  1
  O  O3  1  0.25647700  0.74999600  0.98653100  1
loop_
_geom_bond_atom_site_label_1
_geom_bond_atom_site_label_2
_geom_bond_distance
_geom_bond_site_symmetry_2
Li0 O1 1.785475 1_555
Li0 S2 2.267813 1_555
Li0 S3 2.281186 1_565
Mn0 O1 2.056932 1_556
Mn0 O0 2.107285 1_555
Mn0 O3 2.156758 1_555
Mn0 O2 2.173214 1_555
Mn0 S1 2.712531 1_555
Mn1 O1 2.060009 1_456
Mn1 O0 2.110951 1_565
Mn1 O3 2.155000 1_555
Mn1 O2 2.172967 1_465
Mn1 S0 2.718189 1_555
Cu0 S3 2.358681 1_555
Cu0 S2 2.373319 1_555
Cu0 S0 2.481549 1_545
Cu0 S1 2.484866 1_555
Cu1 Li0 2.393845 1_555
Cu1 S0 2.448170 1_555
Cu1 S2 2.455157 1_555
Cu1 S3 2.470690 1_565
Cu1 S1 2.476899 1_555
Cu1 Sr2 3.127252 1_555
Cu1 Sr3 3.134261 1_565
Cu2 S2 2.309951 1_655
Cu2 S3 2.320316 1_555
Cu2 S1 2.564960 1_555
Cu2 S0 2.647439 1_645
S0 Sr3 3.113115 1_565
S0 Sr2 3.115794 1_565
S0 Sr3 3.231081 1_465
S0 Sr2 3.237387 1_555
S1 Sr2 3.114050 1_555
S1 Sr3 3.131226 1_555
S1 Sr2 3.225739 1_655
S1 Sr3 3.229875 1_565
S2 Sr0 3.132966 1_555
S2 Sr1 3.277935 1_455
S3 Sr1 3.162466 1_555
S3 Sr0 3.254765 1_655
O0 Sr1 2.387931 1_456
O0 Sr0 2.388739 1_556
O0 Sr3 2.749266 1_555
O0 Sr2 2.758237 1_555
O2 Sr3 2.596269 1_555
O2 Sr2 2.597197 1_655
O2 Sr1 2.626850 1_556
O2 Sr0 2.630680 1_556
O3 Sr1 2.622642 1_456
O3 Sr0 2.638278 1_566
O3 Sr3 2.648432 1_565
O3 Sr2 2.649737 1_555
