# generated using pymatgen
data_Li9Mn2Co5O16
_symmetry_space_group_name_H-M   'P 1'
_cell_length_a   4.99545000
_cell_length_b   5.87316598
_cell_length_c   10.22400406
_cell_angle_alpha   89.65759952
_cell_angle_beta   98.18897752
_cell_angle_gamma   106.55621967
_symmetry_Int_Tables_number   1
_chemical_formula_structural   Li9Mn2Co5O16
_chemical_formula_sum   'Li9 Mn2 Co5 O16'
_cell_volume   284.40568049
_cell_formula_units_Z   1
loop_
 _symmetry_equiv_pos_site_id
 _symmetry_equiv_pos_as_xyz
  1  'x, y, z'
loop_
 _atom_site_type_symbol
 _atom_site_label
 _atom_site_symmetry_multiplicity
 _atom_site_fract_x
 _atom_site_fract_y
 _atom_site_fract_z
 _atom_site_occupancy
  Li  Li0  1  0.00625900  0.25303800  0.25687600  1
  Li  Li1  1  0.49156300  0.87137400  0.61809000  1
  Li  Li2  1  0.98561000  0.99643800  0.49667900  1
  Li  Li3  1  0.49596600  0.62161400  0.87061200  1
  Li  Li4  1  0.99605500  0.74882500  0.73985000  1
  Li  Li5  1  0.50243400  0.37953500  0.13478200  1
  Li  Li6  1  0.00637300  0.49701600  0.00610500  1
  Li  Li7  1  0.50741800  0.12771400  0.37560500  1
  Li  Li8  1  0.49384600  0.62470600  0.37176600  1
  Mn  Mn0  1  0.00693300  0.00285400  0.00409800  1
  Mn  Mn1  1  0.99982100  0.74538500  0.25402800  1
  Co  Co0  1  0.99796600  0.25192700  0.74195600  1
  Co  Co1  1  0.50919600  0.87553100  0.12913500  1
  Co  Co2  1  0.99994900  0.49871700  0.49269400  1
  Co  Co3  1  0.50335500  0.12481600  0.87678100  1
  Co  Co4  1  0.49686700  0.38227100  0.61464300  1
  O  O0  1  0.76561500  0.16334900  0.06650500  1
  O  O1  1  0.21666100  0.80682200  0.42309400  1
  O  O2  1  0.74803500  0.92221300  0.29681000  1
  O  O3  1  0.23705900  0.55622800  0.68344000  1
  O  O4  1  0.74055800  0.66439800  0.56586300  1
  O  O5  1  0.25085400  0.28682600  0.93818500  1
  O  O6  1  0.74653500  0.40898900  0.81568700  1
  O  O7  1  0.24684600  0.03980500  0.17832900  1
  O  O8  1  0.23642300  0.32090000  0.44312000  1
  O  O9  1  0.76130400  0.95245100  0.83309400  1
  O  O10  1  0.24336300  0.08163000  0.69002800  1
  O  O11  1  0.76838000  0.71415700  0.07158800  1
  O  O12  1  0.27163600  0.84137500  0.95153600  1
  O  O13  1  0.76943800  0.45569900  0.30853800  1
  O  O14  1  0.25176200  0.59125600  0.18476200  1
  O  O15  1  0.74591800  0.19213800  0.56572800  1
loop_
_geom_bond_atom_site_label_1
_geom_bond_atom_site_label_2
_geom_bond_distance
_geom_bond_site_symmetry_2
Li0 O13 2.020715 1_455
Li0 O8 2.056906 1_555
Li0 O2 2.077985 1_445
Li0 O0 2.120306 1_455
Li0 O7 2.191457 1_555
Li0 O14 2.201179 1_555
Li1 O15 2.065833 1_565
Li1 O4 2.090130 1_555
Li1 O3 2.091585 1_555
Li1 O10 2.178612 1_565
Li1 O1 2.221837 1_555
Li1 O9 2.382761 1_555
Li2 O1 2.031831 1_655
Li2 O15 2.070742 1_565
Li2 O8 2.079258 1_665
Li2 O4 2.161369 1_555
Li2 O10 2.176130 1_665
Li2 O2 2.190702 1_555
Li3 O9 2.085103 1_555
Li3 O3 2.122012 1_555
Li3 O6 2.130966 1_555
Li3 O5 2.166887 1_555
Li3 O12 2.169664 1_555
Li3 O11 2.272584 1_556
Li4 O4 2.010532 1_555
Li4 O3 2.010792 1_655
Li4 O10 2.097003 1_665
Li4 O9 2.201284 1_555
Li4 O6 2.231031 1_555
Li4 O12 2.369293 1_655
Li5 O13 2.032111 1_555
Li5 O14 2.110139 1_555
Li5 O7 2.123445 1_555
Li5 O11 2.187721 1_555
Li5 O5 2.195338 1_554
Li5 O0 2.247501 1_555
Li6 O14 2.032973 1_555
Li6 O0 2.126513 1_455
Li6 O11 2.142223 1_455
Li6 O5 2.146809 1_554
Li6 O6 2.156842 1_454
Li6 O12 2.197124 1_554
Li7 O15 2.105515 1_555
Li7 O1 2.127719 1_545
Li7 O2 2.159802 1_545
Li7 O13 2.167262 1_555
Li7 O8 2.178848 1_555
Li7 O7 2.215971 1_555
Li8 O2 2.061427 1_555
Li8 O8 2.076925 1_555
Li8 O13 2.082901 1_555
Li8 O14 2.089722 1_555
Li8 O1 2.096305 1_555
Li8 O4 2.157857 1_555
Mn0 O0 1.903350 1_455
Mn0 O5 1.944935 1_554
Mn0 O9 1.959076 1_444
Mn0 O11 1.959562 1_445
Mn0 O12 1.964684 1_544
Mn0 O7 1.976060 1_555
Mn1 O1 1.882200 1_655
Mn1 O13 1.893470 1_555
Mn1 O2 1.938690 1_555
Mn1 O14 1.953400 1_655
Mn1 O11 2.029394 1_555
Mn1 O7 2.037597 1_665
Co0 O10 1.917160 1_655
Co0 O6 1.983702 1_555
Co0 O3 1.988172 1_655
Co0 O15 2.016003 1_555
Co0 O9 2.113932 1_545
Co0 O5 2.190495 1_655
Co1 O2 1.916781 1_555
Co1 O14 1.933428 1_555
Co1 O7 1.953350 1_565
Co1 O11 1.960569 1_555
Co1 O0 1.973566 1_565
Co1 O12 2.000100 1_554
Co2 O8 1.903416 1_655
Co2 O1 2.010081 1_655
Co2 O13 2.038879 1_555
Co2 O4 2.046695 1_555
Co2 O15 2.088466 1_555
Co2 O3 2.107631 1_655
Co3 O6 1.923445 1_555
Co3 O9 1.948722 1_545
Co3 O5 1.951218 1_555
Co3 O12 1.958033 1_545
Co3 O10 2.123305 1_555
Co3 O0 2.154648 1_556
Co4 O4 1.868084 1_555
Co4 O8 1.997057 1_555
Co4 O15 2.005149 1_555
Co4 O3 2.060911 1_555
Co4 O10 2.074344 1_555
Co4 O6 2.228705 1_555
