# generated using pymatgen
data_Rb4MgU4Cr4O24
_symmetry_space_group_name_H-M   'P 1'
_cell_length_a   7.00820615
_cell_length_b   8.62236714
_cell_length_c   10.41821791
_cell_angle_alpha   90.04601332
_cell_angle_beta   103.58609469
_cell_angle_gamma   90.54619417
_symmetry_Int_Tables_number   1
_chemical_formula_structural   Rb4MgU4Cr4O24
_chemical_formula_sum   'Rb4 Mg1 U4 Cr4 O24'
_cell_volume   611.89834730
_cell_formula_units_Z   1
loop_
 _symmetry_equiv_pos_site_id
 _symmetry_equiv_pos_as_xyz
  1  'x, y, z'
loop_
 _atom_site_type_symbol
 _atom_site_label
 _atom_site_symmetry_multiplicity
 _atom_site_fract_x
 _atom_site_fract_y
 _atom_site_fract_z
 _atom_site_occupancy
  Rb  Rb0  1  0.95682098  0.79904685  0.67239661  1
  Rb  Rb1  1  0.06734418  0.25276371  0.88924881  1
  Rb  Rb2  1  0.96946072  0.73928909  0.12373125  1
  Rb  Rb3  1  0.05331293  0.20558686  0.32840762  1
  Mg  Mg0  1  0.89115513  0.41553803  0.57050707  1
  U  U0  1  0.46859926  0.47893552  0.67449681  1
  U  U1  1  0.51540010  0.97803210  0.82349442  1
  U  U2  1  0.50997906  0.51941552  0.32257101  1
  U  U3  1  0.48912473  0.01667945  0.17627375  1
  Cr  Cr0  1  0.59629077  0.14859059  0.55198698  1
  Cr  Cr1  1  0.40092945  0.64261628  0.94567712  1
  Cr  Cr2  1  0.39704007  0.85494559  0.45260570  1
  Cr  Cr3  1  0.60897334  0.35472557  0.05261178  1
  O  O0  1  0.84505426  0.18877735  0.56398211  1
  O  O1  1  0.15723253  0.62051725  0.92735204  1
  O  O2  1  0.16517432  0.86583356  0.44611681  1
  O  O3  1  0.84304701  0.36096869  0.06534887  1
  O  O4  1  0.53037071  0.21037842  0.70404558  1
  O  O5  1  0.45497984  0.70547590  0.78462482  1
  O  O6  1  0.44595618  0.78785196  0.29575063  1
  O  O7  1  0.56091952  0.29200493  0.21206000  1
  O  O8  1  0.18448553  0.45223392  0.62606808  1
  O  O9  1  0.78480196  0.95636749  0.87651217  1
  O  O10  1  0.78717057  0.53424645  0.40129578  1
  O  O11  1  0.22052844  0.04987650  0.12839937  1
  O  O12  1  0.75620342  0.98501374  0.22995099  1
  O  O13  1  0.24361117  0.49089701  0.25828999  1
  O  O14  1  0.24885824  0.00698191  0.76839185  1
  O  O15  1  0.75173646  0.49709210  0.70691795  1
  O  O16  1  0.55250347  0.55883171  0.10735091  1
  O  O17  1  0.45180577  0.06031102  0.39479892  1
  O  O18  1  0.50768518  0.35655444  0.48694304  1
  O  O19  1  0.56650409  0.93047118  0.60678522  1
  O  O20  1  0.52552156  0.15672416  0.99209554  1
  O  O21  1  0.45847097  0.65117854  0.51093959  1
  O  O22  1  0.46874210  0.85306081  0.00836195  1
  O  O23  1  0.46235095  0.42843281  0.88860787  1
loop_
_geom_bond_atom_site_label_1
_geom_bond_atom_site_label_2
_geom_bond_distance
_geom_bond_site_symmetry_2
Mg0 O0 1.977193 1_555
Mg0 O8 2.022230 1_655
Mg0 O10 2.024851 1_555
Mg0 O15 2.032906 1_555
Cr0 O0 1.749609 1_555
Cr0 O4 1.831408 1_555
Cr0 O17 1.868358 1_555
Cr0 O18 1.971202 1_555
Cr0 O19 1.989168 1_545
Cr1 O1 1.682306 1_555
Cr1 O5 1.883792 1_555
Cr1 O16 1.913981 1_556
Cr1 O22 1.944405 1_556
Cr1 O23 2.020638 1_555
Cr2 O2 1.614062 1_555
Cr2 O6 1.840678 1_555
Cr2 O19 1.871365 1_555
Cr2 O21 1.880104 1_555
Cr2 O17 1.934648 1_565
Cr3 O3 1.614798 1_555
Cr3 O7 1.850987 1_555
Cr3 O20 1.860165 1_554
Cr3 O23 1.889054 1_554
Cr3 O16 1.922684 1_555
O0 Rb3 3.139117 1_655
O0 Rb1 3.422719 1_655
O1 Rb2 2.872888 1_456
O1 Rb0 3.113303 1_455
O1 Rb1 3.232875 1_555
O2 Rb0 3.102356 1_455
O2 Rb3 3.209075 1_565
O2 Rb2 3.486234 1_455
O3 Rb1 2.843843 1_654
O3 Rb3 3.102179 1_655
O3 Rb2 3.388826 1_555
O4 U0 2.366816 1_555
O4 U1 2.373710 1_545
O5 U0 2.278670 1_555
O5 U1 2.401062 1_555
O6 U2 2.366117 1_555
O6 U3 2.388147 1_565
O6 Rb2 3.420383 1_455
O7 U2 2.345344 1_555
O7 U3 2.432182 1_555
O8 U0 1.947114 1_555
O8 Rb1 3.491144 1_555
O9 U1 1.849747 1_555
O9 Rb0 3.007726 1_555
O9 Rb1 3.201449 1_665
O9 Rb2 3.209321 1_556
O10 U2 1.925965 1_555
O11 U3 1.855656 1_555
O11 Rb3 2.947968 1_555
O11 Rb1 3.034245 1_554
O11 Rb2 3.184298 1_445
O12 U3 1.846327 1_565
O12 Rb3 2.814737 1_665
O12 Rb2 2.963263 1_555
O13 U2 1.843203 1_555
O13 Rb3 2.960090 1_555
O13 Rb2 3.010233 1_455
O14 U1 1.840253 1_545
O14 Rb0 2.714588 1_445
O14 Rb1 2.914496 1_555
O15 U0 1.937805 1_555
O15 Rb0 3.024346 1_555
O15 Rb1 3.325667 1_655
O16 U2 2.354795 1_555
O16 Rb2 3.266125 1_555
O17 U3 2.381864 1_555
O17 Rb3 3.001222 1_555
O18 U2 2.218348 1_555
O18 U0 2.293511 1_555
O19 U1 2.403115 1_555
O19 Rb0 2.900996 1_555
O20 U1 2.323649 1_545
O20 U3 2.330833 1_556
O20 Rb1 3.252699 1_555
O21 U0 2.250215 1_555
O21 U2 2.368412 1_555
O22 U3 2.223892 1_565
O22 U1 2.295640 1_554
O23 U0 2.283517 1_555
O23 Rb1 3.144279 1_555
