# generated using pymatgen
data_AlPdO3
_symmetry_space_group_name_H-M   'P 1'
_cell_length_a   3.21994597
_cell_length_b   3.21994597
_cell_length_c   11.86400600
_cell_angle_alpha   90.00000000
_cell_angle_beta   90.00000000
_cell_angle_gamma   119.99999938
_symmetry_Int_Tables_number   1
_chemical_formula_structural   AlPdO3
_chemical_formula_sum   'Al2 Pd2 O6'
_cell_volume   106.52686856
_cell_formula_units_Z   2
loop_
 _symmetry_equiv_pos_site_id
 _symmetry_equiv_pos_as_xyz
  1  'x, y, z'
loop_
 _atom_site_type_symbol
 _atom_site_label
 _atom_site_symmetry_multiplicity
 _atom_site_fract_x
 _atom_site_fract_y
 _atom_site_fract_z
 _atom_site_occupancy
  Al  Al0  1  0.33333300  0.66666700  0.25000000  1
  Al  Al1  1  0.66666700  0.33333300  0.75000000  1
  Pd  Pd0  1  0.00000000  0.00000000  0.00000000  1
  Pd  Pd1  1  0.00000000  0.00000000  0.50000000  1
  O  O0  1  0.33333300  0.66666700  0.08667700  1
  O  O1  1  0.33333300  0.66666700  0.41332300  1
  O  O2  1  0.00000000  0.00000000  0.25000000  1
  O  O3  1  0.00000000  0.00000000  0.75000000  1
  O  O4  1  0.66666700  0.33333300  0.58667700  1
  O  O5  1  0.66666700  0.33333300  0.91332300  1
loop_
_geom_bond_atom_site_label_1
_geom_bond_atom_site_label_2
_geom_bond_distance
_geom_bond_site_symmetry_2
Al0 O2 1.859035 1_565
Al0 O2 1.859038 1_555
Al0 O2 1.859038 1_665
Al0 O1 1.937665 1_555
Al0 O0 1.937665 1_555
Al1 O3 1.859035 1_655
Al1 O3 1.859038 1_555
Al1 O3 1.859038 1_665
Al1 O5 1.937665 1_555
Al1 O4 1.937665 1_555
O0 Pd0 2.124497 1_565
O0 Pd0 2.124499 1_555
O0 Pd0 2.124499 1_665
O1 Pd1 2.124497 1_565
O1 Pd1 2.124499 1_555
O1 Pd1 2.124499 1_665
O4 Pd1 2.124497 1_655
O4 Pd1 2.124499 1_555
O4 Pd1 2.124499 1_665
O5 Pd0 2.124497 1_656
O5 Pd0 2.124499 1_556
O5 Pd0 2.124499 1_666
