# generated using pymatgen
data_CrNiN2
_symmetry_space_group_name_H-M   'P 1'
_cell_length_a   2.76394200
_cell_length_b   2.75376124
_cell_length_c   10.04943300
_cell_angle_alpha   90.00000000
_cell_angle_beta   90.00000000
_cell_angle_gamma   120.12237263
_symmetry_Int_Tables_number   1
_chemical_formula_structural   CrNiN2
_chemical_formula_sum   'Cr2 Ni2 N4'
_cell_volume   66.15924562
_cell_formula_units_Z   2
loop_
 _symmetry_equiv_pos_site_id
 _symmetry_equiv_pos_as_xyz
  1  'x, y, z'
loop_
 _atom_site_type_symbol
 _atom_site_label
 _atom_site_symmetry_multiplicity
 _atom_site_fract_x
 _atom_site_fract_y
 _atom_site_fract_z
 _atom_site_occupancy
  Cr  Cr0  1  0.34545400  0.69090700  0.25000000  1
  Cr  Cr1  1  0.65454600  0.30909300  0.75000000  1
  Ni  Ni0  1  0.00000000  0.00000000  0.00000000  1
  Ni  Ni1  1  0.00000000  0.00000000  0.50000000  1
  N  N0  1  0.67937700  0.35875500  0.13111800  1
  N  N1  1  0.32062300  0.64124500  0.86888200  1
  N  N2  1  0.32062300  0.64124500  0.63111800  1
  N  N3  1  0.67937700  0.35875500  0.36888200  1
loop_
_geom_bond_atom_site_label_1
_geom_bond_atom_site_label_2
_geom_bond_distance
_geom_bond_site_symmetry_2
Cr0 N3 1.989406 1_565
Cr0 N0 1.989406 1_565
Cr0 N3 1.990741 1_555
Cr0 N0 1.990741 1_555
Cr0 N3 1.990745 1_455
Cr0 N0 1.990745 1_455
Cr1 N1 1.989406 1_545
Cr1 N2 1.989406 1_545
Cr1 N1 1.990741 1_555
Cr1 N2 1.990741 1_555
Cr1 N1 1.990745 1_655
Cr1 N2 1.990745 1_655
N0 Ni0 2.017198 1_665
N0 Ni0 2.091952 1_555
N0 Ni0 2.091954 1_655
N1 Ni0 2.017198 1_556
N1 Ni0 2.091952 1_666
N1 Ni0 2.091954 1_566
N2 Ni1 2.017198 1_555
N2 Ni1 2.091952 1_665
N2 Ni1 2.091954 1_565
N3 Ni1 2.017198 1_665
N3 Ni1 2.091952 1_555
N3 Ni1 2.091954 1_655
