# generated using pymatgen
data_GePbN2
_symmetry_space_group_name_H-M   'P 1'
_cell_length_a   5.50713800
_cell_length_b   10.97832500
_cell_length_c   15.99254500
_cell_angle_alpha   90.00000000
_cell_angle_beta   90.00000000
_cell_angle_gamma   90.00000000
_symmetry_Int_Tables_number   1
_chemical_formula_structural   GePbN2
_chemical_formula_sum   'Ge16 Pb16 N32'
_cell_volume   966.89568957
_cell_formula_units_Z   16
loop_
 _symmetry_equiv_pos_site_id
 _symmetry_equiv_pos_as_xyz
  1  'x, y, z'
loop_
 _atom_site_type_symbol
 _atom_site_label
 _atom_site_symmetry_multiplicity
 _atom_site_fract_x
 _atom_site_fract_y
 _atom_site_fract_z
 _atom_site_occupancy
  Ge  Ge0  1  0.76524000  0.99953000  0.18858800  1
  Ge  Ge1  1  0.26524000  0.50047000  0.81141200  1
  Ge  Ge2  1  0.23476000  0.49953000  0.31141200  1
  Ge  Ge3  1  0.73476000  0.00047000  0.68858800  1
  Ge  Ge4  1  0.23476000  0.00047000  0.81141200  1
  Ge  Ge5  1  0.73476000  0.49953000  0.18858800  1
  Ge  Ge6  1  0.76524000  0.50047000  0.68858800  1
  Ge  Ge7  1  0.26524000  0.99953000  0.31141200  1
  Ge  Ge8  1  0.76414200  0.26150400  0.06250500  1
  Ge  Ge9  1  0.26414200  0.23849500  0.93749500  1
  Ge  Ge10  1  0.23585800  0.76150500  0.43749500  1
  Ge  Ge11  1  0.73585800  0.73849500  0.56250500  1
  Ge  Ge12  1  0.23585800  0.73849500  0.93749500  1
  Ge  Ge13  1  0.73585800  0.76150500  0.06250500  1
  Ge  Ge14  1  0.76414200  0.23849500  0.56250500  1
  Ge  Ge15  1  0.26414200  0.26150400  0.43749500  1
  Pb  Pb0  1  0.75881800  0.99618700  0.43514400  1
  Pb  Pb1  1  0.25881800  0.50381300  0.56485600  1
  Pb  Pb2  1  0.24118200  0.49618700  0.06485600  1
  Pb  Pb3  1  0.74118200  0.00381300  0.93514400  1
  Pb  Pb4  1  0.24118200  0.00381300  0.56485600  1
  Pb  Pb5  1  0.74118200  0.49618700  0.43514400  1
  Pb  Pb6  1  0.75881800  0.50381300  0.93514400  1
  Pb  Pb7  1  0.25881800  0.99618700  0.06485600  1
  Pb  Pb8  1  0.73151100  0.24972200  0.31532200  1
  Pb  Pb9  1  0.23151100  0.25027800  0.68467800  1
  Pb  Pb10  1  0.26848900  0.74972200  0.18467800  1
  Pb  Pb11  1  0.76848900  0.75027800  0.81532200  1
  Pb  Pb12  1  0.26848900  0.75027800  0.68467800  1
  Pb  Pb13  1  0.76848900  0.74972200  0.31532200  1
  Pb  Pb14  1  0.73151100  0.25027800  0.81532200  1
  Pb  Pb15  1  0.23151100  0.24972200  0.18467800  1
  N  N0  1  0.55955100  0.45594300  0.28636300  1
  N  N1  1  0.05955100  0.04405700  0.71363700  1
  N  N2  1  0.44044900  0.95594300  0.21363700  1
  N  N3  1  0.94044900  0.54405700  0.78636300  1
  N  N4  1  0.44044900  0.54405700  0.71363700  1
  N  N5  1  0.94044900  0.95594300  0.28636300  1
  N  N6  1  0.55955100  0.04405700  0.78636300  1
  N  N7  1  0.05955100  0.45594300  0.21363700  1
  N  N8  1  0.58674100  0.30063900  0.47286700  1
  N  N9  1  0.08674100  0.19936100  0.52713300  1
  N  N10  1  0.41325900  0.80063900  0.02713300  1
  N  N11  1  0.91325900  0.69936100  0.97286700  1
  N  N12  1  0.41325900  0.69936100  0.52713300  1
  N  N13  1  0.91325900  0.80063900  0.47286700  1
  N  N14  1  0.58674100  0.19936100  0.97286700  1
  N  N15  1  0.08674100  0.30063900  0.02713300  1
  N  N16  1  0.63022500  0.41049300  0.09560600  1
  N  N17  1  0.13022500  0.08950700  0.90439400  1
  N  N18  1  0.36977500  0.91049300  0.40439400  1
  N  N19  1  0.86977500  0.58950700  0.59560600  1
  N  N20  1  0.36977500  0.58950700  0.90439400  1
  N  N21  1  0.86977500  0.91049300  0.09560600  1
  N  N22  1  0.63022500  0.08950700  0.59560600  1
  N  N23  1  0.13022500  0.41049300  0.40439400  1
  N  N24  1  0.81554600  0.16552600  0.16061600  1
  N  N25  1  0.31554600  0.33447400  0.83938400  1
  N  N26  1  0.18445400  0.66552600  0.33938400  1
  N  N27  1  0.68445400  0.83447400  0.66061600  1
  N  N28  1  0.18445400  0.83447400  0.83938400  1
  N  N29  1  0.68445400  0.66552600  0.16061600  1
  N  N30  1  0.81554600  0.33447400  0.66061600  1
  N  N31  1  0.31554600  0.16552600  0.33938400  1
loop_
_geom_bond_atom_site_label_1
_geom_bond_atom_site_label_2
_geom_bond_distance
_geom_bond_site_symmetry_2
Ge0 N21 1.870322 1_555
Ge0 N2 1.894410 1_555
Ge0 N24 1.896802 1_565
Ge0 N5 1.898703 1_555
Ge1 N20 1.870322 1_555
Ge1 N3 1.894410 1_455
Ge1 N25 1.896802 1_555
Ge1 N4 1.898703 1_555
Ge2 N23 1.870322 1_555
Ge2 N0 1.894410 1_555
Ge2 N26 1.896802 1_555
Ge2 N7 1.898703 1_555
Ge3 N22 1.870322 1_555
Ge3 N1 1.894410 1_655
Ge3 N27 1.896802 1_545
Ge3 N6 1.898703 1_555
Ge4 N17 1.870322 1_555
Ge4 N6 1.894410 1_555
Ge4 N28 1.896802 1_545
Ge4 N1 1.898703 1_555
Ge5 N16 1.870322 1_555
Ge5 N7 1.894410 1_655
Ge5 N29 1.896802 1_555
Ge5 N0 1.898703 1_555
Ge6 N19 1.870322 1_555
Ge6 N4 1.894410 1_555
Ge6 N30 1.896802 1_555
Ge6 N3 1.898703 1_555
Ge7 N18 1.870322 1_555
Ge7 N5 1.894410 1_455
Ge7 N31 1.896802 1_565
Ge7 N2 1.898703 1_555
Ge8 N14 1.864120 1_554
Ge8 N16 1.870692 1_555
Ge8 N24 1.911093 1_555
Ge8 N15 1.913345 1_655
Ge9 N15 1.864124 1_556
Ge9 N17 1.870682 1_555
Ge9 N25 1.911099 1_555
Ge9 N14 1.913342 1_555
Ge10 N12 1.864124 1_555
Ge10 N18 1.870682 1_555
Ge10 N26 1.911099 1_555
Ge10 N13 1.913342 1_455
Ge11 N13 1.864124 1_555
Ge11 N19 1.870682 1_555
Ge11 N27 1.911099 1_555
Ge11 N12 1.913342 1_555
Ge12 N10 1.864124 1_556
Ge12 N20 1.870682 1_555
Ge12 N28 1.911099 1_555
Ge12 N11 1.913342 1_455
Ge13 N11 1.864124 1_554
Ge13 N21 1.870682 1_555
Ge13 N29 1.911099 1_555
Ge13 N10 1.913342 1_555
Ge14 N8 1.864124 1_555
Ge14 N22 1.870682 1_555
Ge14 N30 1.911099 1_555
Ge14 N9 1.913342 1_655
Ge15 N9 1.864120 1_555
Ge15 N23 1.870692 1_555
Ge15 N31 1.911093 1_555
Ge15 N8 1.913345 1_555
N0 Pb8 2.497365 1_555
N0 Pb5 2.618628 1_555
N1 Pb9 2.497365 1_555
N1 Pb4 2.618628 1_555
N2 Pb10 2.497365 1_555
N2 Pb7 2.618628 1_555
N3 Pb11 2.497365 1_555
N3 Pb6 2.618628 1_555
N4 Pb12 2.497365 1_555
N4 Pb1 2.618628 1_555
N5 Pb13 2.497365 1_555
N5 Pb0 2.618628 1_555
N6 Pb14 2.497365 1_555
N6 Pb3 2.618628 1_555
N7 Pb15 2.497365 1_555
N7 Pb2 2.618628 1_555
N8 Pb5 2.386642 1_555
N8 Pb8 2.701150 1_555
N9 Pb4 2.386642 1_555
N9 Pb9 2.701150 1_555
N10 Pb7 2.386642 1_555
N10 Pb10 2.701150 1_555
N11 Pb6 2.386642 1_555
N11 Pb11 2.701150 1_555
N12 Pb1 2.386642 1_555
N12 Pb12 2.701150 1_555
N13 Pb0 2.386642 1_555
N13 Pb13 2.701150 1_555
N14 Pb3 2.386642 1_555
N14 Pb14 2.701150 1_555
N15 Pb2 2.386642 1_555
N15 Pb15 2.701150 1_555
N16 Pb2 2.391080 1_555
N16 Pb6 2.852450 1_554
N17 Pb3 2.391080 1_455
N17 Pb7 2.852450 1_546
N18 Pb0 2.391080 1_555
N18 Pb4 2.852450 1_565
N19 Pb1 2.391080 1_655
N19 Pb5 2.852450 1_555
N20 Pb6 2.391080 1_555
N20 Pb2 2.852450 1_556
N21 Pb7 2.391080 1_655
N21 Pb3 2.852450 1_564
N22 Pb4 2.391080 1_555
N22 Pb0 2.852450 1_545
N23 Pb5 2.391080 1_455
N23 Pb1 2.852450 1_555
N24 Pb15 2.500025 1_655
N24 Pb8 2.681408 1_555
N25 Pb14 2.500025 1_555
N25 Pb9 2.681408 1_555
N26 Pb13 2.500025 1_455
N26 Pb10 2.681408 1_555
N27 Pb12 2.500025 1_555
N27 Pb11 2.681408 1_555
N28 Pb11 2.500025 1_455
N28 Pb12 2.681408 1_555
N29 Pb10 2.500025 1_555
N29 Pb13 2.681408 1_555
N30 Pb9 2.500025 1_655
N30 Pb14 2.681408 1_555
N31 Pb8 2.500025 1_555
N31 Pb15 2.681408 1_555
