# generated using pymatgen
data_Li7Mn2(CoO4)3
_symmetry_space_group_name_H-M   'P 1'
_cell_length_a   7.71405654
_cell_length_b   7.71405654
_cell_length_c   10.16629368
_cell_angle_alpha   72.95086102
_cell_angle_beta   72.95086102
_cell_angle_gamma   22.09358379
_symmetry_Int_Tables_number   1
_chemical_formula_structural   Li7Mn2(CoO4)3
_chemical_formula_sum   'Li7 Mn2 Co3 O12'
_cell_volume   217.14898815
_cell_formula_units_Z   1
loop_
 _symmetry_equiv_pos_site_id
 _symmetry_equiv_pos_as_xyz
  1  'x, y, z'
loop_
 _atom_site_type_symbol
 _atom_site_label
 _atom_site_symmetry_multiplicity
 _atom_site_fract_x
 _atom_site_fract_y
 _atom_site_fract_z
 _atom_site_occupancy
  Li  Li0  1  0.16725600  0.16725600  0.26995300  1
  Li  Li1  1  0.84005300  0.84005300  0.73251200  1
  Li  Li2  1  0.49335200  0.49335200  0.27191800  1
  Li  Li3  1  0.17439400  0.17439400  0.72283000  1
  Li  Li4  1  0.82797600  0.82797600  0.26535900  1
  Li  Li5  1  0.49804500  0.49804500  0.73780100  1
  Li  Li6  1  0.66771300  0.66771300  0.49592600  1
  Mn  Mn0  1  0.99843000  0.99843000  0.99943100  1
  Mn  Mn1  1  0.66826400  0.66826400  0.99934000  1
  Co  Co0  1  0.33247100  0.33247100  0.00192500  1
  Co  Co1  1  0.00516500  0.00516500  0.50033500  1
  Co  Co2  1  0.32554100  0.32554100  0.50229600  1
  O  O0  1  0.23472500  0.23472500  0.88839200  1
  O  O1  1  0.92202100  0.92202100  0.39244200  1
  O  O2  1  0.57518600  0.57518600  0.89386200  1
  O  O3  1  0.26180500  0.26180500  0.37623200  1
  O  O4  1  0.91909500  0.91909500  0.88831700  1
  O  O5  1  0.57776600  0.57776600  0.38301000  1
  O  O6  1  0.07240800  0.07240800  0.61448900  1
  O  O7  1  0.74551800  0.74551800  0.11358200  1
  O  O8  1  0.41661200  0.41661200  0.61350800  1
  O  O9  1  0.09066300  0.09066300  0.10316000  1
  O  O10  1  0.75326500  0.75326500  0.62087200  1
  O  O11  1  0.43227700  0.43227700  0.11250800  1
loop_
_geom_bond_atom_site_label_1
_geom_bond_atom_site_label_2
_geom_bond_distance
_geom_bond_site_symmetry_2
Li0 O3 2.035021 1_555
Li0 O5 2.100364 1_545
Li0 O5 2.100364 1_455
Li0 O7 2.234005 1_545
Li0 O7 2.234005 1_455
Li0 O9 2.322792 1_555
Li1 O10 1.976435 1_555
Li1 O8 2.038241 1_565
Li1 O8 2.038241 1_655
Li1 O4 2.252573 1_555
Li1 O0 2.393694 1_655
Li1 O0 2.393694 1_565
Li2 O5 1.942128 1_555
Li2 O1 2.015447 1_545
Li2 O1 2.015447 1_455
Li2 O11 2.092150 1_555
Li2 O9 2.406044 1_655
Li2 O9 2.406044 1_565
Li3 O10 1.986425 1_545
Li3 O10 1.986425 1_455
Li3 O0 2.141550 1_555
Li3 O6 2.148074 1_555
Li3 O2 2.429855 1_455
Li3 O2 2.429855 1_545
Li4 O3 1.945371 1_655
Li4 O3 1.945371 1_565
Li4 O1 2.190046 1_555
Li4 O7 2.256310 1_555
Li4 O11 2.372243 1_655
Li4 O11 2.372243 1_565
Li5 O8 2.011981 1_555
Li5 O6 2.044724 1_565
Li5 O6 2.044724 1_655
Li5 O4 2.205105 1_455
Li5 O4 2.205105 1_545
Li5 O2 2.233570 1_555
Li6 O5 2.026553 1_555
Li6 O10 2.067564 1_555
Li6 O3 2.158614 1_655
Li6 O3 2.158614 1_565
Li6 O6 2.163562 1_655
Li6 O6 2.163562 1_565
Mn0 O4 1.878813 1_555
Mn0 O11 1.954919 1_566
Mn0 O11 1.954919 1_656
Mn0 O2 1.985499 1_565
Mn0 O2 1.985499 1_655
Mn0 O9 1.985575 1_666
Mn1 O7 1.878573 1_556
Mn1 O0 1.947201 1_655
Mn1 O0 1.947201 1_565
Mn1 O9 1.984576 1_656
Mn1 O9 1.984576 1_566
Mn1 O2 2.009792 1_555
Co0 O7 2.077006 1_545
Co0 O7 2.077006 1_455
Co0 O4 2.081855 1_454
Co0 O4 2.081855 1_544
Co0 O0 2.131556 1_554
Co0 O11 2.136104 1_555
Co1 O6 1.757712 1_555
Co1 O1 1.900849 1_445
Co1 O5 2.008129 1_455
Co1 O5 2.008129 1_545
Co1 O8 2.093989 1_455
Co1 O8 2.093989 1_545
Co2 O3 1.820142 1_555
Co2 O10 2.011835 1_545
Co2 O10 2.011835 1_455
Co2 O8 2.027682 1_555
Co2 O1 2.142787 1_545
Co2 O1 2.142787 1_455
