# generated using pymatgen
data_Ba3MnV4O14
_symmetry_space_group_name_H-M   'P 1'
_cell_length_a   14.26144200
_cell_length_b   7.31389400
_cell_length_c   14.36443092
_cell_angle_alpha   71.15770491
_cell_angle_beta   90.00000000
_cell_angle_gamma   90.00000000
_symmetry_Int_Tables_number   1
_chemical_formula_structural   Ba3MnV4O14
_chemical_formula_sum   'Ba12 Mn4 V16 O56'
_cell_volume   1418.01347046
_cell_formula_units_Z   4
loop_
 _symmetry_equiv_pos_site_id
 _symmetry_equiv_pos_as_xyz
  1  'x, y, z'
loop_
 _atom_site_type_symbol
 _atom_site_label
 _atom_site_symmetry_multiplicity
 _atom_site_fract_x
 _atom_site_fract_y
 _atom_site_fract_z
 _atom_site_occupancy
  Ba  Ba0  1  0.94581400  0.39317600  0.78049300  1
  Ba  Ba1  1  0.44581400  0.60682400  0.71950700  1
  Ba  Ba2  1  0.05418600  0.60682400  0.21950700  1
  Ba  Ba3  1  0.55418600  0.39317600  0.28049300  1
  Ba  Ba4  1  0.22887800  0.05615500  0.70501300  1
  Ba  Ba5  1  0.72887800  0.94384500  0.79498700  1
  Ba  Ba6  1  0.77112200  0.94384500  0.29498700  1
  Ba  Ba7  1  0.27112200  0.05615500  0.20501300  1
  Ba  Ba8  1  0.10888100  0.72589300  0.51513900  1
  Ba  Ba9  1  0.60888100  0.27410700  0.98486100  1
  Ba  Ba10  1  0.89111900  0.27410700  0.48486100  1
  Ba  Ba11  1  0.39111900  0.72589300  0.01513900  1
  Mn  Mn0  1  0.89983400  0.62432300  0.99333700  1
  Mn  Mn1  1  0.39983400  0.37567700  0.50666300  1
  Mn  Mn2  1  0.10016600  0.37567700  0.00666300  1
  Mn  Mn3  1  0.60016600  0.62432300  0.49333700  1
  V  V0  1  0.97215200  0.90387500  0.75863900  1
  V  V1  1  0.47215200  0.09612500  0.74136100  1
  V  V2  1  0.02784800  0.09612500  0.24136100  1
  V  V3  1  0.52784800  0.90387500  0.25863900  1
  V  V4  1  0.11065400  0.89221600  0.95035000  1
  V  V5  1  0.61065400  0.10778400  0.54965000  1
  V  V6  1  0.88934600  0.10778400  0.04965000  1
  V  V7  1  0.38934600  0.89221600  0.45035000  1
  V  V8  1  0.81195200  0.51152800  0.23296000  1
  V  V9  1  0.31195200  0.48847200  0.26704000  1
  V  V10  1  0.18804800  0.48847200  0.76704000  1
  V  V11  1  0.68804800  0.51152800  0.73296000  1
  V  V12  1  0.66866500  0.69768800  0.05058700  1
  V  V13  1  0.16866500  0.30231200  0.44941300  1
  V  V14  1  0.33133500  0.30231200  0.94941300  1
  V  V15  1  0.83133500  0.69768800  0.55058700  1
  O  O0  1  0.02446900  0.81218700  0.67798000  1
  O  O1  1  0.52446900  0.18781300  0.82202000  1
  O  O2  1  0.97553100  0.18781300  0.32202000  1
  O  O3  1  0.47553100  0.81218700  0.17798000  1
  O  O4  1  0.90108800  0.72610400  0.83716900  1
  O  O5  1  0.40108800  0.27389600  0.66283100  1
  O  O6  1  0.09891200  0.27389600  0.16283100  1
  O  O7  1  0.59891200  0.72610400  0.33716900  1
  O  O8  1  0.90142600  0.09657000  0.69949200  1
  O  O9  1  0.40142600  0.90343000  0.80050800  1
  O  O10  1  0.09857400  0.90343000  0.30050800  1
  O  O11  1  0.59857400  0.09657000  0.19949200  1
  O  O12  1  0.05673100  0.00304600  0.82709700  1
  O  O13  1  0.55673100  0.99695400  0.67290300  1
  O  O14  1  0.94326900  0.99695400  0.17290300  1
  O  O15  1  0.44326900  0.00304600  0.32709700  1
  O  O16  1  0.05525900  0.66881200  0.01543800  1
  O  O17  1  0.55525900  0.33118800  0.48456200  1
  O  O18  1  0.94474100  0.33118800  0.98456200  1
  O  O19  1  0.44474100  0.66881200  0.51543800  1
  O  O20  1  0.22191800  0.85263400  0.92289900  1
  O  O21  1  0.72191800  0.14736600  0.57710100  1
  O  O22  1  0.77808200  0.14736600  0.07710100  1
  O  O23  1  0.27808200  0.85263400  0.42289900  1
  O  O24  1  0.11091700  0.05021200  0.01632400  1
  O  O25  1  0.61091700  0.94978800  0.48367600  1
  O  O26  1  0.88908300  0.94978800  0.98367600  1
  O  O27  1  0.38908300  0.05021200  0.51632400  1
  O  O28  1  0.89047700  0.48814900  0.14652400  1
  O  O29  1  0.39047700  0.51185100  0.35347600  1
  O  O30  1  0.10952300  0.51185100  0.85347600  1
  O  O31  1  0.60952300  0.48814900  0.64652400  1
  O  O32  1  0.87497900  0.60300800  0.30944100  1
  O  O33  1  0.37497900  0.39699200  0.19055900  1
  O  O34  1  0.12502100  0.39699200  0.69055900  1
  O  O35  1  0.62502100  0.60300800  0.80944100  1
  O  O36  1  0.75565600  0.30398400  0.30260600  1
  O  O37  1  0.25565600  0.69601600  0.19739400  1
  O  O38  1  0.24434400  0.69601600  0.69739400  1
  O  O39  1  0.74434400  0.30398400  0.80260600  1
  O  O40  1  0.72244400  0.68832100  0.17036900  1
  O  O41  1  0.22244400  0.31167900  0.32963100  1
  O  O42  1  0.27755600  0.31167900  0.82963100  1
  O  O43  1  0.77755600  0.68832100  0.67036900  1
  O  O44  1  0.74727900  0.61321400  0.98331400  1
  O  O45  1  0.24727900  0.38678600  0.51668600  1
  O  O46  1  0.25272100  0.38678600  0.01668600  1
  O  O47  1  0.75272100  0.61321400  0.48331400  1
  O  O48  1  0.57360300  0.54397900  0.07711200  1
  O  O49  1  0.07360300  0.45602100  0.42288800  1
  O  O50  1  0.42639700  0.45602100  0.92288800  1
  O  O51  1  0.92639700  0.54397900  0.57711200  1
  O  O52  1  0.63331000  0.91832000  0.97712700  1
  O  O53  1  0.13331000  0.08168000  0.52287300  1
  O  O54  1  0.36669000  0.08168000  0.02287300  1
  O  O55  1  0.86669000  0.91832000  0.47712700  1
loop_
_geom_bond_atom_site_label_1
_geom_bond_atom_site_label_2
_geom_bond_distance
_geom_bond_site_symmetry_2
Ba0 O51 2.783297 1_555
Ba0 O30 2.809119 1_655
Ba0 O18 2.817814 1_555
Ba0 O8 2.844467 1_555
Ba0 O34 2.859760 1_655
Ba0 O4 2.877386 1_555
Ba0 O39 2.940779 1_555
Ba0 O12 3.139784 1_655
Ba0 O0 3.146988 1_655
Ba0 O43 3.273308 1_555
Ba1 O50 2.783297 1_555
Ba1 O31 2.809119 1_555
Ba1 O19 2.817814 1_555
Ba1 O9 2.844467 1_555
Ba1 O35 2.859760 1_555
Ba1 O5 2.877386 1_555
Ba1 O38 2.940779 1_555
Ba1 O13 3.139784 1_555
Ba1 O1 3.146988 1_555
Ba1 O42 3.273308 1_555
Ba2 O49 2.783297 1_555
Ba2 O28 2.809119 1_455
Ba2 O16 2.817814 1_555
Ba2 O10 2.844467 1_555
Ba2 O32 2.859760 1_455
Ba2 O6 2.877386 1_555
Ba2 O37 2.940779 1_555
Ba2 O14 3.139784 1_455
Ba2 O2 3.146988 1_455
Ba2 O41 3.273308 1_555
Ba3 O48 2.783297 1_555
Ba3 O29 2.809119 1_555
Ba3 O17 2.817814 1_555
Ba3 O11 2.844467 1_555
Ba3 O33 2.859760 1_555
Ba3 O7 2.877386 1_555
Ba3 O36 2.940779 1_555
Ba3 O15 3.139784 1_555
Ba3 O3 3.146988 1_555
Ba3 O40 3.273308 1_555
Ba4 O38 2.680464 1_545
Ba4 O34 2.849014 1_555
Ba4 O9 2.862709 1_545
Ba4 O5 2.883014 1_555
Ba4 O53 2.902099 1_555
Ba4 O12 2.968767 1_555
Ba4 O45 3.001537 1_555
Ba4 O20 3.002002 1_545
Ba4 O42 3.056120 1_555
Ba5 O39 2.680464 1_565
Ba5 O35 2.849014 1_555
Ba5 O8 2.862709 1_565
Ba5 O4 2.883014 1_555
Ba5 O52 2.902099 1_555
Ba5 O13 2.968767 1_555
Ba5 O44 3.001537 1_555
Ba5 O21 3.002002 1_565
Ba5 O43 3.056120 1_555
Ba6 O36 2.680464 1_565
Ba6 O32 2.849014 1_555
Ba6 O11 2.862709 1_565
Ba6 O7 2.883014 1_555
Ba6 O55 2.902099 1_555
Ba6 O14 2.968767 1_555
Ba6 O47 3.001537 1_555
Ba6 O22 3.002002 1_565
Ba6 O40 3.056120 1_555
Ba7 O37 2.680464 1_545
Ba7 O33 2.849014 1_555
Ba7 O10 2.862709 1_545
Ba7 O6 2.883014 1_555
Ba7 O54 2.902099 1_555
Ba7 O15 2.968767 1_555
Ba7 O46 3.001537 1_555
Ba7 O23 3.002002 1_545
Ba7 O41 3.056120 1_555
Ba8 O53 2.663050 1_565
Ba8 O49 2.755816 1_555
Ba8 O23 2.764834 1_555
Ba8 O0 2.876220 1_555
Ba8 O34 2.876415 1_555
Ba8 O51 2.927554 1_455
Ba8 O10 2.937182 1_555
Ba8 O45 3.164168 1_555
Ba8 O38 3.203799 1_555
Ba9 O52 2.663050 1_545
Ba9 O48 2.755816 1_556
Ba9 O22 2.764834 1_556
Ba9 O1 2.876220 1_555
Ba9 O35 2.876415 1_555
Ba9 O50 2.927554 1_555
Ba9 O11 2.937182 1_556
Ba9 O44 3.164168 1_555
Ba9 O39 3.203799 1_555
Ba10 O55 2.663050 1_545
Ba10 O51 2.755816 1_555
Ba10 O21 2.764834 1_555
Ba10 O2 2.876220 1_555
Ba10 O32 2.876415 1_555
Ba10 O49 2.927554 1_655
Ba10 O8 2.937182 1_555
Ba10 O47 3.164168 1_555
Ba10 O36 3.203799 1_555
Ba11 O54 2.663050 1_565
Ba11 O50 2.755816 1_554
Ba11 O20 2.764834 1_554
Ba11 O3 2.876220 1_555
Ba11 O33 2.876415 1_555
Ba11 O48 2.927554 1_555
Ba11 O9 2.937182 1_554
Ba11 O46 3.164168 1_555
Ba11 O37 3.203799 1_555
Mn0 O28 2.106208 1_556
Mn0 O4 2.123219 1_555
Mn0 O44 2.183657 1_555
Mn0 O16 2.277419 1_656
Mn0 O18 2.279729 1_555
Mn0 O26 2.344306 1_555
Mn1 O29 2.106208 1_555
Mn1 O5 2.123219 1_555
Mn1 O45 2.183657 1_555
Mn1 O17 2.277419 1_555
Mn1 O19 2.279729 1_555
Mn1 O27 2.344306 1_555
Mn2 O30 2.106208 1_554
Mn2 O6 2.123219 1_555
Mn2 O46 2.183657 1_555
Mn2 O18 2.277419 1_454
Mn2 O16 2.279729 1_555
Mn2 O24 2.344306 1_555
Mn3 O31 2.106208 1_555
Mn3 O7 2.123219 1_555
Mn3 O47 2.183657 1_555
Mn3 O19 2.277419 1_555
Mn3 O17 2.279729 1_555
Mn3 O25 2.344306 1_555
O0 V0 1.688388 1_455
O1 V1 1.688388 1_555
O2 V2 1.688388 1_655
O3 V3 1.688388 1_555
O4 V0 1.744349 1_555
O5 V1 1.744349 1_555
O6 V2 1.744349 1_555
O7 V3 1.744349 1_555
O8 V0 1.718156 1_545
O9 V1 1.718156 1_565
O10 V2 1.718156 1_565
O11 V3 1.718156 1_545
O12 V0 1.846286 1_445
O12 V4 1.859031 1_545
O13 V1 1.846286 1_565
O13 V5 1.859031 1_565
O14 V2 1.846286 1_665
O14 V6 1.859031 1_565
O15 V3 1.846286 1_545
O15 V7 1.859031 1_545
O16 V4 1.783618 1_554
O17 V5 1.783618 1_555
O18 V6 1.783618 1_556
O19 V7 1.783618 1_555
O20 V4 1.682533 1_555
O21 V5 1.682533 1_555
O22 V6 1.682533 1_555
O23 V7 1.682533 1_555
O24 V4 1.714877 1_544
O25 V5 1.714877 1_565
O26 V6 1.714877 1_566
O27 V7 1.714877 1_545
O28 V8 1.721070 1_555
O29 V9 1.721070 1_555
O30 V10 1.721070 1_555
O31 V11 1.721070 1_555
O32 V8 1.713864 1_555
O33 V9 1.713864 1_555
O34 V10 1.713864 1_555
O35 V11 1.713864 1_555
O36 V8 1.722997 1_555
O37 V9 1.722997 1_555
O38 V10 1.722997 1_555
O39 V11 1.722997 1_555
O40 V8 1.832723 1_555
O40 V12 1.864740 1_555
O41 V9 1.832723 1_555
O41 V13 1.864740 1_555
O42 V10 1.832723 1_555
O42 V14 1.864740 1_555
O43 V11 1.832723 1_555
O43 V15 1.864740 1_555
O44 V12 1.719926 1_556
O45 V13 1.719926 1_555
O46 V14 1.719926 1_554
O47 V15 1.719926 1_555
O48 V12 1.723463 1_555
O49 V13 1.723463 1_555
O50 V14 1.723463 1_555
O51 V15 1.723463 1_555
O52 V12 1.694636 1_556
O53 V13 1.694636 1_555
O54 V14 1.694636 1_554
O55 V15 1.694636 1_555
