# generated using pymatgen
data_Y3AgO5
_symmetry_space_group_name_H-M   'P 1'
_cell_length_a   10.20488378
_cell_length_b   10.20488378
_cell_length_c   10.20488353
_cell_angle_alpha   42.02141998
_cell_angle_beta   42.02141998
_cell_angle_gamma   42.02141931
_symmetry_Int_Tables_number   1
_chemical_formula_structural   Y3AgO5
_chemical_formula_sum   'Y9 Ag3 O15'
_cell_volume   430.79186266
_cell_formula_units_Z   3
loop_
 _symmetry_equiv_pos_site_id
 _symmetry_equiv_pos_as_xyz
  1  'x, y, z'
loop_
 _atom_site_type_symbol
 _atom_site_label
 _atom_site_symmetry_multiplicity
 _atom_site_fract_x
 _atom_site_fract_y
 _atom_site_fract_z
 _atom_site_occupancy
  Y  Y0  1  0.01405900  0.50013500  0.50013500  1
  Y  Y1  1  0.50013500  0.50013500  0.01405900  1
  Y  Y2  1  0.50013500  0.01405900  0.50013500  1
  Y  Y3  1  0.74752800  0.29305000  0.29305000  1
  Y  Y4  1  0.29305000  0.29305000  0.74752800  1
  Y  Y5  1  0.29305000  0.74752800  0.29305000  1
  Y  Y6  1  0.25314100  0.70947600  0.70947600  1
  Y  Y7  1  0.70947600  0.70947600  0.25314100  1
  Y  Y8  1  0.70947600  0.25314100  0.70947600  1
  Ag  Ag0  1  0.01851500  0.01851500  0.01851500  1
  Ag  Ag1  1  0.22448600  0.22448600  0.22448600  1
  Ag  Ag2  1  0.80060800  0.80060800  0.80060800  1
  O  O0  1  0.10066200  0.10066200  0.10066200  1
  O  O1  1  0.30144800  0.30144800  0.30144800  1
  O  O2  1  0.88202600  0.88202600  0.88202600  1
  O  O3  1  0.38519800  0.38519800  0.38519800  1
  O  O4  1  0.48401600  0.48401600  0.48401600  1
  O  O5  1  0.59401100  0.59401100  0.59401100  1
  O  O6  1  0.31154200  0.81704000  0.81704000  1
  O  O7  1  0.81704000  0.81704000  0.31154200  1
  O  O8  1  0.81704000  0.31154200  0.81704000  1
  O  O9  1  0.87044000  0.35503700  0.35503700  1
  O  O10  1  0.35503700  0.35503700  0.87044000  1
  O  O11  1  0.35503700  0.87044000  0.35503700  1
  O  O12  1  0.04656700  0.60413900  0.60413900  1
  O  O13  1  0.60413900  0.60413900  0.04656700  1
  O  O14  1  0.60413900  0.04656700  0.60413900  1
loop_
_geom_bond_atom_site_label_1
_geom_bond_atom_site_label_2
_geom_bond_distance
_geom_bond_site_symmetry_2
Ag0 O0 2.289246 1_555
Ag0 O6 2.325408 1_544
Ag0 O8 2.325408 1_454
Ag0 O7 2.325408 1_445
Ag1 O1 2.144753 1_555
Ag1 O10 2.221979 1_554
Ag1 O9 2.221979 1_455
Ag1 O11 2.221979 1_545
Ag2 O2 2.268931 1_555
Ag2 O14 2.314755 1_565
Ag2 O12 2.314755 1_655
Ag2 O13 2.314755 1_556
O0 Y3 2.323451 1_455
O0 Y5 2.323451 1_545
O0 Y4 2.323451 1_554
O1 Y2 2.293734 1_555
O1 Y0 2.293734 1_555
O1 Y1 2.293734 1_555
O2 Y7 2.309616 1_556
O2 Y6 2.309616 1_655
O2 Y8 2.309616 1_565
O3 Y1 2.437084 1_555
O3 Y2 2.437084 1_555
O3 Y0 2.437084 1_555
O3 Y4 2.534157 1_555
O3 Y3 2.534157 1_555
O3 Y5 2.534157 1_555
O4 Y3 2.212910 1_555
O4 Y5 2.212910 1_555
O4 Y4 2.212910 1_555
O5 Y7 2.181756 1_555
O5 Y6 2.181757 1_555
O5 Y8 2.181757 1_555
O6 Y1 2.246285 1_556
O6 Y2 2.246285 1_565
O6 Y6 2.549349 1_555
O7 Y0 2.246285 1_655
O7 Y2 2.246285 1_565
O7 Y7 2.549349 1_555
O8 Y1 2.246285 1_556
O8 Y0 2.246285 1_655
O8 Y8 2.549349 1_555
O9 Y8 2.232532 1_555
O9 Y7 2.232532 1_555
O9 Y3 2.307780 1_555
O10 Y8 2.232532 1_555
O10 Y6 2.232532 1_555
O10 Y4 2.307780 1_555
O11 Y6 2.232532 1_555
O11 Y7 2.232532 1_555
O11 Y5 2.307780 1_555
O12 Y0 2.254535 1_555
O12 Y4 2.290969 1_555
O12 Y5 2.290969 1_555
O13 Y1 2.254535 1_555
O13 Y3 2.290969 1_555
O13 Y5 2.290969 1_555
O14 Y2 2.254535 1_555
O14 Y4 2.290969 1_555
O14 Y3 2.290969 1_555
