# generated using pymatgen
data_NaVO3
_symmetry_space_group_name_H-M   'P 1'
_cell_length_a   7.82392157
_cell_length_b   7.82392157
_cell_length_c   6.23824227
_cell_angle_alpha   66.34111706
_cell_angle_beta   113.65888294
_cell_angle_gamma   106.91597978
_symmetry_Int_Tables_number   1
_chemical_formula_structural   NaVO3
_chemical_formula_sum   'Na4 V4 O12'
_cell_volume   316.50711046
_cell_formula_units_Z   4
loop_
 _symmetry_equiv_pos_site_id
 _symmetry_equiv_pos_as_xyz
  1  'x, y, z'
loop_
 _atom_site_type_symbol
 _atom_site_label
 _atom_site_symmetry_multiplicity
 _atom_site_fract_x
 _atom_site_fract_y
 _atom_site_fract_z
 _atom_site_occupancy
  Na  Na0  1  0.69753100  0.71819200  0.74211800  1
  Na  Na1  1  0.28239800  0.29877600  0.74217800  1
  Na  Na2  1  0.28180800  0.30246900  0.24211800  1
  Na  Na3  1  0.70122400  0.71760200  0.24217800  1
  V  V0  1  0.12677300  0.70324500  0.71358600  1
  V  V1  1  0.29675500  0.87322700  0.21358600  1
  V  V2  1  0.68544200  0.14574000  0.77178000  1
  V  V3  1  0.85426000  0.31455800  0.27178000  1
  O  O0  1  0.16444500  0.84226400  0.91024700  1
  O  O1  1  0.15773600  0.83555500  0.41024700  1
  O  O2  1  0.59039500  0.91652800  0.83523900  1
  O  O3  1  0.25715200  0.52741400  0.86602400  1
  O  O4  1  0.08347200  0.40960500  0.33523900  1
  O  O5  1  0.47258600  0.74284800  0.36602400  1
  O  O6  1  0.51133600  0.27822800  0.61789600  1
  O  O7  1  0.89711400  0.61025300  0.64963500  1
  O  O8  1  0.72177200  0.48866400  0.11789600  1
  O  O9  1  0.38974700  0.10288600  0.14963500  1
  O  O10  1  0.82513200  0.18307800  0.57629800  1
  O  O11  1  0.81692200  0.17486800  0.07629800  1
loop_
_geom_bond_atom_site_label_1
_geom_bond_atom_site_label_2
_geom_bond_distance
_geom_bond_site_symmetry_2
Na0 O5 2.271453 1_555
Na0 O8 2.284486 1_556
Na0 O2 2.306355 1_555
Na0 O7 2.316436 1_555
Na1 O6 2.284180 1_555
Na1 O3 2.296335 1_555
Na1 O9 2.329016 1_556
Na1 O4 2.338013 1_555
Na2 O3 2.271453 1_554
Na2 O6 2.284486 1_555
Na2 O4 2.306355 1_555
Na2 O9 2.316436 1_555
Na3 O8 2.284180 1_555
Na3 O5 2.296335 1_555
Na3 O7 2.329016 1_555
Na3 O2 2.338013 1_554
O0 V1 1.833280 1_556
O0 V0 1.835530 1_555
O1 V0 1.833280 1_555
O1 V1 1.835530 1_555
O2 V2 1.678151 1_565
O3 V0 1.680932 1_555
O4 V3 1.678151 1_455
O5 V1 1.680932 1_555
O6 V2 1.680822 1_555
O7 V0 1.677492 1_655
O8 V3 1.680822 1_555
O9 V1 1.677492 1_545
O10 V3 1.833438 1_555
O10 V2 1.834358 1_555
O11 V2 1.833438 1_554
O11 V3 1.834358 1_555
