# generated using pymatgen
data_SrAl9Co2
_symmetry_space_group_name_H-M   'P 1'
_cell_length_a   7.84298531
_cell_length_b   7.84298407
_cell_length_c   3.89742083
_cell_angle_alpha   90.00000000
_cell_angle_beta   90.00000000
_cell_angle_gamma   120.00000107
_symmetry_Int_Tables_number   1
_chemical_formula_structural   SrAl9Co2
_chemical_formula_sum   'Sr1 Al9 Co2'
_cell_volume   207.62070588
_cell_formula_units_Z   1
loop_
 _symmetry_equiv_pos_site_id
 _symmetry_equiv_pos_as_xyz
  1  'x, y, z'
loop_
 _atom_site_type_symbol
 _atom_site_label
 _atom_site_symmetry_multiplicity
 _atom_site_fract_x
 _atom_site_fract_y
 _atom_site_fract_z
 _atom_site_occupancy
  Sr  Sr0  1  0.00000000  0.00000000  -0.00000000  1
  Al  Al0  1  0.50000000  0.00000000  -0.00000000  1
  Al  Al1  1  0.50000000  0.50000000  -0.00000000  1
  Al  Al2  1  0.00000000  0.50000000  -0.00000000  1
  Al  Al3  1  0.21530974  0.43061949  0.50000000  1
  Al  Al4  1  0.78469026  0.21530974  0.50000000  1
  Al  Al5  1  0.43061949  0.21530974  0.50000000  1
  Al  Al6  1  0.56938051  0.78469026  0.50000000  1
  Al  Al7  1  0.21530974  0.78469026  0.50000000  1
  Al  Al8  1  0.78469026  0.56938051  0.50000000  1
  Co  Co0  1  0.33333300  0.66666700  -0.00000000  1
  Co  Co1  1  0.66666700  0.33333300  -0.00000000  1
loop_
_geom_bond_atom_site_label_1
_geom_bond_atom_site_label_2
_geom_bond_distance
_geom_bond_site_symmetry_2
Al0 Co0 2.264072 1_545
Al0 Co1 2.264072 1_555
Al0 Al5 2.804295 1_555
Al0 Al6 2.804295 1_544
Al0 Al6 2.804295 1_545
Al0 Al5 2.804295 1_554
Al0 Al7 2.804295 1_544
Al0 Al4 2.804295 1_555
Al0 Al4 2.804295 1_554
Al0 Al7 2.804295 1_545
Al1 Co0 2.264079 1_555
Al1 Co1 2.264079 1_555
Al1 Al5 2.804295 1_555
Al1 Al6 2.804295 1_555
Al1 Al5 2.804295 1_554
Al1 Al6 2.804295 1_554
Al1 Al3 2.804296 1_555
Al1 Al8 2.804296 1_554
Al1 Al3 2.804296 1_554
Al1 Al8 2.804296 1_555
Al2 Co0 2.264073 1_555
Al2 Co1 2.264073 1_455
Al2 Al4 2.804295 1_454
Al2 Al7 2.804295 1_554
Al2 Al4 2.804295 1_455
Al2 Al7 2.804295 1_555
Al2 Al3 2.804295 1_554
Al2 Al8 2.804295 1_455
Al2 Al8 2.804295 1_454
Al2 Al3 2.804295 1_555
Al3 Co0 2.523490 1_555
Al3 Co0 2.523490 1_556
Al3 Al7 2.776971 1_555
Al3 Al6 2.776972 1_555
Al3 Al5 2.924864 1_555
Al3 Al4 2.924864 1_455
Al3 Sr0 3.514584 1_555
Al3 Sr0 3.514584 1_556
Al4 Co1 2.523486 1_555
Al4 Co1 2.523486 1_556
Al4 Al8 2.776971 1_555
Al4 Al5 2.776972 1_555
Al4 Al6 2.924864 1_545
Al4 Sr0 3.514584 1_655
Al4 Sr0 3.514584 1_656
Al5 Co1 2.523490 1_555
Al5 Co1 2.523490 1_556
Al5 Al8 2.776972 1_555
Al5 Al7 2.924864 1_545
Al5 Sr0 3.514584 1_555
Al5 Sr0 3.514584 1_556
Al6 Co0 2.523490 1_555
Al6 Co0 2.523490 1_556
Al6 Al7 2.776972 1_555
Al6 Al8 2.924864 1_555
Al6 Sr0 3.514584 1_665
Al6 Sr0 3.514584 1_666
Al7 Co0 2.523486 1_556
Al7 Co0 2.523486 1_555
Al7 Al8 2.924864 1_455
Al7 Sr0 3.514584 1_565
Al7 Sr0 3.514584 1_566
Al8 Co1 2.523490 1_555
Al8 Co1 2.523490 1_556
Al8 Sr0 3.514584 1_665
Al8 Sr0 3.514584 1_666
