# generated using pymatgen
data_Ce3Mg
_symmetry_space_group_name_H-M   'P 1'
_cell_length_a   6.50805000
_cell_length_b   10.98304600
_cell_length_c   11.87688800
_cell_angle_alpha   90.00000000
_cell_angle_beta   90.00000000
_cell_angle_gamma   90.00000000
_symmetry_Int_Tables_number   1
_chemical_formula_structural   Ce3Mg
_chemical_formula_sum   'Ce24 Mg8'
_cell_volume   848.93872454
_cell_formula_units_Z   8
loop_
 _symmetry_equiv_pos_site_id
 _symmetry_equiv_pos_as_xyz
  1  'x, y, z'
loop_
 _atom_site_type_symbol
 _atom_site_label
 _atom_site_symmetry_multiplicity
 _atom_site_fract_x
 _atom_site_fract_y
 _atom_site_fract_z
 _atom_site_occupancy
  Ce  Ce0_0  1  0.00000000  0.00000000  0.49979700  1
  Ce  Ce0_1  1  0.00000000  0.00000000  0.99979700  1
  Ce  Ce0_2  1  0.00000000  0.50000000  0.49979700  1
  Ce  Ce0_3  1  0.00000000  0.50000000  0.99979700  1
  Ce  Ce0_4  1  0.50000000  0.00000000  0.49979700  1
  Ce  Ce0_5  1  0.50000000  0.00000000  0.99979700  1
  Ce  Ce0_6  1  0.50000000  0.50000000  0.49979700  1
  Ce  Ce0_7  1  0.50000000  0.50000000  0.99979700  1
  Ce  Ce1_0  1  0.25000000  0.00000000  0.24481350  1
  Ce  Ce1_1  1  0.25000000  0.00000000  0.74481350  1
  Ce  Ce1_2  1  0.25000000  0.50000000  0.24481350  1
  Ce  Ce1_3  1  0.25000000  0.50000000  0.74481350  1
  Ce  Ce1_4  1  0.75000000  0.00000000  0.24481350  1
  Ce  Ce1_5  1  0.75000000  0.00000000  0.74481350  1
  Ce  Ce1_6  1  0.75000000  0.50000000  0.24481350  1
  Ce  Ce1_7  1  0.75000000  0.50000000  0.74481350  1
  Ce  Ce2_0  1  0.25000000  0.25000000  0.42315800  1
  Ce  Ce2_1  1  0.25000000  0.25000000  0.92315800  1
  Ce  Ce2_2  1  0.25000000  0.75000000  0.42315800  1
  Ce  Ce2_3  1  0.25000000  0.75000000  0.92315800  1
  Ce  Ce2_4  1  0.75000000  0.25000000  0.42315800  1
  Ce  Ce2_5  1  0.75000000  0.25000000  0.92315800  1
  Ce  Ce2_6  1  0.75000000  0.75000000  0.42315800  1
  Ce  Ce2_7  1  0.75000000  0.75000000  0.92315800  1
  Mg  Mg0_0  1  0.00000000  0.25000000  0.16556450  1
  Mg  Mg0_1  1  0.00000000  0.25000000  0.66556450  1
  Mg  Mg0_2  1  0.00000000  0.75000000  0.16556450  1
  Mg  Mg0_3  1  0.00000000  0.75000000  0.66556450  1
  Mg  Mg0_4  1  0.50000000  0.25000000  0.16556450  1
  Mg  Mg0_5  1  0.50000000  0.25000000  0.66556450  1
  Mg  Mg0_6  1  0.50000000  0.75000000  0.16556450  1
  Mg  Mg0_7  1  0.50000000  0.75000000  0.66556450  1
loop_
_geom_bond_atom_site_label_1
_geom_bond_atom_site_label_2
_geom_bond_distance
_geom_bond_site_symmetry_2
Ce0_0 Ce0_4 3.254025 1_455
Ce0_0 Ce0_4 3.254025 1_555
Ce0_0 Ce2_0 3.318870 1_555
Ce0_0 Ce2_4 3.318870 1_455
Ce0_0 Ce2_2 3.318870 1_545
Ce0_0 Ce2_6 3.318870 1_445
Ce0_0 Ce1_1 3.333986 1_555
Ce0_0 Ce1_5 3.333986 1_455
Ce0_0 Mg0_3 3.378667 1_545
Ce0_0 Mg0_1 3.378667 1_555
Ce0_0 Ce1_0 3.437796 1_555
Ce0_0 Ce1_4 3.437796 1_455
Ce0_1 Ce0_5 3.254025 1_455
Ce0_1 Ce0_5 3.254025 1_555
Ce0_1 Ce2_7 3.318870 1_445
Ce0_1 Ce2_3 3.318870 1_545
Ce0_1 Ce2_5 3.318870 1_455
Ce0_1 Ce2_1 3.318870 1_555
Ce0_1 Ce1_0 3.333986 1_556
Ce0_1 Ce1_4 3.333986 1_456
Ce0_1 Mg0_0 3.378667 1_556
Ce0_1 Mg0_2 3.378667 1_546
Ce0_1 Ce1_5 3.437796 1_455
Ce0_1 Ce1_1 3.437796 1_555
Ce0_2 Ce0_6 3.254025 1_455
Ce0_2 Ce0_6 3.254025 1_555
Ce0_2 Ce2_0 3.318870 1_555
Ce0_2 Ce2_4 3.318870 1_455
Ce0_2 Ce2_2 3.318870 1_555
Ce0_2 Ce2_6 3.318870 1_455
Ce0_2 Ce1_3 3.333986 1_555
Ce0_2 Ce1_7 3.333986 1_455
Ce0_2 Mg0_3 3.378667 1_555
Ce0_2 Mg0_1 3.378667 1_555
Ce0_2 Ce1_6 3.437796 1_455
Ce0_2 Ce1_2 3.437796 1_555
Ce0_3 Ce0_7 3.254025 1_555
Ce0_3 Ce0_7 3.254025 1_455
Ce0_3 Ce2_3 3.318870 1_555
Ce0_3 Ce2_7 3.318870 1_455
Ce0_3 Ce2_5 3.318870 1_455
Ce0_3 Ce2_1 3.318870 1_555
Ce0_3 Ce1_6 3.333986 1_456
Ce0_3 Ce1_2 3.333986 1_556
Ce0_3 Mg0_0 3.378667 1_556
Ce0_3 Mg0_2 3.378667 1_556
Ce0_3 Ce1_7 3.437796 1_455
Ce0_3 Ce1_3 3.437796 1_555
Ce0_4 Ce2_0 3.318870 1_555
Ce0_4 Ce2_4 3.318870 1_555
Ce0_4 Ce2_2 3.318870 1_545
Ce0_4 Ce2_6 3.318870 1_545
Ce0_4 Ce1_5 3.333986 1_555
Ce0_4 Ce1_1 3.333986 1_555
Ce0_4 Mg0_5 3.378667 1_555
Ce0_4 Mg0_7 3.378667 1_545
Ce0_4 Ce1_0 3.437796 1_555
Ce0_4 Ce1_4 3.437796 1_555
Ce0_5 Ce2_3 3.318870 1_545
Ce0_5 Ce2_7 3.318870 1_545
Ce0_5 Ce2_1 3.318870 1_555
Ce0_5 Ce2_5 3.318870 1_555
Ce0_5 Ce1_0 3.333986 1_556
Ce0_5 Ce1_4 3.333986 1_556
Ce0_5 Mg0_4 3.378667 1_556
Ce0_5 Mg0_6 3.378667 1_546
Ce0_5 Ce1_1 3.437796 1_555
Ce0_5 Ce1_5 3.437796 1_555
Ce0_6 Ce2_0 3.318870 1_555
Ce0_6 Ce2_4 3.318870 1_555
Ce0_6 Ce2_2 3.318870 1_555
Ce0_6 Ce2_6 3.318870 1_555
Ce0_6 Ce1_3 3.333986 1_555
Ce0_6 Ce1_7 3.333986 1_555
Ce0_6 Mg0_5 3.378667 1_555
Ce0_6 Mg0_7 3.378667 1_555
Ce0_6 Ce1_2 3.437796 1_555
Ce0_6 Ce1_6 3.437796 1_555
Ce0_7 Ce2_3 3.318870 1_555
Ce0_7 Ce2_7 3.318870 1_555
Ce0_7 Ce2_1 3.318870 1_555
Ce0_7 Ce2_5 3.318870 1_555
Ce0_7 Ce1_2 3.333986 1_556
Ce0_7 Ce1_6 3.333986 1_556
Ce0_7 Mg0_4 3.378667 1_556
Ce0_7 Mg0_6 3.378667 1_556
Ce0_7 Ce1_7 3.437796 1_555
Ce0_7 Ce1_3 3.437796 1_555
Ce1_0 Ce1_4 3.254025 1_455
Ce1_0 Ce1_4 3.254025 1_555
Ce1_0 Mg0_0 3.327505 1_555
Ce1_0 Mg0_2 3.327505 1_545
Ce1_0 Mg0_4 3.327505 1_555
Ce1_0 Mg0_6 3.327505 1_545
Ce1_0 Ce2_0 3.467835 1_555
Ce1_0 Ce2_2 3.467835 1_545
Ce1_1 Ce1_5 3.254025 1_455
Ce1_1 Ce1_5 3.254025 1_555
Ce1_1 Mg0_7 3.327505 1_545
Ce1_1 Mg0_5 3.327505 1_555
Ce1_1 Mg0_3 3.327505 1_545
Ce1_1 Mg0_1 3.327505 1_555
Ce1_1 Ce2_1 3.467835 1_555
Ce1_1 Ce2_3 3.467835 1_545
Ce1_2 Ce1_6 3.254025 1_555
Ce1_2 Ce1_6 3.254025 1_455
Ce1_2 Mg0_0 3.327505 1_555
Ce1_2 Mg0_4 3.327505 1_555
Ce1_2 Mg0_2 3.327505 1_555
Ce1_2 Mg0_6 3.327505 1_555
Ce1_2 Ce2_0 3.467835 1_555
Ce1_2 Ce2_2 3.467835 1_555
Ce1_3 Ce1_7 3.254025 1_455
Ce1_3 Ce1_7 3.254025 1_555
Ce1_3 Mg0_7 3.327505 1_555
Ce1_3 Mg0_5 3.327505 1_555
Ce1_3 Mg0_3 3.327505 1_555
Ce1_3 Mg0_1 3.327505 1_555
Ce1_3 Ce2_1 3.467835 1_555
Ce1_3 Ce2_3 3.467835 1_555
Ce1_4 Mg0_4 3.327505 1_555
Ce1_4 Mg0_6 3.327505 1_545
Ce1_4 Mg0_0 3.327505 1_655
Ce1_4 Mg0_2 3.327505 1_645
Ce1_4 Ce2_6 3.467835 1_545
Ce1_4 Ce2_4 3.467835 1_555
Ce1_5 Mg0_7 3.327505 1_545
Ce1_5 Mg0_3 3.327505 1_645
Ce1_5 Mg0_1 3.327505 1_655
Ce1_5 Mg0_5 3.327505 1_555
Ce1_5 Ce2_7 3.467835 1_545
Ce1_5 Ce2_5 3.467835 1_555
Ce1_6 Mg0_4 3.327505 1_555
Ce1_6 Mg0_0 3.327505 1_655
Ce1_6 Mg0_2 3.327505 1_655
Ce1_6 Mg0_6 3.327505 1_555
Ce1_6 Ce2_6 3.467835 1_555
Ce1_6 Ce2_4 3.467835 1_555
Ce1_7 Mg0_7 3.327505 1_555
Ce1_7 Mg0_1 3.327505 1_655
Ce1_7 Mg0_5 3.327505 1_555
Ce1_7 Mg0_3 3.327505 1_655
Ce1_7 Ce2_7 3.467835 1_555
Ce1_7 Ce2_5 3.467835 1_555
Ce2_0 Ce2_4 3.254025 1_455
Ce2_0 Ce2_4 3.254025 1_555
Ce2_0 Mg0_1 3.306964 1_555
Ce2_0 Mg0_5 3.306964 1_555
Ce2_0 Mg0_0 3.465134 1_555
Ce2_0 Mg0_4 3.465134 1_555
Ce2_1 Ce2_5 3.254025 1_555
Ce2_1 Ce2_5 3.254025 1_455
Ce2_1 Mg0_0 3.306964 1_556
Ce2_1 Mg0_4 3.306964 1_556
Ce2_1 Mg0_1 3.465134 1_555
Ce2_1 Mg0_5 3.465134 1_555
Ce2_2 Ce2_6 3.254025 1_455
Ce2_2 Ce2_6 3.254025 1_555
Ce2_2 Mg0_3 3.306964 1_555
Ce2_2 Mg0_7 3.306964 1_555
Ce2_2 Mg0_6 3.465134 1_555
Ce2_2 Mg0_2 3.465134 1_555
Ce2_3 Ce2_7 3.254025 1_455
Ce2_3 Ce2_7 3.254025 1_555
Ce2_3 Mg0_2 3.306964 1_556
Ce2_3 Mg0_6 3.306964 1_556
Ce2_3 Mg0_7 3.465134 1_555
Ce2_3 Mg0_3 3.465134 1_555
Ce2_4 Mg0_1 3.306964 1_655
Ce2_4 Mg0_5 3.306964 1_555
Ce2_4 Mg0_4 3.465134 1_555
Ce2_4 Mg0_0 3.465134 1_655
Ce2_5 Mg0_4 3.306964 1_556
Ce2_5 Mg0_0 3.306964 1_656
Ce2_5 Mg0_1 3.465134 1_655
Ce2_5 Mg0_5 3.465134 1_555
Ce2_6 Mg0_7 3.306964 1_555
Ce2_6 Mg0_3 3.306964 1_655
Ce2_6 Mg0_2 3.465134 1_655
Ce2_6 Mg0_6 3.465134 1_555
Ce2_7 Mg0_2 3.306964 1_656
Ce2_7 Mg0_6 3.306964 1_556
Ce2_7 Mg0_7 3.465134 1_555
Ce2_7 Mg0_3 3.465134 1_655
Mg0_0 Mg0_4 3.254025 1_555
Mg0_0 Mg0_4 3.254025 1_455
Mg0_1 Mg0_5 3.254025 1_455
Mg0_1 Mg0_5 3.254025 1_555
Mg0_2 Mg0_6 3.254025 1_555
Mg0_2 Mg0_6 3.254025 1_455
Mg0_3 Mg0_7 3.254025 1_455
Mg0_3 Mg0_7 3.254025 1_555
