# generated using pymatgen
data_MgFe(SiO2)2
_symmetry_space_group_name_H-M   'P 1'
_cell_length_a   2.90801600
_cell_length_b   8.75199500
_cell_length_c   9.58790300
_cell_angle_alpha   90.00000000
_cell_angle_beta   90.00000000
_cell_angle_gamma   90.00000000
_symmetry_Int_Tables_number   1
_chemical_formula_structural   MgFe(SiO2)2
_chemical_formula_sum   'Mg2 Fe2 Si4 O8'
_cell_volume   244.02115828
_cell_formula_units_Z   2
loop_
 _symmetry_equiv_pos_site_id
 _symmetry_equiv_pos_as_xyz
  1  'x, y, z'
loop_
 _atom_site_type_symbol
 _atom_site_label
 _atom_site_symmetry_multiplicity
 _atom_site_fract_x
 _atom_site_fract_y
 _atom_site_fract_z
 _atom_site_occupancy
  Mg  Mg0  1  0.50000000  0.15893400  0.17139300  1
  Mg  Mg1  1  0.50000000  0.65893400  0.82860700  1
  Fe  Fe0  1  0.00000000  0.64534300  0.31996300  1
  Fe  Fe1  1  0.00000000  0.14534300  0.68003700  1
  Si  Si0  1  0.00000000  0.48375700  0.10083500  1
  Si  Si1  1  0.00000000  0.98375700  0.89916500  1
  Si  Si2  1  0.50000000  0.98465000  0.39681600  1
  Si  Si3  1  0.50000000  0.48465000  0.60318400  1
  O  O0  1  0.00000000  0.79835100  0.86832400  1
  O  O1  1  0.00000000  0.29835100  0.13167600  1
  O  O2  1  0.50000000  0.29962400  0.63337000  1
  O  O3  1  0.50000000  0.79962400  0.36663000  1
  O  O4  1  0.00000000  0.50963300  0.49751700  1
  O  O5  1  0.00000000  0.00963300  0.50248300  1
  O  O6  1  0.50000000  0.51009900  0.99630200  1
  O  O7  1  0.50000000  0.01009900  0.00369800  1
loop_
_geom_bond_atom_site_label_1
_geom_bond_atom_site_label_2
_geom_bond_distance
_geom_bond_site_symmetry_2
Mg0 O1 1.935970 1_555
Mg0 O1 1.935970 1_655
Mg0 O7 2.069284 1_555
Mg1 O0 1.935970 1_555
Mg1 O0 1.935970 1_655
Mg1 O6 2.069284 1_555
Fe0 O3 2.034099 1_455
Fe0 O3 2.034099 1_555
Fe0 O4 2.075759 1_555
Fe1 O2 2.034099 1_455
Fe1 O2 2.034099 1_555
Fe1 O5 2.075759 1_555
O0 Si1 1.649395 1_555
O1 Si0 1.649395 1_555
O2 Si3 1.645007 1_555
O3 Si2 1.645007 1_555
O4 Si3 1.785601 1_455
O4 Si3 1.785601 1_555
O5 Si2 1.785601 1_445
O5 Si2 1.785601 1_545
O6 Si0 1.780955 1_556
O6 Si0 1.780955 1_656
O7 Si1 1.780955 1_544
O7 Si1 1.780955 1_644
