# generated using pymatgen
data_KFeCo(PO4)2
_symmetry_space_group_name_H-M   'P 1'
_cell_length_a   14.63169300
_cell_length_b   5.22111600
_cell_length_c   9.39141067
_cell_angle_alpha   75.28498849
_cell_angle_beta   90.00000000
_cell_angle_gamma   90.00000000
_symmetry_Int_Tables_number   1
_chemical_formula_structural   KFeCo(PO4)2
_chemical_formula_sum   'K4 Fe4 Co4 P8 O32'
_cell_volume   693.91391568
_cell_formula_units_Z   4
loop_
 _symmetry_equiv_pos_site_id
 _symmetry_equiv_pos_as_xyz
  1  'x, y, z'
loop_
 _atom_site_type_symbol
 _atom_site_label
 _atom_site_symmetry_multiplicity
 _atom_site_fract_x
 _atom_site_fract_y
 _atom_site_fract_z
 _atom_site_occupancy
  K  K0  1  0.32514000  0.17903400  0.18420500  1
  K  K1  1  0.82514000  0.82096600  0.31579500  1
  K  K2  1  0.67486000  0.82096600  0.81579500  1
  K  K3  1  0.17486000  0.17903400  0.68420500  1
  Fe  Fe0  1  0.12822500  0.77441000  0.38165000  1
  Fe  Fe1  1  0.62822500  0.22559000  0.11835000  1
  Fe  Fe2  1  0.87177500  0.22559000  0.61835000  1
  Fe  Fe3  1  0.37177500  0.77441000  0.88165000  1
  Co  Co0  1  0.04767200  0.24363600  0.03667800  1
  Co  Co1  1  0.54767200  0.75636400  0.46332200  1
  Co  Co2  1  0.95232800  0.75636400  0.96332200  1
  Co  Co3  1  0.45232800  0.24363600  0.53667800  1
  P  P0  1  0.17273500  0.74415900  0.03785500  1
  P  P1  1  0.67273500  0.25584100  0.46214500  1
  P  P2  1  0.82726500  0.25584100  0.96214500  1
  P  P3  1  0.32726500  0.74415900  0.53785500  1
  P  P4  1  0.00698800  0.30966000  0.32340500  1
  P  P5  1  0.50698800  0.69034000  0.17659500  1
  P  P6  1  0.99301200  0.69034000  0.67659500  1
  P  P7  1  0.49301200  0.30966000  0.82340500  1
  O  O0  1  0.24448600  0.88275000  0.44482500  1
  O  O1  1  0.74448600  0.11725000  0.05517500  1
  O  O2  1  0.75551400  0.11725000  0.55517500  1
  O  O3  1  0.25551400  0.88275000  0.94482500  1
  O  O4  1  0.18899900  0.76919600  0.19631700  1
  O  O5  1  0.68899900  0.23080400  0.30368300  1
  O  O6  1  0.81100100  0.23080400  0.80368300  1
  O  O7  1  0.31100100  0.76919600  0.69631700  1
  O  O8  1  0.08637200  0.91084600  0.96935100  1
  O  O9  1  0.58637200  0.08915400  0.53064900  1
  O  O10  1  0.91362800  0.08915400  0.03064900  1
  O  O11  1  0.41362800  0.91084600  0.46935100  1
  O  O12  1  0.16617000  0.45306800  0.03236400  1
  O  O13  1  0.66617000  0.54693200  0.46763600  1
  O  O14  1  0.83383000  0.54693200  0.96763600  1
  O  O15  1  0.33383000  0.45306800  0.53236400  1
  O  O16  1  0.98492800  0.50874800  0.17588900  1
  O  O17  1  0.48492800  0.49125200  0.32411100  1
  O  O18  1  0.01507200  0.49125200  0.82411100  1
  O  O19  1  0.51507200  0.50874800  0.67588900  1
  O  O20  1  0.04888800  0.06382400  0.27625200  1
  O  O21  1  0.54888800  0.93617600  0.22374800  1
  O  O22  1  0.95111200  0.93617600  0.72374800  1
  O  O23  1  0.45111200  0.06382400  0.77625200  1
  O  O24  1  0.08003000  0.41567900  0.41395300  1
  O  O25  1  0.58003000  0.58432100  0.08604700  1
  O  O26  1  0.91997000  0.58432100  0.58604700  1
  O  O27  1  0.41997000  0.41567900  0.91395300  1
  O  O28  1  0.92043400  0.22140400  0.41622500  1
  O  O29  1  0.42043400  0.77859600  0.08377500  1
  O  O30  1  0.07956600  0.77859600  0.58377500  1
  O  O31  1  0.57956600  0.22140400  0.91622500  1
loop_
_geom_bond_atom_site_label_1
_geom_bond_atom_site_label_2
_geom_bond_distance
_geom_bond_site_symmetry_2
K0 O0 2.802292 1_545
K0 O29 2.864725 1_545
K0 O27 2.881040 1_554
K0 O4 2.904486 1_545
K0 O12 2.907634 1_555
K0 O11 2.983843 1_545
K0 O3 3.201814 1_544
K0 O17 3.307248 1_555
K0 O29 3.336622 1_555
K1 O1 2.802292 1_565
K1 O28 2.864725 1_565
K1 O26 2.881040 1_555
K1 O5 2.904486 1_565
K1 O13 2.907634 1_555
K1 O10 2.983843 1_565
K1 O2 3.201814 1_565
K1 O16 3.307248 1_555
K1 O28 3.336622 1_555
K2 O2 2.802292 1_565
K2 O31 2.864725 1_565
K2 O25 2.881040 1_556
K2 O6 2.904486 1_565
K2 O14 2.907634 1_555
K2 O9 2.983843 1_565
K2 O1 3.201814 1_566
K2 O19 3.307248 1_555
K2 O31 3.336622 1_555
K3 O3 2.802292 1_545
K3 O30 2.864725 1_545
K3 O24 2.881040 1_555
K3 O7 2.904486 1_545
K3 O15 2.907634 1_555
K3 O8 2.983843 1_545
K3 O0 3.201814 1_545
K3 O18 3.307248 1_555
K3 O30 3.336622 1_555
Fe0 O0 1.932924 1_555
Fe0 O24 1.951585 1_555
Fe0 O4 1.960870 1_555
Fe0 O20 1.962339 1_565
Fe0 O30 2.032672 1_555
Fe1 O1 1.932924 1_555
Fe1 O25 1.951585 1_555
Fe1 O5 1.960870 1_555
Fe1 O21 1.962339 1_545
Fe1 O31 2.032672 1_554
Fe2 O2 1.932924 1_555
Fe2 O26 1.951585 1_555
Fe2 O6 1.960870 1_555
Fe2 O22 1.962339 1_545
Fe2 O28 2.032672 1_555
Fe3 O3 1.932924 1_555
Fe3 O27 1.951585 1_555
Fe3 O7 1.960870 1_555
Fe3 O23 1.962339 1_565
Fe3 O29 2.032672 1_556
Co0 O12 2.044740 1_555
Co0 O8 2.073064 1_544
Co0 O10 2.126880 1_455
Co0 O18 2.138462 1_554
Co0 O20 2.206996 1_555
Co0 O16 2.321074 1_455
Co1 O13 2.044740 1_555
Co1 O9 2.073064 1_565
Co1 O11 2.126880 1_555
Co1 O19 2.138462 1_555
Co1 O21 2.206996 1_555
Co1 O17 2.321074 1_555
Co2 O14 2.044740 1_555
Co2 O10 2.073064 1_566
Co2 O8 2.126880 1_655
Co2 O16 2.138462 1_556
Co2 O22 2.206996 1_555
Co2 O18 2.321074 1_655
Co3 O15 2.044740 1_555
Co3 O11 2.073064 1_545
Co3 O9 2.126880 1_555
Co3 O17 2.138462 1_555
Co3 O23 2.206996 1_555
Co3 O19 2.321074 1_555
O0 P3 1.559726 1_555
O1 P2 1.559726 1_554
O2 P1 1.559726 1_555
O3 P0 1.559726 1_556
O4 P0 1.545067 1_555
O5 P1 1.545067 1_555
O6 P2 1.545067 1_555
O7 P3 1.545067 1_555
O8 P0 1.575957 1_556
O9 P1 1.575957 1_555
O10 P2 1.575957 1_554
O11 P3 1.575957 1_555
O12 P0 1.536735 1_555
O13 P1 1.536735 1_555
O14 P2 1.536735 1_555
O15 P3 1.536735 1_555
O16 P4 1.540250 1_655
O17 P5 1.540250 1_555
O18 P6 1.540250 1_455
O19 P7 1.540250 1_555
O20 P4 1.583724 1_555
O21 P5 1.583724 1_555
O22 P6 1.583724 1_555
O23 P7 1.583724 1_555
O24 P4 1.552692 1_555
O25 P5 1.552692 1_555
O26 P6 1.552692 1_555
O27 P7 1.552692 1_555
O28 P4 1.540129 1_655
O29 P5 1.540129 1_555
O30 P6 1.540129 1_455
O31 P7 1.540129 1_555
