# generated using pymatgen
data_MgTi3Fe2Co(PO4)6
_symmetry_space_group_name_H-M   'P 1'
_cell_length_a   8.64507416
_cell_length_b   8.77419664
_cell_length_c   8.79083755
_cell_angle_alpha   59.82782934
_cell_angle_beta   59.45067391
_cell_angle_gamma   58.25363645
_symmetry_Int_Tables_number   1
_chemical_formula_structural   MgTi3Fe2Co(PO4)6
_chemical_formula_sum   'Mg1 Ti3 Fe2 Co1 P6 O24'
_cell_volume   462.47828392
_cell_formula_units_Z   1
loop_
 _symmetry_equiv_pos_site_id
 _symmetry_equiv_pos_as_xyz
  1  'x, y, z'
loop_
 _atom_site_type_symbol
 _atom_site_label
 _atom_site_symmetry_multiplicity
 _atom_site_fract_x
 _atom_site_fract_y
 _atom_site_fract_z
 _atom_site_occupancy
  Mg  Mg0  1  0.24883600  0.25009300  0.86420400  1
  Ti  Ti0  1  0.05672300  0.65254400  0.64206900  1
  Ti  Ti1  1  0.43827600  0.84954800  0.85161800  1
  Ti  Ti2  1  0.92860300  0.36135700  0.35906800  1
  Fe  Fe0  1  0.99082400  0.99038200  0.00405300  1
  Fe  Fe1  1  0.50118700  0.51522700  0.48534100  1
  Co  Co0  1  0.57312400  0.13652000  0.15005600  1
  P  P0  1  0.25334800  0.25027800  0.54034500  1
  P  P1  1  0.25088400  0.95795500  0.25409600  1
  P  P2  1  0.25351300  0.54165100  0.96068900  1
  P  P3  1  0.76633200  0.44106600  0.04428000  1
  P  P4  1  0.73412900  0.05878400  0.75196300  1
  P  P5  1  0.74914000  0.74981600  0.45596700  1
  O  O0  1  0.06806100  0.11701900  0.32397200  1
  O  O1  1  0.07181800  0.50288400  0.12007800  1
  O  O2  1  0.06936700  0.31692600  0.50303200  1
  O  O3  1  0.22658000  0.10065900  0.74605300  1
  O  O4  1  0.43708100  0.18675200  0.39295600  1
  O  O5  1  0.26689400  0.40321200  0.57803700  1
  O  O6  1  0.22609000  0.97434400  0.07778300  1
  O  O7  1  0.25464100  0.75922400  0.40637700  1
  O  O8  1  0.59752400  0.61519600  0.98312500  1
  O  O9  1  0.25962700  0.54505700  0.77411800  1
  O  O10  1  0.78226100  0.25130200  0.06153300  1
  O  O11  1  0.53474100  0.04661600  0.81241000  1
  O  O12  1  0.43510500  0.97975400  0.19874900  1
  O  O13  1  0.23136800  0.74246400  0.93468100  1
  O  O14  1  0.73913900  0.44203900  0.23320000  1
  O  O15  1  0.43824800  0.38803500  0.99056200  1
  O  O16  1  0.72702700  0.24892600  0.58806000  1
  O  O17  1  0.77186700  0.05149300  0.90756900  1
  O  O18  1  0.72358100  0.59293100  0.44460900  1
  O  O19  1  0.56564400  0.82382100  0.61043400  1
  O  O20  1  0.78561700  0.89922000  0.26483300  1
  O  O21  1  0.92491000  0.66501800  0.51728700  1
  O  O22  1  0.96343900  0.46218600  0.89433700  1
  O  O23  1  0.89663500  0.88684600  0.68674000  1
loop_
_geom_bond_atom_site_label_1
_geom_bond_atom_site_label_2
_geom_bond_distance
_geom_bond_site_symmetry_2
Mg0 O11 2.129169 1_555
Mg0 O5 2.140556 1_555
Mg0 O22 2.149460 1_455
Mg0 O3 2.161595 1_555
Mg0 O6 2.230862 1_546
Mg0 O9 2.335104 1_555
Fe0 O20 2.134987 1_555
Fe0 O10 2.154147 1_565
Fe0 O17 2.167221 1_564
Fe0 O13 2.170769 1_654
Fe0 O3 2.324737 1_664
Fe0 O6 2.350286 1_655
Fe1 O18 2.173400 1_555
Fe1 O7 2.194651 1_555
Fe1 O16 2.226557 1_555
Fe1 O14 2.227689 1_555
Fe1 O5 2.311828 1_555
Fe1 O9 2.361681 1_555
Co0 O4 1.996140 1_555
Co0 O15 2.009825 1_554
Co0 O12 2.028533 1_545
Co0 O20 2.115505 1_545
Co0 O17 2.139894 1_554
Co0 O10 2.141686 1_555
O0 P1 1.541681 1_545
O0 Ti2 1.926580 1_455
O1 P2 1.546637 1_554
O1 Ti2 1.959594 1_455
O2 P0 1.529088 1_555
O2 Ti2 1.950623 1_455
O3 P0 1.598450 1_555
O3 Ti1 2.119666 1_545
O4 P0 1.488150 1_555
O5 P0 1.604951 1_555
O5 Ti0 2.102237 1_555
O6 P1 1.596929 1_555
O6 Ti1 2.209968 1_554
O7 P1 1.572203 1_555
O7 Ti0 2.056379 1_555
O8 P3 1.542281 1_556
O8 Ti1 1.925981 1_555
O9 P2 1.599354 1_555
O9 Ti0 2.131309 1_555
O10 P3 1.529831 1_555
O11 P4 1.571783 1_555
O11 Ti1 2.104818 1_545
O12 P1 1.499666 1_555
O13 P2 1.574185 1_555
O13 Ti1 2.089677 1_555
O14 P3 1.558439 1_555
O14 Ti2 2.059871 1_555
O15 P2 1.497188 1_555
O16 P4 1.558521 1_555
O16 Ti2 2.075825 1_555
O17 P4 1.524939 1_555
O18 P5 1.560228 1_555
O18 Ti2 2.055891 1_555
O19 P5 1.547444 1_555
O19 Ti1 1.898677 1_555
O20 P5 1.524267 1_555
O21 P5 1.546919 1_555
O21 Ti0 1.879510 1_655
O22 P3 1.574452 1_556
O22 Ti0 2.057705 1_655
O23 P4 1.548768 1_565
O23 Ti0 1.887043 1_655
