# generated using pymatgen
data_Sr9(MnN4)2
_symmetry_space_group_name_H-M   'P 1'
_cell_length_a   10.50277113
_cell_length_b   5.20799461
_cell_length_c   8.41547674
_cell_angle_alpha   89.99999528
_cell_angle_beta   68.71856688
_cell_angle_gamma   75.64468767
_symmetry_Int_Tables_number   1
_chemical_formula_structural   Sr9(MnN4)2
_chemical_formula_sum   'Sr9 Mn2 N8'
_cell_volume   413.46154243
_cell_formula_units_Z   1
loop_
 _symmetry_equiv_pos_site_id
 _symmetry_equiv_pos_as_xyz
  1  'x, y, z'
loop_
 _atom_site_type_symbol
 _atom_site_label
 _atom_site_symmetry_multiplicity
 _atom_site_fract_x
 _atom_site_fract_y
 _atom_site_fract_z
 _atom_site_occupancy
  Sr  Sr0  1  0.00000000  0.50000000  0.50000000  1
  Sr  Sr1  1  0.08318200  0.95840900  0.75582300  1
  Sr  Sr2  1  0.91681800  0.04159100  0.24417700  1
  Sr  Sr3  1  0.65122300  0.67438900  0.45450100  1
  Sr  Sr4  1  0.34877700  0.32561100  0.54549900  1
  Sr  Sr5  1  0.82855700  0.58572100  0.98939700  1
  Sr  Sr6  1  0.17144300  0.41427900  0.01060300  1
  Sr  Sr7  1  0.39337900  0.80331100  0.16993200  1
  Sr  Sr8  1  0.60662100  0.19668900  0.83006800  1
  Mn  Mn0  1  0.38066000  0.80967000  0.80210900  1
  Mn  Mn1  1  0.61934000  0.19033000  0.19789100  1
  N  N0  1  0.22656500  0.88671700  0.98256900  1
  N  N1  1  0.77343500  0.11328300  0.01743100  1
  N  N2  1  0.36903700  0.81548100  0.60508000  1
  N  N3  1  0.63096300  0.18451900  0.39492000  1
  N  N4  1  0.54230800  0.72884500  0.82351100  1
  N  N5  1  0.45769200  0.27115500  0.17648900  1
  N  N6  1  0.92542400  0.53728800  0.24346200  1
  N  N7  1  0.07457600  0.46271200  0.75653800  1
loop_
_geom_bond_atom_site_label_1
_geom_bond_atom_site_label_2
_geom_bond_distance
_geom_bond_site_symmetry_2
Mn0 N2 1.705927 1_555
Mn0 N4 1.720344 1_555
Mn0 N0 1.726403 1_555
Mn1 N3 1.705927 1_555
Mn1 N5 1.720344 1_555
Mn1 N1 1.726403 1_555
N0 Sr6 2.655532 1_556
N0 Sr6 2.655542 1_566
N0 Sr7 2.715191 1_556
N0 Sr1 2.802755 1_555
N0 Sr2 3.095260 1_466
N1 Sr5 2.655532 1_554
N1 Sr5 2.655542 1_544
N1 Sr8 2.715191 1_554
N1 Sr2 2.802755 1_555
N1 Sr1 3.095260 1_644
N2 Sr3 2.668961 1_555
N2 Sr4 2.674350 1_565
N2 Sr4 2.674350 1_555
N2 Sr1 2.702622 1_555
N3 Sr4 2.668961 1_555
N3 Sr3 2.674350 1_545
N3 Sr3 2.674350 1_555
N3 Sr2 2.702622 1_555
N4 Sr8 2.690557 1_555
N4 Sr8 2.690562 1_565
N4 Sr7 2.735887 1_556
N4 Sr3 2.879751 1_555
N5 Sr7 2.690557 1_555
N5 Sr7 2.690562 1_545
N5 Sr8 2.735887 1_554
N5 Sr4 2.879751 1_555
N6 Sr6 2.535864 1_655
N6 Sr0 2.542449 1_655
N6 Sr2 2.605400 1_565
N6 Sr2 2.605400 1_555
N6 Sr5 2.668668 1_554
N6 Sr3 2.687988 1_555
N7 Sr5 2.535864 1_455
N7 Sr0 2.542449 1_555
N7 Sr1 2.605400 1_545
N7 Sr1 2.605400 1_555
N7 Sr6 2.668668 1_556
N7 Sr4 2.687988 1_555
