# generated using pymatgen
data_Tb7CoI12
_symmetry_space_group_name_H-M   'P 1'
_cell_length_a   9.68800355
_cell_length_b   9.68800355
_cell_length_c   9.68800382
_cell_angle_alpha   106.82306063
_cell_angle_beta   106.82306064
_cell_angle_gamma   106.82306612
_symmetry_Int_Tables_number   1
_chemical_formula_structural   Tb7CoI12
_chemical_formula_sum   'Tb7 Co1 I12'
_cell_volume   760.89170070
_cell_formula_units_Z   1
loop_
 _symmetry_equiv_pos_site_id
 _symmetry_equiv_pos_as_xyz
  1  'x, y, z'
loop_
 _atom_site_type_symbol
 _atom_site_label
 _atom_site_symmetry_multiplicity
 _atom_site_fract_x
 _atom_site_fract_y
 _atom_site_fract_z
 _atom_site_occupancy
  Tb  Tb0  1  0.50000000  0.50000000  0.50000000  1
  Tb  Tb1  1  0.02193679  0.09252951  0.28943181  1
  Tb  Tb2  1  0.09252951  0.28943181  0.02193679  1
  Tb  Tb3  1  0.28943181  0.02193679  0.09252951  1
  Tb  Tb4  1  0.97806321  0.90747049  0.71056819  1
  Tb  Tb5  1  0.90747049  0.71056819  0.97806321  1
  Tb  Tb6  1  0.71056819  0.97806321  0.90747049  1
  Co  Co0  1  0.00000000  -0.00000000  0.00000000  1
  I  I0  1  0.15930875  0.46528323  0.38702005  1
  I  I1  1  0.46528323  0.38702005  0.15930875  1
  I  I2  1  0.38702005  0.15930875  0.46528323  1
  I  I3  1  0.84069125  0.53471677  0.61297995  1
  I  I4  1  0.53471677  0.61297995  0.84069125  1
  I  I5  1  0.61297995  0.84069125  0.53471677  1
  I  I6  1  0.67714858  0.07236409  0.22757066  1
  I  I7  1  0.07236409  0.22757066  0.67714858  1
  I  I8  1  0.22757066  0.67714858  0.07236409  1
  I  I9  1  0.32285142  0.92763591  0.77242934  1
  I  I10  1  0.92763591  0.77242934  0.32285142  1
  I  I11  1  0.77242934  0.32285142  0.92763591  1
loop_
_geom_bond_atom_site_label_1
_geom_bond_atom_site_label_2
_geom_bond_distance
_geom_bond_site_symmetry_2
Co0 Tb5 2.607889 1_444
Co0 Tb2 2.607889 1_555
Co0 Tb3 2.607889 1_555
Co0 Tb6 2.607889 1_444
Co0 Tb4 2.607889 1_444
Co0 Tb1 2.607889 1_555
I0 Tb0 3.042766 1_555
I0 Tb1 3.196813 1_555
I0 Tb2 3.221873 1_555
I1 Tb0 3.042767 1_555
I1 Tb2 3.196813 1_555
I1 Tb3 3.221873 1_555
I2 Tb0 3.042766 1_555
I2 Tb3 3.196813 1_555
I2 Tb1 3.221873 1_555
I3 Tb0 3.042766 1_555
I3 Tb4 3.196813 1_555
I3 Tb5 3.221873 1_555
I4 Tb0 3.042767 1_555
I4 Tb5 3.196813 1_555
I4 Tb6 3.221873 1_555
I5 Tb0 3.042766 1_555
I5 Tb6 3.196813 1_555
I5 Tb4 3.221873 1_555
I6 Tb6 3.109494 1_544
I6 Tb1 3.154480 1_655
I6 Tb3 3.432591 1_555
I7 Tb4 3.109494 1_445
I7 Tb2 3.154480 1_556
I7 Tb1 3.432591 1_555
I8 Tb5 3.109494 1_454
I8 Tb3 3.154480 1_565
I8 Tb2 3.432591 1_555
I9 Tb3 3.109494 1_566
I9 Tb4 3.154480 1_455
I9 Tb6 3.432591 1_555
I10 Tb1 3.109494 1_665
I10 Tb5 3.154480 1_554
I10 Tb4 3.432591 1_555
I11 Tb2 3.109494 1_656
I11 Tb6 3.154480 1_545
I11 Tb5 3.432591 1_555
