# generated using pymatgen
data_NiRuS4
_symmetry_space_group_name_H-M   'P 1'
_cell_length_a   5.65563900
_cell_length_b   5.59467500
_cell_length_c   5.67486292
_cell_angle_alpha   89.35739000
_cell_angle_beta   90.00000000
_cell_angle_gamma   90.00000000
_symmetry_Int_Tables_number   1
_chemical_formula_structural   NiRuS4
_chemical_formula_sum   'Ni2 Ru2 S8'
_cell_volume   179.54966666
_cell_formula_units_Z   2
loop_
 _symmetry_equiv_pos_site_id
 _symmetry_equiv_pos_as_xyz
  1  'x, y, z'
loop_
 _atom_site_type_symbol
 _atom_site_label
 _atom_site_symmetry_multiplicity
 _atom_site_fract_x
 _atom_site_fract_y
 _atom_site_fract_z
 _atom_site_occupancy
  Ni  Ni0  1  0.50000000  0.50000000  0.00000000  1
  Ni  Ni1  1  0.00000000  0.50000000  0.50000000  1
  Ru  Ru0  1  0.50000000  0.00000000  0.50000000  1
  Ru  Ru1  1  0.00000000  0.00000000  0.00000000  1
  S  S0  1  0.11098100  0.88953600  0.38854300  1
  S  S1  1  0.61098100  0.11046400  0.11145700  1
  S  S2  1  0.89009000  0.60815300  0.89553400  1
  S  S3  1  0.39009000  0.39184700  0.60446600  1
  S  S4  1  0.88901900  0.11046400  0.61145700  1
  S  S5  1  0.38901900  0.88953600  0.88854300  1
  S  S6  1  0.10991000  0.39184700  0.10446600  1
  S  S7  1  0.60991000  0.60815300  0.39553400  1
loop_
_geom_bond_atom_site_label_1
_geom_bond_atom_site_label_2
_geom_bond_distance
_geom_bond_site_symmetry_2
Ni0 S1 2.347888 1_555
Ni0 S5 2.347888 1_554
Ni0 S6 2.361542 1_555
Ni0 S2 2.361542 1_554
Ni0 S7 2.412721 1_555
Ni0 S3 2.412721 1_554
Ni1 S0 2.347888 1_555
Ni1 S4 2.347888 1_455
Ni1 S3 2.361542 1_555
Ni1 S7 2.361542 1_455
Ni1 S6 2.412721 1_555
Ni1 S2 2.412721 1_455
Ru0 S7 2.360718 1_545
Ru0 S3 2.360718 1_555
Ru0 S1 2.367920 1_555
Ru0 S5 2.367920 1_545
Ru0 S0 2.373063 1_545
Ru0 S4 2.373063 1_555
Ru1 S2 2.360718 1_444
Ru1 S6 2.360718 1_555
Ru1 S4 2.367920 1_454
Ru1 S0 2.367920 1_545
Ru1 S5 2.373063 1_544
Ru1 S1 2.373063 1_455
S0 S4 2.176909 1_465
S1 S5 2.176909 1_544
S2 S6 2.093729 1_656
S3 S7 2.093729 1_555
