# generated using pymatgen
data_SrCa7Mn6Cr2O23
_symmetry_space_group_name_H-M   'P 1'
_cell_length_a   7.63631933
_cell_length_b   7.66920445
_cell_length_c   7.69493818
_cell_angle_alpha   89.79614860
_cell_angle_beta   89.83821673
_cell_angle_gamma   89.95129041
_symmetry_Int_Tables_number   1
_chemical_formula_structural   SrCa7Mn6Cr2O23
_chemical_formula_sum   'Sr1 Ca7 Mn6 Cr2 O23'
_cell_volume   450.64535425
_cell_formula_units_Z   1
loop_
 _symmetry_equiv_pos_site_id
 _symmetry_equiv_pos_as_xyz
  1  'x, y, z'
loop_
 _atom_site_type_symbol
 _atom_site_label
 _atom_site_symmetry_multiplicity
 _atom_site_fract_x
 _atom_site_fract_y
 _atom_site_fract_z
 _atom_site_occupancy
  Sr  Sr0  1  0.25623100  0.25681500  0.25094300  1
  Ca  Ca0  1  0.26497600  0.25135400  0.73461400  1
  Ca  Ca1  1  0.26797400  0.72875600  0.26230100  1
  Ca  Ca2  1  0.26299700  0.75096500  0.73730000  1
  Ca  Ca3  1  0.73307700  0.26039300  0.23807700  1
  Ca  Ca4  1  0.73512700  0.26969500  0.73733700  1
  Ca  Ca5  1  0.75438300  0.74824800  0.26083900  1
  Ca  Ca6  1  0.72529400  0.73151900  0.74644600  1
  Mn  Mn0  1  0.99672800  0.00048700  0.51279900  1
  Mn  Mn1  1  0.00181200  0.50979700  0.00508500  1
  Mn  Mn2  1  0.99990500  0.50503800  0.50511700  1
  Mn  Mn3  1  0.50631800  0.00200700  0.49200600  1
  Mn  Mn4  1  0.49991100  0.50192600  0.99658500  1
  Mn  Mn5  1  0.50310500  0.50171100  0.49686400  1
  Cr  Cr0  1  0.99049700  0.99121600  0.97884600  1
  Cr  Cr1  1  0.49841500  0.99729000  0.99253600  1
  O  O0  1  0.94690600  0.93988600  0.76331300  1
  O  O1  1  0.96641200  0.46200600  0.25839100  1
  O  O2  1  0.02828200  0.55388100  0.75667700  1
  O  O3  1  0.44377800  0.97680000  0.24247100  1
  O  O4  1  0.55912500  0.02141800  0.73988700  1
  O  O5  1  0.53182800  0.52580800  0.24588200  1
  O  O6  1  0.47420400  0.47614400  0.74783400  1
  O  O7  1  0.24656100  0.00885500  0.93181800  1
  O  O8  1  0.25163800  0.00496100  0.53720700  1
  O  O9  1  0.25105900  0.49969800  0.03367500  1
  O  O10  1  0.25167500  0.50299700  0.47564200  1
  O  O11  1  0.74919900  0.98309100  0.04867900  1
  O  O12  1  0.75894400  0.01099300  0.42853200  1
  O  O13  1  0.75183500  0.50347400  0.96484600  1
  O  O14  1  0.75210500  0.50640100  0.53596900  1
  O  O15  1  0.99501900  0.21366200  0.02233700  1
  O  O16  1  0.00184400  0.25119100  0.56161200  1
  O  O17  1  0.02270000  0.79103500  0.08589200  1
  O  O18  1  0.00641300  0.75599700  0.44996500  1
  O  O19  1  0.50948500  0.24907700  0.01902000  1
  O  O20  1  0.50790900  0.25223600  0.47545300  1
  O  O21  1  0.49022200  0.75018700  0.95909000  1
  O  O22  1  0.50610400  0.75298400  0.51811400  1
loop_
_geom_bond_atom_site_label_1
_geom_bond_atom_site_label_2
_geom_bond_distance
_geom_bond_site_symmetry_2
Ca0 O6 2.354142 1_555
Ca0 O7 2.400087 1_555
Ca0 O16 2.413473 1_555
Ca0 O8 2.431090 1_555
Ca0 O20 2.719829 1_555
Ca0 O10 2.771178 1_555
Ca0 O4 2.854833 1_555
Ca0 O19 2.880759 1_556
Ca0 O2 2.944957 1_555
Ca0 O9 2.994001 1_556
Ca0 O15 3.034103 1_456
Ca1 O3 2.333547 1_555
Ca1 O17 2.363712 1_555
Ca1 O10 2.384785 1_555
Ca1 O18 2.470541 1_555
Ca1 O9 2.494257 1_555
Ca1 O5 2.548106 1_555
Ca1 O22 2.690629 1_555
Ca1 O21 2.885570 1_554
Ca1 O8 3.001240 1_565
Ca1 O1 3.081863 1_455
Ca2 O2 2.349647 1_555
Ca2 O21 2.437242 1_555
Ca2 O8 2.480289 1_565
Ca2 O7 2.487467 1_565
Ca2 O22 2.504695 1_555
Ca2 O6 2.654016 1_555
Ca2 O10 2.776051 1_555
Ca3 O1 2.366023 1_555
Ca3 O19 2.404519 1_555
Ca3 O12 2.413771 1_555
Ca3 O20 2.505697 1_555
Ca3 O5 2.550244 1_555
Ca3 O11 2.585068 1_545
Ca3 O15 2.621020 1_555
Ca3 O13 2.808425 1_554
Ca4 O4 2.331571 1_555
Ca4 O14 2.385904 1_555
Ca4 O16 2.445850 1_655
Ca4 O13 2.513879 1_555
Ca4 O6 2.545196 1_555
Ca4 O20 2.666749 1_555
Ca4 O19 2.769318 1_556
Ca4 O15 2.991538 1_556
Ca4 O0 3.007379 1_545
Ca5 O12 2.396997 1_565
Ca5 O5 2.412303 1_555
Ca5 O18 2.417045 1_655
Ca5 O11 2.426921 1_555
Ca5 O17 2.469936 1_655
Ca5 O1 2.726738 1_555
Ca5 O22 2.737585 1_555
Ca5 O14 2.809723 1_555
Ca5 O3 2.951474 1_555
Ca5 O13 2.956815 1_554
Ca5 O21 3.080089 1_554
Ca6 O0 2.332739 1_555
Ca6 O14 2.379745 1_555
Ca6 O13 2.429928 1_555
Ca6 O21 2.429998 1_555
Ca6 O22 2.435129 1_555
Ca6 O4 2.559396 1_565
Ca6 O2 2.685209 1_655
Ca6 O6 2.741985 1_555
Mn0 O12 1.931344 1_555
Mn0 O18 1.939342 1_645
Mn0 O8 1.956484 1_655
Mn0 O16 1.960800 1_655
Mn0 O0 2.016562 1_545
Mn1 O9 1.918086 1_555
Mn1 O13 1.935392 1_454
Mn1 O2 1.949941 1_554
Mn1 O1 1.999700 1_455
Mn1 O17 2.252747 1_555
Mn1 O15 2.275152 1_455
Mn2 O14 1.906473 1_555
Mn2 O10 1.935349 1_655
Mn2 O1 1.945799 1_555
Mn2 O18 1.970053 1_655
Mn2 O2 1.985453 1_655
Mn2 O16 1.993293 1_655
Mn3 O22 1.919636 1_545
Mn3 O20 1.922874 1_555
Mn3 O4 1.956917 1_555
Mn3 O8 1.974834 1_555
Mn3 O12 1.989857 1_555
Mn3 O3 1.990082 1_545
Mn4 O9 1.920910 1_556
Mn4 O21 1.926077 1_555
Mn4 O6 1.935557 1_555
Mn4 O13 1.938570 1_555
Mn4 O5 1.943743 1_556
Mn4 O19 1.947537 1_556
Mn5 O20 1.921250 1_555
Mn5 O14 1.926331 1_555
Mn5 O10 1.927405 1_555
Mn5 O22 1.934729 1_555
Mn5 O5 1.951226 1_555
Mn5 O6 1.952346 1_555
Cr0 O0 1.739088 1_555
Cr0 O15 1.740057 1_566
Cr0 O17 1.757102 1_656
Cr0 O11 1.918928 1_556
Cr0 O7 1.992209 1_665
Cr1 O21 1.914486 1_555
Cr1 O19 1.944386 1_566
Cr1 O11 1.967221 1_556
Cr1 O3 1.972570 1_556
Cr1 O7 1.982295 1_565
Cr1 O4 2.005308 1_565
O1 Sr0 2.715088 1_655
O3 Sr0 2.581147 1_565
O5 Sr0 2.948355 1_555
O7 Sr0 3.112305 1_556
O8 Sr0 2.924664 1_555
O9 Sr0 2.498900 1_555
O10 Sr0 2.564801 1_555
O15 Sr0 2.684752 1_655
O16 Sr0 3.076285 1_555
O19 Sr0 2.628609 1_555
O20 Sr0 2.587988 1_555
