# generated using pymatgen
data_HC2N3
_symmetry_space_group_name_H-M   'P 1'
_cell_length_a   4.29669500
_cell_length_b   12.77455100
_cell_length_c   16.99052078
_cell_angle_alpha   89.91710068
_cell_angle_beta   90.00000000
_cell_angle_gamma   90.00000000
_symmetry_Int_Tables_number   1
_chemical_formula_structural   HC2N3
_chemical_formula_sum   'H12 C24 N36'
_cell_volume   932.58066530
_cell_formula_units_Z   12
loop_
 _symmetry_equiv_pos_site_id
 _symmetry_equiv_pos_as_xyz
  1  'x, y, z'
loop_
 _atom_site_type_symbol
 _atom_site_label
 _atom_site_symmetry_multiplicity
 _atom_site_fract_x
 _atom_site_fract_y
 _atom_site_fract_z
 _atom_site_occupancy
  H  H0  1  0.00000000  0.04949700  0.57874100  1
  H  H1  1  0.00000000  0.17502600  0.62598800  1
  H  H2  1  0.00000000  0.94321000  0.42218300  1
  H  H3  1  0.00000000  0.81785600  0.37528600  1
  H  H4  1  0.00000000  0.38521000  0.61838300  1
  H  H5  1  0.00000000  0.60461200  0.38184300  1
  H  H6  1  0.00000000  0.55480400  0.92019800  1
  H  H7  1  0.00000000  0.68253400  0.87617300  1
  H  H8  1  0.00000000  0.44261700  0.07551100  1
  H  H9  1  0.00000000  0.31814900  0.12465500  1
  H  H10  1  0.00000000  0.88977700  0.88343600  1
  H  H11  1  0.00000000  0.10454900  0.11973300  1
  C  C0  1  0.00000000  0.03554800  0.83723000  1
  C  C1  1  0.00000000  0.17008800  0.92606400  1
  C  C2  1  0.00000000  0.19766400  0.78346000  1
  C  C3  1  0.00000000  0.34718000  0.87066900  1
  C  C4  1  0.00000000  0.36657900  0.73759200  1
  C  C5  1  0.00000000  0.53504300  0.66156400  1
  C  C6  1  0.00000000  0.67054600  0.57349000  1
  C  C7  1  0.00000000  0.86542200  0.76308500  1
  C  C8  1  0.00000000  0.84704200  0.62953400  1
  C  C9  1  0.00000000  0.81899800  0.49614700  1
  C  C10  1  0.00000000  0.17362500  0.50518900  1
  C  C11  1  0.00000000  0.14439200  0.37206800  1
  C  C12  1  0.00000000  0.12516100  0.23912700  1
  C  C13  1  0.00000000  0.32127400  0.42721800  1
  C  C14  1  0.00000000  0.29387700  0.28452300  1
  C  C15  1  0.00000000  0.45586900  0.33829600  1
  C  C16  1  0.00000000  0.62450300  0.26245400  1
  C  C17  1  0.00000000  0.64454600  0.12939300  1
  C  C18  1  0.00000000  0.79364800  0.21727800  1
  C  C19  1  0.00000000  0.82232300  0.07504800  1
  C  C20  1  0.00000000  0.95628000  0.16398900  1
  C  C21  1  0.00000000  0.31757900  0.00371700  1
  C  C22  1  0.00000000  0.69672400  0.71649700  1
  C  C23  1  0.00000000  0.67591700  0.99656900  1
  N  N0  1  0.00000000  0.09473300  0.77216300  1
  N  N1  1  0.00000000  0.06690100  0.91276600  1
  N  N2  1  0.00000000  0.23810700  0.85986800  1
  N  N3  1  0.00000000  0.26254600  0.72184600  1
  N  N4  1  0.00000000  0.38633700  0.94203200  1
  N  N5  1  0.00000000  0.41108900  0.80812300  1
  N  N6  1  0.00000000  0.42704300  0.67003500  1
  N  N7  1  0.00000000  0.59386300  0.72688100  1
  N  N8  1  0.00000000  0.56703500  0.58611300  1
  N  N9  1  0.00000000  0.71197900  0.50171900  1
  N  N10  1  0.00000000  0.73797600  0.64011400  1
  N  N11  1  0.00000000  0.76134100  0.77865100  1
  N  N12  1  0.00000000  0.92744400  0.82988900  1
  N  N13  1  0.00000000  0.91017600  0.69248700  1
  N  N14  1  0.00000000  0.88705100  0.55821900  1
  N  N15  1  0.00000000  0.86283400  0.42544400  1
  N  N16  1  0.00000000  0.12993800  0.57585900  1
  N  N17  1  0.00000000  0.10508600  0.44359800  1
  N  N18  1  0.00000000  0.08053300  0.30960300  1
  N  N19  1  0.00000000  0.06414100  0.17199000  1
  N  N20  1  0.00000000  0.28060700  0.49923500  1
  N  N21  1  0.00000000  0.25335900  0.36104000  1
  N  N22  1  0.00000000  0.22908500  0.22287500  1
  N  N23  1  0.00000000  0.42455000  0.41390700  1
  N  N24  1  0.00000000  0.39667600  0.27328500  1
  N  N25  1  0.00000000  0.56363000  0.32980800  1
  N  N26  1  0.00000000  0.58025100  0.19168800  1
  N  N27  1  0.00000000  0.60615800  0.05754100  1
  N  N28  1  0.00000000  0.72838700  0.27861800  1
  N  N29  1  0.00000000  0.75362100  0.14074400  1
  N  N30  1  0.00000000  0.89657100  0.22877500  1
  N  N31  1  0.00000000  0.92547900  0.08841600  1
  N  N32  1  0.00000000  0.78266000  0.00295600  1
  N  N33  1  0.00000000  0.36203900  0.07399800  1
  N  N34  1  0.00000000  0.21065500  0.99812000  1
  N  N35  1  0.00000000  0.63484900  0.92506700  1
loop_
_geom_bond_atom_site_label_1
_geom_bond_atom_site_label_2
_geom_bond_distance
_geom_bond_site_symmetry_2
H0 N16 1.028693 1_555
H1 N16 1.028880 1_555
H2 N15 1.028181 1_555
H3 N15 1.028501 1_555
H4 N6 1.028159 1_555
H5 N25 1.028132 1_555
H6 N35 1.025999 1_555
H7 N35 1.029429 1_555
H8 N33 1.029706 1_555
H9 N33 1.026521 1_555
H10 N12 1.028585 1_555
H11 N19 1.026377 1_555
C0 N0 1.338428 1_555
C0 N1 1.344994 1_555
C0 N12 1.386781 1_545
C1 N34 1.330123 1_555
C1 N1 1.337713 1_555
C1 N2 1.420261 1_555
C2 N0 1.329108 1_555
C2 N3 1.334303 1_555
C2 N2 1.397932 1_555
C3 N4 1.312292 1_555
C3 N5 1.339149 1_555
C3 N2 1.405655 1_555
C4 N5 1.327153 1_555
C4 N3 1.356015 1_555
C4 N6 1.382587 1_555
C5 N7 1.341120 1_555
C5 N8 1.344956 1_555
C5 N6 1.386931 1_555
C6 N9 1.328638 1_555
C6 N8 1.339280 1_555
C6 N10 1.423440 1_555
C7 N13 1.328030 1_555
C7 N11 1.355261 1_555
C7 N12 1.385154 1_555
C8 N14 1.314380 1_555
C8 N13 1.340524 1_555
C8 N10 1.404560 1_555
C9 N15 1.324656 1_555
C9 N14 1.367725 1_555
C9 N9 1.370257 1_555
C10 N16 1.323346 1_555
C10 N17 1.365406 1_555
C10 N20 1.370240 1_555
C11 N17 1.314301 1_555
C11 N18 1.339541 1_555
C11 N21 1.404290 1_555
C12 N18 1.325468 1_555
C12 N22 1.355604 1_555
C12 N19 1.382526 1_555
C13 N20 1.328629 1_555
C13 N23 1.338226 1_555
C13 N21 1.421195 1_555
C14 N24 1.326746 1_555
C14 N22 1.335923 1_555
C14 N21 1.398616 1_555
C15 N24 1.339506 1_555
C15 N23 1.344976 1_555
C15 N25 1.383924 1_555
C16 N26 1.329353 1_555
C16 N28 1.355580 1_555
C16 N25 1.382653 1_555
C17 N27 1.316273 1_555
C17 N26 1.338785 1_555
C17 N29 1.406944 1_555
C18 N30 1.329506 1_555
C18 N28 1.333674 1_555
C18 N29 1.397961 1_555
C19 N32 1.326216 1_555
C19 N31 1.337526 1_555
C19 N29 1.418920 1_555
C20 N30 1.338287 1_555
C20 N31 1.343503 1_555
C20 N19 1.384761 1_565
C21 N33 1.323041 1_555
C21 N4 1.366481 1_554
C21 N34 1.369350 1_554
C22 N7 1.325542 1_555
C22 N11 1.341302 1_555
C22 N10 1.399991 1_555
C23 N35 1.323991 1_555
C23 N27 1.365519 1_556
C23 N32 1.368062 1_556
