# generated using pymatgen
data_CaMoO4
_symmetry_space_group_name_H-M   'P 1'
_cell_length_a   5.32580117
_cell_length_b   5.70841110
_cell_length_c   6.51625635
_cell_angle_alpha   120.93441473
_cell_angle_beta   82.38377301
_cell_angle_gamma   94.34979272
_symmetry_Int_Tables_number   1
_chemical_formula_structural   CaMoO4
_chemical_formula_sum   'Ca2 Mo2 O8'
_cell_volume   168.42093016
_cell_formula_units_Z   2
loop_
 _symmetry_equiv_pos_site_id
 _symmetry_equiv_pos_as_xyz
  1  'x, y, z'
loop_
 _atom_site_type_symbol
 _atom_site_label
 _atom_site_symmetry_multiplicity
 _atom_site_fract_x
 _atom_site_fract_y
 _atom_site_fract_z
 _atom_site_occupancy
  Ca  Ca0  1  0.25236000  0.13157600  0.71745600  1
  Ca  Ca1  1  0.74764000  0.86842400  0.28254400  1
  Mo  Mo0  1  0.72845900  0.58744000  0.66087400  1
  Mo  Mo1  1  0.27154100  0.41256000  0.33912600  1
  O  O0  1  0.37203300  0.54781000  0.07174400  1
  O  O1  1  0.49672100  0.73941000  0.52439100  1
  O  O2  1  0.00358800  0.28590300  0.52235500  1
  O  O3  1  0.62930400  0.94216600  0.97678500  1
  O  O4  1  0.37069600  0.05783400  0.02321500  1
  O  O5  1  0.99641200  0.71409800  0.47764500  1
  O  O6  1  0.50327900  0.26059000  0.47560900  1
  O  O7  1  0.62796700  0.45219000  0.92825600  1
loop_
_geom_bond_atom_site_label_1
_geom_bond_atom_site_label_2
_geom_bond_distance
_geom_bond_site_symmetry_2
Ca0 O6 2.301628 1_555
Ca0 O1 2.323865 1_545
Ca0 O4 2.404046 1_556
Ca0 O0 2.429457 1_556
Ca0 O2 2.433676 1_555
Ca0 O5 2.494497 1_445
Ca0 O7 2.612744 1_555
Ca1 O1 2.301628 1_555
Ca1 O6 2.323865 1_565
Ca1 O3 2.404046 1_554
Ca1 O7 2.429457 1_554
Ca1 O5 2.433672 1_555
Ca1 O2 2.494500 1_665
Ca1 O0 2.612744 1_555
Mo0 O6 2.026182 1_555
Mo0 O3 2.050677 1_555
Mo0 O5 2.064990 1_555
Mo0 O1 2.076857 1_555
Mo0 O2 2.087891 1_655
Mo0 O7 2.234139 1_555
Mo1 O1 2.026182 1_555
Mo1 O4 2.050677 1_555
Mo1 O2 2.064987 1_555
Mo1 O6 2.076857 1_555
Mo1 O5 2.087895 1_455
Mo1 O0 2.234139 1_555
O0 O7 1.510103 1_554
O3 O4 1.498851 1_566
