# generated using pymatgen
data_Li2Mn3CrO8
_symmetry_space_group_name_H-M   'P 1'
_cell_length_a   5.80410700
_cell_length_b   5.93607683
_cell_length_c   5.97248210
_cell_angle_alpha   119.41964205
_cell_angle_beta   90.20745545
_cell_angle_gamma   118.96631147
_symmetry_Int_Tables_number   1
_chemical_formula_structural   Li2Mn3CrO8
_chemical_formula_sum   'Li2 Mn3 Cr1 O8'
_cell_volume   148.73358087
_cell_formula_units_Z   1
loop_
 _symmetry_equiv_pos_site_id
 _symmetry_equiv_pos_as_xyz
  1  'x, y, z'
loop_
 _atom_site_type_symbol
 _atom_site_label
 _atom_site_symmetry_multiplicity
 _atom_site_fract_x
 _atom_site_fract_y
 _atom_site_fract_z
 _atom_site_occupancy
  Li  Li0  1  0.00000000  0.50000000  0.50000000  1
  Li  Li1  1  0.50000000  0.00000000  0.50000000  1
  Mn  Mn0  1  0.50000000  0.00000000  0.00000000  1
  Mn  Mn1  1  0.50000000  0.50000000  0.00000000  1
  Mn  Mn2  1  0.00000000  0.50000000  0.00000000  1
  Cr  Cr0  1  0.00000000  0.00000000  0.00000000  1
  O  O0  1  0.72008500  0.75390400  0.19587000  1
  O  O1  1  0.23170600  0.75381600  0.20407100  1
  O  O2  1  0.24366500  0.70838700  0.77223400  1
  O  O3  1  0.76191000  0.73489000  0.79577400  1
  O  O4  1  0.23809000  0.26511000  0.20422600  1
  O  O5  1  0.75633500  0.29161300  0.22776600  1
  O  O6  1  0.76829400  0.24618400  0.79592900  1
  O  O7  1  0.27991500  0.24609600  0.80413000  1
loop_
_geom_bond_atom_site_label_1
_geom_bond_atom_site_label_2
_geom_bond_distance
_geom_bond_site_symmetry_2
Li0 O2 1.576985 1_555
Li0 O5 1.576985 1_455
Li1 O1 1.709613 1_545
Li1 O6 1.709613 1_555
Mn0 O2 1.495988 1_544
Mn0 O5 1.495988 1_555
Mn1 O7 1.290003 1_554
Mn1 O0 1.290003 1_555
Mn2 O6 1.336288 1_454
Mn2 O1 1.336288 1_555
Cr0 O3 1.367341 1_444
Cr0 O4 1.367341 1_555
