# generated using pymatgen
data_KVAsO5
_symmetry_space_group_name_H-M   'P 1'
_cell_length_a   6.64017500
_cell_length_b   10.83650300
_cell_length_c   13.28788300
_cell_angle_alpha   90.00000000
_cell_angle_beta   90.00000000
_cell_angle_gamma   90.00000000
_symmetry_Int_Tables_number   1
_chemical_formula_structural   KVAsO5
_chemical_formula_sum   'K8 V8 As8 O40'
_cell_volume   956.14658070
_cell_formula_units_Z   8
loop_
 _symmetry_equiv_pos_site_id
 _symmetry_equiv_pos_as_xyz
  1  'x, y, z'
loop_
 _atom_site_type_symbol
 _atom_site_label
 _atom_site_symmetry_multiplicity
 _atom_site_fract_x
 _atom_site_fract_y
 _atom_site_fract_z
 _atom_site_occupancy
  K  K0  1  0.72560700  0.53192800  0.62238100  1
  K  K1  1  0.27439300  0.03192800  0.37761900  1
  K  K2  1  0.22560700  0.03192800  0.87761900  1
  K  K3  1  0.77439300  0.53192800  0.12238100  1
  K  K4  1  0.70804800  0.77702500  0.39415900  1
  K  K5  1  0.29195200  0.27702500  0.60584100  1
  K  K6  1  0.20804800  0.27702500  0.10584100  1
  K  K7  1  0.79195200  0.77702500  0.89415900  1
  V  V0  1  0.23006900  0.59417200  0.75201000  1
  V  V1  1  0.76993100  0.09417200  0.24799000  1
  V  V2  1  0.73006900  0.09417200  0.74799000  1
  V  V3  1  0.26993100  0.59417200  0.25201000  1
  V  V4  1  0.99789400  0.34504100  0.37457500  1
  V  V5  1  0.00210600  0.84504100  0.62542500  1
  V  V6  1  0.49789400  0.84504100  0.12542500  1
  V  V7  1  0.50210600  0.34504100  0.87457500  1
  As  As0  1  0.50176200  0.33175600  0.31909100  1
  As  As1  1  0.49823800  0.83175600  0.68090900  1
  As  As2  1  0.00176200  0.83175600  0.18090900  1
  As  As3  1  0.99823800  0.33175600  0.81909100  1
  As  As4  1  0.17631200  0.58608300  0.50167500  1
  As  As5  1  0.82368800  0.08608300  0.49832500  1
  As  As6  1  0.67631200  0.08608300  0.99832500  1
  As  As7  1  0.32368800  0.58608300  0.00167500  1
  O  O0  1  0.04755200  0.45042700  0.73581500  1
  O  O1  1  0.95244800  0.95042700  0.26418500  1
  O  O2  1  0.54755200  0.95042700  0.76418500  1
  O  O3  1  0.45244800  0.45042700  0.23581500  1
  O  O4  1  0.70173200  0.36697700  0.39579900  1
  O  O5  1  0.29826800  0.86697700  0.60420100  1
  O  O6  1  0.20173200  0.86697700  0.10420100  1
  O  O7  1  0.79826800  0.36697700  0.89579900  1
  O  O8  1  0.33620300  0.60142200  0.40073000  1
  O  O9  1  0.66379700  0.10142200  0.59927000  1
  O  O10  1  0.83620300  0.10142200  0.09927000  1
  O  O11  1  0.16379700  0.60142200  0.90073000  1
  O  O12  1  0.05169200  0.45698300  0.28575500  1
  O  O13  1  0.94830800  0.95698300  0.71424500  1
  O  O14  1  0.55169200  0.95698300  0.21424500  1
  O  O15  1  0.44830800  0.45698300  0.78575500  1
  O  O16  1  0.01257900  0.70692000  0.51602800  1
  O  O17  1  0.98742100  0.20692000  0.48397200  1
  O  O18  1  0.51257900  0.20692000  0.98397200  1
  O  O19  1  0.48742100  0.70692000  0.01602800  1
  O  O20  1  0.32573000  0.56683700  0.60716300  1
  O  O21  1  0.67427000  0.06683700  0.39283700  1
  O  O22  1  0.82573000  0.06683700  0.89283700  1
  O  O23  1  0.17427000  0.56683700  0.10716300  1
  O  O24  1  0.02788500  0.45571800  0.49400400  1
  O  O25  1  0.97211500  0.95571800  0.50599600  1
  O  O26  1  0.52788500  0.95571800  0.00599600  1
  O  O27  1  0.47211500  0.45571800  0.99400400  1
  O  O28  1  0.29880100  0.29621500  0.39369500  1
  O  O29  1  0.70119900  0.79621500  0.60630500  1
  O  O30  1  0.79880100  0.79621500  0.10630500  1
  O  O31  1  0.20119900  0.29621500  0.89369500  1
  O  O32  1  0.53907200  0.21070200  0.23597600  1
  O  O33  1  0.46092800  0.71070200  0.76402400  1
  O  O34  1  0.03907200  0.71070200  0.26402400  1
  O  O35  1  0.96092800  0.21070200  0.73597600  1
  O  O36  1  0.05190700  0.70592700  0.72172000  1
  O  O37  1  0.94809300  0.20592700  0.27828000  1
  O  O38  1  0.55190700  0.20592700  0.77828000  1
  O  O39  1  0.44809300  0.70592700  0.22172000  1
loop_
_geom_bond_atom_site_label_1
_geom_bond_atom_site_label_2
_geom_bond_distance
_geom_bond_site_symmetry_2
K0 O20 2.689678 1_555
K0 O24 2.760570 1_655
K0 O0 2.760802 1_655
K0 O29 2.876472 1_555
K0 O15 2.960202 1_555
K0 O16 3.037138 1_655
K0 O36 3.161047 1_655
K0 O33 3.222478 1_555
K1 O21 2.689678 1_555
K1 O25 2.760570 1_445
K1 O1 2.760802 1_445
K1 O28 2.876472 1_555
K1 O14 2.960202 1_545
K1 O17 3.037138 1_455
K1 O37 3.161047 1_455
K1 O32 3.222478 1_555
K2 O22 2.689678 1_455
K2 O26 2.760570 1_546
K2 O2 2.760802 1_545
K2 O31 2.876472 1_555
K2 O13 2.960202 1_445
K2 O18 3.037138 1_555
K2 O38 3.161047 1_555
K2 O35 3.222478 1_455
K3 O23 2.689678 1_655
K3 O27 2.760570 1_554
K3 O3 2.760802 1_555
K3 O30 2.876472 1_555
K3 O12 2.960202 1_655
K3 O19 3.037138 1_555
K3 O39 3.161047 1_555
K3 O34 3.222478 1_655
K4 O16 2.699736 1_655
K4 O29 2.826997 1_555
K4 O34 2.887593 1_655
K4 O39 2.970431 1_555
K4 O25 3.005443 1_555
K4 O1 3.024464 1_555
K4 O8 3.118537 1_555
K4 O21 3.148597 1_565
K4 O14 3.255182 1_555
K5 O17 2.699736 1_455
K5 O28 2.826997 1_555
K5 O35 2.887593 1_455
K5 O38 2.970431 1_555
K5 O24 3.005443 1_555
K5 O0 3.024464 1_555
K5 O9 3.118537 1_555
K5 O20 3.148597 1_555
K5 O15 3.255182 1_555
K6 O18 2.699736 1_554
K6 O31 2.826997 1_554
K6 O32 2.887593 1_555
K6 O37 2.970431 1_455
K6 O27 3.005443 1_554
K6 O3 3.024464 1_555
K6 O10 3.118537 1_455
K6 O23 3.148597 1_555
K6 O12 3.255182 1_555
K7 O19 2.699736 1_556
K7 O30 2.826997 1_556
K7 O33 2.887593 1_555
K7 O36 2.970431 1_655
K7 O26 3.005443 1_556
K7 O2 3.024464 1_555
K7 O11 3.118537 1_655
K7 O22 3.148597 1_565
K7 O13 3.255182 1_555
As0 O28 1.716786 1_555
As0 O4 1.716906 1_555
As0 O3 1.727844 1_555
As0 O32 1.732614 1_555
As1 O29 1.716786 1_555
As1 O5 1.716906 1_555
As1 O2 1.727844 1_555
As1 O33 1.732614 1_555
As2 O30 1.716786 1_455
As2 O6 1.716906 1_555
As2 O1 1.727844 1_455
As2 O34 1.732614 1_555
As3 O31 1.716786 1_655
As3 O7 1.716906 1_555
As3 O0 1.727844 1_655
As3 O35 1.732614 1_555
As4 O16 1.712622 1_555
As4 O8 1.718736 1_555
As4 O24 1.725539 1_555
As4 O20 1.729936 1_555
As5 O17 1.712622 1_555
As5 O9 1.718736 1_555
As5 O25 1.725539 1_545
As5 O21 1.729936 1_555
As6 O18 1.712622 1_555
As6 O10 1.718736 1_556
As6 O26 1.725539 1_546
As6 O22 1.729936 1_555
As7 O19 1.712622 1_555
As7 O11 1.718736 1_554
As7 O27 1.725539 1_554
As7 O23 1.729936 1_555
O0 V0 1.985328 1_555
O1 V1 1.985328 1_565
O2 V2 1.985328 1_565
O3 V3 1.985328 1_555
O4 V4 2.000857 1_555
O5 V5 2.000857 1_555
O6 V6 2.000857 1_555
O7 V7 2.000857 1_555
O8 V3 2.026101 1_555
O9 V2 2.026101 1_555
O10 V1 2.026101 1_555
O11 V0 2.026101 1_555
O12 V4 1.729760 1_455
O12 V3 2.123961 1_555
O13 V5 1.729760 1_655
O13 V2 2.123961 1_565
O14 V6 1.729760 1_555
O14 V1 2.123961 1_565
O15 V7 1.729760 1_555
O15 V0 2.123961 1_555
O16 V5 2.087631 1_555
O17 V4 2.087631 1_555
O18 V7 2.087631 1_555
O19 V6 2.087631 1_555
O20 V0 2.048350 1_555
O21 V1 2.048350 1_555
O22 V2 2.048350 1_555
O23 V3 2.048350 1_555
O24 V4 1.999135 1_455
O25 V5 1.999135 1_655
O26 V6 1.999135 1_555
O27 V7 1.999135 1_555
O28 V4 2.082499 1_455
O29 V5 2.082499 1_655
O30 V6 2.082499 1_555
O31 V7 2.082499 1_555
O32 V1 1.992489 1_555
O33 V0 1.992489 1_555
O34 V3 1.992489 1_555
O35 V2 1.992489 1_555
O36 V0 1.740159 1_555
O36 V5 2.004795 1_555
O37 V1 1.740159 1_555
O37 V4 2.004795 1_555
O38 V2 1.740159 1_555
O38 V7 2.004795 1_555
O39 V3 1.740159 1_555
O39 V6 2.004795 1_555
