# generated using pymatgen
data_Cs3H(SeO4)2
_symmetry_space_group_name_H-M   'P 1'
_cell_length_a   8.84780567
_cell_length_b   8.84780567
_cell_length_c   11.21804152
_cell_angle_alpha   78.60494550
_cell_angle_beta   78.60494550
_cell_angle_gamma   43.18042257
_symmetry_Int_Tables_number   1
_chemical_formula_structural   Cs3H(SeO4)2
_chemical_formula_sum   'Cs6 H2 Se4 O16'
_cell_volume   587.22088641
_cell_formula_units_Z   2
loop_
 _symmetry_equiv_pos_site_id
 _symmetry_equiv_pos_as_xyz
  1  'x, y, z'
loop_
 _atom_site_type_symbol
 _atom_site_label
 _atom_site_symmetry_multiplicity
 _atom_site_fract_x
 _atom_site_fract_y
 _atom_site_fract_z
 _atom_site_occupancy
  Cs  Cs0  1  0.91234900  0.46718700  0.84776900  1
  Cs  Cs1  1  0.46718700  0.91234900  0.34776900  1
  Cs  Cs2  1  0.08597500  0.53115500  0.15259100  1
  Cs  Cs3  1  0.53115500  0.08597500  0.65259100  1
  Cs  Cs4  1  0.74622800  0.25909900  0.25069000  1
  Cs  Cs5  1  0.25909900  0.74622800  0.75069000  1
  H  H0  1  0.03118500  0.96731200  0.49280600  1
  H  H1  1  0.96731200  0.03118500  0.99280600  1
  Se  Se0  1  0.32772500  0.90016100  0.03651800  1
  Se  Se1  1  0.90016100  0.32772500  0.53651800  1
  Se  Se2  1  0.66745400  0.09947100  0.96482900  1
  Se  Se3  1  0.09947100  0.66745400  0.46482900  1
  O  O0  1  0.38510700  0.92267200  0.88650000  1
  O  O1  1  0.92267200  0.38510700  0.38650000  1
  O  O2  1  0.62028900  0.07530600  0.11489300  1
  O  O3  1  0.07530600  0.62028900  0.61489300  1
  O  O4  1  0.17514200  0.13823900  0.09851300  1
  O  O5  1  0.13823900  0.17514200  0.59851300  1
  O  O6  1  0.83167800  0.86182700  0.90186800  1
  O  O7  1  0.86182700  0.83167800  0.40186800  1
  O  O8  1  0.16920800  0.85144800  0.05341300  1
  O  O9  1  0.85144800  0.16920800  0.55341300  1
  O  O10  1  0.81826200  0.16476200  0.94644400  1
  O  O11  1  0.16476200  0.81826200  0.44644400  1
  O  O12  1  0.56004800  0.69014200  0.10600900  1
  O  O13  1  0.69014200  0.56004800  0.60600900  1
  O  O14  1  0.44203700  0.31253200  0.89325600  1
  O  O15  1  0.31253200  0.44203700  0.39325600  1
loop_
_geom_bond_atom_site_label_1
_geom_bond_atom_site_label_2
_geom_bond_distance
_geom_bond_site_symmetry_2
Cs0 O6 3.178238 1_555
Cs0 O0 3.265699 1_555
Cs0 O3 3.271119 1_655
Cs0 O13 3.281213 1_555
Cs0 O10 3.285161 1_555
Cs0 O4 3.356977 1_656
Cs0 O0 3.375964 1_645
Cs0 O5 3.406591 1_655
Cs0 O12 3.423773 1_556
Cs1 O7 3.178238 1_555
Cs1 O1 3.265699 1_555
Cs1 O2 3.271119 1_565
Cs1 O12 3.281213 1_555
Cs1 O11 3.285161 1_555
Cs1 O5 3.356977 1_565
Cs1 O1 3.375964 1_465
Cs1 O4 3.406591 1_565
Cs1 O13 3.423773 1_555
Cs2 O4 3.117756 1_555
Cs2 O1 3.244658 1_455
Cs2 O2 3.297203 1_555
Cs2 O15 3.304680 1_555
Cs2 O6 3.343898 1_454
Cs2 O8 3.359332 1_555
Cs2 O2 3.359854 1_465
Cs2 O14 3.441635 1_554
Cs2 O7 3.446620 1_455
Cs3 O5 3.117756 1_555
Cs3 O0 3.244658 1_545
Cs3 O3 3.297203 1_555
Cs3 O14 3.304680 1_555
Cs3 O7 3.343898 1_545
Cs3 O9 3.359332 1_555
Cs3 O3 3.359854 1_645
Cs3 O15 3.441635 1_555
Cs3 O6 3.446620 1_545
Cs4 O12 3.056310 1_555
Cs4 O15 3.072780 1_555
Cs4 O1 3.186008 1_555
Cs4 O2 3.240214 1_555
Cs4 O4 3.271460 1_655
Cs4 O7 3.276263 1_545
Cs5 O13 3.056310 1_555
Cs5 O14 3.072780 1_555
Cs5 O0 3.186008 1_555
Cs5 O3 3.240214 1_555
Cs5 O5 3.271460 1_565
Cs5 O6 3.276263 1_455
H0 O11 1.077730 1_555
H0 O9 1.446344 1_465
H1 O10 1.077730 1_555
H1 O8 1.446344 1_646
O0 Se0 1.675416 1_556
O1 Se1 1.675416 1_555
O2 Se2 1.662553 1_554
O3 Se3 1.662553 1_555
O4 Se0 1.674494 1_545
O5 Se1 1.674494 1_455
O6 Se2 1.660364 1_565
O7 Se3 1.660364 1_655
O8 Se0 1.712615 1_555
O9 Se1 1.712615 1_555
O10 Se2 1.767767 1_555
O11 Se3 1.767767 1_555
O12 Se0 1.666172 1_555
O13 Se1 1.666172 1_555
O14 Se2 1.651537 1_555
O15 Se3 1.651537 1_555
