# generated using pymatgen
data_SiS
_symmetry_space_group_name_H-M   'P 1'
_cell_length_a   3.98543000
_cell_length_b   6.64290000
_cell_length_c   23.99833000
_cell_angle_alpha   90.00000000
_cell_angle_beta   90.00000000
_cell_angle_gamma   90.00000000
_symmetry_Int_Tables_number   1
_chemical_formula_structural   SiS
_chemical_formula_sum   'Si4 S4'
_cell_volume   635.35129779
_cell_formula_units_Z   4
loop_
 _symmetry_equiv_pos_site_id
 _symmetry_equiv_pos_as_xyz
  1  'x, y, z'
loop_
 _atom_site_type_symbol
 _atom_site_label
 _atom_site_symmetry_multiplicity
 _atom_site_fract_x
 _atom_site_fract_y
 _atom_site_fract_z
 _atom_site_occupancy
  Si  Si0  1  0.75000000  0.75000000  0.02732400  1
  Si  Si1  1  0.75000000  0.25000000  0.02732400  1
  Si  Si2  1  0.25000000  0.75000000  0.97267600  1
  Si  Si3  1  0.25000000  0.25000000  0.97267600  1
  S  S0  1  0.79525300  0.50000000  0.08483100  1
  S  S1  1  0.70474700  0.00000000  0.08483100  1
  S  S2  1  0.20474700  0.50000000  0.91516900  1
  S  S3  1  0.29525300  0.00000000  0.91516900  1
loop_
_geom_bond_atom_site_label_1
_geom_bond_atom_site_label_2
_geom_bond_distance
_geom_bond_site_symmetry_2
S0 Si0 2.166826 1_555
S0 Si1 2.166826 1_555
S1 Si1 2.166826 1_555
S1 Si0 2.166826 1_545
S2 Si3 2.166826 1_555
S2 Si2 2.166826 1_555
S3 Si3 2.166826 1_555
S3 Si2 2.166826 1_545
