# generated using pymatgen
data_Li9Mn2Co5O16
_symmetry_space_group_name_H-M   'P 1'
_cell_length_a   5.07420800
_cell_length_b   5.73453155
_cell_length_c   10.29491528
_cell_angle_alpha   90.41144623
_cell_angle_beta   97.92985946
_cell_angle_gamma   106.22520856
_symmetry_Int_Tables_number   1
_chemical_formula_structural   Li9Mn2Co5O16
_chemical_formula_sum   'Li9 Mn2 Co5 O16'
_cell_volume   284.55222562
_cell_formula_units_Z   1
loop_
 _symmetry_equiv_pos_site_id
 _symmetry_equiv_pos_as_xyz
  1  'x, y, z'
loop_
 _atom_site_type_symbol
 _atom_site_label
 _atom_site_symmetry_multiplicity
 _atom_site_fract_x
 _atom_site_fract_y
 _atom_site_fract_z
 _atom_site_occupancy
  Li  Li0  1  0.49919200  0.12266600  0.86524300  1
  Li  Li1  1  0.49838900  0.87533100  0.62364000  1
  Li  Li2  1  0.50246100  0.37457100  0.62197900  1
  Li  Li3  1  0.51047400  0.12885000  0.38683200  1
  Li  Li4  1  0.50065300  0.62176700  0.38382000  1
  Li  Li5  1  0.49576100  0.37199900  0.12878900  1
  Li  Li6  1  0.49755300  0.87706000  0.12542500  1
  Li  Li7  1  0.50426600  0.62923500  0.86182900  1
  Li  Li8  1  0.00125200  0.75024000  0.74664800  1
  Mn  Mn0  1  0.99897500  0.99959900  0.99620000  1
  Mn  Mn1  1  0.99885000  0.50040100  0.99634800  1
  Co  Co0  1  0.00548900  0.50105700  0.50941200  1
  Co  Co1  1  0.99404400  0.25105400  0.25137300  1
  Co  Co2  1  0.00602600  0.00004700  0.50926600  1
  Co  Co3  1  0.99577800  0.75346500  0.25704800  1
  Co  Co4  1  0.00614800  0.25209700  0.75026600  1
  O  O0  1  0.77259700  0.19374500  0.05498400  1
  O  O1  1  0.78908100  0.95782000  0.82521200  1
  O  O2  1  0.79182500  0.43695100  0.82583900  1
  O  O3  1  0.75613300  0.18780500  0.56633500  1
  O  O4  1  0.76847900  0.69145100  0.55285100  1
  O  O5  1  0.76258200  0.43068600  0.30717500  1
  O  O6  1  0.76669100  0.94346000  0.30377000  1
  O  O7  1  0.77209100  0.69387200  0.05234400  1
  O  O8  1  0.22908300  0.07400700  0.68574500  1
  O  O9  1  0.23698100  0.80669400  0.43089800  1
  O  O10  1  0.22169900  0.30307400  0.43513700  1
  O  O11  1  0.21007700  0.06163200  0.17784100  1
  O  O12  1  0.20591100  0.55140100  0.18072500  1
  O  O13  1  0.23534400  0.30844800  0.95085100  1
  O  O14  1  0.23126500  0.80675800  0.95053600  1
  O  O15  1  0.23485200  0.54275800  0.68563900  1
loop_
_geom_bond_atom_site_label_1
_geom_bond_atom_site_label_2
_geom_bond_distance
_geom_bond_site_symmetry_2
Li0 O1 2.041054 1_545
Li0 O2 2.073361 1_555
Li0 O8 2.109789 1_555
Li0 O13 2.193937 1_555
Li0 O0 2.198012 1_556
Li0 O14 2.208408 1_545
Li1 O3 2.046419 1_565
Li1 O4 2.143216 1_555
Li1 O15 2.158850 1_555
Li1 O8 2.162136 1_565
Li1 O9 2.196010 1_555
Li1 O1 2.336066 1_555
Li2 O3 2.024133 1_555
Li2 O15 2.042542 1_555
Li2 O8 2.063342 1_555
Li2 O4 2.131545 1_555
Li2 O10 2.191756 1_555
Li2 O2 2.352428 1_555
Li3 O3 2.050131 1_555
Li3 O9 2.073081 1_545
Li3 O5 2.092229 1_555
Li3 O10 2.098724 1_555
Li3 O6 2.148907 1_545
Li3 O11 2.419917 1_555
Li4 O4 2.017113 1_555
Li4 O9 2.028290 1_555
Li4 O10 2.096954 1_555
Li4 O5 2.163458 1_555
Li4 O6 2.200398 1_555
Li4 O12 2.357763 1_555
Li5 O13 2.070756 1_554
Li5 O11 2.072975 1_555
Li5 O5 2.090306 1_555
Li5 O12 2.135896 1_555
Li5 O0 2.163617 1_555
Li5 O7 2.207123 1_555
Li6 O14 2.060063 1_554
Li6 O6 2.094899 1_555
Li6 O11 2.147348 1_565
Li6 O0 2.157195 1_565
Li6 O12 2.169097 1_555
Li6 O7 2.169297 1_555
Li7 O15 2.080605 1_555
Li7 O1 2.102377 1_555
Li7 O2 2.127117 1_555
Li7 O7 2.191738 1_556
Li7 O14 2.216544 1_555
Li7 O13 2.247769 1_555
Li8 O1 2.042752 1_455
Li8 O8 2.047926 1_565
Li8 O15 2.048896 1_555
Li8 O2 2.052992 1_455
Li8 O4 2.146361 1_455
Li8 O14 2.230688 1_555
Mn0 O1 1.903799 1_555
Mn0 O14 1.925369 1_655
Mn0 O13 1.942317 1_665
Mn0 O7 1.950235 1_556
Mn0 O0 1.955006 1_566
Mn0 O11 1.998898 1_666
Mn1 O2 1.893592 1_555
Mn1 O14 1.925407 1_655
Mn1 O13 1.938289 1_655
Mn1 O7 1.942778 1_556
Mn1 O0 1.962933 1_556
Mn1 O12 2.015548 1_656
Co0 O4 1.927060 1_455
Co0 O15 1.989676 1_555
Co0 O10 1.998092 1_555
Co0 O3 2.029975 1_455
Co0 O9 2.058360 1_555
Co0 O5 2.240254 1_455
Co1 O5 1.903765 1_555
Co1 O6 1.944591 1_545
Co1 O11 1.958880 1_655
Co1 O12 1.962198 1_655
Co1 O10 2.049090 1_655
Co1 O0 2.148391 1_555
Co2 O4 1.937660 1_445
Co2 O8 1.978664 1_555
Co2 O10 1.996615 1_555
Co2 O3 2.017855 1_455
Co2 O9 2.056182 1_545
Co2 O6 2.262030 1_445
Co3 O6 1.903735 1_555
Co3 O9 1.993336 1_655
Co3 O12 2.001377 1_655
Co3 O5 2.012676 1_555
Co3 O11 2.040054 1_665
Co3 O7 2.226918 1_555
Co4 O8 1.899217 1_555
Co4 O15 1.927606 1_555
Co4 O2 1.943596 1_455
Co4 O1 1.967424 1_445
Co4 O3 2.096823 1_455
Co4 O13 2.199765 1_555
