# generated using pymatgen
data_Sr7Mn7O20
_symmetry_space_group_name_H-M   'P 1'
_cell_length_a   3.88317100
_cell_length_b   8.68053900
_cell_length_c   12.44415240
_cell_angle_alpha   81.09437317
_cell_angle_beta   90.00000000
_cell_angle_gamma   90.00000000
_symmetry_Int_Tables_number   1
_chemical_formula_structural   Sr7Mn7O20
_chemical_formula_sum   'Sr7 Mn7 O20'
_cell_volume   414.41088167
_cell_formula_units_Z   1
loop_
 _symmetry_equiv_pos_site_id
 _symmetry_equiv_pos_as_xyz
  1  'x, y, z'
loop_
 _atom_site_type_symbol
 _atom_site_label
 _atom_site_symmetry_multiplicity
 _atom_site_fract_x
 _atom_site_fract_y
 _atom_site_fract_z
 _atom_site_occupancy
  Sr  Sr0  1  0.50000000  0.57474500  0.63820900  1
  Sr  Sr1  1  0.50000000  0.42525500  0.36179100  1
  Sr  Sr2  1  0.50000000  0.13993500  0.78291000  1
  Sr  Sr3  1  0.50000000  0.86006500  0.21709000  1
  Sr  Sr4  1  0.50000000  0.00000000  0.50000000  1
  Sr  Sr5  1  0.50000000  0.73434800  0.92334600  1
  Sr  Sr6  1  0.50000000  0.26565200  0.07665400  1
  Mn  Mn0  1  0.00000000  0.28582900  0.57069600  1
  Mn  Mn1  1  0.00000000  0.71417100  0.42930400  1
  Mn  Mn2  1  0.00000000  0.85688100  0.71466800  1
  Mn  Mn3  1  0.00000000  0.14311900  0.28533200  1
  Mn  Mn4  1  0.00000000  0.42651300  0.85241500  1
  Mn  Mn5  1  0.00000000  0.57348700  0.14758500  1
  Mn  Mn6  1  0.00000000  0.00000000  0.00000000  1
  O  O0  1  0.50000000  0.28571800  0.56950400  1
  O  O1  1  0.50000000  0.71428200  0.43049600  1
  O  O2  1  0.00000000  0.06798800  0.63533400  1
  O  O3  1  0.00000000  0.93201200  0.36466600  1
  O  O4  1  0.00000000  0.95048300  0.85316700  1
  O  O5  1  0.00000000  0.04951700  0.14683300  1
  O  O6  1  0.00000000  0.64833400  0.80544700  1
  O  O7  1  0.00000000  0.35166600  0.19455300  1
  O  O8  1  0.00000000  0.35656400  0.71422300  1
  O  O9  1  0.00000000  0.64343600  0.28577700  1
  O  O10  1  0.50000000  0.86077300  0.71775700  1
  O  O11  1  0.50000000  0.13922700  0.28224300  1
  O  O12  1  0.00000000  0.77388000  0.58204200  1
  O  O13  1  0.00000000  0.22612000  0.41795800  1
  O  O14  1  0.00000000  0.22682700  0.94361900  1
  O  O15  1  0.00000000  0.77317300  0.05638100  1
  O  O16  1  0.50000000  0.00000000  0.00000000  1
  O  O17  1  0.50000000  0.43980800  0.87850500  1
  O  O18  1  0.50000000  0.56019200  0.12149500  1
  O  O19  1  0.00000000  0.50000000  0.50000000  1
loop_
_geom_bond_atom_site_label_1
_geom_bond_atom_site_label_2
_geom_bond_distance
_geom_bond_site_symmetry_2
Mn0 O19 1.929739 1_555
Mn0 O2 1.936973 1_555
Mn0 O0 1.941644 1_555
Mn0 O0 1.941644 1_455
Mn0 O8 1.976517 1_555
Mn0 O13 2.046044 1_555
Mn1 O19 1.929739 1_555
Mn1 O3 1.936973 1_555
Mn1 O1 1.941644 1_455
Mn1 O1 1.941644 1_555
Mn1 O9 1.976517 1_555
Mn1 O12 2.046044 1_555
Mn2 O12 1.900305 1_555
Mn2 O2 1.942331 1_565
Mn2 O10 1.942363 1_455
Mn2 O10 1.942363 1_555
Mn2 O6 1.979940 1_555
Mn2 O4 2.015991 1_555
Mn3 O13 1.900305 1_555
Mn3 O3 1.942331 1_545
Mn3 O11 1.942363 1_455
Mn3 O11 1.942363 1_555
Mn3 O7 1.979940 1_555
Mn3 O5 2.015991 1_555
Mn4 O8 1.910311 1_555
Mn4 O14 1.919279 1_555
Mn4 O6 1.923750 1_555
Mn4 O17 1.974863 1_455
Mn4 O17 1.974863 1_555
Mn5 O9 1.910311 1_555
Mn5 O15 1.919279 1_555
Mn5 O7 1.923750 1_555
Mn5 O18 1.974863 1_455
Mn5 O18 1.974863 1_555
Mn6 O4 1.940782 1_544
Mn6 O5 1.940782 1_555
Mn6 O16 1.941585 1_555
Mn6 O16 1.941585 1_455
Mn6 O14 1.985302 1_554
Mn6 O15 1.985302 1_545
O0 Sr1 2.679372 1_555
O0 Sr4 2.750196 1_555
O0 Sr2 2.759244 1_555
O0 Sr0 2.773041 1_555
O1 Sr0 2.679372 1_555
O1 Sr4 2.750196 1_565
O1 Sr3 2.759244 1_555
O1 Sr1 2.773041 1_555
O2 Sr4 2.694817 1_455
O2 Sr4 2.694817 1_555
O2 Sr2 2.808468 1_555
O2 Sr2 2.808468 1_455
O3 Sr4 2.694817 1_465
O3 Sr4 2.694817 1_565
O3 Sr3 2.808468 1_455
O3 Sr3 2.808468 1_555
O4 Sr2 2.606434 1_465
O4 Sr2 2.606434 1_565
O4 Sr5 2.746843 1_455
O4 Sr5 2.746843 1_555
O5 Sr3 2.606434 1_545
O5 Sr3 2.606434 1_445
O5 Sr6 2.746843 1_555
O5 Sr6 2.746843 1_455
O6 Sr5 2.611310 1_555
O6 Sr5 2.611310 1_455
O6 Sr0 2.986727 1_555
O6 Sr0 2.986727 1_455
O7 Sr6 2.611310 1_455
O7 Sr6 2.611310 1_555
O7 Sr1 2.986727 1_455
O7 Sr1 2.986727 1_555
O8 Sr2 2.745691 1_555
O8 Sr2 2.745691 1_455
O8 Sr0 2.774315 1_555
O8 Sr0 2.774315 1_455
O9 Sr3 2.745691 1_455
O9 Sr3 2.745691 1_555
O9 Sr1 2.774315 1_455
O9 Sr1 2.774315 1_555
O10 Sr5 2.623049 1_555
O10 Sr2 2.671691 1_565
O10 Sr4 2.790999 1_565
O10 Sr0 2.811685 1_555
O11 Sr6 2.623049 1_555
O11 Sr3 2.671691 1_545
O11 Sr4 2.790999 1_555
O11 Sr1 2.811685 1_555
O12 Sr0 2.621500 1_455
O12 Sr0 2.621500 1_555
O12 Sr4 2.836262 1_465
O12 Sr4 2.836262 1_565
O13 Sr1 2.621500 1_455
O13 Sr1 2.621500 1_555
O13 Sr4 2.836262 1_455
O13 Sr4 2.836262 1_555
O14 Sr6 2.607066 1_456
O14 Sr6 2.607066 1_556
O14 Sr2 2.967367 1_455
O14 Sr2 2.967367 1_555
O15 Sr5 2.607066 1_454
O15 Sr5 2.607066 1_554
O15 Sr3 2.967367 1_555
O15 Sr3 2.967367 1_455
O16 Sr6 2.628425 1_555
O16 Sr5 2.628425 1_544
O16 Sr2 2.785250 1_554
O16 Sr3 2.785250 1_545
O17 Sr6 2.685412 1_556
O17 Sr5 2.700028 1_555
O17 Sr2 3.024866 1_555
O17 Sr0 3.037980 1_555
O18 Sr5 2.685412 1_554
O18 Sr6 2.700028 1_555
O18 Sr3 3.024866 1_555
O18 Sr1 3.037980 1_555
O19 Sr1 2.737566 1_555
O19 Sr0 2.737566 1_455
O19 Sr0 2.737566 1_555
O19 Sr1 2.737566 1_455
