# generated using pymatgen
data_Sm2Cr(Fe8C)2
_symmetry_space_group_name_H-M   'P 1'
_cell_length_a   6.51050408
_cell_length_b   6.49252506
_cell_length_c   6.49252557
_cell_angle_alpha   83.24620317
_cell_angle_beta   83.24748856
_cell_angle_gamma   83.24749143
_symmetry_Int_Tables_number   1
_chemical_formula_structural   Sm2Cr(Fe8C)2
_chemical_formula_sum   'Sm2 Cr1 Fe16 C2'
_cell_volume   269.13965991
_cell_formula_units_Z   1
loop_
 _symmetry_equiv_pos_site_id
 _symmetry_equiv_pos_as_xyz
  1  'x, y, z'
loop_
 _atom_site_type_symbol
 _atom_site_label
 _atom_site_symmetry_multiplicity
 _atom_site_fract_x
 _atom_site_fract_y
 _atom_site_fract_z
 _atom_site_occupancy
  Sm  Sm0  1  0.66456800  0.64960400  0.64960400  1
  Sm  Sm1  1  0.34002500  0.35534100  0.35534100  1
  Cr  Cr0  1  0.09207300  0.09341900  0.09341900  1
  Fe  Fe0  1  0.85463500  0.34050600  0.34050600  1
  Fe  Fe1  1  0.34003000  0.34368100  0.85643000  1
  Fe  Fe2  1  0.34003000  0.85643000  0.34368100  1
  Fe  Fe3  1  0.14256200  0.65878100  0.65878100  1
  Fe  Fe4  1  0.66172800  0.65655500  0.14372100  1
  Fe  Fe5  1  0.66172800  0.14372100  0.65655500  1
  Fe  Fe6  1  0.28443600  0.71337800  0.99805400  1
  Fe  Fe7  1  0.71206400  0.00071600  0.28268200  1
  Fe  Fe8  1  0.00111400  0.28320400  0.71573500  1
  Fe  Fe9  1  0.28443600  0.99805400  0.71337800  1
  Fe  Fe10  1  0.00111400  0.71573500  0.28320400  1
  Fe  Fe11  1  0.71206400  0.28268200  0.00071600  1
  Fe  Fe12  1  0.00019400  0.00096600  0.49850100  1
  Fe  Fe13  1  0.00019400  0.49850100  0.00096600  1
  Fe  Fe14  1  0.49800900  0.00009300  0.00009300  1
  Fe  Fe15  1  0.90863700  0.90783400  0.90783400  1
  C  C0  1  0.50018100  0.50062300  0.00017600  1
  C  C1  1  0.50018100  0.00017600  0.50062300  1
loop_
_geom_bond_atom_site_label_1
_geom_bond_atom_site_label_2
_geom_bond_distance
_geom_bond_site_symmetry_2
Cr0 Fe15 2.312610 1_444
Cr0 Fe0 2.641141 1_455
Cr0 Fe13 2.641631 1_555
Cr0 Fe12 2.641631 1_555
Cr0 Fe14 2.655584 1_555
Cr0 Fe1 2.656741 1_554
Cr0 Fe2 2.656742 1_545
Cr0 Fe10 2.709445 1_545
Cr0 Fe8 2.709445 1_554
Cr0 Fe7 2.730278 1_455
Cr0 Fe11 2.730278 1_455
Cr0 Fe6 2.736841 1_544
Cr0 Fe9 2.736841 1_544
Cr0 Sm1 3.218830 1_555
Fe0 Fe12 2.452641 1_655
Fe0 Fe13 2.452641 1_655
Fe0 Fe5 2.564154 1_555
Fe0 Fe4 2.564154 1_555
Fe0 Fe7 2.574425 1_555
Fe0 Fe11 2.574425 1_555
Fe0 Fe10 2.689347 1_655
Fe0 Fe8 2.689347 1_655
Fe0 Sm0 3.060268 1_555
Fe0 Sm1 3.185959 1_655
Fe0 Sm1 3.330758 1_555
Fe1 Fe13 2.448830 1_556
Fe1 Fe14 2.469974 1_556
Fe1 Fe8 2.572817 1_555
Fe1 Fe3 2.576194 1_555
Fe2 Fe3 2.576194 1_555
Fe3 Fe9 2.563198 1_555
Fe3 Fe6 2.563198 1_555
Fe3 Fe8 2.677070 1_555
Fe3 Sm1 3.022739 1_555
Fe3 Sm0 3.127231 1_455
Fe3 Sm0 3.385654 1_555
Fe5 Fe8 2.569435 1_655
Fe8 Fe9 2.455017 1_545
Fe8 Sm1 3.055166 1_555
Fe8 Sm0 3.065851 1_455
Fe10 Fe13 2.441216 1_555
Fe10 Fe12 2.446964 1_565
Fe10 Fe6 2.455017 1_554
Fe10 Fe7 2.479120 1_465
Fe10 Fe4 2.569435 1_455
Fe10 Fe2 2.572817 1_555
Fe10 Fe3 2.677070 1_555
Fe10 Fe15 2.703889 1_454
Fe10 Sm1 3.055166 1_555
Fe10 Sm0 3.065851 1_455
Fe11 Fe14 2.431602 1_555
Fe11 Fe13 2.470153 1_655
Fe11 Fe8 2.479120 1_654
Fe12 Fe8 2.441216 1_555
Fe12 Fe9 2.442110 1_545
Fe12 Fe5 2.445301 1_455
Fe12 Fe2 2.448830 1_545
Fe12 Fe3 2.465060 1_545
Fe12 Fe7 2.470154 1_455
Fe12 Fe15 2.667968 1_445
Fe12 Sm0 3.329082 1_445
Fe12 Sm1 3.356048 1_555
Fe13 Fe6 2.442110 1_554
Fe13 Fe4 2.445301 1_455
Fe13 Fe8 2.446964 1_554
Fe13 Fe3 2.465060 1_554
Fe13 Fe15 2.667968 1_454
Fe13 Sm0 3.329082 1_454
Fe13 Sm1 3.356048 1_555
Fe14 Fe7 2.431602 1_555
Fe14 Fe6 2.453076 1_544
Fe14 Fe9 2.453076 1_544
Fe14 Fe2 2.469974 1_545
Fe14 Fe4 2.483138 1_545
Fe14 Fe5 2.483139 1_554
Fe14 Fe15 2.682512 1_544
Fe14 Sm0 3.404350 1_544
Fe14 Sm1 3.439897 1_555
Fe15 Fe3 2.646782 1_655
Fe15 Fe8 2.703889 1_665
C0 Fe6 1.850666 1_554
C0 Fe11 1.856361 1_555
C0 Fe1 1.923215 1_554
C0 Fe4 1.924192 1_555
C0 Sm0 2.532667 1_554
C0 Sm1 2.539384 1_555
C1 Fe9 1.850666 1_545
C1 Fe7 1.856361 1_555
C1 Fe2 1.923215 1_545
C1 Fe5 1.924192 1_555
C1 Sm0 2.532667 1_545
C1 Sm1 2.539384 1_555
