# generated using pymatgen
data_V(SiO3)2
_symmetry_space_group_name_H-M   'P 1'
_cell_length_a   5.36729661
_cell_length_b   9.32644151
_cell_length_c   8.73645488
_cell_angle_alpha   89.12615131
_cell_angle_beta   89.29494923
_cell_angle_gamma   103.37385433
_symmetry_Int_Tables_number   1
_chemical_formula_structural   V(SiO3)2
_chemical_formula_sum   'V4 Si8 O24'
_cell_volume   425.36203010
_cell_formula_units_Z   4
loop_
 _symmetry_equiv_pos_site_id
 _symmetry_equiv_pos_as_xyz
  1  'x, y, z'
loop_
 _atom_site_type_symbol
 _atom_site_label
 _atom_site_symmetry_multiplicity
 _atom_site_fract_x
 _atom_site_fract_y
 _atom_site_fract_z
 _atom_site_occupancy
  V  V0  1  0.00286700  0.74901700  0.64804700  1
  V  V1  1  0.98882900  0.25003000  0.35123100  1
  V  V2  1  0.50189000  0.24895400  0.14798800  1
  V  V3  1  0.48996200  0.75010100  0.85125200  1
  Si  Si0  1  0.29552800  0.04968500  0.83719100  1
  Si  Si1  1  0.79562600  0.54968100  0.33749800  1
  Si  Si2  1  0.19601000  0.44932700  0.66179600  1
  Si  Si3  1  0.69592300  0.94929400  0.16215700  1
  Si  Si4  1  0.69714700  0.45233500  0.83128500  1
  Si  Si5  1  0.19715900  0.95246500  0.33155500  1
  Si  Si6  1  0.79424000  0.04659300  0.66776200  1
  Si  Si7  1  0.29450000  0.54669200  0.16797300  1
  O  O0  1  0.92833300  0.38957100  0.75807800  1
  O  O1  1  0.42820700  0.88949800  0.25839300  1
  O  O2  1  0.56302600  0.10953000  0.74073800  1
  O  O3  1  0.06322000  0.60943000  0.24111800  1
  O  O4  1  0.42801200  0.39439200  0.74511100  1
  O  O5  1  0.92780100  0.89436800  0.24563400  1
  O  O6  1  0.06338300  0.10455600  0.75396300  1
  O  O7  1  0.56354700  0.60461600  0.25427700  1
  O  O8  1  0.32265900  0.11043200  0.00946900  1
  O  O9  1  0.82282600  0.61040900  0.50976200  1
  O  O10  1  0.16886600  0.38848900  0.48957400  1
  O  O11  1  0.66918300  0.88854100  0.98986400  1
  O  O12  1  0.65703100  0.38704500  0.00875600  1
  O  O13  1  0.15756400  0.88743800  0.50917500  1
  O  O14  1  0.83421100  0.11165100  0.49018500  1
  O  O15  1  0.33493700  0.61200900  0.99052600  1
  O  O16  1  0.27486400  0.13561000  0.31998400  1
  O  O17  1  0.77526400  0.63555000  0.81996200  1
  O  O18  1  0.21646600  0.36349100  0.17923200  1
  O  O19  1  0.71662800  0.86343000  0.67919600  1
  O  O20  1  0.73081800  0.36576000  0.32100300  1
  O  O21  1  0.23145600  0.86577200  0.82087400  1
  O  O22  1  0.76028800  0.13322200  0.17843400  1
  O  O23  1  0.26091000  0.63325900  0.67822800  1
loop_
_geom_bond_atom_site_label_1
_geom_bond_atom_site_label_2
_geom_bond_distance
_geom_bond_site_symmetry_2
O0 Si4 1.618424 1_555
O0 Si2 1.633345 1_655
O1 Si5 1.618677 1_555
O1 Si3 1.633360 1_555
O2 Si6 1.618643 1_555
O2 Si0 1.633437 1_555
O3 Si7 1.618507 1_555
O3 Si1 1.633411 1_455
O4 Si4 1.619733 1_555
O4 Si2 1.627562 1_555
O5 Si5 1.619847 1_655
O5 Si3 1.627600 1_555
O6 Si6 1.619907 1_455
O6 Si0 1.627577 1_555
O7 Si7 1.619868 1_555
O7 Si1 1.627540 1_555
O8 Si0 1.612684 1_554
O8 V2 1.886895 1_555
O9 Si1 1.612515 1_555
O9 V0 1.887580 1_655
O10 Si2 1.612518 1_555
O10 V1 1.887105 1_455
O11 Si3 1.612784 1_556
O11 V3 1.886970 1_555
O12 Si4 1.650282 1_554
O12 V2 1.806334 1_555
O13 Si5 1.650610 1_555
O13 V0 1.805425 1_555
O14 Si6 1.650419 1_555
O14 V1 1.805539 1_555
O15 Si7 1.650227 1_556
O15 V3 1.806402 1_555
O16 Si5 1.663093 1_545
O16 V2 2.042243 1_555
O16 V1 2.080072 1_455
O17 Si4 1.663664 1_555
O17 V0 2.043606 1_655
O17 V3 2.077596 1_555
O18 Si7 1.663509 1_555
O18 V1 2.044199 1_455
O18 V2 2.078014 1_555
O19 Si6 1.663200 1_565
O19 V3 2.041666 1_555
O19 V0 2.080852 1_655
O20 Si1 1.678352 1_555
O20 V1 1.960672 1_555
O20 V2 2.111392 1_555
O21 Si0 1.678234 1_565
O21 V3 1.962678 1_555
O21 V0 2.109147 1_555
O22 Si3 1.678287 1_545
O22 V2 1.962679 1_555
O22 V1 2.109029 1_555
O23 Si2 1.678381 1_555
O23 V0 1.960946 1_555
O23 V3 2.111895 1_555
