# generated using pymatgen
data_NaNdMgWO6
_symmetry_space_group_name_H-M   'P 1'
_cell_length_a   5.58947900
_cell_length_b   5.54172200
_cell_length_c   7.94904359
_cell_angle_alpha   89.93202964
_cell_angle_beta   90.00000000
_cell_angle_gamma   90.00000000
_symmetry_Int_Tables_number   1
_chemical_formula_structural   NaNdMgWO6
_chemical_formula_sum   'Na2 Nd2 Mg2 W2 O12'
_cell_volume   246.22414473
_cell_formula_units_Z   2
loop_
 _symmetry_equiv_pos_site_id
 _symmetry_equiv_pos_as_xyz
  1  'x, y, z'
loop_
 _atom_site_type_symbol
 _atom_site_label
 _atom_site_symmetry_multiplicity
 _atom_site_fract_x
 _atom_site_fract_y
 _atom_site_fract_z
 _atom_site_occupancy
  Na  Na0  1  0.49939200  0.74708300  0.50083400  1
  Na  Na1  1  0.99939200  0.25291700  0.49916600  1
  Nd  Nd0  1  0.44332800  0.75794600  0.00091300  1
  Nd  Nd1  1  0.94332800  0.24205400  0.99908700  1
  Mg  Mg0  1  0.98120300  0.74948200  0.74287700  1
  Mg  Mg1  1  0.48120300  0.25051800  0.25712300  1
  W  W0  1  0.98500700  0.74620700  0.26255700  1
  W  W1  1  0.48500700  0.25379300  0.73744300  1
  O  O0  1  0.27297400  0.55925100  0.27956000  1
  O  O1  1  0.77297400  0.44074900  0.72044000  1
  O  O2  1  0.00495300  0.66608100  0.00605600  1
  O  O3  1  0.50495300  0.33391900  0.99394400  1
  O  O4  1  0.96447200  0.82869300  0.48871100  1
  O  O5  1  0.46447200  0.17130700  0.51128900  1
  O  O6  1  0.69757900  0.97698600  0.80608800  1
  O  O7  1  0.19757900  0.02301400  0.19391200  1
  O  O8  1  0.71798200  0.96388400  0.19381300  1
  O  O9  1  0.21798200  0.03611600  0.80618700  1
  O  O10  1  0.78471100  0.47067600  0.27627500  1
  O  O11  1  0.28471100  0.52932400  0.72372500  1
loop_
_geom_bond_atom_site_label_1
_geom_bond_atom_site_label_2
_geom_bond_distance
_geom_bond_site_symmetry_2
Na0 O5 2.360582 1_565
Na0 O0 2.404843 1_555
Na0 O11 2.455658 1_555
Na0 O4 2.640342 1_555
Na0 O10 2.842970 1_555
Na0 O1 2.874124 1_555
Na0 O6 2.957277 1_555
Na0 O8 2.980853 1_555
Na0 O4 3.025453 1_455
Na1 O4 2.360582 1_545
Na1 O1 2.404843 1_555
Na1 O10 2.455658 1_555
Na1 O5 2.640342 1_655
Na1 O11 2.842970 1_655
Na1 O0 2.874124 1_655
Na1 O7 2.957277 1_655
Na1 O9 2.980853 1_655
Na1 O5 3.025453 1_555
Nd0 O3 2.375662 1_554
Nd0 O6 2.426312 1_554
Nd0 O8 2.452465 1_555
Nd0 O2 2.502939 1_555
Nd0 O9 2.520544 1_564
Nd0 O7 2.530524 1_565
Nd0 O0 2.649425 1_555
Nd0 O11 2.693089 1_554
Nd1 O2 2.375662 1_656
Nd1 O7 2.426312 1_656
Nd1 O9 2.452465 1_655
Nd1 O3 2.502939 1_555
Nd1 O8 2.520544 1_546
Nd1 O6 2.530524 1_545
Nd1 O1 2.649425 1_555
Nd1 O10 2.693089 1_556
Mg0 O4 2.069119 1_555
Mg0 O1 2.077113 1_555
Mg0 O6 2.087274 1_555
Mg0 O11 2.095256 1_655
Mg0 O9 2.128356 1_665
Mg0 O2 2.146042 1_656
Mg1 O5 2.069119 1_555
Mg1 O0 2.077113 1_555
Mg1 O7 2.087274 1_555
Mg1 O10 2.095256 1_555
Mg1 O8 2.128356 1_545
Mg1 O3 2.146042 1_554
O0 W0 1.918884 1_455
O1 W1 1.918884 1_555
O2 W0 2.090218 1_455
O3 W1 2.090218 1_555
O4 W0 1.858987 1_555
O5 W1 1.858987 1_555
O6 W1 2.015098 1_565
O7 W0 2.015098 1_445
O8 W0 1.994959 1_555
O9 W1 1.994959 1_555
O10 W0 1.896408 1_555
O11 W1 1.896408 1_555
