# generated using pymatgen
data_CdHgSBr
_symmetry_space_group_name_H-M   'P 1'
_cell_length_a   10.43794424
_cell_length_b   10.43794424
_cell_length_c   5.58397600
_cell_angle_alpha   90.00000000
_cell_angle_beta   90.00000000
_cell_angle_gamma   127.27225607
_symmetry_Int_Tables_number   1
_chemical_formula_structural   CdHgSBr
_chemical_formula_sum   'Cd4 Hg4 S4 Br4'
_cell_volume   484.12701321
_cell_formula_units_Z   4
loop_
 _symmetry_equiv_pos_site_id
 _symmetry_equiv_pos_as_xyz
  1  'x, y, z'
loop_
 _atom_site_type_symbol
 _atom_site_label
 _atom_site_symmetry_multiplicity
 _atom_site_fract_x
 _atom_site_fract_y
 _atom_site_fract_z
 _atom_site_occupancy
  Cd  Cd0  1  0.57834100  0.85126200  0.00000000  1
  Cd  Cd1  1  0.42165900  0.14873800  0.00000000  1
  Cd  Cd2  1  0.85126200  0.57834100  0.00000000  1
  Cd  Cd3  1  0.14873800  0.42165900  0.00000000  1
  Hg  Hg0  1  0.73111900  0.73111900  0.50000000  1
  Hg  Hg1  1  0.26888100  0.26888100  0.50000000  1
  Hg  Hg2  1  0.85507500  0.14492500  0.50000000  1
  Hg  Hg3  1  0.14492500  0.85507500  0.50000000  1
  S  S0  1  0.61121500  0.86841500  0.50000000  1
  S  S1  1  0.38878500  0.13158500  0.50000000  1
  S  S2  1  0.86841500  0.61121500  0.50000000  1
  S  S3  1  0.13158500  0.38878500  0.50000000  1
  Br  Br0  1  0.75764300  0.24235700  0.00000000  1
  Br  Br1  1  0.24235700  0.75764300  0.00000000  1
  Br  Br2  1  0.50000000  0.50000000  0.00000000  1
  Br  Br3  1  0.00000000  0.00000000  0.00000000  1
loop_
_geom_bond_atom_site_label_1
_geom_bond_atom_site_label_2
_geom_bond_distance
_geom_bond_site_symmetry_2
Cd0 S0 2.805456 1_555
Cd0 S0 2.805456 1_554
Cd1 S1 2.805456 1_554
Cd1 S1 2.805456 1_555
Cd2 S2 2.805456 1_555
Cd2 S2 2.805456 1_554
Cd3 S3 2.805456 1_555
Cd3 S3 2.805456 1_554
Hg0 S2 2.406766 1_555
Hg0 S0 2.406766 1_555
Hg1 S3 2.406766 1_555
Hg1 S1 2.406766 1_555
Hg2 S0 2.431261 1_545
Hg2 S3 2.431261 1_655
Hg3 S2 2.431261 1_455
Hg3 S1 2.431261 1_565
Br0 Cd1 3.017124 1_555
Br0 Cd2 3.017124 1_555
Br0 Cd0 3.303568 1_545
Br0 Cd3 3.303568 1_655
Br1 Cd3 3.017124 1_555
Br1 Cd0 3.017124 1_555
Br1 Cd2 3.303568 1_455
Br1 Cd1 3.303568 1_565
Br2 Cd0 3.237312 1_555
Br2 Cd1 3.237312 1_555
Br2 Cd2 3.237312 1_555
Br2 Cd3 3.237312 1_555
