# generated using pymatgen
data_Ca2ScNbO6
_symmetry_space_group_name_H-M   'P 1'
_cell_length_a   5.72741900
_cell_length_b   5.53555100
_cell_length_c   9.68518090
_cell_angle_alpha   55.11293410
_cell_angle_beta   90.00000000
_cell_angle_gamma   90.00000000
_symmetry_Int_Tables_number   1
_chemical_formula_structural   Ca2ScNbO6
_chemical_formula_sum   'Ca4 Sc2 Nb2 O12'
_cell_volume   251.87798378
_cell_formula_units_Z   2
loop_
 _symmetry_equiv_pos_site_id
 _symmetry_equiv_pos_as_xyz
  1  'x, y, z'
loop_
 _atom_site_type_symbol
 _atom_site_label
 _atom_site_symmetry_multiplicity
 _atom_site_fract_x
 _atom_site_fract_y
 _atom_site_fract_z
 _atom_site_occupancy
  Ca  Ca0  1  0.44722100  0.23570800  0.75079600  1
  Ca  Ca1  1  0.55277900  0.76429200  0.24920400  1
  Ca  Ca2  1  0.94722100  0.76429200  0.74920400  1
  Ca  Ca3  1  0.05277900  0.23570800  0.25079600  1
  Sc  Sc0  1  0.00000000  0.00000000  0.00000000  1
  Sc  Sc1  1  0.50000000  0.00000000  0.50000000  1
  Nb  Nb0  1  0.00000000  0.50000000  0.50000000  1
  Nb  Nb1  1  0.50000000  0.50000000  0.00000000  1
  O  O0  1  0.03336500  0.35558400  0.74352600  1
  O  O1  1  0.96663500  0.64441600  0.25647400  1
  O  O2  1  0.53336500  0.64441600  0.75647400  1
  O  O3  1  0.46663500  0.35558400  0.24352600  1
  O  O4  1  0.69654300  0.84407400  0.94891800  1
  O  O5  1  0.30345700  0.15592600  0.05108200  1
  O  O6  1  0.19654300  0.15592600  0.55108200  1
  O  O7  1  0.80345700  0.84407400  0.44891800  1
  O  O8  1  0.20913300  0.74862000  0.94574100  1
  O  O9  1  0.79086700  0.25138000  0.05425900  1
  O  O10  1  0.70913300  0.25138000  0.55425900  1
  O  O11  1  0.29086700  0.74862000  0.44574100  1
loop_
_geom_bond_atom_site_label_1
_geom_bond_atom_site_label_2
_geom_bond_distance
_geom_bond_site_symmetry_2
Ca0 O2 2.346771 1_555
Ca0 O4 2.379564 1_545
Ca0 O10 2.385825 1_555
Ca0 O0 2.451591 1_555
Ca0 O8 2.621232 1_545
Ca0 O6 2.641015 1_555
Ca0 O5 2.803943 1_556
Ca0 O11 2.827811 1_555
Ca1 O3 2.346771 1_555
Ca1 O5 2.379564 1_565
Ca1 O11 2.385825 1_555
Ca1 O1 2.451591 1_555
Ca1 O9 2.621232 1_565
Ca1 O7 2.641015 1_555
Ca1 O4 2.803943 1_554
Ca1 O10 2.827811 1_555
Ca2 O0 2.346771 1_655
Ca2 O6 2.379564 1_665
Ca2 O8 2.385825 1_655
Ca2 O2 2.451591 1_555
Ca2 O10 2.621232 1_565
Ca2 O4 2.641015 1_555
Ca2 O7 2.803943 1_555
Ca2 O9 2.827811 1_556
Ca3 O1 2.346771 1_455
Ca3 O7 2.379564 1_445
Ca3 O9 2.385825 1_455
Ca3 O3 2.451591 1_555
Ca3 O11 2.621232 1_545
Ca3 O5 2.641015 1_555
Ca3 O6 2.803943 1_555
Ca3 O8 2.827811 1_554
Nb0 O7 2.015358 1_455
Nb0 O6 2.015358 1_555
Nb0 O0 2.020316 1_555
Nb0 O1 2.020316 1_455
Nb0 O11 2.029330 1_555
Nb0 O10 2.029330 1_455
Nb1 O5 2.015358 1_555
Nb1 O4 2.015358 1_554
Nb1 O3 2.020316 1_555
Nb1 O2 2.020316 1_554
Nb1 O9 2.029330 1_555
Nb1 O8 2.029330 1_554
O0 Sc0 2.118514 1_556
O1 Sc0 2.118514 1_665
O2 Sc1 2.118514 1_565
O3 Sc1 2.118514 1_555
O4 Sc0 2.121082 1_666
O5 Sc0 2.121082 1_555
O6 Sc1 2.121082 1_555
O7 Sc1 2.121082 1_565
O8 Sc0 2.117478 1_566
O9 Sc0 2.117478 1_655
O10 Sc1 2.117478 1_555
O11 Sc1 2.117478 1_565
