# generated using pymatgen
data_Sr2NbFeO6
_symmetry_space_group_name_H-M   'P 1'
_cell_length_a   5.69011655
_cell_length_b   5.69011655
_cell_length_c   9.85557097
_cell_angle_alpha   73.22134512
_cell_angle_beta   73.22134512
_cell_angle_gamma   60.00000000
_symmetry_Int_Tables_number   1
_chemical_formula_structural   Sr2NbFeO6
_chemical_formula_sum   'Sr4 Nb2 Fe2 O12'
_cell_volume   260.54244518
_cell_formula_units_Z   2
loop_
 _symmetry_equiv_pos_site_id
 _symmetry_equiv_pos_as_xyz
  1  'x, y, z'
loop_
 _atom_site_type_symbol
 _atom_site_label
 _atom_site_symmetry_multiplicity
 _atom_site_fract_x
 _atom_site_fract_y
 _atom_site_fract_z
 _atom_site_occupancy
  Sr  Sr0  1  0.25000000  0.25000000  0.25000000  1
  Sr  Sr1  1  0.75000000  0.75000000  0.75000000  1
  Sr  Sr2  1  0.00000000  0.00000000  0.00000000  1
  Sr  Sr3  1  0.50000000  0.50000000  0.50000000  1
  Nb  Nb0  1  0.62500000  0.62500000  0.12500000  1
  Nb  Nb1  1  0.12500000  0.12500000  0.62500000  1
  Fe  Fe0  1  0.37500000  0.37500000  0.87500000  1
  Fe  Fe1  1  0.87500000  0.87500000  0.37500000  1
  O  O0  1  0.25113600  0.74962100  0.24962100  1
  O  O1  1  0.75113600  0.24962100  0.74962100  1
  O  O2  1  0.99886400  0.50037900  0.00037900  1
  O  O3  1  0.49886400  0.00037900  0.50037900  1
  O  O4  1  0.50037900  0.50037900  0.00037900  1
  O  O5  1  0.00037900  0.00037900  0.50037900  1
  O  O6  1  0.74962100  0.74962100  0.24962100  1
  O  O7  1  0.24962100  0.24962100  0.74962100  1
  O  O8  1  0.74962100  0.25113600  0.24962100  1
  O  O9  1  0.24962100  0.75113600  0.74962100  1
  O  O10  1  0.50037900  0.99886400  0.00037900  1
  O  O11  1  0.00037900  0.49886400  0.50037900  1
loop_
_geom_bond_atom_site_label_1
_geom_bond_atom_site_label_2
_geom_bond_distance
_geom_bond_site_symmetry_2
Nb0 O4 2.005660 1_555
Nb0 O6 2.005660 1_555
Nb0 O8 2.005664 1_555
Nb0 O2 2.005664 1_555
Nb0 O10 2.005664 1_555
Nb0 O0 2.005664 1_555
Nb1 O5 2.005660 1_555
Nb1 O7 2.005660 1_555
Nb1 O9 2.005664 1_545
Nb1 O11 2.005664 1_555
Nb1 O3 2.005664 1_555
Nb1 O1 2.005664 1_455
Fe0 O10 2.017856 1_546
Fe0 O2 2.017856 1_456
Fe0 O1 2.017856 1_555
Fe0 O9 2.017856 1_555
Fe0 O4 2.017860 1_556
Fe0 O7 2.017860 1_555
Fe1 O0 2.017856 1_655
Fe1 O11 2.017856 1_655
Fe1 O8 2.017856 1_565
Fe1 O3 2.017856 1_565
Fe1 O5 2.017860 1_665
Fe1 O6 2.017860 1_555
O0 Sr2 2.845062 1_565
O0 Sr0 2.845062 1_555
O0 Sr0 2.845068 1_565
O0 Sr3 2.845068 1_555
O1 Sr1 2.845062 1_545
O1 Sr3 2.845062 1_555
O1 Sr1 2.845068 1_555
O1 Sr2 2.845068 1_656
O2 Sr0 2.845062 1_655
O2 Sr2 2.845062 1_665
O2 Sr2 2.845068 1_655
O2 Sr1 2.845068 1_554
O3 Sr1 2.845062 1_545
O3 Sr3 2.845062 1_555
O3 Sr3 2.845068 1_545
O3 Sr0 2.845068 1_555
O4 Sr2 2.845065 1_655
O4 Sr2 2.845065 1_565
O4 Sr0 2.845065 1_555
O4 Sr1 2.845065 1_554
O5 Sr3 2.845065 1_545
O5 Sr1 2.845065 1_445
O5 Sr3 2.845065 1_455
O5 Sr0 2.845065 1_555
O6 Sr0 2.845065 1_565
O6 Sr0 2.845065 1_655
O6 Sr3 2.845065 1_555
O6 Sr2 2.845065 1_665
O7 Sr2 2.845065 1_556
O7 Sr3 2.845065 1_555
O7 Sr1 2.845065 1_545
O7 Sr1 2.845065 1_455
O8 Sr2 2.845062 1_655
O8 Sr0 2.845062 1_555
O8 Sr0 2.845068 1_655
O8 Sr3 2.845068 1_555
O9 Sr3 2.845062 1_555
O9 Sr1 2.845062 1_455
O9 Sr1 2.845068 1_555
O9 Sr2 2.845068 1_566
O10 Sr0 2.845062 1_565
O10 Sr2 2.845062 1_665
O10 Sr2 2.845068 1_565
O10 Sr1 2.845068 1_554
O11 Sr3 2.845062 1_555
O11 Sr1 2.845062 1_455
O11 Sr3 2.845068 1_455
O11 Sr0 2.845068 1_555
