# generated using pymatgen
data_Mn3Co2(PO5)4
_symmetry_space_group_name_H-M   'P 1'
_cell_length_a   9.65189454
_cell_length_b   9.65189454
_cell_length_c   9.31313445
_cell_angle_alpha   82.39699758
_cell_angle_beta   82.39699758
_cell_angle_gamma   55.98535722
_symmetry_Int_Tables_number   1
_chemical_formula_structural   Mn3Co2(PO5)4
_chemical_formula_sum   'Mn6 Co4 P8 O40'
_cell_volume   711.03256643
_cell_formula_units_Z   2
loop_
 _symmetry_equiv_pos_site_id
 _symmetry_equiv_pos_as_xyz
  1  'x, y, z'
loop_
 _atom_site_type_symbol
 _atom_site_label
 _atom_site_symmetry_multiplicity
 _atom_site_fract_x
 _atom_site_fract_y
 _atom_site_fract_z
 _atom_site_occupancy
  Mn  Mn0  1  0.65733500  0.69853400  0.10515200  1
  Mn  Mn1  1  0.34266500  0.30146600  0.89484800  1
  Mn  Mn2  1  0.30146600  0.34266500  0.39484800  1
  Mn  Mn3  1  0.69853400  0.65733500  0.60515200  1
  Mn  Mn4  1  0.60484000  0.39516000  0.25000000  1
  Mn  Mn5  1  0.39516000  0.60484000  0.75000000  1
  Co  Co0  1  0.24808600  0.12251600  0.18974800  1
  Co  Co1  1  0.75191400  0.87748400  0.81025200  1
  Co  Co2  1  0.87748400  0.75191400  0.31025200  1
  Co  Co3  1  0.12251600  0.24808600  0.68974800  1
  P  P0  1  0.58783600  0.09787700  0.14888000  1
  P  P1  1  0.41216400  0.90212300  0.85112000  1
  P  P2  1  0.90212300  0.41216400  0.35112000  1
  P  P3  1  0.09787700  0.58783600  0.64888000  1
  P  P4  1  0.39297200  0.76527700  0.37678200  1
  P  P5  1  0.60702800  0.23472300  0.62321800  1
  P  P6  1  0.23472300  0.60702800  0.12321800  1
  P  P7  1  0.76527700  0.39297200  0.87678200  1
  O  O0  1  0.52891100  0.29614500  0.47399100  1
  O  O1  1  0.47108900  0.70385500  0.52600900  1
  O  O2  1  0.70385500  0.47108900  0.02600900  1
  O  O3  1  0.29614500  0.52891100  0.97399100  1
  O  O4  1  0.91712200  0.88905900  0.34201900  1
  O  O5  1  0.08287800  0.11094100  0.65798100  1
  O  O6  1  0.11094100  0.08287800  0.15798100  1
  O  O7  1  0.88905900  0.91712200  0.84201900  1
  O  O8  1  0.53008300  0.63261300  0.26243700  1
  O  O9  1  0.46991700  0.36738700  0.73756300  1
  O  O10  1  0.36738700  0.46991700  0.23756300  1
  O  O11  1  0.63261300  0.53008300  0.76243700  1
  O  O12  1  0.72834100  0.79794300  0.46067700  1
  O  O13  1  0.27165900  0.20205700  0.53932300  1
  O  O14  1  0.20205700  0.27165900  0.03932300  1
  O  O15  1  0.79794300  0.72834100  0.96067700  1
  O  O16  1  0.37736400  0.93048000  0.31703200  1
  O  O17  1  0.62263600  0.06952000  0.68296800  1
  O  O18  1  0.06952000  0.62263600  0.18296800  1
  O  O19  1  0.93048000  0.37736400  0.81703200  1
  O  O20  1  0.67567800  0.17963500  0.18576000  1
  O  O21  1  0.32432200  0.82036500  0.81424000  1
  O  O22  1  0.82036500  0.32432200  0.31424000  1
  O  O23  1  0.17963500  0.67567800  0.68576000  1
  O  O24  1  0.23246400  0.76651500  0.11470600  1
  O  O25  1  0.76753600  0.23348500  0.88529400  1
  O  O26  1  0.23348500  0.76753600  0.38529400  1
  O  O27  1  0.76651500  0.23246400  0.61470600  1
  O  O28  1  0.45522300  0.87198500  0.01200200  1
  O  O29  1  0.54477700  0.12801500  0.98799800  1
  O  O30  1  0.12801500  0.54477700  0.48799800  1
  O  O31  1  0.87198500  0.45522300  0.51200200  1
  O  O32  1  0.69816500  0.90559700  0.17680000  1
  O  O33  1  0.30183500  0.09440300  0.82320000  1
  O  O34  1  0.09440300  0.30183500  0.32320000  1
  O  O35  1  0.90559700  0.69816500  0.67680000  1
  O  O36  1  0.41597500  0.16975000  0.24357000  1
  O  O37  1  0.58402500  0.83025000  0.75643000  1
  O  O38  1  0.83025000  0.58402500  0.25643000  1
  O  O39  1  0.16975000  0.41597500  0.74357000  1
loop_
_geom_bond_atom_site_label_1
_geom_bond_atom_site_label_2
_geom_bond_distance
_geom_bond_site_symmetry_2
Mn0 O15 1.893722 1_554
Mn0 O28 1.941762 1_555
Mn0 O38 2.034282 1_555
Mn0 O8 2.051990 1_555
Mn0 O2 2.191324 1_555
Mn0 O32 2.428662 1_555
Mn1 O14 1.893722 1_556
Mn1 O29 1.941762 1_555
Mn1 O39 2.034282 1_555
Mn1 O9 2.051990 1_555
Mn1 O3 2.191324 1_555
Mn1 O33 2.428662 1_555
Mn2 O13 1.893722 1_555
Mn2 O30 1.941762 1_555
Mn2 O36 2.034282 1_555
Mn2 O10 2.051990 1_555
Mn2 O0 2.191324 1_555
Mn2 O34 2.428662 1_555
Mn3 O12 1.893722 1_555
Mn3 O31 1.941762 1_555
Mn3 O37 2.034282 1_555
Mn3 O11 2.051990 1_555
Mn3 O1 2.191324 1_555
Mn3 O35 2.428662 1_555
Mn4 O22 1.944879 1_555
Mn4 O20 1.944879 1_555
Mn4 O8 1.996167 1_555
Mn4 O10 1.996167 1_555
Mn4 O0 2.377721 1_555
Mn4 O2 2.377721 1_555
Mn5 O21 1.944879 1_555
Mn5 O23 1.944879 1_555
Mn5 O11 1.996167 1_555
Mn5 O9 1.996167 1_555
Mn5 O3 2.377721 1_555
Mn5 O1 2.377721 1_555
Co0 O6 1.638987 1_555
Co0 O14 1.774180 1_555
Co0 O16 1.902656 1_545
Co0 O34 1.987354 1_555
Co0 O36 2.046186 1_555
Co1 O7 1.638987 1_555
Co1 O15 1.774180 1_555
Co1 O17 1.902656 1_565
Co1 O35 1.987354 1_555
Co1 O37 2.046186 1_555
Co2 O4 1.638987 1_555
Co2 O12 1.774180 1_555
Co2 O18 1.902656 1_655
Co2 O32 1.987354 1_555
Co2 O38 2.046186 1_555
Co3 O5 1.638987 1_555
Co3 O13 1.774180 1_555
Co3 O19 1.902656 1_455
Co3 O33 1.987354 1_555
Co3 O39 2.046186 1_555
O0 P5 1.552601 1_555
O1 P4 1.552601 1_555
O2 P7 1.552601 1_554
O3 P6 1.552601 1_556
O8 P4 1.617711 1_555
O9 P5 1.617711 1_555
O10 P6 1.617711 1_555
O11 P7 1.617711 1_555
O16 P4 1.547089 1_555
O17 P5 1.547089 1_555
O18 P6 1.547089 1_555
O19 P7 1.547089 1_555
O20 P0 1.535198 1_555
O21 P1 1.535198 1_555
O22 P2 1.535198 1_555
O23 P3 1.535198 1_555
O24 P6 1.518874 1_555
O25 P7 1.518874 1_555
O26 P4 1.518874 1_555
O27 P5 1.518874 1_555
O28 P1 1.554503 1_554
O29 P0 1.554503 1_556
O30 P3 1.554503 1_555
O31 P2 1.554503 1_555
O32 P0 1.542829 1_565
O33 P1 1.542829 1_545
O34 P2 1.542829 1_455
O35 P3 1.542829 1_655
O36 P0 1.580456 1_555
O37 P1 1.580456 1_555
O38 P2 1.580456 1_555
O39 P3 1.580456 1_555
