# generated using pymatgen
data_DyMoO5
_symmetry_space_group_name_H-M   'P 1'
_cell_length_a   12.60497000
_cell_length_b   5.36064100
_cell_length_c   6.94249589
_cell_angle_alpha   63.07125370
_cell_angle_beta   90.00000000
_cell_angle_gamma   90.00000000
_symmetry_Int_Tables_number   1
_chemical_formula_structural   DyMoO5
_chemical_formula_sum   'Dy4 Mo4 O20'
_cell_volume   418.24410100
_cell_formula_units_Z   4
loop_
 _symmetry_equiv_pos_site_id
 _symmetry_equiv_pos_as_xyz
  1  'x, y, z'
loop_
 _atom_site_type_symbol
 _atom_site_label
 _atom_site_symmetry_multiplicity
 _atom_site_fract_x
 _atom_site_fract_y
 _atom_site_fract_z
 _atom_site_occupancy
  Dy  Dy0  1  0.05809800  0.65780000  0.71478900  1
  Dy  Dy1  1  0.94190200  0.34220000  0.28521100  1
  Dy  Dy2  1  0.55809800  0.34220000  0.78521100  1
  Dy  Dy3  1  0.44190200  0.65780000  0.21478900  1
  Mo  Mo0  1  0.36354900  0.91491600  0.64465700  1
  Mo  Mo1  1  0.63645100  0.08508400  0.35534300  1
  Mo  Mo2  1  0.86354900  0.08508400  0.85534300  1
  Mo  Mo3  1  0.13645100  0.91491600  0.14465700  1
  O  O0  1  0.44410000  0.45811100  0.98645500  1
  O  O1  1  0.55590000  0.54188900  0.01354500  1
  O  O2  1  0.94410000  0.54188900  0.51354500  1
  O  O3  1  0.05590000  0.45811100  0.48645500  1
  O  O4  1  0.92440800  0.98555000  0.65805200  1
  O  O5  1  0.07559200  0.01445000  0.34194800  1
  O  O6  1  0.42440800  0.01445000  0.84194800  1
  O  O7  1  0.57559200  0.98555000  0.15805200  1
  O  O8  1  0.43956900  0.70189500  0.54199000  1
  O  O9  1  0.56043100  0.29810500  0.45801000  1
  O  O10  1  0.93956900  0.29810500  0.95801000  1
  O  O11  1  0.06043100  0.70189500  0.04199000  1
  O  O12  1  0.23353600  0.78248800  0.72612500  1
  O  O13  1  0.76646400  0.21751200  0.27387500  1
  O  O14  1  0.73353600  0.21751200  0.77387500  1
  O  O15  1  0.26646400  0.78248800  0.22612500  1
  O  O16  1  0.65543200  0.76267000  0.58594100  1
  O  O17  1  0.34456800  0.23733000  0.41405900  1
  O  O18  1  0.15543200  0.23733000  0.91405900  1
  O  O19  1  0.84456800  0.76267000  0.08594100  1
loop_
_geom_bond_atom_site_label_1
_geom_bond_atom_site_label_2
_geom_bond_distance
_geom_bond_site_symmetry_2
Dy0 O2 2.277978 1_455
Dy0 O3 2.279590 1_555
Dy0 O12 2.321822 1_555
Dy0 O4 2.335583 1_455
Dy0 O18 2.382273 1_555
Dy0 O11 2.388142 1_556
Dy0 O10 2.419157 1_455
Dy0 O5 2.433416 1_565
Dy1 O3 2.277978 1_655
Dy1 O2 2.279590 1_555
Dy1 O13 2.321822 1_555
Dy1 O5 2.335583 1_655
Dy1 O19 2.382273 1_555
Dy1 O10 2.388142 1_554
Dy1 O11 2.419157 1_655
Dy1 O4 2.433416 1_545
Dy2 O0 2.277978 1_555
Dy2 O1 2.279590 1_556
Dy2 O14 2.321822 1_555
Dy2 O6 2.335583 1_555
Dy2 O16 2.382273 1_555
Dy2 O9 2.388142 1_555
Dy2 O8 2.419157 1_555
Dy2 O7 2.433416 1_546
Dy3 O1 2.277978 1_555
Dy3 O0 2.279590 1_554
Dy3 O15 2.321822 1_555
Dy3 O7 2.335583 1_555
Dy3 O17 2.382273 1_555
Dy3 O8 2.388142 1_555
Dy3 O9 2.419157 1_555
Dy3 O6 2.433416 1_564
Mo0 O17 1.761016 1_565
Mo0 O12 1.773661 1_555
Mo0 O6 1.846939 1_565
Mo0 O8 1.862114 1_555
Mo0 O0 2.719377 1_555
Mo1 O16 1.761016 1_545
Mo1 O13 1.773661 1_555
Mo1 O7 1.846939 1_545
Mo1 O9 1.862114 1_555
Mo1 O1 2.719377 1_555
Mo2 O19 1.761016 1_546
Mo2 O14 1.773661 1_555
Mo2 O4 1.846939 1_545
Mo2 O10 1.862114 1_555
Mo2 O2 2.719377 1_555
Mo3 O18 1.761016 1_564
Mo3 O15 1.773661 1_555
Mo3 O5 1.846939 1_565
Mo3 O11 1.862114 1_555
Mo3 O3 2.719377 1_555
O0 O1 1.516415 1_556
O2 O3 1.516415 1_655
