# generated using pymatgen
data_Pr23Mg4Pt7
_symmetry_space_group_name_H-M   'P 1'
_cell_length_a   10.22769297
_cell_length_b   10.22769297
_cell_length_c   23.10771016
_cell_angle_alpha   90.00000000
_cell_angle_beta   90.00000000
_cell_angle_gamma   120.00000229
_symmetry_Int_Tables_number   1
_chemical_formula_structural   Pr23Mg4Pt7
_chemical_formula_sum   'Pr46 Mg8 Pt14'
_cell_volume   2093.35506751
_cell_formula_units_Z   2
loop_
 _symmetry_equiv_pos_site_id
 _symmetry_equiv_pos_as_xyz
  1  'x, y, z'
loop_
 _atom_site_type_symbol
 _atom_site_label
 _atom_site_symmetry_multiplicity
 _atom_site_fract_x
 _atom_site_fract_y
 _atom_site_fract_z
 _atom_site_occupancy
  Pr  Pr0  1  0.20600876  0.41201751  0.72023471  1
  Pr  Pr1  1  0.20600876  0.79399124  0.72023471  1
  Pr  Pr2  1  0.79399124  0.58798249  0.22023471  1
  Pr  Pr3  1  0.58798249  0.79399124  0.72023471  1
  Pr  Pr4  1  0.79399124  0.20600876  0.22023471  1
  Pr  Pr5  1  0.41201751  0.20600876  0.22023471  1
  Pr  Pr6  1  0.79363401  0.58726802  0.94603498  1
  Pr  Pr7  1  0.79363401  0.20636599  0.94603498  1
  Pr  Pr8  1  0.20636599  0.41273198  0.44603498  1
  Pr  Pr9  1  0.41273198  0.20636599  0.94603498  1
  Pr  Pr10  1  0.20636599  0.79363401  0.44603498  1
  Pr  Pr11  1  0.58726802  0.79363401  0.44603498  1
  Pr  Pr12  1  0.21182838  0.42365676  0.99026524  1
  Pr  Pr13  1  0.21182838  0.78817162  0.99026524  1
  Pr  Pr14  1  0.78817162  0.57634324  0.49026524  1
  Pr  Pr15  1  0.57634324  0.78817162  0.99026524  1
  Pr  Pr16  1  0.78817162  0.21182838  0.49026524  1
  Pr  Pr17  1  0.42365676  0.21182838  0.49026524  1
  Pr  Pr18  1  0.87075755  0.74151510  0.63523282  1
  Pr  Pr19  1  0.87075755  0.12924245  0.63523282  1
  Pr  Pr20  1  0.12924245  0.25848490  0.13523282  1
  Pr  Pr21  1  0.25848490  0.12924245  0.63523282  1
  Pr  Pr22  1  0.12924245  0.87075755  0.13523282  1
  Pr  Pr23  1  0.74151510  0.87075755  0.13523282  1
  Pr  Pr24  1  0.45636948  0.91273897  0.85646623  1
  Pr  Pr25  1  0.45636948  0.54363052  0.85646623  1
  Pr  Pr26  1  0.54363052  0.08726103  0.35646623  1
  Pr  Pr27  1  0.08726103  0.54363052  0.85646623  1
  Pr  Pr28  1  0.54363052  0.45636948  0.35646623  1
  Pr  Pr29  1  0.91273897  0.45636948  0.35646623  1
  Pr  Pr30  1  -0.00000000  0.00000000  0.99863445  1
  Pr  Pr31  1  -0.00000000  0.00000000  0.49863445  1
  Pr  Pr32  1  0.46147760  0.92295519  0.58524549  1
  Pr  Pr33  1  0.46147760  0.53852240  0.58524549  1
  Pr  Pr34  1  0.53852240  0.07704481  0.08524549  1
  Pr  Pr35  1  0.07704481  0.53852240  0.58524549  1
  Pr  Pr36  1  0.53852240  0.46147760  0.08524549  1
  Pr  Pr37  1  0.92295519  0.46147760  0.08524549  1
  Pr  Pr38  1  0.79798866  0.59597733  0.78281977  1
  Pr  Pr39  1  0.79798866  0.20201134  0.78281977  1
  Pr  Pr40  1  0.20201134  0.40402267  0.28281977  1
  Pr  Pr41  1  0.40402267  0.20201134  0.78281977  1
  Pr  Pr42  1  0.20201134  0.79798866  0.28281977  1
  Pr  Pr43  1  0.59597733  0.79798866  0.28281977  1
  Pr  Pr44  1  0.66666700  0.33333300  0.64295490  1
  Pr  Pr45  1  0.33333300  0.66666700  0.14295490  1
  Mg  Mg0  1  -0.00000000  0.00000000  0.74981413  1
  Mg  Mg1  1  -0.00000000  0.00000000  0.24981413  1
  Mg  Mg2  1  0.10599253  0.21198507  0.86309336  1
  Mg  Mg3  1  0.10599253  0.89400747  0.86309336  1
  Mg  Mg4  1  0.89400747  0.78801493  0.36309336  1
  Mg  Mg5  1  0.78801493  0.89400747  0.86309336  1
  Mg  Mg6  1  0.89400747  0.10599253  0.36309336  1
  Mg  Mg7  1  0.21198507  0.10599253  0.36309336  1
  Pt  Pt0  1  0.52234114  0.04468229  0.71023404  1
  Pt  Pt1  1  0.52234114  0.47765886  0.71023404  1
  Pt  Pt2  1  0.47765886  0.95531771  0.21023404  1
  Pt  Pt3  1  0.95531771  0.47765886  0.71023404  1
  Pt  Pt4  1  0.47765886  0.52234114  0.21023404  1
  Pt  Pt5  1  0.04468229  0.52234114  0.21023404  1
  Pt  Pt6  1  0.66666700  0.33333300  0.86195656  1
  Pt  Pt7  1  0.33333300  0.66666700  0.36195656  1
  Pt  Pt8  1  0.14339306  0.28678613  0.56482669  1
  Pt  Pt9  1  0.14339306  0.85660694  0.56482669  1
  Pt  Pt10  1  0.85660694  0.71321387  0.06482669  1
  Pt  Pt11  1  0.71321387  0.85660694  0.56482669  1
  Pt  Pt12  1  0.85660694  0.14339306  0.06482669  1
  Pt  Pt13  1  0.28678613  0.14339306  0.06482669  1
loop_
_geom_bond_atom_site_label_1
_geom_bond_atom_site_label_2
_geom_bond_distance
_geom_bond_site_symmetry_2
Pr0 Pt1 2.966401 1_555
Pr0 Pt3 2.966402 1_455
Pr0 Pr25 3.851204 1_555
Pr0 Pr27 3.851205 1_555
Pr1 Pt0 2.966401 1_565
Pr1 Pt3 2.966401 1_455
Pr1 Pr24 3.851204 1_555
Pr1 Pr27 3.851204 1_555
Pr2 Pt4 2.966401 1_555
Pr2 Pt5 2.966402 1_655
Pr2 Pr28 3.851204 1_555
Pr2 Pr29 3.851205 1_555
Pr3 Pt1 2.966401 1_555
Pr3 Pt0 2.966402 1_565
Pr4 Pt2 2.966401 1_545
Pr4 Pt5 2.966401 1_655
Pr5 Pt4 2.966401 1_555
Pr5 Pt2 2.966402 1_545
Pr6 Pt10 2.963025 1_556
Pr6 Pt6 2.972149 1_555
Pr7 Pt12 2.963025 1_556
Pr7 Pt6 2.972143 1_555
Pr8 Pt8 2.963025 1_555
Pr8 Pt7 2.972149 1_555
Pr9 Pt13 2.963025 1_556
Pr9 Pt6 2.972149 1_555
Pr10 Pt9 2.963025 1_555
Pr10 Pt7 2.972143 1_555
Pr10 Pr14 3.843465 1_455
Pr10 Pr17 3.843465 1_565
Pr10 Pr29 3.852541 1_455
Pr10 Pr26 3.852541 1_565
Pr11 Pt11 2.963025 1_555
Pr11 Pt7 2.972149 1_555
Pr11 Pr16 3.843465 1_565
Pr11 Pr14 3.843465 1_555
Pr11 Pr26 3.852541 1_565
Pr11 Pr28 3.852541 1_555
Pr12 Pr20 3.655406 1_556
Pr12 Pr15 3.728146 1_555
Pr12 Pr13 3.728146 1_555
Pr12 Pt12 3.737696 1_456
Pr12 Pt13 3.737696 1_556
Pr12 Pr30 3.757495 1_555
Pr12 Pr25 3.775090 1_555
Pr12 Pr27 3.775090 1_555
Pr12 Pr7 3.843465 1_455
Pr12 Pr9 3.843465 1_555
Pr12 Pr36 3.852096 1_556
Pr12 Pr37 3.852096 1_456
Pr12 Pr45 4.133037 1_556
Pr13 Pr22 3.655406 1_556
Pr13 Pr15 3.728146 1_555
Pr13 Pt13 3.737696 1_566
Pr13 Pt10 3.737696 1_456
Pr13 Pr30 3.757495 1_565
Pr13 Pr27 3.775090 1_555
Pr13 Pr24 3.775090 1_555
Pr13 Pr6 3.843465 1_455
Pr13 Pr9 3.843465 1_565
Pr13 Pr34 3.852096 1_566
Pr13 Pr37 3.852096 1_456
Pr13 Pr45 4.133033 1_556
Pr14 Pr18 3.655406 1_555
Pr14 Pr17 3.728146 1_555
Pr14 Pr16 3.728146 1_555
Pr14 Pt9 3.737696 1_655
Pr14 Pt11 3.737696 1_555
Pr14 Pr31 3.757495 1_665
Pr14 Pr28 3.775090 1_555
Pr14 Pr29 3.775090 1_555
Pr14 Pr33 3.852096 1_555
Pr14 Pr35 3.852096 1_655
Pr14 Pr44 4.133037 1_555
Pr15 Pr23 3.655406 1_556
Pr15 Pt12 3.737696 1_566
Pr15 Pt10 3.737696 1_556
Pr15 Pr30 3.757495 1_665
Pr15 Pr25 3.775090 1_555
Pr15 Pr24 3.775090 1_555
Pr15 Pr7 3.843465 1_565
Pr15 Pr6 3.843465 1_555
Pr15 Pr36 3.852096 1_556
Pr15 Pr34 3.852096 1_566
Pr15 Pr45 4.133037 1_556
Pr16 Pr19 3.655406 1_555
Pr16 Pr17 3.728146 1_555
Pr16 Pt11 3.737696 1_545
Pr16 Pt8 3.737696 1_655
Pr16 Pr31 3.757495 1_655
Pr16 Pr29 3.775090 1_555
Pr16 Pr26 3.775090 1_555
Pr16 Pr8 3.843465 1_655
Pr16 Pr32 3.852096 1_545
Pr16 Pr35 3.852096 1_655
Pr16 Pr44 4.133033 1_555
Pr17 Pr21 3.655406 1_555
Pr17 Pt9 3.737696 1_545
Pr17 Pt8 3.737696 1_555
Pr17 Pr31 3.757495 1_555
Pr17 Pr28 3.775090 1_555
Pr17 Pr26 3.775090 1_555
Pr17 Pr8 3.843465 1_555
Pr17 Pr33 3.852096 1_555
Pr17 Pr32 3.852096 1_545
Pr17 Pr44 4.133037 1_555
Pr18 Pt9 2.919851 1_655
Pr18 Pt11 2.919851 1_555
Pr18 Pt1 3.656259 1_555
Pr18 Pt3 3.656259 1_555
Pr19 Pt11 2.919851 1_545
Pr19 Pt8 2.919851 1_655
Pr19 Pt3 3.656259 1_555
Pr19 Pt0 3.656259 1_555
Pr20 Pt12 2.919851 1_455
Pr20 Pt13 2.919851 1_555
Pr20 Pt4 3.656259 1_555
Pr20 Pt5 3.656259 1_555
Pr21 Pt9 2.919851 1_545
Pr21 Pt8 2.919851 1_555
Pr21 Pt1 3.656259 1_555
Pr21 Pt0 3.656259 1_555
Pr22 Pt10 2.919851 1_455
Pr22 Pt13 2.919851 1_565
Pr22 Pt2 3.656259 1_555
Pr22 Pt5 3.656259 1_555
Pr23 Pt12 2.919851 1_565
Pr23 Pt10 2.919851 1_555
Pr23 Pt4 3.656259 1_555
Pr23 Pt2 3.656259 1_555
Pr24 Pt0 3.575482 1_565
Pr24 Pr39 3.676956 1_565
Pr24 Pr41 3.676956 1_565
Pr24 Pt6 3.727547 1_565
Pr24 Pr27 3.775128 1_555
Pr24 Pr25 3.775128 1_555
Pr24 Pr3 3.851205 1_555
Pr24 Pr7 3.852541 1_565
Pr24 Pr9 3.852541 1_565
Pr25 Pt1 3.575482 1_555
Pr25 Pr41 3.676956 1_555
Pr25 Pr38 3.676956 1_555
Pr25 Pt6 3.727556 1_555
Pr25 Pr27 3.775128 1_555
Pr25 Pr3 3.851204 1_555
Pr25 Pr6 3.852541 1_555
Pr25 Pr9 3.852541 1_555
Pr26 Pt2 3.575482 1_545
Pr26 Pr42 3.676956 1_545
Pr26 Pr43 3.676956 1_545
Pr26 Pt7 3.727547 1_545
Pr26 Pr29 3.775128 1_555
Pr26 Pr28 3.775128 1_555
Pr26 Pr4 3.851204 1_555
Pr26 Pr5 3.851205 1_555
Pr27 Pt3 3.575482 1_455
Pr27 Pr39 3.676956 1_455
Pr27 Pr38 3.676956 1_455
Pr27 Pt6 3.727547 1_455
Pr27 Pr7 3.852541 1_455
Pr27 Pr6 3.852541 1_455
Pr28 Pt4 3.575482 1_555
Pr28 Pr43 3.676956 1_555
Pr28 Pr40 3.676956 1_555
Pr28 Pt7 3.727556 1_555
Pr28 Pr29 3.775128 1_555
Pr28 Pr5 3.851204 1_555
Pr28 Pr8 3.852541 1_555
Pr29 Pt5 3.575482 1_655
Pr29 Pr42 3.676956 1_655
Pr29 Pr40 3.676956 1_655
Pr29 Pt7 3.727547 1_655
Pr29 Pr4 3.851204 1_555
Pr29 Pr8 3.852541 1_655
Pr30 Pt12 2.965147 1_456
Pr30 Pt13 2.965147 1_556
Pr30 Pt10 2.965147 1_446
Pr31 Pt9 2.965147 1_545
Pr31 Pt11 2.965147 1_445
Pr31 Pt8 2.965147 1_555
Pr32 Pt11 3.009858 1_555
Pr32 Pt9 3.009858 1_555
Pr32 Pt0 3.082887 1_565
Pr33 Pt8 3.009858 1_555
Pr33 Pt11 3.009858 1_555
Pr33 Pt1 3.082887 1_555
Pr34 Pt13 3.009858 1_555
Pr34 Pt12 3.009858 1_555
Pr34 Pt2 3.082887 1_545
Pr35 Pt8 3.009858 1_555
Pr35 Pt9 3.009858 1_555
Pr35 Pt3 3.082887 1_455
Pr36 Pt13 3.009858 1_555
Pr36 Pt10 3.009858 1_555
Pr36 Pt4 3.082887 1_555
Pr37 Pt10 3.009858 1_555
Pr37 Pt12 3.009858 1_555
Pr37 Pt5 3.082887 1_655
Pr38 Pt6 2.959049 1_555
Pr38 Pt1 2.968868 1_555
Pr38 Pt3 2.968868 1_555
Pr39 Pt6 2.959042 1_555
Pr39 Pt3 2.968868 1_555
Pr39 Pt0 2.968868 1_555
Pr40 Pt7 2.959049 1_555
Pr40 Pt4 2.968868 1_555
Pr40 Pt5 2.968868 1_555
Pr41 Pt6 2.959049 1_555
Pr41 Pt1 2.968868 1_555
Pr41 Pt0 2.968868 1_555
Pr42 Pt7 2.959042 1_555
Pr42 Pt2 2.968868 1_555
Pr42 Pt5 2.968868 1_555
Pr43 Pt7 2.959049 1_555
Pr43 Pt4 2.968868 1_555
Pr43 Pt2 2.968868 1_555
Pr44 Pt3 2.992280 1_555
Pr44 Pt0 2.992280 1_555
Pr44 Pt1 2.992288 1_555
Pr45 Pt5 2.992280 1_555
Pr45 Pt2 2.992280 1_555
Pr45 Pt4 2.992288 1_555
Mg0 Mg3 3.221414 1_545
Mg0 Mg5 3.221414 1_445
Mg0 Mg2 3.221414 1_555
Mg0 Pr21 3.500322 1_555
Mg0 Pr18 3.500322 1_445
Mg0 Pr19 3.500322 1_455
Mg0 Pr41 3.658978 1_555
Mg0 Pr38 3.658978 1_445
Mg0 Pr39 3.658978 1_455
Mg0 Pr3 3.712878 1_445
Mg0 Pr0 3.712878 1_555
Mg0 Pr1 3.712878 1_545
Mg1 Mg6 3.221414 1_455
Mg1 Mg4 3.221414 1_445
Mg1 Mg7 3.221414 1_555
Mg1 Pr20 3.500322 1_555
Mg1 Pr23 3.500322 1_445
Mg1 Pr22 3.500322 1_545
Mg1 Pr43 3.658978 1_445
Mg1 Pr40 3.658978 1_555
Mg1 Pr42 3.658978 1_545
Mg1 Pr2 3.712878 1_445
Mg1 Pr5 3.712878 1_555
Mg1 Pr4 3.712878 1_455
Mg2 Mg5 3.252177 1_445
Mg2 Mg3 3.252177 1_545
Mg2 Pr12 3.485801 1_555
Mg2 Pr25 3.495058 1_555
Mg2 Pr27 3.495058 1_555
Mg2 Pr39 3.612952 1_455
Mg2 Pr41 3.612952 1_555
Mg2 Pr30 3.651747 1_555
Mg2 Pr7 3.701240 1_455
Mg2 Pr9 3.701240 1_555
Mg2 Pr0 3.746557 1_555
Mg3 Mg5 3.252177 1_455
Mg3 Pr13 3.485801 1_555
Mg3 Pr24 3.495058 1_555
Mg3 Pr27 3.495058 1_555
Mg3 Pr38 3.612952 1_455
Mg3 Pr41 3.612952 1_565
Mg3 Pr30 3.651747 1_565
Mg3 Pr6 3.701240 1_455
Mg3 Pr9 3.701240 1_565
Mg3 Pr1 3.746557 1_555
Mg4 Mg7 3.252177 1_665
Mg4 Mg6 3.252177 1_565
Mg4 Pr14 3.485801 1_555
Mg4 Pr28 3.495058 1_555
Mg4 Pr29 3.495058 1_555
Mg4 Pr42 3.612952 1_655
Mg4 Pr43 3.612952 1_555
Mg4 Pr31 3.651747 1_665
Mg4 Pr10 3.701240 1_655
Mg4 Pr11 3.701240 1_555
Mg4 Pr2 3.746557 1_555
Mg5 Pr15 3.485801 1_555
Mg5 Pr25 3.495058 1_555
Mg5 Pr24 3.495058 1_555
Mg5 Pr39 3.612952 1_565
Mg5 Pr38 3.612952 1_555
Mg5 Pr30 3.651747 1_665
Mg5 Pr7 3.701240 1_565
Mg5 Pr6 3.701240 1_555
Mg5 Pr3 3.746557 1_555
Mg6 Mg7 3.252177 1_655
Mg6 Pr16 3.485801 1_555
Mg6 Pr29 3.495058 1_555
Mg6 Pr26 3.495058 1_555
Mg6 Pr43 3.612952 1_545
Mg6 Pr40 3.612952 1_655
Mg6 Pr31 3.651747 1_655
Mg6 Pr11 3.701240 1_545
Mg6 Pr8 3.701240 1_655
Mg6 Pr4 3.746557 1_555
Mg7 Pr17 3.485801 1_555
Mg7 Pr28 3.495058 1_555
Mg7 Pr26 3.495058 1_555
Mg7 Pr42 3.612952 1_545
Mg7 Pr40 3.612952 1_555
Mg7 Pr31 3.651747 1_555
Mg7 Pr10 3.701240 1_545
Mg7 Pr8 3.701240 1_555
Mg7 Pr5 3.746557 1_555
