# generated using pymatgen
data_Er2FeSi4
_symmetry_space_group_name_H-M   'P 1'
_cell_length_a   3.97195500
_cell_length_b   4.08085000
_cell_length_c   7.77064755
_cell_angle_alpha   74.77673061
_cell_angle_beta   90.00000000
_cell_angle_gamma   90.00000000
_symmetry_Int_Tables_number   1
_chemical_formula_structural   Er2FeSi4
_chemical_formula_sum   'Er2 Fe1 Si4'
_cell_volume   121.53432108
_cell_formula_units_Z   1
loop_
 _symmetry_equiv_pos_site_id
 _symmetry_equiv_pos_as_xyz
  1  'x, y, z'
loop_
 _atom_site_type_symbol
 _atom_site_label
 _atom_site_symmetry_multiplicity
 _atom_site_fract_x
 _atom_site_fract_y
 _atom_site_fract_z
 _atom_site_occupancy
  Er  Er0  1  0.25000000  0.89705200  0.20589700  1
  Er  Er1  1  0.75000000  0.09979400  0.80041200  1
  Fe  Fe0  1  0.25000000  0.69355600  0.61288800  1
  Si  Si0  1  0.25000000  0.54324400  0.91351200  1
  Si  Si1  1  0.75000000  0.43686300  0.12627400  1
  Si  Si2  1  0.25000000  0.25646100  0.48707700  1
  Si  Si3  1  0.75000000  0.75703100  0.48593900  1
loop_
_geom_bond_atom_site_label_1
_geom_bond_atom_site_label_2
_geom_bond_distance
_geom_bond_site_symmetry_2
Er0 Si3 2.890164 1_555
Er0 Si3 2.890164 1_455
Er0 Si1 2.909271 1_465
Er0 Si1 2.909271 1_565
Er0 Si1 2.909273 1_555
Er0 Si1 2.909273 1_455
Er0 Si2 2.933967 1_565
Er0 Si2 2.933973 1_555
Er0 Si0 2.994910 1_564
Er0 Si0 2.994913 1_554
Er1 Si0 2.970956 1_555
Er1 Si0 2.970956 1_655
Er1 Si0 2.970956 1_645
Er1 Si0 2.970956 1_545
Er1 Si2 3.076310 1_555
Er1 Si2 3.076310 1_655
Er1 Si3 3.118184 1_545
Er1 Si3 3.118186 1_555
Er1 Fe0 3.175597 1_555
Er1 Fe0 3.175597 1_655
Er1 Fe0 3.175597 1_545
Er1 Fe0 3.175597 1_645
Er1 Si1 3.183249 1_546
Er1 Si1 3.183249 1_556
Fe0 Si3 2.202304 1_455
Fe0 Si3 2.202304 1_555
Fe0 Si2 2.247931 1_565
Fe0 Si2 2.247935 1_555
Fe0 Si0 2.254071 1_555
Si0 Si1 2.547359 1_456
Si0 Si1 2.547359 1_556
