# generated using pymatgen
data_Ca2TiMnO6
_symmetry_space_group_name_H-M   'P 1'
_cell_length_a   7.63723314
_cell_length_b   7.63721546
_cell_length_c   9.31801150
_cell_angle_alpha   66.13741821
_cell_angle_beta   66.13745956
_cell_angle_gamma   90.64446289
_symmetry_Int_Tables_number   1
_chemical_formula_structural   Ca2TiMnO6
_chemical_formula_sum   'Ca8 Ti4 Mn4 O24'
_cell_volume   444.49663147
_cell_formula_units_Z   4
loop_
 _symmetry_equiv_pos_site_id
 _symmetry_equiv_pos_as_xyz
  1  'x, y, z'
loop_
 _atom_site_type_symbol
 _atom_site_label
 _atom_site_symmetry_multiplicity
 _atom_site_fract_x
 _atom_site_fract_y
 _atom_site_fract_z
 _atom_site_occupancy
  Ca  Ca0  1  0.39060700  0.85161400  0.25080900  1
  Ca  Ca1  1  0.89058600  0.35162700  0.25076400  1
  Ca  Ca2  1  0.89809300  0.85928400  0.24931700  1
  Ca  Ca3  1  0.39812700  0.35926100  0.24933400  1
  Ca  Ca4  1  0.10926200  0.64810700  0.74932800  1
  Ca  Ca5  1  0.60927000  0.14806800  0.74931700  1
  Ca  Ca6  1  0.60164600  0.64062300  0.75078700  1
  Ca  Ca7  1  0.10164600  0.14058100  0.75079300  1
  Ti  Ti0  1  0.50005900  0.99990600  0.49998100  1
  Ti  Ti1  1  0.00013000  0.49994100  0.49995800  1
  Ti  Ti2  1  0.24979700  0.25008700  0.99996600  1
  Ti  Ti3  1  0.74993900  0.75004300  0.99996100  1
  Mn  Mn0  1  0.74983700  0.25030200  0.99982800  1
  Mn  Mn1  1  0.00030400  0.00000900  0.49983800  1
  Mn  Mn2  1  0.24990900  0.75030100  0.99997100  1
  Mn  Mn3  1  0.50032400  0.49991600  0.49993300  1
  O  O0  1  0.27159900  0.48063100  0.46144300  1
  O  O1  1  0.77163400  0.98065300  0.46142300  1
  O  O2  1  0.26956200  0.97877000  0.03826100  1
  O  O3  1  0.76952400  0.47874600  0.03824800  1
  O  O4  1  0.22875500  0.01955200  0.53824200  1
  O  O5  1  0.72878000  0.51953400  0.53826300  1
  O  O6  1  0.23066600  0.52159300  0.96145000  1
  O  O7  1  0.73063900  0.02162600  0.96141300  1
  O  O8  1  0.02168000  0.80807900  0.96296400  1
  O  O9  1  0.52165400  0.30808600  0.96293300  1
  O  O10  1  0.44187300  0.72797700  0.53739800  1
  O  O11  1  0.94186300  0.22802200  0.53738000  1
  O  O12  1  0.47798400  0.69185600  0.03741000  1
  O  O13  1  0.97801000  0.19187000  0.03737400  1
  O  O14  1  0.05808400  0.77166000  0.46294500  1
  O  O15  1  0.55809800  0.27167400  0.46296200  1
  O  O16  1  0.65125000  0.66807100  0.25252200  1
  O  O17  1  0.15128200  0.16810800  0.25246900  1
  O  O18  1  0.58166400  0.09901400  0.24747900  1
  O  O19  1  0.08165300  0.59899000  0.24753300  1
  O  O20  1  0.84902100  0.83167700  0.74748400  1
  O  O21  1  0.34902600  0.33165400  0.74752400  1
  O  O22  1  0.91808300  0.40125100  0.75246900  1
  O  O23  1  0.41808100  0.90123500  0.75252700  1
loop_
_geom_bond_atom_site_label_1
_geom_bond_atom_site_label_2
_geom_bond_distance
_geom_bond_site_symmetry_2
Ca0 O18 2.356692 1_565
Ca0 O14 2.378337 1_555
Ca0 O2 2.380244 1_555
Ca0 O16 2.449083 1_555
Ca0 O0 2.589448 1_555
Ca0 O12 2.606835 1_555
Ca0 O10 2.643908 1_555
Ca0 O7 2.669612 1_564
Ca1 O19 2.357033 1_655
Ca1 O15 2.378313 1_555
Ca1 O3 2.380072 1_555
Ca1 O17 2.449302 1_655
Ca1 O1 2.589421 1_545
Ca1 O13 2.606741 1_555
Ca1 O11 2.644200 1_555
Ca1 O6 2.669472 1_654
Ca2 O16 2.354713 1_555
Ca2 O13 2.378177 1_565
Ca2 O1 2.378256 1_555
Ca2 O19 2.447035 1_655
Ca2 O2 2.593162 1_655
Ca2 O14 2.609945 1_655
Ca2 O8 2.641631 1_654
Ca2 O5 2.666290 1_555
Ca3 O17 2.354814 1_555
Ca3 O12 2.378217 1_555
Ca3 O0 2.378324 1_555
Ca3 O18 2.446707 1_555
Ca3 O3 2.592779 1_555
Ca3 O15 2.609839 1_555
Ca3 O9 2.641939 1_554
Ca3 O4 2.665996 1_555
Ca4 O22 2.354967 1_455
Ca4 O10 2.378319 1_555
Ca4 O6 2.378606 1_555
Ca4 O20 2.446806 1_455
Ca4 O4 2.593062 1_565
Ca4 O8 2.609909 1_555
Ca4 O14 2.641787 1_555
Ca4 O3 2.666165 1_456
Ca5 O23 2.354514 1_545
Ca5 O7 2.378170 1_555
Ca5 O11 2.378180 1_555
Ca5 O21 2.446846 1_555
Ca5 O5 2.593141 1_555
Ca5 O9 2.610012 1_555
Ca5 O15 2.641500 1_555
Ca5 O2 2.666099 1_546
Ca6 O20 2.356670 1_555
Ca6 O9 2.378410 1_555
Ca6 O5 2.380292 1_555
Ca6 O23 2.449010 1_555
Ca6 O6 2.589488 1_555
Ca6 O10 2.606854 1_555
Ca6 O12 2.644051 1_556
Ca6 O1 2.669462 1_555
Ca7 O21 2.356966 1_555
Ca7 O8 2.378302 1_545
Ca7 O4 2.380151 1_555
Ca7 O22 2.449303 1_455
Ca7 O7 2.589562 1_455
Ca7 O11 2.607072 1_455
Ca7 O13 2.643938 1_456
Ca7 O0 2.669474 1_555
Mn0 O22 1.926964 1_555
Mn0 O18 1.929006 1_556
Mn0 O9 1.931110 1_555
Mn0 O3 1.933303 1_556
Mn0 O7 1.934478 1_555
Mn0 O13 1.934600 1_556
Mn1 O17 1.926854 1_555
Mn1 O20 1.929183 1_445
Mn1 O14 1.932332 1_545
Mn1 O4 1.933116 1_555
Mn1 O11 1.933398 1_455
Mn1 O1 1.934607 1_445
Mn2 O23 1.927395 1_555
Mn2 O19 1.928569 1_556
Mn2 O8 1.931916 1_555
Mn2 O2 1.932749 1_556
Mn2 O12 1.933435 1_556
Mn2 O6 1.935339 1_555
Mn3 O16 1.927155 1_555
Mn3 O21 1.928751 1_555
Mn3 O15 1.931853 1_555
Mn3 O5 1.932834 1_555
Mn3 O10 1.933445 1_555
Mn3 O0 1.935347 1_555
O0 Ti1 1.974004 1_555
O1 Ti0 1.974640 1_555
O2 Ti2 1.973859 1_564
O3 Ti3 1.973504 1_554
O4 Ti0 1.973688 1_545
O5 Ti1 1.973879 1_655
O6 Ti2 1.974055 1_555
O7 Ti3 1.974772 1_545
O8 Ti3 1.974637 1_455
O9 Ti2 1.975348 1_555
O10 Ti0 1.974865 1_555
O11 Ti1 1.974863 1_655
O12 Ti3 1.974964 1_554
O13 Ti2 1.973872 1_654
O14 Ti1 1.974328 1_555
O15 Ti0 1.974767 1_545
O16 Ti3 1.964833 1_554
O17 Ti2 1.964469 1_554
O18 Ti0 1.964478 1_545
O19 Ti1 1.963976 1_555
O20 Ti3 1.964248 1_555
O21 Ti2 1.963923 1_555
O22 Ti1 1.964309 1_655
O23 Ti0 1.964712 1_555
