# generated using pymatgen
data_MgZn5
_symmetry_space_group_name_H-M   'P 1'
_cell_length_a   5.59453128
_cell_length_b   5.59453128
_cell_length_c   28.74535400
_cell_angle_alpha   90.00000000
_cell_angle_beta   90.00000000
_cell_angle_gamma   119.99999146
_symmetry_Int_Tables_number   1
_chemical_formula_structural   MgZn5
_chemical_formula_sum   'Mg8 Zn40'
_cell_volume   779.15837449
_cell_formula_units_Z   8
loop_
 _symmetry_equiv_pos_site_id
 _symmetry_equiv_pos_as_xyz
  1  'x, y, z'
loop_
 _atom_site_type_symbol
 _atom_site_label
 _atom_site_symmetry_multiplicity
 _atom_site_fract_x
 _atom_site_fract_y
 _atom_site_fract_z
 _atom_site_occupancy
  Mg  Mg0_0  1  0.33333350  0.16666650  0.00000000  1
  Mg  Mg0_1  1  0.33333350  0.16666650  0.50000000  1
  Mg  Mg0_2  1  0.33333350  0.66666650  0.00000000  1
  Mg  Mg0_3  1  0.33333350  0.66666650  0.50000000  1
  Mg  Mg0_4  1  0.83333350  0.16666650  0.00000000  1
  Mg  Mg0_5  1  0.83333350  0.16666650  0.50000000  1
  Mg  Mg0_6  1  0.83333350  0.66666650  0.00000000  1
  Mg  Mg0_7  1  0.83333350  0.66666650  0.50000000  1
  Zn  Zn0_0  1  0.00000000  0.00000000  0.41247600  1
  Zn  Zn0_1  1  0.00000000  0.00000000  0.91247600  1
  Zn  Zn0_2  1  0.00000000  0.50000000  0.41247600  1
  Zn  Zn0_3  1  0.00000000  0.50000000  0.91247600  1
  Zn  Zn0_4  1  0.50000000  0.00000000  0.41247600  1
  Zn  Zn0_5  1  0.50000000  0.00000000  0.91247600  1
  Zn  Zn0_6  1  0.50000000  0.50000000  0.41247600  1
  Zn  Zn0_7  1  0.50000000  0.50000000  0.91247600  1
  Zn  Zn1_0  1  0.33333350  0.16666650  0.33181050  1
  Zn  Zn1_1  1  0.33333350  0.16666650  0.83181050  1
  Zn  Zn1_2  1  0.33333350  0.66666650  0.33181050  1
  Zn  Zn1_3  1  0.33333350  0.66666650  0.83181050  1
  Zn  Zn1_4  1  0.83333350  0.16666650  0.33181050  1
  Zn  Zn1_5  1  0.83333350  0.16666650  0.83181050  1
  Zn  Zn1_6  1  0.83333350  0.66666650  0.33181050  1
  Zn  Zn1_7  1  0.83333350  0.66666650  0.83181050  1
  Zn  Zn2_0  1  0.00000000  0.00000000  0.25000000  1
  Zn  Zn2_1  1  0.00000000  0.00000000  0.75000000  1
  Zn  Zn2_2  1  0.00000000  0.50000000  0.25000000  1
  Zn  Zn2_3  1  0.00000000  0.50000000  0.75000000  1
  Zn  Zn2_4  1  0.50000000  0.00000000  0.25000000  1
  Zn  Zn2_5  1  0.50000000  0.00000000  0.75000000  1
  Zn  Zn2_6  1  0.50000000  0.50000000  0.25000000  1
  Zn  Zn2_7  1  0.50000000  0.50000000  0.75000000  1
  Zn  Zn3_0  1  0.33333350  0.16666650  0.16818950  1
  Zn  Zn3_1  1  0.33333350  0.16666650  0.66818950  1
  Zn  Zn3_2  1  0.33333350  0.66666650  0.16818950  1
  Zn  Zn3_3  1  0.33333350  0.66666650  0.66818950  1
  Zn  Zn3_4  1  0.83333350  0.16666650  0.16818950  1
  Zn  Zn3_5  1  0.83333350  0.16666650  0.66818950  1
  Zn  Zn3_6  1  0.83333350  0.66666650  0.16818950  1
  Zn  Zn3_7  1  0.83333350  0.66666650  0.66818950  1
  Zn  Zn4_0  1  0.00000000  0.00000000  0.08752400  1
  Zn  Zn4_1  1  0.00000000  0.00000000  0.58752400  1
  Zn  Zn4_2  1  0.00000000  0.50000000  0.08752400  1
  Zn  Zn4_3  1  0.00000000  0.50000000  0.58752400  1
  Zn  Zn4_4  1  0.50000000  0.00000000  0.08752400  1
  Zn  Zn4_5  1  0.50000000  0.00000000  0.58752400  1
  Zn  Zn4_6  1  0.50000000  0.50000000  0.08752400  1
  Zn  Zn4_7  1  0.50000000  0.50000000  0.58752400  1
loop_
_geom_bond_atom_site_label_1
_geom_bond_atom_site_label_2
_geom_bond_distance
_geom_bond_site_symmetry_2
Mg0_0 Mg0_4 2.797266 1_555
Mg0_0 Mg0_2 2.797266 1_545
Mg0_0 Mg0_2 2.797266 1_555
Mg0_0 Mg0_4 2.797266 1_455
Mg0_0 Mg0_6 2.797266 1_555
Mg0_0 Mg0_6 2.797266 1_445
Mg0_0 Zn0_5 2.989652 1_554
Mg0_0 Zn4_4 2.989652 1_555
Mg0_0 Zn0_7 2.989654 1_554
Mg0_0 Zn0_1 2.989654 1_554
Mg0_0 Zn4_0 2.989654 1_555
Mg0_0 Zn4_6 2.989654 1_555
Mg0_1 Mg0_3 2.797266 1_545
Mg0_1 Mg0_5 2.797266 1_555
Mg0_1 Mg0_5 2.797266 1_455
Mg0_1 Mg0_3 2.797266 1_555
Mg0_1 Mg0_7 2.797266 1_555
Mg0_1 Mg0_7 2.797266 1_445
Mg0_1 Zn4_5 2.989652 1_555
Mg0_1 Zn0_4 2.989652 1_555
Mg0_1 Zn4_7 2.989654 1_555
Mg0_1 Zn4_1 2.989654 1_555
Mg0_1 Zn0_6 2.989654 1_555
Mg0_1 Zn0_0 2.989654 1_555
Mg0_2 Mg0_6 2.797266 1_555
Mg0_2 Mg0_6 2.797266 1_455
Mg0_2 Mg0_4 2.797266 1_565
Mg0_2 Mg0_4 2.797266 1_455
Mg0_2 Zn0_7 2.989652 1_554
Mg0_2 Zn4_6 2.989652 1_555
Mg0_2 Zn0_5 2.989654 1_564
Mg0_2 Zn0_3 2.989654 1_554
Mg0_2 Zn4_4 2.989654 1_565
Mg0_2 Zn4_2 2.989654 1_555
Mg0_3 Mg0_7 2.797266 1_555
Mg0_3 Mg0_7 2.797266 1_455
Mg0_3 Mg0_5 2.797266 1_565
Mg0_3 Mg0_5 2.797266 1_455
Mg0_3 Zn4_7 2.989652 1_555
Mg0_3 Zn0_6 2.989652 1_555
Mg0_3 Zn4_5 2.989654 1_565
Mg0_3 Zn4_3 2.989654 1_555
Mg0_3 Zn0_4 2.989654 1_565
Mg0_3 Zn0_2 2.989654 1_555
Mg0_4 Mg0_6 2.797266 1_555
Mg0_4 Mg0_6 2.797266 1_545
Mg0_4 Zn0_1 2.989652 1_654
Mg0_4 Zn4_0 2.989652 1_655
Mg0_4 Zn0_3 2.989654 1_654
Mg0_4 Zn0_5 2.989654 1_554
Mg0_4 Zn4_2 2.989654 1_655
Mg0_4 Zn4_4 2.989654 1_555
Mg0_5 Mg0_7 2.797266 1_555
Mg0_5 Mg0_7 2.797266 1_545
Mg0_5 Zn4_1 2.989652 1_655
Mg0_5 Zn0_0 2.989652 1_655
Mg0_5 Zn4_3 2.989654 1_655
Mg0_5 Zn4_5 2.989654 1_555
Mg0_5 Zn0_2 2.989654 1_655
Mg0_5 Zn0_4 2.989654 1_555
Mg0_6 Zn0_3 2.989652 1_654
Mg0_6 Zn4_2 2.989652 1_655
Mg0_6 Zn0_7 2.989654 1_554
Mg0_6 Zn0_1 2.989654 1_664
Mg0_6 Zn4_6 2.989654 1_555
Mg0_6 Zn4_0 2.989654 1_665
Mg0_7 Zn4_3 2.989652 1_655
Mg0_7 Zn0_2 2.989652 1_655
Mg0_7 Zn4_7 2.989654 1_555
Mg0_7 Zn4_1 2.989654 1_665
Mg0_7 Zn0_6 2.989654 1_555
Mg0_7 Zn0_0 2.989654 1_665
Zn0_0 Zn0_2 2.797266 1_555
Zn0_0 Zn0_2 2.797266 1_545
Zn0_0 Zn0_4 2.797266 1_455
Zn0_0 Zn0_4 2.797266 1_555
Zn0_0 Zn0_6 2.797266 1_555
Zn0_0 Zn0_6 2.797266 1_445
Zn0_0 Zn1_4 2.825751 1_455
Zn0_0 Zn1_6 2.825752 1_445
Zn0_0 Zn1_0 2.825752 1_555
Zn0_1 Zn0_5 2.797266 1_555
Zn0_1 Zn0_5 2.797266 1_455
Zn0_1 Zn0_3 2.797266 1_555
Zn0_1 Zn0_3 2.797266 1_545
Zn0_1 Zn0_7 2.797266 1_445
Zn0_1 Zn0_7 2.797266 1_555
Zn0_1 Zn1_5 2.825751 1_455
Zn0_1 Zn1_7 2.825752 1_445
Zn0_1 Zn1_1 2.825752 1_555
Zn0_2 Zn0_6 2.797266 1_455
Zn0_2 Zn0_6 2.797266 1_555
Zn0_2 Zn0_4 2.797266 1_565
Zn0_2 Zn0_4 2.797266 1_455
Zn0_2 Zn1_6 2.825751 1_455
Zn0_2 Zn1_4 2.825752 1_455
Zn0_2 Zn1_2 2.825752 1_555
Zn0_3 Zn0_7 2.797266 1_555
Zn0_3 Zn0_7 2.797266 1_455
Zn0_3 Zn0_5 2.797266 1_565
Zn0_3 Zn0_5 2.797266 1_455
Zn0_3 Zn1_7 2.825751 1_455
Zn0_3 Zn1_3 2.825752 1_555
Zn0_3 Zn1_5 2.825752 1_455
Zn0_4 Zn0_6 2.797266 1_555
Zn0_4 Zn0_6 2.797266 1_545
Zn0_4 Zn1_0 2.825751 1_555
Zn0_4 Zn1_2 2.825752 1_545
Zn0_4 Zn1_4 2.825752 1_555
Zn0_5 Zn0_7 2.797266 1_555
Zn0_5 Zn0_7 2.797266 1_545
Zn0_5 Zn1_1 2.825751 1_555
Zn0_5 Zn1_3 2.825752 1_545
Zn0_5 Zn1_5 2.825752 1_555
Zn0_6 Zn1_2 2.825751 1_555
Zn0_6 Zn1_6 2.825752 1_555
Zn0_6 Zn1_0 2.825752 1_555
Zn0_7 Zn1_3 2.825751 1_555
Zn0_7 Zn1_7 2.825752 1_555
Zn0_7 Zn1_1 2.825752 1_555
Zn1_0 Zn1_2 2.797266 1_545
Zn1_0 Zn1_4 2.797266 1_555
Zn1_0 Zn1_4 2.797266 1_455
Zn1_0 Zn1_2 2.797266 1_555
Zn1_0 Zn1_6 2.797266 1_555
Zn1_0 Zn1_6 2.797266 1_445
Zn1_0 Zn2_4 2.852821 1_555
Zn1_0 Zn2_6 2.852822 1_555
Zn1_0 Zn2_0 2.852822 1_555
Zn1_1 Zn1_5 2.797266 1_555
Zn1_1 Zn1_3 2.797266 1_545
Zn1_1 Zn1_5 2.797266 1_455
Zn1_1 Zn1_3 2.797266 1_555
Zn1_1 Zn1_7 2.797266 1_555
Zn1_1 Zn1_7 2.797266 1_445
Zn1_1 Zn2_5 2.852821 1_555
Zn1_1 Zn2_1 2.852822 1_555
Zn1_1 Zn2_7 2.852822 1_555
Zn1_2 Zn1_6 2.797266 1_555
Zn1_2 Zn1_6 2.797266 1_455
Zn1_2 Zn1_4 2.797266 1_565
Zn1_2 Zn1_4 2.797266 1_455
Zn1_2 Zn2_6 2.852821 1_555
Zn1_2 Zn2_4 2.852822 1_565
Zn1_2 Zn2_2 2.852822 1_555
Zn1_3 Zn1_7 2.797266 1_555
Zn1_3 Zn1_7 2.797266 1_455
Zn1_3 Zn1_5 2.797266 1_565
Zn1_3 Zn1_5 2.797266 1_455
Zn1_3 Zn2_7 2.852821 1_555
Zn1_3 Zn2_5 2.852822 1_565
Zn1_3 Zn2_3 2.852822 1_555
Zn1_4 Zn1_6 2.797266 1_555
Zn1_4 Zn1_6 2.797266 1_545
Zn1_4 Zn2_0 2.852821 1_655
Zn1_4 Zn2_2 2.852822 1_655
Zn1_4 Zn2_4 2.852822 1_555
Zn1_5 Zn1_7 2.797266 1_555
Zn1_5 Zn1_7 2.797266 1_545
Zn1_5 Zn2_1 2.852821 1_655
Zn1_5 Zn2_3 2.852822 1_655
Zn1_5 Zn2_5 2.852822 1_555
Zn1_6 Zn2_2 2.852821 1_655
Zn1_6 Zn2_6 2.852822 1_555
Zn1_6 Zn2_0 2.852822 1_665
Zn1_7 Zn2_3 2.852821 1_655
Zn1_7 Zn2_7 2.852822 1_555
Zn1_7 Zn2_1 2.852822 1_665
Zn2_0 Zn2_4 2.797266 1_455
Zn2_0 Zn2_2 2.797266 1_555
Zn2_0 Zn2_2 2.797266 1_545
Zn2_0 Zn2_4 2.797266 1_555
Zn2_0 Zn2_6 2.797266 1_445
Zn2_0 Zn2_6 2.797266 1_555
Zn2_0 Zn3_4 2.852821 1_455
Zn2_0 Zn3_6 2.852822 1_445
Zn2_0 Zn3_0 2.852822 1_555
Zn2_1 Zn2_5 2.797266 1_455
Zn2_1 Zn2_5 2.797266 1_555
Zn2_1 Zn2_3 2.797266 1_555
Zn2_1 Zn2_3 2.797266 1_545
Zn2_1 Zn2_7 2.797266 1_555
Zn2_1 Zn2_7 2.797266 1_445
Zn2_1 Zn3_5 2.852821 1_455
Zn2_1 Zn3_7 2.852822 1_445
Zn2_1 Zn3_1 2.852822 1_555
Zn2_2 Zn2_6 2.797266 1_455
Zn2_2 Zn2_6 2.797266 1_555
Zn2_2 Zn2_4 2.797266 1_565
Zn2_2 Zn2_4 2.797266 1_455
Zn2_2 Zn3_6 2.852821 1_455
Zn2_2 Zn3_4 2.852822 1_455
Zn2_2 Zn3_2 2.852822 1_555
Zn2_3 Zn2_7 2.797266 1_455
Zn2_3 Zn2_7 2.797266 1_555
Zn2_3 Zn2_5 2.797266 1_455
Zn2_3 Zn2_5 2.797266 1_565
Zn2_3 Zn3_7 2.852821 1_455
Zn2_3 Zn3_5 2.852822 1_455
Zn2_3 Zn3_3 2.852822 1_555
Zn2_4 Zn2_6 2.797266 1_545
Zn2_4 Zn2_6 2.797266 1_555
Zn2_4 Zn3_0 2.852821 1_555
Zn2_4 Zn3_4 2.852822 1_555
Zn2_4 Zn3_2 2.852822 1_545
Zn2_5 Zn2_7 2.797266 1_545
Zn2_5 Zn2_7 2.797266 1_555
Zn2_5 Zn3_1 2.852821 1_555
Zn2_5 Zn3_3 2.852822 1_545
Zn2_5 Zn3_5 2.852822 1_555
Zn2_6 Zn3_2 2.852821 1_555
Zn2_6 Zn3_6 2.852822 1_555
Zn2_6 Zn3_0 2.852822 1_555
Zn2_7 Zn3_3 2.852821 1_555
Zn2_7 Zn3_7 2.852822 1_555
Zn2_7 Zn3_1 2.852822 1_555
Zn3_0 Zn3_4 2.797266 1_555
Zn3_0 Zn3_2 2.797266 1_545
Zn3_0 Zn3_2 2.797266 1_555
Zn3_0 Zn3_4 2.797266 1_455
Zn3_0 Zn3_6 2.797266 1_555
Zn3_0 Zn3_6 2.797266 1_445
Zn3_0 Zn4_4 2.825751 1_555
Zn3_0 Zn4_0 2.825752 1_555
Zn3_0 Zn4_6 2.825752 1_555
Zn3_1 Zn3_5 2.797266 1_555
Zn3_1 Zn3_3 2.797266 1_545
Zn3_1 Zn3_3 2.797266 1_555
Zn3_1 Zn3_5 2.797266 1_455
Zn3_1 Zn3_7 2.797266 1_555
Zn3_1 Zn3_7 2.797266 1_445
Zn3_1 Zn4_5 2.825751 1_555
Zn3_1 Zn4_1 2.825752 1_555
Zn3_1 Zn4_7 2.825752 1_555
Zn3_2 Zn3_6 2.797266 1_555
Zn3_2 Zn3_6 2.797266 1_455
Zn3_2 Zn3_4 2.797266 1_565
Zn3_2 Zn3_4 2.797266 1_455
Zn3_2 Zn4_6 2.825751 1_555
Zn3_2 Zn4_4 2.825752 1_565
Zn3_2 Zn4_2 2.825752 1_555
Zn3_3 Zn3_7 2.797266 1_555
Zn3_3 Zn3_7 2.797266 1_455
Zn3_3 Zn3_5 2.797266 1_565
Zn3_3 Zn3_5 2.797266 1_455
Zn3_3 Zn4_7 2.825751 1_555
Zn3_3 Zn4_5 2.825752 1_565
Zn3_3 Zn4_3 2.825752 1_555
Zn3_4 Zn3_6 2.797266 1_555
Zn3_4 Zn3_6 2.797266 1_545
Zn3_4 Zn4_0 2.825751 1_655
Zn3_4 Zn4_4 2.825752 1_555
Zn3_4 Zn4_2 2.825752 1_655
Zn3_5 Zn3_7 2.797266 1_555
Zn3_5 Zn3_7 2.797266 1_545
Zn3_5 Zn4_1 2.825751 1_655
Zn3_5 Zn4_3 2.825752 1_655
Zn3_5 Zn4_5 2.825752 1_555
Zn3_6 Zn4_2 2.825751 1_655
Zn3_6 Zn4_6 2.825752 1_555
Zn3_6 Zn4_0 2.825752 1_665
Zn3_7 Zn4_3 2.825751 1_655
Zn3_7 Zn4_7 2.825752 1_555
Zn3_7 Zn4_1 2.825752 1_665
Zn4_0 Zn4_2 2.797266 1_555
Zn4_0 Zn4_2 2.797266 1_545
Zn4_0 Zn4_4 2.797266 1_555
Zn4_0 Zn4_4 2.797266 1_455
Zn4_0 Zn4_6 2.797266 1_555
Zn4_0 Zn4_6 2.797266 1_445
Zn4_1 Zn4_5 2.797266 1_555
Zn4_1 Zn4_3 2.797266 1_545
Zn4_1 Zn4_5 2.797266 1_455
Zn4_1 Zn4_3 2.797266 1_555
Zn4_1 Zn4_7 2.797266 1_555
Zn4_1 Zn4_7 2.797266 1_445
Zn4_2 Zn4_6 2.797266 1_555
Zn4_2 Zn4_6 2.797266 1_455
Zn4_2 Zn4_4 2.797266 1_455
Zn4_2 Zn4_4 2.797266 1_565
Zn4_3 Zn4_7 2.797266 1_455
Zn4_3 Zn4_7 2.797266 1_555
Zn4_3 Zn4_5 2.797266 1_565
Zn4_3 Zn4_5 2.797266 1_455
Zn4_4 Zn4_6 2.797266 1_545
Zn4_4 Zn4_6 2.797266 1_555
Zn4_5 Zn4_7 2.797266 1_545
Zn4_5 Zn4_7 2.797266 1_555
