# generated using pymatgen
data_Ho6GaNi2
_symmetry_space_group_name_H-M   'P 1'
_cell_length_a   8.23204028
_cell_length_b   8.23203915
_cell_length_c   8.23204451
_cell_angle_alpha   112.16269015
_cell_angle_beta   109.35737811
_cell_angle_gamma   106.93600648
_symmetry_Int_Tables_number   1
_chemical_formula_structural   Ho6GaNi2
_chemical_formula_sum   'Ho12 Ga2 Ni4'
_cell_volume   428.54142452
_cell_formula_units_Z   2
loop_
 _symmetry_equiv_pos_site_id
 _symmetry_equiv_pos_as_xyz
  1  'x, y, z'
loop_
 _atom_site_type_symbol
 _atom_site_label
 _atom_site_symmetry_multiplicity
 _atom_site_fract_x
 _atom_site_fract_y
 _atom_site_fract_z
 _atom_site_occupancy
  Ho  Ho0  1  0.43071056  0.23407578  0.19663477  1
  Ho  Ho1  1  0.56928944  0.76592422  0.80336523  1
  Ho  Ho2  1  0.03744001  0.23407578  0.80336523  1
  Ho  Ho3  1  0.96255999  0.76592422  0.19663477  1
  Ho  Ho4  1  0.17961713  0.28514881  0.46476593  1
  Ho  Ho5  1  0.82038287  0.71485119  0.53523407  1
  Ho  Ho6  1  0.17961713  0.71485119  0.89446832  1
  Ho  Ho7  1  0.82038287  0.28514881  0.10553168  1
  Ho  Ho8  1  0.32748970  0.63389255  0.30640285  1
  Ho  Ho9  1  0.67251030  0.36610745  0.69359715  1
  Ho  Ho10  1  0.32748970  0.02108785  0.69359715  1
  Ho  Ho11  1  0.67251030  0.97891215  0.30640285  1
  Ga  Ga0  1  0.50000000  0.50000000  0.00000000  1
  Ga  Ga1  1  -0.00000000  0.00000000  0.00000000  1
  Ni  Ni0  1  0.35029147  0.00000000  0.35029147  1
  Ni  Ni1  1  0.64970853  -0.00000000  0.64970853  1
  Ni  Ni2  1  0.12163393  0.62163293  0.50000000  1
  Ni  Ni3  1  0.87836607  0.37836707  0.50000000  1
loop_
_geom_bond_atom_site_label_1
_geom_bond_atom_site_label_2
_geom_bond_distance
_geom_bond_site_symmetry_2
Ho0 Ni0 2.720688 1_555
Ho0 Ni3 3.215364 1_555
Ho0 Ho9 3.444760 1_555
Ho0 Ho11 3.444766 1_545
Ho0 Ho5 3.475072 1_555
Ho0 Ho7 3.475074 1_555
Ho0 Ho6 3.485971 1_544
Ho0 Ho4 3.485974 1_555
Ho0 Ho8 3.502249 1_555
Ho0 Ho10 3.502250 1_554
Ho0 Ho2 3.743496 1_554
Ho1 Ni1 2.720688 1_565
Ho1 Ni2 3.215364 1_555
Ho1 Ho8 3.444760 1_555
Ho1 Ho10 3.444766 1_565
Ho1 Ho4 3.475072 1_555
Ho1 Ho6 3.475074 1_555
Ho1 Ho7 3.485971 1_566
Ho1 Ho5 3.485974 1_555
Ho1 Ho9 3.502249 1_555
Ho1 Ho11 3.502250 1_556
Ho1 Ho3 3.743496 1_556
Ho2 Ni1 2.720679 1_455
Ho2 Ni3 3.215372 1_455
Ho2 Ho9 3.444752 1_455
Ho2 Ho6 3.475072 1_555
Ho2 Ho4 3.475080 1_555
Ho2 Ho7 3.485967 1_456
Ho2 Ho5 3.485971 1_445
Ho2 Ho8 3.502249 1_556
Ho3 Ni0 2.720679 1_665
Ho3 Ni2 3.215372 1_655
Ho3 Ho8 3.444752 1_655
Ho3 Ho7 3.475072 1_555
Ho3 Ho5 3.475080 1_555
Ho3 Ho6 3.485967 1_654
Ho3 Ho4 3.485971 1_665
Ho3 Ho9 3.502249 1_554
Ho4 Ni2 2.870627 1_555
Ho4 Ni3 2.870640 1_455
Ho4 Ni0 3.082591 1_555
Ho4 Ho7 3.419513 1_455
Ho4 Ho9 3.586997 1_555
Ho4 Ho8 3.641827 1_555
Ho5 Ni3 2.870627 1_555
Ho5 Ni2 2.870640 1_655
Ho5 Ni1 3.082591 1_565
Ho5 Ho6 3.419513 1_655
Ho5 Ho8 3.586997 1_555
Ho5 Ho9 3.641827 1_555
Ho6 Ni3 2.870632 1_455
Ho6 Ni2 2.870635 1_555
Ho6 Ni0 3.082592 1_566
Ho6 Ho8 3.586999 1_556
Ho6 Ho9 3.641825 1_455
Ho7 Ni2 2.870632 1_655
Ho7 Ni3 2.870635 1_555
Ho7 Ni1 3.082592 1_554
Ho7 Ho9 3.586999 1_554
Ho7 Ho8 3.641825 1_655
Ho8 Ni2 2.689579 1_555
Ho8 Ni1 2.837737 1_565
Ho8 Ni0 2.837738 1_565
Ho9 Ni3 2.689579 1_555
Ho9 Ni0 2.837737 1_555
Ho9 Ni1 2.837738 1_555
Ho10 Ni2 2.689590 1_545
Ho10 Ni0 2.837737 1_555
Ho10 Ni1 2.837741 1_555
Ho10 Ho3 3.444756 1_445
Ho10 Ho2 3.502252 1_555
Ho10 Ho4 3.586991 1_555
Ho10 Ho7 3.586997 1_556
Ho10 Ho5 3.641827 1_445
Ho10 Ho6 3.641834 1_545
Ho11 Ni3 2.689590 1_565
Ho11 Ni1 2.837737 1_565
Ho11 Ni0 2.837741 1_565
Ho11 Ho2 3.444756 1_665
Ho11 Ho3 3.502252 1_555
Ho11 Ho5 3.586991 1_555
Ho11 Ho6 3.586997 1_554
Ho11 Ho4 3.641827 1_665
Ho11 Ho7 3.641834 1_565
Ga0 Ho0 3.208707 1_555
Ga0 Ho1 3.208707 1_554
Ga0 Ho2 3.208712 1_554
Ga0 Ho3 3.208712 1_555
Ga0 Ho11 3.283685 1_555
Ga0 Ho10 3.283685 1_554
Ga0 Ho8 3.283694 1_555
Ga0 Ho9 3.283694 1_554
Ga0 Ho7 3.632744 1_555
Ga0 Ho6 3.632744 1_554
Ga0 Ho4 3.632744 1_554
Ga0 Ho5 3.632744 1_555
Ga1 Ho1 2.960784 1_444
Ga1 Ho0 2.960784 1_555
Ga1 Ho2 2.960785 1_554
Ga1 Ho3 2.960785 1_445
Ga1 Ho7 3.128292 1_455
Ga1 Ho6 3.128292 1_544
Ga1 Ho5 3.128292 1_444
Ga1 Ho4 3.128292 1_555
Ni0 Ni1 2.850119 1_555
Ni2 Ni3 2.384161 1_455
