# generated using pymatgen
data_Ba4SiSb2Se11
_symmetry_space_group_name_H-M   'P 1'
_cell_length_a   13.86976451
_cell_length_b   13.86976451
_cell_length_c   8.92694700
_cell_angle_alpha   90.00000000
_cell_angle_beta   90.00000000
_cell_angle_gamma   139.68236033
_symmetry_Int_Tables_number   1
_chemical_formula_structural   Ba4SiSb2Se11
_chemical_formula_sum   'Ba8 Si2 Sb4 Se22'
_cell_volume   1111.12237117
_cell_formula_units_Z   2
loop_
 _symmetry_equiv_pos_site_id
 _symmetry_equiv_pos_as_xyz
  1  'x, y, z'
loop_
 _atom_site_type_symbol
 _atom_site_label
 _atom_site_symmetry_multiplicity
 _atom_site_fract_x
 _atom_site_fract_y
 _atom_site_fract_z
 _atom_site_occupancy
  Ba  Ba0  1  0.96252200  0.54258700  0.99923100  1
  Ba  Ba1  1  0.45741300  0.03747800  0.99923100  1
  Ba  Ba2  1  0.03747800  0.45741300  0.49923100  1
  Ba  Ba3  1  0.54258700  0.96252200  0.49923100  1
  Ba  Ba4  1  0.78665000  0.70653300  0.23918000  1
  Ba  Ba5  1  0.29346700  0.21335000  0.23918000  1
  Ba  Ba6  1  0.21335000  0.29346700  0.73918000  1
  Ba  Ba7  1  0.70653300  0.78665000  0.73918000  1
  Si  Si0  1  0.92049400  0.07950600  0.40724800  1
  Si  Si1  1  0.07950600  0.92049400  0.90724800  1
  Sb  Sb0  1  0.35106100  0.64893900  0.06883700  1
  Sb  Sb1  1  0.64893900  0.35106100  0.56883700  1
  Sb  Sb2  1  0.85575700  0.14424300  0.06965000  1
  Sb  Sb3  1  0.14424300  0.85575700  0.56965000  1
  Se  Se0  1  0.61699300  0.38300700  0.09507200  1
  Se  Se1  1  0.38300700  0.61699300  0.59507200  1
  Se  Se2  1  0.55554900  0.44445100  0.89327600  1
  Se  Se3  1  0.44445100  0.55554900  0.39327600  1
  Se  Se4  1  0.52700400  0.47299600  0.52222000  1
  Se  Se5  1  0.47299600  0.52700400  0.02222000  1
  Se  Se6  1  0.73346300  0.26653700  0.72597700  1
  Se  Se7  1  0.26653700  0.73346300  0.22597700  1
  Se  Se8  1  0.88113100  0.55209200  0.39492600  1
  Se  Se9  1  0.44790800  0.11886900  0.39492600  1
  Se  Se10  1  0.11886900  0.44790800  0.89492600  1
  Se  Se11  1  0.55209200  0.88113100  0.89492600  1
  Se  Se12  1  0.76882700  0.23117300  0.20779000  1
  Se  Se13  1  0.23117300  0.76882700  0.70779000  1
  Se  Se14  1  0.90936000  0.71060400  0.75975100  1
  Se  Se15  1  0.28939600  0.09064000  0.75975100  1
  Se  Se16  1  0.09064000  0.28939600  0.25975100  1
  Se  Se17  1  0.71060400  0.90936000  0.25975100  1
  Se  Se18  1  0.87519900  0.12480100  0.62525700  1
  Se  Se19  1  0.12480100  0.87519900  0.12525700  1
  Se  Se20  1  0.00476100  0.99523900  0.48209600  1
  Se  Se21  1  0.99523900  0.00476100  0.98209600  1
loop_
_geom_bond_atom_site_label_1
_geom_bond_atom_site_label_2
_geom_bond_distance
_geom_bond_site_symmetry_2
Ba0 Se10 3.411193 1_655
Ba0 Se12 3.412412 1_556
Ba0 Se19 3.432162 1_656
Ba0 Se7 3.444236 1_656
Ba0 Se6 3.486215 1_555
Ba0 Se0 3.524581 1_556
Ba0 Se13 3.559390 1_655
Ba0 Se14 3.628333 1_555
Ba0 Se8 3.741145 1_556
Ba1 Se11 3.411193 1_545
Ba1 Se12 3.412412 1_556
Ba1 Se19 3.432162 1_546
Ba1 Se7 3.444236 1_546
Ba1 Se6 3.486215 1_555
Ba1 Se0 3.524581 1_556
Ba1 Se13 3.559390 1_545
Ba1 Se15 3.628333 1_555
Ba1 Se9 3.741145 1_556
Ba2 Se8 3.411193 1_455
Ba2 Se13 3.412412 1_555
Ba2 Se18 3.432162 1_455
Ba2 Se6 3.444236 1_455
Ba2 Se7 3.486215 1_555
Ba2 Se1 3.524581 1_555
Ba2 Se12 3.559390 1_455
Ba2 Se16 3.628333 1_555
Ba2 Se10 3.741145 1_555
Ba3 Se9 3.411193 1_565
Ba3 Se13 3.412412 1_555
Ba3 Se18 3.432162 1_565
Ba3 Se6 3.444236 1_565
Ba3 Se7 3.486215 1_555
Ba3 Se1 3.524581 1_555
Ba3 Se12 3.559390 1_565
Ba3 Se17 3.628333 1_555
Ba3 Se11 3.741145 1_555
Ba4 Se0 3.350458 1_555
Ba4 Se20 3.378724 1_655
Ba4 Se19 3.431092 1_655
Ba4 Se4 3.472282 1_555
Ba4 Se5 3.515374 1_555
Ba4 Se21 3.535195 1_564
Ba4 Se8 3.538250 1_555
Ba4 Se17 3.685758 1_555
Ba4 Se3 3.694274 1_555
Ba5 Se0 3.350458 1_555
Ba5 Se20 3.378724 1_545
Ba5 Se19 3.431092 1_545
Ba5 Se4 3.472282 1_555
Ba5 Se5 3.515374 1_555
Ba5 Se21 3.535195 1_454
Ba5 Se9 3.538250 1_555
Ba5 Se16 3.685758 1_555
Ba5 Se3 3.694274 1_555
Ba6 Se1 3.350458 1_555
Ba6 Se21 3.378724 1_455
Ba6 Se18 3.431092 1_455
Ba6 Se5 3.472282 1_556
Ba6 Se4 3.515374 1_555
Ba6 Se20 3.535195 1_545
Ba6 Se10 3.538250 1_555
Ba6 Se15 3.685758 1_555
Ba6 Se2 3.694274 1_555
Ba7 Se1 3.350458 1_555
Ba7 Se21 3.378724 1_565
Ba7 Se18 3.431092 1_565
Ba7 Se5 3.472282 1_556
Ba7 Se4 3.515374 1_555
Ba7 Se20 3.535195 1_655
Ba7 Se11 3.538250 1_555
Ba7 Se14 3.685758 1_555
Ba7 Se2 3.694274 1_555
Sb0 Se7 2.610039 1_555
Sb0 Se10 2.619697 1_554
Sb0 Se11 2.619697 1_554
Sb0 Se5 3.202370 1_555
Sb1 Se6 2.610039 1_555
Sb1 Se8 2.619697 1_555
Sb1 Se9 2.619697 1_555
Sb1 Se4 3.202370 1_555
Sb2 Se12 2.577778 1_555
Sb2 Se17 2.746729 1_545
Sb2 Se16 2.746729 1_655
Sb2 Se11 3.170312 1_544
Sb2 Se10 3.170312 1_654
Sb3 Se13 2.577778 1_555
Sb3 Se14 2.746729 1_455
Sb3 Se15 2.746729 1_565
Sb3 Se8 3.170312 1_455
Sb3 Se9 3.170312 1_565
Se0 Se2 2.409393 1_554
Se1 Se3 2.409393 1_555
Se2 Se5 2.438480 1_556
Se3 Se4 2.438480 1_555
Se14 Si1 2.302432 1_655
Se15 Si1 2.302432 1_545
Se16 Si0 2.302432 1_455
Se17 Si0 2.302432 1_565
Se18 Si0 2.275680 1_555
Se19 Si1 2.275680 1_554
Se20 Si0 2.293804 1_465
Se21 Si1 2.293804 1_645
