# generated using pymatgen
data_CoIr
_symmetry_space_group_name_H-M   'P 1'
_cell_length_a   8.87319589
_cell_length_b   8.87319589
_cell_length_c   8.87319639
_cell_angle_alpha   34.73201739
_cell_angle_beta   34.73201739
_cell_angle_gamma   34.73201967
_symmetry_Int_Tables_number   1
_chemical_formula_structural   CoIr
_chemical_formula_sum   'Co8 Ir8'
_cell_volume   202.38913302
_cell_formula_units_Z   8
loop_
 _symmetry_equiv_pos_site_id
 _symmetry_equiv_pos_as_xyz
  1  'x, y, z'
loop_
 _atom_site_type_symbol
 _atom_site_label
 _atom_site_symmetry_multiplicity
 _atom_site_fract_x
 _atom_site_fract_y
 _atom_site_fract_z
 _atom_site_occupancy
  Co  Co0_0  1  0.00000000  0.00000000  0.00000000  1
  Co  Co0_1  1  0.00000000  0.00000000  0.50000000  1
  Co  Co0_2  1  0.00000000  0.50000000  0.00000000  1
  Co  Co0_3  1  0.00000000  0.50000000  0.50000000  1
  Co  Co0_4  1  0.50000000  0.00000000  0.00000000  1
  Co  Co0_5  1  0.50000000  0.00000000  0.50000000  1
  Co  Co0_6  1  0.50000000  0.50000000  0.00000000  1
  Co  Co0_7  1  0.50000000  0.50000000  0.50000000  1
  Ir  Ir0_0  1  0.25000000  0.25000000  0.25000000  1
  Ir  Ir0_1  1  0.25000000  0.25000000  0.75000000  1
  Ir  Ir0_2  1  0.25000000  0.75000000  0.25000000  1
  Ir  Ir0_3  1  0.25000000  0.75000000  0.75000000  1
  Ir  Ir0_4  1  0.75000000  0.25000000  0.25000000  1
  Ir  Ir0_5  1  0.75000000  0.25000000  0.75000000  1
  Ir  Ir0_6  1  0.75000000  0.75000000  0.25000000  1
  Ir  Ir0_7  1  0.75000000  0.75000000  0.75000000  1
loop_
_geom_bond_atom_site_label_1
_geom_bond_atom_site_label_2
_geom_bond_distance
_geom_bond_site_symmetry_2
Co0_0 Ir0_1 2.583483 1_554
Co0_0 Ir0_6 2.583483 1_445
Co0_0 Ir0_5 2.583484 1_454
Co0_0 Ir0_2 2.583484 1_545
Co0_0 Ir0_3 2.583484 1_544
Co0_0 Ir0_4 2.583484 1_455
Co0_0 Co0_5 2.648424 1_455
Co0_0 Co0_5 2.648424 1_554
Co0_0 Co0_3 2.648424 1_545
Co0_0 Co0_3 2.648424 1_554
Co0_0 Co0_6 2.648424 1_545
Co0_0 Co0_6 2.648424 1_455
Co0_1 Ir0_7 2.583483 1_445
Co0_1 Ir0_0 2.583483 1_555
Co0_1 Ir0_4 2.583484 1_455
Co0_1 Ir0_3 2.583484 1_545
Co0_1 Ir0_2 2.583484 1_545
Co0_1 Ir0_5 2.583484 1_455
Co0_1 Co0_2 2.648424 1_555
Co0_1 Co0_4 2.648424 1_555
Co0_1 Co0_4 2.648424 1_456
Co0_1 Co0_2 2.648424 1_546
Co0_1 Co0_7 2.648424 1_545
Co0_1 Co0_7 2.648424 1_455
Co0_2 Ir0_4 2.583483 1_455
Co0_2 Ir0_3 2.583483 1_554
Co0_2 Ir0_7 2.583484 1_454
Co0_2 Ir0_0 2.583484 1_555
Co0_2 Ir0_6 2.583484 1_455
Co0_2 Ir0_1 2.583484 1_554
Co0_2 Co0_7 2.648424 1_455
Co0_2 Co0_7 2.648424 1_554
Co0_2 Co0_4 2.648424 1_465
Co0_2 Co0_4 2.648424 1_555
Co0_3 Ir0_5 2.583483 1_455
Co0_3 Ir0_2 2.583483 1_555
Co0_3 Ir0_1 2.583484 1_555
Co0_3 Ir0_0 2.583484 1_555
Co0_3 Ir0_6 2.583484 1_455
Co0_3 Ir0_7 2.583484 1_455
Co0_3 Co0_6 2.648424 1_555
Co0_3 Co0_6 2.648424 1_456
Co0_3 Co0_5 2.648424 1_555
Co0_3 Co0_5 2.648424 1_465
Co0_4 Ir0_2 2.583483 1_545
Co0_4 Ir0_5 2.583483 1_554
Co0_4 Ir0_7 2.583484 1_544
Co0_4 Ir0_0 2.583484 1_555
Co0_4 Ir0_6 2.583484 1_545
Co0_4 Ir0_1 2.583484 1_554
Co0_4 Co0_7 2.648424 1_545
Co0_4 Co0_7 2.648424 1_554
Co0_5 Ir0_3 2.583483 1_545
Co0_5 Ir0_4 2.583483 1_555
Co0_5 Ir0_1 2.583484 1_555
Co0_5 Ir0_0 2.583484 1_555
Co0_5 Ir0_6 2.583484 1_545
Co0_5 Ir0_7 2.583484 1_545
Co0_5 Co0_6 2.648424 1_555
Co0_5 Co0_6 2.648424 1_546
Co0_6 Ir0_0 2.583483 1_555
Co0_6 Ir0_7 2.583483 1_554
Co0_6 Ir0_5 2.583484 1_554
Co0_6 Ir0_4 2.583484 1_555
Co0_6 Ir0_3 2.583484 1_554
Co0_6 Ir0_2 2.583484 1_555
Co0_7 Ir0_1 2.583483 1_555
Co0_7 Ir0_6 2.583483 1_555
Co0_7 Ir0_2 2.583484 1_555
Co0_7 Ir0_4 2.583484 1_555
Co0_7 Ir0_3 2.583484 1_555
Co0_7 Ir0_5 2.583484 1_555
Ir0_0 Ir0_3 2.648424 1_545
Ir0_0 Ir0_5 2.648424 1_455
Ir0_0 Ir0_3 2.648424 1_554
Ir0_0 Ir0_5 2.648424 1_554
Ir0_0 Ir0_6 2.648424 1_455
Ir0_0 Ir0_6 2.648424 1_545
Ir0_1 Ir0_4 2.648424 1_555
Ir0_1 Ir0_2 2.648424 1_555
Ir0_1 Ir0_2 2.648424 1_546
Ir0_1 Ir0_4 2.648424 1_456
Ir0_1 Ir0_7 2.648424 1_455
Ir0_1 Ir0_7 2.648424 1_545
Ir0_2 Ir0_7 2.648424 1_455
Ir0_2 Ir0_7 2.648424 1_554
Ir0_2 Ir0_4 2.648424 1_465
Ir0_2 Ir0_4 2.648424 1_555
Ir0_3 Ir0_6 2.648424 1_555
Ir0_3 Ir0_6 2.648424 1_456
Ir0_3 Ir0_5 2.648424 1_465
Ir0_3 Ir0_5 2.648424 1_555
Ir0_4 Ir0_7 2.648424 1_545
Ir0_4 Ir0_7 2.648424 1_554
Ir0_5 Ir0_6 2.648424 1_555
Ir0_5 Ir0_6 2.648424 1_546
