# generated using pymatgen
data_Co2OF3
_symmetry_space_group_name_H-M   'P 1'
_cell_length_a   4.72140282
_cell_length_b   4.72112508
_cell_length_c   6.11300892
_cell_angle_alpha   90.18821324
_cell_angle_beta   90.18507870
_cell_angle_gamma   93.01394140
_symmetry_Int_Tables_number   1
_chemical_formula_structural   Co2OF3
_chemical_formula_sum   'Co4 O2 F6'
_cell_volume   136.07100170
_cell_formula_units_Z   2
loop_
 _symmetry_equiv_pos_site_id
 _symmetry_equiv_pos_as_xyz
  1  'x, y, z'
loop_
 _atom_site_type_symbol
 _atom_site_label
 _atom_site_symmetry_multiplicity
 _atom_site_fract_x
 _atom_site_fract_y
 _atom_site_fract_z
 _atom_site_occupancy
  Co  Co0  1  0.96278500  0.96278100  0.99982100  1
  Co  Co1  1  0.03700500  0.03700900  0.50022000  1
  Co  Co2  1  0.50002300  0.50002300  0.24997700  1
  Co  Co3  1  0.49991800  0.49991700  0.74990600  1
  O  O0  1  0.32457300  0.32456300  0.51125300  1
  O  O1  1  0.67566700  0.67567200  0.98879300  1
  F  F0  1  0.28243700  0.28247800  0.99839200  1
  F  F1  1  0.71752400  0.71748700  0.50161600  1
  F  F2  1  0.19780800  0.80218800  0.24990300  1
  F  F3  1  0.19769200  0.80235400  0.75008600  1
  F  F4  1  0.80222400  0.19784600  0.24994500  1
  F  F5  1  0.80234500  0.19768200  0.75008800  1
loop_
_geom_bond_atom_site_label_1
_geom_bond_atom_site_label_2
_geom_bond_distance
_geom_bond_site_symmetry_2
Co0 O1 1.866842 1_555
Co0 F3 2.055727 1_655
Co0 F5 2.055783 1_565
Co0 F2 2.056294 1_656
Co0 F4 2.056441 1_566
Co0 F0 2.077616 1_665
Co1 O0 1.869749 1_555
Co1 F5 2.056135 1_455
Co1 F3 2.056196 1_545
Co1 F4 2.056996 1_455
Co1 F2 2.057133 1_545
Co1 F1 2.076490 1_445
Co2 O0 1.966841 1_555
Co2 O1 1.967110 1_554
Co2 F4 2.070043 1_555
Co2 F2 2.070049 1_555
Co2 F1 2.084091 1_555
Co2 F0 2.084212 1_554
Co3 O0 1.846967 1_555
Co3 O1 1.849697 1_555
Co3 F5 2.071016 1_555
Co3 F3 2.071019 1_555
Co3 F1 2.079352 1_555
Co3 F0 2.079663 1_555
