# generated using pymatgen
data_La3SbO3
_symmetry_space_group_name_H-M   'P 1'
_cell_length_a   4.11787468
_cell_length_b   7.23676318
_cell_length_c   11.09381465
_cell_angle_alpha   81.89587963
_cell_angle_beta   79.30157069
_cell_angle_gamma   73.46264535
_symmetry_Int_Tables_number   1
_chemical_formula_structural   La3SbO3
_chemical_formula_sum   'La6 Sb2 O6'
_cell_volume   310.04650780
_cell_formula_units_Z   2
loop_
 _symmetry_equiv_pos_site_id
 _symmetry_equiv_pos_as_xyz
  1  'x, y, z'
loop_
 _atom_site_type_symbol
 _atom_site_label
 _atom_site_symmetry_multiplicity
 _atom_site_fract_x
 _atom_site_fract_y
 _atom_site_fract_z
 _atom_site_occupancy
  La  La0  1  0.38074918  0.79424100  0.44422462  1
  La  La1  1  0.61924787  0.20577128  0.55577895  1
  La  La2  1  0.37219140  0.35682400  0.89891414  1
  La  La3  1  0.62781511  0.64316965  0.10108564  1
  La  La4  1  0.84589356  0.10138843  0.20682307  1
  La  La5  1  0.15410736  0.89860649  0.79317401  1
  Sb  Sb0  1  0.87784607  0.56238389  0.68250027  1
  Sb  Sb1  1  0.12214992  0.43760770  0.31750796  1
  O  O0  1  0.81041228  0.96827811  0.41096265  1
  O  O1  1  0.18958214  0.03173393  0.58904123  1
  O  O2  1  0.56423818  0.07350406  0.79802231  1
  O  O3  1  0.43576167  0.92649459  0.20197168  1
  O  O4  1  0.83883410  0.31075571  0.01189014  1
  O  O5  1  0.16117115  0.68924016  0.98810335  1
loop_
_geom_bond_atom_site_label_1
_geom_bond_atom_site_label_2
_geom_bond_distance
_geom_bond_site_symmetry_2
La0 O1 2.386074 1_565
La0 O0 2.396883 1_455
La0 O0 2.397493 1_555
La0 O3 2.713340 1_555
La0 Sb0 3.575829 1_455
La0 Sb0 3.577172 1_555
La0 Sb1 3.591901 1_655
La0 Sb1 3.593653 1_555
La1 O0 2.386073 1_545
La1 O1 2.396875 1_655
La1 O1 2.397503 1_555
La1 O2 2.713265 1_555
La1 Sb1 3.575718 1_655
La1 Sb1 3.577104 1_555
La1 Sb0 3.591841 1_455
La1 Sb0 3.593550 1_555
La2 O2 2.340368 1_555
La2 O4 2.404730 1_456
La2 O4 2.405437 1_556
La2 O5 2.585140 1_555
La2 Sb0 3.347327 1_455
La2 Sb0 3.348580 1_555
La3 O3 2.340364 1_555
La3 O5 2.404754 1_654
La3 O5 2.405484 1_554
La3 O4 2.585157 1_555
La3 Sb1 3.347375 1_655
La3 Sb1 3.348665 1_555
La4 O0 2.328148 1_545
La4 O3 2.392778 1_645
La4 O3 2.393096 1_545
La4 O4 2.459182 1_555
La4 Sb1 3.414494 1_655
La4 Sb1 3.415493 1_555
La5 O1 2.328116 1_565
La5 O2 2.392791 1_465
La5 O2 2.393105 1_565
La5 O5 2.459147 1_555
La5 Sb0 3.414462 1_455
La5 Sb0 3.415456 1_555
