# generated using pymatgen
data_Na4NpH7O9
_symmetry_space_group_name_H-M   'P 1'
_cell_length_a   6.04197400
_cell_length_b   8.17238686
_cell_length_c   10.99852100
_cell_angle_alpha   104.19243753
_cell_angle_beta   101.63804915
_cell_angle_gamma   105.89460039
_symmetry_Int_Tables_number   1
_chemical_formula_structural   Na4NpH7O9
_chemical_formula_sum   'Na8 Np2 H14 O18'
_cell_volume   484.86168443
_cell_formula_units_Z   2
loop_
 _symmetry_equiv_pos_site_id
 _symmetry_equiv_pos_as_xyz
  1  'x, y, z'
loop_
 _atom_site_type_symbol
 _atom_site_label
 _atom_site_symmetry_multiplicity
 _atom_site_fract_x
 _atom_site_fract_y
 _atom_site_fract_z
 _atom_site_occupancy
  Na  Na0  1  0.79190500  0.53482400  0.58511300  1
  Na  Na1  1  0.20809500  0.46517600  0.41488700  1
  Na  Na2  1  0.94493800  0.66116800  0.92406300  1
  Na  Na3  1  0.05506200  0.33883200  0.07593700  1
  Na  Na4  1  0.47455400  0.27796100  0.90477400  1
  Na  Na5  1  0.52544600  0.72203900  0.09522600  1
  Na  Na6  1  0.39269100  0.14994000  0.57809000  1
  Na  Na7  1  0.60730900  0.85006000  0.42191000  1
  Np  Np0  1  0.36289500  0.58615400  0.75162900  1
  Np  Np1  1  0.63710500  0.41384600  0.24837100  1
  H  H0  1  0.58644500  0.82289200  0.63149900  1
  H  H1  1  0.41355500  0.17710800  0.36850100  1
  H  H2  1  0.07498000  0.36172000  0.85276200  1
  H  H3  1  0.92502000  0.63828000  0.14723800  1
  H  H4  1  0.84269700  0.17472800  0.61775900  1
  H  H5  1  0.15730300  0.82527200  0.38224100  1
  H  H6  1  0.75901500  0.11145300  0.78591100  1
  H  H7  1  0.24098500  0.88854700  0.21408900  1
  H  H8  1  0.71093400  0.01581300  0.89413100  1
  H  H9  1  0.28906600  0.98418700  0.10586900  1
  H  H10  1  0.17741600  0.93074300  0.72971400  1
  H  H11  1  0.82258400  0.06925700  0.27028600  1
  H  H12  1  0.01376300  0.04404300  0.68698100  1
  H  H13  1  0.98623700  0.95595700  0.31301900  1
  O  O0  1  0.14697200  0.72134100  0.75797300  1
  O  O1  1  0.85302800  0.27865900  0.24202700  1
  O  O2  1  0.60805200  0.77419200  0.89534900  1
  O  O3  1  0.39194800  0.22580800  0.10465100  1
  O  O4  1  0.57619300  0.44592300  0.74850000  1
  O  O5  1  0.42380700  0.55407700  0.25150000  1
  O  O6  1  0.11902300  0.39574300  0.60938900  1
  O  O7  1  0.88097700  0.60425700  0.39061100  1
  O  O8  1  0.50918000  0.69188200  0.59690200  1
  O  O9  1  0.49082000  0.30811800  0.40309800  1
  O  O10  1  0.21235000  0.46882700  0.90620800  1
  O  O11  1  0.78765000  0.53117300  0.09379200  1
  O  O12  1  0.75337600  0.06969700  0.63751900  1
  O  O13  1  0.24662400  0.93030300  0.36248100  1
  O  O14  1  0.76029700  0.13524500  0.88276100  1
  O  O15  1  0.23970300  0.86475500  0.11723900  1
  O  O16  1  0.18734100  0.04788700  0.71651500  1
  O  O17  1  0.81265900  0.95211300  0.28348500  1
loop_
_geom_bond_atom_site_label_1
_geom_bond_atom_site_label_2
_geom_bond_distance
_geom_bond_site_symmetry_2
Na0 O9 2.369682 1_555
Na0 O0 2.383824 1_655
Na0 O8 2.406448 1_555
Na0 O7 2.465844 1_555
Na0 O6 2.536906 1_655
Na0 O4 2.553872 1_555
Na1 O8 2.369682 1_555
Na1 O1 2.383824 1_455
Na1 O9 2.406448 1_555
Na1 O6 2.465844 1_555
Na1 O7 2.536906 1_455
Na1 O5 2.553872 1_555
Na2 O15 2.360315 1_656
Na2 O2 2.451426 1_555
Na2 O0 2.465816 1_655
Na2 O4 2.497734 1_555
Na2 O10 2.547075 1_655
Na2 O11 2.579111 1_556
Na3 O14 2.360315 1_454
Na3 O3 2.451426 1_555
Na3 O1 2.465816 1_455
Na3 O5 2.497734 1_555
Na3 O11 2.547075 1_455
Na3 O10 2.579111 1_554
Na4 O14 2.352166 1_555
Na4 O16 2.384967 1_555
Na4 O3 2.459496 1_556
Na4 O10 2.508915 1_555
Na4 O4 2.517248 1_555
Na4 O11 2.518392 1_556
Na5 O15 2.352166 1_555
Na5 O17 2.384967 1_555
Na5 O2 2.459496 1_554
Na5 O11 2.508915 1_555
Na5 O5 2.517248 1_555
Na5 O10 2.518392 1_554
Na6 O16 2.317509 1_555
Na6 O13 2.413487 1_545
Na6 O12 2.454520 1_555
Na6 O4 2.462248 1_555
Na6 O9 2.643380 1_555
Na6 O6 2.932184 1_555
Na7 O17 2.317509 1_555
Na7 O12 2.413487 1_565
Na7 O13 2.454520 1_555
Na7 O5 2.462248 1_555
Na7 O8 2.643380 1_555
Na7 O7 2.932184 1_555
Np0 O6 1.913210 1_555
Np0 O2 1.916149 1_555
Np0 O0 1.927649 1_555
Np0 O4 1.944974 1_555
Np0 O8 2.309407 1_555
Np0 O10 2.362791 1_555
Np1 O7 1.913210 1_555
Np1 O3 1.916149 1_555
Np1 O1 1.927649 1_555
Np1 O5 1.944974 1_555
Np1 O9 2.309407 1_555
Np1 O11 2.362791 1_555
H0 O8 0.981750 1_555
H0 Na7 2.394133 1_555
H1 O9 0.981750 1_555
H1 Na6 2.394133 1_555
H2 O10 0.976483 1_555
H2 Na3 2.531106 1_556
H3 O11 0.976483 1_555
H3 Na2 2.531106 1_554
H4 O12 0.979959 1_555
H4 Na6 2.607740 1_555
H5 O13 0.979959 1_555
H5 Na7 2.607740 1_555
H6 O14 1.032868 1_555
H6 O12 1.574620 1_555
H7 O15 1.032868 1_555
H7 O13 1.574620 1_555
H8 O14 0.986258 1_555
H9 O15 0.986258 1_555
H10 O16 0.990655 1_565
H11 O17 0.990655 1_545
H12 O16 1.022689 1_555
H13 O17 1.022689 1_555
