# generated using pymatgen
data_Li5V3P8O29
_symmetry_space_group_name_H-M   'P 1'
_cell_length_a   9.79950265
_cell_length_b   9.80541024
_cell_length_c   14.14312466
_cell_angle_alpha   90.09903594
_cell_angle_beta   89.85305402
_cell_angle_gamma   60.02591643
_symmetry_Int_Tables_number   1
_chemical_formula_structural   Li5V3P8O29
_chemical_formula_sum   'Li10 V6 P16 O58'
_cell_volume   1177.21316894
_cell_formula_units_Z   2
loop_
 _symmetry_equiv_pos_site_id
 _symmetry_equiv_pos_as_xyz
  1  'x, y, z'
loop_
 _atom_site_type_symbol
 _atom_site_label
 _atom_site_symmetry_multiplicity
 _atom_site_fract_x
 _atom_site_fract_y
 _atom_site_fract_z
 _atom_site_occupancy
  Li  Li0  1  0.91807947  0.78197114  0.05473470  1
  Li  Li1  1  0.76272406  0.90516518  0.56107540  1
  Li  Li2  1  0.90086003  0.33571282  0.56176685  1
  Li  Li3  1  0.77393382  0.31270253  0.06025434  1
  Li  Li4  1  0.32016954  0.90697399  0.05598700  1
  Li  Li5  1  0.33438809  0.76520914  0.56228881  1
  Li  Li6  1  0.34272861  0.32764313  0.10597922  1
  Li  Li7  1  0.09256066  0.67237297  0.44171220  1
  Li  Li8  1  0.08459434  0.22326837  0.93656641  1
  Li  Li9  1  0.97639293  0.04370090  0.50033189  1
  V  V0  1  0.56572809  0.43224012  0.25380758  1
  V  V1  1  0.43578469  0.56518002  0.75092663  1
  V  V2  1  0.56584871  0.99935327  0.74971142  1
  V  V3  1  0.43566865  0.00159062  0.25506734  1
  V  V4  1  0.00026111  0.56477335  0.24824578  1
  V  V5  1  0.99752996  0.43349561  0.74865702  1
  P  P0  1  0.90906220  0.76997175  0.83906411  1
  P  P1  1  0.77338403  0.91438828  0.34681848  1
  P  P2  1  0.91390455  0.31376834  0.34110575  1
  P  P3  1  0.66486295  0.66721296  0.13126767  1
  P  P4  1  0.66577790  0.66848932  0.62772861  1
  P  P5  1  0.76622299  0.32084402  0.84466894  1
  P  P6  1  0.69333949  0.22314104  0.66216571  1
  P  P7  1  0.31839028  0.91076008  0.84171899  1
  P  P8  1  0.68484644  0.08890099  0.16387030  1
  P  P9  1  0.31057277  0.77246097  0.34248151  1
  P  P10  1  0.22886533  0.68282059  0.15878763  1
  P  P11  1  0.33155515  0.33609534  0.36967163  1
  P  P12  1  0.33023673  0.33259027  0.86747233  1
  P  P13  1  0.08943187  0.68241565  0.65903275  1
  P  P14  1  0.22408683  0.08281021  0.65924739  1
  P  P15  1  0.09341361  0.22663179  0.15885709  1
  O  O0  1  0.00229811  0.77149190  0.57122524  1
  O  O1  1  0.91882345  0.74770270  0.33492338  1
  O  O2  1  0.77544561  0.99307219  0.08132371  1
  O  O3  1  0.74067218  0.91619926  0.82844487  1
  O  O4  1  0.89869196  0.61954543  0.81975015  1
  O  O5  1  0.81925168  0.65978981  0.17221224  1
  O  O6  1  0.91571142  0.46854694  0.33198472  1
  O  O7  1  0.99811928  0.24774625  0.07131391  1
  O  O8  1  0.91792398  0.33375506  0.83642781  1
  O  O9  1  0.67504167  0.81495246  0.66997450  1
  O  O10  1  0.61918386  0.91025666  0.33332483  1
  O  O11  1  0.81001106  0.51271784  0.66645126  1
  O  O12  1  0.66476593  0.66404003  0.02635355  1
  O  O13  1  0.66916041  0.67451095  0.52214571  1
  O  O14  1  0.66018334  0.52062765  0.17404456  1
  O  O15  1  0.47907451  0.90246105  0.81992223  1
  O  O16  1  0.52148045  0.82002882  0.17375863  1
  O  O17  1  0.74200234  0.34451246  0.32860003  1
  O  O18  1  0.78333155  0.20096683  0.76161204  1
  O  O19  1  0.80600406  0.20259486  0.58374981  1
  O  O20  1  0.75536130  0.25683926  0.93757488  1
  O  O21  1  0.62127102  0.48319961  0.82073097  1
  O  O22  1  0.51046359  0.68051319  0.66701239  1
  O  O23  1  0.66224462  0.25937521  0.16138556  1
  O  O24  1  0.46906259  0.61466045  0.32415255  1
  O  O25  1  0.33743564  0.91123544  0.33591672  1
  O  O26  1  0.78219580  0.01719331  0.26017154  1
  O  O27  1  0.78606101  0.98545881  0.43796861  1
  O  O28  1  0.20919901  0.99241851  0.57843688  1
  O  O29  1  0.65875045  0.08360663  0.66061045  1
  O  O30  1  0.54084432  0.38210497  0.66579114  1
  O  O31  1  0.34039129  0.74589489  0.83775713  1
  O  O32  1  0.48210701  0.33264427  0.32193146  1
  O  O33  1  0.37750047  0.51595974  0.17393873  1
  O  O34  1  0.24243062  0.77079546  0.07786865  1
  O  O35  1  0.23404838  0.76482966  0.43349415  1
  O  O36  1  0.20062799  0.78134983  0.25632764  1
  O  O37  1  0.25708463  0.66047059  0.66071503  1
  O  O38  1  0.47474530  0.18055288  0.82028449  1
  O  O39  1  0.51660737  0.11181252  0.17491366  1
  O  O40  1  0.33433754  0.47562321  0.82449131  1
  O  O41  1  0.33952546  0.32265400  0.97314536  1
  O  O42  1  0.33636653  0.34222870  0.47396810  1
  O  O43  1  0.18519656  0.48863972  0.32847544  1
  O  O44  1  0.38382224  0.07823808  0.66842402  1
  O  O45  1  0.33066463  0.18913604  0.32598619  1
  O  O46  1  0.08448716  0.65881582  0.15421996  1
  O  O47  1  0.00318054  0.78940923  0.75111246  1
  O  O48  1  0.98420252  0.76679282  0.93015764  1
  O  O49  1  0.09391757  0.52514797  0.67102567  1
  O  O50  1  0.18050696  0.32859634  0.83307914  1
  O  O51  1  0.11835566  0.36988803  0.17572884  1
  O  O52  1  0.25606291  0.07701099  0.15729788  1
  O  O53  1  0.24892176  0.99955952  0.93235419  1
  O  O54  1  0.20129282  0.01183877  0.75765380  1
  O  O55  1  0.08577452  0.25573746  0.65930629  1
  O  O56  1  0.97932198  0.22695402  0.43158145  1
  O  O57  1  0.00461653  0.20681210  0.25013199  1
loop_
_geom_bond_atom_site_label_1
_geom_bond_atom_site_label_2
_geom_bond_distance
_geom_bond_site_symmetry_2
Li0 O48 1.855591 1_554
Li0 O2 1.866378 1_555
Li0 O46 2.036465 1_655
Li0 O5 2.508340 1_555
Li1 O27 1.971356 1_555
Li1 O0 2.043997 1_655
Li1 O29 2.069797 1_565
Li1 O9 2.156454 1_555
Li2 O19 1.968943 1_555
Li2 O56 2.070073 1_555
Li2 O55 2.097206 1_655
Li2 O11 2.106512 1_555
Li3 O20 1.855152 1_554
Li3 O7 1.964810 1_555
Li3 O23 2.020781 1_555
Li3 O14 2.387012 1_555
Li4 O34 1.864338 1_555
Li4 O53 1.935843 1_554
Li4 O52 2.041589 1_565
Li4 O16 2.394621 1_555
Li5 O28 1.945875 1_555
Li5 O35 2.073101 1_555
Li5 O37 2.084066 1_555
Li5 O22 2.108584 1_555
Li6 O41 1.879989 1_554
Li6 O39 2.178324 1_555
Li6 O51 2.248686 1_555
Li6 O33 2.252516 1_555
Li7 O35 2.003329 1_555
Li7 O0 2.051515 1_555
Li7 O1 2.117967 1_455
Li7 O43 2.232272 1_555
Li8 O53 1.969232 1_545
Li8 O8 2.023918 1_455
Li8 O7 2.048049 1_456
Li8 O50 2.249531 1_555
Li9 O19 1.997856 1_555
Li9 O56 2.057295 1_555
Li9 O28 2.355075 1_645
Li9 O27 2.377800 1_545
O0 P13 1.515980 1_555
O1 P1 1.549561 1_555
O1 V4 1.978405 1_655
O2 P8 1.480353 1_565
O3 P0 1.561801 1_555
O3 V2 1.859282 1_555
O4 P0 1.552118 1_555
O4 V5 1.870897 1_555
O5 P3 1.588775 1_555
O5 V4 1.879550 1_655
O6 P2 1.532249 1_555
O6 V4 1.938910 1_655
O7 P15 1.503836 1_655
O8 P5 1.557816 1_555
O8 V5 1.966611 1_555
O9 P4 1.598527 1_555
O9 V2 1.933801 1_555
O10 P1 1.544041 1_555
O10 V3 1.914549 1_565
O11 P4 1.574906 1_555
O11 V5 1.979814 1_555
O12 P3 1.484099 1_555
O13 P4 1.495478 1_555
O14 P3 1.582013 1_555
O14 V0 1.918358 1_555
O15 P7 1.565404 1_555
O15 V2 1.848769 1_555
O16 P3 1.571453 1_555
O16 V3 1.921206 1_565
O17 P2 1.566581 1_555
O17 V0 1.835910 1_555
O18 P5 1.608404 1_555
O18 P6 1.618332 1_555
O19 P6 1.503398 1_555
O20 P5 1.483451 1_555
O21 P5 1.552885 1_555
O21 V1 1.864600 1_555
O22 P4 1.566912 1_555
O22 V1 2.012491 1_555
O23 P8 1.573130 1_555
O23 V0 1.964770 1_555
O24 P9 1.571244 1_555
O24 V0 1.839175 1_555
O25 P9 1.512537 1_555
O25 V3 1.967020 1_565
O26 P8 1.612214 1_555
O26 P1 1.617426 1_545
O27 P1 1.499063 1_555
O28 P14 1.496554 1_565
O29 P6 1.565456 1_555
O29 V2 1.961777 1_545
O30 P6 1.528796 1_555
O30 V1 1.967665 1_555
O31 P7 1.521279 1_555
O31 V1 1.962991 1_555
O32 P11 1.605792 1_555
O32 V0 1.830936 1_555
O33 P10 1.570340 1_555
O33 V0 1.962926 1_555
O34 P10 1.479451 1_555
O35 P9 1.508739 1_555
O36 P9 1.601990 1_555
O36 P10 1.624605 1_555
O37 P13 1.546935 1_555
O37 V1 1.986989 1_555
O38 P12 1.598583 1_555
O38 V2 1.831504 1_545
O39 P8 1.556087 1_555
O39 V3 1.984552 1_555
O40 P12 1.548314 1_555
O40 V1 1.926679 1_555
O41 P12 1.497928 1_555
O42 P11 1.478032 1_555
O43 P11 1.580354 1_555
O43 V4 1.947000 1_555
O44 P14 1.549208 1_555
O44 V2 1.933074 1_545
O45 P11 1.570923 1_555
O45 V3 1.882597 1_555
O46 P10 1.547419 1_555
O46 V4 2.014717 1_555
O47 P0 1.613965 1_455
O47 P13 1.616974 1_555
O48 P0 1.478200 1_555
O49 P13 1.530328 1_555
O49 V5 1.936904 1_455
O50 P12 1.565905 1_555
O50 V5 1.967508 1_455
O51 P15 1.559496 1_555
O51 V4 1.954539 1_555
O52 P15 1.535082 1_555
O52 V3 2.066916 1_555
O53 P7 1.504705 1_555
O54 P7 1.608512 1_545
O54 P14 1.621199 1_555
O55 P14 1.554278 1_555
O55 V5 1.965567 1_455
O56 P2 1.495220 1_555
O57 P2 1.613532 1_455
O57 P15 1.620338 1_555
