# generated using pymatgen
data_W
_symmetry_space_group_name_H-M   'P 1'
_cell_length_a   18.47855122
_cell_length_b   5.19973450
_cell_length_c   29.62658709
_cell_angle_alpha   90.00000000
_cell_angle_beta   99.95527827
_cell_angle_gamma   90.00000000
_symmetry_Int_Tables_number   1
_chemical_formula_structural   W
_chemical_formula_sum   W160
_cell_volume   2803.76626870
_cell_formula_units_Z   160
loop_
 _symmetry_equiv_pos_site_id
 _symmetry_equiv_pos_as_xyz
  1  'x, y, z'
loop_
 _atom_site_type_symbol
 _atom_site_label
 _atom_site_symmetry_multiplicity
 _atom_site_fract_x
 _atom_site_fract_y
 _atom_site_fract_z
 _atom_site_occupancy
  W  W0_0  1  0.17799046  0.25000000  0.48832189  1
  W  W0_1  1  0.17799046  0.25000000  0.98832188  1
  W  W0_2  1  0.17799046  0.75000000  0.48832189  1
  W  W0_3  1  0.17799046  0.75000000  0.98832188  1
  W  W0_4  1  0.67799046  0.25000000  0.48832189  1
  W  W0_5  1  0.67799046  0.25000000  0.98832188  1
  W  W0_6  1  0.67799046  0.75000000  0.48832189  1
  W  W0_7  1  0.67799046  0.75000000  0.98832188  1
  W  W1_0  1  0.32200954  0.25000000  0.01167811  1
  W  W1_1  1  0.32200953  0.25000000  0.51167812  1
  W  W1_2  1  0.32200954  0.75000000  0.01167811  1
  W  W1_3  1  0.32200953  0.75000000  0.51167812  1
  W  W1_4  1  0.82200953  0.25000000  0.01167811  1
  W  W1_5  1  0.82200953  0.25000000  0.51167812  1
  W  W1_6  1  0.82200953  0.75000000  0.01167811  1
  W  W1_7  1  0.82200953  0.75000000  0.51167812  1
  W  W2_0  1  0.03339363  0.25000000  0.46414900  1
  W  W2_1  1  0.03339363  0.25000000  0.96414900  1
  W  W2_2  1  0.03339363  0.75000000  0.46414900  1
  W  W2_3  1  0.03339363  0.75000000  0.96414900  1
  W  W2_4  1  0.53339363  0.25000000  0.46414900  1
  W  W2_5  1  0.53339363  0.25000000  0.96414900  1
  W  W2_6  1  0.53339363  0.75000000  0.46414900  1
  W  W2_7  1  0.53339363  0.75000000  0.96414900  1
  W  W3_0  1  0.46660637  0.25000000  0.03585100  1
  W  W3_1  1  0.46660637  0.25000000  0.53585100  1
  W  W3_2  1  0.46660637  0.75000000  0.03585100  1
  W  W3_3  1  0.46660637  0.75000000  0.53585100  1
  W  W3_4  1  0.96660637  0.25000000  0.03585100  1
  W  W3_5  1  0.96660637  0.25000000  0.53585100  1
  W  W3_6  1  0.96660637  0.75000000  0.03585100  1
  W  W3_7  1  0.96660637  0.75000000  0.53585100  1
  W  W4_0  1  0.38779037  0.25000000  0.43865676  1
  W  W4_1  1  0.38779036  0.25000000  0.93865675  1
  W  W4_2  1  0.38779037  0.75000000  0.43865676  1
  W  W4_3  1  0.38779036  0.75000000  0.93865675  1
  W  W4_4  1  0.88779036  0.25000000  0.43865676  1
  W  W4_5  1  0.88779036  0.25000000  0.93865675  1
  W  W4_6  1  0.88779036  0.75000000  0.43865676  1
  W  W4_7  1  0.88779036  0.75000000  0.93865675  1
  W  W5_0  1  0.11220964  0.25000000  0.06134324  1
  W  W5_1  1  0.11220964  0.25000000  0.56134324  1
  W  W5_2  1  0.11220964  0.75000000  0.06134324  1
  W  W5_3  1  0.11220964  0.75000000  0.56134324  1
  W  W5_4  1  0.61220964  0.25000000  0.06134324  1
  W  W5_5  1  0.61220963  0.25000000  0.56134324  1
  W  W5_6  1  0.61220964  0.75000000  0.06134324  1
  W  W5_7  1  0.61220963  0.75000000  0.56134324  1
  W  W6_0  1  0.24344172  0.25000000  0.41413882  1
  W  W6_1  1  0.24344172  0.25000000  0.91413882  1
  W  W6_2  1  0.24344172  0.75000000  0.41413882  1
  W  W6_3  1  0.24344172  0.75000000  0.91413882  1
  W  W6_4  1  0.74344172  0.25000000  0.41413882  1
  W  W6_5  1  0.74344172  0.25000000  0.91413882  1
  W  W6_6  1  0.74344172  0.75000000  0.41413882  1
  W  W6_7  1  0.74344172  0.75000000  0.91413882  1
  W  W7_0  1  0.25655828  0.25000000  0.08586118  1
  W  W7_1  1  0.25655828  0.25000000  0.58586118  1
  W  W7_2  1  0.25655828  0.75000000  0.08586118  1
  W  W7_3  1  0.25655828  0.75000000  0.58586118  1
  W  W7_4  1  0.75655828  0.25000000  0.08586118  1
  W  W7_5  1  0.75655828  0.25000000  0.58586118  1
  W  W7_6  1  0.75655828  0.75000000  0.08586118  1
  W  W7_7  1  0.75655828  0.75000000  0.58586118  1
  W  W8_0  1  0.10003597  0.25000000  0.39107243  1
  W  W8_1  1  0.10003597  0.25000000  0.89107243  1
  W  W8_2  1  0.10003597  0.75000000  0.39107243  1
  W  W8_3  1  0.10003597  0.75000000  0.89107243  1
  W  W8_4  1  0.60003597  0.25000000  0.39107243  1
  W  W8_5  1  0.60003597  0.25000000  0.89107243  1
  W  W8_6  1  0.60003597  0.75000000  0.39107243  1
  W  W8_7  1  0.60003597  0.75000000  0.89107243  1
  W  W9_0  1  0.39996402  0.25000000  0.10892757  1
  W  W9_1  1  0.39996403  0.25000000  0.60892757  1
  W  W9_2  1  0.39996402  0.75000000  0.10892757  1
  W  W9_3  1  0.39996403  0.75000000  0.60892757  1
  W  W9_4  1  0.89996402  0.25000000  0.10892757  1
  W  W9_5  1  0.89996402  0.25000000  0.60892757  1
  W  W9_6  1  0.89996402  0.75000000  0.10892757  1
  W  W9_7  1  0.89996402  0.75000000  0.60892757  1
  W  W10_0  1  0.45467552  0.25000000  0.36738742  1
  W  W10_1  1  0.45467552  0.25000000  0.86738742  1
  W  W10_2  1  0.45467552  0.75000000  0.36738742  1
  W  W10_3  1  0.45467552  0.75000000  0.86738742  1
  W  W10_4  1  0.95467552  0.25000000  0.36738742  1
  W  W10_5  1  0.95467552  0.25000000  0.86738742  1
  W  W10_6  1  0.95467552  0.75000000  0.36738742  1
  W  W10_7  1  0.95467552  0.75000000  0.86738742  1
  W  W11_0  1  0.04532448  0.25000000  0.13261258  1
  W  W11_1  1  0.04532448  0.25000000  0.63261258  1
  W  W11_2  1  0.04532448  0.75000000  0.13261258  1
  W  W11_3  1  0.04532448  0.75000000  0.63261258  1
  W  W11_4  1  0.54532447  0.25000000  0.13261258  1
  W  W11_5  1  0.54532447  0.25000000  0.63261258  1
  W  W11_6  1  0.54532447  0.75000000  0.13261258  1
  W  W11_7  1  0.54532447  0.75000000  0.63261258  1
  W  W12_0  1  0.30884338  0.25000000  0.34136486  1
  W  W12_1  1  0.30884338  0.25000000  0.84136486  1
  W  W12_2  1  0.30884338  0.75000000  0.34136486  1
  W  W12_3  1  0.30884338  0.75000000  0.84136486  1
  W  W12_4  1  0.80884338  0.25000000  0.34136486  1
  W  W12_5  1  0.80884338  0.25000000  0.84136486  1
  W  W12_6  1  0.80884338  0.75000000  0.34136486  1
  W  W12_7  1  0.80884338  0.75000000  0.84136486  1
  W  W13_0  1  0.19115662  0.25000000  0.15863515  1
  W  W13_1  1  0.19115662  0.25000000  0.65863514  1
  W  W13_2  1  0.19115662  0.75000000  0.15863515  1
  W  W13_3  1  0.19115662  0.75000000  0.65863514  1
  W  W13_4  1  0.69115662  0.25000000  0.15863514  1
  W  W13_5  1  0.69115662  0.25000000  0.65863515  1
  W  W13_6  1  0.69115662  0.75000000  0.15863514  1
  W  W13_7  1  0.69115662  0.75000000  0.65863515  1
  W  W14_0  1  0.16541782  0.25000000  0.31681761  1
  W  W14_1  1  0.16541782  0.25000000  0.81681762  1
  W  W14_2  1  0.16541782  0.75000000  0.31681761  1
  W  W14_3  1  0.16541782  0.75000000  0.81681762  1
  W  W14_4  1  0.66541782  0.25000000  0.31681761  1
  W  W14_5  1  0.66541782  0.25000000  0.81681762  1
  W  W14_6  1  0.66541782  0.75000000  0.31681761  1
  W  W14_7  1  0.66541782  0.75000000  0.81681762  1
  W  W15_0  1  0.33458218  0.25000000  0.18318239  1
  W  W15_1  1  0.33458218  0.25000000  0.68318239  1
  W  W15_2  1  0.33458218  0.75000000  0.18318239  1
  W  W15_3  1  0.33458218  0.75000000  0.68318239  1
  W  W15_4  1  0.83458218  0.25000000  0.18318239  1
  W  W15_5  1  0.83458218  0.25000000  0.68318239  1
  W  W15_6  1  0.83458218  0.75000000  0.18318239  1
  W  W15_7  1  0.83458218  0.75000000  0.68318239  1
  W  W16_0  1  0.01989916  0.25000000  0.29512574  1
  W  W16_1  1  0.01989916  0.25000000  0.79512573  1
  W  W16_2  1  0.01989916  0.75000000  0.29512574  1
  W  W16_3  1  0.01989916  0.75000000  0.79512573  1
  W  W16_4  1  0.51989916  0.25000000  0.29512574  1
  W  W16_5  1  0.51989916  0.25000000  0.79512573  1
  W  W16_6  1  0.51989916  0.75000000  0.29512574  1
  W  W16_7  1  0.51989916  0.75000000  0.79512573  1
  W  W17_0  1  0.48010084  0.25000000  0.20487426  1
  W  W17_1  1  0.48010083  0.25000000  0.70487426  1
  W  W17_2  1  0.48010084  0.75000000  0.20487426  1
  W  W17_3  1  0.48010083  0.75000000  0.70487426  1
  W  W17_4  1  0.98010083  0.25000000  0.20487426  1
  W  W17_5  1  0.98010083  0.25000000  0.70487426  1
  W  W17_6  1  0.98010083  0.75000000  0.20487426  1
  W  W17_7  1  0.98010083  0.75000000  0.70487426  1
  W  W18_0  1  0.37657059  0.25000000  0.27161366  1
  W  W18_1  1  0.37657059  0.25000000  0.77161366  1
  W  W18_2  1  0.37657059  0.75000000  0.27161366  1
  W  W18_3  1  0.37657059  0.75000000  0.77161366  1
  W  W18_4  1  0.87657059  0.25000000  0.27161366  1
  W  W18_5  1  0.87657059  0.25000000  0.77161366  1
  W  W18_6  1  0.87657059  0.75000000  0.27161366  1
  W  W18_7  1  0.87657059  0.75000000  0.77161366  1
  W  W19_0  1  0.12342941  0.25000000  0.22838634  1
  W  W19_1  1  0.12342941  0.25000000  0.72838634  1
  W  W19_2  1  0.12342941  0.75000000  0.22838634  1
  W  W19_3  1  0.12342941  0.75000000  0.72838634  1
  W  W19_4  1  0.62342941  0.25000000  0.22838634  1
  W  W19_5  1  0.62342941  0.25000000  0.72838634  1
  W  W19_6  1  0.62342941  0.75000000  0.22838634  1
  W  W19_7  1  0.62342941  0.75000000  0.72838634  1
loop_
_geom_bond_atom_site_label_1
_geom_bond_atom_site_label_2
_geom_bond_distance
_geom_bond_site_symmetry_2
W0_0 W0_2 2.599867 1_545
W0_0 W0_2 2.599867 1_555
W0_0 W1_1 2.631430 1_555
W0_0 W2_0 2.643960 1_555
W0_0 W5_1 2.658371 1_555
W0_0 W6_0 2.685536 1_555
W0_0 W8_0 2.990174 1_555
W0_0 W7_1 3.001312 1_555
W0_1 W0_3 2.599867 1_545
W0_1 W0_3 2.599867 1_555
W0_1 W1_0 2.631430 1_556
W0_1 W2_1 2.643960 1_555
W0_1 W5_0 2.658371 1_556
W0_1 W6_1 2.685536 1_555
W0_1 W8_1 2.990174 1_555
W0_1 W7_0 3.001312 1_556
W0_2 W1_3 2.631430 1_555
W0_2 W2_2 2.643960 1_555
W0_2 W5_3 2.658371 1_555
W0_2 W6_2 2.685536 1_555
W0_2 W8_2 2.990174 1_555
W0_2 W7_3 3.001312 1_555
W0_3 W1_2 2.631430 1_556
W0_3 W2_3 2.643960 1_555
W0_3 W5_2 2.658371 1_556
W0_3 W6_3 2.685536 1_555
W0_3 W8_3 2.990174 1_555
W0_3 W7_2 3.001312 1_556
W0_4 W0_6 2.599867 1_545
W0_4 W0_6 2.599867 1_555
W0_4 W1_5 2.631430 1_555
W0_4 W2_4 2.643960 1_555
W0_4 W5_5 2.658371 1_555
W0_4 W6_4 2.685536 1_555
W0_4 W8_4 2.990174 1_555
W0_4 W7_5 3.001312 1_555
W0_5 W0_7 2.599867 1_555
W0_5 W0_7 2.599867 1_545
W0_5 W1_4 2.631430 1_556
W0_5 W2_5 2.643960 1_555
W0_5 W5_4 2.658371 1_556
W0_5 W6_5 2.685536 1_555
W0_5 W8_5 2.990174 1_555
W0_5 W7_4 3.001312 1_556
W0_6 W1_7 2.631430 1_555
W0_6 W2_6 2.643960 1_555
W0_6 W5_7 2.658371 1_555
W0_6 W6_6 2.685536 1_555
W0_6 W8_6 2.990174 1_555
W0_6 W7_7 3.001312 1_555
W0_7 W1_6 2.631430 1_556
W0_7 W2_7 2.643960 1_555
W0_7 W5_6 2.658371 1_556
W0_7 W6_7 2.685536 1_555
W0_7 W8_7 2.990174 1_555
W0_7 W7_6 3.001312 1_556
W1_0 W1_2 2.599867 1_545
W1_0 W1_2 2.599867 1_555
W1_0 W3_0 2.643960 1_555
W1_0 W4_1 2.658371 1_554
W1_0 W7_0 2.685536 1_555
W1_0 W9_0 2.990174 1_555
W1_0 W6_1 3.001312 1_554
W1_1 W1_3 2.599867 1_545
W1_1 W1_3 2.599867 1_555
W1_1 W3_1 2.643960 1_555
W1_1 W4_0 2.658371 1_555
W1_1 W7_1 2.685536 1_555
W1_1 W9_1 2.990174 1_555
W1_1 W6_0 3.001312 1_555
W1_2 W3_2 2.643960 1_555
W1_2 W4_3 2.658371 1_554
W1_2 W7_2 2.685536 1_555
W1_2 W9_2 2.990174 1_555
W1_2 W6_3 3.001312 1_554
W1_3 W3_3 2.643960 1_555
W1_3 W4_2 2.658371 1_555
W1_3 W7_3 2.685536 1_555
W1_3 W9_3 2.990174 1_555
W1_3 W6_2 3.001312 1_555
W1_4 W1_6 2.599867 1_555
W1_4 W1_6 2.599867 1_545
W1_4 W3_4 2.643960 1_555
W1_4 W4_5 2.658371 1_554
W1_4 W7_4 2.685536 1_555
W1_4 W9_4 2.990174 1_555
W1_4 W6_5 3.001312 1_554
W1_5 W1_7 2.599867 1_545
W1_5 W1_7 2.599867 1_555
W1_5 W3_5 2.643960 1_555
W1_5 W4_4 2.658371 1_555
W1_5 W7_5 2.685536 1_555
W1_5 W9_5 2.990174 1_555
W1_5 W6_4 3.001312 1_555
W1_6 W3_6 2.643960 1_555
W1_6 W4_7 2.658371 1_554
W1_6 W7_6 2.685536 1_555
W1_6 W9_6 2.990174 1_555
W1_6 W6_7 3.001312 1_554
W1_7 W3_7 2.643960 1_555
W1_7 W4_6 2.658371 1_555
W1_7 W7_7 2.685536 1_555
W1_7 W9_7 2.990174 1_555
W1_7 W6_6 3.001312 1_555
W2_0 W2_2 2.599867 1_555
W2_0 W2_2 2.599867 1_545
W2_0 W3_5 2.634792 1_455
W2_0 W4_4 2.665858 1_455
W2_0 W8_0 2.669377 1_555
W2_0 W5_1 2.993793 1_555
W2_1 W2_3 2.599867 1_545
W2_1 W2_3 2.599867 1_555
W2_1 W3_4 2.634792 1_456
W2_1 W4_5 2.665858 1_455
W2_1 W8_1 2.669377 1_555
W2_1 W5_0 2.993793 1_556
W2_2 W3_7 2.634792 1_455
W2_2 W4_6 2.665858 1_455
W2_2 W8_2 2.669377 1_555
W2_2 W5_3 2.993793 1_555
W2_3 W3_6 2.634792 1_456
W2_3 W4_7 2.665858 1_455
W2_3 W8_3 2.669377 1_555
W2_3 W5_2 2.993793 1_556
W2_4 W2_6 2.599867 1_555
W2_4 W2_6 2.599867 1_545
W2_4 W3_1 2.634792 1_555
W2_4 W4_0 2.665858 1_555
W2_4 W8_4 2.669377 1_555
W2_4 W5_5 2.993793 1_555
W2_5 W2_7 2.599867 1_545
W2_5 W2_7 2.599867 1_555
W2_5 W3_0 2.634792 1_556
W2_5 W4_1 2.665858 1_555
W2_5 W8_5 2.669377 1_555
W2_5 W5_4 2.993793 1_556
W2_6 W3_3 2.634792 1_555
W2_6 W4_2 2.665858 1_555
W2_6 W8_6 2.669377 1_555
W2_6 W5_7 2.993793 1_555
W2_7 W3_2 2.634792 1_556
W2_7 W4_3 2.665858 1_555
W2_7 W8_7 2.669377 1_555
W2_7 W5_6 2.993793 1_556
W3_0 W3_2 2.599867 1_545
W3_0 W3_2 2.599867 1_555
W3_0 W5_4 2.665858 1_555
W3_0 W9_0 2.669377 1_555
W3_0 W4_1 2.993793 1_554
W3_1 W3_3 2.599867 1_555
W3_1 W3_3 2.599867 1_545
W3_1 W5_5 2.665858 1_555
W3_1 W9_1 2.669377 1_555
W3_1 W4_0 2.993793 1_555
W3_2 W5_6 2.665858 1_555
W3_2 W9_2 2.669377 1_555
W3_2 W4_3 2.993793 1_554
W3_3 W5_7 2.665858 1_555
W3_3 W9_3 2.669377 1_555
W3_3 W4_2 2.993793 1_555
W3_4 W3_6 2.599867 1_545
W3_4 W3_6 2.599867 1_555
W3_4 W5_0 2.665858 1_655
W3_4 W9_4 2.669377 1_555
W3_4 W4_5 2.993793 1_554
W3_5 W3_7 2.599867 1_555
W3_5 W3_7 2.599867 1_545
W3_5 W5_1 2.665858 1_655
W3_5 W9_5 2.669377 1_555
W3_5 W4_4 2.993793 1_555
W3_6 W5_2 2.665858 1_655
W3_6 W9_6 2.669377 1_555
W3_6 W4_7 2.993793 1_554
W3_7 W5_3 2.665858 1_655
W3_7 W9_7 2.669377 1_555
W3_7 W4_6 2.993793 1_555
W4_0 W4_2 2.599867 1_555
W4_0 W4_2 2.599867 1_545
W4_0 W6_0 2.640548 1_555
W4_1 W4_3 2.599867 1_545
W4_1 W4_3 2.599867 1_555
W4_1 W6_1 2.640548 1_555
W4_2 W6_2 2.640548 1_555
W4_3 W6_3 2.640548 1_555
W4_4 W4_6 2.599867 1_555
W4_4 W4_6 2.599867 1_545
W4_4 W6_4 2.640548 1_555
W4_5 W4_7 2.599867 1_555
W4_5 W4_7 2.599867 1_545
W4_5 W6_5 2.640548 1_555
W4_6 W6_6 2.640548 1_555
W4_7 W6_7 2.640548 1_555
W5_0 W5_2 2.599867 1_545
W5_0 W5_2 2.599867 1_555
W5_0 W7_0 2.640548 1_555
W5_1 W5_3 2.599867 1_545
W5_1 W5_3 2.599867 1_555
W5_1 W7_1 2.640548 1_555
W5_2 W7_2 2.640548 1_555
W5_3 W7_3 2.640548 1_555
W5_4 W5_6 2.599867 1_545
W5_4 W5_6 2.599867 1_555
W5_4 W7_4 2.640548 1_555
W5_5 W5_7 2.599867 1_545
W5_5 W5_7 2.599867 1_555
W5_5 W7_5 2.640548 1_555
W5_6 W7_6 2.640548 1_555
W5_7 W7_7 2.640548 1_555
W6_0 W6_2 2.599867 1_545
W6_0 W6_2 2.599867 1_555
W6_0 W8_0 2.619733 1_555
W6_1 W6_3 2.599867 1_555
W6_1 W6_3 2.599867 1_545
W6_1 W8_1 2.619733 1_555
W6_2 W8_2 2.619733 1_555
W6_3 W8_3 2.619733 1_555
W6_4 W6_6 2.599867 1_545
W6_4 W6_6 2.599867 1_555
W6_4 W8_4 2.619733 1_555
W6_5 W6_7 2.599867 1_545
W6_5 W6_7 2.599867 1_555
W6_5 W8_5 2.619733 1_555
W6_6 W8_6 2.619733 1_555
W6_7 W8_7 2.619733 1_555
W7_0 W7_2 2.599867 1_555
W7_0 W7_2 2.599867 1_545
W7_0 W9_0 2.619733 1_555
W7_1 W7_3 2.599867 1_545
W7_1 W7_3 2.599867 1_555
W7_1 W9_1 2.619733 1_555
W7_2 W9_2 2.619733 1_555
W7_3 W9_3 2.619733 1_555
W7_4 W7_6 2.599867 1_545
W7_4 W7_6 2.599867 1_555
W7_4 W9_4 2.619733 1_555
W7_5 W7_7 2.599867 1_545
W7_5 W7_7 2.599867 1_555
W7_5 W9_5 2.619733 1_555
W7_6 W9_6 2.619733 1_555
W7_7 W9_7 2.619733 1_555
W8_0 W8_2 2.599867 1_555
W8_0 W8_2 2.599867 1_545
W8_1 W8_3 2.599867 1_555
W8_1 W8_3 2.599867 1_545
W8_4 W8_6 2.599867 1_555
W8_4 W8_6 2.599867 1_545
W8_5 W8_7 2.599867 1_545
W8_5 W8_7 2.599867 1_555
W9_0 W9_2 2.599867 1_545
W9_0 W9_2 2.599867 1_555
W9_1 W9_3 2.599867 1_555
W9_1 W9_3 2.599867 1_545
W9_4 W9_6 2.599867 1_555
W9_4 W9_6 2.599867 1_545
W9_5 W9_7 2.599867 1_545
W9_5 W9_7 2.599867 1_555
W10_0 W10_2 2.599867 1_545
W10_0 W10_2 2.599867 1_555
W10_0 W4_0 2.624529 1_555
W10_0 W16_4 2.632121 1_555
W10_0 W8_4 2.656232 1_555
W10_0 W12_0 2.671669 1_555
W10_0 W18_0 2.952658 1_555
W10_0 W2_4 2.981966 1_555
W10_1 W10_3 2.599867 1_555
W10_1 W10_3 2.599867 1_545
W10_1 W4_1 2.624529 1_555
W10_1 W16_5 2.632121 1_555
W10_1 W8_5 2.656232 1_555
W10_1 W12_1 2.671669 1_555
W10_1 W18_1 2.952658 1_555
W10_1 W2_5 2.981966 1_555
W10_2 W4_2 2.624529 1_555
W10_2 W16_6 2.632121 1_555
W10_2 W8_6 2.656232 1_555
W10_2 W12_2 2.671669 1_555
W10_2 W18_2 2.952658 1_555
W10_2 W2_6 2.981966 1_555
W10_3 W4_3 2.624529 1_555
W10_3 W16_7 2.632121 1_555
W10_3 W8_7 2.656232 1_555
W10_3 W12_3 2.671669 1_555
W10_3 W18_3 2.952658 1_555
W10_3 W2_7 2.981966 1_555
W10_4 W10_6 2.599867 1_545
W10_4 W10_6 2.599867 1_555
W10_4 W4_4 2.624529 1_555
W10_4 W16_0 2.632121 1_655
W10_4 W8_0 2.656232 1_655
W10_4 W12_4 2.671669 1_555
W10_4 W18_4 2.952658 1_555
W10_4 W2_0 2.981966 1_655
W10_5 W10_7 2.599867 1_545
W10_5 W10_7 2.599867 1_555
W10_5 W4_5 2.624529 1_555
W10_5 W16_1 2.632121 1_655
W10_5 W8_1 2.656232 1_655
W10_5 W12_5 2.671669 1_555
W10_5 W18_5 2.952658 1_555
W10_5 W2_1 2.981966 1_655
W10_6 W4_6 2.624529 1_555
W10_6 W16_2 2.632121 1_655
W10_6 W8_2 2.656232 1_655
W10_6 W12_6 2.671669 1_555
W10_6 W18_6 2.952658 1_555
W10_6 W2_2 2.981966 1_655
W10_7 W4_7 2.624529 1_555
W10_7 W16_3 2.632121 1_655
W10_7 W8_3 2.656232 1_655
W10_7 W12_7 2.671669 1_555
W10_7 W18_7 2.952658 1_555
W10_7 W2_3 2.981966 1_655
W11_0 W11_2 2.599867 1_555
W11_0 W11_2 2.599867 1_545
W11_0 W5_0 2.624529 1_555
W11_0 W17_4 2.632121 1_455
W11_0 W9_4 2.656232 1_455
W11_0 W13_0 2.671669 1_555
W11_0 W19_0 2.952658 1_555
W11_0 W3_4 2.981966 1_455
W11_1 W11_3 2.599867 1_545
W11_1 W11_3 2.599867 1_555
W11_1 W5_1 2.624529 1_555
W11_1 W17_5 2.632121 1_455
W11_1 W9_5 2.656232 1_455
W11_1 W13_1 2.671669 1_555
W11_1 W19_1 2.952658 1_555
W11_1 W3_5 2.981966 1_455
W11_2 W5_2 2.624529 1_555
W11_2 W17_6 2.632121 1_455
W11_2 W9_6 2.656232 1_455
W11_2 W13_2 2.671669 1_555
W11_2 W19_2 2.952658 1_555
W11_2 W3_6 2.981966 1_455
W11_3 W5_3 2.624529 1_555
W11_3 W17_7 2.632121 1_455
W11_3 W9_7 2.656232 1_455
W11_3 W13_3 2.671669 1_555
W11_3 W19_3 2.952658 1_555
W11_3 W3_7 2.981966 1_455
W11_4 W11_6 2.599867 1_555
W11_4 W11_6 2.599867 1_545
W11_4 W5_4 2.624529 1_555
W11_4 W17_0 2.632121 1_555
W11_4 W9_0 2.656232 1_555
W11_4 W13_4 2.671669 1_555
W11_4 W19_4 2.952658 1_555
W11_4 W3_0 2.981966 1_555
W11_5 W11_7 2.599867 1_555
W11_5 W11_7 2.599867 1_545
W11_5 W5_5 2.624529 1_555
W11_5 W17_1 2.632121 1_555
W11_5 W9_1 2.656232 1_555
W11_5 W13_5 2.671669 1_555
W11_5 W19_5 2.952658 1_555
W11_5 W3_1 2.981966 1_555
W11_6 W5_6 2.624529 1_555
W11_6 W17_2 2.632121 1_555
W11_6 W9_2 2.656232 1_555
W11_6 W13_6 2.671669 1_555
W11_6 W19_6 2.952658 1_555
W11_6 W3_2 2.981966 1_555
W11_7 W5_7 2.624529 1_555
W11_7 W17_3 2.632121 1_555
W11_7 W9_3 2.656232 1_555
W11_7 W13_7 2.671669 1_555
W11_7 W19_7 2.952658 1_555
W11_7 W3_3 2.981966 1_555
W12_0 W18_0 2.594386 1_555
W12_0 W12_2 2.599867 1_545
W12_0 W12_2 2.599867 1_555
W12_0 W14_0 2.624222 1_555
W12_0 W6_0 2.647639 1_555
W12_0 W4_0 2.997108 1_555
W12_1 W18_1 2.594386 1_555
W12_1 W12_3 2.599867 1_545
W12_1 W12_3 2.599867 1_555
W12_1 W14_1 2.624222 1_555
W12_1 W6_1 2.647639 1_555
W12_1 W4_1 2.997108 1_555
W12_2 W18_2 2.594386 1_555
W12_2 W14_2 2.624222 1_555
W12_2 W6_2 2.647639 1_555
W12_2 W4_2 2.997108 1_555
W12_3 W18_3 2.594386 1_555
W12_3 W14_3 2.624222 1_555
W12_3 W6_3 2.647639 1_555
W12_3 W4_3 2.997108 1_555
W12_4 W18_4 2.594386 1_555
W12_4 W12_6 2.599867 1_545
W12_4 W12_6 2.599867 1_555
W12_4 W14_4 2.624222 1_555
W12_4 W6_4 2.647639 1_555
W12_4 W4_4 2.997108 1_555
W12_5 W18_5 2.594386 1_555
W12_5 W12_7 2.599867 1_545
W12_5 W12_7 2.599867 1_555
W12_5 W14_5 2.624222 1_555
W12_5 W6_5 2.647639 1_555
W12_5 W4_5 2.997108 1_555
W12_6 W18_6 2.594386 1_555
W12_6 W14_6 2.624222 1_555
W12_6 W6_6 2.647639 1_555
W12_6 W4_6 2.997108 1_555
W12_7 W18_7 2.594386 1_555
W12_7 W14_7 2.624222 1_555
W12_7 W6_7 2.647639 1_555
W12_7 W4_7 2.997108 1_555
W13_0 W19_0 2.594386 1_555
W13_0 W13_2 2.599867 1_545
W13_0 W13_2 2.599867 1_555
W13_0 W15_0 2.624222 1_555
W13_0 W7_0 2.647639 1_555
W13_0 W5_0 2.997108 1_555
W13_1 W19_1 2.594386 1_555
W13_1 W13_3 2.599867 1_555
W13_1 W13_3 2.599867 1_545
W13_1 W15_1 2.624222 1_555
W13_1 W7_1 2.647639 1_555
W13_1 W5_1 2.997108 1_555
W13_2 W19_2 2.594386 1_555
W13_2 W15_2 2.624222 1_555
W13_2 W7_2 2.647639 1_555
W13_2 W5_2 2.997108 1_555
W13_3 W19_3 2.594386 1_555
W13_3 W15_3 2.624222 1_555
W13_3 W7_3 2.647639 1_555
W13_3 W5_3 2.997108 1_555
W13_4 W19_4 2.594386 1_555
W13_4 W13_6 2.599867 1_555
W13_4 W13_6 2.599867 1_545
W13_4 W15_4 2.624222 1_555
W13_4 W7_4 2.647639 1_555
W13_4 W5_4 2.997108 1_555
W13_5 W19_5 2.594386 1_555
W13_5 W13_7 2.599867 1_555
W13_5 W13_7 2.599867 1_545
W13_5 W15_5 2.624222 1_555
W13_5 W7_5 2.647639 1_555
W13_5 W5_5 2.997108 1_555
W13_6 W19_6 2.594386 1_555
W13_6 W15_6 2.624222 1_555
W13_6 W7_6 2.647639 1_555
W13_6 W5_6 2.997108 1_555
W13_7 W19_7 2.594386 1_555
W13_7 W15_7 2.624222 1_555
W13_7 W7_7 2.647639 1_555
W13_7 W5_7 2.997108 1_555
W14_0 W14_2 2.599867 1_555
W14_0 W14_2 2.599867 1_545
W14_0 W19_0 2.600600 1_555
W14_0 W16_0 2.654447 1_555
W14_0 W8_0 2.686683 1_555
W14_0 W6_0 2.992449 1_555
W14_1 W14_3 2.599867 1_545
W14_1 W14_3 2.599867 1_555
W14_1 W19_1 2.600600 1_555
W14_1 W16_1 2.654447 1_555
W14_1 W8_1 2.686683 1_555
W14_1 W6_1 2.992449 1_555
W14_2 W19_2 2.600600 1_555
W14_2 W16_2 2.654447 1_555
W14_2 W8_2 2.686683 1_555
W14_2 W6_2 2.992449 1_555
W14_3 W19_3 2.600600 1_555
W14_3 W16_3 2.654447 1_555
W14_3 W8_3 2.686683 1_555
W14_3 W6_3 2.992449 1_555
W14_4 W14_6 2.599867 1_545
W14_4 W14_6 2.599867 1_555
W14_4 W19_4 2.600600 1_555
W14_4 W16_4 2.654447 1_555
W14_4 W8_4 2.686683 1_555
W14_4 W6_4 2.992449 1_555
W14_5 W14_7 2.599867 1_555
W14_5 W14_7 2.599867 1_545
W14_5 W19_5 2.600600 1_555
W14_5 W16_5 2.654447 1_555
W14_5 W8_5 2.686683 1_555
W14_5 W6_5 2.992449 1_555
W14_6 W19_6 2.600600 1_555
W14_6 W16_6 2.654447 1_555
W14_6 W8_6 2.686683 1_555
W14_6 W6_6 2.992449 1_555
W14_7 W19_7 2.600600 1_555
W14_7 W16_7 2.654447 1_555
W14_7 W8_7 2.686683 1_555
W14_7 W6_7 2.992449 1_555
W15_0 W15_2 2.599867 1_545
W15_0 W15_2 2.599867 1_555
W15_0 W18_0 2.600600 1_555
W15_0 W17_0 2.654447 1_555
W15_0 W9_0 2.686683 1_555
W15_0 W7_0 2.992449 1_555
W15_1 W15_3 2.599867 1_545
W15_1 W15_3 2.599867 1_555
W15_1 W18_1 2.600600 1_555
W15_1 W17_1 2.654447 1_555
W15_1 W9_1 2.686683 1_555
W15_1 W7_1 2.992449 1_555
W15_2 W18_2 2.600600 1_555
W15_2 W17_2 2.654447 1_555
W15_2 W9_2 2.686683 1_555
W15_2 W7_2 2.992449 1_555
W15_3 W18_3 2.600600 1_555
W15_3 W17_3 2.654447 1_555
W15_3 W9_3 2.686683 1_555
W15_3 W7_3 2.992449 1_555
W15_4 W15_6 2.599867 1_555
W15_4 W15_6 2.599867 1_545
W15_4 W18_4 2.600600 1_555
W15_4 W17_4 2.654447 1_555
W15_4 W9_4 2.686683 1_555
W15_4 W7_4 2.992449 1_555
W15_5 W15_7 2.599867 1_545
W15_5 W15_7 2.599867 1_555
W15_5 W18_5 2.600600 1_555
W15_5 W17_5 2.654447 1_555
W15_5 W9_5 2.686683 1_555
W15_5 W7_5 2.992449 1_555
W15_6 W18_6 2.600600 1_555
W15_6 W17_6 2.654447 1_555
W15_6 W9_6 2.686683 1_555
W15_6 W7_6 2.992449 1_555
W15_7 W18_7 2.600600 1_555
W15_7 W17_7 2.654447 1_555
W15_7 W9_7 2.686683 1_555
W15_7 W7_7 2.992449 1_555
W16_0 W16_2 2.599867 1_545
W16_0 W16_2 2.599867 1_555
W16_0 W18_4 2.619525 1_455
W16_0 W17_4 2.647712 1_455
W16_0 W8_0 2.969447 1_555
W16_0 W19_0 2.979490 1_555
W16_1 W16_3 2.599867 1_555
W16_1 W16_3 2.599867 1_545
W16_1 W18_5 2.619525 1_455
W16_1 W17_5 2.647712 1_455
W16_1 W8_1 2.969447 1_555
W16_1 W19_1 2.979490 1_555
W16_2 W18_6 2.619525 1_455
W16_2 W17_6 2.647712 1_455
W16_2 W8_2 2.969447 1_555
W16_2 W19_2 2.979490 1_555
W16_3 W18_7 2.619525 1_455
W16_3 W17_7 2.647712 1_455
W16_3 W8_3 2.969447 1_555
W16_3 W19_3 2.979490 1_555
W16_4 W16_6 2.599867 1_545
W16_4 W16_6 2.599867 1_555
W16_4 W18_0 2.619525 1_555
W16_4 W17_0 2.647712 1_555
W16_4 W8_4 2.969447 1_555
W16_4 W19_4 2.979490 1_555
W16_5 W16_7 2.599867 1_545
W16_5 W16_7 2.599867 1_555
W16_5 W18_1 2.619525 1_555
W16_5 W17_1 2.647712 1_555
W16_5 W8_5 2.969447 1_555
W16_5 W19_5 2.979490 1_555
W16_6 W18_2 2.619525 1_555
W16_6 W17_2 2.647712 1_555
W16_6 W8_6 2.969447 1_555
W16_6 W19_6 2.979490 1_555
W16_7 W18_3 2.619525 1_555
W16_7 W17_3 2.647712 1_555
W16_7 W8_7 2.969447 1_555
W16_7 W19_7 2.979490 1_555
W17_0 W17_2 2.599867 1_545
W17_0 W17_2 2.599867 1_555
W17_0 W19_4 2.619525 1_555
W17_0 W9_0 2.969447 1_555
W17_0 W18_0 2.979490 1_555
W17_1 W17_3 2.599867 1_555
W17_1 W17_3 2.599867 1_545
W17_1 W19_5 2.619525 1_555
W17_1 W9_1 2.969447 1_555
W17_1 W18_1 2.979490 1_555
W17_2 W19_6 2.619525 1_555
W17_2 W9_2 2.969447 1_555
W17_2 W18_2 2.979490 1_555
W17_3 W19_7 2.619525 1_555
W17_3 W9_3 2.969447 1_555
W17_3 W18_3 2.979490 1_555
W17_4 W17_6 2.599867 1_555
W17_4 W17_6 2.599867 1_545
W17_4 W19_0 2.619525 1_655
W17_4 W9_4 2.969447 1_555
W17_4 W18_4 2.979490 1_555
W17_5 W17_7 2.599867 1_555
W17_5 W17_7 2.599867 1_545
W17_5 W19_1 2.619525 1_655
W17_5 W9_5 2.969447 1_555
W17_5 W18_5 2.979490 1_555
W17_6 W19_2 2.619525 1_655
W17_6 W9_6 2.969447 1_555
W17_6 W18_6 2.979490 1_555
W17_7 W19_3 2.619525 1_655
W17_7 W9_7 2.969447 1_555
W17_7 W18_7 2.979490 1_555
W18_0 W18_2 2.599867 1_555
W18_0 W18_2 2.599867 1_545
W18_1 W18_3 2.599867 1_545
W18_1 W18_3 2.599867 1_555
W18_4 W18_6 2.599867 1_545
W18_4 W18_6 2.599867 1_555
W18_5 W18_7 2.599867 1_555
W18_5 W18_7 2.599867 1_545
W19_0 W19_2 2.599867 1_545
W19_0 W19_2 2.599867 1_555
W19_1 W19_3 2.599867 1_555
W19_1 W19_3 2.599867 1_545
W19_4 W19_6 2.599867 1_555
W19_4 W19_6 2.599867 1_545
W19_5 W19_7 2.599867 1_555
W19_5 W19_7 2.599867 1_545
