# generated using pymatgen
data_PH8IN4
_symmetry_space_group_name_H-M   'P 1'
_cell_length_a   7.93209500
_cell_length_b   7.70443300
_cell_length_c   7.70443300
_cell_angle_alpha   90.00000000
_cell_angle_beta   90.00000000
_cell_angle_gamma   90.00000000
_symmetry_Int_Tables_number   1
_chemical_formula_structural   PH8IN4
_chemical_formula_sum   'P2 H16 I2 N8'
_cell_volume   470.83557828
_cell_formula_units_Z   2
loop_
 _symmetry_equiv_pos_site_id
 _symmetry_equiv_pos_as_xyz
  1  'x, y, z'
loop_
 _atom_site_type_symbol
 _atom_site_label
 _atom_site_symmetry_multiplicity
 _atom_site_fract_x
 _atom_site_fract_y
 _atom_site_fract_z
 _atom_site_occupancy
  P  P0  1  0.50000000  0.75000000  0.25000000  1
  P  P1  1  0.50000000  0.25000000  0.75000000  1
  H  H0  1  0.16258000  0.42809900  0.72553500  1
  H  H1  1  0.16258000  0.92809900  0.27446500  1
  H  H2  1  0.16258000  0.57190100  0.22553500  1
  H  H3  1  0.16258000  0.07190100  0.77446500  1
  H  H4  1  0.83742000  0.57190100  0.27446500  1
  H  H5  1  0.83742000  0.07190100  0.72553500  1
  H  H6  1  0.83742000  0.42809900  0.77446500  1
  H  H7  1  0.83742000  0.92809900  0.22553500  1
  H  H8  1  0.83742000  0.72553500  0.42809900  1
  H  H9  1  0.83742000  0.27446500  0.92809900  1
  H  H10  1  0.83742000  0.22553500  0.57190100  1
  H  H11  1  0.83742000  0.77446500  0.07190100  1
  H  H12  1  0.16258000  0.27446500  0.57190100  1
  H  H13  1  0.16258000  0.72553500  0.07190100  1
  H  H14  1  0.16258000  0.77446500  0.42809900  1
  H  H15  1  0.16258000  0.22553500  0.92809900  1
  I  I0  1  0.00000000  0.75000000  0.75000000  1
  I  I1  1  0.00000000  0.25000000  0.25000000  1
  N  N0  1  0.22115000  0.31639300  0.68360700  1
  N  N1  1  0.22115000  0.81639300  0.31639300  1
  N  N2  1  0.22115000  0.68360700  0.18360700  1
  N  N3  1  0.22115000  0.18360700  0.81639300  1
  N  N4  1  0.77885000  0.68360700  0.31639300  1
  N  N5  1  0.77885000  0.18360700  0.68360700  1
  N  N6  1  0.77885000  0.31639300  0.81639300  1
  N  N7  1  0.77885000  0.81639300  0.18360700  1
loop_
_geom_bond_atom_site_label_1
_geom_bond_atom_site_label_2
_geom_bond_distance
_geom_bond_site_symmetry_2
H0 N0 1.029987 1_555
H1 N1 1.029987 1_555
H2 N2 1.029987 1_555
H3 N3 1.029987 1_555
H4 N4 1.029987 1_555
H5 N5 1.029987 1_555
H6 N6 1.029987 1_555
H7 N7 1.029987 1_555
H8 N4 1.029987 1_555
H9 N6 1.029987 1_555
H10 N5 1.029987 1_555
H11 N7 1.029987 1_555
H12 N0 1.029987 1_555
H13 N2 1.029987 1_555
H14 N1 1.029987 1_555
H15 N3 1.029987 1_555
N0 P1 2.327155 1_555
N1 P0 2.327155 1_555
N2 P0 2.327155 1_555
N3 P1 2.327155 1_555
N4 P0 2.327155 1_555
N5 P1 2.327155 1_555
N6 P1 2.327155 1_555
N7 P0 2.327155 1_555
