# generated using pymatgen
data_Li4Co3O7
_symmetry_space_group_name_H-M   'P 1'
_cell_length_a   5.86511679
_cell_length_b   7.73293281
_cell_length_c   6.56506518
_cell_angle_alpha   104.37615232
_cell_angle_beta   76.02166842
_cell_angle_gamma   67.56834511
_symmetry_Int_Tables_number   1
_chemical_formula_structural   Li4Co3O7
_chemical_formula_sum   'Li8 Co6 O14'
_cell_volume   247.08875419
_cell_formula_units_Z   2
loop_
 _symmetry_equiv_pos_site_id
 _symmetry_equiv_pos_as_xyz
  1  'x, y, z'
loop_
 _atom_site_type_symbol
 _atom_site_label
 _atom_site_symmetry_multiplicity
 _atom_site_fract_x
 _atom_site_fract_y
 _atom_site_fract_z
 _atom_site_occupancy
  Li  Li0  1  0.35714300  0.71428600  0.14285700  1
  Li  Li1  1  0.20866500  0.43413300  0.28099500  1
  Li  Li2  1  0.64488000  0.28245700  0.85235400  1
  Li  Li3  1  0.50562100  0.99443800  0.00471900  1
  Li  Li4  1  0.93238700  0.84747500  0.56151200  1
  Li  Li5  1  0.78189800  0.58109700  0.72420300  1
  Li  Li6  1  0.06940600  0.14611400  0.43336000  1
  Li  Li7  1  0.85714300  0.71428600  0.14285700  1
  Co  Co0  1  0.00174200  0.99601200  0.00508900  1
  Co  Co1  1  0.71254400  0.43255900  0.28062500  1
  Co  Co2  1  0.56820600  0.14163100  0.42711300  1
  Co  Co3  1  0.44230000  0.84881100  0.56158800  1
  Co  Co4  1  0.27198500  0.57976100  0.72412700  1
  Co  Co5  1  0.14608000  0.28694000  0.85860100  1
  O  O0  1  0.93336100  0.95411700  0.29072900  1
  O  O1  1  0.80013500  0.64605000  0.43832800  1
  O  O2  1  0.24547500  0.47952100  0.97847300  1
  O  O3  1  0.10263800  0.21967600  0.12371000  1
  O  O4  1  0.51365400  0.08554200  0.70291100  1
  O  O5  1  0.38522900  0.78275800  0.85933400  1
  O  O6  1  0.65762900  0.35163500  0.55283100  1
  O  O7  1  0.78092500  0.47445400  0.99498500  1
  O  O8  1  0.61164700  0.20889600  0.16200500  1
  O  O9  1  0.05665700  0.07693700  0.73288300  1
  O  O10  1  0.91415100  0.78252100  0.84738600  1
  O  O11  1  0.32905700  0.64581300  0.42638000  1
  O  O12  1  0.20063200  0.34302900  0.58280300  1
  O  O13  1  0.46881000  0.94905100  0.30724200  1
loop_
_geom_bond_atom_site_label_1
_geom_bond_atom_site_label_2
_geom_bond_distance
_geom_bond_site_symmetry_2
Li0 O5 2.044492 1_554
Li0 O11 2.044496 1_555
Li0 O0 2.232075 1_455
Li0 O7 2.232077 1_554
Li0 O13 2.272740 1_555
Li0 O2 2.272742 1_554
Li1 O2 2.076326 1_554
Li1 O3 2.109522 1_555
Li1 O1 2.112051 1_455
Li1 O8 2.126239 1_555
Li1 O11 2.126246 1_555
Li1 O12 2.257839 1_555
Li2 O2 2.051204 1_555
Li2 O7 2.071839 1_555
Li2 O4 2.095470 1_555
Li2 O9 2.123773 1_655
Li2 O6 2.154133 1_555
Li2 O8 2.227463 1_556
Li3 O13 2.076328 1_555
Li3 O8 2.109526 1_565
Li3 O10 2.112051 1_554
Li3 O3 2.126245 1_565
Li3 O5 2.126246 1_554
Li3 O4 2.257839 1_564
Li4 O11 2.044175 1_655
Li4 O10 2.048944 1_555
Li4 O1 2.069157 1_555
Li4 O0 2.137054 1_555
Li4 O4 2.209508 1_565
Li4 O9 2.310275 1_665
Li5 O5 2.044169 1_555
Li5 O1 2.048946 1_555
Li5 O10 2.069153 1_555
Li5 O7 2.137053 1_555
Li5 O12 2.209514 1_655
Li5 O6 2.310273 1_555
Li6 O13 2.051198 1_545
Li6 O0 2.071839 1_445
Li6 O12 2.095470 1_555
Li6 O6 2.123775 1_455
Li6 O9 2.154129 1_555
Li6 O3 2.227461 1_555
Li7 O2 2.081353 1_654
Li7 O13 2.081357 1_555
Li7 O10 2.117205 1_554
Li7 O1 2.117209 1_555
Li7 O0 2.128406 1_555
Li7 O7 2.128413 1_554
Co0 O0 1.954444 1_455
Co0 O5 2.009971 1_554
Co0 O10 2.028987 1_454
Co0 O9 2.029772 1_564
Co0 O8 2.037344 1_465
Co0 O3 2.069537 1_565
Co1 O7 1.954444 1_554
Co1 O11 2.009971 1_555
Co1 O1 2.028987 1_555
Co1 O6 2.029767 1_555
Co1 O3 2.037338 1_655
Co1 O8 2.069533 1_555
Co2 O13 1.865243 1_545
Co2 O0 1.884129 1_545
Co2 O12 1.923693 1_555
Co2 O8 1.923827 1_555
Co2 O4 1.945479 1_555
Co2 O6 1.946031 1_555
Co3 O1 1.885766 1_555
Co3 O13 2.005628 1_555
Co3 O11 2.020351 1_555
Co3 O9 2.057556 1_565
Co3 O4 2.077495 1_565
Co3 O5 2.122277 1_555
Co4 O10 1.885760 1_455
Co4 O2 2.005628 1_555
Co4 O5 2.020347 1_555
Co4 O6 2.057561 1_555
Co4 O12 2.077499 1_555
Co4 O11 2.122279 1_555
Co5 O2 1.865247 1_555
Co5 O7 1.884129 1_455
Co5 O4 1.923693 1_555
Co5 O3 1.923829 1_556
Co5 O12 1.945479 1_555
Co5 O9 1.946025 1_555
