# generated using pymatgen
data_LiFe8(O7F)2
_symmetry_space_group_name_H-M   'P 1'
_cell_length_a   4.70507052
_cell_length_b   4.73442516
_cell_length_c   11.89464731
_cell_angle_alpha   89.97779945
_cell_angle_beta   90.07980943
_cell_angle_gamma   90.42372264
_symmetry_Int_Tables_number   1
_chemical_formula_structural   LiFe8(O7F)2
_chemical_formula_sum   'Li1 Fe8 O14 F2'
_cell_volume   264.95531357
_cell_formula_units_Z   1
loop_
 _symmetry_equiv_pos_site_id
 _symmetry_equiv_pos_as_xyz
  1  'x, y, z'
loop_
 _atom_site_type_symbol
 _atom_site_label
 _atom_site_symmetry_multiplicity
 _atom_site_fract_x
 _atom_site_fract_y
 _atom_site_fract_z
 _atom_site_occupancy
  Li  Li0  1  0.50232500  0.99574300  0.24941100  1
  Fe  Fe0  1  0.00028900  0.99091400  0.00780400  1
  Fe  Fe1  1  0.00196600  0.99686500  0.25274200  1
  Fe  Fe2  1  0.02711800  0.02138700  0.50208200  1
  Fe  Fe3  1  0.00065700  0.99024100  0.74765000  1
  Fe  Fe4  1  0.50013100  0.49539600  0.12420600  1
  Fe  Fe5  1  0.49509000  0.49138200  0.63372500  1
  Fe  Fe6  1  0.47047200  0.51894800  0.87785000  1
  Fe  Fe7  1  0.50009800  0.49436600  0.37452400  1
  O  O0  1  0.21574300  0.82687500  0.13606800  1
  O  O1  1  0.20941200  0.81149500  0.62396000  1
  O  O2  1  0.17667600  0.81946500  0.87818400  1
  O  O3  1  0.22306100  0.83251300  0.37132400  1
  O  O4  1  0.29243500  0.31814600  0.00273400  1
  O  O5  1  0.29247400  0.32299100  0.24777000  1
  O  O6  1  0.31671700  0.32626700  0.50202100  1
  O  O7  1  0.29119500  0.31078600  0.75837000  1
  O  O8  1  0.68952400  0.68344600  0.00252100  1
  O  O9  1  0.71187000  0.66846600  0.25013300  1
  O  O10  1  0.68750600  0.68703900  0.75596900  1
  O  O11  1  0.78549000  0.16359600  0.13420900  1
  O  O12  1  0.79406200  0.16974100  0.37111400  1
  O  O13  1  0.80730000  0.18664700  0.62621900  1
  F  F0  1  0.72242000  0.68666300  0.50070100  1
  F  F1  1  0.78596700  0.19062900  0.87982000  1
loop_
_geom_bond_atom_site_label_1
_geom_bond_atom_site_label_2
_geom_bond_distance
_geom_bond_site_symmetry_2
Li0 O9 1.842697 1_555
Li0 O5 1.843433 1_565
Li0 O0 2.062703 1_555
Li0 O11 2.067088 1_565
Li0 O3 2.101416 1_555
Li0 O12 2.153373 1_565
Fe0 O2 1.933709 1_554
Fe0 O0 1.991190 1_555
Fe0 O11 1.991943 1_465
Fe0 O8 2.056513 1_455
Fe0 O4 2.064443 1_565
Fe1 O0 1.897926 1_555
Fe1 O12 1.904150 1_465
Fe1 O11 1.911909 1_465
Fe1 O3 1.919410 1_555
Fe1 O5 2.055417 1_565
Fe1 O9 2.061516 1_455
Fe2 O1 1.957748 1_545
Fe2 O13 1.969575 1_455
Fe2 O6 1.977635 1_555
Fe2 O3 2.021347 1_545
Fe2 O12 2.031826 1_455
Fe3 O2 1.937960 1_555
Fe3 O13 1.945857 1_465
Fe3 O1 1.965386 1_555
Fe3 O7 2.038880 1_565
Fe3 O10 2.051909 1_455
Fe4 O8 1.916390 1_555
Fe4 O4 1.931761 1_555
Fe4 O5 1.942240 1_555
Fe4 O9 1.972866 1_555
Fe4 O0 2.074845 1_555
Fe4 O11 2.077282 1_555
Fe5 O6 1.938344 1_555
Fe5 O10 1.943433 1_555
Fe5 O7 1.959685 1_555
Fe5 O1 2.036331 1_555
Fe5 O13 2.068615 1_555
Fe6 O7 1.920405 1_555
Fe6 O10 1.941397 1_555
Fe6 O4 1.950040 1_556
Fe6 O8 1.962803 1_556
Fe6 O2 1.991043 1_555
Fe7 O6 1.915793 1_555
Fe7 O9 1.962758 1_555
Fe7 O5 1.967454 1_555
Fe7 O3 2.072237 1_555
Fe7 O12 2.075672 1_555
F0 Fe7 2.039155 1_555
F0 Fe5 2.119287 1_555
F0 Fe2 2.129145 1_665
F1 Fe0 2.058420 1_646
F1 Fe3 2.100414 1_645
F1 Fe6 2.157368 1_555
