# generated using pymatgen
data_Li4Mn3Fe(BO3)4
_symmetry_space_group_name_H-M   'P 1'
_cell_length_a   5.24060200
_cell_length_b   5.24155696
_cell_length_c   20.93189844
_cell_angle_alpha   91.06415184
_cell_angle_beta   91.04500751
_cell_angle_gamma   119.73095149
_symmetry_Int_Tables_number   1
_chemical_formula_structural   Li4Mn3Fe(BO3)4
_chemical_formula_sum   'Li8 Mn6 Fe2 B8 O24'
_cell_volume   498.95311088
_cell_formula_units_Z   2
loop_
 _symmetry_equiv_pos_site_id
 _symmetry_equiv_pos_as_xyz
  1  'x, y, z'
loop_
 _atom_site_type_symbol
 _atom_site_label
 _atom_site_symmetry_multiplicity
 _atom_site_fract_x
 _atom_site_fract_y
 _atom_site_fract_z
 _atom_site_occupancy
  Li  Li0  1  0.34772600  0.32109000  0.66610200  1
  Li  Li1  1  0.32081500  0.34737800  0.91596100  1
  Li  Li2  1  0.34916600  0.32099000  0.16603700  1
  Li  Li3  1  0.32091500  0.34920600  0.41649400  1
  Li  Li4  1  0.66229100  0.65072900  0.79104700  1
  Li  Li5  1  0.64925400  0.66123900  0.54110400  1
  Li  Li6  1  0.66124300  0.65101700  0.29116300  1
  Li  Li7  1  0.65119300  0.66124100  0.04100500  1
  Mn  Mn0  1  0.99696000  0.32893700  0.05832100  1
  Mn  Mn1  1  0.99824000  0.67872700  0.93291300  1
  Mn  Mn2  1  0.99664900  0.67498500  0.43350800  1
  Mn  Mn3  1  0.67654300  0.99844200  0.68330300  1
  Mn  Mn4  1  0.67670700  0.99627900  0.18340400  1
  Mn  Mn5  1  0.32906800  0.99714800  0.30858900  1
  Fe  Fe0  1  0.00265600  0.33414500  0.55865300  1
  Fe  Fe1  1  0.32660200  0.00099000  0.80853700  1
  B  B0  1  0.65866500  0.00306900  0.93657100  1
  B  B1  1  0.65966600  0.00326500  0.43776700  1
  B  B2  1  0.99420100  0.33258700  0.81191500  1
  B  B3  1  0.99552700  0.33442800  0.31212400  1
  B  B4  1  0.00341900  0.65969100  0.68729400  1
  B  B5  1  0.00259600  0.65823000  0.18703600  1
  B  B6  1  0.33387000  0.99407700  0.56207600  1
  B  B7  1  0.33456500  0.99552500  0.06202900  1
  O  O0  1  0.74727000  0.06880300  0.79193400  1
  O  O1  1  0.75386900  0.06826200  0.29103800  1
  O  O2  1  0.93176500  0.25248900  0.95190700  1
  O  O3  1  0.42220900  0.03589200  0.91596500  1
  O  O4  1  0.93256700  0.25263100  0.45293700  1
  O  O5  1  0.42261700  0.03565000  0.41691100  1
  O  O6  1  0.97092500  0.58196200  0.82662500  1
  O  O7  1  0.34931400  0.26488800  0.56878800  1
  O  O8  1  0.95938300  0.57634200  0.32756300  1
  O  O9  1  0.36240300  0.27047200  0.06927400  1
  O  O10  1  0.26712500  0.35084500  0.81855000  1
  O  O11  1  0.27046300  0.36224800  0.31947000  1
  O  O12  1  0.72717400  0.62788200  0.69427000  1
  O  O13  1  0.72686600  0.62601700  0.19438700  1
  O  O14  1  0.62644600  0.72692700  0.94381800  1
  O  O15  1  0.03591600  0.42298100  0.66645700  1
  O  O16  1  0.62805900  0.72731300  0.44475900  1
  O  O17  1  0.03613700  0.42189000  0.16640100  1
  O  O18  1  0.58169600  0.96872500  0.57674000  1
  O  O19  1  0.57647200  0.95932900  0.07744200  1
  O  O20  1  0.06838400  0.74612200  0.54219200  1
  O  O21  1  0.06833200  0.75393600  0.04091200  1
  O  O22  1  0.25298800  0.93219600  0.70274600  1
  O  O23  1  0.25188500  0.93158200  0.20216800  1
loop_
_geom_bond_atom_site_label_1
_geom_bond_atom_site_label_2
_geom_bond_distance
_geom_bond_site_symmetry_2
Li0 O12 1.907395 1_555
Li0 O15 1.954832 1_555
Li0 O22 2.014476 1_545
Li0 O7 2.053496 1_555
Li1 O14 1.904098 1_555
Li1 O3 1.951525 1_555
Li1 O2 2.008606 1_455
Li1 O10 2.054879 1_555
Li2 O13 1.899821 1_555
Li2 O17 1.957476 1_555
Li2 O23 2.009300 1_545
Li2 O9 2.044683 1_555
Li3 O16 1.904299 1_555
Li3 O5 1.963288 1_555
Li3 O4 2.007295 1_455
Li3 O11 2.050029 1_555
Li4 O6 1.960836 1_555
Li4 O10 1.984755 1_555
Li4 O0 2.007725 1_565
Li4 O12 2.071238 1_555
Li5 O18 1.951999 1_555
Li5 O7 1.990362 1_555
Li5 O20 2.012847 1_655
Li5 O16 2.062819 1_555
Li6 O8 1.936274 1_555
Li6 O11 1.959370 1_555
Li6 O1 1.991471 1_565
Li6 O13 2.073445 1_555
Li7 O19 1.936428 1_555
Li7 O9 1.959325 1_555
Li7 O21 1.990385 1_655
Li7 O14 2.081934 1_554
Mn0 O9 2.093548 1_655
Mn0 O21 2.108041 1_655
Mn0 O19 2.143815 1_545
Mn0 O2 2.245466 1_554
Mn0 O17 2.289219 1_655
Mn1 O14 2.101099 1_555
Mn1 O3 2.120143 1_665
Mn1 O2 2.130008 1_555
Mn1 O6 2.258756 1_555
Mn1 O21 2.278977 1_656
Mn2 O16 2.097996 1_555
Mn2 O4 2.116619 1_555
Mn2 O5 2.131836 1_665
Mn2 O8 2.250515 1_555
Mn2 O20 2.292177 1_655
Mn3 O12 2.102661 1_555
Mn3 O22 2.118237 1_555
Mn3 O15 2.125940 1_665
Mn3 O18 2.261993 1_555
Mn3 O0 2.290487 1_565
Mn4 O13 2.099720 1_555
Mn4 O23 2.124569 1_555
Mn4 O17 2.130148 1_665
Mn4 O19 2.252452 1_555
Mn4 O1 2.272813 1_565
Mn5 O11 2.092305 1_565
Mn5 O1 2.107556 1_565
Mn5 O8 2.144377 1_455
Mn5 O23 2.246044 1_555
Mn5 O5 2.294872 1_565
Fe0 O7 2.029801 1_555
Fe0 O20 2.048070 1_555
Fe0 O18 2.131931 1_445
Fe0 O4 2.234656 1_455
Fe0 O15 2.281515 1_555
Fe1 O10 2.014667 1_555
Fe1 O0 2.088658 1_555
Fe1 O6 2.106594 1_445
Fe1 O22 2.232410 1_545
Fe1 O3 2.278978 1_555
B0 O14 1.383191 1_545
B0 O3 1.394956 1_555
B0 O2 1.404411 1_555
B1 O16 1.382786 1_545
B1 O5 1.398135 1_555
B1 O4 1.403049 1_555
B2 O10 1.389483 1_655
B2 O0 1.394757 1_555
B2 O6 1.400998 1_555
B3 O11 1.379708 1_655
B3 O1 1.396184 1_555
B3 O8 1.404775 1_555
B4 O12 1.383523 1_455
B4 O15 1.396723 1_555
B4 O22 1.403523 1_555
B5 O13 1.381038 1_455
B5 O17 1.396757 1_555
B5 O23 1.404073 1_555
B6 O7 1.385430 1_565
B6 O18 1.398856 1_555
B6 O20 1.401207 1_555
B7 O9 1.379760 1_565
B7 O21 1.396380 1_555
B7 O19 1.404691 1_555
