# generated using pymatgen
data_TbAgSn
_symmetry_space_group_name_H-M   'P 1'
_cell_length_a   7.07714000
_cell_length_b   9.65202153
_cell_length_c   9.65202153
_cell_angle_alpha   60.02516072
_cell_angle_beta   90.00000000
_cell_angle_gamma   90.00000000
_symmetry_Int_Tables_number   1
_chemical_formula_structural   TbAgSn
_chemical_formula_sum   'Tb8 Ag8 Sn8'
_cell_volume   571.13008266
_cell_formula_units_Z   8
loop_
 _symmetry_equiv_pos_site_id
 _symmetry_equiv_pos_as_xyz
  1  'x, y, z'
loop_
 _atom_site_type_symbol
 _atom_site_label
 _atom_site_symmetry_multiplicity
 _atom_site_fract_x
 _atom_site_fract_y
 _atom_site_fract_z
 _atom_site_occupancy
  Tb  Tb0_0  1  0.25000000  0.49997550  0.49997550  1
  Tb  Tb0_1  1  0.25000000  0.49997550  0.99997550  1
  Tb  Tb0_2  1  0.25000000  0.99997550  0.49997550  1
  Tb  Tb0_3  1  0.25000000  0.99997550  0.99997550  1
  Tb  Tb0_4  1  0.75000000  0.49997550  0.49997550  1
  Tb  Tb0_5  1  0.75000000  0.49997550  0.99997550  1
  Tb  Tb0_6  1  0.75000000  0.99997550  0.49997550  1
  Tb  Tb0_7  1  0.75000000  0.99997550  0.99997550  1
  Ag  Ag0_0  1  0.00000000  0.16664900  0.16664900  1
  Ag  Ag0_1  1  0.00000000  0.16664900  0.66664900  1
  Ag  Ag0_2  1  0.00000000  0.66664900  0.16664900  1
  Ag  Ag0_3  1  0.00000000  0.66664900  0.66664900  1
  Ag  Ag0_4  1  0.50000000  0.16664900  0.16664900  1
  Ag  Ag0_5  1  0.50000000  0.16664900  0.66664900  1
  Ag  Ag0_6  1  0.50000000  0.66664900  0.16664900  1
  Ag  Ag0_7  1  0.50000000  0.66664900  0.66664900  1
  Sn  Sn0_0  1  0.00000000  0.33337550  0.33337550  1
  Sn  Sn0_1  1  0.00000000  0.33337550  0.83337550  1
  Sn  Sn0_2  1  0.00000000  0.83337550  0.33337550  1
  Sn  Sn0_3  1  0.00000000  0.83337550  0.83337550  1
  Sn  Sn0_4  1  0.50000000  0.33337550  0.33337550  1
  Sn  Sn0_5  1  0.50000000  0.33337550  0.83337550  1
  Sn  Sn0_6  1  0.50000000  0.83337550  0.33337550  1
  Sn  Sn0_7  1  0.50000000  0.83337550  0.83337550  1
loop_
_geom_bond_atom_site_label_1
_geom_bond_atom_site_label_2
_geom_bond_distance
_geom_bond_site_symmetry_2
Tb0_0 Tb0_4 3.538570 1_555
Tb0_0 Tb0_4 3.538570 1_455
Tb0_1 Tb0_5 3.538570 1_455
Tb0_1 Tb0_5 3.538570 1_555
Tb0_2 Tb0_6 3.538570 1_455
Tb0_2 Tb0_6 3.538570 1_555
Tb0_3 Tb0_7 3.538570 1_455
Tb0_3 Tb0_7 3.538570 1_555
Ag0_0 Sn0_1 2.786505 1_554
Ag0_0 Sn0_2 2.786505 1_545
Ag0_0 Sn0_0 2.786945 1_555
Ag0_0 Tb0_7 3.300378 1_444
Ag0_0 Tb0_3 3.300378 1_544
Ag0_0 Tb0_6 3.301128 1_445
Ag0_0 Tb0_1 3.301128 1_554
Ag0_0 Tb0_2 3.301128 1_545
Ag0_0 Tb0_5 3.301128 1_454
Ag0_0 Ag0_4 3.538570 1_555
Ag0_0 Ag0_4 3.538570 1_455
Ag0_1 Sn0_3 2.786505 1_545
Ag0_1 Sn0_0 2.786505 1_555
Ag0_1 Sn0_1 2.786945 1_555
Ag0_1 Tb0_2 3.300378 1_545
Ag0_1 Tb0_6 3.300378 1_445
Ag0_1 Tb0_0 3.301128 1_555
Ag0_1 Tb0_4 3.301128 1_455
Ag0_1 Tb0_3 3.301128 1_545
Ag0_1 Tb0_7 3.301128 1_445
Ag0_1 Ag0_5 3.538570 1_455
Ag0_1 Ag0_5 3.538570 1_555
Ag0_2 Sn0_0 2.786505 1_555
Ag0_2 Sn0_3 2.786505 1_554
Ag0_2 Sn0_2 2.786945 1_555
Ag0_2 Tb0_1 3.300378 1_554
Ag0_2 Tb0_5 3.300378 1_454
Ag0_2 Tb0_0 3.301128 1_555
Ag0_2 Tb0_4 3.301128 1_455
Ag0_2 Tb0_3 3.301128 1_554
Ag0_2 Tb0_7 3.301128 1_454
Ag0_2 Ag0_6 3.538570 1_555
Ag0_2 Ag0_6 3.538570 1_455
Ag0_3 Sn0_1 2.786505 1_555
Ag0_3 Sn0_2 2.786505 1_555
Ag0_3 Sn0_3 2.786945 1_555
Ag0_3 Tb0_4 3.300378 1_455
Ag0_3 Tb0_0 3.300378 1_555
Ag0_3 Tb0_5 3.301128 1_455
Ag0_3 Tb0_2 3.301128 1_555
Ag0_3 Tb0_6 3.301128 1_455
Ag0_3 Tb0_1 3.301128 1_555
Ag0_3 Ag0_7 3.538570 1_455
Ag0_3 Ag0_7 3.538570 1_555
Ag0_4 Sn0_5 2.786505 1_554
Ag0_4 Sn0_6 2.786505 1_545
Ag0_4 Sn0_4 2.786945 1_555
Ag0_4 Tb0_7 3.300378 1_544
Ag0_4 Tb0_3 3.300378 1_544
Ag0_4 Tb0_1 3.301128 1_554
Ag0_4 Tb0_2 3.301128 1_545
Ag0_4 Tb0_5 3.301128 1_554
Ag0_4 Tb0_6 3.301128 1_545
Ag0_5 Sn0_7 2.786505 1_545
Ag0_5 Sn0_4 2.786505 1_555
Ag0_5 Sn0_5 2.786945 1_555
Ag0_5 Tb0_2 3.300378 1_545
Ag0_5 Tb0_6 3.300378 1_545
Ag0_5 Tb0_0 3.301128 1_555
Ag0_5 Tb0_4 3.301128 1_555
Ag0_5 Tb0_7 3.301128 1_545
Ag0_5 Tb0_3 3.301128 1_545
Ag0_6 Sn0_7 2.786505 1_554
Ag0_6 Sn0_4 2.786505 1_555
Ag0_6 Sn0_6 2.786945 1_555
Ag0_6 Tb0_1 3.300378 1_554
Ag0_6 Tb0_5 3.300378 1_554
Ag0_6 Tb0_0 3.301128 1_555
Ag0_6 Tb0_4 3.301128 1_555
Ag0_6 Tb0_3 3.301128 1_554
Ag0_6 Tb0_7 3.301128 1_554
Ag0_7 Sn0_5 2.786505 1_555
Ag0_7 Sn0_6 2.786505 1_555
Ag0_7 Sn0_7 2.786945 1_555
Ag0_7 Tb0_0 3.300378 1_555
Ag0_7 Tb0_4 3.300378 1_555
Ag0_7 Tb0_5 3.301128 1_555
Ag0_7 Tb0_2 3.301128 1_555
Ag0_7 Tb0_6 3.301128 1_555
Ag0_7 Tb0_1 3.301128 1_555
Sn0_0 Tb0_4 3.299341 1_455
Sn0_0 Tb0_0 3.299341 1_555
Sn0_0 Tb0_1 3.301647 1_554
Sn0_0 Tb0_5 3.301647 1_454
Sn0_0 Tb0_2 3.301647 1_545
Sn0_0 Tb0_6 3.301647 1_445
Sn0_1 Tb0_1 3.299341 1_555
Sn0_1 Tb0_5 3.299341 1_455
Sn0_1 Tb0_3 3.301647 1_545
Sn0_1 Tb0_7 3.301647 1_445
Sn0_1 Tb0_4 3.301647 1_455
Sn0_1 Tb0_0 3.301647 1_555
Sn0_2 Tb0_2 3.299341 1_555
Sn0_2 Tb0_6 3.299341 1_455
Sn0_2 Tb0_7 3.301647 1_454
Sn0_2 Tb0_3 3.301647 1_554
Sn0_2 Tb0_4 3.301647 1_455
Sn0_2 Tb0_0 3.301647 1_555
Sn0_3 Tb0_3 3.299341 1_555
Sn0_3 Tb0_7 3.299341 1_455
Sn0_3 Tb0_2 3.301647 1_555
Sn0_3 Tb0_6 3.301647 1_455
Sn0_3 Tb0_5 3.301647 1_455
Sn0_3 Tb0_1 3.301647 1_555
Sn0_4 Tb0_0 3.299341 1_555
Sn0_4 Tb0_4 3.299341 1_555
Sn0_4 Tb0_5 3.301647 1_554
Sn0_4 Tb0_1 3.301647 1_554
Sn0_4 Tb0_2 3.301647 1_545
Sn0_4 Tb0_6 3.301647 1_545
Sn0_5 Tb0_1 3.299341 1_555
Sn0_5 Tb0_5 3.299341 1_555
Sn0_5 Tb0_3 3.301647 1_545
Sn0_5 Tb0_7 3.301647 1_545
Sn0_5 Tb0_4 3.301647 1_555
Sn0_5 Tb0_0 3.301647 1_555
Sn0_6 Tb0_2 3.299341 1_555
Sn0_6 Tb0_6 3.299341 1_555
Sn0_6 Tb0_7 3.301647 1_554
Sn0_6 Tb0_3 3.301647 1_554
Sn0_6 Tb0_4 3.301647 1_555
Sn0_6 Tb0_0 3.301647 1_555
Sn0_7 Tb0_3 3.299341 1_555
Sn0_7 Tb0_7 3.299341 1_555
Sn0_7 Tb0_2 3.301647 1_555
Sn0_7 Tb0_6 3.301647 1_555
Sn0_7 Tb0_1 3.301647 1_555
Sn0_7 Tb0_5 3.301647 1_555
