# generated using pymatgen
data_Nd6I8O45
_symmetry_space_group_name_H-M   'P 1'
_cell_length_a   10.19273300
_cell_length_b   12.69078600
_cell_length_c   16.78396300
_cell_angle_alpha   90.00000000
_cell_angle_beta   90.00000000
_cell_angle_gamma   90.00000000
_symmetry_Int_Tables_number   1
_chemical_formula_structural   Nd6I8O45
_chemical_formula_sum   'Nd12 I16 O90'
_cell_volume   2171.06927995
_cell_formula_units_Z   2
loop_
 _symmetry_equiv_pos_site_id
 _symmetry_equiv_pos_as_xyz
  1  'x, y, z'
loop_
 _atom_site_type_symbol
 _atom_site_label
 _atom_site_symmetry_multiplicity
 _atom_site_fract_x
 _atom_site_fract_y
 _atom_site_fract_z
 _atom_site_occupancy
  Nd  Nd0  1  0.00000000  0.00000000  0.83826400  1
  Nd  Nd1  1  0.50000000  0.50000000  0.66173600  1
  Nd  Nd2  1  0.00000000  0.00000000  0.16173600  1
  Nd  Nd3  1  0.50000000  0.50000000  0.33826400  1
  Nd  Nd4  1  0.92050400  0.79861900  0.00000000  1
  Nd  Nd5  1  0.07949600  0.20138100  0.00000000  1
  Nd  Nd6  1  0.42050400  0.70138100  0.50000000  1
  Nd  Nd7  1  0.57949600  0.29861900  0.50000000  1
  Nd  Nd8  1  0.27385900  0.96763300  0.00000000  1
  Nd  Nd9  1  0.72614100  0.03236700  0.00000000  1
  Nd  Nd10  1  0.77385900  0.53236700  0.50000000  1
  Nd  Nd11  1  0.22614100  0.46763300  0.50000000  1
  I  I0  1  0.00000000  0.50000000  0.09664200  1
  I  I1  1  0.50000000  0.00000000  0.40335800  1
  I  I2  1  0.00000000  0.50000000  0.90335800  1
  I  I3  1  0.50000000  0.00000000  0.59664200  1
  I  I4  1  0.84879200  0.23801700  0.19649300  1
  I  I5  1  0.15120800  0.76198300  0.19649300  1
  I  I6  1  0.34879200  0.26198300  0.30350700  1
  I  I7  1  0.65120800  0.73801700  0.30350700  1
  I  I8  1  0.15120800  0.76198300  0.80350700  1
  I  I9  1  0.84879200  0.23801700  0.80350700  1
  I  I10  1  0.65120800  0.73801700  0.69649300  1
  I  I11  1  0.34879200  0.26198300  0.69649300  1
  I  I12  1  0.96482700  0.25844800  0.50000000  1
  I  I13  1  0.03517300  0.74155200  0.50000000  1
  I  I14  1  0.46482700  0.24155200  0.00000000  1
  I  I15  1  0.53517300  0.75844800  0.00000000  1
  O  O0  1  0.00000000  0.00000000  0.00000000  1
  O  O1  1  0.50000000  0.50000000  0.50000000  1
  O  O2  1  0.15948500  0.07664000  0.90940700  1
  O  O3  1  0.84051500  0.92336000  0.90940700  1
  O  O4  1  0.65948500  0.42336000  0.59059300  1
  O  O5  1  0.34051500  0.57664000  0.59059300  1
  O  O6  1  0.84051500  0.92336000  0.09059300  1
  O  O7  1  0.15948500  0.07664000  0.09059300  1
  O  O8  1  0.34051500  0.57664000  0.40940700  1
  O  O9  1  0.65948500  0.42336000  0.40940700  1
  O  O10  1  0.10446300  0.82849200  0.09966700  1
  O  O11  1  0.89553700  0.17150800  0.09966700  1
  O  O12  1  0.60446300  0.67150800  0.40033300  1
  O  O13  1  0.39553700  0.32849200  0.40033300  1
  O  O14  1  0.89553700  0.17150800  0.90033300  1
  O  O15  1  0.10446300  0.82849200  0.90033300  1
  O  O16  1  0.39553700  0.32849200  0.59966700  1
  O  O17  1  0.60446300  0.67150800  0.59966700  1
  O  O18  1  0.85830700  0.10657200  0.75196000  1
  O  O19  1  0.14169300  0.89342800  0.75196000  1
  O  O20  1  0.35830700  0.39342800  0.74804000  1
  O  O21  1  0.64169300  0.60657200  0.74804000  1
  O  O22  1  0.14169300  0.89342800  0.24804000  1
  O  O23  1  0.85830700  0.10657200  0.24804000  1
  O  O24  1  0.64169300  0.60657200  0.25196000  1
  O  O25  1  0.35830700  0.39342800  0.25196000  1
  O  O26  1  0.97904100  0.19474900  0.59602500  1
  O  O27  1  0.02095900  0.80525100  0.59602500  1
  O  O28  1  0.47904100  0.30525100  0.90397500  1
  O  O29  1  0.52095900  0.69474900  0.90397500  1
  O  O30  1  0.02095900  0.80525100  0.40397500  1
  O  O31  1  0.97904100  0.19474900  0.40397500  1
  O  O32  1  0.52095900  0.69474900  0.09602500  1
  O  O33  1  0.47904100  0.30525100  0.09602500  1
  O  O34  1  0.03413500  0.63298200  0.16504200  1
  O  O35  1  0.96586500  0.36701800  0.16504200  1
  O  O36  1  0.53413500  0.86701800  0.33495800  1
  O  O37  1  0.46586500  0.13298200  0.33495800  1
  O  O38  1  0.96586500  0.36701800  0.83495800  1
  O  O39  1  0.03413500  0.63298200  0.83495800  1
  O  O40  1  0.46586500  0.13298200  0.66504200  1
  O  O41  1  0.53413500  0.86701800  0.66504200  1
  O  O42  1  0.01438200  0.60067100  0.00000000  1
  O  O43  1  0.98561800  0.39932900  0.00000000  1
  O  O44  1  0.51438200  0.89932900  0.50000000  1
  O  O45  1  0.48561800  0.10067100  0.50000000  1
  O  O46  1  0.71996300  0.73392200  0.00000000  1
  O  O47  1  0.28003700  0.26607800  0.00000000  1
  O  O48  1  0.21996300  0.76607800  0.50000000  1
  O  O49  1  0.78003700  0.23392200  0.50000000  1
  O  O50  1  0.43370000  0.09479300  0.00000000  1
  O  O51  1  0.56630000  0.90520700  0.00000000  1
  O  O52  1  0.93370000  0.40520700  0.50000000  1
  O  O53  1  0.06630000  0.59479300  0.50000000  1
  O  O54  1  0.35506400  0.79720500  0.00000000  1
  O  O55  1  0.64493600  0.20279500  0.00000000  1
  O  O56  1  0.85506400  0.70279500  0.50000000  1
  O  O57  1  0.14493600  0.29720500  0.50000000  1
  O  O58  1  0.40273900  0.94234900  0.16125000  1
  O  O59  1  0.59726100  0.05765100  0.16125000  1
  O  O60  1  0.90273900  0.55765100  0.33875000  1
  O  O61  1  0.09726100  0.44234900  0.33875000  1
  O  O62  1  0.59726100  0.05765100  0.83875000  1
  O  O63  1  0.40273900  0.94234900  0.83875000  1
  O  O64  1  0.09726100  0.44234900  0.66125000  1
  O  O65  1  0.90273900  0.55765100  0.66125000  1
  O  O66  1  0.51434400  0.90344900  0.16279400  1
  O  O67  1  0.48565600  0.09655100  0.16279400  1
  O  O68  1  0.01434400  0.59655100  0.33720600  1
  O  O69  1  0.98565600  0.40344900  0.33720600  1
  O  O70  1  0.48565600  0.09655100  0.83720600  1
  O  O71  1  0.51434400  0.90344900  0.83720600  1
  O  O72  1  0.98565600  0.40344900  0.66279400  1
  O  O73  1  0.01434400  0.59655100  0.66279400  1
  O  O74  1  0.74012900  0.01996500  0.57094600  1
  O  O75  1  0.25987100  0.98003500  0.57094600  1
  O  O76  1  0.24012900  0.48003500  0.92905400  1
  O  O77  1  0.75987100  0.51996500  0.92905400  1
  O  O78  1  0.25987100  0.98003500  0.42905400  1
  O  O79  1  0.74012900  0.01996500  0.42905400  1
  O  O80  1  0.75987100  0.51996500  0.07094600  1
  O  O81  1  0.24012900  0.48003500  0.07094600  1
  O  O82  1  0.79361300  0.93313100  0.55584800  1
  O  O83  1  0.20638700  0.06686900  0.55584800  1
  O  O84  1  0.29361300  0.56686900  0.94415200  1
  O  O85  1  0.70638700  0.43313100  0.94415200  1
  O  O86  1  0.20638700  0.06686900  0.44415200  1
  O  O87  1  0.79361300  0.93313100  0.44415200  1
  O  O88  1  0.70638700  0.43313100  0.05584800  1
  O  O89  1  0.29361300  0.56686900  0.05584800  1
loop_
_geom_bond_atom_site_label_1
_geom_bond_atom_site_label_2
_geom_bond_distance
_geom_bond_site_symmetry_2
Nd0 O3 2.239266 1_445
Nd0 O2 2.239266 1_555
Nd0 O19 2.452194 1_545
Nd0 O18 2.452194 1_455
Nd0 O15 2.637509 1_545
Nd0 O14 2.637509 1_455
Nd0 O0 2.714571 1_556
Nd1 O4 2.239266 1_555
Nd1 O5 2.239266 1_555
Nd1 O21 2.452194 1_555
Nd1 O20 2.452194 1_555
Nd1 O17 2.637509 1_555
Nd1 O16 2.637509 1_555
Nd1 O1 2.714571 1_555
Nd2 O6 2.239266 1_445
Nd2 O7 2.239266 1_555
Nd2 O22 2.452194 1_545
Nd2 O23 2.452194 1_455
Nd2 O10 2.637509 1_545
Nd2 O11 2.637509 1_455
Nd2 O0 2.714571 1_555
Nd3 O9 2.239266 1_555
Nd3 O8 2.239266 1_555
Nd3 O24 2.452194 1_555
Nd3 O25 2.452194 1_555
Nd3 O12 2.637509 1_555
Nd3 O13 2.637509 1_555
Nd3 O1 2.714571 1_555
Nd4 O46 2.202798 1_555
Nd4 O6 2.341529 1_555
Nd4 O3 2.341529 1_554
Nd4 O10 2.541221 1_655
Nd4 O15 2.541221 1_654
Nd4 O0 2.681058 1_665
Nd4 O42 2.688184 1_655
Nd5 O47 2.202798 1_555
Nd5 O7 2.341529 1_555
Nd5 O2 2.341529 1_554
Nd5 O11 2.541221 1_455
Nd5 O14 2.541221 1_454
Nd5 O0 2.681058 1_555
Nd5 O43 2.688184 1_455
Nd6 O48 2.202798 1_555
Nd6 O5 2.341529 1_555
Nd6 O8 2.341529 1_555
Nd6 O17 2.541221 1_555
Nd6 O12 2.541221 1_555
Nd6 O1 2.681058 1_555
Nd6 O44 2.688184 1_555
Nd7 O49 2.202798 1_555
Nd7 O4 2.341529 1_555
Nd7 O9 2.341529 1_555
Nd7 O16 2.541221 1_555
Nd7 O13 2.541221 1_555
Nd7 O1 2.681058 1_555
Nd7 O45 2.688184 1_555
Nd8 O50 2.293157 1_565
Nd8 O54 2.315831 1_555
Nd8 O7 2.363208 1_565
Nd8 O2 2.363208 1_564
Nd8 O0 2.821433 1_565
Nd8 O10 2.982874 1_555
Nd8 O15 2.982874 1_554
Nd8 O63 3.025440 1_554
Nd8 O58 3.025440 1_555
Nd9 O51 2.293157 1_545
Nd9 O55 2.315831 1_555
Nd9 O6 2.363208 1_545
Nd9 O3 2.363208 1_544
Nd9 O0 2.821433 1_655
Nd9 O11 2.982874 1_555
Nd9 O14 2.982874 1_554
Nd9 O62 3.025440 1_554
Nd9 O59 3.025440 1_555
Nd10 O52 2.293157 1_555
Nd10 O56 2.315831 1_555
Nd10 O4 2.363208 1_555
Nd10 O9 2.363208 1_555
Nd10 O1 2.821433 1_555
Nd10 O17 2.982874 1_555
Nd10 O12 2.982874 1_555
Nd10 O60 3.025440 1_555
Nd10 O65 3.025440 1_555
Nd11 O53 2.293157 1_555
Nd11 O57 2.315831 1_555
Nd11 O5 2.363208 1_555
Nd11 O8 2.363208 1_555
Nd11 O1 2.821433 1_555
Nd11 O16 2.982874 1_555
Nd11 O13 2.982874 1_555
Nd11 O61 3.025440 1_555
Nd11 O64 3.025440 1_555
I0 O42 2.069960 1_555
I0 O43 2.069960 1_455
I0 O34 2.070546 1_555
I0 O35 2.070546 1_455
I0 O81 2.498160 1_555
I0 O80 2.498160 1_455
I1 O45 2.069960 1_555
I1 O44 2.069960 1_545
I1 O37 2.070546 1_555
I1 O36 2.070546 1_545
I1 O79 2.498160 1_555
I1 O78 2.498160 1_545
I2 O42 2.069960 1_556
I2 O43 2.069960 1_456
I2 O39 2.070546 1_555
I2 O38 2.070546 1_455
I2 O76 2.498160 1_555
I2 O77 2.498160 1_455
I3 O45 2.069960 1_555
I3 O44 2.069960 1_545
I3 O40 2.070546 1_555
I3 O41 2.070546 1_545
I3 O74 2.498160 1_555
I3 O75 2.498160 1_545
I4 O23 1.881650 1_555
I4 O11 1.892212 1_555
I4 O35 2.093508 1_555
I5 O22 1.881650 1_555
I5 O10 1.892212 1_555
I5 O34 2.093508 1_555
I6 O25 1.881650 1_555
I6 O13 1.892212 1_555
I6 O37 2.093508 1_555
I7 O24 1.881650 1_555
I7 O12 1.892212 1_555
I7 O36 2.093508 1_555
I8 O19 1.881650 1_555
I8 O15 1.892212 1_555
I8 O39 2.093508 1_555
I9 O18 1.881650 1_555
I9 O14 1.892212 1_555
I9 O38 2.093508 1_555
I10 O21 1.881650 1_555
I10 O17 1.892212 1_555
I10 O41 2.093508 1_555
I11 O20 1.881650 1_555
I11 O16 1.892212 1_555
I11 O40 2.093508 1_555
I12 O26 1.808866 1_555
I12 O31 1.808866 1_555
I12 O52 1.889317 1_555
I12 O57 1.900551 1_655
I12 O49 1.909060 1_555
I13 O30 1.808866 1_555
I13 O27 1.808866 1_555
I13 O53 1.889317 1_555
I13 O56 1.900551 1_455
I13 O48 1.909060 1_555
I14 O33 1.808866 1_555
I14 O28 1.808866 1_554
I14 O50 1.889317 1_555
I14 O55 1.900551 1_555
I14 O47 1.909060 1_555
I15 O32 1.808866 1_555
I15 O29 1.808866 1_554
I15 O51 1.889317 1_555
I15 O54 1.900551 1_555
I15 O46 1.909060 1_555
O58 O66 1.240333 1_555
O59 O67 1.240333 1_555
O60 O68 1.240333 1_655
O61 O69 1.240333 1_455
O62 O70 1.240333 1_555
O63 O71 1.240333 1_555
O64 O72 1.240333 1_455
O65 O73 1.240333 1_655
O74 O82 1.255303 1_545
O75 O83 1.255303 1_565
O76 O84 1.255303 1_555
O77 O85 1.255303 1_555
O78 O86 1.255303 1_565
O79 O87 1.255303 1_545
O80 O88 1.255303 1_555
O81 O89 1.255303 1_555
O82 O87 1.874702 1_555
O83 O86 1.874702 1_555
O84 O89 1.874702 1_556
O85 O88 1.874702 1_556
