# generated using pymatgen
data_Ba2NbBiO6
_symmetry_space_group_name_H-M   'P 1'
_cell_length_a   6.13304621
_cell_length_b   6.13304621
_cell_length_c   6.13304645
_cell_angle_alpha   60.36925716
_cell_angle_beta   60.36925716
_cell_angle_gamma   60.36924851
_symmetry_Int_Tables_number   1
_chemical_formula_structural   Ba2NbBiO6
_chemical_formula_sum   'Ba2 Nb1 Bi1 O6'
_cell_volume   164.48487955
_cell_formula_units_Z   1
loop_
 _symmetry_equiv_pos_site_id
 _symmetry_equiv_pos_as_xyz
  1  'x, y, z'
loop_
 _atom_site_type_symbol
 _atom_site_label
 _atom_site_symmetry_multiplicity
 _atom_site_fract_x
 _atom_site_fract_y
 _atom_site_fract_z
 _atom_site_occupancy
  Ba  Ba0  1  0.25116200  0.25116200  0.25116200  1
  Ba  Ba1  1  0.74883800  0.74883800  0.74883800  1
  Nb  Nb0  1  0.50000000  0.50000000  0.50000000  1
  Bi  Bi0  1  0.00000000  0.00000000  0.00000000  1
  O  O0  1  0.72724300  0.21846500  0.31980300  1
  O  O1  1  0.21846500  0.31980300  0.72724300  1
  O  O2  1  0.31980300  0.72724300  0.21846500  1
  O  O3  1  0.27275700  0.78153500  0.68019700  1
  O  O4  1  0.68019700  0.27275700  0.78153500  1
  O  O5  1  0.78153500  0.68019700  0.27275700  1
loop_
_geom_bond_atom_site_label_1
_geom_bond_atom_site_label_2
_geom_bond_distance
_geom_bond_site_symmetry_2
Ba0 O5 2.776766 1_455
Ba0 O3 2.776767 1_545
Ba0 O4 2.776767 1_554
Ba0 O0 3.048904 1_555
Ba0 O2 3.048904 1_555
Ba0 O1 3.048904 1_555
Ba0 O2 3.123831 1_545
Ba0 O0 3.123831 1_455
Ba0 O1 3.123831 1_554
Ba0 O5 3.400707 1_545
Ba0 O4 3.400708 1_455
Ba0 O3 3.400708 1_554
Ba1 O1 2.776766 1_655
Ba1 O0 2.776767 1_565
Ba1 O2 2.776767 1_556
Ba1 O3 3.048904 1_555
Ba1 O4 3.048904 1_555
Ba1 O5 3.048904 1_555
Ba1 O4 3.123831 1_565
Ba1 O3 3.123831 1_655
Ba1 O5 3.123831 1_556
Ba1 O1 3.400707 1_565
Ba1 O2 3.400708 1_655
Ba1 O0 3.400708 1_556
Nb0 O3 2.032110 1_555
Nb0 O0 2.032110 1_555
Nb0 O2 2.032110 1_555
Nb0 O4 2.032110 1_555
Nb0 O1 2.032110 1_555
Nb0 O5 2.032110 1_555
Bi0 O4 2.361878 1_454
Bi0 O2 2.361878 1_545
Bi0 O3 2.361878 1_544
Bi0 O0 2.361878 1_455
Bi0 O5 2.361878 1_445
Bi0 O1 2.361878 1_554
