# generated using pymatgen
data_Ce4(HoS2)11
_symmetry_space_group_name_H-M   'P 1'
_cell_length_a   19.74496176
_cell_length_b   19.74496176
_cell_length_c   11.37197599
_cell_angle_alpha   88.26290418
_cell_angle_beta   88.26290418
_cell_angle_gamma   11.49190716
_symmetry_Int_Tables_number   1
_chemical_formula_structural   Ce4(HoS2)11
_chemical_formula_sum   'Ce4 Ho11 S22'
_cell_volume   882.87774243
_cell_formula_units_Z   1
loop_
 _symmetry_equiv_pos_site_id
 _symmetry_equiv_pos_as_xyz
  1  'x, y, z'
loop_
 _atom_site_type_symbol
 _atom_site_label
 _atom_site_symmetry_multiplicity
 _atom_site_fract_x
 _atom_site_fract_y
 _atom_site_fract_z
 _atom_site_occupancy
  Ce  Ce0  1  0.10433200  0.10433200  0.98813100  1
  Ce  Ce1  1  0.89566800  0.89566800  0.01186900  1
  Ce  Ce2  1  0.36878300  0.36878300  0.65113300  1
  Ce  Ce3  1  0.63121700  0.63121700  0.34886700  1
  Ho  Ho0  1  0.79831500  0.79831500  0.94101100  1
  Ho  Ho1  1  0.20168500  0.20168500  0.05898900  1
  Ho  Ho2  1  0.46212400  0.46212400  0.73040100  1
  Ho  Ho3  1  0.53787600  0.53787600  0.26959900  1
  Ho  Ho4  1  0.65768400  0.65768400  0.69939800  1
  Ho  Ho5  1  0.34231600  0.34231600  0.30060200  1
  Ho  Ho6  1  0.26493700  0.26493700  0.64798900  1
  Ho  Ho7  1  0.73506300  0.73506300  0.35201100  1
  Ho  Ho8  1  0.06979700  0.06979700  0.64006600  1
  Ho  Ho9  1  0.93020300  0.93020300  0.35993400  1
  Ho  Ho10  1  0.00000000  0.00000000  0.00000000  1
  S  S0  1  0.08732300  0.08732300  0.24687800  1
  S  S1  1  0.91267700  0.91267700  0.75312200  1
  S  S2  1  0.18687600  0.18687600  0.30864800  1
  S  S3  1  0.81312400  0.81312400  0.69135200  1
  S  S4  1  0.27939200  0.27939200  0.40838200  1
  S  S5  1  0.72060800  0.72060800  0.59161800  1
  S  S6  1  0.44468600  0.44468600  0.50643500  1
  S  S7  1  0.55531400  0.55531400  0.49356500  1
  S  S8  1  0.13483600  0.13483600  0.54761500  1
  S  S9  1  0.86516400  0.86516400  0.45238500  1
  S  S10  1  0.59278700  0.59278700  0.78940000  1
  S  S11  1  0.40721300  0.40721300  0.21060000  1
  S  S12  1  0.45290400  0.45290400  0.97032600  1
  S  S13  1  0.54709600  0.54709600  0.02967400  1
  S  S14  1  0.35109600  0.35109600  0.90971400  1
  S  S15  1  0.64890400  0.64890400  0.09028600  1
  S  S16  1  0.16860000  0.16860000  0.84915500  1
  S  S17  1  0.83140000  0.83140000  0.15084500  1
  S  S18  1  0.00791600  0.00791600  0.75978800  1
  S  S19  1  0.99208400  0.99208400  0.24021200  1
  S  S20  1  0.25548000  0.25548000  0.88087500  1
  S  S21  1  0.74452000  0.74452000  0.11912500  1
loop_
_geom_bond_atom_site_label_1
_geom_bond_atom_site_label_2
_geom_bond_distance
_geom_bond_site_symmetry_2
Ce0 S15 2.906614 1_546
Ce0 S15 2.906614 1_456
Ce0 S16 2.937883 1_555
Ce0 S0 2.997484 1_556
Ce0 S13 3.020559 1_456
Ce0 S13 3.020559 1_546
Ce0 S10 3.046884 1_545
Ce0 S10 3.046884 1_455
Ce1 S14 2.906614 1_654
Ce1 S14 2.906614 1_564
Ce1 S17 2.937883 1_555
Ce1 S1 2.997484 1_554
Ce1 S12 3.020559 1_654
Ce1 S12 3.020559 1_564
Ce1 S11 3.046884 1_565
Ce1 S11 3.046884 1_655
Ce2 S1 2.889523 1_455
Ce2 S1 2.889523 1_545
Ce2 S3 2.972997 1_455
Ce2 S3 2.972997 1_545
Ce2 S14 3.000904 1_555
Ce2 S9 3.009309 1_545
Ce2 S9 3.009309 1_455
Ce2 S6 3.361997 1_555
Ce3 S0 2.889523 1_655
Ce3 S0 2.889523 1_565
Ce3 S2 2.972997 1_655
Ce3 S2 2.972997 1_565
Ce3 S15 3.000904 1_555
Ce3 S8 3.009309 1_565
Ce3 S8 3.009309 1_655
Ce3 S7 3.361997 1_555
Ho0 S20 2.697831 1_655
Ho0 S20 2.697831 1_565
Ho0 S17 2.751906 1_556
Ho0 S14 2.879298 1_565
Ho0 S14 2.879298 1_655
Ho0 S3 2.880710 1_555
Ho0 S21 2.882617 1_556
Ho1 S21 2.697831 1_455
Ho1 S21 2.697831 1_545
Ho1 S16 2.751906 1_554
Ho1 S15 2.879298 1_455
Ho1 S15 2.879298 1_545
Ho1 S2 2.880710 1_555
Ho1 S20 2.882617 1_554
Ho2 S6 2.657568 1_555
Ho2 S18 2.700629 1_655
Ho2 S18 2.700629 1_565
Ho2 S12 2.741404 1_555
Ho2 S1 2.778247 1_455
Ho2 S1 2.778247 1_545
Ho3 S7 2.657568 1_555
Ho3 S19 2.700629 1_455
Ho3 S19 2.700629 1_545
Ho3 S13 2.741404 1_555
Ho3 S0 2.778247 1_565
Ho3 S0 2.778247 1_655
Ho4 S16 2.652662 1_655
Ho4 S16 2.652662 1_565
Ho4 S10 2.718552 1_555
Ho4 S5 2.725854 1_555
Ho4 S8 2.790608 1_565
Ho4 S8 2.790608 1_655
Ho5 S17 2.652662 1_455
Ho5 S17 2.652662 1_545
Ho5 S11 2.718552 1_555
Ho5 S4 2.725854 1_555
Ho5 S9 2.790608 1_545
Ho5 S9 2.790608 1_455
Ho6 S20 2.663080 1_555
Ho6 S5 2.724061 1_455
Ho6 S5 2.724061 1_545
Ho6 S4 2.766377 1_555
Ho6 S3 2.791527 1_545
Ho6 S3 2.791527 1_455
Ho7 S21 2.663080 1_555
Ho7 S4 2.724061 1_565
Ho7 S4 2.724061 1_655
Ho7 S5 2.766377 1_555
Ho7 S2 2.791527 1_565
Ho7 S2 2.791527 1_655
Ho8 S7 2.658006 1_545
Ho8 S7 2.658006 1_455
Ho8 S8 2.733516 1_555
Ho8 S18 2.750201 1_555
Ho8 S10 2.775109 1_455
Ho8 S10 2.775109 1_545
Ho9 S6 2.658006 1_565
Ho9 S6 2.658006 1_655
Ho9 S9 2.733516 1_555
Ho9 S19 2.750201 1_555
Ho9 S11 2.775109 1_655
Ho9 S11 2.775109 1_565
Ho10 S13 2.735690 1_455
Ho10 S13 2.735690 1_545
Ho10 S12 2.735690 1_454
Ho10 S12 2.735690 1_544
Ho10 S19 2.739904 1_445
Ho10 S18 2.739904 1_554
