# generated using pymatgen
data_CsMg6Zn
_symmetry_space_group_name_H-M   'P 1'
_cell_length_a   7.98785533
_cell_length_b   7.98785533
_cell_length_c   4.22649800
_cell_angle_alpha   90.00000000
_cell_angle_beta   90.00000000
_cell_angle_gamma   115.20261521
_symmetry_Int_Tables_number   1
_chemical_formula_structural   CsMg6Zn
_chemical_formula_sum   'Cs1 Mg6 Zn1'
_cell_volume   244.00419750
_cell_formula_units_Z   1
loop_
 _symmetry_equiv_pos_site_id
 _symmetry_equiv_pos_as_xyz
  1  'x, y, z'
loop_
 _atom_site_type_symbol
 _atom_site_label
 _atom_site_symmetry_multiplicity
 _atom_site_fract_x
 _atom_site_fract_y
 _atom_site_fract_z
 _atom_site_occupancy
  Cs  Cs0  1  0.15089100  0.84910900  0.00000000  1
  Mg  Mg0  1  0.72779200  0.61955800  0.50000000  1
  Mg  Mg1  1  0.38044200  0.27220800  0.50000000  1
  Mg  Mg2  1  0.88300900  0.11699100  0.50000000  1
  Mg  Mg3  1  0.60803800  0.82620400  0.00000000  1
  Mg  Mg4  1  0.17379600  0.39196200  0.00000000  1
  Mg  Mg5  1  0.69725300  0.30274700  0.00000000  1
  Zn  Zn0  1  0.37839100  0.62160900  0.50000000  1
loop_
_geom_bond_atom_site_label_1
_geom_bond_atom_site_label_2
_geom_bond_distance
_geom_bond_site_symmetry_2
Cs0 Zn0 3.725982 1_555
Cs0 Zn0 3.725982 1_554
Cs0 Mg4 3.733205 1_555
Cs0 Mg3 3.733205 1_555
Cs0 Mg1 3.737970 1_565
Cs0 Mg1 3.737970 1_564
Cs0 Mg0 3.737970 1_454
Cs0 Mg0 3.737970 1_455
Cs0 Mg2 4.186023 1_465
Cs0 Mg2 4.186023 1_464
Mg0 Zn0 2.797980 1_555
Mg0 Mg1 2.973283 1_555
Mg0 Mg3 3.074128 1_555
Mg0 Mg3 3.074128 1_556
Mg0 Mg5 3.225481 1_556
Mg0 Mg5 3.225481 1_555
Mg1 Zn0 2.797980 1_555
Mg1 Mg4 3.074128 1_556
Mg1 Mg4 3.074128 1_555
Mg1 Mg5 3.225481 1_555
Mg1 Mg5 3.225481 1_556
Mg2 Mg4 3.215659 1_656
Mg2 Mg4 3.215659 1_655
Mg2 Mg3 3.215659 1_545
Mg2 Mg3 3.215659 1_546
Mg2 Mg5 3.277820 1_556
Mg2 Mg5 3.277820 1_555
Mg3 Zn0 2.819313 1_555
Mg3 Zn0 2.819313 1_554
Mg4 Zn0 2.819313 1_555
Mg4 Zn0 2.819313 1_554
