# generated using pymatgen
data_Tc3Te
_symmetry_space_group_name_H-M   'P 1'
_cell_length_a   4.50015342
_cell_length_b   4.50015342
_cell_length_c   4.50015342
_cell_angle_alpha   60.00000000
_cell_angle_beta   60.00000000
_cell_angle_gamma   60.00000000
_symmetry_Int_Tables_number   1
_chemical_formula_structural   Tc3Te
_chemical_formula_sum   'Tc3 Te1'
_cell_volume   64.44169610
_cell_formula_units_Z   1
loop_
 _symmetry_equiv_pos_site_id
 _symmetry_equiv_pos_as_xyz
  1  'x, y, z'
loop_
 _atom_site_type_symbol
 _atom_site_label
 _atom_site_symmetry_multiplicity
 _atom_site_fract_x
 _atom_site_fract_y
 _atom_site_fract_z
 _atom_site_occupancy
  Tc  Tc0  1  0.25000000  0.25000000  0.25000000  1
  Tc  Tc1  1  0.75000000  0.75000000  0.75000000  1
  Tc  Tc2  1  0.50000000  0.50000000  0.50000000  1
  Te  Te0  1  0.00000000  0.00000000  0.00000000  1
loop_
_geom_bond_atom_site_label_1
_geom_bond_atom_site_label_2
_geom_bond_distance
_geom_bond_site_symmetry_2
Tc0 Te0 2.755770 1_565
Tc0 Tc2 2.755770 1_555
Tc0 Tc2 2.755770 1_545
Tc0 Te0 2.755770 1_556
Tc0 Tc2 2.755770 1_554
Tc0 Te0 2.755770 1_555
Tc0 Tc2 2.755770 1_455
Tc0 Te0 2.755770 1_655
Tc1 Te0 2.755770 1_665
Tc1 Tc2 2.755770 1_565
Tc1 Tc2 2.755770 1_556
Tc1 Tc2 2.755770 1_555
Tc1 Te0 2.755770 1_656
Tc1 Te0 2.755770 1_666
Tc1 Te0 2.755770 1_566
Tc1 Tc2 2.755770 1_655
Tc2 Te0 3.182089 1_566
Tc2 Te0 3.182089 1_565
Tc2 Te0 3.182089 1_655
Tc2 Te0 3.182089 1_656
Tc2 Te0 3.182089 1_665
Tc2 Te0 3.182089 1_556
