# generated using pymatgen
data_K3Nb2Cu3Se8
_symmetry_space_group_name_H-M   'P 1'
_cell_length_a   5.71699387
_cell_length_b   12.56832134
_cell_length_c   13.92690219
_cell_angle_alpha   68.86296546
_cell_angle_beta   78.15586468
_cell_angle_gamma   76.85379638
_symmetry_Int_Tables_number   1
_chemical_formula_structural   K3Nb2Cu3Se8
_chemical_formula_sum   'K6 Nb4 Cu6 Se16'
_cell_volume   900.49828124
_cell_formula_units_Z   2
loop_
 _symmetry_equiv_pos_site_id
 _symmetry_equiv_pos_as_xyz
  1  'x, y, z'
loop_
 _atom_site_type_symbol
 _atom_site_label
 _atom_site_symmetry_multiplicity
 _atom_site_fract_x
 _atom_site_fract_y
 _atom_site_fract_z
 _atom_site_occupancy
  K  K0  1  0.73126741  0.71028614  0.90493775  1
  K  K1  1  0.34649129  0.78971386  0.59506225  1
  K  K2  1  0.26873259  0.28971386  0.09506225  1
  K  K3  1  0.65350871  0.21028614  0.40493775  1
  K  K4  1  -0.00000000  0.50000000  0.50000000  1
  K  K5  1  -0.00000000  0.00000000  -0.00000000  1
  Nb  Nb0  1  0.15620820  0.47073972  0.77874882  1
  Nb  Nb1  1  0.40569674  0.02926028  0.72125118  1
  Nb  Nb2  1  0.84379180  0.52926028  0.22125118  1
  Nb  Nb3  1  0.59430326  0.97073972  0.27874882  1
  Cu  Cu0  1  0.27583787  0.25000000  0.75000000  1
  Cu  Cu1  1  0.72416213  0.75000000  0.25000000  1
  Cu  Cu2  1  0.90312747  0.03444595  0.72079670  1
  Cu  Cu3  1  0.65837012  0.46555405  0.77920330  1
  Cu  Cu4  1  0.09687253  0.96555405  0.27920330  1
  Cu  Cu5  1  0.34162988  0.53444595  0.22079670  1
  Se  Se0  1  0.94769755  0.30615573  0.87480229  1
  Se  Se1  1  0.12865558  0.19384427  0.62519771  1
  Se  Se2  1  0.05230245  0.69384427  0.12519771  1
  Se  Se3  1  0.87134442  0.80615573  0.37480229  1
  Se  Se4  1  0.48877594  0.41331199  0.65658097  1
  Se  Se5  1  0.55866890  0.08668801  0.84341903  1
  Se  Se6  1  0.51122406  0.58668801  0.34341903  1
  Se  Se7  1  0.44133110  0.91331199  0.15658097  1
  Se  Se8  1  0.87034421  0.62960902  0.68410345  1
  Se  Se9  1  0.18405668  0.87039098  0.81589655  1
  Se  Se10  1  0.12965579  0.37039098  0.31589655  1
  Se  Se11  1  0.81594332  0.12960902  0.18410345  1
  Se  Se12  1  0.74365284  0.96886860  0.60691133  1
  Se  Se13  1  0.31943277  0.53113140  0.89308867  1
  Se  Se14  1  0.25634716  0.03113140  0.39308867  1
  Se  Se15  1  0.68056723  0.46886860  0.10691133  1
loop_
_geom_bond_atom_site_label_1
_geom_bond_atom_site_label_2
_geom_bond_distance
_geom_bond_site_symmetry_2
K0 Se15 3.333575 1_556
K0 Se9 3.397024 1_655
K0 Se8 3.463783 1_555
K0 Se9 3.507592 1_555
K0 Se13 3.605569 1_655
K0 Se13 3.671471 1_555
K0 Se2 3.808210 1_656
K1 Se14 3.333575 1_565
K1 Se8 3.397024 1_555
K1 Se9 3.463783 1_555
K1 Se8 3.507592 1_455
K1 Se12 3.605569 1_555
K1 Se12 3.671471 1_455
K1 Se3 3.808210 1_555
K2 Se13 3.333575 1_554
K2 Se11 3.397024 1_455
K2 Se10 3.463783 1_555
K2 Se11 3.507592 1_555
K2 Se15 3.605569 1_455
K2 Se15 3.671471 1_555
K2 Se0 3.808210 1_454
K3 Se12 3.333575 1_545
K3 Se10 3.397024 1_555
K3 Se11 3.463783 1_555
K3 Se10 3.507592 1_655
K3 Se14 3.605569 1_555
K3 Se14 3.671471 1_655
K3 Se1 3.808210 1_555
K4 Se8 3.385235 1_455
K4 Se10 3.385235 1_555
K4 Se4 3.406331 1_455
K4 Se6 3.406331 1_555
K4 Se3 3.575983 1_455
K4 Se1 3.575983 1_555
K4 Se6 3.626814 1_455
K4 Se4 3.626814 1_555
K5 Se9 3.385235 1_544
K5 Se11 3.385235 1_455
K5 Se7 3.406331 1_545
K5 Se5 3.406331 1_454
K5 Se2 3.575983 1_545
K5 Se0 3.575983 1_454
K5 Se5 3.626814 1_554
K5 Se7 3.626814 1_445
Nb0 Se13 2.405511 1_555
Nb0 Se8 2.428377 1_455
Nb0 Se0 2.441465 1_455
Nb0 Se4 2.442170 1_555
Nb1 Se12 2.405511 1_545
Nb1 Se9 2.428377 1_545
Nb1 Se1 2.441465 1_555
Nb1 Se5 2.442170 1_555
Nb2 Se15 2.405511 1_555
Nb2 Se10 2.428377 1_655
Nb2 Se2 2.441465 1_655
Nb2 Se6 2.442170 1_555
Nb3 Se14 2.405511 1_565
Nb3 Se11 2.428377 1_565
Nb3 Se3 2.441465 1_555
Nb3 Se7 2.442170 1_555
Cu0 Se5 2.438887 1_555
Cu0 Se4 2.438887 1_555
Cu0 Se1 2.445893 1_555
Cu0 Se0 2.445893 1_455
Cu1 Se7 2.438887 1_555
Cu1 Se6 2.438887 1_555
Cu1 Se3 2.445893 1_555
Cu1 Se2 2.445893 1_655
Cu2 Se12 2.429883 1_545
Cu2 Se9 2.445893 1_645
Cu2 Se1 2.448499 1_655
Cu2 Se5 2.462833 1_555
Cu3 Se13 2.429883 1_555
Cu3 Se8 2.445893 1_555
Cu3 Se0 2.448499 1_555
Cu3 Se4 2.462833 1_555
Cu4 Se14 2.429883 1_565
Cu4 Se11 2.445893 1_465
Cu4 Se3 2.448499 1_455
Cu4 Se7 2.462833 1_555
Cu5 Se15 2.429883 1_555
Cu5 Se10 2.445893 1_555
Cu5 Se2 2.448499 1_555
Cu5 Se6 2.462833 1_555
