# generated using pymatgen
data_Mg4Si3
_symmetry_space_group_name_H-M   'P 1'
_cell_length_a   6.55576000
_cell_length_b   6.98171453
_cell_length_c   12.81336089
_cell_angle_alpha   100.01072202
_cell_angle_beta   91.63247186
_cell_angle_gamma   103.68192165
_symmetry_Int_Tables_number   1
_chemical_formula_structural   Mg4Si3
_chemical_formula_sum   'Mg16 Si12'
_cell_volume   559.66904453
_cell_formula_units_Z   4
loop_
 _symmetry_equiv_pos_site_id
 _symmetry_equiv_pos_as_xyz
  1  'x, y, z'
loop_
 _atom_site_type_symbol
 _atom_site_label
 _atom_site_symmetry_multiplicity
 _atom_site_fract_x
 _atom_site_fract_y
 _atom_site_fract_z
 _atom_site_occupancy
  Mg  Mg0  1  0.58051500  0.01260600  0.89991000  1
  Mg  Mg1  1  0.64518800  0.53786500  0.88269700  1
  Mg  Mg2  1  0.07616000  0.85158100  0.44083700  1
  Mg  Mg3  1  0.11760400  0.52418500  0.25114500  1
  Mg  Mg4  1  0.03685900  0.90197900  0.95139400  1
  Mg  Mg5  1  0.03278800  0.29708200  0.83684400  1
  Mg  Mg6  1  0.52279000  0.81808900  0.35880400  1
  Mg  Mg7  1  0.37755700  0.22686100  0.35460700  1
  Mg  Mg8  1  0.33378000  0.87529700  0.65328500  1
  Mg  Mg9  1  0.40979700  0.41985600  0.65541200  1
  Mg  Mg10  1  0.94027800  0.87199400  0.21121900  1
  Mg  Mg11  1  0.89519800  0.20950300  0.38811200  1
  Mg  Mg12  1  0.95222000  0.46706300  0.62753300  1
  Mg  Mg13  1  0.83669000  0.84839700  0.72905800  1
  Mg  Mg14  1  0.56542700  0.48762100  0.15631600  1
  Mg  Mg15  1  0.48324300  0.95106800  0.14733400  1
  Si  Si0  1  0.72235900  0.03701600  0.55233700  1
  Si  Si1  1  0.25796700  0.54571600  0.47435400  1
  Si  Si2  1  0.33381600  0.26507400  0.97289000  1
  Si  Si3  1  0.93288200  0.54484100  0.04938200  1
  Si  Si4  1  0.26620400  0.67395200  0.81407200  1
  Si  Si5  1  0.64994200  0.20293000  0.72580300  1
  Si  Si6  1  0.74959800  0.52372500  0.35519800  1
  Si  Si7  1  0.19791800  0.18362600  0.13787700  1
  Si  Si8  1  0.64636700  0.65578400  0.52839800  1
  Si  Si9  1  0.08143400  0.10784700  0.62134600  1
  Si  Si10  1  0.29281200  0.61444200  0.00044100  1
  Si  Si11  1  0.84356100  0.20083700  0.08752900  1
loop_
_geom_bond_atom_site_label_1
_geom_bond_atom_site_label_2
_geom_bond_distance
_geom_bond_site_symmetry_2
Mg0 Si2 2.731075 1_555
Mg0 Si4 2.776315 1_545
Mg0 Si5 2.784258 1_555
Mg0 Si11 2.841396 1_556
Mg1 Si3 2.795005 1_556
Mg1 Si5 2.813239 1_555
Mg1 Si2 2.861855 1_555
Mg1 Si10 2.898438 1_556
Mg1 Si4 3.021838 1_555
Mg2 Si9 2.660721 1_565
Mg2 Si1 2.767482 1_555
Mg2 Si6 2.775176 1_455
Mg2 Si8 3.155579 1_455
Mg2 Si0 3.172278 1_465
Mg3 Si7 2.733686 1_555
Mg3 Si6 2.789113 1_455
Mg3 Si3 2.864392 1_455
Mg3 Si1 2.946932 1_555
Mg3 Si11 2.990076 1_455
Mg4 Si2 2.772045 1_565
Mg4 Si7 2.816310 1_566
Mg4 Si4 2.863626 1_555
Mg4 Si3 2.931113 1_456
Mg4 Si11 3.018878 1_466
Mg4 Si10 3.035235 1_556
Mg5 Si2 2.670456 1_555
Mg5 Si5 2.728867 1_455
Mg5 Si4 2.781650 1_555
Mg5 Si9 2.907391 1_555
Mg5 Si10 2.933303 1_556
Mg5 Si3 3.136469 1_456
Mg6 Si0 2.783666 1_565
Mg6 Si8 2.802269 1_555
Mg6 Si6 2.802357 1_555
Mg6 Si1 2.895850 1_555
Mg7 Si1 2.762489 1_555
Mg7 Si6 2.801192 1_555
Mg7 Si7 2.923018 1_555
Mg8 Si9 2.646390 1_565
Mg8 Si4 2.679765 1_555
Mg8 Si5 2.701899 1_565
Mg8 Si1 2.891060 1_555
Mg8 Si0 2.961782 1_565
Mg8 Si8 3.151004 1_555
Mg9 Si9 2.639567 1_555
Mg9 Si5 2.666035 1_555
Mg9 Si8 2.763058 1_555
Mg9 Si4 2.794901 1_555
Mg9 Si1 2.852376 1_555
Mg10 Si7 2.744556 1_665
Mg10 Si3 2.795483 1_555
Mg10 Si11 3.175127 1_565
Mg11 Si6 2.681623 1_555
Mg11 Si0 2.744713 1_555
Mg11 Si1 2.948674 1_655
Mg12 Si9 2.820168 1_655
Mg12 Si5 2.852000 1_555
Mg12 Si1 2.872228 1_655
Mg12 Si0 2.997516 1_555
Mg12 Si8 3.009414 1_555
Mg12 Si4 3.024779 1_655
Mg13 Si9 2.716766 1_665
Mg13 Si8 2.792363 1_555
Mg13 Si0 2.971596 1_565
Mg13 Si5 3.015624 1_565
Mg14 Si6 2.733638 1_555
Mg14 Si2 2.766695 1_554
Mg14 Si7 2.781973 1_555
Mg14 Si3 2.786240 1_555
Mg14 Si10 3.021132 1_555
Mg14 Si11 3.052155 1_555
Mg15 Si10 2.750448 1_555
Mg15 Si7 2.764418 1_565
Mg15 Si11 2.797677 1_565
Si0 Si9 2.397180 1_655
Si0 Si5 2.435705 1_555
Si0 Si8 2.550851 1_545
Si1 Si8 2.518408 1_555
Si2 Si7 2.423187 1_556
Si6 Si8 2.429533 1_555
Si10 Si3 2.417643 1_455
Si10 Si2 2.482486 1_554
Si10 Si4 2.502230 1_554
Si11 Si7 2.429185 1_655
Si11 Si3 2.471698 1_555
