# generated using pymatgen
data_Cs4Sr3(PO3)12
_symmetry_space_group_name_H-M   'P 1'
_cell_length_a   13.65121733
_cell_length_b   13.65121733
_cell_length_c   13.65121733
_cell_angle_alpha   109.47122063
_cell_angle_beta   109.47122063
_cell_angle_gamma   109.47122063
_symmetry_Int_Tables_number   1
_chemical_formula_structural   Cs4Sr3(PO3)12
_chemical_formula_sum   'Cs8 Sr6 P24 O72'
_cell_volume   1958.35874424
_cell_formula_units_Z   2
loop_
 _symmetry_equiv_pos_site_id
 _symmetry_equiv_pos_as_xyz
  1  'x, y, z'
loop_
 _atom_site_type_symbol
 _atom_site_label
 _atom_site_symmetry_multiplicity
 _atom_site_fract_x
 _atom_site_fract_y
 _atom_site_fract_z
 _atom_site_occupancy
  Cs  Cs0  1  0.23234900  0.50000000  0.00000000  1
  Cs  Cs1  1  0.50000000  0.00000000  0.23234900  1
  Cs  Cs2  1  0.00000000  0.23234900  0.50000000  1
  Cs  Cs3  1  0.26765100  0.26765100  0.26765100  1
  Cs  Cs4  1  0.50000000  0.00000000  0.73234900  1
  Cs  Cs5  1  0.73234900  0.50000000  0.00000000  1
  Cs  Cs6  1  0.00000000  0.73234900  0.50000000  1
  Cs  Cs7  1  0.76765100  0.76765100  0.76765100  1
  Sr  Sr0  1  0.37500000  0.25000000  0.62500000  1
  Sr  Sr1  1  0.12500000  0.75000000  0.87500000  1
  Sr  Sr2  1  0.25000000  0.62500000  0.37500000  1
  Sr  Sr3  1  0.75000000  0.87500000  0.12500000  1
  Sr  Sr4  1  0.62500000  0.37500000  0.25000000  1
  Sr  Sr5  1  0.87500000  0.12500000  0.75000000  1
  P  P0  1  0.17991000  0.76007100  0.17513800  1
  P  P1  1  0.41506800  0.73992900  0.91983900  1
  P  P2  1  0.08493200  0.00477200  0.32486200  1
  P  P3  1  0.32009000  0.49522800  0.58016100  1
  P  P4  1  0.67513800  0.26007100  0.67991000  1
  P  P5  1  0.41983900  0.23992900  0.91506800  1
  P  P6  1  0.82486200  0.50477200  0.58493200  1
  P  P7  1  0.08016100  0.99522800  0.82009000  1
  P  P8  1  0.76007100  0.17513800  0.17991000  1
  P  P9  1  0.73992900  0.91983900  0.41506800  1
  P  P10  1  0.00477200  0.32486200  0.08493200  1
  P  P11  1  0.49522800  0.58016100  0.32009000  1
  P  P12  1  0.26007100  0.67991000  0.67513800  1
  P  P13  1  0.23992900  0.91506800  0.41983900  1
  P  P14  1  0.50477200  0.58493200  0.82486200  1
  P  P15  1  0.99522800  0.82009000  0.08016100  1
  P  P16  1  0.17513800  0.17991000  0.76007100  1
  P  P17  1  0.91983900  0.41506800  0.73992900  1
  P  P18  1  0.32486200  0.08493200  0.00477200  1
  P  P19  1  0.58016100  0.32009000  0.49522800  1
  P  P20  1  0.67991000  0.67513800  0.26007100  1
  P  P21  1  0.91506800  0.41983900  0.23992900  1
  P  P22  1  0.58493200  0.82486200  0.50477200  1
  P  P23  1  0.82009000  0.08016100  0.99522800  1
  O  O0  1  0.95448800  0.19624100  0.08139100  1
  O  O1  1  0.88515000  0.30375900  0.25824800  1
  O  O2  1  0.61485000  0.87309800  0.41860900  1
  O  O3  1  0.54551200  0.62690200  0.24175200  1
  O  O4  1  0.58139100  0.69624100  0.45448800  1
  O  O5  1  0.75824800  0.80375900  0.38515000  1
  O  O6  1  0.91860900  0.37309800  0.11485000  1
  O  O7  1  0.74175200  0.12690200  0.04551200  1
  O  O8  1  0.19624100  0.08139100  0.95448800  1
  O  O9  1  0.30375900  0.25824800  0.88515000  1
  O  O10  1  0.87309800  0.41860900  0.61485000  1
  O  O11  1  0.62690200  0.24175200  0.54551200  1
  O  O12  1  0.69624100  0.45448800  0.58139100  1
  O  O13  1  0.80375900  0.38515000  0.75824800  1
  O  O14  1  0.37309800  0.11485000  0.91860900  1
  O  O15  1  0.12690200  0.04551200  0.74175200  1
  O  O16  1  0.08139100  0.95448800  0.19624100  1
  O  O17  1  0.25824800  0.88515000  0.30375900  1
  O  O18  1  0.41860900  0.61485000  0.87309800  1
  O  O19  1  0.24175200  0.54551200  0.62690200  1
  O  O20  1  0.45448800  0.58139100  0.69624100  1
  O  O21  1  0.38515000  0.75824800  0.80375900  1
  O  O22  1  0.11485000  0.91860900  0.37309800  1
  O  O23  1  0.04551200  0.74175200  0.12690200  1
  O  O24  1  0.13064400  0.40146100  0.18884600  1
  O  O25  1  0.78738400  0.09853900  0.22918200  1
  O  O26  1  0.71261600  0.94179800  0.31115400  1
  O  O27  1  0.36935600  0.55820200  0.27081800  1
  O  O28  1  0.68884600  0.90146100  0.63064400  1
  O  O29  1  0.72918200  0.59853900  0.28738400  1
  O  O30  1  0.81115400  0.44179800  0.21261600  1
  O  O31  1  0.77081800  0.05820200  0.86935600  1
  O  O32  1  0.40146100  0.18884600  0.13064400  1
  O  O33  1  0.09853900  0.22918200  0.78738400  1
  O  O34  1  0.94179800  0.31115400  0.71261600  1
  O  O35  1  0.55820200  0.27081800  0.36935600  1
  O  O36  1  0.90146100  0.63064400  0.68884600  1
  O  O37  1  0.59853900  0.28738400  0.72918200  1
  O  O38  1  0.44179800  0.21261600  0.81115400  1
  O  O39  1  0.05820200  0.86935600  0.77081800  1
  O  O40  1  0.18884600  0.13064400  0.40146100  1
  O  O41  1  0.22918200  0.78738400  0.09853900  1
  O  O42  1  0.31115400  0.71261600  0.94179800  1
  O  O43  1  0.27081800  0.36935600  0.55820200  1
  O  O44  1  0.63064400  0.68884600  0.90146100  1
  O  O45  1  0.28738400  0.72918200  0.59853900  1
  O  O46  1  0.21261600  0.81115400  0.44179800  1
  O  O47  1  0.86935600  0.77081800  0.05820200  1
  O  O48  1  0.69377900  0.15649800  0.67529600  1
  O  O49  1  0.51879700  0.34350200  0.03728100  1
  O  O50  1  0.98120300  0.01848300  0.82470400  1
  O  O51  1  0.80622100  0.48151700  0.46271900  1
  O  O52  1  0.17529600  0.65649800  0.19377900  1
  O  O53  1  0.53728100  0.84350200  0.01879700  1
  O  O54  1  0.32470400  0.51848300  0.48120300  1
  O  O55  1  0.96271900  0.98151700  0.30622100  1
  O  O56  1  0.15649800  0.67529600  0.69377900  1
  O  O57  1  0.34350200  0.03728100  0.51879700  1
  O  O58  1  0.01848300  0.82470400  0.98120300  1
  O  O59  1  0.48151700  0.46271900  0.80622100  1
  O  O60  1  0.65649800  0.19377900  0.17529600  1
  O  O61  1  0.84350200  0.01879700  0.53728100  1
  O  O62  1  0.51848300  0.48120300  0.32470400  1
  O  O63  1  0.98151700  0.30622100  0.96271900  1
  O  O64  1  0.67529600  0.69377900  0.15649800  1
  O  O65  1  0.03728100  0.51879700  0.34350200  1
  O  O66  1  0.82470400  0.98120300  0.01848300  1
  O  O67  1  0.46271900  0.80622100  0.48151700  1
  O  O68  1  0.19377900  0.17529600  0.65649800  1
  O  O69  1  0.01879700  0.53728100  0.84350200  1
  O  O70  1  0.48120300  0.32470400  0.51848300  1
  O  O71  1  0.30622100  0.96271900  0.98151700  1
loop_
_geom_bond_atom_site_label_1
_geom_bond_atom_site_label_2
_geom_bond_distance
_geom_bond_site_symmetry_2
Cs0 O27 3.199766 1_555
Cs0 O42 3.199766 1_554
Cs0 O33 3.199768 1_554
Cs0 O52 3.299037 1_555
Cs0 O63 3.299037 1_454
Cs0 O69 3.299047 1_554
Cs1 O26 3.199766 1_545
Cs1 O35 3.199766 1_555
Cs1 O41 3.199768 1_545
Cs1 O71 3.299037 1_544
Cs1 O60 3.299037 1_555
Cs1 O53 3.299047 1_545
Cs2 O34 3.199766 1_455
Cs2 O43 3.199766 1_555
Cs2 O25 3.199768 1_455
Cs2 O68 3.299037 1_555
Cs2 O55 3.299037 1_445
Cs2 O61 3.299047 1_455
Cs3 O32 3.199754 1_555
Cs3 O40 3.199754 1_555
Cs3 O24 3.199754 1_555
Cs3 O54 3.299043 1_555
Cs3 O70 3.299043 1_555
Cs3 O62 3.299043 1_555
Cs4 O38 3.199766 1_555
Cs4 O31 3.199766 1_555
Cs4 O45 3.199768 1_545
Cs4 O48 3.299037 1_555
Cs4 O67 3.299037 1_545
Cs4 O57 3.299047 1_555
Cs5 O30 3.199766 1_555
Cs5 O47 3.199766 1_555
Cs5 O37 3.199768 1_554
Cs5 O64 3.299037 1_555
Cs5 O59 3.299037 1_554
Cs5 O49 3.299047 1_555
Cs6 O39 3.199766 1_555
Cs6 O46 3.199766 1_555
Cs6 O29 3.199768 1_455
Cs6 O51 3.299037 1_455
Cs6 O56 3.299037 1_555
Cs6 O65 3.299047 1_555
Cs7 O36 3.199754 1_555
Cs7 O28 3.199754 1_555
Cs7 O44 3.199754 1_555
Cs7 O58 3.299043 1_655
Cs7 O66 3.299043 1_556
Cs7 O50 3.299043 1_565
O0 P23 1.625176 1_554
O0 P10 1.635318 1_655
O1 P21 1.625184 1_555
O1 P8 1.635311 1_555
O2 P22 1.625189 1_555
O2 P9 1.635304 1_555
O3 P20 1.625171 1_555
O3 P11 1.635318 1_555
O4 P11 1.625176 1_555
O4 P22 1.635318 1_555
O5 P9 1.625184 1_555
O5 P20 1.635311 1_555
O6 P10 1.625189 1_655
O6 P21 1.635304 1_555
O7 P8 1.625171 1_555
O7 P23 1.635318 1_554
O8 P7 1.625176 1_545
O8 P18 1.635318 1_556
O9 P5 1.625184 1_555
O9 P16 1.635311 1_555
O10 P6 1.625189 1_555
O10 P17 1.635304 1_555
O11 P4 1.625171 1_555
O11 P19 1.635318 1_555
O12 P19 1.625176 1_555
O12 P6 1.635318 1_555
O13 P17 1.625184 1_555
O13 P4 1.635311 1_555
O14 P18 1.625189 1_556
O14 P5 1.635304 1_555
O15 P16 1.625171 1_555
O15 P7 1.635318 1_545
O16 P15 1.625176 1_455
O16 P2 1.635318 1_565
O17 P13 1.625184 1_555
O17 P0 1.635311 1_555
O18 P14 1.625189 1_555
O18 P1 1.635304 1_555
O19 P12 1.625171 1_555
O19 P3 1.635318 1_555
O20 P3 1.625176 1_555
O20 P14 1.635318 1_555
O21 P1 1.625184 1_555
O21 P12 1.635311 1_555
O22 P2 1.625189 1_565
O22 P13 1.635304 1_555
O23 P0 1.625171 1_555
O23 P15 1.635318 1_455
O24 P10 1.498847 1_555
O24 Sr2 2.679519 1_555
O25 P8 1.498830 1_555
O25 Sr3 2.679523 1_545
O26 P9 1.498855 1_555
O26 Sr3 2.679511 1_555
O27 P11 1.498842 1_555
O27 Sr2 2.679511 1_555
O28 P22 1.498847 1_555
O28 Sr5 2.679519 1_565
O29 P20 1.498830 1_555
O29 Sr4 2.679523 1_555
O30 P21 1.498855 1_555
O30 Sr4 2.679511 1_555
O31 P23 1.498842 1_555
O31 Sr5 2.679511 1_555
O32 P18 1.498847 1_555
O32 Sr4 2.679519 1_555
O33 P16 1.498830 1_555
O33 Sr5 2.679523 1_455
O34 P17 1.498855 1_555
O34 Sr5 2.679511 1_555
O35 P19 1.498842 1_555
O35 Sr4 2.679511 1_555
O36 P6 1.498847 1_555
O36 Sr1 2.679519 1_655
O37 P4 1.498830 1_555
O37 Sr0 2.679523 1_555
O38 P5 1.498855 1_555
O38 Sr0 2.679511 1_555
O39 P7 1.498842 1_555
O39 Sr1 2.679511 1_555
O40 P2 1.498847 1_555
O40 Sr0 2.679519 1_555
O41 P0 1.498830 1_555
O41 Sr1 2.679523 1_554
O42 P1 1.498855 1_555
O42 Sr1 2.679511 1_555
O43 P3 1.498842 1_555
O43 Sr0 2.679511 1_555
O44 P14 1.498847 1_555
O44 Sr3 2.679519 1_556
O45 P12 1.498830 1_555
O45 Sr2 2.679523 1_555
O46 P13 1.498855 1_555
O46 Sr2 2.679511 1_555
O47 P15 1.498842 1_555
O47 Sr3 2.679511 1_555
O48 P4 1.503000 1_555
O48 Sr5 2.581584 1_555
O49 P5 1.502990 1_554
O49 Sr4 2.581586 1_555
O50 P7 1.502987 1_645
O50 Sr5 2.581592 1_555
O51 P6 1.502987 1_555
O51 Sr4 2.581584 1_555
O52 P0 1.503000 1_555
O52 Sr2 2.581584 1_555
O53 P1 1.502990 1_554
O53 Sr3 2.581586 1_555
O54 P3 1.502987 1_555
O54 Sr2 2.581592 1_555
O55 P2 1.502987 1_665
O55 Sr3 2.581584 1_555
O56 P12 1.503000 1_555
O56 Sr1 2.581584 1_555
O57 P13 1.502990 1_545
O57 Sr0 2.581586 1_555
O58 P15 1.502987 1_456
O58 Sr1 2.581592 1_555
O59 P14 1.502987 1_555
O59 Sr0 2.581584 1_555
O60 P8 1.503000 1_555
O60 Sr4 2.581584 1_555
O61 P9 1.502990 1_545
O61 Sr5 2.581586 1_555
O62 P11 1.502987 1_555
O62 Sr4 2.581592 1_555
O63 P10 1.502987 1_656
O63 Sr5 2.581584 1_555
O64 P20 1.503000 1_555
O64 Sr3 2.581584 1_555
O65 P21 1.502990 1_455
O65 Sr2 2.581586 1_555
O66 P23 1.502987 1_564
O66 Sr3 2.581592 1_555
O67 P22 1.502987 1_555
O67 Sr2 2.581584 1_555
O68 P16 1.503000 1_555
O68 Sr0 2.581584 1_555
O69 P17 1.502990 1_455
O69 Sr1 2.581586 1_555
O70 P19 1.502987 1_555
O70 Sr0 2.581592 1_555
O71 P18 1.502987 1_566
O71 Sr1 2.581584 1_555
