# generated using pymatgen
data_KCdN
_symmetry_space_group_name_H-M   'P 1'
_cell_length_a   7.50964400
_cell_length_b   4.26033200
_cell_length_c   6.89378200
_cell_angle_alpha   90.00000000
_cell_angle_beta   90.00000000
_cell_angle_gamma   90.00000000
_symmetry_Int_Tables_number   1
_chemical_formula_structural   KCdN
_chemical_formula_sum   'K4 Cd4 N4'
_cell_volume   220.55674277
_cell_formula_units_Z   4
loop_
 _symmetry_equiv_pos_site_id
 _symmetry_equiv_pos_as_xyz
  1  'x, y, z'
loop_
 _atom_site_type_symbol
 _atom_site_label
 _atom_site_symmetry_multiplicity
 _atom_site_fract_x
 _atom_site_fract_y
 _atom_site_fract_z
 _atom_site_occupancy
  K  K0  1  0.54419900  0.25000000  0.84906000  1
  K  K1  1  0.04419900  0.25000000  0.65094000  1
  K  K2  1  0.45580100  0.75000000  0.15094000  1
  K  K3  1  0.95580100  0.75000000  0.34906000  1
  Cd  Cd0  1  0.64351700  0.25000000  0.41414700  1
  Cd  Cd1  1  0.14351700  0.25000000  0.08585300  1
  Cd  Cd2  1  0.35648300  0.75000000  0.58585300  1
  Cd  Cd3  1  0.85648300  0.75000000  0.91414700  1
  N  N0  1  0.82633100  0.25000000  0.11210400  1
  N  N1  1  0.32633100  0.25000000  0.38789600  1
  N  N2  1  0.17366900  0.75000000  0.88789600  1
  N  N3  1  0.67366900  0.75000000  0.61210400  1
loop_
_geom_bond_atom_site_label_1
_geom_bond_atom_site_label_2
_geom_bond_distance
_geom_bond_site_symmetry_2
K0 N0 2.788770 1_556
K0 N3 2.855052 1_555
K0 N3 2.855052 1_545
K1 N1 2.788770 1_555
K1 N2 2.855052 1_555
K1 N2 2.855052 1_545
K2 N2 2.788770 1_554
K2 N1 2.855052 1_565
K2 N1 2.855052 1_555
K3 N3 2.788770 1_555
K3 N0 2.855052 1_565
K3 N0 2.855052 1_555
Cd0 N1 2.388819 1_555
Cd0 N0 2.494073 1_555
Cd0 N3 2.539923 1_555
Cd0 N3 2.539923 1_545
Cd1 N0 2.388819 1_455
Cd1 N1 2.494073 1_555
Cd1 N2 2.539923 1_544
Cd1 N2 2.539923 1_554
Cd2 N3 2.388819 1_555
Cd2 N2 2.494073 1_555
Cd2 N1 2.539923 1_565
Cd2 N1 2.539923 1_555
Cd3 N2 2.388819 1_655
Cd3 N3 2.494073 1_555
Cd3 N0 2.539923 1_556
Cd3 N0 2.539923 1_566
