# generated using pymatgen
data_P4Pb3O13
_symmetry_space_group_name_H-M   'P 1'
_cell_length_a   7.35536023
_cell_length_b   7.83858753
_cell_length_c   10.20519169
_cell_angle_alpha   102.07212590
_cell_angle_beta   104.09011310
_cell_angle_gamma   94.57855043
_symmetry_Int_Tables_number   1
_chemical_formula_structural   P4Pb3O13
_chemical_formula_sum   'P8 Pb6 O26'
_cell_volume   552.73660660
_cell_formula_units_Z   2
loop_
 _symmetry_equiv_pos_site_id
 _symmetry_equiv_pos_as_xyz
  1  'x, y, z'
loop_
 _atom_site_type_symbol
 _atom_site_label
 _atom_site_symmetry_multiplicity
 _atom_site_fract_x
 _atom_site_fract_y
 _atom_site_fract_z
 _atom_site_occupancy
  P  P0  1  0.81426875  0.30588937  0.03232342  1
  P  P1  1  0.18573125  0.69411063  0.96767658  1
  P  P2  1  0.36309384  0.04033425  0.13757986  1
  P  P3  1  0.63690616  0.95966575  0.86242014  1
  P  P4  1  0.86113750  0.03562814  0.66335984  1
  P  P5  1  0.13886250  0.96437186  0.33664016  1
  P  P6  1  0.33327534  0.30283413  0.50945323  1
  P  P7  1  0.66672466  0.69716587  0.49054677  1
  Pb  Pb0  1  0.79332669  0.27255795  0.38447459  1
  Pb  Pb1  1  0.20667331  0.72744205  0.61552541  1
  Pb  Pb2  1  0.30477788  0.27076536  0.85160034  1
  Pb  Pb3  1  0.69522212  0.72923464  0.14839966  1
  Pb  Pb4  1  0.24578011  0.47787898  0.23004143  1
  Pb  Pb5  1  0.75421989  0.52212102  0.76995857  1
  O  O0  1  0.34235390  0.61196704  0.05307098  1
  O  O1  1  0.65764610  0.38803296  0.94692902  1
  O  O2  1  0.84541284  0.37968740  0.18718835  1
  O  O3  1  0.15458716  0.62031260  0.81281165  1
  O  O4  1  0.99309762  0.31012218  0.98661895  1
  O  O5  1  0.00690238  0.68987782  0.01338105  1
  O  O6  1  0.27261127  0.90103846  0.99493232  1
  O  O7  1  0.72738873  0.09896154  0.00506768  1
  O  O8  1  0.38301553  0.21652211  0.10425812  1
  O  O9  1  0.61698447  0.78347789  0.89574188  1
  O  O10  1  0.53842574  0.98518564  0.21741900  1
  O  O11  1  0.46157426  0.01481436  0.78258100  1
  O  O12  1  0.20147655  0.03562036  0.21642404  1
  O  O13  1  0.79852345  0.96437964  0.78357596  1
  O  O14  1  0.42603577  0.35100334  0.66457241  1
  O  O15  1  0.57396423  0.64899666  0.33542759  1
  O  O16  1  0.15406791  0.38838563  0.47143870  1
  O  O17  1  0.84593209  0.61161437  0.52856130  1
  O  O18  1  0.53800687  0.67559643  0.58203158  1
  O  O19  1  0.46199313  0.32440357  0.41796842  1
  O  O20  1  0.26506158  0.09134758  0.47582644  1
  O  O21  1  0.73493842  0.90865242  0.52417356  1
  O  O22  1  0.06431136  0.00674712  0.68442401  1
  O  O23  1  0.93568864  0.99325288  0.31557599  1
  O  O24  1  0.82086747  0.21733211  0.65780532  1
  O  O25  1  0.17913253  0.78266789  0.34219468  1
loop_
_geom_bond_atom_site_label_1
_geom_bond_atom_site_label_2
_geom_bond_distance
_geom_bond_site_symmetry_2
O0 P1 1.538021 1_554
O0 Pb4 2.484037 1_555
O0 Pb3 2.558027 1_555
O1 P0 1.538021 1_556
O1 Pb5 2.484037 1_555
O1 Pb2 2.558027 1_555
O2 P0 1.518227 1_555
O2 Pb0 2.436573 1_555
O3 P1 1.518227 1_555
O3 Pb1 2.436573 1_555
O4 P0 1.499006 1_556
O4 Pb4 2.711087 1_656
O5 P1 1.499006 1_554
O5 Pb5 2.711087 1_454
O6 P2 1.581685 1_566
O6 P1 1.635831 1_555
O7 P3 1.581685 1_544
O7 P0 1.635831 1_555
O8 P2 1.494270 1_555
O8 Pb4 2.593212 1_555
O8 Pb2 2.633513 1_554
O9 P3 1.494270 1_555
O9 Pb5 2.593212 1_555
O9 Pb3 2.633513 1_556
O10 P2 1.496194 1_565
O10 Pb3 2.454639 1_555
O10 Pb0 2.767478 1_565
O11 P3 1.496194 1_545
O11 Pb2 2.454639 1_555
O11 Pb1 2.767478 1_545
O12 P2 1.591556 1_555
O12 P5 1.596796 1_545
O13 P3 1.591556 1_555
O13 P4 1.596796 1_565
O14 P6 1.515588 1_555
O14 Pb2 2.464843 1_555
O14 Pb5 2.529508 1_555
O15 P7 1.515588 1_555
O15 Pb3 2.464843 1_555
O15 Pb4 2.529508 1_555
O16 P6 1.529265 1_555
O16 Pb0 2.604646 1_455
O16 Pb1 2.701762 1_555
O17 P7 1.529265 1_555
O17 Pb1 2.604646 1_655
O17 Pb0 2.701762 1_555
O18 P7 1.505804 1_555
O18 Pb1 2.593637 1_555
O18 Pb5 2.727635 1_555
O19 P6 1.505804 1_555
O19 Pb0 2.593637 1_555
O19 Pb4 2.727635 1_555
O20 P5 1.577672 1_545
O20 P6 1.631893 1_555
O21 P4 1.577672 1_565
O21 P7 1.631893 1_555
O22 P4 1.499566 1_455
O22 Pb1 2.542581 1_545
O22 Pb2 2.606050 1_555
O23 P5 1.499566 1_655
O23 Pb0 2.542581 1_565
O23 Pb3 2.606050 1_555
O24 P4 1.487459 1_555
O24 Pb5 2.564089 1_555
O24 Pb0 2.872821 1_555
O25 P5 1.487459 1_555
O25 Pb4 2.564089 1_555
O25 Pb1 2.872821 1_555
