# generated using pymatgen
data_Ni(CO3)2
_symmetry_space_group_name_H-M   'P 1'
_cell_length_a   6.31032100
_cell_length_b   6.25003238
_cell_length_c   18.98081500
_cell_angle_alpha   90.00000000
_cell_angle_beta   90.00000000
_cell_angle_gamma   120.31960240
_symmetry_Int_Tables_number   1
_chemical_formula_structural   Ni(CO3)2
_chemical_formula_sum   'Ni4 C8 O24'
_cell_volume   646.20679801
_cell_formula_units_Z   4
loop_
 _symmetry_equiv_pos_site_id
 _symmetry_equiv_pos_as_xyz
  1  'x, y, z'
loop_
 _atom_site_type_symbol
 _atom_site_label
 _atom_site_symmetry_multiplicity
 _atom_site_fract_x
 _atom_site_fract_y
 _atom_site_fract_z
 _atom_site_occupancy
  Ni  Ni0  1  0.50000000  0.50000000  0.00000000  1
  Ni  Ni1  1  0.00000000  0.50000000  0.50000000  1
  Ni  Ni2  1  0.50000000  0.00000000  0.25000000  1
  Ni  Ni3  1  0.50000000  0.00000000  0.75000000  1
  C  C0  1  0.00000000  0.00000000  0.15980900  1
  C  C1  1  0.00000000  0.00000000  0.84019100  1
  C  C2  1  0.00000000  0.00000000  0.34019100  1
  C  C3  1  0.00000000  0.00000000  0.65980900  1
  C  C4  1  0.50000000  0.50000000  0.40978100  1
  C  C5  1  0.50000000  0.50000000  0.59021900  1
  C  C6  1  0.00000000  0.50000000  0.09021900  1
  C  C7  1  0.00000000  0.50000000  0.90978100  1
  O  O0  1  0.32800100  0.17667900  0.00000000  1
  O  O1  1  0.67199900  0.82332100  0.00000000  1
  O  O2  1  0.84867800  0.17667900  0.50000000  1
  O  O3  1  0.15132200  0.82332100  0.50000000  1
  O  O4  1  0.31185800  0.49571300  0.41015300  1
  O  O5  1  0.68814200  0.50428700  0.58984700  1
  O  O6  1  0.68814200  0.50428700  0.41015300  1
  O  O7  1  0.18385400  0.49571300  0.08984700  1
  O  O8  1  0.31185800  0.49571300  0.58984700  1
  O  O9  1  0.81614600  0.50428700  0.91015300  1
  O  O10  1  0.81614600  0.50428700  0.08984700  1
  O  O11  1  0.18385400  0.49571300  0.91015300  1
  O  O12  1  0.18388400  0.99543600  0.16022600  1
  O  O13  1  0.81611600  0.00456400  0.83977400  1
  O  O14  1  0.81611600  0.00456400  0.16022600  1
  O  O15  1  0.81155200  0.99543600  0.33977400  1
  O  O16  1  0.18388400  0.99543600  0.83977400  1
  O  O17  1  0.18844800  0.00456400  0.66022600  1
  O  O18  1  0.18844800  0.00456400  0.33977400  1
  O  O19  1  0.81155200  0.99543600  0.66022600  1
  O  O20  1  0.33823300  0.67646600  0.25000000  1
  O  O21  1  0.66176700  0.32353400  0.75000000  1
  O  O22  1  0.66176700  0.32353400  0.25000000  1
  O  O23  1  0.33823300  0.67646600  0.75000000  1
loop_
_geom_bond_atom_site_label_1
_geom_bond_atom_site_label_2
_geom_bond_distance
_geom_bond_site_symmetry_2
Ni0 O0 1.745592 1_555
Ni0 O1 1.745592 1_555
Ni1 O2 1.745592 1_455
Ni1 O3 1.745592 1_555
Ni2 O22 1.745521 1_555
Ni2 O20 1.745521 1_545
Ni3 O23 1.745521 1_545
Ni3 O21 1.745521 1_555
C0 O14 1.175052 1_455
C0 O12 1.175052 1_545
C1 O13 1.175052 1_455
C1 O16 1.175052 1_545
C2 O18 1.175052 1_555
C2 O15 1.175052 1_445
C3 O17 1.175052 1_555
C3 O19 1.175052 1_445
C4 O6 1.173959 1_555
C4 O4 1.173959 1_555
C5 O5 1.173959 1_555
C5 O8 1.173959 1_555
C6 O10 1.173953 1_455
C6 O7 1.173953 1_555
C7 O9 1.173953 1_455
C7 O11 1.173953 1_555
