# generated using pymatgen
data_Sm3TmS4
_symmetry_space_group_name_H-M   'P 1'
_cell_length_a   3.94583073
_cell_length_b   5.61473128
_cell_length_c   7.94471912
_cell_angle_alpha   90.00000000
_cell_angle_beta   90.00000000
_cell_angle_gamma   90.00000000
_symmetry_Int_Tables_number   1
_chemical_formula_structural   Sm3TmS4
_chemical_formula_sum   'Sm3 Tm1 S4'
_cell_volume   176.01349811
_cell_formula_units_Z   1
loop_
 _symmetry_equiv_pos_site_id
 _symmetry_equiv_pos_as_xyz
  1  'x, y, z'
loop_
 _atom_site_type_symbol
 _atom_site_label
 _atom_site_symmetry_multiplicity
 _atom_site_fract_x
 _atom_site_fract_y
 _atom_site_fract_z
 _atom_site_occupancy
  Sm  Sm0  1  0.50000000  0.50000000  0.25525884  1
  Sm  Sm1  1  0.00000000  0.00000000  0.50000000  1
  Sm  Sm2  1  0.50000000  0.50000000  0.74474116  1
  Tm  Tm0  1  0.00000000  0.00000000  0.00000000  1
  S  S0  1  0.00000000  0.50000000  0.50000000  1
  S  S1  1  0.50000000  0.00000000  0.76396185  1
  S  S2  1  0.00000000  0.50000000  0.00000000  1
  S  S3  1  0.50000000  -0.00000000  0.23603815  1
loop_
_geom_bond_atom_site_label_1
_geom_bond_atom_site_label_2
_geom_bond_distance
_geom_bond_site_symmetry_2
S0 Sm0 2.770033 1_555
S0 Sm2 2.770033 1_455
S0 Sm2 2.770033 1_555
S0 Sm0 2.770033 1_455
S0 Sm1 2.807366 1_565
S0 Sm1 2.807366 1_555
S1 Tm0 2.721945 1_656
S1 Tm0 2.721945 1_556
S1 Sm2 2.811516 1_555
S1 Sm2 2.811516 1_545
S1 Sm1 2.879277 1_655
S1 Sm1 2.879277 1_555
S2 Tm0 2.807366 1_555
S2 Tm0 2.807366 1_565
S2 Sm2 2.829314 1_454
S2 Sm0 2.829314 1_455
S2 Sm2 2.829314 1_554
S2 Sm0 2.829314 1_555
S3 Tm0 2.721945 1_655
S3 Tm0 2.721945 1_555
S3 Sm0 2.811516 1_545
S3 Sm0 2.811516 1_555
S3 Sm1 2.879277 1_555
S3 Sm1 2.879277 1_655
