# generated using pymatgen
data_Ca4Be2Al2Si9O28
_symmetry_space_group_name_H-M   'P 1'
_cell_length_a   12.02490144
_cell_length_b   12.02490144
_cell_length_c   19.69313600
_cell_angle_alpha   90.00000000
_cell_angle_beta   90.00000000
_cell_angle_gamma   155.57161635
_symmetry_Int_Tables_number   1
_chemical_formula_structural   Ca4Be2Al2Si9O28
_chemical_formula_sum   'Ca8 Be4 Al4 Si18 O56'
_cell_volume   1177.63784460
_cell_formula_units_Z   2
loop_
 _symmetry_equiv_pos_site_id
 _symmetry_equiv_pos_as_xyz
  1  'x, y, z'
loop_
 _atom_site_type_symbol
 _atom_site_label
 _atom_site_symmetry_multiplicity
 _atom_site_fract_x
 _atom_site_fract_y
 _atom_site_fract_z
 _atom_site_occupancy
  Ca  Ca0  1  0.84680400  0.67637200  0.65154500  1
  Ca  Ca1  1  0.15319600  0.32362800  0.34845500  1
  Ca  Ca2  1  0.15319600  0.32362800  0.15154500  1
  Ca  Ca3  1  0.67637200  0.84680400  0.84845500  1
  Ca  Ca4  1  0.84680400  0.67637200  0.84845500  1
  Ca  Ca5  1  0.32362800  0.15319600  0.15154500  1
  Ca  Ca6  1  0.32362800  0.15319600  0.34845500  1
  Ca  Ca7  1  0.67637200  0.84680400  0.65154500  1
  Be  Be0  1  0.05528200  0.30827900  0.75000000  1
  Be  Be1  1  0.94471800  0.69172100  0.25000000  1
  Be  Be2  1  0.30827900  0.05528200  0.75000000  1
  Be  Be3  1  0.69172100  0.94471800  0.25000000  1
  Al  Al0  1  0.59524900  0.40475100  0.50000000  1
  Al  Al1  1  0.40475100  0.59524900  0.50000000  1
  Al  Al2  1  0.40475100  0.59524900  0.00000000  1
  Al  Al3  1  0.59524900  0.40475100  0.00000000  1
  Si  Si0  1  0.22308600  0.22308600  0.75000000  1
  Si  Si1  1  0.77691400  0.77691400  0.25000000  1
  Si  Si2  1  0.92549100  0.35441900  0.64303500  1
  Si  Si3  1  0.07450900  0.64558100  0.35696500  1
  Si  Si4  1  0.07450900  0.64558100  0.14303500  1
  Si  Si5  1  0.35441900  0.92549100  0.85696500  1
  Si  Si6  1  0.92549100  0.35441900  0.85696500  1
  Si  Si7  1  0.64558100  0.07450900  0.14303500  1
  Si  Si8  1  0.64558100  0.07450900  0.35696500  1
  Si  Si9  1  0.35441900  0.92549100  0.64303500  1
  Si  Si10  1  0.83033100  0.16966900  0.50000000  1
  Si  Si11  1  0.16966900  0.83033100  0.50000000  1
  Si  Si12  1  0.16966900  0.83033100  0.00000000  1
  Si  Si13  1  0.83033100  0.16966900  0.00000000  1
  Si  Si14  1  0.27884100  0.27884100  0.60511300  1
  Si  Si15  1  0.72115900  0.72115900  0.39488700  1
  Si  Si16  1  0.72115900  0.72115900  0.10511300  1
  Si  Si17  1  0.27884100  0.27884100  0.89488700  1
  O  O0  1  0.42582900  0.42582900  0.68323400  1
  O  O1  1  0.57417100  0.57417100  0.31676600  1
  O  O2  1  0.57417100  0.57417100  0.18323400  1
  O  O3  1  0.42582900  0.42582900  0.81676600  1
  O  O4  1  0.60795200  0.38453400  0.75000000  1
  O  O5  1  0.39204800  0.61546600  0.25000000  1
  O  O6  1  0.38453400  0.60795200  0.75000000  1
  O  O7  1  0.61546600  0.39204800  0.25000000  1
  O  O8  1  0.99206900  0.11016500  0.75000000  1
  O  O9  1  0.00793100  0.88983500  0.25000000  1
  O  O10  1  0.11016500  0.99206900  0.75000000  1
  O  O11  1  0.88983500  0.00793100  0.25000000  1
  O  O12  1  0.92443200  0.33981200  0.56005600  1
  O  O13  1  0.07556800  0.66018800  0.43994400  1
  O  O14  1  0.07556800  0.66018800  0.06005600  1
  O  O15  1  0.33981200  0.92443200  0.93994400  1
  O  O16  1  0.92443200  0.33981200  0.93994400  1
  O  O17  1  0.66018800  0.07556800  0.06005600  1
  O  O18  1  0.66018800  0.07556800  0.43994400  1
  O  O19  1  0.33981200  0.92443200  0.56005600  1
  O  O20  1  0.03417000  0.03417000  0.11488600  1
  O  O21  1  0.96583000  0.96583000  0.88511400  1
  O  O22  1  0.96583000  0.96583000  0.61488600  1
  O  O23  1  0.03417000  0.03417000  0.38511400  1
  O  O24  1  0.91584700  0.22542800  0.68045400  1
  O  O25  1  0.08415300  0.77457200  0.31954600  1
  O  O26  1  0.08415300  0.77457200  0.18045400  1
  O  O27  1  0.22542800  0.91584700  0.81954600  1
  O  O28  1  0.91584700  0.22542800  0.81954600  1
  O  O29  1  0.77457200  0.08415300  0.18045400  1
  O  O30  1  0.77457200  0.08415300  0.31954600  1
  O  O31  1  0.22542800  0.91584700  0.68045400  1
  O  O32  1  0.90094200  0.63902700  0.53621800  1
  O  O33  1  0.09905800  0.36097300  0.46378200  1
  O  O34  1  0.09905800  0.36097300  0.03621800  1
  O  O35  1  0.63902700  0.90094200  0.96378200  1
  O  O36  1  0.90094200  0.63902700  0.96378200  1
  O  O37  1  0.36097300  0.09905800  0.03621800  1
  O  O38  1  0.36097300  0.09905800  0.46378200  1
  O  O39  1  0.63902700  0.90094200  0.53621800  1
  O  O40  1  0.20273100  0.67124100  0.66419000  1
  O  O41  1  0.79726900  0.32875900  0.33581000  1
  O  O42  1  0.79726900  0.32875900  0.16419000  1
  O  O43  1  0.67124100  0.20273100  0.83581000  1
  O  O44  1  0.20273100  0.67124100  0.83581000  1
  O  O45  1  0.32875900  0.79726900  0.16419000  1
  O  O46  1  0.32875900  0.79726900  0.33581000  1
  O  O47  1  0.67124100  0.20273100  0.66419000  1
  O  O48  1  0.34522800  0.46019700  0.57227400  1
  O  O49  1  0.65477200  0.53980300  0.42772600  1
  O  O50  1  0.65477200  0.53980300  0.07227400  1
  O  O51  1  0.46019700  0.34522800  0.92772600  1
  O  O52  1  0.34522800  0.46019700  0.92772600  1
  O  O53  1  0.53980300  0.65477200  0.07227400  1
  O  O54  1  0.53980300  0.65477200  0.42772600  1
  O  O55  1  0.46019700  0.34522800  0.57227400  1
loop_
_geom_bond_atom_site_label_1
_geom_bond_atom_site_label_2
_geom_bond_distance
_geom_bond_site_symmetry_2
Ca0 O31 2.339078 1_655
Ca0 O22 2.369240 1_555
Ca0 O4 2.443334 1_555
Ca0 O55 2.489221 1_555
Ca0 O10 2.511540 1_655
Ca0 O32 2.513154 1_555
Ca0 O0 2.705586 1_555
Ca1 O30 2.339078 1_455
Ca1 O23 2.369240 1_555
Ca1 O5 2.443334 1_555
Ca1 O54 2.489221 1_555
Ca1 O11 2.511540 1_455
Ca1 O33 2.513154 1_555
Ca1 O1 2.705586 1_555
Ca2 O29 2.339078 1_455
Ca2 O20 2.369240 1_555
Ca2 O5 2.443334 1_555
Ca2 O53 2.489221 1_555
Ca2 O11 2.511540 1_455
Ca2 O34 2.513154 1_555
Ca2 O2 2.705586 1_555
Ca3 O28 2.339078 1_565
Ca3 O21 2.369240 1_555
Ca3 O6 2.443334 1_555
Ca3 O52 2.489221 1_555
Ca3 O8 2.511540 1_565
Ca3 O35 2.513154 1_555
Ca3 O3 2.705586 1_555
Ca4 O27 2.339078 1_655
Ca4 O21 2.369240 1_555
Ca4 O4 2.443334 1_555
Ca4 O51 2.489221 1_555
Ca4 O10 2.511540 1_655
Ca4 O36 2.513154 1_555
Ca4 O3 2.705586 1_555
Ca5 O26 2.339078 1_545
Ca5 O20 2.369240 1_555
Ca5 O7 2.443334 1_555
Ca5 O50 2.489221 1_555
Ca5 O9 2.511540 1_545
Ca5 O37 2.513154 1_555
Ca5 O2 2.705586 1_555
Ca6 O25 2.339078 1_545
Ca6 O23 2.369240 1_555
Ca6 O7 2.443334 1_555
Ca6 O49 2.489221 1_555
Ca6 O9 2.511540 1_545
Ca6 O38 2.513154 1_555
Ca6 O1 2.705586 1_555
Ca7 O24 2.339078 1_565
Ca7 O22 2.369240 1_555
Ca7 O6 2.443334 1_555
Ca7 O48 2.489221 1_555
Ca7 O8 2.511540 1_565
Ca7 O39 2.513154 1_555
Ca7 O0 2.705586 1_555
Be0 O28 1.624129 1_455
Be0 O24 1.624129 1_455
Be0 O6 1.637359 1_555
Be0 O8 1.719203 1_455
Be1 O26 1.624129 1_655
Be1 O25 1.624129 1_655
Be1 O7 1.637359 1_555
Be1 O9 1.719203 1_655
Be2 O27 1.624129 1_545
Be2 O31 1.624129 1_545
Be2 O4 1.637359 1_555
Be2 O10 1.719203 1_545
Be3 O29 1.624129 1_565
Be3 O30 1.624129 1_565
Be3 O5 1.637359 1_555
Be3 O11 1.719203 1_565
Al0 O55 1.748938 1_555
Al0 O49 1.748938 1_555
Al0 O32 1.760773 1_555
Al0 O38 1.760773 1_555
Al1 O48 1.748938 1_555
Al1 O54 1.748938 1_555
Al1 O39 1.760773 1_555
Al1 O33 1.760773 1_555
Al2 O52 1.748938 1_554
Al2 O53 1.748938 1_555
Al2 O35 1.760773 1_554
Al2 O34 1.760773 1_555
Al3 O51 1.748938 1_554
Al3 O50 1.748938 1_555
Al3 O36 1.760773 1_554
Al3 O37 1.760773 1_555
O0 Si0 1.671212 1_555
O0 Si14 1.710605 1_555
O1 Si1 1.671212 1_555
O1 Si15 1.710605 1_555
O2 Si1 1.671212 1_555
O2 Si16 1.710605 1_555
O3 Si0 1.671212 1_555
O3 Si17 1.710605 1_555
O8 Si0 1.640740 1_655
O9 Si1 1.640740 1_455
O10 Si0 1.640740 1_565
O11 Si1 1.640740 1_545
O12 Si10 1.627693 1_555
O12 Si2 1.642339 1_555
O13 Si11 1.627693 1_555
O13 Si3 1.642339 1_555
O14 Si12 1.627693 1_555
O14 Si4 1.642339 1_555
O15 Si12 1.627693 1_556
O15 Si5 1.642339 1_555
O16 Si13 1.627693 1_556
O16 Si6 1.642339 1_555
O17 Si13 1.627693 1_555
O17 Si7 1.642339 1_555
O18 Si10 1.627693 1_555
O18 Si8 1.642339 1_555
O19 Si11 1.627693 1_555
O19 Si9 1.642339 1_555
O20 Si16 1.604231 1_445
O21 Si17 1.604231 1_665
O22 Si14 1.604231 1_665
O23 Si15 1.604231 1_445
O24 Si2 1.623219 1_555
O25 Si3 1.623219 1_555
O26 Si4 1.623219 1_555
O27 Si5 1.623219 1_555
O28 Si6 1.623219 1_555
O29 Si7 1.623219 1_555
O30 Si8 1.623219 1_555
O31 Si9 1.623219 1_555
O32 Si11 1.645118 1_655
O33 Si10 1.645118 1_455
O34 Si13 1.645118 1_455
O35 Si13 1.645118 1_566
O36 Si12 1.645118 1_656
O37 Si12 1.645118 1_545
O38 Si11 1.645118 1_545
O39 Si10 1.645118 1_565
O40 Si2 1.635269 1_455
O40 Si9 1.641050 1_555
O41 Si3 1.635269 1_655
O41 Si8 1.641050 1_555
O42 Si4 1.635269 1_655
O42 Si7 1.641050 1_555
O43 Si5 1.635269 1_545
O43 Si6 1.641050 1_555
O44 Si6 1.635269 1_455
O44 Si5 1.641050 1_555
O45 Si7 1.635269 1_565
O45 Si4 1.641050 1_555
O46 Si8 1.635269 1_565
O46 Si3 1.641050 1_555
O47 Si9 1.635269 1_545
O47 Si2 1.641050 1_555
O48 Si14 1.625178 1_555
O49 Si15 1.625178 1_555
O50 Si16 1.625178 1_555
O51 Si17 1.625178 1_555
O52 Si17 1.625178 1_555
O53 Si16 1.625178 1_555
O54 Si15 1.625178 1_555
O55 Si14 1.625178 1_555
