# generated using pymatgen
data_Mn2Bi3Sb3O14
_symmetry_space_group_name_H-M   'P 1'
_cell_length_a   7.41392968
_cell_length_b   7.41400396
_cell_length_c   7.41394181
_cell_angle_alpha   61.27557405
_cell_angle_beta   61.27513922
_cell_angle_gamma   61.27551524
_symmetry_Int_Tables_number   1
_chemical_formula_structural   Mn2Bi3Sb3O14
_chemical_formula_sum   'Mn2 Bi3 Sb3 O14'
_cell_volume   296.42401914
_cell_formula_units_Z   1
loop_
 _symmetry_equiv_pos_site_id
 _symmetry_equiv_pos_as_xyz
  1  'x, y, z'
loop_
 _atom_site_type_symbol
 _atom_site_label
 _atom_site_symmetry_multiplicity
 _atom_site_fract_x
 _atom_site_fract_y
 _atom_site_fract_z
 _atom_site_occupancy
  Mn  Mn0  1  0.00000800  0.50001800  0.99995900  1
  Mn  Mn1  1  0.50000900  0.99996600  0.50007000  1
  Bi  Bi0  1  0.99999800  0.99999500  0.50000200  1
  Bi  Bi1  1  0.50000100  0.00000100  0.99999500  1
  Bi  Bi2  1  0.49999500  0.50000000  0.50000200  1
  Sb  Sb0  1  0.50000000  0.50000300  0.99999600  1
  Sb  Sb1  1  0.00000000  0.50000400  0.50000400  1
  Sb  Sb2  1  0.00000000  0.00000000  0.99999700  1
  O  O0  1  0.61415200  0.11415800  0.61415100  1
  O  O1  1  0.38584400  0.88584700  0.38584000  1
  O  O2  1  0.08226100  0.18109900  0.68109300  1
  O  O3  1  0.68109500  0.18109900  0.08226100  1
  O  O4  1  0.68109600  0.58226100  0.68109500  1
  O  O5  1  0.91773700  0.81890300  0.31890200  1
  O  O6  1  0.31890400  0.81890100  0.91773700  1
  O  O7  1  0.31890200  0.41774000  0.31890100  1
  O  O8  1  0.64728600  0.59019300  0.09019400  1
  O  O9  1  0.09019600  0.59019500  0.64728100  1
  O  O10  1  0.09019200  0.14728300  0.09019500  1
  O  O11  1  0.35271100  0.40981000  0.90980500  1
  O  O12  1  0.90980700  0.40980600  0.35271500  1
  O  O13  1  0.90980600  0.85271600  0.90980500  1
loop_
_geom_bond_atom_site_label_1
_geom_bond_atom_site_label_2
_geom_bond_distance
_geom_bond_site_symmetry_2
Mn0 O9 2.190842 1_555
Mn0 O11 2.191007 1_555
Mn0 O13 2.191010 1_455
Mn0 O8 2.191090 1_456
Mn0 O10 2.191199 1_556
Mn0 O12 2.191319 1_456
Mn1 O0 2.052601 1_565
Mn1 O1 2.053188 1_555
Mn1 O6 2.633267 1_555
Mn1 O4 2.633408 1_555
Mn1 O2 2.633655 1_565
Mn1 O5 2.633658 1_555
Mn1 O7 2.633989 1_565
Mn1 O3 2.634058 1_565
Bi0 O0 2.376979 1_565
Bi0 O1 2.376980 1_655
Bi0 O13 2.535868 1_555
Bi0 O9 2.535873 1_655
Bi0 O10 2.535891 1_665
Bi0 O12 2.535948 1_565
Bi0 O5 2.698926 1_555
Bi0 O2 2.698956 1_665
Bi1 O0 2.376973 1_555
Bi1 O1 2.376979 1_546
Bi1 O13 2.535876 1_545
Bi1 O10 2.535894 1_556
Bi1 O8 2.535922 1_546
Bi1 O11 2.535935 1_555
Bi1 O6 2.698941 1_545
Bi1 O3 2.698952 1_556
Bi2 O0 2.376990 1_555
Bi2 O1 2.377019 1_555
Bi2 O9 2.535831 1_555
Bi2 O11 2.535865 1_555
Bi2 O8 2.535894 1_555
Bi2 O12 2.535914 1_555
Bi2 O7 2.698929 1_555
Bi2 O4 2.698934 1_555
O2 Sb2 2.028431 1_555
O2 Sb1 2.028435 1_555
O3 Sb2 2.028433 1_654
O3 Sb0 2.028441 1_554
O4 Sb0 2.028400 1_555
O4 Sb1 2.028403 1_655
O5 Sb1 2.028429 1_655
O5 Sb2 2.028433 1_664
O6 Sb0 2.028409 1_555
O6 Sb2 2.028426 1_565
O7 Sb1 2.028417 1_555
O7 Sb0 2.028426 1_554
O8 Sb0 1.979958 1_554
O9 Sb1 1.979895 1_555
O10 Sb2 1.979953 1_554
O11 Sb0 1.979955 1_555
O12 Sb1 1.979995 1_655
O13 Sb2 1.979937 1_665
