# generated using pymatgen
data_Pb4C(Cl3O2)2
_symmetry_space_group_name_H-M   'P 1'
_cell_length_a   9.33316200
_cell_length_b   4.26033400
_cell_length_c   16.59559478
_cell_angle_alpha   86.80350653
_cell_angle_beta   90.00000000
_cell_angle_gamma   90.00000000
_symmetry_Int_Tables_number   1
_chemical_formula_structural   Pb4C(Cl3O2)2
_chemical_formula_sum   'Pb8 C2 Cl12 O8'
_cell_volume   658.85381262
_cell_formula_units_Z   2
loop_
 _symmetry_equiv_pos_site_id
 _symmetry_equiv_pos_as_xyz
  1  'x, y, z'
loop_
 _atom_site_type_symbol
 _atom_site_label
 _atom_site_symmetry_multiplicity
 _atom_site_fract_x
 _atom_site_fract_y
 _atom_site_fract_z
 _atom_site_occupancy
  Pb  Pb0  1  0.75000000  0.76331100  0.47383000  1
  Pb  Pb1  1  0.25000000  0.23668900  0.52617000  1
  Pb  Pb2  1  0.75000000  0.75172600  0.98665800  1
  Pb  Pb3  1  0.25000000  0.24827400  0.01334200  1
  Pb  Pb4  1  0.50648200  0.31705400  0.23737600  1
  Pb  Pb5  1  0.00648200  0.68294600  0.76262400  1
  Pb  Pb6  1  0.49351800  0.68294600  0.76262400  1
  Pb  Pb7  1  0.99351800  0.31705400  0.23737600  1
  C  C0  1  0.75000000  0.09067700  0.74249400  1
  C  C1  1  0.25000000  0.90932300  0.25750600  1
  Cl  Cl0  1  0.75000000  0.78697700  0.28939000  1
  Cl  Cl1  1  0.25000000  0.21302300  0.71061000  1
  Cl  Cl2  1  0.75000000  0.23967200  0.10799600  1
  Cl  Cl3  1  0.25000000  0.76032800  0.89200400  1
  Cl  Cl4  1  0.44873900  0.73010200  0.08471100  1
  Cl  Cl5  1  0.94873900  0.26989800  0.91528900  1
  Cl  Cl6  1  0.55126100  0.26989800  0.91528900  1
  Cl  Cl7  1  0.05126100  0.73010200  0.08471100  1
  Cl  Cl8  1  0.52825500  0.26559100  0.41717200  1
  Cl  Cl9  1  0.02825500  0.73440900  0.58282800  1
  Cl  Cl10  1  0.47174500  0.73440900  0.58282800  1
  Cl  Cl11  1  0.97174500  0.26559100  0.41717200  1
  O  O0  1  0.75000000  0.82093200  0.78529300  1
  O  O1  1  0.25000000  0.17906800  0.21470700  1
  O  O2  1  0.62836600  0.20996300  0.72067700  1
  O  O3  1  0.12836600  0.79003700  0.27932300  1
  O  O4  1  0.37163400  0.79003700  0.27932300  1
  O  O5  1  0.87163400  0.20996300  0.72067700  1
  O  O6  1  0.75000000  0.24915800  0.54454800  1
  O  O7  1  0.25000000  0.75084200  0.45545200  1
loop_
_geom_bond_atom_site_label_1
_geom_bond_atom_site_label_2
_geom_bond_distance
_geom_bond_site_symmetry_2
C0 O2 1.287472 1_555
C0 O5 1.287472 1_555
C0 O0 1.316864 1_545
C1 O3 1.287472 1_555
C1 O4 1.287472 1_555
C1 O1 1.316864 1_565
Cl0 Pb0 3.056927 1_555
Cl0 Pb7 3.179867 1_555
Cl0 Pb4 3.179867 1_555
Cl1 Pb1 3.056927 1_555
Cl1 Pb6 3.179867 1_555
Cl1 Pb5 3.179867 1_555
Cl2 Pb2 2.885139 1_554
Cl2 Pb2 2.973750 1_544
Cl2 Pb7 3.156488 1_555
Cl2 Pb4 3.156488 1_555
Cl3 Pb3 2.885139 1_556
Cl3 Pb3 2.973750 1_566
Cl3 Pb6 3.156488 1_555
Cl3 Pb5 3.156488 1_555
Cl4 Pb4 3.051036 1_555
Cl4 Pb3 3.054220 1_555
Cl4 Pb3 3.070047 1_565
Cl5 Pb5 3.051036 1_655
Cl5 Pb2 3.054220 1_555
Cl5 Pb2 3.070047 1_545
Cl6 Pb6 3.051036 1_555
Cl6 Pb2 3.054220 1_555
Cl6 Pb2 3.070047 1_545
Cl7 Pb7 3.051036 1_455
Cl7 Pb3 3.054220 1_555
Cl7 Pb3 3.070047 1_565
Cl8 Pb4 2.986570 1_555
Cl8 Pb0 3.085771 1_545
Cl8 Pb0 3.144194 1_555
Cl8 Pb1 3.163352 1_555
Cl9 Pb5 2.986570 1_555
Cl9 Pb1 3.085771 1_565
Cl9 Pb1 3.144194 1_555
Cl9 Pb0 3.163352 1_455
Cl10 Pb6 2.986570 1_555
Cl10 Pb1 3.085771 1_565
Cl10 Pb1 3.144194 1_555
Cl10 Pb0 3.163352 1_555
Cl11 Pb7 2.986570 1_555
Cl11 Pb0 3.085771 1_545
Cl11 Pb0 3.144194 1_555
Cl11 Pb1 3.163352 1_655
O0 Pb6 2.498400 1_555
O0 Pb5 2.498400 1_655
O1 Pb4 2.498400 1_555
O1 Pb7 2.498400 1_455
O2 Pb6 2.507090 1_555
O2 Pb6 2.633533 1_545
O3 Pb7 2.507090 1_455
O3 Pb7 2.633533 1_465
O4 Pb4 2.507090 1_555
O4 Pb4 2.633533 1_565
O5 Pb5 2.507090 1_655
O5 Pb5 2.633533 1_645
O6 Pb0 2.426684 1_555
O6 Pb0 2.435698 1_545
O7 Pb1 2.426684 1_555
O7 Pb1 2.435698 1_565
