# generated using pymatgen
data_Zn3P2
_symmetry_space_group_name_H-M   'P 1'
_cell_length_a   9.82021591
_cell_length_b   9.82021591
_cell_length_c   9.82021591
_cell_angle_alpha   109.47122063
_cell_angle_beta   109.47122063
_cell_angle_gamma   109.47122063
_symmetry_Int_Tables_number   1
_chemical_formula_structural   Zn3P2
_chemical_formula_sum   'Zn24 P16'
_cell_volume   729.02298079
_cell_formula_units_Z   8
loop_
 _symmetry_equiv_pos_site_id
 _symmetry_equiv_pos_as_xyz
  1  'x, y, z'
loop_
 _atom_site_type_symbol
 _atom_site_label
 _atom_site_symmetry_multiplicity
 _atom_site_fract_x
 _atom_site_fract_y
 _atom_site_fract_z
 _atom_site_occupancy
  Zn  Zn0  1  0.97496695  0.72818889  0.96526088  1
  Zn  Zn1  1  0.73707300  0.77181111  0.24677906  1
  Zn  Zn2  1  0.52503305  0.99029393  0.25322094  1
  Zn  Zn3  1  0.76292700  0.50970607  0.53473912  1
  Zn  Zn4  1  0.72818889  0.96526088  0.97496695  1
  Zn  Zn5  1  0.77181111  0.24677906  0.73707300  1
  Zn  Zn6  1  0.99029393  0.25322094  0.52503305  1
  Zn  Zn7  1  0.50970607  0.53473912  0.76292700  1
  Zn  Zn8  1  0.96526088  0.97496695  0.72818889  1
  Zn  Zn9  1  0.24677906  0.73707300  0.77181111  1
  Zn  Zn10  1  0.25322094  0.52503305  0.99029393  1
  Zn  Zn11  1  0.53473912  0.76292700  0.50970607  1
  Zn  Zn12  1  0.02503305  0.27181111  0.03473912  1
  Zn  Zn13  1  0.26292700  0.22818889  0.75322094  1
  Zn  Zn14  1  0.47496695  0.00970607  0.74677906  1
  Zn  Zn15  1  0.23707300  0.49029393  0.46526088  1
  Zn  Zn16  1  0.27181111  0.03473912  0.02503305  1
  Zn  Zn17  1  0.22818889  0.75322094  0.26292700  1
  Zn  Zn18  1  0.00970607  0.74677906  0.47496695  1
  Zn  Zn19  1  0.49029393  0.46526088  0.23707300  1
  Zn  Zn20  1  0.03473912  0.02503305  0.27181111  1
  Zn  Zn21  1  0.75322094  0.26292700  0.22818889  1
  Zn  Zn22  1  0.74677906  0.47496695  0.00970607  1
  Zn  Zn23  1  0.46526088  0.23707300  0.49029393  1
  P  P0  1  -0.00000000  0.50000000  -0.00000000  1
  P  P1  1  -0.00000000  -0.00000000  0.50000000  1
  P  P2  1  0.50000000  -0.00000000  -0.00000000  1
  P  P3  1  0.50000000  0.50000000  0.50000000  1
  P  P4  1  0.25901807  0.75000000  0.50901807  1
  P  P5  1  0.24098193  0.25000000  0.99098193  1
  P  P6  1  0.75000000  0.50901807  0.25901807  1
  P  P7  1  0.25000000  0.99098193  0.24098193  1
  P  P8  1  0.50901807  0.25901807  0.75000000  1
  P  P9  1  0.99098193  0.24098193  0.25000000  1
  P  P10  1  0.74098193  0.25000000  0.49098193  1
  P  P11  1  0.75901807  0.75000000  0.00901807  1
  P  P12  1  0.25000000  0.49098193  0.74098193  1
  P  P13  1  0.75000000  0.00901807  0.75901807  1
  P  P14  1  0.49098193  0.74098193  0.25000000  1
  P  P15  1  0.00901807  0.75901807  0.75000000  1
loop_
_geom_bond_atom_site_label_1
_geom_bond_atom_site_label_2
_geom_bond_distance
_geom_bond_site_symmetry_2
P0 Zn22 2.453409 1_455
P0 Zn10 2.453409 1_554
P0 Zn17 2.453411 1_555
P0 Zn5 2.453411 1_454
P0 Zn12 2.453419 1_555
P0 Zn0 2.453419 1_454
P1 Zn18 2.453409 1_545
P1 Zn6 2.453409 1_455
P1 Zn13 2.453411 1_555
P1 Zn1 2.453411 1_445
P1 Zn20 2.453419 1_555
P1 Zn8 2.453419 1_445
P2 Zn14 2.453409 1_554
P2 Zn2 2.453409 1_545
P2 Zn21 2.453411 1_555
P2 Zn9 2.453411 1_544
P2 Zn4 2.453419 1_544
P2 Zn16 2.453419 1_555
P3 Zn3 2.453409 1_555
P3 Zn7 2.453409 1_555
P3 Zn11 2.453409 1_555
P3 Zn19 2.453409 1_555
P3 Zn23 2.453409 1_555
P3 Zn15 2.453409 1_555
P4 Zn18 2.345743 1_555
P4 Zn17 2.345745 1_555
P4 Zn14 2.361508 1_565
P4 Zn15 2.361508 1_555
P4 Zn9 2.665616 1_555
P4 Zn11 2.665626 1_555
P5 Zn16 2.345739 1_556
P5 Zn19 2.345743 1_556
P5 Zn12 2.361505 1_556
P5 Zn13 2.361510 1_555
P5 Zn8 2.665623 1_445
P5 Zn10 2.665626 1_555
P6 Zn22 2.345743 1_555
P6 Zn21 2.345745 1_555
P6 Zn18 2.361508 1_655
P6 Zn19 2.361508 1_555
P6 Zn1 2.665616 1_555
P6 Zn3 2.665626 1_555
P7 Zn20 2.345739 1_565
P7 Zn23 2.345743 1_565
P7 Zn16 2.361505 1_565
P7 Zn17 2.361510 1_555
P7 Zn0 2.665623 1_454
P7 Zn2 2.665626 1_555
P8 Zn14 2.345743 1_555
P8 Zn13 2.345745 1_555
P8 Zn22 2.361508 1_556
P8 Zn23 2.361508 1_555
P8 Zn5 2.665616 1_555
P8 Zn7 2.665626 1_555
P9 Zn12 2.345739 1_655
P9 Zn15 2.345743 1_655
P9 Zn20 2.361505 1_655
P9 Zn21 2.361510 1_555
P9 Zn4 2.665623 1_544
P9 Zn6 2.665626 1_555
P10 Zn6 2.345743 1_555
P10 Zn5 2.345745 1_555
P10 Zn2 2.361508 1_545
P10 Zn3 2.361508 1_555
P10 Zn21 2.665616 1_555
P10 Zn23 2.665626 1_555
P11 Zn4 2.345739 1_554
P11 Zn7 2.345743 1_554
P11 Zn0 2.361505 1_554
P11 Zn1 2.361510 1_555
P11 Zn20 2.665623 1_665
P11 Zn22 2.665626 1_555
P12 Zn10 2.345743 1_555
P12 Zn9 2.345745 1_555
P12 Zn6 2.361508 1_455
P12 Zn7 2.361508 1_555
P12 Zn13 2.665616 1_555
P12 Zn15 2.665626 1_555
P13 Zn8 2.345739 1_545
P13 Zn11 2.345743 1_545
P13 Zn4 2.361505 1_545
P13 Zn5 2.361510 1_555
P13 Zn12 2.665623 1_656
P13 Zn14 2.665626 1_555
P14 Zn2 2.345743 1_555
P14 Zn1 2.345745 1_555
P14 Zn10 2.361508 1_554
P14 Zn11 2.361508 1_555
P14 Zn17 2.665616 1_555
P14 Zn19 2.665626 1_555
P15 Zn0 2.345739 1_455
P15 Zn3 2.345743 1_455
P15 Zn8 2.361505 1_455
P15 Zn9 2.361510 1_555
P15 Zn16 2.665623 1_566
P15 Zn18 2.665626 1_555
