# generated using pymatgen
data_C121(SCl10)2
_symmetry_space_group_name_H-M   'P 1'
_cell_length_a   10.16899995
_cell_length_b   18.29890833
_cell_length_c   21.68042827
_cell_angle_alpha   97.26130773
_cell_angle_beta   90.00000000
_cell_angle_gamma   90.00000000
_symmetry_Int_Tables_number   1
_chemical_formula_structural   C121(SCl10)2
_chemical_formula_sum   'C242 S4 Cl40'
_cell_volume   4001.97351695
_cell_formula_units_Z   2
loop_
 _symmetry_equiv_pos_site_id
 _symmetry_equiv_pos_as_xyz
  1  'x, y, z'
loop_
 _atom_site_type_symbol
 _atom_site_label
 _atom_site_symmetry_multiplicity
 _atom_site_fract_x
 _atom_site_fract_y
 _atom_site_fract_z
 _atom_site_occupancy
  C  C0  1  0.80711818  0.82860298  0.44247813  1
  C  C1  1  0.30711818  0.17139702  0.05752187  1
  C  C2  1  0.19288182  0.17139702  0.55752187  1
  C  C3  1  0.69288182  0.82860298  0.94247813  1
  C  C4  1  0.95429736  0.81957962  0.45193671  1
  C  C5  1  0.45429736  0.18042038  0.04806329  1
  C  C6  1  0.04570264  0.18042038  0.54806329  1
  C  C7  1  0.54570264  0.81957962  0.95193671  1
  C  C8  1  0.01817302  0.87263841  0.42474850  1
  C  C9  1  0.51817302  0.12736159  0.07525150  1
  C  C10  1  0.98182698  0.12736159  0.57525150  1
  C  C11  1  0.48182698  0.87263841  0.92474850  1
  C  C12  1  0.92251577  0.91433245  0.39184994  1
  C  C13  1  0.42251577  0.08566755  0.10815006  1
  C  C14  1  0.07748423  0.08566755  0.60815006  1
  C  C15  1  0.57748423  0.91433245  0.89184994  1
  C  C16  1  0.79982602  0.88652466  0.39771972  1
  C  C17  1  0.29982602  0.11347534  0.10228028  1
  C  C18  1  0.20017398  0.11347534  0.60228028  1
  C  C19  1  0.70017398  0.88652466  0.89771972  1
  C  C20  1  0.69270627  0.89081699  0.35096858  1
  C  C21  1  0.19270627  0.10918301  0.14903142  1
  C  C22  1  0.30729373  0.10918301  0.64903142  1
  C  C23  1  0.80729373  0.89081699  0.85096858  1
  C  C24  1  0.63890236  0.81391067  0.32881904  1
  C  C25  1  0.13890236  0.18608933  0.17118096  1
  C  C26  1  0.36109764  0.18608933  0.67118096  1
  C  C27  1  0.86109764  0.81391067  0.82881904  1
  C  C28  1  0.66191665  0.75456999  0.36098076  1
  C  C29  1  0.16191665  0.24543001  0.13901924  1
  C  C30  1  0.33808335  0.24543001  0.63901924  1
  C  C31  1  0.83808335  0.75456999  0.86098076  1
  C  C32  1  0.75353198  0.75809636  0.41307843  1
  C  C33  1  0.25353198  0.24190364  0.08692157  1
  C  C34  1  0.24646802  0.24190364  0.58692157  1
  C  C35  1  0.74646802  0.75809636  0.91307843  1
  C  C36  1  0.81500611  0.69128054  0.41334653  1
  C  C37  1  0.31500611  0.30871946  0.08665347  1
  C  C38  1  0.18499389  0.30871946  0.58665347  1
  C  C39  1  0.68499389  0.69128054  0.91334653  1
  C  C40  1  0.93447468  0.67595535  0.44965134  1
  C  C41  1  0.43447468  0.32404465  0.05034866  1
  C  C42  1  0.06552532  0.32404465  0.55034866  1
  C  C43  1  0.56552532  0.67595535  0.94965134  1
  C  C44  1  0.02016371  0.75044180  0.46682223  1
  C  C45  1  0.52016371  0.24955820  0.03317777  1
  C  C46  1  0.97983629  0.24955820  0.53317777  1
  C  C47  1  0.47983629  0.75044180  0.96682223  1
  C  C48  1  0.13708638  0.73805444  0.42385044  1
  C  C49  1  0.63708638  0.26194556  0.07614956  1
  C  C50  1  0.86291362  0.26194556  0.57614956  1
  C  C51  1  0.36291362  0.73805444  0.92385044  1
  C  C52  1  0.23287338  0.79830215  0.41244606  1
  C  C53  1  0.73287338  0.20169785  0.08755394  1
  C  C54  1  0.76712662  0.20169785  0.58755394  1
  C  C55  1  0.26712662  0.79830215  0.91244606  1
  C  C56  1  0.16286004  0.87734032  0.41304023  1
  C  C57  1  0.66286004  0.12265968  0.08695977  1
  C  C58  1  0.83713996  0.12265968  0.58695977  1
  C  C59  1  0.33713996  0.87734032  0.91304023  1
  C  C60  1  0.18299623  0.89624413  0.34734797  1
  C  C61  1  0.68299623  0.10375587  0.15265203  1
  C  C62  1  0.81700377  0.10375587  0.65265203  1
  C  C63  1  0.31700377  0.89624413  0.84734797  1
  C  C64  1  0.09438013  0.93578352  0.31640107  1
  C  C65  1  0.59438013  0.06421648  0.18359893  1
  C  C66  1  0.90561987  0.06421648  0.68359893  1
  C  C67  1  0.40561987  0.93578352  0.81640107  1
  C  C68  1  0.96129959  0.96101572  0.34301194  1
  C  C69  1  0.46129959  0.03898428  0.15698806  1
  C  C70  1  0.03870041  0.03898428  0.65698806  1
  C  C71  1  0.53870041  0.96101572  0.84301194  1
  C  C72  1  0.87101030  0.94421199  0.28678402  1
  C  C73  1  0.37101030  0.05578801  0.21321598  1
  C  C74  1  0.12898970  0.05578801  0.71321598  1
  C  C75  1  0.62898970  0.94421199  0.78678402  1
  C  C76  1  0.74928118  0.91199249  0.29035398  1
  C  C77  1  0.24928118  0.08800751  0.20964602  1
  C  C78  1  0.25071882  0.08800751  0.70964602  1
  C  C79  1  0.75071882  0.91199249  0.79035398  1
  C  C80  1  0.70208123  0.86159987  0.23850816  1
  C  C81  1  0.20208123  0.13840013  0.26149184  1
  C  C82  1  0.29791877  0.13840013  0.76149184  1
  C  C83  1  0.79791877  0.86159987  0.73850816  1
  C  C84  1  0.63297477  0.80162735  0.26209993  1
  C  C85  1  0.13297477  0.19837265  0.23790007  1
  C  C86  1  0.36702523  0.19837265  0.73790007  1
  C  C87  1  0.86702523  0.80162735  0.76209993  1
  C  C88  1  0.63905545  0.72989938  0.22992994  1
  C  C89  1  0.13905545  0.27010062  0.27007006  1
  C  C90  1  0.36094455  0.27010062  0.77007006  1
  C  C91  1  0.86094455  0.72989938  0.72992994  1
  C  C92  1  0.65557344  0.66810091  0.26449998  1
  C  C93  1  0.15557344  0.33189909  0.23550002  1
  C  C94  1  0.34442656  0.33189909  0.73550002  1
  C  C95  1  0.84442656  0.66810091  0.76449998  1
  C  C96  1  0.66763305  0.68093018  0.32917947  1
  C  C97  1  0.16763305  0.31906982  0.17082053  1
  C  C98  1  0.33236695  0.31906982  0.67082053  1
  C  C99  1  0.83236695  0.68093018  0.82917947  1
  C  C100  1  0.76359855  0.64133517  0.36146553  1
  C  C101  1  0.26359855  0.35866483  0.13853447  1
  C  C102  1  0.23640145  0.35866483  0.63853447  1
  C  C103  1  0.73640145  0.64133517  0.86146553  1
  C  C104  1  0.84165803  0.58857718  0.32908936  1
  C  C105  1  0.34165803  0.41142282  0.17091064  1
  C  C106  1  0.15834197  0.41142282  0.67091064  1
  C  C107  1  0.65834197  0.58857718  0.82908936  1
  C  C108  1  0.97656563  0.56733096  0.35131613  1
  C  C109  1  0.47656563  0.43266904  0.14868387  1
  C  C110  1  0.02343437  0.43266904  0.64868387  1
  C  C111  1  0.52343437  0.56733096  0.85131613  1
  C  C112  1  0.03566845  0.61879470  0.41080021  1
  C  C113  1  0.53566845  0.38120530  0.08919979  1
  C  C114  1  0.96433155  0.38120530  0.58919979  1
  C  C115  1  0.46433155  0.61879470  0.91080021  1
  C  C116  1  0.14220714  0.66937544  0.39257275  1
  C  C117  1  0.64220714  0.33062456  0.10742725  1
  C  C118  1  0.85779286  0.33062456  0.60742725  1
  C  C119  1  0.35779286  0.66937544  0.89257275  1
  C  C120  1  0.24226992  0.64582912  0.34300484  1
  C  C121  1  0.74226992  0.35417088  0.15699516  1
  C  C122  1  0.75773008  0.35417088  0.65699516  1
  C  C123  1  0.25773008  0.64582912  0.84300484  1
  C  C124  1  0.29464553  0.71230418  0.31570234  1
  C  C125  1  0.79464553  0.28769582  0.18429766  1
  C  C126  1  0.70535447  0.28769582  0.68429766  1
  C  C127  1  0.20535447  0.71230418  0.81570234  1
  C  C128  1  0.28591492  0.78239102  0.34683025  1
  C  C129  1  0.78591492  0.21760898  0.15316975  1
  C  C130  1  0.71408508  0.21760898  0.65316975  1
  C  C131  1  0.21408508  0.78239102  0.84683025  1
  C  C132  1  0.26691388  0.84342661  0.31261137  1
  C  C133  1  0.76691388  0.15657339  0.18738863  1
  C  C134  1  0.73308612  0.15657339  0.68738863  1
  C  C135  1  0.23308612  0.84342661  0.81261137  1
  C  C136  1  0.26427770  0.83319507  0.24711222  1
  C  C137  1  0.76427770  0.16680493  0.25288778  1
  C  C138  1  0.73572230  0.16680493  0.75288778  1
  C  C139  1  0.23572230  0.83319507  0.74711222  1
  C  C140  1  0.17155167  0.87403641  0.21481225  1
  C  C141  1  0.67155167  0.12596359  0.28518775  1
  C  C142  1  0.82844833  0.12596359  0.78518775  1
  C  C143  1  0.32844833  0.87403641  0.71481225  1
  C  C144  1  0.08617932  0.92319400  0.24973311  1
  C  C145  1  0.58617932  0.07680600  0.25026689  1
  C  C146  1  0.91382068  0.07680600  0.75026689  1
  C  C147  1  0.41382068  0.92319400  0.74973311  1
  C  C148  1  0.94943420  0.92767905  0.23168593  1
  C  C149  1  0.44943420  0.07232095  0.26831407  1
  C  C150  1  0.05056580  0.07232095  0.76831407  1
  C  C151  1  0.55056580  0.92767905  0.73168593  1
  C  C152  1  0.90246143  0.88127016  0.18003987  1
  C  C153  1  0.40246143  0.11872984  0.31996013  1
  C  C154  1  0.09753857  0.11872984  0.81996013  1
  C  C155  1  0.59753857  0.88127016  0.68003987  1
  C  C156  1  0.77566267  0.84709046  0.18372078  1
  C  C157  1  0.27566267  0.15290954  0.31627922  1
  C  C158  1  0.22433733  0.15290954  0.81627922  1
  C  C159  1  0.72433733  0.84709046  0.68372078  1
  C  C160  1  0.78366305  0.77301329  0.15086865  1
  C  C161  1  0.28366305  0.22698671  0.34913135  1
  C  C162  1  0.21633695  0.22698671  0.84913135  1
  C  C163  1  0.71633695  0.77301329  0.65086865  1
  C  C164  1  0.71633854  0.71531506  0.17320927  1
  C  C165  1  0.21633854  0.28468494  0.32679073  1
  C  C166  1  0.28366146  0.28468494  0.82679073  1
  C  C167  1  0.78366146  0.71531506  0.67320927  1
  C  C168  1  0.77983599  0.64424604  0.17306799  1
  C  C169  1  0.27983599  0.35575396  0.32693201  1
  C  C170  1  0.22016401  0.35575396  0.82693201  1
  C  C171  1  0.72016401  0.64424604  0.67306799  1
  C  C172  1  0.74200078  0.61528742  0.22988613  1
  C  C173  1  0.24200078  0.38471258  0.27011387  1
  C  C174  1  0.25799922  0.38471258  0.77011387  1
  C  C175  1  0.75799922  0.61528742  0.72988613  1
  C  C176  1  0.83415283  0.57736712  0.26218962  1
  C  C177  1  0.33415283  0.42263288  0.23781038  1
  C  C178  1  0.16584717  0.42263288  0.73781038  1
  C  C179  1  0.66584717  0.57736712  0.76218962  1
  C  C180  1  0.96648112  0.56635971  0.23885487  1
  C  C181  1  0.46648112  0.43364029  0.26114513  1
  C  C182  1  0.03351888  0.43364029  0.76114513  1
  C  C183  1  0.53351888  0.56635971  0.73885487  1
  C  C184  1  0.05500319  0.57003357  0.29139664  1
  C  C185  1  0.55500319  0.42996643  0.20860336  1
  C  C186  1  0.94499681  0.42996643  0.70860336  1
  C  C187  1  0.44499681  0.57003357  0.79139664  1
  C  C188  1  0.17512367  0.60317349  0.28737921  1
  C  C189  1  0.67512367  0.39682651  0.21262079  1
  C  C190  1  0.82487633  0.39682651  0.71262079  1
  C  C191  1  0.32487633  0.60317349  0.78737921  1
  C  C192  1  0.21164224  0.63348374  0.23149982  1
  C  C193  1  0.71164224  0.36651626  0.26850018  1
  C  C194  1  0.78835776  0.36651626  0.76850018  1
  C  C195  1  0.28835776  0.63348374  0.73149982  1
  C  C196  1  0.28508986  0.70048277  0.24923486  1
  C  C197  1  0.78508986  0.29951723  0.25076514  1
  C  C198  1  0.71491014  0.29951723  0.75076514  1
  C  C199  1  0.21491014  0.70048277  0.74923486  1
  C  C200  1  0.27364510  0.75986722  0.21447121  1
  C  C201  1  0.77364510  0.24013278  0.28552879  1
  C  C202  1  0.72635490  0.24013278  0.78552879  1
  C  C203  1  0.22635490  0.75986722  0.71447121  1
  C  C204  1  0.18581593  0.75469206  0.16123949  1
  C  C205  1  0.68581593  0.24530794  0.33876051  1
  C  C206  1  0.81418407  0.24530794  0.83876051  1
  C  C207  1  0.31418407  0.75469206  0.66123949  1
  C  C208  1  0.12249228  0.82557486  0.16153553  1
  C  C209  1  0.62249228  0.17442514  0.33846447  1
  C  C210  1  0.87750772  0.17442514  0.83846447  1
  C  C211  1  0.37750772  0.82557486  0.66153553  1
  C  C212  1  0.98974087  0.82893347  0.14464279  1
  C  C213  1  0.48974087  0.17106653  0.35535721  1
  C  C214  1  0.01025913  0.17106653  0.85535721  1
  C  C215  1  0.51025913  0.82893347  0.64464279  1
  C  C216  1  0.91643905  0.76190343  0.12660981  1
  C  C217  1  0.41643905  0.23809657  0.37339019  1
  C  C218  1  0.08356095  0.23809657  0.87339019  1
  C  C219  1  0.58356095  0.76190343  0.62660981  1
  C  C220  1  0.97776806  0.69316407  0.12612462  1
  C  C221  1  0.47776806  0.30683593  0.37387538  1
  C  C222  1  0.02223194  0.30683593  0.87387538  1
  C  C223  1  0.52223194  0.69316407  0.62612462  1
  C  C224  1  0.90803049  0.63342623  0.15034554  1
  C  C225  1  0.40803049  0.36657377  0.34965446  1
  C  C226  1  0.09196951  0.36657377  0.84965446  1
  C  C227  1  0.59196951  0.63342623  0.65034554  1
  C  C228  1  0.00213073  0.59352356  0.18367431  1
  C  C229  1  0.50213073  0.40647644  0.31632569  1
  C  C230  1  0.99786927  0.40647644  0.81632569  1
  C  C231  1  0.49786927  0.59352356  0.68367431  1
  C  C232  1  0.12886929  0.62803312  0.17974928  1
  C  C233  1  0.62886929  0.37196688  0.32025072  1
  C  C234  1  0.87113071  0.37196688  0.82025072  1
  C  C235  1  0.37113071  0.62803312  0.67974928  1
  C  C236  1  0.11446225  0.68965781  0.14411571  1
  C  C237  1  0.61446225  0.31034219  0.35588429  1
  C  C238  1  0.88553775  0.31034219  0.85588429  1
  C  C239  1  0.38553775  0.68965781  0.64411571  1
  C  C240  1  0.50000000  0.50000000  0.50000000  1
  C  C241  1  -0.00000000  0.50000000  0.00000000  1
  S  S0  1  0.62146369  0.50803907  0.45781784  1
  S  S1  1  0.12146369  0.49196093  0.04218216  1
  S  S2  1  0.37853631  0.49196093  0.54218216  1
  S  S3  1  0.87853631  0.50803907  0.95781784  1
  Cl  Cl0  1  0.72025444  0.85989382  0.51524588  1
  Cl  Cl1  1  0.22025444  0.14010618  0.98475412  1
  Cl  Cl2  1  0.27974556  0.14010618  0.48475412  1
  Cl  Cl3  1  0.77974556  0.85989382  0.01524588  1
  Cl  Cl4  1  0.55907870  0.95337806  0.38146923  1
  Cl  Cl5  1  0.05907870  0.04662194  0.11853077  1
  Cl  Cl6  1  0.44092130  0.04662194  0.61853077  1
  Cl  Cl7  1  0.94092130  0.95337806  0.88146923  1
  Cl  Cl8  1  0.87076223  0.63965275  0.51686418  1
  Cl  Cl9  1  0.37076223  0.36034725  0.98313582  1
  Cl  Cl10  1  0.12923777  0.36034725  0.48313582  1
  Cl  Cl11  1  0.62923777  0.63965275  0.01686418  1
  Cl  Cl12  1  0.07593527  0.76057149  0.54756648  1
  Cl  Cl13  1  0.57593527  0.23942851  0.95243352  1
  Cl  Cl14  1  0.92406473  0.23942851  0.45243352  1
  Cl  Cl15  1  0.42406473  0.76057149  0.04756648  1
  Cl  Cl16  1  0.36724671  0.79835307  0.46728693  1
  Cl  Cl17  1  0.86724671  0.20164693  0.03271307  1
  Cl  Cl18  1  0.63275329  0.20164693  0.53271307  1
  Cl  Cl19  1  0.13275329  0.79835307  0.96728693  1
  Cl  Cl20  1  0.23147202  0.94850806  0.46889794  1
  Cl  Cl21  1  0.73147202  0.05149194  0.03110206  1
  Cl  Cl22  1  0.76852798  0.05149194  0.53110206  1
  Cl  Cl23  1  0.26852798  0.94850806  0.96889794  1
  Cl  Cl24  1  0.96173686  0.05870074  0.37444395  1
  Cl  Cl25  1  0.46173686  0.94129926  0.12555605  1
  Cl  Cl26  1  0.03826314  0.94129926  0.62555605  1
  Cl  Cl27  1  0.53826314  0.05870074  0.87444395  1
  Cl  Cl28  1  0.96047558  0.47138505  0.36579208  1
  Cl  Cl29  1  0.46047558  0.52861495  0.13420792  1
  Cl  Cl30  1  0.03952442  0.52861495  0.63420792  1
  Cl  Cl31  1  0.53952442  0.47138505  0.86579208  1
  Cl  Cl32  1  0.11550667  0.56378224  0.46301238  1
  Cl  Cl33  1  0.61550667  0.43621776  0.03698762  1
  Cl  Cl34  1  0.88449333  0.43621776  0.53698762  1
  Cl  Cl35  1  0.38449333  0.56378224  0.96301238  1
  Cl  Cl36  1  0.37726666  0.59336455  0.37266246  1
  Cl  Cl37  1  0.87726666  0.40663545  0.12733754  1
  Cl  Cl38  1  0.62273334  0.40663545  0.62733754  1
  Cl  Cl39  1  0.12273334  0.59336455  0.87266246  1
loop_
_geom_bond_atom_site_label_1
_geom_bond_atom_site_label_2
_geom_bond_distance
_geom_bond_site_symmetry_2
C0 C32 1.469669 1_555
C0 C4 1.522459 1_555
C0 C16 1.526608 1_555
C0 Cl0 1.835399 1_555
C1 C33 1.469669 1_555
C1 C5 1.522459 1_555
C1 C17 1.526608 1_555
C1 Cl1 1.835399 1_554
C2 C34 1.469669 1_555
C2 C6 1.522459 1_555
C2 Cl2 1.835399 1_555
C3 C35 1.469669 1_555
C3 C7 1.522459 1_555
C3 Cl3 1.835399 1_556
C4 C8 1.362617 1_655
C4 C44 1.502193 1_655
C5 C9 1.362617 1_555
C10 C6 1.362617 1_655
C10 C14 1.474658 1_655
C10 C58 1.497380 1_555
C11 C7 1.362617 1_555
C11 C15 1.474658 1_555
C11 C59 1.497380 1_555
C12 C16 1.359441 1_555
C12 C8 1.474658 1_655
C12 C68 1.495012 1_555
C13 C17 1.359441 1_555
C13 C9 1.474658 1_555
C13 C69 1.495012 1_555
C14 C18 1.359441 1_555
C14 C70 1.495012 1_555
C15 C19 1.359441 1_555
C15 C71 1.495012 1_555
C16 C20 1.496738 1_555
C17 C21 1.496738 1_555
C18 C22 1.496738 1_555
C18 C2 1.526608 1_555
C19 C23 1.496738 1_555
C19 C3 1.526608 1_555
C20 C76 1.528675 1_555
C20 C24 1.529581 1_555
C20 Cl4 1.844714 1_555
C21 C77 1.528675 1_555
C21 C25 1.529581 1_555
C21 Cl5 1.844714 1_555
C22 C78 1.528675 1_555
C22 C26 1.529581 1_555
C22 Cl6 1.844714 1_555
C23 C79 1.528675 1_555
C23 C27 1.529581 1_555
C23 Cl7 1.844714 1_555
C24 C28 1.382564 1_555
C24 C84 1.436776 1_555
C25 C29 1.382564 1_555
C25 C85 1.436776 1_555
C26 C30 1.382564 1_555
C26 C86 1.436776 1_555
C27 C31 1.382564 1_555
C27 C87 1.436776 1_555
C28 C96 1.435170 1_555
C28 C32 1.459265 1_555
C29 C97 1.435170 1_555
C29 C33 1.459265 1_555
C30 C98 1.435170 1_555
C30 C34 1.459265 1_555
C31 C99 1.435170 1_555
C31 C35 1.459265 1_555
C32 C36 1.373866 1_555
C33 C37 1.373866 1_555
C34 C38 1.373866 1_555
C35 C39 1.373866 1_555
C36 C40 1.493284 1_555
C37 C41 1.493284 1_555
C38 C42 1.493284 1_555
C39 C43 1.493284 1_555
C40 C44 1.620935 1_655
C40 Cl8 1.796998 1_555
C41 C45 1.620935 1_555
C41 Cl9 1.796998 1_554
C42 C46 1.620935 1_455
C42 Cl10 1.796998 1_555
C43 C47 1.620935 1_555
C43 Cl11 1.796998 1_556
C44 C48 1.509852 1_555
C44 Cl12 1.827150 1_555
C45 C5 1.502193 1_555
C45 C49 1.509852 1_555
C45 Cl13 1.827150 1_554
C46 C6 1.502193 1_655
C46 C50 1.509852 1_555
C46 Cl14 1.827150 1_555
C47 C7 1.502193 1_555
C47 C51 1.509852 1_555
C47 Cl15 1.827150 1_556
C48 C52 1.514683 1_555
C49 C53 1.514683 1_555
C50 C54 1.514683 1_555
C51 C55 1.514683 1_555
C52 C56 1.610643 1_555
C52 Cl16 1.811227 1_555
C53 C57 1.610643 1_555
C53 Cl17 1.811227 1_555
C54 C58 1.610643 1_555
C54 Cl18 1.811227 1_555
C55 C59 1.610643 1_555
C55 Cl19 1.811227 1_555
C56 C8 1.497380 1_555
C56 C60 1.521374 1_555
C56 Cl20 1.802960 1_555
C57 C9 1.497380 1_555
C57 C61 1.521374 1_555
C57 Cl21 1.802960 1_555
C58 C62 1.521374 1_555
C58 Cl22 1.802960 1_555
C59 C63 1.521374 1_555
C59 Cl23 1.802960 1_555
C60 C64 1.381455 1_555
C61 C65 1.381455 1_555
C62 C66 1.381455 1_555
C63 C67 1.381455 1_555
C64 C68 1.519905 1_455
C65 C69 1.519905 1_555
C66 C70 1.519905 1_655
C67 C71 1.519905 1_555
C68 C72 1.526063 1_555
C68 Cl24 1.830775 1_565
C69 C73 1.526063 1_555
C69 Cl25 1.830775 1_545
C70 C74 1.526063 1_555
C70 Cl26 1.830775 1_545
C71 C75 1.526063 1_555
C71 Cl27 1.830775 1_565
C72 C76 1.377475 1_555
C73 C77 1.377475 1_555
C74 C78 1.377475 1_555
C75 C79 1.377475 1_555
C76 C80 1.442965 1_555
C77 C81 1.442965 1_555
C78 C82 1.442965 1_555
C79 C83 1.442965 1_555
C80 C84 1.449728 1_555
C81 C85 1.449728 1_555
C82 C86 1.449728 1_555
C83 C87 1.449728 1_555
C84 C88 1.407703 1_555
C85 C89 1.407703 1_555
C86 C90 1.407703 1_555
C87 C91 1.407703 1_555
C88 C92 1.443267 1_555
C89 C93 1.443267 1_555
C90 C94 1.443267 1_555
C91 C95 1.443267 1_555
C92 C96 1.397612 1_555
C93 C97 1.397612 1_555
C94 C98 1.397612 1_555
C95 C99 1.397612 1_555
C100 C104 1.372415 1_555
C100 C96 1.447573 1_555
C100 C36 1.453922 1_555
C101 C105 1.372415 1_555
C101 C97 1.447573 1_555
C101 C37 1.453922 1_555
C102 C106 1.372415 1_555
C102 C98 1.447573 1_555
C102 C38 1.453922 1_555
C103 C107 1.372415 1_555
C103 C99 1.447573 1_555
C103 C39 1.453922 1_555
C104 C176 1.440971 1_555
C104 C108 1.520779 1_555
C105 C177 1.440971 1_555
C105 C109 1.520779 1_555
C106 C178 1.440971 1_555
C106 C110 1.520779 1_555
C107 C179 1.440971 1_555
C107 C111 1.520779 1_555
C108 C184 1.530527 1_655
C108 C112 1.613765 1_655
C108 Cl28 1.829498 1_555
C109 C185 1.530527 1_555
C109 C113 1.613765 1_555
C109 Cl29 1.829498 1_555
C110 C186 1.530527 1_455
C110 C114 1.613765 1_455
C110 Cl30 1.829498 1_555
C111 C187 1.530527 1_555
C111 C115 1.613765 1_555
C111 Cl31 1.829498 1_555
C112 C116 1.509653 1_555
C112 C40 1.624734 1_455
C112 Cl32 1.800546 1_555
C113 C117 1.509653 1_555
C113 C41 1.624734 1_555
C113 Cl33 1.800546 1_555
C114 C118 1.509653 1_555
C114 C42 1.624734 1_655
C114 Cl34 1.800546 1_555
C115 C119 1.509653 1_555
C115 C43 1.624734 1_555
C115 Cl35 1.800546 1_555
C116 C48 1.351495 1_555
C116 C120 1.502952 1_555
C117 C49 1.351495 1_555
C117 C121 1.502952 1_555
C118 C50 1.351495 1_555
C118 C122 1.502952 1_555
C119 C51 1.351495 1_555
C119 C123 1.502952 1_555
C120 C188 1.513914 1_555
C120 C124 1.515173 1_555
C120 Cl36 1.837307 1_555
C121 C189 1.513914 1_555
C121 C125 1.515173 1_555
C121 Cl37 1.837307 1_555
C122 C190 1.513914 1_555
C122 C126 1.515173 1_555
C122 Cl38 1.837307 1_555
C123 C191 1.513914 1_555
C123 C127 1.515173 1_555
C123 Cl39 1.837307 1_555
C124 C128 1.374544 1_555
C124 C196 1.433193 1_555
C125 C129 1.374544 1_555
C125 C197 1.433193 1_555
C126 C130 1.374544 1_555
C126 C198 1.433193 1_555
C127 C131 1.374544 1_555
C127 C199 1.433193 1_555
C128 C132 1.429899 1_555
C128 C52 1.514836 1_555
C129 C133 1.429899 1_555
C129 C53 1.514836 1_555
C130 C134 1.429899 1_555
C130 C54 1.514836 1_555
C131 C135 1.429899 1_555
C131 C55 1.514836 1_555
C132 C136 1.408937 1_555
C132 C60 1.430215 1_555
C133 C137 1.408937 1_555
C133 C61 1.430215 1_555
C134 C138 1.408937 1_555
C134 C62 1.430215 1_555
C135 C139 1.408937 1_555
C135 C63 1.430215 1_555
C136 C200 1.438858 1_555
C136 C140 1.438868 1_555
C137 C201 1.438858 1_555
C137 C141 1.438868 1_555
C138 C202 1.438858 1_555
C138 C142 1.438868 1_555
C139 C203 1.438858 1_555
C139 C143 1.438868 1_555
C140 C144 1.401386 1_555
C140 C208 1.452764 1_555
C141 C145 1.401386 1_555
C141 C209 1.452764 1_555
C142 C146 1.401386 1_555
C142 C210 1.452764 1_555
C143 C147 1.401386 1_555
C143 C211 1.452764 1_555
C144 C64 1.437012 1_555
C144 C148 1.449692 1_455
C145 C65 1.437012 1_555
C145 C149 1.449692 1_555
C146 C66 1.437012 1_555
C146 C150 1.449692 1_655
C147 C67 1.437012 1_555
C147 C151 1.449692 1_555
C148 C152 1.400975 1_555
C148 C72 1.436355 1_555
C149 C153 1.400975 1_555
C149 C73 1.436355 1_555
C150 C154 1.400975 1_555
C150 C74 1.436355 1_555
C151 C155 1.400975 1_555
C151 C75 1.436355 1_555
C152 C156 1.439712 1_555
C152 C212 1.451923 1_555
C153 C157 1.439712 1_555
C153 C213 1.451923 1_555
C154 C158 1.439712 1_555
C154 C214 1.451923 1_555
C155 C159 1.439712 1_555
C155 C215 1.451923 1_555
C156 C80 1.400554 1_555
C156 C160 1.451661 1_555
C157 C81 1.400554 1_555
C157 C161 1.451661 1_555
C158 C82 1.400554 1_555
C158 C162 1.451661 1_555
C159 C83 1.400554 1_555
C159 C163 1.451661 1_555
C160 C164 1.395466 1_555
C160 C216 1.453944 1_555
C161 C165 1.395466 1_555
C161 C217 1.453944 1_555
C162 C166 1.395466 1_555
C162 C218 1.453944 1_555
C163 C167 1.395466 1_555
C163 C219 1.453944 1_555
C164 C168 1.451620 1_555
C164 C88 1.455376 1_555
C165 C169 1.451620 1_555
C165 C89 1.455376 1_555
C166 C170 1.451620 1_555
C166 C90 1.455376 1_555
C167 C171 1.451620 1_555
C167 C91 1.455376 1_555
C168 C224 1.398796 1_555
C168 C172 1.453025 1_555
C169 C225 1.398796 1_555
C169 C173 1.453025 1_555
C170 C226 1.398796 1_555
C170 C174 1.453025 1_555
C171 C227 1.398796 1_555
C171 C175 1.453025 1_555
C172 C176 1.404631 1_555
C172 C92 1.444384 1_555
C173 C177 1.404631 1_555
C173 C93 1.444384 1_555
C174 C178 1.404631 1_555
C174 C94 1.444384 1_555
C175 C179 1.404631 1_555
C175 C95 1.444384 1_555
C176 C180 1.442747 1_555
C177 C181 1.442747 1_555
C178 C182 1.442747 1_555
C179 C183 1.442747 1_555
C180 C228 1.400017 1_655
C180 C184 1.446755 1_655
C181 C229 1.400017 1_555
C181 C185 1.446755 1_555
C182 C230 1.400017 1_455
C182 C186 1.446755 1_455
C183 C231 1.400017 1_555
C183 C187 1.446755 1_555
C184 C188 1.371409 1_555
C185 C189 1.371409 1_555
C186 C190 1.371409 1_555
C187 C191 1.371409 1_555
C188 C192 1.443296 1_555
C189 C193 1.443296 1_555
C190 C194 1.443296 1_555
C191 C195 1.443296 1_555
C192 C232 1.396057 1_555
C192 C196 1.445551 1_555
C193 C233 1.396057 1_555
C193 C197 1.445551 1_555
C194 C234 1.396057 1_555
C194 C198 1.445551 1_555
C195 C235 1.396057 1_555
C195 C199 1.445551 1_555
C196 C200 1.403384 1_555
C197 C201 1.403384 1_555
C198 C202 1.403384 1_555
C199 C203 1.403384 1_555
C200 C204 1.452909 1_555
C201 C205 1.452909 1_555
C202 C206 1.452909 1_555
C203 C207 1.452909 1_555
C204 C236 1.403162 1_555
C204 C208 1.447413 1_555
C205 C237 1.403162 1_555
C205 C209 1.447413 1_555
C206 C238 1.403162 1_555
C206 C210 1.447413 1_555
C207 C239 1.403162 1_555
C207 C211 1.447413 1_555
C208 C212 1.402128 1_455
C209 C213 1.402128 1_555
C210 C214 1.402128 1_655
C211 C215 1.402128 1_555
C212 C216 1.446288 1_555
C213 C217 1.446288 1_555
C214 C218 1.446288 1_555
C215 C219 1.446288 1_555
C216 C220 1.402822 1_555
C217 C221 1.402822 1_555
C218 C222 1.402822 1_555
C219 C223 1.402822 1_555
C220 C236 1.447344 1_655
C220 C224 1.455582 1_555
C221 C237 1.447344 1_555
C221 C225 1.455582 1_555
C222 C238 1.447344 1_455
C222 C226 1.455582 1_555
C223 C239 1.447344 1_555
C223 C227 1.455582 1_555
C224 C228 1.450629 1_655
C225 C229 1.450629 1_555
C226 C230 1.450629 1_455
C227 C231 1.450629 1_555
C228 C232 1.442435 1_555
C229 C233 1.442435 1_555
C230 C234 1.442435 1_555
C231 C235 1.442435 1_555
C232 C236 1.452636 1_555
C233 C237 1.452636 1_555
C234 C238 1.452636 1_555
C235 C239 1.452636 1_555
C240 S2 1.554876 1_555
C240 S0 1.554876 1_555
C241 S3 1.554876 1_454
C241 S1 1.554876 1_555
