# generated using pymatgen
data_Li4MnCo2O7
_symmetry_space_group_name_H-M   'P 1'
_cell_length_a   2.97128480
_cell_length_b   2.97128480
_cell_length_c   34.23684743
_cell_angle_alpha   86.25714495
_cell_angle_beta   86.25714495
_cell_angle_gamma   58.02467461
_symmetry_Int_Tables_number   1
_chemical_formula_structural   Li4MnCo2O7
_chemical_formula_sum   'Li8 Mn2 Co4 O14'
_cell_volume   255.68562206
_cell_formula_units_Z   2
loop_
 _symmetry_equiv_pos_site_id
 _symmetry_equiv_pos_as_xyz
  1  'x, y, z'
loop_
 _atom_site_type_symbol
 _atom_site_label
 _atom_site_symmetry_multiplicity
 _atom_site_fract_x
 _atom_site_fract_y
 _atom_site_fract_z
 _atom_site_occupancy
  Li  Li0  1  0.86132100  0.86132100  0.71230300  1
  Li  Li1  1  0.29632800  0.29632800  0.56964800  1
  Li  Li2  1  0.70367200  0.70367200  0.43035200  1
  Li  Li3  1  0.13867900  0.13867900  0.28769700  1
  Li  Li4  1  0.57316100  0.57316100  0.14152800  1
  Li  Li5  1  0.00000000  0.00000000  0.00000000  1
  Li  Li6  1  0.42683900  0.42683900  0.85847200  1
  Li  Li7  1  0.00000000  0.00000000  0.50000000  1
  Mn  Mn0  1  0.14335000  0.14335000  0.78556300  1
  Mn  Mn1  1  0.85665000  0.85665000  0.21443700  1
  Co  Co0  1  0.57495700  0.57495700  0.64289900  1
  Co  Co1  1  0.42504300  0.42504300  0.35710100  1
  Co  Co2  1  0.28590900  0.28590900  0.07096100  1
  Co  Co3  1  0.71409100  0.71409100  0.92903900  1
  O  O0  1  0.52268100  0.52268100  0.75326800  1
  O  O1  1  0.92238400  0.92238400  0.61160600  1
  O  O2  1  0.35805400  0.35805400  0.46356200  1
  O  O3  1  0.78495200  0.78495200  0.32313700  1
  O  O4  1  0.23692300  0.23692300  0.18103000  1
  O  O5  1  0.64450400  0.64450400  0.03854200  1
  O  O6  1  0.07285300  0.07285300  0.89632200  1
  O  O7  1  0.21504800  0.21504800  0.67686300  1
  O  O8  1  0.64194600  0.64194600  0.53643800  1
  O  O9  1  0.07761600  0.07761600  0.38839400  1
  O  O10  1  0.47731900  0.47731900  0.24673200  1
  O  O11  1  0.92714700  0.92714700  0.10367800  1
  O  O12  1  0.35549600  0.35549600  0.96145800  1
  O  O13  1  0.76307700  0.76307700  0.81897000  1
loop_
_geom_bond_atom_site_label_1
_geom_bond_atom_site_label_2
_geom_bond_distance
_geom_bond_site_symmetry_2
Li0 O7 2.065053 1_655
Li0 O7 2.065053 1_565
Li0 O7 2.125672 1_665
Li0 O0 2.166954 1_555
Li0 O0 2.218669 1_565
Li0 O0 2.218669 1_655
Li1 O8 2.036991 1_455
Li1 O8 2.036991 1_545
Li1 O8 2.052799 1_555
Li1 O1 2.170225 1_545
Li1 O1 2.170225 1_455
Li1 O1 2.328810 1_445
Li2 O2 2.036991 1_655
Li2 O2 2.036991 1_565
Li2 O2 2.052799 1_555
Li2 O9 2.170225 1_565
Li2 O9 2.170225 1_655
Li2 O9 2.328810 1_665
Li3 O3 2.065053 1_455
Li3 O3 2.065053 1_545
Li3 O3 2.125672 1_445
Li3 O10 2.166954 1_555
Li3 O10 2.218669 1_455
Li3 O10 2.218669 1_545
Li4 O11 2.116257 1_545
Li4 O11 2.116257 1_455
Li4 O4 2.128285 1_555
Li4 O11 2.169693 1_555
Li4 O4 2.191310 1_655
Li4 O4 2.191310 1_565
Li5 O5 2.128332 1_545
Li5 O5 2.128332 1_455
Li5 O12 2.128332 1_454
Li5 O12 2.128332 1_544
Li5 O5 2.188701 1_445
Li5 O12 2.188701 1_554
Li6 O6 2.116257 1_565
Li6 O6 2.116257 1_655
Li6 O13 2.128285 1_555
Li6 O6 2.169693 1_555
Li6 O13 2.191310 1_545
Li6 O13 2.191310 1_455
Li7 O8 2.077146 1_545
Li7 O8 2.077146 1_455
Li7 O2 2.077146 1_545
Li7 O2 2.077146 1_455
Li7 O8 2.161523 1_445
Li7 O2 2.161523 1_555
Mn0 O0 1.948325 1_545
Mn0 O0 1.948325 1_455
Mn0 O13 1.969320 1_455
Mn0 O13 1.969320 1_545
Mn0 O0 2.187070 1_555
Mn0 O13 2.208212 1_445
Mn1 O10 1.948325 1_565
Mn1 O10 1.948325 1_655
Mn1 O4 1.969320 1_655
Mn1 O4 1.969320 1_565
Mn1 O10 2.187070 1_555
Mn1 O4 2.208212 1_665
Co0 O1 1.995001 1_455
Co0 O1 1.995001 1_545
Co0 O7 2.021199 1_655
Co0 O7 2.021199 1_565
Co0 O1 2.029532 1_555
Co0 O7 2.127404 1_555
Co1 O9 1.995001 1_565
Co1 O9 1.995001 1_655
Co1 O3 2.021199 1_455
Co1 O3 2.021199 1_545
Co1 O9 2.029532 1_555
Co1 O3 2.127404 1_555
Co2 O5 1.992586 1_455
Co2 O5 1.992586 1_545
Co2 O11 1.998212 1_455
Co2 O11 1.998212 1_545
Co2 O5 2.096671 1_555
Co2 O11 2.102150 1_445
Co3 O12 1.992586 1_565
Co3 O12 1.992586 1_655
Co3 O6 1.998212 1_655
Co3 O6 1.998212 1_565
Co3 O12 2.096671 1_555
Co3 O6 2.102150 1_665
