# generated using pymatgen
data_YMg2
_symmetry_space_group_name_H-M   'P 1'
_cell_length_a   17.81779601
_cell_length_b   17.81779601
_cell_length_c   10.90104000
_cell_angle_alpha   90.00000000
_cell_angle_beta   90.00000000
_cell_angle_gamma   158.10815659
_symmetry_Int_Tables_number   1
_chemical_formula_structural   YMg2
_chemical_formula_sum   'Y16 Mg32'
_cell_volume   1290.37718744
_cell_formula_units_Z   16
loop_
 _symmetry_equiv_pos_site_id
 _symmetry_equiv_pos_as_xyz
  1  'x, y, z'
loop_
 _atom_site_type_symbol
 _atom_site_label
 _atom_site_symmetry_multiplicity
 _atom_site_fract_x
 _atom_site_fract_y
 _atom_site_fract_z
 _atom_site_occupancy
  Y  Y0_0  1  0.39140650  0.10859350  0.25000000  1
  Y  Y0_1  1  0.39140650  0.10859350  0.75000000  1
  Y  Y0_2  1  0.39140650  0.60859350  0.25000000  1
  Y  Y0_3  1  0.39140650  0.60859350  0.75000000  1
  Y  Y0_4  1  0.89140650  0.10859350  0.25000000  1
  Y  Y0_5  1  0.89140650  0.10859350  0.75000000  1
  Y  Y0_6  1  0.89140650  0.60859350  0.25000000  1
  Y  Y0_7  1  0.89140650  0.60859350  0.75000000  1
  Y  Y1_0  1  0.05372850  0.44627150  0.25000000  1
  Y  Y1_1  1  0.05372850  0.44627150  0.75000000  1
  Y  Y1_2  1  0.05372850  0.94627150  0.25000000  1
  Y  Y1_3  1  0.05372850  0.94627150  0.75000000  1
  Y  Y1_4  1  0.55372850  0.44627150  0.25000000  1
  Y  Y1_5  1  0.55372850  0.44627150  0.75000000  1
  Y  Y1_6  1  0.55372850  0.94627150  0.25000000  1
  Y  Y1_7  1  0.55372850  0.94627150  0.75000000  1
  Mg  Mg0_0  1  0.49869900  0.00130100  0.00000000  1
  Mg  Mg0_1  1  0.49869900  0.00130100  0.50000000  1
  Mg  Mg0_2  1  0.49869900  0.50130100  0.00000000  1
  Mg  Mg0_3  1  0.49869900  0.50130100  0.50000000  1
  Mg  Mg0_4  1  0.99869900  0.00130100  0.00000000  1
  Mg  Mg0_5  1  0.99869900  0.00130100  0.50000000  1
  Mg  Mg0_6  1  0.99869900  0.50130100  0.00000000  1
  Mg  Mg0_7  1  0.99869900  0.50130100  0.50000000  1
  Mg  Mg1_0  1  0.16684100  0.33315900  0.00000000  1
  Mg  Mg1_1  1  0.16684100  0.33315900  0.50000000  1
  Mg  Mg1_2  1  0.16684100  0.83315900  0.00000000  1
  Mg  Mg1_3  1  0.16684100  0.83315900  0.50000000  1
  Mg  Mg1_4  1  0.66684100  0.33315900  0.00000000  1
  Mg  Mg1_5  1  0.66684100  0.33315900  0.50000000  1
  Mg  Mg1_6  1  0.66684100  0.83315900  0.00000000  1
  Mg  Mg1_7  1  0.66684100  0.83315900  0.50000000  1
  Mg  Mg2_0  1  0.33424100  0.16575900  0.00000000  1
  Mg  Mg2_1  1  0.33424100  0.16575900  0.50000000  1
  Mg  Mg2_2  1  0.33424100  0.66575900  0.00000000  1
  Mg  Mg2_3  1  0.33424100  0.66575900  0.50000000  1
  Mg  Mg2_4  1  0.83424100  0.16575900  0.00000000  1
  Mg  Mg2_5  1  0.83424100  0.16575900  0.50000000  1
  Mg  Mg2_6  1  0.83424100  0.66575900  0.00000000  1
  Mg  Mg2_7  1  0.83424100  0.66575900  0.50000000  1
  Mg  Mg3_0  1  0.22175050  0.27824950  0.25000000  1
  Mg  Mg3_1  1  0.22175050  0.27824950  0.75000000  1
  Mg  Mg3_2  1  0.22175050  0.77824950  0.25000000  1
  Mg  Mg3_3  1  0.22175050  0.77824950  0.75000000  1
  Mg  Mg3_4  1  0.72175050  0.27824950  0.25000000  1
  Mg  Mg3_5  1  0.72175050  0.27824950  0.75000000  1
  Mg  Mg3_6  1  0.72175050  0.77824950  0.25000000  1
  Mg  Mg3_7  1  0.72175050  0.77824950  0.75000000  1
loop_
_geom_bond_atom_site_label_1
_geom_bond_atom_site_label_2
_geom_bond_distance
_geom_bond_site_symmetry_2
Y0_0 Y0_6 3.383286 1_555
Y0_0 Y0_6 3.383286 1_445
Y0_0 Y1_4 3.503129 1_555
Y0_0 Y1_2 3.503129 1_545
Y0_1 Y0_7 3.383286 1_555
Y0_1 Y0_7 3.383286 1_445
Y0_1 Y1_5 3.503129 1_555
Y0_1 Y1_3 3.503129 1_545
Y0_2 Y0_4 3.383286 1_565
Y0_2 Y0_4 3.383286 1_455
Y0_2 Y1_0 3.503129 1_555
Y0_2 Y1_6 3.503129 1_555
Y0_3 Y0_5 3.383286 1_565
Y0_3 Y0_5 3.383286 1_455
Y0_3 Y1_1 3.503129 1_555
Y0_3 Y1_7 3.503129 1_555
Y0_4 Y1_0 3.503129 1_655
Y0_4 Y1_6 3.503129 1_545
Y0_5 Y1_1 3.503129 1_655
Y0_5 Y1_7 3.503129 1_545
Y0_6 Y1_2 3.503129 1_655
Y0_6 Y1_4 3.503129 1_555
Y0_7 Y1_3 3.503129 1_655
Y0_7 Y1_5 3.503129 1_555
Y1_0 Y1_6 3.383286 1_445
Y1_0 Y1_6 3.383286 1_555
Y1_1 Y1_7 3.383286 1_555
Y1_1 Y1_7 3.383286 1_445
Y1_2 Y1_4 3.383286 1_565
Y1_2 Y1_4 3.383286 1_455
Y1_3 Y1_5 3.383286 1_565
Y1_3 Y1_5 3.383286 1_455
Mg0_0 Mg1_2 3.326271 1_545
Mg0_0 Mg1_4 3.326271 1_555
Mg0_0 Y1_6 3.336757 1_545
Mg0_0 Y1_7 3.336757 1_544
Mg0_0 Mg3_5 3.343303 1_554
Mg0_0 Mg3_4 3.343303 1_555
Mg0_0 Mg3_2 3.343303 1_545
Mg0_0 Mg3_3 3.343303 1_544
Mg0_0 Mg0_6 3.383286 1_445
Mg0_0 Mg0_6 3.383286 1_555
Mg0_0 Mg2_2 3.437876 1_545
Mg0_0 Mg2_4 3.437876 1_555
Mg0_1 Mg1_3 3.326271 1_545
Mg0_1 Mg1_5 3.326271 1_555
Mg0_1 Y1_6 3.336757 1_545
Mg0_1 Y1_7 3.336757 1_545
Mg0_1 Mg3_3 3.343303 1_545
Mg0_1 Mg3_4 3.343303 1_555
Mg0_1 Mg3_5 3.343303 1_555
Mg0_1 Mg3_2 3.343303 1_545
Mg0_1 Mg0_7 3.383286 1_555
Mg0_1 Mg0_7 3.383286 1_445
Mg0_1 Mg2_3 3.437876 1_545
Mg0_1 Mg2_5 3.437876 1_555
Mg0_2 Mg1_6 3.326271 1_555
Mg0_2 Mg1_0 3.326271 1_555
Mg0_2 Y1_4 3.336757 1_555
Mg0_2 Y1_5 3.336757 1_554
Mg0_2 Mg3_1 3.343303 1_554
Mg0_2 Mg3_0 3.343303 1_555
Mg0_2 Mg3_7 3.343303 1_554
Mg0_2 Mg3_6 3.343303 1_555
Mg0_2 Mg0_4 3.383286 1_455
Mg0_2 Mg0_4 3.383286 1_565
Mg0_2 Mg2_0 3.437876 1_555
Mg0_2 Mg2_6 3.437876 1_555
Mg0_3 Mg1_7 3.326271 1_555
Mg0_3 Mg1_1 3.326271 1_555
Mg0_3 Y1_5 3.336757 1_555
Mg0_3 Y1_4 3.336757 1_555
Mg0_3 Mg3_0 3.343303 1_555
Mg0_3 Mg3_1 3.343303 1_555
Mg0_3 Mg3_6 3.343303 1_555
Mg0_3 Mg3_7 3.343303 1_555
Mg0_3 Mg0_5 3.383286 1_565
Mg0_3 Mg0_5 3.383286 1_455
Mg0_3 Mg2_1 3.437876 1_555
Mg0_3 Mg2_7 3.437876 1_555
Mg0_4 Mg1_0 3.326271 1_655
Mg0_4 Mg1_6 3.326271 1_545
Mg0_4 Y1_2 3.336757 1_645
Mg0_4 Y1_3 3.336757 1_644
Mg0_4 Mg3_0 3.343303 1_655
Mg0_4 Mg3_1 3.343303 1_654
Mg0_4 Mg3_6 3.343303 1_545
Mg0_4 Mg3_7 3.343303 1_544
Mg0_4 Mg2_6 3.437876 1_545
Mg0_4 Mg2_0 3.437876 1_655
Mg0_5 Mg1_7 3.326271 1_545
Mg0_5 Mg1_1 3.326271 1_655
Mg0_5 Y1_3 3.336757 1_645
Mg0_5 Y1_2 3.336757 1_645
Mg0_5 Mg3_0 3.343303 1_655
Mg0_5 Mg3_1 3.343303 1_655
Mg0_5 Mg3_6 3.343303 1_545
Mg0_5 Mg3_7 3.343303 1_545
Mg0_5 Mg2_7 3.437876 1_545
Mg0_5 Mg2_1 3.437876 1_655
Mg0_6 Mg1_2 3.326271 1_655
Mg0_6 Mg1_4 3.326271 1_555
Mg0_6 Y1_0 3.336757 1_655
Mg0_6 Y1_1 3.336757 1_654
Mg0_6 Mg3_5 3.343303 1_554
Mg0_6 Mg3_4 3.343303 1_555
Mg0_6 Mg3_2 3.343303 1_655
Mg0_6 Mg3_3 3.343303 1_654
Mg0_6 Mg2_4 3.437876 1_555
Mg0_6 Mg2_2 3.437876 1_655
Mg0_7 Mg1_5 3.326271 1_555
Mg0_7 Mg1_3 3.326271 1_655
Mg0_7 Y1_0 3.336757 1_655
Mg0_7 Y1_1 3.336757 1_655
Mg0_7 Mg3_4 3.343303 1_555
Mg0_7 Mg3_5 3.343303 1_555
Mg0_7 Mg3_3 3.343303 1_655
Mg0_7 Mg3_2 3.343303 1_655
Mg0_7 Mg2_5 3.437876 1_555
Mg0_7 Mg2_3 3.437876 1_655
Mg1_0 Y0_3 3.328752 1_554
Mg1_0 Y0_4 3.328752 1_455
Mg1_0 Y0_5 3.328752 1_454
Mg1_0 Y0_2 3.328752 1_555
Mg1_0 Mg3_1 3.334336 1_554
Mg1_0 Mg3_0 3.334336 1_555
Mg1_0 Mg2_4 3.348650 1_455
Mg1_0 Mg2_2 3.348650 1_555
Mg1_0 Mg1_6 3.383286 1_445
Mg1_0 Mg1_6 3.383286 1_555
Mg1_1 Y0_4 3.328752 1_455
Mg1_1 Y0_3 3.328752 1_555
Mg1_1 Y0_5 3.328752 1_455
Mg1_1 Y0_2 3.328752 1_555
Mg1_1 Mg3_0 3.334336 1_555
Mg1_1 Mg3_1 3.334336 1_555
Mg1_1 Mg2_3 3.348650 1_555
Mg1_1 Mg2_5 3.348650 1_455
Mg1_1 Mg1_7 3.383286 1_445
Mg1_1 Mg1_7 3.383286 1_555
Mg1_2 Y0_1 3.328752 1_564
Mg1_2 Y0_0 3.328752 1_565
Mg1_2 Y0_7 3.328752 1_454
Mg1_2 Y0_6 3.328752 1_455
Mg1_2 Mg3_3 3.334336 1_554
Mg1_2 Mg3_2 3.334336 1_555
Mg1_2 Mg2_0 3.348650 1_565
Mg1_2 Mg2_6 3.348650 1_455
Mg1_2 Mg1_4 3.383286 1_455
Mg1_2 Mg1_4 3.383286 1_565
Mg1_3 Y0_7 3.328752 1_455
Mg1_3 Y0_0 3.328752 1_565
Mg1_3 Y0_1 3.328752 1_565
Mg1_3 Y0_6 3.328752 1_455
Mg1_3 Mg3_2 3.334336 1_555
Mg1_3 Mg3_3 3.334336 1_555
Mg1_3 Mg2_1 3.348650 1_565
Mg1_3 Mg2_7 3.348650 1_455
Mg1_3 Mg1_5 3.383286 1_455
Mg1_3 Mg1_5 3.383286 1_565
Mg1_4 Y0_6 3.328752 1_555
Mg1_4 Y0_1 3.328752 1_554
Mg1_4 Y0_7 3.328752 1_554
Mg1_4 Y0_0 3.328752 1_555
Mg1_4 Mg3_5 3.334336 1_554
Mg1_4 Mg3_4 3.334336 1_555
Mg1_4 Mg2_6 3.348650 1_555
Mg1_4 Mg2_0 3.348650 1_555
Mg1_5 Y0_6 3.328752 1_555
Mg1_5 Y0_7 3.328752 1_555
Mg1_5 Y0_1 3.328752 1_555
Mg1_5 Y0_0 3.328752 1_555
Mg1_5 Mg3_4 3.334336 1_555
Mg1_5 Mg3_5 3.334336 1_555
Mg1_5 Mg2_7 3.348650 1_555
Mg1_5 Mg2_1 3.348650 1_555
Mg1_6 Y0_3 3.328752 1_554
Mg1_6 Y0_4 3.328752 1_565
Mg1_6 Y0_5 3.328752 1_564
Mg1_6 Y0_2 3.328752 1_555
Mg1_6 Mg3_7 3.334336 1_554
Mg1_6 Mg3_6 3.334336 1_555
Mg1_6 Mg2_4 3.348650 1_565
Mg1_6 Mg2_2 3.348650 1_555
Mg1_7 Y0_3 3.328752 1_555
Mg1_7 Y0_4 3.328752 1_565
Mg1_7 Y0_2 3.328752 1_555
Mg1_7 Y0_5 3.328752 1_565
Mg1_7 Mg3_6 3.334336 1_555
Mg1_7 Mg3_7 3.334336 1_555
Mg1_7 Mg2_3 3.348650 1_555
Mg1_7 Mg2_5 3.348650 1_565
Mg2_0 Y0_1 3.380429 1_554
Mg2_0 Y0_0 3.380429 1_555
Mg2_0 Y1_2 3.380586 1_545
Mg2_0 Y1_3 3.380586 1_544
Mg2_0 Y1_4 3.380586 1_555
Mg2_0 Y1_5 3.380586 1_554
Mg2_0 Mg2_6 3.383286 1_445
Mg2_0 Mg2_6 3.383286 1_555
Mg2_1 Y0_1 3.380429 1_555
Mg2_1 Y0_0 3.380429 1_555
Mg2_1 Y1_2 3.380586 1_545
Mg2_1 Y1_3 3.380586 1_545
Mg2_1 Y1_4 3.380586 1_555
Mg2_1 Y1_5 3.380586 1_555
Mg2_1 Mg2_7 3.383286 1_445
Mg2_1 Mg2_7 3.383286 1_555
Mg2_2 Y0_3 3.380429 1_554
Mg2_2 Y0_2 3.380429 1_555
Mg2_2 Y1_1 3.380586 1_554
Mg2_2 Y1_0 3.380586 1_555
Mg2_2 Y1_6 3.380586 1_555
Mg2_2 Y1_7 3.380586 1_554
Mg2_2 Mg2_4 3.383286 1_455
Mg2_2 Mg2_4 3.383286 1_565
Mg2_3 Y0_2 3.380429 1_555
Mg2_3 Y0_3 3.380429 1_555
Mg2_3 Y1_1 3.380586 1_555
Mg2_3 Y1_0 3.380586 1_555
Mg2_3 Y1_6 3.380586 1_555
Mg2_3 Y1_7 3.380586 1_555
Mg2_3 Mg2_5 3.383286 1_455
Mg2_3 Mg2_5 3.383286 1_565
Mg2_4 Y0_5 3.380429 1_554
Mg2_4 Y0_4 3.380429 1_555
Mg2_4 Y1_0 3.380586 1_655
Mg2_4 Y1_1 3.380586 1_654
Mg2_4 Y1_6 3.380586 1_545
Mg2_4 Y1_7 3.380586 1_544
Mg2_5 Y0_5 3.380429 1_555
Mg2_5 Y0_4 3.380429 1_555
Mg2_5 Y1_0 3.380586 1_655
Mg2_5 Y1_1 3.380586 1_655
Mg2_5 Y1_7 3.380586 1_545
Mg2_5 Y1_6 3.380586 1_545
Mg2_6 Y0_6 3.380429 1_555
Mg2_6 Y0_7 3.380429 1_554
Mg2_6 Y1_4 3.380586 1_555
Mg2_6 Y1_5 3.380586 1_554
Mg2_6 Y1_2 3.380586 1_655
Mg2_6 Y1_3 3.380586 1_654
Mg2_7 Y0_6 3.380429 1_555
Mg2_7 Y0_7 3.380429 1_555
Mg2_7 Y1_4 3.380586 1_555
Mg2_7 Y1_2 3.380586 1_655
Mg2_7 Y1_3 3.380586 1_655
Mg2_7 Y1_5 3.380586 1_555
Mg3_0 Y0_4 3.280773 1_455
Mg3_0 Y0_2 3.280773 1_555
Mg3_0 Y1_2 3.329887 1_545
Mg3_0 Y1_4 3.329887 1_555
Mg3_0 Mg3_6 3.383286 1_555
Mg3_0 Mg3_6 3.383286 1_445
Mg3_1 Y0_5 3.280773 1_455
Mg3_1 Y0_3 3.280773 1_555
Mg3_1 Y1_3 3.329887 1_545
Mg3_1 Y1_5 3.329887 1_555
Mg3_1 Mg3_7 3.383286 1_445
Mg3_1 Mg3_7 3.383286 1_555
Mg3_2 Y0_6 3.280773 1_455
Mg3_2 Y0_0 3.280773 1_565
Mg3_2 Y1_6 3.329887 1_555
Mg3_2 Y1_0 3.329887 1_555
Mg3_2 Mg3_4 3.383286 1_455
Mg3_2 Mg3_4 3.383286 1_565
Mg3_3 Y0_7 3.280773 1_455
Mg3_3 Y0_1 3.280773 1_565
Mg3_3 Y1_7 3.329887 1_555
Mg3_3 Y1_1 3.329887 1_555
Mg3_3 Mg3_5 3.383286 1_455
Mg3_3 Mg3_5 3.383286 1_565
Mg3_4 Y0_6 3.280773 1_555
Mg3_4 Y0_0 3.280773 1_555
Mg3_4 Y1_6 3.329887 1_545
Mg3_4 Y1_0 3.329887 1_655
Mg3_5 Y0_7 3.280773 1_555
Mg3_5 Y0_1 3.280773 1_555
Mg3_5 Y1_7 3.329887 1_545
Mg3_5 Y1_1 3.329887 1_655
Mg3_6 Y0_2 3.280773 1_555
Mg3_6 Y0_4 3.280773 1_565
Mg3_6 Y1_4 3.329887 1_555
Mg3_6 Y1_2 3.329887 1_655
Mg3_7 Y0_5 3.280773 1_565
Mg3_7 Y0_3 3.280773 1_555
Mg3_7 Y1_5 3.329887 1_555
Mg3_7 Y1_3 3.329887 1_655
