# generated using pymatgen
data_TaVNi
_symmetry_space_group_name_H-M   'P 1'
_cell_length_a   4.92833991
_cell_length_b   4.92833991
_cell_length_c   8.06098900
_cell_angle_alpha   90.00000000
_cell_angle_beta   90.00000000
_cell_angle_gamma   120.20649126
_symmetry_Int_Tables_number   1
_chemical_formula_structural   TaVNi
_chemical_formula_sum   'Ta4 V4 Ni4'
_cell_volume   169.20486502
_cell_formula_units_Z   4
loop_
 _symmetry_equiv_pos_site_id
 _symmetry_equiv_pos_as_xyz
  1  'x, y, z'
loop_
 _atom_site_type_symbol
 _atom_site_label
 _atom_site_symmetry_multiplicity
 _atom_site_fract_x
 _atom_site_fract_y
 _atom_site_fract_z
 _atom_site_occupancy
  Ta  Ta0  1  0.32459100  0.67540900  0.18411100  1
  Ta  Ta1  1  0.66014900  0.33985100  0.30626600  1
  Ta  Ta2  1  0.66014900  0.33985100  0.69373400  1
  Ta  Ta3  1  0.32459100  0.67540900  0.81588900  1
  V  V0  1  0.84092000  0.15908000  0.00000000  1
  V  V1  1  0.16956400  0.33992400  0.50000000  1
  V  V2  1  0.66007600  0.83043600  0.50000000  1
  V  V3  1  0.17323000  0.82677000  0.50000000  1
  Ni  Ni0  1  0.00022100  0.99977900  0.24548400  1
  Ni  Ni1  1  0.00022100  0.99977900  0.75451600  1
  Ni  Ni2  1  0.83648300  0.65160200  0.00000000  1
  Ni  Ni3  1  0.34839800  0.16351700  0.00000000  1
loop_
_geom_bond_atom_site_label_1
_geom_bond_atom_site_label_2
_geom_bond_distance
_geom_bond_site_symmetry_2
Ta0 V3 2.856024 1_555
Ta0 V0 2.873385 1_455
Ta0 V0 2.873385 1_565
Ta0 V1 2.920676 1_555
Ta0 V2 2.920676 1_555
Ta0 Ta3 2.968233 1_554
Ta0 Ta1 2.996390 1_565
Ta0 Ta1 2.996390 1_455
Ta0 Ta1 3.031712 1_555
Ta1 V2 2.878429 1_555
Ta1 V1 2.878429 1_555
Ta1 V0 2.912228 1_555
Ta1 V3 2.913011 1_655
Ta1 V3 2.913011 1_545
Ta1 V2 2.956505 1_545
Ta1 V1 2.956505 1_655
Ta1 Ta2 3.123375 1_555
Ta2 V2 2.878429 1_555
Ta2 V1 2.878429 1_555
Ta2 V0 2.912228 1_556
Ta2 V3 2.913011 1_655
Ta2 V3 2.913011 1_545
Ta2 V2 2.956505 1_545
Ta2 V1 2.956505 1_655
Ta2 Ta3 2.996390 1_545
Ta2 Ta3 2.996390 1_655
Ta2 Ta3 3.031712 1_555
Ta3 V3 2.856024 1_555
Ta3 V0 2.873385 1_566
Ta3 V0 2.873385 1_456
Ta3 V1 2.920676 1_555
Ta3 V2 2.920676 1_555
V1 V3 2.390304 1_555
V1 V2 2.409861 1_555
V1 V2 2.503089 1_445
V1 V3 2.538135 1_545
V2 V3 2.390304 1_555
V2 V3 2.538135 1_655
Ni0 V0 2.401825 1_465
Ni0 Ni3 2.473482 1_565
Ni0 Ni2 2.473482 1_455
Ni0 V2 2.511607 1_455
Ni0 V1 2.511607 1_565
Ni0 V3 2.528799 1_555
Ni0 Ta0 2.815548 1_555
Ni0 Ta1 2.853399 1_565
Ni0 Ta1 2.853399 1_455
Ni0 Ta0 2.920839 1_455
Ni0 Ta0 2.920839 1_565
Ni0 Ta1 2.946932 1_465
Ni1 V0 2.401825 1_466
Ni1 Ni2 2.473482 1_456
Ni1 Ni3 2.473482 1_566
Ni1 V2 2.511607 1_455
Ni1 V1 2.511607 1_565
Ni1 V3 2.528799 1_555
Ni1 Ta3 2.815548 1_555
Ni1 Ta2 2.853399 1_565
Ni1 Ta2 2.853399 1_455
Ni1 Ta3 2.920839 1_455
Ni1 Ta3 2.920839 1_565
Ni1 Ta2 2.946932 1_465
Ni2 Ni3 2.397937 1_555
Ni2 V0 2.438391 1_555
Ni2 V0 2.490094 1_565
Ni2 Ni3 2.515013 1_665
Ni2 Ta0 2.778326 1_655
Ni2 Ta3 2.778326 1_654
Ni2 Ta1 2.804866 1_555
Ni2 Ta2 2.804866 1_554
Ni2 Ta0 2.979701 1_555
Ni2 Ta3 2.979701 1_554
Ni3 V0 2.438391 1_555
Ni3 V0 2.490094 1_455
Ni3 Ta3 2.778326 1_544
Ni3 Ta0 2.778326 1_545
Ni3 Ta1 2.804866 1_555
Ni3 Ta2 2.804866 1_554
Ni3 Ta0 2.979701 1_555
Ni3 Ta3 2.979701 1_554
