# generated using pymatgen
data_Ti4FeBiPb4O15
_symmetry_space_group_name_H-M   'P 1'
_cell_length_a   13.84915025
_cell_length_b   13.84915025
_cell_length_c   4.73323700
_cell_angle_alpha   90.00000000
_cell_angle_beta   90.00000000
_cell_angle_gamma   157.30208397
_symmetry_Int_Tables_number   1
_chemical_formula_structural   Ti4FeBiPb4O15
_chemical_formula_sum   'Ti4 Fe1 Bi1 Pb4 O15'
_cell_volume   350.30659964
_cell_formula_units_Z   1
loop_
 _symmetry_equiv_pos_site_id
 _symmetry_equiv_pos_as_xyz
  1  'x, y, z'
loop_
 _atom_site_type_symbol
 _atom_site_label
 _atom_site_symmetry_multiplicity
 _atom_site_fract_x
 _atom_site_fract_y
 _atom_site_fract_z
 _atom_site_occupancy
  Ti  Ti0  1  0.89776000  0.10224000  0.52657500  1
  Ti  Ti1  1  0.30010300  0.69989700  0.52819500  1
  Ti  Ti2  1  0.69989700  0.30010300  0.52819500  1
  Ti  Ti3  1  0.10224000  0.89776000  0.52657500  1
  Fe  Fe0  1  0.50000000  0.50000000  0.52543400  1
  Bi  Bi0  1  0.00000000  0.00000000  0.92607200  1
  Pb  Pb0  1  0.40506000  0.59494000  0.98803700  1
  Pb  Pb1  1  0.79922100  0.20077900  0.97541300  1
  Pb  Pb2  1  0.20077900  0.79922100  0.97541300  1
  Pb  Pb3  1  0.59494000  0.40506000  0.98803700  1
  O  O0  1  0.89897100  0.59931400  0.63047100  1
  O  O1  1  0.10102900  0.40068600  0.63047100  1
  O  O2  1  0.50000000  0.00000000  0.64376100  1
  O  O3  1  0.29049400  0.19112900  0.65238800  1
  O  O4  1  0.70950600  0.80887100  0.65238800  1
  O  O5  1  0.80887100  0.70950600  0.65238800  1
  O  O6  1  0.00000000  0.50000000  0.64376100  1
  O  O7  1  0.40068600  0.10102900  0.63047100  1
  O  O8  1  0.19112900  0.29049400  0.65238800  1
  O  O9  1  0.59931400  0.89897100  0.63047100  1
  O  O10  1  0.09797900  0.90202100  0.15649600  1
  O  O11  1  0.29790000  0.70210000  0.15901500  1
  O  O12  1  0.70210000  0.29790000  0.15901500  1
  O  O13  1  0.50000000  0.50000000  0.13207300  1
  O  O14  1  0.90202100  0.09797900  0.15649600  1
loop_
_geom_bond_atom_site_label_1
_geom_bond_atom_site_label_2
_geom_bond_distance
_geom_bond_site_symmetry_2
Fe0 O13 1.861871 1_555
Fe0 O3 2.043835 1_555
Fe0 O8 2.043835 1_555
Fe0 O4 2.043835 1_555
Fe0 O5 2.043835 1_555
Bi0 O3 2.285014 1_555
Bi0 O8 2.285014 1_555
Bi0 O5 2.285014 1_445
Bi0 O4 2.285014 1_445
O0 Ti3 1.944622 1_655
O0 Ti2 1.981719 1_555
O0 Pb2 2.539631 1_655
O0 Pb3 2.632550 1_555
O1 Ti0 1.944622 1_455
O1 Ti1 1.981719 1_555
O1 Pb1 2.539631 1_455
O1 Pb0 2.632550 1_555
O2 Ti1 2.001833 1_545
O2 Ti2 2.001833 1_555
O2 Pb2 2.471386 1_545
O2 Pb1 2.471386 1_555
O3 Ti3 2.028447 1_545
O3 Pb3 2.455675 1_555
O4 Ti0 2.028447 1_565
O4 Pb0 2.455675 1_555
O5 Ti3 2.028447 1_655
O5 Pb3 2.455675 1_555
O6 Ti2 2.001833 1_455
O6 Ti1 2.001833 1_555
O6 Pb2 2.471386 1_555
O6 Pb1 2.471386 1_455
O7 Ti3 1.944622 1_545
O7 Ti2 1.981719 1_555
O7 Pb2 2.539631 1_545
O7 Pb3 2.632550 1_555
O8 Ti0 2.028447 1_455
O8 Pb0 2.455675 1_555
O9 Ti0 1.944622 1_565
O9 Ti1 1.981719 1_555
O9 Pb1 2.539631 1_565
O9 Pb0 2.632550 1_555
O10 Ti3 1.755489 1_555
O10 Pb3 2.840739 1_454
O10 Pb3 2.840739 1_564
O10 Pb2 2.920322 1_554
O11 Ti1 1.748440 1_555
O11 Pb2 2.776968 1_554
O11 Pb1 2.860719 1_564
O11 Pb1 2.860719 1_454
O12 Ti2 1.748440 1_555
O12 Pb1 2.776968 1_554
O12 Pb2 2.860719 1_544
O12 Pb2 2.860719 1_654
O13 Pb0 2.666872 1_554
O13 Pb3 2.666872 1_554
O14 Ti0 1.755489 1_555
O14 Pb0 2.840739 1_654
O14 Pb0 2.840739 1_544
O14 Pb1 2.920322 1_554
