# generated using pymatgen
data_V3B100
_symmetry_space_group_name_H-M   'P 1'
_cell_length_a   4.98834100
_cell_length_b   8.86165400
_cell_length_c   17.73195300
_cell_angle_alpha   90.00000000
_cell_angle_beta   90.00000000
_cell_angle_gamma   90.00000000
_symmetry_Int_Tables_number   1
_chemical_formula_structural   V3B100
_chemical_formula_sum   'V3 B100'
_cell_volume   783.84013081
_cell_formula_units_Z   1
loop_
 _symmetry_equiv_pos_site_id
 _symmetry_equiv_pos_as_xyz
  1  'x, y, z'
loop_
 _atom_site_type_symbol
 _atom_site_label
 _atom_site_symmetry_multiplicity
 _atom_site_fract_x
 _atom_site_fract_y
 _atom_site_fract_z
 _atom_site_occupancy
  V  V0  1  0.50000000  0.50000000  0.25040500  1
  V  V1  1  0.50000000  0.50000000  0.74959500  1
  V  V2  1  0.00000000  0.00000000  0.00000000  1
  B  B0  1  0.41278400  0.41487800  0.13209300  1
  B  B1  1  0.41542700  0.41522700  0.63333300  1
  B  B2  1  0.41542700  0.58477300  0.36666700  1
  B  B3  1  0.41278400  0.58512200  0.86790700  1
  B  B4  1  0.08906700  0.91973900  0.38505700  1
  B  B5  1  0.08655500  0.91458900  0.88236300  1
  B  B6  1  0.08655500  0.08541100  0.11763700  1
  B  B7  1  0.08906700  0.08026100  0.61494300  1
  B  B8  1  0.58721600  0.58512200  0.13209300  1
  B  B9  1  0.58457300  0.58477300  0.63333300  1
  B  B10  1  0.58457300  0.41522700  0.36666700  1
  B  B11  1  0.58721600  0.41487800  0.86790700  1
  B  B12  1  0.91093300  0.08026100  0.38505700  1
  B  B13  1  0.91344500  0.08541100  0.88236300  1
  B  B14  1  0.91344500  0.91458900  0.11763700  1
  B  B15  1  0.91093300  0.91973900  0.61494300  1
  B  B16  1  0.58843200  0.73518900  0.20708900  1
  B  B17  1  0.58317400  0.73399300  0.70797300  1
  B  B18  1  0.58317400  0.26600700  0.29202700  1
  B  B19  1  0.58843200  0.26481100  0.79291100  1
  B  B20  1  0.91046900  0.22982100  0.45980100  1
  B  B21  1  0.91338100  0.23517600  0.95733700  1
  B  B22  1  0.91338100  0.76482400  0.04266300  1
  B  B23  1  0.91046900  0.77017900  0.54019900  1
  B  B24  1  0.41156800  0.26481100  0.20708900  1
  B  B25  1  0.41682600  0.26600700  0.70797300  1
  B  B26  1  0.41682600  0.73399300  0.29202700  1
  B  B27  1  0.41156800  0.73518900  0.79291100  1
  B  B28  1  0.08953100  0.77017900  0.45980100  1
  B  B29  1  0.08661900  0.76482400  0.95733700  1
  B  B30  1  0.08661900  0.23517600  0.04266300  1
  B  B31  1  0.08953100  0.22982100  0.54019900  1
  B  B32  1  0.12437300  0.37373900  0.18657400  1
  B  B33  1  0.12792700  0.37307200  0.68674400  1
  B  B34  1  0.12792700  0.62692800  0.31325600  1
  B  B35  1  0.12437300  0.62626100  0.81342600  1
  B  B36  1  0.39090200  0.87052200  0.43495700  1
  B  B37  1  0.37465800  0.87354900  0.93680800  1
  B  B38  1  0.37465800  0.12645100  0.06319200  1
  B  B39  1  0.39090200  0.12947800  0.56504300  1
  B  B40  1  0.87562700  0.62626100  0.18657400  1
  B  B41  1  0.87207300  0.62692800  0.68674400  1
  B  B42  1  0.87207300  0.37307200  0.31325600  1
  B  B43  1  0.87562700  0.37373900  0.81342600  1
  B  B44  1  0.60909800  0.12947800  0.43495700  1
  B  B45  1  0.62534200  0.12645100  0.93680800  1
  B  B46  1  0.62534200  0.87354900  0.06319200  1
  B  B47  1  0.60909800  0.87052200  0.56504300  1
  B  B48  1  0.00000000  0.50000000  0.25026200  1
  B  B49  1  0.00000000  0.50000000  0.74973800  1
  B  B50  1  0.50000000  0.00000000  0.00000000  1
  B  B51  1  0.50000000  0.00000000  0.50000000  1
  B  B52  1  0.09442600  0.41587700  0.08663200  1
  B  B53  1  0.09729600  0.41393800  0.58666500  1
  B  B54  1  0.09729600  0.58606200  0.41333500  1
  B  B55  1  0.09442600  0.58412300  0.91336800  1
  B  B56  1  0.40608300  0.91484500  0.33581700  1
  B  B57  1  0.40503300  0.91589700  0.83688500  1
  B  B58  1  0.40503300  0.08410300  0.16311500  1
  B  B59  1  0.40608300  0.08515500  0.66418300  1
  B  B60  1  0.90557400  0.58412300  0.08663200  1
  B  B61  1  0.90270400  0.58606200  0.58666500  1
  B  B62  1  0.90270400  0.41393800  0.41333500  1
  B  B63  1  0.90557400  0.41587700  0.91336800  1
  B  B64  1  0.59391700  0.08515500  0.33581700  1
  B  B65  1  0.59496700  0.08410300  0.83688500  1
  B  B66  1  0.59496700  0.91589700  0.16311500  1
  B  B67  1  0.59391700  0.91484500  0.66418300  1
  B  B68  1  0.90808200  0.82573000  0.20821000  1
  B  B69  1  0.90072400  0.82747700  0.70690300  1
  B  B70  1  0.90072400  0.17252300  0.29309700  1
  B  B71  1  0.90808200  0.17427000  0.79179000  1
  B  B72  1  0.59450100  0.32838800  0.45724500  1
  B  B73  1  0.59461800  0.32620800  0.95803900  1
  B  B74  1  0.59461800  0.67379200  0.04196100  1
  B  B75  1  0.59450100  0.67161200  0.54275500  1
  B  B76  1  0.09191800  0.17427000  0.20821000  1
  B  B77  1  0.09927600  0.17252300  0.70690300  1
  B  B78  1  0.09927600  0.82747700  0.29309700  1
  B  B79  1  0.09191800  0.82573000  0.79179000  1
  B  B80  1  0.40549900  0.67161200  0.45724500  1
  B  B81  1  0.40538200  0.67379200  0.95803900  1
  B  B82  1  0.40538200  0.32620800  0.04196100  1
  B  B83  1  0.40549900  0.32838800  0.54275500  1
  B  B84  1  0.91738700  0.25718900  0.12844000  1
  B  B85  1  0.92639300  0.25436700  0.62724200  1
  B  B86  1  0.92639300  0.74563300  0.37275800  1
  B  B87  1  0.91738700  0.74281100  0.87156000  1
  B  B88  1  0.58499700  0.75741600  0.37869600  1
  B  B89  1  0.58186600  0.75703000  0.87856800  1
  B  B90  1  0.58186600  0.24297000  0.12143200  1
  B  B91  1  0.58499700  0.24258400  0.62130400  1
  B  B92  1  0.08261300  0.74281100  0.12844000  1
  B  B93  1  0.07360700  0.74563300  0.62724200  1
  B  B94  1  0.07360700  0.25436700  0.37275800  1
  B  B95  1  0.08261300  0.25718900  0.87156000  1
  B  B96  1  0.41500300  0.24258400  0.37869600  1
  B  B97  1  0.41813400  0.24297000  0.87856800  1
  B  B98  1  0.41813400  0.75703000  0.12143200  1
  B  B99  1  0.41500300  0.75741600  0.62130400  1
loop_
_geom_bond_atom_site_label_1
_geom_bond_atom_site_label_2
_geom_bond_distance
_geom_bond_site_symmetry_2
B0 B8 1.741587 1_555
B0 B90 1.751525 1_555
B0 B32 1.770876 1_555
B0 B52 1.780980 1_555
B0 B82 1.781315 1_555
B0 B24 1.880679 1_555
B0 V0 2.271448 1_555
B1 B9 1.723168 1_555
B1 B33 1.758776 1_555
B1 B91 1.761136 1_555
B1 B83 1.781650 1_555
B1 B53 1.789779 1_555
B1 B25 1.870911 1_555
B1 V1 2.234351 1_555
B2 B34 1.758776 1_555
B2 B88 1.761136 1_555
B2 B80 1.781650 1_555
B2 B54 1.789779 1_555
B2 B26 1.870911 1_555
B2 V0 2.234351 1_555
B3 B89 1.751525 1_555
B3 B35 1.770876 1_555
B3 B55 1.780980 1_555
B3 B81 1.781315 1_555
B3 V1 2.271448 1_555
B4 B86 1.756841 1_455
B4 B56 1.806930 1_555
B4 B78 1.824831 1_555
B5 B87 1.751004 1_455
B5 B57 1.781665 1_555
B5 B79 1.788890 1_555
B5 V2 2.260622 1_566
B6 B84 1.751004 1_455
B6 B76 1.788890 1_555
B6 V2 2.260622 1_555
B7 B85 1.756841 1_455
B7 B77 1.824831 1_555
B8 B98 1.751525 1_555
B8 V0 2.271448 1_555
B9 B99 1.761136 1_555
B9 V1 2.234351 1_555
B10 B2 1.723168 1_555
B10 B42 1.758776 1_555
B10 B96 1.761136 1_555
B10 B72 1.781650 1_555
B10 B62 1.789779 1_555
B10 B18 1.870911 1_555
B10 V0 2.234351 1_555
B11 B3 1.741587 1_555
B11 B97 1.751525 1_555
B11 B43 1.770876 1_555
B11 B63 1.780980 1_555
B11 B73 1.781315 1_555
B11 B19 1.880679 1_555
B11 V1 2.271448 1_555
B12 B4 1.677223 1_645
B12 B94 1.756841 1_655
B12 B44 1.800038 1_555
B12 B64 1.806930 1_555
B12 B70 1.824831 1_555
B12 B20 1.874334 1_555
B13 B5 1.742749 1_645
B13 B95 1.751004 1_655
B13 B45 1.769099 1_555
B13 B65 1.781665 1_555
B13 B71 1.788890 1_555
B13 B21 1.878501 1_555
B13 V2 2.260622 1_656
B14 B6 1.742749 1_665
B14 B92 1.751004 1_655
B14 B46 1.769099 1_555
B14 B66 1.781665 1_555
B14 B68 1.788890 1_555
B14 B22 1.878501 1_555
B14 V2 2.260622 1_665
B15 B7 1.677223 1_665
B15 B93 1.756841 1_655
B15 B47 1.800038 1_555
B15 B67 1.806930 1_555
B15 B69 1.824831 1_555
B15 B23 1.874334 1_555
B16 B26 1.732422 1_555
B16 B98 1.751020 1_555
B16 B40 1.765366 1_555
B16 B66 1.781420 1_555
B16 B68 1.785120 1_555
B16 B8 1.880679 1_555
B16 V0 2.264570 1_555
B17 B27 1.732422 1_555
B17 B99 1.763126 1_555
B17 B41 1.765989 1_555
B17 B67 1.781650 1_555
B17 B69 1.787694 1_555
B17 B9 1.870911 1_555
B17 V1 2.239758 1_555
B18 B24 1.732422 1_555
B18 B96 1.763126 1_555
B18 B42 1.765989 1_555
B18 B64 1.781650 1_555
B18 B70 1.787694 1_555
B18 V0 2.239758 1_555
B19 B25 1.732422 1_555
B19 B97 1.751020 1_555
B19 B43 1.765366 1_555
B19 B65 1.781420 1_555
B19 B71 1.785120 1_555
B19 V1 2.264570 1_555
B20 B31 1.682326 1_655
B20 B94 1.758346 1_655
B20 B44 1.801330 1_555
B20 B72 1.802572 1_555
B20 B62 1.828229 1_555
B21 B30 1.742397 1_656
B21 B95 1.750465 1_655
B21 B45 1.767855 1_555
B21 B63 1.781453 1_555
B21 B73 1.783066 1_555
B21 V2 2.258815 1_656
B22 B29 1.742397 1_654
B22 B92 1.750465 1_655
B22 B46 1.767855 1_555
B22 B60 1.781453 1_555
B22 B74 1.783066 1_555
B22 V2 2.258815 1_665
B23 B28 1.682326 1_655
B23 B93 1.758346 1_655
B23 B47 1.801330 1_555
B23 B75 1.802572 1_555
B23 B61 1.828229 1_555
B24 B90 1.751020 1_555
B24 B32 1.765366 1_555
B24 B58 1.781420 1_555
B24 B76 1.785120 1_555
B24 V0 2.264570 1_555
B25 B91 1.763126 1_555
B25 B33 1.765989 1_555
B25 B59 1.781650 1_555
B25 B77 1.787694 1_555
B25 V1 2.239758 1_555
B26 B88 1.763126 1_555
B26 B34 1.765989 1_555
B26 B56 1.781650 1_555
B26 B78 1.787694 1_555
B26 V0 2.239758 1_555
B27 B89 1.751020 1_555
B27 B35 1.765366 1_555
B27 B57 1.781420 1_555
B27 B79 1.785120 1_555
B27 B3 1.880679 1_555
B27 V1 2.264570 1_555
B28 B86 1.758346 1_455
B28 B36 1.801330 1_555
B28 B80 1.802572 1_555
B28 B54 1.828229 1_555
B28 B4 1.874334 1_555
B29 B87 1.750465 1_455
B29 B37 1.767855 1_555
B29 B55 1.781453 1_555
B29 B81 1.783066 1_555
B29 B5 1.878501 1_555
B29 V2 2.258815 1_566
B30 B84 1.750465 1_455
B30 B38 1.767855 1_555
B30 B52 1.781453 1_555
B30 B82 1.783066 1_555
B30 B6 1.878501 1_555
B30 V2 2.258815 1_555
B31 B85 1.758346 1_455
B31 B39 1.801330 1_555
B31 B83 1.802572 1_555
B31 B53 1.828229 1_555
B31 B7 1.874334 1_555
B32 B48 1.706504 1_555
B32 B84 1.787576 1_455
B32 B76 1.816011 1_555
B32 B52 1.817231 1_555
B32 V0 2.458442 1_555
B33 B49 1.708827 1_555
B33 B85 1.797336 1_455
B33 B53 1.817604 1_555
B33 B77 1.818414 1_555
B33 V1 2.439680 1_555
B34 B48 1.708827 1_555
B34 B86 1.797336 1_455
B34 B54 1.817604 1_555
B34 B78 1.818414 1_555
B34 V0 2.439680 1_555
B35 B49 1.706504 1_555
B35 B87 1.787576 1_455
B35 B79 1.816011 1_555
B35 B55 1.817231 1_555
B35 V1 2.458442 1_555
B36 B88 1.713853 1_555
B36 B51 1.715479 1_565
B36 B4 1.800038 1_555
B36 B56 1.802881 1_555
B36 B80 1.807900 1_555
B37 B50 1.703573 1_566
B37 B5 1.769099 1_555
B37 B89 1.789142 1_555
B37 B81 1.816245 1_555
B37 B57 1.817463 1_555
B37 V2 2.450325 1_566
B38 B50 1.703573 1_555
B38 B6 1.769099 1_555
B38 B90 1.789142 1_555
B38 B82 1.816245 1_555
B38 B58 1.817463 1_555
B38 V2 2.450325 1_555
B39 B91 1.713853 1_555
B39 B51 1.715479 1_555
B39 B7 1.800038 1_555
B39 B59 1.802881 1_555
B39 B83 1.807900 1_555
B40 B48 1.706504 1_655
B40 B8 1.770876 1_555
B40 B92 1.787576 1_655
B40 B68 1.816011 1_555
B40 B60 1.817231 1_555
B40 V0 2.458442 1_555
B41 B49 1.708827 1_655
B41 B9 1.758776 1_555
B41 B93 1.797336 1_655
B41 B61 1.817604 1_555
B41 B69 1.818414 1_555
B41 V1 2.439680 1_555
B42 B48 1.708827 1_655
B42 B94 1.797336 1_655
B42 B62 1.817604 1_555
B42 B70 1.818414 1_555
B42 V0 2.439680 1_555
B43 B49 1.706504 1_655
B43 B95 1.787576 1_655
B43 B71 1.816011 1_555
B43 B63 1.817231 1_555
B43 V1 2.458442 1_555
B44 B96 1.713853 1_555
B44 B51 1.715479 1_555
B44 B64 1.802881 1_555
B44 B72 1.807900 1_555
B45 B50 1.703573 1_556
B45 B97 1.789142 1_555
B45 B73 1.816245 1_555
B45 B65 1.817463 1_555
B45 V2 2.450325 1_656
B46 B50 1.703573 1_565
B46 B98 1.789142 1_555
B46 B74 1.816245 1_555
B46 B66 1.817463 1_555
B46 V2 2.450325 1_665
B47 B99 1.713853 1_555
B47 B51 1.715479 1_565
B47 B67 1.802881 1_555
B47 B75 1.807900 1_555
B48 V0 2.494172 1_555
B48 V0 2.494172 1_455
B49 V1 2.494172 1_555
B49 V1 2.494172 1_455
B50 V2 2.494171 1_655
B50 V2 2.494171 1_555
B52 B60 1.763624 1_455
B52 B84 1.818518 1_455
B52 B82 1.914399 1_555
B53 B85 1.801128 1_455
B53 B61 1.807980 1_455
B53 B83 1.882721 1_555
B54 B86 1.801128 1_455
B54 B62 1.807980 1_455
B54 B80 1.882721 1_555
B55 B63 1.763624 1_455
B55 B87 1.818518 1_455
B55 B81 1.914399 1_555
B56 B64 1.776429 1_565
B56 B88 1.822328 1_555
B56 B78 1.874979 1_555
B57 B65 1.766214 1_565
B57 B89 1.818344 1_555
B57 B79 1.928069 1_555
B58 B66 1.766214 1_545
B58 B6 1.781665 1_555
B58 B90 1.818344 1_555
B58 B76 1.928069 1_555
B59 B67 1.776429 1_545
B59 B7 1.806930 1_555
B59 B91 1.822328 1_555
B59 B77 1.874979 1_555
B60 B8 1.780980 1_555
B60 B92 1.818518 1_655
B60 B74 1.914399 1_555
B61 B9 1.789779 1_555
B61 B93 1.801128 1_655
B61 B75 1.882721 1_555
B62 B94 1.801128 1_655
B62 B72 1.882721 1_555
B63 B95 1.818518 1_655
B63 B73 1.914399 1_555
B64 B96 1.822328 1_555
B64 B70 1.874979 1_555
B65 B97 1.818344 1_555
B65 B71 1.928069 1_555
B66 B98 1.818344 1_555
B66 B68 1.928069 1_555
B67 B99 1.822328 1_555
B67 B69 1.874979 1_555
B68 B78 1.782000 1_655
B68 B92 1.816221 1_655
B69 B79 1.782000 1_655
B69 B93 1.806941 1_655
B70 B76 1.782000 1_655
B70 B94 1.806941 1_655
B71 B77 1.782000 1_655
B71 B95 1.816221 1_655
B72 B83 1.785476 1_555
B72 B96 1.822048 1_555
B73 B82 1.762252 1_556
B73 B97 1.817940 1_555
B74 B81 1.762252 1_554
B74 B8 1.781315 1_555
B74 B98 1.817940 1_555
B75 B9 1.781650 1_555
B75 B80 1.785476 1_555
B75 B99 1.822048 1_555
B76 B84 1.816221 1_455
B77 B85 1.806941 1_455
B78 B86 1.806941 1_455
B79 B87 1.816221 1_455
B80 B88 1.822048 1_555
B81 B89 1.817940 1_555
B82 B90 1.817940 1_555
B83 B91 1.822048 1_555
B84 B90 1.683023 1_555
B85 B91 1.709444 1_555
B86 B88 1.709444 1_555
B87 B89 1.683023 1_555
B92 B98 1.683023 1_555
B93 B99 1.709444 1_555
B94 B96 1.709444 1_555
B95 B97 1.683023 1_555
