# generated using pymatgen
data_Ti7P12C6(NO24)2
_symmetry_space_group_name_H-M   'P 1'
_cell_length_a   10.69642355
_cell_length_b   10.69642355
_cell_length_c   10.69642400
_cell_angle_alpha   105.67025738
_cell_angle_beta   105.67025738
_cell_angle_gamma   105.67026106
_symmetry_Int_Tables_number   1
_chemical_formula_structural   Ti7P12C6(NO24)2
_chemical_formula_sum   'Ti7 P12 C6 N2 O48'
_cell_volume   1053.99312033
_cell_formula_units_Z   1
loop_
 _symmetry_equiv_pos_site_id
 _symmetry_equiv_pos_as_xyz
  1  'x, y, z'
loop_
 _atom_site_type_symbol
 _atom_site_label
 _atom_site_symmetry_multiplicity
 _atom_site_fract_x
 _atom_site_fract_y
 _atom_site_fract_z
 _atom_site_occupancy
  Ti  Ti0  1  0.50000000  0.50000000  0.50000000  1
  Ti  Ti1  1  0.26504500  0.37947300  0.83901900  1
  Ti  Ti2  1  0.83901900  0.26504500  0.37947300  1
  Ti  Ti3  1  0.37947300  0.83901900  0.26504500  1
  Ti  Ti4  1  0.73495500  0.62052700  0.16098100  1
  Ti  Ti5  1  0.16098100  0.73495500  0.62052700  1
  Ti  Ti6  1  0.62052700  0.16098100  0.73495500  1
  P  P0  1  0.41328100  0.52083300  0.17622300  1
  P  P1  1  0.17622300  0.41328100  0.52083300  1
  P  P2  1  0.52083300  0.17622300  0.41328100  1
  P  P3  1  0.58671900  0.47916700  0.82377700  1
  P  P4  1  0.82377700  0.58671900  0.47916700  1
  P  P5  1  0.47916700  0.82377700  0.58671900  1
  P  P6  1  0.92139900  0.32995800  0.73890400  1
  P  P7  1  0.73890400  0.92139900  0.32995800  1
  P  P8  1  0.32995800  0.73890400  0.92139900  1
  P  P9  1  0.07860100  0.67004200  0.26109600  1
  P  P10  1  0.26109600  0.07860100  0.67004200  1
  P  P11  1  0.67004200  0.26109600  0.07860100  1
  C  C0  1  0.99003600  0.02356300  0.88475400  1
  C  C1  1  0.88475400  0.99003600  0.02356300  1
  C  C2  1  0.02356300  0.88475400  0.99003600  1
  C  C3  1  0.00996400  0.97643700  0.11524600  1
  C  C4  1  0.11524600  0.00996400  0.97643700  1
  C  C5  1  0.97643700  0.11524600  0.00996400  1
  N  N0  1  0.89992500  0.89992500  0.89992500  1
  N  N1  1  0.10007500  0.10007500  0.10007500  1
  O  O0  1  0.92368500  0.47833300  0.80228500  1
  O  O1  1  0.80228500  0.92368500  0.47833300  1
  O  O2  1  0.47833300  0.80228500  0.92368500  1
  O  O3  1  0.07631500  0.52166700  0.19771500  1
  O  O4  1  0.19771500  0.07631500  0.52166700  1
  O  O5  1  0.52166700  0.19771500  0.07631500  1
  O  O6  1  0.23452300  0.18390600  0.78202500  1
  O  O7  1  0.78202500  0.23452300  0.18390600  1
  O  O8  1  0.18390600  0.78202500  0.23452300  1
  O  O9  1  0.76547700  0.81609400  0.21797500  1
  O  O10  1  0.21797500  0.76547700  0.81609400  1
  O  O11  1  0.81609400  0.21797500  0.76547700  1
  O  O12  1  0.21185600  0.35915800  0.64002300  1
  O  O13  1  0.64002300  0.21185600  0.35915800  1
  O  O14  1  0.35915800  0.64002300  0.21185600  1
  O  O15  1  0.78814400  0.64084200  0.35997700  1
  O  O16  1  0.35997700  0.78814400  0.64084200  1
  O  O17  1  0.64084200  0.35997700  0.78814400  1
  O  O18  1  0.30741300  0.40114600  0.03774400  1
  O  O19  1  0.03774400  0.30741300  0.40114600  1
  O  O20  1  0.40114600  0.03774400  0.30741300  1
  O  O21  1  0.69258700  0.59885400  0.96225600  1
  O  O22  1  0.96225600  0.69258700  0.59885400  1
  O  O23  1  0.59885400  0.96225600  0.69258700  1
  O  O24  1  0.44596100  0.47030800  0.29911600  1
  O  O25  1  0.29911600  0.44596100  0.47030800  1
  O  O26  1  0.47030800  0.29911600  0.44596100  1
  O  O27  1  0.55403900  0.52969200  0.70088400  1
  O  O28  1  0.70088400  0.55403900  0.52969200  1
  O  O29  1  0.52969200  0.70088400  0.55403900  1
  O  O30  1  0.45056700  0.42269400  0.85061700  1
  O  O31  1  0.85061700  0.45056700  0.42269400  1
  O  O32  1  0.42269400  0.85061700  0.45056700  1
  O  O33  1  0.54943300  0.57730600  0.14938300  1
  O  O34  1  0.14938300  0.54943300  0.57730600  1
  O  O35  1  0.57730600  0.14938300  0.54943300  1
  O  O36  1  0.28973000  0.58105600  0.88724900  1
  O  O37  1  0.88724900  0.28973000  0.58105600  1
  O  O38  1  0.58105600  0.88724900  0.28973000  1
  O  O39  1  0.71027000  0.41894400  0.11275100  1
  O  O40  1  0.11275100  0.71027000  0.41894400  1
  O  O41  1  0.41894400  0.11275100  0.71027000  1
  O  O42  1  0.06736300  0.33278100  0.81499400  1
  O  O43  1  0.81499400  0.06736300  0.33278100  1
  O  O44  1  0.33278100  0.81499400  0.06736300  1
  O  O45  1  0.93263700  0.66721900  0.18500600  1
  O  O46  1  0.18500600  0.93263700  0.66721900  1
  O  O47  1  0.66721900  0.18500600  0.93263700  1
loop_
_geom_bond_atom_site_label_1
_geom_bond_atom_site_label_2
_geom_bond_distance
_geom_bond_site_symmetry_2
C0 N0 1.488679 1_545
C0 C4 1.499800 1_655
C0 C5 1.499800 1_556
C1 N0 1.488680 1_554
C1 C5 1.499800 1_565
C1 C3 1.499800 1_655
C2 N0 1.488679 1_455
C2 C4 1.499800 1_565
C2 C3 1.499800 1_556
C3 N1 1.488679 1_565
C4 N1 1.488680 1_556
C5 N1 1.488679 1_655
O0 P6 1.538794 1_555
O1 P7 1.538794 1_555
O2 P8 1.538794 1_555
O3 P9 1.538794 1_555
O4 P10 1.538794 1_555
O5 P11 1.538794 1_555
O6 P10 1.553168 1_555
O6 Ti1 1.920625 1_555
O7 P11 1.553168 1_555
O7 Ti2 1.920625 1_555
O8 P9 1.553168 1_555
O8 Ti3 1.920625 1_555
O9 P7 1.553168 1_555
O9 Ti4 1.920625 1_555
O10 P8 1.553168 1_555
O10 Ti5 1.920625 1_555
O11 P6 1.553168 1_555
O11 Ti6 1.920625 1_555
O12 P1 1.536626 1_555
O12 Ti1 1.982620 1_555
O13 P2 1.536626 1_555
O13 Ti2 1.982620 1_555
O14 P0 1.536626 1_555
O14 Ti3 1.982620 1_555
O15 P4 1.536626 1_555
O15 Ti4 1.982620 1_555
O16 P5 1.536626 1_555
O16 Ti5 1.982620 1_555
O17 P3 1.536626 1_555
O17 Ti6 1.982620 1_555
O18 P0 1.549747 1_555
O18 Ti1 1.983472 1_554
O19 P1 1.549747 1_555
O19 Ti2 1.983472 1_455
O20 P2 1.549747 1_555
O20 Ti3 1.983472 1_545
O21 P3 1.549747 1_555
O21 Ti4 1.983472 1_556
O22 P4 1.549747 1_555
O22 Ti5 1.983472 1_655
O23 P5 1.549747 1_555
O23 Ti6 1.983472 1_565
O24 P0 1.542663 1_555
O24 Ti0 1.978206 1_555
O25 P1 1.542663 1_555
O25 Ti0 1.978206 1_555
O26 P2 1.542663 1_555
O26 Ti0 1.978206 1_555
O27 P3 1.542663 1_555
O27 Ti0 1.978206 1_555
O28 P4 1.542663 1_555
O28 Ti0 1.978206 1_555
O29 P5 1.542663 1_555
O29 Ti0 1.978206 1_555
O30 P3 1.553239 1_555
O30 Ti1 1.872830 1_555
O31 P4 1.553239 1_555
O31 Ti2 1.872830 1_555
O32 P5 1.553239 1_555
O32 Ti3 1.872830 1_555
O33 P0 1.553239 1_555
O33 Ti4 1.872830 1_555
O34 P1 1.553239 1_555
O34 Ti5 1.872830 1_555
O35 P2 1.553239 1_555
O35 Ti6 1.872830 1_555
O36 P8 1.535829 1_555
O36 Ti1 2.000773 1_555
O37 P6 1.535829 1_555
O37 Ti2 2.000773 1_555
O38 P7 1.535829 1_555
O38 Ti3 2.000773 1_555
O39 P11 1.535829 1_555
O39 Ti4 2.000773 1_555
O40 P9 1.535829 1_555
O40 Ti5 2.000773 1_555
O41 P10 1.535829 1_555
O41 Ti6 2.000773 1_555
O42 P6 1.541355 1_455
O42 Ti1 1.962955 1_555
O43 P7 1.541355 1_545
O43 Ti2 1.962955 1_555
O44 P8 1.541355 1_554
O44 Ti3 1.962956 1_555
O45 P9 1.541355 1_655
O45 Ti4 1.962955 1_555
O46 P10 1.541355 1_565
O46 Ti5 1.962955 1_555
O47 P11 1.541355 1_556
O47 Ti6 1.962956 1_555
