# generated using pymatgen
data_MnZnPt2
_symmetry_space_group_name_H-M   'P 1'
_cell_length_a   4.34936027
_cell_length_b   4.34936027
_cell_length_c   4.34936027
_cell_angle_alpha   60.00000000
_cell_angle_beta   60.00000000
_cell_angle_gamma   60.00000000
_symmetry_Int_Tables_number   1
_chemical_formula_structural   MnZnPt2
_chemical_formula_sum   'Mn1 Zn1 Pt2'
_cell_volume   58.17831663
_cell_formula_units_Z   1
loop_
 _symmetry_equiv_pos_site_id
 _symmetry_equiv_pos_as_xyz
  1  'x, y, z'
loop_
 _atom_site_type_symbol
 _atom_site_label
 _atom_site_symmetry_multiplicity
 _atom_site_fract_x
 _atom_site_fract_y
 _atom_site_fract_z
 _atom_site_occupancy
  Mn  Mn0  1  0.50000000  0.50000000  0.50000000  1
  Zn  Zn0  1  0.00000000  -0.00000000  -0.00000000  1
  Pt  Pt0  1  0.25000000  0.25000000  0.25000000  1
  Pt  Pt1  1  0.75000000  0.75000000  0.75000000  1
loop_
_geom_bond_atom_site_label_1
_geom_bond_atom_site_label_2
_geom_bond_distance
_geom_bond_site_symmetry_2
Mn0 Pt1 2.663428 1_554
Mn0 Pt0 2.663428 1_555
Mn0 Pt0 2.663428 1_556
Mn0 Pt1 2.663428 1_555
Mn0 Pt1 2.663428 1_455
Mn0 Pt0 2.663428 1_655
Mn0 Pt0 2.663428 1_565
Mn0 Pt1 2.663428 1_545
Pt0 Zn0 2.663428 1_555
Pt0 Zn0 2.663428 1_556
Pt0 Zn0 2.663428 1_655
Pt0 Zn0 2.663428 1_565
Pt1 Zn0 2.663428 1_666
Pt1 Zn0 2.663428 1_665
Pt1 Zn0 2.663428 1_566
Pt1 Zn0 2.663428 1_656
