# generated using pymatgen
data_CaMg6B
_symmetry_space_group_name_H-M   'P 1'
_cell_length_a   7.30403095
_cell_length_b   7.30403095
_cell_length_c   4.60578000
_cell_angle_alpha   90.00000000
_cell_angle_beta   90.00000000
_cell_angle_gamma   132.56929436
_symmetry_Int_Tables_number   1
_chemical_formula_structural   CaMg6B
_chemical_formula_sum   'Ca1 Mg6 B1'
_cell_volume   180.95783960
_cell_formula_units_Z   1
loop_
 _symmetry_equiv_pos_site_id
 _symmetry_equiv_pos_as_xyz
  1  'x, y, z'
loop_
 _atom_site_type_symbol
 _atom_site_label
 _atom_site_symmetry_multiplicity
 _atom_site_fract_x
 _atom_site_fract_y
 _atom_site_fract_z
 _atom_site_occupancy
  Ca  Ca0  1  0.80481200  0.19518800  0.50000000  1
  Mg  Mg0  1  0.30475200  0.19067200  0.50000000  1
  Mg  Mg1  1  0.80932800  0.69524800  0.50000000  1
  Mg  Mg2  1  0.18155300  0.35182300  0.00000000  1
  Mg  Mg3  1  0.64817700  0.81844700  0.00000000  1
  Mg  Mg4  1  0.64338100  0.35661900  0.00000000  1
  Mg  Mg5  1  0.19859200  0.80140800  0.00000000  1
  B  B0  1  0.40941000  0.59059000  0.50000000  1
loop_
_geom_bond_atom_site_label_1
_geom_bond_atom_site_label_2
_geom_bond_distance
_geom_bond_site_symmetry_2
Ca0 Mg2 3.150374 1_656
Ca0 Mg2 3.150374 1_655
Ca0 Mg3 3.150374 1_545
Ca0 Mg3 3.150374 1_546
Ca0 Mg4 3.156711 1_555
Ca0 Mg4 3.156711 1_556
Mg0 Mg4 2.972184 1_556
Mg0 Mg4 2.972184 1_555
Mg0 Mg5 3.317463 1_545
Mg0 Mg5 3.317463 1_546
Mg1 Mg4 2.972184 1_556
Mg1 Mg4 2.972184 1_555
Mg1 Mg5 3.317463 1_656
Mg1 Mg5 3.317463 1_655
Mg2 Mg5 3.200905 1_555
Mg2 Mg4 3.349608 1_555
Mg3 Mg5 3.200905 1_555
Mg3 Mg4 3.349608 1_555
Mg4 Mg5 3.029016 1_545
Mg4 Mg5 3.029016 1_655
B0 Mg1 2.468935 1_555
B0 Mg0 2.468935 1_555
B0 Mg3 2.680976 1_555
B0 Mg3 2.680976 1_556
B0 Mg2 2.680976 1_556
B0 Mg2 2.680976 1_555
B0 Ca0 3.253724 1_565
B0 Ca0 3.253724 1_455
