# generated using pymatgen
data_CaAl2(Si2O7)2
_symmetry_space_group_name_H-M   'P 1'
_cell_length_a   10.03255162
_cell_length_b   10.03255162
_cell_length_c   7.58251406
_cell_angle_alpha   74.39628326
_cell_angle_beta   74.39628326
_cell_angle_gamma   83.13670420
_symmetry_Int_Tables_number   1
_chemical_formula_structural   CaAl2(Si2O7)2
_chemical_formula_sum   'Ca2 Al4 Si8 O28'
_cell_volume   707.06247971
_cell_formula_units_Z   2
loop_
 _symmetry_equiv_pos_site_id
 _symmetry_equiv_pos_as_xyz
  1  'x, y, z'
loop_
 _atom_site_type_symbol
 _atom_site_label
 _atom_site_symmetry_multiplicity
 _atom_site_fract_x
 _atom_site_fract_y
 _atom_site_fract_z
 _atom_site_occupancy
  Ca  Ca0  1  0.25934700  0.25934700  0.75290200  1
  Ca  Ca1  1  0.75190700  0.75190700  0.23062300  1
  Al  Al0  1  0.94077400  0.32631000  0.75064900  1
  Al  Al1  1  0.32631000  0.94077400  0.75064900  1
  Al  Al2  1  0.68328000  0.06861600  0.22054700  1
  Al  Al3  1  0.06861600  0.68328000  0.22054700  1
  Si  Si0  1  0.12643100  0.36034600  0.33045900  1
  Si  Si1  1  0.36034600  0.12643100  0.33045900  1
  Si  Si2  1  0.96779700  0.20257800  0.16169900  1
  Si  Si3  1  0.20257800  0.96779700  0.16169900  1
  Si  Si4  1  0.80452200  0.03930300  0.81053900  1
  Si  Si5  1  0.03930300  0.80452200  0.81053900  1
  Si  Si6  1  0.64715500  0.88201400  0.64490600  1
  Si  Si7  1  0.88201400  0.64715500  0.64490600  1
  O  O0  1  0.26778200  0.26778200  0.25895700  1
  O  O1  1  0.09526000  0.33859400  0.56017100  1
  O  O2  1  0.33859400  0.09526000  0.56017100  1
  O  O3  1  0.03135900  0.27243800  0.93491100  1
  O  O4  1  0.27243800  0.03135900  0.93491100  1
  O  O5  1  0.99557300  0.30402300  0.28421700  1
  O  O6  1  0.30402300  0.99557300  0.28421700  1
  O  O7  1  0.85461100  0.48742000  0.74758500  1
  O  O8  1  0.48742000  0.85461100  0.74758500  1
  O  O9  1  0.05367700  0.05367700  0.21790700  1
  O  O10  1  0.83289400  0.20022500  0.76269500  1
  O  O11  1  0.20022500  0.83289400  0.76269500  1
  O  O12  1  0.80599900  0.18061000  0.20542200  1
  O  O13  1  0.18061000  0.80599900  0.20542200  1
  O  O14  1  0.94868900  0.94868900  0.74743500  1
  O  O15  1  0.74039900  0.97670900  0.03909600  1
  O  O16  1  0.97670900  0.74039900  0.03909600  1
  O  O17  1  0.69393200  0.01435100  0.69935700  1
  O  O18  1  0.01435100  0.69393200  0.69935700  1
  O  O19  1  0.52009300  0.14857000  0.21963100  1
  O  O20  1  0.14857000  0.52009300  0.21963100  1
  O  O21  1  0.67580900  0.91666200  0.41356400  1
  O  O22  1  0.91666200  0.67580900  0.41356400  1
  O  O23  1  0.74277900  0.74277900  0.71572100  1
  O  O24  1  0.73723300  0.50673500  0.22095600  1
  O  O25  1  0.50673500  0.73723300  0.22095600  1
  O  O26  1  0.47982400  0.27936800  0.83182300  1
  O  O27  1  0.27936800  0.47982400  0.83182300  1
loop_
_geom_bond_atom_site_label_1
_geom_bond_atom_site_label_2
_geom_bond_distance
_geom_bond_site_symmetry_2
Ca0 O3 2.341189 1_555
Ca0 O4 2.341189 1_555
Ca0 O1 2.415391 1_555
Ca0 O2 2.415391 1_555
Ca0 O26 2.484774 1_555
Ca0 O27 2.484774 1_555
Ca1 O16 2.339847 1_555
Ca1 O15 2.339847 1_555
Ca1 O21 2.366712 1_555
Ca1 O22 2.366712 1_555
Ca1 O25 2.503301 1_555
Ca1 O24 2.503301 1_555
Al0 O10 1.729660 1_555
Al0 O7 1.736957 1_555
Al0 O3 1.797097 1_655
Al0 O1 1.802501 1_655
Al1 O11 1.729660 1_555
Al1 O8 1.736957 1_555
Al1 O4 1.797097 1_565
Al1 O2 1.802501 1_565
Al2 O12 1.725327 1_555
Al2 O19 1.735827 1_555
Al2 O15 1.789860 1_545
Al2 O21 1.799909 1_545
Al3 O13 1.725327 1_555
Al3 O20 1.735827 1_555
Al3 O16 1.789860 1_455
Al3 O22 1.799909 1_455
O0 Si1 1.646169 1_555
O0 Si0 1.646169 1_555
O1 Si0 1.642578 1_555
O2 Si1 1.642578 1_555
O3 Si2 1.650302 1_456
O4 Si3 1.650302 1_546
O5 Si2 1.640790 1_555
O5 Si0 1.642349 1_655
O6 Si3 1.640790 1_555
O6 Si1 1.642349 1_565
O7 Si7 1.602763 1_555
O8 Si6 1.602763 1_555
O9 Si2 1.644085 1_455
O9 Si3 1.644085 1_545
O10 Si4 1.599470 1_555
O11 Si5 1.599470 1_555
O12 Si2 1.596905 1_555
O13 Si3 1.596905 1_555
O14 Si5 1.641586 1_655
O14 Si4 1.641586 1_565
O15 Si4 1.650133 1_564
O16 Si5 1.650133 1_654
O17 Si4 1.639351 1_555
O17 Si6 1.643616 1_545
O18 Si5 1.639351 1_555
O18 Si7 1.643616 1_455
O19 Si1 1.607548 1_555
O20 Si0 1.607548 1_555
O21 Si6 1.644720 1_555
O22 Si7 1.644720 1_555
O23 Si6 1.647206 1_555
O23 Si7 1.647206 1_555
