# generated using pymatgen
data_CrCoBr3
_symmetry_space_group_name_H-M   'P 1'
_cell_length_a   7.08197949
_cell_length_b   7.08197949
_cell_length_c   5.94313800
_cell_angle_alpha   90.00000000
_cell_angle_beta   90.00000000
_cell_angle_gamma   119.99999523
_symmetry_Int_Tables_number   1
_chemical_formula_structural   CrCoBr3
_chemical_formula_sum   'Cr2 Co2 Br6'
_cell_volume   258.14029177
_cell_formula_units_Z   2
loop_
 _symmetry_equiv_pos_site_id
 _symmetry_equiv_pos_as_xyz
  1  'x, y, z'
loop_
 _atom_site_type_symbol
 _atom_site_label
 _atom_site_symmetry_multiplicity
 _atom_site_fract_x
 _atom_site_fract_y
 _atom_site_fract_z
 _atom_site_occupancy
  Cr  Cr0  1  0.33333300  0.66666700  0.75000000  1
  Cr  Cr1  1  0.66666700  0.33333300  0.25000000  1
  Co  Co0  1  0.00000000  0.00000000  0.00000000  1
  Co  Co1  1  0.00000000  0.00000000  0.50000000  1
  Br  Br0  1  0.16877500  0.33755000  0.25000000  1
  Br  Br1  1  0.83122500  0.66245000  0.75000000  1
  Br  Br2  1  0.66245000  0.83122500  0.25000000  1
  Br  Br3  1  0.33755000  0.16877500  0.75000000  1
  Br  Br4  1  0.16877500  0.83122500  0.25000000  1
  Br  Br5  1  0.83122500  0.16877500  0.75000000  1
loop_
_geom_bond_atom_site_label_1
_geom_bond_atom_site_label_2
_geom_bond_distance
_geom_bond_site_symmetry_2
Br0 Co1 2.548235 1_555
Br0 Co0 2.548235 1_555
Br1 Co1 2.548235 1_665
Br1 Co0 2.548235 1_666
Br2 Co0 2.548235 1_665
Br2 Co1 2.548235 1_665
Br3 Co1 2.548235 1_555
Br3 Co0 2.548235 1_556
Br4 Co0 2.548235 1_565
Br4 Co1 2.548235 1_565
Br5 Co1 2.548235 1_655
Br5 Co0 2.548235 1_656
