# generated using pymatgen
data_Cs2Li(IO3)2
_symmetry_space_group_name_H-M   'P 1'
_cell_length_a   4.95498121
_cell_length_b   7.16912947
_cell_length_c   6.55840000
_cell_angle_alpha   90.00000000
_cell_angle_beta   90.00000000
_cell_angle_gamma   84.26196644
_symmetry_Int_Tables_number   1
_chemical_formula_structural   Cs2Li(IO3)2
_chemical_formula_sum   'Cs2 Li1 I2 O6'
_cell_volume   231.80606776
_cell_formula_units_Z   1
loop_
 _symmetry_equiv_pos_site_id
 _symmetry_equiv_pos_as_xyz
  1  'x, y, z'
loop_
 _atom_site_type_symbol
 _atom_site_label
 _atom_site_symmetry_multiplicity
 _atom_site_fract_x
 _atom_site_fract_y
 _atom_site_fract_z
 _atom_site_occupancy
  Cs  Cs0  1  0.52279000  0.57550200  0.00000000  1
  Cs  Cs1  1  0.47284300  0.98457600  0.50000000  1
  Li  Li0  1  0.28387700  0.21733800  0.00000000  1
  I  I0  1  0.93793100  0.99002600  0.00000000  1
  I  I1  1  0.96458100  0.49000900  0.50000000  1
  O  O0  1  0.59589300  0.48211300  0.50000000  1
  O  O1  1  0.00223500  0.65108000  0.28470200  1
  O  O2  1  0.00223500  0.65108000  0.71529800  1
  O  O3  1  0.98450200  0.17018400  0.79293600  1
  O  O4  1  0.51250000  0.99390700  0.00000000  1
  O  O5  1  0.98450200  0.17018400  0.20706400  1
loop_
_geom_bond_atom_site_label_1
_geom_bond_atom_site_label_2
_geom_bond_distance
_geom_bond_site_symmetry_2
Cs0 Li0 2.932990 1_555
Cs0 O4 2.994932 1_555
Cs0 O1 3.111436 1_655
Cs0 O2 3.111436 1_654
Cs0 O1 3.186458 1_555
Cs0 O2 3.186458 1_554
Cs0 O0 3.359184 1_555
Cs0 O0 3.359184 1_554
Cs1 O5 3.266928 1_465
Cs1 O3 3.266928 1_465
Cs1 O4 3.286163 1_556
Cs1 O4 3.286163 1_555
Cs1 O5 3.544534 1_565
Cs1 O3 3.544534 1_565
Cs1 O0 3.592851 1_555
Cs1 O2 3.651957 1_655
Cs1 O1 3.651957 1_655
Cs1 O0 3.678239 1_565
Cs1 O2 3.776562 1_555
Cs1 O1 3.776562 1_555
Li0 O4 1.867144 1_545
Li0 O5 2.063785 1_455
Li0 O3 2.063785 1_454
I0 O5 1.903996 1_565
I0 O3 1.903996 1_564
I0 O4 2.105403 1_555
I1 O0 1.833367 1_555
I1 O2 1.845287 1_655
I1 O1 1.845287 1_655
