# generated using pymatgen
data_Gd3Sc2Al3O12
_symmetry_space_group_name_H-M   'P 1'
_cell_length_a   10.84782728
_cell_length_b   10.84782728
_cell_length_c   10.84782728
_cell_angle_alpha   109.47122063
_cell_angle_beta   109.47122063
_cell_angle_gamma   109.47122063
_symmetry_Int_Tables_number   1
_chemical_formula_structural   Gd3Sc2Al3O12
_chemical_formula_sum   'Gd12 Sc8 Al12 O48'
_cell_volume   982.66705098
_cell_formula_units_Z   4
loop_
 _symmetry_equiv_pos_site_id
 _symmetry_equiv_pos_as_xyz
  1  'x, y, z'
loop_
 _atom_site_type_symbol
 _atom_site_label
 _atom_site_symmetry_multiplicity
 _atom_site_fract_x
 _atom_site_fract_y
 _atom_site_fract_z
 _atom_site_occupancy
  Gd  Gd0  1  0.25000000  0.37500000  0.12500000  1
  Gd  Gd1  1  0.75000000  0.62500000  0.87500000  1
  Gd  Gd2  1  0.75000000  0.12500000  0.37500000  1
  Gd  Gd3  1  0.12500000  0.25000000  0.37500000  1
  Gd  Gd4  1  0.37500000  0.75000000  0.12500000  1
  Gd  Gd5  1  0.25000000  0.87500000  0.62500000  1
  Gd  Gd6  1  0.87500000  0.75000000  0.62500000  1
  Gd  Gd7  1  0.62500000  0.25000000  0.87500000  1
  Gd  Gd8  1  0.37500000  0.12500000  0.25000000  1
  Gd  Gd9  1  0.62500000  0.87500000  0.75000000  1
  Gd  Gd10  1  0.12500000  0.37500000  0.75000000  1
  Gd  Gd11  1  0.87500000  0.62500000  0.25000000  1
  Sc  Sc0  1  0.00000000  0.00000000  0.00000000  1
  Sc  Sc1  1  0.50000000  0.00000000  0.50000000  1
  Sc  Sc2  1  0.00000000  0.50000000  0.50000000  1
  Sc  Sc3  1  0.50000000  0.00000000  0.00000000  1
  Sc  Sc4  1  0.50000000  0.50000000  0.00000000  1
  Sc  Sc5  1  0.50000000  0.50000000  0.50000000  1
  Sc  Sc6  1  0.00000000  0.00000000  0.50000000  1
  Sc  Sc7  1  0.00000000  0.50000000  0.00000000  1
  Al  Al0  1  0.25000000  0.62500000  0.37500000  1
  Al  Al1  1  0.75000000  0.37500000  0.62500000  1
  Al  Al2  1  0.75000000  0.87500000  0.12500000  1
  Al  Al3  1  0.37500000  0.25000000  0.62500000  1
  Al  Al4  1  0.62500000  0.75000000  0.37500000  1
  Al  Al5  1  0.25000000  0.12500000  0.87500000  1
  Al  Al6  1  0.12500000  0.75000000  0.87500000  1
  Al  Al7  1  0.87500000  0.25000000  0.12500000  1
  Al  Al8  1  0.62500000  0.37500000  0.25000000  1
  Al  Al9  1  0.37500000  0.62500000  0.75000000  1
  Al  Al10  1  0.87500000  0.12500000  0.75000000  1
  Al  Al11  1  0.12500000  0.87500000  0.25000000  1
  O  O0  1  0.47669400  0.37582300  0.28818600  1
  O  O1  1  0.52330600  0.62417700  0.71181400  1
  O  O2  1  0.58763700  0.18850900  0.21181400  1
  O  O3  1  0.91236300  0.12417700  0.60087100  1
  O  O4  1  0.28818600  0.47669400  0.37582300  1
  O  O5  1  0.31149100  0.91236300  0.28818600  1
  O  O6  1  0.41236300  0.81149100  0.78818600  1
  O  O7  1  0.08763700  0.87582300  0.39912900  1
  O  O8  1  0.71181400  0.52330600  0.62417700  1
  O  O9  1  0.68850900  0.08763700  0.71181400  1
  O  O10  1  0.02330600  0.31149100  0.89912900  1
  O  O11  1  0.21181400  0.58763700  0.18850900  1
  O  O12  1  0.12417700  0.02330600  0.21181400  1
  O  O13  1  0.97669400  0.68850900  0.10087100  1
  O  O14  1  0.78818600  0.41236300  0.81149100  1
  O  O15  1  0.87582300  0.97669400  0.78818600  1
  O  O16  1  0.60087100  0.91236300  0.12417700  1
  O  O17  1  0.18850900  0.47669400  0.60087100  1
  O  O18  1  0.39912900  0.08763700  0.87582300  1
  O  O19  1  0.81149100  0.52330600  0.39912900  1
  O  O20  1  0.89912900  0.02330600  0.31149100  1
  O  O21  1  0.37582300  0.58763700  0.89912900  1
  O  O22  1  0.10087100  0.97669400  0.68850900  1
  O  O23  1  0.62417700  0.41236300  0.10087100  1
  O  O24  1  0.37582300  0.28818600  0.47669400  1
  O  O25  1  0.58763700  0.89912900  0.37582300  1
  O  O26  1  0.62417700  0.71181400  0.52330600  1
  O  O27  1  0.41236300  0.10087100  0.62417700  1
  O  O28  1  0.12417700  0.60087100  0.91236300  1
  O  O29  1  0.02330600  0.21181400  0.12417700  1
  O  O30  1  0.87582300  0.39912900  0.08763700  1
  O  O31  1  0.97669400  0.78818600  0.87582300  1
  O  O32  1  0.31149100  0.89912900  0.02330600  1
  O  O33  1  0.91236300  0.28818600  0.31149100  1
  O  O34  1  0.68850900  0.10087100  0.97669400  1
  O  O35  1  0.08763700  0.71181400  0.68850900  1
  O  O36  1  0.18850900  0.21181400  0.58763700  1
  O  O37  1  0.47669400  0.60087100  0.18850900  1
  O  O38  1  0.81149100  0.78818600  0.41236300  1
  O  O39  1  0.52330600  0.39912900  0.81149100  1
  O  O40  1  0.28818600  0.31149100  0.91236300  1
  O  O41  1  0.71181400  0.68850900  0.08763700  1
  O  O42  1  0.21181400  0.12417700  0.02330600  1
  O  O43  1  0.78818600  0.87582300  0.97669400  1
  O  O44  1  0.89912900  0.37582300  0.58763700  1
  O  O45  1  0.10087100  0.62417700  0.41236300  1
  O  O46  1  0.60087100  0.18850900  0.47669400  1
  O  O47  1  0.39912900  0.81149100  0.52330600  1
loop_
_geom_bond_atom_site_label_1
_geom_bond_atom_site_label_2
_geom_bond_distance
_geom_bond_site_symmetry_2
Gd0 O4 2.394720 1_555
Gd0 O42 2.394720 1_555
Gd0 O11 2.394720 1_555
Gd0 O40 2.394720 1_554
Gd0 O10 2.500753 1_554
Gd0 O37 2.500753 1_555
Gd0 O0 2.500757 1_555
Gd0 O29 2.500757 1_555
Gd1 O8 2.394720 1_555
Gd1 O43 2.394720 1_555
Gd1 O14 2.394720 1_555
Gd1 O41 2.394720 1_556
Gd1 O13 2.500753 1_556
Gd1 O39 2.500753 1_555
Gd1 O31 2.500757 1_555
Gd1 O1 2.500757 1_555
Gd2 O44 2.394720 1_555
Gd2 O16 2.394720 1_545
Gd2 O20 2.394724 1_555
Gd2 O46 2.394724 1_555
Gd2 O3 2.500757 1_555
Gd2 O25 2.500757 1_545
Gd2 O2 2.500766 1_555
Gd2 O33 2.500766 1_555
Gd3 O24 2.394720 1_555
Gd3 O29 2.394720 1_555
Gd3 O36 2.394720 1_555
Gd3 O33 2.394720 1_455
Gd3 O17 2.500753 1_555
Gd3 O20 2.500753 1_455
Gd3 O12 2.500757 1_555
Gd3 O4 2.500757 1_555
Gd4 O28 2.394720 1_554
Gd4 O25 2.394720 1_555
Gd4 O37 2.394724 1_555
Gd4 O32 2.394724 1_555
Gd4 O16 2.500757 1_555
Gd4 O21 2.500757 1_554
Gd4 O11 2.500766 1_555
Gd4 O5 2.500766 1_555
Gd5 O18 2.394720 1_565
Gd5 O45 2.394720 1_555
Gd5 O22 2.394724 1_555
Gd5 O47 2.394724 1_555
Gd5 O27 2.500757 1_565
Gd5 O7 2.500757 1_555
Gd5 O6 2.500766 1_555
Gd5 O35 2.500766 1_555
Gd6 O26 2.394720 1_555
Gd6 O31 2.394720 1_555
Gd6 O35 2.394720 1_655
Gd6 O38 2.394720 1_555
Gd6 O19 2.500753 1_555
Gd6 O22 2.500753 1_655
Gd6 O15 2.500757 1_555
Gd6 O8 2.500757 1_555
Gd7 O30 2.394720 1_556
Gd7 O27 2.394720 1_555
Gd7 O39 2.394724 1_555
Gd7 O34 2.394724 1_555
Gd7 O18 2.500757 1_555
Gd7 O23 2.500757 1_556
Gd7 O9 2.500766 1_555
Gd7 O14 2.500766 1_555
Gd8 O12 2.394720 1_555
Gd8 O0 2.394720 1_555
Gd8 O5 2.394720 1_545
Gd8 O2 2.394720 1_555
Gd8 O46 2.500753 1_555
Gd8 O32 2.500753 1_545
Gd8 O24 2.500757 1_555
Gd8 O42 2.500757 1_555
Gd9 O15 2.394720 1_555
Gd9 O1 2.394720 1_555
Gd9 O9 2.394720 1_565
Gd9 O6 2.394720 1_555
Gd9 O34 2.500753 1_565
Gd9 O47 2.500753 1_555
Gd9 O26 2.500757 1_555
Gd9 O43 2.500757 1_555
Gd10 O21 2.394720 1_555
Gd10 O3 2.394720 1_455
Gd10 O10 2.394724 1_555
Gd10 O17 2.394724 1_555
Gd10 O28 2.500757 1_555
Gd10 O44 2.500757 1_455
Gd10 O40 2.500766 1_555
Gd10 O36 2.500766 1_555
Gd11 O7 2.394720 1_655
Gd11 O23 2.394720 1_555
Gd11 O13 2.394724 1_555
Gd11 O19 2.394724 1_555
Gd11 O30 2.500757 1_555
Gd11 O45 2.500757 1_655
Gd11 O41 2.500766 1_555
Gd11 O38 2.500766 1_555
Al0 O11 1.791997 1_555
Al0 O47 1.792002 1_555
Al0 O45 1.792008 1_555
Al0 O4 1.792008 1_555
Al1 O14 1.791997 1_555
Al1 O46 1.792002 1_555
Al1 O44 1.792008 1_555
Al1 O8 1.792008 1_555
Al2 O41 1.791997 1_555
Al2 O20 1.792002 1_565
Al2 O16 1.792008 1_555
Al2 O43 1.792008 1_554
Al3 O36 1.791997 1_555
Al3 O39 1.792002 1_555
Al3 O27 1.792008 1_555
Al3 O24 1.792008 1_555
Al4 O38 1.791997 1_555
Al4 O37 1.792002 1_555
Al4 O25 1.792008 1_555
Al4 O26 1.792008 1_555
Al5 O40 1.791997 1_555
Al5 O22 1.792002 1_545
Al5 O18 1.792008 1_555
Al5 O42 1.792008 1_556
Al6 O35 1.791997 1_555
Al6 O32 1.792002 1_556
Al6 O28 1.792008 1_555
Al6 O31 1.792008 1_455
Al7 O33 1.791997 1_555
Al7 O34 1.792002 1_554
Al7 O30 1.792008 1_555
Al7 O29 1.792008 1_655
Al8 O2 1.791997 1_555
Al8 O19 1.792002 1_555
Al8 O0 1.792008 1_555
Al8 O23 1.792008 1_555
Al9 O6 1.791997 1_555
Al9 O17 1.792002 1_555
Al9 O21 1.792008 1_555
Al9 O1 1.792008 1_555
Al10 O9 1.791997 1_555
Al10 O10 1.792002 1_655
Al10 O3 1.792008 1_555
Al10 O15 1.792008 1_545
Al11 O5 1.791997 1_555
Al11 O13 1.792002 1_455
Al11 O7 1.792008 1_555
Al11 O12 1.792008 1_565
O0 Sc5 2.116659 1_555
O1 Sc5 2.116659 1_555
O2 Sc3 2.116664 1_555
O3 Sc6 2.116659 1_655
O4 Sc5 2.116659 1_555
O5 Sc1 2.116664 1_565
O6 Sc3 2.116664 1_566
O7 Sc6 2.116659 1_565
O8 Sc5 2.116659 1_555
O9 Sc1 2.116664 1_555
O10 Sc7 2.116668 1_556
O11 Sc7 2.116664 1_555
O12 Sc0 2.116659 1_555
O13 Sc7 2.116668 1_655
O14 Sc7 2.116664 1_656
O15 Sc0 2.116659 1_666
O16 Sc3 2.116659 1_565
O17 Sc2 2.116668 1_555
O18 Sc3 2.116659 1_556
O19 Sc2 2.116668 1_655
O20 Sc6 2.116668 1_655
O21 Sc4 2.116659 1_556
O22 Sc6 2.116668 1_565
O23 Sc4 2.116659 1_555
O24 Sc5 2.116659 1_555
O25 Sc1 2.116659 1_565
O26 Sc5 2.116659 1_555
O27 Sc1 2.116659 1_555
O28 Sc7 2.116659 1_556
O29 Sc0 2.116659 1_555
O30 Sc7 2.116659 1_655
O31 Sc0 2.116659 1_666
O32 Sc3 2.116668 1_565
O33 Sc2 2.116664 1_655
O34 Sc3 2.116668 1_556
O35 Sc2 2.116664 1_555
O36 Sc6 2.116664 1_555
O37 Sc4 2.116668 1_555
O38 Sc6 2.116664 1_665
O39 Sc4 2.116668 1_556
O40 Sc4 2.116664 1_556
O41 Sc4 2.116664 1_555
O42 Sc0 2.116659 1_555
O43 Sc0 2.116659 1_666
O44 Sc2 2.116659 1_655
O45 Sc2 2.116659 1_555
O46 Sc1 2.116668 1_555
O47 Sc1 2.116668 1_565
