# generated using pymatgen
data_CaCoSi
_symmetry_space_group_name_H-M   'P 1'
_cell_length_a   3.87901110
_cell_length_b   3.87901110
_cell_length_c   7.58324720
_cell_angle_alpha   90.00000000
_cell_angle_beta   90.00000000
_cell_angle_gamma   90.00000000
_symmetry_Int_Tables_number   1
_chemical_formula_structural   CaCoSi
_chemical_formula_sum   'Ca2 Co2 Si2'
_cell_volume   114.10305126
_cell_formula_units_Z   2
loop_
 _symmetry_equiv_pos_site_id
 _symmetry_equiv_pos_as_xyz
  1  'x, y, z'
loop_
 _atom_site_type_symbol
 _atom_site_label
 _atom_site_symmetry_multiplicity
 _atom_site_fract_x
 _atom_site_fract_y
 _atom_site_fract_z
 _atom_site_occupancy
  Ca  Ca0  1  0.75000000  0.75000000  0.31375671  1
  Ca  Ca1  1  0.25000000  0.25000000  0.68624329  1
  Co  Co0  1  0.75000000  0.25000000  0.00000000  1
  Co  Co1  1  0.25000000  0.75000000  0.00000000  1
  Si  Si0  1  0.75000000  0.75000000  0.84660506  1
  Si  Si1  1  0.25000000  0.25000000  0.15339494  1
loop_
_geom_bond_atom_site_label_1
_geom_bond_atom_site_label_2
_geom_bond_distance
_geom_bond_site_symmetry_2
Ca0 Si1 3.000362 1_665
Ca0 Si1 3.000362 1_555
Ca0 Si1 3.000362 1_655
Ca0 Si1 3.000362 1_565
Ca0 Co1 3.069646 1_555
Ca0 Co1 3.069646 1_655
Ca0 Co0 3.069646 1_555
Ca0 Co0 3.069646 1_565
Ca1 Si0 3.000362 1_445
Ca1 Si0 3.000362 1_455
Ca1 Si0 3.000362 1_545
Ca1 Si0 3.000362 1_555
Ca1 Co0 3.069646 1_556
Ca1 Co1 3.069646 1_556
Ca1 Co1 3.069646 1_546
Ca1 Co0 3.069646 1_456
Co0 Si0 2.261590 1_554
Co0 Si0 2.261590 1_544
Co0 Si1 2.261590 1_555
Co0 Si1 2.261590 1_655
Co1 Si0 2.261590 1_554
Co1 Si0 2.261590 1_454
Co1 Si1 2.261590 1_565
Co1 Si1 2.261590 1_555
