# generated using pymatgen
data_CsEr2Cl7
_symmetry_space_group_name_H-M   'P 1'
_cell_length_a   6.93176966
_cell_length_b   12.54665810
_cell_length_c   13.55419827
_cell_angle_alpha   90.00000000
_cell_angle_beta   90.00000000
_cell_angle_gamma   90.00000000
_symmetry_Int_Tables_number   1
_chemical_formula_structural   CsEr2Cl7
_chemical_formula_sum   'Cs4 Er8 Cl28'
_cell_volume   1178.81599637
_cell_formula_units_Z   4
loop_
 _symmetry_equiv_pos_site_id
 _symmetry_equiv_pos_as_xyz
  1  'x, y, z'
loop_
 _atom_site_type_symbol
 _atom_site_label
 _atom_site_symmetry_multiplicity
 _atom_site_fract_x
 _atom_site_fract_y
 _atom_site_fract_z
 _atom_site_occupancy
  Cs  Cs0  1  0.25000000  0.79931800  0.03885872  1
  Cs  Cs1  1  0.75000000  0.20068200  0.96114128  1
  Cs  Cs2  1  0.75000000  0.29931800  0.46114128  1
  Cs  Cs3  1  0.25000000  0.70068200  0.53885872  1
  Er  Er0  1  0.25000000  0.45531184  0.24162356  1
  Er  Er1  1  0.75000000  0.54468816  0.75837644  1
  Er  Er2  1  0.75000000  0.95531184  0.25837644  1
  Er  Er3  1  0.25000000  0.04468816  0.74162356  1
  Er  Er4  1  0.25000000  0.15199045  0.24941799  1
  Er  Er5  1  0.75000000  0.84800955  0.75058201  1
  Er  Er6  1  0.75000000  0.65199045  0.25058201  1
  Er  Er7  1  0.25000000  0.34800955  0.74941799  1
  Cl  Cl0  1  0.00934042  0.30263798  0.18099227  1
  Cl  Cl1  1  0.99065958  0.69736202  0.81900773  1
  Cl  Cl2  1  0.99065958  0.80263798  0.31900773  1
  Cl  Cl3  1  0.50934042  0.69736202  0.81900773  1
  Cl  Cl4  1  0.00934042  0.19736202  0.68099227  1
  Cl  Cl5  1  0.49065958  0.30263798  0.18099227  1
  Cl  Cl6  1  0.49065958  0.19736202  0.68099227  1
  Cl  Cl7  1  0.50934042  0.80263798  0.31900773  1
  Cl  Cl8  1  0.00861778  0.56949190  0.12752554  1
  Cl  Cl9  1  0.99138222  0.43050810  0.87247446  1
  Cl  Cl10  1  0.99138222  0.06949190  0.37247446  1
  Cl  Cl11  1  0.50861778  0.43050810  0.87247446  1
  Cl  Cl12  1  0.00861778  0.93050810  0.62752554  1
  Cl  Cl13  1  0.49138222  0.56949190  0.12752554  1
  Cl  Cl14  1  0.49138222  0.93050810  0.62752554  1
  Cl  Cl15  1  0.50861778  0.06949190  0.37247446  1
  Cl  Cl16  1  0.00984521  0.03681705  0.13353502  1
  Cl  Cl17  1  0.99015479  0.96318295  0.86646498  1
  Cl  Cl18  1  0.99015479  0.53681705  0.36646498  1
  Cl  Cl19  1  0.50984521  0.96318295  0.86646498  1
  Cl  Cl20  1  0.00984521  0.46318295  0.63353502  1
  Cl  Cl21  1  0.49015479  0.03681705  0.13353502  1
  Cl  Cl22  1  0.49015479  0.46318295  0.63353502  1
  Cl  Cl23  1  0.50984521  0.53681705  0.36646498  1
  Cl  Cl24  1  0.25000000  0.30548433  0.38997198  1
  Cl  Cl25  1  0.75000000  0.69451567  0.61002802  1
  Cl  Cl26  1  0.75000000  0.80548433  0.11002802  1
  Cl  Cl27  1  0.25000000  0.19451567  0.88997198  1
loop_
_geom_bond_atom_site_label_1
_geom_bond_atom_site_label_2
_geom_bond_distance
_geom_bond_site_symmetry_2
Cl0 Er0 2.669751 1_555
Cl0 Er4 2.686191 1_555
Cl0 Cs1 3.707813 1_454
Cl1 Er1 2.669751 1_555
Cl1 Er5 2.686191 1_555
Cl1 Cs0 3.707813 1_656
Cl2 Er2 2.669751 1_555
Cl2 Er6 2.686191 1_555
Cl2 Cs3 3.707813 1_655
Cl3 Er1 2.669751 1_555
Cl3 Er5 2.686191 1_555
Cl3 Cs0 3.707813 1_556
Cl4 Er3 2.669751 1_555
Cl4 Er7 2.686191 1_555
Cl4 Cs2 3.707813 1_455
Cl5 Er0 2.669751 1_555
Cl5 Er4 2.686191 1_555
Cl5 Cs1 3.707813 1_554
Cl6 Er3 2.669751 1_555
Cl6 Er7 2.686191 1_555
Cl6 Cs2 3.707813 1_555
Cl7 Er2 2.669751 1_555
Cl7 Er6 2.686191 1_555
Cl7 Cs3 3.707813 1_555
Cl8 Er6 2.658399 1_455
Cl8 Er0 2.691391 1_555
Cl8 Cs0 3.543842 1_555
Cl9 Er7 2.658399 1_655
Cl9 Er1 2.691391 1_555
Cl9 Cs1 3.543842 1_555
Cl10 Er4 2.658399 1_655
Cl10 Er2 2.691391 1_545
Cl10 Cs2 3.543842 1_555
Cl11 Er7 2.658399 1_555
Cl11 Er1 2.691391 1_555
Cl11 Cs1 3.543842 1_555
Cl12 Er5 2.658399 1_455
Cl12 Er3 2.691391 1_565
Cl12 Cs3 3.543842 1_555
Cl13 Er6 2.658399 1_555
Cl13 Er0 2.691391 1_555
Cl13 Cs0 3.543842 1_555
Cl14 Er5 2.658399 1_555
Cl14 Er3 2.691391 1_565
Cl14 Cs3 3.543842 1_555
Cl15 Er4 2.658399 1_555
Cl15 Er2 2.691391 1_545
Cl15 Cs2 3.543842 1_555
Cl16 Er2 2.674567 1_445
Cl16 Er4 2.706744 1_555
Cl16 Cs1 3.595999 1_454
Cl16 Cs0 3.646547 1_545
Cl17 Er3 2.674567 1_665
Cl17 Er5 2.706744 1_555
Cl17 Cs0 3.595999 1_656
Cl17 Cs1 3.646547 1_565
Cl18 Er0 2.674567 1_655
Cl18 Er6 2.706744 1_555
Cl18 Cs3 3.595999 1_655
Cl18 Cs2 3.646547 1_555
Cl19 Er3 2.674567 1_565
Cl19 Er5 2.706744 1_555
Cl19 Cs0 3.595999 1_556
Cl19 Cs1 3.646547 1_565
Cl20 Er1 2.674567 1_455
Cl20 Er7 2.706744 1_555
Cl20 Cs2 3.595999 1_455
Cl20 Cs3 3.646547 1_555
Cl21 Er2 2.674567 1_545
Cl21 Er4 2.706744 1_555
Cl21 Cs1 3.595999 1_554
Cl21 Cs0 3.646547 1_545
Cl22 Er1 2.674567 1_555
Cl22 Er7 2.706744 1_555
Cl22 Cs2 3.595999 1_555
Cl22 Cs3 3.646547 1_555
Cl23 Er0 2.674567 1_555
Cl23 Er6 2.706744 1_555
Cl23 Cs3 3.595999 1_555
Cl23 Cs2 3.646547 1_555
Cl24 Er4 2.708918 1_555
Cl24 Er0 2.752611 1_555
Cl24 Cs2 3.598455 1_555
Cl24 Cs2 3.598455 1_455
Cl25 Er5 2.708918 1_555
Cl25 Er1 2.752611 1_555
Cl25 Cs3 3.598455 1_655
Cl25 Cs3 3.598455 1_555
Cl26 Er6 2.708918 1_555
Cl26 Er2 2.752611 1_555
Cl26 Cs0 3.598455 1_555
Cl26 Cs0 3.598455 1_655
Cl27 Er7 2.708918 1_555
Cl27 Er3 2.752611 1_555
Cl27 Cs1 3.598455 1_455
Cl27 Cs1 3.598455 1_555
