# generated using pymatgen
data_Li3ZrN2
_symmetry_space_group_name_H-M   'P 1'
_cell_length_a   6.11041769
_cell_length_b   10.88545400
_cell_length_c   6.12140567
_cell_angle_alpha   90.00000000
_cell_angle_beta   118.60983798
_cell_angle_gamma   90.00000000
_symmetry_Int_Tables_number   1
_chemical_formula_structural   Li3ZrN2
_chemical_formula_sum   'Li12 Zr4 N8'
_cell_volume   357.44895856
_cell_formula_units_Z   4
loop_
 _symmetry_equiv_pos_site_id
 _symmetry_equiv_pos_as_xyz
  1  'x, y, z'
loop_
 _atom_site_type_symbol
 _atom_site_label
 _atom_site_symmetry_multiplicity
 _atom_site_fract_x
 _atom_site_fract_y
 _atom_site_fract_z
 _atom_site_occupancy
  Li  Li0  1  0.22920600  0.06363800  0.04623400  1
  Li  Li1  1  0.77079400  0.56363800  0.45376600  1
  Li  Li2  1  0.77079400  0.93636200  0.95376600  1
  Li  Li3  1  0.22920600  0.43636200  0.54623400  1
  Li  Li4  1  0.31959500  0.52471000  0.04265000  1
  Li  Li5  1  0.68040500  0.02471000  0.45735000  1
  Li  Li6  1  0.68040500  0.47529000  0.95735000  1
  Li  Li7  1  0.31959500  0.97529000  0.54265000  1
  Li  Li8  1  0.02799800  0.29908400  0.76607400  1
  Li  Li9  1  0.97200200  0.79908400  0.73392600  1
  Li  Li10  1  0.97200200  0.70091600  0.23392600  1
  Li  Li11  1  0.02799800  0.20091600  0.26607400  1
  Zr  Zr0  1  0.51565600  0.20376900  0.76597400  1
  Zr  Zr1  1  0.48434400  0.70376900  0.73402600  1
  Zr  Zr2  1  0.48434400  0.79623100  0.23402600  1
  Zr  Zr3  1  0.51565600  0.29623100  0.26597400  1
  N  N0  1  0.61206800  0.85363900  0.60429000  1
  N  N1  1  0.38793200  0.35363900  0.89571000  1
  N  N2  1  0.38793200  0.14636100  0.39571000  1
  N  N3  1  0.61206800  0.64636100  0.10429000  1
  N  N4  1  0.48875800  0.55301300  0.54829100  1
  N  N5  1  0.51124200  0.05301300  0.95170900  1
  N  N6  1  0.51124200  0.44698700  0.45170900  1
  N  N7  1  0.48875800  0.94698700  0.04829100  1
loop_
_geom_bond_atom_site_label_1
_geom_bond_atom_site_label_2
_geom_bond_distance
_geom_bond_site_symmetry_2
Li0 N7 2.027000 1_545
Li0 N5 2.067155 1_554
Li0 N2 2.083510 1_555
Li1 N6 2.027000 1_555
Li1 N4 2.067155 1_555
Li1 N3 2.083510 1_555
Li2 N5 2.027000 1_565
Li2 N7 2.067155 1_556
Li2 N0 2.083510 1_555
Li3 N4 2.027000 1_555
Li3 N6 2.067155 1_555
Li3 N1 2.083510 1_555
Li4 N3 2.108079 1_555
Li4 N1 2.193367 1_554
Li4 N6 2.355633 1_555
Li5 N2 2.108079 1_555
Li5 N0 2.193367 1_545
Li5 N7 2.355633 1_545
Li6 N1 2.108079 1_555
Li6 N3 2.193367 1_556
Li6 N4 2.355633 1_555
Li7 N0 2.108079 1_555
Li7 N2 2.193367 1_565
Li7 N5 2.355633 1_565
Li8 N1 2.036681 1_555
Li9 N0 2.036681 1_555
Li10 N3 2.036681 1_555
Li11 N2 2.036681 1_555
N0 Zr2 2.107780 1_555
N0 Zr1 2.120107 1_555
N1 Zr3 2.107780 1_556
N1 Zr0 2.120107 1_555
N2 Zr0 2.107780 1_555
N2 Zr3 2.120107 1_555
N3 Zr1 2.107780 1_554
N3 Zr2 2.120107 1_555
N4 N6 1.333508 1_555
N4 Zr1 2.003948 1_555
N5 N7 1.333508 1_546
N5 Zr0 2.003948 1_555
N6 Zr3 2.003948 1_555
N7 Zr2 2.003948 1_555
