# generated using pymatgen
data_Ca2Ti3O8
_symmetry_space_group_name_H-M   'P 1'
_cell_length_a   6.35159126
_cell_length_b   6.35159126
_cell_length_c   5.06175049
_cell_angle_alpha   72.10147146
_cell_angle_beta   72.10147146
_cell_angle_gamma   57.19007045
_symmetry_Int_Tables_number   1
_chemical_formula_structural   Ca2Ti3O8
_chemical_formula_sum   'Ca2 Ti3 O8'
_cell_volume   160.77123141
_cell_formula_units_Z   1
loop_
 _symmetry_equiv_pos_site_id
 _symmetry_equiv_pos_as_xyz
  1  'x, y, z'
loop_
 _atom_site_type_symbol
 _atom_site_label
 _atom_site_symmetry_multiplicity
 _atom_site_fract_x
 _atom_site_fract_y
 _atom_site_fract_z
 _atom_site_occupancy
  Ca  Ca0  1  0.72547274  0.72547274  0.33788853  1
  Ca  Ca1  1  0.27452726  0.27452726  0.66211147  1
  Ti  Ti0  1  0.00000000  0.00000000  0.50000000  1
  Ti  Ti1  1  0.73425315  0.26574685  0.00000000  1
  Ti  Ti2  1  0.26574685  0.73425315  0.00000000  1
  O  O0  1  0.39617663  0.39617663  0.95228799  1
  O  O1  1  0.60382337  0.60382337  0.04771201  1
  O  O2  1  0.90062910  0.90062910  0.90539890  1
  O  O3  1  0.09937090  0.09937090  0.09460110  1
  O  O4  1  0.32389056  0.88358411  0.60673539  1
  O  O5  1  0.88358411  0.32389056  0.60673539  1
  O  O6  1  0.11641589  0.67610944  0.39326461  1
  O  O7  1  0.67610944  0.11641589  0.39326461  1
loop_
_geom_bond_atom_site_label_1
_geom_bond_atom_site_label_2
_geom_bond_distance
_geom_bond_site_symmetry_2
Ca0 O5 2.301503 1_555
Ca0 O4 2.301503 1_555
Ca0 O1 2.322402 1_555
Ca0 O2 2.369622 1_554
Ca0 O6 2.423385 1_655
Ca0 O7 2.423385 1_565
Ca1 O6 2.301503 1_555
Ca1 O7 2.301503 1_555
Ca1 O0 2.322402 1_555
Ca1 O3 2.369622 1_556
Ca1 O4 2.423385 1_545
Ca1 O5 2.423385 1_455
O0 Ti1 1.903571 1_556
O0 Ti2 1.903571 1_556
O1 Ti1 1.903571 1_555
O1 Ti2 1.903571 1_555
O2 Ti0 1.961398 1_665
O2 Ti1 2.107096 1_566
O2 Ti2 2.107096 1_656
O3 Ti0 1.961398 1_555
O3 Ti2 2.107096 1_545
O3 Ti1 2.107096 1_455
O4 Ti2 1.940553 1_556
O4 Ti0 1.964668 1_565
O5 Ti1 1.940553 1_556
O5 Ti0 1.964668 1_655
O6 Ti2 1.940553 1_555
O6 Ti0 1.964668 1_565
O7 Ti1 1.940553 1_555
O7 Ti0 1.964668 1_655
