# generated using pymatgen
data_Nd4MgCo
_symmetry_space_group_name_H-M   'P 1'
_cell_length_a   9.85685930
_cell_length_b   9.85690549
_cell_length_c   9.85691970
_cell_angle_alpha   59.99971037
_cell_angle_beta   59.99963949
_cell_angle_gamma   59.99964862
_symmetry_Int_Tables_number   1
_chemical_formula_structural   Nd4MgCo
_chemical_formula_sum   'Nd16 Mg4 Co4'
_cell_volume   677.17681934
_cell_formula_units_Z   4
loop_
 _symmetry_equiv_pos_site_id
 _symmetry_equiv_pos_as_xyz
  1  'x, y, z'
loop_
 _atom_site_type_symbol
 _atom_site_label
 _atom_site_symmetry_multiplicity
 _atom_site_fract_x
 _atom_site_fract_y
 _atom_site_fract_z
 _atom_site_occupancy
  Nd  Nd0  1  0.59454427  0.59452025  0.59451440  1
  Nd  Nd1  1  0.59454688  0.59452220  0.21641959  1
  Nd  Nd2  1  0.59454820  0.21642118  0.59451805  1
  Nd  Nd3  1  0.21642280  0.59452958  0.59452729  1
  Nd  Nd4  1  0.18901121  0.81097654  0.81097552  1
  Nd  Nd5  1  0.81096736  0.18902204  0.18902483  1
  Nd  Nd6  1  0.81096950  0.18901972  0.81098215  1
  Nd  Nd7  1  0.18901476  0.81097453  0.18903305  1
  Nd  Nd8  1  0.81096730  0.81098148  0.18902301  1
  Nd  Nd9  1  0.18901532  0.18902944  0.81097501  1
  Nd  Nd10  1  0.06259018  0.43738995  0.43739104  1
  Nd  Nd11  1  0.43740201  0.06260673  0.06261128  1
  Nd  Nd12  1  0.43739793  0.06260317  0.43738308  1
  Nd  Nd13  1  0.06259349  0.43739348  0.06262552  1
  Nd  Nd14  1  0.43739882  0.43738270  0.06260677  1
  Nd  Nd15  1  0.06259512  0.06262253  0.43739434  1
  Mg  Mg0  1  0.82862056  0.82862711  0.82862843  1
  Mg  Mg1  1  0.82862150  0.82862836  0.51412015  1
  Mg  Mg2  1  0.82862110  0.51412051  0.82862890  1
  Mg  Mg3  1  0.51412226  0.82862477  0.82862591  1
  Co  Co0  1  0.39076005  0.39075190  0.39074687  1
  Co  Co1  1  0.39076169  0.39075197  0.82774099  1
  Co  Co2  1  0.39076168  0.82774335  0.39074884  1
  Co  Co3  1  0.82774503  0.39075551  0.39075297  1
loop_
_geom_bond_atom_site_label_1
_geom_bond_atom_site_label_2
_geom_bond_distance
_geom_bond_site_symmetry_2
Nd0 Nd8 3.546196 1_555
Nd0 Nd6 3.546271 1_555
Nd0 Nd4 3.546510 1_555
Nd1 Nd8 3.546151 1_555
Nd1 Nd5 3.546282 1_555
Nd1 Nd7 3.546511 1_555
Nd2 Nd6 3.546178 1_555
Nd2 Nd5 3.546242 1_555
Nd2 Nd9 3.546534 1_555
Nd3 Nd4 3.546216 1_555
Nd3 Nd7 3.546283 1_555
Nd3 Nd9 3.546326 1_555
Nd4 Nd6 3.726300 1_465
Nd4 Nd8 3.726334 1_456
Nd4 Nd9 3.726449 1_565
Nd4 Nd7 3.726490 1_556
Nd5 Nd8 3.726319 1_545
Nd5 Nd6 3.726337 1_554
Nd5 Nd7 3.726350 1_645
Nd5 Nd9 3.726366 1_654
Nd6 Nd8 3.726286 1_546
Nd6 Nd9 3.726357 1_655
Nd7 Nd8 3.726376 1_455
Nd7 Nd9 3.726453 1_564
Nd10 Nd6 3.691704 1_455
Nd10 Nd8 3.691706 1_455
Nd10 Nd7 3.691782 1_555
Nd10 Nd9 3.691784 1_555
Nd11 Nd8 3.691548 1_545
Nd11 Nd6 3.691571 1_554
Nd11 Nd7 3.691876 1_545
Nd11 Nd9 3.691906 1_554
Nd12 Nd8 3.691584 1_545
Nd12 Nd5 3.691616 1_555
Nd12 Nd4 3.691819 1_545
Nd12 Nd9 3.691854 1_555
Nd13 Nd8 3.691675 1_455
Nd13 Nd4 3.691735 1_554
Nd13 Nd5 3.691770 1_455
Nd13 Nd9 3.691850 1_554
Nd14 Nd5 3.691606 1_555
Nd14 Nd6 3.691618 1_554
Nd14 Nd7 3.691849 1_555
Nd14 Nd4 3.691852 1_554
Nd15 Nd6 3.691676 1_455
Nd15 Nd4 3.691717 1_545
Nd15 Nd5 3.691771 1_455
Nd15 Nd7 3.691814 1_545
Mg0 Mg3 3.099989 1_555
Mg0 Mg2 3.100057 1_555
Mg0 Mg1 3.100072 1_555
Mg0 Nd4 3.387275 1_655
Mg0 Nd6 3.387339 1_565
Mg0 Nd8 3.387357 1_556
Mg0 Nd1 3.597683 1_556
Mg0 Nd2 3.597712 1_565
Mg0 Nd3 3.597806 1_655
Mg0 Nd11 3.611127 1_566
Mg0 Nd13 3.611230 1_656
Mg0 Nd15 3.611232 1_665
Mg1 Mg3 3.099999 1_555
Mg1 Mg2 3.100067 1_555
Mg1 Nd7 3.387282 1_655
Mg1 Nd5 3.387334 1_565
Mg1 Nd8 3.387385 1_555
Mg1 Nd0 3.597723 1_555
Mg1 Nd2 3.597748 1_565
Mg1 Nd3 3.597845 1_655
Mg1 Nd12 3.611142 1_565
Mg1 Nd10 3.611247 1_655
Mg1 Nd15 3.611269 1_665
Mg2 Mg3 3.099988 1_555
Mg2 Nd9 3.387303 1_655
Mg2 Nd5 3.387361 1_556
Mg2 Nd6 3.387402 1_555
Mg2 Nd1 3.597750 1_556
Mg2 Nd0 3.597754 1_555
Mg2 Nd3 3.597855 1_655
Mg2 Nd14 3.611133 1_556
Mg2 Nd10 3.611253 1_655
Mg2 Nd13 3.611277 1_656
Mg3 Nd9 3.387433 1_565
Mg3 Nd7 3.387451 1_556
Mg3 Nd4 3.387489 1_555
Mg3 Nd1 3.597874 1_556
Mg3 Nd0 3.597877 1_555
Mg3 Nd2 3.597898 1_565
Mg3 Nd14 3.611255 1_556
Mg3 Nd12 3.611270 1_565
Mg3 Nd11 3.611300 1_566
Co0 Nd14 2.849905 1_555
Co0 Nd12 2.849969 1_555
Co0 Nd10 2.850130 1_555
Co0 Nd1 2.855410 1_555
Co0 Nd3 2.855415 1_555
Co0 Nd2 2.855425 1_555
Co0 Nd5 3.541889 1_555
Co0 Nd7 3.542012 1_555
Co0 Nd9 3.542068 1_555
Co1 Nd14 2.849854 1_556
Co1 Nd11 2.849926 1_556
Co1 Nd13 2.850105 1_556
Co1 Nd0 2.855363 1_555
Co1 Nd3 2.855367 1_555
Co1 Nd2 2.855386 1_555
Co1 Nd6 3.541886 1_555
Co1 Nd4 3.542029 1_555
Co1 Nd9 3.542127 1_555
Co2 Nd12 2.849811 1_565
Co2 Nd11 2.849856 1_565
Co2 Nd15 2.850077 1_565
Co2 Nd0 2.855344 1_555
Co2 Nd1 2.855362 1_555
Co2 Nd3 2.855365 1_555
Co2 Nd8 3.541859 1_555
Co2 Nd4 3.542048 1_555
Co2 Nd7 3.542094 1_555
Co3 Nd10 2.849674 1_655
Co3 Nd13 2.849738 1_655
Co3 Nd15 2.849776 1_655
Co3 Nd0 2.855183 1_555
Co3 Nd2 2.855206 1_555
Co3 Nd1 2.855212 1_555
Co3 Nd8 3.542012 1_555
Co3 Nd6 3.542050 1_555
Co3 Nd5 3.542144 1_555
