# generated using pymatgen
data_Ba4Fe9O20
_symmetry_space_group_name_H-M   'P 1'
_cell_length_a   5.97536737
_cell_length_b   5.97536737
_cell_length_c   14.54798811
_cell_angle_alpha   89.46392890
_cell_angle_beta   89.46392890
_cell_angle_gamma   60.12912679
_symmetry_Int_Tables_number   1
_chemical_formula_structural   Ba4Fe9O20
_chemical_formula_sum   'Ba4 Fe9 O20'
_cell_volume   450.40274948
_cell_formula_units_Z   1
loop_
 _symmetry_equiv_pos_site_id
 _symmetry_equiv_pos_as_xyz
  1  'x, y, z'
loop_
 _atom_site_type_symbol
 _atom_site_label
 _atom_site_symmetry_multiplicity
 _atom_site_fract_x
 _atom_site_fract_y
 _atom_site_fract_z
 _atom_site_occupancy
  Ba  Ba0  1  0.16656500  0.16656500  0.57950600  1
  Ba  Ba1  1  0.83343500  0.83343500  0.42049400  1
  Ba  Ba2  1  0.50122800  0.50122800  0.73738700  1
  Ba  Ba3  1  0.49877200  0.49877200  0.26261300  1
  Fe  Fe0  1  0.50000000  0.50000000  0.00000000  1
  Fe  Fe1  1  0.16991300  0.16991300  0.82459300  1
  Fe  Fe2  1  0.83008700  0.83008700  0.17540700  1
  Fe  Fe3  1  0.83735100  0.83735100  0.78865900  1
  Fe  Fe4  1  0.16264900  0.16264900  0.21134100  1
  Fe  Fe5  1  0.00000000  0.50000000  0.00000000  1
  Fe  Fe6  1  0.50000000  0.00000000  0.00000000  1
  Fe  Fe7  1  0.50000000  0.50000000  0.50000000  1
  Fe  Fe8  1  0.00000000  0.00000000  0.00000000  1
  O  O0  1  0.84285500  0.33051300  0.92491400  1
  O  O1  1  0.33051300  0.84285500  0.92491400  1
  O  O2  1  0.15714500  0.66948700  0.07508600  1
  O  O3  1  0.66948700  0.15714500  0.07508600  1
  O  O4  1  0.01380300  0.48953700  0.75481000  1
  O  O5  1  0.48953700  0.01380300  0.75481000  1
  O  O6  1  0.98619700  0.51046300  0.24519000  1
  O  O7  1  0.51046300  0.98619700  0.24519000  1
  O  O8  1  0.20133200  0.64129800  0.57084300  1
  O  O9  1  0.64129800  0.20133200  0.57084300  1
  O  O10  1  0.79866800  0.35870200  0.42915700  1
  O  O11  1  0.35870200  0.79866800  0.42915700  1
  O  O12  1  0.33073600  0.33073600  0.92504300  1
  O  O13  1  0.66926400  0.66926400  0.07495700  1
  O  O14  1  0.01289700  0.01289700  0.75317800  1
  O  O15  1  0.98710300  0.98710300  0.24682200  1
  O  O16  1  0.35775200  0.35775200  0.42359200  1
  O  O17  1  0.64224800  0.64224800  0.57640800  1
  O  O18  1  0.83478200  0.83478200  0.92534700  1
  O  O19  1  0.16521800  0.16521800  0.07465300  1
loop_
_geom_bond_atom_site_label_1
_geom_bond_atom_site_label_2
_geom_bond_distance
_geom_bond_site_symmetry_2
Ba0 O11 2.909273 1_545
Ba0 O10 2.909273 1_455
Ba0 O8 2.947162 1_555
Ba0 O9 2.947162 1_555
Ba0 O14 2.970333 1_555
Ba0 O16 2.993014 1_555
Ba0 O17 3.004439 1_545
Ba0 O17 3.004439 1_455
Ba0 O9 3.044284 1_455
Ba0 O8 3.044284 1_545
Ba0 O5 3.058690 1_555
Ba0 O4 3.058690 1_555
Ba1 O9 2.909273 1_565
Ba1 O8 2.909273 1_655
Ba1 O11 2.947162 1_555
Ba1 O10 2.947162 1_555
Ba1 O15 2.970333 1_555
Ba1 O17 2.993014 1_555
Ba1 O16 3.004439 1_565
Ba1 O16 3.004439 1_655
Ba1 O11 3.044284 1_655
Ba1 O10 3.044284 1_565
Ba1 O6 3.058690 1_555
Ba1 O7 3.058690 1_555
Ba2 O17 2.745564 1_555
Ba2 O8 2.886418 1_555
Ba2 O9 2.886418 1_555
Ba2 O5 2.956444 1_555
Ba2 O4 2.956444 1_555
Ba2 O14 3.004840 1_655
Ba2 O14 3.004840 1_565
Ba2 O4 3.041560 1_655
Ba2 O5 3.041560 1_565
Ba2 O12 3.233949 1_555
Ba2 O0 3.260114 1_555
Ba2 O1 3.260114 1_555
Ba3 O16 2.745564 1_555
Ba3 O10 2.886418 1_555
Ba3 O11 2.886418 1_555
Ba3 O6 2.956444 1_555
Ba3 O7 2.956444 1_555
Ba3 O15 3.004840 1_545
Ba3 O15 3.004840 1_455
Ba3 O6 3.041560 1_455
Ba3 O7 3.041560 1_545
Ba3 O13 3.233949 1_555
Ba3 O2 3.260114 1_555
Ba3 O3 3.260114 1_555
Fe0 O13 2.072508 1_555
Fe0 O12 2.072508 1_554
Fe0 O1 2.080414 1_554
Fe0 O0 2.080414 1_554
Fe0 O2 2.080414 1_555
Fe0 O3 2.080414 1_555
Fe1 O14 1.937334 1_555
Fe1 O4 1.937841 1_555
Fe1 O5 1.937841 1_555
Fe1 O12 2.225962 1_555
Fe1 O1 2.230462 1_545
Fe1 O0 2.230462 1_455
Fe2 O15 1.937334 1_555
Fe2 O6 1.937841 1_555
Fe2 O7 1.937841 1_555
Fe2 O13 2.225962 1_555
Fe2 O3 2.230462 1_565
Fe2 O2 2.230462 1_655
Fe3 O5 1.870900 1_565
Fe3 O4 1.870900 1_655
Fe3 O14 1.882227 1_665
Fe3 O18 1.988426 1_555
Fe4 O6 1.870900 1_455
Fe4 O7 1.870900 1_545
Fe4 O15 1.882227 1_445
Fe4 O19 1.988426 1_555
Fe5 O2 2.021819 1_555
Fe5 O0 2.021819 1_454
Fe5 O12 2.026579 1_554
Fe5 O13 2.026579 1_455
Fe5 O19 2.041601 1_555
Fe5 O18 2.041601 1_454
Fe6 O3 2.021819 1_555
Fe6 O1 2.021819 1_544
Fe6 O12 2.026579 1_554
Fe6 O13 2.026579 1_545
Fe6 O19 2.041601 1_555
Fe6 O18 2.041601 1_544
Fe7 O17 1.853530 1_555
Fe7 O16 1.853530 1_555
Fe7 O11 1.854987 1_555
Fe7 O10 1.854987 1_555
Fe7 O8 1.854987 1_555
Fe7 O9 1.854987 1_555
Fe8 O3 2.026556 1_455
Fe8 O2 2.026556 1_545
Fe8 O0 2.026556 1_454
Fe8 O1 2.026556 1_544
Fe8 O19 2.034636 1_555
Fe8 O18 2.034636 1_444
