# generated using pymatgen
data_Mg2FeSbO6
_symmetry_space_group_name_H-M   'P 1'
_cell_length_a   7.64594900
_cell_length_b   5.21611700
_cell_length_c   5.39303093
_cell_angle_alpha   89.17214595
_cell_angle_beta   90.00000000
_cell_angle_gamma   90.00000000
_symmetry_Int_Tables_number   1
_chemical_formula_structural   Mg2FeSbO6
_chemical_formula_sum   'Mg4 Fe2 Sb2 O12'
_cell_volume   215.06329616
_cell_formula_units_Z   2
loop_
 _symmetry_equiv_pos_site_id
 _symmetry_equiv_pos_as_xyz
  1  'x, y, z'
loop_
 _atom_site_type_symbol
 _atom_site_label
 _atom_site_symmetry_multiplicity
 _atom_site_fract_x
 _atom_site_fract_y
 _atom_site_fract_z
 _atom_site_occupancy
  Mg  Mg0  1  0.75000000  0.47976900  0.56997200  1
  Mg  Mg1  1  0.25000000  0.52023100  0.43002800  1
  Mg  Mg2  1  0.75000000  0.98829300  0.03510300  1
  Mg  Mg3  1  0.25000000  0.01170700  0.96489700  1
  Fe  Fe0  1  0.50000000  0.50000000  0.00000000  1
  Fe  Fe1  1  0.00000000  0.50000000  0.00000000  1
  Sb  Sb0  1  0.50000000  0.00000000  0.50000000  1
  Sb  Sb1  1  0.00000000  0.00000000  0.50000000  1
  O  O0  1  0.43073800  0.68152100  0.67719300  1
  O  O1  1  0.06924300  0.82824100  0.18876700  1
  O  O2  1  0.93073800  0.31847900  0.32280700  1
  O  O3  1  0.56924300  0.17175900  0.81123300  1
  O  O4  1  0.43075700  0.82824100  0.18876700  1
  O  O5  1  0.93075700  0.17175900  0.81123300  1
  O  O6  1  0.25000000  0.13904700  0.57370200  1
  O  O7  1  0.06926200  0.68152100  0.67719300  1
  O  O8  1  0.75000000  0.62069600  0.92897900  1
  O  O9  1  0.56926200  0.31847900  0.32280700  1
  O  O10  1  0.75000000  0.86095300  0.42629800  1
  O  O11  1  0.25000000  0.37930400  0.07102100  1
loop_
_geom_bond_atom_site_label_1
_geom_bond_atom_site_label_2
_geom_bond_distance
_geom_bond_site_symmetry_2
Mg0 O8 2.080891 1_555
Mg0 O2 2.103971 1_555
Mg0 O9 2.103971 1_555
Mg0 O10 2.123486 1_555
Mg0 O5 2.474637 1_555
Mg0 O3 2.474637 1_555
Mg0 O7 2.723637 1_655
Mg0 O0 2.723637 1_555
Mg1 O11 2.080891 1_555
Mg1 O7 2.103971 1_555
Mg1 O0 2.103971 1_555
Mg1 O6 2.123486 1_555
Mg1 O1 2.474637 1_555
Mg1 O4 2.474637 1_555
Mg1 O9 2.723637 1_555
Mg1 O2 2.723637 1_455
Mg2 O8 2.008932 1_554
Mg2 O3 2.061595 1_564
Mg2 O5 2.061595 1_564
Mg2 O10 2.202644 1_555
Mg2 O1 2.705886 1_655
Mg2 O4 2.705886 1_555
Mg3 O11 2.008932 1_556
Mg3 O1 2.061595 1_546
Mg3 O4 2.061595 1_546
Mg3 O6 2.202644 1_555
Mg3 O5 2.705886 1_455
Mg3 O3 2.705886 1_555
Fe0 O9 2.039626 1_555
Fe0 O0 2.039626 1_554
Fe0 O8 2.046917 1_554
Fe0 O11 2.046917 1_555
Fe0 O4 2.073276 1_555
Fe0 O3 2.073276 1_554
Fe1 O7 2.039626 1_554
Fe1 O2 2.039626 1_455
Fe1 O11 2.046917 1_555
Fe1 O8 2.046917 1_454
Fe1 O1 2.073276 1_555
Fe1 O5 2.073276 1_454
O0 Sb0 1.976721 1_565
O1 Sb1 1.985885 1_565
O2 Sb1 1.976721 1_655
O3 Sb0 1.985885 1_555
O4 Sb0 1.985885 1_565
O5 Sb1 1.985885 1_655
O6 Sb0 2.084740 1_555
O6 Sb1 2.084740 1_555
O7 Sb1 1.976721 1_565
O9 Sb0 1.976721 1_555
O10 Sb1 2.084740 1_665
O10 Sb0 2.084740 1_565
