# generated using pymatgen
data_V9(P2O7)8
_symmetry_space_group_name_H-M   'P 1'
_cell_length_a   10.82904230
_cell_length_b   9.82320788
_cell_length_c   12.93460720
_cell_angle_alpha   83.04192040
_cell_angle_beta   65.91705177
_cell_angle_gamma   109.48196845
_symmetry_Int_Tables_number   1
_chemical_formula_structural   V9(P2O7)8
_chemical_formula_sum   'V9 P16 O56'
_cell_volume   1130.11613222
_cell_formula_units_Z   1
loop_
 _symmetry_equiv_pos_site_id
 _symmetry_equiv_pos_as_xyz
  1  'x, y, z'
loop_
 _atom_site_type_symbol
 _atom_site_label
 _atom_site_symmetry_multiplicity
 _atom_site_fract_x
 _atom_site_fract_y
 _atom_site_fract_z
 _atom_site_occupancy
  V  V0  1  0.06021500  0.05470100  0.18673300  1
  V  V1  1  0.20588300  0.80964500  0.57292800  1
  V  V2  1  0.43753300  0.44620900  0.29871400  1
  V  V3  1  0.29293200  0.69990800  0.93232400  1
  V  V4  1  0.50000000  0.50000000  0.50000000  1
  V  V5  1  0.70706800  0.30009200  0.06767600  1
  V  V6  1  0.56246700  0.55379100  0.70128600  1
  V  V7  1  0.79411700  0.19035500  0.42707200  1
  V  V8  1  0.93978500  0.94529900  0.81326700  1
  P  P0  1  0.05237500  0.73148600  0.17103400  1
  P  P1  1  0.08986000  0.27317000  0.37090300  1
  P  P2  1  0.26562600  0.95875700  0.77017900  1
  P  P3  1  0.19207300  0.14093000  0.52420400  1
  P  P4  1  0.45145100  0.76480900  0.34144800  1
  P  P5  1  0.23109200  0.53823600  0.72910200  1
  P  P6  1  0.40652500  0.21832100  0.13261900  1
  P  P7  1  0.68532400  0.62763400  0.01475200  1
  P  P8  1  0.31467600  0.37236600  0.98524800  1
  P  P9  1  0.59347500  0.78167900  0.86738100  1
  P  P10  1  0.76890800  0.46176400  0.27089800  1
  P  P11  1  0.54854900  0.23519100  0.65855200  1
  P  P12  1  0.80792700  0.85907000  0.47579600  1
  P  P13  1  0.73437400  0.04124300  0.22982100  1
  P  P14  1  0.91014000  0.72683100  0.62909700  1
  P  P15  1  0.94762500  0.26851400  0.82896600  1
  O  O0  1  0.07690600  0.89463200  0.12045400  1
  O  O1  1  0.12703900  0.67957900  0.05659700  1
  O  O2  1  0.09173100  0.69436000  0.26292300  1
  O  O3  1  0.04782000  0.70504800  0.54249600  1
  O  O4  1  0.03079700  0.20310500  0.28990500  1
  O  O5  1  0.17748200  0.22163900  0.03792800  1
  O  O6  1  0.27894200  0.50650900  0.00915000  1
  O  O7  1  0.10859500  0.94463800  0.83758500  1
  O  O8  1  0.23871700  0.41024100  0.30984900  1
  O  O9  1  0.10535100  0.14691900  0.44815600  1
  O  O10  1  0.40528100  0.76212300  0.24976600  1
  O  O11  1  0.18122400  0.60775400  0.65156400  1
  O  O12  1  0.40598900  0.35779100  0.05471400  1
  O  O13  1  0.08570500  0.10789500  0.65371800  1
  O  O14  1  0.25142700  0.09139800  0.19464400  1
  O  O15  1  0.37759300  0.82791100  0.44239600  1
  O  O16  1  0.28363400  0.88686400  0.66695400  1
  O  O17  1  0.12443800  0.36345300  0.78949500  1
  O  O18  1  0.23260300  0.61031900  0.82611600  1
  O  O19  1  0.43997600  0.60424400  0.39972300  1
  O  O20  1  0.58570600  0.59858500  0.14707900  1
  O  O21  1  0.32573700  0.30104100  0.47294600  1
  O  O22  1  0.24234800  0.01589200  0.49481000  1
  O  O23  1  0.32336100  0.89588900  0.84494000  1
  O  O24  1  0.53584000  0.18385200  0.05089200  1
  O  O25  1  0.46391800  0.28430700  0.21608300  1
  O  O26  1  0.62914800  0.86550000  0.29276300  1
  O  O27  1  0.38825300  0.53983000  0.65380600  1
  O  O28  1  0.61174700  0.46017000  0.34619400  1
  O  O29  1  0.37085200  0.13450000  0.70723700  1
  O  O30  1  0.53608200  0.71569300  0.78391700  1
  O  O31  1  0.46416000  0.81614800  0.94910800  1
  O  O32  1  0.67663900  0.10411100  0.15506000  1
  O  O33  1  0.75765200  0.98410800  0.50519000  1
  O  O34  1  0.67426300  0.69895900  0.52705400  1
  O  O35  1  0.41429400  0.40141500  0.85292100  1
  O  O36  1  0.56002400  0.39575600  0.60027700  1
  O  O37  1  0.76739700  0.38968100  0.17388400  1
  O  O38  1  0.87556200  0.63654700  0.21050500  1
  O  O39  1  0.71636600  0.11313600  0.33304600  1
  O  O40  1  0.62240700  0.17208900  0.55760400  1
  O  O41  1  0.74857300  0.90860200  0.80535600  1
  O  O42  1  0.91429500  0.89210500  0.34628200  1
  O  O43  1  0.59401100  0.64220900  0.94528600  1
  O  O44  1  0.81877600  0.39224600  0.34843600  1
  O  O45  1  0.59471900  0.23787700  0.75023400  1
  O  O46  1  0.89464900  0.85308100  0.55184400  1
  O  O47  1  0.76128300  0.58975900  0.69015100  1
  O  O48  1  0.89140500  0.05536200  0.16241500  1
  O  O49  1  0.72105800  0.49349100  0.99085000  1
  O  O50  1  0.82251800  0.77836100  0.96207200  1
  O  O51  1  0.96920300  0.79689500  0.71009500  1
  O  O52  1  0.95218000  0.29495200  0.45750400  1
  O  O53  1  0.90826900  0.30564000  0.73707700  1
  O  O54  1  0.87296100  0.32042100  0.94340300  1
  O  O55  1  0.92309400  0.10536800  0.87954600  1
loop_
_geom_bond_atom_site_label_1
_geom_bond_atom_site_label_2
_geom_bond_distance
_geom_bond_site_symmetry_2
O0 P0 1.545033 1_555
O0 V0 1.905189 1_565
O1 P0 1.608055 1_555
O1 V3 1.782475 1_554
O2 P0 1.462648 1_555
O3 P14 1.559271 1_455
O3 V1 1.901377 1_555
O4 P1 1.551891 1_555
O4 V0 2.107535 1_555
O4 V7 2.398633 1_455
O5 P8 1.525089 1_554
O5 V0 1.964144 1_555
O6 P8 1.524101 1_554
O6 V3 1.961482 1_554
O7 P2 1.508138 1_555
O7 V8 1.979253 1_455
O8 P1 1.513543 1_555
O8 V2 2.002033 1_555
O9 P1 1.593740 1_555
O9 P3 1.621635 1_555
O10 P4 1.462746 1_555
O11 P5 1.511910 1_555
O11 V1 1.993831 1_555
O12 P6 1.602511 1_555
O12 P8 1.610586 1_554
O13 P3 1.510828 1_555
O13 V8 2.040454 1_445
O14 P6 1.510045 1_555
O14 V0 2.027795 1_555
O15 P4 1.550269 1_555
O15 V1 1.866085 1_555
O16 P2 1.557977 1_555
O16 V1 1.842992 1_555
O17 P5 1.583679 1_555
O17 P15 1.640826 1_455
O18 P5 1.516766 1_555
O18 V3 1.931420 1_555
O19 P4 1.605035 1_555
O19 V4 1.990892 1_555
O19 V2 2.147063 1_555
O20 P7 1.531070 1_555
O20 V2 1.944285 1_555
O21 P3 1.566539 1_555
O21 V2 2.102659 1_555
O21 V4 2.397475 1_555
O22 P3 1.529664 1_555
O22 V1 1.981499 1_545
O23 P2 1.521067 1_555
O23 V3 1.959095 1_555
O24 P6 1.545314 1_555
O24 V5 1.940481 1_555
O25 P6 1.555741 1_555
O25 V2 2.054033 1_555
O25 V5 2.484455 1_555
O26 P13 1.591160 1_565
O26 P4 1.633510 1_555
O27 P5 1.571955 1_555
O27 V4 2.028524 1_555
O27 V6 2.179108 1_555
O28 P10 1.571955 1_555
O28 V4 2.028524 1_555
O28 V2 2.179108 1_555
O29 P2 1.591160 1_545
O29 P11 1.633510 1_555
O30 P9 1.555741 1_555
O30 V6 2.054033 1_555
O30 V3 2.484455 1_555
O31 P9 1.545314 1_555
O31 V3 1.940481 1_555
O32 P13 1.521067 1_555
O32 V5 1.959095 1_555
O33 P12 1.529664 1_555
O33 V7 1.981499 1_565
O34 P12 1.566539 1_555
O34 V6 2.102659 1_555
O34 V4 2.397475 1_555
O35 P8 1.531070 1_555
O35 V6 1.944285 1_555
O36 P11 1.605035 1_555
O36 V4 1.990892 1_555
O36 V6 2.147063 1_555
O37 P10 1.516766 1_555
O37 V5 1.931420 1_555
O38 P10 1.583679 1_555
O38 P0 1.640826 1_655
O39 P13 1.557977 1_555
O39 V7 1.842992 1_555
O40 P11 1.550269 1_555
O40 V7 1.866085 1_555
O41 P9 1.510045 1_555
O41 V8 2.027795 1_555
O42 P12 1.510828 1_555
O42 V0 2.040454 1_665
O43 P9 1.602511 1_555
O43 P7 1.610586 1_556
O44 P10 1.511910 1_555
O44 V7 1.993831 1_555
O45 P11 1.462746 1_555
O46 P14 1.593733 1_555
O46 P12 1.621635 1_555
O47 P14 1.513547 1_555
O47 V6 2.002033 1_555
O48 P13 1.508138 1_555
O48 V0 1.979253 1_655
O49 P7 1.524101 1_556
O49 V5 1.961482 1_556
O50 P7 1.525089 1_556
O50 V8 1.964144 1_555
O51 P14 1.551888 1_555
O51 V8 2.107535 1_555
O51 V1 2.398633 1_655
O52 P1 1.559265 1_655
O52 V7 1.901377 1_555
O53 P15 1.462648 1_555
O54 P15 1.608055 1_555
O54 V5 1.782475 1_556
O55 P15 1.545033 1_555
O55 V8 1.905189 1_545
