# generated using pymatgen
data_LaH2SNO7
_symmetry_space_group_name_H-M   'P 1'
_cell_length_a   7.55783700
_cell_length_b   7.55783700
_cell_length_c   12.44431000
_cell_angle_alpha   90.00000000
_cell_angle_beta   90.00000000
_cell_angle_gamma   90.00000000
_symmetry_Int_Tables_number   1
_chemical_formula_structural   LaH2SNO7
_chemical_formula_sum   'La4 H8 S4 N4 O28'
_cell_volume   710.83018855
_cell_formula_units_Z   4
loop_
 _symmetry_equiv_pos_site_id
 _symmetry_equiv_pos_as_xyz
  1  'x, y, z'
loop_
 _atom_site_type_symbol
 _atom_site_label
 _atom_site_symmetry_multiplicity
 _atom_site_fract_x
 _atom_site_fract_y
 _atom_site_fract_z
 _atom_site_occupancy
  La  La0  1  0.78957200  0.36355100  0.53934200  1
  La  La1  1  0.21042800  0.63644900  0.03934200  1
  La  La2  1  0.36355100  0.21042800  0.28934200  1
  La  La3  1  0.63644900  0.78957200  0.78934200  1
  H  H0  1  0.59724700  0.07584600  0.92685800  1
  H  H1  1  0.40275300  0.92415400  0.42685800  1
  H  H2  1  0.07584600  0.40275300  0.67685800  1
  H  H3  1  0.92415400  0.59724700  0.17685800  1
  H  H4  1  0.53191600  0.57247200  0.96274000  1
  H  H5  1  0.46808400  0.42752800  0.46274000  1
  H  H6  1  0.57247200  0.46808400  0.71274000  1
  H  H7  1  0.42752800  0.53191600  0.21274000  1
  S  S0  1  0.23654000  0.58318400  0.75170300  1
  S  S1  1  0.76346000  0.41681600  0.25170300  1
  S  S2  1  0.58318400  0.76346000  0.50170300  1
  S  S3  1  0.41681600  0.23654000  0.00170300  1
  N  N0  1  0.91070100  0.08389000  0.74520900  1
  N  N1  1  0.08929900  0.91611000  0.24520900  1
  N  N2  1  0.08389000  0.08929900  0.49520900  1
  N  N3  1  0.91611000  0.91070100  0.99520900  1
  O  O0  1  0.09996600  0.52982000  0.65799300  1
  O  O1  1  0.90003400  0.47018000  0.15799300  1
  O  O2  1  0.52982000  0.90003400  0.40799300  1
  O  O3  1  0.47018000  0.09996600  0.90799300  1
  O  O4  1  0.36252300  0.43798600  0.75703800  1
  O  O5  1  0.63747700  0.56201400  0.25703800  1
  O  O6  1  0.43798600  0.63747700  0.50703800  1
  O  O7  1  0.56201400  0.36252300  0.00703800  1
  O  O8  1  0.31487800  0.75316900  0.72096300  1
  O  O9  1  0.68512200  0.24683100  0.22096300  1
  O  O10  1  0.75316900  0.68512200  0.47096300  1
  O  O11  1  0.24683100  0.31487800  0.97096300  1
  O  O12  1  0.12393800  0.60088300  0.84801100  1
  O  O13  1  0.87606200  0.39911700  0.34801100  1
  O  O14  1  0.60088300  0.87606200  0.59801100  1
  O  O15  1  0.39911700  0.12393800  0.09801100  1
  O  O16  1  0.74670600  0.10386000  0.72049300  1
  O  O17  1  0.25329400  0.89614000  0.22049300  1
  O  O18  1  0.10386000  0.25329400  0.47049300  1
  O  O19  1  0.89614000  0.74670600  0.97049300  1
  O  O20  1  0.01232200  0.19703400  0.70444300  1
  O  O21  1  0.98767800  0.80296600  0.20444300  1
  O  O22  1  0.19703400  0.98767800  0.45444300  1
  O  O23  1  0.80296600  0.01232200  0.95444300  1
  O  O24  1  0.52493300  0.31170800  0.44451700  1
  O  O25  1  0.47506700  0.68829200  0.94451700  1
  O  O26  1  0.31170800  0.47506700  0.19451700  1
  O  O27  1  0.68829200  0.52493300  0.69451700  1
loop_
_geom_bond_atom_site_label_1
_geom_bond_atom_site_label_2
_geom_bond_distance
_geom_bond_site_symmetry_2
La0 O24 2.355078 1_555
La0 O27 2.408844 1_555
La0 O13 2.483672 1_555
La0 O10 2.589697 1_555
La0 O18 2.659078 1_655
La1 O25 2.355078 1_554
La1 O26 2.408844 1_555
La1 O12 2.483672 1_554
La1 O11 2.589697 1_554
La1 O19 2.659078 1_454
La2 O26 2.355078 1_555
La2 O24 2.408844 1_555
La2 O15 2.483672 1_555
La2 O9 2.589697 1_555
La2 O17 2.659078 1_545
La3 O27 2.355078 1_555
La3 O25 2.408844 1_555
La3 O14 2.483672 1_555
La3 O8 2.589697 1_555
La3 O16 2.659078 1_565
H0 O3 1.005296 1_555
H0 O23 1.663043 1_555
H1 O2 1.005296 1_555
H1 O22 1.663043 1_555
H2 O0 1.005296 1_555
H2 O20 1.663043 1_555
H3 O1 1.005296 1_555
H3 O21 1.663043 1_555
H4 O25 1.001132 1_555
H4 O7 1.695122 1_556
H5 O24 1.001132 1_555
H5 O6 1.695122 1_555
H6 O27 1.001132 1_555
H6 O4 1.695122 1_555
H7 O26 1.001132 1_555
H7 O5 1.695122 1_555
N0 O20 1.256373 1_655
N0 O16 1.285928 1_555
N1 O21 1.256373 1_455
N1 O17 1.285928 1_555
N2 O22 1.256373 1_545
N2 O18 1.285928 1_555
N3 O23 1.256373 1_565
N3 O19 1.285928 1_555
O0 S0 1.608735 1_555
O1 S1 1.608735 1_555
O2 S2 1.608735 1_555
O3 S3 1.608735 1_556
O4 S0 1.454395 1_555
O5 S1 1.454395 1_555
O6 S2 1.454395 1_555
O7 S3 1.454395 1_555
O8 S0 1.465394 1_555
O9 S1 1.465394 1_555
O10 S2 1.465394 1_555
O11 S3 1.465394 1_556
O12 S0 1.475978 1_555
O13 S1 1.475978 1_555
O14 S2 1.475978 1_555
O15 S3 1.475978 1_555
