# generated using pymatgen
data_Er2NiRuO6
_symmetry_space_group_name_H-M   'P 1'
_cell_length_a   5.69122900
_cell_length_b   5.27467300
_cell_length_c   9.26269009
_cell_angle_alpha   55.76924214
_cell_angle_beta   90.00000000
_cell_angle_gamma   90.00000000
_symmetry_Int_Tables_number   1
_chemical_formula_structural   Er2NiRuO6
_chemical_formula_sum   'Er4 Ni2 Ru2 O12'
_cell_volume   229.89420412
_cell_formula_units_Z   2
loop_
 _symmetry_equiv_pos_site_id
 _symmetry_equiv_pos_as_xyz
  1  'x, y, z'
loop_
 _atom_site_type_symbol
 _atom_site_label
 _atom_site_symmetry_multiplicity
 _atom_site_fract_x
 _atom_site_fract_y
 _atom_site_fract_z
 _atom_site_occupancy
  Er  Er0  1  0.07705500  0.72127800  0.75336800  1
  Er  Er1  1  0.92294500  0.27872200  0.24663200  1
  Er  Er2  1  0.57705500  0.27872200  0.74663200  1
  Er  Er3  1  0.42294500  0.72127800  0.25336800  1
  Ni  Ni0  1  0.50000000  0.50000000  0.00000000  1
  Ni  Ni1  1  0.00000000  0.50000000  0.50000000  1
  Ru  Ru0  1  0.50000000  0.00000000  0.50000000  1
  Ru  Ru1  1  0.00000000  0.00000000  0.00000000  1
  O  O0  1  0.45035400  0.88200700  0.74680000  1
  O  O1  1  0.54964600  0.11799300  0.25320000  1
  O  O2  1  0.95035400  0.11799300  0.75320000  1
  O  O3  1  0.04964600  0.88200700  0.24680000  1
  O  O4  1  0.80204400  0.74978800  0.56832800  1
  O  O5  1  0.19795600  0.25021200  0.43167200  1
  O  O6  1  0.30204400  0.25021200  0.93167200  1
  O  O7  1  0.69795600  0.74978800  0.06832800  1
  O  O8  1  0.31195500  0.62941700  0.55872800  1
  O  O9  1  0.68804500  0.37058300  0.44127200  1
  O  O10  1  0.81195500  0.37058300  0.94127200  1
  O  O11  1  0.18804500  0.62941700  0.05872800  1
loop_
_geom_bond_atom_site_label_1
_geom_bond_atom_site_label_2
_geom_bond_distance
_geom_bond_site_symmetry_2
Er0 O2 2.212472 1_465
Er0 O10 2.259471 1_455
Er0 O4 2.262745 1_455
Er0 O0 2.275534 1_555
Er0 O6 2.433974 1_555
Er0 O8 2.501044 1_555
Er0 O11 2.663093 1_556
Er0 O5 2.789851 1_565
Er1 O3 2.212472 1_645
Er1 O11 2.259471 1_655
Er1 O5 2.262745 1_655
Er1 O1 2.275534 1_555
Er1 O7 2.433974 1_555
Er1 O9 2.501044 1_555
Er1 O10 2.663093 1_554
Er1 O4 2.789851 1_545
Er2 O0 2.212472 1_545
Er2 O8 2.259471 1_555
Er2 O6 2.262745 1_555
Er2 O2 2.275534 1_555
Er2 O4 2.433974 1_555
Er2 O10 2.501044 1_555
Er2 O9 2.663093 1_555
Er2 O7 2.789851 1_546
Er3 O1 2.212472 1_565
Er3 O9 2.259471 1_555
Er3 O7 2.262745 1_555
Er3 O3 2.275534 1_555
Er3 O5 2.433974 1_555
Er3 O11 2.501044 1_555
Er3 O8 2.663093 1_555
Er3 O6 2.789851 1_564
Ni0 O0 2.079353 1_554
Ni0 O1 2.079353 1_555
Ni0 O11 2.081285 1_555
Ni0 O10 2.081285 1_554
Ni0 O7 2.084207 1_555
Ni0 O6 2.084207 1_554
Ni1 O3 2.079353 1_555
Ni1 O2 2.079353 1_455
Ni1 O8 2.081285 1_555
Ni1 O9 2.081285 1_455
Ni1 O5 2.084207 1_555
Ni1 O4 2.084207 1_455
O0 Ru0 2.022976 1_565
O1 Ru0 2.022976 1_555
O2 Ru1 2.022976 1_656
O3 Ru1 2.022976 1_565
O4 Ru0 2.039023 1_565
O5 Ru0 2.039023 1_555
O6 Ru1 2.039023 1_556
O7 Ru1 2.039023 1_665
O8 Ru0 2.016391 1_565
O9 Ru0 2.016391 1_555
O10 Ru1 2.016391 1_656
O11 Ru1 2.016391 1_565
