# generated using pymatgen
data_Sm5(Sn5Rh2)2
_symmetry_space_group_name_H-M   'P 1'
_cell_length_a   14.17017800
_cell_length_b   14.17017800
_cell_length_c   4.59629100
_cell_angle_alpha   90.00000000
_cell_angle_beta   90.00000000
_cell_angle_gamma   90.00000000
_symmetry_Int_Tables_number   1
_chemical_formula_structural   Sm5(Sn5Rh2)2
_chemical_formula_sum   'Sm10 Sn20 Rh8'
_cell_volume   922.90740020
_cell_formula_units_Z   2
loop_
 _symmetry_equiv_pos_site_id
 _symmetry_equiv_pos_as_xyz
  1  'x, y, z'
loop_
 _atom_site_type_symbol
 _atom_site_label
 _atom_site_symmetry_multiplicity
 _atom_site_fract_x
 _atom_site_fract_y
 _atom_site_fract_z
 _atom_site_occupancy
  Sm  Sm0  1  0.50000000  0.50000000  0.00000000  1
  Sm  Sm1  1  0.00000000  0.00000000  0.00000000  1
  Sm  Sm2  1  0.67664300  0.17664300  0.50000000  1
  Sm  Sm3  1  0.32335700  0.82335700  0.50000000  1
  Sm  Sm4  1  0.17664300  0.32335700  0.50000000  1
  Sm  Sm5  1  0.82335700  0.67664300  0.50000000  1
  Sm  Sm6  1  0.88838300  0.38838300  0.50000000  1
  Sm  Sm7  1  0.11161700  0.61161700  0.50000000  1
  Sm  Sm8  1  0.38838300  0.11161700  0.50000000  1
  Sm  Sm9  1  0.61161700  0.88838300  0.50000000  1
  Sn  Sn0  1  0.56940600  0.06940600  0.00000000  1
  Sn  Sn1  1  0.43059400  0.93059400  0.00000000  1
  Sn  Sn2  1  0.06940600  0.43059400  0.00000000  1
  Sn  Sn3  1  0.93059400  0.56940600  0.00000000  1
  Sn  Sn4  1  0.65485000  0.69777200  0.00000000  1
  Sn  Sn5  1  0.34515000  0.30222800  0.00000000  1
  Sn  Sn6  1  0.15485000  0.80222800  0.00000000  1
  Sn  Sn7  1  0.84515000  0.19777200  0.00000000  1
  Sn  Sn8  1  0.30222800  0.65485000  0.00000000  1
  Sn  Sn9  1  0.69777200  0.34515000  0.00000000  1
  Sn  Sn10  1  0.19777200  0.15485000  0.00000000  1
  Sn  Sn11  1  0.80222800  0.84515000  0.00000000  1
  Sn  Sn12  1  0.66278900  0.50569100  0.50000000  1
  Sn  Sn13  1  0.33721100  0.49430900  0.50000000  1
  Sn  Sn14  1  0.16278900  0.99430900  0.50000000  1
  Sn  Sn15  1  0.83721100  0.00569100  0.50000000  1
  Sn  Sn16  1  0.49430900  0.66278900  0.50000000  1
  Sn  Sn17  1  0.50569100  0.33721100  0.50000000  1
  Sn  Sn18  1  0.00569100  0.16278900  0.50000000  1
  Sn  Sn19  1  0.99430900  0.83721100  0.50000000  1
  Rh  Rh0  1  0.74686900  0.52716500  0.00000000  1
  Rh  Rh1  1  0.25313100  0.47283500  0.00000000  1
  Rh  Rh2  1  0.24686900  0.97283500  0.00000000  1
  Rh  Rh3  1  0.75313100  0.02716500  0.00000000  1
  Rh  Rh4  1  0.47283500  0.74686900  0.00000000  1
  Rh  Rh5  1  0.52716500  0.25313100  0.00000000  1
  Rh  Rh6  1  0.02716500  0.24686900  0.00000000  1
  Rh  Rh7  1  0.97283500  0.75313100  0.00000000  1
loop_
_geom_bond_atom_site_label_1
_geom_bond_atom_site_label_2
_geom_bond_distance
_geom_bond_site_symmetry_2
Sm0 Sn16 3.257156 1_555
Sm0 Sn12 3.257156 1_554
Sm0 Sn16 3.257156 1_554
Sm0 Sn12 3.257156 1_555
Sm0 Sn13 3.257156 1_554
Sm0 Sn13 3.257156 1_555
Sm0 Sn17 3.257156 1_554
Sm0 Sn17 3.257156 1_555
Sm0 Sn4 3.559291 1_555
Sm0 Sn9 3.559291 1_555
Sm0 Sn5 3.559291 1_555
Sm0 Sn8 3.559291 1_555
Sm1 Sn18 3.257156 1_555
Sm1 Sn18 3.257156 1_554
Sm1 Sn14 3.257156 1_544
Sm1 Sn14 3.257156 1_545
Sm1 Sn19 3.257156 1_444
Sm1 Sn19 3.257156 1_445
Sm1 Sn15 3.257156 1_455
Sm1 Sn15 3.257156 1_454
Sm1 Sn7 3.559291 1_455
Sm1 Sn10 3.559291 1_555
Sm1 Sn11 3.559291 1_445
Sm1 Sn6 3.559291 1_545
Sm2 Sn0 3.146370 1_555
Sm2 Sn0 3.146370 1_556
Sm2 Sn15 3.323403 1_555
Sm2 Sn17 3.323403 1_555
Sm2 Sn9 3.327549 1_555
Sm2 Sn9 3.327549 1_556
Sm2 Sn7 3.327549 1_555
Sm2 Sn7 3.327549 1_556
Sm3 Sn1 3.146370 1_555
Sm3 Sn1 3.146370 1_556
Sm3 Sn16 3.323403 1_555
Sm3 Sn14 3.323403 1_555
Sm3 Sn8 3.327549 1_556
Sm3 Sn8 3.327549 1_555
Sm3 Sn6 3.327549 1_555
Sm3 Sn6 3.327549 1_556
Sm4 Sn2 3.146370 1_555
Sm4 Sn2 3.146370 1_556
Sm4 Sn18 3.323403 1_555
Sm4 Sn13 3.323403 1_555
Sm4 Sn10 3.327549 1_556
Sm4 Sn10 3.327549 1_555
Sm4 Sn5 3.327549 1_556
Sm4 Sn5 3.327549 1_555
Sm5 Sn3 3.146370 1_556
Sm5 Sn3 3.146370 1_555
Sm5 Sn19 3.323403 1_555
Sm5 Sn12 3.323403 1_555
Sm5 Sn4 3.327549 1_556
Sm5 Sn4 3.327549 1_555
Sm5 Sn11 3.327549 1_555
Sm5 Sn11 3.327549 1_556
Sm6 Sn3 3.495586 1_555
Sm6 Sn3 3.495586 1_556
Sm6 Sn2 3.495586 1_655
Sm6 Sn2 3.495586 1_656
Sm6 Sn9 3.598907 1_556
Sm6 Sn9 3.598907 1_555
Sm6 Sn7 3.598907 1_555
Sm6 Sn7 3.598907 1_556
Sm6 Sn12 3.603068 1_555
Sm6 Sn18 3.603068 1_655
Sm7 Sn2 3.495586 1_556
Sm7 Sn2 3.495586 1_555
Sm7 Sn3 3.495586 1_456
Sm7 Sn3 3.495586 1_455
Sm7 Sn6 3.598907 1_555
Sm7 Sn6 3.598907 1_556
Sm7 Sn8 3.598907 1_555
Sm7 Sn8 3.598907 1_556
Sm7 Sn19 3.603068 1_455
Sm7 Sn13 3.603068 1_555
Sm8 Sn0 3.495586 1_555
Sm8 Sn0 3.495586 1_556
Sm8 Sn1 3.495586 1_545
Sm8 Sn1 3.495586 1_546
Sm8 Sn10 3.598907 1_556
Sm8 Sn5 3.598907 1_556
Sm8 Sn10 3.598907 1_555
Sm8 Sn5 3.598907 1_555
Sm8 Sn17 3.603068 1_555
Sm8 Sn14 3.603068 1_545
Sm9 Sn1 3.495586 1_555
Sm9 Sn1 3.495586 1_556
Sm9 Sn0 3.495586 1_566
Sm9 Sn0 3.495586 1_565
Sm9 Sn11 3.598907 1_555
Sm9 Sn11 3.598907 1_556
Sm9 Sn4 3.598907 1_556
Sm9 Sn4 3.598907 1_555
Sm9 Sn16 3.603068 1_555
Sm9 Sn15 3.603068 1_565
Sn0 Sn1 2.781745 1_545
Sn2 Sn3 2.781745 1_455
Rh0 Sn12 2.606447 1_554
Rh0 Sn12 2.606447 1_555
Rh0 Sn3 2.671339 1_555
Rh0 Sn9 2.671369 1_555
Rh0 Sn4 2.746758 1_555
Rh0 Sm5 3.307971 1_554
Rh0 Sm5 3.307971 1_555
Rh0 Sm0 3.519293 1_555
Rh0 Sm6 3.629049 1_555
Rh0 Sm6 3.629049 1_554
Rh1 Sn13 2.606447 1_554
Rh1 Sn13 2.606447 1_555
Rh1 Sn2 2.671339 1_555
Rh1 Sn8 2.671369 1_555
Rh1 Sn5 2.746758 1_555
Rh1 Sm4 3.307971 1_555
Rh1 Sm4 3.307971 1_554
Rh1 Sm0 3.519293 1_555
Rh1 Sm7 3.629049 1_554
Rh1 Sm7 3.629049 1_555
Rh2 Sn14 2.606447 1_554
Rh2 Sn14 2.606447 1_555
Rh2 Sn1 2.671339 1_555
Rh2 Sn10 2.671369 1_565
Rh2 Sn6 2.746758 1_555
Rh2 Sm3 3.307971 1_554
Rh2 Sm3 3.307971 1_555
Rh2 Sm1 3.519293 1_565
Rh2 Sm8 3.629049 1_565
Rh2 Sm8 3.629049 1_564
Rh3 Sn15 2.606447 1_555
Rh3 Sn15 2.606447 1_554
Rh3 Sn0 2.671339 1_555
Rh3 Sn11 2.671369 1_545
Rh3 Sn7 2.746758 1_555
Rh3 Sm2 3.307971 1_555
Rh3 Sm2 3.307971 1_554
Rh3 Sm1 3.519293 1_655
Rh3 Sm9 3.629049 1_544
Rh3 Sm9 3.629049 1_545
Rh4 Sn16 2.606447 1_554
Rh4 Sn16 2.606447 1_555
Rh4 Sn1 2.671339 1_555
Rh4 Sn4 2.671369 1_555
Rh4 Sn8 2.746758 1_555
Rh4 Sm3 3.307971 1_554
Rh4 Sm3 3.307971 1_555
Rh4 Sm0 3.519293 1_555
Rh4 Sm9 3.629049 1_554
Rh4 Sm9 3.629049 1_555
Rh5 Sn17 2.606447 1_554
Rh5 Sn17 2.606447 1_555
Rh5 Sn0 2.671339 1_555
Rh5 Sn5 2.671369 1_555
Rh5 Sn9 2.746758 1_555
Rh5 Sm2 3.307971 1_555
Rh5 Sm2 3.307971 1_554
Rh5 Sm0 3.519293 1_555
Rh5 Sm8 3.629049 1_555
Rh5 Sm8 3.629049 1_554
Rh6 Sn18 2.606447 1_554
Rh6 Sn18 2.606447 1_555
Rh6 Sn2 2.671339 1_555
Rh6 Sn7 2.671369 1_455
Rh6 Sn10 2.746758 1_555
Rh6 Sm4 3.307971 1_555
Rh6 Sm4 3.307971 1_554
Rh6 Sm1 3.519293 1_555
Rh6 Sm6 3.629049 1_454
Rh6 Sm6 3.629049 1_455
Rh7 Sn19 2.606447 1_554
Rh7 Sn19 2.606447 1_555
Rh7 Sn3 2.671339 1_555
Rh7 Sn6 2.671369 1_655
Rh7 Sn11 2.746758 1_555
Rh7 Sm5 3.307971 1_554
Rh7 Sm5 3.307971 1_555
Rh7 Sm1 3.519293 1_665
Rh7 Sm7 3.629049 1_655
Rh7 Sm7 3.629049 1_654
