# generated using pymatgen
data_CoP3
_symmetry_space_group_name_H-M   'P 1'
_cell_length_a   6.65377800
_cell_length_b   6.65377760
_cell_length_c   6.65377912
_cell_angle_alpha   109.47121597
_cell_angle_beta   109.47121469
_cell_angle_gamma   109.47122777
_symmetry_Int_Tables_number   1
_chemical_formula_structural   CoP3
_chemical_formula_sum   'Co4 P12'
_cell_volume   226.76869221
_cell_formula_units_Z   4
loop_
 _symmetry_equiv_pos_site_id
 _symmetry_equiv_pos_as_xyz
  1  'x, y, z'
loop_
 _atom_site_type_symbol
 _atom_site_label
 _atom_site_symmetry_multiplicity
 _atom_site_fract_x
 _atom_site_fract_y
 _atom_site_fract_z
 _atom_site_occupancy
  Co  Co0  1  0.50000000  -0.00000000  -0.00000000  1
  Co  Co1  1  -0.00000000  -0.00000000  0.50000000  1
  Co  Co2  1  -0.00000000  0.50000000  -0.00000000  1
  Co  Co3  1  0.50000000  0.50000000  0.50000000  1
  P  P0  1  0.50677732  0.85478845  0.65198988  1
  P  P1  1  0.20279857  0.85478845  0.34801012  1
  P  P2  1  0.79720143  0.14521155  0.65198988  1
  P  P3  1  0.14521155  0.34801012  0.49322268  1
  P  P4  1  0.49322268  0.14521155  0.34801012  1
  P  P5  1  0.14521155  0.65198988  0.79720143  1
  P  P6  1  0.34801012  0.20279857  0.85478845  1
  P  P7  1  0.85478845  0.65198988  0.50677732  1
  P  P8  1  0.65198988  0.79720143  0.14521155  1
  P  P9  1  0.85478845  0.34801012  0.20279857  1
  P  P10  1  0.65198988  0.50677732  0.85478845  1
  P  P11  1  0.34801012  0.49322268  0.14521155  1
loop_
_geom_bond_atom_site_label_1
_geom_bond_atom_site_label_2
_geom_bond_distance
_geom_bond_site_symmetry_2
Co0 P4 2.214637 1_555
Co0 P0 2.214637 1_544
Co0 P5 2.214640 1_544
Co0 P9 2.214640 1_555
Co0 P8 2.214640 1_545
Co0 P6 2.214640 1_554
Co1 P3 2.214636 1_555
Co1 P7 2.214636 1_445
Co1 P1 2.214640 1_545
Co1 P2 2.214640 1_455
Co1 P8 2.214641 1_445
Co1 P6 2.214641 1_555
Co2 P11 2.214637 1_555
Co2 P10 2.214637 1_454
Co2 P5 2.214640 1_554
Co2 P9 2.214640 1_455
Co2 P1 2.214640 1_555
Co2 P2 2.214640 1_454
Co3 P7 2.214643 1_555
Co3 P3 2.214643 1_555
Co3 P0 2.214643 1_555
Co3 P4 2.214643 1_555
Co3 P10 2.214644 1_555
Co3 P11 2.214644 1_555
P0 P2 2.231359 1_565
P0 P1 2.335510 1_555
P1 P4 2.231359 1_565
P2 P4 2.335510 1_555
P3 P9 2.231360 1_455
P3 P5 2.335510 1_555
P5 P7 2.231360 1_455
P7 P9 2.335510 1_555
P10 P8 2.231360 1_556
P10 P6 2.335509 1_555
P11 P6 2.231360 1_554
P11 P8 2.335509 1_555
