# generated using pymatgen
data_Nd2CoSi3
_symmetry_space_group_name_H-M   'P 1'
_cell_length_a   4.03276530
_cell_length_b   4.03276530
_cell_length_c   8.52753000
_cell_angle_alpha   90.00000000
_cell_angle_beta   90.00000000
_cell_angle_gamma   119.99998858
_symmetry_Int_Tables_number   1
_chemical_formula_structural   Nd2CoSi3
_chemical_formula_sum   'Nd2 Co1 Si3'
_cell_volume   120.10465321
_cell_formula_units_Z   1
loop_
 _symmetry_equiv_pos_site_id
 _symmetry_equiv_pos_as_xyz
  1  'x, y, z'
loop_
 _atom_site_type_symbol
 _atom_site_label
 _atom_site_symmetry_multiplicity
 _atom_site_fract_x
 _atom_site_fract_y
 _atom_site_fract_z
 _atom_site_occupancy
  Nd  Nd0  1  0.33333300  0.66666700  0.24668500  1
  Nd  Nd1  1  0.33333300  0.66666700  0.75331500  1
  Co  Co0  1  0.66666700  0.33333300  0.00000000  1
  Si  Si0  1  0.66666700  0.33333300  0.50000000  1
  Si  Si1  1  0.00000000  0.00000000  0.00000000  1
  Si  Si2  1  0.00000000  0.00000000  0.50000000  1
loop_
_geom_bond_atom_site_label_1
_geom_bond_atom_site_label_2
_geom_bond_distance
_geom_bond_site_symmetry_2
Nd0 Si1 3.137873 1_565
Nd0 Si1 3.137876 1_555
Nd0 Si1 3.137876 1_665
Nd0 Si2 3.176052 1_565
Nd0 Si0 3.176052 1_455
Nd0 Si0 3.176052 1_565
Nd0 Si2 3.176055 1_665
Nd0 Si2 3.176055 1_555
Nd0 Si0 3.176057 1_555
Nd1 Si1 3.137873 1_566
Nd1 Si1 3.137876 1_556
Nd1 Si1 3.137876 1_666
Nd1 Si2 3.176052 1_565
Nd1 Si0 3.176052 1_455
Nd1 Si0 3.176052 1_565
Nd1 Si2 3.176055 1_665
Nd1 Si2 3.176055 1_555
Nd1 Si0 3.176057 1_555
Co0 Si1 2.328316 1_655
Co0 Si1 2.328320 1_665
Co0 Si1 2.328320 1_555
Co0 Nd0 3.137873 1_545
Co0 Nd1 3.137873 1_544
Co0 Nd0 3.137873 1_655
Co0 Nd1 3.137873 1_654
Co0 Nd0 3.137878 1_555
Co0 Nd1 3.137878 1_554
Si0 Si2 2.328316 1_655
Si0 Si2 2.328320 1_665
Si0 Si2 2.328320 1_555
