# generated using pymatgen
data_Zr2In3
_symmetry_space_group_name_H-M   'P 1'
_cell_length_a   6.86791900
_cell_length_b   6.86791900
_cell_length_c   11.44791571
_cell_angle_alpha   107.45542208
_cell_angle_beta   107.45542208
_cell_angle_gamma   90.00000000
_symmetry_Int_Tables_number   1
_chemical_formula_structural   Zr2In3
_chemical_formula_sum   'Zr8 In12'
_cell_volume   488.98463920
_cell_formula_units_Z   4
loop_
 _symmetry_equiv_pos_site_id
 _symmetry_equiv_pos_as_xyz
  1  'x, y, z'
loop_
 _atom_site_type_symbol
 _atom_site_label
 _atom_site_symmetry_multiplicity
 _atom_site_fract_x
 _atom_site_fract_y
 _atom_site_fract_z
 _atom_site_occupancy
  Zr  Zr0  1  0.28845300  0.52026100  0.57690600  1
  Zr  Zr1  1  0.28845300  0.05664500  0.57690600  1
  Zr  Zr2  1  0.30664500  0.03845300  0.07690600  1
  Zr  Zr3  1  0.96154700  0.69335500  0.92309400  1
  Zr  Zr4  1  0.96154700  0.22973900  0.92309400  1
  Zr  Zr5  1  0.77026100  0.03845300  0.07690600  1
  Zr  Zr6  1  0.94335500  0.71154700  0.42309400  1
  Zr  Zr7  1  0.47973900  0.71154700  0.42309400  1
  In  In0  1  0.80401900  0.08614200  0.60803900  1
  In  In1  1  0.80401900  0.52189600  0.60803900  1
  In  In2  1  0.77189600  0.55401900  0.10803900  1
  In  In3  1  0.44598100  0.22810400  0.89196100  1
  In  In4  1  0.44598100  0.66385800  0.89196100  1
  In  In5  1  0.33614200  0.55401900  0.10803900  1
  In  In6  1  0.47810400  0.19598100  0.39196100  1
  In  In7  1  0.91385800  0.19598100  0.39196100  1
  In  In8  1  0.12500000  0.37500000  0.25000000  1
  In  In9  1  0.12500000  0.87500000  0.25000000  1
  In  In10  1  0.12500000  0.87500000  0.75000000  1
  In  In11  1  0.62500000  0.87500000  0.75000000  1
loop_
_geom_bond_atom_site_label_1
_geom_bond_atom_site_label_2
_geom_bond_distance
_geom_bond_site_symmetry_2
Zr0 Zr7 3.054161 1_555
Zr0 Zr6 3.054161 1_455
Zr0 Zr1 3.184077 1_555
Zr1 Zr7 3.054161 1_545
Zr1 Zr6 3.054161 1_445
Zr2 Zr4 3.054161 1_454
Zr2 Zr3 3.054161 1_444
Zr2 Zr5 3.184077 1_555
Zr3 Zr5 3.054161 1_566
Zr3 Zr4 3.184077 1_555
Zr4 Zr5 3.054161 1_556
Zr6 Zr7 3.184077 1_555
In0 In11 2.977940 1_545
In0 In10 2.977944 1_645
In0 In1 2.992723 1_555
In0 In6 3.081553 1_555
In0 In7 3.081559 1_555
In0 Zr7 3.156714 1_545
In0 Zr6 3.156718 1_545
In0 Zr4 3.267514 1_555
In0 Zr1 3.450417 1_555
In0 Zr1 3.450423 1_655
In1 In11 2.977945 1_555
In1 In10 2.977949 1_655
In1 In6 3.081546 1_555
In1 In7 3.081553 1_555
In1 Zr7 3.156718 1_555
In1 Zr6 3.156722 1_555
In1 Zr3 3.267515 1_555
In1 Zr0 3.450417 1_555
In1 Zr0 3.450424 1_655
In2 In8 2.977945 1_655
In2 In9 2.977949 1_655
In2 In5 2.992723 1_555
In2 In3 3.081546 1_554
In2 In4 3.081553 1_554
In2 Zr4 3.156718 1_554
In2 Zr3 3.156722 1_554
In2 Zr6 3.267515 1_555
In2 Zr5 3.450417 1_555
In2 Zr5 3.450424 1_565
In3 In4 2.992723 1_555
In3 In5 3.081553 1_556
In3 Zr5 3.156718 1_556
In3 Zr2 3.156722 1_556
In3 Zr1 3.267515 1_555
In3 Zr4 3.450417 1_555
In3 Zr4 3.450424 1_455
In4 In5 3.081559 1_556
In4 Zr5 3.156714 1_566
In4 Zr2 3.156718 1_566
In4 Zr0 3.267514 1_555
In4 Zr3 3.450417 1_555
In4 Zr3 3.450423 1_455
In5 In8 2.977940 1_555
In5 In9 2.977944 1_555
In5 Zr4 3.156714 1_454
In5 Zr3 3.156718 1_454
In5 Zr7 3.267514 1_555
In5 Zr2 3.450417 1_555
In5 Zr2 3.450423 1_565
In6 In8 2.977945 1_555
In6 In9 2.977949 1_545
In6 In7 2.992723 1_555
In6 Zr0 3.156718 1_555
In6 Zr1 3.156722 1_555
In6 Zr2 3.267515 1_555
In6 Zr7 3.450417 1_555
In6 Zr7 3.450424 1_545
In7 In8 2.977940 1_655
In7 In9 2.977944 1_645
In7 Zr0 3.156714 1_655
In7 Zr1 3.156718 1_655
In7 Zr5 3.267514 1_555
In7 Zr6 3.450417 1_555
In7 Zr6 3.450423 1_545
In8 Zr6 3.092034 1_455
In8 Zr2 3.092034 1_555
In8 Zr7 3.092035 1_555
In8 Zr5 3.092035 1_455
In8 Zr4 3.391273 1_454
In8 Zr0 3.391273 1_555
In9 Zr6 3.092034 1_455
In9 Zr2 3.092034 1_565
In9 Zr7 3.092034 1_555
In9 Zr5 3.092034 1_465
In9 Zr1 3.391273 1_565
In9 Zr3 3.391273 1_454
In10 In4 2.977944 1_555
In10 In3 2.977949 1_565
In10 Zr3 3.092034 1_455
In10 Zr1 3.092034 1_565
In10 Zr4 3.092034 1_465
In10 Zr0 3.092034 1_555
In10 Zr2 3.391273 1_566
In10 Zr6 3.391273 1_455
In11 In4 2.977940 1_555
In11 In3 2.977945 1_565
In11 Zr3 3.092034 1_555
In11 Zr1 3.092034 1_565
In11 Zr4 3.092035 1_565
In11 Zr0 3.092035 1_555
In11 Zr5 3.391273 1_566
In11 Zr7 3.391273 1_555
