# generated using pymatgen
data_Fe3O4
_symmetry_space_group_name_H-M   'P 1'
_cell_length_a   2.93317600
_cell_length_b   9.86818600
_cell_length_c   9.99333573
_cell_angle_alpha   89.96632201
_cell_angle_beta   90.00000000
_cell_angle_gamma   90.00000000
_symmetry_Int_Tables_number   1
_chemical_formula_structural   Fe3O4
_chemical_formula_sum   'Fe12 O16'
_cell_volume   289.25831518
_cell_formula_units_Z   4
loop_
 _symmetry_equiv_pos_site_id
 _symmetry_equiv_pos_as_xyz
  1  'x, y, z'
loop_
 _atom_site_type_symbol
 _atom_site_label
 _atom_site_symmetry_multiplicity
 _atom_site_fract_x
 _atom_site_fract_y
 _atom_site_fract_z
 _atom_site_occupancy
  Fe  Fe0  1  0.27192800  0.86763400  0.73717700  1
  Fe  Fe1  1  0.26018400  0.63014400  0.26087700  1
  Fe  Fe2  1  0.73981600  0.13014400  0.26087700  1
  Fe  Fe3  1  0.72807200  0.36763400  0.73717700  1
  Fe  Fe4  1  0.23936000  0.12304100  0.57463300  1
  Fe  Fe5  1  0.76064000  0.62304100  0.57463300  1
  Fe  Fe6  1  0.76090300  0.61644600  0.92377100  1
  Fe  Fe7  1  0.75163600  0.88270000  0.42488300  1
  Fe  Fe8  1  0.75054900  0.87851700  0.07116200  1
  Fe  Fe9  1  0.24836400  0.38270000  0.42488300  1
  Fe  Fe10  1  0.23909700  0.11644600  0.92377100  1
  Fe  Fe11  1  0.24945100  0.37851700  0.07116200  1
  O  O0  1  0.75723600  0.53915200  0.37739700  1
  O  O1  1  0.73950300  0.97886500  0.89056600  1
  O  O2  1  0.75354000  0.51946300  0.11865500  1
  O  O3  1  0.24276400  0.03915200  0.37739700  1
  O  O4  1  0.26049700  0.47886500  0.89056600  1
  O  O5  1  0.24646000  0.01946300  0.11865500  1
  O  O6  1  0.25694100  0.48230300  0.61260700  1
  O  O7  1  0.74305900  0.98230300  0.61260700  1
  O  O8  1  0.75883100  0.77459400  0.24580200  1
  O  O9  1  0.22475300  0.21300000  0.75374200  1
  O  O10  1  0.77524700  0.71300000  0.75374200  1
  O  O11  1  0.24116900  0.27459400  0.24580200  1
  O  O12  1  0.74381500  0.24837100  0.00382400  1
  O  O13  1  0.25900900  0.74577200  0.50490300  1
  O  O14  1  0.74099100  0.24577200  0.50490300  1
  O  O15  1  0.25618500  0.74837100  0.00382400  1
loop_
_geom_bond_atom_site_label_1
_geom_bond_atom_site_label_2
_geom_bond_distance
_geom_bond_site_symmetry_2
Fe0 O10 2.116145 1_455
Fe0 O10 2.129597 1_555
Fe0 O7 2.176737 1_555
Fe0 O7 2.287998 1_455
Fe0 O1 2.331834 1_555
Fe0 O1 2.448548 1_455
Fe0 O13 2.615109 1_555
Fe1 O8 2.047836 1_555
Fe1 O8 2.053513 1_455
Fe1 O0 2.070390 1_555
Fe1 O0 2.082605 1_455
Fe1 O2 2.304102 1_555
Fe1 O2 2.328778 1_455
Fe2 O11 2.047836 1_555
Fe2 O11 2.053513 1_655
Fe2 O3 2.070390 1_555
Fe2 O3 2.082605 1_655
Fe2 O5 2.304102 1_555
Fe2 O5 2.328778 1_655
Fe3 O9 2.116145 1_655
Fe3 O9 2.129597 1_555
Fe3 O6 2.176737 1_555
Fe3 O6 2.287998 1_655
Fe3 O4 2.331834 1_555
Fe3 O4 2.448548 1_655
Fe3 O14 2.615109 1_555
Fe4 O9 1.998875 1_555
Fe4 O14 2.021954 1_455
Fe4 O14 2.028883 1_555
Fe4 O7 2.047293 1_445
Fe4 O7 2.062779 1_545
Fe4 O3 2.138304 1_555
Fe5 O10 1.998875 1_555
Fe5 O13 2.021954 1_655
Fe5 O13 2.028883 1_555
Fe5 O6 2.047293 1_655
Fe5 O6 2.062779 1_555
Fe5 O0 2.138304 1_555
Fe6 O10 1.948038 1_555
Fe6 O4 2.025169 1_655
Fe6 O4 2.026893 1_555
Fe6 O15 2.108682 1_656
Fe6 O15 2.127845 1_556
Fe6 O2 2.169592 1_556
Fe7 O8 2.084107 1_555
Fe7 O7 2.118544 1_555
Fe7 O13 2.133527 1_555
Fe7 O13 2.163054 1_655
Fe7 O3 2.164065 1_665
Fe7 O3 2.199054 1_565
Fe8 O8 2.023870 1_555
Fe8 O15 2.050843 1_555
Fe8 O1 2.058323 1_554
Fe8 O5 2.067953 1_665
Fe8 O15 2.074352 1_655
Fe8 O5 2.084895 1_565
Fe9 O11 2.084107 1_555
Fe9 O6 2.118544 1_555
Fe9 O14 2.133527 1_555
Fe9 O14 2.163054 1_455
Fe9 O0 2.164065 1_455
Fe9 O0 2.199054 1_555
Fe10 O9 1.948038 1_555
Fe10 O1 2.025169 1_445
Fe10 O1 2.026893 1_545
Fe10 O12 2.108682 1_456
Fe10 O12 2.127845 1_556
Fe10 O5 2.169592 1_556
Fe11 O11 2.023870 1_555
Fe11 O12 2.050843 1_555
Fe11 O4 2.058323 1_554
Fe11 O2 2.067953 1_455
Fe11 O12 2.074352 1_455
Fe11 O2 2.084895 1_555
