# generated using pymatgen
data_Cd5(SiO5)2
_symmetry_space_group_name_H-M   'P 1'
_cell_length_a   5.01266800
_cell_length_b   11.41202100
_cell_length_c   17.57364035
_cell_angle_alpha   70.59276961
_cell_angle_beta   90.00000000
_cell_angle_gamma   90.00000000
_symmetry_Int_Tables_number   1
_chemical_formula_structural   Cd5(SiO5)2
_chemical_formula_sum   'Cd20 Si8 O40'
_cell_volume   948.17425375
_cell_formula_units_Z   4
loop_
 _symmetry_equiv_pos_site_id
 _symmetry_equiv_pos_as_xyz
  1  'x, y, z'
loop_
 _atom_site_type_symbol
 _atom_site_label
 _atom_site_symmetry_multiplicity
 _atom_site_fract_x
 _atom_site_fract_y
 _atom_site_fract_z
 _atom_site_occupancy
  Cd  Cd0  1  0.50000000  0.50000000  0.00000000  1
  Cd  Cd1  1  0.00000000  0.00000000  0.00000000  1
  Cd  Cd2  1  0.00000000  0.50000000  0.50000000  1
  Cd  Cd3  1  0.50000000  0.00000000  0.50000000  1
  Cd  Cd4  1  0.49070700  0.26950400  0.90034800  1
  Cd  Cd5  1  0.99070700  0.23049600  0.09965200  1
  Cd  Cd6  1  0.50929300  0.73049600  0.09965200  1
  Cd  Cd7  1  0.00929300  0.76950400  0.90034800  1
  Cd  Cd8  1  0.51513000  0.23570300  0.60015900  1
  Cd  Cd9  1  0.01513000  0.26429700  0.39984100  1
  Cd  Cd10  1  0.48487000  0.76429700  0.39984100  1
  Cd  Cd11  1  0.98487000  0.73570300  0.60015900  1
  Cd  Cd12  1  0.98580400  0.40756600  0.71197800  1
  Cd  Cd13  1  0.48580400  0.09243400  0.28802200  1
  Cd  Cd14  1  0.01419600  0.59243400  0.28802200  1
  Cd  Cd15  1  0.51419600  0.90756600  0.71197800  1
  Cd  Cd16  1  0.02246700  0.10271100  0.78755500  1
  Cd  Cd17  1  0.52246700  0.39728900  0.21244500  1
  Cd  Cd18  1  0.97753300  0.89728900  0.21244500  1
  Cd  Cd19  1  0.47753300  0.60271100  0.78755500  1
  Si  Si0  1  0.92448500  0.45950700  0.89800700  1
  Si  Si1  1  0.42448500  0.04049300  0.10199300  1
  Si  Si2  1  0.07551500  0.54049300  0.10199300  1
  Si  Si3  1  0.57551500  0.95950700  0.89800700  1
  Si  Si4  1  0.07527100  0.04731000  0.59993500  1
  Si  Si5  1  0.57527100  0.45269000  0.40006500  1
  Si  Si6  1  0.92472900  0.95269000  0.40006500  1
  Si  Si7  1  0.42472900  0.54731000  0.59993500  1
  O  O0  1  0.78304400  0.43843400  0.81828500  1
  O  O1  1  0.28304400  0.06156600  0.18171500  1
  O  O2  1  0.21695600  0.56156600  0.18171500  1
  O  O3  1  0.71695600  0.93843400  0.81828500  1
  O  O4  1  0.21543700  0.07275400  0.67860800  1
  O  O5  1  0.71543700  0.42724600  0.32139200  1
  O  O6  1  0.78456300  0.92724600  0.32139200  1
  O  O7  1  0.28456300  0.57275400  0.67860800  1
  O  O8  1  0.70333000  0.09187400  0.90215400  1
  O  O9  1  0.20333000  0.40812600  0.09784600  1
  O  O10  1  0.29667000  0.90812600  0.09784600  1
  O  O11  1  0.79667000  0.59187400  0.90215400  1
  O  O12  1  0.29911200  0.41327400  0.59803900  1
  O  O13  1  0.79911200  0.08672600  0.40196100  1
  O  O14  1  0.70088800  0.58672600  0.40196100  1
  O  O15  1  0.20088800  0.91327400  0.59803900  1
  O  O16  1  0.79749700  0.34837000  0.97695800  1
  O  O17  1  0.29749700  0.15163000  0.02304200  1
  O  O18  1  0.20250300  0.65163000  0.02304200  1
  O  O19  1  0.70250300  0.84837000  0.97695800  1
  O  O20  1  0.20826900  0.15485400  0.52068400  1
  O  O21  1  0.70826900  0.34514600  0.47931600  1
  O  O22  1  0.79173100  0.84514600  0.47931600  1
  O  O23  1  0.29173100  0.65485400  0.52068400  1
  O  O24  1  0.74767600  0.04754800  0.60268000  1
  O  O25  1  0.24767600  0.45245200  0.39732000  1
  O  O26  1  0.25232400  0.95245200  0.39732000  1
  O  O27  1  0.75232400  0.54754800  0.60268000  1
  O  O28  1  0.25212900  0.45894700  0.89480700  1
  O  O29  1  0.75212900  0.04105300  0.10519300  1
  O  O30  1  0.74787100  0.54105300  0.10519300  1
  O  O31  1  0.24787100  0.95894700  0.89480700  1
  O  O32  1  0.26910500  0.26335400  0.79119500  1
  O  O33  1  0.76910500  0.23664600  0.20880500  1
  O  O34  1  0.73089500  0.73664600  0.20880500  1
  O  O35  1  0.23089500  0.76335400  0.79119500  1
  O  O36  1  0.74043600  0.24663300  0.70830700  1
  O  O37  1  0.24043600  0.25336700  0.29169300  1
  O  O38  1  0.25956400  0.75336700  0.29169300  1
  O  O39  1  0.75956400  0.74663300  0.70830700  1
loop_
_geom_bond_atom_site_label_1
_geom_bond_atom_site_label_2
_geom_bond_distance
_geom_bond_site_symmetry_2
Cd0 O11 2.251530 1_554
Cd0 O9 2.251530 1_555
Cd0 O30 2.399220 1_555
Cd0 O28 2.399220 1_554
Cd0 O16 2.418215 1_554
Cd0 O18 2.418215 1_555
Cd1 O8 2.251530 1_454
Cd1 O10 2.251530 1_545
Cd1 O29 2.399220 1_455
Cd1 O31 2.399220 1_544
Cd1 O19 2.418215 1_444
Cd1 O17 2.418215 1_555
Cd2 O12 2.250063 1_555
Cd2 O14 2.250063 1_455
Cd2 O27 2.396367 1_455
Cd2 O25 2.396367 1_555
Cd2 O23 2.412565 1_555
Cd2 O21 2.412565 1_455
Cd3 O15 2.250063 1_545
Cd3 O13 2.250063 1_555
Cd3 O26 2.396367 1_545
Cd3 O24 2.396367 1_555
Cd3 O20 2.412565 1_555
Cd3 O22 2.412565 1_545
Cd4 O32 2.237825 1_555
Cd4 O8 2.281097 1_555
Cd4 O17 2.338608 1_556
Cd4 O16 2.406824 1_555
Cd4 O28 2.444119 1_555
Cd4 O0 2.469021 1_555
Cd5 O33 2.237825 1_555
Cd5 O9 2.281097 1_655
Cd5 O16 2.338608 1_554
Cd5 O17 2.406824 1_655
Cd5 O29 2.444119 1_555
Cd5 O1 2.469021 1_655
Cd6 O34 2.237825 1_555
Cd6 O10 2.281097 1_555
Cd6 O19 2.338608 1_554
Cd6 O18 2.406824 1_555
Cd6 O30 2.444119 1_555
Cd6 O2 2.469021 1_555
Cd7 O35 2.237825 1_555
Cd7 O11 2.281097 1_455
Cd7 O18 2.338608 1_556
Cd7 O19 2.406824 1_455
Cd7 O31 2.444119 1_555
Cd7 O3 2.469021 1_455
Cd8 O36 2.249603 1_555
Cd8 O12 2.286964 1_555
Cd8 O21 2.290077 1_555
Cd8 O24 2.430666 1_555
Cd8 O4 2.431405 1_555
Cd8 O20 2.454459 1_555
Cd9 O37 2.249603 1_555
Cd9 O13 2.286964 1_455
Cd9 O20 2.290077 1_555
Cd9 O25 2.430666 1_555
Cd9 O5 2.431405 1_455
Cd9 O21 2.454459 1_455
Cd10 O38 2.249603 1_555
Cd10 O14 2.286964 1_555
Cd10 O23 2.290077 1_555
Cd10 O26 2.430666 1_555
Cd10 O6 2.431405 1_555
Cd10 O22 2.454459 1_555
Cd11 O39 2.249603 1_555
Cd11 O15 2.286964 1_655
Cd11 O22 2.290077 1_555
Cd11 O27 2.430666 1_555
Cd11 O7 2.431405 1_655
Cd11 O23 2.454459 1_655
Cd12 O36 2.229050 1_555
Cd12 O0 2.254911 1_555
Cd12 O32 2.267293 1_655
Cd12 O7 2.325013 1_655
Cd12 O27 2.360484 1_555
Cd12 O12 2.528509 1_655
Cd13 O37 2.229050 1_555
Cd13 O1 2.254911 1_555
Cd13 O33 2.267293 1_555
Cd13 O6 2.325013 1_545
Cd13 O26 2.360484 1_545
Cd13 O13 2.528509 1_555
Cd14 O38 2.229050 1_555
Cd14 O2 2.254911 1_555
Cd14 O34 2.267293 1_455
Cd14 O5 2.325013 1_455
Cd14 O25 2.360484 1_555
Cd14 O14 2.528509 1_455
Cd15 O39 2.229050 1_555
Cd15 O3 2.254911 1_555
Cd15 O35 2.267293 1_555
Cd15 O4 2.325013 1_565
Cd15 O24 2.360484 1_565
Cd15 O15 2.528509 1_555
Cd16 O32 2.229651 1_555
Cd16 O36 2.261786 1_455
Cd16 O4 2.270064 1_555
Cd16 O31 2.337905 1_545
Cd16 O3 2.340664 1_445
Cd16 O8 2.542594 1_455
Cd17 O33 2.229651 1_555
Cd17 O37 2.261786 1_555
Cd17 O5 2.270064 1_555
Cd17 O30 2.337905 1_555
Cd17 O2 2.340664 1_555
Cd17 O9 2.542594 1_555
Cd18 O34 2.229651 1_555
Cd18 O38 2.261786 1_655
Cd18 O6 2.270064 1_555
Cd18 O29 2.337905 1_565
Cd18 O1 2.340664 1_665
Cd18 O10 2.542594 1_655
Cd19 O35 2.229651 1_555
Cd19 O39 2.261786 1_555
Cd19 O7 2.270064 1_555
Cd19 O28 2.337905 1_555
Cd19 O0 2.340664 1_555
Cd19 O11 2.542594 1_555
O0 Si0 1.657477 1_555
O1 Si1 1.657477 1_555
O2 Si2 1.657477 1_555
O3 Si3 1.657477 1_555
O4 Si4 1.660199 1_555
O5 Si5 1.660199 1_555
O6 Si6 1.660199 1_555
O7 Si7 1.660199 1_555
O8 Si3 1.664571 1_545
O9 Si2 1.664571 1_555
O10 Si1 1.664571 1_565
O11 Si0 1.664571 1_555
O12 Si7 1.664697 1_555
O13 Si6 1.664697 1_545
O14 Si5 1.664697 1_555
O15 Si4 1.664697 1_565
O16 Si0 1.664144 1_555
O17 Si1 1.664144 1_555
O18 Si2 1.664144 1_555
O19 Si3 1.664144 1_555
O20 Si4 1.659661 1_555
O21 Si5 1.659661 1_555
O22 Si6 1.659661 1_555
O23 Si7 1.659661 1_555
O24 Si4 1.642862 1_655
O25 Si5 1.642862 1_555
O26 Si6 1.642862 1_455
O27 Si7 1.642862 1_555
O28 Si0 1.643418 1_455
O29 Si1 1.643418 1_555
O30 Si2 1.643418 1_655
O31 Si3 1.643418 1_555
