# generated using pymatgen
data_BaYFeO4
_symmetry_space_group_name_H-M   'P 1'
_cell_length_a   5.75935900
_cell_length_b   10.38314100
_cell_length_c   13.35618300
_cell_angle_alpha   90.00000000
_cell_angle_beta   90.00000000
_cell_angle_gamma   90.00000000
_symmetry_Int_Tables_number   1
_chemical_formula_structural   BaYFeO4
_chemical_formula_sum   'Ba8 Y8 Fe8 O32'
_cell_volume   798.70290303
_cell_formula_units_Z   8
loop_
 _symmetry_equiv_pos_site_id
 _symmetry_equiv_pos_as_xyz
  1  'x, y, z'
loop_
 _atom_site_type_symbol
 _atom_site_label
 _atom_site_symmetry_multiplicity
 _atom_site_fract_x
 _atom_site_fract_y
 _atom_site_fract_z
 _atom_site_occupancy
  Ba  Ba0  1  0.25000000  0.82634100  0.71252800  1
  Ba  Ba1  1  0.25000000  0.67365900  0.21252800  1
  Ba  Ba2  1  0.75000000  0.17365900  0.28747200  1
  Ba  Ba3  1  0.75000000  0.32634100  0.78747200  1
  Ba  Ba4  1  0.25000000  0.10295700  0.91581100  1
  Ba  Ba5  1  0.25000000  0.39704300  0.41581100  1
  Ba  Ba6  1  0.75000000  0.89704300  0.08418900  1
  Ba  Ba7  1  0.75000000  0.60295700  0.58418900  1
  Y  Y0  1  0.25000000  0.48546600  0.91535200  1
  Y  Y1  1  0.25000000  0.01453400  0.41535200  1
  Y  Y2  1  0.75000000  0.51453400  0.08464800  1
  Y  Y3  1  0.75000000  0.98546600  0.58464800  1
  Y  Y4  1  0.25000000  0.19038100  0.64326300  1
  Y  Y5  1  0.25000000  0.30961900  0.14326300  1
  Y  Y6  1  0.75000000  0.80961900  0.35673700  1
  Y  Y7  1  0.75000000  0.69038100  0.85673700  1
  Fe  Fe0  1  0.25000000  0.78320100  0.96912600  1
  Fe  Fe1  1  0.25000000  0.71679900  0.46912600  1
  Fe  Fe2  1  0.75000000  0.21679900  0.03087400  1
  Fe  Fe3  1  0.75000000  0.28320100  0.53087400  1
  Fe  Fe4  1  0.25000000  0.47689000  0.69249300  1
  Fe  Fe5  1  0.25000000  0.02311000  0.19249300  1
  Fe  Fe6  1  0.75000000  0.52311000  0.30750700  1
  Fe  Fe7  1  0.75000000  0.97689000  0.80750700  1
  O  O0  1  0.25000000  0.88146600  0.08831900  1
  O  O1  1  0.25000000  0.61853400  0.58831900  1
  O  O2  1  0.75000000  0.11853400  0.91168100  1
  O  O3  1  0.75000000  0.38146600  0.41168100  1
  O  O4  1  0.25000000  0.31895500  0.79036600  1
  O  O5  1  0.25000000  0.18104500  0.29036600  1
  O  O6  1  0.75000000  0.68104500  0.20963400  1
  O  O7  1  0.75000000  0.81895500  0.70963400  1
  O  O8  1  0.50966500  0.13963900  0.50703600  1
  O  O9  1  0.99033500  0.36036100  0.00703600  1
  O  O10  1  0.00966500  0.86036100  0.49296400  1
  O  O11  1  0.49033500  0.63963900  0.99296400  1
  O  O12  1  0.49033500  0.86036100  0.49296400  1
  O  O13  1  0.00966500  0.63963900  0.99296400  1
  O  O14  1  0.99033500  0.13963900  0.50703600  1
  O  O15  1  0.50966500  0.36036100  0.00703600  1
  O  O16  1  0.51000200  0.05801700  0.71720600  1
  O  O17  1  0.98999800  0.44198300  0.21720600  1
  O  O18  1  0.01000200  0.94198300  0.28279400  1
  O  O19  1  0.48999800  0.55801700  0.78279400  1
  O  O20  1  0.48999800  0.94198300  0.28279400  1
  O  O21  1  0.01000200  0.55801700  0.78279400  1
  O  O22  1  0.98999800  0.05801700  0.71720600  1
  O  O23  1  0.51000200  0.44198300  0.21720600  1
  O  O24  1  0.99911800  0.36780700  0.61113500  1
  O  O25  1  0.50088200  0.13219300  0.11113500  1
  O  O26  1  0.49911800  0.63219300  0.38886500  1
  O  O27  1  0.00088200  0.86780700  0.88886500  1
  O  O28  1  0.00088200  0.63219300  0.38886500  1
  O  O29  1  0.49911800  0.86780700  0.88886500  1
  O  O30  1  0.50088200  0.36780700  0.61113500  1
  O  O31  1  0.99911800  0.13219300  0.11113500  1
loop_
_geom_bond_atom_site_label_1
_geom_bond_atom_site_label_2
_geom_bond_distance
_geom_bond_site_symmetry_2
Ba0 O1 2.721721 1_555
Ba0 O27 2.791205 1_555
Ba0 O29 2.791205 1_555
Ba0 O16 2.834218 1_565
Ba0 O22 2.834218 1_465
Ba0 O7 2.880960 1_455
Ba0 O7 2.880960 1_555
Ba0 O19 3.248597 1_555
Ba0 O21 3.248597 1_555
Ba0 O10 3.261976 1_555
Ba0 O12 3.261976 1_555
Ba1 O0 2.721721 1_555
Ba1 O28 2.791205 1_555
Ba1 O26 2.791205 1_555
Ba1 O17 2.834218 1_455
Ba1 O23 2.834218 1_555
Ba1 O6 2.880960 1_455
Ba1 O6 2.880960 1_555
Ba1 O20 3.248597 1_555
Ba1 O18 3.248597 1_555
Ba1 O13 3.261976 1_554
Ba1 O11 3.261976 1_554
Ba2 O3 2.721721 1_555
Ba2 O31 2.791205 1_555
Ba2 O25 2.791205 1_555
Ba2 O20 2.834218 1_545
Ba2 O18 2.834218 1_645
Ba2 O5 2.880960 1_555
Ba2 O5 2.880960 1_655
Ba2 O23 3.248597 1_555
Ba2 O17 3.248597 1_555
Ba2 O14 3.261976 1_555
Ba2 O8 3.261976 1_555
Ba3 O2 2.721721 1_555
Ba3 O30 2.791205 1_555
Ba3 O24 2.791205 1_555
Ba3 O21 2.834218 1_655
Ba3 O19 2.834218 1_555
Ba3 O4 2.880960 1_555
Ba3 O4 2.880960 1_655
Ba3 O22 3.248597 1_555
Ba3 O16 3.248597 1_555
Ba3 O9 3.261976 1_556
Ba3 O15 3.261976 1_556
Ba4 O4 2.799475 1_555
Ba4 O29 2.854724 1_545
Ba4 O27 2.854724 1_545
Ba4 O2 2.884745 1_455
Ba4 O2 2.884745 1_555
Ba4 O25 2.997614 1_556
Ba4 O31 2.997614 1_456
Ba4 O16 3.081621 1_555
Ba4 O22 3.081621 1_455
Ba4 O0 3.255394 1_546
Ba4 O9 3.296088 1_456
Ba4 O15 3.296088 1_556
Ba5 O5 2.799475 1_555
Ba5 O28 2.854724 1_555
Ba5 O26 2.854724 1_555
Ba5 O3 2.884745 1_455
Ba5 O3 2.884745 1_555
Ba5 O24 2.997614 1_455
Ba5 O30 2.997614 1_555
Ba5 O23 3.081621 1_555
Ba5 O17 3.081621 1_455
Ba5 O1 3.255394 1_555
Ba5 O14 3.296088 1_455
Ba5 O8 3.296088 1_555
Ba6 O6 2.799475 1_555
Ba6 O25 2.854724 1_565
Ba6 O31 2.854724 1_565
Ba6 O0 2.884745 1_555
Ba6 O0 2.884745 1_655
Ba6 O29 2.997614 1_554
Ba6 O27 2.997614 1_654
Ba6 O20 3.081621 1_555
Ba6 O18 3.081621 1_655
Ba6 O2 3.255394 1_564
Ba6 O11 3.296088 1_554
Ba6 O13 3.296088 1_654
Ba7 O7 2.799475 1_555
Ba7 O24 2.854724 1_555
Ba7 O30 2.854724 1_555
Ba7 O1 2.884745 1_555
Ba7 O1 2.884745 1_655
Ba7 O28 2.997614 1_655
Ba7 O26 2.997614 1_555
Ba7 O19 3.081621 1_555
Ba7 O21 3.081621 1_655
Ba7 O3 3.255394 1_555
Ba7 O12 3.296088 1_555
Ba7 O10 3.296088 1_655
Fe0 O0 1.890862 1_556
Fe0 O27 1.994843 1_555
Fe0 O29 1.994843 1_555
Fe0 O13 2.058949 1_555
Fe0 O11 2.058949 1_555
Fe1 O1 1.890862 1_555
Fe1 O28 1.994843 1_555
Fe1 O26 1.994843 1_555
Fe1 O12 2.058949 1_555
Fe1 O10 2.058949 1_555
Fe2 O2 1.890862 1_554
Fe2 O31 1.994843 1_555
Fe2 O25 1.994843 1_555
Fe2 O9 2.058949 1_555
Fe2 O15 2.058949 1_555
Fe3 O3 1.890862 1_555
Fe3 O24 1.994843 1_555
Fe3 O30 1.994843 1_555
Fe3 O8 2.058949 1_555
Fe3 O14 2.058949 1_555
Fe4 O19 2.018602 1_555
Fe4 O21 2.018602 1_555
Fe4 O1 2.024571 1_555
Fe4 O4 2.097127 1_555
Fe4 O30 2.133401 1_555
Fe4 O24 2.133401 1_455
Fe5 O18 2.018602 1_545
Fe5 O20 2.018602 1_545
Fe5 O0 2.024571 1_545
Fe5 O5 2.097127 1_555
Fe5 O31 2.133401 1_455
Fe5 O25 2.133401 1_555
Fe6 O23 2.018602 1_555
Fe6 O17 2.018602 1_555
Fe6 O3 2.024571 1_555
Fe6 O6 2.097127 1_555
Fe6 O26 2.133401 1_555
Fe6 O28 2.133401 1_655
Fe7 O22 2.018602 1_565
Fe7 O16 2.018602 1_565
Fe7 O2 2.024571 1_565
Fe7 O7 2.097127 1_555
Fe7 O29 2.133401 1_555
Fe7 O27 2.133401 1_655
O4 Y4 2.375376 1_555
O4 Y0 2.403290 1_555
O5 Y5 2.375376 1_555
O5 Y1 2.403290 1_555
O6 Y6 2.375376 1_555
O6 Y2 2.403290 1_555
O7 Y7 2.375376 1_555
O7 Y3 2.403290 1_555
O8 Y1 2.328821 1_555
O8 Y3 2.356489 1_545
O8 Y4 2.413420 1_555
O9 Y0 2.328821 1_654
O9 Y2 2.356489 1_555
O9 Y5 2.413420 1_655
O10 Y3 2.328821 1_455
O10 Y1 2.356489 1_565
O10 Y6 2.413420 1_455
O11 Y2 2.328821 1_556
O11 Y0 2.356489 1_555
O11 Y7 2.413420 1_555
O12 Y3 2.328821 1_555
O12 Y1 2.356489 1_565
O12 Y6 2.413420 1_555
O13 Y2 2.328821 1_456
O13 Y0 2.356489 1_555
O13 Y7 2.413420 1_455
O14 Y1 2.328821 1_655
O14 Y3 2.356489 1_545
O14 Y4 2.413420 1_655
O15 Y0 2.328821 1_554
O15 Y2 2.356489 1_555
O15 Y5 2.413420 1_555
O16 Y4 2.259765 1_555
O16 Y3 2.369094 1_545
O17 Y5 2.259765 1_655
O17 Y2 2.369094 1_555
O18 Y6 2.259765 1_455
O18 Y1 2.369094 1_565
O19 Y7 2.259765 1_555
O19 Y0 2.369094 1_555
O20 Y6 2.259765 1_555
O20 Y1 2.369094 1_565
O21 Y7 2.259765 1_455
O21 Y0 2.369094 1_555
O22 Y4 2.259765 1_655
O22 Y3 2.369094 1_545
O23 Y5 2.259765 1_555
O23 Y2 2.369094 1_555
O24 Y4 2.380288 1_655
O25 Y5 2.380288 1_555
O26 Y6 2.380288 1_555
O27 Y7 2.380288 1_455
O28 Y6 2.380288 1_455
O29 Y7 2.380288 1_555
O30 Y4 2.380288 1_555
O31 Y5 2.380288 1_655
