# generated using pymatgen
data_NdCuPbC3O11
_symmetry_space_group_name_H-M   'P 1'
_cell_length_a   6.43448800
_cell_length_b   7.56127000
_cell_length_c   19.09513600
_cell_angle_alpha   90.00000000
_cell_angle_beta   90.00000000
_cell_angle_gamma   90.00000000
_symmetry_Int_Tables_number   1
_chemical_formula_structural   NdCuPbC3O11
_chemical_formula_sum   'Nd4 Cu4 Pb4 C12 O44'
_cell_volume   929.03376291
_cell_formula_units_Z   4
loop_
 _symmetry_equiv_pos_site_id
 _symmetry_equiv_pos_as_xyz
  1  'x, y, z'
loop_
 _atom_site_type_symbol
 _atom_site_label
 _atom_site_symmetry_multiplicity
 _atom_site_fract_x
 _atom_site_fract_y
 _atom_site_fract_z
 _atom_site_occupancy
  Nd  Nd0  1  0.39721700  0.50056600  0.80985300  1
  Nd  Nd1  1  0.60278300  0.00056600  0.19014700  1
  Nd  Nd2  1  0.10278300  0.00056600  0.30985300  1
  Nd  Nd3  1  0.89721700  0.50056600  0.69014700  1
  Cu  Cu0  1  0.19483800  0.80301800  0.94026300  1
  Cu  Cu1  1  0.80516200  0.30301800  0.05973700  1
  Cu  Cu2  1  0.30516200  0.30301800  0.44026300  1
  Cu  Cu3  1  0.69483800  0.80301800  0.55973700  1
  Pb  Pb0  1  0.11219400  0.00885500  0.64301300  1
  Pb  Pb1  1  0.88780600  0.50885500  0.35698700  1
  Pb  Pb2  1  0.38780600  0.50885500  0.14301300  1
  Pb  Pb3  1  0.61219400  0.00885500  0.85698700  1
  C  C0  1  0.39777900  0.66258800  0.65767700  1
  C  C1  1  0.60222100  0.16258800  0.34232300  1
  C  C2  1  0.10222100  0.16258800  0.15767700  1
  C  C3  1  0.89777900  0.66258800  0.84232300  1
  C  C4  1  0.67633300  0.16722700  0.71512700  1
  C  C5  1  0.32366700  0.66722700  0.28487300  1
  C  C6  1  0.82366700  0.66722700  0.21512700  1
  C  C7  1  0.17633300  0.16722700  0.78487300  1
  C  C8  1  0.50715500  0.43276500  0.95928900  1
  C  C9  1  0.49284500  0.93276500  0.04071100  1
  C  C10  1  0.99284500  0.93276500  0.45928900  1
  C  C11  1  0.00715500  0.43276500  0.54071100  1
  O  O0  1  0.42787500  0.75661600  0.60130600  1
  O  O1  1  0.57212500  0.25661600  0.39869400  1
  O  O2  1  0.07212500  0.25661600  0.10130600  1
  O  O3  1  0.92787500  0.75661600  0.89869400  1
  O  O4  1  0.52429200  0.54791100  0.68206800  1
  O  O5  1  0.47570800  0.04791100  0.31793200  1
  O  O6  1  0.97570800  0.04791100  0.18206800  1
  O  O7  1  0.02429200  0.54791100  0.81793200  1
  O  O8  1  0.22478300  0.69017000  0.69134600  1
  O  O9  1  0.77521700  0.19017000  0.30865400  1
  O  O10  1  0.27521700  0.19017000  0.19134600  1
  O  O11  1  0.72478300  0.69017000  0.80865400  1
  O  O12  1  0.78092400  0.19698800  0.65815500  1
  O  O13  1  0.21907600  0.69698800  0.34184500  1
  O  O14  1  0.71907600  0.69698800  0.15815500  1
  O  O15  1  0.28092400  0.19698800  0.84184500  1
  O  O16  1  0.57570000  0.02454000  0.72706100  1
  O  O17  1  0.42430000  0.52454000  0.27293900  1
  O  O18  1  0.92430000  0.52454000  0.22706100  1
  O  O19  1  0.07570000  0.02454000  0.77293900  1
  O  O20  1  0.68275900  0.29334700  0.76330300  1
  O  O21  1  0.31724100  0.79334700  0.23669700  1
  O  O22  1  0.81724100  0.79334700  0.26330300  1
  O  O23  1  0.18275900  0.29334700  0.73669700  1
  O  O24  1  0.32957800  0.49963300  0.94709800  1
  O  O25  1  0.67042200  0.99963300  0.05290200  1
  O  O26  1  0.17042200  0.99963300  0.44709800  1
  O  O27  1  0.82957800  0.49963300  0.55290200  1
  O  O28  1  0.63267200  0.39333800  0.90939000  1
  O  O29  1  0.36732800  0.89333800  0.09061000  1
  O  O30  1  0.86732800  0.89333800  0.40939000  1
  O  O31  1  0.13267200  0.39333800  0.59061000  1
  O  O32  1  0.55607100  0.40336300  0.02540900  1
  O  O33  1  0.44392900  0.90336300  0.97459100  1
  O  O34  1  0.94392900  0.90336300  0.52540900  1
  O  O35  1  0.05607100  0.40336300  0.47459100  1
  O  O36  1  0.32922700  0.79556300  0.85725400  1
  O  O37  1  0.67077300  0.29556300  0.14274600  1
  O  O38  1  0.17077300  0.29556300  0.35725400  1
  O  O39  1  0.82922700  0.79556300  0.64274600  1
  O  O40  1  0.58384700  0.79301300  0.47556200  1
  O  O41  1  0.41615300  0.29301300  0.52443800  1
  O  O42  1  0.91615300  0.29301300  0.97556200  1
  O  O43  1  0.08384700  0.79301300  0.02443800  1
loop_
_geom_bond_atom_site_label_1
_geom_bond_atom_site_label_2
_geom_bond_distance
_geom_bond_site_symmetry_2
Nd0 O7 2.431038 1_555
Nd0 O36 2.446632 1_555
Nd0 O15 2.490410 1_555
Nd0 O23 2.512087 1_555
Nd0 O11 2.549186 1_555
Nd0 O28 2.562273 1_555
Nd0 O20 2.573096 1_555
Nd0 O4 2.598207 1_555
Nd0 O24 2.656614 1_555
Nd0 O8 2.899506 1_555
Nd1 O6 2.431038 1_555
Nd1 O37 2.446632 1_555
Nd1 O14 2.490410 1_545
Nd1 O22 2.512087 1_545
Nd1 O10 2.549186 1_555
Nd1 O29 2.562273 1_545
Nd1 O21 2.573096 1_545
Nd1 O5 2.598207 1_555
Nd1 O25 2.656614 1_545
Nd1 O9 2.899506 1_555
Nd2 O5 2.431038 1_555
Nd2 O38 2.446632 1_555
Nd2 O13 2.490410 1_545
Nd2 O21 2.512087 1_545
Nd2 O9 2.549186 1_455
Nd2 O30 2.562273 1_445
Nd2 O22 2.573096 1_445
Nd2 O6 2.598207 1_455
Nd2 O26 2.656614 1_545
Nd2 O10 2.899506 1_555
Nd3 O4 2.431038 1_555
Nd3 O39 2.446632 1_555
Nd3 O12 2.490410 1_555
Nd3 O20 2.512087 1_555
Nd3 O8 2.549186 1_655
Nd3 O31 2.562273 1_655
Nd3 O23 2.573096 1_655
Nd3 O7 2.598207 1_655
Nd3 O27 2.656614 1_555
Nd3 O11 2.899506 1_555
Cu0 O43 1.760478 1_556
Cu0 O36 1.806479 1_555
Cu0 O33 1.890566 1_555
Cu0 O3 1.924552 1_455
Cu0 O24 2.455813 1_555
Cu1 O42 1.760478 1_554
Cu1 O37 1.806479 1_555
Cu1 O32 1.890566 1_555
Cu1 O2 1.924552 1_655
Cu1 O25 2.455813 1_545
Cu2 O41 1.760478 1_555
Cu2 O38 1.806479 1_555
Cu2 O35 1.890566 1_555
Cu2 O1 1.924552 1_555
Cu2 O26 2.455813 1_545
Cu3 O40 1.760478 1_555
Cu3 O39 1.806479 1_555
Cu3 O34 1.890566 1_555
Cu3 O0 1.924552 1_555
Cu3 O27 2.455813 1_555
C0 O4 1.277287 1_555
C0 O8 1.302273 1_555
C0 O0 1.304471 1_555
C1 O5 1.277287 1_555
C1 O9 1.302273 1_555
C1 O1 1.304471 1_555
C2 O6 1.277287 1_455
C2 O10 1.302273 1_555
C2 O2 1.304471 1_555
C3 O7 1.277287 1_655
C3 O11 1.302273 1_555
C3 O3 1.304471 1_555
C4 O16 1.278761 1_555
C4 O12 1.298867 1_555
C4 O20 1.325662 1_555
C5 O17 1.278761 1_555
C5 O13 1.298867 1_555
C5 O21 1.325662 1_555
C6 O18 1.278761 1_555
C6 O14 1.298867 1_555
C6 O22 1.325662 1_555
C7 O19 1.278761 1_555
C7 O15 1.298867 1_555
C7 O23 1.325662 1_555
C8 O24 1.270985 1_555
C8 O28 1.284147 1_555
C8 O32 1.320067 1_556
C9 O25 1.270985 1_555
C9 O29 1.284147 1_555
C9 O33 1.320067 1_554
C10 O26 1.270985 1_655
C10 O30 1.284147 1_555
C10 O34 1.320067 1_555
C11 O27 1.270985 1_455
C11 O31 1.284147 1_555
C11 O35 1.320067 1_555
O8 Pb0 2.680131 1_565
O9 Pb1 2.680131 1_555
O10 Pb2 2.680131 1_555
O11 Pb3 2.680131 1_565
O12 Pb0 2.578894 1_655
O13 Pb1 2.578894 1_455
O14 Pb2 2.578894 1_555
O15 Pb3 2.578894 1_555
O16 Pb3 2.494863 1_555
O17 Pb2 2.494863 1_555
O18 Pb1 2.494863 1_555
O19 Pb0 2.494863 1_555
O32 Pb2 2.617536 1_555
O33 Pb3 2.617536 1_565
O34 Pb0 2.617536 1_665
O35 Pb1 2.617536 1_455
O36 Pb3 2.432311 1_565
O37 Pb2 2.432311 1_555
O38 Pb1 2.432311 1_455
O39 Pb0 2.432311 1_665
