# generated using pymatgen
data_Cu3(MoO3)4
_symmetry_space_group_name_H-M   'P 1'
_cell_length_a   6.55941578
_cell_length_b   6.57547880
_cell_length_c   6.57972609
_cell_angle_alpha   109.55034745
_cell_angle_beta   109.49788397
_cell_angle_gamma   109.41174991
_symmetry_Int_Tables_number   1
_chemical_formula_structural   Cu3(MoO3)4
_chemical_formula_sum   'Cu3 Mo4 O12'
_cell_volume   218.33807131
_cell_formula_units_Z   1
loop_
 _symmetry_equiv_pos_site_id
 _symmetry_equiv_pos_as_xyz
  1  'x, y, z'
loop_
 _atom_site_type_symbol
 _atom_site_label
 _atom_site_symmetry_multiplicity
 _atom_site_fract_x
 _atom_site_fract_y
 _atom_site_fract_z
 _atom_site_occupancy
  Cu  Cu0  1  0.49999900  0.50000000  0.00000200  1
  Cu  Cu1  1  0.00000200  0.50000100  0.49999800  1
  Cu  Cu2  1  0.50000000  0.99999800  0.49999800  1
  Mo  Mo0  1  0.00000100  0.00000000  0.50000000  1
  Mo  Mo1  1  0.99999900  0.50000000  0.99999900  1
  Mo  Mo2  1  0.50000000  0.50000000  0.50000100  1
  Mo  Mo3  1  0.50000000  0.00000000  0.00000000  1
  O  O0  1  0.81410100  0.30771200  0.13247600  1
  O  O1  1  0.18589900  0.69228800  0.86752200  1
  O  O2  1  0.82222500  0.69136400  0.50761200  1
  O  O3  1  0.32003900  0.49260800  0.18561300  1
  O  O4  1  0.49206900  0.18830300  0.32092500  1
  O  O5  1  0.13047300  0.81584000  0.30800500  1
  O  O6  1  0.69646000  0.86959600  0.18916400  1
  O  O7  1  0.50793200  0.81169700  0.67907400  1
  O  O8  1  0.17777600  0.30863600  0.49238700  1
  O  O9  1  0.67995800  0.50739200  0.81438900  1
  O  O10  1  0.86952700  0.18416100  0.69199500  1
  O  O11  1  0.30353900  0.13040600  0.81083800  1
loop_
_geom_bond_atom_site_label_1
_geom_bond_atom_site_label_2
_geom_bond_distance
_geom_bond_site_symmetry_2
Cu0 O3 1.962453 1_555
Cu0 O9 1.962459 1_554
Cu0 O11 1.984720 1_554
Cu0 O6 1.984731 1_555
Cu1 O0 1.973245 1_455
Cu1 O1 1.973255 1_555
Cu1 O8 1.979340 1_555
Cu1 O2 1.979346 1_455
Cu2 O7 1.975446 1_555
Cu2 O4 1.975452 1_565
Cu2 O5 1.979532 1_555
Cu2 O10 1.979532 1_565
Mo0 O11 1.963557 1_555
Mo0 O6 1.963563 1_445
Mo0 O2 2.003711 1_445
Mo0 O8 2.003713 1_555
Mo0 O5 2.044853 1_545
Mo0 O10 2.044868 1_455
Mo1 O10 1.999126 1_555
Mo1 O5 1.999133 1_656
Mo1 O0 2.065834 1_556
Mo1 O1 2.065841 1_655
Mo1 O9 2.072909 1_555
Mo1 O3 2.072910 1_656
Mo2 O7 1.965616 1_555
Mo2 O4 1.965624 1_555
Mo2 O9 1.984783 1_555
Mo2 O3 1.984788 1_555
Mo2 O8 2.042658 1_555
Mo2 O2 2.042674 1_555
Mo3 O1 1.987066 1_544
Mo3 O0 1.987069 1_555
Mo3 O6 2.079213 1_545
Mo3 O11 2.079221 1_554
Mo3 O4 2.088291 1_555
Mo3 O7 2.088301 1_544
