# generated using pymatgen
data_Te2Mo3W(SeS2)2
_symmetry_space_group_name_H-M   'P 1'
_cell_length_a   3.30817114
_cell_length_b   3.30817114
_cell_length_c   37.59844500
_cell_angle_alpha   90.00000000
_cell_angle_beta   90.00000000
_cell_angle_gamma   119.99998282
_symmetry_Int_Tables_number   1
_chemical_formula_structural   Te2Mo3W(SeS2)2
_chemical_formula_sum   'Te2 Mo3 W1 Se2 S4'
_cell_volume   356.34980709
_cell_formula_units_Z   1
loop_
 _symmetry_equiv_pos_site_id
 _symmetry_equiv_pos_as_xyz
  1  'x, y, z'
loop_
 _atom_site_type_symbol
 _atom_site_label
 _atom_site_symmetry_multiplicity
 _atom_site_fract_x
 _atom_site_fract_y
 _atom_site_fract_z
 _atom_site_occupancy
  Te  Te0  1  0.33333300  0.66666700  0.70839500  1
  Te  Te1  1  0.33333300  0.66666700  0.60669600  1
  Mo  Mo0  1  0.33333300  0.66666700  0.09390700  1
  Mo  Mo1  1  0.33333300  0.66666700  0.46966100  1
  Mo  Mo2  1  0.66666700  0.33333300  0.65758000  1
  W  W0  1  0.66666700  0.33333300  0.28180000  1
  Se  Se0  1  0.33333300  0.66666700  0.32673100  1
  Se  Se1  1  0.33333300  0.66666700  0.23685800  1
  S  S0  1  0.66666700  0.33333300  0.05328200  1
  S  S1  1  0.66666700  0.33333300  0.42902900  1
  S  S2  1  0.66666700  0.33333300  0.13454200  1
  S  S3  1  0.66666700  0.33333300  0.51026600  1
loop_
_geom_bond_atom_site_label_1
_geom_bond_atom_site_label_2
_geom_bond_distance
_geom_bond_site_symmetry_2
Mo0 S0 2.445620 1_455
Mo0 S0 2.445620 1_565
Mo0 S0 2.445624 1_555
Mo0 S2 2.445855 1_565
Mo0 S2 2.445855 1_455
Mo0 S2 2.445859 1_555
Mo1 S3 2.445150 1_455
Mo1 S3 2.445150 1_565
Mo1 S3 2.445154 1_555
Mo1 S1 2.445784 1_455
Mo1 S1 2.445784 1_565
Mo1 S1 2.445788 1_555
Mo2 Te0 2.701528 1_545
Mo2 Te0 2.701528 1_655
Mo2 Te0 2.701531 1_555
Mo2 Te1 2.703363 1_545
Mo2 Te1 2.703363 1_655
Mo2 Te1 2.703367 1_555
Se0 W0 2.549872 1_455
Se0 W0 2.549872 1_565
Se0 W0 2.549876 1_555
Se1 W0 2.550146 1_455
Se1 W0 2.550146 1_565
Se1 W0 2.550150 1_555
