# generated using pymatgen
data_Li2Fe2(CO3)3
_symmetry_space_group_name_H-M   'P 1'
_cell_length_a   6.06611351
_cell_length_b   7.64060524
_cell_length_c   8.11412514
_cell_angle_alpha   79.48152135
_cell_angle_beta   100.31074940
_cell_angle_gamma   105.65269243
_symmetry_Int_Tables_number   1
_chemical_formula_structural   Li2Fe2(CO3)3
_chemical_formula_sum   'Li4 Fe4 C6 O18'
_cell_volume   352.68881983
_cell_formula_units_Z   2
loop_
 _symmetry_equiv_pos_site_id
 _symmetry_equiv_pos_as_xyz
  1  'x, y, z'
loop_
 _atom_site_type_symbol
 _atom_site_label
 _atom_site_symmetry_multiplicity
 _atom_site_fract_x
 _atom_site_fract_y
 _atom_site_fract_z
 _atom_site_occupancy
  Li  Li0  1  0.12744700  0.14030000  0.58648600  1
  Li  Li1  1  0.12756500  0.64661000  0.08161100  1
  Li  Li2  1  0.72683700  0.84137300  0.28196900  1
  Li  Li3  1  0.72649600  0.34496900  0.78454800  1
  Fe  Fe0  1  0.59676900  0.53711100  0.05932200  1
  Fe  Fe1  1  0.92662700  0.49015100  0.43481800  1
  Fe  Fe2  1  0.92175000  0.99326900  0.93139500  1
  Fe  Fe3  1  0.59360000  0.03944800  0.55403200  1
  C  C0  1  0.24768900  0.86269100  0.38202000  1
  C  C1  1  0.24689600  0.36839300  0.88104900  1
  C  C2  1  0.47195400  0.43058000  0.44190200  1
  C  C3  1  0.46852100  0.93329700  0.94177000  1
  C  C4  1  0.87341500  0.22794200  0.24176800  1
  C  C5  1  0.87360100  0.73115300  0.73962700  1
  O  O0  1  0.06675900  0.75943800  0.30343700  1
  O  O1  1  0.06470800  0.26427700  0.80302600  1
  O  O2  1  0.26869800  0.42371200  0.46475000  1
  O  O3  1  0.26527600  0.92519800  0.96687000  1
  O  O4  1  0.89011900  0.10920900  0.15719200  1
  O  O5  1  0.88953800  0.61321800  0.65364800  1
  O  O6  1  0.23121800  0.97169100  0.48182900  1
  O  O7  1  0.23045200  0.47647600  0.98149400  1
  O  O8  1  0.45674600  0.86109400  0.36841300  1
  O  O9  1  0.45491600  0.36782200  0.86448300  1
  O  O10  1  0.59328700  0.32428400  0.54190000  1
  O  O11  1  0.59025400  0.82515400  0.03881000  1
  O  O12  1  0.86913700  0.18817700  0.40614900  1
  O  O13  1  0.86392700  0.68919400  0.90313200  1
  O  O14  1  0.57555900  0.04808100  0.82276800  1
  O  O15  1  0.58069400  0.54324500  0.32201100  1
  O  O16  1  0.86896300  0.90183400  0.67697600  1
  O  O17  1  0.86356500  0.39710100  0.17728400  1
loop_
_geom_bond_atom_site_label_1
_geom_bond_atom_site_label_2
_geom_bond_distance
_geom_bond_site_symmetry_2
Li0 O6 1.950751 1_545
Li0 O12 2.005836 1_455
Li0 O16 2.167846 1_445
Li0 O2 2.218069 1_555
Li0 O1 2.273958 1_555
Li1 O7 1.934973 1_554
Li1 O13 2.010085 1_454
Li1 O3 2.165839 1_554
Li1 O17 2.249205 1_455
Li1 O0 2.257150 1_555
Li2 O8 1.944799 1_555
Li2 O11 2.010800 1_555
Li2 O4 2.168582 1_565
Li2 O15 2.196230 1_555
Li2 O0 2.280857 1_655
Li3 O9 1.935018 1_555
Li3 O10 2.007383 1_555
Li3 O5 2.189636 1_555
Li3 O14 2.191851 1_555
Li3 O1 2.269468 1_655
Fe0 O9 2.138208 1_554
Fe0 O7 2.144811 1_554
Fe0 O15 2.160626 1_555
Fe0 O17 2.164642 1_555
Fe0 O13 2.182701 1_554
Fe0 O11 2.187173 1_555
Fe1 O0 2.161528 1_655
Fe1 O5 2.225837 1_555
Fe1 O2 2.228331 1_655
Fe1 O15 2.245477 1_555
Fe1 O17 2.264508 1_555
Fe1 O12 2.287341 1_555
Fe1 O10 2.300856 1_555
Fe2 O1 2.165997 1_665
Fe2 O4 2.233482 1_566
Fe2 O3 2.238599 1_655
Fe2 O16 2.240873 1_555
Fe2 O14 2.244910 1_565
Fe2 O11 2.297416 1_556
Fe2 O13 2.302046 1_555
Fe3 O6 2.116405 1_545
Fe3 O8 2.122729 1_545
Fe3 O10 2.161019 1_555
Fe3 O12 2.172580 1_555
Fe3 O16 2.204353 1_545
Fe3 O14 2.216527 1_555
C0 O8 1.295971 1_555
C0 O6 1.295987 1_555
C0 O0 1.303638 1_555
C1 O9 1.293953 1_555
C1 O7 1.294405 1_555
C1 O1 1.309215 1_555
C2 O2 1.265192 1_555
C2 O10 1.314489 1_555
C2 O15 1.319111 1_555
C3 O3 1.268655 1_555
C3 O14 1.315714 1_565
C3 O11 1.315901 1_556
C4 O4 1.267287 1_555
C4 O17 1.315831 1_555
C4 O12 1.316133 1_555
C5 O5 1.268345 1_555
C5 O13 1.314832 1_555
C5 O16 1.316261 1_555
