# generated using pymatgen
data_Tl2Mo15Se19
_symmetry_space_group_name_H-M   'P 1'
_cell_length_a   20.30407798
_cell_length_b   20.30407798
_cell_length_c   20.30407752
_cell_angle_alpha   28.16476548
_cell_angle_beta   28.16476548
_cell_angle_gamma   28.16476564
_symmetry_Int_Tables_number   1
_chemical_formula_structural   Tl2Mo15Se19
_chemical_formula_sum   'Tl4 Mo30 Se38'
_cell_volume   1647.51410934
_cell_formula_units_Z   2
loop_
 _symmetry_equiv_pos_site_id
 _symmetry_equiv_pos_as_xyz
  1  'x, y, z'
loop_
 _atom_site_type_symbol
 _atom_site_label
 _atom_site_symmetry_multiplicity
 _atom_site_fract_x
 _atom_site_fract_y
 _atom_site_fract_z
 _atom_site_occupancy
  Tl  Tl0  1  0.38511300  0.38511300  0.38511300  1
  Tl  Tl1  1  0.88511300  0.88511300  0.88511300  1
  Tl  Tl2  1  0.61488700  0.61488700  0.61488700  1
  Tl  Tl3  1  0.11488700  0.11488700  0.11488700  1
  Mo  Mo0  1  0.31389400  0.50226200  0.62519300  1
  Mo  Mo1  1  0.62519300  0.31389400  0.50226200  1
  Mo  Mo2  1  0.50226200  0.62519300  0.31389400  1
  Mo  Mo3  1  0.12519300  0.00226200  0.81389400  1
  Mo  Mo4  1  0.81389400  0.12519300  0.00226200  1
  Mo  Mo5  1  0.00226200  0.81389400  0.12519300  1
  Mo  Mo6  1  0.68610600  0.49773800  0.37480700  1
  Mo  Mo7  1  0.37480700  0.68610600  0.49773800  1
  Mo  Mo8  1  0.49773800  0.37480700  0.68610600  1
  Mo  Mo9  1  0.87480700  0.99773800  0.18610600  1
  Mo  Mo10  1  0.18610600  0.87480700  0.99773800  1
  Mo  Mo11  1  0.99773800  0.18610600  0.87480700  1
  Mo  Mo12  1  0.13998700  0.27759800  0.44999600  1
  Mo  Mo13  1  0.44999600  0.13998700  0.27759800  1
  Mo  Mo14  1  0.27759800  0.44999600  0.13998700  1
  Mo  Mo15  1  0.94999600  0.77759800  0.63998700  1
  Mo  Mo16  1  0.63998700  0.94999600  0.77759800  1
  Mo  Mo17  1  0.77759800  0.63998700  0.94999600  1
  Mo  Mo18  1  0.86001300  0.72240200  0.55000400  1
  Mo  Mo19  1  0.55000400  0.86001300  0.72240200  1
  Mo  Mo20  1  0.72240200  0.55000400  0.86001300  1
  Mo  Mo21  1  0.05000400  0.22240200  0.36001300  1
  Mo  Mo22  1  0.36001300  0.05000400  0.22240200  1
  Mo  Mo23  1  0.22240200  0.36001300  0.05000400  1
  Mo  Mo24  1  0.09229200  0.40770800  0.25000000  1
  Mo  Mo25  1  0.25000000  0.09229200  0.40770800  1
  Mo  Mo26  1  0.40770800  0.25000000  0.09229200  1
  Mo  Mo27  1  0.75000000  0.90770800  0.59229200  1
  Mo  Mo28  1  0.59229200  0.75000000  0.90770800  1
  Mo  Mo29  1  0.90770800  0.59229200  0.75000000  1
  Se  Se0  1  0.44542300  0.19868700  0.80602100  1
  Se  Se1  1  0.80602100  0.44542300  0.19868700  1
  Se  Se2  1  0.19868700  0.80602100  0.44542300  1
  Se  Se3  1  0.30602100  0.69868700  0.94542300  1
  Se  Se4  1  0.94542300  0.30602100  0.69868700  1
  Se  Se5  1  0.69868700  0.94542300  0.30602100  1
  Se  Se6  1  0.55457700  0.80131300  0.19397900  1
  Se  Se7  1  0.19397900  0.55457700  0.80131300  1
  Se  Se8  1  0.80131300  0.19397900  0.55457700  1
  Se  Se9  1  0.69397900  0.30131300  0.05457700  1
  Se  Se10  1  0.05457700  0.69397900  0.30131300  1
  Se  Se11  1  0.30131300  0.05457700  0.69397900  1
  Se  Se12  1  0.96766700  0.57878800  0.31073600  1
  Se  Se13  1  0.31073600  0.96766700  0.57878800  1
  Se  Se14  1  0.57878800  0.31073600  0.96766700  1
  Se  Se15  1  0.81073600  0.07878800  0.46766700  1
  Se  Se16  1  0.46766700  0.81073600  0.07878800  1
  Se  Se17  1  0.07878800  0.46766700  0.81073600  1
  Se  Se18  1  0.03233300  0.42121200  0.68926400  1
  Se  Se19  1  0.68926400  0.03233300  0.42121200  1
  Se  Se20  1  0.42121200  0.68926400  0.03233300  1
  Se  Se21  1  0.18926400  0.92121200  0.53233300  1
  Se  Se22  1  0.53233300  0.18926400  0.92121200  1
  Se  Se23  1  0.92121200  0.53233300  0.18926400  1
  Se  Se24  1  0.55437300  0.94562700  0.25000000  1
  Se  Se25  1  0.25000000  0.55437300  0.94562700  1
  Se  Se26  1  0.94562700  0.25000000  0.55437300  1
  Se  Se27  1  0.75000000  0.44562700  0.05437300  1
  Se  Se28  1  0.05437300  0.75000000  0.44562700  1
  Se  Se29  1  0.44562700  0.05437300  0.75000000  1
  Se  Se30  1  0.44559800  0.44559800  0.44559800  1
  Se  Se31  1  0.94559800  0.94559800  0.94559800  1
  Se  Se32  1  0.55440200  0.55440200  0.55440200  1
  Se  Se33  1  0.05440200  0.05440200  0.05440200  1
  Se  Se34  1  0.32404900  0.32404900  0.32404900  1
  Se  Se35  1  0.82404900  0.82404900  0.82404900  1
  Se  Se36  1  0.67595100  0.67595100  0.67595100  1
  Se  Se37  1  0.17595100  0.17595100  0.17595100  1
loop_
_geom_bond_atom_site_label_1
_geom_bond_atom_site_label_2
_geom_bond_distance
_geom_bond_site_symmetry_2
Mo0 Se30 2.559483 1_555
Mo0 Se7 2.574827 1_555
Mo0 Se2 2.599508 1_555
Mo0 Se0 2.639544 1_555
Mo0 Se17 2.647858 1_555
Mo1 Se30 2.559484 1_555
Mo1 Se8 2.574827 1_555
Mo1 Se0 2.599508 1_555
Mo1 Se1 2.639544 1_555
Mo1 Se15 2.647858 1_555
Mo2 Se30 2.559484 1_555
Mo2 Se6 2.574827 1_555
Mo2 Se1 2.599508 1_555
Mo2 Se2 2.639544 1_555
Mo2 Se16 2.647858 1_555
Mo3 Se31 2.559484 1_445
Mo3 Se11 2.574827 1_555
Mo3 Se4 2.599508 1_455
Mo3 Se3 2.639544 1_545
Mo3 Se13 2.647858 1_545
Mo4 Se31 2.559484 1_544
Mo4 Se9 2.574827 1_555
Mo4 Se5 2.599508 1_545
Mo4 Se4 2.639544 1_554
Mo4 Se14 2.647858 1_554
Mo5 Se31 2.559483 1_454
Mo5 Se10 2.574827 1_555
Mo5 Se3 2.599508 1_554
Mo5 Se5 2.639544 1_455
Mo5 Se12 2.647858 1_455
Mo6 Se32 2.559483 1_555
Mo6 Se1 2.574827 1_555
Mo6 Se8 2.599508 1_555
Mo6 Se6 2.639544 1_555
Mo6 Se23 2.647858 1_555
Mo7 Se32 2.559484 1_555
Mo7 Se2 2.574827 1_555
Mo7 Se6 2.599508 1_555
Mo7 Se7 2.639544 1_555
Mo7 Se21 2.647858 1_555
Mo8 Se32 2.559484 1_555
Mo8 Se0 2.574827 1_555
Mo8 Se7 2.599508 1_555
Mo8 Se8 2.639544 1_555
Mo8 Se22 2.647858 1_555
Mo9 Se33 2.559484 1_665
Mo9 Se5 2.574827 1_555
Mo9 Se10 2.599508 1_655
Mo9 Se9 2.639544 1_565
Mo9 Se19 2.647858 1_565
Mo10 Se33 2.559484 1_566
Mo10 Se3 2.574827 1_555
Mo10 Se11 2.599508 1_565
Mo10 Se10 2.639544 1_556
Mo10 Se20 2.647858 1_556
Mo11 Se33 2.559483 1_656
Mo11 Se4 2.574827 1_555
Mo11 Se9 2.599508 1_556
Mo11 Se11 2.639544 1_655
Mo11 Se18 2.647858 1_655
Mo12 Se34 2.550936 1_555
Mo12 Se12 2.619831 1_455
Mo12 Se13 2.638369 1_545
Mo12 Se4 2.717157 1_455
Mo12 Se26 2.727205 1_455
Mo13 Se34 2.550936 1_555
Mo13 Se13 2.619831 1_545
Mo13 Se14 2.638369 1_554
Mo13 Se5 2.717157 1_545
Mo13 Se24 2.727205 1_545
Mo14 Se34 2.550936 1_555
Mo14 Se14 2.619831 1_554
Mo14 Se12 2.638369 1_455
Mo14 Se3 2.717157 1_554
Mo14 Se25 2.727205 1_554
Mo15 Se35 2.550936 1_555
Mo15 Se15 2.619831 1_565
Mo15 Se17 2.638369 1_655
Mo15 Se2 2.717157 1_655
Mo15 Se28 2.727205 1_655
Mo16 Se35 2.550936 1_555
Mo16 Se16 2.619831 1_556
Mo16 Se15 2.638369 1_565
Mo16 Se0 2.717157 1_565
Mo16 Se29 2.727205 1_565
Mo17 Se35 2.550936 1_555
Mo17 Se17 2.619831 1_655
Mo17 Se16 2.638369 1_556
Mo17 Se1 2.717157 1_556
Mo17 Se27 2.727205 1_556
Mo18 Se36 2.550936 1_555
Mo18 Se18 2.619831 1_655
Mo18 Se19 2.638369 1_565
Mo18 Se10 2.717157 1_655
Mo18 Se28 2.727205 1_655
Mo19 Se36 2.550936 1_555
Mo19 Se19 2.619831 1_565
Mo19 Se20 2.638369 1_556
Mo19 Se11 2.717157 1_565
Mo19 Se29 2.727205 1_565
Mo20 Se36 2.550936 1_555
Mo20 Se20 2.619831 1_556
Mo20 Se18 2.638369 1_655
Mo20 Se9 2.717157 1_556
Mo20 Se27 2.727205 1_556
Mo21 Se37 2.550936 1_555
Mo21 Se21 2.619831 1_545
Mo21 Se23 2.638369 1_455
Mo21 Se8 2.717157 1_455
Mo21 Se26 2.727205 1_455
Mo22 Se37 2.550936 1_555
Mo22 Se22 2.619831 1_554
Mo22 Se21 2.638369 1_545
Mo22 Se6 2.717157 1_545
Mo22 Se24 2.727205 1_545
Mo23 Se37 2.550936 1_555
Mo23 Se23 2.619831 1_455
Mo23 Se22 2.638369 1_554
Mo23 Se7 2.717157 1_554
Mo23 Se25 2.727205 1_554
Mo24 Se23 2.557893 1_455
Mo24 Se12 2.557893 1_455
Mo24 Se26 2.605058 1_455
Mo24 Se25 2.605058 1_554
Mo25 Se13 2.557893 1_545
Mo25 Se21 2.557894 1_545
Mo25 Se24 2.605058 1_545
Mo25 Se26 2.605058 1_455
Mo26 Se22 2.557893 1_554
Mo26 Se14 2.557894 1_554
Mo26 Se24 2.605058 1_545
Mo26 Se25 2.605058 1_554
Mo27 Se19 2.557893 1_565
Mo27 Se15 2.557894 1_565
Mo27 Se29 2.605058 1_565
Mo27 Se28 2.605058 1_655
Mo28 Se16 2.557893 1_556
Mo28 Se20 2.557894 1_556
Mo28 Se29 2.605058 1_565
Mo28 Se27 2.605058 1_556
Mo29 Se18 2.557893 1_655
Mo29 Se17 2.557893 1_655
Mo29 Se27 2.605058 1_556
Mo29 Se28 2.605058 1_655
Se12 Tl2 3.272819 1_555
Se13 Tl2 3.272819 1_555
Se14 Tl2 3.272819 1_555
Se15 Tl3 3.272819 1_655
Se16 Tl3 3.272819 1_565
Se17 Tl3 3.272819 1_556
Se18 Tl0 3.272819 1_555
Se19 Tl0 3.272819 1_555
Se20 Tl0 3.272819 1_555
Se21 Tl1 3.272819 1_455
Se22 Tl1 3.272819 1_545
Se23 Tl1 3.272819 1_554
