# generated using pymatgen
data_MoWSe4
_symmetry_space_group_name_H-M   'P 1'
_cell_length_a   3.32280565
_cell_length_b   3.32280565
_cell_length_c   37.85055600
_cell_angle_alpha   90.00000000
_cell_angle_beta   90.00000000
_cell_angle_gamma   119.99999297
_symmetry_Int_Tables_number   1
_chemical_formula_structural   MoWSe4
_chemical_formula_sum   'Mo2 W2 Se8'
_cell_volume   361.92018524
_cell_formula_units_Z   2
loop_
 _symmetry_equiv_pos_site_id
 _symmetry_equiv_pos_as_xyz
  1  'x, y, z'
loop_
 _atom_site_type_symbol
 _atom_site_label
 _atom_site_symmetry_multiplicity
 _atom_site_fract_x
 _atom_site_fract_y
 _atom_site_fract_z
 _atom_site_occupancy
  Mo  Mo0  1  0.33333300  0.66666700  0.71819100  1
  Mo  Mo1  1  0.66666700  0.33333300  0.28180900  1
  W  W0  1  0.33333300  0.66666700  0.09392700  1
  W  W1  1  0.66666700  0.33333300  0.90607300  1
  Se  Se0  1  0.33333300  0.66666700  0.95057300  1
  Se  Se1  1  0.33333300  0.66666700  0.32609100  1
  Se  Se2  1  0.66666700  0.33333300  0.67390900  1
  Se  Se3  1  0.66666700  0.33333300  0.04942700  1
  Se  Se4  1  0.66666700  0.33333300  0.76248500  1
  Se  Se5  1  0.66666700  0.33333300  0.13843100  1
  Se  Se6  1  0.33333300  0.66666700  0.86156900  1
  Se  Se7  1  0.33333300  0.66666700  0.23751500  1
loop_
_geom_bond_atom_site_label_1
_geom_bond_atom_site_label_2
_geom_bond_distance
_geom_bond_site_symmetry_2
Mo0 Se2 2.547478 1_455
Mo0 Se2 2.547478 1_565
Mo0 Se2 2.547482 1_555
Mo0 Se4 2.547777 1_565
Mo0 Se4 2.547777 1_455
Mo0 Se4 2.547781 1_555
Mo1 Se1 2.547478 1_545
Mo1 Se1 2.547478 1_655
Mo1 Se1 2.547482 1_555
Mo1 Se7 2.547777 1_545
Mo1 Se7 2.547777 1_655
Mo1 Se7 2.547781 1_555
Se0 W1 2.552915 1_455
Se0 W1 2.552915 1_565
Se0 W1 2.552919 1_555
Se3 W0 2.552915 1_545
Se3 W0 2.552915 1_655
Se3 W0 2.552919 1_555
Se5 W0 2.553015 1_545
Se5 W0 2.553015 1_655
Se5 W0 2.553019 1_555
Se6 W1 2.553015 1_455
Se6 W1 2.553015 1_565
Se6 W1 2.553019 1_555
