# generated using pymatgen
data_H2O
_symmetry_space_group_name_H-M   'P 1'
_cell_length_a   5.85223683
_cell_length_b   11.01986911
_cell_length_c   11.08852487
_cell_angle_alpha   81.60289801
_cell_angle_beta   110.78169983
_cell_angle_gamma   129.07766193
_symmetry_Int_Tables_number   1
_chemical_formula_structural   H2O
_chemical_formula_sum   'H24 O12'
_cell_volume   516.03855611
_cell_formula_units_Z   12
loop_
 _symmetry_equiv_pos_site_id
 _symmetry_equiv_pos_as_xyz
  1  'x, y, z'
loop_
 _atom_site_type_symbol
 _atom_site_label
 _atom_site_symmetry_multiplicity
 _atom_site_fract_x
 _atom_site_fract_y
 _atom_site_fract_z
 _atom_site_occupancy
  H  H0  1  0.19994800  0.65686800  0.14193600  1
  H  H1  1  0.69864800  0.12503400  0.63920400  1
  H  H2  1  0.96942700  0.31023200  0.27783300  1
  H  H3  1  0.80005200  0.34313200  0.85806400  1
  H  H4  1  0.30135200  0.87496600  0.36079600  1
  H  H5  1  0.03057300  0.68976800  0.72216700  1
  H  H6  1  0.87330700  0.40917700  0.19568000  1
  H  H7  1  0.51346400  0.82442200  0.60278900  1
  H  H8  1  0.46598900  0.14056400  0.14349800  1
  H  H9  1  0.12669300  0.59082300  0.80432000  1
  H  H10  1  0.48653600  0.17557800  0.39721100  1
  H  H11  1  0.53401100  0.85943600  0.85650200  1
  H  H12  1  0.26553300  0.25439800  0.43751100  1
  H  H13  1  0.93740800  0.31625500  0.77615500  1
  H  H14  1  0.89477600  0.93828800  0.91962300  1
  H  H15  1  0.73446700  0.74560200  0.56248900  1
  H  H16  1  0.06259200  0.68374500  0.22384500  1
  H  H17  1  0.10522400  0.06171200  0.08037700  1
  H  H18  1  0.29076000  0.38423700  0.50029300  1
  H  H19  1  0.82174000  0.98776300  0.60819500  1
  H  H20  1  0.83571100  0.08307300  0.77507300  1
  H  H21  1  0.70924000  0.61576300  0.49970700  1
  H  H22  1  0.17826000  0.01223700  0.39180500  1
  H  H23  1  0.16428900  0.91692600  0.22492700  1
  O  O0  1  0.09782700  0.61221900  0.20660300  1
  O  O1  1  0.66126800  0.88415200  0.55594700  1
  O  O2  1  0.80395700  0.30061200  0.20121700  1
  O  O3  1  0.90217300  0.38778100  0.79339700  1
  O  O4  1  0.33873200  0.11584800  0.44405300  1
  O  O5  1  0.19604300  0.69938800  0.79878300  1
  O  O6  1  0.89557300  0.15600500  0.70498900  1
  O  O7  1  0.75351300  0.96424900  0.88737200  1
  O  O8  1  0.25846500  0.34282200  0.41900700  1
  O  O9  1  0.10442700  0.84399500  0.29501100  1
  O  O10  1  0.24648700  0.03575100  0.11262800  1
  O  O11  1  0.74153500  0.65717800  0.58099300  1
loop_
_geom_bond_atom_site_label_1
_geom_bond_atom_site_label_2
_geom_bond_distance
_geom_bond_site_symmetry_2
H0 O0 0.971476 1_555
H1 O6 0.978271 1_555
H2 O2 0.991874 1_555
H3 O3 0.971476 1_555
H4 O9 0.978271 1_555
H5 O5 0.991874 1_555
H6 O2 0.991900 1_555
H7 O1 0.975907 1_555
H8 O10 1.016978 1_555
H8 O2 1.570251 1_555
H9 O5 0.991900 1_555
H10 O4 0.975907 1_555
H11 O7 1.016978 1_555
H11 O5 1.570251 1_555
H12 O8 0.989801 1_555
H13 O3 0.988556 1_555
H14 O7 0.975541 1_555
H15 O11 0.989801 1_555
H16 O0 0.988556 1_555
H17 O10 0.975541 1_555
H18 O8 0.973108 1_555
H19 O1 0.988185 1_555
H20 O6 1.014097 1_555
H20 O7 1.628283 1_545
H21 O11 0.973108 1_555
H22 O4 0.988185 1_555
H23 O9 1.014092 1_555
H23 O10 1.628289 1_565
