# generated using pymatgen
data_K3Ce(AsO4)2
_symmetry_space_group_name_H-M   'P 1'
_cell_length_a   5.96442700
_cell_length_b   7.75630900
_cell_length_c   10.03274212
_cell_angle_alpha   88.37392865
_cell_angle_beta   90.00000000
_cell_angle_gamma   90.00000000
_symmetry_Int_Tables_number   1
_chemical_formula_structural   K3Ce(AsO4)2
_chemical_formula_sum   'K6 Ce2 As4 O16'
_cell_volume   463.94719837
_cell_formula_units_Z   2
loop_
 _symmetry_equiv_pos_site_id
 _symmetry_equiv_pos_as_xyz
  1  'x, y, z'
loop_
 _atom_site_type_symbol
 _atom_site_label
 _atom_site_symmetry_multiplicity
 _atom_site_fract_x
 _atom_site_fract_y
 _atom_site_fract_z
 _atom_site_occupancy
  K  K0  1  0.25000000  0.85916900  0.41011400  1
  K  K1  1  0.75000000  0.14083100  0.58988600  1
  K  K2  1  0.25000000  0.29787300  0.08416500  1
  K  K3  1  0.75000000  0.70212700  0.91583500  1
  K  K4  1  0.25000000  0.00570100  0.80408700  1
  K  K5  1  0.75000000  0.99429900  0.19591300  1
  Ce  Ce0  1  0.25000000  0.51022300  0.71251700  1
  Ce  Ce1  1  0.75000000  0.48977700  0.28748300  1
  As  As0  1  0.25000000  0.30750400  0.42723600  1
  As  As1  1  0.75000000  0.69249600  0.57276400  1
  As  As2  1  0.25000000  0.73838800  0.08623600  1
  As  As3  1  0.75000000  0.26161200  0.91376400  1
  O  O0  1  0.25000000  0.68178000  0.92121300  1
  O  O1  1  0.75000000  0.31822000  0.07878700  1
  O  O2  1  0.48594900  0.25008800  0.33830800  1
  O  O3  1  0.51405100  0.74991200  0.66169200  1
  O  O4  1  0.98594900  0.74991200  0.66169200  1
  O  O5  1  0.01405100  0.25008800  0.33830800  1
  O  O6  1  0.25000000  0.20904200  0.58351900  1
  O  O7  1  0.75000000  0.79095800  0.41648100  1
  O  O8  1  0.25000000  0.95644700  0.10374100  1
  O  O9  1  0.75000000  0.04355300  0.89625900  1
  O  O10  1  0.48682200  0.65211800  0.16218000  1
  O  O11  1  0.51317800  0.34788200  0.83782000  1
  O  O12  1  0.98682200  0.34788200  0.83782000  1
  O  O13  1  0.01317800  0.65211800  0.16218000  1
  O  O14  1  0.25000000  0.52490800  0.45644400  1
  O  O15  1  0.75000000  0.47509200  0.54355600  1
loop_
_geom_bond_atom_site_label_1
_geom_bond_atom_site_label_2
_geom_bond_distance
_geom_bond_site_symmetry_2
K0 O14 2.620954 1_555
K0 O8 3.144151 1_555
K1 O15 2.620954 1_555
K1 O9 3.144151 1_555
K2 O8 2.649915 1_545
K2 O5 2.926681 1_555
K2 O2 2.926681 1_555
K2 O12 2.944217 1_454
K2 O11 2.944217 1_554
K2 O1 2.986793 1_555
K2 O1 2.986793 1_455
K2 O10 3.206142 1_555
K2 O13 3.206142 1_555
K3 O9 2.649915 1_565
K3 O3 2.926681 1_555
K3 O4 2.926681 1_555
K3 O13 2.944217 1_656
K3 O10 2.944217 1_556
K3 O0 2.986793 1_555
K3 O0 2.986793 1_655
K3 O12 3.206142 1_555
K3 O11 3.206142 1_555
K4 O6 2.680735 1_555
K4 O0 2.743284 1_545
K4 O3 2.935696 1_545
K4 O4 2.935696 1_445
K4 O8 3.019754 1_546
K4 O11 3.110231 1_555
K4 O12 3.110231 1_455
K4 O9 3.138525 1_455
K4 O9 3.138525 1_555
K5 O7 2.680735 1_555
K5 O1 2.743284 1_565
K5 O2 2.935696 1_565
K5 O5 2.935696 1_665
K5 O9 3.019754 1_564
K5 O10 3.110231 1_555
K5 O13 3.110231 1_655
K5 O8 3.138525 1_555
K5 O8 3.138525 1_655
Ce0 O12 2.353726 1_455
Ce0 O11 2.353726 1_555
Ce0 O3 2.478472 1_555
Ce0 O4 2.478472 1_455
Ce0 O0 2.512512 1_555
Ce0 O14 2.568407 1_555
Ce0 O6 2.702534 1_555
Ce1 O13 2.353726 1_655
Ce1 O10 2.353726 1_555
Ce1 O2 2.478472 1_555
Ce1 O5 2.478472 1_655
Ce1 O1 2.512512 1_555
Ce1 O15 2.568407 1_555
Ce1 O7 2.702534 1_555
As0 O14 1.719698 1_555
As0 O6 1.724453 1_555
As0 O5 1.731293 1_555
As0 O2 1.731293 1_555
As1 O15 1.719698 1_555
As1 O7 1.724453 1_555
As1 O4 1.731293 1_555
As1 O3 1.731293 1_555
As2 O8 1.705376 1_555
As2 O0 1.724865 1_554
As2 O10 1.730468 1_555
As2 O13 1.730468 1_555
As3 O9 1.705376 1_555
As3 O1 1.724865 1_556
As3 O12 1.730468 1_555
As3 O11 1.730468 1_555
