# generated using pymatgen
data_Sm3(AgGe)4
_symmetry_space_group_name_H-M   'P 1'
_cell_length_a   4.38787185
_cell_length_b   7.10574826
_cell_length_c   8.42557010
_cell_angle_alpha   114.93909188
_cell_angle_beta   105.08074209
_cell_angle_gamma   89.99368858
_symmetry_Int_Tables_number   1
_chemical_formula_structural   Sm3(AgGe)4
_chemical_formula_sum   'Sm3 Ag4 Ge4'
_cell_volume   228.19367063
_cell_formula_units_Z   1
loop_
 _symmetry_equiv_pos_site_id
 _symmetry_equiv_pos_as_xyz
  1  'x, y, z'
loop_
 _atom_site_type_symbol
 _atom_site_label
 _atom_site_symmetry_multiplicity
 _atom_site_fract_x
 _atom_site_fract_y
 _atom_site_fract_z
 _atom_site_occupancy
  Sm  Sm0  1  0.87192255  0.37201269  0.74380467  1
  Sm  Sm1  1  0.12807744  0.62798738  0.25619514  1
  Sm  Sm2  1  0.00000016  0.00000023  1.00000007  1
  Ag  Ag0  1  0.33159406  0.63581352  0.66268345  1
  Ag  Ag1  1  0.66840589  0.36418670  0.33731683  1
  Ag  Ag2  1  0.33122987  0.02693665  0.66272230  1
  Ag  Ag3  1  0.66876899  0.97306320  0.33727648  1
  Ge  Ge0  1  0.21652980  0.21662967  0.43324435  1
  Ge  Ge1  1  0.78347006  0.78337090  0.56675591  1
  Ge  Ge2  1  0.50019850  0.68165744  0.99992856  1
  Ge  Ge3  1  0.49980168  0.31834263  0.00007124  1
loop_
_geom_bond_atom_site_label_1
_geom_bond_atom_site_label_2
_geom_bond_distance
_geom_bond_site_symmetry_2
Ag0 Ge2 2.617831 1_555
Ag0 Ge1 2.689432 1_555
Ag0 Ge1 2.690668 1_455
Ag0 Ge0 2.738743 1_555
Ag0 Sm0 3.136605 1_555
Ag0 Sm0 3.138117 1_455
Ag0 Sm1 3.283041 1_555
Ag1 Ge3 2.617835 1_555
Ag1 Ge0 2.689431 1_555
Ag1 Ge0 2.690666 1_655
Ag1 Ge1 2.738745 1_555
Ag1 Sm1 3.136605 1_555
Ag1 Sm1 3.138119 1_655
Ag1 Sm0 3.283038 1_555
Ag2 Ge3 2.618534 1_556
Ag2 Ge1 2.689887 1_445
Ag2 Ge1 2.690898 1_545
Ag2 Ge0 2.738577 1_555
Ag2 Sm0 3.137451 1_455
Ag2 Sm0 3.138959 1_555
Ag2 Sm1 3.284253 1_545
Ag3 Ge2 2.618528 1_554
Ag3 Ge0 2.689891 1_665
Ag3 Ge0 2.690900 1_565
Ag3 Ge1 2.738584 1_555
Ag3 Sm1 3.137453 1_655
Ag3 Sm1 3.138957 1_555
Ag3 Sm0 3.284259 1_565
Ge0 Sm0 3.158235 1_455
Ge0 Sm0 3.159854 1_555
Ge0 Sm2 3.170828 1_554
Ge1 Sm1 3.158238 1_655
Ge1 Sm1 3.159855 1_555
Ge1 Sm2 3.170827 1_665
Ge2 Ge3 2.582132 1_556
Ge2 Sm2 3.150512 1_665
Ge2 Sm2 3.151595 1_565
Ge2 Sm0 3.159924 1_555
Ge2 Sm1 3.161738 1_656
Ge2 Sm0 3.162194 1_455
Ge2 Sm1 3.162716 1_556
Ge3 Sm2 3.150511 1_554
Ge3 Sm2 3.151594 1_654
Ge3 Sm1 3.159925 1_555
Ge3 Sm0 3.161739 1_454
Ge3 Sm1 3.162193 1_655
Ge3 Sm0 3.162715 1_554
