# generated using pymatgen
data_KRbMg14
_symmetry_space_group_name_H-M   'P 1'
_cell_length_a   6.89916934
_cell_length_b   6.89916869
_cell_length_c   10.54038729
_cell_angle_alpha   90.00000000
_cell_angle_beta   90.00000000
_cell_angle_gamma   120.00000313
_symmetry_Int_Tables_number   1
_chemical_formula_structural   KRbMg14
_chemical_formula_sum   'K1 Rb1 Mg14'
_cell_volume   434.49097026
_cell_formula_units_Z   1
loop_
 _symmetry_equiv_pos_site_id
 _symmetry_equiv_pos_as_xyz
  1  'x, y, z'
loop_
 _atom_site_type_symbol
 _atom_site_label
 _atom_site_symmetry_multiplicity
 _atom_site_fract_x
 _atom_site_fract_y
 _atom_site_fract_z
 _atom_site_occupancy
  K  K0  1  0.16666700  0.33333300  0.12500000  1
  Rb  Rb0  1  0.16666700  0.33333300  0.62500000  1
  Mg  Mg0  1  0.17221171  0.83610535  0.12500000  1
  Mg  Mg1  1  0.17356285  0.83678092  0.62500000  1
  Mg  Mg2  1  0.66389465  0.32778829  0.12500000  1
  Mg  Mg3  1  0.66321908  0.32643715  0.62500000  1
  Mg  Mg4  1  0.66389465  0.83610535  0.12500000  1
  Mg  Mg5  1  0.66321908  0.83678092  0.62500000  1
  Mg  Mg6  1  0.34690665  0.15309335  0.37216894  1
  Mg  Mg7  1  0.34690665  0.15309335  0.87783106  1
  Mg  Mg8  1  0.34690665  0.69381430  0.37216894  1
  Mg  Mg9  1  0.34690665  0.69381430  0.87783106  1
  Mg  Mg10  1  0.80618570  0.15309335  0.37216894  1
  Mg  Mg11  1  0.80618570  0.15309335  0.87783106  1
  Mg  Mg12  1  0.83333300  0.66666700  0.37545463  1
  Mg  Mg13  1  0.83333300  0.66666700  0.87454537  1
loop_
_geom_bond_atom_site_label_1
_geom_bond_atom_site_label_2
_geom_bond_distance
_geom_bond_site_symmetry_2
K0 Mg6 3.380276 1_555
K0 Mg7 3.380276 1_554
K0 Mg8 3.380284 1_555
K0 Mg9 3.380284 1_554
K0 Mg10 3.380284 1_455
K0 Mg11 3.380284 1_454
K0 Mg0 3.449743 1_555
K0 Mg4 3.449743 1_555
K0 Mg4 3.449743 1_445
K0 Mg0 3.449743 1_545
K0 Mg2 3.449744 1_455
K0 Mg2 3.449744 1_555
Mg0 Mg8 3.222869 1_555
Mg0 Mg9 3.222869 1_554
Mg0 Mg6 3.222876 1_565
Mg0 Mg7 3.222876 1_564
Mg0 Mg12 3.326955 1_455
Mg0 Mg13 3.326955 1_454
Mg0 Mg2 3.392204 1_565
Mg0 Mg4 3.392204 1_555
Mg0 Mg2 3.506965 1_455
Mg0 Mg4 3.506965 1_455
Mg1 Mg9 3.268735 1_555
Mg1 Mg8 3.268735 1_555
Mg1 Mg6 3.268742 1_565
Mg1 Mg7 3.268742 1_565
Mg1 Mg12 3.324286 1_455
Mg1 Mg13 3.324286 1_455
Mg1 Mg3 3.378221 1_565
Mg1 Mg5 3.378221 1_555
Mg1 Rb0 3.449830 1_555
Mg1 Rb0 3.449830 1_565
Mg1 Mg3 3.520948 1_455
Mg1 Mg5 3.520948 1_455
Mg2 Mg6 3.222876 1_555
Mg2 Mg7 3.222876 1_554
Mg2 Mg4 3.392204 1_545
Mg2 Mg4 3.506965 1_555
Mg3 Mg6 3.268742 1_555
Mg3 Mg7 3.268742 1_555
Mg3 Mg5 3.378221 1_545
Mg3 Rb0 3.449831 1_655
Mg3 Rb0 3.449831 1_555
Mg3 Mg5 3.520948 1_555
Mg4 Mg8 3.222876 1_555
Mg4 Mg9 3.222876 1_554
Mg5 Mg9 3.268742 1_555
Mg5 Mg8 3.268742 1_555
Mg5 Rb0 3.449830 1_555
Mg5 Rb0 3.449830 1_665
Mg6 Mg8 3.168644 1_545
Mg6 Rb0 3.426485 1_555
Mg7 Mg9 3.168644 1_545
Mg7 Rb0 3.426485 1_555
Mg8 Rb0 3.426492 1_555
Mg9 Rb0 3.426492 1_555
Mg10 Mg8 3.168644 1_545
Mg10 Mg6 3.168644 1_555
Mg10 Mg2 3.222869 1_555
Mg10 Mg4 3.222876 1_545
Mg10 Mg3 3.268735 1_555
Mg10 Mg5 3.268742 1_545
Mg10 Rb0 3.426492 1_655
Mg10 Mg12 3.453569 1_555
Mg10 Mg12 3.453569 1_545
Mg11 Mg9 3.168644 1_545
Mg11 Mg7 3.168644 1_555
Mg11 Mg2 3.222869 1_556
Mg11 Mg4 3.222876 1_546
Mg11 Mg3 3.268735 1_555
Mg11 Mg5 3.268742 1_545
Mg11 Rb0 3.426492 1_655
Mg11 Mg13 3.453569 1_555
Mg11 Mg13 3.453569 1_545
Mg12 Mg5 3.324279 1_555
Mg12 Mg3 3.324286 1_555
Mg12 Mg4 3.326948 1_555
Mg12 Mg2 3.326955 1_555
Mg12 Mg6 3.453569 1_555
Mg12 Mg6 3.453569 1_665
Mg12 Mg8 3.453570 1_555
Mg12 Mg8 3.453570 1_655
Mg13 Mg5 3.324279 1_555
Mg13 Mg3 3.324286 1_555
Mg13 Mg4 3.326948 1_556
Mg13 Mg2 3.326955 1_556
Mg13 Mg7 3.453569 1_555
Mg13 Mg7 3.453569 1_665
Mg13 Mg9 3.453570 1_555
Mg13 Mg9 3.453570 1_655
