# generated using pymatgen
data_Sr2MgZn2Sn2(PO4)4
_symmetry_space_group_name_H-M   'P 1'
_cell_length_a   5.36169559
_cell_length_b   7.35670883
_cell_length_c   10.77140911
_cell_angle_alpha   102.67777257
_cell_angle_beta   100.66093551
_cell_angle_gamma   96.10595497
_symmetry_Int_Tables_number   1
_chemical_formula_structural   Sr2MgZn2Sn2(PO4)4
_chemical_formula_sum   'Sr2 Mg1 Zn2 Sn2 P4 O16'
_cell_volume   402.54452144
_cell_formula_units_Z   1
loop_
 _symmetry_equiv_pos_site_id
 _symmetry_equiv_pos_as_xyz
  1  'x, y, z'
loop_
 _atom_site_type_symbol
 _atom_site_label
 _atom_site_symmetry_multiplicity
 _atom_site_fract_x
 _atom_site_fract_y
 _atom_site_fract_z
 _atom_site_occupancy
  Sr  Sr0  1  0.21885033  0.78071942  0.01609381  1
  Sr  Sr1  1  0.77368017  0.19163115  0.94675868  1
  Mg  Mg0  1  0.42887686  0.02563803  0.33016545  1
  Zn  Zn0  1  0.02613695  0.43174621  0.69400888  1
  Zn  Zn1  1  0.96648302  0.56786789  0.25930778  1
  Sn  Sn0  1  0.66798869  0.89207770  0.60850937  1
  Sn  Sn1  1  0.25674090  0.29991850  0.50623275  1
  P  P0  1  0.35054658  0.37328157  0.20985446  1
  P  P1  1  0.61917277  0.60668423  0.78314515  1
  P  P2  1  0.81938756  0.94132077  0.22161111  1
  P  P3  1  0.19944207  0.02957946  0.75485605  1
  O  O0  1  0.85539356  0.53559599  0.85611072  1
  O  O1  1  0.62486278  0.43633911  0.19498396  1
  O  O2  1  0.67912173  0.82457636  0.79670144  1
  O  O3  1  0.96563929  0.14626042  0.73385787  1
  O  O4  1  0.37957772  0.56035796  0.83655090  1
  O  O5  1  0.09081923  0.83310126  0.66126390  1
  O  O6  1  0.83404103  0.12228914  0.32945981  1
  O  O7  1  0.26678445  0.03673517  0.90146605  1
  O  O8  1  0.31123071  0.15974586  0.19359860  1
  O  O9  1  0.81703224  0.95836025  0.08170745  1
  O  O10  1  0.14588157  0.43501654  0.10876088  1
  O  O11  1  0.28513794  0.47587619  0.34599320  1
  O  O12  1  0.59582947  0.51244745  0.63476383  1
  O  O13  1  0.56344972  0.81789246  0.22065524  1
  O  O14  1  0.05692601  0.83617058  0.26305518  1
  O  O15  1  0.43906166  0.12247332  0.71677749  1
loop_
_geom_bond_atom_site_label_1
_geom_bond_atom_site_label_2
_geom_bond_distance
_geom_bond_site_symmetry_2
Mg0 O8 1.990288 1_555
Mg0 O13 2.001498 1_545
Mg0 O14 2.208068 1_545
Mg0 O6 2.214654 1_555
Mg0 Sn1 2.807869 1_555
Sn1 Zn0 2.622907 1_555
O0 P1 1.564725 1_555
O0 Zn0 2.150629 1_655
O0 Sr0 2.581663 1_656
O0 Sr1 2.924965 1_555
O1 P0 1.542317 1_555
O1 Zn1 1.905378 1_555
O1 Sr1 3.163634 1_554
O2 P1 1.569851 1_555
O2 Sn0 2.182350 1_555
O2 Sr1 2.766052 1_565
O3 P3 1.602709 1_655
O3 Zn0 2.236677 1_655
O3 Sn0 2.307880 1_545
O3 Sr1 2.653311 1_555
O4 P1 1.537432 1_555
O4 Zn0 2.179030 1_555
O4 Sr0 2.578471 1_556
O5 P3 1.552047 1_565
O5 Sn0 2.343429 1_455
O6 P2 1.547013 1_545
O6 Sn1 2.674107 1_655
O7 P3 1.541266 1_555
O7 Sr0 2.484559 1_546
O7 Sr1 2.744017 1_555
O7 Sr1 3.066063 1_455
O8 P0 1.529067 1_555
O8 Sr0 2.948182 1_545
O9 P2 1.537209 1_555
O9 Sr1 2.483293 1_564
O9 Sr0 2.757867 1_655
O9 Sr0 3.218413 1_555
O10 P0 1.573905 1_555
O10 Zn1 2.142770 1_455
O10 Sr1 2.610261 1_454
O10 Sr0 2.943552 1_555
O11 P0 1.613623 1_555
O11 Zn1 2.044996 1_455
O11 Sn1 2.390383 1_555
O12 P1 1.572243 1_555
O12 Sn1 2.276094 1_555
O12 Zn0 2.448617 1_655
O13 P2 1.559906 1_555
O13 Sr0 2.542700 1_555
O14 P2 1.603297 1_455
O14 Zn1 1.971531 1_455
O14 Sr0 2.906877 1_555
O15 P3 1.554705 1_555
O15 Sn0 2.417452 1_545
O15 Sr1 2.687479 1_555
