# generated using pymatgen
data_Pr6GaFe13
_symmetry_space_group_name_H-M   'P 1'
_cell_length_a   13.04024463
_cell_length_b   13.04024463
_cell_length_c   13.04024463
_cell_angle_alpha   143.98728772
_cell_angle_beta   143.98728772
_cell_angle_gamma   51.84630209
_symmetry_Int_Tables_number   1
_chemical_formula_structural   Pr6GaFe13
_chemical_formula_sum   'Pr12 Ga2 Fe26'
_cell_volume   762.29355377
_cell_formula_units_Z   2
loop_
 _symmetry_equiv_pos_site_id
 _symmetry_equiv_pos_as_xyz
  1  'x, y, z'
loop_
 _atom_site_type_symbol
 _atom_site_label
 _atom_site_symmetry_multiplicity
 _atom_site_fract_x
 _atom_site_fract_y
 _atom_site_fract_z
 _atom_site_occupancy
  Pr  Pr0  1  0.10682100  0.10682100  0.00000000  1
  Pr  Pr1  1  0.89317900  0.89317900  0.00000000  1
  Pr  Pr2  1  0.39317900  0.39317900  0.00000000  1
  Pr  Pr3  1  0.60682100  0.60682100  0.00000000  1
  Pr  Pr4  1  0.85363900  0.35363900  0.83285100  1
  Pr  Pr5  1  0.14636100  0.64636100  0.16714900  1
  Pr  Pr6  1  0.52078800  0.02078800  0.16714900  1
  Pr  Pr7  1  0.35363900  0.52078800  0.50000000  1
  Pr  Pr8  1  0.97921200  0.14636100  0.50000000  1
  Pr  Pr9  1  0.47921200  0.97921200  0.83285100  1
  Pr  Pr10  1  0.64636100  0.47921200  0.50000000  1
  Pr  Pr11  1  0.02078800  0.85363900  0.50000000  1
  Ga  Ga0  1  0.25000000  0.25000000  0.00000000  1
  Ga  Ga1  1  0.75000000  0.75000000  0.00000000  1
  Fe  Fe0  1  0.73705100  0.23705100  0.85650700  1
  Fe  Fe1  1  0.26294900  0.76294900  0.14349300  1
  Fe  Fe2  1  0.38054500  0.88054500  0.14349300  1
  Fe  Fe3  1  0.23705100  0.38054500  0.50000000  1
  Fe  Fe4  1  0.11945500  0.26294900  0.50000000  1
  Fe  Fe5  1  0.61945500  0.11945500  0.85650700  1
  Fe  Fe6  1  0.76294900  0.61945500  0.50000000  1
  Fe  Fe7  1  0.88054500  0.73705100  0.50000000  1
  Fe  Fe8  1  0.50000000  0.00000000  0.50000000  1
  Fe  Fe9  1  0.00000000  0.50000000  0.50000000  1
  Fe  Fe10  1  0.20981300  0.06609900  0.27591200  1
  Fe  Fe11  1  0.79018700  0.93390100  0.72408800  1
  Fe  Fe12  1  0.06609900  0.79018700  0.85628600  1
  Fe  Fe13  1  0.70981300  0.43390100  0.14371400  1
  Fe  Fe14  1  0.93390100  0.20981300  0.14371400  1
  Fe  Fe15  1  0.29018700  0.56609900  0.85628600  1
  Fe  Fe16  1  0.56609900  0.70981300  0.27591200  1
  Fe  Fe17  1  0.43390100  0.29018700  0.72408800  1
  Fe  Fe18  1  0.20644300  0.70644300  0.72657000  1
  Fe  Fe19  1  0.79355700  0.29355700  0.27343000  1
  Fe  Fe20  1  0.97987300  0.47987300  0.27343000  1
  Fe  Fe21  1  0.70644300  0.97987300  0.50000000  1
  Fe  Fe22  1  0.52012700  0.79355700  0.50000000  1
  Fe  Fe23  1  0.02012700  0.52012700  0.72657000  1
  Fe  Fe24  1  0.29355700  0.02012700  0.50000000  1
  Fe  Fe25  1  0.47987300  0.20644300  0.50000000  1
loop_
_geom_bond_atom_site_label_1
_geom_bond_atom_site_label_2
_geom_bond_distance
_geom_bond_site_symmetry_2
Pr0 Pr11 3.548026 1_544
Pr0 Pr4 3.548026 1_454
Pr0 Pr6 3.548026 1_555
Pr0 Pr7 3.548026 1_555
Pr1 Pr8 3.548026 1_565
Pr1 Pr5 3.548026 1_655
Pr1 Pr10 3.548026 1_554
Pr1 Pr9 3.548026 1_554
Pr2 Pr5 3.548026 1_555
Pr2 Pr8 3.548026 1_454
Pr2 Pr9 3.548026 1_544
Pr3 Pr6 3.548026 1_565
Pr3 Pr4 3.548026 1_554
Pr3 Pr7 3.548026 1_554
Pr4 Pr5 3.508235 1_656
Pr4 Pr6 3.794995 1_555
Pr4 Pr8 3.984575 1_555
Pr5 Pr9 3.794995 1_555
Pr5 Pr7 3.984575 1_555
Pr6 Pr9 3.508235 1_544
Pr6 Pr8 3.984575 1_555
Pr7 Pr9 3.984575 1_555
Pr10 Pr7 3.508235 1_555
Pr10 Pr2 3.548026 1_555
Pr10 Pr8 3.794995 1_555
Pr10 Pr4 3.984575 1_555
Pr10 Pr6 3.984575 1_555
Pr11 Pr8 3.508235 1_465
Pr11 Pr3 3.548026 1_455
Pr11 Pr7 3.794995 1_555
Pr11 Pr9 3.984575 1_555
Pr11 Pr5 3.984575 1_555
Ga0 Pr9 3.346870 1_544
Ga0 Pr10 3.346870 1_555
Ga0 Pr5 3.346870 1_555
Ga0 Pr7 3.346870 1_555
Ga0 Pr8 3.346870 1_454
Ga0 Pr4 3.346870 1_454
Ga0 Pr6 3.346870 1_555
Ga0 Pr11 3.346870 1_544
Ga0 Pr0 3.358450 1_555
Ga0 Pr2 3.358450 1_555
Ga1 Pr10 3.346870 1_554
Ga1 Pr9 3.346870 1_554
Ga1 Pr5 3.346870 1_655
Ga1 Pr8 3.346870 1_565
Ga1 Pr7 3.346870 1_554
Ga1 Pr6 3.346870 1_565
Ga1 Pr4 3.346870 1_554
Ga1 Pr11 3.346870 1_655
Ga1 Pr1 3.358450 1_555
Ga1 Pr3 3.358450 1_555
Fe0 Fe8 2.456131 1_555
Fe0 Fe14 2.492943 1_556
Fe0 Fe13 2.492943 1_556
Fe0 Fe20 2.509706 1_556
Fe0 Fe21 2.539356 1_545
Fe0 Fe25 2.539356 1_555
Fe0 Fe11 2.568524 1_545
Fe0 Fe17 2.568524 1_555
Fe0 Fe5 2.758367 1_555
Fe0 Pr4 3.015182 1_555
Fe0 Pr0 3.172170 1_656
Fe0 Pr3 3.172170 1_556
Fe1 Fe8 2.456131 1_565
Fe1 Fe12 2.492943 1_554
Fe1 Fe15 2.492943 1_554
Fe1 Fe23 2.509706 1_554
Fe1 Fe22 2.539356 1_555
Fe1 Fe24 2.539356 1_565
Fe1 Fe10 2.568524 1_565
Fe1 Fe16 2.568524 1_555
Fe1 Fe2 2.758367 1_555
Fe1 Pr5 3.015182 1_555
Fe1 Pr2 3.172170 1_555
Fe1 Pr1 3.172170 1_455
Fe2 Fe8 2.456144 1_565
Fe2 Fe21 2.539348 1_555
Fe2 Fe25 2.539348 1_565
Fe2 Pr6 3.015158 1_565
Fe2 Pr3 3.172162 1_555
Fe2 Pr0 3.172162 1_565
Fe3 Fe9 2.456133 1_555
Fe3 Fe4 2.758367 1_555
Fe3 Pr7 3.015170 1_555
Fe3 Pr3 3.172167 1_556
Fe3 Pr0 3.172167 1_555
Fe4 Fe9 2.456133 1_555
Fe4 Pr8 3.015170 1_455
Fe4 Pr2 3.172167 1_556
Fe4 Pr1 3.172167 1_445
Fe5 Fe8 2.456144 1_555
Fe5 Pr9 3.015158 1_545
Fe5 Pr1 3.172162 1_546
Fe5 Pr2 3.172162 1_556
Fe6 Fe9 2.456133 1_655
Fe6 Fe7 2.758367 1_555
Fe6 Pr10 3.015170 1_555
Fe6 Pr2 3.172167 1_555
Fe6 Pr1 3.172167 1_556
Fe7 Fe9 2.456133 1_655
Fe7 Pr11 3.015170 1_655
Fe7 Pr3 3.172167 1_555
Fe7 Pr0 3.172167 1_666
Fe10 Fe8 2.399431 1_555
Fe10 Fe3 2.492954 1_555
Fe10 Fe4 2.492954 1_555
Fe10 Fe12 2.508082 1_544
Fe10 Fe14 2.508082 1_455
Fe10 Fe17 2.554936 1_555
Fe10 Fe2 2.568536 1_545
Fe10 Fe24 2.636967 1_555
Fe10 Fe25 2.636967 1_555
Fe10 Pr1 3.069755 1_445
Fe10 Pr0 3.069755 1_555
Fe11 Fe8 2.399431 1_565
Fe11 Fe7 2.492954 1_555
Fe11 Fe6 2.492954 1_555
Fe11 Fe14 2.508082 1_566
Fe11 Fe12 2.508082 1_655
Fe11 Fe16 2.554936 1_555
Fe11 Fe5 2.568536 1_565
Fe11 Fe21 2.636967 1_555
Fe11 Fe22 2.636967 1_555
Fe11 Pr1 3.069755 1_556
Fe11 Pr0 3.069755 1_666
Fe12 Fe9 2.399431 1_555
Fe12 Fe2 2.492956 1_556
Fe12 Fe15 2.554936 1_555
Fe12 Fe6 2.568528 1_455
Fe12 Fe7 2.568528 1_455
Fe12 Fe23 2.636967 1_555
Fe12 Fe18 2.636967 1_555
Fe12 Pr1 3.069755 1_456
Fe12 Pr0 3.069755 1_566
Fe13 Fe9 2.399431 1_655
Fe13 Fe5 2.492956 1_554
Fe13 Fe16 2.508082 1_555
Fe13 Fe17 2.508082 1_554
Fe13 Fe14 2.554936 1_555
Fe13 Fe7 2.568528 1_555
Fe13 Fe6 2.568528 1_555
Fe13 Fe20 2.636967 1_555
Fe13 Fe19 2.636967 1_555
Fe13 Pr3 3.069755 1_555
Fe13 Pr2 3.069755 1_555
Fe14 Fe9 2.399431 1_655
Fe14 Fe5 2.492956 1_554
Fe14 Fe3 2.568528 1_655
Fe14 Fe4 2.568528 1_655
Fe14 Fe20 2.636967 1_555
Fe14 Fe19 2.636967 1_555
Fe14 Pr0 3.069755 1_655
Fe14 Pr1 3.069755 1_545
Fe15 Fe9 2.399431 1_555
Fe15 Fe2 2.492956 1_556
Fe15 Fe17 2.508082 1_555
Fe15 Fe16 2.508082 1_556
Fe15 Fe3 2.568528 1_555
Fe15 Fe4 2.568528 1_555
Fe15 Fe18 2.636967 1_555
Fe15 Fe23 2.636967 1_555
Fe15 Pr3 3.069755 1_556
Fe15 Pr2 3.069755 1_556
Fe16 Fe8 2.399431 1_565
Fe16 Fe6 2.492954 1_555
Fe16 Fe7 2.492954 1_555
Fe16 Fe2 2.568536 1_555
Fe16 Fe22 2.636967 1_555
Fe16 Fe21 2.636967 1_555
Fe16 Pr3 3.069755 1_555
Fe16 Pr2 3.069755 1_555
Fe17 Fe8 2.399431 1_555
Fe17 Fe3 2.492954 1_555
Fe17 Fe4 2.492954 1_555
Fe17 Fe5 2.568536 1_555
Fe17 Fe25 2.636967 1_555
Fe17 Fe24 2.636967 1_555
Fe17 Pr3 3.069755 1_556
Fe17 Pr2 3.069755 1_556
Fe18 Fe2 2.509699 1_556
Fe18 Fe9 2.538330 1_555
Fe18 Fe3 2.539347 1_555
Fe18 Fe7 2.539347 1_455
Fe18 Fe20 2.583234 1_455
Fe18 Pr11 3.183719 1_555
Fe18 Pr7 3.183719 1_555
Fe18 Pr3 3.264512 1_556
Fe18 Pr0 3.264512 1_566
Fe18 Pr6 3.342987 1_566
Fe19 Fe5 2.509699 1_554
Fe19 Fe9 2.538330 1_655
Fe19 Fe4 2.539347 1_655
Fe19 Fe6 2.539347 1_555
Fe19 Fe23 2.583234 1_655
Fe19 Pr8 3.183719 1_555
Fe19 Pr10 3.183719 1_555
Fe19 Pr2 3.264512 1_555
Fe19 Pr1 3.264512 1_545
Fe19 Pr9 3.342987 1_544
Fe20 Fe9 2.538330 1_655
Fe20 Fe3 2.539347 1_655
Fe20 Fe7 2.539347 1_555
Fe20 Pr11 3.183719 1_655
Fe20 Pr7 3.183719 1_655
Fe20 Pr3 3.264512 1_555
Fe20 Pr0 3.264512 1_655
Fe20 Pr4 3.342987 1_554
Fe21 Fe7 2.509708 1_555
Fe21 Fe8 2.538330 1_565
Fe21 Fe25 2.583234 1_565
Fe21 Pr6 3.183719 1_565
Fe21 Pr4 3.183719 1_565
Fe21 Pr3 3.264512 1_555
Fe21 Pr0 3.264512 1_666
Fe21 Pr11 3.342987 1_655
Fe22 Fe6 2.509708 1_555
Fe22 Fe8 2.538330 1_565
Fe22 Fe5 2.539348 1_565
Fe22 Fe24 2.583234 1_565
Fe22 Pr5 3.183719 1_555
Fe22 Pr9 3.183719 1_555
Fe22 Pr1 3.264512 1_556
Fe22 Pr2 3.264512 1_555
Fe22 Pr10 3.342987 1_555
Fe23 Fe9 2.538330 1_555
Fe23 Fe4 2.539347 1_555
Fe23 Fe6 2.539347 1_455
Fe23 Pr8 3.183719 1_455
Fe23 Pr10 3.183719 1_455
Fe23 Pr2 3.264512 1_556
Fe23 Pr1 3.264512 1_456
Fe23 Pr5 3.342987 1_556
Fe24 Fe4 2.509708 1_555
Fe24 Fe8 2.538330 1_555
Fe24 Fe5 2.539348 1_555
Fe24 Pr5 3.183719 1_545
Fe24 Pr9 3.183719 1_545
Fe24 Pr1 3.264512 1_445
Fe24 Pr2 3.264512 1_556
Fe24 Pr8 3.342987 1_455
Fe25 Fe3 2.509708 1_555
Fe25 Fe8 2.538330 1_555
Fe25 Pr4 3.183719 1_555
Fe25 Pr6 3.183719 1_555
Fe25 Pr3 3.264512 1_556
Fe25 Pr0 3.264512 1_555
Fe25 Pr7 3.342987 1_555
