# generated using pymatgen
data_Tb3Co4Ge13
_symmetry_space_group_name_H-M   'P 1'
_cell_length_a   8.78166300
_cell_length_b   8.78166300
_cell_length_c   8.78166300
_cell_angle_alpha   90.00000000
_cell_angle_beta   90.00000000
_cell_angle_gamma   90.00000000
_symmetry_Int_Tables_number   1
_chemical_formula_structural   Tb3Co4Ge13
_chemical_formula_sum   'Tb6 Co8 Ge26'
_cell_volume   677.22081888
_cell_formula_units_Z   2
loop_
 _symmetry_equiv_pos_site_id
 _symmetry_equiv_pos_as_xyz
  1  'x, y, z'
loop_
 _atom_site_type_symbol
 _atom_site_label
 _atom_site_symmetry_multiplicity
 _atom_site_fract_x
 _atom_site_fract_y
 _atom_site_fract_z
 _atom_site_occupancy
  Tb  Tb0  1  0.00000000  0.50000000  0.75000000  1
  Tb  Tb1  1  0.50000000  0.25000000  0.00000000  1
  Tb  Tb2  1  0.75000000  0.00000000  0.50000000  1
  Tb  Tb3  1  0.00000000  0.50000000  0.25000000  1
  Tb  Tb4  1  0.50000000  0.75000000  0.00000000  1
  Tb  Tb5  1  0.25000000  0.00000000  0.50000000  1
  Co  Co0  1  0.75000000  0.25000000  0.75000000  1
  Co  Co1  1  0.25000000  0.75000000  0.25000000  1
  Co  Co2  1  0.75000000  0.75000000  0.25000000  1
  Co  Co3  1  0.25000000  0.25000000  0.75000000  1
  Co  Co4  1  0.25000000  0.75000000  0.75000000  1
  Co  Co5  1  0.75000000  0.25000000  0.25000000  1
  Co  Co6  1  0.25000000  0.25000000  0.25000000  1
  Co  Co7  1  0.75000000  0.75000000  0.75000000  1
  Ge  Ge0  1  0.50000000  0.50000000  0.50000000  1
  Ge  Ge1  1  0.00000000  0.00000000  0.00000000  1
  Ge  Ge2  1  0.80454700  0.34666000  0.50000000  1
  Ge  Ge3  1  0.65334000  0.50000000  0.80454700  1
  Ge  Ge4  1  0.50000000  0.19545300  0.65334000  1
  Ge  Ge5  1  0.19545300  0.65334000  0.50000000  1
  Ge  Ge6  1  0.34666000  0.50000000  0.19545300  1
  Ge  Ge7  1  0.50000000  0.80454700  0.34666000  1
  Ge  Ge8  1  0.80454700  0.65334000  0.50000000  1
  Ge  Ge9  1  0.65334000  0.50000000  0.19545300  1
  Ge  Ge10  1  0.19545300  0.34666000  0.50000000  1
  Ge  Ge11  1  0.34666000  0.50000000  0.80454700  1
  Ge  Ge12  1  0.50000000  0.80454700  0.65334000  1
  Ge  Ge13  1  0.50000000  0.19545300  0.34666000  1
  Ge  Ge14  1  0.30454700  0.00000000  0.84666000  1
  Ge  Ge15  1  0.15334000  0.30454700  0.00000000  1
  Ge  Ge16  1  0.00000000  0.15334000  0.69545300  1
  Ge  Ge17  1  0.69545300  0.00000000  0.15334000  1
  Ge  Ge18  1  0.84666000  0.69545300  0.00000000  1
  Ge  Ge19  1  0.00000000  0.84666000  0.30454700  1
  Ge  Ge20  1  0.30454700  0.00000000  0.15334000  1
  Ge  Ge21  1  0.15334000  0.69545300  0.00000000  1
  Ge  Ge22  1  0.69545300  0.00000000  0.84666000  1
  Ge  Ge23  1  0.84666000  0.30454700  0.00000000  1
  Ge  Ge24  1  0.00000000  0.15334000  0.30454700  1
  Ge  Ge25  1  0.00000000  0.84666000  0.69545300  1
loop_
_geom_bond_atom_site_label_1
_geom_bond_atom_site_label_2
_geom_bond_distance
_geom_bond_site_symmetry_2
Co0 Ge23 2.402046 1_556
Co0 Ge4 2.402046 1_555
Co0 Ge16 2.402046 1_655
Co0 Ge2 2.402046 1_555
Co0 Ge3 2.402046 1_555
Co0 Ge22 2.402046 1_555
Co0 Tb1 3.104787 1_556
Co0 Tb0 3.104787 1_655
Co0 Tb2 3.104787 1_555
Co1 Ge6 2.402046 1_555
Co1 Ge20 2.402046 1_565
Co1 Ge21 2.402046 1_555
Co1 Ge5 2.402046 1_555
Co1 Ge7 2.402046 1_555
Co1 Ge19 2.402046 1_555
Co1 Tb4 3.104787 1_555
Co1 Tb5 3.104787 1_565
Co1 Tb3 3.104787 1_555
Co2 Ge9 2.402046 1_555
Co2 Ge19 2.402046 1_655
Co2 Ge8 2.402046 1_555
Co2 Ge18 2.402046 1_555
Co2 Ge17 2.402046 1_565
Co2 Ge7 2.402046 1_555
Co2 Tb4 3.104787 1_555
Co2 Tb2 3.104787 1_565
Co2 Tb3 3.104787 1_655
Co3 Ge11 2.402046 1_555
Co3 Ge10 2.402046 1_555
Co3 Ge14 2.402046 1_555
Co3 Ge4 2.402046 1_555
Co3 Ge15 2.402046 1_556
Co3 Ge16 2.402046 1_555
Co3 Tb1 3.104787 1_556
Co3 Tb5 3.104787 1_555
Co3 Tb0 3.104787 1_555
Co4 Ge11 2.402046 1_555
Co4 Ge12 2.402046 1_555
Co4 Ge5 2.402046 1_555
Co4 Ge21 2.402046 1_556
Co4 Ge14 2.402046 1_565
Co4 Ge25 2.402046 1_555
Co4 Tb4 3.104787 1_556
Co4 Tb5 3.104787 1_565
Co4 Tb0 3.104787 1_555
Co5 Ge9 2.402046 1_555
Co5 Ge13 2.402046 1_555
Co5 Ge17 2.402046 1_555
Co5 Ge23 2.402046 1_555
Co5 Ge24 2.402046 1_655
Co5 Ge2 2.402046 1_555
Co5 Tb1 3.104787 1_555
Co5 Tb2 3.104787 1_555
Co5 Tb3 3.104787 1_655
Co6 Ge10 2.402046 1_555
Co6 Ge13 2.402046 1_555
Co6 Ge6 2.402046 1_555
Co6 Ge24 2.402046 1_555
Co6 Ge20 2.402046 1_555
Co6 Ge15 2.402046 1_555
Co6 Tb1 3.104787 1_555
Co6 Tb5 3.104787 1_555
Co6 Tb3 3.104787 1_555
Co7 Ge22 2.402046 1_565
Co7 Ge25 2.402046 1_655
Co7 Ge8 2.402046 1_555
Co7 Ge12 2.402046 1_555
Co7 Ge18 2.402046 1_556
Co7 Ge3 2.402046 1_555
Co7 Tb2 3.104787 1_565
Co7 Tb4 3.104787 1_556
Co7 Tb0 3.104787 1_655
Ge0 Ge10 2.994303 1_555
Ge0 Ge7 2.994303 1_555
Ge0 Ge11 2.994303 1_555
Ge0 Ge13 2.994303 1_555
Ge0 Ge6 2.994303 1_555
Ge0 Ge2 2.994303 1_555
Ge0 Ge8 2.994303 1_555
Ge0 Ge12 2.994303 1_555
Ge0 Ge3 2.994303 1_555
Ge0 Ge5 2.994303 1_555
Ge0 Ge9 2.994303 1_555
Ge0 Ge4 2.994303 1_555
Ge1 Ge20 2.994303 1_555
Ge1 Ge16 2.994303 1_554
Ge1 Ge18 2.994303 1_445
Ge1 Ge17 2.994303 1_455
Ge1 Ge21 2.994303 1_545
Ge1 Ge23 2.994303 1_455
Ge1 Ge25 2.994303 1_544
Ge1 Ge19 2.994303 1_545
Ge1 Ge14 2.994303 1_554
Ge1 Ge22 2.994303 1_454
Ge1 Ge15 2.994303 1_555
Ge1 Ge24 2.994303 1_555
Ge2 Ge8 2.693160 1_555
Ge2 Ge24 2.962121 1_655
Ge2 Tb2 3.081707 1_555
Ge2 Tb3 3.095023 1_655
Ge2 Tb0 3.095023 1_655
Ge3 Tb0 3.081707 1_655
Ge3 Tb4 3.095023 1_556
Ge3 Tb1 3.095023 1_556
Ge4 Tb1 3.081707 1_556
Ge4 Tb5 3.095023 1_555
Ge4 Tb2 3.095023 1_555
Ge5 Tb5 3.081707 1_565
Ge5 Tb0 3.095023 1_555
Ge5 Tb3 3.095023 1_555
Ge6 Ge9 2.693160 1_555
Ge6 Tb3 3.081707 1_555
Ge6 Tb4 3.095023 1_555
Ge6 Tb1 3.095023 1_555
Ge7 Tb4 3.081707 1_555
Ge7 Tb2 3.095023 1_565
Ge7 Tb5 3.095023 1_565
Ge8 Tb2 3.081707 1_565
Ge8 Tb3 3.095023 1_655
Ge8 Tb0 3.095023 1_655
Ge9 Tb3 3.081707 1_655
Ge9 Tb4 3.095023 1_555
Ge9 Tb1 3.095023 1_555
Ge10 Ge5 2.693160 1_555
Ge10 Ge16 2.962121 1_555
Ge10 Ge24 2.962121 1_555
Ge10 Tb5 3.081707 1_555
Ge10 Tb0 3.095023 1_555
Ge10 Tb3 3.095023 1_555
Ge11 Ge3 2.693160 1_555
Ge11 Ge21 2.962121 1_556
Ge11 Ge15 2.962121 1_556
Ge11 Tb0 3.081707 1_555
Ge11 Tb4 3.095023 1_556
Ge11 Tb1 3.095023 1_556
Ge12 Ge7 2.693160 1_555
Ge12 Ge14 2.962121 1_565
Ge12 Ge22 2.962121 1_565
Ge12 Tb4 3.081707 1_556
Ge12 Tb2 3.095023 1_565
Ge12 Tb5 3.095023 1_565
Ge13 Ge4 2.693160 1_555
Ge13 Ge17 2.962121 1_555
Ge13 Ge20 2.962121 1_555
Ge13 Tb1 3.081707 1_555
Ge13 Tb5 3.095023 1_555
Ge13 Tb2 3.095023 1_555
Ge14 Ge20 2.693160 1_556
Ge14 Ge4 2.962121 1_555
Ge14 Tb5 3.081707 1_555
Ge14 Tb1 3.095023 1_556
Ge14 Tb4 3.095023 1_546
Ge15 Ge23 2.693160 1_455
Ge15 Ge6 2.962121 1_555
Ge15 Tb1 3.081707 1_555
Ge15 Tb0 3.095023 1_554
Ge15 Tb3 3.095023 1_555
Ge16 Ge25 2.693160 1_545
Ge16 Ge2 2.962121 1_455
Ge16 Tb0 3.081707 1_555
Ge16 Tb5 3.095023 1_555
Ge16 Tb2 3.095023 1_455
Ge17 Ge22 2.693160 1_554
Ge17 Ge7 2.962121 1_545
Ge17 Tb2 3.081707 1_555
Ge17 Tb4 3.095023 1_545
Ge17 Tb1 3.095023 1_555
Ge18 Ge21 2.693160 1_655
Ge18 Ge9 2.962121 1_555
Ge18 Ge3 2.962121 1_554
Ge18 Tb4 3.081707 1_555
Ge18 Tb3 3.095023 1_655
Ge18 Tb0 3.095023 1_654
Ge19 Ge24 2.693160 1_565
Ge19 Ge8 2.962121 1_455
Ge19 Ge5 2.962121 1_555
Ge19 Tb3 3.081707 1_555
Ge19 Tb5 3.095023 1_565
Ge19 Tb2 3.095023 1_465
Ge20 Ge7 2.962121 1_545
Ge20 Tb5 3.081707 1_555
Ge20 Tb4 3.095023 1_545
Ge20 Tb1 3.095023 1_555
Ge21 Ge6 2.962121 1_555
Ge21 Tb4 3.081707 1_555
Ge21 Tb0 3.095023 1_554
Ge21 Tb3 3.095023 1_555
Ge22 Ge4 2.962121 1_555
Ge22 Tb2 3.081707 1_555
Ge22 Tb1 3.095023 1_556
Ge22 Tb4 3.095023 1_546
Ge23 Ge9 2.962121 1_555
Ge23 Ge3 2.962121 1_554
Ge23 Tb1 3.081707 1_555
Ge23 Tb3 3.095023 1_655
Ge23 Tb0 3.095023 1_654
Ge24 Tb3 3.081707 1_555
Ge24 Tb5 3.095023 1_555
Ge24 Tb2 3.095023 1_455
Ge25 Ge8 2.962121 1_455
Ge25 Ge5 2.962121 1_555
Ge25 Tb0 3.081707 1_555
Ge25 Tb2 3.095023 1_465
Ge25 Tb5 3.095023 1_565
