# generated using pymatgen
data_RbNaMg30O31
_symmetry_space_group_name_H-M   'P 1'
_cell_length_a   8.63476900
_cell_length_b   8.67226300
_cell_length_c   8.68838800
_cell_angle_alpha   90.00000000
_cell_angle_beta   90.00000000
_cell_angle_gamma   90.00000000
_symmetry_Int_Tables_number   1
_chemical_formula_structural   RbNaMg30O31
_chemical_formula_sum   'Rb1 Na1 Mg30 O31'
_cell_volume   650.61245184
_cell_formula_units_Z   1
loop_
 _symmetry_equiv_pos_site_id
 _symmetry_equiv_pos_as_xyz
  1  'x, y, z'
loop_
 _atom_site_type_symbol
 _atom_site_label
 _atom_site_symmetry_multiplicity
 _atom_site_fract_x
 _atom_site_fract_y
 _atom_site_fract_z
 _atom_site_occupancy
  Rb  Rb0  1  0.01264100  0.50000000  0.00000000  1
  Na  Na0  1  0.00906900  0.00000000  0.00000000  1
  Mg  Mg0  1  0.00550100  0.00000000  0.50000000  1
  Mg  Mg1  1  0.00262900  0.50000000  0.50000000  1
  Mg  Mg2  1  0.48489400  0.00000000  0.00000000  1
  Mg  Mg3  1  0.50369500  0.50000000  0.00000000  1
  Mg  Mg4  1  0.49716700  0.00000000  0.50000000  1
  Mg  Mg5  1  0.49905200  0.50000000  0.50000000  1
  Mg  Mg6  1  0.99665100  0.75454400  0.74941200  1
  Mg  Mg7  1  0.99665100  0.24545600  0.74941200  1
  Mg  Mg8  1  0.99665100  0.75454400  0.25058800  1
  Mg  Mg9  1  0.99665100  0.24545600  0.25058800  1
  Mg  Mg10  1  0.50125300  0.75117200  0.74977400  1
  Mg  Mg11  1  0.50125300  0.24882800  0.74977400  1
  Mg  Mg12  1  0.50125300  0.75117200  0.25022600  1
  Mg  Mg13  1  0.50125300  0.24882800  0.25022600  1
  Mg  Mg14  1  0.74937300  0.72807000  0.00000000  1
  Mg  Mg15  1  0.74937300  0.27193000  0.00000000  1
  Mg  Mg16  1  0.75044100  0.74665100  0.50000000  1
  Mg  Mg17  1  0.75044100  0.25334900  0.50000000  1
  Mg  Mg18  1  0.25244500  0.75381200  0.00000000  1
  Mg  Mg19  1  0.25244500  0.24618800  0.00000000  1
  Mg  Mg20  1  0.24855300  0.74949200  0.50000000  1
  Mg  Mg21  1  0.24855300  0.25050800  0.50000000  1
  Mg  Mg22  1  0.75400200  0.00000000  0.72675700  1
  Mg  Mg23  1  0.74978800  0.50000000  0.74257300  1
  Mg  Mg24  1  0.75400200  0.00000000  0.27324300  1
  Mg  Mg25  1  0.74978800  0.50000000  0.25742700  1
  Mg  Mg26  1  0.24477100  0.00000000  0.75126700  1
  Mg  Mg27  1  0.25378800  0.50000000  0.74710800  1
  Mg  Mg28  1  0.24477100  0.00000000  0.24873300  1
  Mg  Mg29  1  0.25378800  0.50000000  0.25289200  1
  O  O0  1  0.72473700  0.50000000  0.00000000  1
  O  O1  1  0.74399800  0.00000000  0.50000000  1
  O  O2  1  0.74245300  0.50000000  0.50000000  1
  O  O3  1  0.26061800  0.00000000  0.00000000  1
  O  O4  1  0.28641300  0.50000000  0.00000000  1
  O  O5  1  0.25506500  0.00000000  0.50000000  1
  O  O6  1  0.25618900  0.50000000  0.50000000  1
  O  O7  1  0.74776400  0.75441800  0.75053600  1
  O  O8  1  0.74776400  0.24558200  0.75053600  1
  O  O9  1  0.74776400  0.75441800  0.24946400  1
  O  O10  1  0.74776400  0.24558200  0.24946400  1
  O  O11  1  0.24964100  0.75092000  0.75404900  1
  O  O12  1  0.24964100  0.24908000  0.75404900  1
  O  O13  1  0.24964100  0.75092000  0.24595100  1
  O  O14  1  0.24964100  0.24908000  0.24595100  1
  O  O15  1  0.97634200  0.77110800  0.00000000  1
  O  O16  1  0.97634200  0.22889200  0.00000000  1
  O  O17  1  0.99961400  0.75425600  0.50000000  1
  O  O18  1  0.99961400  0.24574400  0.50000000  1
  O  O19  1  0.51097300  0.76287900  0.00000000  1
  O  O20  1  0.51097300  0.23712100  0.00000000  1
  O  O21  1  0.49896600  0.75293500  0.50000000  1
  O  O22  1  0.49896600  0.24706500  0.50000000  1
  O  O23  1  0.99660200  0.00000000  0.73363900  1
  O  O24  1  0.99627700  0.50000000  0.72101500  1
  O  O25  1  0.99660200  0.00000000  0.26636100  1
  O  O26  1  0.99627700  0.50000000  0.27898500  1
  O  O27  1  0.50795300  0.00000000  0.75431300  1
  O  O28  1  0.50243100  0.50000000  0.74514800  1
  O  O29  1  0.50795300  0.00000000  0.24568700  1
  O  O30  1  0.50243100  0.50000000  0.25485200  1
loop_
_geom_bond_atom_site_label_1
_geom_bond_atom_site_label_2
_geom_bond_distance
_geom_bond_site_symmetry_2
Na0 O16 2.005026 1_455
Na0 O15 2.005026 1_445
Na0 O3 2.172068 1_555
Na0 O25 2.316750 1_455
Na0 O23 2.316750 1_454
Mg0 O23 2.031400 1_455
Mg0 O25 2.031400 1_455
Mg0 O18 2.131763 1_455
Mg0 O17 2.131763 1_445
Mg0 O5 2.154927 1_555
Mg0 O1 2.258018 1_455
Mg1 O24 1.921047 1_455
Mg1 O26 1.921047 1_455
Mg1 O6 2.189432 1_555
Mg1 O17 2.205129 1_455
Mg1 O18 2.205129 1_455
Mg1 O2 2.246560 1_455
Mg2 O3 1.936571 1_555
Mg2 O20 2.068669 1_555
Mg2 O19 2.068669 1_545
Mg2 O29 2.143890 1_555
Mg2 O27 2.143890 1_554
Mg3 O4 1.876180 1_555
Mg3 O0 1.908647 1_555
Mg3 O30 2.214280 1_555
Mg3 O28 2.214280 1_554
Mg3 O19 2.280622 1_555
Mg3 O20 2.280622 1_555
Mg4 O5 2.090495 1_555
Mg4 O1 2.131329 1_555
Mg4 O22 2.142669 1_555
Mg4 O21 2.142669 1_545
Mg4 O27 2.211532 1_555
Mg4 O29 2.211532 1_555
Mg5 O6 2.097066 1_555
Mg5 O2 2.101711 1_555
Mg5 O28 2.130141 1_555
Mg5 O30 2.130141 1_555
Mg5 O21 2.193519 1_555
Mg5 O22 2.193519 1_555
Mg6 O23 2.133066 1_565
Mg6 O7 2.149104 1_555
Mg6 O17 2.167141 1_555
Mg6 O11 2.185108 1_655
Mg6 O15 2.188975 1_556
Mg6 O24 2.221220 1_555
Mg7 O23 2.133066 1_555
Mg7 O8 2.149104 1_555
Mg7 O18 2.167141 1_555
Mg7 O12 2.185108 1_655
Mg7 O16 2.188975 1_556
Mg7 O24 2.221220 1_555
Mg8 O25 2.133066 1_565
Mg8 O9 2.149104 1_555
Mg8 O17 2.167141 1_555
Mg8 O13 2.185108 1_655
Mg8 O15 2.188975 1_555
Mg8 O26 2.221220 1_555
Mg9 O25 2.133066 1_555
Mg9 O10 2.149104 1_555
Mg9 O18 2.167141 1_555
Mg9 O14 2.185108 1_655
Mg9 O16 2.188975 1_555
Mg9 O26 2.221220 1_555
Mg10 O7 2.128762 1_555
Mg10 O27 2.159037 1_565
Mg10 O21 2.170277 1_555
Mg10 O11 2.172930 1_555
Mg10 O19 2.178048 1_556
Mg10 O28 2.178624 1_555
Mg11 O8 2.128762 1_555
Mg11 O27 2.159037 1_555
Mg11 O22 2.170277 1_555
Mg11 O12 2.172930 1_555
Mg11 O20 2.178048 1_556
Mg11 O28 2.178624 1_555
Mg12 O9 2.128762 1_555
Mg12 O29 2.159037 1_565
Mg12 O21 2.170277 1_555
Mg12 O13 2.172930 1_555
Mg12 O19 2.178048 1_555
Mg12 O30 2.178624 1_555
Mg13 O10 2.128762 1_555
Mg13 O29 2.159037 1_555
Mg13 O22 2.170277 1_555
Mg13 O14 2.172930 1_555
Mg13 O20 2.178048 1_555
Mg13 O30 2.178624 1_555
Mg14 O0 1.989290 1_555
Mg14 O15 1.995049 1_555
Mg14 O19 2.080545 1_555
Mg14 O9 2.179495 1_555
Mg14 O7 2.179495 1_554
Mg15 O0 1.989290 1_555
Mg15 O16 1.995049 1_555
Mg15 O20 2.080545 1_555
Mg15 O10 2.179495 1_555
Mg15 O8 2.179495 1_554
Mg16 O2 2.140134 1_555
Mg16 O17 2.152562 1_555
Mg16 O21 2.172112 1_555
Mg16 O7 2.177919 1_555
Mg16 O9 2.177919 1_555
Mg16 O1 2.197813 1_565
Mg17 O2 2.140134 1_555
Mg17 O18 2.152562 1_555
Mg17 O22 2.172112 1_555
Mg17 O8 2.177919 1_555
Mg17 O10 2.177919 1_555
Mg17 O1 2.197813 1_555
Mg18 O3 2.136173 1_565
Mg18 O13 2.137202 1_555
Mg18 O11 2.137202 1_554
Mg18 O4 2.220580 1_555
Mg18 O19 2.233714 1_555
Mg18 O15 2.388799 1_455
Mg19 O3 2.136173 1_555
Mg19 O14 2.137202 1_555
Mg19 O12 2.137202 1_554
Mg19 O4 2.220580 1_555
Mg19 O20 2.233714 1_555
Mg19 O16 2.388799 1_455
Mg20 O17 2.149928 1_455
Mg20 O21 2.162465 1_555
Mg20 O6 2.164665 1_555
Mg20 O5 2.173199 1_565
Mg20 O11 2.207331 1_555
Mg20 O13 2.207331 1_555
Mg21 O18 2.149928 1_455
Mg21 O22 2.162465 1_555
Mg21 O6 2.164665 1_555
Mg21 O5 2.173199 1_555
Mg21 O12 2.207331 1_555
Mg21 O14 2.207331 1_555
Mg22 O1 1.972046 1_555
Mg22 O23 2.095648 1_555
Mg22 O27 2.138024 1_555
Mg22 O8 2.140427 1_555
Mg22 O7 2.140427 1_545
Mg23 O2 2.108520 1_555
Mg23 O28 2.135988 1_555
Mg23 O24 2.136601 1_555
Mg23 O7 2.207533 1_555
Mg23 O8 2.207533 1_555
Mg23 O0 2.247061 1_556
Mg24 O1 1.972046 1_555
Mg24 O25 2.095648 1_555
Mg24 O29 2.138024 1_555
Mg24 O10 2.140427 1_555
Mg24 O9 2.140427 1_545
Mg25 O2 2.108520 1_555
Mg25 O30 2.135988 1_555
Mg25 O26 2.136601 1_555
Mg25 O9 2.207533 1_555
Mg25 O10 2.207533 1_555
Mg25 O0 2.247061 1_555
Mg26 O23 2.148348 1_455
Mg26 O11 2.160632 1_545
Mg26 O12 2.160632 1_555
Mg26 O3 2.165417 1_556
Mg26 O5 2.184914 1_555
Mg26 O27 2.272670 1_555
Mg27 O28 2.147042 1_555
Mg27 O6 2.147070 1_555
Mg27 O12 2.177174 1_555
Mg27 O11 2.177174 1_555
Mg27 O4 2.215209 1_556
Mg27 O24 2.235075 1_455
Mg28 O25 2.148348 1_455
Mg28 O13 2.160632 1_545
Mg28 O14 2.160632 1_555
Mg28 O3 2.165417 1_555
Mg28 O5 2.184914 1_555
Mg28 O29 2.272670 1_555
Mg29 O30 2.147042 1_555
Mg29 O6 2.147070 1_555
Mg29 O14 2.177174 1_555
Mg29 O13 2.177174 1_555
Mg29 O4 2.215209 1_555
Mg29 O26 2.235075 1_455
O0 Rb0 2.485985 1_655
O4 Rb0 2.363958 1_555
O15 Rb0 2.371920 1_655
O16 Rb0 2.371920 1_655
O24 Rb0 2.428045 1_656
O26 Rb0 2.428045 1_655
