# generated using pymatgen
data_CaMg2
_symmetry_space_group_name_H-M   'P 1'
_cell_length_a   13.31519898
_cell_length_b   13.31519898
_cell_length_c   15.76828427
_cell_angle_alpha   73.16307129
_cell_angle_beta   73.16307129
_cell_angle_gamma   30.91787838
_symmetry_Int_Tables_number   1
_chemical_formula_structural   CaMg2
_chemical_formula_sum   'Ca16 Mg32'
_cell_volume   1370.02174445
_cell_formula_units_Z   16
loop_
 _symmetry_equiv_pos_site_id
 _symmetry_equiv_pos_as_xyz
  1  'x, y, z'
loop_
 _atom_site_type_symbol
 _atom_site_label
 _atom_site_symmetry_multiplicity
 _atom_site_fract_x
 _atom_site_fract_y
 _atom_site_fract_z
 _atom_site_occupancy
  Ca  Ca0_0  1  0.41270250  0.41270250  0.31772400  1
  Ca  Ca0_1  1  0.41270250  0.41270250  0.81772400  1
  Ca  Ca0_2  1  0.41270250  0.91270250  0.31772400  1
  Ca  Ca0_3  1  0.41270250  0.91270250  0.81772400  1
  Ca  Ca0_4  1  0.91270250  0.41270250  0.31772400  1
  Ca  Ca0_5  1  0.91270250  0.41270250  0.81772400  1
  Ca  Ca0_6  1  0.91270250  0.91270250  0.31772400  1
  Ca  Ca0_7  1  0.91270250  0.91270250  0.81772400  1
  Ca  Ca1_0  1  0.08729750  0.08729750  0.18227600  1
  Ca  Ca1_1  1  0.08729750  0.08729750  0.68227600  1
  Ca  Ca1_2  1  0.08729750  0.58729750  0.18227600  1
  Ca  Ca1_3  1  0.08729750  0.58729750  0.68227600  1
  Ca  Ca1_4  1  0.58729750  0.08729750  0.18227600  1
  Ca  Ca1_5  1  0.58729750  0.08729750  0.68227600  1
  Ca  Ca1_6  1  0.58729750  0.58729750  0.18227600  1
  Ca  Ca1_7  1  0.58729750  0.58729750  0.68227600  1
  Mg  Mg0_0  1  0.06839450  0.06839450  0.48377100  1
  Mg  Mg0_1  1  0.06839450  0.06839450  0.98377100  1
  Mg  Mg0_2  1  0.06839450  0.56839450  0.48377100  1
  Mg  Mg0_3  1  0.06839450  0.56839450  0.98377100  1
  Mg  Mg0_4  1  0.56839450  0.06839450  0.48377100  1
  Mg  Mg0_5  1  0.56839450  0.06839450  0.98377100  1
  Mg  Mg0_6  1  0.56839450  0.56839450  0.48377100  1
  Mg  Mg0_7  1  0.56839450  0.56839450  0.98377100  1
  Mg  Mg1_0  1  0.26531950  0.26531950  0.36380450  1
  Mg  Mg1_1  1  0.26531950  0.26531950  0.86380450  1
  Mg  Mg1_2  1  0.26531950  0.76531950  0.36380450  1
  Mg  Mg1_3  1  0.26531950  0.76531950  0.86380450  1
  Mg  Mg1_4  1  0.76531950  0.26531950  0.36380450  1
  Mg  Mg1_5  1  0.76531950  0.26531950  0.86380450  1
  Mg  Mg1_6  1  0.76531950  0.76531950  0.36380450  1
  Mg  Mg1_7  1  0.76531950  0.76531950  0.86380450  1
  Mg  Mg2_0  1  0.23468050  0.23468050  0.13619550  1
  Mg  Mg2_1  1  0.23468050  0.23468050  0.63619550  1
  Mg  Mg2_2  1  0.23468050  0.73468050  0.13619550  1
  Mg  Mg2_3  1  0.23468050  0.73468050  0.63619550  1
  Mg  Mg2_4  1  0.73468050  0.23468050  0.13619550  1
  Mg  Mg2_5  1  0.73468050  0.23468050  0.63619550  1
  Mg  Mg2_6  1  0.73468050  0.73468050  0.13619550  1
  Mg  Mg2_7  1  0.73468050  0.73468050  0.63619550  1
  Mg  Mg3_0  1  0.43160550  0.43160550  0.01622900  1
  Mg  Mg3_1  1  0.43160550  0.43160550  0.51622900  1
  Mg  Mg3_2  1  0.43160550  0.93160550  0.01622900  1
  Mg  Mg3_3  1  0.43160550  0.93160550  0.51622900  1
  Mg  Mg3_4  1  0.93160550  0.43160550  0.01622900  1
  Mg  Mg3_5  1  0.93160550  0.43160550  0.51622900  1
  Mg  Mg3_6  1  0.93160550  0.93160550  0.01622900  1
  Mg  Mg3_7  1  0.93160550  0.93160550  0.51622900  1
loop_
_geom_bond_atom_site_label_1
_geom_bond_atom_site_label_2
_geom_bond_distance
_geom_bond_site_symmetry_2
Ca0_0 Mg3_1 3.308414 1_555
Ca0_0 Mg2_4 3.402511 1_555
Ca0_0 Mg2_2 3.402511 1_555
Ca0_0 Mg1_4 3.429953 1_555
Ca0_0 Mg1_2 3.429953 1_555
Ca0_0 Mg0_4 3.471956 1_555
Ca0_0 Mg0_2 3.471956 1_555
Ca0_0 Ca0_6 3.549136 1_455
Ca0_0 Ca0_6 3.549136 1_545
Ca0_0 Mg1_0 3.631256 1_555
Ca0_0 Ca1_4 3.733763 1_555
Ca0_0 Ca1_2 3.733763 1_555
Ca0_1 Mg3_0 3.308414 1_556
Ca0_1 Mg2_3 3.402511 1_555
Ca0_1 Mg2_5 3.402511 1_555
Ca0_1 Mg1_3 3.429953 1_555
Ca0_1 Mg1_5 3.429953 1_555
Ca0_1 Mg0_5 3.471956 1_555
Ca0_1 Mg0_3 3.471956 1_555
Ca0_1 Ca0_7 3.549136 1_455
Ca0_1 Ca0_7 3.549136 1_545
Ca0_1 Mg1_1 3.631256 1_555
Ca0_1 Ca1_3 3.733763 1_555
Ca0_1 Ca1_5 3.733763 1_555
Ca0_2 Mg3_3 3.308414 1_555
Ca0_2 Mg2_6 3.402511 1_555
Ca0_2 Mg2_0 3.402511 1_565
Ca0_2 Mg1_6 3.429953 1_555
Ca0_2 Mg1_0 3.429953 1_565
Ca0_2 Mg0_0 3.471956 1_565
Ca0_2 Mg0_6 3.471956 1_555
Ca0_2 Ca0_4 3.549136 1_555
Ca0_2 Ca0_4 3.549136 1_465
Ca0_2 Mg1_2 3.631256 1_555
Ca0_2 Ca1_6 3.733763 1_555
Ca0_2 Ca1_0 3.733763 1_565
Ca0_3 Mg3_2 3.308414 1_556
Ca0_3 Mg2_7 3.402511 1_555
Ca0_3 Mg2_1 3.402511 1_565
Ca0_3 Mg1_1 3.429953 1_565
Ca0_3 Mg1_7 3.429953 1_555
Ca0_3 Mg0_1 3.471956 1_565
Ca0_3 Mg0_7 3.471956 1_555
Ca0_3 Ca0_5 3.549136 1_555
Ca0_3 Ca0_5 3.549136 1_465
Ca0_3 Mg1_3 3.631256 1_555
Ca0_3 Ca1_1 3.733763 1_565
Ca0_3 Ca1_7 3.733763 1_555
Ca0_4 Mg3_5 3.308414 1_555
Ca0_4 Mg2_0 3.402511 1_655
Ca0_4 Mg2_6 3.402511 1_555
Ca0_4 Mg1_0 3.429953 1_655
Ca0_4 Mg1_6 3.429953 1_555
Ca0_4 Mg0_0 3.471956 1_655
Ca0_4 Mg0_6 3.471956 1_555
Ca0_4 Mg1_4 3.631256 1_555
Ca0_4 Ca1_6 3.733763 1_555
Ca0_4 Ca1_0 3.733763 1_655
Ca0_5 Mg3_4 3.308414 1_556
Ca0_5 Mg2_7 3.402511 1_555
Ca0_5 Mg2_1 3.402511 1_655
Ca0_5 Mg1_1 3.429953 1_655
Ca0_5 Mg1_7 3.429953 1_555
Ca0_5 Mg0_1 3.471956 1_655
Ca0_5 Mg0_7 3.471956 1_555
Ca0_5 Mg1_5 3.631256 1_555
Ca0_5 Ca1_1 3.733763 1_655
Ca0_5 Ca1_7 3.733763 1_555
Ca0_6 Mg3_7 3.308414 1_555
Ca0_6 Mg2_2 3.402511 1_655
Ca0_6 Mg2_4 3.402511 1_565
Ca0_6 Mg1_2 3.429953 1_655
Ca0_6 Mg1_4 3.429953 1_565
Ca0_6 Mg0_4 3.471956 1_565
Ca0_6 Mg0_2 3.471956 1_655
Ca0_6 Mg1_6 3.631256 1_555
Ca0_6 Ca1_2 3.733763 1_655
Ca0_6 Ca1_4 3.733763 1_565
Ca0_7 Mg3_6 3.308414 1_556
Ca0_7 Mg2_3 3.402511 1_655
Ca0_7 Mg2_5 3.402511 1_565
Ca0_7 Mg1_3 3.429953 1_655
Ca0_7 Mg1_5 3.429953 1_565
Ca0_7 Mg0_3 3.471956 1_655
Ca0_7 Mg0_5 3.471956 1_565
Ca0_7 Mg1_7 3.631256 1_555
Ca0_7 Ca1_5 3.733763 1_565
Ca0_7 Ca1_3 3.733763 1_655
Ca1_0 Mg0_1 3.308414 1_554
Ca1_0 Mg1_4 3.402511 1_455
Ca1_0 Mg1_2 3.402511 1_545
Ca1_0 Mg2_2 3.429953 1_545
Ca1_0 Mg2_4 3.429953 1_455
Ca1_0 Mg3_4 3.471956 1_455
Ca1_0 Mg3_2 3.471956 1_545
Ca1_0 Ca1_6 3.549136 1_455
Ca1_0 Ca1_6 3.549136 1_545
Ca1_0 Mg2_0 3.631256 1_555
Ca1_1 Mg0_0 3.308414 1_555
Ca1_1 Mg1_5 3.402511 1_455
Ca1_1 Mg1_3 3.402511 1_545
Ca1_1 Mg2_3 3.429953 1_545
Ca1_1 Mg2_5 3.429953 1_455
Ca1_1 Mg3_5 3.471956 1_455
Ca1_1 Mg3_3 3.471956 1_545
Ca1_1 Ca1_7 3.549136 1_455
Ca1_1 Ca1_7 3.549136 1_545
Ca1_1 Mg2_1 3.631256 1_555
Ca1_2 Mg0_3 3.308414 1_554
Ca1_2 Mg1_0 3.402511 1_555
Ca1_2 Mg1_6 3.402511 1_455
Ca1_2 Mg2_0 3.429953 1_555
Ca1_2 Mg2_6 3.429953 1_455
Ca1_2 Mg3_6 3.471956 1_455
Ca1_2 Mg3_0 3.471956 1_555
Ca1_2 Ca1_4 3.549136 1_465
Ca1_2 Ca1_4 3.549136 1_555
Ca1_2 Mg2_2 3.631256 1_555
Ca1_3 Mg0_2 3.308414 1_555
Ca1_3 Mg1_7 3.402511 1_455
Ca1_3 Mg1_1 3.402511 1_555
Ca1_3 Mg2_1 3.429953 1_555
Ca1_3 Mg2_7 3.429953 1_455
Ca1_3 Mg3_7 3.471956 1_455
Ca1_3 Mg3_1 3.471956 1_555
Ca1_3 Ca1_5 3.549136 1_555
Ca1_3 Ca1_5 3.549136 1_465
Ca1_3 Mg2_3 3.631256 1_555
Ca1_4 Mg0_5 3.308414 1_554
Ca1_4 Mg1_0 3.402511 1_555
Ca1_4 Mg1_6 3.402511 1_545
Ca1_4 Mg2_6 3.429953 1_545
Ca1_4 Mg2_0 3.429953 1_555
Ca1_4 Mg3_6 3.471956 1_545
Ca1_4 Mg3_0 3.471956 1_555
Ca1_4 Mg2_4 3.631256 1_555
Ca1_5 Mg0_4 3.308414 1_555
Ca1_5 Mg1_7 3.402511 1_545
Ca1_5 Mg1_1 3.402511 1_555
Ca1_5 Mg2_1 3.429953 1_555
Ca1_5 Mg2_7 3.429953 1_545
Ca1_5 Mg3_7 3.471956 1_545
Ca1_5 Mg3_1 3.471956 1_555
Ca1_5 Mg2_5 3.631256 1_555
Ca1_6 Mg0_7 3.308414 1_554
Ca1_6 Mg1_4 3.402511 1_555
Ca1_6 Mg1_2 3.402511 1_555
Ca1_6 Mg2_4 3.429953 1_555
Ca1_6 Mg2_2 3.429953 1_555
Ca1_6 Mg3_4 3.471956 1_555
Ca1_6 Mg3_2 3.471956 1_555
Ca1_6 Mg2_6 3.631256 1_555
Ca1_7 Mg0_6 3.308414 1_555
Ca1_7 Mg1_5 3.402511 1_555
Ca1_7 Mg1_3 3.402511 1_555
Ca1_7 Mg2_5 3.429953 1_555
Ca1_7 Mg2_3 3.429953 1_555
Ca1_7 Mg3_5 3.471956 1_555
Ca1_7 Mg3_3 3.471956 1_555
Ca1_7 Mg2_7 3.631256 1_555
Mg0_0 Mg1_4 3.183103 1_455
Mg0_0 Mg1_2 3.183103 1_545
Mg0_0 Mg2_3 3.230890 1_545
Mg0_0 Mg2_5 3.230890 1_455
Mg0_0 Mg3_7 3.392453 1_445
Mg0_0 Mg0_6 3.549136 1_545
Mg0_0 Mg0_6 3.549136 1_455
Mg0_0 Mg3_5 3.570501 1_455
Mg0_0 Mg3_3 3.570501 1_545
Mg0_1 Mg1_5 3.183103 1_455
Mg0_1 Mg1_3 3.183103 1_545
Mg0_1 Mg2_2 3.230890 1_546
Mg0_1 Mg2_4 3.230890 1_456
Mg0_1 Mg3_6 3.392453 1_446
Mg0_1 Mg0_7 3.549136 1_545
Mg0_1 Mg0_7 3.549136 1_455
Mg0_1 Mg3_4 3.570501 1_456
Mg0_1 Mg3_2 3.570501 1_546
Mg0_2 Mg1_0 3.183103 1_555
Mg0_2 Mg1_6 3.183103 1_455
Mg0_2 Mg2_1 3.230890 1_555
Mg0_2 Mg2_7 3.230890 1_455
Mg0_2 Mg3_5 3.392453 1_455
Mg0_2 Mg0_4 3.549136 1_465
Mg0_2 Mg0_4 3.549136 1_555
Mg0_2 Mg3_7 3.570501 1_455
Mg0_2 Mg3_1 3.570501 1_555
Mg0_3 Mg1_7 3.183103 1_455
Mg0_3 Mg1_1 3.183103 1_555
Mg0_3 Mg2_6 3.230890 1_456
Mg0_3 Mg2_0 3.230890 1_556
Mg0_3 Mg3_4 3.392453 1_456
Mg0_3 Mg0_5 3.549136 1_465
Mg0_3 Mg0_5 3.549136 1_555
Mg0_3 Mg3_0 3.570501 1_556
Mg0_3 Mg3_6 3.570501 1_456
Mg0_4 Mg1_0 3.183103 1_555
Mg0_4 Mg1_6 3.183103 1_545
Mg0_4 Mg2_1 3.230890 1_555
Mg0_4 Mg2_7 3.230890 1_545
Mg0_4 Mg3_3 3.392453 1_545
Mg0_4 Mg3_7 3.570501 1_545
Mg0_4 Mg3_1 3.570501 1_555
Mg0_5 Mg1_7 3.183103 1_545
Mg0_5 Mg1_1 3.183103 1_555
Mg0_5 Mg2_6 3.230890 1_546
Mg0_5 Mg2_0 3.230890 1_556
Mg0_5 Mg3_2 3.392453 1_546
Mg0_5 Mg3_0 3.570501 1_556
Mg0_5 Mg3_6 3.570501 1_546
Mg0_6 Mg1_4 3.183103 1_555
Mg0_6 Mg1_2 3.183103 1_555
Mg0_6 Mg2_5 3.230890 1_555
Mg0_6 Mg2_3 3.230890 1_555
Mg0_6 Mg3_1 3.392453 1_555
Mg0_6 Mg3_5 3.570501 1_555
Mg0_6 Mg3_3 3.570501 1_555
Mg0_7 Mg1_5 3.183103 1_555
Mg0_7 Mg1_3 3.183103 1_555
Mg0_7 Mg2_4 3.230890 1_556
Mg0_7 Mg2_2 3.230890 1_556
Mg0_7 Mg3_0 3.392453 1_556
Mg0_7 Mg3_4 3.570501 1_556
Mg0_7 Mg3_2 3.570501 1_556
Mg1_0 Mg3_5 3.230890 1_455
Mg1_0 Mg3_3 3.230890 1_545
Mg1_0 Mg1_6 3.549136 1_455
Mg1_0 Mg1_6 3.549136 1_545
Mg1_1 Mg3_2 3.230890 1_546
Mg1_1 Mg3_4 3.230890 1_456
Mg1_1 Mg1_7 3.549136 1_545
Mg1_1 Mg1_7 3.549136 1_455
Mg1_2 Mg3_1 3.230890 1_555
Mg1_2 Mg3_7 3.230890 1_455
Mg1_2 Mg1_4 3.549136 1_555
Mg1_2 Mg1_4 3.549136 1_465
Mg1_3 Mg3_0 3.230890 1_556
Mg1_3 Mg3_6 3.230890 1_456
Mg1_3 Mg1_5 3.549136 1_465
Mg1_3 Mg1_5 3.549136 1_555
Mg1_4 Mg3_1 3.230890 1_555
Mg1_4 Mg3_7 3.230890 1_545
Mg1_5 Mg3_6 3.230890 1_546
Mg1_5 Mg3_0 3.230890 1_556
Mg1_6 Mg3_5 3.230890 1_555
Mg1_6 Mg3_3 3.230890 1_555
Mg1_7 Mg3_4 3.230890 1_556
Mg1_7 Mg3_2 3.230890 1_556
Mg2_0 Mg3_4 3.183103 1_455
Mg2_0 Mg3_2 3.183103 1_545
Mg2_0 Mg2_6 3.549136 1_545
Mg2_0 Mg2_6 3.549136 1_455
Mg2_1 Mg3_5 3.183103 1_455
Mg2_1 Mg3_3 3.183103 1_545
Mg2_1 Mg2_7 3.549136 1_455
Mg2_1 Mg2_7 3.549136 1_545
Mg2_2 Mg3_0 3.183103 1_555
Mg2_2 Mg3_6 3.183103 1_455
Mg2_2 Mg2_4 3.549136 1_555
Mg2_2 Mg2_4 3.549136 1_465
Mg2_3 Mg3_1 3.183103 1_555
Mg2_3 Mg3_7 3.183103 1_455
Mg2_3 Mg2_5 3.549136 1_555
Mg2_3 Mg2_5 3.549136 1_465
Mg2_4 Mg3_6 3.183103 1_545
Mg2_4 Mg3_0 3.183103 1_555
Mg2_5 Mg3_1 3.183103 1_555
Mg2_5 Mg3_7 3.183103 1_545
Mg2_6 Mg3_4 3.183103 1_555
Mg2_6 Mg3_2 3.183103 1_555
Mg2_7 Mg3_3 3.183103 1_555
Mg2_7 Mg3_5 3.183103 1_555
Mg3_0 Mg3_6 3.549136 1_545
Mg3_0 Mg3_6 3.549136 1_455
Mg3_1 Mg3_7 3.549136 1_545
Mg3_1 Mg3_7 3.549136 1_455
Mg3_2 Mg3_4 3.549136 1_465
Mg3_2 Mg3_4 3.549136 1_555
Mg3_3 Mg3_5 3.549136 1_555
Mg3_3 Mg3_5 3.549136 1_465
