# generated using pymatgen
data_K3NaCr2O8
_symmetry_space_group_name_H-M   'P 1'
_cell_length_a   5.78466490
_cell_length_b   5.78466444
_cell_length_c   7.45980288
_cell_angle_alpha   90.00000000
_cell_angle_beta   90.00000000
_cell_angle_gamma   119.99999208
_symmetry_Int_Tables_number   1
_chemical_formula_structural   K3NaCr2O8
_chemical_formula_sum   'K3 Na1 Cr2 O8'
_cell_volume   216.17944366
_cell_formula_units_Z   1
loop_
 _symmetry_equiv_pos_site_id
 _symmetry_equiv_pos_as_xyz
  1  'x, y, z'
loop_
 _atom_site_type_symbol
 _atom_site_label
 _atom_site_symmetry_multiplicity
 _atom_site_fract_x
 _atom_site_fract_y
 _atom_site_fract_z
 _atom_site_occupancy
  K  K0  1  -0.00000000  -0.00000000  0.50000000  1
  K  K1  1  0.66666700  0.33333300  0.16038994  1
  K  K2  1  0.33333300  0.66666700  0.83961006  1
  Na  Na0  1  -0.00000000  -0.00000000  0.00000000  1
  Cr  Cr0  1  0.66666700  0.33333300  0.72339119  1
  Cr  Cr1  1  0.33333300  0.66666700  0.27660881  1
  O  O0  1  0.35866659  0.17933280  0.80192876  1
  O  O1  1  0.82066720  0.17933280  0.80192876  1
  O  O2  1  0.82066720  0.64133341  0.80192876  1
  O  O3  1  0.17933280  0.82066720  0.19807124  1
  O  O4  1  0.64133341  0.82066720  0.19807124  1
  O  O5  1  0.17933280  0.35866659  0.19807124  1
  O  O6  1  0.33333300  0.66666700  0.49439087  1
  O  O7  1  0.66666700  0.33333300  0.50560913  1
loop_
_geom_bond_atom_site_label_1
_geom_bond_atom_site_label_2
_geom_bond_distance
_geom_bond_site_symmetry_2
K0 O3 2.881225 1_545
K0 O1 2.881225 1_455
K0 O5 2.881228 1_555
K0 O2 2.881228 1_445
K0 O4 2.881228 1_445
K0 O0 2.881228 1_555
K1 O7 2.575267 1_555
K1 O4 2.908724 1_545
K1 O5 2.908724 1_655
K1 O3 2.908729 1_545
K1 O3 2.908729 1_655
K1 O4 2.908735 1_555
K1 O5 2.908735 1_555
K1 O1 3.087285 1_554
K1 O2 3.087285 1_554
K1 O0 3.087285 1_554
K2 O6 2.575267 1_555
K2 O0 2.908724 1_565
K2 O2 2.908724 1_455
K2 O1 2.908729 1_565
K2 O1 2.908729 1_455
K2 O0 2.908735 1_555
K2 O2 2.908735 1_555
K2 O3 3.087285 1_556
K2 O5 3.087285 1_556
K2 O4 3.087285 1_556
Na0 O1 2.326304 1_454
Na0 O3 2.326304 1_545
Na0 O2 2.326308 1_444
Na0 O5 2.326308 1_555
Na0 O0 2.326309 1_554
Na0 O4 2.326309 1_445
Cr0 O7 1.624611 1_555
Cr0 O1 1.650465 1_555
Cr0 O2 1.650465 1_555
Cr0 O0 1.650465 1_555
Cr1 O6 1.624611 1_555
Cr1 O3 1.650465 1_555
Cr1 O5 1.650465 1_555
Cr1 O4 1.650465 1_555
