# generated using pymatgen
data_Sr2FeOsO6
_symmetry_space_group_name_H-M   'P 1'
_cell_length_a   5.61376740
_cell_length_b   8.00638500
_cell_length_c   5.61376528
_cell_angle_alpha   90.00000000
_cell_angle_beta   89.99999278
_cell_angle_gamma   90.00000000
_symmetry_Int_Tables_number   1
_chemical_formula_structural   Sr2FeOsO6
_chemical_formula_sum   'Sr4 Fe2 Os2 O12'
_cell_volume   252.31619981
_cell_formula_units_Z   2
loop_
 _symmetry_equiv_pos_site_id
 _symmetry_equiv_pos_as_xyz
  1  'x, y, z'
loop_
 _atom_site_type_symbol
 _atom_site_label
 _atom_site_symmetry_multiplicity
 _atom_site_fract_x
 _atom_site_fract_y
 _atom_site_fract_z
 _atom_site_occupancy
  Sr  Sr0  1  0.50001500  0.25000200  0.00001300  1
  Sr  Sr1  1  0.00001400  0.75000300  0.50001200  1
  Sr  Sr2  1  0.50001500  0.75000300  0.00001300  1
  Sr  Sr3  1  0.00001400  0.25000200  0.50001200  1
  Fe  Fe0  1  0.49984200  0.50000700  0.49998600  1
  Fe  Fe1  1  0.99991400  0.99995100  0.99980300  1
  Os  Os0  1  0.50001000  0.00000200  0.50000600  1
  Os  Os1  1  0.00000500  0.50000000  0.00001000  1
  O  O0  1  0.00001500  0.25362200  0.00001100  1
  O  O1  1  0.50001300  0.75362100  0.50001300  1
  O  O2  1  0.24752200  0.50000300  0.24752000  1
  O  O3  1  0.74752400  0.00000200  0.74752200  1
  O  O4  1  0.24752300  0.50000300  0.75250400  1
  O  O5  1  0.74752500  0.00000200  0.25250200  1
  O  O6  1  0.00001500  0.74638300  0.00001100  1
  O  O7  1  0.50001300  0.24638300  0.50001300  1
  O  O8  1  0.75250700  0.50000300  0.75250500  1
  O  O9  1  0.25250500  0.00000200  0.25250300  1
  O  O10  1  0.75250600  0.50000300  0.24752000  1
  O  O11  1  0.25250300  0.00000200  0.74752300  1
loop_
_geom_bond_atom_site_label_1
_geom_bond_atom_site_label_2
_geom_bond_distance
_geom_bond_site_symmetry_2
Fe0 O2 2.003765 1_555
Fe0 O4 2.003967 1_555
Fe0 O10 2.005130 1_555
Fe0 O8 2.005344 1_555
Fe0 O1 2.030532 1_555
Fe0 O7 2.030612 1_555
Fe1 O3 2.003308 1_565
Fe1 O11 2.004094 1_665
Fe1 O5 2.004963 1_566
Fe1 O9 2.005769 1_666
Fe1 O6 2.030163 1_656
Fe1 O0 2.030988 1_666
O0 Os1 1.972597 1_555
O0 Sr3 2.807027 1_554
O0 Sr0 2.807033 1_455
O0 Sr0 2.807033 1_555
O0 Sr3 2.807038 1_555
O1 Os0 1.972621 1_565
O1 Sr1 2.807028 1_555
O1 Sr2 2.807032 1_555
O1 Sr2 2.807032 1_556
O1 Sr1 2.807039 1_655
O2 Os1 1.965026 1_555
O2 Sr1 2.818878 1_555
O2 Sr2 2.818878 1_555
O2 Sr3 2.818884 1_555
O2 Sr0 2.818884 1_555
O3 Os0 1.965038 1_555
O3 Sr1 2.818873 1_645
O3 Sr2 2.818873 1_546
O3 Sr3 2.818878 1_655
O3 Sr0 2.818878 1_556
O4 Os1 1.965014 1_556
O4 Sr1 2.818881 1_555
O4 Sr2 2.818881 1_556
O4 Sr3 2.818887 1_555
O4 Sr0 2.818887 1_556
O5 Os0 1.964994 1_555
O5 Sr2 2.818870 1_545
O5 Sr1 2.818870 1_645
O5 Sr0 2.818876 1_555
O5 Sr3 2.818876 1_655
O6 Os1 1.972637 1_555
O6 Sr1 2.807027 1_554
O6 Sr2 2.807033 1_455
O6 Sr2 2.807033 1_555
O6 Sr1 2.807038 1_555
O7 Os0 1.972621 1_555
O7 Sr3 2.807028 1_555
O7 Sr0 2.807032 1_555
O7 Sr0 2.807032 1_556
O7 Sr3 2.807039 1_655
O8 Os1 1.964930 1_656
O8 Sr2 2.818878 1_556
O8 Sr1 2.818878 1_655
O8 Sr0 2.818884 1_556
O8 Sr3 2.818884 1_655
O9 Os0 1.964950 1_555
O9 Sr2 2.818873 1_545
O9 Sr1 2.818873 1_545
O9 Sr0 2.818878 1_555
O9 Sr3 2.818878 1_555
O10 Os1 1.964954 1_655
O10 Sr2 2.818873 1_555
O10 Sr1 2.818879 1_655
O10 Sr0 2.818879 1_555
O10 Sr3 2.818884 1_655
O11 Os0 1.965014 1_555
O11 Sr1 2.818873 1_545
O11 Sr2 2.818878 1_546
O11 Sr3 2.818878 1_555
O11 Sr0 2.818884 1_556
