# generated using pymatgen
data_KIn3
_symmetry_space_group_name_H-M   'P 1'
_cell_length_a   5.53211920
_cell_length_b   5.53211920
_cell_length_c   5.53211920
_cell_angle_alpha   60.00000000
_cell_angle_beta   60.00000000
_cell_angle_gamma   60.00000000
_symmetry_Int_Tables_number   1
_chemical_formula_structural   KIn3
_chemical_formula_sum   'K1 In3'
_cell_volume   119.71803769
_cell_formula_units_Z   1
loop_
 _symmetry_equiv_pos_site_id
 _symmetry_equiv_pos_as_xyz
  1  'x, y, z'
loop_
 _atom_site_type_symbol
 _atom_site_label
 _atom_site_symmetry_multiplicity
 _atom_site_fract_x
 _atom_site_fract_y
 _atom_site_fract_z
 _atom_site_occupancy
  K  K0  1  0.00000000  0.00000000  0.00000000  1
  In  In0  1  0.75000000  0.75000000  0.75000000  1
  In  In1  1  0.25000000  0.25000000  0.25000000  1
  In  In2  1  0.50000000  0.50000000  0.50000000  1
loop_
_geom_bond_atom_site_label_1
_geom_bond_atom_site_label_2
_geom_bond_distance
_geom_bond_site_symmetry_2
In0 In2 3.387717 1_655
In0 In2 3.387717 1_555
In0 K0 3.387717 1_656
In0 K0 3.387717 1_566
In0 In2 3.387717 1_556
In0 K0 3.387717 1_666
In0 In2 3.387717 1_565
In0 K0 3.387717 1_665
In1 In2 3.387717 1_554
In1 In2 3.387717 1_455
In1 K0 3.387717 1_555
In1 K0 3.387717 1_655
In1 In2 3.387717 1_555
In1 K0 3.387717 1_556
In1 In2 3.387717 1_545
In1 K0 3.387717 1_565
In2 K0 3.911799 1_566
In2 K0 3.911799 1_556
In2 K0 3.911799 1_655
In2 K0 3.911799 1_656
In2 K0 3.911799 1_565
In2 K0 3.911799 1_665
