# generated using pymatgen
data_Sc5(GeN3)3
_symmetry_space_group_name_H-M   'P 1'
_cell_length_a   7.62975943
_cell_length_b   11.25524277
_cell_length_c   15.18979000
_cell_angle_alpha   90.00000000
_cell_angle_beta   90.00000000
_cell_angle_gamma   137.52638057
_symmetry_Int_Tables_number   1
_chemical_formula_structural   Sc5(GeN3)3
_chemical_formula_sum   'Sc20 Ge12 N36'
_cell_volume   880.81054912
_cell_formula_units_Z   4
loop_
 _symmetry_equiv_pos_site_id
 _symmetry_equiv_pos_as_xyz
  1  'x, y, z'
loop_
 _atom_site_type_symbol
 _atom_site_label
 _atom_site_symmetry_multiplicity
 _atom_site_fract_x
 _atom_site_fract_y
 _atom_site_fract_z
 _atom_site_occupancy
  Sc  Sc0  1  0.00000000  0.49745300  0.87302600  1
  Sc  Sc1  1  0.00000000  0.50254700  0.12697400  1
  Sc  Sc2  1  0.00000000  0.00254700  0.37302600  1
  Sc  Sc3  1  0.00000000  0.99745300  0.62697400  1
  Sc  Sc4  1  0.38411400  0.95464500  0.89208600  1
  Sc  Sc5  1  0.38411400  0.42947000  0.10791400  1
  Sc  Sc6  1  0.38411400  0.92947000  0.39208600  1
  Sc  Sc7  1  0.38411400  0.45464500  0.60791400  1
  Sc  Sc8  1  0.61588600  0.04535500  0.10791400  1
  Sc  Sc9  1  0.61588600  0.57053000  0.89208600  1
  Sc  Sc10  1  0.61588600  0.07053000  0.60791400  1
  Sc  Sc11  1  0.61588600  0.54535500  0.39208600  1
  Sc  Sc12  1  0.00000000  0.46840200  0.59843200  1
  Sc  Sc13  1  0.00000000  0.53159800  0.40156800  1
  Sc  Sc14  1  0.00000000  0.03159800  0.09843200  1
  Sc  Sc15  1  0.00000000  0.96840200  0.90156800  1
  Sc  Sc16  1  0.52912300  0.26456200  0.00000000  1
  Sc  Sc17  1  0.52912300  0.76456200  0.50000000  1
  Sc  Sc18  1  0.47087700  0.73543800  0.00000000  1
  Sc  Sc19  1  0.47087700  0.23543800  0.50000000  1
  Ge  Ge0  1  0.00000000  0.75469100  0.04532500  1
  Ge  Ge1  1  0.00000000  0.24530900  0.95467500  1
  Ge  Ge2  1  0.00000000  0.74530900  0.54532500  1
  Ge  Ge3  1  0.00000000  0.25469100  0.45467500  1
  Ge  Ge4  1  0.00000000  0.21426500  0.74536000  1
  Ge  Ge5  1  0.00000000  0.78573500  0.25464000  1
  Ge  Ge6  1  0.00000000  0.28573500  0.24536000  1
  Ge  Ge7  1  0.00000000  0.71426500  0.75464000  1
  Ge  Ge8  1  0.50000000  0.76326200  0.75000000  1
  Ge  Ge9  1  0.50000000  0.73673800  0.25000000  1
  Ge  Ge10  1  0.50000000  0.23673800  0.25000000  1
  Ge  Ge11  1  0.50000000  0.26326200  0.75000000  1
  N  N0  1  0.00000000  0.31180700  0.64822200  1
  N  N1  1  0.00000000  0.68819300  0.35177800  1
  N  N2  1  0.00000000  0.18819300  0.14822200  1
  N  N3  1  0.00000000  0.81180700  0.85177800  1
  N  N4  1  0.00000000  0.30406300  0.84241300  1
  N  N5  1  0.00000000  0.69593700  0.15758700  1
  N  N6  1  0.00000000  0.19593700  0.34241300  1
  N  N7  1  0.00000000  0.80406300  0.65758700  1
  N  N8  1  0.74058700  0.48670100  0.79624100  1
  N  N9  1  0.74058700  0.25388700  0.20375900  1
  N  N10  1  0.74058700  0.75388700  0.29624100  1
  N  N11  1  0.74058700  0.98670100  0.70375900  1
  N  N12  1  0.25941200  0.51329900  0.20375900  1
  N  N13  1  0.25941200  0.74611300  0.79624100  1
  N  N14  1  0.25941200  0.24611300  0.70375900  1
  N  N15  1  0.25941200  0.01329900  0.29624100  1
  N  N16  1  0.45628300  0.16690200  0.86045700  1
  N  N17  1  0.45628300  0.28938100  0.13954300  1
  N  N18  1  0.45628300  0.78938100  0.36045700  1
  N  N19  1  0.45628300  0.66690200  0.63954300  1
  N  N20  1  0.54371700  0.83309800  0.13954300  1
  N  N21  1  0.54371700  0.71061900  0.86045700  1
  N  N22  1  0.54371700  0.21061900  0.63954300  1
  N  N23  1  0.54371700  0.33309800  0.36045700  1
  N  N24  1  0.28410400  0.99647800  0.02118700  1
  N  N25  1  0.28410400  0.28762700  0.97881300  1
  N  N26  1  0.28410400  0.78762700  0.52118700  1
  N  N27  1  0.28410400  0.49647800  0.47881300  1
  N  N28  1  0.71589600  0.00352200  0.97881300  1
  N  N29  1  0.71589600  0.71237300  0.02118700  1
  N  N30  1  0.71589600  0.21237300  0.47881300  1
  N  N31  1  0.71589600  0.50352200  0.52118700  1
  N  N32  1  0.00000000  0.61051600  0.98739400  1
  N  N33  1  0.00000000  0.38948400  0.01260600  1
  N  N34  1  0.00000000  0.88948400  0.48739400  1
  N  N35  1  0.00000000  0.11051600  0.51260600  1
loop_
_geom_bond_atom_site_label_1
_geom_bond_atom_site_label_2
_geom_bond_distance
_geom_bond_site_symmetry_2
Ge0 N5 1.828971 1_555
Ge0 N32 1.845959 1_554
Ge0 N29 1.880674 1_455
Ge0 N24 1.880681 1_555
Ge1 N4 1.828971 1_555
Ge1 N33 1.845959 1_556
Ge1 N25 1.880674 1_555
Ge1 N28 1.880681 1_455
Ge2 N7 1.828971 1_555
Ge2 N34 1.845959 1_555
Ge2 N26 1.880674 1_555
Ge2 N31 1.880681 1_455
Ge3 N6 1.828971 1_555
Ge3 N35 1.845959 1_555
Ge3 N30 1.880674 1_455
Ge3 N27 1.880681 1_555
Ge4 N4 1.787406 1_555
Ge4 N0 1.839133 1_555
Ge4 N14 1.843539 1_555
Ge4 N11 1.843539 1_445
Ge5 N5 1.787406 1_555
Ge5 N1 1.839133 1_555
Ge5 N15 1.843539 1_565
Ge5 N10 1.843546 1_455
Ge6 N6 1.787406 1_555
Ge6 N2 1.839133 1_555
Ge6 N12 1.843539 1_555
Ge6 N9 1.843546 1_455
Ge7 N7 1.787406 1_555
Ge7 N3 1.839133 1_555
Ge7 N13 1.843539 1_555
Ge7 N8 1.843539 1_455
Ge8 N13 1.837791 1_555
Ge8 N11 1.837791 1_555
Ge8 N19 1.889164 1_555
Ge8 N21 1.889164 1_555
Ge9 N10 1.837784 1_555
Ge9 N12 1.837791 1_555
Ge9 N20 1.889164 1_555
Ge9 N18 1.889164 1_555
Ge10 N9 1.837784 1_555
Ge10 N15 1.837791 1_555
Ge10 N23 1.889164 1_555
Ge10 N17 1.889164 1_555
Ge11 N14 1.837791 1_555
Ge11 N8 1.837791 1_555
Ge11 N16 1.889164 1_555
Ge11 N22 1.889164 1_555
N0 Sc12 1.917928 1_555
N0 Sc7 2.144300 1_555
N0 Sc10 2.144303 1_455
N1 Sc13 1.917928 1_555
N1 Sc11 2.144300 1_455
N1 Sc6 2.144303 1_555
N2 Sc14 1.917928 1_555
N2 Sc8 2.144300 1_455
N2 Sc5 2.144303 1_555
N3 Sc15 1.917928 1_555
N3 Sc4 2.144300 1_555
N3 Sc9 2.144303 1_455
N4 Sc0 2.225768 1_555
N5 Sc1 2.225768 1_555
N6 Sc2 2.225768 1_555
N7 Sc3 2.225768 1_555
N8 Sc0 2.222418 1_655
N8 Sc9 2.288944 1_555
N9 Sc1 2.222411 1_655
N9 Sc8 2.288960 1_555
N10 Sc2 2.222411 1_665
N10 Sc11 2.288960 1_555
N11 Sc3 2.222418 1_655
N11 Sc10 2.288944 1_565
N12 Sc1 2.222411 1_555
N12 Sc5 2.288949 1_555
N13 Sc0 2.222411 1_555
N13 Sc4 2.288957 1_555
N14 Sc3 2.222411 1_545
N14 Sc7 2.288957 1_555
N15 Sc2 2.222411 1_555
N15 Sc6 2.288949 1_545
N16 Sc4 2.073841 1_545
N16 Sc16 2.260254 1_556
N16 Sc15 2.455073 1_545
N16 Sc0 2.884394 1_655
N17 Sc5 2.073852 1_555
N17 Sc16 2.260251 1_555
N17 Sc14 2.455073 1_555
N17 Sc1 2.884394 1_655
N18 Sc6 2.073852 1_555
N18 Sc17 2.260251 1_555
N18 Sc13 2.455073 1_555
N18 Sc2 2.884394 1_665
N19 Sc7 2.073841 1_555
N19 Sc17 2.260254 1_555
N19 Sc12 2.455073 1_555
N19 Sc3 2.884394 1_655
N20 Sc8 2.073841 1_565
N20 Sc18 2.260254 1_555
N20 Sc14 2.455073 1_665
N20 Sc1 2.884394 1_555
N21 Sc9 2.073852 1_555
N21 Sc18 2.260251 1_556
N21 Sc15 2.455073 1_655
N21 Sc0 2.884394 1_555
N22 Sc10 2.073852 1_555
N22 Sc19 2.260251 1_555
N22 Sc12 2.455073 1_655
N22 Sc3 2.884394 1_545
N23 Sc11 2.073841 1_555
N23 Sc19 2.260254 1_555
N23 Sc13 2.455073 1_655
N23 Sc2 2.884394 1_555
N24 Sc16 2.093245 1_565
N24 Sc4 2.275857 1_554
N24 Sc8 2.528209 1_565
N24 Sc15 2.662615 1_554
N24 Sc14 2.737816 1_565
N25 Sc16 2.093245 1_556
N25 Sc5 2.275857 1_556
N25 Sc9 2.528197 1_555
N25 Sc14 2.662620 1_556
N25 Sc15 2.737824 1_545
N26 Sc17 2.093245 1_555
N26 Sc6 2.275857 1_555
N26 Sc10 2.528197 1_565
N26 Sc13 2.662620 1_555
N26 Sc12 2.737824 1_555
N27 Sc17 2.093245 1_555
N27 Sc7 2.275857 1_555
N27 Sc11 2.528209 1_555
N27 Sc12 2.662615 1_555
N27 Sc13 2.737816 1_555
N28 Sc18 2.093245 1_546
N28 Sc8 2.275857 1_556
N28 Sc4 2.528209 1_545
N28 Sc14 2.662615 1_656
N28 Sc15 2.737816 1_645
N29 Sc18 2.093245 1_555
N29 Sc9 2.275857 1_554
N29 Sc5 2.528197 1_555
N29 Sc15 2.662620 1_654
N29 Sc14 2.737824 1_665
N30 Sc19 2.093245 1_555
N30 Sc10 2.275857 1_555
N30 Sc6 2.528197 1_545
N30 Sc12 2.662620 1_655
N30 Sc13 2.737824 1_655
N31 Sc19 2.093245 1_555
N31 Sc11 2.275857 1_555
N31 Sc7 2.528209 1_555
N31 Sc13 2.662615 1_655
N31 Sc12 2.737816 1_655
N32 Sc0 2.153449 1_555
N32 Sc1 2.443760 1_556
N32 Sc16 2.732979 1_456
N32 Sc18 2.732984 1_556
N32 Sc9 2.990265 1_455
N32 Sc4 2.990272 1_555
N33 Sc1 2.153449 1_555
N33 Sc0 2.443760 1_554
N33 Sc18 2.732979 1_555
N33 Sc16 2.732984 1_455
N33 Sc5 2.990265 1_555
N33 Sc8 2.990272 1_455
N34 Sc2 2.153449 1_565
N34 Sc3 2.443760 1_555
N34 Sc19 2.732979 1_565
N34 Sc17 2.732984 1_455
N34 Sc6 2.990265 1_555
N34 Sc11 2.990272 1_455
N35 Sc3 2.153449 1_545
N35 Sc2 2.443760 1_555
N35 Sc17 2.732979 1_445
N35 Sc19 2.732984 1_555
N35 Sc10 2.990265 1_455
N35 Sc7 2.990272 1_555
