# generated using pymatgen
data_Zn(FeS2)4
_symmetry_space_group_name_H-M   'P 1'
_cell_length_a   7.28458394
_cell_length_b   7.28458394
_cell_length_c   7.28458441
_cell_angle_alpha   53.69493268
_cell_angle_beta   53.69493268
_cell_angle_gamma   53.69493616
_symmetry_Int_Tables_number   1
_chemical_formula_structural   Zn(FeS2)4
_chemical_formula_sum   'Zn1 Fe4 S8'
_cell_volume   233.03849413
_cell_formula_units_Z   1
loop_
 _symmetry_equiv_pos_site_id
 _symmetry_equiv_pos_as_xyz
  1  'x, y, z'
loop_
 _atom_site_type_symbol
 _atom_site_label
 _atom_site_symmetry_multiplicity
 _atom_site_fract_x
 _atom_site_fract_y
 _atom_site_fract_z
 _atom_site_occupancy
  Zn  Zn0  1  0.50000000  0.50000000  0.50000000  1
  Fe  Fe0  1  0.00000000  0.50000000  0.50000000  1
  Fe  Fe1  1  0.50000000  0.00000000  0.50000000  1
  Fe  Fe2  1  0.50000000  0.50000000  0.00000000  1
  Fe  Fe3  1  0.00000000  0.00000000  0.00000000  1
  S  S0  1  0.27163700  0.75733400  0.75733400  1
  S  S1  1  0.24266600  0.24266600  0.72836300  1
  S  S2  1  0.72836300  0.24266600  0.24266600  1
  S  S3  1  0.24266600  0.72836300  0.24266600  1
  S  S4  1  0.26346700  0.26346700  0.26346700  1
  S  S5  1  0.73653300  0.73653300  0.73653300  1
  S  S6  1  0.75733400  0.27163700  0.75733400  1
  S  S7  1  0.75733400  0.75733400  0.27163700  1
loop_
_geom_bond_atom_site_label_1
_geom_bond_atom_site_label_2
_geom_bond_distance
_geom_bond_site_symmetry_2
Fe0 S3 2.296018 1_555
Fe0 S6 2.296018 1_455
Fe0 S1 2.296018 1_555
Fe0 S7 2.296018 1_455
Fe0 S5 2.303250 1_455
Fe0 S4 2.303250 1_555
Fe1 S2 2.296018 1_555
Fe1 S0 2.296018 1_545
Fe1 S1 2.296018 1_555
Fe1 S7 2.296018 1_545
Fe1 S5 2.303250 1_545
Fe1 S4 2.303250 1_555
Fe2 S2 2.296018 1_555
Fe2 S3 2.296018 1_555
Fe2 S6 2.296018 1_554
Fe2 S0 2.296018 1_554
Fe2 S4 2.303250 1_555
Fe2 S5 2.303250 1_554
Fe3 S1 2.362478 1_554
Fe3 S7 2.362478 1_445
Fe3 S3 2.362478 1_545
Fe3 S2 2.362478 1_455
Fe3 S0 2.362478 1_544
Fe3 S6 2.362478 1_454
S0 Zn0 2.563420 1_555
S1 Zn0 2.563419 1_555
S2 Zn0 2.563420 1_555
S3 Zn0 2.563420 1_555
S6 Zn0 2.563420 1_555
S7 Zn0 2.563419 1_555
