# generated using pymatgen
data_KAlCuF6
_symmetry_space_group_name_H-M   'P 1'
_cell_length_a   6.73723000
_cell_length_b   7.15358500
_cell_length_c   9.95376700
_cell_angle_alpha   90.00000000
_cell_angle_beta   90.00000000
_cell_angle_gamma   90.00000000
_symmetry_Int_Tables_number   1
_chemical_formula_structural   KAlCuF6
_chemical_formula_sum   'K4 Al4 Cu4 F24'
_cell_volume   479.72525920
_cell_formula_units_Z   4
loop_
 _symmetry_equiv_pos_site_id
 _symmetry_equiv_pos_as_xyz
  1  'x, y, z'
loop_
 _atom_site_type_symbol
 _atom_site_label
 _atom_site_symmetry_multiplicity
 _atom_site_fract_x
 _atom_site_fract_y
 _atom_site_fract_z
 _atom_site_occupancy
  K  K0  1  0.98728400  0.25000000  0.38064600  1
  K  K1  1  0.51271600  0.75000000  0.88064600  1
  K  K2  1  0.48728400  0.25000000  0.11935400  1
  K  K3  1  0.01271600  0.75000000  0.61935400  1
  Al  Al0  1  0.50000000  0.00000000  0.50000000  1
  Al  Al1  1  0.00000000  0.50000000  0.00000000  1
  Al  Al2  1  0.50000000  0.50000000  0.50000000  1
  Al  Al3  1  0.00000000  0.00000000  0.00000000  1
  Cu  Cu0  1  0.31319800  0.25000000  0.76205500  1
  Cu  Cu1  1  0.68680200  0.75000000  0.23794500  1
  Cu  Cu2  1  0.18680200  0.75000000  0.26205500  1
  Cu  Cu3  1  0.81319800  0.25000000  0.73794500  1
  F  F0  1  0.61552100  0.00747700  0.33414500  1
  F  F1  1  0.11552100  0.49252300  0.16585500  1
  F  F2  1  0.38447900  0.50747700  0.66585500  1
  F  F3  1  0.88447900  0.99252300  0.83414500  1
  F  F4  1  0.38447900  0.99252300  0.66585500  1
  F  F5  1  0.88447900  0.50747700  0.83414500  1
  F  F6  1  0.61552100  0.49252300  0.33414500  1
  F  F7  1  0.11552100  0.00747700  0.16585500  1
  F  F8  1  0.73799300  0.05521400  0.57503000  1
  F  F9  1  0.23799300  0.44478600  0.92497000  1
  F  F10  1  0.26200700  0.55521400  0.42497000  1
  F  F11  1  0.76200700  0.94478600  0.07503000  1
  F  F12  1  0.07215300  0.25000000  0.66363500  1
  F  F13  1  0.57215300  0.25000000  0.83636500  1
  F  F14  1  0.92784700  0.75000000  0.33636500  1
  F  F15  1  0.42784700  0.75000000  0.16363500  1
  F  F16  1  0.43573000  0.25000000  0.48451600  1
  F  F17  1  0.93573000  0.25000000  0.01548400  1
  F  F18  1  0.56427000  0.75000000  0.51548400  1
  F  F19  1  0.06427000  0.75000000  0.98451600  1
  F  F20  1  0.23799300  0.05521400  0.92497000  1
  F  F21  1  0.73799300  0.44478600  0.57503000  1
  F  F22  1  0.76200700  0.55521400  0.07503000  1
  F  F23  1  0.26200700  0.94478600  0.42497000  1
loop_
_geom_bond_atom_site_label_1
_geom_bond_atom_site_label_2
_geom_bond_distance
_geom_bond_site_symmetry_2
Al0 F23 1.812374 1_545
Al0 F8 1.812374 1_555
Al0 F0 1.825927 1_555
Al0 F4 1.825927 1_545
Al0 F16 1.846512 1_555
Al0 F18 1.846512 1_545
Al1 F9 1.812374 1_554
Al1 F22 1.812374 1_455
Al1 F5 1.825927 1_454
Al1 F1 1.825927 1_555
Al1 F17 1.846512 1_455
Al1 F19 1.846512 1_554
Al2 F10 1.812374 1_555
Al2 F21 1.812374 1_555
Al2 F6 1.825927 1_555
Al2 F2 1.825927 1_555
Al2 F16 1.846512 1_555
Al2 F18 1.846512 1_555
Al3 F20 1.812374 1_554
Al3 F11 1.812374 1_445
Al3 F3 1.825927 1_444
Al3 F7 1.825927 1_555
Al3 F17 1.846512 1_455
Al3 F19 1.846512 1_544
Cu0 F13 1.894959 1_555
Cu0 F12 1.896579 1_555
Cu0 F4 2.130744 1_545
Cu0 F2 2.130744 1_555
Cu0 F20 2.197266 1_555
Cu0 F9 2.197266 1_555
Cu1 F15 1.894959 1_555
Cu1 F14 1.896579 1_555
Cu1 F0 2.130744 1_565
Cu1 F6 2.130744 1_555
Cu1 F22 2.197266 1_555
Cu1 F11 2.197266 1_555
Cu2 F14 1.894959 1_455
Cu2 F15 1.896579 1_555
Cu2 F7 2.130744 1_565
Cu2 F1 2.130744 1_555
Cu2 F23 2.197266 1_555
Cu2 F10 2.197266 1_555
Cu3 F12 1.894959 1_655
Cu3 F13 1.896579 1_555
Cu3 F5 2.130744 1_555
Cu3 F3 2.130744 1_545
Cu3 F21 2.197266 1_555
Cu3 F8 2.197266 1_555
F0 K2 2.885705 1_555
F0 K0 3.081791 1_555
F1 K0 2.885705 1_455
F1 K2 3.081791 1_555
F2 K1 2.885705 1_555
F2 K3 3.081791 1_555
F3 K3 2.885705 1_655
F3 K1 3.081791 1_555
F4 K1 2.885705 1_555
F4 K3 3.081791 1_555
F5 K3 2.885705 1_655
F5 K1 3.081791 1_555
F6 K2 2.885705 1_555
F6 K0 3.081791 1_555
F7 K0 2.885705 1_455
F7 K2 3.081791 1_555
F8 K3 2.896118 1_645
F8 K0 2.916521 1_555
F9 K1 2.896118 1_555
F9 K2 2.916521 1_556
F10 K0 2.896118 1_455
F10 K3 2.916521 1_555
F11 K2 2.896118 1_565
F11 K1 2.916521 1_554
F12 K0 2.874254 1_455
F13 K2 2.874254 1_556
F14 K3 2.874254 1_655
F15 K1 2.874254 1_554
F16 K0 3.193290 1_455
F17 K2 3.193290 1_555
F18 K3 3.193290 1_655
F19 K1 3.193290 1_555
F20 K1 2.896118 1_545
F20 K2 2.916521 1_556
F21 K3 2.896118 1_655
F21 K0 2.916521 1_555
F22 K2 2.896118 1_555
F22 K1 2.916521 1_554
F23 K0 2.896118 1_465
F23 K3 2.916521 1_555
