# generated using pymatgen
data_Zn3Ni
_symmetry_space_group_name_H-M   'P 1'
_cell_length_a   5.24442231
_cell_length_b   5.24442231
_cell_length_c   4.23638358
_cell_angle_alpha   90.00000000
_cell_angle_beta   90.00000000
_cell_angle_gamma   119.99999913
_symmetry_Int_Tables_number   1
_chemical_formula_structural   Zn3Ni
_chemical_formula_sum   'Zn6 Ni2'
_cell_volume   100.90698364
_cell_formula_units_Z   2
loop_
 _symmetry_equiv_pos_site_id
 _symmetry_equiv_pos_as_xyz
  1  'x, y, z'
loop_
 _atom_site_type_symbol
 _atom_site_label
 _atom_site_symmetry_multiplicity
 _atom_site_fract_x
 _atom_site_fract_y
 _atom_site_fract_z
 _atom_site_occupancy
  Zn  Zn0  1  0.82948092  0.17051908  0.75000000  1
  Zn  Zn1  1  0.34103816  0.17051908  0.75000000  1
  Zn  Zn2  1  0.82948092  0.65896184  0.75000000  1
  Zn  Zn3  1  0.17051908  0.82948092  0.25000000  1
  Zn  Zn4  1  0.65896184  0.82948092  0.25000000  1
  Zn  Zn5  1  0.17051908  0.34103816  0.25000000  1
  Ni  Ni0  1  0.33333300  0.66666700  0.75000000  1
  Ni  Ni1  1  0.66666700  0.33333300  0.25000000  1
loop_
_geom_bond_atom_site_label_1
_geom_bond_atom_site_label_2
_geom_bond_distance
_geom_bond_site_symmetry_2
Zn0 Zn1 2.561600 1_555
Zn0 Zn2 2.561600 1_555
Zn0 Zn4 2.624103 1_545
Zn0 Zn4 2.624103 1_546
Zn0 Zn5 2.624103 1_655
Zn0 Zn5 2.624103 1_656
Zn0 Zn2 2.682822 1_545
Zn0 Zn1 2.682822 1_655
Zn1 Zn2 2.561600 1_555
Zn1 Zn5 2.624103 1_555
Zn1 Zn5 2.624103 1_556
Zn1 Zn3 2.624103 1_545
Zn1 Zn3 2.624103 1_546
Zn1 Zn2 2.682822 1_445
Zn2 Zn4 2.624103 1_556
Zn2 Zn4 2.624103 1_555
Zn2 Zn3 2.624103 1_655
Zn2 Zn3 2.624103 1_656
Zn3 Zn4 2.561600 1_555
Zn3 Zn5 2.561600 1_555
Zn3 Zn4 2.682822 1_455
Zn3 Zn5 2.682822 1_565
Zn4 Zn5 2.561600 1_555
Zn4 Zn5 2.682822 1_665
Ni0 Zn3 2.583407 1_555
Ni0 Zn3 2.583407 1_556
Ni0 Zn4 2.583410 1_556
Ni0 Zn5 2.583410 1_556
Ni0 Zn4 2.583410 1_555
Ni0 Zn5 2.583410 1_555
Ni0 Zn1 2.622442 1_565
Ni0 Zn2 2.622442 1_455
Ni0 Zn0 2.622445 1_565
Ni0 Zn0 2.622445 1_455
Ni0 Zn2 2.622447 1_555
Ni0 Zn1 2.622447 1_555
Ni1 Zn0 2.583407 1_555
Ni1 Zn0 2.583407 1_554
Ni1 Zn2 2.583410 1_554
Ni1 Zn1 2.583410 1_554
Ni1 Zn1 2.583410 1_555
Ni1 Zn2 2.583410 1_555
Ni1 Zn5 2.622442 1_655
Ni1 Zn4 2.622442 1_545
Ni1 Zn3 2.622445 1_545
Ni1 Zn3 2.622445 1_655
Ni1 Zn4 2.622447 1_555
Ni1 Zn5 2.622447 1_555
