# generated using pymatgen
data_CdF2
_symmetry_space_group_name_H-M   'P 1'
_cell_length_a   3.56021466
_cell_length_b   5.84457349
_cell_length_c   6.95001352
_cell_angle_alpha   90.00000000
_cell_angle_beta   90.00000000
_cell_angle_gamma   90.00000000
_symmetry_Int_Tables_number   1
_chemical_formula_structural   CdF2
_chemical_formula_sum   'Cd4 F8'
_cell_volume   144.61543806
_cell_formula_units_Z   4
loop_
 _symmetry_equiv_pos_site_id
 _symmetry_equiv_pos_as_xyz
  1  'x, y, z'
loop_
 _atom_site_type_symbol
 _atom_site_label
 _atom_site_symmetry_multiplicity
 _atom_site_fract_x
 _atom_site_fract_y
 _atom_site_fract_z
 _atom_site_occupancy
  Cd  Cd0  1  0.25000000  0.24667176  0.60912441  1
  Cd  Cd1  1  0.25000000  0.74667176  0.89087559  1
  Cd  Cd2  1  0.75000000  0.75332824  0.39087559  1
  Cd  Cd3  1  0.75000000  0.25332824  0.10912441  1
  F  F0  1  0.25000000  0.14165268  0.92197555  1
  F  F1  1  0.25000000  0.64165268  0.57802445  1
  F  F2  1  0.75000000  0.85834732  0.07802445  1
  F  F3  1  0.75000000  0.35834732  0.42197555  1
  F  F4  1  0.25000000  0.01571392  0.33643524  1
  F  F5  1  0.25000000  0.51571392  0.16356476  1
  F  F6  1  0.75000000  0.98428608  0.66356476  1
  F  F7  1  0.75000000  0.48428608  0.83643524  1
loop_
_geom_bond_atom_site_label_1
_geom_bond_atom_site_label_2
_geom_bond_distance
_geom_bond_site_symmetry_2
Cd0 F0 2.259293 1_555
Cd0 F3 2.299257 1_555
Cd0 F3 2.299257 1_455
Cd0 F1 2.318592 1_555
Cd0 F4 2.326769 1_555
Cd0 F6 2.379845 1_445
Cd0 F6 2.379845 1_545
Cd1 F1 2.259293 1_555
Cd1 F2 2.299257 1_556
Cd1 F2 2.299257 1_456
Cd1 F0 2.318592 1_565
Cd1 F5 2.326769 1_556
Cd1 F7 2.379845 1_455
Cd1 F7 2.379845 1_555
Cd2 F2 2.259293 1_555
Cd2 F1 2.299257 1_555
Cd2 F1 2.299257 1_655
Cd2 F3 2.318592 1_555
Cd2 F6 2.326769 1_555
Cd2 F4 2.379845 1_565
Cd2 F4 2.379845 1_665
Cd3 F3 2.259293 1_555
Cd3 F0 2.299257 1_654
Cd3 F0 2.299257 1_554
Cd3 F2 2.318592 1_545
Cd3 F7 2.326769 1_554
Cd3 F5 2.379845 1_555
Cd3 F5 2.379845 1_655
