# generated using pymatgen
data_Ti4GaCo2Si
_symmetry_space_group_name_H-M   'P 1'
_cell_length_a   4.30027130
_cell_length_b   4.30027201
_cell_length_c   7.44267034
_cell_angle_alpha   73.20830735
_cell_angle_beta   90.00000000
_cell_angle_gamma   120.00000544
_symmetry_Int_Tables_number   1
_chemical_formula_structural   Ti4GaCo2Si
_chemical_formula_sum   'Ti4 Ga1 Co2 Si1'
_cell_volume   112.36574143
_cell_formula_units_Z   1
loop_
 _symmetry_equiv_pos_site_id
 _symmetry_equiv_pos_as_xyz
  1  'x, y, z'
loop_
 _atom_site_type_symbol
 _atom_site_label
 _atom_site_symmetry_multiplicity
 _atom_site_fract_x
 _atom_site_fract_y
 _atom_site_fract_z
 _atom_site_occupancy
  Ti  Ti0  1  0.00070800  0.00141500  0.99787700  1
  Ti  Ti1  1  0.49923900  0.99847800  0.50228300  1
  Ti  Ti2  1  0.87455700  0.74911400  0.37632900  1
  Ti  Ti3  1  0.37533900  0.75067800  0.87398300  1
  Ga  Ga0  1  0.62467600  0.24935300  0.12597100  1
  Co  Co0  1  0.24668000  0.49336100  0.25995900  1
  Co  Co1  1  0.75311400  0.50622800  0.74065700  1
  Si  Si0  1  0.12568600  0.25137200  0.62294200  1
loop_
_geom_bond_atom_site_label_1
_geom_bond_atom_site_label_2
_geom_bond_distance
_geom_bond_site_symmetry_2
Ti0 Ti3 2.630543 1_545
Ti0 Ti3 2.630546 1_445
Ti0 Ti3 2.630546 1_555
Ti0 Ti2 2.655353 1_446
Ti1 Ti3 2.607979 1_555
Ti1 Ti2 2.635356 1_455
Ti1 Ti2 2.635357 1_555
Ti1 Ti2 2.635357 1_565
Ga0 Ti1 2.640338 1_545
Ga0 Ti0 2.640427 1_554
Ga0 Ti0 2.640427 1_664
Ga0 Ti0 2.640434 1_654
Ga0 Ti2 3.041340 1_445
Ga0 Ti2 3.041340 1_555
Ga0 Ti2 3.041344 1_545
Ga0 Ti3 3.047959 1_554
Ga0 Ti3 3.047962 1_654
Ga0 Ti3 3.047962 1_544
Co0 Si0 2.546817 1_555
Co0 Ti2 2.613572 1_455
Co0 Ti2 2.613576 1_555
Co0 Ti2 2.613576 1_445
Co0 Ga0 2.654790 1_455
Co0 Ga0 2.654791 1_555
Co0 Ga0 2.654791 1_565
Co0 Ti3 2.708144 1_554
Co0 Ti1 3.009134 1_445
Co0 Ti1 3.009135 1_555
Co0 Ti1 3.009138 1_545
Co0 Ti0 3.089579 1_564
Co0 Ti0 3.089584 1_664
Co0 Ti0 3.089584 1_554
Co1 Ti2 2.556254 1_555
Co1 Si0 2.616537 1_555
Co1 Si0 2.616537 1_655
Co1 Si0 2.616541 1_665
Co1 Ti3 2.653147 1_545
Co1 Ti3 2.653150 1_655
Co1 Ti3 2.653151 1_555
Co1 Ga0 2.703500 1_556
Co1 Ti1 2.993562 1_545
Co1 Ti1 2.993564 1_655
Co1 Ti1 2.993565 1_555
Co1 Ti0 3.069399 1_555
Co1 Ti0 3.069402 1_665
Co1 Ti0 3.069402 1_655
Si0 Ti1 2.623132 1_445
Si0 Ti1 2.623132 1_545
Si0 Ti1 2.623132 1_555
Si0 Ti0 2.630677 1_555
Si0 Ti2 3.026241 1_555
Si0 Ti2 3.026241 1_445
Si0 Ti2 3.026241 1_455
Si0 Ti3 3.044111 1_445
Si0 Ti3 3.044112 1_555
Si0 Ti3 3.044112 1_545
