# generated using pymatgen
data_NaU2F9
_symmetry_space_group_name_H-M   'P 1'
_cell_length_a   6.70962760
_cell_length_b   6.70962760
_cell_length_c   8.64735245
_cell_angle_alpha   78.78267320
_cell_angle_beta   78.78267320
_cell_angle_gamma   62.67682736
_symmetry_Int_Tables_number   1
_chemical_formula_structural   NaU2F9
_chemical_formula_sum   'Na2 U4 F18'
_cell_volume   336.77283495
_cell_formula_units_Z   2
loop_
 _symmetry_equiv_pos_site_id
 _symmetry_equiv_pos_as_xyz
  1  'x, y, z'
loop_
 _atom_site_type_symbol
 _atom_site_label
 _atom_site_symmetry_multiplicity
 _atom_site_fract_x
 _atom_site_fract_y
 _atom_site_fract_z
 _atom_site_occupancy
  Na  Na0  1  0.58323389  0.37404865  0.40331755  1
  Na  Na1  1  0.37404865  0.58323389  0.90331755  1
  U  U0  1  0.89016247  0.70586667  0.31238676  1
  U  U1  1  0.29416243  0.10879240  0.18845430  1
  U  U2  1  0.10879240  0.29416243  0.68845430  1
  U  U3  1  0.70586667  0.89016247  0.81238676  1
  F  F0  1  0.08473885  0.91490648  0.25074076  1
  F  F1  1  0.91490648  0.08473885  0.75074076  1
  F  F2  1  0.91544488  0.37634674  0.24120305  1
  F  F3  1  0.61601633  0.08843691  0.27027933  1
  F  F4  1  0.08843691  0.61601633  0.77027933  1
  F  F5  1  0.37634674  0.91544488  0.74120305  1
  F  F6  1  0.18497774  0.52590793  0.46830146  1
  F  F7  1  0.46555447  0.81964133  0.02729748  1
  F  F8  1  0.81964133  0.46555447  0.52729748  1
  F  F9  1  0.52590793  0.18497774  0.96830146  1
  F  F10  1  0.87106046  0.78807106  0.04501214  1
  F  F11  1  0.22038102  0.12742590  0.45524396  1
  F  F12  1  0.12742590  0.22038102  0.95524396  1
  F  F13  1  0.78807106  0.87106046  0.54501214  1
  F  F14  1  0.53226545  0.74798936  0.32117368  1
  F  F15  1  0.24580105  0.47536754  0.16778652  1
  F  F16  1  0.47536754  0.24580105  0.66778652  1
  F  F17  1  0.74798936  0.53226545  0.82117368  1
loop_
_geom_bond_atom_site_label_1
_geom_bond_atom_site_label_2
_geom_bond_distance
_geom_bond_site_symmetry_2
F0 U1 2.251211 1_565
F0 U0 2.252811 1_455
F1 U2 2.251211 1_655
F1 U3 2.252811 1_545
F2 U0 2.332502 1_555
F2 U1 2.359589 1_655
F2 Na0 2.396114 1_555
F3 Na0 2.327355 1_555
F3 U1 2.338582 1_555
F3 U0 2.380642 1_545
F4 Na1 2.327355 1_555
F4 U2 2.338582 1_555
F4 U3 2.380642 1_455
F5 U3 2.332502 1_555
F5 U2 2.359589 1_565
F5 Na1 2.396114 1_555
F6 U0 2.323832 1_455
F6 U2 2.345781 1_555
F6 Na0 2.373483 1_555
F7 U1 2.325665 1_565
F7 U3 2.338776 1_554
F7 Na1 2.419538 1_554
F8 U2 2.325665 1_655
F8 U0 2.338776 1_555
F8 Na0 2.419538 1_555
F9 U3 2.323832 1_545
F9 U1 2.345781 1_556
F9 Na1 2.373483 1_555
F10 U0 2.284866 1_555
F10 U3 2.319185 1_554
F11 U1 2.279061 1_555
F11 U2 2.323879 1_555
F12 U2 2.279061 1_555
F12 U1 2.323879 1_556
F13 U3 2.284866 1_555
F13 U0 2.319185 1_555
F14 U0 2.272989 1_555
F14 Na0 2.351605 1_555
F14 U1 2.410789 1_565
F15 U1 2.303399 1_555
F15 Na1 2.378348 1_554
F15 U0 2.419298 1_455
F16 U2 2.303399 1_555
F16 Na0 2.378348 1_555
F16 U3 2.419298 1_545
F17 U3 2.272989 1_555
F17 Na1 2.351605 1_555
F17 U2 2.410789 1_655
