# generated using pymatgen
data_Cs3Li4(BO2)7
_symmetry_space_group_name_H-M   'P 1'
_cell_length_a   7.02895064
_cell_length_b   7.02895064
_cell_length_c   27.18276600
_cell_angle_alpha   90.00000000
_cell_angle_beta   90.00000000
_cell_angle_gamma   120.00000602
_symmetry_Int_Tables_number   1
_chemical_formula_structural   Cs3Li4(BO2)7
_chemical_formula_sum   'Cs9 Li12 B21 O42'
_cell_volume   1163.06835340
_cell_formula_units_Z   3
loop_
 _symmetry_equiv_pos_site_id
 _symmetry_equiv_pos_as_xyz
  1  'x, y, z'
loop_
 _atom_site_type_symbol
 _atom_site_label
 _atom_site_symmetry_multiplicity
 _atom_site_fract_x
 _atom_site_fract_y
 _atom_site_fract_z
 _atom_site_occupancy
  Cs  Cs0  1  0.52771100  0.99538400  0.05799000  1
  Cs  Cs1  1  0.46767300  0.47228900  0.72465700  1
  Cs  Cs2  1  0.00461600  0.53232700  0.39132300  1
  Cs  Cs3  1  0.47228900  0.46767300  0.27534300  1
  Cs  Cs4  1  0.99538400  0.52771100  0.94201000  1
  Cs  Cs5  1  0.53232700  0.00461600  0.60867700  1
  Cs  Cs6  1  0.00000000  0.92218400  0.16666700  1
  Cs  Cs7  1  0.92218400  0.00000000  0.83333300  1
  Cs  Cs8  1  0.07781600  0.07781600  0.50000000  1
  Li  Li0  1  0.63967400  0.39174800  0.14462800  1
  Li  Li1  1  0.75207300  0.36032600  0.81129500  1
  Li  Li2  1  0.60825200  0.24792700  0.47796100  1
  Li  Li3  1  0.36032600  0.75207300  0.18870500  1
  Li  Li4  1  0.39174800  0.63967400  0.85537200  1
  Li  Li5  1  0.24792700  0.60825200  0.52203900  1
  Li  Li6  1  0.65496100  0.53738700  0.04441000  1
  Li  Li7  1  0.88242600  0.34503900  0.71107600  1
  Li  Li8  1  0.46261300  0.11757400  0.37774300  1
  Li  Li9  1  0.34503900  0.88242600  0.28892400  1
  Li  Li10  1  0.53738700  0.65496100  0.95559000  1
  Li  Li11  1  0.11757400  0.46261300  0.62225700  1
  B  B0  1  0.02972900  0.48887100  0.08460800  1
  B  B1  1  0.45914200  0.97027100  0.75127500  1
  B  B2  1  0.51112900  0.54085800  0.41794100  1
  B  B3  1  0.97027100  0.45914200  0.24872500  1
  B  B4  1  0.48887100  0.02972900  0.91539200  1
  B  B5  1  0.54085800  0.51112900  0.58205900  1
  B  B6  1  0.35482100  0.50414600  0.12550300  1
  B  B7  1  0.14932500  0.64517900  0.79216900  1
  B  B8  1  0.49585400  0.85067500  0.45883600  1
  B  B9  1  0.64517900  0.14932500  0.20783100  1
  B  B10  1  0.50414600  0.35482100  0.87449700  1
  B  B11  1  0.85067500  0.49585400  0.54116400  1
  B  B12  1  0.22211400  0.30868900  0.04256800  1
  B  B13  1  0.08657500  0.77788600  0.70923400  1
  B  B14  1  0.69131100  0.91342500  0.37590100  1
  B  B15  1  0.77788600  0.08657500  0.29076600  1
  B  B16  1  0.30868900  0.22211400  0.95743200  1
  B  B17  1  0.91342500  0.69131100  0.62409900  1
  B  B18  1  0.96653300  0.96653300  0.00000000  1
  B  B19  1  0.00000000  0.03346700  0.66666700  1
  B  B20  1  0.03346700  0.00000000  0.33333300  1
  O  O0  1  0.06963400  0.07046600  0.04439100  1
  O  O1  1  0.00083200  0.93036600  0.71105800  1
  O  O2  1  0.92953400  0.99916800  0.37772400  1
  O  O3  1  0.93036600  0.00083200  0.28894200  1
  O  O4  1  0.07046600  0.06963400  0.95560900  1
  O  O5  1  0.99916800  0.92953400  0.62227600  1
  O  O6  1  0.84264000  0.49327400  0.08925100  1
  O  O7  1  0.65063400  0.15736000  0.75591700  1
  O  O8  1  0.50672600  0.34936600  0.42258400  1
  O  O9  1  0.15736000  0.65063400  0.24408300  1
  O  O10  1  0.49327400  0.84264000  0.91074900  1
  O  O11  1  0.34936600  0.50672600  0.57741600  1
  O  O12  1  0.77537300  0.77537300  0.00000000  1
  O  O13  1  0.00000000  0.22462700  0.66666700  1
  O  O14  1  0.22462700  0.00000000  0.33333300  1
  O  O15  1  0.36968400  0.38060400  0.08711000  1
  O  O16  1  0.01092000  0.63031600  0.75377700  1
  O  O17  1  0.61939600  0.98908000  0.42044400  1
  O  O18  1  0.63031600  0.01092000  0.24622300  1
  O  O19  1  0.38060400  0.36968400  0.91289000  1
  O  O20  1  0.98908000  0.61939600  0.57955600  1
  O  O21  1  0.09027000  0.42237400  0.04202500  1
  O  O22  1  0.33210400  0.90973000  0.70869200  1
  O  O23  1  0.57762600  0.66789600  0.37535900  1
  O  O24  1  0.90973000  0.33210400  0.29130800  1
  O  O25  1  0.42237400  0.09027000  0.95797500  1
  O  O26  1  0.66789600  0.57762600  0.62464100  1
  O  O27  1  0.50277200  0.07697600  0.17019000  1
  O  O28  1  0.57420300  0.49722800  0.83685700  1
  O  O29  1  0.92302400  0.42579700  0.50352300  1
  O  O30  1  0.49722800  0.57420300  0.16314300  1
  O  O31  1  0.07697600  0.50277200  0.82981000  1
  O  O32  1  0.42579700  0.92302400  0.49647700  1
  O  O33  1  0.18552900  0.55843700  0.12426300  1
  O  O34  1  0.37290800  0.81447100  0.79093000  1
  O  O35  1  0.44156300  0.62709200  0.45759700  1
  O  O36  1  0.81447100  0.37290800  0.20907000  1
  O  O37  1  0.55843700  0.18552900  0.87573700  1
  O  O38  1  0.62709200  0.44156300  0.54240300  1
  O  O39  1  0.37113400  0.37113400  0.00000000  1
  O  O40  1  0.00000000  0.62886600  0.66666700  1
  O  O41  1  0.62886600  0.00000000  0.33333300  1
loop_
_geom_bond_atom_site_label_1
_geom_bond_atom_site_label_2
_geom_bond_distance
_geom_bond_site_symmetry_2
Cs0 O25 2.979612 1_564
Cs0 O27 3.124436 1_565
Cs1 O26 2.979636 1_555
Cs1 O28 3.124434 1_555
Cs2 O24 2.979612 1_455
Cs2 O29 3.124435 1_455
Cs3 O23 2.979636 1_555
Cs3 O30 3.124434 1_555
Cs4 O21 2.979612 1_656
Cs4 O31 3.124436 1_655
Cs5 O22 2.979612 1_545
Cs5 O32 3.124435 1_545
Cs6 O27 3.136368 1_565
Cs6 O30 3.136370 1_455
Cs6 O6 3.377304 1_455
Cs6 O9 3.377304 1_555
Cs6 O3 3.444301 1_465
Cs6 O0 3.444327 1_565
Cs7 O31 3.136368 1_655
Cs7 O28 3.136370 1_545
Cs7 O10 3.377304 1_545
Cs7 O7 3.377304 1_555
Cs7 O1 3.444301 1_645
Cs7 O4 3.444327 1_655
Cs8 O29 3.136375 1_455
Cs8 O32 3.136375 1_545
Cs8 O11 3.377304 1_555
Cs8 O8 3.377304 1_555
Cs8 O5 3.444327 1_445
Cs8 O2 3.444327 1_445
Li0 O6 1.947409 1_555
Li0 O27 2.043273 1_555
Li0 O30 2.045625 1_555
Li0 O36 2.181350 1_555
Li0 O15 2.429702 1_555
Li1 O7 1.947430 1_555
Li1 O28 2.043273 1_555
Li1 O31 2.045637 1_655
Li1 O37 2.181348 1_555
Li1 O16 2.429705 1_655
Li2 O8 1.947405 1_555
Li2 O29 2.043273 1_555
Li2 O32 2.045642 1_545
Li2 O38 2.181346 1_555
Li2 O17 2.429690 1_545
Li3 O9 1.947430 1_555
Li3 O30 2.043273 1_555
Li3 O27 2.045637 1_565
Li3 O33 2.181348 1_555
Li3 O18 2.429705 1_565
Li4 O10 1.947409 1_555
Li4 O31 2.043273 1_555
Li4 O28 2.045625 1_555
Li4 O34 2.181350 1_555
Li4 O19 2.429702 1_555
Li5 O11 1.947405 1_555
Li5 O32 2.043273 1_555
Li5 O29 2.045642 1_455
Li5 O35 2.181346 1_555
Li5 O20 2.429690 1_455
Li6 O12 1.885755 1_555
Li6 O6 1.931620 1_555
Li6 O15 2.091108 1_555
Li6 O39 2.114617 1_555
Li7 O13 1.885738 1_655
Li7 O7 1.931620 1_555
Li7 O16 2.091123 1_655
Li7 O40 2.114601 1_655
Li8 O14 1.885755 1_555
Li8 O8 1.931620 1_555
Li8 O17 2.091123 1_545
Li8 O41 2.114617 1_555
Li9 O14 1.885738 1_565
Li9 O9 1.931620 1_555
Li9 O18 2.091123 1_565
Li9 O41 2.114601 1_565
Li10 O12 1.885755 1_556
Li10 O10 1.931620 1_555
Li10 O19 2.091108 1_555
Li10 O39 2.114617 1_556
Li11 O13 1.885755 1_555
Li11 O11 1.931620 1_555
Li11 O20 2.091123 1_455
Li11 O40 2.114617 1_555
B0 O6 1.336755 1_455
B0 O21 1.392232 1_555
B0 O33 1.436948 1_555
B1 O7 1.336752 1_565
B1 O22 1.392232 1_555
B1 O34 1.436948 1_555
B2 O8 1.336755 1_555
B2 O23 1.392210 1_555
B2 O35 1.436969 1_555
B3 O9 1.336752 1_655
B3 O24 1.392232 1_555
B3 O36 1.436948 1_555
B4 O10 1.336755 1_545
B4 O25 1.392232 1_555
B4 O37 1.436948 1_555
B5 O11 1.336755 1_555
B5 O26 1.392210 1_555
B5 O38 1.436969 1_555
B6 O30 1.341036 1_555
B6 O15 1.394583 1_555
B6 O33 1.420149 1_555
B7 O31 1.341057 1_555
B7 O16 1.394562 1_555
B7 O34 1.420149 1_555
B8 O32 1.341053 1_555
B8 O17 1.394562 1_555
B8 O35 1.420149 1_555
B9 O27 1.341057 1_555
B9 O18 1.394562 1_555
B9 O36 1.420149 1_555
B10 O28 1.341036 1_555
B10 O19 1.394583 1_555
B10 O37 1.420149 1_555
B11 O29 1.341053 1_555
B11 O20 1.394562 1_555
B11 O38 1.420149 1_555
B12 O0 1.469804 1_555
B12 O39 1.472746 1_555
B12 O21 1.496031 1_555
B12 O15 1.507675 1_555
B13 O1 1.469805 1_555
B13 O40 1.472724 1_555
B13 O22 1.496031 1_555
B13 O16 1.507697 1_555
B14 O2 1.469804 1_555
B14 O41 1.472746 1_565
B14 O23 1.496031 1_555
B14 O17 1.507697 1_555
B15 O3 1.469805 1_555
B15 O41 1.472724 1_555
B15 O24 1.496031 1_555
B15 O18 1.507697 1_555
B16 O4 1.469804 1_555
B16 O39 1.472746 1_556
B16 O25 1.496031 1_555
B16 O19 1.507675 1_555
B17 O5 1.469804 1_555
B17 O40 1.472746 1_655
B17 O26 1.496031 1_555
B17 O20 1.507697 1_555
B18 O12 1.343654 1_555
B18 O0 1.409079 1_665
B18 O4 1.409079 1_664
B19 O13 1.343654 1_555
B19 O5 1.409079 1_445
B19 O1 1.409079 1_545
B20 O14 1.343654 1_555
B20 O2 1.409079 1_445
B20 O3 1.409079 1_455
