# generated using pymatgen
data_LiGa2
_symmetry_space_group_name_H-M   'P 1'
_cell_length_a   6.91418062
_cell_length_b   6.91418062
_cell_length_c   6.91418062
_cell_angle_alpha   60.00000000
_cell_angle_beta   60.00000000
_cell_angle_gamma   60.00000000
_symmetry_Int_Tables_number   1
_chemical_formula_structural   LiGa2
_chemical_formula_sum   'Li4 Ga8'
_cell_volume   233.72607335
_cell_formula_units_Z   4
loop_
 _symmetry_equiv_pos_site_id
 _symmetry_equiv_pos_as_xyz
  1  'x, y, z'
loop_
 _atom_site_type_symbol
 _atom_site_label
 _atom_site_symmetry_multiplicity
 _atom_site_fract_x
 _atom_site_fract_y
 _atom_site_fract_z
 _atom_site_occupancy
  Li  Li0  1  0.87500000  0.87500000  0.87500000  1
  Li  Li1  1  0.37500000  0.87500000  0.87500000  1
  Li  Li2  1  0.87500000  0.37500000  0.87500000  1
  Li  Li3  1  0.87500000  0.87500000  0.37500000  1
  Ga  Ga0  1  0.60005600  0.60005600  0.60005600  1
  Ga  Ga1  1  0.19983200  0.60005600  0.60005600  1
  Ga  Ga2  1  0.60005600  0.19983200  0.60005600  1
  Ga  Ga3  1  0.55016800  0.14994400  0.14994400  1
  Ga  Ga4  1  0.14994400  0.14994400  0.14994400  1
  Ga  Ga5  1  0.60005600  0.60005600  0.19983200  1
  Ga  Ga6  1  0.14994400  0.55016800  0.14994400  1
  Ga  Ga7  1  0.14994400  0.14994400  0.55016800  1
loop_
_geom_bond_atom_site_label_1
_geom_bond_atom_site_label_2
_geom_bond_distance
_geom_bond_site_symmetry_2
Ga0 Li1 2.710475 1_555
Ga0 Li2 2.710475 1_555
Ga0 Li3 2.710475 1_555
Ga0 Ga2 2.767221 1_555
Ga0 Ga1 2.767221 1_555
Ga0 Ga5 2.767221 1_555
Ga1 Li3 2.710475 1_455
Ga1 Li2 2.710475 1_455
Ga1 Li0 2.710475 1_455
Ga1 Ga2 2.767221 1_555
Ga1 Ga5 2.767221 1_555
Ga2 Li3 2.710475 1_545
Ga2 Li1 2.710475 1_545
Ga2 Li0 2.710475 1_545
Ga2 Ga5 2.767221 1_555
Ga3 Li0 2.710475 1_544
Ga3 Li2 2.710475 1_554
Ga3 Li3 2.710475 1_545
Ga3 Ga6 2.767221 1_555
Ga3 Ga7 2.767221 1_555
Ga3 Ga4 2.767221 1_555
Ga4 Li2 2.710475 1_454
Ga4 Li1 2.710475 1_544
Ga4 Li3 2.710475 1_445
Ga4 Ga6 2.767221 1_555
Ga4 Ga7 2.767221 1_555
Ga5 Li1 2.710475 1_554
Ga5 Li2 2.710475 1_554
Ga5 Li0 2.710475 1_554
Ga6 Li0 2.710475 1_454
Ga6 Li3 2.710475 1_455
Ga6 Li1 2.710475 1_554
Ga6 Ga7 2.767221 1_555
Ga7 Li0 2.710475 1_445
Ga7 Li2 2.710475 1_455
Ga7 Li1 2.710475 1_545
