# generated using pymatgen
data_Mg14VMo
_symmetry_space_group_name_H-M   'P 1'
_cell_length_a   6.27563569
_cell_length_b   6.05292687
_cell_length_c   9.98369469
_cell_angle_alpha   90.00000000
_cell_angle_beta   90.00000000
_cell_angle_gamma   118.83285885
_symmetry_Int_Tables_number   1
_chemical_formula_structural   Mg14VMo
_chemical_formula_sum   'Mg14 V1 Mo1'
_cell_volume   332.22594603
_cell_formula_units_Z   1
loop_
 _symmetry_equiv_pos_site_id
 _symmetry_equiv_pos_as_xyz
  1  'x, y, z'
loop_
 _atom_site_type_symbol
 _atom_site_label
 _atom_site_symmetry_multiplicity
 _atom_site_fract_x
 _atom_site_fract_y
 _atom_site_fract_z
 _atom_site_occupancy
  Mg  Mg0  1  0.16686745  0.33343323  0.62500000  1
  Mg  Mg1  1  0.16594952  0.83297426  0.62500000  1
  Mg  Mg2  1  0.66222274  0.33036122  0.12500000  1
  Mg  Mg3  1  0.66302664  0.33187100  0.62500000  1
  Mg  Mg4  1  0.66222274  0.83186052  0.12500000  1
  Mg  Mg5  1  0.66302664  0.83115464  0.62500000  1
  Mg  Mg6  1  0.32614836  0.16215361  0.36015798  1
  Mg  Mg7  1  0.32614836  0.16215361  0.88984202  1
  Mg  Mg8  1  0.32614836  0.66399576  0.36015798  1
  Mg  Mg9  1  0.32614836  0.66399576  0.88984202  1
  Mg  Mg10  1  0.85001104  0.17500602  0.36822573  1
  Mg  Mg11  1  0.85001104  0.17500602  0.88177427  1
  Mg  Mg12  1  0.84955482  0.67477791  0.36576489  1
  Mg  Mg13  1  0.84955482  0.67477791  0.88423511  1
  V  V0  1  0.15825180  0.32912540  0.12500000  1
  Mo  Mo0  1  0.15470731  0.82735316  0.12500000  1
loop_
_geom_bond_atom_site_label_1
_geom_bond_atom_site_label_2
_geom_bond_distance
_geom_bond_site_symmetry_2
Mg0 Mg1 3.026468 1_555
Mg0 Mg1 3.026468 1_545
Mg0 Mg11 3.099397 1_455
Mg0 Mg10 3.099397 1_455
Mg0 Mg5 3.118285 1_555
Mg0 Mg3 3.118286 1_555
Mg0 Mg5 3.157372 1_445
Mg0 Mg3 3.157372 1_455
Mg0 Mg7 3.172512 1_555
Mg0 Mg6 3.172512 1_555
Mg0 Mg9 3.172517 1_555
Mg0 Mg8 3.172517 1_555
Mg1 Mg12 3.118331 1_455
Mg1 Mg13 3.118331 1_455
Mg1 Mg3 3.124801 1_565
Mg1 Mg5 3.124801 1_555
Mg1 Mg3 3.150864 1_455
Mg1 Mg5 3.150864 1_455
Mg1 Mg8 3.168587 1_555
Mg1 Mg9 3.168587 1_555
Mg1 Mg6 3.168593 1_565
Mg1 Mg7 3.168593 1_565
Mg2 Mg7 2.987575 1_554
Mg2 Mg6 2.987575 1_555
Mg2 Mg4 3.017388 1_545
Mg2 Mg4 3.035539 1_555
Mg2 Mo0 3.103903 1_655
Mg2 V0 3.116512 1_655
Mg2 V0 3.159137 1_555
Mg2 Mo0 3.171914 1_545
Mg3 Mg5 3.022127 1_555
Mg3 Mg5 3.030800 1_545
Mg3 Mg6 3.228216 1_555
Mg3 Mg7 3.228216 1_555
Mg4 Mg9 2.987575 1_554
Mg4 Mg8 2.987575 1_555
Mg4 Mo0 3.103903 1_655
Mg4 V0 3.116512 1_665
Mg4 V0 3.159137 1_555
Mg4 Mo0 3.171915 1_555
Mg5 Mg8 3.228216 1_555
Mg5 Mg9 3.228216 1_555
Mg6 V0 2.944599 1_555
Mg6 Mo0 2.945047 1_545
Mg6 Mg8 3.015313 1_545
Mg6 Mg8 3.037614 1_555
Mg7 V0 2.944599 1_556
Mg7 Mo0 2.945047 1_546
Mg7 Mg9 3.015313 1_545
Mg7 Mg9 3.037614 1_555
Mg8 V0 2.944605 1_555
Mg8 Mo0 2.945041 1_555
Mg9 V0 2.944605 1_556
Mg9 Mo0 2.945041 1_556
Mg10 V0 2.961126 1_655
Mg10 Mg12 3.026564 1_545
Mg10 Mg12 3.026564 1_555
Mg10 Mg8 3.027420 1_655
Mg10 Mg6 3.027420 1_655
Mg10 Mg2 3.039503 1_555
Mg10 Mg4 3.039509 1_545
Mg10 Mg3 3.150392 1_555
Mg10 Mg5 3.150397 1_545
Mg10 Mg8 3.251766 1_545
Mg10 Mg6 3.251767 1_555
Mg11 V0 2.961126 1_656
Mg11 Mg13 3.026564 1_545
Mg11 Mg13 3.026564 1_555
Mg11 Mg9 3.027420 1_655
Mg11 Mg7 3.027420 1_655
Mg11 Mg2 3.039503 1_556
Mg11 Mg4 3.039509 1_546
Mg11 Mg3 3.150392 1_555
Mg11 Mg5 3.150397 1_545
Mg11 Mg9 3.251766 1_545
Mg11 Mg7 3.251767 1_555
Mg12 Mo0 2.931262 1_655
Mg12 Mg6 3.023460 1_665
Mg12 Mg8 3.023460 1_655
Mg12 Mg4 3.023600 1_555
Mg12 Mg2 3.023606 1_555
Mg12 Mg5 3.167533 1_555
Mg12 Mg3 3.167538 1_555
Mg12 Mg6 3.254218 1_555
Mg12 Mg8 3.254218 1_555
Mg13 Mo0 2.931262 1_656
Mg13 Mg7 3.023460 1_665
Mg13 Mg9 3.023460 1_655
Mg13 Mg4 3.023600 1_556
Mg13 Mg2 3.023606 1_556
Mg13 Mg5 3.167533 1_555
Mg13 Mg3 3.167538 1_555
Mg13 Mg7 3.254218 1_555
Mg13 Mg9 3.254218 1_555
Mo0 V0 3.026526 1_565
Mo0 V0 3.026526 1_555
