# generated using pymatgen
data_Ga2CuSe3O10
_symmetry_space_group_name_H-M   'P 1'
_cell_length_a   6.69383500
_cell_length_b   9.92967000
_cell_length_c   13.29246400
_cell_angle_alpha   90.00000000
_cell_angle_beta   90.00000000
_cell_angle_gamma   90.00000000
_symmetry_Int_Tables_number   1
_chemical_formula_structural   Ga2CuSe3O10
_chemical_formula_sum   'Ga8 Cu4 Se12 O40'
_cell_volume   883.51781575
_cell_formula_units_Z   4
loop_
 _symmetry_equiv_pos_site_id
 _symmetry_equiv_pos_as_xyz
  1  'x, y, z'
loop_
 _atom_site_type_symbol
 _atom_site_label
 _atom_site_symmetry_multiplicity
 _atom_site_fract_x
 _atom_site_fract_y
 _atom_site_fract_z
 _atom_site_occupancy
  Ga  Ga0  1  0.75000000  0.21376200  0.25000000  1
  Ga  Ga1  1  0.75000000  0.78623800  0.75000000  1
  Ga  Ga2  1  0.25000000  0.78623800  0.75000000  1
  Ga  Ga3  1  0.25000000  0.21376200  0.25000000  1
  Ga  Ga4  1  0.50000000  0.99651100  0.12703900  1
  Ga  Ga5  1  0.50000000  0.00348900  0.87296100  1
  Ga  Ga6  1  0.00000000  0.99651100  0.37296100  1
  Ga  Ga7  1  0.00000000  0.00348900  0.62703900  1
  Cu  Cu0  1  0.75000000  0.66146100  0.25000000  1
  Cu  Cu1  1  0.75000000  0.33853900  0.75000000  1
  Cu  Cu2  1  0.25000000  0.33853900  0.75000000  1
  Cu  Cu3  1  0.25000000  0.66146100  0.25000000  1
  Se  Se0  1  0.50000000  0.44111300  0.37929800  1
  Se  Se1  1  0.50000000  0.55888700  0.62070200  1
  Se  Se2  1  0.00000000  0.44111300  0.12070200  1
  Se  Se3  1  0.00000000  0.55888700  0.87929800  1
  Se  Se4  1  0.50000000  0.91547800  0.36774900  1
  Se  Se5  1  0.50000000  0.08452200  0.63225100  1
  Se  Se6  1  0.00000000  0.91547800  0.13225100  1
  Se  Se7  1  0.00000000  0.08452200  0.86774900  1
  Se  Se8  1  0.50000000  0.69391000  0.03209900  1
  Se  Se9  1  0.50000000  0.30609000  0.96790100  1
  Se  Se10  1  0.00000000  0.69391000  0.46790100  1
  Se  Se11  1  0.00000000  0.30609000  0.53209900  1
  O  O0  1  0.50000000  0.15778300  0.20402000  1
  O  O1  1  0.50000000  0.84221700  0.79598000  1
  O  O2  1  0.00000000  0.15778300  0.29598000  1
  O  O3  1  0.00000000  0.84221700  0.70402000  1
  O  O4  1  0.70242500  0.33674300  0.35906300  1
  O  O5  1  0.70242500  0.66325700  0.64093700  1
  O  O6  1  0.79757500  0.33674300  0.14093700  1
  O  O7  1  0.79757500  0.66325700  0.85906300  1
  O  O8  1  0.29757500  0.66325700  0.64093700  1
  O  O9  1  0.29757500  0.33674300  0.35906300  1
  O  O10  1  0.20242500  0.66325700  0.85906300  1
  O  O11  1  0.20242500  0.33674300  0.14093700  1
  O  O12  1  0.50000000  0.54304800  0.27139500  1
  O  O13  1  0.50000000  0.45695200  0.72860500  1
  O  O14  1  0.00000000  0.54304800  0.22860500  1
  O  O15  1  0.00000000  0.45695200  0.77139500  1
  O  O16  1  0.50000000  0.85976100  0.24145300  1
  O  O17  1  0.50000000  0.14023900  0.75854700  1
  O  O18  1  0.00000000  0.85976100  0.25854700  1
  O  O19  1  0.00000000  0.14023900  0.74145300  1
  O  O20  1  0.69744200  0.02858700  0.36859000  1
  O  O21  1  0.69744200  0.97141300  0.63141000  1
  O  O22  1  0.80255800  0.02858700  0.13141000  1
  O  O23  1  0.80255800  0.97141300  0.86859000  1
  O  O24  1  0.30255800  0.97141300  0.63141000  1
  O  O25  1  0.30255800  0.02858700  0.36859000  1
  O  O26  1  0.19744200  0.97141300  0.86859000  1
  O  O27  1  0.19744200  0.02858700  0.13141000  1
  O  O28  1  0.70900400  0.67164600  0.10620000  1
  O  O29  1  0.70900400  0.32835400  0.89380000  1
  O  O30  1  0.79099600  0.67164600  0.39380000  1
  O  O31  1  0.79099600  0.32835400  0.60620000  1
  O  O32  1  0.29099600  0.32835400  0.89380000  1
  O  O33  1  0.29099600  0.67164600  0.10620000  1
  O  O34  1  0.20900400  0.32835400  0.60620000  1
  O  O35  1  0.20900400  0.67164600  0.39380000  1
  O  O36  1  0.50000000  0.87306700  0.01630400  1
  O  O37  1  0.50000000  0.12693300  0.98369600  1
  O  O38  1  0.00000000  0.87306700  0.48369600  1
  O  O39  1  0.00000000  0.12693300  0.51630400  1
loop_
_geom_bond_atom_site_label_1
_geom_bond_atom_site_label_2
_geom_bond_distance
_geom_bond_site_symmetry_2
Ga0 O0 1.866276 1_555
Ga0 O2 1.866276 1_655
Ga0 O6 1.922063 1_555
Ga0 O4 1.922063 1_555
Ga0 O20 2.447362 1_555
Ga0 O22 2.447362 1_555
Ga1 O3 1.866276 1_655
Ga1 O1 1.866276 1_555
Ga1 O7 1.922063 1_555
Ga1 O5 1.922063 1_555
Ga1 O23 2.447362 1_555
Ga1 O21 2.447362 1_555
Ga2 O3 1.866276 1_555
Ga2 O1 1.866276 1_555
Ga2 O10 1.922063 1_555
Ga2 O8 1.922063 1_555
Ga2 O24 2.447362 1_555
Ga2 O26 2.447362 1_555
Ga3 O0 1.866276 1_555
Ga3 O2 1.866276 1_555
Ga3 O11 1.922063 1_555
Ga3 O9 1.922063 1_555
Ga3 O25 2.447362 1_555
Ga3 O27 2.447362 1_555
Ga4 O0 1.900391 1_565
Ga4 O36 1.915488 1_555
Ga4 O16 2.038826 1_555
Ga4 O27 2.050988 1_565
Ga4 O22 2.050988 1_565
Ga4 O37 2.303829 1_564
Ga5 O1 1.900391 1_545
Ga5 O37 1.915488 1_555
Ga5 O17 2.038826 1_555
Ga5 O23 2.050988 1_545
Ga5 O26 2.050988 1_545
Ga5 O36 2.303829 1_546
Ga6 O2 1.900391 1_565
Ga6 O38 1.915488 1_555
Ga6 O18 2.038826 1_555
Ga6 O25 2.050988 1_565
Ga6 O20 2.050988 1_465
Ga6 O39 2.303829 1_565
Ga7 O3 1.900391 1_545
Ga7 O39 1.915488 1_555
Ga7 O19 2.038826 1_555
Ga7 O21 2.050988 1_445
Ga7 O24 2.050988 1_545
Ga7 O38 2.303829 1_545
Cu0 O30 1.933701 1_555
Cu0 O28 1.933701 1_555
Cu0 O12 2.064910 1_555
Cu0 O14 2.064910 1_655
Cu0 O18 2.586608 1_655
Cu0 O16 2.586608 1_555
Cu1 O31 1.933701 1_555
Cu1 O29 1.933701 1_555
Cu1 O13 2.064910 1_555
Cu1 O15 2.064910 1_655
Cu1 O19 2.586608 1_655
Cu1 O17 2.586608 1_555
Cu2 O32 1.933701 1_555
Cu2 O34 1.933701 1_555
Cu2 O15 2.064910 1_555
Cu2 O13 2.064910 1_555
Cu2 O19 2.586608 1_555
Cu2 O17 2.586608 1_555
Cu3 O35 1.933701 1_555
Cu3 O33 1.933701 1_555
Cu3 O14 2.064910 1_555
Cu3 O12 2.064910 1_555
Cu3 O18 2.586608 1_555
Cu3 O16 2.586608 1_555
O4 Se0 1.726966 1_555
O5 Se1 1.726966 1_555
O6 Se2 1.726966 1_655
O7 Se3 1.726966 1_655
O8 Se1 1.726966 1_555
O9 Se0 1.726966 1_555
O10 Se3 1.726966 1_555
O11 Se2 1.726966 1_555
O12 Se0 1.755482 1_555
O13 Se1 1.755482 1_555
O14 Se2 1.755482 1_555
O15 Se3 1.755482 1_555
O16 Se4 1.767599 1_555
O17 Se5 1.767599 1_555
O18 Se6 1.767599 1_555
O19 Se7 1.767599 1_555
O20 Se4 1.734445 1_545
O21 Se5 1.734445 1_565
O22 Se6 1.734445 1_645
O23 Se7 1.734445 1_665
O24 Se5 1.734445 1_565
O25 Se4 1.734445 1_545
O26 Se7 1.734445 1_565
O27 Se6 1.734445 1_545
O28 Se8 1.725218 1_555
O29 Se9 1.725218 1_555
O30 Se10 1.725218 1_655
O31 Se11 1.725218 1_655
O32 Se9 1.725218 1_555
O33 Se8 1.725218 1_555
O34 Se11 1.725218 1_555
O35 Se10 1.725218 1_555
O36 Se8 1.791316 1_555
O37 Se9 1.791316 1_555
O38 Se10 1.791316 1_555
O39 Se11 1.791316 1_555
