# generated using pymatgen
data_BaCo2Si2O7
_symmetry_space_group_name_H-M   'P 1'
_cell_length_a   7.43319371
_cell_length_b   7.43319371
_cell_length_c   13.92592104
_cell_angle_alpha   89.94113982
_cell_angle_beta   89.94113982
_cell_angle_gamma   120.71169522
_symmetry_Int_Tables_number   1
_chemical_formula_structural   BaCo2Si2O7
_chemical_formula_sum   'Ba4 Co8 Si8 O28'
_cell_volume   661.52321356
_cell_formula_units_Z   4
loop_
 _symmetry_equiv_pos_site_id
 _symmetry_equiv_pos_as_xyz
  1  'x, y, z'
loop_
 _atom_site_type_symbol
 _atom_site_label
 _atom_site_symmetry_multiplicity
 _atom_site_fract_x
 _atom_site_fract_y
 _atom_site_fract_z
 _atom_site_occupancy
  Ba  Ba0  1  0.22025300  0.18171400  0.87681700  1
  Ba  Ba1  1  0.81828600  0.77974700  0.62318300  1
  Ba  Ba2  1  0.77974700  0.81828600  0.12318300  1
  Ba  Ba3  1  0.18171400  0.22025300  0.37681700  1
  Co  Co0  1  0.26210600  0.80084200  0.48996500  1
  Co  Co1  1  0.19915800  0.73789400  0.01003500  1
  Co  Co2  1  0.22801700  0.77198300  0.25000000  1
  Co  Co3  1  0.80084200  0.26210600  0.98996500  1
  Co  Co4  1  0.23252400  0.76747600  0.75000000  1
  Co  Co5  1  0.76747600  0.23252400  0.25000000  1
  Co  Co6  1  0.77198300  0.22801700  0.75000000  1
  Co  Co7  1  0.73789400  0.19915800  0.51003500  1
  Si  Si0  1  0.42604800  0.21175900  0.61858400  1
  Si  Si1  1  0.78824100  0.57395200  0.88141600  1
  Si  Si2  1  0.57395200  0.78824100  0.38141600  1
  Si  Si3  1  0.21175900  0.42604800  0.11858400  1
  Si  Si4  1  0.16625500  0.41163200  0.63257500  1
  Si  Si5  1  0.58836800  0.83374600  0.86742500  1
  Si  Si6  1  0.83374500  0.58836800  0.36742500  1
  Si  Si7  1  0.41163200  0.16625400  0.13257500  1
  O  O0  1  0.01301000  0.23829300  0.55371200  1
  O  O1  1  0.76170700  0.98699000  0.94628800  1
  O  O2  1  0.98699000  0.76170700  0.44628800  1
  O  O3  1  0.23829300  0.01301000  0.05371200  1
  O  O4  1  0.08074700  0.35210900  0.74360600  1
  O  O5  1  0.64789100  0.91925300  0.75639400  1
  O  O6  1  0.91925300  0.64789100  0.25639400  1
  O  O7  1  0.35210900  0.08074700  0.24360600  1
  O  O8  1  0.39643500  0.42141300  0.62188700  1
  O  O9  1  0.57858700  0.60356500  0.87811300  1
  O  O10  1  0.60356500  0.57858700  0.37811300  1
  O  O11  1  0.42141300  0.39643500  0.12188700  1
  O  O12  1  0.68207300  0.31744200  0.63357700  1
  O  O13  1  0.68255800  0.31792700  0.86642300  1
  O  O14  1  0.31792700  0.68255800  0.36642300  1
  O  O15  1  0.31744200  0.68207300  0.13357700  1
  O  O16  1  0.38383600  0.11055000  0.51072600  1
  O  O17  1  0.88945000  0.61616400  0.98927400  1
  O  O18  1  0.61616400  0.88945000  0.48927400  1
  O  O19  1  0.11055000  0.38383600  0.01072600  1
  O  O20  1  0.65019200  0.20793700  0.11517700  1
  O  O21  1  0.79206300  0.34980800  0.38482300  1
  O  O22  1  0.34980800  0.79206300  0.88482300  1
  O  O23  1  0.20793700  0.65019200  0.61517700  1
  O  O24  1  0.28095300  0.05021000  0.70206700  1
  O  O25  1  0.71904700  0.94979000  0.29793300  1
  O  O26  1  0.94979000  0.71904700  0.79793300  1
  O  O27  1  0.05021000  0.28095300  0.20206700  1
loop_
_geom_bond_atom_site_label_1
_geom_bond_atom_site_label_2
_geom_bond_distance
_geom_bond_site_symmetry_2
Ba0 O4 2.731588 1_555
Ba0 O24 2.744884 1_555
Ba0 O19 2.766536 1_556
Ba0 O3 2.797335 1_556
Ba0 O9 2.897681 1_555
Ba0 O13 3.049542 1_555
Ba0 O1 3.098339 1_445
Ba0 O26 3.166383 1_445
Ba1 O5 2.731588 1_555
Ba1 O26 2.744884 1_555
Ba1 O18 2.766536 1_555
Ba1 O2 2.797335 1_555
Ba1 O8 2.897681 1_555
Ba1 O12 3.049542 1_555
Ba1 O0 3.098339 1_665
Ba1 O24 3.166383 1_665
Ba2 O6 2.731588 1_555
Ba2 O25 2.744884 1_555
Ba2 O17 2.766536 1_554
Ba2 O1 2.797335 1_554
Ba2 O11 2.897681 1_555
Ba2 O15 3.049542 1_555
Ba2 O3 3.098339 1_665
Ba2 O27 3.166383 1_665
Ba3 O7 2.731588 1_555
Ba3 O27 2.744884 1_555
Ba3 O16 2.766536 1_555
Ba3 O0 2.797335 1_555
Ba3 O10 2.897681 1_555
Ba3 O14 3.049542 1_555
Ba3 O2 3.098339 1_445
Ba3 O25 3.166383 1_445
Co0 O23 1.997637 1_555
Co0 O2 2.007947 1_455
Co0 O16 2.018979 1_565
Co0 O14 2.068668 1_555
Co0 O18 2.364224 1_555
Co1 O22 1.997637 1_554
Co1 O3 2.007947 1_565
Co1 O17 2.018979 1_454
Co1 O15 2.068668 1_555
Co1 O19 2.364224 1_555
Co2 O7 1.990797 1_565
Co2 O6 1.990797 1_455
Co2 O15 1.992705 1_555
Co2 O14 1.992705 1_555
Co3 O20 1.997637 1_556
Co3 O1 2.007947 1_545
Co3 O19 2.018979 1_656
Co3 O13 2.068668 1_555
Co3 O17 2.364224 1_555
Co4 O22 2.039580 1_555
Co4 O23 2.039580 1_555
Co4 O26 2.053244 1_455
Co4 O24 2.053244 1_565
Co4 O5 2.693739 1_555
Co4 O4 2.693739 1_555
Co5 O20 2.039580 1_555
Co5 O21 2.039580 1_555
Co5 O25 2.053244 1_545
Co5 O27 2.053244 1_655
Co5 O6 2.693739 1_555
Co5 O7 2.693739 1_555
Co6 O4 1.990797 1_655
Co6 O5 1.990797 1_545
Co6 O12 1.992705 1_555
Co6 O13 1.992705 1_555
Co7 O21 1.997637 1_555
Co7 O0 2.007947 1_655
Co7 O18 2.018979 1_545
Co7 O12 2.068668 1_555
Co7 O16 2.364224 1_555
O0 Si4 1.634057 1_555
O1 Si5 1.634055 1_555
O2 Si6 1.634057 1_555
O3 Si7 1.634055 1_555
O4 Si4 1.643117 1_555
O5 Si5 1.643115 1_555
O6 Si6 1.643117 1_555
O7 Si7 1.643115 1_555
O8 Si4 1.681446 1_555
O8 Si0 1.682168 1_555
O9 Si5 1.681453 1_555
O9 Si1 1.682168 1_555
O10 Si6 1.681446 1_555
O10 Si2 1.682168 1_555
O11 Si7 1.681453 1_555
O11 Si3 1.682168 1_555
O12 Si0 1.660284 1_555
O13 Si1 1.660284 1_555
O14 Si2 1.660284 1_555
O15 Si3 1.660284 1_555
O16 Si0 1.637884 1_555
O17 Si1 1.637884 1_555
O18 Si2 1.637884 1_555
O19 Si3 1.637884 1_555
O20 Si7 1.654365 1_555
O21 Si6 1.654367 1_555
O22 Si5 1.654365 1_555
O23 Si4 1.654367 1_555
O24 Si0 1.621250 1_555
O25 Si2 1.621250 1_555
O26 Si1 1.621250 1_555
O27 Si3 1.621250 1_555
