# generated using pymatgen
data_MoS2
_symmetry_space_group_name_H-M   'P 1'
_cell_length_a   6.78765941
_cell_length_b   6.78765941
_cell_length_c   6.78765941
_cell_angle_alpha   60.00000000
_cell_angle_beta   60.00000000
_cell_angle_gamma   60.00000000
_symmetry_Int_Tables_number   1
_chemical_formula_structural   MoS2
_chemical_formula_sum   'Mo4 S8'
_cell_volume   221.12870861
_cell_formula_units_Z   4
loop_
 _symmetry_equiv_pos_site_id
 _symmetry_equiv_pos_as_xyz
  1  'x, y, z'
loop_
 _atom_site_type_symbol
 _atom_site_label
 _atom_site_symmetry_multiplicity
 _atom_site_fract_x
 _atom_site_fract_y
 _atom_site_fract_z
 _atom_site_occupancy
  Mo  Mo0  1  0.85884800  0.85884800  0.42345700  1
  Mo  Mo1  1  0.42345700  0.85884800  0.85884800  1
  Mo  Mo2  1  0.85884800  0.85884800  0.85884800  1
  Mo  Mo3  1  0.85884800  0.42345700  0.85884800  1
  S  S0  1  0.61490900  0.15527400  0.61490900  1
  S  S1  1  0.15527400  0.61490900  0.61490900  1
  S  S2  1  0.61490900  0.61490900  0.61490900  1
  S  S3  1  0.11847800  0.11847800  0.11847800  1
  S  S4  1  0.11847800  0.64456500  0.11847800  1
  S  S5  1  0.11847800  0.11847800  0.64456500  1
  S  S6  1  0.64456500  0.11847800  0.11847800  1
  S  S7  1  0.61490900  0.61490900  0.15527400  1
loop_
_geom_bond_atom_site_label_1
_geom_bond_atom_site_label_2
_geom_bond_distance
_geom_bond_site_symmetry_2
Mo0 S2 2.368566 1_555
Mo0 S0 2.368566 1_565
Mo0 S1 2.368566 1_655
Mo0 S3 2.511177 1_665
Mo0 S6 2.511186 1_565
Mo0 S4 2.511186 1_655
Mo1 S2 2.368566 1_555
Mo1 S0 2.368566 1_565
Mo1 S7 2.368566 1_556
Mo1 S3 2.511177 1_566
Mo1 S4 2.511186 1_556
Mo1 S5 2.511186 1_565
Mo2 S1 2.368566 1_655
Mo2 S7 2.368566 1_556
Mo2 S0 2.368566 1_565
Mo2 S5 2.511176 1_665
Mo2 S6 2.511176 1_566
Mo2 S4 2.511176 1_656
Mo3 S2 2.368566 1_555
Mo3 S1 2.368566 1_655
Mo3 S7 2.368566 1_556
Mo3 S3 2.511177 1_656
Mo3 S6 2.511186 1_556
Mo3 S5 2.511186 1_655
