# generated using pymatgen
data_CdIO4
_symmetry_space_group_name_H-M   'P 1'
_cell_length_a   4.93088600
_cell_length_b   6.93372800
_cell_length_c   11.12415000
_cell_angle_alpha   90.00000000
_cell_angle_beta   90.00000000
_cell_angle_gamma   90.00000000
_symmetry_Int_Tables_number   1
_chemical_formula_structural   CdIO4
_chemical_formula_sum   'Cd4 I4 O16'
_cell_volume   380.32826233
_cell_formula_units_Z   4
loop_
 _symmetry_equiv_pos_site_id
 _symmetry_equiv_pos_as_xyz
  1  'x, y, z'
loop_
 _atom_site_type_symbol
 _atom_site_label
 _atom_site_symmetry_multiplicity
 _atom_site_fract_x
 _atom_site_fract_y
 _atom_site_fract_z
 _atom_site_occupancy
  Cd  Cd0  1  0.00000000  0.00000000  0.50000000  1
  Cd  Cd1  1  0.50000000  0.50000000  0.00000000  1
  Cd  Cd2  1  0.00000000  0.50000000  0.50000000  1
  Cd  Cd3  1  0.50000000  0.00000000  0.00000000  1
  I  I0  1  0.98480700  0.75000000  0.78631300  1
  I  I1  1  0.51519300  0.75000000  0.28631300  1
  I  I2  1  0.01519300  0.25000000  0.21368700  1
  I  I3  1  0.48480700  0.25000000  0.71368700  1
  O  O0  1  0.76952200  0.95450000  0.83081200  1
  O  O1  1  0.73047800  0.54550000  0.33081200  1
  O  O2  1  0.23047800  0.45450000  0.16918800  1
  O  O3  1  0.26952200  0.04550000  0.66918800  1
  O  O4  1  0.23047800  0.04550000  0.16918800  1
  O  O5  1  0.26952200  0.45450000  0.66918800  1
  O  O6  1  0.76952200  0.54550000  0.83081200  1
  O  O7  1  0.73047800  0.95450000  0.33081200  1
  O  O8  1  0.20938800  0.75000000  0.92927600  1
  O  O9  1  0.29061200  0.75000000  0.42927600  1
  O  O10  1  0.79061200  0.25000000  0.07072400  1
  O  O11  1  0.70938800  0.25000000  0.57072400  1
  O  O12  1  0.85466000  0.75000000  0.61703100  1
  O  O13  1  0.64534000  0.75000000  0.11703100  1
  O  O14  1  0.14534000  0.25000000  0.38296900  1
  O  O15  1  0.35466000  0.25000000  0.88296900  1
loop_
_geom_bond_atom_site_label_1
_geom_bond_atom_site_label_2
_geom_bond_distance
_geom_bond_site_symmetry_2
Cd0 O12 2.283254 1_445
Cd0 O14 2.283254 1_555
Cd0 O3 2.325494 1_555
Cd0 O7 2.325494 1_445
Cd0 O9 2.382681 1_545
Cd0 O11 2.382681 1_455
Cd1 O15 2.283254 1_554
Cd1 O13 2.283254 1_555
Cd1 O2 2.325494 1_555
Cd1 O6 2.325494 1_554
Cd1 O10 2.382681 1_555
Cd1 O8 2.382681 1_554
Cd2 O14 2.283254 1_555
Cd2 O12 2.283254 1_455
Cd2 O5 2.325494 1_555
Cd2 O1 2.325494 1_455
Cd2 O9 2.382681 1_555
Cd2 O11 2.382681 1_455
Cd3 O15 2.283254 1_554
Cd3 O13 2.283254 1_545
Cd3 O4 2.325494 1_555
Cd3 O0 2.325494 1_544
Cd3 O10 2.382681 1_555
Cd3 O8 2.382681 1_544
I0 O6 1.839155 1_555
I0 O0 1.839155 1_555
I0 O8 1.937907 1_655
I0 O12 1.989463 1_555
I1 O1 1.839155 1_555
I1 O7 1.839155 1_555
I1 O9 1.937907 1_555
I1 O13 1.989463 1_555
I2 O4 1.839155 1_555
I2 O2 1.839155 1_555
I2 O10 1.937907 1_455
I2 O14 1.989463 1_555
I3 O3 1.839155 1_555
I3 O5 1.839155 1_555
I3 O11 1.937907 1_555
I3 O15 1.989463 1_555
