# generated using pymatgen
data_Er2Si3Rh
_symmetry_space_group_name_H-M   'P 1'
_cell_length_a   8.15807012
_cell_length_b   8.15807012
_cell_length_c   7.84744000
_cell_angle_alpha   90.00000000
_cell_angle_beta   90.00000000
_cell_angle_gamma   120.00000094
_symmetry_Int_Tables_number   1
_chemical_formula_structural   Er2Si3Rh
_chemical_formula_sum   'Er8 Si12 Rh4'
_cell_volume   452.30719752
_cell_formula_units_Z   4
loop_
 _symmetry_equiv_pos_site_id
 _symmetry_equiv_pos_as_xyz
  1  'x, y, z'
loop_
 _atom_site_type_symbol
 _atom_site_label
 _atom_site_symmetry_multiplicity
 _atom_site_fract_x
 _atom_site_fract_y
 _atom_site_fract_z
 _atom_site_occupancy
  Er  Er0  1  0.00000000  0.00000000  0.25000000  1
  Er  Er1  1  0.00000000  0.00000000  0.75000000  1
  Er  Er2  1  0.49551200  0.50448800  0.25000000  1
  Er  Er3  1  0.49551200  0.99102400  0.25000000  1
  Er  Er4  1  0.00897600  0.50448800  0.25000000  1
  Er  Er5  1  0.50448800  0.49551200  0.75000000  1
  Er  Er6  1  0.99102400  0.49551200  0.75000000  1
  Er  Er7  1  0.50448800  0.00897600  0.75000000  1
  Si  Si0  1  0.83388500  0.16611500  0.49851100  1
  Si  Si1  1  0.83388500  0.66777100  0.49851100  1
  Si  Si2  1  0.33222900  0.16611500  0.49851100  1
  Si  Si3  1  0.83388500  0.16611500  0.00148900  1
  Si  Si4  1  0.83388500  0.66777100  0.00148900  1
  Si  Si5  1  0.33222900  0.16611500  0.00148900  1
  Si  Si6  1  0.16611500  0.83388500  0.99851100  1
  Si  Si7  1  0.66777100  0.83388500  0.99851100  1
  Si  Si8  1  0.16611500  0.33222900  0.99851100  1
  Si  Si9  1  0.16611500  0.83388500  0.50148900  1
  Si  Si10  1  0.66777100  0.83388500  0.50148900  1
  Si  Si11  1  0.16611500  0.33222900  0.50148900  1
  Rh  Rh0  1  0.66666700  0.33333300  0.48534600  1
  Rh  Rh1  1  0.66666700  0.33333300  0.01465400  1
  Rh  Rh2  1  0.33333300  0.66666700  0.98534600  1
  Rh  Rh3  1  0.33333300  0.66666700  0.51465400  1
loop_
_geom_bond_atom_site_label_1
_geom_bond_atom_site_label_2
_geom_bond_distance
_geom_bond_site_symmetry_2
Er0 Si1 3.051667 1_445
Er0 Si4 3.051667 1_445
Er0 Si2 3.051667 1_555
Er0 Si5 3.051667 1_555
Er0 Si3 3.051672 1_455
Er0 Si0 3.051672 1_455
Er0 Si11 3.066654 1_555
Er0 Si8 3.066654 1_554
Er0 Si10 3.066654 1_445
Er0 Si7 3.066654 1_444
Er0 Si6 3.066659 1_544
Er0 Si9 3.066659 1_545
Er1 Si7 3.051667 1_445
Er1 Si10 3.051667 1_445
Er1 Si8 3.051667 1_555
Er1 Si11 3.051667 1_555
Er1 Si6 3.051672 1_545
Er1 Si9 3.051672 1_545
Er1 Si1 3.066654 1_445
Er1 Si2 3.066654 1_555
Er1 Si5 3.066654 1_556
Er1 Si4 3.066654 1_446
Er1 Si0 3.066659 1_455
Er1 Si3 3.066659 1_456
Er2 Rh0 3.042995 1_555
Er2 Rh1 3.042995 1_555
Er2 Si7 3.051990 1_554
Er2 Si10 3.051990 1_555
Er2 Si11 3.051990 1_555
Er2 Si8 3.051990 1_554
Er2 Si4 3.085555 1_555
Er2 Si1 3.085555 1_555
Er2 Si2 3.085555 1_555
Er2 Si5 3.085555 1_555
Er2 Rh2 3.092710 1_554
Er2 Rh3 3.092710 1_555
Er3 Rh0 3.042990 1_565
Er3 Rh1 3.042990 1_565
Er3 Si9 3.051990 1_555
Er3 Si6 3.051990 1_554
Er3 Si10 3.051995 1_555
Er3 Si7 3.051995 1_554
Er3 Si3 3.085555 1_565
Er3 Si0 3.085555 1_565
Er3 Si5 3.085561 1_565
Er3 Si2 3.085561 1_565
Er3 Rh2 3.092705 1_554
Er3 Rh3 3.092705 1_555
Er4 Rh0 3.042990 1_455
Er4 Rh1 3.042990 1_455
Er4 Si9 3.051990 1_555
Er4 Si6 3.051990 1_554
Er4 Si11 3.051995 1_555
Er4 Si8 3.051995 1_554
Er4 Si3 3.085555 1_455
Er4 Si0 3.085555 1_455
Er4 Si1 3.085561 1_455
Er4 Si4 3.085561 1_455
Er4 Rh2 3.092705 1_554
Er4 Rh3 3.092705 1_555
Er5 Rh3 3.042995 1_555
Er5 Rh2 3.042995 1_555
Er5 Si1 3.051990 1_555
Er5 Si4 3.051990 1_556
Er5 Si2 3.051990 1_555
Er5 Si5 3.051990 1_556
Er5 Si7 3.085555 1_555
Er5 Si10 3.085555 1_555
Er5 Si11 3.085555 1_555
Er5 Si8 3.085555 1_555
Er5 Rh1 3.092710 1_556
Er5 Rh0 3.092710 1_555
Er6 Rh2 3.042990 1_655
Er6 Rh3 3.042990 1_655
Er6 Si0 3.051990 1_555
Er6 Si3 3.051990 1_556
Er6 Si1 3.051995 1_555
Er6 Si4 3.051995 1_556
Er6 Si6 3.085555 1_655
Er6 Si9 3.085555 1_655
Er6 Si8 3.085561 1_655
Er6 Si11 3.085561 1_655
Er6 Rh1 3.092705 1_556
Er6 Rh0 3.092705 1_555
Er7 Rh2 3.042990 1_545
Er7 Rh3 3.042990 1_545
Er7 Si0 3.051990 1_555
Er7 Si3 3.051990 1_556
Er7 Si2 3.051995 1_555
Er7 Si5 3.051995 1_556
Er7 Si9 3.085555 1_545
Er7 Si6 3.085555 1_545
Er7 Si10 3.085561 1_545
Er7 Si7 3.085561 1_545
Er7 Rh1 3.092705 1_556
Er7 Rh0 3.092705 1_555
Si0 Si10 2.347353 1_545
Si0 Si11 2.347353 1_655
Si1 Si10 2.347339 1_555
Si1 Si9 2.347353 1_655
Si2 Si9 2.347353 1_545
Si3 Si7 2.347353 1_544
Si3 Si8 2.347353 1_654
Si4 Si7 2.347339 1_554
Si4 Si6 2.347353 1_654
Si5 Si8 2.347339 1_554
Si5 Si6 2.347353 1_544
Si11 Si2 2.347339 1_555
Rh0 Si0 2.365080 1_555
Rh0 Si1 2.365094 1_555
Rh0 Si2 2.365094 1_555
Rh1 Si3 2.365080 1_555
Rh1 Si5 2.365094 1_555
Rh1 Si4 2.365094 1_555
Rh2 Si6 2.365080 1_555
Rh2 Si7 2.365094 1_555
Rh2 Si8 2.365094 1_555
Rh3 Si9 2.365080 1_555
Rh3 Si10 2.365094 1_555
Rh3 Si11 2.365094 1_555
