# generated using pymatgen
data_La2MgCo2Sb2(PbO6)2
_symmetry_space_group_name_H-M   'P 1'
_cell_length_a   6.02598888
_cell_length_b   7.25256739
_cell_length_c   7.36509424
_cell_angle_alpha   91.43893020
_cell_angle_beta   89.06291429
_cell_angle_gamma   81.87379451
_symmetry_Int_Tables_number   1
_chemical_formula_structural   La2MgCo2Sb2(PbO6)2
_chemical_formula_sum   'La2 Mg1 Co2 Sb2 Pb2 O12'
_cell_volume   318.48635896
_cell_formula_units_Z   1
loop_
 _symmetry_equiv_pos_site_id
 _symmetry_equiv_pos_as_xyz
  1  'x, y, z'
loop_
 _atom_site_type_symbol
 _atom_site_label
 _atom_site_symmetry_multiplicity
 _atom_site_fract_x
 _atom_site_fract_y
 _atom_site_fract_z
 _atom_site_occupancy
  La  La0  1  0.52112200  0.37043800  0.78120600  1
  La  La1  1  0.00250300  0.11738200  0.22939500  1
  Mg  Mg0  1  0.78523000  0.72337400  0.25861800  1
  Co  Co0  1  0.01280800  0.46165000  0.51412400  1
  Co  Co1  1  0.55473300  0.91486500  0.95328100  1
  Sb  Sb0  1  0.99225000  0.50265400  0.98216000  1
  Sb  Sb1  1  0.51434000  0.02451400  0.48066400  1
  Pb  Pb0  1  0.35811300  0.55881700  0.29506100  1
  Pb  Pb1  1  0.99742600  0.92724000  0.71026200  1
  O  O0  1  0.64004500  0.98547600  0.21654800  1
  O  O1  1  0.12497500  0.54891500  0.74089600  1
  O  O2  1  0.44863700  0.05795200  0.75320600  1
  O  O3  1  0.89751600  0.44828300  0.26604900  1
  O  O4  1  0.23738200  0.90943900  0.43325900  1
  O  O5  1  0.67513600  0.63733600  0.97430000  1
  O  O6  1  0.78202100  0.16665500  0.52413200  1
  O  O7  1  0.28788400  0.36016900  0.04697800  1
  O  O8  1  0.32162600  0.27063300  0.45352400  1
  O  O9  1  0.87280200  0.26529700  0.92967600  1
  O  O10  1  0.72232600  0.78499000  0.52081400  1
  O  O11  1  0.07255300  0.73475600  0.11084600  1
loop_
_geom_bond_atom_site_label_1
_geom_bond_atom_site_label_2
_geom_bond_distance
_geom_bond_site_symmetry_2
La0 O2 2.372526 1_555
La0 O7 2.399881 1_556
La0 O9 2.434978 1_555
La0 O1 2.575109 1_555
La0 O5 2.653976 1_555
La0 O6 2.710375 1_555
La0 O8 2.836697 1_555
La1 O3 2.401083 1_455
La1 O4 2.472233 1_545
La1 O0 2.507522 1_445
La1 O6 2.517467 1_455
La1 O9 2.563764 1_454
La1 O11 2.859435 1_545
La1 O8 2.876501 1_555
La1 O7 2.960109 1_555
Mg0 O10 1.989309 1_555
Mg0 O0 2.010766 1_555
Mg0 O3 2.016523 1_555
Mg0 O11 2.042640 1_655
Mg0 O5 2.304628 1_554
Mg0 Pb0 2.997123 1_555
Co0 O1 1.936945 1_555
Co0 O3 1.970284 1_455
Co0 O8 2.189623 1_555
Co0 O6 2.713413 1_455
Co0 O10 2.719670 1_455
Co0 Pb0 2.791295 1_555
Co1 O2 1.891330 1_565
Co1 O5 2.051390 1_555
Co1 O0 2.084077 1_556
O0 Sb1 2.073989 1_565
O1 Sb0 1.992248 1_455
O1 Pb1 2.758769 1_455
O2 Sb1 2.041378 1_555
O3 Sb0 2.217910 1_554
O4 Sb1 2.000506 1_565
O4 Pb1 2.471282 1_455
O4 Pb0 2.711909 1_555
O5 Sb0 2.021848 1_555
O6 Sb1 2.058531 1_555
O6 Pb1 2.473804 1_545
O7 Sb0 2.000404 1_454
O7 Pb0 2.378799 1_555
O8 Sb1 2.003559 1_555
O8 Pb0 2.454159 1_555
O9 Sb0 1.989192 1_555
O10 Sb1 2.024450 1_565
O10 Pb1 2.499246 1_555
O11 Sb0 2.032545 1_454
O11 Pb0 2.443901 1_555
