# generated using pymatgen
data_Mg(ScSe2)2
_symmetry_space_group_name_H-M   'P 1'
_cell_length_a   13.48042700
_cell_length_b   7.83325100
_cell_length_c   6.61953100
_cell_angle_alpha   90.00000000
_cell_angle_beta   90.00000000
_cell_angle_gamma   90.00000000
_symmetry_Int_Tables_number   1
_chemical_formula_structural   Mg(ScSe2)2
_chemical_formula_sum   'Mg4 Sc8 Se16'
_cell_volume   698.99313768
_cell_formula_units_Z   4
loop_
 _symmetry_equiv_pos_site_id
 _symmetry_equiv_pos_as_xyz
  1  'x, y, z'
loop_
 _atom_site_type_symbol
 _atom_site_label
 _atom_site_symmetry_multiplicity
 _atom_site_fract_x
 _atom_site_fract_y
 _atom_site_fract_z
 _atom_site_occupancy
  Mg  Mg0  1  0.09291500  0.25000000  0.91576300  1
  Mg  Mg1  1  0.90708500  0.75000000  0.08423700  1
  Mg  Mg2  1  0.40708500  0.75000000  0.41576300  1
  Mg  Mg3  1  0.59291500  0.25000000  0.58423700  1
  Sc  Sc0  1  0.00000000  0.00000000  0.50000000  1
  Sc  Sc1  1  0.50000000  0.00000000  0.00000000  1
  Sc  Sc2  1  0.50000000  0.50000000  0.00000000  1
  Sc  Sc3  1  0.00000000  0.50000000  0.50000000  1
  Sc  Sc4  1  0.23875700  0.75000000  0.00884100  1
  Sc  Sc5  1  0.76124300  0.25000000  0.99115900  1
  Sc  Sc6  1  0.26124300  0.25000000  0.50884100  1
  Sc  Sc7  1  0.73875700  0.75000000  0.49115900  1
  Se  Se0  1  0.17087800  0.99477700  0.73004300  1
  Se  Se1  1  0.82912200  0.00522300  0.26995700  1
  Se  Se2  1  0.32912200  0.00522300  0.23004300  1
  Se  Se3  1  0.67087800  0.99477700  0.76995700  1
  Se  Se4  1  0.67087800  0.50522300  0.76995700  1
  Se  Se5  1  0.32912200  0.49477700  0.23004300  1
  Se  Se6  1  0.82912200  0.49477700  0.26995700  1
  Se  Se7  1  0.17087800  0.50522300  0.73004300  1
  Se  Se8  1  0.07916100  0.75000000  0.25713900  1
  Se  Se9  1  0.92083900  0.25000000  0.74286100  1
  Se  Se10  1  0.42083900  0.25000000  0.75713900  1
  Se  Se11  1  0.57916100  0.75000000  0.24286100  1
  Se  Se12  1  0.08967900  0.25000000  0.29686300  1
  Se  Se13  1  0.91032100  0.75000000  0.70313700  1
  Se  Se14  1  0.41032100  0.75000000  0.79686300  1
  Se  Se15  1  0.58967900  0.25000000  0.20313700  1
loop_
_geom_bond_atom_site_label_1
_geom_bond_atom_site_label_2
_geom_bond_distance
_geom_bond_site_symmetry_2
Mg0 Se12 2.523080 1_556
Mg0 Se0 2.571541 1_545
Mg0 Se7 2.571541 1_555
Mg0 Se9 2.586651 1_455
Mg1 Se13 2.523080 1_554
Mg1 Se1 2.571541 1_565
Mg1 Se6 2.571541 1_555
Mg1 Se8 2.586651 1_655
Mg2 Se14 2.523080 1_555
Mg2 Se5 2.571541 1_555
Mg2 Se2 2.571541 1_565
Mg2 Se11 2.586651 1_555
Mg3 Se15 2.523080 1_555
Mg3 Se4 2.571541 1_555
Mg3 Se3 2.571541 1_545
Mg3 Se10 2.586651 1_555
Sc0 Se13 2.665445 1_445
Sc0 Se12 2.665445 1_555
Sc0 Se8 2.749219 1_545
Sc0 Se9 2.749219 1_455
Sc0 Se1 2.761643 1_455
Sc0 Se0 2.761643 1_545
Sc1 Se15 2.665445 1_555
Sc1 Se14 2.665445 1_544
Sc1 Se10 2.749219 1_554
Sc1 Se11 2.749219 1_545
Sc1 Se3 2.761643 1_544
Sc1 Se2 2.761643 1_555
Sc2 Se15 2.665445 1_555
Sc2 Se14 2.665445 1_554
Sc2 Se10 2.749219 1_554
Sc2 Se11 2.749219 1_555
Sc2 Se4 2.761643 1_554
Sc2 Se5 2.761643 1_555
Sc3 Se13 2.665445 1_455
Sc3 Se12 2.665445 1_555
Sc3 Se8 2.749219 1_555
Sc3 Se9 2.749219 1_455
Sc3 Se6 2.761643 1_455
Sc3 Se7 2.761643 1_555
Sc4 Se14 2.705143 1_554
Sc4 Se8 2.707414 1_555
Sc4 Se5 2.761314 1_555
Sc4 Se2 2.761314 1_565
Sc4 Se7 2.814184 1_554
Sc4 Se0 2.814184 1_554
Sc5 Se15 2.705143 1_556
Sc5 Se9 2.707414 1_555
Sc5 Se3 2.761314 1_545
Sc5 Se4 2.761314 1_555
Sc5 Se1 2.814184 1_556
Sc5 Se6 2.814184 1_556
Sc6 Se12 2.705143 1_555
Sc6 Se10 2.707414 1_555
Sc6 Se0 2.761314 1_545
Sc6 Se7 2.761314 1_555
Sc6 Se2 2.814184 1_555
Sc6 Se5 2.814184 1_555
Sc7 Se13 2.705143 1_555
Sc7 Se11 2.707414 1_555
Sc7 Se1 2.761314 1_565
Sc7 Se6 2.761314 1_555
Sc7 Se3 2.814184 1_555
Sc7 Se4 2.814184 1_555
