# generated using pymatgen
data_BaCaCeSnO6
_symmetry_space_group_name_H-M   'P 1'
_cell_length_a   8.49482648
_cell_length_b   8.48352705
_cell_length_c   8.47810447
_cell_angle_alpha   90.00000000
_cell_angle_beta   90.00000000
_cell_angle_gamma   90.00000000
_symmetry_Int_Tables_number   1
_chemical_formula_structural   BaCaCeSnO6
_chemical_formula_sum   'Ba4 Ca4 Ce4 Sn4 O24'
_cell_volume   610.98384170
_cell_formula_units_Z   4
loop_
 _symmetry_equiv_pos_site_id
 _symmetry_equiv_pos_as_xyz
  1  'x, y, z'
loop_
 _atom_site_type_symbol
 _atom_site_label
 _atom_site_symmetry_multiplicity
 _atom_site_fract_x
 _atom_site_fract_y
 _atom_site_fract_z
 _atom_site_occupancy
  Ba  Ba0  1  0.00000000  -0.00000000  -0.00000000  1
  Ba  Ba1  1  0.50000000  0.50000000  0.50000000  1
  Ba  Ba2  1  0.50000000  -0.00000000  -0.00000000  1
  Ba  Ba3  1  0.00000000  0.50000000  -0.00000000  1
  Ca  Ca0  1  -0.00000000  0.50000000  0.50000000  1
  Ca  Ca1  1  0.50000000  -0.00000000  0.50000000  1
  Ca  Ca2  1  0.50000000  0.50000000  -0.00000000  1
  Ca  Ca3  1  -0.00000000  -0.00000000  0.50000000  1
  Ce  Ce0  1  0.74877823  0.74933434  0.74474724  1
  Ce  Ce1  1  0.25122177  0.25066566  0.74474724  1
  Ce  Ce2  1  0.25122177  0.74933434  0.25525276  1
  Ce  Ce3  1  0.74877823  0.25066566  0.25525276  1
  Sn  Sn0  1  0.25138747  0.25067327  0.25608578  1
  Sn  Sn1  1  0.74861253  0.74932673  0.25608578  1
  Sn  Sn2  1  0.74861253  0.25067327  0.74391422  1
  Sn  Sn3  1  0.25138747  0.74932673  0.74391422  1
  O  O0  1  0.00882284  0.20649693  0.29887362  1
  O  O1  1  0.99117716  0.79350307  0.29887362  1
  O  O2  1  0.99117716  0.20649693  0.70112638  1
  O  O3  1  0.00882284  0.79350307  0.70112638  1
  O  O4  1  0.28242025  0.00670009  0.22680981  1
  O  O5  1  0.28242025  0.99329991  0.77319019  1
  O  O6  1  0.71757975  0.99329991  0.22680981  1
  O  O7  1  0.71757975  0.00670009  0.77319019  1
  O  O8  1  0.21795636  0.27238207  0.00965552  1
  O  O9  1  0.78204364  0.27238207  0.99034448  1
  O  O10  1  0.21795636  0.72761793  0.99034448  1
  O  O11  1  0.78204364  0.72761793  0.00965552  1
  O  O12  1  0.49125886  0.30415509  0.20970629  1
  O  O13  1  0.50874114  0.69584491  0.20970629  1
  O  O14  1  0.50874114  0.30415509  0.79029371  1
  O  O15  1  0.49125886  0.69584491  0.79029371  1
  O  O16  1  0.20284556  0.49041115  0.30038008  1
  O  O17  1  0.20284556  0.50958885  0.69961992  1
  O  O18  1  0.79715444  0.50958885  0.30038008  1
  O  O19  1  0.79715444  0.49041115  0.69961992  1
  O  O20  1  0.30858371  0.21046034  0.49290288  1
  O  O21  1  0.69141629  0.21046034  0.50709712  1
  O  O22  1  0.30858371  0.78953966  0.50709712  1
  O  O23  1  0.69141629  0.78953966  0.49290288  1
loop_
_geom_bond_atom_site_label_1
_geom_bond_atom_site_label_2
_geom_bond_distance
_geom_bond_site_symmetry_2
Ba0 O9 2.962157 1_454
Ba0 O8 2.962157 1_555
Ba0 O11 2.962157 1_445
Ba0 O10 2.962157 1_544
Ba0 O5 3.075155 1_544
Ba0 O4 3.075155 1_555
Ba0 O7 3.075155 1_454
Ba0 O6 3.075155 1_445
Ba0 O3 3.081405 1_544
Ba0 O2 3.081405 1_454
Ba0 O0 3.081405 1_555
Ba0 O1 3.081405 1_445
Ba1 O20 2.946379 1_555
Ba1 O23 2.946379 1_555
Ba1 O21 2.946379 1_555
Ba1 O22 2.946379 1_555
Ba1 O14 2.970381 1_555
Ba1 O15 2.970381 1_555
Ba1 O12 2.970381 1_555
Ba1 O13 2.970381 1_555
Ba1 O17 3.040197 1_555
Ba1 O19 3.040197 1_555
Ba1 O18 3.040197 1_555
Ba1 O16 3.040197 1_555
Ba2 O7 2.667782 1_554
Ba2 O5 2.667782 1_544
Ba2 O4 2.667782 1_555
Ba2 O6 2.667782 1_545
Ba2 O13 3.134402 1_545
Ba2 O15 3.134402 1_544
Ba2 O14 3.134402 1_554
Ba2 O12 3.134402 1_555
Ba2 O9 3.329671 1_554
Ba2 O8 3.329671 1_555
Ba2 O11 3.329671 1_545
Ba2 O10 3.329671 1_544
Ba3 O11 2.676477 1_455
Ba3 O10 2.676477 1_554
Ba3 O9 2.676477 1_454
Ba3 O8 2.676477 1_555
Ba3 O18 3.075917 1_455
Ba3 O16 3.075917 1_555
Ba3 O19 3.075917 1_454
Ba3 O17 3.075917 1_554
Ca0 O19 2.416616 1_455
Ca0 O17 2.416616 1_555
Ca0 O18 2.416616 1_455
Ca0 O16 2.416616 1_555
Ca1 O20 2.415672 1_555
Ca1 O22 2.415672 1_545
Ca1 O21 2.415672 1_555
Ca1 O23 2.415672 1_545
Ca1 O6 2.963770 1_545
Ca1 O7 2.963770 1_555
Ca1 O5 2.963770 1_545
Ca1 O4 2.963770 1_555
Ca2 O14 2.434526 1_554
Ca2 O15 2.434526 1_554
Ca2 O12 2.434526 1_555
Ca2 O13 2.434526 1_555
Ca2 O10 3.078290 1_554
Ca2 O11 3.078290 1_555
Ca2 O9 3.078290 1_554
Ca2 O8 3.078290 1_555
Ca3 O0 2.445834 1_555
Ca3 O2 2.445834 1_455
Ca3 O3 2.445834 1_545
Ca3 O1 2.445834 1_445
Ce0 O7 2.212575 1_565
Ce0 O23 2.216461 1_555
Ce0 O19 2.267207 1_555
Ce0 O15 2.267276 1_555
Ce0 O3 2.270904 1_655
Ce0 O11 2.271112 1_556
Ce1 O5 2.212575 1_545
Ce1 O20 2.216461 1_555
Ce1 O17 2.267207 1_555
Ce1 O14 2.267276 1_555
Ce1 O2 2.270904 1_455
Ce1 O8 2.271112 1_556
Ce2 O4 2.212575 1_565
Ce2 O22 2.216461 1_555
Ce2 O16 2.267207 1_555
Ce2 O13 2.267276 1_555
Ce2 O1 2.270904 1_455
Ce2 O10 2.271112 1_554
Ce3 O6 2.212575 1_545
Ce3 O21 2.216461 1_555
Ce3 O18 2.267207 1_555
Ce3 O12 2.267276 1_555
Ce3 O0 2.270904 1_655
Ce3 O9 2.271112 1_554
O0 Sn0 2.125533 1_555
O1 Sn1 2.125533 1_555
O2 Sn2 2.125533 1_555
O3 Sn3 2.125533 1_555
O4 Sn0 2.101185 1_555
O5 Sn3 2.101185 1_555
O6 Sn1 2.101185 1_555
O7 Sn2 2.101185 1_555
O8 Sn0 2.116502 1_555
O9 Sn2 2.116502 1_555
O10 Sn3 2.116502 1_555
O11 Sn1 2.116502 1_555
O12 Sn0 2.124277 1_555
O13 Sn1 2.124277 1_555
O14 Sn2 2.124277 1_555
O15 Sn3 2.124277 1_555
O16 Sn0 2.108909 1_555
O17 Sn3 2.108909 1_555
O18 Sn1 2.108909 1_555
O19 Sn2 2.108909 1_555
O20 Sn0 2.093694 1_555
O21 Sn2 2.093694 1_555
O22 Sn3 2.093694 1_555
O23 Sn1 2.093694 1_555
