# generated using pymatgen
data_KNa7V8O24
_symmetry_space_group_name_H-M   'P 1'
_cell_length_a   7.55686500
_cell_length_b   7.55686500
_cell_length_c   7.55686500
_cell_angle_alpha   90.00000000
_cell_angle_beta   90.00000000
_cell_angle_gamma   90.00000000
_symmetry_Int_Tables_number   1
_chemical_formula_structural   KNa7V8O24
_chemical_formula_sum   'K1 Na7 V8 O24'
_cell_volume   431.54390927
_cell_formula_units_Z   1
loop_
 _symmetry_equiv_pos_site_id
 _symmetry_equiv_pos_as_xyz
  1  'x, y, z'
loop_
 _atom_site_type_symbol
 _atom_site_label
 _atom_site_symmetry_multiplicity
 _atom_site_fract_x
 _atom_site_fract_y
 _atom_site_fract_z
 _atom_site_occupancy
  K  K0  1  0.50000000  0.50000000  0.50000000  1
  Na  Na0  1  0.50000000  0.00000000  0.50000000  1
  Na  Na1  1  0.50000000  0.00000000  0.00000000  1
  Na  Na2  1  0.50000000  0.50000000  0.00000000  1
  Na  Na3  1  0.00000000  0.00000000  0.50000000  1
  Na  Na4  1  0.00000000  0.00000000  0.00000000  1
  Na  Na5  1  0.00000000  0.50000000  0.50000000  1
  Na  Na6  1  0.00000000  0.50000000  0.00000000  1
  V  V0  1  0.24946800  0.75053200  0.24946800  1
  V  V1  1  0.24946800  0.75053200  0.75053200  1
  V  V2  1  0.24946800  0.24946800  0.24946800  1
  V  V3  1  0.24946800  0.24946800  0.75053200  1
  V  V4  1  0.75053200  0.75053200  0.24946800  1
  V  V5  1  0.75053200  0.75053200  0.75053200  1
  V  V6  1  0.75053200  0.24946800  0.24946800  1
  V  V7  1  0.75053200  0.24946800  0.75053200  1
  O  O0  1  0.50000000  0.75171300  0.24828700  1
  O  O1  1  0.50000000  0.75171300  0.75171300  1
  O  O2  1  0.50000000  0.24828700  0.24828700  1
  O  O3  1  0.50000000  0.24828700  0.75171300  1
  O  O4  1  0.00000000  0.75015100  0.24984900  1
  O  O5  1  0.00000000  0.75015100  0.75015100  1
  O  O6  1  0.00000000  0.24984900  0.24984900  1
  O  O7  1  0.00000000  0.24984900  0.75015100  1
  O  O8  1  0.24984900  0.00000000  0.24984900  1
  O  O9  1  0.24984900  0.00000000  0.75015100  1
  O  O10  1  0.24828700  0.50000000  0.24828700  1
  O  O11  1  0.24828700  0.50000000  0.75171300  1
  O  O12  1  0.75015100  0.00000000  0.24984900  1
  O  O13  1  0.75015100  0.00000000  0.75015100  1
  O  O14  1  0.75171300  0.50000000  0.24828700  1
  O  O15  1  0.75171300  0.50000000  0.75171300  1
  O  O16  1  0.24828700  0.75171300  0.50000000  1
  O  O17  1  0.24984900  0.75015100  0.00000000  1
  O  O18  1  0.24828700  0.24828700  0.50000000  1
  O  O19  1  0.24984900  0.24984900  0.00000000  1
  O  O20  1  0.75171300  0.75171300  0.50000000  1
  O  O21  1  0.75015100  0.75015100  0.00000000  1
  O  O22  1  0.75171300  0.24828700  0.50000000  1
  O  O23  1  0.75015100  0.24984900  0.00000000  1
loop_
_geom_bond_atom_site_label_1
_geom_bond_atom_site_label_2
_geom_bond_distance
_geom_bond_site_symmetry_2
K0 O1 2.690062 1_555
K0 O15 2.690062 1_555
K0 O20 2.690062 1_555
K0 O3 2.690062 1_555
K0 O14 2.690062 1_555
K0 O11 2.690062 1_555
K0 O22 2.690062 1_555
K0 O0 2.690062 1_555
K0 O16 2.690062 1_555
K0 O18 2.690062 1_555
K0 O10 2.690062 1_555
K0 O2 2.690062 1_555
Na0 O22 2.671818 1_555
Na0 O3 2.671818 1_555
Na0 O20 2.671818 1_545
Na0 O1 2.671818 1_545
Na0 O2 2.671818 1_555
Na0 O18 2.671818 1_555
Na0 O0 2.671818 1_545
Na0 O16 2.671818 1_545
Na0 O12 2.673369 1_555
Na0 O9 2.673369 1_555
Na0 O13 2.673369 1_555
Na0 O8 2.673369 1_555
Na1 O2 2.653448 1_555
Na1 O0 2.653448 1_545
Na1 O3 2.653448 1_554
Na1 O1 2.653448 1_544
Na1 O9 2.671756 1_554
Na1 O17 2.671756 1_545
Na1 O19 2.671756 1_555
Na1 O12 2.671756 1_555
Na1 O13 2.671756 1_554
Na1 O21 2.671756 1_545
Na1 O23 2.671756 1_555
Na1 O8 2.671756 1_555
Na2 O14 2.671818 1_555
Na2 O0 2.671818 1_555
Na2 O15 2.671818 1_554
Na2 O1 2.671818 1_554
Na2 O10 2.671818 1_555
Na2 O2 2.671818 1_555
Na2 O3 2.671818 1_554
Na2 O11 2.671818 1_554
Na2 O19 2.673369 1_555
Na2 O17 2.673369 1_555
Na2 O21 2.673369 1_555
Na2 O23 2.673369 1_555
Na3 O18 2.653448 1_555
Na3 O16 2.653448 1_545
Na3 O22 2.653448 1_455
Na3 O20 2.653448 1_445
Na3 O6 2.671756 1_555
Na3 O13 2.671756 1_455
Na3 O4 2.671756 1_545
Na3 O7 2.671756 1_555
Na3 O5 2.671756 1_545
Na3 O9 2.671756 1_555
Na3 O12 2.671756 1_455
Na3 O8 2.671756 1_555
Na4 O12 2.670142 1_455
Na4 O9 2.670142 1_554
Na4 O6 2.670142 1_555
Na4 O8 2.670142 1_555
Na4 O21 2.670142 1_445
Na4 O4 2.670142 1_545
Na4 O17 2.670142 1_545
Na4 O7 2.670142 1_554
Na4 O19 2.670142 1_555
Na4 O5 2.670142 1_544
Na4 O13 2.670142 1_454
Na4 O23 2.670142 1_455
Na5 O11 2.671818 1_555
Na5 O16 2.671818 1_555
Na5 O10 2.671818 1_555
Na5 O20 2.671818 1_455
Na5 O15 2.671818 1_455
Na5 O18 2.671818 1_555
Na5 O22 2.671818 1_455
Na5 O14 2.671818 1_455
Na5 O7 2.673369 1_555
Na5 O4 2.673369 1_555
Na5 O5 2.673369 1_555
Na5 O6 2.673369 1_555
Na6 O10 2.653448 1_555
Na6 O14 2.653448 1_455
Na6 O11 2.653448 1_554
Na6 O15 2.653448 1_454
Na6 O6 2.671756 1_555
Na6 O19 2.671756 1_555
Na6 O7 2.671756 1_554
Na6 O23 2.671756 1_455
Na6 O17 2.671756 1_555
Na6 O5 2.671756 1_554
Na6 O4 2.671756 1_555
Na6 O21 2.671756 1_455
O0 V0 1.893279 1_555
O0 V4 1.893279 1_555
O1 V1 1.893279 1_555
O1 V5 1.893279 1_555
O2 V6 1.893279 1_555
O2 V2 1.893279 1_555
O3 V3 1.893279 1_555
O3 V7 1.893279 1_555
O4 V0 1.885200 1_555
O4 V4 1.885200 1_455
O5 V1 1.885200 1_555
O5 V5 1.885200 1_455
O6 V2 1.885200 1_555
O6 V6 1.885200 1_455
O7 V3 1.885200 1_555
O7 V7 1.885200 1_455
O8 V2 1.885200 1_555
O8 V0 1.885200 1_545
O9 V3 1.885200 1_555
O9 V1 1.885200 1_545
O10 V0 1.893279 1_555
O10 V2 1.893279 1_555
O11 V3 1.893279 1_555
O11 V1 1.893279 1_555
O12 V6 1.885200 1_555
O12 V4 1.885200 1_545
O13 V7 1.885200 1_555
O13 V5 1.885200 1_545
O14 V6 1.893279 1_555
O14 V4 1.893279 1_555
O15 V7 1.893279 1_555
O15 V5 1.893279 1_555
O16 V0 1.893279 1_555
O16 V1 1.893279 1_555
O17 V0 1.885200 1_555
O17 V1 1.885200 1_554
O18 V3 1.893279 1_555
O18 V2 1.893279 1_555
O19 V2 1.885200 1_555
O19 V3 1.885200 1_554
O20 V4 1.893279 1_555
O20 V5 1.893279 1_555
O21 V4 1.885200 1_555
O21 V5 1.885200 1_554
O22 V6 1.893279 1_555
O22 V7 1.893279 1_555
O23 V6 1.885200 1_555
O23 V7 1.885200 1_554
