# generated using pymatgen
data_Ba2TaFeO6
_symmetry_space_group_name_H-M   'P 1'
_cell_length_a   5.79980013
_cell_length_b   5.79980013
_cell_length_c   10.04554850
_cell_angle_alpha   73.22134512
_cell_angle_beta   90.00000000
_cell_angle_gamma   120.00000000
_symmetry_Int_Tables_number   1
_chemical_formula_structural   Ba2TaFeO6
_chemical_formula_sum   'Ba4 Ta2 Fe2 O12'
_cell_volume   275.90151134
_cell_formula_units_Z   2
loop_
 _symmetry_equiv_pos_site_id
 _symmetry_equiv_pos_as_xyz
  1  'x, y, z'
loop_
 _atom_site_type_symbol
 _atom_site_label
 _atom_site_symmetry_multiplicity
 _atom_site_fract_x
 _atom_site_fract_y
 _atom_site_fract_z
 _atom_site_occupancy
  Ba  Ba0  1  0.87500000  0.75000000  0.37500000  1
  Ba  Ba1  1  0.37500000  0.75000000  0.87500000  1
  Ba  Ba2  1  0.62500000  0.25000000  0.12500000  1
  Ba  Ba3  1  0.12500000  0.25000000  0.62500000  1
  Ta  Ta0  1  0.25000000  0.50000000  0.25000000  1
  Ta  Ta1  1  0.75000000  0.50000000  0.75000000  1
  Fe  Fe0  1  0.50000000  0.00000000  0.50000000  1
  Fe  Fe1  1  0.00000000  0.00000000  0.00000000  1
  O  O0  1  0.61904100  0.74602700  0.12698600  1
  O  O1  1  0.11904100  0.74602700  0.62698600  1
  O  O2  1  0.88095900  0.25397300  0.37301400  1
  O  O3  1  0.38095900  0.25397300  0.87301400  1
  O  O4  1  0.37301400  0.25397300  0.37301400  1
  O  O5  1  0.87301400  0.25397300  0.87301400  1
  O  O6  1  0.12698600  0.74602700  0.12698600  1
  O  O7  1  0.62698600  0.74602700  0.62698600  1
  O  O8  1  0.37301400  0.74602700  0.37301400  1
  O  O9  1  0.87301400  0.74602700  0.87301400  1
  O  O10  1  0.12698600  0.25397300  0.12698600  1
  O  O11  1  0.62698600  0.25397300  0.62698600  1
loop_
_geom_bond_atom_site_label_1
_geom_bond_atom_site_label_2
_geom_bond_distance
_geom_bond_site_symmetry_2
Ba0 O1 2.900080 1_655
Ba0 O11 2.900080 1_555
Ba0 O7 2.900080 1_555
Ba0 O2 2.900080 1_555
Ba0 O4 2.900080 1_555
Ba0 O8 2.900080 1_555
Ba0 O8 2.900086 1_655
Ba0 O4 2.900086 1_665
Ba0 O2 2.900086 1_565
Ba0 O10 2.900086 1_665
Ba0 O6 2.900086 1_655
Ba0 O0 2.900086 1_555
Ba1 O0 2.900080 1_556
Ba1 O6 2.900080 1_556
Ba1 O10 2.900080 1_556
Ba1 O9 2.900080 1_455
Ba1 O5 2.900080 1_455
Ba1 O3 2.900080 1_555
Ba1 O5 2.900086 1_565
Ba1 O3 2.900086 1_565
Ba1 O9 2.900086 1_555
Ba1 O7 2.900086 1_555
Ba1 O11 2.900086 1_565
Ba1 O1 2.900086 1_555
Ba2 O0 2.900080 1_555
Ba2 O3 2.900080 1_554
Ba2 O6 2.900080 1_655
Ba2 O10 2.900080 1_655
Ba2 O5 2.900080 1_554
Ba2 O9 2.900080 1_554
Ba2 O2 2.900086 1_555
Ba2 O8 2.900086 1_545
Ba2 O4 2.900086 1_555
Ba2 O6 2.900086 1_545
Ba2 O0 2.900086 1_545
Ba2 O10 2.900086 1_555
Ba3 O11 2.900080 1_555
Ba3 O7 2.900080 1_555
Ba3 O1 2.900080 1_555
Ba3 O4 2.900080 1_555
Ba3 O8 2.900080 1_555
Ba3 O2 2.900080 1_455
Ba3 O5 2.900086 1_455
Ba3 O9 2.900086 1_445
Ba3 O3 2.900086 1_555
Ba3 O1 2.900086 1_545
Ba3 O11 2.900086 1_455
Ba3 O7 2.900086 1_445
Fe0 O7 2.083122 1_545
Fe0 O11 2.083122 1_555
Fe0 O1 2.083122 1_545
Fe0 O2 2.083122 1_555
Fe0 O8 2.083122 1_545
Fe0 O4 2.083122 1_555
Fe1 O6 2.083122 1_545
Fe1 O10 2.083122 1_555
Fe1 O3 2.083122 1_554
Fe1 O0 2.083122 1_445
Fe1 O5 2.083122 1_454
Fe1 O9 2.083122 1_444
O0 Ta0 2.017956 1_555
O1 Ta1 2.017956 1_455
O2 Ta0 2.017956 1_655
O3 Ta1 2.017956 1_555
O4 Ta0 2.017956 1_555
O5 Ta1 2.017956 1_555
O6 Ta0 2.017956 1_555
O7 Ta1 2.017956 1_555
O8 Ta0 2.017956 1_555
O9 Ta1 2.017956 1_555
O10 Ta0 2.017956 1_555
O11 Ta1 2.017956 1_555
