# generated using pymatgen
data_CeAsRh
_symmetry_space_group_name_H-M   'P 1'
_cell_length_a   4.27605086
_cell_length_b   4.27605086
_cell_length_c   7.63230034
_cell_angle_alpha   90.00000000
_cell_angle_beta   90.00000000
_cell_angle_gamma   120.00000153
_symmetry_Int_Tables_number   1
_chemical_formula_structural   CeAsRh
_chemical_formula_sum   'Ce2 As2 Rh2'
_cell_volume   120.85699760
_cell_formula_units_Z   2
loop_
 _symmetry_equiv_pos_site_id
 _symmetry_equiv_pos_as_xyz
  1  'x, y, z'
loop_
 _atom_site_type_symbol
 _atom_site_label
 _atom_site_symmetry_multiplicity
 _atom_site_fract_x
 _atom_site_fract_y
 _atom_site_fract_z
 _atom_site_occupancy
  Ce  Ce0  1  -0.00000000  -0.00000000  0.50000000  1
  Ce  Ce1  1  -0.00000000  -0.00000000  -0.00000000  1
  As  As0  1  0.33333300  0.66666700  0.25000000  1
  As  As1  1  0.66666700  0.33333300  0.75000000  1
  Rh  Rh0  1  0.33333300  0.66666700  0.75000000  1
  Rh  Rh1  1  0.66666700  0.33333300  0.25000000  1
loop_
_geom_bond_atom_site_label_1
_geom_bond_atom_site_label_2
_geom_bond_distance
_geom_bond_site_symmetry_2
Ce0 Rh1 3.120194 1_455
Ce0 Rh0 3.120194 1_545
Ce0 Rh1 3.120197 1_445
Ce0 Rh1 3.120197 1_555
Ce0 Rh0 3.120197 1_445
Ce0 Rh0 3.120197 1_555
Ce1 Rh1 3.120194 1_455
Ce1 Rh0 3.120194 1_544
Ce1 Rh1 3.120197 1_445
Ce1 Rh1 3.120197 1_555
Ce1 Rh0 3.120197 1_554
Ce1 Rh0 3.120197 1_444
As0 Rh1 2.468777 1_455
As0 Rh1 2.468777 1_565
As0 Rh1 2.468784 1_555
As0 Ce1 3.120194 1_565
As0 Ce0 3.120194 1_565
As0 Ce0 3.120197 1_555
As0 Ce0 3.120197 1_665
As0 Ce1 3.120197 1_555
As0 Ce1 3.120197 1_665
As1 Rh0 2.468777 1_545
As1 Rh0 2.468777 1_655
As1 Rh0 2.468784 1_555
As1 Ce0 3.120194 1_655
As1 Ce1 3.120194 1_656
As1 Ce0 3.120197 1_555
As1 Ce1 3.120197 1_666
As1 Ce0 3.120197 1_665
As1 Ce1 3.120197 1_556
