# generated using pymatgen
data_Mg6CdFe
_symmetry_space_group_name_H-M   'P 1'
_cell_length_a   4.87995000
_cell_length_b   6.13477400
_cell_length_c   10.42813000
_cell_angle_alpha   90.00000000
_cell_angle_beta   90.00000000
_cell_angle_gamma   90.00000000
_symmetry_Int_Tables_number   1
_chemical_formula_structural   Mg6CdFe
_chemical_formula_sum   'Mg12 Cd2 Fe2'
_cell_volume   312.19099876
_cell_formula_units_Z   2
loop_
 _symmetry_equiv_pos_site_id
 _symmetry_equiv_pos_as_xyz
  1  'x, y, z'
loop_
 _atom_site_type_symbol
 _atom_site_label
 _atom_site_symmetry_multiplicity
 _atom_site_fract_x
 _atom_site_fract_y
 _atom_site_fract_z
 _atom_site_occupancy
  Mg  Mg0  1  0.00000000  0.25102300  0.08481000  1
  Mg  Mg1  1  0.00000000  0.74897700  0.08481000  1
  Mg  Mg2  1  0.00000000  0.50000000  0.83569300  1
  Mg  Mg3  1  0.50000000  0.23360900  0.90718600  1
  Mg  Mg4  1  0.50000000  0.76639100  0.90718600  1
  Mg  Mg5  1  0.50000000  0.50000000  0.66369000  1
  Mg  Mg6  1  0.00000000  0.75102300  0.58481000  1
  Mg  Mg7  1  0.00000000  0.24897700  0.58481000  1
  Mg  Mg8  1  0.00000000  0.00000000  0.33569300  1
  Mg  Mg9  1  0.50000000  0.73360900  0.40718600  1
  Mg  Mg10  1  0.50000000  0.26639100  0.40718600  1
  Mg  Mg11  1  0.50000000  0.00000000  0.16369000  1
  Cd  Cd0  1  0.50000000  0.50000000  0.16911700  1
  Cd  Cd1  1  0.50000000  0.00000000  0.66911700  1
  Fe  Fe0  1  0.00000000  0.50000000  0.34750900  1
  Fe  Fe1  1  0.00000000  0.00000000  0.84750900  1
loop_
_geom_bond_atom_site_label_1
_geom_bond_atom_site_label_2
_geom_bond_distance
_geom_bond_site_symmetry_2
Mg0 Mg11 3.000268 1_455
Mg0 Mg11 3.000268 1_555
Mg0 Mg2 3.013585 1_554
Mg0 Mg8 3.035823 1_555
Mg0 Mg1 3.054835 1_555
Mg0 Mg3 3.065266 1_554
Mg0 Mg3 3.065266 1_454
Mg0 Mg1 3.079939 1_545
Mg1 Mg11 3.000268 1_565
Mg1 Mg11 3.000268 1_465
Mg1 Mg2 3.013585 1_554
Mg1 Mg8 3.035823 1_565
Mg1 Mg4 3.065266 1_454
Mg1 Mg4 3.065266 1_554
Mg2 Mg5 3.028321 1_455
Mg2 Mg5 3.028321 1_555
Mg2 Mg4 3.029864 1_455
Mg2 Mg4 3.029864 1_555
Mg2 Mg3 3.029864 1_555
Mg2 Mg3 3.029864 1_455
Mg2 Mg7 3.035823 1_555
Mg2 Mg6 3.035823 1_555
Mg3 Mg4 2.866277 1_545
Mg3 Mg5 3.019660 1_555
Mg3 Mg4 3.268497 1_555
Mg4 Mg5 3.019660 1_555
Mg5 Mg6 3.000268 1_655
Mg5 Mg7 3.000268 1_555
Mg5 Mg7 3.000268 1_655
Mg5 Mg6 3.000268 1_555
Mg5 Mg9 3.034592 1_555
Mg6 Mg8 3.013585 1_565
Mg6 Mg7 3.054835 1_565
Mg6 Mg9 3.065266 1_455
Mg6 Mg9 3.065266 1_555
Mg6 Mg7 3.079939 1_555
Mg7 Mg8 3.013585 1_555
Mg8 Mg9 3.029864 1_545
Mg8 Mg9 3.029864 1_445
Mg10 Mg9 2.866277 1_555
Mg10 Mg11 3.019660 1_555
Mg10 Mg8 3.029864 1_555
Mg10 Mg8 3.029864 1_655
Mg10 Mg5 3.034592 1_555
Mg10 Mg7 3.065266 1_655
Mg10 Mg7 3.065266 1_555
Mg10 Mg9 3.268497 1_545
Mg11 Mg9 3.019660 1_545
Mg11 Mg8 3.028321 1_555
Mg11 Mg8 3.028321 1_655
Mg11 Mg3 3.034592 1_554
Mg11 Mg4 3.034592 1_544
Cd0 Mg9 2.866576 1_555
Cd0 Mg10 2.866576 1_555
Cd0 Mg0 3.009886 1_655
Cd0 Mg1 3.009886 1_655
Cd0 Mg1 3.009886 1_555
Cd0 Mg0 3.009886 1_555
Cd0 Mg11 3.067909 1_565
Cd0 Mg11 3.067909 1_555
Cd0 Fe0 3.068253 1_555
Cd0 Fe0 3.068253 1_655
Cd0 Mg3 3.183016 1_554
Cd0 Mg4 3.183016 1_554
Cd1 Mg4 2.866576 1_545
Cd1 Mg3 2.866576 1_555
Cd1 Mg6 3.009886 1_645
Cd1 Mg6 3.009886 1_545
Cd1 Mg7 3.009886 1_555
Cd1 Mg7 3.009886 1_655
Cd1 Mg5 3.067909 1_555
Cd1 Mg5 3.067909 1_545
Cd1 Fe1 3.068253 1_655
Cd1 Fe1 3.068253 1_555
Cd1 Mg9 3.183016 1_545
Cd1 Mg10 3.183016 1_555
Fe0 Mg9 2.897351 1_555
Fe0 Mg9 2.897351 1_455
Fe0 Mg10 2.897351 1_455
Fe0 Mg10 2.897351 1_555
Fe0 Mg6 2.914649 1_555
Fe0 Mg7 2.914649 1_555
Fe0 Mg8 3.069861 1_565
Fe0 Mg8 3.069861 1_555
Fe0 Mg0 3.136502 1_555
Fe0 Mg1 3.136502 1_555
Fe1 Mg4 2.897351 1_445
Fe1 Mg4 2.897351 1_545
Fe1 Mg3 2.897351 1_555
Fe1 Mg3 2.897351 1_455
Fe1 Mg1 2.914649 1_546
Fe1 Mg0 2.914649 1_556
Fe1 Mg2 3.069861 1_545
Fe1 Mg2 3.069861 1_555
Fe1 Mg6 3.136502 1_545
Fe1 Mg7 3.136502 1_555
