# generated using pymatgen
data_Gd6(Ga3Co)7
_symmetry_space_group_name_H-M   'P 1'
_cell_length_a   4.18898697
_cell_length_b   16.75068667
_cell_length_c   16.75068667
_cell_angle_alpha   90.00000000
_cell_angle_beta   90.00000000
_cell_angle_gamma   90.00000000
_symmetry_Int_Tables_number   1
_chemical_formula_structural   Gd6(Ga3Co)7
_chemical_formula_sum   'Gd12 Ga42 Co14'
_cell_volume   1175.36901988
_cell_formula_units_Z   2
loop_
 _symmetry_equiv_pos_site_id
 _symmetry_equiv_pos_as_xyz
  1  'x, y, z'
loop_
 _atom_site_type_symbol
 _atom_site_label
 _atom_site_symmetry_multiplicity
 _atom_site_fract_x
 _atom_site_fract_y
 _atom_site_fract_z
 _atom_site_occupancy
  Gd  Gd0  1  0.50000000  0.10787144  0.60787144  1
  Gd  Gd1  1  0.50000000  0.89212856  0.39212856  1
  Gd  Gd2  1  0.50000000  0.39212856  0.10787144  1
  Gd  Gd3  1  0.50000000  0.60787144  0.89212856  1
  Gd  Gd4  1  -0.00000000  0.65803231  0.58708791  1
  Gd  Gd5  1  0.00000000  0.34196769  0.41291209  1
  Gd  Gd6  1  -0.00000000  0.84196769  0.08708791  1
  Gd  Gd7  1  0.00000000  0.15803231  0.91291209  1
  Gd  Gd8  1  -0.00000000  0.58708791  0.34196769  1
  Gd  Gd9  1  0.00000000  0.41291209  0.65803231  1
  Gd  Gd10  1  0.00000000  0.08708791  0.15803231  1
  Gd  Gd11  1  -0.00000000  0.91291209  0.84196769  1
  Ga  Ga0  1  0.00000000  0.00000000  0.50000000  1
  Ga  Ga1  1  0.00000000  0.50000000  0.00000000  1
  Ga  Ga2  1  -0.00000000  0.32008872  0.82008872  1
  Ga  Ga3  1  0.00000000  0.67991128  0.17991128  1
  Ga  Ga4  1  -0.00000000  0.17991128  0.32008872  1
  Ga  Ga5  1  0.00000000  0.82008872  0.67991128  1
  Ga  Ga6  1  0.50000000  0.42617396  0.92617396  1
  Ga  Ga7  1  0.50000000  0.57382604  0.07382604  1
  Ga  Ga8  1  0.50000000  0.07382604  0.42617396  1
  Ga  Ga9  1  0.50000000  0.92617396  0.57382604  1
  Ga  Ga10  1  -0.00000000  0.57470011  0.75730060  1
  Ga  Ga11  1  0.00000000  0.42529989  0.24269940  1
  Ga  Ga12  1  -0.00000000  0.92529989  0.25730060  1
  Ga  Ga13  1  0.00000000  0.07470011  0.74269940  1
  Ga  Ga14  1  0.00000000  0.75730060  0.42529989  1
  Ga  Ga15  1  -0.00000000  0.24269940  0.57470011  1
  Ga  Ga16  1  -0.00000000  0.25730060  0.07470011  1
  Ga  Ga17  1  0.00000000  0.74269940  0.92529989  1
  Ga  Ga18  1  0.50000000  0.53191970  0.61085292  1
  Ga  Ga19  1  0.50000000  0.46808030  0.38914708  1
  Ga  Ga20  1  0.50000000  0.96808030  0.11085292  1
  Ga  Ga21  1  0.50000000  0.03191970  0.88914708  1
  Ga  Ga22  1  0.50000000  0.61085292  0.46808030  1
  Ga  Ga23  1  0.50000000  0.38914708  0.53191970  1
  Ga  Ga24  1  0.50000000  0.11085292  0.03191970  1
  Ga  Ga25  1  0.50000000  0.88914708  0.96808030  1
  Ga  Ga26  1  0.50000000  0.67948360  0.70974043  1
  Ga  Ga27  1  0.50000000  0.32051640  0.29025957  1
  Ga  Ga28  1  0.50000000  0.82051640  0.20974043  1
  Ga  Ga29  1  0.50000000  0.17948360  0.79025957  1
  Ga  Ga30  1  0.50000000  0.70974043  0.32051640  1
  Ga  Ga31  1  0.50000000  0.29025957  0.67948360  1
  Ga  Ga32  1  0.50000000  0.20974043  0.17948360  1
  Ga  Ga33  1  0.50000000  0.79025957  0.82051640  1
  Ga  Ga34  1  0.50000000  0.77207449  0.54358913  1
  Ga  Ga35  1  0.50000000  0.22792551  0.45641087  1
  Ga  Ga36  1  0.50000000  0.72792551  0.04358913  1
  Ga  Ga37  1  0.50000000  0.27207449  0.95641087  1
  Ga  Ga38  1  0.50000000  0.54358913  0.22792551  1
  Ga  Ga39  1  0.50000000  0.45641087  0.77207449  1
  Ga  Ga40  1  0.50000000  0.04358913  0.27207449  1
  Ga  Ga41  1  0.50000000  0.95641087  0.72792551  1
  Co  Co0  1  0.00000000  0.21846561  0.71846561  1
  Co  Co1  1  -0.00000000  0.78153439  0.28153439  1
  Co  Co2  1  0.00000000  0.28153439  0.21846561  1
  Co  Co3  1  -0.00000000  0.71846561  0.78153439  1
  Co  Co4  1  -0.00000000  0.96333003  0.64801352  1
  Co  Co5  1  0.00000000  0.03666997  0.35198648  1
  Co  Co6  1  -0.00000000  0.53666997  0.14801352  1
  Co  Co7  1  0.00000000  0.46333003  0.85198648  1
  Co  Co8  1  -0.00000000  0.64801352  0.03666997  1
  Co  Co9  1  0.00000000  0.35198648  0.96333003  1
  Co  Co10  1  0.00000000  0.14801352  0.46333003  1
  Co  Co11  1  -0.00000000  0.85198648  0.53666997  1
  Co  Co12  1  -0.00000000  0.50000000  0.50000000  1
  Co  Co13  1  -0.00000000  0.00000000  0.00000000  1
loop_
_geom_bond_atom_site_label_1
_geom_bond_atom_site_label_2
_geom_bond_distance
_geom_bond_site_symmetry_2
Ga0 Ga9 2.728634 1_445
Ga0 Ga9 2.728634 1_545
Ga0 Ga8 2.728634 1_555
Ga0 Ga8 2.728634 1_455
Ga0 Gd1 3.304062 1_445
Ga0 Gd1 3.304062 1_545
Ga0 Gd0 3.304062 1_455
Ga0 Gd0 3.304062 1_555
Ga1 Ga6 2.728634 1_554
Ga1 Ga6 2.728634 1_454
Ga1 Ga7 2.728634 1_555
Ga1 Ga7 2.728634 1_455
Ga1 Gd3 3.304062 1_454
Ga1 Gd3 3.304062 1_554
Ga1 Gd2 3.304062 1_555
Ga1 Gd2 3.304062 1_455
Ga2 Gd9 3.128321 1_555
Ga2 Gd7 3.128321 1_555
Ga3 Gd8 3.128321 1_555
Ga3 Gd6 3.128321 1_555
Ga4 Gd10 3.128321 1_555
Ga4 Gd5 3.128321 1_555
Ga5 Gd4 3.128321 1_555
Ga5 Gd11 3.128321 1_555
Ga6 Gd2 3.096525 1_556
Ga6 Gd3 3.096525 1_555
Ga7 Gd3 3.096525 1_554
Ga7 Gd2 3.096525 1_555
Ga8 Gd1 3.096525 1_545
Ga8 Gd0 3.096525 1_555
Ga9 Gd0 3.096525 1_565
Ga9 Gd1 3.096525 1_555
Ga10 Ga26 2.846452 1_455
Ga10 Ga26 2.846452 1_555
Ga10 Ga39 2.893820 1_555
Ga10 Ga39 2.893820 1_455
Ga10 Gd3 3.129902 1_455
Ga10 Gd3 3.129902 1_555
Ga10 Gd4 3.174536 1_555
Ga10 Gd9 3.179524 1_555
Ga11 Ga27 2.846452 1_455
Ga11 Ga27 2.846452 1_555
Ga11 Ga38 2.893820 1_555
Ga11 Ga38 2.893820 1_455
Ga11 Gd2 3.129902 1_455
Ga11 Gd2 3.129902 1_555
Ga11 Gd5 3.174536 1_555
Ga11 Gd8 3.179524 1_555
Ga12 Ga28 2.846452 1_455
Ga12 Ga28 2.846452 1_555
Ga12 Ga40 2.893820 1_565
Ga12 Ga40 2.893820 1_465
Ga12 Gd1 3.129902 1_455
Ga12 Gd1 3.129902 1_555
Ga12 Gd6 3.174536 1_555
Ga12 Gd10 3.179524 1_565
Ga13 Ga29 2.846452 1_455
Ga13 Ga29 2.846452 1_555
Ga13 Ga41 2.893820 1_445
Ga13 Ga41 2.893820 1_545
Ga13 Gd0 3.129902 1_455
Ga13 Gd0 3.129902 1_555
Ga13 Gd7 3.174536 1_555
Ga13 Gd11 3.179524 1_545
Ga14 Ga30 2.846452 1_555
Ga14 Ga30 2.846452 1_455
Ga14 Ga34 2.893820 1_555
Ga14 Ga34 2.893820 1_455
Ga14 Gd1 3.129902 1_455
Ga14 Gd1 3.129902 1_555
Ga14 Gd8 3.174536 1_555
Ga14 Gd4 3.179524 1_555
Ga15 Ga31 2.846452 1_555
Ga15 Ga31 2.846452 1_455
Ga15 Ga35 2.893820 1_555
Ga15 Ga35 2.893820 1_455
Ga15 Gd0 3.129902 1_455
Ga15 Gd0 3.129902 1_555
Ga15 Gd9 3.174536 1_555
Ga15 Gd5 3.179524 1_555
Ga16 Ga32 2.846452 1_455
Ga16 Ga32 2.846452 1_555
Ga16 Ga37 2.893820 1_554
Ga16 Ga37 2.893820 1_454
Ga16 Gd2 3.129902 1_455
Ga16 Gd2 3.129902 1_555
Ga16 Gd10 3.174536 1_555
Ga16 Gd7 3.179524 1_554
Ga17 Ga33 2.846452 1_455
Ga17 Ga33 2.846452 1_555
Ga17 Ga36 2.893820 1_456
Ga17 Ga36 2.893820 1_556
Ga17 Gd3 3.129902 1_455
Ga17 Gd3 3.129902 1_555
Ga17 Gd11 3.174536 1_555
Ga17 Gd6 3.179524 1_556
Ga18 Ga23 2.732698 1_555
Ga18 Ga22 2.732698 1_555
Ga18 Ga26 2.975492 1_555
Ga18 Ga39 2.982092 1_555
Ga18 Gd9 2.997555 1_655
Ga18 Gd9 2.997555 1_555
Ga18 Gd4 3.001318 1_655
Ga18 Gd4 3.001318 1_555
Ga19 Ga23 2.732698 1_555
Ga19 Ga22 2.732698 1_555
Ga19 Ga27 2.975492 1_555
Ga19 Ga38 2.982092 1_555
Ga19 Gd8 2.997555 1_655
Ga19 Gd8 2.997555 1_555
Ga19 Gd5 3.001318 1_555
Ga19 Gd5 3.001318 1_655
Ga20 Ga25 2.732698 1_554
Ga20 Ga24 2.732698 1_565
Ga20 Ga28 2.975492 1_555
Ga20 Ga40 2.982092 1_565
Ga20 Gd10 2.997555 1_665
Ga20 Gd10 2.997555 1_565
Ga20 Gd6 3.001318 1_655
Ga20 Gd6 3.001318 1_555
Ga21 Ga25 2.732698 1_545
Ga21 Ga24 2.732698 1_556
Ga21 Ga29 2.975492 1_555
Ga21 Ga41 2.982092 1_545
Ga21 Gd11 2.997555 1_545
Ga21 Gd11 2.997555 1_645
Ga21 Gd7 3.001318 1_655
Ga21 Gd7 3.001318 1_555
Ga22 Ga30 2.975492 1_555
Ga22 Ga34 2.982092 1_555
Ga22 Gd4 2.997555 1_655
Ga22 Gd4 2.997555 1_555
Ga22 Gd8 3.001318 1_555
Ga22 Gd8 3.001318 1_655
Ga23 Ga31 2.975492 1_555
Ga23 Ga35 2.982092 1_555
Ga23 Gd5 2.997555 1_555
Ga23 Gd5 2.997555 1_655
Ga23 Gd9 3.001318 1_555
Ga23 Gd9 3.001318 1_655
Ga24 Ga32 2.975492 1_555
Ga24 Ga37 2.982092 1_554
Ga24 Gd7 2.997555 1_654
Ga24 Gd7 2.997555 1_554
Ga24 Gd10 3.001318 1_555
Ga24 Gd10 3.001318 1_655
Ga25 Ga33 2.975492 1_555
Ga25 Ga36 2.982092 1_556
Ga25 Gd6 2.997555 1_656
Ga25 Gd6 2.997555 1_556
Ga25 Gd11 3.001318 1_555
Ga25 Gd11 3.001318 1_655
Ga26 Ga33 2.624177 1_555
Ga26 Gd4 2.955849 1_555
Ga26 Gd4 2.955849 1_655
Ga26 Gd3 3.282183 1_555
Ga27 Ga32 2.624177 1_555
Ga27 Gd5 2.955849 1_555
Ga27 Gd5 2.955849 1_655
Ga27 Gd2 3.282183 1_555
Ga28 Ga30 2.624177 1_555
Ga28 Gd6 2.955849 1_655
Ga28 Gd6 2.955849 1_555
Ga28 Gd1 3.282183 1_555
Ga29 Ga31 2.624177 1_555
Ga29 Gd7 2.955849 1_655
Ga29 Gd7 2.955849 1_555
Ga29 Gd0 3.282183 1_555
Ga30 Gd8 2.955849 1_655
Ga30 Gd8 2.955849 1_555
Ga30 Gd1 3.282183 1_555
Ga31 Gd9 2.955849 1_555
Ga31 Gd9 2.955849 1_655
Ga31 Gd0 3.282183 1_555
Ga32 Gd10 2.955849 1_655
Ga32 Gd10 2.955849 1_555
Ga32 Gd2 3.282183 1_555
Ga33 Gd11 2.955849 1_555
Ga33 Gd11 2.955849 1_655
Ga33 Gd3 3.282183 1_555
Ga34 Ga9 2.630493 1_555
Ga34 Gd4 2.926944 1_555
Ga34 Gd4 2.926944 1_655
Ga34 Gd1 3.237405 1_555
Ga35 Ga8 2.630493 1_555
Ga35 Gd5 2.926944 1_555
Ga35 Gd5 2.926944 1_655
Ga35 Gd0 3.237405 1_555
Ga36 Ga7 2.630493 1_555
Ga36 Gd6 2.926944 1_555
Ga36 Gd6 2.926944 1_655
Ga36 Gd3 3.237405 1_554
Ga37 Ga6 2.630493 1_555
Ga37 Gd7 2.926944 1_555
Ga37 Gd7 2.926944 1_655
Ga37 Gd2 3.237405 1_556
Ga38 Ga7 2.630493 1_555
Ga38 Gd8 2.926944 1_655
Ga38 Gd8 2.926944 1_555
Ga38 Gd2 3.237405 1_555
Ga39 Ga6 2.630493 1_555
Ga39 Gd9 2.926944 1_555
Ga39 Gd9 2.926944 1_655
Ga39 Gd3 3.237405 1_555
Ga40 Ga8 2.630493 1_555
Ga40 Gd10 2.926944 1_555
Ga40 Gd10 2.926944 1_655
Ga40 Gd1 3.237405 1_545
Ga41 Ga9 2.630493 1_555
Ga41 Gd11 2.926944 1_655
Ga41 Gd11 2.926944 1_555
Ga41 Gd0 3.237405 1_565
Co0 Ga2 2.407355 1_555
Co0 Ga15 2.442144 1_555
Co0 Ga13 2.442144 1_555
Co0 Ga31 2.501904 1_455
Co0 Ga31 2.501904 1_555
Co0 Ga29 2.501904 1_555
Co0 Ga29 2.501904 1_455
Co0 Gd0 3.354195 1_455
Co0 Gd0 3.354195 1_555
Co1 Ga3 2.407355 1_555
Co1 Ga14 2.442144 1_555
Co1 Ga12 2.442144 1_555
Co1 Ga28 2.501904 1_555
Co1 Ga28 2.501904 1_455
Co1 Ga30 2.501904 1_555
Co1 Ga30 2.501904 1_455
Co1 Gd1 3.354195 1_455
Co1 Gd1 3.354195 1_555
Co2 Ga4 2.407355 1_555
Co2 Ga11 2.442144 1_555
Co2 Ga16 2.442144 1_555
Co2 Ga27 2.501904 1_555
Co2 Ga32 2.501904 1_455
Co2 Ga32 2.501904 1_555
Co2 Ga27 2.501904 1_455
Co2 Gd2 3.354195 1_455
Co2 Gd2 3.354195 1_555
Co3 Ga5 2.407355 1_555
Co3 Ga10 2.442144 1_555
Co3 Ga17 2.442144 1_555
Co3 Ga33 2.501904 1_555
Co3 Ga33 2.501904 1_455
Co3 Ga26 2.501904 1_555
Co3 Ga26 2.501904 1_455
Co3 Gd3 3.354195 1_455
Co3 Gd3 3.354195 1_555
Co4 Ga13 2.448622 1_565
Co4 Ga5 2.458162 1_555
Co4 Ga41 2.488400 1_555
Co4 Ga41 2.488400 1_455
Co4 Ga9 2.513673 1_555
Co4 Ga9 2.513673 1_455
Co4 Ga0 2.554284 1_565
Co4 Gd0 3.271252 1_565
Co4 Gd0 3.271252 1_465
Co5 Ga12 2.448622 1_545
Co5 Ga4 2.458162 1_555
Co5 Ga40 2.488400 1_455
Co5 Ga40 2.488400 1_555
Co5 Ga8 2.513673 1_455
Co5 Ga8 2.513673 1_555
Co5 Ga0 2.554284 1_555
Co5 Gd1 3.271252 1_545
Co5 Gd1 3.271252 1_445
Co6 Ga11 2.448622 1_555
Co6 Ga3 2.458162 1_555
Co6 Ga38 2.488400 1_555
Co6 Ga38 2.488400 1_455
Co6 Ga7 2.513673 1_555
Co6 Ga7 2.513673 1_455
Co6 Ga1 2.554284 1_555
Co6 Co8 2.637623 1_555
Co6 Gd2 3.271252 1_455
Co6 Gd2 3.271252 1_555
Co7 Ga10 2.448622 1_555
Co7 Ga2 2.458162 1_555
Co7 Ga39 2.488400 1_555
Co7 Ga39 2.488400 1_455
Co7 Ga6 2.513673 1_455
Co7 Ga6 2.513673 1_555
Co7 Ga1 2.554284 1_556
Co7 Co9 2.637623 1_555
Co7 Gd3 3.271252 1_455
Co7 Gd3 3.271252 1_555
Co8 Ga17 2.448622 1_554
Co8 Ga3 2.458162 1_555
Co8 Ga36 2.488400 1_455
Co8 Ga36 2.488400 1_555
Co8 Ga7 2.513673 1_555
Co8 Ga7 2.513673 1_455
Co8 Ga1 2.554284 1_555
Co8 Gd3 3.271252 1_454
Co8 Gd3 3.271252 1_554
Co9 Ga16 2.448622 1_556
Co9 Ga2 2.458162 1_555
Co9 Ga37 2.488400 1_555
Co9 Ga37 2.488400 1_455
Co9 Ga6 2.513673 1_455
Co9 Ga6 2.513673 1_555
Co9 Ga1 2.554284 1_556
Co9 Gd2 3.271252 1_456
Co9 Gd2 3.271252 1_556
Co10 Ga15 2.448622 1_555
Co10 Ga4 2.458162 1_555
Co10 Ga35 2.488400 1_455
Co10 Ga35 2.488400 1_555
Co10 Ga8 2.513673 1_455
Co10 Ga8 2.513673 1_555
Co10 Ga0 2.554284 1_555
Co10 Co5 2.637623 1_555
Co10 Gd0 3.271252 1_455
Co10 Gd0 3.271252 1_555
Co11 Ga14 2.448622 1_555
Co11 Ga5 2.458162 1_555
Co11 Ga34 2.488400 1_555
Co11 Ga34 2.488400 1_455
Co11 Ga9 2.513673 1_455
Co11 Ga9 2.513673 1_555
Co11 Ga0 2.554284 1_565
Co11 Co4 2.637623 1_555
Co11 Gd1 3.271252 1_455
Co11 Gd1 3.271252 1_555
Co12 Ga19 2.849688 1_555
Co12 Ga19 2.849688 1_455
Co12 Ga23 2.849688 1_455
Co12 Ga23 2.849688 1_555
Co12 Ga18 2.849688 1_555
Co12 Ga22 2.849688 1_555
Co12 Ga18 2.849688 1_455
Co12 Ga22 2.849688 1_455
Co12 Gd5 3.022490 1_555
Co12 Gd8 3.022490 1_555
Co12 Gd9 3.022490 1_555
Co12 Gd4 3.022490 1_555
Co13 Ga21 2.849688 1_454
Co13 Ga24 2.849688 1_555
Co13 Ga24 2.849688 1_455
Co13 Ga21 2.849688 1_554
Co13 Ga20 2.849688 1_445
Co13 Ga25 2.849688 1_444
Co13 Ga25 2.849688 1_544
Co13 Ga20 2.849688 1_545
Co13 Gd11 3.022490 1_544
Co13 Gd7 3.022490 1_554
Co13 Gd6 3.022490 1_545
Co13 Gd10 3.022490 1_555
