# generated using pymatgen
data_GeH6C2(SO3)2
_symmetry_space_group_name_H-M   'P 1'
_cell_length_a   7.66291300
_cell_length_b   7.66291300
_cell_length_c   14.52981900
_cell_angle_alpha   90.00000000
_cell_angle_beta   90.00000000
_cell_angle_gamma   90.00000000
_symmetry_Int_Tables_number   1
_chemical_formula_structural   GeH6C2(SO3)2
_chemical_formula_sum   'Ge4 H24 C8 S8 O24'
_cell_volume   853.19439557
_cell_formula_units_Z   4
loop_
 _symmetry_equiv_pos_site_id
 _symmetry_equiv_pos_as_xyz
  1  'x, y, z'
loop_
 _atom_site_type_symbol
 _atom_site_label
 _atom_site_symmetry_multiplicity
 _atom_site_fract_x
 _atom_site_fract_y
 _atom_site_fract_z
 _atom_site_occupancy
  Ge  Ge0  1  0.31366100  0.68633900  0.75000000  1
  Ge  Ge1  1  0.68633900  0.31366100  0.25000000  1
  Ge  Ge2  1  0.18633900  0.18633900  0.50000000  1
  Ge  Ge3  1  0.81366100  0.81366100  0.00000000  1
  H  H0  1  0.29697200  0.10094400  0.82891000  1
  H  H1  1  0.70302800  0.89905600  0.32891000  1
  H  H2  1  0.60094400  0.20302800  0.57891000  1
  H  H3  1  0.39905600  0.79697200  0.07891000  1
  H  H4  1  0.89905600  0.70302800  0.67109000  1
  H  H5  1  0.10094400  0.29697200  0.17109000  1
  H  H6  1  0.20302800  0.60094400  0.42109000  1
  H  H7  1  0.79697200  0.39905600  0.92109000  1
  H  H8  1  0.06399100  0.10496300  0.84821500  1
  H  H9  1  0.93600900  0.89503700  0.34821500  1
  H  H10  1  0.60496300  0.43600900  0.59821500  1
  H  H11  1  0.39503700  0.56399100  0.09821500  1
  H  H12  1  0.89503700  0.93600900  0.65178500  1
  H  H13  1  0.10496300  0.06399100  0.15178500  1
  H  H14  1  0.43600900  0.60496300  0.40178500  1
  H  H15  1  0.56399100  0.39503700  0.90178500  1
  H  H16  1  0.19964800  0.26842100  0.90057000  1
  H  H17  1  0.80035200  0.73157900  0.40057000  1
  H  H18  1  0.76842100  0.30035200  0.65057000  1
  H  H19  1  0.23157900  0.69964800  0.15057000  1
  H  H20  1  0.73157900  0.80035200  0.59943000  1
  H  H21  1  0.26842100  0.19964800  0.09943000  1
  H  H22  1  0.30035200  0.76842100  0.34943000  1
  H  H23  1  0.69964800  0.23157900  0.84943000  1
  C  C0  1  0.18266300  0.18341300  0.84066000  1
  C  C1  1  0.81733700  0.81658700  0.34066000  1
  C  C2  1  0.68341300  0.31733700  0.59066000  1
  C  C3  1  0.31658700  0.68266300  0.09066000  1
  C  C4  1  0.81658700  0.81733700  0.65934000  1
  C  C5  1  0.18341300  0.18266300  0.15934000  1
  C  C6  1  0.31733700  0.68341300  0.40934000  1
  C  C7  1  0.68266300  0.31658700  0.90934000  1
  S  S0  1  0.15227800  0.31654500  0.74295000  1
  S  S1  1  0.84772200  0.68345500  0.24295000  1
  S  S2  1  0.81654500  0.34772200  0.49295000  1
  S  S3  1  0.18345500  0.65227800  0.99295000  1
  S  S4  1  0.68345500  0.84772200  0.75705000  1
  S  S5  1  0.31654500  0.15227800  0.25705000  1
  S  S6  1  0.34772200  0.81654500  0.50705000  1
  S  S7  1  0.65227800  0.18345500  0.00705000  1
  O  O0  1  0.31999000  0.42701800  0.73724800  1
  O  O1  1  0.68001000  0.57298200  0.23724800  1
  O  O2  1  0.92701800  0.18001000  0.48724800  1
  O  O3  1  0.07298200  0.81999000  0.98724800  1
  O  O4  1  0.57298200  0.68001000  0.76275200  1
  O  O5  1  0.42701800  0.31999000  0.26275200  1
  O  O6  1  0.18001000  0.92701800  0.51275200  1
  O  O7  1  0.81999000  0.07298200  0.01275200  1
  O  O8  1  0.14495000  0.19747000  0.66330100  1
  O  O9  1  0.85505000  0.80253000  0.16330100  1
  O  O10  1  0.69747000  0.35505000  0.41330100  1
  O  O11  1  0.30253000  0.64495000  0.91330100  1
  O  O12  1  0.80253000  0.85505000  0.83669900  1
  O  O13  1  0.19747000  0.14495000  0.33669900  1
  O  O14  1  0.35505000  0.69747000  0.58669900  1
  O  O15  1  0.64495000  0.30253000  0.08669900  1
  O  O16  1  0.99990000  0.42577800  0.75642400  1
  O  O17  1  0.00010000  0.57422200  0.25642400  1
  O  O18  1  0.92577800  0.50010000  0.50642400  1
  O  O19  1  0.07422200  0.49990000  0.00642400  1
  O  O20  1  0.57422200  0.00010000  0.74357600  1
  O  O21  1  0.42577800  0.99990000  0.24357600  1
  O  O22  1  0.50010000  0.92577800  0.49357600  1
  O  O23  1  0.49990000  0.07422200  0.99357600  1
loop_
_geom_bond_atom_site_label_1
_geom_bond_atom_site_label_2
_geom_bond_distance
_geom_bond_site_symmetry_2
Ge0 O0 1.996363 1_555
Ge0 O4 1.996363 1_555
Ge0 O11 2.395356 1_555
Ge0 O14 2.395356 1_555
Ge1 O5 1.996363 1_555
Ge1 O1 1.996363 1_555
Ge1 O15 2.395356 1_555
Ge1 O10 2.395356 1_555
Ge2 O6 1.996363 1_545
Ge2 O2 1.996363 1_455
Ge2 O8 2.395356 1_555
Ge2 O13 2.395356 1_555
Ge3 O7 1.996363 1_565
Ge3 O3 1.996363 1_654
Ge3 O9 2.395356 1_555
Ge3 O12 2.395356 1_554
C0 H0 1.093518 1_555
C0 H16 1.094994 1_555
C0 H8 1.095627 1_555
C0 S0 1.763675 1_555
C1 H1 1.093518 1_555
C1 H17 1.094994 1_555
C1 H9 1.095627 1_555
C1 S1 1.763675 1_555
C2 H2 1.093518 1_555
C2 H18 1.094994 1_555
C2 H10 1.095627 1_555
C2 S2 1.763675 1_555
C3 H3 1.093518 1_555
C3 H19 1.094994 1_555
C3 H11 1.095627 1_555
C3 S3 1.763675 1_554
C4 H4 1.093518 1_555
C4 H20 1.094994 1_555
C4 H12 1.095627 1_555
C4 S4 1.763675 1_555
C5 H5 1.093518 1_555
C5 H21 1.094994 1_555
C5 H13 1.095627 1_555
C5 S5 1.763675 1_555
C6 H6 1.093518 1_555
C6 H22 1.094994 1_555
C6 H14 1.095627 1_555
C6 S6 1.763675 1_555
C7 H7 1.093518 1_555
C7 H23 1.094994 1_555
C7 H15 1.095627 1_555
C7 S7 1.763675 1_556
O0 S0 1.541151 1_555
O1 S1 1.541151 1_555
O2 S2 1.541151 1_555
O3 S3 1.541151 1_555
O4 S4 1.541151 1_555
O5 S5 1.541151 1_555
O6 S6 1.541151 1_555
O7 S7 1.541151 1_555
O8 S0 1.474805 1_555
O9 S1 1.474805 1_555
O10 S2 1.474805 1_555
O11 S3 1.474805 1_555
O12 S4 1.474805 1_555
O13 S5 1.474805 1_555
O14 S6 1.474805 1_555
O15 S7 1.474805 1_555
O16 S0 1.449965 1_655
O17 S1 1.449965 1_455
O18 S2 1.449965 1_555
O19 S3 1.449965 1_554
O20 S4 1.449965 1_545
O21 S5 1.449965 1_565
O22 S6 1.449965 1_555
O23 S7 1.449965 1_556
