# generated using pymatgen
data_SmErNi2
_symmetry_space_group_name_H-M   'P 1'
_cell_length_a   5.41548622
_cell_length_b   5.41548622
_cell_length_c   4.20505749
_cell_angle_alpha   90.00000000
_cell_angle_beta   90.00000000
_cell_angle_gamma   139.73553286
_symmetry_Int_Tables_number   1
_chemical_formula_structural   SmErNi2
_chemical_formula_sum   'Sm1 Er1 Ni2'
_cell_volume   79.70621893
_cell_formula_units_Z   1
loop_
 _symmetry_equiv_pos_site_id
 _symmetry_equiv_pos_as_xyz
  1  'x, y, z'
loop_
 _atom_site_type_symbol
 _atom_site_label
 _atom_site_symmetry_multiplicity
 _atom_site_fract_x
 _atom_site_fract_y
 _atom_site_fract_z
 _atom_site_occupancy
  Sm  Sm0  1  0.85879741  0.14120259  0.50000000  1
  Er  Er0  1  0.13633174  0.86366826  -0.00000000  1
  Ni  Ni0  1  0.43204661  0.56795339  0.00000000  1
  Ni  Ni1  1  0.57282325  0.42717675  0.50000000  1
loop_
_geom_bond_atom_site_label_1
_geom_bond_atom_site_label_2
_geom_bond_distance
_geom_bond_site_symmetry_2
Er0 Ni0 2.791049 1_565
Er0 Ni0 2.791049 1_455
Er0 Ni1 2.883057 1_454
Er0 Ni1 2.883057 1_565
Er0 Ni1 2.883057 1_564
Er0 Ni1 2.883057 1_455
Er0 Ni0 3.007186 1_555
Ni0 Ni1 2.543633 1_554
Ni0 Ni1 2.543633 1_555
Ni0 Sm0 2.906850 1_454
Ni0 Sm0 2.906850 1_455
Ni0 Sm0 2.906850 1_565
Ni0 Sm0 2.906850 1_564
Ni1 Sm0 2.865541 1_565
Ni1 Sm0 2.865541 1_455
Ni1 Sm0 2.908131 1_555
