# generated using pymatgen
data_BaCeEuSbO6
_symmetry_space_group_name_H-M   'P 1'
_cell_length_a   6.10134372
_cell_length_b   6.10134372
_cell_length_c   6.10134372
_cell_angle_alpha   60.00000000
_cell_angle_beta   60.00000000
_cell_angle_gamma   60.00000000
_symmetry_Int_Tables_number   1
_chemical_formula_structural   BaCeEuSbO6
_chemical_formula_sum   'Ba1 Ce1 Eu1 Sb1 O6'
_cell_volume   160.60589344
_cell_formula_units_Z   1
loop_
 _symmetry_equiv_pos_site_id
 _symmetry_equiv_pos_as_xyz
  1  'x, y, z'
loop_
 _atom_site_type_symbol
 _atom_site_label
 _atom_site_symmetry_multiplicity
 _atom_site_fract_x
 _atom_site_fract_y
 _atom_site_fract_z
 _atom_site_occupancy
  Ba  Ba0  1  0.75000000  0.75000000  0.75000000  1
  Ce  Ce0  1  -0.00000000  0.00000000  0.00000000  1
  Eu  Eu0  1  0.25000000  0.25000000  0.25000000  1
  Sb  Sb0  1  0.50000000  0.50000000  0.50000000  1
  O  O0  1  0.73358761  0.26641239  0.26641239  1
  O  O1  1  0.26641239  0.73358761  0.73358761  1
  O  O2  1  0.73358761  0.26641239  0.73358761  1
  O  O3  1  0.26641239  0.73358761  0.26641239  1
  O  O4  1  0.73358761  0.73358761  0.26641239  1
  O  O5  1  0.26641239  0.26641239  0.73358761  1
loop_
_geom_bond_atom_site_label_1
_geom_bond_atom_site_label_2
_geom_bond_distance
_geom_bond_site_symmetry_2
Ba0 O1 3.053957 1_655
Ba0 O2 3.053957 1_565
Ba0 O4 3.053957 1_556
Ba0 O5 3.053957 1_565
Ba0 O5 3.053957 1_655
Ba0 O3 3.053957 1_556
Ba0 O2 3.053957 1_555
Ba0 O3 3.053957 1_655
Ba0 O0 3.053957 1_556
Ba0 O1 3.053957 1_555
Ba0 O0 3.053957 1_565
Ba0 O4 3.053957 1_555
Ce0 O3 2.298767 1_545
Ce0 O5 2.298767 1_554
Ce0 O0 2.298767 1_455
Ce0 O4 2.298767 1_445
Ce0 O1 2.298767 1_544
Ce0 O2 2.298767 1_454
Eu0 O5 3.053957 1_555
Eu0 O2 3.053957 1_455
Eu0 O3 3.053957 1_555
Eu0 O1 3.053957 1_545
Eu0 O0 3.053957 1_455
Eu0 O4 3.053957 1_545
Eu0 O0 3.053957 1_555
Eu0 O4 3.053957 1_455
Eu0 O1 3.053957 1_554
Eu0 O3 3.053957 1_545
Eu0 O2 3.053957 1_554
Eu0 O5 3.053957 1_554
O0 Sb0 2.015535 1_555
O1 Sb0 2.015535 1_555
O2 Sb0 2.015535 1_555
O3 Sb0 2.015535 1_555
O4 Sb0 2.015535 1_555
O5 Sb0 2.015535 1_555
