# generated using pymatgen
data_BaCaLaBiO6
_symmetry_space_group_name_H-M   'P 1'
_cell_length_a   8.62373333
_cell_length_b   8.64770750
_cell_length_c   8.58918866
_cell_angle_alpha   90.00000000
_cell_angle_beta   90.00000000
_cell_angle_gamma   90.00000000
_symmetry_Int_Tables_number   1
_chemical_formula_structural   BaCaLaBiO6
_chemical_formula_sum   'Ba4 Ca4 La4 Bi4 O24'
_cell_volume   640.54323987
_cell_formula_units_Z   4
loop_
 _symmetry_equiv_pos_site_id
 _symmetry_equiv_pos_as_xyz
  1  'x, y, z'
loop_
 _atom_site_type_symbol
 _atom_site_label
 _atom_site_symmetry_multiplicity
 _atom_site_fract_x
 _atom_site_fract_y
 _atom_site_fract_z
 _atom_site_occupancy
  Ba  Ba0  1  -0.00000000  -0.00000000  -0.00000000  1
  Ba  Ba1  1  0.50000000  0.50000000  0.50000000  1
  Ba  Ba2  1  0.50000000  0.50000000  -0.00000000  1
  Ba  Ba3  1  -0.00000000  0.00000000  0.50000000  1
  Ca  Ca0  1  0.25000000  0.25000000  0.25000000  1
  Ca  Ca1  1  0.75000000  0.75000000  0.25000000  1
  Ca  Ca2  1  0.75000000  0.25000000  0.75000000  1
  Ca  Ca3  1  0.25000000  0.75000000  0.75000000  1
  La  La0  1  -0.00000000  0.50000000  0.50000000  1
  La  La1  1  0.50000000  0.00000000  0.50000000  1
  La  La2  1  0.50000000  -0.00000000  -0.00000000  1
  La  La3  1  -0.00000000  0.50000000  -0.00000000  1
  Bi  Bi0  1  0.75000000  0.75000000  0.75000000  1
  Bi  Bi1  1  0.25000000  0.25000000  0.75000000  1
  Bi  Bi2  1  0.25000000  0.75000000  0.25000000  1
  Bi  Bi3  1  0.75000000  0.25000000  0.25000000  1
  O  O0  1  0.99050479  0.22467541  0.28658128  1
  O  O1  1  0.00949521  0.77532459  0.28658128  1
  O  O2  1  0.00949521  0.22467541  0.71341872  1
  O  O3  1  0.99050479  0.77532459  0.71341872  1
  O  O4  1  0.28866671  0.98943797  0.19015239  1
  O  O5  1  0.28866671  0.01056203  0.80984761  1
  O  O6  1  0.71133329  0.01056203  0.19015239  1
  O  O7  1  0.71133329  0.98943797  0.80984761  1
  O  O8  1  0.20134971  0.30623958  0.98876502  1
  O  O9  1  0.79865029  0.30623958  0.01123498  1
  O  O10  1  0.20134971  0.69376042  0.01123498  1
  O  O11  1  0.79865029  0.69376042  0.98876502  1
  O  O12  1  0.50949521  0.27532459  0.21341872  1
  O  O13  1  0.49050479  0.72467541  0.21341872  1
  O  O14  1  0.49050479  0.27532459  0.78658128  1
  O  O15  1  0.50949521  0.72467541  0.78658128  1
  O  O16  1  0.21133329  0.51056203  0.30984761  1
  O  O17  1  0.21133329  0.48943797  0.69015239  1
  O  O18  1  0.78866671  0.48943797  0.30984761  1
  O  O19  1  0.78866671  0.51056203  0.69015239  1
  O  O20  1  0.29865029  0.19376042  0.51123498  1
  O  O21  1  0.70134971  0.19376042  0.48876502  1
  O  O22  1  0.29865029  0.80623958  0.48876502  1
  O  O23  1  0.70134971  0.80623958  0.51123498  1
loop_
_geom_bond_atom_site_label_1
_geom_bond_atom_site_label_2
_geom_bond_distance
_geom_bond_site_symmetry_2
Ba0 O5 2.978741 1_554
Ba0 O7 2.978741 1_444
Ba0 O6 2.978741 1_455
Ba0 O4 2.978741 1_545
Ba0 O0 3.136982 1_455
Ba0 O1 3.136982 1_545
Ba0 O2 3.136982 1_554
Ba0 O3 3.136982 1_444
Ba0 O11 3.168231 1_444
Ba0 O10 3.168231 1_545
Ba0 O9 3.168231 1_455
Ba0 O8 3.168231 1_554
Ba1 O19 2.978741 1_555
Ba1 O17 2.978741 1_555
Ba1 O18 2.978741 1_555
Ba1 O16 2.978741 1_555
Ba1 O14 3.136982 1_555
Ba1 O15 3.136982 1_555
Ba1 O13 3.136982 1_555
Ba1 O12 3.136982 1_555
Ba1 O22 3.168231 1_555
Ba1 O23 3.168231 1_555
Ba1 O21 3.168231 1_555
Ba1 O20 3.168231 1_555
Ba2 O15 2.672434 1_554
Ba2 O14 2.672434 1_554
Ba2 O12 2.672434 1_555
Ba2 O13 2.672434 1_555
Ba2 O9 3.074084 1_555
Ba2 O8 3.074084 1_554
Ba2 O10 3.074084 1_555
Ba2 O11 3.074084 1_554
Ba3 O3 2.672434 1_445
Ba3 O2 2.672434 1_555
Ba3 O1 2.672434 1_545
Ba3 O0 2.672434 1_455
Ba3 O21 3.074084 1_455
Ba3 O20 3.074084 1_555
Ba3 O23 3.074084 1_445
Ba3 O22 3.074084 1_545
Ca0 O12 2.270355 1_555
Ca0 O0 2.270355 1_455
Ca0 O20 2.333918 1_555
Ca0 O8 2.333918 1_554
Ca0 O4 2.335087 1_545
Ca0 O16 2.335087 1_555
Ca1 O13 2.270355 1_555
Ca1 O1 2.270355 1_655
Ca1 O11 2.333918 1_554
Ca1 O23 2.333918 1_555
Ca1 O6 2.335087 1_565
Ca1 O18 2.335087 1_555
Ca2 O14 2.270355 1_555
Ca2 O2 2.270355 1_655
Ca2 O21 2.333918 1_555
Ca2 O9 2.333918 1_556
Ca2 O7 2.335087 1_545
Ca2 O19 2.335087 1_555
Ca3 O15 2.270355 1_555
Ca3 O3 2.270355 1_455
Ca3 O22 2.333918 1_555
Ca3 O10 2.333918 1_556
Ca3 O5 2.335087 1_565
Ca3 O17 2.335087 1_555
La0 O19 2.448939 1_455
La0 O17 2.448939 1_555
La0 O16 2.448939 1_555
La0 O18 2.448939 1_455
La0 O2 3.005952 1_555
La0 O1 3.005952 1_555
La0 O3 3.005952 1_455
La0 O0 3.005952 1_455
La1 O21 2.414939 1_555
La1 O20 2.414939 1_555
La1 O23 2.414939 1_545
La1 O22 2.414939 1_545
La2 O5 2.448939 1_554
La2 O7 2.448939 1_544
La2 O6 2.448939 1_555
La2 O4 2.448939 1_545
La2 O15 3.005952 1_544
La2 O14 3.005952 1_554
La2 O12 3.005952 1_555
La2 O13 3.005952 1_545
La3 O9 2.414939 1_455
La3 O8 2.414939 1_554
La3 O10 2.414939 1_555
La3 O11 2.414939 1_454
Bi0 O15 2.109115 1_555
Bi0 O3 2.109115 1_555
Bi0 O11 2.149028 1_555
Bi0 O23 2.149028 1_555
Bi0 O7 2.159345 1_555
Bi0 O19 2.159345 1_555
Bi1 O14 2.109115 1_555
Bi1 O2 2.109115 1_555
Bi1 O8 2.149028 1_555
Bi1 O20 2.149028 1_555
Bi1 O5 2.159345 1_555
Bi1 O17 2.159345 1_555
Bi2 O1 2.109115 1_555
Bi2 O13 2.109115 1_555
Bi2 O22 2.149028 1_555
Bi2 O10 2.149028 1_555
Bi2 O16 2.159345 1_555
Bi2 O4 2.159345 1_555
Bi3 O0 2.109115 1_555
Bi3 O12 2.109115 1_555
Bi3 O9 2.149028 1_555
Bi3 O21 2.149028 1_555
Bi3 O18 2.159345 1_555
Bi3 O6 2.159345 1_555
