# generated using pymatgen
data_Li9Mn2Co5O16
_symmetry_space_group_name_H-M   'P 1'
_cell_length_a   4.97334500
_cell_length_b   5.87696530
_cell_length_c   10.14895959
_cell_angle_alpha   105.09794766
_cell_angle_beta   99.77435573
_cell_angle_gamma   91.32452890
_symmetry_Int_Tables_number   1
_chemical_formula_structural   Li9Mn2Co5O16
_chemical_formula_sum   'Li9 Mn2 Co5 O16'
_cell_volume   281.53130452
_cell_formula_units_Z   1
loop_
 _symmetry_equiv_pos_site_id
 _symmetry_equiv_pos_as_xyz
  1  'x, y, z'
loop_
 _atom_site_type_symbol
 _atom_site_label
 _atom_site_symmetry_multiplicity
 _atom_site_fract_x
 _atom_site_fract_y
 _atom_site_fract_z
 _atom_site_occupancy
  Li  Li0  1  0.25357200  0.62404200  0.74204300  1
  Li  Li1  1  0.25717900  0.13865800  0.26532900  1
  Li  Li2  1  0.74019200  0.37281600  0.73392300  1
  Li  Li3  1  0.75065900  0.88107200  0.25779300  1
  Li  Li4  1  0.24934100  0.11892800  0.74220700  1
  Li  Li5  1  0.25980800  0.62718400  0.26607700  1
  Li  Li6  1  0.74282100  0.86134200  0.73467100  1
  Li  Li7  1  0.74642800  0.37595800  0.25795700  1
  Li  Li8  1  0.50000000  0.50000000  0.50000000  1
  Mn  Mn0  1  0.00022600  0.75035800  0.99954600  1
  Mn  Mn1  1  0.99977400  0.24964200  0.00045400  1
  Co  Co0  1  0.99704000  0.25585300  0.49949200  1
  Co  Co1  1  0.50000000  0.50000000  0.00000000  1
  Co  Co2  1  0.50000000  0.00000000  0.50000000  1
  Co  Co3  1  0.00296000  0.74414700  0.50050800  1
  Co  Co4  1  0.50000000  0.00000000  0.00000000  1
  O  O0  1  0.13652600  0.93425700  0.88749200  1
  O  O1  1  0.10724800  0.43388500  0.38049800  1
  O  O2  1  0.62152700  0.70401600  0.89107300  1
  O  O3  1  0.64116900  0.17981800  0.38710500  1
  O  O4  1  0.13677500  0.43225000  0.88708200  1
  O  O5  1  0.14233900  0.93240500  0.38469500  1
  O  O6  1  0.62293700  0.20581300  0.89327700  1
  O  O7  1  0.64152100  0.71777300  0.39409300  1
  O  O8  1  0.35847900  0.28222700  0.60590700  1
  O  O9  1  0.37706300  0.79418700  0.10672300  1
  O  O10  1  0.85766100  0.06759500  0.61530500  1
  O  O11  1  0.86322500  0.56775000  0.11291800  1
  O  O12  1  0.35883100  0.82018200  0.61289500  1
  O  O13  1  0.37847300  0.29598400  0.10892700  1
  O  O14  1  0.89275200  0.56611500  0.61950200  1
  O  O15  1  0.86347400  0.06574300  0.11250800  1
loop_
_geom_bond_atom_site_label_1
_geom_bond_atom_site_label_2
_geom_bond_distance
_geom_bond_site_symmetry_2
Li0 O14 1.968808 1_455
Li0 O12 2.076754 1_555
Li0 O2 2.123081 1_555
Li0 O0 2.186442 1_555
Li0 O4 2.213376 1_555
Li0 O8 2.250312 1_555
Li1 O5 2.056931 1_545
Li1 O1 2.057144 1_555
Li1 O3 2.062643 1_555
Li1 O13 2.191400 1_555
Li1 O15 2.237608 1_455
Li1 O9 2.393536 1_545
Li2 O14 2.039913 1_555
Li2 O10 2.042178 1_555
Li2 O8 2.081061 1_555
Li2 O6 2.244903 1_555
Li2 O4 2.252259 1_655
Li2 O2 2.331562 1_555
Li3 O7 2.012858 1_555
Li3 O3 2.046441 1_565
Li3 O5 2.112556 1_655
Li3 O9 2.155167 1_555
Li3 O15 2.180183 1_565
Li3 O11 2.186938 1_555
Li4 O8 2.012858 1_555
Li4 O12 2.046441 1_545
Li4 O10 2.112556 1_455
Li4 O6 2.155167 1_555
Li4 O0 2.180183 1_545
Li4 O4 2.186938 1_555
Li5 O1 2.039913 1_555
Li5 O5 2.042178 1_555
Li5 O7 2.081061 1_555
Li5 O9 2.244903 1_555
Li5 O11 2.252259 1_455
Li5 O13 2.331562 1_555
Li6 O10 2.056931 1_565
Li6 O14 2.057144 1_555
Li6 O12 2.062643 1_555
Li6 O2 2.191400 1_555
Li6 O0 2.237608 1_655
Li6 O6 2.393536 1_565
Li7 O1 1.968808 1_655
Li7 O3 2.076754 1_555
Li7 O13 2.123081 1_555
Li7 O15 2.186442 1_555
Li7 O11 2.213376 1_555
Li7 O7 2.250312 1_555
Li8 O8 2.054390 1_555
Li8 O7 2.054390 1_555
Li8 O14 2.086221 1_555
Li8 O1 2.086221 1_555
Li8 O12 2.134844 1_555
Li8 O3 2.134844 1_555
Mn0 O0 1.946539 1_555
Mn0 O11 1.953331 1_456
Mn0 O9 1.975215 1_556
Mn0 O2 1.987315 1_455
Mn0 O15 2.104385 1_466
Mn0 O4 2.114072 1_555
Mn1 O15 1.946539 1_555
Mn1 O4 1.953331 1_654
Mn1 O6 1.975215 1_554
Mn1 O13 1.987315 1_655
Mn1 O0 2.104385 1_644
Mn1 O11 2.114072 1_555
Co0 O3 1.909345 1_555
Co0 O8 1.913740 1_655
Co0 O1 1.926154 1_655
Co0 O10 2.001183 1_555
Co0 O14 2.044147 1_555
Co0 O5 2.165321 1_645
Co1 O11 1.939389 1_555
Co1 O4 1.939389 1_554
Co1 O6 1.958152 1_554
Co1 O9 1.958152 1_555
Co1 O2 1.977085 1_554
Co1 O13 1.977085 1_555
Co2 O10 1.926047 1_555
Co2 O5 1.926047 1_545
Co2 O8 1.945216 1_555
Co2 O7 1.945216 1_545
Co2 O12 1.947330 1_545
Co2 O3 1.947330 1_555
Co3 O12 1.909345 1_555
Co3 O7 1.913740 1_455
Co3 O14 1.926154 1_455
Co3 O5 2.001183 1_555
Co3 O1 2.044147 1_555
Co3 O10 2.165321 1_465
Co4 O15 1.938516 1_555
Co4 O0 1.938516 1_544
Co4 O9 1.970573 1_545
Co4 O6 1.970573 1_554
Co4 O13 1.971531 1_555
Co4 O2 1.971531 1_544
