# generated using pymatgen
data_Sr18Ca3Cr14O56
_symmetry_space_group_name_H-M   'P 1'
_cell_length_a   11.24755495
_cell_length_b   11.24755538
_cell_length_c   14.92897350
_cell_angle_alpha   90.00000000
_cell_angle_beta   67.87043996
_cell_angle_gamma   120.00000127
_symmetry_Int_Tables_number   1
_chemical_formula_structural   Sr18Ca3Cr14O56
_chemical_formula_sum   'Sr18 Ca3 Cr14 O56'
_cell_volume   1472.76031892
_cell_formula_units_Z   1
loop_
 _symmetry_equiv_pos_site_id
 _symmetry_equiv_pos_as_xyz
  1  'x, y, z'
loop_
 _atom_site_type_symbol
 _atom_site_label
 _atom_site_symmetry_multiplicity
 _atom_site_fract_x
 _atom_site_fract_y
 _atom_site_fract_z
 _atom_site_occupancy
  Sr  Sr0  1  0.97327758  0.28381205  0.31463948  1
  Sr  Sr1  1  0.99589499  0.71208294  0.31463948  1
  Sr  Sr2  1  0.40154847  0.68946553  0.31463948  1
  Sr  Sr3  1  0.39804836  0.21000695  0.81444174  1
  Sr  Sr4  1  0.99751684  0.78750990  0.81444174  1
  Sr  Sr5  1  0.97555131  0.18804142  0.81444174  1
  Sr  Sr6  1  0.75568292  0.08638622  0.59983838  1
  Sr  Sr7  1  0.73086492  0.64447870  0.59983838  1
  Sr  Sr8  1  0.31377540  0.66929670  0.59983838  1
  Sr  Sr9  1  0.31194756  0.14496890  0.10752444  1
  Sr  Sr10  1  0.72549691  0.58052800  0.10752444  1
  Sr  Sr11  1  0.74750666  0.16697865  0.10752444  1
  Sr  Sr12  1  0.19664149  0.39697585  0.99414741  1
  Sr  Sr13  1  0.20618695  0.80921110  0.99414741  1
  Sr  Sr14  1  0.60887674  0.79966564  0.99414741  1
  Sr  Sr15  1  0.61724671  0.31554642  0.49558586  1
  Sr  Sr16  1  0.20271385  0.88716743  0.49558586  1
  Sr  Sr17  1  0.18886772  0.30170029  0.49558586  1
  Ca  Ca0  1  0.86678337  0.43339168  0.69982495  1
  Ca  Ca1  1  0.46757072  0.23378536  0.29864392  1
  Ca  Ca2  1  0.47109366  0.73554683  0.79335952  1
  Cr  Cr0  1  0.37777754  0.92075904  0.19678439  1
  Cr  Cr1  1  0.34619711  0.42543807  0.19678439  1
  Cr  Cr2  1  0.88245658  0.45701850  0.19678439  1
  Cr  Cr3  1  0.88194270  0.92412367  0.69890256  1
  Cr  Cr4  1  0.34327840  0.41915474  0.69890256  1
  Cr  Cr5  1  0.37697377  0.95781903  0.69890256  1
  Cr  Cr6  1  0.59999224  0.06544092  0.89369314  1
  Cr  Cr7  1  0.57175555  0.50631462  0.89369314  1
  Cr  Cr8  1  0.04086594  0.53455132  0.89369314  1
  Cr  Cr9  1  0.04913878  0.00982343  0.39453545  1
  Cr  Cr10  1  0.56614920  0.55632577  0.39453545  1
  Cr  Cr11  1  0.59564112  0.03931535  0.39453545  1
  Cr  Cr12  1  0.00628891  0.50314446  0.49056663  1
  Cr  Cr13  1  0.00182905  0.00091453  0.99725642  1
  O  O0  1  0.27034988  0.84019141  0.32088392  1
  O  O1  1  0.24895762  0.40876621  0.32088392  1
  O  O2  1  0.83892467  0.43015847  0.32088392  1
  O  O3  1  0.84219620  0.91119363  0.82375860  1
  O  O4  1  0.24523883  0.33404520  0.82375860  1
  O  O5  1  0.26504777  0.93100257  0.82375860  1
  O  O6  1  0.09273745  0.54636873  0.36089382  1
  O  O7  1  0.08412051  0.04206025  0.87381924  1
  O  O8  1  0.70622019  0.07415985  0.95546964  1
  O  O9  1  0.41247002  0.33831017  0.95546964  1
  O  O10  1  0.97037051  0.63206034  0.95546964  1
  O  O11  1  0.97121231  0.83800352  0.45725692  1
  O  O12  1  0.40953429  0.57153077  0.45725692  1
  O  O13  1  0.70473956  0.13320879  0.45725692  1
  O  O14  1  0.73801827  0.17683340  0.77635853  1
  O  O15  1  0.66245660  0.48562320  0.77635853  1
  O  O16  1  0.04680807  0.56118487  0.77635853  1
  O  O17  1  0.08783388  -0.00056103  0.27428227  1
  O  O18  1  0.63732282  0.63788385  0.27428227  1
  O  O19  1  0.72627877  0.08839491  0.27428227  1
  O  O20  1  0.49164828  0.88190393  0.90456108  1
  O  O21  1  0.48569457  0.60379064  0.90456108  1
  O  O22  1  0.21353499  0.60974435  0.90456108  1
  O  O23  1  0.21469973  0.10470962  0.41256294  1
  O  O24  1  0.47744695  0.37273733  0.41256294  1
  O  O25  1  0.48272744  0.10999011  0.41256294  1
  O  O26  1  0.51849442  0.88426513  0.15596468  1
  O  O27  1  0.20980604  0.32554090  0.15596468  1
  O  O28  1  0.95977019  0.63422928  0.15596468  1
  O  O29  1  0.95702394  0.82223694  0.66107236  1
  O  O30  1  0.20414065  0.38190371  0.66107236  1
  O  O31  1  0.51669071  0.13478700  0.66107236  1
  O  O32  1  0.82141375  0.48321141  0.55453998  1
  O  O33  1  0.10725768  0.62404627  0.55453998  1
  O  O34  1  0.96224861  0.33820234  0.55453998  1
  O  O35  1  0.97206636  0.12788927  0.03385850  1
  O  O36  1  0.12196441  0.99407515  0.03385850  1
  O  O37  1  0.83825224  0.84417709  0.03385850  1
  O  O38  1  0.25219985  0.86854156  0.14412600  1
  O  O39  1  0.47221571  0.60367415  0.14412600  1
  O  O40  1  0.98733245  0.38365830  0.14412600  1
  O  O41  1  0.98660231  0.10193551  0.64893325  1
  O  O42  1  0.46639995  0.36446444  0.64893325  1
  O  O43  1  0.24913124  0.88466679  0.64893325  1
  O  O44  1  0.47249617  0.10394037  0.17336789  1
  O  O45  1  0.45807632  0.35413594  0.17336789  1
  O  O46  1  0.72269174  0.36855579  0.17336789  1
  O  O47  1  0.72288478  0.85462125  0.67570341  1
  O  O48  1  0.45603306  0.60141181  0.67570341  1
  O  O49  1  0.46967534  0.86826353  0.67570341  1
  O  O50  1  0.46529619  0.10709669  0.93945783  1
  O  O51  1  0.70234266  0.59524598  0.93945783  1
  O  O52  1  0.95344548  0.35819950  0.93945783  1
  O  O53  1  0.95629540  0.09612841  0.43916121  1
  O  O54  1  0.70067179  0.60454338  0.43916121  1
  O  O55  1  0.46471038  0.86016700  0.43916121  1
loop_
_geom_bond_atom_site_label_1
_geom_bond_atom_site_label_2
_geom_bond_distance
_geom_bond_site_symmetry_2
Ca0 O16 2.510782 1_655
Ca0 O14 2.510782 1_555
Ca0 O15 2.510782 1_555
Ca0 O33 2.529543 1_655
Ca0 O34 2.529543 1_555
Ca0 O32 2.529543 1_555
Ca1 O23 2.305642 1_555
Ca1 O25 2.305642 1_555
Ca1 O24 2.305642 1_555
Ca1 O46 2.374153 1_555
Ca1 O45 2.374153 1_555
Ca1 O44 2.374153 1_555
Ca2 O47 2.314883 1_555
Ca2 O49 2.314884 1_555
Ca2 O48 2.314884 1_555
Ca2 O22 2.329783 1_555
Ca2 O20 2.329783 1_555
Ca2 O21 2.329783 1_555
Cr0 O0 1.712329 1_555
Cr0 O38 1.721903 1_555
Cr0 O26 1.722744 1_555
Cr0 O44 1.739716 1_565
Cr1 O1 1.712329 1_555
Cr1 O39 1.721903 1_555
Cr1 O27 1.722744 1_555
Cr1 O45 1.739717 1_555
Cr2 O2 1.712329 1_555
Cr2 O40 1.721903 1_555
Cr2 O28 1.722744 1_555
Cr2 O46 1.739716 1_555
Cr3 O41 1.710596 1_565
Cr3 O29 1.718663 1_555
Cr3 O47 1.732024 1_555
Cr3 O3 1.732795 1_555
Cr4 O42 1.710596 1_555
Cr4 O30 1.718662 1_555
Cr4 O48 1.732024 1_555
Cr4 O4 1.732795 1_555
Cr5 O43 1.710596 1_555
Cr5 O31 1.718663 1_565
Cr5 O49 1.732024 1_555
Cr5 O5 1.732795 1_555
Cr6 O50 1.706317 1_555
Cr6 O8 1.732270 1_555
Cr6 O14 1.747679 1_555
Cr6 O20 1.763024 1_545
Cr7 O51 1.706317 1_555
Cr7 O9 1.732270 1_555
Cr7 O15 1.747679 1_555
Cr7 O21 1.763024 1_555
Cr8 O52 1.706317 1_455
Cr8 O10 1.732270 1_455
Cr8 O16 1.747679 1_555
Cr8 O22 1.763024 1_555
Cr9 O17 1.699464 1_555
Cr9 O53 1.722255 1_455
Cr9 O11 1.751455 1_445
Cr9 O23 1.751933 1_555
Cr10 O18 1.699464 1_555
Cr10 O54 1.722255 1_555
Cr10 O12 1.751455 1_555
Cr10 O24 1.751933 1_555
Cr11 O19 1.699464 1_555
Cr11 O55 1.722255 1_545
Cr11 O13 1.751455 1_555
Cr11 O25 1.751933 1_555
Cr12 O6 1.743147 1_555
Cr12 O32 1.823147 1_455
Cr12 O33 1.823147 1_555
Cr12 O34 1.823147 1_455
Cr13 O7 1.659324 1_555
Cr13 O37 1.670494 1_446
Cr13 O35 1.670494 1_456
Cr13 O36 1.670494 1_546
O0 Sr16 2.562676 1_555
O0 Sr1 2.717158 1_455
O0 Sr2 2.730999 1_555
O1 Sr17 2.562676 1_555
O1 Sr2 2.717158 1_555
O1 Sr0 2.730999 1_455
O2 Sr15 2.562676 1_555
O2 Sr0 2.717158 1_555
O2 Sr1 2.730999 1_555
O3 Sr14 2.570932 1_555
O3 Sr5 2.671613 1_565
O3 Sr4 2.693282 1_555
O4 Sr12 2.570932 1_555
O4 Sr3 2.671613 1_555
O4 Sr5 2.693282 1_455
O5 Sr13 2.570932 1_555
O5 Sr4 2.671613 1_455
O5 Sr3 2.693282 1_565
O6 Sr2 2.781046 1_555
O6 Sr1 2.781046 1_455
O6 Sr0 2.781046 1_455
O7 Sr3 2.791678 1_555
O7 Sr4 2.791678 1_445
O7 Sr5 2.791678 1_455
O8 Sr5 2.562181 1_555
O8 Sr11 2.601526 1_556
O8 Sr14 2.684683 1_545
O9 Sr3 2.562182 1_555
O9 Sr9 2.601526 1_556
O9 Sr12 2.684683 1_555
O10 Sr4 2.562182 1_555
O10 Sr10 2.601526 1_556
O10 Sr13 2.684683 1_655
O11 Sr7 2.521356 1_555
O11 Sr1 2.562038 1_555
O11 Sr16 2.663794 1_655
O12 Sr8 2.521356 1_555
O12 Sr2 2.562038 1_555
O12 Sr17 2.663794 1_555
O13 Sr6 2.521356 1_555
O13 Sr0 2.562038 1_555
O13 Sr15 2.663794 1_555
O14 Sr6 2.797618 1_555
O14 Sr5 2.878285 1_555
O15 Sr7 2.797618 1_555
O15 Sr3 2.878285 1_555
O16 Sr8 2.797618 1_555
O16 Sr4 2.878285 1_455
O17 Sr9 2.525293 1_555
O17 Sr1 2.840225 1_445
O18 Sr10 2.525293 1_555
O18 Sr2 2.840225 1_555
O19 Sr11 2.525293 1_555
O19 Sr0 2.840225 1_555
O20 Sr13 2.627870 1_555
O20 Sr14 2.632689 1_555
O21 Sr14 2.627870 1_555
O21 Sr12 2.632689 1_555
O22 Sr12 2.627870 1_555
O22 Sr13 2.632689 1_555
O23 Sr17 2.627214 1_555
O23 Sr16 2.661874 1_545
O24 Sr15 2.627214 1_555
O24 Sr17 2.661874 1_555
O25 Sr16 2.627213 1_545
O25 Sr15 2.661874 1_555
O26 Sr14 2.625237 1_554
O26 Sr2 2.629200 1_555
O26 Sr11 2.770397 1_565
O27 Sr12 2.625237 1_554
O27 Sr0 2.629200 1_455
O27 Sr9 2.770397 1_555
O28 Sr13 2.625237 1_654
O28 Sr1 2.629200 1_555
O28 Sr10 2.770397 1_555
O29 Sr4 2.562427 1_555
O29 Sr16 2.666767 1_655
O29 Sr7 2.823085 1_555
O30 Sr5 2.562427 1_455
O30 Sr17 2.666767 1_555
O30 Sr8 2.823085 1_555
O31 Sr3 2.562427 1_555
O31 Sr15 2.666767 1_555
O31 Sr6 2.823085 1_555
O32 Sr7 2.472470 1_555
O32 Sr15 2.606999 1_555
O33 Sr8 2.472470 1_555
O33 Sr16 2.606999 1_555
O34 Sr6 2.472470 1_555
O34 Sr17 2.606999 1_655
O35 Sr11 2.607662 1_555
O35 Sr12 2.668102 1_654
O36 Sr9 2.607662 1_565
O36 Sr13 2.668102 1_554
O37 Sr10 2.607662 1_555
O37 Sr14 2.668102 1_554
O38 Sr13 2.500812 1_554
O38 Sr1 2.699167 1_455
O38 Sr9 2.837401 1_565
O39 Sr14 2.500812 1_554
O39 Sr2 2.699167 1_555
O39 Sr10 2.837401 1_555
O40 Sr12 2.500812 1_654
O40 Sr0 2.699167 1_555
O40 Sr11 2.837401 1_555
O41 Sr17 2.535647 1_655
O41 Sr5 2.635831 1_555
O41 Sr6 2.879862 1_555
O42 Sr15 2.535647 1_555
O42 Sr3 2.635831 1_555
O42 Sr7 2.879862 1_555
O43 Sr16 2.535647 1_555
O43 Sr4 2.635831 1_455
O43 Sr8 2.879862 1_555
O44 Sr11 2.559865 1_555
O44 Sr9 2.571122 1_555
O45 Sr9 2.559865 1_555
O45 Sr10 2.571122 1_555
O46 Sr10 2.559865 1_555
O46 Sr11 2.571122 1_555
O47 Sr6 2.633964 1_565
O47 Sr7 2.648193 1_555
O48 Sr7 2.633964 1_555
O48 Sr8 2.648193 1_555
O49 Sr8 2.633964 1_555
O49 Sr6 2.648193 1_565
O50 Sr9 2.631735 1_556
O50 Sr3 2.708180 1_555
O50 Sr13 2.971297 1_545
O51 Sr10 2.631735 1_556
O51 Sr4 2.708180 1_555
O51 Sr14 2.971297 1_555
O52 Sr11 2.631735 1_556
O52 Sr5 2.708180 1_555
O52 Sr12 2.971297 1_655
O53 Sr6 2.555828 1_555
O53 Sr0 2.697741 1_555
O53 Sr17 2.917242 1_655
O54 Sr7 2.555828 1_555
O54 Sr1 2.697741 1_555
O54 Sr15 2.917242 1_555
O55 Sr8 2.555828 1_555
O55 Sr2 2.697741 1_555
O55 Sr16 2.917242 1_555
