# generated using pymatgen
data_K2CaNd4Nb2O12
_symmetry_space_group_name_H-M   'P 1'
_cell_length_a   5.83110600
_cell_length_b   6.99412034
_cell_length_c   9.43590278
_cell_angle_alpha   101.49333558
_cell_angle_beta   90.00000000
_cell_angle_gamma   114.63636002
_symmetry_Int_Tables_number   1
_chemical_formula_structural   K2CaNd4Nb2O12
_chemical_formula_sum   'K2 Ca1 Nd4 Nb2 O12'
_cell_volume   341.29069941
_cell_formula_units_Z   1
loop_
 _symmetry_equiv_pos_site_id
 _symmetry_equiv_pos_as_xyz
  1  'x, y, z'
loop_
 _atom_site_type_symbol
 _atom_site_label
 _atom_site_symmetry_multiplicity
 _atom_site_fract_x
 _atom_site_fract_y
 _atom_site_fract_z
 _atom_site_occupancy
  K  K0  1  0.12936800  0.25873800  0.49533400  1
  K  K1  1  0.87063200  0.74126200  0.50466600  1
  Ca  Ca0  1  0.50000000  0.00000000  0.50000000  1
  Nd  Nd0  1  0.12238900  0.24477900  0.90862400  1
  Nd  Nd1  1  0.57757400  0.15514700  0.17714100  1
  Nd  Nd2  1  0.42242600  0.84485300  0.82285900  1
  Nd  Nd3  1  0.87761100  0.75522200  0.09137600  1
  Nb  Nb0  1  0.68351600  0.36703200  0.74295200  1
  Nb  Nb1  1  0.31648400  0.63296800  0.25704800  1
  O  O0  1  0.01606900  0.54138400  0.84625300  1
  O  O1  1  0.21950800  0.90206000  0.28779900  1
  O  O2  1  0.24555100  0.00000000  0.00000000  1
  O  O3  1  0.78049200  0.09794000  0.71220100  1
  O  O4  1  0.68255300  0.90206000  0.28779900  1
  O  O5  1  0.75444900  0.00000000  0.00000000  1
  O  O6  1  0.31744700  0.09794000  0.71220100  1
  O  O7  1  0.98393100  0.45861600  0.15374700  1
  O  O8  1  0.67985000  0.35969900  0.53496000  1
  O  O9  1  0.32015000  0.64030100  0.46504000  1
  O  O10  1  0.47468400  0.45861600  0.15374700  1
  O  O11  1  0.52531600  0.54138400  0.84625300  1
loop_
_geom_bond_atom_site_label_1
_geom_bond_atom_site_label_2
_geom_bond_distance
_geom_bond_site_symmetry_2
K0 O9 2.504012 1_555
K0 O3 2.932659 1_455
K0 O6 2.932662 1_555
K0 O8 2.991148 1_455
K0 O8 2.991165 1_555
K0 O4 3.079081 1_445
K0 O1 3.079090 1_545
K1 O8 2.504012 1_555
K1 O1 2.932659 1_655
K1 O4 2.932662 1_555
K1 O9 2.991148 1_655
K1 O9 2.991165 1_555
K1 O6 3.079081 1_665
K1 O3 3.079090 1_565
Ca0 O8 2.237727 1_555
Ca0 O9 2.237727 1_545
Ca0 O3 2.381789 1_555
Ca0 O1 2.381789 1_545
Ca0 O6 2.381792 1_555
Ca0 O4 2.381792 1_545
Nd0 O5 2.409040 1_456
Nd0 O2 2.409043 1_556
Nd0 O6 2.449278 1_555
Nd0 O3 2.449278 1_455
Nd0 O0 2.567687 1_555
Nd0 O11 2.567693 1_555
Nd0 O7 2.804745 1_456
Nd0 O10 2.804745 1_556
Nd1 O5 2.290272 1_555
Nd1 O2 2.290276 1_555
Nd1 O7 2.482344 1_555
Nd1 O10 2.482351 1_555
Nd1 O4 2.497651 1_545
Nd1 O1 2.497651 1_545
Nd2 O2 2.290272 1_566
Nd2 O5 2.290276 1_566
Nd2 O0 2.482344 1_555
Nd2 O11 2.482351 1_555
Nd2 O6 2.497651 1_565
Nd2 O3 2.497651 1_565
Nd3 O5 2.409037 1_565
Nd3 O2 2.409037 1_665
Nd3 O4 2.449274 1_555
Nd3 O1 2.449278 1_655
Nd3 O7 2.567693 1_555
Nd3 O10 2.567697 1_555
Nd3 O11 2.804745 1_554
Nd3 O0 2.804748 1_654
Nb0 O11 1.937083 1_555
Nb0 O0 1.937087 1_655
Nb0 O8 1.952903 1_555
Nb0 O3 2.148437 1_555
Nb0 O6 2.148441 1_555
Nb1 O10 1.937083 1_555
Nb1 O7 1.937087 1_455
Nb1 O9 1.952903 1_555
Nb1 O1 2.148437 1_555
Nb1 O4 2.148441 1_555
