# generated using pymatgen
data_Mn7CdO12
_symmetry_space_group_name_H-M   'P 1'
_cell_length_a   6.46351500
_cell_length_b   6.52599082
_cell_length_c   6.52601841
_cell_angle_alpha   109.66375043
_cell_angle_beta   109.27856394
_cell_angle_gamma   109.27785183
_symmetry_Int_Tables_number   1
_chemical_formula_structural   Mn7CdO12
_chemical_formula_sum   'Mn7 Cd1 O12'
_cell_volume   212.40731758
_cell_formula_units_Z   1
loop_
 _symmetry_equiv_pos_site_id
 _symmetry_equiv_pos_as_xyz
  1  'x, y, z'
loop_
 _atom_site_type_symbol
 _atom_site_label
 _atom_site_symmetry_multiplicity
 _atom_site_fract_x
 _atom_site_fract_y
 _atom_site_fract_z
 _atom_site_occupancy
  Mn  Mn0  1  0.49998900  0.00000800  0.50001900  1
  Mn  Mn1  1  0.00000600  0.49998900  0.49999100  1
  Mn  Mn2  1  0.50000700  0.50000000  0.00001300  1
  Mn  Mn3  1  0.99999700  0.00001500  0.49999600  1
  Mn  Mn4  1  0.49998900  0.49999300  0.49999200  1
  Mn  Mn5  1  0.99998100  0.49998400  0.99999300  1
  Mn  Mn6  1  0.50000000  0.99999900  0.99999600  1
  Cd  Cd0  1  0.00000200  0.00000100  0.00000000  1
  O  O0  1  0.13193600  0.82400900  0.32709600  1
  O  O1  1  0.80488100  0.67295200  0.49691300  1
  O  O2  1  0.30793000  0.50309300  0.17598600  1
  O  O3  1  0.86806800  0.17599300  0.67290400  1
  O  O4  1  0.19512300  0.32705000  0.50308800  1
  O  O5  1  0.69207500  0.49690900  0.82401400  1
  O  O6  1  0.52527900  0.83772200  0.70270600  1
  O  O7  1  0.82258900  0.29730400  0.13502000  1
  O  O8  1  0.68760300  0.86500400  0.16232900  1
  O  O9  1  0.47472600  0.16228000  0.29729400  1
  O  O10  1  0.17741600  0.70269800  0.86498000  1
  O  O11  1  0.31240100  0.13499800  0.83767100  1
loop_
_geom_bond_atom_site_label_1
_geom_bond_atom_site_label_2
_geom_bond_distance
_geom_bond_site_symmetry_2
Mn0 O0 1.950071 1_545
Mn0 O3 1.950217 1_555
Mn0 O6 1.952519 1_545
Mn0 O9 1.952646 1_555
Mn1 O4 1.950118 1_555
Mn1 O1 1.950287 1_455
Mn1 O7 1.952498 1_455
Mn1 O10 1.952605 1_555
Mn2 O2 1.950111 1_555
Mn2 O5 1.950197 1_554
Mn2 O11 1.952650 1_554
Mn2 O8 1.952671 1_555
Mn3 O3 1.931111 1_555
Mn3 O0 1.931236 1_645
Mn3 O8 2.071185 1_545
Mn3 O11 2.071294 1_655
Mn3 O4 2.079147 1_655
Mn3 O1 2.079312 1_545
Mn4 O4 1.931386 1_555
Mn4 O1 1.931491 1_555
Mn4 O9 2.071578 1_555
Mn4 O6 2.071606 1_555
Mn4 O2 2.079550 1_555
Mn4 O5 2.079624 1_555
Mn5 O5 1.931046 1_555
Mn5 O2 1.931183 1_656
Mn5 O7 2.071427 1_556
Mn5 O10 2.071619 1_655
Mn5 O3 2.079514 1_555
Mn5 O0 2.079611 1_656
Mn6 O6 1.962931 1_555
Mn6 O9 1.962962 1_566
Mn6 O10 1.962972 1_555
Mn6 O7 1.962992 1_566
Mn6 O11 1.963139 1_565
Mn6 O8 1.963158 1_556
Cd0 O6 2.615579 1_444
Cd0 O9 2.615584 1_555
Cd0 O7 2.615614 1_455
Cd0 O10 2.615619 1_544
Cd0 O8 2.615628 1_445
Cd0 O11 2.615628 1_554
Cd0 O1 2.774450 1_444
Cd0 O4 2.774455 1_555
Cd0 O3 2.774462 1_454
Cd0 O0 2.774462 1_545
Cd0 O5 2.774483 1_444
Cd0 O2 2.774485 1_555
