# generated using pymatgen
data_Sn4P3NO12
_symmetry_space_group_name_H-M   'P 1'
_cell_length_a   9.90554559
_cell_length_b   9.90554559
_cell_length_c   8.22654800
_cell_angle_alpha   90.00000000
_cell_angle_beta   90.00000000
_cell_angle_gamma   119.99999726
_symmetry_Int_Tables_number   1
_chemical_formula_structural   Sn4P3NO12
_chemical_formula_sum   'Sn8 P6 N2 O24'
_cell_volume   699.04491673
_cell_formula_units_Z   2
loop_
 _symmetry_equiv_pos_site_id
 _symmetry_equiv_pos_as_xyz
  1  'x, y, z'
loop_
 _atom_site_type_symbol
 _atom_site_label
 _atom_site_symmetry_multiplicity
 _atom_site_fract_x
 _atom_site_fract_y
 _atom_site_fract_z
 _atom_site_occupancy
  Sn  Sn0  1  0.69828800  0.59756300  0.62814500  1
  Sn  Sn1  1  0.40243700  0.10072500  0.62814500  1
  Sn  Sn2  1  0.89927500  0.30171200  0.62814500  1
  Sn  Sn3  1  0.30171200  0.40243700  0.12814500  1
  Sn  Sn4  1  0.59756300  0.89927500  0.12814500  1
  Sn  Sn5  1  0.10072500  0.69828800  0.12814500  1
  Sn  Sn6  1  0.33333300  0.66666700  0.75384900  1
  Sn  Sn7  1  0.66666700  0.33333300  0.25384900  1
  P  P0  1  0.65875200  0.92183800  0.53915500  1
  P  P1  1  0.07816200  0.73691400  0.53915500  1
  P  P2  1  0.26308600  0.34124800  0.53915500  1
  P  P3  1  0.34124800  0.07816200  0.03915500  1
  P  P4  1  0.92183800  0.26308600  0.03915500  1
  P  P5  1  0.73691400  0.65875200  0.03915500  1
  N  N0  1  0.00000000  0.00000000  0.32879400  1
  N  N1  1  0.00000000  0.00000000  0.82879400  1
  O  O0  1  0.69889400  0.79160500  0.52902700  1
  O  O1  1  0.20839500  0.90728900  0.52902700  1
  O  O2  1  0.09271100  0.30110600  0.52902700  1
  O  O3  1  0.30110600  0.20839500  0.02902700  1
  O  O4  1  0.79160500  0.09271100  0.02902700  1
  O  O5  1  0.90728900  0.69889400  0.02902700  1
  O  O6  1  0.67184700  0.66166800  0.86755000  1
  O  O7  1  0.33833200  0.01017900  0.86755000  1
  O  O8  1  0.98982100  0.32815300  0.86755000  1
  O  O9  1  0.32815300  0.33833200  0.36755000  1
  O  O10  1  0.66166800  0.98982100  0.36755000  1
  O  O11  1  0.01017900  0.67184700  0.36755000  1
  O  O12  1  0.94464600  0.71970800  0.64876100  1
  O  O13  1  0.28029200  0.22493800  0.64876100  1
  O  O14  1  0.77506200  0.05535400  0.64876100  1
  O  O15  1  0.05535400  0.28029200  0.14876100  1
  O  O16  1  0.71970800  0.77506200  0.14876100  1
  O  O17  1  0.22493800  0.94464600  0.14876100  1
  O  O18  1  0.48959500  0.85851700  0.60999500  1
  O  O19  1  0.14148300  0.63107800  0.60999500  1
  O  O20  1  0.36892200  0.51040500  0.60999500  1
  O  O21  1  0.51040500  0.14148300  0.10999500  1
  O  O22  1  0.85851700  0.36892200  0.10999500  1
  O  O23  1  0.63107800  0.48959500  0.10999500  1
loop_
_geom_bond_atom_site_label_1
_geom_bond_atom_site_label_2
_geom_bond_distance
_geom_bond_site_symmetry_2
O0 P0 1.530417 1_555
O0 Sn0 2.085140 1_555
O1 P1 1.530417 1_555
O1 Sn1 2.085141 1_565
O2 P2 1.530417 1_555
O2 Sn2 2.085140 1_455
O3 P3 1.530417 1_555
O3 Sn3 2.085140 1_555
O4 P4 1.530417 1_555
O4 Sn4 2.085141 1_545
O5 P5 1.530417 1_555
O5 Sn5 2.085140 1_655
O6 P5 1.558142 1_556
O6 Sn0 2.125316 1_555
O7 P3 1.558142 1_556
O7 Sn1 2.125316 1_555
O8 P4 1.558142 1_556
O8 Sn2 2.125316 1_555
O9 P2 1.558142 1_555
O9 Sn3 2.125316 1_555
O10 P0 1.558142 1_555
O10 Sn4 2.125316 1_555
O11 P1 1.558142 1_555
O11 Sn5 2.125316 1_555
O12 P1 1.538116 1_655
O12 Sn0 2.120190 1_555
O13 P2 1.538116 1_555
O13 Sn1 2.120190 1_555
O14 P0 1.538116 1_545
O14 Sn2 2.120190 1_555
O15 P4 1.538116 1_455
O15 Sn3 2.120190 1_555
O16 P5 1.538116 1_555
O16 Sn4 2.120190 1_555
O17 P3 1.538116 1_565
O17 Sn5 2.120190 1_555
O18 P0 1.577867 1_555
O18 Sn6 2.113357 1_555
O19 P1 1.577867 1_555
O19 Sn6 2.113354 1_555
O20 P2 1.577867 1_555
O20 Sn6 2.113362 1_555
O21 P3 1.577867 1_555
O21 Sn7 2.113357 1_555
O22 P4 1.577867 1_555
O22 Sn7 2.113354 1_555
O23 P5 1.577867 1_555
O23 Sn7 2.113362 1_555
