# generated using pymatgen
data_SrCoO3
_symmetry_space_group_name_H-M   'P 1'
_cell_length_a   5.49019555
_cell_length_b   6.73615954
_cell_length_c   6.73608611
_cell_angle_alpha   70.94369734
_cell_angle_beta   90.00015650
_cell_angle_gamma   90.00014446
_symmetry_Int_Tables_number   1
_chemical_formula_structural   SrCoO3
_chemical_formula_sum   'Sr4 Co4 O12'
_cell_volume   235.46734734
_cell_formula_units_Z   4
loop_
 _symmetry_equiv_pos_site_id
 _symmetry_equiv_pos_as_xyz
  1  'x, y, z'
loop_
 _atom_site_type_symbol
 _atom_site_label
 _atom_site_symmetry_multiplicity
 _atom_site_fract_x
 _atom_site_fract_y
 _atom_site_fract_z
 _atom_site_occupancy
  Sr  Sr0  1  0.50003500  0.74641600  0.25195400  1
  Sr  Sr1  1  0.00001000  0.00781000  0.49840900  1
  Sr  Sr2  1  0.50003500  0.25198300  0.74641300  1
  Sr  Sr3  1  0.00001100  0.49841800  0.00779000  1
  Co  Co0  1  0.00006000  0.50070900  0.50070700  1
  Co  Co1  1  0.49999500  0.75151000  0.75133700  1
  Co  Co2  1  0.00016800  0.00699400  0.00699000  1
  Co  Co3  1  0.50010800  0.25059000  0.25054500  1
  O  O0  1  0.26328600  0.63344900  0.63345500  1
  O  O1  1  0.74135100  0.87073700  0.87076700  1
  O  O2  1  0.25143900  0.11960300  0.11962300  1
  O  O3  1  0.74617500  0.37138200  0.37141800  1
  O  O4  1  0.99996300  0.74256600  0.26164200  1
  O  O5  1  0.49989200  0.01221400  0.47885700  1
  O  O6  1  0.99995800  0.26162500  0.74258000  1
  O  O7  1  0.49989700  0.47881700  0.01223300  1
  O  O8  1  0.25370200  0.37133500  0.37137100  1
  O  O9  1  0.73685000  0.63346200  0.63347200  1
  O  O10  1  0.25853300  0.87072400  0.87075700  1
  O  O11  1  0.74853400  0.11965700  0.11967900  1
loop_
_geom_bond_atom_site_label_1
_geom_bond_atom_site_label_2
_geom_bond_distance
_geom_bond_site_symmetry_2
Co0 O4 1.879983 1_455
Co0 O6 1.880119 1_455
Co0 O8 1.988337 1_555
Co0 O3 1.988898 1_455
Co0 O0 2.051756 1_555
Co0 O9 2.051817 1_455
Co1 O0 1.834193 1_555
Co1 O9 1.834651 1_555
Co1 O1 1.862791 1_555
Co1 O10 1.863123 1_555
Co1 O5 2.085212 1_565
Co1 O7 2.086799 1_556
Co2 O2 1.852007 1_555
Co2 O11 1.853900 1_455
Co2 O6 2.029636 1_454
Co2 O4 2.029789 1_445
Co2 O10 2.060797 1_544
Co2 O1 2.062408 1_444
Co3 O7 1.824536 1_555
Co3 O5 1.825116 1_555
Co3 O3 1.892798 1_555
Co3 O8 1.893772 1_555
Co3 O11 1.980641 1_555
Co3 O2 1.981991 1_555
O0 Sr2 2.755836 1_555
O0 Sr0 2.756010 1_555
O0 Sr3 2.788758 1_556
O0 Sr1 2.788925 1_565
O1 Sr0 2.765067 1_556
O1 Sr3 2.765333 1_656
O1 Sr2 2.765420 1_565
O1 Sr1 2.765531 1_665
O2 Sr0 2.741088 1_545
O2 Sr2 2.741201 1_554
O2 Sr1 2.779970 1_555
O2 Sr3 2.780144 1_555
O3 Sr1 2.702565 1_655
O3 Sr3 2.702856 1_655
O3 Sr2 2.743553 1_555
O3 Sr0 2.743789 1_555
O4 Sr3 2.732243 1_655
O4 Sr0 2.745399 1_555
O4 Sr0 2.746190 1_655
O4 Sr1 2.756234 1_665
O5 Sr0 2.707185 1_545
O5 Sr1 2.747304 1_555
O5 Sr1 2.748598 1_655
O5 Sr2 2.785254 1_555
O6 Sr1 2.732164 1_655
O6 Sr2 2.745365 1_555
O6 Sr2 2.746211 1_655
O6 Sr3 2.756178 1_656
O7 Sr2 2.706944 1_554
O7 Sr3 2.747340 1_555
O7 Sr3 2.748590 1_655
O7 Sr0 2.785243 1_555
O8 Sr1 2.701908 1_555
O8 Sr3 2.702193 1_555
O8 Sr2 2.744334 1_555
O8 Sr0 2.744570 1_555
O9 Sr2 2.756080 1_555
O9 Sr0 2.756275 1_555
O9 Sr3 2.788341 1_656
O9 Sr1 2.788525 1_665
O10 Sr3 2.764873 1_556
O10 Sr1 2.765093 1_565
O10 Sr0 2.765608 1_556
O10 Sr2 2.765978 1_565
O11 Sr0 2.741104 1_545
O11 Sr2 2.741227 1_554
O11 Sr1 2.779770 1_655
O11 Sr3 2.779961 1_655
