# generated using pymatgen
data_Mg5Si6
_symmetry_space_group_name_H-M   'P 1'
_cell_length_a   4.35433500
_cell_length_b   7.37557279
_cell_length_c   12.79945459
_cell_angle_alpha   97.18954715
_cell_angle_beta   91.22623525
_cell_angle_gamma   92.17156219
_symmetry_Int_Tables_number   1
_chemical_formula_structural   Mg5Si6
_chemical_formula_sum   'Mg10 Si12'
_cell_volume   407.39707401
_cell_formula_units_Z   2
loop_
 _symmetry_equiv_pos_site_id
 _symmetry_equiv_pos_as_xyz
  1  'x, y, z'
loop_
 _atom_site_type_symbol
 _atom_site_label
 _atom_site_symmetry_multiplicity
 _atom_site_fract_x
 _atom_site_fract_y
 _atom_site_fract_z
 _atom_site_occupancy
  Mg  Mg0  1  0.43577100  0.99122600  0.03207900  1
  Mg  Mg1  1  0.44096100  0.93429700  0.47499800  1
  Mg  Mg2  1  0.95072400  0.65338600  0.33621300  1
  Mg  Mg3  1  0.02821900  0.50830000  0.69625200  1
  Mg  Mg4  1  0.91604100  0.82018500  0.85874400  1
  Mg  Mg5  1  0.95285800  0.27738800  0.16794000  1
  Mg  Mg6  1  0.94909100  0.27050500  0.44500200  1
  Mg  Mg7  1  0.96583600  0.07326300  0.66612000  1
  Mg  Mg8  1  0.97623600  0.25837000  0.91310200  1
  Mg  Mg9  1  0.93108000  0.65414900  0.05914600  1
  Si  Si0  1  0.47874600  0.37524700  0.04052900  1
  Si  Si1  1  0.41009000  0.58297300  0.90110800  1
  Si  Si2  1  0.94014400  0.73093200  0.54997800  1
  Si  Si3  1  0.44694700  0.55063800  0.49191800  1
  Si  Si4  1  0.22045900  0.03884500  0.28633700  1
  Si  Si5  1  0.43366000  0.03491700  0.82138800  1
  Si  Si6  1  0.45034900  0.28149300  0.58281700  1
  Si  Si7  1  0.47641600  0.36676200  0.31965300  1
  Si  Si8  1  0.40607100  0.58519900  0.19559400  1
  Si  Si9  1  0.53580700  0.32981500  0.77056200  1
  Si  Si10  1  0.47240600  0.78970200  0.67695300  1
  Si  Si11  1  0.68205200  0.89968200  0.21707000  1
loop_
_geom_bond_atom_site_label_1
_geom_bond_atom_site_label_2
_geom_bond_distance
_geom_bond_site_symmetry_2
Mg0 Si11 2.749301 1_555
Mg0 Si5 2.755533 1_564
Mg0 Si0 2.819814 1_565
Mg0 Si1 3.254597 1_554
Mg1 Si6 2.751140 1_565
Mg1 Si4 2.787556 1_565
Mg1 Si2 2.851034 1_455
Mg1 Si3 2.865929 1_555
Mg1 Si2 2.900606 1_555
Mg1 Si10 2.919560 1_555
Mg2 Si8 2.724948 1_655
Mg2 Si2 2.725995 1_555
Mg2 Si11 2.787865 1_555
Mg2 Si7 2.884037 1_555
Mg2 Si8 2.935509 1_555
Mg2 Si3 3.087498 1_655
Mg2 Si3 3.130050 1_555
Mg2 Si7 3.166863 1_655
Mg2 Si4 3.178504 1_665
Mg3 Si2 2.671161 1_455
Mg3 Si9 2.724278 1_455
Mg3 Si10 2.820314 1_555
Mg3 Si9 2.822513 1_555
Mg3 Si6 2.832719 1_555
Mg3 Si1 3.053827 1_555
Mg3 Si6 3.186623 1_455
Mg3 Si10 3.272534 1_455
Mg4 Si5 2.747271 1_565
Mg4 Si5 2.789642 1_665
Mg4 Si1 2.864450 1_555
Mg4 Si1 2.907868 1_655
Mg4 Si10 2.973219 1_555
Mg5 Si4 2.738037 1_655
Mg5 Si0 2.775932 1_555
Mg5 Si7 2.909443 1_555
Mg5 Si8 2.933150 1_655
Mg5 Si0 2.958586 1_655
Mg5 Si7 2.962899 1_655
Mg5 Si11 3.125356 1_545
Mg6 Si7 2.751138 1_555
Mg6 Si6 2.769130 1_655
Mg6 Si4 2.797690 1_655
Mg6 Si6 2.824157 1_555
Mg6 Si3 2.936549 1_655
Mg6 Si7 2.944431 1_655
Mg6 Si3 3.081937 1_555
Mg7 Si2 2.762137 1_545
Mg7 Si5 2.861858 1_655
Mg7 Si6 2.864814 1_655
Mg7 Si9 2.935344 1_555
Mg7 Si10 2.958782 1_545
Mg7 Si6 3.017039 1_555
Mg7 Si10 3.109314 1_645
Mg7 Si5 3.112461 1_555
Mg8 Si9 2.729756 1_555
Mg8 Si0 2.746527 1_656
Mg8 Si5 2.815314 1_655
Mg8 Si0 2.834899 1_556
Mg8 Si5 2.962747 1_555
Mg8 Si1 3.014293 1_655
Mg9 Si0 2.778100 1_555
Mg9 Si8 2.780989 1_655
Mg9 Si11 2.804914 1_555
Mg9 Si1 2.952203 1_654
Mg9 Si8 2.973201 1_555
Mg9 Si1 2.993533 1_554
Si0 Si8 2.394159 1_555
Si0 Si1 2.513445 1_554
Si1 Si9 2.431808 1_555
Si2 Si3 2.529905 1_555
Si2 Si3 2.689925 1_655
Si3 Si6 2.423646 1_555
Si3 Si7 2.448288 1_555
Si4 Si7 2.605904 1_555
Si5 Si9 2.375939 1_555
Si6 Si9 2.403615 1_555
Si7 Si8 2.422347 1_555
Si10 Si5 2.432432 1_565
Si10 Si2 2.647554 1_555
Si10 Si3 2.767497 1_555
Si10 Si2 2.790521 1_455
Si11 Si4 2.425735 1_565
Si11 Si8 2.552402 1_555
Si11 Si4 2.614703 1_665
