# generated using pymatgen
data_SrTiS3
_symmetry_space_group_name_H-M   'P 1'
_cell_length_a   6.62238779
_cell_length_b   6.62238779
_cell_length_c   5.81236800
_cell_angle_alpha   90.00000000
_cell_angle_beta   90.00000000
_cell_angle_gamma   119.99999791
_symmetry_Int_Tables_number   1
_chemical_formula_structural   SrTiS3
_chemical_formula_sum   'Sr2 Ti2 S6'
_cell_volume   220.75622592
_cell_formula_units_Z   2
loop_
 _symmetry_equiv_pos_site_id
 _symmetry_equiv_pos_as_xyz
  1  'x, y, z'
loop_
 _atom_site_type_symbol
 _atom_site_label
 _atom_site_symmetry_multiplicity
 _atom_site_fract_x
 _atom_site_fract_y
 _atom_site_fract_z
 _atom_site_occupancy
  Sr  Sr0  1  0.33333300  0.66666700  0.75000000  1
  Sr  Sr1  1  0.66666700  0.33333300  0.25000000  1
  Ti  Ti0  1  0.00000000  0.00000000  0.50000000  1
  Ti  Ti1  1  0.00000000  0.00000000  0.00000000  1
  S  S0  1  0.16966700  0.83033300  0.25000000  1
  S  S1  1  0.16966700  0.33933300  0.25000000  1
  S  S2  1  0.66066700  0.83033300  0.25000000  1
  S  S3  1  0.83033300  0.16966700  0.75000000  1
  S  S4  1  0.83033300  0.66066700  0.75000000  1
  S  S5  1  0.33933300  0.16966700  0.75000000  1
loop_
_geom_bond_atom_site_label_1
_geom_bond_atom_site_label_2
_geom_bond_distance
_geom_bond_site_symmetry_2
S0 Ti0 2.428768 1_565
S0 Ti1 2.428768 1_565
S0 Sr1 3.311373 1_455
S0 Sr1 3.311373 1_565
S0 Sr0 3.459792 1_554
S0 Sr0 3.459792 1_555
S1 Ti1 2.428763 1_555
S1 Ti0 2.428763 1_555
S1 Sr1 3.311373 1_555
S1 Sr1 3.311373 1_455
S1 Sr0 3.459798 1_555
S1 Sr0 3.459798 1_554
S2 Ti0 2.428763 1_665
S2 Ti1 2.428763 1_665
S2 Sr1 3.311373 1_555
S2 Sr1 3.311373 1_565
S2 Sr0 3.459798 1_555
S2 Sr0 3.459798 1_554
S3 Ti1 2.428768 1_656
S3 Ti0 2.428768 1_655
S3 Sr0 3.311373 1_545
S3 Sr0 3.311373 1_655
S3 Sr1 3.459792 1_555
S3 Sr1 3.459792 1_556
S4 Ti0 2.428763 1_665
S4 Ti1 2.428763 1_666
S4 Sr0 3.311373 1_555
S4 Sr0 3.311373 1_655
S4 Sr1 3.459798 1_555
S4 Sr1 3.459798 1_556
S5 Ti1 2.428763 1_556
S5 Ti0 2.428763 1_555
S5 Sr0 3.311373 1_555
S5 Sr0 3.311373 1_545
S5 Sr1 3.459798 1_555
S5 Sr1 3.459798 1_556
