# generated using pymatgen
data_BaZn(AgO2)4
_symmetry_space_group_name_H-M   'P 1'
_cell_length_a   5.77420816
_cell_length_b   5.77420816
_cell_length_c   7.15919000
_cell_angle_alpha   90.00000000
_cell_angle_beta   90.00000000
_cell_angle_gamma   120.00000184
_symmetry_Int_Tables_number   1
_chemical_formula_structural   BaZn(AgO2)4
_chemical_formula_sum   'Ba1 Zn1 Ag4 O8'
_cell_volume   206.71851877
_cell_formula_units_Z   1
loop_
 _symmetry_equiv_pos_site_id
 _symmetry_equiv_pos_as_xyz
  1  'x, y, z'
loop_
 _atom_site_type_symbol
 _atom_site_label
 _atom_site_symmetry_multiplicity
 _atom_site_fract_x
 _atom_site_fract_y
 _atom_site_fract_z
 _atom_site_occupancy
  Ba  Ba0  1  0.00000000  0.00000000  0.00000000  1
  Zn  Zn0  1  0.00000000  0.00000000  0.50000000  1
  Ag  Ag0  1  0.33333300  0.66666700  0.70879700  1
  Ag  Ag1  1  0.66666700  0.33333300  0.70879700  1
  Ag  Ag2  1  0.33333300  0.66666700  0.29120300  1
  Ag  Ag3  1  0.66666700  0.33333300  0.29120300  1
  O  O0  1  0.27931900  0.27931900  0.67890000  1
  O  O1  1  0.72068100  0.00000000  0.67890000  1
  O  O2  1  0.00000000  0.72068100  0.67890000  1
  O  O3  1  0.72068100  0.72068100  0.32110000  1
  O  O4  1  0.00000000  0.27931900  0.32110000  1
  O  O5  1  0.27931900  0.00000000  0.32110000  1
  O  O6  1  0.33333300  0.66666700  0.00000000  1
  O  O7  1  0.66666700  0.33333300  0.00000000  1
loop_
_geom_bond_atom_site_label_1
_geom_bond_atom_site_label_2
_geom_bond_distance
_geom_bond_site_symmetry_2
Ba0 O0 2.808171 1_554
Ba0 O3 2.808171 1_445
Ba0 O2 2.808171 1_544
Ba0 O1 2.808171 1_454
Ba0 O4 2.808171 1_555
Ba0 O5 2.808171 1_555
Ba0 O6 3.333737 1_545
Ba0 O7 3.333737 1_455
Ba0 O6 3.333742 1_445
Ba0 O7 3.333742 1_555
Ba0 O7 3.333742 1_445
Ba0 O6 3.333742 1_555
Ag0 O6 2.084778 1_556
Ag0 O2 2.109026 1_555
Ag0 O1 2.109029 1_565
Ag0 O0 2.109031 1_555
Ag1 O7 2.084778 1_556
Ag1 O1 2.109026 1_555
Ag1 O2 2.109029 1_655
Ag1 O0 2.109031 1_555
Ag2 O6 2.084778 1_555
Ag2 O5 2.109026 1_565
Ag2 O4 2.109029 1_555
Ag2 O3 2.109031 1_555
Ag3 O7 2.084778 1_555
Ag3 O4 2.109026 1_655
Ag3 O5 2.109029 1_555
Ag3 O3 2.109031 1_555
O0 Zn0 2.059531 1_555
O1 Zn0 2.059531 1_655
O2 Zn0 2.059531 1_565
O3 Zn0 2.059531 1_665
O4 Zn0 2.059531 1_555
O5 Zn0 2.059531 1_555
