# generated using pymatgen
data_NaYTi2O6
_symmetry_space_group_name_H-M   'P 1'
_cell_length_a   5.33532700
_cell_length_b   5.54697800
_cell_length_c   7.64367600
_cell_angle_alpha   90.00000000
_cell_angle_beta   90.00000000
_cell_angle_gamma   90.00000000
_symmetry_Int_Tables_number   1
_chemical_formula_structural   NaYTi2O6
_chemical_formula_sum   'Na2 Y2 Ti4 O12'
_cell_volume   226.21414400
_cell_formula_units_Z   2
loop_
 _symmetry_equiv_pos_site_id
 _symmetry_equiv_pos_as_xyz
  1  'x, y, z'
loop_
 _atom_site_type_symbol
 _atom_site_label
 _atom_site_symmetry_multiplicity
 _atom_site_fract_x
 _atom_site_fract_y
 _atom_site_fract_z
 _atom_site_occupancy
  Na  Na0  1  0.49456100  0.71547700  0.50000000  1
  Na  Na1  1  0.99456100  0.28452300  0.00000000  1
  Y  Y0  1  0.01659600  0.18049500  0.50000000  1
  Y  Y1  1  0.51659600  0.81950500  0.00000000  1
  Ti  Ti0  1  0.51221800  0.26459700  0.75267200  1
  Ti  Ti1  1  0.01221800  0.73540300  0.25267200  1
  Ti  Ti2  1  0.51221800  0.26459700  0.24732800  1
  Ti  Ti3  1  0.01221800  0.73540300  0.74732800  1
  O  O0  1  0.92302500  0.77209700  0.50000000  1
  O  O1  1  0.59887200  0.27564200  0.50000000  1
  O  O2  1  0.09887200  0.72435800  0.00000000  1
  O  O3  1  0.42302500  0.22790300  0.00000000  1
  O  O4  1  0.19223400  0.44588200  0.69868400  1
  O  O5  1  0.27902100  0.96348000  0.29000200  1
  O  O6  1  0.77902100  0.03652000  0.20999800  1
  O  O7  1  0.69223400  0.55411800  0.80131600  1
  O  O8  1  0.77902100  0.03652000  0.79000200  1
  O  O9  1  0.69223400  0.55411800  0.19868400  1
  O  O10  1  0.19223400  0.44588200  0.30131600  1
  O  O11  1  0.27902100  0.96348000  0.70999800  1
loop_
_geom_bond_atom_site_label_1
_geom_bond_atom_site_label_2
_geom_bond_distance
_geom_bond_site_symmetry_2
Na0 O0 2.307470 1_555
Na0 O11 2.406540 1_555
Na0 O5 2.406540 1_555
Na0 O1 2.502426 1_555
Na0 O4 2.672924 1_555
Na0 O10 2.672924 1_555
Na0 O7 2.686627 1_555
Na0 O9 2.686627 1_555
Na1 O3 2.307470 1_655
Na1 O6 2.406540 1_555
Na1 O8 2.406540 1_554
Na1 O2 2.502426 1_655
Na1 O9 2.672924 1_555
Na1 O7 2.672924 1_554
Na1 O10 2.686627 1_655
Na1 O4 2.686627 1_654
O0 Ti1 1.960065 1_655
O0 Ti3 1.960065 1_655
O0 Y0 2.319732 1_665
O1 Ti0 1.986853 1_555
O1 Ti2 1.986853 1_555
O1 Y0 2.290333 1_655
O2 Ti3 1.986853 1_554
O2 Ti1 1.986853 1_555
O2 Y1 2.290333 1_555
O3 Ti2 1.960065 1_555
O3 Ti0 1.960065 1_554
O3 Y1 2.319732 1_545
O4 Ti3 1.907834 1_555
O4 Ti0 2.023880 1_555
O4 Y0 2.313347 1_555
O5 Ti1 1.925692 1_555
O5 Ti2 2.108140 1_565
O5 Y0 2.446621 1_565
O5 Y1 2.675470 1_555
O6 Ti2 1.925692 1_555
O6 Ti1 2.108140 1_645
O6 Y1 2.446621 1_545
O6 Y0 2.675470 1_655
O7 Ti0 1.907834 1_555
O7 Ti3 2.023880 1_655
O7 Y1 2.313347 1_556
O8 Ti0 1.925692 1_555
O8 Ti3 2.108140 1_645
O8 Y1 2.446621 1_546
O8 Y0 2.675470 1_655
O9 Ti2 1.907834 1_555
O9 Ti1 2.023880 1_655
O9 Y1 2.313347 1_555
O10 Ti1 1.907834 1_555
O10 Ti2 2.023880 1_555
O10 Y0 2.313347 1_555
O11 Ti3 1.925692 1_555
O11 Ti0 2.108140 1_565
O11 Y0 2.446621 1_565
O11 Y1 2.675470 1_556
