# generated using pymatgen
data_Ti20(Sb3Se)3
_symmetry_space_group_name_H-M   'P 1'
_cell_length_a   6.98265124
_cell_length_b   8.28716700
_cell_length_c   10.19435319
_cell_angle_alpha   90.00000000
_cell_angle_beta   89.90872612
_cell_angle_gamma   90.00000000
_symmetry_Int_Tables_number   1
_chemical_formula_structural   Ti20(Sb3Se)3
_chemical_formula_sum   'Ti20 Sb9 Se3'
_cell_volume   589.90974004
_cell_formula_units_Z   1
loop_
 _symmetry_equiv_pos_site_id
 _symmetry_equiv_pos_as_xyz
  1  'x, y, z'
loop_
 _atom_site_type_symbol
 _atom_site_label
 _atom_site_symmetry_multiplicity
 _atom_site_fract_x
 _atom_site_fract_y
 _atom_site_fract_z
 _atom_site_occupancy
  Ti  Ti0  1  0.83356000  0.75000000  0.22616500  1
  Ti  Ti1  1  0.65285100  0.75000000  0.71162700  1
  Ti  Ti2  1  0.14977000  0.25000000  0.78784500  1
  Ti  Ti3  1  0.34837500  0.25000000  0.29104400  1
  Ti  Ti4  1  0.32812100  0.75000000  0.27339400  1
  Ti  Ti5  1  0.18191300  0.75000000  0.76009100  1
  Ti  Ti6  1  0.66803000  0.25000000  0.72389200  1
  Ti  Ti7  1  0.83298100  0.25000000  0.22637900  1
  Ti  Ti8  1  0.69006800  0.94847700  0.44419700  1
  Ti  Ti9  1  0.80182500  0.54144600  0.94301400  1
  Ti  Ti10  1  0.30813000  0.44776400  0.55405400  1
  Ti  Ti11  1  0.19561300  0.06680800  0.05663800  1
  Ti  Ti12  1  0.30813000  0.05223600  0.55405400  1
  Ti  Ti13  1  0.19561300  0.43319200  0.05663800  1
  Ti  Ti14  1  0.69006800  0.55152300  0.44419700  1
  Ti  Ti15  1  0.80182500  0.95855400  0.94301400  1
  Ti  Ti16  1  0.03040800  0.75000000  0.49582800  1
  Ti  Ti17  1  0.48526600  0.75000000  0.99372300  1
  Ti  Ti18  1  0.96954300  0.25000000  0.50401600  1
  Ti  Ti19  1  0.53238300  0.25000000  0.00135800  1
  Sb  Sb0  1  0.56984000  0.50709700  0.17696900  1
  Sb  Sb1  1  0.92835600  0.99059400  0.67591400  1
  Sb  Sb2  1  0.42710500  0.01104700  0.82252900  1
  Sb  Sb3  1  0.07148300  0.48969100  0.32486600  1
  Sb  Sb4  1  0.42710500  0.48895300  0.82252900  1
  Sb  Sb5  1  0.07148300  0.01030900  0.32486600  1
  Sb  Sb6  1  0.56984000  0.99290300  0.17696900  1
  Sb  Sb7  1  0.92835600  0.50940600  0.67591400  1
  Sb  Sb8  1  0.08685100  0.75000000  0.02378100  1
  Se  Se0  1  0.41656800  0.75000000  0.52082300  1
  Se  Se1  1  0.91601900  0.25000000  0.98146200  1
  Se  Se2  1  0.58252200  0.25000000  0.48220700  1
loop_
_geom_bond_atom_site_label_1
_geom_bond_atom_site_label_2
_geom_bond_distance
_geom_bond_site_symmetry_2
Sb0 Ti0 2.774444 1_555
Sb0 Ti19 2.795414 1_555
Sb0 Ti4 2.803902 1_555
Sb0 Ti17 2.809635 1_554
Sb0 Ti7 2.858717 1_555
Sb0 Ti14 2.875581 1_555
Sb0 Ti3 2.877069 1_555
Sb0 Ti9 2.894999 1_554
Sb0 Ti13 2.952691 1_555
Sb1 Ti18 2.788074 1_565
Sb1 Ti1 2.794022 1_555
Sb1 Ti16 2.801680 1_655
Sb1 Ti5 2.802018 1_655
Sb1 Ti6 2.856930 1_565
Sb1 Ti15 2.873621 1_555
Sb1 Ti2 2.884324 1_665
Sb1 Ti8 2.912535 1_555
Sb1 Ti12 2.970846 1_665
Sb2 Ti6 2.785176 1_555
Sb2 Ti19 2.790973 1_556
Sb2 Ti2 2.792620 1_555
Sb2 Ti17 2.809448 1_545
Sb2 Ti5 2.831946 1_545
Sb2 Ti12 2.881788 1_555
Sb2 Ti1 2.904703 1_545
Sb2 Ti11 2.917173 1_556
Sb2 Ti15 2.924790 1_545
Sb3 Ti7 2.780731 1_455
Sb3 Ti16 2.787795 1_555
Sb3 Ti18 2.789910 1_455
Sb3 Ti3 2.792951 1_555
Sb3 Ti4 2.852590 1_555
Sb3 Ti10 2.884858 1_555
Sb3 Ti0 2.903686 1_455
Sb3 Ti13 2.905158 1_555
Sb3 Ti14 2.970728 1_455
Sb4 Ti6 2.785176 1_555
Sb4 Ti19 2.790973 1_556
Sb4 Ti2 2.792620 1_555
Sb4 Ti17 2.809448 1_555
Sb4 Ti5 2.831946 1_555
Sb4 Ti10 2.881788 1_555
Sb4 Ti1 2.904703 1_555
Sb4 Ti13 2.917173 1_556
Sb4 Ti9 2.924790 1_555
Sb5 Ti7 2.780731 1_455
Sb5 Ti16 2.787795 1_545
Sb5 Ti18 2.789910 1_455
Sb5 Ti3 2.792951 1_555
Sb5 Ti4 2.852590 1_545
Sb5 Ti12 2.884858 1_555
Sb5 Ti0 2.903686 1_445
Sb5 Ti11 2.905158 1_555
Sb5 Ti8 2.970728 1_445
Sb6 Ti0 2.774444 1_555
Sb6 Ti19 2.795414 1_565
Sb6 Ti4 2.803902 1_555
Sb6 Ti17 2.809635 1_554
Sb6 Ti7 2.858717 1_565
Sb6 Ti8 2.875581 1_555
Sb6 Ti3 2.877069 1_565
Sb6 Ti15 2.894999 1_554
Sb6 Ti11 2.952691 1_565
Sb7 Ti18 2.788074 1_555
Sb7 Ti1 2.794022 1_555
Sb7 Ti16 2.801680 1_655
Sb7 Ti5 2.802018 1_655
Sb7 Ti6 2.856930 1_555
Sb7 Ti9 2.873621 1_555
Sb7 Ti2 2.884324 1_655
Sb7 Ti14 2.912535 1_555
Sb7 Ti10 2.970846 1_655
Sb8 Ti0 2.715356 1_455
Sb8 Ti11 2.753671 1_565
Sb8 Ti13 2.753671 1_555
Sb8 Ti9 2.762480 1_454
Sb8 Ti15 2.762480 1_454
Sb8 Ti5 2.767864 1_554
Sb8 Ti17 2.798332 1_554
Sb8 Ti4 3.054029 1_555
Se0 Ti1 2.552614 1_555
Se0 Ti4 2.597841 1_555
Se0 Ti8 2.637805 1_555
Se0 Ti14 2.637805 1_555
Se0 Ti12 2.638314 1_565
Se0 Ti10 2.638314 1_555
Se0 Ti16 2.708837 1_555
Se0 Ti5 2.936257 1_555
Se1 Ti2 2.559239 1_655
Se1 Ti7 2.562313 1_556
Se1 Ti9 2.573698 1_555
Se1 Ti15 2.573698 1_545
Se1 Ti11 2.590049 1_656
Se1 Ti13 2.590049 1_656
Se1 Ti19 2.686142 1_556
Se1 Ti6 3.147636 1_555
Se2 Ti6 2.536060 1_555
Se2 Ti3 2.545785 1_555
Se2 Ti10 2.624688 1_555
Se2 Ti12 2.624688 1_555
Se2 Ti14 2.637615 1_555
Se2 Ti8 2.637615 1_545
Se2 Ti18 2.711916 1_555
Se2 Ti7 3.137782 1_555
