# generated using pymatgen
data_MgBi2
_symmetry_space_group_name_H-M   'P 1'
_cell_length_a   9.12626073
_cell_length_b   9.12626073
_cell_length_c   5.67930000
_cell_angle_alpha   90.00000000
_cell_angle_beta   90.00000000
_cell_angle_gamma   158.32250310
_symmetry_Int_Tables_number   1
_chemical_formula_structural   MgBi2
_chemical_formula_sum   'Mg2 Bi4'
_cell_volume   174.72540605
_cell_formula_units_Z   2
loop_
 _symmetry_equiv_pos_site_id
 _symmetry_equiv_pos_as_xyz
  1  'x, y, z'
loop_
 _atom_site_type_symbol
 _atom_site_label
 _atom_site_symmetry_multiplicity
 _atom_site_fract_x
 _atom_site_fract_y
 _atom_site_fract_z
 _atom_site_occupancy
  Mg  Mg0  1  0.21759900  0.78240100  0.25000000  1
  Mg  Mg1  1  0.78240100  0.21759900  0.75000000  1
  Bi  Bi0  1  0.55884400  0.44115600  0.25000000  1
  Bi  Bi1  1  0.86582900  0.13417100  0.25000000  1
  Bi  Bi2  1  0.13417100  0.86582900  0.75000000  1
  Bi  Bi3  1  0.44115600  0.55884400  0.75000000  1
loop_
_geom_bond_atom_site_label_1
_geom_bond_atom_site_label_2
_geom_bond_distance
_geom_bond_site_symmetry_2
Bi0 Mg0 3.323374 1_655
Bi0 Mg0 3.323374 1_545
Bi1 Mg0 3.163297 1_545
Bi1 Mg0 3.163297 1_655
Bi1 Mg1 3.209431 1_555
Bi1 Mg1 3.209431 1_554
Bi2 Mg1 3.163297 1_455
Bi2 Mg1 3.163297 1_565
Bi2 Mg0 3.209431 1_555
Bi2 Mg0 3.209431 1_556
Bi3 Mg1 3.323374 1_565
Bi3 Mg1 3.323374 1_455
