# generated using pymatgen
data_CsAg3Se2
_symmetry_space_group_name_H-M   'P 1'
_cell_length_a   8.65641211
_cell_length_b   8.65641211
_cell_length_c   9.26675935
_cell_angle_alpha   68.54698510
_cell_angle_beta   68.54698510
_cell_angle_gamma   29.64337516
_symmetry_Int_Tables_number   1
_chemical_formula_structural   CsAg3Se2
_chemical_formula_sum   'Cs2 Ag6 Se4'
_cell_volume   317.91797451
_cell_formula_units_Z   2
loop_
 _symmetry_equiv_pos_site_id
 _symmetry_equiv_pos_as_xyz
  1  'x, y, z'
loop_
 _atom_site_type_symbol
 _atom_site_label
 _atom_site_symmetry_multiplicity
 _atom_site_fract_x
 _atom_site_fract_y
 _atom_site_fract_z
 _atom_site_occupancy
  Cs  Cs0  1  0.86299565  0.86299565  0.04716409  1
  Cs  Cs1  1  0.13700435  0.13700435  0.95283591  1
  Ag  Ag0  1  0.31113503  0.31113503  0.43901936  1
  Ag  Ag1  1  0.94213350  0.94213350  0.40568523  1
  Ag  Ag2  1  0.58864812  0.58864812  0.36546357  1
  Ag  Ag3  1  0.41135188  0.41135188  0.63453643  1
  Ag  Ag4  1  0.05786650  0.05786650  0.59431477  1
  Ag  Ag5  1  0.68886497  0.68886497  0.56098064  1
  Se  Se0  1  0.47734329  0.47734329  0.22974025  1
  Se  Se1  1  0.52265671  0.52265671  0.77025975  1
  Se  Se2  1  0.80561382  0.80561382  0.68535921  1
  Se  Se3  1  0.19438618  0.19438618  0.31464079  1
loop_
_geom_bond_atom_site_label_1
_geom_bond_atom_site_label_2
_geom_bond_distance
_geom_bond_site_symmetry_2
Cs0 Se1 3.666117 1_654
Cs0 Se1 3.666117 1_564
Cs0 Se3 3.703823 1_565
Cs0 Se3 3.703823 1_655
Cs0 Se0 3.725424 1_655
Cs0 Se0 3.725424 1_565
Cs0 Se2 3.820957 1_554
Cs1 Se0 3.666117 1_456
Cs1 Se0 3.666117 1_546
Cs1 Se2 3.703823 1_455
Cs1 Se2 3.703823 1_545
Cs1 Se1 3.725424 1_455
Cs1 Se1 3.725424 1_545
Cs1 Se3 3.820957 1_556
Ag0 Se3 2.617377 1_555
Ag0 Se0 2.723485 1_555
Ag0 Se2 3.156516 1_545
Ag0 Se2 3.156516 1_455
Ag1 Se0 2.679967 1_655
Ag1 Se0 2.679967 1_565
Ag1 Se2 2.730723 1_555
Ag2 Se0 2.612470 1_555
Ag2 Se3 2.761641 1_565
Ag2 Se3 2.761641 1_655
Ag3 Se1 2.612470 1_555
Ag3 Se2 2.761641 1_455
Ag3 Se2 2.761641 1_545
Ag4 Se1 2.679967 1_455
Ag4 Se1 2.679967 1_545
Ag4 Se3 2.730723 1_555
Ag5 Se2 2.617377 1_555
Ag5 Se1 2.723485 1_555
Ag5 Se3 3.156516 1_655
Ag5 Se3 3.156516 1_565
