# generated using pymatgen
data_BaHg11
_symmetry_space_group_name_H-M   'P 1'
_cell_length_a   9.99592097
_cell_length_b   9.99592097
_cell_length_c   9.99592097
_cell_angle_alpha   90.00000000
_cell_angle_beta   90.00000000
_cell_angle_gamma   90.00000000
_symmetry_Int_Tables_number   1
_chemical_formula_structural   BaHg11
_chemical_formula_sum   'Ba3 Hg33'
_cell_volume   998.77679009
_cell_formula_units_Z   3
loop_
 _symmetry_equiv_pos_site_id
 _symmetry_equiv_pos_as_xyz
  1  'x, y, z'
loop_
 _atom_site_type_symbol
 _atom_site_label
 _atom_site_symmetry_multiplicity
 _atom_site_fract_x
 _atom_site_fract_y
 _atom_site_fract_z
 _atom_site_occupancy
  Ba  Ba0  1  0.00000000  0.00000000  0.50000000  1
  Ba  Ba1  1  0.00000000  0.50000000  -0.00000000  1
  Ba  Ba2  1  0.50000000  0.00000000  -0.00000000  1
  Hg  Hg0  1  0.50000000  0.50000000  0.50000000  1
  Hg  Hg1  1  0.15328846  0.15328846  0.15328846  1
  Hg  Hg2  1  0.15328846  0.84671154  0.15328846  1
  Hg  Hg3  1  0.15328846  0.15328846  0.84671154  1
  Hg  Hg4  1  0.84671154  0.15328846  0.15328846  1
  Hg  Hg5  1  0.84671154  0.84671154  0.15328846  1
  Hg  Hg6  1  0.15328846  0.84671154  0.84671154  1
  Hg  Hg7  1  0.84671154  0.15328846  0.84671154  1
  Hg  Hg8  1  0.84671154  0.84671154  0.84671154  1
  Hg  Hg9  1  0.34529774  0.34529774  -0.00000000  1
  Hg  Hg10  1  0.34529774  0.00000000  0.34529774  1
  Hg  Hg11  1  0.34529774  0.00000000  0.65470226  1
  Hg  Hg12  1  0.00000000  0.34529774  0.65470226  1
  Hg  Hg13  1  0.00000000  0.34529774  0.34529774  1
  Hg  Hg14  1  0.65470226  0.34529774  -0.00000000  1
  Hg  Hg15  1  0.34529774  0.65470226  -0.00000000  1
  Hg  Hg16  1  0.65470226  0.00000000  0.34529774  1
  Hg  Hg17  1  0.00000000  0.65470226  0.65470226  1
  Hg  Hg18  1  0.65470226  0.00000000  0.65470226  1
  Hg  Hg19  1  0.00000000  0.65470226  0.34529774  1
  Hg  Hg20  1  0.65470226  0.65470226  -0.00000000  1
  Hg  Hg21  1  0.26743978  0.26743978  0.50000000  1
  Hg  Hg22  1  0.26743978  0.50000000  0.26743978  1
  Hg  Hg23  1  0.26743978  0.50000000  0.73256022  1
  Hg  Hg24  1  0.50000000  0.26743978  0.73256022  1
  Hg  Hg25  1  0.50000000  0.26743978  0.26743978  1
  Hg  Hg26  1  0.73256022  0.26743978  0.50000000  1
  Hg  Hg27  1  0.26743978  0.73256022  0.50000000  1
  Hg  Hg28  1  0.73256022  0.50000000  0.26743978  1
  Hg  Hg29  1  0.50000000  0.73256022  0.73256022  1
  Hg  Hg30  1  0.73256022  0.50000000  0.73256022  1
  Hg  Hg31  1  0.50000000  0.73256022  0.26743978  1
  Hg  Hg32  1  0.73256022  0.73256022  0.50000000  1
loop_
_geom_bond_atom_site_label_1
_geom_bond_atom_site_label_2
_geom_bond_distance
_geom_bond_site_symmetry_2
Ba0 Hg26 3.780627 1_455
Ba0 Hg27 3.780627 1_545
Ba0 Hg32 3.780627 1_445
Ba0 Hg21 3.780627 1_555
Ba0 Hg17 3.782150 1_545
Ba0 Hg12 3.782150 1_555
Ba0 Hg11 3.782150 1_555
Ba0 Hg13 3.782150 1_555
Ba0 Hg16 3.782150 1_455
Ba0 Hg18 3.782150 1_455
Ba0 Hg19 3.782150 1_545
Ba0 Hg10 3.782150 1_555
Ba0 Hg4 4.087386 1_455
Ba0 Hg8 4.087386 1_445
Ba0 Hg5 4.087386 1_445
Ba0 Hg2 4.087386 1_545
Ba0 Hg7 4.087386 1_455
Ba0 Hg1 4.087386 1_555
Ba0 Hg3 4.087386 1_555
Ba0 Hg6 4.087386 1_545
Ba1 Hg22 3.780627 1_555
Ba1 Hg23 3.780627 1_554
Ba1 Hg30 3.780627 1_454
Ba1 Hg28 3.780627 1_455
Ba1 Hg14 3.782150 1_455
Ba1 Hg12 3.782150 1_554
Ba1 Hg20 3.782150 1_455
Ba1 Hg15 3.782150 1_555
Ba1 Hg17 3.782150 1_554
Ba1 Hg13 3.782150 1_555
Ba1 Hg9 3.782150 1_555
Ba1 Hg19 3.782150 1_555
Ba1 Hg7 4.087386 1_454
Ba1 Hg4 4.087386 1_455
Ba1 Hg5 4.087386 1_455
Ba1 Hg3 4.087386 1_554
Ba1 Hg8 4.087386 1_454
Ba1 Hg1 4.087386 1_555
Ba1 Hg6 4.087386 1_554
Ba1 Hg2 4.087386 1_555
Ba2 Hg31 3.780627 1_545
Ba2 Hg24 3.780627 1_554
Ba2 Hg29 3.780627 1_544
Ba2 Hg25 3.780627 1_555
Ba2 Hg15 3.782150 1_545
Ba2 Hg20 3.782150 1_545
Ba2 Hg11 3.782150 1_554
Ba2 Hg14 3.782150 1_555
Ba2 Hg18 3.782150 1_554
Ba2 Hg9 3.782150 1_555
Ba2 Hg10 3.782150 1_555
Ba2 Hg16 3.782150 1_555
Ba2 Hg3 4.087386 1_554
Ba2 Hg6 4.087386 1_544
Ba2 Hg8 4.087386 1_544
Ba2 Hg5 4.087386 1_545
Ba2 Hg2 4.087386 1_545
Ba2 Hg1 4.087386 1_555
Ba2 Hg7 4.087386 1_554
Ba2 Hg4 4.087386 1_555
Hg0 Hg31 3.287557 1_555
Hg0 Hg28 3.287557 1_555
Hg0 Hg25 3.287557 1_555
Hg0 Hg32 3.287557 1_555
Hg0 Hg22 3.287557 1_555
Hg0 Hg29 3.287557 1_555
Hg0 Hg26 3.287557 1_555
Hg0 Hg24 3.287557 1_555
Hg0 Hg30 3.287557 1_555
Hg0 Hg21 3.287557 1_555
Hg0 Hg23 3.287557 1_555
Hg0 Hg27 3.287557 1_555
Hg1 Hg3 3.064519 1_554
Hg1 Hg2 3.064519 1_545
Hg1 Hg4 3.064519 1_455
Hg1 Hg9 3.116940 1_555
Hg1 Hg10 3.116940 1_555
Hg1 Hg13 3.116940 1_555
Hg2 Hg5 3.064519 1_455
Hg2 Hg6 3.064519 1_554
Hg3 Hg6 3.064519 1_545
Hg3 Hg7 3.064519 1_455
Hg3 Hg9 3.116940 1_556
Hg4 Hg7 3.064519 1_554
Hg4 Hg5 3.064519 1_545
Hg5 Hg8 3.064519 1_554
Hg6 Hg8 3.064519 1_455
Hg7 Hg8 3.064519 1_545
Hg10 Hg11 3.092783 1_555
Hg10 Hg16 3.092783 1_555
Hg10 Hg2 3.116940 1_545
Hg10 Hg31 3.184900 1_545
Hg10 Hg25 3.184900 1_555
Hg10 Hg27 3.184900 1_545
Hg10 Hg21 3.184900 1_555
Hg11 Hg18 3.092783 1_555
Hg11 Hg6 3.116940 1_545
Hg11 Hg3 3.116940 1_555
Hg11 Hg24 3.184900 1_555
Hg11 Hg29 3.184900 1_545
Hg11 Hg27 3.184900 1_545
Hg11 Hg21 3.184900 1_555
Hg12 Hg13 3.092783 1_555
Hg12 Hg17 3.092783 1_555
Hg12 Hg7 3.116940 1_455
Hg12 Hg3 3.116940 1_555
Hg12 Hg26 3.184900 1_455
Hg12 Hg21 3.184900 1_555
Hg12 Hg23 3.184900 1_555
Hg12 Hg30 3.184900 1_455
Hg13 Hg19 3.092783 1_555
Hg13 Hg4 3.116940 1_455
Hg13 Hg28 3.184900 1_455
Hg13 Hg22 3.184900 1_555
Hg13 Hg26 3.184900 1_455
Hg13 Hg21 3.184900 1_555
Hg14 Hg20 3.092783 1_555
Hg14 Hg9 3.092783 1_555
Hg14 Hg7 3.116940 1_554
Hg14 Hg4 3.116940 1_555
Hg14 Hg24 3.184900 1_554
Hg14 Hg30 3.184900 1_554
Hg14 Hg28 3.184900 1_555
Hg14 Hg25 3.184900 1_555
Hg15 Hg20 3.092783 1_555
Hg15 Hg9 3.092783 1_555
Hg15 Hg6 3.116940 1_554
Hg15 Hg2 3.116940 1_555
Hg15 Hg22 3.184900 1_555
Hg15 Hg29 3.184900 1_554
Hg15 Hg23 3.184900 1_554
Hg15 Hg31 3.184900 1_555
Hg16 Hg18 3.092783 1_555
Hg16 Hg5 3.116940 1_545
Hg16 Hg4 3.116940 1_555
Hg16 Hg31 3.184900 1_545
Hg16 Hg25 3.184900 1_555
Hg16 Hg26 3.184900 1_555
Hg16 Hg32 3.184900 1_545
Hg17 Hg19 3.092783 1_555
Hg17 Hg8 3.116940 1_455
Hg17 Hg6 3.116940 1_555
Hg17 Hg32 3.184900 1_455
Hg17 Hg23 3.184900 1_555
Hg17 Hg30 3.184900 1_455
Hg17 Hg27 3.184900 1_555
Hg18 Hg8 3.116940 1_545
Hg18 Hg7 3.116940 1_555
Hg18 Hg24 3.184900 1_555
Hg18 Hg29 3.184900 1_545
Hg18 Hg26 3.184900 1_555
Hg18 Hg32 3.184900 1_545
Hg19 Hg5 3.116940 1_455
Hg19 Hg2 3.116940 1_555
Hg19 Hg28 3.184900 1_455
Hg19 Hg22 3.184900 1_555
Hg19 Hg32 3.184900 1_455
Hg19 Hg27 3.184900 1_555
Hg20 Hg5 3.116940 1_555
Hg20 Hg8 3.116940 1_554
Hg20 Hg29 3.184900 1_554
Hg20 Hg30 3.184900 1_554
Hg20 Hg31 3.184900 1_555
Hg20 Hg28 3.184900 1_555
Hg21 Hg25 3.287557 1_555
Hg21 Hg22 3.287557 1_555
Hg21 Hg24 3.287557 1_555
Hg21 Hg23 3.287557 1_555
Hg22 Hg9 3.184900 1_555
Hg22 Hg31 3.287557 1_555
Hg22 Hg25 3.287557 1_555
Hg22 Hg27 3.287557 1_555
Hg23 Hg9 3.184900 1_556
Hg23 Hg27 3.287557 1_555
Hg23 Hg29 3.287557 1_555
Hg23 Hg24 3.287557 1_555
Hg24 Hg9 3.184900 1_556
Hg24 Hg26 3.287557 1_555
Hg24 Hg30 3.287557 1_555
Hg25 Hg9 3.184900 1_555
Hg25 Hg28 3.287557 1_555
Hg25 Hg26 3.287557 1_555
Hg26 Hg28 3.287557 1_555
Hg26 Hg30 3.287557 1_555
Hg27 Hg31 3.287557 1_555
Hg27 Hg29 3.287557 1_555
Hg28 Hg31 3.287557 1_555
Hg28 Hg32 3.287557 1_555
Hg29 Hg32 3.287557 1_555
Hg29 Hg30 3.287557 1_555
Hg30 Hg32 3.287557 1_555
Hg31 Hg32 3.287557 1_555
