# generated using pymatgen
data_BaIn3Pt
_symmetry_space_group_name_H-M   'P 1'
_cell_length_a   6.77262805
_cell_length_b   6.77262805
_cell_length_c   6.77262805
_cell_angle_alpha   138.33117605
_cell_angle_beta   138.33117605
_cell_angle_gamma   60.39616392
_symmetry_Int_Tables_number   1
_chemical_formula_structural   BaIn3Pt
_chemical_formula_sum   'Ba1 In3 Pt1'
_cell_volume   135.85713004
_cell_formula_units_Z   1
loop_
 _symmetry_equiv_pos_site_id
 _symmetry_equiv_pos_as_xyz
  1  'x, y, z'
loop_
 _atom_site_type_symbol
 _atom_site_label
 _atom_site_symmetry_multiplicity
 _atom_site_fract_x
 _atom_site_fract_y
 _atom_site_fract_z
 _atom_site_occupancy
  Ba  Ba0  1  0.99737513  0.99737513  -0.00000000  1
  In  In0  1  0.73808097  0.23808097  0.50000000  1
  In  In1  1  0.23808097  0.73808097  0.50000000  1
  In  In2  1  0.39889515  0.39889515  0.00000000  1
  Pt  Pt0  1  0.62756677  0.62756677  -0.00000000  1
loop_
_geom_bond_atom_site_label_1
_geom_bond_atom_site_label_2
_geom_bond_distance
_geom_bond_site_symmetry_2
Ba0 In2 3.596377 1_666
Ba0 In2 3.596377 1_565
Ba0 In2 3.596377 1_655
Ba0 In2 3.596377 1_554
Ba0 In0 3.707187 1_564
Ba0 In0 3.707187 1_665
Ba0 In1 3.707187 1_654
Ba0 In1 3.707187 1_665
Ba0 Pt0 3.731996 1_565
Ba0 Pt0 3.731996 1_655
Ba0 Pt0 3.731996 1_666
Ba0 Pt0 3.731996 1_554
Ba0 In0 3.875184 1_554
Ba0 In1 3.875184 1_655
Ba0 In0 3.875184 1_565
Ba0 In1 3.875184 1_554
In0 Pt0 2.734277 1_545
In0 Pt0 2.734277 1_556
In0 In2 3.057249 1_656
In0 In2 3.057249 1_555
In1 Pt0 2.734277 1_455
In1 Pt0 2.734277 1_556
In1 In2 3.057249 1_566
In1 In2 3.057249 1_555
In2 Pt0 2.677070 1_555
