# generated using pymatgen
data_Mn2GaMo
_symmetry_space_group_name_H-M   'P 1'
_cell_length_a   10.42976280
_cell_length_b   10.42976280
_cell_length_c   10.42976280
_cell_angle_alpha   120.62431404
_cell_angle_beta   119.04138326
_cell_angle_gamma   90.29519814
_symmetry_Int_Tables_number   1
_chemical_formula_structural   Mn2GaMo
_chemical_formula_sum   'Mn2 Ga1 Mo1'
_cell_volume   804.07203858
_cell_formula_units_Z   1
loop_
 _symmetry_equiv_pos_site_id
 _symmetry_equiv_pos_as_xyz
  1  'x, y, z'
loop_
 _atom_site_type_symbol
 _atom_site_label
 _atom_site_symmetry_multiplicity
 _atom_site_fract_x
 _atom_site_fract_y
 _atom_site_fract_z
 _atom_site_occupancy
  Mn  Mn0  1  0.22912900  0.00000000  0.22912900  1
  Mn  Mn1  1  0.77087100  0.00000000  0.77087100  1
  Ga  Ga0  1  0.00000000  0.00000000  0.00000000  1
  Mo  Mo0  1  0.50000000  0.00000000  0.50000000  1
loop_
_geom_bond_atom_site_label_1
_geom_bond_atom_site_label_2
_geom_bond_distance
_geom_bond_site_symmetry_2
Mn0 Mo0 2.865955 1_555
Mn1 Mo0 2.865955 1_555
Ga0 Mn0 2.424304 1_555
Ga0 Mn1 2.424304 1_454
