# generated using pymatgen
data_Li4Nb2Fe3Sb3O16
_symmetry_space_group_name_H-M   'P 1'
_cell_length_a   6.27980100
_cell_length_b   6.28520342
_cell_length_c   10.00793989
_cell_angle_alpha   90.63201005
_cell_angle_beta   89.72362299
_cell_angle_gamma   119.89927603
_symmetry_Int_Tables_number   1
_chemical_formula_structural   Li4Nb2Fe3Sb3O16
_chemical_formula_sum   'Li4 Nb2 Fe3 Sb3 O16'
_cell_volume   342.41586937
_cell_formula_units_Z   1
loop_
 _symmetry_equiv_pos_site_id
 _symmetry_equiv_pos_as_xyz
  1  'x, y, z'
loop_
 _atom_site_type_symbol
 _atom_site_label
 _atom_site_symmetry_multiplicity
 _atom_site_fract_x
 _atom_site_fract_y
 _atom_site_fract_z
 _atom_site_occupancy
  Li  Li0  1  0.33371100  0.66361700  0.89511300  1
  Li  Li1  1  0.00894200  0.01980100  0.98344200  1
  Li  Li2  1  0.00341000  0.01190000  0.49843900  1
  Li  Li3  1  0.66987900  0.33636500  0.41175800  1
  Nb  Nb0  1  0.32849500  0.65449000  0.49704900  1
  Nb  Nb1  1  0.65298500  0.31030300  0.98125600  1
  Fe  Fe0  1  0.16438700  0.33048600  0.21047400  1
  Fe  Fe1  1  0.83047200  0.16816500  0.71120800  1
  Fe  Fe2  1  0.33821900  0.16950300  0.71081200  1
  Sb  Sb0  1  0.65129400  0.81789500  0.21663300  1
  Sb  Sb1  1  0.16479800  0.81996300  0.21689800  1
  Sb  Sb2  1  0.82752900  0.65497400  0.71587100  1
  O  O0  1  0.66168400  0.80703800  0.59637000  1
  O  O1  1  0.48810900  0.95684400  0.37482200  1
  O  O2  1  0.33343800  0.64415400  0.09587000  1
  O  O3  1  0.98465700  0.00165000  0.31466000  1
  O  O4  1  0.99232400  0.98442700  0.80049500  1
  O  O5  1  0.14775100  0.80820600  0.59385600  1
  O  O6  1  0.48682100  0.52735500  0.34832400  1
  O  O7  1  0.04780600  0.52205600  0.34980900  1
  O  O8  1  0.82647100  0.66523600  0.09637100  1
  O  O9  1  0.17233400  0.33927000  0.59113600  1
  O  O10  1  0.96363900  0.50349000  0.84376000  1
  O  O11  1  0.53886800  0.50234600  0.84201000  1
  O  O12  1  0.67693200  0.35002500  0.60718600  1
  O  O13  1  0.83032700  0.17977400  0.08226300  1
  O  O14  1  0.52506500  0.05114200  0.84659500  1
  O  O15  1  0.34995200  0.19952500  0.07536300  1
loop_
_geom_bond_atom_site_label_1
_geom_bond_atom_site_label_2
_geom_bond_distance
_geom_bond_site_symmetry_2
Li0 O2 2.014172 1_556
Li0 O11 2.062311 1_555
Li0 O10 2.084760 1_455
Li0 O14 2.171357 1_565
Li1 O4 1.839112 1_445
Li1 O15 2.071869 1_556
Li1 O13 2.083008 1_456
Li1 O8 2.248082 1_446
Li2 O3 1.841947 1_455
Li2 O9 2.002734 1_555
Li2 O0 2.115772 1_445
Li2 O5 2.136544 1_545
Li3 O12 1.956515 1_555
Li3 O1 2.097536 1_545
Li3 O6 2.136615 1_555
Li3 O7 2.149280 1_655
Nb0 O9 1.966936 1_555
Nb0 O5 2.054842 1_555
Nb0 O1 2.062234 1_555
Nb0 O0 2.069855 1_555
Nb0 O7 2.122859 1_555
Nb0 O6 2.143368 1_555
Nb1 O15 1.915566 1_556
Nb1 O14 1.942241 1_555
Nb1 O13 1.968557 1_556
Nb1 O11 2.195816 1_555
Nb1 O10 2.196149 1_555
Nb1 O8 2.241245 1_556
Fe0 O2 2.069004 1_555
Fe0 O3 2.084063 1_455
Fe0 O7 2.182237 1_555
Fe0 O15 2.186408 1_555
Fe0 O13 2.227696 1_455
Fe0 O6 2.241815 1_555
Fe1 O4 2.089713 1_545
Fe1 O12 2.110605 1_555
Fe1 O14 2.155401 1_555
Fe1 O9 2.216150 1_655
Fe1 O10 2.256755 1_555
Fe1 O0 2.269772 1_545
Fe2 O4 2.088574 1_445
Fe2 O12 2.117990 1_555
Fe2 O14 2.164423 1_555
Fe2 O9 2.192400 1_555
Fe2 O11 2.239540 1_555
Fe2 O5 2.281306 1_545
O0 Sb2 2.111407 1_555
O1 Sb0 2.272723 1_555
O1 Sb1 2.370632 1_555
O2 Sb0 2.111526 1_555
O2 Sb1 2.221352 1_555
O3 Sb0 2.064766 1_545
O3 Sb1 2.189422 1_645
O4 Sb2 1.977205 1_555
O5 Sb2 2.129310 1_455
O6 Sb0 2.073176 1_555
O7 Sb1 2.118746 1_555
O8 Sb0 2.143231 1_555
O8 Sb1 2.203116 1_655
O10 Sb2 2.030768 1_555
O11 Sb2 2.017641 1_555
O12 Sb2 1.976851 1_555
O13 Sb0 2.397749 1_545
O15 Sb1 2.518494 1_545
