# generated using pymatgen
data_Te6IrBr3
_symmetry_space_group_name_H-M   'P 1'
_cell_length_a   9.30018628
_cell_length_b   9.30018628
_cell_length_c   9.30018661
_cell_angle_alpha   108.11488521
_cell_angle_beta   108.11488521
_cell_angle_gamma   108.11488403
_symmetry_Int_Tables_number   1
_chemical_formula_structural   Te6IrBr3
_chemical_formula_sum   'Te12 Ir2 Br6'
_cell_volume   648.46449358
_cell_formula_units_Z   2
loop_
 _symmetry_equiv_pos_site_id
 _symmetry_equiv_pos_as_xyz
  1  'x, y, z'
loop_
 _atom_site_type_symbol
 _atom_site_label
 _atom_site_symmetry_multiplicity
 _atom_site_fract_x
 _atom_site_fract_y
 _atom_site_fract_z
 _atom_site_occupancy
  Te  Te0  1  0.92667040  0.17007714  0.18881301  1
  Te  Te1  1  0.18881301  0.92667040  0.17007714  1
  Te  Te2  1  0.17007714  0.18881301  0.92667040  1
  Te  Te3  1  0.68881301  0.67007714  0.42667040  1
  Te  Te4  1  0.42667040  0.68881301  0.67007714  1
  Te  Te5  1  0.67007714  0.42667040  0.68881301  1
  Te  Te6  1  0.07332960  0.82992286  0.81118699  1
  Te  Te7  1  0.81118699  0.07332960  0.82992286  1
  Te  Te8  1  0.82992286  0.81118699  0.07332960  1
  Te  Te9  1  0.31118699  0.32992286  0.57332960  1
  Te  Te10  1  0.57332960  0.31118699  0.32992286  1
  Te  Te11  1  0.32992286  0.57332960  0.31118699  1
  Ir  Ir0  1  0.25000000  0.25000000  0.25000000  1
  Ir  Ir1  1  0.75000000  0.75000000  0.75000000  1
  Br  Br0  1  0.98325168  0.51674832  0.25000000  1
  Br  Br1  1  0.25000000  0.98325168  0.51674832  1
  Br  Br2  1  0.51674832  0.25000000  0.98325168  1
  Br  Br3  1  0.75000000  0.01674832  0.48325168  1
  Br  Br4  1  0.48325168  0.75000000  0.01674832  1
  Br  Br5  1  0.01674832  0.48325168  0.75000000  1
loop_
_geom_bond_atom_site_label_1
_geom_bond_atom_site_label_2
_geom_bond_distance
_geom_bond_site_symmetry_2
Te0 Te8 2.899307 1_545
Te0 Te7 2.899308 1_554
Te1 Te8 2.899307 1_455
Te1 Te6 2.899308 1_554
Te2 Te6 2.899307 1_545
Te2 Te7 2.899307 1_455
Te4 Te9 2.899307 1_555
Te5 Te9 2.899307 1_555
Te10 Te3 2.899307 1_555
Te10 Te5 2.899308 1_555
Te11 Te3 2.899307 1_555
Te11 Te4 2.899308 1_555
Ir0 Te10 2.683564 1_555
Ir0 Te1 2.683564 1_545
Ir0 Te11 2.683564 1_555
Ir0 Te0 2.683564 1_455
Ir0 Te9 2.683564 1_555
Ir0 Te2 2.683564 1_554
Ir1 Te4 2.683564 1_555
Ir1 Te7 2.683564 1_565
Ir1 Te5 2.683564 1_555
Ir1 Te6 2.683564 1_655
Ir1 Te3 2.683564 1_555
Ir1 Te8 2.683564 1_556
Br0 Te11 2.934872 1_655
Br0 Te0 2.934872 1_555
Br1 Te9 2.934872 1_565
Br1 Te1 2.934873 1_555
Br2 Te2 2.934872 1_555
Br2 Te10 2.934873 1_556
Br3 Te3 2.934872 1_545
Br3 Te7 2.934873 1_555
Br4 Te8 2.934872 1_555
Br4 Te4 2.934873 1_554
Br5 Te5 2.934872 1_455
Br5 Te6 2.934872 1_555
