# generated using pymatgen
data_MgTi4(PO4)6
_symmetry_space_group_name_H-M   'P 1'
_cell_length_a   8.58056757
_cell_length_b   8.58056757
_cell_length_c   8.58056693
_cell_angle_alpha   60.57659549
_cell_angle_beta   60.57659549
_cell_angle_gamma   60.57659300
_symmetry_Int_Tables_number   1
_chemical_formula_structural   MgTi4(PO4)6
_chemical_formula_sum   'Mg1 Ti4 P6 O24'
_cell_volume   452.53579883
_cell_formula_units_Z   1
loop_
 _symmetry_equiv_pos_site_id
 _symmetry_equiv_pos_as_xyz
  1  'x, y, z'
loop_
 _atom_site_type_symbol
 _atom_site_label
 _atom_site_symmetry_multiplicity
 _atom_site_fract_x
 _atom_site_fract_y
 _atom_site_fract_z
 _atom_site_occupancy
  Mg  Mg0  1  0.50000000  0.50000000  0.50000000  1
  Ti  Ti0  1  0.64681000  0.64681000  0.64681000  1
  Ti  Ti1  1  0.13333100  0.13333100  0.13333100  1
  Ti  Ti2  1  0.35319000  0.35319000  0.35319000  1
  Ti  Ti3  1  0.86666900  0.86666900  0.86666900  1
  P  P0  1  0.46946700  0.04703000  0.74477700  1
  P  P1  1  0.04703000  0.74477700  0.46946700  1
  P  P2  1  0.74477700  0.46946700  0.04703000  1
  P  P3  1  0.95297000  0.25522300  0.53053300  1
  P  P4  1  0.25522300  0.53053300  0.95297000  1
  P  P5  1  0.53053300  0.95297000  0.25522300  1
  O  O0  1  0.50921400  0.88462100  0.68188400  1
  O  O1  1  0.88462100  0.68188400  0.50921400  1
  O  O2  1  0.68188400  0.50921400  0.88462100  1
  O  O3  1  0.99648000  0.20212800  0.36499900  1
  O  O4  1  0.20212800  0.36499900  0.99648000  1
  O  O5  1  0.36499900  0.99648000  0.20212800  1
  O  O6  1  0.49078600  0.11537900  0.31811600  1
  O  O7  1  0.11537900  0.31811600  0.49078600  1
  O  O8  1  0.31811600  0.49078600  0.11537900  1
  O  O9  1  0.00352000  0.79787200  0.63500100  1
  O  O10  1  0.79787200  0.63500100  0.00352000  1
  O  O11  1  0.63500100  0.00352000  0.79787200  1
  O  O12  1  0.54933900  0.75998600  0.42041500  1
  O  O13  1  0.75998600  0.42041500  0.54933900  1
  O  O14  1  0.42041500  0.54933900  0.75998600  1
  O  O15  1  0.06203200  0.90831400  0.28086900  1
  O  O16  1  0.90831400  0.28086900  0.06203200  1
  O  O17  1  0.28086900  0.06203200  0.90831400  1
  O  O18  1  0.45066100  0.24001400  0.57958500  1
  O  O19  1  0.24001400  0.57958500  0.45066100  1
  O  O20  1  0.57958500  0.45066100  0.24001400  1
  O  O21  1  0.93796800  0.09168600  0.71913100  1
  O  O22  1  0.09168600  0.71913100  0.93796800  1
  O  O23  1  0.71913100  0.93796800  0.09168600  1
loop_
_geom_bond_atom_site_label_1
_geom_bond_atom_site_label_2
_geom_bond_distance
_geom_bond_site_symmetry_2
Mg0 O14 2.183864 1_555
Mg0 O20 2.183864 1_555
Mg0 O13 2.183864 1_555
Mg0 O19 2.183864 1_555
Mg0 O12 2.183864 1_555
Mg0 O18 2.183864 1_555
O0 P0 1.562260 1_565
O0 Ti0 1.880311 1_555
O1 P1 1.562260 1_655
O1 Ti0 1.880311 1_555
O2 P2 1.562260 1_556
O2 Ti0 1.880311 1_555
O3 P3 1.520549 1_555
O3 Ti1 1.964005 1_655
O4 P4 1.520549 1_555
O4 Ti1 1.964005 1_556
O5 P5 1.520549 1_555
O5 Ti1 1.964005 1_565
O6 P5 1.562260 1_545
O6 Ti2 1.880311 1_555
O7 P3 1.562260 1_455
O7 Ti2 1.880311 1_555
O8 P4 1.562260 1_554
O8 Ti2 1.880311 1_555
O9 P1 1.520549 1_555
O9 Ti3 1.964005 1_455
O10 P2 1.520549 1_555
O10 Ti3 1.964005 1_554
O11 P0 1.520549 1_555
O11 Ti3 1.964005 1_545
O12 P5 1.559900 1_555
O12 Ti0 2.088309 1_555
O13 P3 1.559900 1_555
O13 Ti0 2.088309 1_555
O14 P4 1.559900 1_555
O14 Ti0 2.088310 1_555
O15 P1 1.531712 1_555
O15 Ti1 1.924288 1_565
O16 P2 1.531712 1_555
O16 Ti1 1.924288 1_655
O17 P0 1.531712 1_555
O17 Ti1 1.924288 1_556
O18 P0 1.559900 1_555
O18 Ti2 2.088309 1_555
O19 P1 1.559900 1_555
O19 Ti2 2.088309 1_555
O20 P2 1.559900 1_555
O20 Ti2 2.088310 1_555
O21 P3 1.531712 1_555
O21 Ti3 1.924288 1_545
O22 P4 1.531712 1_555
O22 Ti3 1.924288 1_455
O23 P5 1.531712 1_555
O23 Ti3 1.924288 1_554
