# generated using pymatgen
data_CeMgZr7O16
_symmetry_space_group_name_H-M   'P 1'
_cell_length_a   5.43309449
_cell_length_b   7.48706603
_cell_length_c   7.48706392
_cell_angle_alpha   89.24603164
_cell_angle_beta   86.41568834
_cell_angle_gamma   93.58431269
_symmetry_Int_Tables_number   1
_chemical_formula_structural   CeMgZr7O16
_chemical_formula_sum   'Ce1 Mg1 Zr7 O16'
_cell_volume   303.32344302
_cell_formula_units_Z   1
loop_
 _symmetry_equiv_pos_site_id
 _symmetry_equiv_pos_as_xyz
  1  'x, y, z'
loop_
 _atom_site_type_symbol
 _atom_site_label
 _atom_site_symmetry_multiplicity
 _atom_site_fract_x
 _atom_site_fract_y
 _atom_site_fract_z
 _atom_site_occupancy
  Ce  Ce0  1  1.00000000  0.96942637  0.96942637  1
  Mg  Mg0  1  1.00000000  0.22885121  0.22885121  1
  Zr  Zr0  1  0.50000000  0.27734048  0.27734048  1
  Zr  Zr1  1  0.00390587  0.96424343  0.51451449  1
  Zr  Zr2  1  0.50211473  0.25716133  0.78303517  1
  Zr  Zr3  1  0.99609413  0.51451449  0.96424343  1
  Zr  Zr4  1  0.49788527  0.78303517  0.25716133  1
  Zr  Zr5  1  1.00000000  0.50578200  0.50578200  1
  Zr  Zr6  1  0.50000000  0.74921239  0.74921239  1
  O  O0  1  0.20780058  0.27309002  0.00595506  1
  O  O1  1  0.29476091  0.01212147  0.25075632  1
  O  O2  1  0.79219942  0.00595506  0.27309002  1
  O  O3  1  0.70523909  0.25075632  0.01212147  1
  O  O4  1  0.13339545  0.24498470  0.46550262  1
  O  O5  1  0.28817315  0.00845139  0.72751028  1
  O  O6  1  0.75458305  0.00640527  0.73338927  1
  O  O7  1  0.64512283  0.28167961  0.51512589  1
  O  O8  1  0.24541695  0.73338927  0.00640527  1
  O  O9  1  0.35487717  0.51512589  0.28167961  1
  O  O10  1  0.86660455  0.46550262  0.24498470  1
  O  O11  1  0.71182685  0.72751028  0.00845139  1
  O  O12  1  0.22766014  0.75084457  0.49400234  1
  O  O13  1  0.27545383  0.49034393  0.73134138  1
  O  O14  1  0.77233986  0.49400234  0.75084457  1
  O  O15  1  0.72454617  0.73134138  0.49034393  1
loop_
_geom_bond_atom_site_label_1
_geom_bond_atom_site_label_2
_geom_bond_distance
_geom_bond_site_symmetry_2
Ce0 O6 2.303374 1_565
Ce0 O8 2.303374 1_656
Ce0 O5 2.321981 1_665
Ce0 O11 2.321981 1_556
Ce0 O2 2.500499 1_566
Ce0 O0 2.500499 1_666
Ce0 O1 2.734776 1_666
Ce0 O3 2.734776 1_566
Mg0 O4 1.958178 1_655
Mg0 O10 1.958179 1_555
Mg0 O0 1.967863 1_655
Mg0 O2 1.967863 1_555
Mg0 O3 2.361228 1_555
Mg0 O1 2.361228 1_655
O0 Zr3 2.231105 1_454
O0 Zr2 2.247697 1_554
O0 Zr0 2.654913 1_555
O1 Zr4 2.098381 1_545
O1 Zr0 2.233243 1_555
O1 Zr1 2.458812 1_545
O2 Zr1 2.231105 1_645
O2 Zr4 2.247697 1_545
O2 Zr0 2.654914 1_555
O3 Zr2 2.098380 1_554
O3 Zr0 2.233243 1_555
O3 Zr3 2.458812 1_554
O4 Zr5 2.143360 1_455
O4 Zr1 2.193225 1_545
O4 Zr0 2.364413 1_555
O5 Zr2 2.191237 1_555
O5 Zr1 2.301287 1_545
O5 Zr6 2.326487 1_545
O6 Zr1 2.099889 1_645
O6 Zr6 2.296889 1_545
O6 Zr2 2.412679 1_555
O7 Zr0 1.991504 1_555
O7 Zr2 2.106763 1_555
O7 Zr5 2.472486 1_555
O8 Zr3 2.099889 1_454
O8 Zr6 2.296889 1_554
O8 Zr4 2.412679 1_555
O9 Zr0 1.991504 1_555
O9 Zr4 2.106763 1_555
O9 Zr5 2.472486 1_455
O10 Zr5 2.143360 1_555
O10 Zr3 2.193225 1_554
O10 Zr0 2.364413 1_555
O11 Zr4 2.191237 1_555
O11 Zr3 2.301287 1_554
O11 Zr6 2.326487 1_554
O12 Zr1 2.068859 1_555
O12 Zr5 2.145350 1_455
O12 Zr4 2.230911 1_555
O12 Zr6 2.489120 1_555
O13 Zr6 2.234799 1_555
O13 Zr2 2.241640 1_555
O13 Zr3 2.255843 1_455
O13 Zr5 2.331854 1_455
O14 Zr3 2.068858 1_555
O14 Zr5 2.145350 1_555
O14 Zr2 2.230912 1_555
O14 Zr6 2.489120 1_555
O15 Zr6 2.234799 1_555
O15 Zr4 2.241640 1_555
O15 Zr1 2.255843 1_655
O15 Zr5 2.331854 1_555
