# generated using pymatgen
data_TbGaPd
_symmetry_space_group_name_H-M   'P 1'
_cell_length_a   4.46715469
_cell_length_b   6.97374992
_cell_length_c   7.54988560
_cell_angle_alpha   90.00000000
_cell_angle_beta   90.00000000
_cell_angle_gamma   90.00000000
_symmetry_Int_Tables_number   1
_chemical_formula_structural   TbGaPd
_chemical_formula_sum   'Tb4 Ga4 Pd4'
_cell_volume   235.20022457
_cell_formula_units_Z   4
loop_
 _symmetry_equiv_pos_site_id
 _symmetry_equiv_pos_as_xyz
  1  'x, y, z'
loop_
 _atom_site_type_symbol
 _atom_site_label
 _atom_site_symmetry_multiplicity
 _atom_site_fract_x
 _atom_site_fract_y
 _atom_site_fract_z
 _atom_site_occupancy
  Tb  Tb0  1  0.25000000  0.48151957  0.80086627  1
  Tb  Tb1  1  0.75000000  0.51848043  0.19913373  1
  Tb  Tb2  1  0.25000000  0.98151957  0.69913373  1
  Tb  Tb3  1  0.75000000  0.01848043  0.30086627  1
  Ga  Ga0  1  0.25000000  0.82320379  0.07731407  1
  Ga  Ga1  1  0.75000000  0.17679621  0.92268593  1
  Ga  Ga2  1  0.25000000  0.32320379  0.42268593  1
  Ga  Ga3  1  0.75000000  0.67679621  0.57731407  1
  Pd  Pd0  1  0.75000000  0.78455407  0.90522698  1
  Pd  Pd1  1  0.25000000  0.21544593  0.09477302  1
  Pd  Pd2  1  0.75000000  0.28455407  0.59477302  1
  Pd  Pd3  1  0.25000000  0.71544593  0.40522698  1
loop_
_geom_bond_atom_site_label_1
_geom_bond_atom_site_label_2
_geom_bond_distance
_geom_bond_site_symmetry_2
Ga0 Pd3 2.587244 1_555
Ga0 Pd0 2.597987 1_454
Ga0 Pd0 2.597987 1_554
Ga0 Pd1 2.738573 1_565
Ga0 Tb2 3.061243 1_554
Ga0 Tb3 3.113205 1_465
Ga0 Tb3 3.113205 1_565
Ga0 Tb0 3.167653 1_554
Ga0 Tb1 3.217244 1_455
Ga0 Tb1 3.217244 1_555
Ga1 Pd2 2.587244 1_555
Ga1 Pd1 2.597987 1_656
Ga1 Pd1 2.597987 1_556
Ga1 Pd0 2.738573 1_545
Ga1 Tb3 3.061243 1_556
Ga1 Tb2 3.113205 1_545
Ga1 Tb2 3.113205 1_645
Ga1 Tb1 3.167653 1_556
Ga1 Tb0 3.217244 1_555
Ga1 Tb0 3.217244 1_655
Ga2 Pd1 2.587244 1_555
Ga2 Pd2 2.597987 1_455
Ga2 Pd2 2.597987 1_555
Ga2 Pd3 2.738573 1_555
Ga2 Tb0 3.061243 1_555
Ga2 Tb1 3.113205 1_455
Ga2 Tb1 3.113205 1_555
Ga2 Tb2 3.167653 1_545
Ga2 Tb3 3.217244 1_555
Ga2 Tb3 3.217244 1_455
Ga3 Pd0 2.587244 1_555
Ga3 Pd3 2.597987 1_555
Ga3 Pd3 2.597987 1_655
Ga3 Pd2 2.738573 1_555
Ga3 Tb1 3.061243 1_555
Ga3 Tb0 3.113205 1_555
Ga3 Tb0 3.113205 1_655
Ga3 Tb3 3.167653 1_565
Ga3 Tb2 3.217244 1_555
Ga3 Tb2 3.217244 1_655
Pd0 Tb1 2.892540 1_556
Pd0 Tb2 3.049047 1_655
Pd0 Tb2 3.049047 1_555
Pd0 Tb0 3.174217 1_655
Pd0 Tb0 3.174217 1_555
Pd0 Tb3 3.403475 1_566
Pd1 Tb0 2.892540 1_554
Pd1 Tb3 3.049047 1_455
Pd1 Tb3 3.049047 1_555
Pd1 Tb1 3.174217 1_455
Pd1 Tb1 3.174217 1_555
Pd1 Tb2 3.403475 1_544
Pd2 Tb3 2.892540 1_555
Pd2 Tb0 3.049047 1_555
Pd2 Tb0 3.049047 1_655
Pd2 Tb2 3.174217 1_545
Pd2 Tb2 3.174217 1_645
Pd2 Tb1 3.403475 1_555
Pd3 Tb2 2.892540 1_555
Pd3 Tb1 3.049047 1_455
Pd3 Tb1 3.049047 1_555
Pd3 Tb3 3.174217 1_465
Pd3 Tb3 3.174217 1_565
Pd3 Tb0 3.403475 1_555
