# generated using pymatgen
data_SiO2
_symmetry_space_group_name_H-M   'P 1'
_cell_length_a   2.82661589
_cell_length_b   11.66519089
_cell_length_c   11.75429319
_cell_angle_alpha   89.24322904
_cell_angle_beta   83.15765941
_cell_angle_gamma   83.21907386
_symmetry_Int_Tables_number   1
_chemical_formula_structural   SiO2
_chemical_formula_sum   'Si8 O16'
_cell_volume   382.12209715
_cell_formula_units_Z   8
loop_
 _symmetry_equiv_pos_site_id
 _symmetry_equiv_pos_as_xyz
  1  'x, y, z'
loop_
 _atom_site_type_symbol
 _atom_site_label
 _atom_site_symmetry_multiplicity
 _atom_site_fract_x
 _atom_site_fract_y
 _atom_site_fract_z
 _atom_site_occupancy
  Si  Si0  1  0.40131300  0.92176800  0.33567800  1
  Si  Si1  1  0.77657600  0.80559000  0.69008100  1
  Si  Si2  1  0.33113100  0.34303800  0.06485200  1
  Si  Si3  1  0.66821200  0.07438700  0.64254600  1
  Si  Si4  1  0.48767700  0.29721000  0.79864000  1
  Si  Si5  1  0.58770900  0.69933200  0.17955100  1
  Si  Si6  1  0.29317700  0.19057700  0.28822700  1
  Si  Si7  1  0.74360700  0.65314100  0.91368300  1
  O  O0  1  0.87384700  0.90441200  0.40812600  1
  O  O1  1  0.28730200  0.57984500  0.89759700  1
  O  O2  1  0.78726500  0.41622600  0.08141000  1
  O  O3  1  0.49789600  0.82987200  0.23083100  1
  O  O4  1  0.32728800  0.76371600  0.62887000  1
  O  O5  1  0.65281300  0.71003600  0.04072700  1
  O  O6  1  0.74247900  0.23249300  0.34940700  1
  O  O7  1  0.33527100  0.23853000  0.15732600  1
  O  O8  1  0.19583900  0.09152500  0.57001800  1
  O  O9  1  0.97682500  0.35991500  0.75874400  1
  O  O10  1  0.57443900  0.16672600  0.74704800  1
  O  O11  1  0.36487400  0.05054700  0.28141500  1
  O  O12  1  0.73795600  0.75729000  0.82084500  1
  O  O13  1  0.42330400  0.28672200  0.93751400  1
  O  O14  1  0.70258900  0.94568000  0.69708100  1
  O  O15  1  0.09850100  0.63665400  0.21947600  1
loop_
_geom_bond_atom_site_label_1
_geom_bond_atom_site_label_2
_geom_bond_distance
_geom_bond_site_symmetry_2
O0 Si0 1.659156 1_555
O0 Si0 1.659303 1_655
O1 Si7 1.659271 1_555
O1 Si7 1.659319 1_455
O2 Si2 1.659285 1_655
O2 Si2 1.659285 1_555
O3 Si0 1.621147 1_555
O3 Si5 1.625762 1_555
O4 Si1 1.655986 1_455
O4 Si1 1.656072 1_555
O5 Si7 1.622027 1_554
O5 Si5 1.625007 1_555
O6 Si6 1.655926 1_655
O6 Si6 1.656104 1_555
O7 Si2 1.622501 1_555
O7 Si6 1.625996 1_555
O8 Si3 1.659290 1_555
O8 Si3 1.659510 1_455
O9 Si4 1.655869 1_555
O9 Si4 1.656172 1_655
O10 Si3 1.621512 1_555
O10 Si4 1.626513 1_555
O11 Si0 1.621090 1_545
O11 Si6 1.623928 1_555
O12 Si7 1.622235 1_555
O12 Si1 1.625892 1_555
O13 Si2 1.622467 1_556
O13 Si4 1.625393 1_555
O14 Si3 1.621571 1_565
O14 Si1 1.624742 1_555
O15 Si5 1.655906 1_555
O15 Si5 1.656052 1_455
