# generated using pymatgen
data_Li3BH6
_symmetry_space_group_name_H-M   'P 1'
_cell_length_a   5.61286865
_cell_length_b   6.36108359
_cell_length_c   5.06883214
_cell_angle_alpha   86.48296025
_cell_angle_beta   86.17780707
_cell_angle_gamma   99.64421684
_symmetry_Int_Tables_number   1
_chemical_formula_structural   Li3BH6
_chemical_formula_sum   'Li6 B2 H12'
_cell_volume   177.53825675
_cell_formula_units_Z   2
loop_
 _symmetry_equiv_pos_site_id
 _symmetry_equiv_pos_as_xyz
  1  'x, y, z'
loop_
 _atom_site_type_symbol
 _atom_site_label
 _atom_site_symmetry_multiplicity
 _atom_site_fract_x
 _atom_site_fract_y
 _atom_site_fract_z
 _atom_site_occupancy
  Li  Li0  1  0.00529300  0.27241700  0.62396500  1
  Li  Li1  1  0.41132300  0.66290700  0.58717300  1
  Li  Li2  1  0.28486400  0.44601200  0.08464800  1
  Li  Li3  1  0.78513500  0.50055000  0.95367500  1
  Li  Li4  1  0.51357600  0.10173800  0.29440000  1
  Li  Li5  1  0.96697200  0.75022200  0.51264200  1
  B  B0  1  0.66951200  0.45158900  0.43488700  1
  B  B1  1  0.88372700  0.02787400  0.04352300  1
  H  H0  1  0.28648900  0.89454900  0.47882600  1
  H  H1  1  0.68669000  0.26830000  0.52565700  1
  H  H2  1  0.04206600  0.12418300  0.17045300  1
  H  H3  1  0.87792500  0.51100300  0.30800400  1
  H  H4  1  0.76784900  0.15355100  0.93877500  1
  H  H5  1  0.42540500  0.24765800  0.81657400  1
  H  H6  1  0.30765600  0.79721700  0.95978100  1
  H  H7  1  0.32851600  0.15592600  0.88382100  1
  H  H8  1  0.97600800  0.93130800  0.87091200  1
  H  H9  1  0.74394400  0.89708800  0.19411400  1
  H  H10  1  0.42430100  0.78887500  0.02497700  1
  H  H11  1  0.11274600  0.51703100  0.79319100  1
loop_
_geom_bond_atom_site_label_1
_geom_bond_atom_site_label_2
_geom_bond_distance
_geom_bond_site_symmetry_2
B0 H1 1.248244 1_555
B0 H3 1.283214 1_555
B0 Li1 2.265776 1_555
B1 H4 1.229726 1_554
B1 H9 1.230404 1_545
B1 H2 1.233401 1_655
B1 H8 1.234197 1_544
H0 Li1 1.806016 1_555
H0 Li4 1.833749 1_565
H0 Li5 1.864562 1_455
H1 Li4 1.843923 1_555
H1 Li0 1.884580 1_655
H3 Li3 1.905038 1_554
H3 Li5 1.910299 1_555
H4 Li0 2.031016 1_655
H4 Li4 2.195773 1_556
H4 Li3 2.199300 1_555
H5 H7 0.772646 1_555
H5 Li2 2.112251 1_556
H6 Li1 2.203103 1_555
H8 Li5 2.208326 1_555
H9 Li4 2.045126 1_565
H10 H6 0.760926 1_554
H10 Li2 2.185468 1_555
H11 Li0 1.854452 1_555
H11 Li2 1.890652 1_556
H11 Li3 1.944109 1_455
H11 Li1 1.971509 1_555
H11 Li5 2.279256 1_455
