# generated using pymatgen
data_CaMn4(AgO4)4
_symmetry_space_group_name_H-M   'P 1'
_cell_length_a   5.60363426
_cell_length_b   8.03406722
_cell_length_c   8.61205296
_cell_angle_alpha   87.08471244
_cell_angle_beta   89.32062448
_cell_angle_gamma   97.15469567
_symmetry_Int_Tables_number   1
_chemical_formula_structural   CaMn4(AgO4)4
_chemical_formula_sum   'Ca1 Mn4 Ag4 O16'
_cell_volume   384.13285189
_cell_formula_units_Z   1
loop_
 _symmetry_equiv_pos_site_id
 _symmetry_equiv_pos_as_xyz
  1  'x, y, z'
loop_
 _atom_site_type_symbol
 _atom_site_label
 _atom_site_symmetry_multiplicity
 _atom_site_fract_x
 _atom_site_fract_y
 _atom_site_fract_z
 _atom_site_occupancy
  Ca  Ca0  1  0.70087600  0.45570800  0.18595100  1
  Mn  Mn0  1  0.77421800  0.10335600  0.29742700  1
  Mn  Mn1  1  0.26623000  0.64277900  0.20685300  1
  Mn  Mn2  1  0.73332300  0.36749400  0.79121300  1
  Mn  Mn3  1  0.22779000  0.87999700  0.69848600  1
  Ag  Ag0  1  0.27972100  0.10264600  0.04755900  1
  Ag  Ag1  1  0.70420200  0.69919000  0.51714300  1
  Ag  Ag2  1  0.24406400  0.32072000  0.50979000  1
  Ag  Ag3  1  0.71550600  0.87863100  0.95315700  1
  O  O0  1  0.90968400  0.03772800  0.13835800  1
  O  O1  1  0.51552200  0.18613600  0.24105100  1
  O  O2  1  0.26076000  0.03747100  0.57242300  1
  O  O3  1  0.28094000  0.49443800  0.08364500  1
  O  O4  1  0.76370600  0.51617300  0.91676600  1
  O  O5  1  0.49175800  0.82177600  0.74339700  1
  O  O6  1  0.74230100  0.97176500  0.45005900  1
  O  O7  1  0.06181600  0.72088300  0.62898300  1
  O  O8  1  0.58168000  0.19814400  0.87657800  1
  O  O9  1  0.09360100  0.93581800  0.85756600  1
  O  O10  1  0.42211800  0.82143100  0.13194000  1
  O  O11  1  0.99354200  0.32296300  0.73449900  1
  O  O12  1  0.98726200  0.67268900  0.25548700  1
  O  O13  1  0.58505800  0.43069700  0.63831100  1
  O  O14  1  0.93829300  0.29023400  0.34079800  1
  O  O15  1  0.42394800  0.57261300  0.36224700  1
loop_
_geom_bond_atom_site_label_1
_geom_bond_atom_site_label_2
_geom_bond_distance
_geom_bond_site_symmetry_2
Ca0 O1 2.306064 1_555
Ca0 O12 2.324867 1_555
Ca0 O4 2.357466 1_554
Ca0 O14 2.370234 1_555
Ca0 O15 2.459190 1_555
Ca0 O3 2.571802 1_555
Mn0 O6 1.638138 1_545
Mn0 O0 1.696881 1_555
Mn0 O14 1.720565 1_555
Mn0 O1 1.733054 1_555
Mn1 O3 1.644397 1_555
Mn1 O12 1.662875 1_455
Mn1 O10 1.679141 1_555
Mn1 O15 1.721984 1_555
Mn2 O11 1.619770 1_555
Mn2 O8 1.645949 1_555
Mn2 O4 1.646219 1_555
Mn2 O13 1.656830 1_555
Mn3 O2 1.615772 1_565
Mn3 O7 1.628587 1_555
Mn3 O5 1.650416 1_555
Mn3 O9 1.662989 1_555
Ag0 O0 2.198586 1_455
Ag0 O1 2.217605 1_555
Ag0 O8 2.263318 1_554
Ag0 O9 2.340246 1_544
Ag0 O10 2.562235 1_545
Ag1 O6 2.219657 1_555
Ag1 O7 2.224790 1_655
Ag1 O15 2.251613 1_555
Ag1 O13 2.362935 1_555
Ag1 O5 2.572176 1_555
Ag1 O12 2.772581 1_555
Ag2 O14 2.259376 1_455
Ag2 O13 2.320777 1_555
Ag2 O2 2.325429 1_555
Ag2 O11 2.379395 1_455
Ag2 O15 2.434339 1_555
Ag3 O10 2.228114 1_556
Ag3 O5 2.244763 1_555
Ag3 O9 2.248423 1_655
Ag3 O0 2.294282 1_566
