# generated using pymatgen
data_Zr3Ge6N11
_symmetry_space_group_name_H-M   'P 1'
_cell_length_a   10.25959400
_cell_length_b   10.25959400
_cell_length_c   5.13168600
_cell_angle_alpha   90.00000000
_cell_angle_beta   90.00000000
_cell_angle_gamma   90.00000000
_symmetry_Int_Tables_number   1
_chemical_formula_structural   Zr3Ge6N11
_chemical_formula_sum   'Zr6 Ge12 N22'
_cell_volume   540.15751733
_cell_formula_units_Z   2
loop_
 _symmetry_equiv_pos_site_id
 _symmetry_equiv_pos_as_xyz
  1  'x, y, z'
loop_
 _atom_site_type_symbol
 _atom_site_label
 _atom_site_symmetry_multiplicity
 _atom_site_fract_x
 _atom_site_fract_y
 _atom_site_fract_z
 _atom_site_occupancy
  Zr  Zr0  1  0.31963000  0.81963000  0.94378200  1
  Zr  Zr1  1  0.68037000  0.18037000  0.94378200  1
  Zr  Zr2  1  0.18037000  0.31963000  0.94378200  1
  Zr  Zr3  1  0.81963000  0.68037000  0.94378200  1
  Zr  Zr4  1  0.50000000  0.50000000  0.00710200  1
  Zr  Zr5  1  0.00000000  0.00000000  0.00710200  1
  Ge  Ge0  1  0.40826500  0.31269100  0.52630200  1
  Ge  Ge1  1  0.59173500  0.68730900  0.52630200  1
  Ge  Ge2  1  0.09173500  0.81269100  0.52630200  1
  Ge  Ge3  1  0.90826500  0.18730900  0.52630200  1
  Ge  Ge4  1  0.31269100  0.59173500  0.52630200  1
  Ge  Ge5  1  0.68730900  0.40826500  0.52630200  1
  Ge  Ge6  1  0.81269100  0.90826500  0.52630200  1
  Ge  Ge7  1  0.18730900  0.09173500  0.52630200  1
  Ge  Ge8  1  0.87229300  0.37229300  0.03582300  1
  Ge  Ge9  1  0.12770700  0.62770700  0.03582300  1
  Ge  Ge10  1  0.62770700  0.87229300  0.03582300  1
  Ge  Ge11  1  0.37229300  0.12770700  0.03582300  1
  N  N0  1  0.30623400  0.43501600  0.69922000  1
  N  N1  1  0.69376600  0.56498400  0.69922000  1
  N  N2  1  0.19376600  0.93501600  0.69922000  1
  N  N3  1  0.80623400  0.06498400  0.69922000  1
  N  N4  1  0.43501600  0.69376600  0.69922000  1
  N  N5  1  0.56498400  0.30623400  0.69922000  1
  N  N6  1  0.93501600  0.80623400  0.69922000  1
  N  N7  1  0.06498400  0.19376600  0.69922000  1
  N  N8  1  0.39247000  0.30305100  0.16788800  1
  N  N9  1  0.60753000  0.69694900  0.16788800  1
  N  N10  1  0.10753000  0.80305100  0.16788800  1
  N  N11  1  0.89247000  0.19694900  0.16788800  1
  N  N12  1  0.30305100  0.60753000  0.16788800  1
  N  N13  1  0.69694900  0.39247000  0.16788800  1
  N  N14  1  0.80305100  0.89247000  0.16788800  1
  N  N15  1  0.19694900  0.10753000  0.16788800  1
  N  N16  1  0.82284400  0.32284400  0.70090200  1
  N  N17  1  0.17715600  0.67715600  0.70090200  1
  N  N18  1  0.67715600  0.82284400  0.70090200  1
  N  N19  1  0.32284400  0.17715600  0.70090200  1
  N  N20  1  0.50000000  0.00000000  0.02678100  1
  N  N21  1  0.00000000  0.50000000  0.02678100  1
loop_
_geom_bond_atom_site_label_1
_geom_bond_atom_site_label_2
_geom_bond_distance
_geom_bond_site_symmetry_2
Ge0 N5 1.837676 1_555
Ge0 N8 1.849040 1_555
Ge0 N0 1.859632 1_555
Ge0 N19 1.872014 1_555
Ge1 N4 1.837676 1_555
Ge1 N9 1.849040 1_555
Ge1 N1 1.859632 1_555
Ge1 N18 1.872014 1_555
Ge2 N6 1.837676 1_455
Ge2 N10 1.849040 1_555
Ge2 N2 1.859632 1_555
Ge2 N17 1.872014 1_555
Ge3 N7 1.837676 1_655
Ge3 N11 1.849040 1_555
Ge3 N3 1.859632 1_555
Ge3 N16 1.872014 1_555
Ge4 N0 1.837676 1_555
Ge4 N12 1.849040 1_555
Ge4 N4 1.859632 1_555
Ge4 N17 1.872014 1_555
Ge5 N1 1.837676 1_555
Ge5 N13 1.849040 1_555
Ge5 N5 1.859632 1_555
Ge5 N16 1.872014 1_555
Ge6 N3 1.837676 1_565
Ge6 N14 1.849040 1_555
Ge6 N6 1.859632 1_555
Ge6 N18 1.872014 1_555
Ge7 N2 1.837676 1_545
Ge7 N15 1.849040 1_555
Ge7 N7 1.859632 1_555
Ge7 N19 1.872014 1_555
Ge8 N21 1.853515 1_655
Ge8 N16 1.862451 1_554
Ge8 N13 1.933495 1_555
Ge8 N11 1.933495 1_555
Ge9 N21 1.853515 1_555
Ge9 N17 1.862451 1_554
Ge9 N10 1.933495 1_555
Ge9 N12 1.933495 1_555
Ge10 N20 1.853515 1_565
Ge10 N18 1.862451 1_554
Ge10 N9 1.933495 1_555
Ge10 N14 1.933495 1_555
Ge11 N20 1.853515 1_555
Ge11 N19 1.862451 1_554
Ge11 N15 1.933495 1_555
Ge11 N8 1.933495 1_555
N0 Zr2 2.154987 1_555
N0 Zr4 2.625403 1_556
N1 Zr3 2.154987 1_555
N1 Zr4 2.625403 1_556
N2 Zr0 2.154987 1_555
N2 Zr5 2.625403 1_566
N3 Zr1 2.154987 1_555
N3 Zr5 2.625403 1_656
N4 Zr0 2.154987 1_555
N4 Zr4 2.625403 1_556
N5 Zr1 2.154987 1_555
N5 Zr4 2.625403 1_556
N6 Zr3 2.154987 1_555
N6 Zr5 2.625403 1_666
N7 Zr2 2.154987 1_555
N7 Zr5 2.625403 1_556
N8 Zr4 2.445561 1_555
N8 Zr2 2.467137 1_554
N9 Zr4 2.445561 1_555
N9 Zr3 2.467137 1_554
N10 Zr5 2.445561 1_565
N10 Zr0 2.467137 1_554
N11 Zr5 2.445561 1_655
N11 Zr1 2.467137 1_554
N12 Zr4 2.445561 1_555
N12 Zr0 2.467137 1_554
N13 Zr4 2.445561 1_555
N13 Zr1 2.467137 1_554
N14 Zr5 2.445561 1_665
N14 Zr3 2.467137 1_554
N15 Zr5 2.445561 1_555
N15 Zr2 2.467137 1_554
N16 Zr1 2.413867 1_555
N17 Zr0 2.413867 1_555
N18 Zr3 2.413867 1_555
N19 Zr2 2.413867 1_555
N20 Zr0 2.651468 1_544
N20 Zr1 2.651468 1_554
N21 Zr2 2.651468 1_554
N21 Zr3 2.651468 1_454
