# generated using pymatgen
data_Tm4Ga12Pd
_symmetry_space_group_name_H-M   'P 1'
_cell_length_a   7.35141833
_cell_length_b   7.35141833
_cell_length_c   7.35141833
_cell_angle_alpha   109.47122063
_cell_angle_beta   109.47122063
_cell_angle_gamma   109.47122063
_symmetry_Int_Tables_number   1
_chemical_formula_structural   Tm4Ga12Pd
_chemical_formula_sum   'Tm4 Ga12 Pd1'
_cell_volume   305.83805227
_cell_formula_units_Z   1
loop_
 _symmetry_equiv_pos_site_id
 _symmetry_equiv_pos_as_xyz
  1  'x, y, z'
loop_
 _atom_site_type_symbol
 _atom_site_label
 _atom_site_symmetry_multiplicity
 _atom_site_fract_x
 _atom_site_fract_y
 _atom_site_fract_z
 _atom_site_occupancy
  Tm  Tm0  1  0.00000000  0.00000000  0.50000000  1
  Tm  Tm1  1  -0.00000000  0.50000000  0.00000000  1
  Tm  Tm2  1  0.50000000  0.00000000  0.00000000  1
  Tm  Tm3  1  0.50000000  0.50000000  0.50000000  1
  Ga  Ga0  1  0.75000000  0.25000000  0.50000000  1
  Ga  Ga1  1  0.75000000  0.50000000  0.25000000  1
  Ga  Ga2  1  0.50000000  0.25000000  0.75000000  1
  Ga  Ga3  1  0.25000000  0.50000000  0.75000000  1
  Ga  Ga4  1  0.25000000  0.75000000  0.50000000  1
  Ga  Ga5  1  0.50000000  0.75000000  0.25000000  1
  Ga  Ga6  1  0.70272338  0.70272338  0.00000000  1
  Ga  Ga7  1  0.29727662  -0.00000000  0.29727662  1
  Ga  Ga8  1  -0.00000000  0.29727662  0.29727662  1
  Ga  Ga9  1  0.29727662  0.29727662  -0.00000000  1
  Ga  Ga10  1  0.70272338  0.00000000  0.70272338  1
  Ga  Ga11  1  0.00000000  0.70272338  0.70272338  1
  Pd  Pd0  1  -0.00000000  0.00000000  0.00000000  1
loop_
_geom_bond_atom_site_label_1
_geom_bond_atom_site_label_2
_geom_bond_distance
_geom_bond_site_symmetry_2
Ga0 Ga11 2.732207 1_655
Ga0 Ga8 2.732207 1_655
Ga0 Ga7 2.732207 1_555
Ga0 Ga10 2.732207 1_555
Ga0 Ga5 3.001204 1_545
Ga0 Ga3 3.001204 1_655
Ga0 Ga2 3.001204 1_555
Ga0 Ga1 3.001204 1_555
Ga0 Tm2 3.001204 1_555
Ga0 Tm0 3.001204 1_655
Ga0 Tm3 3.001204 1_555
Ga0 Tm1 3.001204 1_656
Ga1 Ga6 2.732207 1_555
Ga1 Ga9 2.732207 1_555
Ga1 Ga11 2.732207 1_655
Ga1 Ga8 2.732207 1_655
Ga1 Ga4 3.001204 1_655
Ga1 Tm0 3.001204 1_665
Ga1 Tm2 3.001204 1_555
Ga1 Ga5 3.001204 1_555
Ga1 Ga2 3.001204 1_554
Ga1 Tm3 3.001204 1_555
Ga1 Tm1 3.001204 1_655
Ga2 Ga7 2.732207 1_555
Ga2 Ga9 2.732207 1_556
Ga2 Ga6 2.732207 1_556
Ga2 Tm1 3.001204 1_656
Ga2 Tm0 3.001204 1_555
Ga2 Ga4 3.001204 1_545
Ga2 Tm2 3.001204 1_556
Ga2 Tm3 3.001204 1_555
Ga2 Ga3 3.001204 1_555
Ga3 Ga8 2.732207 1_555
Ga3 Ga9 2.732207 1_556
Ga3 Ga6 2.732207 1_556
Ga3 Tm0 3.001204 1_555
Ga3 Tm2 3.001204 1_566
Ga3 Tm3 3.001204 1_555
Ga3 Ga4 3.001204 1_555
Ga3 Tm1 3.001204 1_556
Ga3 Ga5 3.001204 1_556
Ga4 Ga7 2.732207 1_565
Ga4 Ga8 2.732207 1_555
Ga4 Ga5 3.001204 1_555
Ga4 Tm0 3.001204 1_565
Ga4 Tm2 3.001204 1_566
Ga4 Tm3 3.001204 1_555
Ga4 Tm1 3.001204 1_555
Ga5 Ga6 2.732207 1_555
Ga5 Ga9 2.732207 1_555
Ga5 Ga7 2.732207 1_565
Ga5 Tm0 3.001204 1_665
Ga5 Tm1 3.001204 1_555
Ga5 Tm3 3.001204 1_555
Ga5 Tm2 3.001204 1_565
Ga6 Pd0 2.523488 1_665
Ga6 Tm2 3.027917 1_565
Ga6 Tm3 3.027917 1_554
Ga6 Tm0 3.027917 1_665
Ga6 Tm1 3.027917 1_655
Ga7 Pd0 2.523488 1_555
Ga7 Tm2 3.027917 1_555
Ga7 Tm3 3.027917 1_555
Ga7 Tm1 3.027917 1_545
Ga7 Tm0 3.027917 1_555
Ga8 Pd0 2.523488 1_555
Ga8 Tm3 3.027917 1_555
Ga8 Tm2 3.027917 1_455
Ga8 Tm1 3.027917 1_555
Ga8 Tm0 3.027917 1_555
Ga9 Pd0 2.523488 1_555
Ga9 Tm1 3.027917 1_555
Ga9 Tm2 3.027917 1_555
Ga9 Tm0 3.027917 1_554
Ga9 Tm3 3.027917 1_555
Ga10 Pd0 2.523488 1_656
Ga10 Ga5 2.732207 1_545
Ga10 Ga4 2.732207 1_545
Ga10 Ga2 2.732207 1_555
Ga10 Tm3 3.027917 1_545
Ga10 Tm1 3.027917 1_656
Ga10 Tm2 3.027917 1_556
Ga10 Tm0 3.027917 1_655
Ga11 Pd0 2.523488 1_566
Ga11 Ga3 2.732207 1_555
Ga11 Ga4 2.732207 1_555
Ga11 Tm0 3.027917 1_565
Ga11 Tm1 3.027917 1_556
Ga11 Tm3 3.027917 1_455
Ga11 Tm2 3.027917 1_566
