# generated using pymatgen
data_Ba4GaB10H7O24
_symmetry_space_group_name_H-M   'P 1'
_cell_length_a   7.11976946
_cell_length_b   7.11976946
_cell_length_c   22.96519806
_cell_angle_alpha   86.91061160
_cell_angle_beta   86.91061160
_cell_angle_gamma   120.19334925
_symmetry_Int_Tables_number   1
_chemical_formula_structural   Ba4GaB10H7O24
_chemical_formula_sum   'Ba8 Ga2 B20 H14 O48'
_cell_volume   1000.30081473
_cell_formula_units_Z   2
loop_
 _symmetry_equiv_pos_site_id
 _symmetry_equiv_pos_as_xyz
  1  'x, y, z'
loop_
 _atom_site_type_symbol
 _atom_site_label
 _atom_site_symmetry_multiplicity
 _atom_site_fract_x
 _atom_site_fract_y
 _atom_site_fract_z
 _atom_site_occupancy
  Ba  Ba0  1  0.39531100  0.21989100  0.92619200  1
  Ba  Ba1  1  0.21989100  0.39531100  0.42619200  1
  Ba  Ba2  1  0.74184300  0.89947400  0.81292800  1
  Ba  Ba3  1  0.89947400  0.74184300  0.31292800  1
  Ba  Ba4  1  0.58696200  0.19707400  0.56038900  1
  Ba  Ba5  1  0.19707400  0.58696200  0.06038900  1
  Ba  Ba6  1  0.06102100  0.58649000  0.69445200  1
  Ba  Ba7  1  0.58649000  0.06102100  0.19445200  1
  Ga  Ga0  1  0.86473300  0.91325800  0.04430000  1
  Ga  Ga1  1  0.91325800  0.86473300  0.54430000  1
  B  B0  1  0.91287400  0.72253400  0.93846600  1
  B  B1  1  0.72253400  0.91287400  0.43846600  1
  B  B2  1  0.92045400  0.51056700  0.85346500  1
  B  B3  1  0.51056700  0.92045400  0.35346500  1
  B  B4  1  0.22771200  0.66739500  0.90956100  1
  B  B5  1  0.66739500  0.22771200  0.40956100  1
  B  B6  1  0.24968900  0.87981800  0.81205700  1
  B  B7  1  0.87981800  0.24968900  0.31205700  1
  B  B8  1  0.31871000  0.27398500  0.78314100  1
  B  B9  1  0.27398500  0.31871000  0.28314100  1
  B  B10  1  0.47758800  0.12318400  0.71851100  1
  B  B11  1  0.12318400  0.47758800  0.21851100  1
  B  B12  1  0.19120200  0.19448200  0.68374800  1
  B  B13  1  0.19448200  0.19120200  0.18374800  1
  B  B14  1  0.17751800  0.29869900  0.57546500  1
  B  B15  1  0.29869900  0.17751800  0.07546500  1
  B  B16  1  0.46825200  0.68150500  0.58146800  1
  B  B17  1  0.68150500  0.46825200  0.08146800  1
  B  B18  1  0.11206800  0.61141100  0.54656400  1
  B  B19  1  0.61141100  0.11206800  0.04656400  1
  H  H0  1  0.67021400  0.31885500  0.80322400  1
  H  H1  1  0.31885500  0.67021400  0.30322400  1
  H  H2  1  0.52050600  0.72166300  0.94529900  1
  H  H3  1  0.72166300  0.52050600  0.44529900  1
  H  H4  1  0.25015100  0.45744000  0.83822100  1
  H  H5  1  0.45744000  0.25015100  0.33822100  1
  H  H6  1  0.70940800  0.06329200  0.67667100  1
  H  H7  1  0.06329200  0.70940800  0.17667100  1
  H  H8  1  0.11563900  0.77407100  0.46605000  1
  H  H9  1  0.77407100  0.11563900  0.96605000  1
  H  H10  1  0.72787400  0.77332800  0.66083200  1
  H  H11  1  0.77332800  0.72787400  0.16083200  1
  H  H12  1  0.64645900  0.58492700  0.71444800  1
  H  H13  1  0.58492700  0.64645900  0.21444800  1
  O  O0  1  0.82536300  0.83405900  0.96633900  1
  O  O1  1  0.83405900  0.82536300  0.46633900  1
  O  O2  1  0.80387200  0.60041500  0.89396100  1
  O  O3  1  0.60041500  0.80387200  0.39396100  1
  O  O4  1  0.10876500  0.74409100  0.95271500  1
  O  O5  1  0.74409100  0.10876500  0.45271500  1
  O  O6  1  0.06756700  0.47043800  0.88615400  1
  O  O7  1  0.47043800  0.06756700  0.38615400  1
  O  O8  1  0.75351000  0.30265700  0.83499400  1
  O  O9  1  0.30265700  0.75351000  0.33499400  1
  O  O10  1  0.36649000  0.61080800  0.94410900  1
  O  O11  1  0.61080800  0.36649000  0.44410900  1
  O  O12  1  0.35469200  0.84661200  0.86372600  1
  O  O13  1  0.84661200  0.35469200  0.36372600  1
  O  O14  1  0.03634700  0.68203600  0.80453800  1
  O  O15  1  0.68203600  0.03634700  0.30453800  1
  O  O16  1  0.21380600  0.06710800  0.82123700  1
  O  O17  1  0.06710800  0.21380600  0.32123700  1
  O  O18  1  0.40062600  0.92673200  0.75792500  1
  O  O19  1  0.92673200  0.40062600  0.25792500  1
  O  O20  1  0.37866700  0.46017200  0.81707800  1
  O  O21  1  0.46017200  0.37866700  0.31707800  1
  O  O22  1  0.52230300  0.31579600  0.74962500  1
  O  O23  1  0.31579600  0.52230300  0.24962500  1
  O  O24  1  0.68474000  0.18350300  0.68359300  1
  O  O25  1  0.18350300  0.68474000  0.18359300  1
  O  O26  1  0.16264400  0.26095100  0.73796800  1
  O  O27  1  0.26095100  0.16264400  0.23796800  1
  O  O28  1  0.31078400  0.09251100  0.67542300  1
  O  O29  1  0.09251100  0.31078400  0.17542300  1
  O  O30  1  0.09739500  0.24352500  0.63920700  1
  O  O31  1  0.24352500  0.09739500  0.13920700  1
  O  O32  1  0.16977600  0.12148400  0.54526400  1
  O  O33  1  0.12148400  0.16977600  0.04526400  1
  O  O34  1  0.42017200  0.47456800  0.57199700  1
  O  O35  1  0.47456800  0.42017200  0.07199700  1
  O  O36  1  0.67651300  0.84597500  0.59076100  1
  O  O37  1  0.84597500  0.67651300  0.09076100  1
  O  O38  1  0.05517100  0.38384600  0.54702600  1
  O  O39  1  0.38384600  0.05517100  0.04702600  1
  O  O40  1  0.30611100  0.73461300  0.58378900  1
  O  O41  1  0.73461300  0.30611100  0.08378900  1
  O  O42  1  0.92918600  0.62627600  0.57183100  1
  O  O43  1  0.62627600  0.92918600  0.07183100  1
  O  O44  1  0.19415800  0.71343600  0.48552600  1
  O  O45  1  0.71343600  0.19415800  0.98552600  1
  O  O46  1  0.75493000  0.74140800  0.70148900  1
  O  O47  1  0.74140800  0.75493000  0.20148900  1
loop_
_geom_bond_atom_site_label_1
_geom_bond_atom_site_label_2
_geom_bond_distance
_geom_bond_site_symmetry_2
Ba0 O45 2.782726 1_555
Ba0 O16 2.804865 1_555
Ba0 O2 2.823878 1_555
Ba0 O39 2.934460 1_556
Ba0 O10 2.940514 1_555
Ba0 O4 2.949757 1_545
Ba0 O12 2.981157 1_545
Ba0 O20 2.998950 1_555
Ba0 O8 3.002885 1_555
Ba0 O33 3.166427 1_556
Ba1 O44 2.782726 1_555
Ba1 O17 2.804865 1_555
Ba1 O3 2.823878 1_555
Ba1 O38 2.934460 1_555
Ba1 O11 2.940514 1_555
Ba1 O5 2.949757 1_455
Ba1 O13 2.981157 1_455
Ba1 O21 2.998950 1_555
Ba1 O9 3.002885 1_555
Ba1 O32 3.166427 1_555
Ba2 O12 2.768221 1_555
Ba2 O46 2.866183 1_555
Ba2 O20 2.878262 1_555
Ba2 O18 2.883351 1_555
Ba2 O8 2.902647 1_565
Ba2 O2 2.966324 1_555
Ba2 O16 2.968502 1_665
Ba2 O26 3.126338 1_665
Ba2 O14 3.175527 1_655
Ba3 O13 2.768221 1_555
Ba3 O47 2.866183 1_555
Ba3 O21 2.878262 1_555
Ba3 O19 2.883351 1_555
Ba3 O9 2.902647 1_655
Ba3 O3 2.966324 1_555
Ba3 O17 2.968502 1_665
Ba3 O27 3.126338 1_665
Ba3 O15 3.175527 1_565
Ba4 O32 2.785006 1_555
Ba4 O34 2.786951 1_555
Ba4 O42 2.830246 1_555
Ba4 O11 2.830673 1_555
Ba4 O40 2.863493 1_545
Ba4 O5 2.887605 1_555
Ba4 O38 2.891708 1_655
Ba4 O36 2.933400 1_545
Ba4 O24 2.958040 1_555
Ba4 O28 3.025780 1_555
Ba5 O33 2.785006 1_555
Ba5 O35 2.786951 1_555
Ba5 O43 2.830246 1_555
Ba5 O10 2.830673 1_554
Ba5 O41 2.863493 1_455
Ba5 O4 2.887605 1_554
Ba5 O39 2.891708 1_565
Ba5 O37 2.933400 1_455
Ba5 O25 2.958040 1_555
Ba5 O29 3.025780 1_555
Ba6 O14 2.672612 1_555
Ba6 O24 2.808774 1_455
Ba6 O40 2.828065 1_555
Ba6 O46 2.896727 1_455
Ba6 O26 2.899874 1_555
Ba6 O30 2.928108 1_555
Ba6 O18 2.950997 1_555
Ba6 H12 2.956886 1_455
Ba6 O42 3.059016 1_455
Ba6 O28 3.104111 1_565
Ba7 O15 2.672612 1_555
Ba7 O25 2.808774 1_545
Ba7 O41 2.828065 1_555
Ba7 O47 2.896727 1_545
Ba7 O27 2.899874 1_555
Ba7 O31 2.928108 1_555
Ba7 O19 2.950997 1_555
Ba7 H13 2.956886 1_545
Ba7 O43 3.059016 1_545
Ba7 O29 3.104111 1_655
Ga0 O33 1.824363 1_665
Ga0 O43 1.838661 1_555
Ga0 O37 1.887273 1_555
Ga0 O0 1.898936 1_554
Ga1 O32 1.824363 1_665
Ga1 O42 1.838661 1_555
Ga1 O36 1.887273 1_555
Ga1 O1 1.898936 1_555
B0 O2 1.380378 1_555
B0 O4 1.383878 1_655
B0 O0 1.392064 1_555
B1 O3 1.380378 1_555
B1 O5 1.383878 1_565
B1 O1 1.392064 1_555
B2 O6 1.450828 1_655
B2 O8 1.461580 1_555
B2 O14 1.474026 1_655
B2 O2 1.574187 1_555
B3 O7 1.450828 1_565
B3 O9 1.461580 1_555
B3 O15 1.474026 1_565
B3 O3 1.574187 1_555
B4 O6 1.447242 1_555
B4 O12 1.464856 1_555
B4 O10 1.489472 1_555
B4 O4 1.559021 1_555
B5 O7 1.447242 1_555
B5 O13 1.464856 1_555
B5 O11 1.489472 1_555
B5 O5 1.559021 1_555
B6 O14 1.490974 1_555
B6 O16 1.501663 1_565
B6 O18 1.504008 1_555
B6 O12 1.505306 1_555
B7 O15 1.490974 1_555
B7 O17 1.501663 1_655
B7 O19 1.504008 1_555
B7 O13 1.505306 1_555
B8 O20 1.457711 1_555
B8 O16 1.475427 1_555
B8 O22 1.484327 1_555
B8 O26 1.533101 1_555
B9 O21 1.457711 1_555
B9 O17 1.475427 1_555
B9 O23 1.484327 1_555
B9 O27 1.533101 1_555
B10 O18 1.454330 1_545
B10 O22 1.477679 1_555
B10 O24 1.483589 1_555
B10 O28 1.525238 1_555
B11 O19 1.454330 1_455
B11 O23 1.477679 1_555
B11 O25 1.483589 1_555
B11 O29 1.525238 1_555
B12 O30 1.372593 1_555
B12 O28 1.381183 1_555
B12 O26 1.395983 1_555
B13 O31 1.372593 1_555
B13 O29 1.381183 1_555
B13 O27 1.395983 1_555
B14 O38 1.450051 1_555
B14 O32 1.450701 1_555
B14 O30 1.498397 1_555
B14 O34 1.535410 1_555
B15 O39 1.450051 1_555
B15 O33 1.450701 1_555
B15 O31 1.498397 1_555
B15 O35 1.535410 1_555
B16 O34 1.367662 1_555
B16 O40 1.383133 1_555
B16 O36 1.389233 1_555
B17 O35 1.367662 1_555
B17 O41 1.383133 1_555
B17 O37 1.389233 1_555
B18 O42 1.451586 1_455
B18 O38 1.458358 1_555
B18 O44 1.486290 1_555
B18 O40 1.548583 1_555
B19 O43 1.451586 1_545
B19 O39 1.458358 1_555
B19 O45 1.486290 1_554
B19 O41 1.548583 1_555
H0 O8 1.001844 1_555
H0 O22 1.656551 1_555
H1 O9 1.001844 1_555
H1 O23 1.656551 1_555
H2 O10 0.980383 1_555
H3 O11 0.980383 1_555
H4 O20 1.003277 1_555
H5 O21 1.003277 1_555
H6 O24 0.975443 1_555
H7 O25 0.975443 1_555
H8 O44 0.973567 1_555
H9 O45 0.973567 1_555
H10 O46 1.000546 1_555
H11 O47 1.000546 1_555
H12 O46 1.000144 1_555
H13 O47 1.000144 1_555
