# generated using pymatgen
data_Sr3CaAl8(SiO5)8
_symmetry_space_group_name_H-M   'P 1'
_cell_length_a   14.20295324
_cell_length_b   14.20295324
_cell_length_c   5.41787520
_cell_angle_alpha   81.40975225
_cell_angle_beta   81.40975225
_cell_angle_gamma   135.67285828
_symmetry_Int_Tables_number   1
_chemical_formula_structural   Sr3CaAl8(SiO5)8
_chemical_formula_sum   'Sr3 Ca1 Al8 Si8 O40'
_cell_volume   701.27011347
_cell_formula_units_Z   1
loop_
 _symmetry_equiv_pos_site_id
 _symmetry_equiv_pos_as_xyz
  1  'x, y, z'
loop_
 _atom_site_type_symbol
 _atom_site_label
 _atom_site_symmetry_multiplicity
 _atom_site_fract_x
 _atom_site_fract_y
 _atom_site_fract_z
 _atom_site_occupancy
  Sr  Sr0  1  0.78652100  0.78652100  0.34041200  1
  Sr  Sr1  1  0.71472900  0.21442900  0.65933600  1
  Sr  Sr2  1  0.21442900  0.71472900  0.65933600  1
  Ca  Ca0  1  0.29088300  0.29088300  0.34610000  1
  Al  Al0  1  0.24939500  0.00221600  0.49868400  1
  Al  Al1  1  0.74935700  0.49954400  0.50010300  1
  Al  Al2  1  0.00221600  0.24939500  0.49868400  1
  Al  Al3  1  0.49954400  0.74935700  0.50010300  1
  Al  Al4  1  0.00029800  0.75065100  0.99855000  1
  Al  Al5  1  0.49863900  0.25042800  0.00124800  1
  Al  Al6  1  0.75065100  0.00029800  0.99855000  1
  Al  Al7  1  0.25042800  0.49863900  0.00124800  1
  Si  Si0  1  0.81978600  0.44123500  0.02695200  1
  Si  Si1  1  0.32029500  0.94270600  0.02580500  1
  Si  Si2  1  0.06168400  0.18134100  0.97032200  1
  Si  Si3  1  0.55636700  0.67702600  0.97802800  1
  Si  Si4  1  0.18134100  0.06168400  0.97032200  1
  Si  Si5  1  0.67702600  0.55636700  0.97802800  1
  Si  Si6  1  0.94270600  0.32029500  0.02580500  1
  Si  Si7  1  0.44123500  0.81978600  0.02695200  1
  O  O0  1  0.95487000  0.64219100  0.34273100  1
  O  O1  1  0.45404600  0.14261100  0.34512200  1
  O  O2  1  0.85809400  0.04444800  0.65634500  1
  O  O3  1  0.35861900  0.54477100  0.65622300  1
  O  O4  1  0.04444800  0.85809400  0.65634500  1
  O  O5  1  0.54477100  0.35861900  0.65622300  1
  O  O6  1  0.14261100  0.45404600  0.34512200  1
  O  O7  1  0.64219100  0.95487000  0.34273100  1
  O  O8  1  0.97502300  0.61462600  0.90039300  1
  O  O9  1  0.47610700  0.11585900  0.90046600  1
  O  O10  1  0.88770800  0.02611700  0.09327100  1
  O  O11  1  0.38396400  0.51917800  0.10524500  1
  O  O12  1  0.02611700  0.88770800  0.09327100  1
  O  O13  1  0.51917800  0.38396400  0.10524500  1
  O  O14  1  0.11585900  0.47610700  0.90046600  1
  O  O15  1  0.61462600  0.97502300  0.90039300  1
  O  O16  1  0.97850400  0.97850400  0.54288300  1
  O  O17  1  0.46890200  0.46890200  0.53441800  1
  O  O18  1  0.02171200  0.52174500  0.45743800  1
  O  O19  1  0.52174500  0.02171200  0.45743800  1
  O  O20  1  0.38549000  0.73993400  0.34756400  1
  O  O21  1  0.88678800  0.23978000  0.34646300  1
  O  O22  1  0.75631800  0.61113400  0.65665500  1
  O  O23  1  0.25875400  0.11956200  0.64562700  1
  O  O24  1  0.61113400  0.75631800  0.65665500  1
  O  O25  1  0.11956200  0.25875400  0.64562700  1
  O  O26  1  0.23978000  0.88678800  0.34646300  1
  O  O27  1  0.73993400  0.38549000  0.34756400  1
  O  O28  1  0.21474700  0.89548900  0.85408400  1
  O  O29  1  0.71245400  0.39264600  0.85879000  1
  O  O30  1  0.60593800  0.78490700  0.14579800  1
  O  O31  1  0.10730300  0.28743300  0.13938900  1
  O  O32  1  0.78490700  0.60593800  0.14579800  1
  O  O33  1  0.28743300  0.10730300  0.13938900  1
  O  O34  1  0.39264600  0.71245400  0.85879000  1
  O  O35  1  0.89548900  0.21474700  0.85408400  1
  O  O36  1  0.65227300  0.65227300  0.01386100  1
  O  O37  1  0.15196500  0.15196500  0.02961700  1
  O  O38  1  0.35001200  0.85044800  0.98572500  1
  O  O39  1  0.85044800  0.35001200  0.98572500  1
loop_
_geom_bond_atom_site_label_1
_geom_bond_atom_site_label_2
_geom_bond_distance
_geom_bond_site_symmetry_2
Ca0 O23 2.402714 1_555
Ca0 O25 2.402714 1_555
Ca0 O13 2.460046 1_555
Ca0 O11 2.460046 1_555
Ca0 O17 2.494297 1_555
Ca0 O37 2.679090 1_555
Al0 O26 1.871826 1_545
Al0 O23 1.881557 1_555
Al0 O4 1.898108 1_545
Al0 O1 1.899090 1_555
Al0 O33 1.993263 1_555
Al0 O28 2.006311 1_545
Al1 O22 1.855684 1_555
Al1 O27 1.856823 1_555
Al1 O5 1.898391 1_555
Al1 O0 1.905579 1_555
Al1 O32 1.993862 1_555
Al1 O29 2.008017 1_555
Al2 O21 1.871826 1_455
Al2 O25 1.881557 1_555
Al2 O2 1.898108 1_455
Al2 O6 1.899090 1_555
Al2 O31 1.993263 1_555
Al2 O35 2.006311 1_455
Al3 O24 1.855684 1_555
Al3 O20 1.856823 1_555
Al3 O3 1.898391 1_555
Al3 O7 1.905579 1_555
Al3 O30 1.993862 1_555
Al3 O34 2.008017 1_555
Al4 O8 1.875057 1_455
Al4 O12 1.876296 1_556
Al4 O4 1.896774 1_555
Al4 O0 1.904454 1_456
Al4 O28 1.990933 1_555
Al4 O32 2.001166 1_456
Al5 O9 1.882126 1_554
Al5 O13 1.891148 1_555
Al5 O5 1.902728 1_554
Al5 O1 1.903867 1_555
Al5 O33 1.959933 1_555
Al5 O29 1.988929 1_554
Al6 O15 1.875057 1_545
Al6 O10 1.876296 1_556
Al6 O2 1.896774 1_555
Al6 O7 1.904454 1_546
Al6 O35 1.990933 1_555
Al6 O30 2.001166 1_546
Al7 O14 1.882126 1_554
Al7 O11 1.891148 1_555
Al7 O3 1.902728 1_554
Al7 O6 1.903867 1_555
Al7 O31 1.959933 1_555
Al7 O34 1.988929 1_554
O8 Si0 1.634501 1_556
O8 Sr2 2.547737 1_655
O9 Si1 1.634682 1_546
O9 Sr1 2.548619 1_555
O10 Si2 1.638728 1_654
O10 Sr0 2.550560 1_545
O11 Si3 1.636188 1_554
O12 Si4 1.638728 1_564
O12 Sr0 2.550560 1_455
O13 Si5 1.636188 1_554
O14 Si6 1.634682 1_456
O14 Sr2 2.548619 1_555
O15 Si7 1.634501 1_556
O15 Sr1 2.547737 1_565
O16 Sr0 2.687566 1_555
O17 Sr0 3.139548 1_555
O18 Sr2 2.693985 1_555
O18 Sr1 3.029733 1_455
O19 Sr1 2.693985 1_555
O19 Sr2 3.029733 1_545
O20 Si7 1.626758 1_555
O20 Sr2 2.496635 1_555
O21 Si6 1.628361 1_555
O21 Sr1 2.509229 1_555
O22 Si5 1.631344 1_555
O22 Sr0 2.510256 1_555
O23 Si4 1.635952 1_555
O24 Si3 1.631344 1_555
O24 Sr0 2.510256 1_555
O25 Si2 1.635952 1_555
O26 Si1 1.628361 1_555
O26 Sr2 2.509229 1_555
O27 Si0 1.626758 1_555
O27 Sr1 2.496635 1_555
O28 Si1 1.651448 1_556
O28 Sr2 2.915222 1_555
O29 Si0 1.651602 1_556
O29 Sr1 2.915389 1_555
O30 Si3 1.653308 1_554
O30 Sr0 2.901984 1_555
O31 Si2 1.649888 1_554
O32 Si5 1.653308 1_554
O32 Sr0 2.901984 1_555
O33 Si4 1.649888 1_554
O34 Si7 1.651602 1_556
O34 Sr2 2.915389 1_555
O35 Si6 1.651448 1_556
O35 Sr1 2.915222 1_555
O36 Si5 1.661475 1_554
O36 Si3 1.661475 1_554
O36 Sr0 2.686122 1_555
O37 Si4 1.664303 1_554
O37 Si2 1.664303 1_554
O38 Si7 1.668196 1_556
O38 Si1 1.670677 1_556
O38 Sr2 2.697348 1_555
O39 Si0 1.668196 1_556
O39 Si6 1.670677 1_556
O39 Sr1 2.697348 1_555
