# generated using pymatgen
data_SnHg2(SBr)2
_symmetry_space_group_name_H-M   'P 1'
_cell_length_a   10.64253800
_cell_length_b   11.15448700
_cell_length_c   13.12235268
_cell_angle_alpha   64.52536260
_cell_angle_beta   90.00000000
_cell_angle_gamma   90.00000000
_symmetry_Int_Tables_number   1
_chemical_formula_structural   SnHg2(SBr)2
_chemical_formula_sum   'Sn4 Hg8 S8 Br8'
_cell_volume   1406.32730718
_cell_formula_units_Z   4
loop_
 _symmetry_equiv_pos_site_id
 _symmetry_equiv_pos_as_xyz
  1  'x, y, z'
loop_
 _atom_site_type_symbol
 _atom_site_label
 _atom_site_symmetry_multiplicity
 _atom_site_fract_x
 _atom_site_fract_y
 _atom_site_fract_z
 _atom_site_occupancy
  Sn  Sn0  1  0.68466600  0.22768400  0.53203000  1
  Sn  Sn1  1  0.81533400  0.22768400  0.03203000  1
  Sn  Sn2  1  0.31533400  0.77231600  0.46797000  1
  Sn  Sn3  1  0.18466600  0.77231600  0.96797000  1
  Hg  Hg0  1  0.60607700  0.23135900  0.82667400  1
  Hg  Hg1  1  0.89392300  0.23135900  0.32667400  1
  Hg  Hg2  1  0.39392300  0.76864100  0.17332600  1
  Hg  Hg3  1  0.10607700  0.76864100  0.67332600  1
  Hg  Hg4  1  0.82670200  0.49040900  0.62864900  1
  Hg  Hg5  1  0.67329800  0.49040900  0.12864900  1
  Hg  Hg6  1  0.17329800  0.50959100  0.37135100  1
  Hg  Hg7  1  0.32670200  0.50959100  0.87135100  1
  S  S0  1  0.59140100  0.11257600  0.71470800  1
  S  S1  1  0.90859900  0.11257600  0.21470800  1
  S  S2  1  0.40859900  0.88742400  0.28529200  1
  S  S3  1  0.09140100  0.88742400  0.78529200  1
  S  S4  1  0.60511100  0.31173500  0.96939100  1
  S  S5  1  0.89488900  0.31173500  0.46939100  1
  S  S6  1  0.39488900  0.68826500  0.03060900  1
  S  S7  1  0.10511100  0.68826500  0.53060900  1
  Br  Br0  1  0.53197000  0.40271500  0.40862600  1
  Br  Br1  1  0.96803000  0.40271500  0.90862600  1
  Br  Br2  1  0.46803000  0.59728500  0.59137400  1
  Br  Br3  1  0.03197000  0.59728500  0.09137400  1
  Br  Br4  1  0.67076900  0.03713300  0.47576400  1
  Br  Br5  1  0.82923100  0.03713300  0.97576400  1
  Br  Br6  1  0.32923100  0.96286700  0.52423600  1
  Br  Br7  1  0.17076900  0.96286700  0.02423600  1
loop_
_geom_bond_atom_site_label_1
_geom_bond_atom_site_label_2
_geom_bond_distance
_geom_bond_site_symmetry_2
Hg0 S0 2.369229 1_555
Hg0 S4 2.399080 1_555
Hg1 S1 2.369229 1_555
Hg1 S5 2.399080 1_555
Hg2 S2 2.369229 1_555
Hg2 S6 2.399080 1_555
Hg3 S3 2.369229 1_555
Hg3 S7 2.399080 1_555
S0 Sn0 2.394268 1_555
S1 Sn1 2.394268 1_555
S2 Sn2 2.394268 1_555
S3 Sn3 2.394268 1_555
S4 Sn1 2.428425 1_556
S5 Sn0 2.428425 1_555
S6 Sn3 2.428425 1_554
S7 Sn2 2.428425 1_555
Br0 Sn0 2.520968 1_555
Br1 Sn1 2.520968 1_556
Br2 Sn2 2.520968 1_555
Br3 Sn3 2.520968 1_554
Br4 Sn0 2.536682 1_555
Br5 Sn1 2.536682 1_556
Br6 Sn2 2.536682 1_555
Br7 Sn3 2.536682 1_554
