# generated using pymatgen
data_RbCeF4
_symmetry_space_group_name_H-M   'P 1'
_cell_length_a   3.78400852
_cell_length_b   6.43929134
_cell_length_c   16.10398465
_cell_angle_alpha   90.00000000
_cell_angle_beta   90.00000000
_cell_angle_gamma   90.00000000
_symmetry_Int_Tables_number   1
_chemical_formula_structural   RbCeF4
_chemical_formula_sum   'Rb4 Ce4 F16'
_cell_volume   392.39505733
_cell_formula_units_Z   4
loop_
 _symmetry_equiv_pos_site_id
 _symmetry_equiv_pos_as_xyz
  1  'x, y, z'
loop_
 _atom_site_type_symbol
 _atom_site_label
 _atom_site_symmetry_multiplicity
 _atom_site_fract_x
 _atom_site_fract_y
 _atom_site_fract_z
 _atom_site_occupancy
  Rb  Rb0  1  0.25000000  0.72482179  0.70090118  1
  Rb  Rb1  1  0.75000000  0.27517821  0.29909882  1
  Rb  Rb2  1  0.75000000  0.77517821  0.20090118  1
  Rb  Rb3  1  0.25000000  0.22482179  0.79909882  1
  Ce  Ce0  1  0.25000000  0.25173220  0.05787153  1
  Ce  Ce1  1  0.75000000  0.74826780  0.94212847  1
  Ce  Ce2  1  0.75000000  0.24826780  0.55787153  1
  Ce  Ce3  1  0.25000000  0.75173220  0.44212847  1
  F  F0  1  0.25000000  0.60779159  0.86899379  1
  F  F1  1  0.75000000  0.39220841  0.13100621  1
  F  F2  1  0.75000000  0.89220841  0.36899379  1
  F  F3  1  0.25000000  0.10779159  0.63100621  1
  F  F4  1  0.25000000  0.63309851  0.03751014  1
  F  F5  1  0.75000000  0.36690149  0.96248986  1
  F  F6  1  0.75000000  0.86690149  0.53751014  1
  F  F7  1  0.25000000  0.13309851  0.46248986  1
  F  F8  1  0.25000000  0.50246210  0.55616457  1
  F  F9  1  0.75000000  0.49753790  0.44383543  1
  F  F10  1  0.75000000  0.99753790  0.05616457  1
  F  F11  1  0.25000000  0.00246210  0.94383543  1
  F  F12  1  0.25000000  0.59682932  0.31308042  1
  F  F13  1  0.75000000  0.40317068  0.68691958  1
  F  F14  1  0.75000000  0.90317068  0.81308042  1
  F  F15  1  0.25000000  0.09682932  0.18691958  1
loop_
_geom_bond_atom_site_label_1
_geom_bond_atom_site_label_2
_geom_bond_distance
_geom_bond_site_symmetry_2
Ce0 F15 2.305168 1_555
Ce0 F1 2.405211 1_455
Ce0 F1 2.405211 1_555
Ce0 F11 2.439040 1_554
Ce0 F4 2.477523 1_555
Ce0 F10 2.501930 1_445
Ce0 F10 2.501930 1_545
Ce0 F5 2.547359 1_554
Ce0 F5 2.547359 1_454
Ce1 F14 2.305168 1_555
Ce1 F0 2.405211 1_655
Ce1 F0 2.405211 1_555
Ce1 F10 2.439040 1_556
Ce1 F5 2.477523 1_555
Ce1 F11 2.501930 1_665
Ce1 F11 2.501930 1_565
Ce1 F4 2.547359 1_656
Ce1 F4 2.547359 1_556
Ce2 F13 2.305168 1_555
Ce2 F3 2.405211 1_555
Ce2 F3 2.405211 1_655
Ce2 F9 2.439040 1_555
Ce2 F6 2.477523 1_545
Ce2 F8 2.501930 1_655
Ce2 F8 2.501930 1_555
Ce2 F7 2.547359 1_555
Ce2 F7 2.547359 1_655
Ce3 F12 2.305168 1_555
Ce3 F2 2.405211 1_555
Ce3 F2 2.405211 1_455
Ce3 F8 2.439040 1_555
Ce3 F7 2.477523 1_565
Ce3 F9 2.501930 1_555
Ce3 F9 2.501930 1_455
Ce3 F6 2.547359 1_455
Ce3 F6 2.547359 1_555
F0 Rb3 2.710788 1_555
F0 Rb0 2.809900 1_555
F1 Rb2 2.710788 1_555
F1 Rb1 2.809900 1_555
F2 Rb1 2.710788 1_565
F2 Rb2 2.809900 1_555
F3 Rb0 2.710788 1_545
F3 Rb3 2.809900 1_555
F8 Rb0 2.735500 1_555
F9 Rb1 2.735500 1_555
F10 Rb2 2.735500 1_555
F11 Rb3 2.735500 1_555
F12 Rb1 2.814297 1_455
F12 Rb1 2.814297 1_555
F12 Rb2 2.856949 1_555
F12 Rb2 2.856949 1_455
F13 Rb0 2.814297 1_555
F13 Rb0 2.814297 1_655
F13 Rb3 2.856949 1_555
F13 Rb3 2.856949 1_655
F14 Rb3 2.814297 1_565
F14 Rb3 2.814297 1_665
F14 Rb0 2.856949 1_555
F14 Rb0 2.856949 1_655
F15 Rb2 2.814297 1_545
F15 Rb2 2.814297 1_445
F15 Rb1 2.856949 1_455
F15 Rb1 2.856949 1_555
