# generated using pymatgen
data_NdSnIr
_symmetry_space_group_name_H-M   'P 1'
_cell_length_a   7.44372355
_cell_length_b   7.44372355
_cell_length_c   4.18903339
_cell_angle_alpha   90.00000000
_cell_angle_beta   90.00000000
_cell_angle_gamma   119.99999516
_symmetry_Int_Tables_number   1
_chemical_formula_structural   NdSnIr
_chemical_formula_sum   'Nd3 Sn3 Ir3'
_cell_volume   201.01337102
_cell_formula_units_Z   3
loop_
 _symmetry_equiv_pos_site_id
 _symmetry_equiv_pos_as_xyz
  1  'x, y, z'
loop_
 _atom_site_type_symbol
 _atom_site_label
 _atom_site_symmetry_multiplicity
 _atom_site_fract_x
 _atom_site_fract_y
 _atom_site_fract_z
 _atom_site_occupancy
  Nd  Nd0  1  0.58722249  1.00000000  0.00000000  1
  Nd  Nd1  1  1.00000000  0.58722249  0.00000000  1
  Nd  Nd2  1  0.41277751  0.41277751  0.00000000  1
  Sn  Sn0  1  0.24980650  1.00000000  0.50000000  1
  Sn  Sn1  1  1.00000000  0.24980650  0.50000000  1
  Sn  Sn2  1  0.75019350  0.75019350  0.50000000  1
  Ir  Ir0  1  0.33333300  0.66666700  0.50000000  1
  Ir  Ir1  1  0.66666700  0.33333300  0.50000000  1
  Ir  Ir2  1  0.00000000  -0.00000000  0.00000000  1
loop_
_geom_bond_atom_site_label_1
_geom_bond_atom_site_label_2
_geom_bond_distance
_geom_bond_site_symmetry_2
Nd0 Sn0 3.270366 1_554
Nd0 Sn0 3.270366 1_555
Nd0 Sn2 3.401781 1_555
Nd0 Sn2 3.401781 1_554
Nd0 Sn1 3.401781 1_565
Nd0 Sn1 3.401781 1_564
Nd1 Sn1 3.270366 1_554
Nd1 Sn1 3.270366 1_555
Nd1 Sn2 3.401781 1_555
Nd1 Sn2 3.401781 1_554
Nd1 Sn0 3.401781 1_655
Nd1 Sn0 3.401781 1_654
Nd2 Sn2 3.270366 1_554
Nd2 Sn2 3.270366 1_555
Nd2 Sn0 3.401781 1_544
Nd2 Sn0 3.401781 1_545
Nd2 Sn1 3.401781 1_454
Nd2 Sn1 3.401781 1_455
Sn0 Sn1 3.220732 1_465
Sn0 Sn2 3.220732 1_455
Sn1 Sn2 3.220732 1_545
Ir0 Sn0 2.843558 1_555
Ir0 Sn1 2.843563 1_455
Ir0 Sn2 2.843565 1_555
Ir0 Nd1 3.070170 1_455
Ir0 Nd1 3.070170 1_456
Ir0 Nd0 3.070172 1_556
Ir0 Nd0 3.070172 1_555
Ir0 Nd2 3.070175 1_555
Ir0 Nd2 3.070175 1_556
Ir1 Sn1 2.843558 1_555
Ir1 Sn0 2.843563 1_545
Ir1 Sn2 2.843565 1_555
Ir1 Nd0 3.070170 1_545
Ir1 Nd0 3.070170 1_546
Ir1 Nd1 3.070172 1_555
Ir1 Nd1 3.070172 1_556
Ir1 Nd2 3.070175 1_555
Ir1 Nd2 3.070175 1_556
Ir2 Sn0 2.800840 1_544
Ir2 Sn0 2.800840 1_545
Ir2 Sn1 2.800840 1_455
Ir2 Sn1 2.800840 1_454
Ir2 Sn2 2.800840 1_444
Ir2 Sn2 2.800840 1_445
Ir2 Nd0 3.072602 1_445
Ir2 Nd1 3.072602 1_445
Ir2 Nd2 3.072602 1_555
