# generated using pymatgen
data_Sr2GdTaO6
_symmetry_space_group_name_H-M   'P 1'
_cell_length_a   5.85682661
_cell_length_b   6.00863600
_cell_length_c   8.36740687
_cell_angle_alpha   90.00000000
_cell_angle_beta   90.12495377
_cell_angle_gamma   90.00000000
_symmetry_Int_Tables_number   1
_chemical_formula_structural   Sr2GdTaO6
_chemical_formula_sum   'Sr4 Gd2 Ta2 O12'
_cell_volume   294.46122682
_cell_formula_units_Z   2
loop_
 _symmetry_equiv_pos_site_id
 _symmetry_equiv_pos_as_xyz
  1  'x, y, z'
loop_
 _atom_site_type_symbol
 _atom_site_label
 _atom_site_symmetry_multiplicity
 _atom_site_fract_x
 _atom_site_fract_y
 _atom_site_fract_z
 _atom_site_occupancy
  Sr  Sr0  1  0.01107500  0.45638100  0.25259400  1
  Sr  Sr1  1  0.98892500  0.54361900  0.74740600  1
  Sr  Sr2  1  0.48892500  0.95638100  0.24740600  1
  Sr  Sr3  1  0.51107500  0.04361900  0.75259400  1
  Gd  Gd0  1  0.00000000  0.00000000  0.50000000  1
  Gd  Gd1  1  0.50000000  0.50000000  0.00000000  1
  Ta  Ta0  1  0.00000000  0.00000000  0.00000000  1
  Ta  Ta1  1  0.50000000  0.50000000  0.50000000  1
  O  O0  1  0.91412600  0.03080000  0.23207800  1
  O  O1  1  0.08587400  0.96920000  0.76792200  1
  O  O2  1  0.58587400  0.53080000  0.26792200  1
  O  O3  1  0.41412600  0.46920000  0.73207800  1
  O  O4  1  0.19024100  0.72741100  0.05028500  1
  O  O5  1  0.80975900  0.27258900  0.94971500  1
  O  O6  1  0.30975900  0.22741100  0.44971500  1
  O  O7  1  0.69024100  0.77258900  0.55028500  1
  O  O8  1  0.27526400  0.19179500  0.04136900  1
  O  O9  1  0.72473600  0.80820500  0.95863100  1
  O  O10  1  0.22473600  0.69179500  0.45863100  1
  O  O11  1  0.77526400  0.30820500  0.54136900  1
loop_
_geom_bond_atom_site_label_1
_geom_bond_atom_site_label_2
_geom_bond_distance
_geom_bond_site_symmetry_2
Gd0 O11 2.298651 1_455
Gd0 O10 2.298651 1_545
Gd0 O1 2.303912 1_545
Gd0 O0 2.303912 1_455
Gd0 O6 2.310592 1_555
Gd0 O7 2.310592 1_445
Gd1 O9 2.298651 1_554
Gd1 O8 2.298651 1_555
Gd1 O2 2.303912 1_555
Gd1 O3 2.303912 1_554
Gd1 O4 2.310592 1_555
Gd1 O5 2.310592 1_554
O0 Ta0 2.015542 1_655
O0 Sr2 2.533679 1_545
O0 Sr0 2.624982 1_655
O1 Ta0 2.015542 1_566
O1 Sr3 2.533679 1_565
O1 Sr1 2.624982 1_455
O2 Ta1 2.015542 1_555
O2 Sr0 2.533679 1_655
O2 Sr2 2.624982 1_555
O3 Ta1 2.015542 1_555
O3 Sr1 2.533679 1_455
O3 Sr3 2.624982 1_555
O4 Ta0 2.024630 1_565
O4 Sr0 2.574204 1_555
O4 Sr2 2.767836 1_555
O4 Sr1 3.003245 1_454
O5 Ta0 2.024630 1_656
O5 Sr1 2.574204 1_555
O5 Sr3 2.767836 1_555
O5 Sr0 3.003245 1_656
O6 Ta1 2.024630 1_555
O6 Sr2 2.574204 1_545
O6 Sr0 2.767836 1_555
O6 Sr3 3.003245 1_555
O7 Ta1 2.024630 1_555
O7 Sr3 2.574204 1_565
O7 Sr1 2.767836 1_555
O7 Sr2 3.003245 1_555
O8 Ta0 2.011113 1_555
O8 Sr2 2.555298 1_545
O8 Sr0 2.838535 1_555
O8 Sr3 2.924585 1_554
O9 Ta0 2.011113 1_666
O9 Sr3 2.555298 1_565
O9 Sr1 2.838535 1_555
O9 Sr2 2.924585 1_556
O10 Ta1 2.011113 1_555
O10 Sr0 2.555298 1_555
O10 Sr2 2.838535 1_555
O10 Sr1 2.924585 1_455
O11 Ta1 2.011113 1_555
O11 Sr1 2.555298 1_555
O11 Sr3 2.838535 1_555
O11 Sr0 2.924585 1_655
