# generated using pymatgen
data_AcCe3
_symmetry_space_group_name_H-M   'P 1'
_cell_length_a   6.13438056
_cell_length_b   6.13438056
_cell_length_c   6.13438056
_cell_angle_alpha   131.99023291
_cell_angle_beta   131.99023291
_cell_angle_gamma   70.24445337
_symmetry_Int_Tables_number   1
_chemical_formula_structural   AcCe3
_chemical_formula_sum   'Ac1 Ce3'
_cell_volume   124.99116819
_cell_formula_units_Z   1
loop_
 _symmetry_equiv_pos_site_id
 _symmetry_equiv_pos_as_xyz
  1  'x, y, z'
loop_
 _atom_site_type_symbol
 _atom_site_label
 _atom_site_symmetry_multiplicity
 _atom_site_fract_x
 _atom_site_fract_y
 _atom_site_fract_z
 _atom_site_occupancy
  Ac  Ac0  1  0.00000000  0.00000000  0.00000000  1
  Ce  Ce0  1  0.75000000  0.25000000  0.50000000  1
  Ce  Ce1  1  0.25000000  0.75000000  0.50000000  1
  Ce  Ce2  1  0.50000000  0.50000000  0.00000000  1
loop_
_geom_bond_atom_site_label_1
_geom_bond_atom_site_label_2
_geom_bond_distance
_geom_bond_site_symmetry_2
Ac0 Ce2 3.529248 1_545
Ac0 Ce2 3.529248 1_444
Ac0 Ce2 3.529248 1_455
Ac0 Ce2 3.529248 1_556
Ac0 Ce1 3.538581 1_555
Ac0 Ce0 3.538581 1_444
Ac0 Ce0 3.538581 1_455
Ac0 Ce0 3.538581 1_454
Ac0 Ce1 3.538581 1_545
Ac0 Ce1 3.538581 1_544
Ac0 Ce0 3.538581 1_555
Ac0 Ce1 3.538581 1_444
Ce0 Ce1 3.529248 1_544
Ce0 Ce1 3.529248 1_645
Ce0 Ce1 3.529248 1_656
Ce0 Ce1 3.529248 1_555
Ce0 Ce2 3.538581 1_545
Ce0 Ce2 3.538581 1_555
Ce0 Ce2 3.538581 1_556
Ce0 Ce2 3.538581 1_656
Ce1 Ce2 3.538581 1_555
Ce1 Ce2 3.538581 1_566
Ce1 Ce2 3.538581 1_556
Ce1 Ce2 3.538581 1_455
