# generated using pymatgen
data_YB2Rh3
_symmetry_space_group_name_H-M   'P 1'
_cell_length_a   6.29635451
_cell_length_b   10.74743269
_cell_length_c   10.74727680
_cell_angle_alpha   59.99871155
_cell_angle_beta   89.99891013
_cell_angle_gamma   89.99884639
_symmetry_Int_Tables_number   1
_chemical_formula_structural   YB2Rh3
_chemical_formula_sum   'Y8 B16 Rh24'
_cell_volume   629.82128543
_cell_formula_units_Z   8
loop_
 _symmetry_equiv_pos_site_id
 _symmetry_equiv_pos_as_xyz
  1  'x, y, z'
loop_
 _atom_site_type_symbol
 _atom_site_label
 _atom_site_symmetry_multiplicity
 _atom_site_fract_x
 _atom_site_fract_y
 _atom_site_fract_z
 _atom_site_occupancy
  Y  Y0_0  1  0.25000000  0.25000003  0.99999998  1
  Y  Y0_1  1  0.25000000  0.25000003  0.49999998  1
  Y  Y0_2  1  0.25000000  0.75000003  0.99999998  1
  Y  Y0_3  1  0.25000000  0.75000003  0.49999997  1
  Y  Y0_4  1  0.75000000  0.25000003  0.99999998  1
  Y  Y0_5  1  0.75000000  0.25000003  0.49999998  1
  Y  Y0_6  1  0.75000000  0.75000003  0.99999998  1
  Y  Y0_7  1  0.75000000  0.75000003  0.49999997  1
  B  B0_0  1  0.25000100  0.08333923  0.33332579  1
  B  B0_1  1  0.25000100  0.08333924  0.83332580  1
  B  B0_2  1  0.25000100  0.58333924  0.33332579  1
  B  B0_3  1  0.25000100  0.58333923  0.83332579  1
  B  B0_4  1  0.75000100  0.08333923  0.33332579  1
  B  B0_5  1  0.75000100  0.08333923  0.83332579  1
  B  B0_6  1  0.75000100  0.58333923  0.33332579  1
  B  B0_7  1  0.75000100  0.58333923  0.83332579  1
  B  B1_0  1  0.24999900  0.41666076  0.16667470  1
  B  B1_1  1  0.24999900  0.41666076  0.66667470  1
  B  B1_2  1  0.24999900  0.91666076  0.16667470  1
  B  B1_3  1  0.24999900  0.91666076  0.66667470  1
  B  B1_4  1  0.74999900  0.41666076  0.16667470  1
  B  B1_5  1  0.74999900  0.41666076  0.66667470  1
  B  B1_6  1  0.74999900  0.91666076  0.16667470  1
  B  B1_7  1  0.74999900  0.91666076  0.66667470  1
  Rh  Rh0_0  1  0.00000000  0.49999950  0.25000052  1
  Rh  Rh0_1  1  0.00000000  0.49999950  0.75000052  1
  Rh  Rh0_2  1  0.00000000  0.99999950  0.25000052  1
  Rh  Rh0_3  1  0.00000000  0.99999950  0.75000052  1
  Rh  Rh0_4  1  0.50000000  0.49999949  0.25000052  1
  Rh  Rh0_5  1  0.50000000  0.49999949  0.75000052  1
  Rh  Rh0_6  1  0.50000000  0.99999950  0.25000052  1
  Rh  Rh0_7  1  0.50000000  0.99999949  0.75000052  1
  Rh  Rh1_0  1  0.00000000  0.25000007  0.24999907  1
  Rh  Rh1_1  1  0.00000000  0.25000008  0.74999907  1
  Rh  Rh1_2  1  0.00000000  0.75000007  0.24999907  1
  Rh  Rh1_3  1  0.00000000  0.75000007  0.74999907  1
  Rh  Rh1_4  1  0.50000000  0.25000007  0.24999907  1
  Rh  Rh1_5  1  0.50000000  0.25000007  0.74999907  1
  Rh  Rh1_6  1  0.50000000  0.75000008  0.24999907  1
  Rh  Rh1_7  1  0.50000000  0.75000007  0.74999907  1
  Rh  Rh2_0  1  0.00000000  0.00000090  0.99999993  1
  Rh  Rh2_1  1  0.00000000  0.00000091  0.49999993  1
  Rh  Rh2_2  1  0.00000000  0.50000090  0.99999993  1
  Rh  Rh2_3  1  0.00000000  0.50000090  0.49999993  1
  Rh  Rh2_4  1  0.50000000  0.00000090  0.99999993  1
  Rh  Rh2_5  1  0.50000000  0.00000091  0.49999993  1
  Rh  Rh2_6  1  0.50000000  0.50000090  0.99999993  1
  Rh  Rh2_7  1  0.50000000  0.50000090  0.49999993  1
loop_
_geom_bond_atom_site_label_1
_geom_bond_atom_site_label_2
_geom_bond_distance
_geom_bond_site_symmetry_2
Y0_0 Y0_4 3.148177 1_555
Y0_0 Y0_4 3.148177 1_455
Y0_1 Y0_5 3.148177 1_455
Y0_1 Y0_5 3.148177 1_555
Y0_2 Y0_6 3.148177 1_455
Y0_2 Y0_6 3.148177 1_555
Y0_3 Y0_7 3.148177 1_455
Y0_3 Y0_7 3.148177 1_555
B0_0 Rh1_0 2.209952 1_555
B0_0 Rh1_4 2.209970 1_555
B0_0 Rh0_6 2.209972 1_545
B0_0 Rh2_1 2.210025 1_555
B0_0 Rh0_2 2.210031 1_545
B0_0 Rh2_5 2.210039 1_555
B0_0 Y0_0 3.102361 1_554
B0_0 Y0_1 3.102529 1_555
B0_0 Y0_3 3.102531 1_545
B0_1 Rh1_1 2.209952 1_555
B0_1 Rh1_5 2.209970 1_555
B0_1 Rh0_7 2.209972 1_545
B0_1 Rh2_0 2.210025 1_555
B0_1 Rh0_3 2.210031 1_545
B0_1 Rh2_4 2.210039 1_555
B0_1 Y0_1 3.102361 1_555
B0_1 Y0_0 3.102529 1_555
B0_1 Y0_2 3.102531 1_545
B0_2 Rh1_2 2.209952 1_555
B0_2 Rh1_6 2.209970 1_555
B0_2 Rh0_4 2.209972 1_555
B0_2 Rh2_3 2.210025 1_555
B0_2 Rh0_0 2.210031 1_555
B0_2 Rh2_7 2.210039 1_555
B0_2 Y0_2 3.102361 1_554
B0_2 Y0_3 3.102529 1_555
B0_2 Y0_1 3.102531 1_555
B0_3 Rh1_3 2.209952 1_555
B0_3 Rh1_7 2.209970 1_555
B0_3 Rh0_5 2.209972 1_555
B0_3 Rh2_2 2.210025 1_555
B0_3 Rh0_1 2.210031 1_555
B0_3 Rh2_6 2.210039 1_555
B0_3 Y0_3 3.102361 1_555
B0_3 Y0_2 3.102529 1_555
B0_3 Y0_0 3.102531 1_555
B0_4 Rh1_4 2.209952 1_555
B0_4 Rh1_0 2.209970 1_655
B0_4 Rh0_2 2.209972 1_645
B0_4 Rh2_5 2.210025 1_555
B0_4 Rh0_6 2.210031 1_545
B0_4 Rh2_1 2.210039 1_655
B0_4 Y0_4 3.102361 1_554
B0_4 Y0_5 3.102529 1_555
B0_4 Y0_7 3.102531 1_545
B0_5 Rh1_5 2.209952 1_555
B0_5 Rh1_1 2.209970 1_655
B0_5 Rh0_3 2.209972 1_645
B0_5 Rh2_4 2.210025 1_555
B0_5 Rh0_7 2.210031 1_545
B0_5 Rh2_0 2.210039 1_655
B0_5 Y0_5 3.102361 1_555
B0_5 Y0_4 3.102529 1_555
B0_5 Y0_6 3.102531 1_545
B0_6 Rh1_6 2.209952 1_555
B0_6 Rh1_2 2.209970 1_655
B0_6 Rh0_0 2.209972 1_655
B0_6 Rh2_7 2.210025 1_555
B0_6 Rh0_4 2.210031 1_555
B0_6 Rh2_3 2.210039 1_655
B0_6 Y0_6 3.102361 1_554
B0_6 Y0_7 3.102529 1_555
B0_6 Y0_5 3.102531 1_555
B0_7 Rh1_7 2.209952 1_555
B0_7 Rh1_3 2.209970 1_655
B0_7 Rh0_1 2.209972 1_655
B0_7 Rh2_6 2.210025 1_555
B0_7 Rh0_5 2.210031 1_555
B0_7 Rh2_2 2.210039 1_655
B0_7 Y0_7 3.102361 1_555
B0_7 Y0_6 3.102529 1_555
B0_7 Y0_4 3.102531 1_555
B1_0 Rh1_4 2.209951 1_555
B1_0 Rh1_0 2.209969 1_555
B1_0 Rh0_0 2.209969 1_555
B1_0 Rh0_4 2.210028 1_555
B1_0 Rh2_6 2.210029 1_554
B1_0 Rh2_2 2.210043 1_554
B1_0 Y0_1 3.102356 1_555
B1_0 Y0_2 3.102532 1_554
B1_0 Y0_0 3.102534 1_554
B1_1 Rh1_5 2.209951 1_555
B1_1 Rh1_1 2.209969 1_555
B1_1 Rh0_1 2.209969 1_555
B1_1 Rh0_5 2.210028 1_555
B1_1 Rh2_7 2.210029 1_555
B1_1 Rh2_3 2.210043 1_555
B1_1 Y0_0 3.102356 1_555
B1_1 Y0_3 3.102532 1_555
B1_1 Y0_1 3.102534 1_555
B1_2 Rh1_6 2.209951 1_555
B1_2 Rh1_2 2.209969 1_555
B1_2 Rh0_2 2.209969 1_555
B1_2 Rh0_6 2.210028 1_555
B1_2 Rh2_4 2.210029 1_564
B1_2 Rh2_0 2.210043 1_564
B1_2 Y0_3 3.102356 1_555
B1_2 Y0_0 3.102532 1_564
B1_2 Y0_2 3.102534 1_554
B1_3 Rh1_7 2.209951 1_555
B1_3 Rh1_3 2.209969 1_555
B1_3 Rh0_3 2.209969 1_555
B1_3 Rh0_7 2.210028 1_555
B1_3 Rh2_5 2.210029 1_565
B1_3 Rh2_1 2.210043 1_565
B1_3 Y0_2 3.102356 1_555
B1_3 Y0_1 3.102532 1_565
B1_3 Y0_3 3.102534 1_555
B1_4 Rh1_0 2.209951 1_655
B1_4 Rh1_4 2.209969 1_555
B1_4 Rh0_4 2.209969 1_555
B1_4 Rh0_0 2.210028 1_655
B1_4 Rh2_2 2.210029 1_654
B1_4 Rh2_6 2.210043 1_554
B1_4 Y0_5 3.102356 1_555
B1_4 Y0_6 3.102532 1_554
B1_4 Y0_4 3.102534 1_554
B1_5 Rh1_1 2.209951 1_655
B1_5 Rh1_5 2.209969 1_555
B1_5 Rh0_5 2.209969 1_555
B1_5 Rh0_1 2.210028 1_655
B1_5 Rh2_3 2.210029 1_655
B1_5 Rh2_7 2.210043 1_555
B1_5 Y0_4 3.102356 1_555
B1_5 Y0_7 3.102532 1_555
B1_5 Y0_5 3.102534 1_555
B1_6 Rh1_2 2.209951 1_655
B1_6 Rh1_6 2.209969 1_555
B1_6 Rh0_6 2.209969 1_555
B1_6 Rh0_2 2.210028 1_655
B1_6 Rh2_0 2.210029 1_664
B1_6 Rh2_4 2.210043 1_564
B1_6 Y0_7 3.102356 1_555
B1_6 Y0_4 3.102532 1_564
B1_6 Y0_6 3.102534 1_554
B1_7 Rh1_3 2.209951 1_655
B1_7 Rh1_7 2.209969 1_555
B1_7 Rh0_7 2.209969 1_555
B1_7 Rh0_3 2.210028 1_655
B1_7 Rh2_1 2.210029 1_665
B1_7 Rh2_5 2.210043 1_565
B1_7 Y0_6 3.102356 1_555
B1_7 Y0_5 3.102532 1_565
B1_7 Y0_7 3.102534 1_555
Rh0_0 Y0_1 3.113926 1_555
Rh0_0 Y0_5 3.113929 1_455
Rh0_0 Y0_6 3.113936 1_454
Rh0_0 Y0_2 3.113939 1_554
Rh0_1 Y0_0 3.113926 1_555
Rh0_1 Y0_4 3.113929 1_455
Rh0_1 Y0_7 3.113936 1_455
Rh0_1 Y0_3 3.113939 1_555
Rh0_2 Y0_3 3.113926 1_555
Rh0_2 Y0_7 3.113929 1_455
Rh0_2 Y0_4 3.113936 1_464
Rh0_2 Y0_0 3.113939 1_564
Rh0_3 Y0_2 3.113926 1_555
Rh0_3 Y0_6 3.113929 1_455
Rh0_3 Y0_5 3.113936 1_465
Rh0_3 Y0_1 3.113939 1_565
Rh0_4 Y0_5 3.113926 1_555
Rh0_4 Y0_1 3.113929 1_555
Rh0_4 Y0_2 3.113936 1_554
Rh0_4 Y0_6 3.113939 1_554
Rh0_5 Y0_4 3.113926 1_555
Rh0_5 Y0_0 3.113929 1_555
Rh0_5 Y0_3 3.113936 1_555
Rh0_5 Y0_7 3.113939 1_555
Rh0_6 Y0_7 3.113926 1_555
Rh0_6 Y0_3 3.113929 1_555
Rh0_6 Y0_0 3.113936 1_564
Rh0_6 Y0_4 3.113939 1_564
Rh0_7 Y0_6 3.113926 1_555
Rh0_7 Y0_2 3.113929 1_555
Rh0_7 Y0_1 3.113936 1_565
Rh0_7 Y0_5 3.113939 1_565
Rh1_0 Y0_0 3.113927 1_554
Rh1_0 Y0_5 3.113943 1_455
Rh1_0 Y0_4 3.113979 1_454
Rh1_0 Y0_1 3.113995 1_555
Rh1_1 Y0_1 3.113927 1_555
Rh1_1 Y0_4 3.113943 1_455
Rh1_1 Y0_5 3.113979 1_455
Rh1_1 Y0_0 3.113995 1_555
Rh1_2 Y0_2 3.113927 1_554
Rh1_2 Y0_7 3.113943 1_455
Rh1_2 Y0_6 3.113979 1_454
Rh1_2 Y0_3 3.113995 1_555
Rh1_3 Y0_3 3.113927 1_555
Rh1_3 Y0_6 3.113943 1_455
Rh1_3 Y0_7 3.113979 1_455
Rh1_3 Y0_2 3.113995 1_555
Rh1_4 Y0_4 3.113927 1_554
Rh1_4 Y0_1 3.113943 1_555
Rh1_4 Y0_0 3.113979 1_554
Rh1_4 Y0_5 3.113995 1_555
Rh1_5 Y0_5 3.113927 1_555
Rh1_5 Y0_0 3.113943 1_555
Rh1_5 Y0_1 3.113979 1_555
Rh1_5 Y0_4 3.113995 1_555
Rh1_6 Y0_6 3.113927 1_554
Rh1_6 Y0_3 3.113943 1_555
Rh1_6 Y0_2 3.113979 1_554
Rh1_6 Y0_7 3.113995 1_555
Rh1_7 Y0_7 3.113927 1_555
Rh1_7 Y0_2 3.113943 1_555
Rh1_7 Y0_3 3.113979 1_555
Rh1_7 Y0_6 3.113995 1_555
Rh2_0 Y0_4 3.113959 1_455
Rh2_0 Y0_2 3.113975 1_545
Rh2_0 Y0_0 3.114014 1_555
Rh2_0 Y0_6 3.114030 1_445
Rh2_1 Y0_5 3.113959 1_455
Rh2_1 Y0_3 3.113975 1_545
Rh2_1 Y0_1 3.114014 1_555
Rh2_1 Y0_7 3.114030 1_445
Rh2_2 Y0_6 3.113959 1_455
Rh2_2 Y0_0 3.113975 1_555
Rh2_2 Y0_2 3.114014 1_555
Rh2_2 Y0_4 3.114030 1_455
Rh2_3 Y0_7 3.113959 1_455
Rh2_3 Y0_1 3.113975 1_555
Rh2_3 Y0_3 3.114014 1_555
Rh2_3 Y0_5 3.114030 1_455
Rh2_4 Y0_0 3.113959 1_555
Rh2_4 Y0_6 3.113975 1_545
Rh2_4 Y0_4 3.114014 1_555
Rh2_4 Y0_2 3.114030 1_545
Rh2_5 Y0_1 3.113959 1_555
Rh2_5 Y0_7 3.113975 1_545
Rh2_5 Y0_5 3.114014 1_555
Rh2_5 Y0_3 3.114030 1_545
Rh2_6 Y0_2 3.113959 1_555
Rh2_6 Y0_4 3.113975 1_555
Rh2_6 Y0_6 3.114014 1_555
Rh2_6 Y0_0 3.114030 1_555
Rh2_7 Y0_3 3.113959 1_555
Rh2_7 Y0_5 3.113975 1_555
Rh2_7 Y0_7 3.114014 1_555
Rh2_7 Y0_1 3.114030 1_555
