# generated using pymatgen
data_CoSi2N3
_symmetry_space_group_name_H-M   'P 1'
_cell_length_a   5.34061269
_cell_length_b   5.39863209
_cell_length_c   4.82646800
_cell_angle_alpha   90.00000000
_cell_angle_beta   90.00000000
_cell_angle_gamma   120.36001586
_symmetry_Int_Tables_number   1
_chemical_formula_structural   CoSi2N3
_chemical_formula_sum   'Co2 Si4 N6'
_cell_volume   120.07370295
_cell_formula_units_Z   2
loop_
 _symmetry_equiv_pos_site_id
 _symmetry_equiv_pos_as_xyz
  1  'x, y, z'
loop_
 _atom_site_type_symbol
 _atom_site_label
 _atom_site_symmetry_multiplicity
 _atom_site_fract_x
 _atom_site_fract_y
 _atom_site_fract_z
 _atom_site_occupancy
  Co  Co0  1  0.00000000  0.60287600  0.49975400  1
  Co  Co1  1  0.00000000  0.39712400  0.99975400  1
  Si  Si0  1  0.33807400  0.32742700  0.49370600  1
  Si  Si1  1  0.66192600  0.98935300  0.49370600  1
  Si  Si2  1  0.66192600  0.67257300  0.99370600  1
  Si  Si3  1  0.33807400  0.01064700  0.99370600  1
  N  N0  1  0.38915500  0.33867900  0.85547600  1
  N  N1  1  0.61084500  0.94952500  0.85547600  1
  N  N2  1  0.61084500  0.66132100  0.35547600  1
  N  N3  1  0.38915500  0.05047500  0.35547600  1
  N  N4  1  0.00000000  0.74761800  0.88988400  1
  N  N5  1  0.00000000  0.25238200  0.38988400  1
loop_
_geom_bond_atom_site_label_1
_geom_bond_atom_site_label_2
_geom_bond_distance
_geom_bond_site_symmetry_2
Co0 N5 1.965090 1_555
Co0 N4 2.038652 1_555
Co0 N3 2.359401 1_565
Co0 N2 2.359404 1_455
Co1 N4 1.965090 1_555
Co1 N5 2.038652 1_556
Co1 N1 2.359401 1_445
Co1 N0 2.359404 1_555
N0 Si0 1.763555 1_555
N0 Si2 1.778225 1_555
N0 Si3 1.779701 1_555
N1 Si1 1.763555 1_555
N1 Si3 1.778221 1_565
N1 Si2 1.779706 1_555
N2 Si2 1.763555 1_554
N2 Si0 1.778225 1_555
N2 Si1 1.779701 1_555
N3 Si3 1.763555 1_554
N3 Si1 1.778221 1_545
N3 Si0 1.779706 1_555
N4 Si2 1.713391 1_455
N4 Si3 1.713391 1_565
N5 Si0 1.713391 1_555
N5 Si1 1.713391 1_445
