# generated using pymatgen
data_SrMgFe(PO4)2
_symmetry_space_group_name_H-M   'P 1'
_cell_length_a   5.58894300
_cell_length_b   6.78895074
_cell_length_c   9.50498161
_cell_angle_alpha   110.21656662
_cell_angle_beta   101.64268541
_cell_angle_gamma   98.16531640
_symmetry_Int_Tables_number   1
_chemical_formula_structural   SrMgFe(PO4)2
_chemical_formula_sum   'Sr2 Mg2 Fe2 P4 O16'
_cell_volume   322.54784138
_cell_formula_units_Z   2
loop_
 _symmetry_equiv_pos_site_id
 _symmetry_equiv_pos_as_xyz
  1  'x, y, z'
loop_
 _atom_site_type_symbol
 _atom_site_label
 _atom_site_symmetry_multiplicity
 _atom_site_fract_x
 _atom_site_fract_y
 _atom_site_fract_z
 _atom_site_occupancy
  Sr  Sr0  1  0.20417200  0.74655100  0.05262800  1
  Sr  Sr1  1  0.79582800  0.25344900  0.94737200  1
  Mg  Mg0  1  0.34864200  0.75343000  0.64794400  1
  Mg  Mg1  1  0.65135800  0.24657000  0.35205600  1
  Fe  Fe0  1  0.07472500  0.28940100  0.55567000  1
  Fe  Fe1  1  0.92527500  0.71059900  0.44433000  1
  P  P0  1  0.15572100  0.18777700  0.23351300  1
  P  P1  1  0.84427900  0.81222300  0.76648700  1
  P  P2  1  0.54298700  0.72361300  0.30216700  1
  P  P3  1  0.45701300  0.27638700  0.69783300  1
  O  O0  1  0.94154800  0.66783300  0.88512300  1
  O  O1  1  0.44395600  0.26868900  0.20784400  1
  O  O2  1  0.89443700  0.04079800  0.76695800  1
  O  O3  1  0.26991000  0.42987300  0.68509000  1
  O  O4  1  0.55604400  0.73131100  0.79215600  1
  O  O5  1  0.42912700  0.15303200  0.58284000  1
  O  O6  1  0.57087300  0.84696800  0.41716000  1
  O  O7  1  0.38120600  0.13188800  0.86658900  1
  O  O8  1  0.10556300  0.95920200  0.23304200  1
  O  O9  1  0.61879400  0.86811200  0.13341100  1
  O  O10  1  0.05845200  0.33216700  0.11487700  1
  O  O11  1  0.97839300  0.19099100  0.39399800  1
  O  O12  1  0.02160700  0.80900900  0.60600200  1
  O  O13  1  0.25992000  0.58862300  0.36221700  1
  O  O14  1  0.73009000  0.57012700  0.31491000  1
  O  O15  1  0.74008000  0.41137700  0.63778300  1
loop_
_geom_bond_atom_site_label_1
_geom_bond_atom_site_label_2
_geom_bond_distance
_geom_bond_site_symmetry_2
Mg0 O4 1.671977 1_555
Mg0 O12 1.909935 1_555
Mg0 O3 2.338280 1_555
Mg0 O13 2.464185 1_555
Mg0 O7 2.641526 1_565
Mg1 O1 1.671977 1_555
Mg1 O11 1.909935 1_555
Mg1 O14 2.338280 1_555
Mg1 O15 2.464185 1_555
Mg1 O9 2.641526 1_545
Fe0 O11 1.397129 1_455
Fe0 O3 1.401706 1_555
Fe0 O15 2.318487 1_455
Fe1 O12 1.397129 1_655
Fe1 O14 1.401706 1_555
Fe1 O13 2.318487 1_655
O0 P1 1.787711 1_555
O0 Sr0 1.794658 1_656
O1 P0 1.719378 1_555
O2 P1 1.535501 1_545
O2 Sr1 2.055484 1_555
O3 P3 1.593608 1_555
O4 P1 1.719378 1_555
O5 P3 1.087115 1_555
O6 P2 1.087115 1_555
O7 Sr1 2.222875 1_555
O7 P3 2.226772 1_555
O8 P0 1.535501 1_565
O8 Sr0 2.055484 1_555
O9 Sr0 2.222875 1_555
O9 P2 2.226772 1_555
O10 P0 1.787711 1_555
O10 Sr1 1.794658 1_454
O11 P0 1.975575 1_655
O12 P1 1.975575 1_455
O13 P2 1.995658 1_555
O14 P2 1.593608 1_555
O15 P3 1.995658 1_555
