# generated using pymatgen
data_Ba2NbN3
_symmetry_space_group_name_H-M   'P 1'
_cell_length_a   6.71581015
_cell_length_b   6.71581015
_cell_length_c   13.35692080
_cell_angle_alpha   89.32495753
_cell_angle_beta   89.32495753
_cell_angle_gamma   124.85469067
_symmetry_Int_Tables_number   1
_chemical_formula_structural   Ba2NbN3
_chemical_formula_sum   'Ba8 Nb4 N12'
_cell_volume   494.19245910
_cell_formula_units_Z   4
loop_
 _symmetry_equiv_pos_site_id
 _symmetry_equiv_pos_as_xyz
  1  'x, y, z'
loop_
 _atom_site_type_symbol
 _atom_site_label
 _atom_site_symmetry_multiplicity
 _atom_site_fract_x
 _atom_site_fract_y
 _atom_site_fract_z
 _atom_site_occupancy
  Ba  Ba0  1  0.04759665  0.44439999  0.14284113  1
  Ba  Ba1  1  0.44439999  0.04759665  0.64284113  1
  Ba  Ba2  1  0.95240335  0.55560001  0.85715887  1
  Ba  Ba3  1  0.55560001  0.95240335  0.35715887  1
  Ba  Ba4  1  0.12845182  0.35555207  0.57697177  1
  Ba  Ba5  1  0.64444793  0.87154818  0.92302823  1
  Ba  Ba6  1  0.87154818  0.64444793  0.42302823  1
  Ba  Ba7  1  0.35555207  0.12845182  0.07697177  1
  Nb  Nb0  1  0.25865178  0.26393152  0.33418736  1
  Nb  Nb1  1  0.74134822  0.73606848  0.66581264  1
  Nb  Nb2  1  0.73606848  0.74134822  0.16581264  1
  Nb  Nb3  1  0.26393152  0.25865178  0.83418736  1
  N  N0  1  0.13360039  0.31264675  0.95117200  1
  N  N1  1  0.68735325  0.86639961  0.54882800  1
  N  N2  1  0.86639961  0.68735325  0.04882800  1
  N  N3  1  0.31264675  0.13360039  0.45117200  1
  N  N4  1  0.99479236  0.00520764  0.75000000  1
  N  N5  1  0.00520764  0.99479236  0.25000000  1
  N  N6  1  0.43433328  0.56566672  0.75000000  1
  N  N7  1  0.52868885  0.84389940  0.12900302  1
  N  N8  1  0.84389940  0.52868885  0.62900302  1
  N  N9  1  0.47131115  0.15610060  0.87099698  1
  N  N10  1  0.15610060  0.47131115  0.37099698  1
  N  N11  1  0.56566672  0.43433328  0.25000000  1
loop_
_geom_bond_atom_site_label_1
_geom_bond_atom_site_label_2
_geom_bond_distance
_geom_bond_site_symmetry_2
Ba0 N7 2.781650 1_555
Ba0 N2 2.824361 1_455
Ba0 N0 2.876346 1_554
Ba0 N10 3.124970 1_555
Ba0 N5 3.186382 1_545
Ba0 N11 3.488115 1_455
Ba0 N7 3.523002 1_445
Ba1 N8 2.781650 1_555
Ba1 N1 2.824361 1_545
Ba1 N3 2.876346 1_555
Ba1 N9 3.124970 1_555
Ba1 N4 3.186382 1_455
Ba1 N6 3.488115 1_545
Ba1 N8 3.523002 1_445
Ba2 N9 2.781650 1_555
Ba2 N0 2.824361 1_655
Ba2 N2 2.876346 1_556
Ba2 N8 3.124970 1_555
Ba2 N4 3.186382 1_565
Ba2 N6 3.488115 1_655
Ba2 N9 3.523002 1_665
Ba3 N10 2.781650 1_555
Ba3 N3 2.824361 1_565
Ba3 N1 2.876346 1_555
Ba3 N7 3.124970 1_555
Ba3 N5 3.186382 1_655
Ba3 N11 3.488115 1_565
Ba3 N10 3.523002 1_665
Ba4 N10 2.824972 1_555
Ba4 N8 2.830975 1_455
Ba4 N6 2.903080 1_555
Ba4 N1 2.939505 1_445
Ba4 N3 2.948397 1_555
Ba4 N4 3.015282 1_455
Ba4 N1 3.349285 1_555
Ba5 N7 2.824972 1_556
Ba5 N9 2.830975 1_565
Ba5 N6 2.903080 1_555
Ba5 N0 2.939505 1_665
Ba5 N2 2.948397 1_556
Ba5 N4 3.015282 1_565
Ba5 N0 3.349285 1_555
Ba6 N8 2.824972 1_555
Ba6 N10 2.830975 1_655
Ba6 N11 2.903080 1_555
Ba6 N3 2.939505 1_665
Ba6 N1 2.948397 1_555
Ba6 N5 3.015282 1_655
Ba6 N3 3.349285 1_555
Ba7 N9 2.824972 1_554
Ba7 N7 2.830975 1_545
Ba7 N11 2.903080 1_555
Ba7 N2 2.939505 1_445
Ba7 N0 2.948397 1_554
Ba7 N5 3.015282 1_545
Ba7 N2 3.349285 1_555
N0 Nb3 1.919137 1_555
N1 Nb1 1.919137 1_555
N2 Nb2 1.919137 1_555
N3 Nb0 1.919137 1_555
N4 Nb1 2.001284 1_545
N4 Nb3 2.001284 1_655
N5 Nb0 2.001284 1_565
N5 Nb2 2.001284 1_455
N6 Nb1 2.010824 1_555
N6 Nb3 2.010824 1_555
N7 Nb2 1.939133 1_555
N8 Nb1 1.939133 1_555
N9 Nb3 1.939133 1_555
N10 Nb0 1.939133 1_555
N11 Nb2 2.010824 1_555
N11 Nb0 2.010824 1_555
