# generated using pymatgen
data_UBrO5
_symmetry_space_group_name_H-M   'P 1'
_cell_length_a   9.36139800
_cell_length_b   6.17472800
_cell_length_c   10.80817074
_cell_angle_alpha   90.00000000
_cell_angle_beta   103.31859307
_cell_angle_gamma   90.00000000
_symmetry_Int_Tables_number   1
_chemical_formula_structural   UBrO5
_chemical_formula_sum   'U4 Br4 O20'
_cell_volume   607.95309089
_cell_formula_units_Z   4
loop_
 _symmetry_equiv_pos_site_id
 _symmetry_equiv_pos_as_xyz
  1  'x, y, z'
loop_
 _atom_site_type_symbol
 _atom_site_label
 _atom_site_symmetry_multiplicity
 _atom_site_fract_x
 _atom_site_fract_y
 _atom_site_fract_z
 _atom_site_occupancy
  U  U0  1  0.15585500  0.87173000  0.58098600  1
  U  U1  1  0.84414500  0.37173000  0.91901400  1
  U  U2  1  0.84414500  0.12827000  0.41901400  1
  U  U3  1  0.15585500  0.62827000  0.08098600  1
  Br  Br0  1  0.32287100  0.09555300  0.90895000  1
  Br  Br1  1  0.67712900  0.59555300  0.59105000  1
  Br  Br2  1  0.67712900  0.90444700  0.09105000  1
  Br  Br3  1  0.32287100  0.40444700  0.40895000  1
  O  O0  1  0.02011900  0.14503200  0.58266100  1
  O  O1  1  0.97988100  0.64503200  0.91733900  1
  O  O2  1  0.97988100  0.85496800  0.41733900  1
  O  O3  1  0.02011900  0.35496800  0.08266100  1
  O  O4  1  0.27699000  0.02824200  0.50087700  1
  O  O5  1  0.72301000  0.52824200  0.99912300  1
  O  O6  1  0.72301000  0.97175800  0.49912300  1
  O  O7  1  0.27699000  0.47175800  0.00087700  1
  O  O8  1  0.26669000  0.55148100  0.52496300  1
  O  O9  1  0.73331000  0.05148100  0.97503700  1
  O  O10  1  0.73331000  0.44851900  0.47503700  1
  O  O11  1  0.26669000  0.94851900  0.02496300  1
  O  O12  1  0.05791200  0.70890600  0.67444700  1
  O  O13  1  0.94208800  0.20890600  0.82555300  1
  O  O14  1  0.94208800  0.29109400  0.32555300  1
  O  O15  1  0.05791200  0.79109400  0.17444700  1
  O  O16  1  0.33718300  0.93849000  0.77996500  1
  O  O17  1  0.66281700  0.43849000  0.72003500  1
  O  O18  1  0.66281700  0.06151000  0.22003500  1
  O  O19  1  0.33718300  0.56151000  0.27996500  1
loop_
_geom_bond_atom_site_label_1
_geom_bond_atom_site_label_2
_geom_bond_distance
_geom_bond_site_symmetry_2
Br0 O11 1.725384 1_546
Br0 O16 1.728598 1_545
Br1 O10 1.725384 1_555
Br1 O17 1.728598 1_555
Br2 O9 1.725384 1_564
Br2 O18 1.728598 1_565
Br3 O8 1.725384 1_555
Br3 O19 1.728598 1_555
O0 U0 2.115048 1_545
O0 U2 2.123784 1_455
O1 U1 2.115048 1_555
O1 U3 2.123784 1_656
O2 U2 2.115048 1_565
O2 U0 2.123784 1_655
O3 U3 2.115048 1_555
O3 U1 2.123784 1_454
O4 U0 1.849848 1_545
O5 U1 1.849848 1_555
O6 U2 1.849848 1_565
O7 U3 1.849848 1_555
O8 U0 2.375491 1_555
O9 U1 2.375491 1_555
O10 U2 2.375491 1_555
O11 U3 2.375491 1_555
O12 U0 1.816205 1_555
O13 U1 1.816205 1_555
O14 U2 1.816205 1_555
O15 U3 1.816205 1_555
O16 U0 2.448368 1_555
O17 U1 2.448368 1_555
O18 U2 2.448368 1_555
O19 U3 2.448368 1_555
