# generated using pymatgen
data_Ba8Mn3N8
_symmetry_space_group_name_H-M   'P 1'
_cell_length_a   10.42193366
_cell_length_b   5.68835082
_cell_length_c   7.96627499
_cell_angle_alpha   89.99999462
_cell_angle_beta   74.20664815
_cell_angle_gamma   74.16292135
_symmetry_Int_Tables_number   1
_chemical_formula_structural   Ba8Mn3N8
_chemical_formula_sum   'Ba8 Mn3 N8'
_cell_volume   435.78182071
_cell_formula_units_Z   1
loop_
 _symmetry_equiv_pos_site_id
 _symmetry_equiv_pos_as_xyz
  1  'x, y, z'
loop_
 _atom_site_type_symbol
 _atom_site_label
 _atom_site_symmetry_multiplicity
 _atom_site_fract_x
 _atom_site_fract_y
 _atom_site_fract_z
 _atom_site_occupancy
  Ba  Ba0  1  0.05805500  0.97097300  0.72610000  1
  Ba  Ba1  1  0.94194500  0.02902700  0.27390000  1
  Ba  Ba2  1  0.66542300  0.66728800  0.46918400  1
  Ba  Ba3  1  0.33457700  0.33271200  0.53081600  1
  Ba  Ba4  1  0.79935100  0.60032500  0.94528000  1
  Ba  Ba5  1  0.20064900  0.39967500  0.05472000  1
  Ba  Ba6  1  0.40258700  0.79870600  0.19528100  1
  Ba  Ba7  1  0.59741300  0.20129400  0.80471900  1
  Mn  Mn0  1  0.00000000  0.50000000  0.50000000  1
  Mn  Mn1  1  0.37050500  0.81474800  0.79820000  1
  Mn  Mn2  1  0.62949500  0.18525200  0.20180000  1
  N  N0  1  0.22106400  0.88946800  0.97779500  1
  N  N1  1  0.77893600  0.11053200  0.02220500  1
  N  N2  1  0.35719400  0.82140300  0.58792300  1
  N  N3  1  0.64280600  0.17859700  0.41207700  1
  N  N4  1  0.53533500  0.73233200  0.83295200  1
  N  N5  1  0.46466500  0.26766800  0.16704800  1
  N  N6  1  0.95644500  0.52177800  0.30474500  1
  N  N7  1  0.04355500  0.47822200  0.69525500  1
loop_
_geom_bond_atom_site_label_1
_geom_bond_atom_site_label_2
_geom_bond_distance
_geom_bond_site_symmetry_2
Ba0 N7 2.861997 1_565
Ba0 N7 2.862009 1_555
Ba0 N2 2.887777 1_555
Ba0 N0 2.923307 1_555
Ba0 N1 3.108196 1_466
Ba1 N6 2.861997 1_545
Ba1 N6 2.862009 1_555
Ba1 N3 2.887777 1_555
Ba1 N1 2.923307 1_555
Ba1 N0 3.108196 1_644
Ba2 N4 2.821397 1_555
Ba2 N6 2.840304 1_555
Ba2 N3 2.899323 1_555
Ba2 N3 2.899328 1_565
Ba2 N2 2.965020 1_555
Ba3 N5 2.821397 1_555
Ba3 N7 2.840304 1_555
Ba3 N2 2.899323 1_555
Ba3 N2 2.899328 1_545
Ba3 N3 2.965020 1_555
Ba4 N7 2.683802 1_655
Ba4 N1 2.904440 1_566
Ba4 N1 2.904446 1_556
Ba4 N4 3.024599 1_555
Ba5 N6 2.683802 1_455
Ba5 N0 2.904440 1_544
Ba5 N0 2.904446 1_554
Ba5 N5 3.024599 1_555
Ba6 N4 2.815876 1_554
Ba6 N0 2.845758 1_554
Ba6 N5 2.906558 1_555
Ba6 N5 2.906569 1_565
Ba6 N2 3.030739 1_555
Ba7 N5 2.815876 1_556
Ba7 N1 2.845758 1_556
Ba7 N4 2.906558 1_555
Ba7 N4 2.906569 1_545
Ba7 N3 3.030739 1_555
Mn0 N7 1.730457 1_555
Mn0 N6 1.730457 1_455
Mn1 N2 1.717658 1_555
Mn1 N4 1.751210 1_555
Mn1 N0 1.754714 1_555
Mn2 N3 1.717658 1_555
Mn2 N5 1.751210 1_555
Mn2 N1 1.754714 1_555
