# generated using pymatgen
data_UC2O9
_symmetry_space_group_name_H-M   'P 1'
_cell_length_a   5.66990186
_cell_length_b   9.85890256
_cell_length_c   16.35530800
_cell_angle_alpha   90.00000000
_cell_angle_beta   90.00000000
_cell_angle_gamma   101.01907821
_symmetry_Int_Tables_number   1
_chemical_formula_structural   UC2O9
_chemical_formula_sum   'U4 C8 O36'
_cell_volume   897.39012370
_cell_formula_units_Z   4
loop_
 _symmetry_equiv_pos_site_id
 _symmetry_equiv_pos_as_xyz
  1  'x, y, z'
loop_
 _atom_site_type_symbol
 _atom_site_label
 _atom_site_symmetry_multiplicity
 _atom_site_fract_x
 _atom_site_fract_y
 _atom_site_fract_z
 _atom_site_occupancy
  U  U0  1  0.69184000  0.25637700  0.58596900  1
  U  U1  1  0.30816000  0.24362300  0.08596900  1
  U  U2  1  0.30816000  0.74362300  0.41403100  1
  U  U3  1  0.69184000  0.75637700  0.91403100  1
  C  C0  1  0.53075900  0.47499500  0.45750600  1
  C  C1  1  0.46924100  0.02500500  0.95750600  1
  C  C2  1  0.46924100  0.52500500  0.54249400  1
  C  C3  1  0.53075900  0.97499500  0.04249400  1
  C  C4  1  0.99420500  0.92555100  0.58280600  1
  C  C5  1  0.00579500  0.57444900  0.08280600  1
  C  C6  1  0.00579500  0.07444900  0.41719400  1
  C  C7  1  0.99420500  0.42555100  0.91719400  1
  O  O0  1  0.40738900  0.14122200  0.55954100  1
  O  O1  1  0.59261100  0.35877800  0.05954100  1
  O  O2  1  0.59261100  0.85877800  0.44045900  1
  O  O3  1  0.40738900  0.64122200  0.94045900  1
  O  O4  1  0.99524000  0.35778000  0.59506100  1
  O  O5  1  0.00476000  0.14222000  0.09506100  1
  O  O6  1  0.00476000  0.64222000  0.40493900  1
  O  O7  1  0.99524000  0.85778000  0.90493900  1
  O  O8  1  0.63153700  0.37117900  0.45598500  1
  O  O9  1  0.36846300  0.12882100  0.95598500  1
  O  O10  1  0.36846300  0.62882100  0.54401500  1
  O  O11  1  0.63153700  0.87117900  0.04401500  1
  O  O12  1  0.52657700  0.45790600  0.60320900  1
  O  O13  1  0.47342300  0.04209400  0.10320900  1
  O  O14  1  0.47342300  0.54209400  0.39679100  1
  O  O15  1  0.52657700  0.95790600  0.89679100  1
  O  O16  1  0.09282600  0.84432200  0.55186300  1
  O  O17  1  0.90717400  0.65567800  0.05186300  1
  O  O18  1  0.90717400  0.15567800  0.44813700  1
  O  O19  1  0.09282600  0.34432200  0.94813700  1
  O  O20  1  0.10706900  0.99445100  0.38673200  1
  O  O21  1  0.89293100  0.50554900  0.88673200  1
  O  O22  1  0.89293100  0.00554900  0.61326800  1
  O  O23  1  0.10706900  0.49445100  0.11326800  1
  O  O24  1  0.67499900  0.21468100  0.70151700  1
  O  O25  1  0.32500100  0.28531900  0.20151700  1
  O  O26  1  0.32500100  0.78531900  0.29848300  1
  O  O27  1  0.67499900  0.71468100  0.79848300  1
  O  O28  1  0.25250300  0.60141700  0.73431400  1
  O  O29  1  0.74749700  0.89858300  0.23431400  1
  O  O30  1  0.74749700  0.39858300  0.26568600  1
  O  O31  1  0.25250300  0.10141700  0.76568600  1
  O  O32  1  0.86771200  0.31048300  0.27870500  1
  O  O33  1  0.13228800  0.18951700  0.77870500  1
  O  O34  1  0.13228800  0.68951700  0.72129500  1
  O  O35  1  0.86771200  0.81048300  0.22129500  1
loop_
_geom_bond_atom_site_label_1
_geom_bond_atom_site_label_2
_geom_bond_distance
_geom_bond_site_symmetry_2
C0 O8 1.264224 1_555
C0 O14 1.269479 1_555
C1 O9 1.264224 1_555
C1 O15 1.269479 1_545
C2 O10 1.264224 1_555
C2 O12 1.269479 1_555
C3 O11 1.264224 1_555
C3 O13 1.269479 1_565
C4 O22 1.171793 1_565
C4 O16 1.175287 1_655
C5 O23 1.171793 1_555
C5 O17 1.175287 1_455
C6 O20 1.171793 1_545
C6 O18 1.175287 1_455
C7 O21 1.171793 1_555
C7 O19 1.175287 1_655
O0 U0 1.837647 1_555
O1 U1 1.837647 1_555
O2 U2 1.837647 1_555
O3 U3 1.837647 1_555
O4 U0 1.823017 1_555
O5 U1 1.823017 1_555
O6 U2 1.823017 1_555
O7 U3 1.823017 1_555
O8 U0 2.462809 1_555
O9 U1 2.462809 1_556
O10 U2 2.462809 1_555
O11 U3 2.462809 1_554
O12 U0 2.369979 1_555
O13 U1 2.369979 1_555
O14 U2 2.369979 1_555
O15 U3 2.369979 1_555
O24 U0 1.932493 1_555
O25 U1 1.932493 1_555
O26 U2 1.932493 1_555
O27 U3 1.932493 1_555
O28 O34 1.220923 1_555
O29 O35 1.220923 1_555
O30 O32 1.220923 1_555
O31 O33 1.220923 1_555
