# generated using pymatgen
data_Nd(ScSi)4
_symmetry_space_group_name_H-M   'P 1'
_cell_length_a   7.11913300
_cell_length_b   7.34392700
_cell_length_c   13.93991200
_cell_angle_alpha   90.00000000
_cell_angle_beta   90.00000000
_cell_angle_gamma   90.00000000
_symmetry_Int_Tables_number   1
_chemical_formula_structural   Nd(ScSi)4
_chemical_formula_sum   'Nd4 Sc16 Si16'
_cell_volume   728.81195834
_cell_formula_units_Z   4
loop_
 _symmetry_equiv_pos_site_id
 _symmetry_equiv_pos_as_xyz
  1  'x, y, z'
loop_
 _atom_site_type_symbol
 _atom_site_label
 _atom_site_symmetry_multiplicity
 _atom_site_fract_x
 _atom_site_fract_y
 _atom_site_fract_z
 _atom_site_occupancy
  Nd  Nd0  1  0.23755400  0.67446400  0.15713300  1
  Nd  Nd1  1  0.73755400  0.82553600  0.84286700  1
  Nd  Nd2  1  0.26244600  0.32553600  0.65713300  1
  Nd  Nd3  1  0.76244600  0.17446400  0.34286700  1
  Sc  Sc0  1  0.92337200  0.67376400  0.62299300  1
  Sc  Sc1  1  0.42337200  0.82623600  0.37700700  1
  Sc  Sc2  1  0.57662800  0.32623600  0.12299300  1
  Sc  Sc3  1  0.07662800  0.17376400  0.87700700  1
  Sc  Sc4  1  0.58025500  0.32107100  0.87385400  1
  Sc  Sc5  1  0.08025500  0.17892900  0.12614600  1
  Sc  Sc6  1  0.91974500  0.67892900  0.37385400  1
  Sc  Sc7  1  0.41974500  0.82107100  0.62614600  1
  Sc  Sc8  1  0.09084800  0.00362300  0.50103400  1
  Sc  Sc9  1  0.59084800  0.49637700  0.49896600  1
  Sc  Sc10  1  0.40915200  0.99637700  0.00103400  1
  Sc  Sc11  1  0.90915200  0.50362300  0.99896600  1
  Sc  Sc12  1  0.27032800  0.31930800  0.35404700  1
  Sc  Sc13  1  0.77032800  0.18069200  0.64595300  1
  Sc  Sc14  1  0.22967200  0.68069200  0.85404700  1
  Sc  Sc15  1  0.72967200  0.81930800  0.14595300  1
  Si  Si0  1  0.08791900  0.96004800  0.71202600  1
  Si  Si1  1  0.58791900  0.53995200  0.28797400  1
  Si  Si2  1  0.41208100  0.03995200  0.21202600  1
  Si  Si3  1  0.91208100  0.46004800  0.78797400  1
  Si  Si4  1  0.39298700  0.02374900  0.79358600  1
  Si  Si5  1  0.89298700  0.47625100  0.20641400  1
  Si  Si6  1  0.10701300  0.97625100  0.29358600  1
  Si  Si7  1  0.60701300  0.52374900  0.70641400  1
  Si  Si8  1  0.96763200  0.37322500  0.49841300  1
  Si  Si9  1  0.46763200  0.12677500  0.50158700  1
  Si  Si10  1  0.53236800  0.62677500  0.99841300  1
  Si  Si11  1  0.03236800  0.87322500  0.00158700  1
  Si  Si12  1  0.21883200  0.61463000  0.49774500  1
  Si  Si13  1  0.71883200  0.88537000  0.50225500  1
  Si  Si14  1  0.28116800  0.38537000  0.99774500  1
  Si  Si15  1  0.78116800  0.11463000  0.00225500  1
loop_
_geom_bond_atom_site_label_1
_geom_bond_atom_site_label_2
_geom_bond_distance
_geom_bond_site_symmetry_2
Nd0 Si5 2.933970 1_455
Nd0 Si11 2.994324 1_555
Nd0 Si2 3.055124 1_565
Nd0 Si6 3.064932 1_555
Nd0 Si10 3.069698 1_554
Nd0 Si14 3.088776 1_554
Nd0 Si1 3.244072 1_555
Nd1 Si4 2.933970 1_565
Nd1 Si10 2.994324 1_555
Nd1 Si3 3.055124 1_555
Nd1 Si7 3.064932 1_555
Nd1 Si11 3.069698 1_656
Nd1 Si15 3.088776 1_566
Nd1 Si0 3.244072 1_655
Nd2 Si7 2.933970 1_555
Nd2 Si9 2.994324 1_555
Nd2 Si0 3.055124 1_545
Nd2 Si4 3.064932 1_555
Nd2 Si8 3.069698 1_455
Nd2 Si12 3.088776 1_555
Nd2 Si3 3.244072 1_455
Nd3 Si6 2.933970 1_645
Nd3 Si8 2.994324 1_555
Nd3 Si1 3.055124 1_555
Nd3 Si5 3.064932 1_555
Nd3 Si9 3.069698 1_555
Nd3 Si13 3.088776 1_545
Nd3 Si2 3.244072 1_555
Sc0 Si0 2.707933 1_655
Sc0 Si13 2.714422 1_555
Sc0 Si7 2.763774 1_555
Sc0 Si12 2.767904 1_655
Sc0 Si3 2.785500 1_555
Sc0 Si8 2.826063 1_555
Sc1 Si1 2.707933 1_555
Sc1 Si12 2.714422 1_555
Sc1 Si6 2.763774 1_555
Sc1 Si13 2.767904 1_555
Sc1 Si2 2.785500 1_565
Sc1 Si9 2.826063 1_565
Sc2 Si2 2.707933 1_555
Sc2 Si15 2.714422 1_555
Sc2 Si5 2.763774 1_555
Sc2 Si14 2.767904 1_554
Sc2 Si1 2.785500 1_555
Sc2 Si10 2.826063 1_554
Sc3 Si3 2.707933 1_455
Sc3 Si14 2.714422 1_555
Sc3 Si4 2.763774 1_555
Sc3 Si15 2.767904 1_456
Sc3 Si0 2.785500 1_545
Sc3 Si11 2.826063 1_546
Sc4 Si15 2.747379 1_556
Sc4 Si7 2.774851 1_555
Sc4 Si14 2.781955 1_555
Sc4 Si4 2.792330 1_555
Sc4 Si3 2.838206 1_555
Sc4 Si10 2.858572 1_555
Sc5 Si14 2.747379 1_554
Sc5 Si6 2.774851 1_545
Sc5 Si15 2.781955 1_455
Sc5 Si5 2.792330 1_455
Sc5 Si2 2.838206 1_555
Sc5 Si11 2.858572 1_545
Sc6 Si13 2.747379 1_555
Sc6 Si5 2.774851 1_555
Sc6 Si12 2.781955 1_655
Sc6 Si6 2.792330 1_655
Sc6 Si1 2.838206 1_555
Sc6 Si8 2.858572 1_555
Sc7 Si12 2.747379 1_555
Sc7 Si4 2.774851 1_565
Sc7 Si13 2.781955 1_555
Sc7 Si7 2.792330 1_555
Sc7 Si0 2.838206 1_555
Sc7 Si9 2.858572 1_565
Sc8 Si13 2.787233 1_445
Sc8 Si9 2.830755 1_555
Sc8 Si8 2.852786 1_455
Sc8 Si6 2.901069 1_545
Sc8 Si0 2.958641 1_545
Sc8 Si12 2.998868 1_545
Sc9 Si12 2.787233 1_555
Sc9 Si8 2.830755 1_555
Sc9 Si9 2.852786 1_555
Sc9 Si7 2.901069 1_555
Sc9 Si1 2.958641 1_555
Sc9 Si13 2.998868 1_555
Sc10 Si15 2.787233 1_565
Sc10 Si11 2.830755 1_555
Sc10 Si10 2.852786 1_554
Sc10 Si4 2.901069 1_564
Sc10 Si2 2.958641 1_565
Sc10 Si14 2.998868 1_564
Sc11 Si14 2.787233 1_655
Sc11 Si10 2.830755 1_555
Sc11 Si11 2.852786 1_656
Sc11 Si5 2.901069 1_556
Sc11 Si3 2.958641 1_555
Sc11 Si15 2.998868 1_556
Sc12 Si9 2.863955 1_555
Sc12 Si6 2.899902 1_545
Sc12 Si1 2.930189 1_555
Sc12 Si8 2.974975 1_455
Sc12 Si12 2.975022 1_555
Sc12 Si2 3.024366 1_555
Sc13 Si8 2.863955 1_555
Sc13 Si7 2.899902 1_555
Sc13 Si0 2.930189 1_645
Sc13 Si9 2.974975 1_555
Sc13 Si13 2.975022 1_545
Sc13 Si3 3.024366 1_555
Sc14 Si11 2.863955 1_556
Sc14 Si4 2.899902 1_565
Sc14 Si3 2.930189 1_455
Sc14 Si10 2.974975 1_555
Sc14 Si14 2.975022 1_555
Sc14 Si0 3.024366 1_555
Sc15 Si10 2.863955 1_554
Sc15 Si5 2.899902 1_555
Sc15 Si2 2.930189 1_565
Sc15 Si11 2.974975 1_655
Sc15 Si15 2.975022 1_565
Sc15 Si1 3.024366 1_555
Si0 Si4 2.495653 1_565
Si1 Si5 2.495653 1_555
Si2 Si6 2.495653 1_545
Si3 Si7 2.495653 1_555
Si10 Si14 2.518180 1_555
Si11 Si15 2.518180 1_465
Si12 Si8 2.518180 1_455
Si13 Si9 2.518180 1_565
