# generated using pymatgen
data_CoH8(SO6)2
_symmetry_space_group_name_H-M   'P 1'
_cell_length_a   11.57436228
_cell_length_b   8.29683800
_cell_length_c   5.70543775
_cell_angle_alpha   90.00000000
_cell_angle_beta   103.17479906
_cell_angle_gamma   90.00000000
_symmetry_Int_Tables_number   1
_chemical_formula_structural   CoH8(SO6)2
_chemical_formula_sum   'Co2 H16 S4 O24'
_cell_volume   533.47560802
_cell_formula_units_Z   2
loop_
 _symmetry_equiv_pos_site_id
 _symmetry_equiv_pos_as_xyz
  1  'x, y, z'
loop_
 _atom_site_type_symbol
 _atom_site_label
 _atom_site_symmetry_multiplicity
 _atom_site_fract_x
 _atom_site_fract_y
 _atom_site_fract_z
 _atom_site_occupancy
  Co  Co0  1  0.00000000  0.00000000  0.00000000  1
  Co  Co1  1  0.50000000  0.50000000  0.00000000  1
  H  H0  1  0.02195900  0.71547300  0.21711900  1
  H  H1  1  0.15132900  0.13127300  0.78012400  1
  H  H2  1  0.18073300  0.94125300  0.79319500  1
  H  H3  1  0.14028400  0.80976300  0.32161200  1
  H  H4  1  0.35971600  0.30976300  0.67838800  1
  H  H5  1  0.31926700  0.44125300  0.20680500  1
  H  H6  1  0.34867100  0.63127300  0.21987600  1
  H  H7  1  0.47804100  0.21547300  0.78288100  1
  H  H8  1  0.52195900  0.78452700  0.21711900  1
  H  H9  1  0.65132900  0.36872700  0.78012400  1
  H  H10  1  0.68073300  0.55874700  0.79319500  1
  H  H11  1  0.64028400  0.69023700  0.32161200  1
  H  H12  1  0.85971600  0.19023700  0.67838800  1
  H  H13  1  0.81926700  0.05874700  0.20680500  1
  H  H14  1  0.84867100  0.86872700  0.21987600  1
  H  H15  1  0.97804100  0.28452700  0.78288100  1
  S  S0  1  0.13327900  0.28521700  0.36504300  1
  S  S1  1  0.36672100  0.78521700  0.63495700  1
  S  S2  1  0.63327900  0.21478300  0.36504300  1
  S  S3  1  0.86672100  0.71478300  0.63495700  1
  O  O0  1  0.07242500  0.12556500  0.28601100  1
  O  O1  1  0.07662600  0.41651400  0.20851400  1
  O  O2  1  0.07466100  0.79836000  0.17777300  1
  O  O3  1  0.12645800  0.30903200  0.61930300  1
  O  O4  1  0.14873400  0.03063100  0.87389900  1
  O  O5  1  0.23949900  0.77436600  0.64569400  1
  O  O6  1  0.26050100  0.27436600  0.35430600  1
  O  O7  1  0.35126600  0.53063100  0.12610100  1
  O  O8  1  0.37354200  0.80903200  0.38069700  1
  O  O9  1  0.42533900  0.29836000  0.82222700  1
  O  O10  1  0.42337400  0.91651400  0.79148600  1
  O  O11  1  0.42757500  0.62556500  0.71398900  1
  O  O12  1  0.57242500  0.37443500  0.28601100  1
  O  O13  1  0.57662600  0.08348600  0.20851400  1
  O  O14  1  0.57466100  0.70164000  0.17777300  1
  O  O15  1  0.62645800  0.19096800  0.61930300  1
  O  O16  1  0.64873400  0.46936900  0.87389900  1
  O  O17  1  0.73949900  0.72563400  0.64569400  1
  O  O18  1  0.76050100  0.22563400  0.35430600  1
  O  O19  1  0.85126600  0.96936900  0.12610100  1
  O  O20  1  0.87354200  0.69096800  0.38069700  1
  O  O21  1  0.92533900  0.20164000  0.82222700  1
  O  O22  1  0.92337400  0.58348600  0.79148600  1
  O  O23  1  0.92757500  0.87443500  0.71398900  1
loop_
_geom_bond_atom_site_label_1
_geom_bond_atom_site_label_2
_geom_bond_distance
_geom_bond_site_symmetry_2
Co0 O0 1.956351 1_555
Co0 O23 1.956351 1_444
Co0 O4 2.027404 1_554
Co0 O19 2.027404 1_445
Co0 O2 2.043235 1_545
Co0 O21 2.043235 1_454
Co1 O11 1.956351 1_554
Co1 O12 1.956351 1_555
Co1 O16 2.027404 1_554
Co1 O7 2.027404 1_555
Co1 O14 2.043235 1_555
Co1 O9 2.043235 1_554
H0 O2 0.978691 1_555
H1 O4 0.995853 1_555
H1 O3 1.726127 1_555
H2 O4 0.988347 1_565
H3 O2 0.987525 1_555
H4 O9 0.987525 1_555
H5 O7 0.988347 1_555
H6 O7 0.995853 1_555
H6 O8 1.726127 1_555
H7 O9 0.978691 1_555
H8 O14 0.978691 1_555
H9 O16 0.995853 1_555
H9 O15 1.726127 1_555
H10 O16 0.988347 1_555
H11 O14 0.987525 1_555
H12 O21 0.987525 1_555
H13 O19 0.988347 1_545
H14 O19 0.995853 1_555
H14 O20 1.726127 1_555
H15 O21 0.978691 1_555
O0 S0 1.519616 1_555
O1 S0 1.465359 1_555
O3 S0 1.483883 1_555
O5 S1 1.490394 1_555
O6 S0 1.490394 1_555
O8 S1 1.483883 1_555
O10 S1 1.465359 1_555
O11 S1 1.519616 1_555
O12 S2 1.519616 1_555
O13 S2 1.465359 1_555
O15 S2 1.483883 1_555
O17 S3 1.490394 1_555
O18 S2 1.490394 1_555
O20 S3 1.483883 1_555
O22 S3 1.465359 1_555
O23 S3 1.519616 1_555
