# generated using pymatgen
data_HfPRu
_symmetry_space_group_name_H-M   'P 1'
_cell_length_a   6.39820626
_cell_length_b   6.39820725
_cell_length_c   3.76748512
_cell_angle_alpha   90.00000000
_cell_angle_beta   90.00000000
_cell_angle_gamma   120.00001059
_symmetry_Int_Tables_number   1
_chemical_formula_structural   HfPRu
_chemical_formula_sum   'Hf3 P3 Ru3'
_cell_volume   133.56684605
_cell_formula_units_Z   3
loop_
 _symmetry_equiv_pos_site_id
 _symmetry_equiv_pos_as_xyz
  1  'x, y, z'
loop_
 _atom_site_type_symbol
 _atom_site_label
 _atom_site_symmetry_multiplicity
 _atom_site_fract_x
 _atom_site_fract_y
 _atom_site_fract_z
 _atom_site_occupancy
  Hf  Hf0  1  -0.00000000  0.58351356  0.50000000  1
  Hf  Hf1  1  0.41648644  0.41648644  0.50000000  1
  Hf  Hf2  1  0.58351356  -0.00000000  0.50000000  1
  P  P0  1  0.66666700  0.33333300  0.00000000  1
  P  P1  1  0.33333300  0.66666700  -0.00000000  1
  P  P2  1  0.00000000  0.00000000  0.50000000  1
  Ru  Ru0  1  0.24640130  -0.00000000  0.00000000  1
  Ru  Ru1  1  0.75359870  0.75359870  -0.00000000  1
  Ru  Ru2  1  -0.00000000  0.24640130  -0.00000000  1
loop_
_geom_bond_atom_site_label_1
_geom_bond_atom_site_label_2
_geom_bond_distance
_geom_bond_site_symmetry_2
Hf0 P2 2.664767 1_565
Hf0 P1 2.691730 1_555
Hf0 P1 2.691730 1_556
Hf0 P0 2.691731 1_456
Hf0 P0 2.691731 1_455
Hf0 Ru2 2.863698 1_555
Hf0 Ru2 2.863698 1_556
Hf0 Ru0 2.988951 1_566
Hf0 Ru0 2.988951 1_565
Hf0 Ru1 2.988951 1_455
Hf0 Ru1 2.988951 1_456
Hf1 P2 2.664766 1_555
Hf1 P0 2.691735 1_555
Hf1 P0 2.691735 1_556
Hf1 P1 2.691735 1_556
Hf1 P1 2.691735 1_555
Hf1 Ru1 2.863697 1_556
Hf1 Ru1 2.863697 1_555
Hf1 Ru2 2.988950 1_555
Hf1 Ru2 2.988950 1_556
Hf1 Ru0 2.988951 1_556
Hf1 Ru0 2.988951 1_555
Hf2 P2 2.664766 1_655
Hf2 P0 2.691730 1_555
Hf2 P0 2.691730 1_556
Hf2 P1 2.691732 1_546
Hf2 P1 2.691732 1_545
Hf2 Ru0 2.863697 1_556
Hf2 Ru0 2.863697 1_555
Hf2 Ru2 2.988950 1_655
Hf2 Ru2 2.988950 1_656
Hf2 Ru1 2.988951 1_546
Hf2 Ru1 2.988951 1_545
P0 Ru2 2.458487 1_655
P0 Ru0 2.458491 1_555
P0 Ru1 2.458494 1_555
P1 Ru0 2.458487 1_565
P1 Ru2 2.458491 1_555
P1 Ru1 2.458493 1_555
P2 Ru1 2.456404 1_446
P2 Ru1 2.456404 1_445
P2 Ru0 2.456404 1_556
P2 Ru0 2.456404 1_555
P2 Ru2 2.456404 1_556
P2 Ru2 2.456404 1_555
Ru0 Ru1 2.730623 1_445
Ru0 Ru2 2.730624 1_555
Ru1 Ru2 2.730624 1_665
