# generated using pymatgen
data_CrAu4
_symmetry_space_group_name_H-M   'P 1'
_cell_length_a   5.01725223
_cell_length_b   5.01725223
_cell_length_c   5.02084352
_cell_angle_alpha   99.46492549
_cell_angle_beta   99.51848336
_cell_angle_gamma   132.06354184
_symmetry_Int_Tables_number   1
_chemical_formula_structural   CrAu4
_chemical_formula_sum   'Cr1 Au4'
_cell_volume   85.75243493
_cell_formula_units_Z   1
loop_
 _symmetry_equiv_pos_site_id
 _symmetry_equiv_pos_as_xyz
  1  'x, y, z'
loop_
 _atom_site_type_symbol
 _atom_site_label
 _atom_site_symmetry_multiplicity
 _atom_site_fract_x
 _atom_site_fract_y
 _atom_site_fract_z
 _atom_site_occupancy
  Cr  Cr0  1  -0.00000000  0.00000000  0.00000000  1
  Au  Au0  1  0.39757054  0.20319550  0.60076604  1
  Au  Au1  1  0.60242946  0.79680450  0.39923396  1
  Au  Au2  1  0.79678760  0.39754670  0.19433430  1
  Au  Au3  1  0.20321240  0.60245330  0.80566570  1
loop_
_geom_bond_atom_site_label_1
_geom_bond_atom_site_label_2
_geom_bond_distance
_geom_bond_site_symmetry_2
Au0 Au1 2.860752 1_555
Au0 Au1 2.860752 1_445
Au0 Au3 2.879820 1_555
Au0 Au2 2.880525 1_556
Au0 Cr0 2.881994 1_666
Au0 Cr0 2.881994 1_556
Au0 Cr0 2.896636 1_555
Au0 Au3 2.916731 1_545
Au0 Au3 2.916731 1_655
Au0 Au2 2.918245 1_555
Au0 Au2 2.918245 1_445
Au0 Au1 2.951467 1_545
Au1 Au2 2.879820 1_555
Au1 Au3 2.880525 1_554
Au1 Cr0 2.881994 1_555
Au1 Cr0 2.881994 1_665
Au1 Cr0 2.896636 1_666
Au1 Au2 2.916731 1_565
Au1 Au2 2.916731 1_455
Au1 Au3 2.918245 1_555
Au1 Au3 2.918245 1_665
Au2 Au3 2.861831 1_544
Au2 Au3 2.861831 1_654
Au2 Cr0 2.880570 1_555
Au2 Cr0 2.880570 1_665
Au2 Cr0 2.895473 1_655
Au2 Au3 2.952867 1_655
Au3 Cr0 2.880570 1_666
Au3 Cr0 2.880570 1_556
Au3 Cr0 2.895473 1_566
