# generated using pymatgen
data_Mg4Si3
_symmetry_space_group_name_H-M   'P 1'
_cell_length_a   7.83919522
_cell_length_b   7.83919522
_cell_length_c   5.42141517
_cell_angle_alpha   72.78946031
_cell_angle_beta   72.78946031
_cell_angle_gamma   111.58600752
_symmetry_Int_Tables_number   1
_chemical_formula_structural   Mg4Si3
_chemical_formula_sum   'Mg8 Si6'
_cell_volume   263.41733718
_cell_formula_units_Z   2
loop_
 _symmetry_equiv_pos_site_id
 _symmetry_equiv_pos_as_xyz
  1  'x, y, z'
loop_
 _atom_site_type_symbol
 _atom_site_label
 _atom_site_symmetry_multiplicity
 _atom_site_fract_x
 _atom_site_fract_y
 _atom_site_fract_z
 _atom_site_occupancy
  Mg  Mg0  1  0.45139900  0.45139900  0.51368300  1
  Mg  Mg1  1  0.93147600  0.68544100  0.38913200  1
  Mg  Mg2  1  0.94727200  0.31642700  0.78499600  1
  Mg  Mg3  1  0.19444000  0.47464500  0.10813300  1
  Mg  Mg4  1  0.47464500  0.19444000  0.10813300  1
  Mg  Mg5  1  0.68544100  0.93147600  0.38913200  1
  Mg  Mg6  1  0.31642700  0.94727200  0.78499600  1
  Mg  Mg7  1  0.00407700  0.00407700  0.63585100  1
  Si  Si0  1  0.11676500  0.11676500  0.04163000  1
  Si  Si1  1  0.62328800  0.62328800  0.87548000  1
  Si  Si2  1  0.89407000  0.58200700  0.96970600  1
  Si  Si3  1  0.58200700  0.89407000  0.96970600  1
  Si  Si4  1  0.73086100  0.27724600  0.46476100  1
  Si  Si5  1  0.27724600  0.73086100  0.46476100  1
loop_
_geom_bond_atom_site_label_1
_geom_bond_atom_site_label_2
_geom_bond_distance
_geom_bond_site_symmetry_2
Mg0 Si0 2.829405 1_556
Mg0 Si1 2.957847 1_554
Mg0 Si4 2.967268 1_555
Mg0 Si5 2.967268 1_555
Mg0 Si1 3.044793 1_555
Mg1 Si2 2.687879 1_554
Mg1 Si1 2.762313 1_555
Mg1 Si5 2.770552 1_655
Mg1 Si4 2.831972 1_555
Mg1 Si0 2.844143 1_665
Mg1 Si2 2.901553 1_555
Mg2 Si2 2.671449 1_555
Mg2 Si0 2.736143 1_656
Mg2 Si4 2.767968 1_555
Mg2 Si5 2.842769 1_655
Mg2 Si3 3.086993 1_545
Mg3 Si0 2.800549 1_555
Mg3 Si1 2.826513 1_554
Mg3 Si2 2.990999 1_454
Mg3 Si4 3.045182 1_455
Mg3 Si5 3.190088 1_554
Mg3 Si5 3.205481 1_555
Mg4 Si0 2.800549 1_555
Mg4 Si1 2.826513 1_554
Mg4 Si3 2.990999 1_544
Mg4 Si5 3.045182 1_545
Mg4 Si4 3.190088 1_554
Mg4 Si4 3.205481 1_555
Mg5 Si3 2.687879 1_554
Mg5 Si1 2.762313 1_555
Mg5 Si4 2.770552 1_565
Mg5 Si5 2.831972 1_555
Mg5 Si0 2.844143 1_665
Mg5 Si3 2.901553 1_555
Mg6 Si3 2.671449 1_555
Mg6 Si0 2.736143 1_566
Mg6 Si5 2.767968 1_555
Mg6 Si4 2.842769 1_565
Mg6 Si2 3.086993 1_455
Mg7 Si0 2.827822 1_555
Mg7 Si0 2.850634 1_556
Mg7 Si1 2.891874 1_445
Mg7 Si2 2.898293 1_445
Mg7 Si3 2.898293 1_445
Si1 Si3 2.433289 1_555
Si1 Si2 2.433289 1_555
Si2 Si4 2.544090 1_556
Si2 Si5 2.922834 1_655
Si3 Si5 2.544090 1_556
Si3 Si4 2.922834 1_565
