# generated using pymatgen
data_ReWN3
_symmetry_space_group_name_H-M   'P 1'
_cell_length_a   3.89272732
_cell_length_b   8.04820900
_cell_length_c   9.46046401
_cell_angle_alpha   101.11347826
_cell_angle_beta   115.41387754
_cell_angle_gamma   102.01396775
_symmetry_Int_Tables_number   1
_chemical_formula_structural   ReWN3
_chemical_formula_sum   'Re4 W4 N12'
_cell_volume   248.14004080
_cell_formula_units_Z   4
loop_
 _symmetry_equiv_pos_site_id
 _symmetry_equiv_pos_as_xyz
  1  'x, y, z'
loop_
 _atom_site_type_symbol
 _atom_site_label
 _atom_site_symmetry_multiplicity
 _atom_site_fract_x
 _atom_site_fract_y
 _atom_site_fract_z
 _atom_site_occupancy
  Re  Re0  1  0.40816400  0.55645700  0.69867500  1
  Re  Re1  1  0.59183600  0.44354300  0.30132500  1
  Re  Re2  1  0.99031900  0.12387600  0.12461200  1
  Re  Re3  1  0.00968100  0.87612400  0.87538800  1
  W  W0  1  0.67509900  0.74572900  0.53865500  1
  W  W1  1  0.32490100  0.25427100  0.46134500  1
  W  W2  1  0.15760000  0.80759500  0.16943900  1
  W  W3  1  0.84240000  0.19240500  0.83056100  1
  N  N0  1  0.14738700  0.01049700  0.32971200  1
  N  N1  1  0.85261300  0.98950300  0.67028800  1
  N  N2  1  0.74833200  0.67657400  0.95191100  1
  N  N3  1  0.25166800  0.32342600  0.04808900  1
  N  N4  1  0.42601100  0.01175800  0.12074100  1
  N  N5  1  0.57398900  0.98824200  0.87925900  1
  N  N6  1  0.10760200  0.65564200  0.49089700  1
  N  N7  1  0.89239800  0.34435800  0.50910300  1
  N  N8  1  0.02336800  0.34756700  0.27221300  1
  N  N9  1  0.97663200  0.65243300  0.72778700  1
  N  N10  1  0.47214300  0.67583900  0.27951800  1
  N  N11  1  0.52785700  0.32416100  0.72048200  1
loop_
_geom_bond_atom_site_label_1
_geom_bond_atom_site_label_2
_geom_bond_distance
_geom_bond_site_symmetry_2
N0 W1 1.905953 1_555
N0 W2 2.022754 1_545
N0 Re2 2.206347 1_455
N1 W0 1.905953 1_555
N1 W3 2.022754 1_565
N1 Re3 2.206347 1_655
N2 W2 1.880200 1_656
N2 Re0 2.068552 1_555
N2 Re3 2.130397 1_655
N3 W3 1.880200 1_454
N3 Re1 2.068552 1_555
N3 Re2 2.130397 1_455
N4 W2 1.998540 1_545
N4 Re3 2.064907 1_544
N4 Re2 2.090401 1_455
N4 Re2 2.175794 1_555
N5 W3 1.998540 1_565
N5 Re2 2.064907 1_566
N5 Re3 2.090401 1_655
N5 Re3 2.175794 1_555
N6 W0 1.990035 1_555
N6 Re1 2.112776 1_455
N6 W0 2.144566 1_455
N6 Re0 2.211279 1_555
N7 W1 1.990035 1_555
N7 Re0 2.112776 1_655
N7 W1 2.144566 1_655
N7 Re1 2.211279 1_555
N8 Re2 1.996947 1_455
N8 W1 2.055548 1_555
N8 Re1 2.062205 1_555
N8 Re1 2.085574 1_455
N9 Re3 1.996947 1_655
N9 W0 2.055548 1_555
N9 Re0 2.062205 1_555
N9 Re0 2.085574 1_655
N10 W2 1.892082 1_555
N10 Re1 2.045423 1_555
N10 W0 2.138149 1_555
N11 W3 1.892082 1_555
N11 Re0 2.045423 1_555
N11 W1 2.138149 1_555
