# generated using pymatgen
data_Cd5Ni
_symmetry_space_group_name_H-M   'P 1'
_cell_length_a   9.99350502
_cell_length_b   9.99350502
_cell_length_c   10.01189800
_cell_angle_alpha   90.00000000
_cell_angle_beta   90.00000000
_cell_angle_gamma   91.35863536
_symmetry_Int_Tables_number   1
_chemical_formula_structural   Cd5Ni
_chemical_formula_sum   'Cd40 Ni8'
_cell_volume   999.60858071
_cell_formula_units_Z   8
loop_
 _symmetry_equiv_pos_site_id
 _symmetry_equiv_pos_as_xyz
  1  'x, y, z'
loop_
 _atom_site_type_symbol
 _atom_site_label
 _atom_site_symmetry_multiplicity
 _atom_site_fract_x
 _atom_site_fract_y
 _atom_site_fract_z
 _atom_site_occupancy
  Cd  Cd0  1  0.86272500  0.49662700  0.49909200  1
  Cd  Cd1  1  0.50337300  0.13727500  0.49909200  1
  Cd  Cd2  1  0.50000000  0.50000000  0.86018700  1
  Cd  Cd3  1  0.13727500  0.50337300  0.49909200  1
  Cd  Cd4  1  0.49662700  0.86272500  0.49909200  1
  Cd  Cd5  1  0.50000000  0.50000000  0.13974900  1
  Cd  Cd6  1  0.30242200  0.69757800  0.00703400  1
  Cd  Cd7  1  0.05425500  0.72511900  0.25106100  1
  Cd  Cd8  1  0.27488100  0.94574500  0.25106100  1
  Cd  Cd9  1  0.69757800  0.30242200  0.00703400  1
  Cd  Cd10  1  0.94574500  0.27488100  0.25106100  1
  Cd  Cd11  1  0.72511900  0.05425500  0.25106100  1
  Cd  Cd12  1  0.79854400  0.79854400  0.94934400  1
  Cd  Cd13  1  0.00527500  0.74823000  0.73960600  1
  Cd  Cd14  1  0.74823000  0.00527500  0.73960600  1
  Cd  Cd15  1  0.20145600  0.20145600  0.94934400  1
  Cd  Cd16  1  0.99472500  0.25177000  0.73960600  1
  Cd  Cd17  1  0.25177000  0.99472500  0.73960600  1
  Cd  Cd18  1  0.64345900  0.35654100  0.65273800  1
  Cd  Cd19  1  0.35654100  0.64345900  0.65273800  1
  Cd  Cd20  1  0.34578300  0.34578300  0.35973300  1
  Cd  Cd21  1  0.65421700  0.65421700  0.35973300  1
  Cd  Cd22  1  0.82955000  0.17045000  0.50956100  1
  Cd  Cd23  1  0.49015900  0.16193600  0.83053200  1
  Cd  Cd24  1  0.83806400  0.50984100  0.83053200  1
  Cd  Cd25  1  0.17045000  0.82955000  0.50956100  1
  Cd  Cd26  1  0.50984100  0.83806400  0.83053200  1
  Cd  Cd27  1  0.16193600  0.49015900  0.83053200  1
  Cd  Cd28  1  0.13396700  0.13396700  0.45870200  1
  Cd  Cd29  1  0.45655800  0.16919600  0.14968600  1
  Cd  Cd30  1  0.16919600  0.45655800  0.14968600  1
  Cd  Cd31  1  0.86603300  0.86603300  0.45870200  1
  Cd  Cd32  1  0.54344200  0.83080400  0.14968600  1
  Cd  Cd33  1  0.83080400  0.54344200  0.14968600  1
  Cd  Cd34  1  0.34390100  0.65609900  0.33338300  1
  Cd  Cd35  1  0.65609900  0.34390100  0.33338300  1
  Cd  Cd36  1  0.67757200  0.67757200  0.65602200  1
  Cd  Cd37  1  0.32242800  0.32242800  0.65602200  1
  Cd  Cd38  1  0.90012800  0.09987200  0.99770600  1
  Cd  Cd39  1  0.09987200  0.90012800  0.99770600  1
  Ni  Ni0  1  0.18536600  0.18536600  0.20447600  1
  Ni  Ni1  1  0.81463400  0.81463400  0.20447600  1
  Ni  Ni2  1  0.36087800  0.97643400  0.99241200  1
  Ni  Ni3  1  0.02356600  0.63912200  0.99241200  1
  Ni  Ni4  1  0.00000000  0.00000000  0.24600800  1
  Ni  Ni5  1  0.63912200  0.02356600  0.99241200  1
  Ni  Ni6  1  0.97643400  0.36087800  0.99241200  1
  Ni  Ni7  1  0.00000000  0.00000000  0.64710300  1
loop_
_geom_bond_atom_site_label_1
_geom_bond_atom_site_label_2
_geom_bond_distance
_geom_bond_site_symmetry_2
Cd0 Cd3 2.742946 1_655
Cd0 Cd21 2.987387 1_555
Cd0 Cd18 2.997038 1_555
Cd0 Cd35 3.032559 1_555
Cd0 Cd36 3.052999 1_555
Cd0 Cd22 3.270318 1_555
Cd0 Cd24 3.330334 1_555
Cd0 Cd10 3.442797 1_555
Cd0 Cd33 3.544749 1_555
Cd1 Cd4 2.742946 1_545
Cd1 Cd20 2.987387 1_555
Cd1 Cd18 2.997038 1_555
Cd1 Cd35 3.032559 1_555
Cd1 Cd37 3.052999 1_555
Cd1 Cd22 3.270318 1_555
Cd1 Cd23 3.330334 1_555
Cd1 Cd11 3.442797 1_555
Cd1 Cd29 3.544749 1_555
Cd2 Cd5 2.798946 1_556
Cd2 Cd9 3.184916 1_556
Cd2 Cd6 3.184916 1_556
Cd2 Cd36 3.213581 1_555
Cd2 Cd37 3.213581 1_555
Cd2 Cd24 3.390568 1_555
Cd2 Cd26 3.390568 1_555
Cd2 Cd23 3.390568 1_555
Cd2 Cd27 3.390568 1_555
Cd3 Cd34 3.032559 1_555
Cd3 Cd37 3.052999 1_555
Cd3 Cd7 3.442797 1_555
Cd3 Cd30 3.544749 1_555
Cd4 Cd8 3.442797 1_555
Cd5 Cd9 3.122126 1_555
Cd5 Cd6 3.122126 1_555
Cd6 Ni3 2.837511 1_554
Cd6 Ni2 2.837511 1_554
Cd6 Cd7 3.496842 1_555
Cd6 Cd8 3.496842 1_555
Cd7 Ni1 2.617964 1_455
Cd7 Ni3 2.743357 1_554
Cd7 Ni4 2.813061 1_565
Cd7 Cd8 3.080909 1_555
Cd8 Ni0 2.617964 1_565
Cd8 Ni2 2.743357 1_554
Cd8 Ni4 2.813061 1_565
Cd9 Ni5 2.837511 1_554
Cd9 Ni6 2.837511 1_554
Cd10 Ni0 2.617964 1_655
Cd10 Ni6 2.743357 1_554
Cd10 Ni4 2.813061 1_655
Cd10 Cd22 3.013007 1_555
Cd10 Cd30 3.020065 1_655
Cd10 Cd11 3.080909 1_555
Cd10 Cd35 3.102954 1_555
Cd10 Cd38 3.108538 1_554
Cd10 Cd33 3.114304 1_555
Cd10 Cd28 3.157310 1_655
Cd10 Cd9 3.496842 1_555
Cd11 Ni1 2.617964 1_545
Cd11 Ni5 2.743357 1_554
Cd11 Ni4 2.813061 1_655
Cd11 Cd22 3.013007 1_555
Cd11 Cd32 3.020065 1_545
Cd11 Cd35 3.102954 1_555
Cd11 Cd38 3.108538 1_554
Cd11 Cd29 3.114304 1_555
Cd11 Cd31 3.157310 1_545
Cd11 Cd9 3.496842 1_555
Cd12 Ni1 2.564219 1_556
Cd12 Ni3 2.819747 1_655
Cd12 Ni5 2.819747 1_565
Cd12 Cd13 2.996628 1_655
Cd12 Cd14 2.996628 1_565
Cd12 Cd26 3.154223 1_555
Cd12 Cd24 3.154223 1_555
Cd12 Cd39 3.191886 1_655
Cd12 Cd38 3.191886 1_565
Cd12 Cd32 3.265794 1_556
Cd12 Cd33 3.265794 1_556
Cd12 Cd36 3.387920 1_555
Cd13 Ni7 2.682791 1_565
Cd13 Ni3 2.763707 1_555
Cd13 Cd25 2.937044 1_555
Cd13 Cd24 3.017916 1_455
Cd13 Cd39 3.131672 1_555
Cd13 Cd27 3.181617 1_555
Cd13 Cd31 3.362952 1_455
Cd13 Cd36 3.437182 1_455
Cd13 Cd17 3.442154 1_555
Cd14 Ni7 2.682791 1_655
Cd14 Ni5 2.763707 1_555
Cd14 Cd22 2.937044 1_555
Cd14 Cd26 3.017916 1_545
Cd14 Cd38 3.131672 1_555
Cd14 Cd23 3.181617 1_555
Cd14 Cd31 3.362952 1_545
Cd14 Cd36 3.437182 1_545
Cd14 Cd16 3.442154 1_555
Cd15 Ni0 2.564219 1_556
Cd15 Ni2 2.819747 1_545
Cd15 Ni6 2.819747 1_455
Cd15 Cd17 2.996628 1_545
Cd15 Cd16 2.996628 1_455
Cd15 Cd23 3.154223 1_555
Cd15 Cd27 3.154223 1_555
Cd15 Cd39 3.191886 1_545
Cd15 Cd38 3.191886 1_455
Cd15 Cd29 3.265794 1_556
Cd15 Cd30 3.265794 1_556
Cd15 Cd37 3.387920 1_555
Cd16 Ni7 2.682791 1_655
Cd16 Ni6 2.763707 1_555
Cd16 Cd22 2.937044 1_555
Cd16 Cd27 3.017916 1_655
Cd16 Cd38 3.131672 1_555
Cd16 Cd24 3.181617 1_555
Cd16 Cd28 3.362952 1_655
Cd16 Cd37 3.437182 1_655
Cd17 Ni7 2.682791 1_565
Cd17 Ni2 2.763707 1_555
Cd17 Cd25 2.937044 1_555
Cd17 Cd23 3.017916 1_565
Cd17 Cd39 3.131672 1_555
Cd17 Cd26 3.181617 1_555
Cd17 Cd28 3.362952 1_565
Cd17 Cd37 3.437182 1_565
Cd18 Cd2 2.919242 1_555
Cd18 Cd22 3.022553 1_555
Cd18 Cd24 3.025978 1_555
Cd18 Cd23 3.025978 1_555
Cd18 Cd35 3.202454 1_555
Cd18 Cd36 3.218407 1_555
Cd18 Cd37 3.218407 1_555
Cd19 Cd2 2.919242 1_555
Cd19 Cd4 2.997038 1_555
Cd19 Cd3 2.997038 1_555
Cd19 Cd25 3.022553 1_555
Cd19 Cd26 3.025978 1_555
Cd19 Cd27 3.025978 1_555
Cd19 Cd34 3.202454 1_555
Cd19 Cd36 3.218407 1_555
Cd19 Cd37 3.218407 1_555
Cd20 Ni0 2.726606 1_555
Cd20 Cd30 2.975716 1_555
Cd20 Cd29 2.975716 1_555
Cd20 Cd37 2.984290 1_555
Cd20 Cd3 2.987387 1_555
Cd20 Cd5 3.080355 1_555
Cd20 Cd34 3.112847 1_555
Cd20 Cd35 3.112847 1_555
Cd20 Cd28 3.119437 1_555
Cd21 Ni1 2.726606 1_555
Cd21 Cd33 2.975716 1_555
Cd21 Cd32 2.975716 1_555
Cd21 Cd36 2.984290 1_555
Cd21 Cd4 2.987387 1_555
Cd21 Cd5 3.080355 1_555
Cd21 Cd34 3.112847 1_555
Cd21 Cd35 3.112847 1_555
Cd21 Cd31 3.119437 1_555
Cd22 Ni7 2.799459 1_655
Cd22 Cd35 3.043514 1_555
Cd22 Cd28 3.114441 1_655
Cd22 Cd31 3.114441 1_545
Cd23 Ni5 2.617752 1_555
Cd23 Ni2 2.760253 1_545
Cd23 Cd37 2.926133 1_555
Cd23 Cd9 3.041785 1_556
Cd23 Cd29 3.213932 1_556
Cd23 Cd26 3.247239 1_545
Cd24 Ni6 2.617752 1_555
Cd24 Ni3 2.760253 1_655
Cd24 Cd36 2.926133 1_555
Cd24 Cd9 3.041785 1_556
Cd24 Cd33 3.213932 1_556
Cd24 Cd27 3.247239 1_655
Cd25 Ni7 2.799459 1_565
Cd25 Cd8 3.013007 1_555
Cd25 Cd7 3.013007 1_555
Cd25 Cd34 3.043514 1_555
Cd25 Cd28 3.114441 1_565
Cd25 Cd31 3.114441 1_455
Cd25 Cd4 3.270318 1_555
Cd25 Cd3 3.270318 1_555
Cd26 Ni2 2.617752 1_555
Cd26 Ni5 2.760253 1_565
Cd26 Cd36 2.926133 1_555
Cd26 Cd6 3.041785 1_556
Cd26 Cd32 3.213932 1_556
Cd26 Cd4 3.330334 1_555
Cd27 Ni3 2.617752 1_555
Cd27 Ni6 2.760253 1_455
Cd27 Cd37 2.926133 1_555
Cd27 Cd6 3.041785 1_556
Cd27 Cd30 3.213932 1_556
Cd27 Cd3 3.330334 1_555
Cd28 Ni0 2.644551 1_555
Cd28 Ni7 2.656637 1_555
Cd28 Ni4 2.834505 1_555
Cd28 Cd8 3.157310 1_545
Cd28 Cd37 3.290724 1_555
Cd29 Ni2 2.649004 1_544
Cd29 Ni0 2.773581 1_555
Cd29 Ni5 2.837605 1_554
Cd29 Cd8 3.020065 1_545
Cd29 Cd9 3.076015 1_555
Cd29 Cd35 3.200329 1_555
Cd29 Cd5 3.325542 1_555
Cd29 Cd32 3.511294 1_545
Cd30 Ni6 2.649004 1_454
Cd30 Ni0 2.773581 1_555
Cd30 Ni3 2.837605 1_554
Cd30 Cd6 3.076015 1_555
Cd30 Cd7 3.114304 1_555
Cd30 Cd34 3.200329 1_555
Cd30 Cd5 3.325542 1_555
Cd30 Cd33 3.511294 1_455
Cd31 Ni1 2.644551 1_555
Cd31 Ni7 2.656637 1_665
Cd31 Ni4 2.834505 1_665
Cd31 Cd7 3.157310 1_655
Cd31 Cd36 3.290724 1_555
Cd32 Ni5 2.649004 1_564
Cd32 Ni1 2.773581 1_555
Cd32 Ni2 2.837605 1_554
Cd32 Cd6 3.076015 1_555
Cd32 Cd8 3.114304 1_555
Cd32 Cd34 3.200329 1_555
Cd32 Cd5 3.325542 1_555
Cd32 Cd4 3.544749 1_555
Cd33 Ni3 2.649004 1_654
Cd33 Ni1 2.773581 1_555
Cd33 Ni6 2.837605 1_554
Cd33 Cd7 3.020065 1_655
Cd33 Cd9 3.076015 1_555
Cd33 Cd35 3.200329 1_555
Cd33 Cd5 3.325542 1_555
Cd34 Cd5 2.956483 1_555
Cd34 Cd4 3.032559 1_555
Cd34 Cd7 3.102954 1_555
Cd34 Cd8 3.102954 1_555
Cd34 Cd6 3.320772 1_555
Cd35 Cd5 2.956483 1_555
Cd35 Cd9 3.320772 1_555
Cd36 Cd4 3.052999 1_555
Cd38 Ni5 2.700659 1_555
Cd38 Ni6 2.700659 1_555
Cd38 Cd39 2.856243 1_645
Cd38 Ni4 2.866984 1_656
Cd38 Cd9 2.897873 1_556
Cd39 Ni3 2.700659 1_555
Cd39 Ni2 2.700659 1_555
Cd39 Ni4 2.866984 1_566
Cd39 Cd6 2.897873 1_556
Cd39 Cd7 3.108538 1_556
Cd39 Cd8 3.108538 1_556
Ni0 Ni4 2.621709 1_555
Ni1 Ni4 2.621709 1_665
Ni2 Ni5 2.809211 1_565
Ni3 Ni6 2.809211 1_455
