# generated using pymatgen
data_NbCr2
_symmetry_space_group_name_H-M   'P 1'
_cell_length_a   4.88823248
_cell_length_b   4.88823248
_cell_length_c   8.04548990
_cell_angle_alpha   90.00000000
_cell_angle_beta   90.00000000
_cell_angle_gamma   119.99999372
_symmetry_Int_Tables_number   1
_chemical_formula_structural   NbCr2
_chemical_formula_sum   'Nb4 Cr8'
_cell_volume   166.48950314
_cell_formula_units_Z   4
loop_
 _symmetry_equiv_pos_site_id
 _symmetry_equiv_pos_as_xyz
  1  'x, y, z'
loop_
 _atom_site_type_symbol
 _atom_site_label
 _atom_site_symmetry_multiplicity
 _atom_site_fract_x
 _atom_site_fract_y
 _atom_site_fract_z
 _atom_site_occupancy
  Nb  Nb0  1  0.33333300  0.66666700  0.44098777  1
  Nb  Nb1  1  0.66666700  0.33333300  0.55901223  1
  Nb  Nb2  1  0.66666700  0.33333300  0.94098777  1
  Nb  Nb3  1  0.33333300  0.66666700  0.05901223  1
  Cr  Cr0  1  -0.00000000  0.00000000  0.50000000  1
  Cr  Cr1  1  -0.00000000  0.00000000  0.00000000  1
  Cr  Cr2  1  0.83041702  0.16958298  0.25000000  1
  Cr  Cr3  1  0.83041702  0.66083404  0.25000000  1
  Cr  Cr4  1  0.33916596  0.16958298  0.25000000  1
  Cr  Cr5  1  0.16958298  0.83041702  0.75000000  1
  Cr  Cr6  1  0.16958298  0.33916596  0.75000000  1
  Cr  Cr7  1  0.66083404  0.83041702  0.75000000  1
loop_
_geom_bond_atom_site_label_1
_geom_bond_atom_site_label_2
_geom_bond_distance
_geom_bond_site_symmetry_2
Nb0 Nb1 2.977683 1_455
Nb0 Nb1 2.977683 1_565
Nb0 Nb1 2.977691 1_555
Nb0 Nb3 3.073180 1_555
Nb1 Nb2 3.073180 1_555
Nb2 Nb3 2.977683 1_546
Nb2 Nb3 2.977683 1_656
Nb2 Nb3 2.977691 1_556
Cr0 Cr2 2.471265 1_455
Cr0 Cr5 2.471265 1_545
Cr0 Cr6 2.471265 1_555
Cr0 Cr4 2.471265 1_555
Cr0 Cr7 2.471265 1_445
Cr0 Cr3 2.471265 1_445
Cr0 Nb0 2.861877 1_545
Cr0 Nb1 2.861877 1_455
Cr0 Nb0 2.861882 1_445
Cr0 Nb1 2.861882 1_555
Cr0 Nb0 2.861882 1_555
Cr0 Nb1 2.861882 1_445
Cr1 Cr2 2.471265 1_455
Cr1 Cr5 2.471265 1_544
Cr1 Cr6 2.471265 1_554
Cr1 Cr4 2.471265 1_555
Cr1 Cr7 2.471265 1_444
Cr1 Cr3 2.471265 1_445
Cr1 Nb3 2.861877 1_545
Cr1 Nb2 2.861877 1_454
Cr1 Nb2 2.861882 1_444
Cr1 Nb3 2.861882 1_555
Cr1 Nb3 2.861882 1_445
Cr1 Nb2 2.861882 1_554
Cr2 Cr3 2.401349 1_555
Cr2 Cr4 2.401349 1_555
Cr2 Cr4 2.486883 1_655
Cr2 Cr3 2.486883 1_545
Cr2 Nb1 2.846597 1_555
Cr2 Nb2 2.846597 1_554
Cr2 Nb0 2.887113 1_655
Cr2 Nb3 2.887113 1_655
Cr2 Nb0 2.887113 1_545
Cr2 Nb3 2.887113 1_545
Cr3 Cr4 2.401350 1_555
Cr3 Cr4 2.486883 1_665
Cr3 Nb1 2.846600 1_555
Cr3 Nb2 2.846600 1_554
Cr3 Nb0 2.887111 1_655
Cr3 Nb3 2.887111 1_655
Cr3 Nb3 2.887115 1_555
Cr3 Nb0 2.887115 1_555
Cr4 Nb1 2.846600 1_555
Cr4 Nb2 2.846600 1_554
Cr4 Nb0 2.887111 1_545
Cr4 Nb3 2.887111 1_545
Cr4 Nb3 2.887115 1_555
Cr4 Nb0 2.887115 1_555
Cr5 Cr7 2.401349 1_555
Cr5 Cr6 2.401349 1_555
Cr5 Cr6 2.486883 1_565
Cr5 Cr7 2.486883 1_455
Cr5 Nb0 2.846597 1_555
Cr5 Nb3 2.846597 1_556
Cr5 Nb2 2.887113 1_565
Cr5 Nb1 2.887113 1_565
Cr5 Nb2 2.887113 1_455
Cr5 Nb1 2.887113 1_455
Cr6 Cr7 2.401350 1_555
Cr6 Cr7 2.486883 1_445
Cr6 Nb0 2.846600 1_555
Cr6 Nb3 2.846600 1_556
Cr6 Nb1 2.887111 1_455
Cr6 Nb2 2.887111 1_455
Cr6 Nb2 2.887115 1_555
Cr6 Nb1 2.887115 1_555
Cr7 Nb0 2.846600 1_555
Cr7 Nb3 2.846600 1_556
Cr7 Nb2 2.887111 1_565
Cr7 Nb1 2.887111 1_565
Cr7 Nb1 2.887115 1_555
Cr7 Nb2 2.887115 1_555
