# generated using pymatgen
data_SrNdHf2O6
_symmetry_space_group_name_H-M   'P 1'
_cell_length_a   4.21921592
_cell_length_b   5.70051007
_cell_length_c   5.70051007
_cell_angle_alpha   91.34957022
_cell_angle_beta   90.00000000
_cell_angle_gamma   90.00000000
_symmetry_Int_Tables_number   1
_chemical_formula_structural   SrNdHf2O6
_chemical_formula_sum   'Sr1 Nd1 Hf2 O6'
_cell_volume   137.06882785
_cell_formula_units_Z   1
loop_
 _symmetry_equiv_pos_site_id
 _symmetry_equiv_pos_as_xyz
  1  'x, y, z'
loop_
 _atom_site_type_symbol
 _atom_site_label
 _atom_site_symmetry_multiplicity
 _atom_site_fract_x
 _atom_site_fract_y
 _atom_site_fract_z
 _atom_site_occupancy
  Sr  Sr0  1  0.50000000  0.50000000  0.50000000  1
  Nd  Nd0  1  0.50000000  0.00000000  -0.00000000  1
  Hf  Hf0  1  -0.00000000  0.00000000  0.50000000  1
  Hf  Hf1  1  0.00000000  0.50000000  -0.00000000  1
  O  O0  1  0.50000000  0.00000000  0.50000000  1
  O  O1  1  0.50000000  0.50000000  -0.00000000  1
  O  O2  1  -0.00000000  0.31812340  0.68187660  1
  O  O3  1  0.00000000  0.68187660  0.31812340  1
  O  O4  1  -0.00000000  0.82021361  0.82021361  1
  O  O5  1  0.00000000  0.17978639  0.17978639  1
loop_
_geom_bond_atom_site_label_1
_geom_bond_atom_site_label_2
_geom_bond_distance
_geom_bond_site_symmetry_2
Nd0 O5 2.549844 1_555
Nd0 O4 2.549844 1_644
Nd0 O4 2.549844 1_544
Nd0 O5 2.549844 1_655
Nd0 O1 2.850255 1_545
Nd0 O0 2.850255 1_555
Nd0 O0 2.850255 1_554
Nd0 O1 2.850255 1_555
Hf0 O2 2.067613 1_555
Hf0 O3 2.067613 1_545
Hf0 O0 2.109608 1_455
Hf0 O0 2.109608 1_555
Hf0 O5 2.114357 1_555
Hf0 O4 2.114357 1_545
Hf1 O3 2.067613 1_555
Hf1 O2 2.067613 1_554
Hf1 O1 2.109608 1_455
Hf1 O1 2.109608 1_555
Hf1 O4 2.114357 1_554
Hf1 O5 2.114357 1_555
O0 Sr0 2.850255 1_545
O0 Sr0 2.850255 1_555
O1 Sr0 2.850255 1_554
O1 Sr0 2.850255 1_555
O2 Sr0 2.578942 1_555
O2 Sr0 2.578942 1_455
O3 Sr0 2.578942 1_555
O3 Sr0 2.578942 1_455
