# generated using pymatgen
data_KRbMg14
_symmetry_space_group_name_H-M   'P 1'
_cell_length_a   6.77535899
_cell_length_b   6.49711460
_cell_length_c   11.10649447
_cell_angle_alpha   90.00000000
_cell_angle_beta   90.00000000
_cell_angle_gamma   118.65056646
_symmetry_Int_Tables_number   1
_chemical_formula_structural   KRbMg14
_chemical_formula_sum   'K1 Rb1 Mg14'
_cell_volume   429.04885072
_cell_formula_units_Z   1
loop_
 _symmetry_equiv_pos_site_id
 _symmetry_equiv_pos_as_xyz
  1  'x, y, z'
loop_
 _atom_site_type_symbol
 _atom_site_label
 _atom_site_symmetry_multiplicity
 _atom_site_fract_x
 _atom_site_fract_y
 _atom_site_fract_z
 _atom_site_occupancy
  K  K0  1  0.17019534  0.33509717  0.12500000  1
  Rb  Rb0  1  0.16838094  0.83418997  0.12500000  1
  Mg  Mg0  1  0.15789415  0.32894657  0.62500000  1
  Mg  Mg1  1  0.15867658  0.82933779  0.62500000  1
  Mg  Mg2  1  0.66968363  0.33503400  0.12500000  1
  Mg  Mg3  1  0.67029135  0.33465196  0.62500000  1
  Mg  Mg4  1  0.66968363  0.83464862  0.12500000  1
  Mg  Mg5  1  0.67029135  0.83563838  0.62500000  1
  Mg  Mg6  1  0.34477394  0.17321468  0.40554569  1
  Mg  Mg7  1  0.34477394  0.17321468  0.84445431  1
  Mg  Mg8  1  0.34477394  0.67156026  0.40554569  1
  Mg  Mg9  1  0.34477394  0.67156026  0.84445431  1
  Mg  Mg10  1  0.82283487  0.16141793  0.38429785  1
  Mg  Mg11  1  0.82283487  0.16141793  0.86570215  1
  Mg  Mg12  1  0.82006877  0.66003489  0.38829892  1
  Mg  Mg13  1  0.82006877  0.66003489  0.86170108  1
loop_
_geom_bond_atom_site_label_1
_geom_bond_atom_site_label_2
_geom_bond_distance
_geom_bond_site_symmetry_2
K0 Rb0 3.248575 1_545
K0 Rb0 3.248575 1_555
K0 Mg4 3.384409 1_555
K0 Mg2 3.384409 1_555
K0 Mg4 3.390949 1_445
K0 Mg2 3.390950 1_455
K0 Mg10 3.543918 1_455
K0 Mg11 3.543918 1_454
K0 Mg7 3.661556 1_554
K0 Mg6 3.661556 1_555
K0 Mg9 3.661561 1_554
K0 Mg8 3.661561 1_555
Mg0 Mg7 3.129895 1_555
Mg0 Mg6 3.129895 1_555
Mg0 Mg8 3.129901 1_555
Mg0 Mg9 3.129901 1_555
Mg0 Mg1 3.248561 1_545
Mg0 Mg1 3.248561 1_555
Mg0 Mg5 3.321616 1_445
Mg0 Mg3 3.321616 1_455
Mg0 Mg11 3.334016 1_455
Mg0 Mg10 3.334016 1_455
Mg0 Mg5 3.454055 1_555
Mg0 Mg3 3.454055 1_555
Mg1 Mg8 3.133822 1_555
Mg1 Mg9 3.133822 1_555
Mg1 Mg6 3.133829 1_565
Mg1 Mg7 3.133829 1_565
Mg1 Mg12 3.311276 1_455
Mg1 Mg13 3.311276 1_455
Mg1 Mg3 3.328806 1_455
Mg1 Mg5 3.328806 1_455
Mg1 Mg3 3.446933 1_565
Mg1 Mg5 3.446934 1_555
Mg2 Rb0 3.380283 1_655
Mg2 Rb0 3.395078 1_545
Mg3 Mg6 3.112367 1_555
Mg3 Mg7 3.112367 1_555
Mg3 Mg5 3.242148 1_545
Mg3 Mg5 3.254966 1_555
Mg4 Rb0 3.380283 1_655
Mg4 Rb0 3.395078 1_555
Mg5 Mg8 3.112367 1_555
Mg5 Mg9 3.112367 1_555
Mg6 Mg8 3.237808 1_555
Mg6 Mg8 3.259306 1_545
Mg6 Rb0 3.669396 1_545
Mg7 Mg9 3.237808 1_555
Mg7 Mg9 3.259306 1_545
Mg7 Rb0 3.669396 1_546
Mg8 Rb0 3.669390 1_555
Mg9 Rb0 3.669390 1_556
Mg10 Mg12 3.248903 1_545
Mg10 Mg12 3.248903 1_555
Mg10 Mg3 3.255354 1_555
Mg10 Mg5 3.255361 1_545
Mg10 Mg8 3.284961 1_545
Mg10 Mg6 3.284961 1_555
Mg10 Mg2 3.430058 1_555
Mg10 Mg4 3.430064 1_545
Mg10 Mg8 3.508168 1_655
Mg10 Mg6 3.508169 1_655
Mg11 Mg13 3.248903 1_545
Mg11 Mg13 3.248903 1_555
Mg11 Mg3 3.255354 1_555
Mg11 Mg5 3.255361 1_545
Mg11 Mg9 3.284961 1_545
Mg11 Mg7 3.284961 1_555
Mg11 Mg2 3.430058 1_556
Mg11 Mg4 3.430064 1_546
Mg11 Mg9 3.508168 1_655
Mg11 Mg7 3.508169 1_655
Mg12 Mg5 3.217602 1_555
Mg12 Mg3 3.217609 1_555
Mg12 Mg6 3.262487 1_555
Mg12 Mg8 3.262487 1_555
Mg12 Mg4 3.461995 1_555
Mg12 Mg2 3.462001 1_555
Mg12 Mg6 3.524984 1_665
Mg12 Mg8 3.524985 1_655
Mg12 Rb0 3.583391 1_655
Mg13 Mg5 3.217602 1_555
Mg13 Mg3 3.217609 1_555
Mg13 Mg7 3.262487 1_555
Mg13 Mg9 3.262487 1_555
Mg13 Mg4 3.461995 1_556
Mg13 Mg2 3.462001 1_556
Mg13 Mg7 3.524984 1_665
Mg13 Mg9 3.524985 1_655
Mg13 Rb0 3.583391 1_656
