# generated using pymatgen
data_CeInCu5
_symmetry_space_group_name_H-M   'P 1'
_cell_length_a   5.04768683
_cell_length_b   8.29244023
_cell_length_c   10.53483158
_cell_angle_alpha   90.00000000
_cell_angle_beta   90.00000000
_cell_angle_gamma   90.00000000
_symmetry_Int_Tables_number   1
_chemical_formula_structural   CeInCu5
_chemical_formula_sum   'Ce4 In4 Cu20'
_cell_volume   440.96320183
_cell_formula_units_Z   4
loop_
 _symmetry_equiv_pos_site_id
 _symmetry_equiv_pos_as_xyz
  1  'x, y, z'
loop_
 _atom_site_type_symbol
 _atom_site_label
 _atom_site_symmetry_multiplicity
 _atom_site_fract_x
 _atom_site_fract_y
 _atom_site_fract_z
 _atom_site_occupancy
  Ce  Ce0  1  0.75000000  0.74508531  0.44068310  1
  Ce  Ce1  1  0.25000000  0.25491469  0.55931690  1
  Ce  Ce2  1  0.25000000  0.75491469  0.94068310  1
  Ce  Ce3  1  0.75000000  0.24508531  0.05931690  1
  In  In0  1  0.75000000  0.86021859  0.13753393  1
  In  In1  1  0.25000000  0.13978141  0.86246607  1
  In  In2  1  0.25000000  0.63978141  0.63753393  1
  In  In3  1  0.75000000  0.36021859  0.36246607  1
  Cu  Cu0  1  0.50034529  0.93216898  0.68703994  1
  Cu  Cu1  1  0.49965471  0.06783102  0.31296006  1
  Cu  Cu2  1  0.49965471  0.56783102  0.18703994  1
  Cu  Cu3  1  0.00034529  0.06783102  0.31296006  1
  Cu  Cu4  1  0.50034529  0.43216898  0.81296006  1
  Cu  Cu5  1  -0.00034529  0.93216898  0.68703994  1
  Cu  Cu6  1  -0.00034529  0.43216898  0.81296006  1
  Cu  Cu7  1  0.00034529  0.56783102  0.18703994  1
  Cu  Cu8  1  0.75000000  0.58272225  0.98503901  1
  Cu  Cu9  1  0.25000000  0.41727775  0.01496099  1
  Cu  Cu10  1  0.25000000  0.91727775  0.48503901  1
  Cu  Cu11  1  0.75000000  0.08272225  0.51496099  1
  Cu  Cu12  1  0.75000000  0.93951444  0.89135612  1
  Cu  Cu13  1  0.25000000  0.06048556  0.10864388  1
  Cu  Cu14  1  0.25000000  0.56048556  0.39135612  1
  Cu  Cu15  1  0.75000000  0.43951444  0.60864388  1
  Cu  Cu16  1  0.75000000  0.68134099  0.75676311  1
  Cu  Cu17  1  0.25000000  0.31865901  0.24323689  1
  Cu  Cu18  1  0.25000000  0.81865901  0.25676311  1
  Cu  Cu19  1  0.75000000  0.18134099  0.74323689  1
loop_
_geom_bond_atom_site_label_1
_geom_bond_atom_site_label_2
_geom_bond_distance
_geom_bond_site_symmetry_2
Ce0 Cu11 2.907127 1_565
Ce0 Cu10 2.937180 1_655
Ce0 Cu10 2.937180 1_555
Ce0 Cu14 2.997185 1_655
Ce0 Cu14 2.997185 1_555
Ce0 Cu15 3.090583 1_555
Ce0 Cu18 3.239780 1_655
Ce0 Cu18 3.239780 1_555
Ce0 Cu3 3.251181 1_665
Ce0 Cu1 3.251181 1_565
Ce0 Cu0 3.275753 1_555
Ce0 Cu5 3.275753 1_655
Ce0 In3 3.296142 1_555
Ce0 Cu2 3.301124 1_555
Ce0 Cu7 3.301124 1_655
Ce0 In0 3.333281 1_555
Ce0 Cu16 3.371545 1_555
Ce0 In2 3.381260 1_555
Ce0 In2 3.381260 1_655
Ce1 Cu10 2.907127 1_545
Ce1 Cu11 2.937180 1_455
Ce1 Cu11 2.937180 1_555
Ce1 Cu15 2.997185 1_555
Ce1 Cu15 2.997185 1_455
Ce1 Cu14 3.090583 1_555
Ce1 Cu19 3.239780 1_455
Ce1 Cu19 3.239780 1_555
Ce1 Cu5 3.251181 1_545
Ce1 Cu0 3.251181 1_545
Ce1 Cu1 3.275753 1_555
Ce1 Cu3 3.275753 1_555
Ce1 In2 3.296142 1_555
Ce1 Cu4 3.301124 1_555
Ce1 Cu6 3.301124 1_555
Ce1 In1 3.333281 1_555
Ce1 Cu17 3.371545 1_555
Ce1 In3 3.381260 1_455
Ce1 In3 3.381260 1_555
Ce2 Cu9 2.907127 1_556
Ce2 Cu8 2.937180 1_455
Ce2 Cu8 2.937180 1_555
Ce2 Cu12 2.997185 1_455
Ce2 Cu12 2.997185 1_555
Ce2 Cu13 3.090583 1_566
Ce2 Cu16 3.239780 1_555
Ce2 Cu16 3.239780 1_455
Ce2 Cu6 3.251181 1_555
Ce2 Cu4 3.251181 1_555
Ce2 Cu7 3.275753 1_556
Ce2 Cu2 3.275753 1_556
Ce2 In1 3.296142 1_565
Ce2 Cu5 3.301124 1_555
Ce2 Cu0 3.301124 1_555
Ce2 In2 3.333281 1_555
Ce2 Cu18 3.371545 1_556
Ce2 In0 3.381260 1_456
Ce2 In0 3.381260 1_556
Ce3 Cu8 2.907127 1_554
Ce3 Cu9 2.937180 1_555
Ce3 Cu9 2.937180 1_655
Ce3 Cu13 2.997185 1_655
Ce3 Cu13 2.997185 1_555
Ce3 Cu12 3.090583 1_544
Ce3 Cu17 3.239780 1_655
Ce3 Cu17 3.239780 1_555
Ce3 Cu7 3.251181 1_655
Ce3 Cu2 3.251181 1_555
Ce3 Cu6 3.275753 1_654
Ce3 Cu4 3.275753 1_554
Ce3 In0 3.296142 1_545
Ce3 Cu1 3.301124 1_555
Ce3 Cu3 3.301124 1_655
Ce3 In3 3.333281 1_555
Ce3 Cu19 3.371545 1_554
Ce3 In1 3.381260 1_654
Ce3 In1 3.381260 1_554
Cu0 Cu10 2.478039 1_555
Cu0 Cu19 2.491568 1_565
Cu0 Cu12 2.494944 1_555
Cu0 Cu5 2.520358 1_655
Cu0 Cu5 2.527329 1_555
Cu0 Cu11 2.536339 1_565
Cu0 Cu16 2.540448 1_555
Cu0 In2 2.783445 1_555
Cu0 In1 2.824220 1_565
Cu1 Cu11 2.478039 1_555
Cu1 Cu18 2.491568 1_545
Cu1 Cu13 2.494944 1_555
Cu1 Cu3 2.520358 1_555
Cu1 Cu3 2.527329 1_655
Cu1 Cu10 2.536339 1_545
Cu1 Cu17 2.540448 1_555
Cu1 In3 2.783445 1_555
Cu1 In0 2.824220 1_545
Cu2 Cu8 2.478039 1_554
Cu2 Cu7 2.520358 1_555
Cu2 Cu7 2.527329 1_655
Cu2 Cu9 2.536339 1_555
Cu2 In0 2.783445 1_555
Cu2 In3 2.824220 1_555
Cu3 In3 2.783445 1_455
Cu3 In0 2.824220 1_445
Cu4 Cu9 2.478039 1_556
Cu4 Cu6 2.520358 1_655
Cu4 Cu6 2.527329 1_555
Cu4 Cu8 2.536339 1_555
Cu4 In1 2.783445 1_555
Cu4 In2 2.824220 1_555
Cu5 In2 2.783445 1_555
Cu5 In1 2.824220 1_565
Cu6 Cu9 2.478039 1_556
Cu6 Cu8 2.536339 1_455
Cu6 In1 2.783445 1_555
Cu6 In2 2.824220 1_555
Cu7 Cu8 2.478039 1_454
Cu7 Cu9 2.536339 1_555
Cu7 In0 2.783445 1_455
Cu7 In3 2.824220 1_455
Cu8 In0 2.806427 1_556
Cu8 Cu9 2.889873 1_556
Cu8 Cu9 2.889873 1_656
Cu9 In1 2.806427 1_554
Cu10 Cu5 2.478039 1_555
Cu10 Cu3 2.536339 1_565
Cu10 Cu18 2.540094 1_555
Cu10 In2 2.806427 1_555
Cu10 Cu11 2.889873 1_565
Cu10 Cu11 2.889873 1_465
Cu10 Cu14 3.118944 1_555
Cu11 Cu3 2.478039 1_655
Cu11 Cu5 2.536339 1_645
Cu11 Cu19 2.540094 1_555
Cu11 In3 2.806427 1_555
Cu11 Cu15 3.118944 1_555
Cu12 Cu5 2.494944 1_655
Cu12 Cu19 2.540913 1_565
Cu12 Cu16 2.567856 1_555
Cu12 In0 2.675504 1_556
Cu12 In1 3.036502 1_565
Cu12 In1 3.036502 1_665
Cu12 Cu8 3.118944 1_555
Cu13 Cu3 2.494944 1_555
Cu13 Cu18 2.540913 1_545
Cu13 Cu17 2.567856 1_555
Cu13 In1 2.675504 1_554
Cu13 In0 3.036502 1_445
Cu13 In0 3.036502 1_545
Cu13 Cu9 3.118944 1_555
Cu14 Cu7 2.494944 1_555
Cu14 Cu2 2.494944 1_555
Cu14 Cu17 2.540913 1_555
Cu14 Cu18 2.567856 1_555
Cu14 In2 2.675504 1_555
Cu14 In3 3.036502 1_555
Cu14 In3 3.036502 1_455
Cu15 Cu4 2.494944 1_555
Cu15 Cu6 2.494944 1_655
Cu15 Cu16 2.540913 1_555
Cu15 Cu19 2.567856 1_555
Cu15 In3 2.675504 1_555
Cu15 In2 3.036502 1_555
Cu15 In2 3.036502 1_655
Cu16 Cu6 2.491568 1_655
Cu16 Cu4 2.491568 1_555
Cu16 Cu8 2.540094 1_555
Cu16 Cu5 2.540448 1_655
Cu16 In2 2.840113 1_655
Cu16 In2 2.840113 1_555
Cu17 Cu7 2.491568 1_555
Cu17 Cu2 2.491568 1_555
Cu17 Cu9 2.540094 1_555
Cu17 Cu3 2.540448 1_555
Cu17 In3 2.840113 1_455
Cu17 In3 2.840113 1_555
Cu18 Cu3 2.491568 1_565
Cu18 Cu2 2.540448 1_555
Cu18 Cu7 2.540448 1_555
Cu18 In0 2.840113 1_455
Cu18 In0 2.840113 1_555
Cu19 Cu5 2.491568 1_645
Cu19 Cu4 2.540448 1_555
Cu19 Cu6 2.540448 1_655
Cu19 In1 2.840113 1_555
Cu19 In1 2.840113 1_655
