# generated using pymatgen
data_SmMn2Ni3
_symmetry_space_group_name_H-M   'P 1'
_cell_length_a   5.05393380
_cell_length_b   5.05393380
_cell_length_c   3.99642200
_cell_angle_alpha   90.00000000
_cell_angle_beta   90.00000000
_cell_angle_gamma   119.99999736
_symmetry_Int_Tables_number   1
_chemical_formula_structural   SmMn2Ni3
_chemical_formula_sum   'Sm1 Mn2 Ni3'
_cell_volume   88.40179467
_cell_formula_units_Z   1
loop_
 _symmetry_equiv_pos_site_id
 _symmetry_equiv_pos_as_xyz
  1  'x, y, z'
loop_
 _atom_site_type_symbol
 _atom_site_label
 _atom_site_symmetry_multiplicity
 _atom_site_fract_x
 _atom_site_fract_y
 _atom_site_fract_z
 _atom_site_occupancy
  Sm  Sm0  1  0.00000000  0.00000000  0.00000000  1
  Mn  Mn0  1  0.66666700  0.33333300  0.00000000  1
  Mn  Mn1  1  0.33333300  0.66666700  0.00000000  1
  Ni  Ni0  1  0.50000000  0.50000000  0.50000000  1
  Ni  Ni1  1  0.50000000  0.00000000  0.50000000  1
  Ni  Ni2  1  0.00000000  0.50000000  0.50000000  1
loop_
_geom_bond_atom_site_label_1
_geom_bond_atom_site_label_2
_geom_bond_distance
_geom_bond_site_symmetry_2
Mn0 Ni1 2.474139 1_554
Mn0 Ni2 2.474139 1_654
Mn0 Ni2 2.474139 1_655
Mn0 Ni1 2.474139 1_555
Mn0 Ni0 2.474142 1_555
Mn0 Ni0 2.474142 1_554
Mn0 Sm0 2.917887 1_655
Mn0 Sm0 2.917892 1_555
Mn0 Sm0 2.917892 1_665
Mn1 Ni1 2.474139 1_564
Mn1 Ni2 2.474139 1_554
Mn1 Ni1 2.474139 1_565
Mn1 Ni2 2.474139 1_555
Mn1 Ni0 2.474142 1_555
Mn1 Ni0 2.474142 1_554
Mn1 Sm0 2.917887 1_565
Mn1 Sm0 2.917892 1_555
Mn1 Sm0 2.917892 1_665
Ni0 Ni2 2.526967 1_655
Ni0 Ni1 2.526967 1_555
Ni0 Ni1 2.526967 1_565
Ni0 Ni2 2.526967 1_555
Ni0 Sm0 3.221554 1_666
Ni0 Sm0 3.221554 1_556
Ni0 Sm0 3.221554 1_555
Ni0 Sm0 3.221554 1_665
Ni1 Ni2 2.526967 1_545
Ni1 Ni2 2.526967 1_655
Ni1 Sm0 3.221554 1_556
Ni1 Sm0 3.221554 1_555
Ni1 Sm0 3.221554 1_656
Ni1 Sm0 3.221554 1_655
Ni2 Sm0 3.221554 1_556
Ni2 Sm0 3.221554 1_555
Ni2 Sm0 3.221554 1_566
Ni2 Sm0 3.221554 1_565
