# generated using pymatgen
data_Tb2Sb3Pd
_symmetry_space_group_name_H-M   'P 1'
_cell_length_a   10.27287310
_cell_length_b   10.27287310
_cell_length_c   38.46956803
_cell_angle_alpha   90.00000000
_cell_angle_beta   90.00000000
_cell_angle_gamma   90.00000000
_symmetry_Int_Tables_number   1
_chemical_formula_structural   Tb2Sb3Pd
_chemical_formula_sum   'Tb2 Sb3 Pd1'
_cell_volume   4059.76744228
_cell_formula_units_Z   1
loop_
 _symmetry_equiv_pos_site_id
 _symmetry_equiv_pos_as_xyz
  1  'x, y, z'
loop_
 _atom_site_type_symbol
 _atom_site_label
 _atom_site_symmetry_multiplicity
 _atom_site_fract_x
 _atom_site_fract_y
 _atom_site_fract_z
 _atom_site_occupancy
  Tb  Tb0  1  0.50000000  0.50000000  0.24162037  1
  Tb  Tb1  1  0.50000000  0.50000000  0.75837963  1
  Sb  Sb0  1  0.50000000  0.50000000  0.68960649  1
  Sb  Sb1  1  0.50000000  0.50000000  0.31039351  1
  Sb  Sb2  1  0.50000000  0.50000000  -0.00000000  1
  Pd  Pd0  1  0.50000000  0.50000000  0.50000000  1
loop_
_geom_bond_atom_site_label_1
_geom_bond_atom_site_label_2
_geom_bond_distance
_geom_bond_site_symmetry_2
Sb0 Tb1 2.645673 1_555
Sb1 Tb0 2.645673 1_555
