# generated using pymatgen
data_MgSn3O7
_symmetry_space_group_name_H-M   'P 1'
_cell_length_a   5.23510300
_cell_length_b   10.23531900
_cell_length_c   10.31861700
_cell_angle_alpha   90.00000000
_cell_angle_beta   90.00000000
_cell_angle_gamma   90.00000000
_symmetry_Int_Tables_number   1
_chemical_formula_structural   MgSn3O7
_chemical_formula_sum   'Mg4 Sn12 O28'
_cell_volume   552.90193055
_cell_formula_units_Z   4
loop_
 _symmetry_equiv_pos_site_id
 _symmetry_equiv_pos_as_xyz
  1  'x, y, z'
loop_
 _atom_site_type_symbol
 _atom_site_label
 _atom_site_symmetry_multiplicity
 _atom_site_fract_x
 _atom_site_fract_y
 _atom_site_fract_z
 _atom_site_occupancy
  Mg  Mg0  1  0.33139900  0.13665700  0.25000000  1
  Mg  Mg1  1  0.83139900  0.36334300  0.75000000  1
  Mg  Mg2  1  0.66860100  0.86334300  0.75000000  1
  Mg  Mg3  1  0.16860100  0.63665700  0.25000000  1
  Sn  Sn0  1  0.64659400  0.63880100  0.01604300  1
  Sn  Sn1  1  0.14659400  0.86119900  0.98395700  1
  Sn  Sn2  1  0.35340600  0.36119900  0.51604300  1
  Sn  Sn3  1  0.85340600  0.13880100  0.48395700  1
  Sn  Sn4  1  0.68636800  0.85517700  0.25000000  1
  Sn  Sn5  1  0.18636800  0.64482300  0.75000000  1
  Sn  Sn6  1  0.31363200  0.14482300  0.75000000  1
  Sn  Sn7  1  0.81363200  0.35517700  0.25000000  1
  Sn  Sn8  1  0.14659400  0.86119900  0.51604300  1
  Sn  Sn9  1  0.64659400  0.63880100  0.48395700  1
  Sn  Sn10  1  0.85340600  0.13880100  0.01604300  1
  Sn  Sn11  1  0.35340600  0.36119900  0.98395700  1
  O  O0  1  0.07487200  0.24387000  0.87849500  1
  O  O1  1  0.57487200  0.25613000  0.12150500  1
  O  O2  1  0.92512800  0.75613000  0.37849500  1
  O  O3  1  0.42512800  0.74387000  0.62150500  1
  O  O4  1  0.92512800  0.75613000  0.12150500  1
  O  O5  1  0.42512800  0.74387000  0.87849500  1
  O  O6  1  0.07487200  0.24387000  0.62150500  1
  O  O7  1  0.57487200  0.25613000  0.37849500  1
  O  O8  1  0.57324700  0.21938200  0.87806300  1
  O  O9  1  0.07324700  0.28061800  0.12193700  1
  O  O10  1  0.42675300  0.78061800  0.37806300  1
  O  O11  1  0.92675300  0.71938200  0.62193700  1
  O  O12  1  0.42675300  0.78061800  0.12193700  1
  O  O13  1  0.92675300  0.71938200  0.87806300  1
  O  O14  1  0.57324700  0.21938200  0.62193700  1
  O  O15  1  0.07324700  0.28061800  0.37806300  1
  O  O16  1  0.80034500  0.54478300  0.25000000  1
  O  O17  1  0.30034500  0.95521700  0.75000000  1
  O  O18  1  0.19965500  0.45521700  0.75000000  1
  O  O19  1  0.69965500  0.04478300  0.25000000  1
  O  O20  1  0.81714600  0.96784800  0.58402500  1
  O  O21  1  0.31714600  0.53215200  0.41597500  1
  O  O22  1  0.18285400  0.03215200  0.08402500  1
  O  O23  1  0.68285400  0.46784800  0.91597500  1
  O  O24  1  0.18285400  0.03215200  0.41597500  1
  O  O25  1  0.68285400  0.46784800  0.58402500  1
  O  O26  1  0.81714600  0.96784800  0.91597500  1
  O  O27  1  0.31714600  0.53215200  0.08402500  1
loop_
_geom_bond_atom_site_label_1
_geom_bond_atom_site_label_2
_geom_bond_distance
_geom_bond_site_symmetry_2
Mg0 O19 2.144974 1_555
Mg0 O22 2.163789 1_555
Mg0 O24 2.163789 1_555
Mg0 O7 2.208609 1_555
Mg0 O1 2.208609 1_555
Mg0 O15 2.396617 1_555
Mg0 O9 2.396617 1_555
Mg1 O18 2.144974 1_655
Mg1 O25 2.163789 1_555
Mg1 O23 2.163789 1_555
Mg1 O0 2.208609 1_655
Mg1 O6 2.208609 1_655
Mg1 O8 2.396617 1_555
Mg1 O14 2.396617 1_555
Mg2 O17 2.144974 1_555
Mg2 O26 2.163789 1_555
Mg2 O20 2.163789 1_555
Mg2 O3 2.208609 1_555
Mg2 O5 2.208609 1_555
Mg2 O11 2.396617 1_555
Mg2 O13 2.396617 1_555
Mg3 O16 2.144974 1_455
Mg3 O21 2.163789 1_555
Mg3 O27 2.163789 1_555
Mg3 O2 2.208609 1_455
Mg3 O4 2.208609 1_455
Mg3 O12 2.396617 1_555
Mg3 O10 2.396617 1_555
O0 Sn6 2.085201 1_555
O0 Sn10 2.124887 1_456
O0 Sn11 2.180046 1_555
O1 Sn7 2.085201 1_555
O1 Sn11 2.124887 1_554
O1 Sn10 2.180046 1_555
O2 Sn4 2.085201 1_555
O2 Sn8 2.124887 1_655
O2 Sn9 2.180046 1_555
O3 Sn5 2.085201 1_555
O3 Sn9 2.124887 1_555
O3 Sn8 2.180046 1_555
O4 Sn4 2.085201 1_555
O4 Sn1 2.124887 1_654
O4 Sn0 2.180046 1_555
O5 Sn5 2.085201 1_555
O5 Sn0 2.124887 1_556
O5 Sn1 2.180046 1_555
O6 Sn6 2.085201 1_555
O6 Sn3 2.124887 1_455
O6 Sn2 2.180046 1_555
O7 Sn7 2.085201 1_555
O7 Sn2 2.124887 1_555
O7 Sn3 2.180046 1_555
O8 Sn6 2.043464 1_555
O8 Sn11 2.150691 1_555
O8 Sn10 2.204188 1_556
O9 Sn7 2.043464 1_455
O9 Sn10 2.150691 1_455
O9 Sn11 2.204188 1_554
O10 Sn4 2.043464 1_555
O10 Sn9 2.150691 1_555
O10 Sn8 2.204188 1_555
O11 Sn5 2.043464 1_655
O11 Sn8 2.150691 1_655
O11 Sn9 2.204188 1_555
O12 Sn4 2.043464 1_555
O12 Sn0 2.150691 1_555
O12 Sn1 2.204188 1_554
O13 Sn5 2.043464 1_655
O13 Sn1 2.150691 1_655
O13 Sn0 2.204188 1_556
O14 Sn6 2.043464 1_555
O14 Sn2 2.150691 1_555
O14 Sn3 2.204188 1_555
O15 Sn7 2.043464 1_455
O15 Sn3 2.150691 1_455
O15 Sn2 2.204188 1_555
O16 Sn7 1.941924 1_555
O17 Sn6 1.941924 1_565
O18 Sn5 1.941924 1_555
O19 Sn4 1.941924 1_545
O20 Sn3 2.040558 1_565
O20 Sn8 2.158288 1_655
O21 Sn2 2.040558 1_555
O21 Sn9 2.158288 1_555
O22 Sn1 2.040558 1_544
O22 Sn10 2.158288 1_455
O23 Sn0 2.040558 1_556
O23 Sn11 2.158288 1_555
O24 Sn8 2.040558 1_545
O24 Sn3 2.158288 1_455
O25 Sn9 2.040558 1_555
O25 Sn2 2.158288 1_555
O26 Sn10 2.040558 1_566
O26 Sn1 2.158288 1_655
O27 Sn11 2.040558 1_554
O27 Sn0 2.158288 1_555
