# generated using pymatgen
data_Na6Te2H28RuO30
_symmetry_space_group_name_H-M   'P 1'
_cell_length_a   7.00459200
_cell_length_b   9.06482287
_cell_length_c   11.74034500
_cell_angle_alpha   107.34325857
_cell_angle_beta   99.24023379
_cell_angle_gamma   90.39173939
_symmetry_Int_Tables_number   1
_chemical_formula_structural   Na6Te2H28RuO30
_chemical_formula_sum   'Na6 Te2 H28 Ru1 O30'
_cell_volume   701.14791787
_cell_formula_units_Z   1
loop_
 _symmetry_equiv_pos_site_id
 _symmetry_equiv_pos_as_xyz
  1  'x, y, z'
loop_
 _atom_site_type_symbol
 _atom_site_label
 _atom_site_symmetry_multiplicity
 _atom_site_fract_x
 _atom_site_fract_y
 _atom_site_fract_z
 _atom_site_occupancy
  Na  Na0  1  0.68217200  0.03561400  0.22674100  1
  Na  Na1  1  0.62838500  0.63983300  0.14967800  1
  Na  Na2  1  0.63492100  0.34128600  0.38462500  1
  Na  Na3  1  0.36507900  0.65871400  0.61537500  1
  Na  Na4  1  0.37161500  0.36016700  0.85032200  1
  Na  Na5  1  0.31782800  0.96438600  0.77325900  1
  Te  Te0  1  0.84372900  0.15493100  0.79598300  1
  Te  Te1  1  0.15627100  0.84506900  0.20401700  1
  H  H0  1  0.99560100  0.52759800  0.18243100  1
  H  H1  1  0.89134200  0.37110600  0.09048700  1
  H  H2  1  0.95956300  0.76632600  0.52626200  1
  H  H3  1  0.91018700  0.83651200  0.33746200  1
  H  H4  1  0.91151000  0.34981500  0.26328100  1
  H  H5  1  0.99786300  0.80481700  0.72681600  1
  H  H6  1  0.83015600  0.90717800  0.53427300  1
  H  H7  1  0.81115900  0.67555600  0.98592400  1
  H  H8  1  0.65713600  0.10825500  0.50582900  1
  H  H9  1  0.73613900  0.50652600  0.90234700  1
  H  H10  1  0.67491900  0.83300000  0.80275200  1
  H  H11  1  0.47307000  0.05273100  0.40086500  1
  H  H12  1  0.41143700  0.28650100  0.14267400  1
  H  H13  1  0.38482000  0.87717600  0.06886400  1
  H  H14  1  0.61518000  0.12282400  0.93113600  1
  H  H15  1  0.58856300  0.71349900  0.85732600  1
  H  H16  1  0.52693000  0.94726900  0.59913500  1
  H  H17  1  0.32508100  0.16700000  0.19724800  1
  H  H18  1  0.26386100  0.49347400  0.09765300  1
  H  H19  1  0.34286400  0.89174500  0.49417100  1
  H  H20  1  0.18884100  0.32444400  0.01407600  1
  H  H21  1  0.16984400  0.09282200  0.46572700  1
  H  H22  1  0.00213700  0.19518300  0.27318400  1
  H  H23  1  0.08849000  0.65018500  0.73671900  1
  H  H24  1  0.08981300  0.16348800  0.66253800  1
  H  H25  1  0.04043700  0.23367400  0.47373800  1
  H  H26  1  0.10865800  0.62889400  0.90951300  1
  H  H27  1  0.00439900  0.47240200  0.81756900  1
  Ru  Ru0  1  0.00000000  0.00000000  0.00000000  1
  O  O0  1  0.89188600  0.83819200  0.25101600  1
  O  O1  1  0.87739500  0.45330800  0.16621500  1
  O  O2  1  0.91850700  0.27698800  0.31408900  1
  O  O3  1  0.87376600  0.81471500  0.47518100  1
  O  O4  1  0.76349700  0.01275800  0.03446400  1
  O  O5  1  0.97737900  0.21178200  0.97020400  1
  O  O6  1  0.88628000  0.94406700  0.81989900  1
  O  O7  1  0.63834100  0.46353100  0.60117100  1
  O  O8  1  0.81061700  0.36429200  0.80476900  1
  O  O9  1  0.72722600  0.05832100  0.63404500  1
  O  O10  1  0.47430300  0.59877400  0.35276400  1
  O  O11  1  0.59966800  0.11695200  0.42463500  1
  O  O12  1  0.68922900  0.60648700  0.95384900  1
  O  O13  1  0.41542600  0.84936300  0.14467400  1
  O  O14  1  0.44618900  0.22964700  0.20310600  1
  O  O15  1  0.55381100  0.77035300  0.79689400  1
  O  O16  1  0.58457400  0.15063700  0.85532600  1
  O  O17  1  0.31077100  0.39351300  0.04615100  1
  O  O18  1  0.40033200  0.88304800  0.57536500  1
  O  O19  1  0.52569700  0.40122600  0.64723600  1
  O  O20  1  0.27277400  0.94167900  0.36595500  1
  O  O21  1  0.18938300  0.63570800  0.19523100  1
  O  O22  1  0.36165900  0.53646900  0.39882900  1
  O  O23  1  0.11372000  0.05593300  0.18010100  1
  O  O24  1  0.02262100  0.78821800  0.02979600  1
  O  O25  1  0.23650300  0.98724200  0.96553600  1
  O  O26  1  0.12623400  0.18528500  0.52481900  1
  O  O27  1  0.08149300  0.72301200  0.68591100  1
  O  O28  1  0.12260500  0.54669200  0.83378500  1
  O  O29  1  0.10811400  0.16180800  0.74898400  1
loop_
_geom_bond_atom_site_label_1
_geom_bond_atom_site_label_2
_geom_bond_distance
_geom_bond_site_symmetry_2
Na0 O4 2.366225 1_555
Na0 O0 2.376404 1_545
Na0 O13 2.383019 1_545
Na0 O11 2.385637 1_555
Na0 O14 2.467055 1_555
Na0 O2 2.578184 1_555
Na1 O12 2.336873 1_554
Na1 O13 2.431719 1_555
Na1 O0 2.455458 1_555
Na1 O1 2.462950 1_555
Na1 O10 2.887605 1_555
Na2 O11 2.239826 1_555
Na2 O14 2.259317 1_555
Na2 O2 2.286404 1_555
Na2 O7 2.447941 1_555
Na2 O22 2.606699 1_555
Na2 O10 2.697205 1_555
Na3 O18 2.239826 1_555
Na3 O15 2.259317 1_555
Na3 O27 2.286404 1_555
Na3 O22 2.447941 1_555
Na3 O7 2.606699 1_555
Na3 O19 2.697205 1_555
Na4 O17 2.336873 1_556
Na4 O16 2.431719 1_555
Na4 O29 2.455458 1_555
Na4 O28 2.462950 1_555
Na4 O19 2.887605 1_555
Na5 O25 2.366225 1_555
Na5 O29 2.376404 1_565
Na5 O16 2.383019 1_565
Na5 O18 2.385637 1_555
Na5 O15 2.467055 1_555
Na5 O27 2.578184 1_555
H0 O1 1.020109 1_555
H0 O21 1.629085 1_655
H1 O1 0.994563 1_555
H2 O3 0.978730 1_555
H3 O0 1.007054 1_555
H4 O2 1.009882 1_555
H5 O27 1.003816 1_655
H5 O6 1.692301 1_555
H5 Na5 2.550618 1_655
H6 O3 1.001006 1_555
H6 O9 1.759815 1_565
H7 O12 1.006020 1_555
H7 O24 1.709659 1_656
H8 O11 0.999469 1_555
H8 O9 1.698167 1_555
H9 O12 1.017777 1_555
H9 O8 1.602324 1_555
H10 O15 0.999123 1_555
H10 O6 1.734680 1_555
H11 O11 1.009825 1_555
H11 O20 1.643102 1_545
H12 O14 0.996239 1_555
H13 O13 0.987386 1_555
H14 O16 0.987386 1_555
H15 O15 0.996239 1_555
H16 O18 1.009825 1_555
H16 O9 1.643102 1_565
H17 O14 0.999123 1_555
H17 O23 1.734680 1_555
H18 O17 1.017777 1_555
H18 O21 1.602324 1_555
H19 O18 0.999469 1_555
H19 O20 1.698167 1_555
H20 O17 1.006020 1_555
H20 O5 1.709659 1_454
H21 O26 1.001006 1_555
H21 O20 1.759815 1_545
H22 O2 1.003816 1_455
H22 O23 1.692301 1_555
H22 Na0 2.550618 1_455
H23 O27 1.009882 1_555
H24 O29 1.007054 1_555
H25 O26 0.978730 1_555
H26 O28 0.994563 1_555
H27 O28 1.020109 1_555
H27 O8 1.629085 1_455
O0 Te1 2.021142 1_655
O4 Ru0 1.763923 1_655
O5 Te0 2.018840 1_555
O5 Ru0 2.054196 1_656
O6 Te0 2.030316 1_565
O6 Ru0 2.043742 1_666
O8 Te0 1.887630 1_555
O9 Te0 1.883295 1_555
O10 O22 1.243816 1_555
O13 Te1 2.050245 1_555
O16 Te0 2.050245 1_555
O19 O7 1.243816 1_555
O20 Te1 1.883295 1_555
O21 Te1 1.887630 1_555
O23 Te1 2.030316 1_545
O23 Ru0 2.043742 1_555
O24 Te1 2.018840 1_555
O24 Ru0 2.054196 1_565
O25 Ru0 1.763923 1_566
O29 Te0 2.021142 1_455
