# generated using pymatgen
data_Rb3La3(BO3)4
_symmetry_space_group_name_H-M   'P 1'
_cell_length_a   9.40911000
_cell_length_b   11.13964300
_cell_length_c   14.66001105
_cell_angle_alpha   69.36653341
_cell_angle_beta   90.00000000
_cell_angle_gamma   90.00000000
_symmetry_Int_Tables_number   1
_chemical_formula_structural   Rb3La3(BO3)4
_chemical_formula_sum   'Rb12 La12 B16 O48'
_cell_volume   1438.01082264
_cell_formula_units_Z   4
loop_
 _symmetry_equiv_pos_site_id
 _symmetry_equiv_pos_as_xyz
  1  'x, y, z'
loop_
 _atom_site_type_symbol
 _atom_site_label
 _atom_site_symmetry_multiplicity
 _atom_site_fract_x
 _atom_site_fract_y
 _atom_site_fract_z
 _atom_site_occupancy
  Rb  Rb0  1  0.56407000  0.69951800  0.90367300  1
  Rb  Rb1  1  0.43593000  0.30048200  0.09632700  1
  Rb  Rb2  1  0.56407000  0.30048200  0.59632700  1
  Rb  Rb3  1  0.43593000  0.69951800  0.40367300  1
  Rb  Rb4  1  0.92260800  0.61001600  0.04193500  1
  Rb  Rb5  1  0.07739200  0.38998400  0.95806500  1
  Rb  Rb6  1  0.92260800  0.38998400  0.45806500  1
  Rb  Rb7  1  0.07739200  0.61001600  0.54193500  1
  Rb  Rb8  1  0.85491400  0.91833500  0.41489500  1
  Rb  Rb9  1  0.14508600  0.08166500  0.58510500  1
  Rb  Rb10  1  0.85491400  0.08166500  0.08510500  1
  Rb  Rb11  1  0.14508600  0.91833500  0.91489500  1
  La  La0  1  0.53035100  0.83338500  0.61951300  1
  La  La1  1  0.46964900  0.16661500  0.38048700  1
  La  La2  1  0.53035100  0.16661500  0.88048700  1
  La  La3  1  0.46964900  0.83338500  0.11951300  1
  La  La4  1  0.80669500  0.00000000  0.75000000  1
  La  La5  1  0.19330500  0.00000000  0.25000000  1
  La  La6  1  0.80149600  0.71010500  0.25416900  1
  La  La7  1  0.19850400  0.28989500  0.74583100  1
  La  La8  1  0.80149600  0.28989500  0.24583100  1
  La  La9  1  0.19850400  0.71010500  0.75416900  1
  La  La10  1  0.73765100  0.50000000  0.75000000  1
  La  La11  1  0.26234900  0.50000000  0.25000000  1
  B  B0  1  0.41466400  0.00000000  0.75000000  1
  B  B1  1  0.58533600  0.00000000  0.25000000  1
  B  B2  1  0.73727400  0.87458000  0.99317800  1
  B  B3  1  0.26272600  0.12542000  0.00682200  1
  B  B4  1  0.73727400  0.12542000  0.50682200  1
  B  B5  1  0.26272600  0.87458000  0.49317800  1
  B  B6  1  0.89374200  0.76141300  0.72234000  1
  B  B7  1  0.10625800  0.23858700  0.27766000  1
  B  B8  1  0.89374200  0.23858700  0.77766000  1
  B  B9  1  0.10625800  0.76141300  0.22234000  1
  B  B10  1  0.73456300  0.61725900  0.52031600  1
  B  B11  1  0.26543700  0.38274100  0.47968400  1
  B  B12  1  0.73456300  0.38274100  0.97968400  1
  B  B13  1  0.26543700  0.61725900  0.02031600  1
  B  B14  1  0.40409000  0.50000000  0.75000000  1
  B  B15  1  0.59591000  0.50000000  0.25000000  1
  O  O0  1  0.94770800  0.64851100  0.71744500  1
  O  O1  1  0.05229200  0.35148900  0.28255500  1
  O  O2  1  0.94770800  0.35148900  0.78255500  1
  O  O3  1  0.05229200  0.64851100  0.21744500  1
  O  O4  1  0.77001000  0.49791300  0.58670000  1
  O  O5  1  0.22999000  0.50208700  0.41330000  1
  O  O6  1  0.77001000  0.50208700  0.91330000  1
  O  O7  1  0.22999000  0.49791300  0.08670000  1
  O  O8  1  0.72565000  0.77565600  0.08424800  1
  O  O9  1  0.27435000  0.22434400  0.91575200  1
  O  O10  1  0.72565000  0.22434400  0.41575200  1
  O  O11  1  0.27435000  0.77565600  0.58424800  1
  O  O12  1  0.47619900  0.60941100  0.74969300  1
  O  O13  1  0.52380100  0.39058900  0.25030700  1
  O  O14  1  0.47619900  0.39058900  0.75030700  1
  O  O15  1  0.52380100  0.60941100  0.24969300  1
  O  O16  1  0.83922800  0.87681000  0.92616700  1
  O  O17  1  0.16077200  0.12319000  0.07383300  1
  O  O18  1  0.83922800  0.12319000  0.57383300  1
  O  O19  1  0.16077200  0.87681000  0.42616700  1
  O  O20  1  0.78281500  0.34539400  0.07597400  1
  O  O21  1  0.21718500  0.65460600  0.92402600  1
  O  O22  1  0.78281500  0.65460600  0.42402600  1
  O  O23  1  0.21718500  0.34539400  0.57597400  1
  O  O24  1  0.25489200  0.50000000  0.75000000  1
  O  O25  1  0.74510800  0.50000000  0.25000000  1
  O  O26  1  0.99141900  0.85360500  0.72970700  1
  O  O27  1  0.00858100  0.14639500  0.27029300  1
  O  O28  1  0.99141900  0.14639500  0.77029300  1
  O  O29  1  0.00858100  0.85360500  0.22970700  1
  O  O30  1  0.63082100  0.96706100  0.97481200  1
  O  O31  1  0.36917900  0.03293900  0.02518800  1
  O  O32  1  0.63082100  0.03293900  0.52518800  1
  O  O33  1  0.36917900  0.96706100  0.47481200  1
  O  O34  1  0.56123800  0.00000000  0.75000000  1
  O  O35  1  0.43876200  0.00000000  0.25000000  1
  O  O36  1  0.34471100  0.90001800  0.73253300  1
  O  O37  1  0.65528900  0.09998200  0.26746700  1
  O  O38  1  0.34471100  0.09998200  0.76746700  1
  O  O39  1  0.65528900  0.90001800  0.23253300  1
  O  O40  1  0.65285400  0.70218200  0.54989800  1
  O  O41  1  0.34714600  0.29781800  0.45010200  1
  O  O42  1  0.65285400  0.29781800  0.95010200  1
  O  O43  1  0.34714600  0.70218200  0.04989800  1
  O  O44  1  0.74882600  0.78506300  0.72318300  1
  O  O45  1  0.25117400  0.21493700  0.27681700  1
  O  O46  1  0.74882600  0.21493700  0.77681700  1
  O  O47  1  0.25117400  0.78506300  0.22318300  1
loop_
_geom_bond_atom_site_label_1
_geom_bond_atom_site_label_2
_geom_bond_distance
_geom_bond_site_symmetry_2
La0 O40 2.357437 1_555
La0 O32 2.362399 1_565
La0 O44 2.499741 1_555
La0 O11 2.591751 1_555
La0 O12 2.602098 1_555
La0 O33 2.605927 1_555
La0 O36 2.685879 1_555
La1 O41 2.357437 1_555
La1 O33 2.362399 1_545
La1 O45 2.499741 1_555
La1 O10 2.591751 1_555
La1 O13 2.602098 1_555
La1 O32 2.605927 1_555
La1 O37 2.685879 1_555
La2 O42 2.357437 1_555
La2 O30 2.362399 1_545
La2 O46 2.499741 1_555
La2 O9 2.591751 1_555
La2 O14 2.602098 1_555
La2 O31 2.605927 1_556
La2 O38 2.685879 1_555
La3 O43 2.357437 1_555
La3 O31 2.362399 1_565
La3 O47 2.499741 1_555
La3 O8 2.591751 1_555
La3 O15 2.602098 1_555
La3 O30 2.605927 1_554
La3 O39 2.685879 1_555
La4 O34 2.309532 1_555
La4 O28 2.472013 1_555
La4 O26 2.472013 1_545
La4 O16 2.479711 1_545
La4 O18 2.479711 1_555
La4 O46 2.616718 1_555
La4 O44 2.616718 1_545
La5 O35 2.309532 1_555
La5 O27 2.472013 1_555
La5 O29 2.472013 1_545
La5 O19 2.479711 1_545
La5 O17 2.479711 1_555
La5 O45 2.616718 1_555
La5 O47 2.616718 1_545
La6 O22 2.351330 1_555
La6 O25 2.421562 1_555
La6 O8 2.442501 1_555
La6 O39 2.448628 1_555
La6 O29 2.465057 1_655
La6 O3 2.566997 1_655
La6 O15 2.853319 1_555
La7 O23 2.351330 1_555
La7 O24 2.421562 1_555
La7 O9 2.442501 1_555
La7 O38 2.448628 1_555
La7 O28 2.465057 1_455
La7 O2 2.566997 1_455
La7 O14 2.853319 1_555
La8 O20 2.351330 1_555
La8 O25 2.421562 1_555
La8 O10 2.442501 1_555
La8 O37 2.448628 1_555
La8 O27 2.465057 1_655
La8 O1 2.566997 1_655
La8 O13 2.853319 1_555
La9 O21 2.351330 1_555
La9 O24 2.421562 1_555
La9 O11 2.442501 1_555
La9 O36 2.448628 1_555
La9 O26 2.465057 1_455
La9 O0 2.566997 1_455
La9 O12 2.853319 1_555
La10 O6 2.421489 1_555
La10 O4 2.421489 1_555
La10 O0 2.512881 1_555
La10 O2 2.512881 1_555
La10 O12 2.744700 1_555
La10 O14 2.744700 1_555
La10 O44 3.060974 1_555
La10 O46 3.060974 1_555
La10 O40 3.107757 1_555
La10 O42 3.107757 1_555
La11 O7 2.421489 1_555
La11 O5 2.421489 1_555
La11 O3 2.512881 1_555
La11 O1 2.512881 1_555
La11 O15 2.744700 1_555
La11 O13 2.744700 1_555
La11 O47 3.060974 1_555
La11 O45 3.060974 1_555
La11 O43 3.107757 1_555
La11 O41 3.107757 1_555
B0 O34 1.379131 1_555
B0 O38 1.392933 1_555
B0 O36 1.392933 1_545
B1 O35 1.379131 1_555
B1 O37 1.392933 1_555
B1 O39 1.392933 1_545
B2 O16 1.367019 1_555
B2 O30 1.393408 1_555
B2 O8 1.404237 1_556
B2 Rb10 3.248687 1_566
B3 O17 1.367019 1_555
B3 O31 1.393408 1_555
B3 O9 1.404237 1_554
B3 Rb11 3.248687 1_544
B4 O18 1.367019 1_555
B4 O32 1.393408 1_555
B4 O10 1.404237 1_555
B4 Rb8 3.248687 1_545
B5 O19 1.367019 1_555
B5 O33 1.393408 1_555
B5 O11 1.404237 1_555
B5 Rb9 3.248687 1_565
B6 O0 1.381437 1_555
B6 O44 1.389630 1_555
B6 O26 1.410388 1_555
B7 O1 1.381437 1_555
B7 O45 1.389630 1_555
B7 O27 1.410388 1_555
B8 O2 1.381437 1_555
B8 O46 1.389630 1_555
B8 O28 1.410388 1_555
B9 O3 1.381437 1_555
B9 O47 1.389630 1_555
B9 O29 1.410388 1_555
B10 O4 1.383464 1_555
B10 O22 1.399270 1_555
B10 O40 1.401149 1_555
B11 O5 1.383464 1_555
B11 O23 1.399270 1_555
B11 O41 1.401149 1_555
B12 O6 1.383464 1_555
B12 O20 1.399270 1_556
B12 O42 1.401149 1_555
B13 O7 1.383464 1_555
B13 O21 1.399270 1_554
B13 O43 1.401149 1_555
B14 O12 1.393544 1_555
B14 O14 1.393544 1_555
B14 O24 1.403820 1_555
B15 O15 1.393544 1_555
B15 O13 1.393544 1_555
B15 O25 1.403820 1_555
O0 Rb7 3.011749 1_655
O1 Rb6 3.011749 1_455
O2 Rb5 3.011749 1_655
O3 Rb4 3.011749 1_455
O4 Rb2 2.897043 1_555
O4 Rb6 2.942988 1_555
O4 Rb7 3.126872 1_655
O5 Rb3 2.897043 1_555
O5 Rb7 2.942988 1_555
O5 Rb6 3.126872 1_455
O6 Rb0 2.897043 1_555
O6 Rb4 2.942988 1_556
O6 Rb5 3.126872 1_655
O7 Rb1 2.897043 1_555
O7 Rb5 2.942988 1_554
O7 Rb4 3.126872 1_455
O8 Rb4 2.833806 1_555
O9 Rb5 2.833806 1_555
O10 Rb6 2.833806 1_555
O11 Rb7 2.833806 1_555
O12 Rb0 2.895452 1_555
O13 Rb1 2.895452 1_555
O14 Rb2 2.895452 1_555
O15 Rb3 2.895452 1_555
O16 Rb11 2.910230 1_655
O16 Rb4 2.962045 1_556
O17 Rb10 2.910230 1_455
O17 Rb5 2.962045 1_554
O18 Rb9 2.910230 1_655
O18 Rb6 2.962045 1_555
O19 Rb8 2.910230 1_455
O19 Rb7 2.962045 1_555
O20 Rb10 2.971853 1_555
O20 Rb4 3.103527 1_555
O20 Rb5 3.211206 1_654
O21 Rb11 2.971853 1_555
O21 Rb5 3.103527 1_555
O21 Rb4 3.211206 1_456
O22 Rb8 2.971853 1_555
O22 Rb6 3.103527 1_555
O22 Rb7 3.211206 1_655
O23 Rb9 2.971853 1_555
O23 Rb7 3.103527 1_555
O23 Rb6 3.211206 1_455
O24 Rb5 3.310678 1_555
O24 Rb7 3.310678 1_555
O25 Rb4 3.310678 1_555
O25 Rb6 3.310678 1_555
O26 Rb9 3.040222 1_665
O26 Rb11 3.370550 1_655
O27 Rb8 3.040222 1_445
O27 Rb10 3.370550 1_455
O28 Rb11 3.040222 1_645
O28 Rb9 3.370550 1_655
O29 Rb10 3.040222 1_465
O29 Rb8 3.370550 1_455
O30 Rb10 3.185095 1_566
O31 Rb11 3.185095 1_544
O32 Rb8 3.185095 1_545
O33 Rb9 3.185095 1_565
O36 Rb9 3.035035 1_565
O36 Rb11 3.331861 1_555
O37 Rb8 3.035035 1_545
O37 Rb10 3.331861 1_555
O38 Rb11 3.035035 1_545
O38 Rb9 3.331861 1_555
O39 Rb10 3.035035 1_565
O39 Rb8 3.331861 1_555
O40 Rb3 2.967647 1_555
O40 Rb8 3.157656 1_555
O41 Rb2 2.967647 1_555
O41 Rb9 3.157656 1_555
O42 Rb1 2.967647 1_556
O42 Rb10 3.157656 1_556
O43 Rb0 2.967647 1_554
O43 Rb11 3.157656 1_554
O44 Rb0 3.025601 1_555
O45 Rb1 3.025601 1_555
O46 Rb2 3.025601 1_555
O47 Rb3 3.025601 1_555
