# generated using pymatgen
data_CaFe(Si2O5)2
_symmetry_space_group_name_H-M   'P 1'
_cell_length_a   7.47581400
_cell_length_b   7.47581400
_cell_length_c   15.38404000
_cell_angle_alpha   90.00000000
_cell_angle_beta   90.00000000
_cell_angle_gamma   90.00000000
_symmetry_Int_Tables_number   1
_chemical_formula_structural   CaFe(Si2O5)2
_chemical_formula_sum   'Ca4 Fe4 Si16 O40'
_cell_volume   859.78007322
_cell_formula_units_Z   4
loop_
 _symmetry_equiv_pos_site_id
 _symmetry_equiv_pos_as_xyz
  1  'x, y, z'
loop_
 _atom_site_type_symbol
 _atom_site_label
 _atom_site_symmetry_multiplicity
 _atom_site_fract_x
 _atom_site_fract_y
 _atom_site_fract_z
 _atom_site_occupancy
  Ca  Ca0  1  0.50000000  0.50000000  0.50000000  1
  Ca  Ca1  1  0.00000000  0.00000000  0.50000000  1
  Ca  Ca2  1  0.00000000  0.00000000  0.00000000  1
  Ca  Ca3  1  0.50000000  0.50000000  0.00000000  1
  Fe  Fe0  1  0.50000000  0.00000000  0.58011500  1
  Fe  Fe1  1  0.00000000  0.50000000  0.91988500  1
  Fe  Fe2  1  0.00000000  0.50000000  0.41988500  1
  Fe  Fe3  1  0.50000000  0.00000000  0.08011500  1
  Si  Si0  1  0.17139200  0.25261000  0.64816800  1
  Si  Si1  1  0.82860800  0.74739000  0.64816800  1
  Si  Si2  1  0.25261000  0.17139200  0.85183200  1
  Si  Si3  1  0.75261000  0.32860800  0.64816800  1
  Si  Si4  1  0.24739000  0.67139200  0.64816800  1
  Si  Si5  1  0.32860800  0.75261000  0.85183200  1
  Si  Si6  1  0.67139200  0.24739000  0.85183200  1
  Si  Si7  1  0.74739000  0.82860800  0.85183200  1
  Si  Si8  1  0.32860800  0.24739000  0.35183200  1
  Si  Si9  1  0.67139200  0.75261000  0.35183200  1
  Si  Si10  1  0.24739000  0.32860800  0.14816800  1
  Si  Si11  1  0.74739000  0.17139200  0.35183200  1
  Si  Si12  1  0.25261000  0.82860800  0.35183200  1
  Si  Si13  1  0.17139200  0.74739000  0.14816800  1
  Si  Si14  1  0.82860800  0.25261000  0.14816800  1
  Si  Si15  1  0.75261000  0.67139200  0.14816800  1
  O  O0  1  0.24968600  0.10518100  0.58240200  1
  O  O1  1  0.75031400  0.89481900  0.58240200  1
  O  O2  1  0.10518100  0.24968600  0.91759800  1
  O  O3  1  0.60518100  0.25031400  0.58240200  1
  O  O4  1  0.39481900  0.74968600  0.58240200  1
  O  O5  1  0.25031400  0.60518100  0.91759800  1
  O  O6  1  0.74968600  0.39481900  0.91759800  1
  O  O7  1  0.89481900  0.75031400  0.91759800  1
  O  O8  1  0.25031400  0.39481900  0.41759800  1
  O  O9  1  0.74968600  0.60518100  0.41759800  1
  O  O10  1  0.39481900  0.25031400  0.08240200  1
  O  O11  1  0.89481900  0.24968600  0.41759800  1
  O  O12  1  0.10518100  0.75031400  0.41759800  1
  O  O13  1  0.24968600  0.89481900  0.08240200  1
  O  O14  1  0.75031400  0.10518100  0.08240200  1
  O  O15  1  0.25144700  0.04558300  0.37194400  1
  O  O16  1  0.60518100  0.74968600  0.08240200  1
  O  O17  1  0.75144700  0.54558300  0.62805600  1
  O  O18  1  0.45441700  0.24855300  0.87194400  1
  O  O19  1  0.95441700  0.25144700  0.62805600  1
  O  O20  1  0.04558300  0.74855300  0.62805600  1
  O  O21  1  0.25144700  0.95441700  0.87194400  1
  O  O22  1  0.74855300  0.04558300  0.87194400  1
  O  O23  1  0.54558300  0.75144700  0.87194400  1
  O  O24  1  0.70833900  0.70833900  0.25000000  1
  O  O25  1  0.79166100  0.20833900  0.25000000  1
  O  O26  1  0.20833900  0.79166100  0.25000000  1
  O  O27  1  0.29166100  0.29166100  0.25000000  1
  O  O28  1  0.79166100  0.79166100  0.75000000  1
  O  O29  1  0.70833900  0.29166100  0.75000000  1
  O  O30  1  0.29166100  0.70833900  0.75000000  1
  O  O31  1  0.20833900  0.20833900  0.75000000  1
  O  O32  1  0.95441700  0.74855300  0.12805600  1
  O  O33  1  0.75144700  0.45441700  0.12805600  1
  O  O34  1  0.24855300  0.54558300  0.12805600  1
  O  O35  1  0.45441700  0.75144700  0.37194400  1
  O  O36  1  0.54558300  0.24855300  0.37194400  1
  O  O37  1  0.04558300  0.25144700  0.12805600  1
  O  O38  1  0.74855300  0.95441700  0.37194400  1
  O  O39  1  0.24855300  0.45441700  0.62805600  1
loop_
_geom_bond_atom_site_label_1
_geom_bond_atom_site_label_2
_geom_bond_distance
_geom_bond_site_symmetry_2
Ca0 O4 2.389458 1_555
Ca0 O9 2.389458 1_555
Ca0 O8 2.389458 1_555
Ca0 O3 2.389458 1_555
Ca0 O39 2.744201 1_555
Ca0 O17 2.744201 1_555
Ca0 O35 2.744201 1_555
Ca0 O36 2.744201 1_555
Ca1 O1 2.389458 1_445
Ca1 O12 2.389458 1_545
Ca1 O0 2.389458 1_555
Ca1 O11 2.389458 1_455
Ca1 O20 2.744201 1_545
Ca1 O19 2.744201 1_455
Ca1 O15 2.744201 1_555
Ca1 O38 2.744201 1_445
Ca2 O7 2.389458 1_444
Ca2 O2 2.389458 1_554
Ca2 O13 2.389458 1_545
Ca2 O14 2.389458 1_455
Ca2 O22 2.744201 1_454
Ca2 O21 2.744201 1_544
Ca2 O37 2.744201 1_555
Ca2 O32 2.744201 1_445
Ca3 O6 2.389458 1_554
Ca3 O5 2.389458 1_554
Ca3 O10 2.389458 1_555
Ca3 O16 2.389458 1_555
Ca3 O18 2.744201 1_554
Ca3 O23 2.744201 1_554
Ca3 O34 2.744201 1_555
Ca3 O33 2.744201 1_555
Fe0 O3 2.030097 1_555
Fe0 O4 2.030097 1_545
Fe0 O0 2.030097 1_555
Fe0 O1 2.030097 1_545
Fe1 O5 2.030097 1_555
Fe1 O7 2.030097 1_455
Fe1 O6 2.030097 1_455
Fe1 O2 2.030097 1_555
Fe2 O8 2.030097 1_555
Fe2 O9 2.030097 1_455
Fe2 O11 2.030097 1_455
Fe2 O12 2.030097 1_555
Fe3 O10 2.030097 1_555
Fe3 O16 2.030097 1_545
Fe3 O14 2.030097 1_555
Fe3 O13 2.030097 1_545
O0 Si0 1.606536 1_555
O1 Si1 1.606536 1_555
O2 Si2 1.606536 1_555
O3 Si3 1.606536 1_555
O4 Si4 1.606536 1_555
O5 Si5 1.606536 1_555
O6 Si6 1.606536 1_555
O7 Si7 1.606536 1_555
O8 Si8 1.606536 1_555
O9 Si9 1.606536 1_555
O10 Si10 1.606536 1_555
O11 Si11 1.606536 1_555
O12 Si12 1.606536 1_555
O13 Si13 1.606536 1_555
O14 Si14 1.606536 1_555
O15 Si8 1.644557 1_555
O15 Si12 1.651333 1_545
O16 Si15 1.606536 1_555
O17 Si1 1.644557 1_555
O17 Si3 1.651333 1_555
O18 Si2 1.644557 1_555
O18 Si6 1.651333 1_555
O19 Si3 1.644557 1_555
O19 Si0 1.651333 1_655
O20 Si4 1.644557 1_555
O20 Si1 1.651333 1_455
O21 Si5 1.644557 1_555
O21 Si2 1.651333 1_565
O22 Si6 1.644557 1_555
O22 Si7 1.651333 1_545
O23 Si7 1.644557 1_555
O23 Si5 1.651333 1_555
O24 Si9 1.624815 1_555
O24 Si15 1.624815 1_555
O25 Si11 1.624815 1_555
O25 Si14 1.624815 1_555
O26 Si12 1.624815 1_555
O26 Si13 1.624815 1_555
O27 Si8 1.624815 1_555
O27 Si10 1.624815 1_555
O28 Si7 1.624815 1_555
O28 Si1 1.624815 1_555
O29 Si3 1.624815 1_555
O29 Si6 1.624815 1_555
O30 Si5 1.624815 1_555
O30 Si4 1.624815 1_555
O31 Si0 1.624815 1_555
O31 Si2 1.624815 1_555
O32 Si15 1.644557 1_555
O32 Si13 1.651333 1_655
O33 Si14 1.644557 1_555
O33 Si15 1.651333 1_555
O34 Si13 1.644557 1_555
O34 Si10 1.651333 1_555
O35 Si12 1.644557 1_555
O35 Si9 1.651333 1_555
O36 Si11 1.644557 1_555
O36 Si8 1.651333 1_555
O37 Si10 1.644557 1_555
O37 Si14 1.651333 1_455
O38 Si9 1.644557 1_555
O38 Si11 1.651333 1_565
O39 Si0 1.644557 1_555
O39 Si4 1.651333 1_555
